drugbank_target|P21404 Genome polyprotein (DB08231; DB08726)
 OpenBabel12092120493D

  0  0  0     0  0            999 V3000
M  V30 BEGIN CTAB
M  V30 COUNTS 34405 34828 0 0 0
M  V30 BEGIN ATOM
M  V30 1 H -0.908 1.98254 -0.117106 0
M  V30 2 N 0 1.576 0 0
M  V30 3 C 0.933 2.03868 1.02534 0
M  V30 4 C 1.911 0.928543 1.3348 0
M  V30 5 O 3.095 1.19667 1.45644 0
M  V30 6 C 0.222 2.43627 2.35294 0
M  V30 7 C -0.732 3.65373 2.2001 0
M  V30 8 S 0.101 5.13292 1.52614 0
M  V30 9 C 1.257 5.56322 2.86805 0
M  V30 10 H 1.49 2.90518 0.631377 0
M  V30 11 H -0.977 1.52953 0.210867 0
M  V30 12 H 0.981 2.67203 3.11629 0
M  V30 13 H -0.358 1.57376 2.7183 0
M  V30 14 H -1.165 3.90944 3.18086 0
M  V30 15 H -1.563 3.418 1.51819 0
M  V30 16 H 0.729 5.58782 3.83104 0
M  V30 17 H 1.672 6.56266 2.65933 0
M  V30 18 H 2.08 4.83886 2.90714 0
M  V30 19 N 1.4781 -0.272755 1.55222 0
M  V30 20 C 2.7261 -1.00234 1.75492 0
M  V30 21 C 3.0471 -1.8681 0.5592 0
M  V30 22 O 2.3171 -1.91215 -0.425882 0
M  V30 23 H 0.8971 -0.373076 0.647166 0
M  V30 24 H 3.5591 -0.296926 1.92625 0
M  V30 25 H 2.6551 -1.63913 2.65592 0
M  V30 26 N 2.9562 -1.48159 -0.537278 0
M  V30 27 C 3.9192 -1.61665 -1.62472 0
M  V30 28 C 4.9192 -0.490395 -1.5314 0
M  V30 29 O 6.1092 -0.755998 -1.5694 0
M  V30 30 C 3.2412 -1.57997 -3.02076 0
M  V30 31 H 4.4342 -2.58621 -1.51839 0
M  V30 32 H 1.9872 -1.36647 -0.758771 0
M  V30 33 H 2.7222 -0.624913 -3.18222 0
M  V30 34 H 2.5072 -2.39755 -3.10258 0
M  V30 35 H 3.9972 -1.70627 -3.81151 0
M  V30 36 N 4.4343 0.785586 -1.36625 0
M  V30 37 C 5.3663 1.90711 -1.2713 0
M  V30 38 C 6.3793 1.61688 -0.189986 0
M  V30 39 O 7.5683 1.72864 -0.445014 0
M  V30 40 C 4.6683 3.25611 -0.939713 0
M  V30 41 C 3.8413 3.82385 -2.12369 0
M  V30 42 C 2.9003 4.95732 -1.76456 0
M  V30 43 O 1.9263 5.12047 -2.48589 0
M  V30 44 N 3.1283 5.76258 -0.700492 0
M  V30 45 H 5.8933 1.99376 -2.23762 0
M  V30 46 H 3.4543 0.964041 -1.30069 0
M  V30 47 H 5.4463 3.98937 -0.680554 0
M  V30 48 H 4.0163 3.12538 -0.0624074 0
M  V30 49 H 3.2363 3.01001 -2.54543 0
M  V30 50 H 4.5243 4.17047 -2.9146 0
M  V30 51 H 3.9223 5.65609 -0.101624 0
M  V30 52 H 2.4793 6.4987 -0.501165 0
M  V30 53 N 5.9124 1.20967 1.01018 0
M  V30 54 C 7.1584 1.02526 1.74975 0
M  V30 55 C 7.4914 -0.4408 1.89131 0
M  V30 56 O 6.7664 -1.32718 1.42184 0
M  V30 57 C 7.0494 1.71699 3.1653 0
M  V30 58 C 6.9024 3.25791 3.10129 0
M  V30 59 C 8.2214 1.45531 4.15342 0
M  V30 60 H 5.3404 0.373863 0.635134 0
M  V30 61 H 7.9824 1.49071 1.17805 0
M  V30 62 H 6.1324 1.32128 3.65341 0
M  V30 63 H 7.8044 3.74697 2.69072 0
M  V30 64 H 6.0474 3.56363 2.47362 0
M  V30 65 H 6.7184 3.69353 4.10222 0
M  V30 66 H 9.1944 1.79872 3.75213 0
M  V30 67 H 8.0704 1.96453 5.1254 0
M  V30 68 H 8.3314 0.384237 4.40427 0
M  V30 69 N 7.3905 -1.2043 1.01659 0
M  V30 70 C 8.6155 -1.94318 0.724942 0
M  V30 71 C 9.0405 -1.74266 -0.708034 0
M  V30 72 O 8.3985 -1.03694 -1.48719 0
M  V30 73 C 8.4465 -3.44486 1.06591 0
M  V30 74 O 7.5505 -4.12017 0.177599 0
M  V30 75 H 6.8915 -0.60708 0.26898 0
M  V30 76 H 9.4215 -1.52861 1.35995 0
M  V30 77 H 9.4315 -3.95106 1.01762 0
M  V30 78 H 8.1065 -3.58404 2.10997 0
M  V30 79 H 6.6835 -3.71821 0.283421 0
M  V30 80 N 8.8686 -0.792821 -1.36206 0
M  V30 81 C 10.0966 -0.378825 -2.03402 0
M  V30 82 C 10.5116 1.00586 -1.59774 0
M  V30 83 O 9.8686 1.64574 -0.788764 0
M  V30 84 C 9.9196 -0.43683 -3.58851 0
M  V30 85 O 9.6406 -1.76691 -4.00889 0
M  V30 86 C 11.1416 -0.0138943 -4.43298 0
M  V30 87 H 8.3616 -0.155673 -0.652692 0
M  V30 88 H 10.9056 -1.07261 -1.74113 0
M  V30 89 H 9.0606 0.208575 -3.86838 0
M  V30 90 H 9.4746 -1.72011 -4.95492 0
M  V30 91 H 10.9486 -0.105615 -5.51899 0
M  V30 92 H 11.4256 1.03915 -4.2673 0
M  V30 93 H 12.0316 -0.63192 -4.20579 0
M  V30 94 N 10.3467 1.47872 -0.545128 0
M  V30 95 C 11.2787 2.27869 0.246621 0
M  V30 96 C 12.2917 1.36282 0.890561 0
M  V30 97 O 13.4807 1.61207 0.766449 0
M  V30 98 C 10.5807 3.10159 1.36582 0
M  V30 99 C 9.7537 4.29627 0.820954 0
M  V30 100 C 8.8127 4.93607 1.82314 0
M  V30 101 O 7.8387 5.52366 1.37406 0
M  V30 102 N 9.0407 4.87211 3.15603 0
M  V30 103 H 11.8057 2.96459 -0.439539 0
M  V30 104 H 9.3667 1.57367 -0.380421 0
M  V30 105 H 11.3587 3.49829 2.03474 0
M  V30 106 H 9.9287 2.43891 1.9554 0
M  V30 107 H 9.1487 3.94192 -0.0244032 0
M  V30 108 H 10.4367 5.06928 0.436063 0
M  V30 109 H 9.8347 4.40651 3.54744 0
M  V30 110 H 8.3917 5.30937 3.78087 0
M  V30 111 N 11.8248 0.280983 1.55075 0
M  V30 112 C 12.7718 -0.603937 2.22758 0
M  V30 113 C 13.7418 -1.1452 1.20309 0
M  V30 114 O 14.9268 -1.19343 1.48869 0
M  V30 115 C 12.0668 -1.77947 2.95684 0
M  V30 116 C 11.1798 -1.2715 4.12864 0
M  V30 117 C 10.3148 -2.4093 4.7342 0
M  V30 118 C 9.3538 -1.87165 5.82783 0
M  V30 119 N 8.4908 -2.94441 6.37377 0
M  V30 120 H 13.3308 -0.020124 2.97993 0
M  V30 121 H 10.8678 0.00183425 1.471 0
M  V30 122 H 12.8258 -2.47055 3.36184 0
M  V30 123 H 11.4558 -2.33522 2.22861 0
M  V30 124 H 10.5078 -0.473331 3.77444 0
M  V30 125 H 11.8198 -0.837751 4.91715 0
M  V30 126 H 10.9738 -3.18021 5.1667 0
M  V30 127 H 9.7128 -2.87623 3.93859 0
M  V30 128 H 8.7178 -1.08556 5.38976 0
M  V30 129 H 9.9428 -1.41401 6.64216 0
M  V30 130 H 7.8888 -3.40505 5.60707 0
M  V30 131 H 7.8058 -2.55501 7.11516 0
M  V30 132 H 9.0738 -3.71489 6.85285 0
M  V30 133 N 13.3029 -1.57598 0.00835791 0
M  V30 134 C 14.5309 -1.95214 -0.68549 0
M  V30 135 C 14.9459 -0.883706 -1.66841 0
M  V30 136 O 14.3029 0.136565 -1.81988 0
M  V30 137 C 14.3539 -3.32865 -1.41007 0
M  V30 138 O 14.0749 -4.35609 -0.466552 0
M  V30 139 C 15.5759 -3.84991 -2.19765 0
M  V30 140 H 12.7959 -0.643422 -0.190392 0
M  V30 141 H 15.3399 -2.04406 0.0619607 0
M  V30 142 H 13.4949 -3.24956 -2.10908 0
M  V30 143 H 13.9089 -5.15288 -0.978699 0
M  V30 144 H 15.3829 -4.8371 -2.65948 0
M  V30 145 H 15.8599 -3.18137 -3.02796 0
M  V30 146 H 16.4659 -3.96103 -1.54864 0
M  V30 147 N 14.781 0.264519 -1.55364 0
M  V30 148 C 16.029 0.993021 -1.76021 0
M  V30 149 C 16.35 1.86511 -0.569099 0
M  V30 150 O 15.62 1.91438 0.415735 0
M  V30 151 H 14.2 0.369639 -0.649135 0
M  V30 152 H 16.862 0.286707 -1.9278 0
M  V30 153 H 15.958 1.62502 -2.66457 0
M  V30 154 N 16.2591 1.48442 0.529413 0
M  V30 155 C 17.2221 1.62524 1.61612 0
M  V30 156 C 18.2221 0.498509 1.52877 0
M  V30 157 O 19.4121 0.76431 1.56537 0
M  V30 158 C 16.5441 1.59597 3.01233 0
M  V30 159 H 17.7371 2.59423 1.50465 0
M  V30 160 H 15.2901 1.37047 0.751514 0
M  V30 161 H 16.0251 0.641781 3.17886 0
M  V30 162 H 15.8101 2.41397 3.08982 0
M  V30 163 H 17.3001 1.72646 3.80241 0
M  V30 164 N 17.7372 -0.778329 1.37039 0
M  V30 165 C 18.6872 -1.88142 1.28789 0
M  V30 166 C 19.6712 -1.59923 0.177063 0
M  V30 167 O 20.8632 -1.72165 0.410873 0
M  V30 168 C 17.9922 -3.25518 1.09055 0
M  V30 169 C 17.0782 -3.5971 2.24654 0
M  V30 170 N 17.4692 -3.65131 3.50018 0
M  V30 171 C 15.7672 -3.89837 2.16663 0
M  V30 172 C 16.4682 -3.95882 4.26207 0
M  V30 173 N 15.4442 -4.11441 3.55271 0
M  V30 174 H 19.2462 -1.90575 2.23737 0
M  V30 175 H 16.7602 -0.974435 1.29917 0
M  V30 176 H 18.7572 -4.04423 1.0123 0
M  V30 177 H 17.4172 -3.24353 0.15018 0
M  V30 178 H 18.4282 -3.475 3.84011 0
M  V30 179 H 15.1052 -3.96533 1.30645 0
M  V30 180 H 16.4952 -4.06907 5.34674 0
M  V30 181 N 19.2153 -1.21501 -1.00376 0
M  V30 182 C 20.1253 -0.991447 -2.12621 0
M  V30 183 C 21.1413 0.0568446 -1.73907 0
M  V30 184 O 22.3173 -0.13348 -2.00957 0
M  V30 185 C 19.3823 -0.560312 -3.42142 0
M  V30 186 C 18.4433 -1.68096 -3.95022 0
M  V30 187 C 17.6763 -1.2703 -5.18362 0
M  V30 188 O 17.8993 -0.144438 -5.70217 0
M  V30 189 O 16.8333 -2.08269 -5.64719 0
M  V30 190 H 20.6593 -1.93158 -2.34358 0
M  V30 191 H 18.2443 -0.999999 -1.10997 0
M  V30 192 H 20.1263 -0.329724 -4.20108 0
M  V30 193 H 18.8013 0.351089 -3.2179 0
M  V30 194 H 17.7083 -1.96597 -3.18278 0
M  V30 195 H 19.0413 -2.56983 -4.19786 0
M  V30 196 N 20.6934 1.19889 -1.02296 0
M  V30 197 C 21.9214 1.9339 -0.735399 0
M  V30 198 C 22.3364 1.75148 0.704887 0
M  V30 199 O 21.6934 1.06954 1.47875 0
M  V30 200 C 21.7444 3.45313 -1.06962 0
M  V30 201 O 21.4654 3.62964 -2.45334 0
M  V30 202 C 22.9664 4.35948 -0.804021 0
M  V30 203 H 20.1864 0.61448 -0.269546 0
M  V30 204 H 22.7304 1.522 -1.36585 0
M  V30 205 H 20.8854 3.84359 -0.484455 0
M  V30 206 H 21.2994 4.56886 -2.57595 0
M  V30 207 H 22.7734 5.41174 -1.0879 0
M  V30 208 H 23.2504 4.3842 0.261691 0
M  V30 209 H 23.8564 4.02574 -1.37164 0
M  V30 210 N 22.1715 0.800033 1.35784 0
M  V30 211 C 23.3965 0.388511 2.03729 0
M  V30 212 C 23.8215 -0.990481 1.5991 0
M  V30 213 O 23.1795 -1.64013 0.772612 0
M  V30 214 C 23.2275 0.4726 3.5749 0
M  V30 215 O 22.3315 -0.51646 4.09153 0
M  V30 216 H 21.6725 0.163271 0.643614 0
M  V30 217 H 24.2025 1.0841 1.73518 0
M  V30 218 H 24.2125 0.34003 4.06581 0
M  V30 219 H 22.8875 1.47848 3.88734 0
M  V30 220 H 21.4645 -0.344673 3.71304 0
M  V30 221 N 23.6496 -1.47581 0.552962 0
M  V30 222 C 24.5796 -2.32762 -0.185451 0
M  V30 223 C 25.5606 -1.43527 -0.912905 0
M  V30 224 O 26.7456 -1.72388 -0.894201 0
M  V30 225 C 23.8756 -3.25219 -1.21859 0
M  V30 226 C 22.8296 -4.23661 -0.607864 0
M  V30 227 C 22.1556 -5.05413 -1.74533 0
M  V30 228 C 23.4556 -5.20481 0.435582 0
M  V30 229 H 25.1496 -2.94749 0.525684 0
M  V30 230 H 22.6956 -1.41738 0.254251 0
M  V30 231 H 24.6486 -3.8365 -1.7433 0
M  V30 232 H 23.3726 -2.61279 -1.95961 0
M  V30 233 H 22.0316 -3.66451 -0.104489 0
M  V30 234 H 21.6796 -4.3788 -2.47529 0
M  V30 235 H 21.3796 -5.72059 -1.34249 0
M  V30 236 H 22.9036 -5.66701 -2.27338 0
M  V30 237 H 24.3176 -5.733 -0.00290157 0
M  V30 238 H 22.7146 -5.95305 0.757067 0
M  V30 239 H 23.7846 -4.66217 1.33303 0
M  V30 240 N 25.1277 -0.289203 -1.54924 0
M  V30 241 C 26.3527 0.329299 -2.04769 0
M  V30 242 C 26.7777 1.4763 -1.16564 0
M  V30 243 O 26.1357 1.80527 -0.167186 0
M  V30 244 C 26.1837 0.774438 -3.52186 0
M  V30 245 O 25.2877 1.88038 -3.67036 0
M  V30 246 H 24.6287 0.0659259 -0.660719 0
M  V30 247 H 27.1587 -0.42761 -2.00082 0
M  V30 248 H 27.1687 1.06642 -3.93816 0
M  V30 249 H 25.8437 -0.0646707 -4.1585 0
M  V30 250 H 24.4207 1.58985 -3.3731 0
M  V30 251 N 26.6058 1.57591 -0.0167156 0
M  V30 252 C 27.5688 2.08393 0.954204 0
M  V30 253 C 28.5688 0.996531 1.26198 0
M  V30 254 O 29.7588 1.25858 1.20438 0
M  V30 255 C 26.8908 2.5394 2.27436 0
M  V30 256 H 28.0838 2.95455 0.514451 0
M  V30 257 H 25.6368 1.54582 0.231089 0
M  V30 258 H 26.3718 1.70171 2.76066 0
M  V30 259 H 26.1568 3.33371 2.06412 0
M  V30 260 H 27.6468 2.93512 2.97053 0
M  V30 261 N 28.0839 -0.256276 1.55502 0
M  V30 262 C 29.0469 -1.30047 1.88734 0
M  V30 263 C 30.0469 -1.4154 0.763086 0
M  V30 264 O 31.2369 -1.40403 1.03115 0
M  V30 265 C 28.3689 -2.67953 2.10747 0
M  V30 266 H 29.5619 -1.01802 2.82093 0
M  V30 267 H 27.1149 -0.495134 1.4825 0
M  V30 268 H 27.8499 -3.01351 1.19825 0
M  V30 269 H 27.6349 -2.60993 2.92617 0
M  V30 270 H 29.1249 -3.43368 2.37673 0
M  V30 271 N 29.562 -1.4872 -0.521534 0
M  V30 272 C 30.81 -1.56857 -1.27437 0
M  V30 273 C 31.131 -0.247982 -1.93417 0
M  V30 274 O 30.401 0.731151 -1.81744 0
M  V30 275 H 28.981 -0.577885 -0.473347 0
M  V30 276 H 31.643 -1.85233 -0.606205 0
M  V30 277 H 30.739 -2.35402 -2.0492 0
M  V30 278 N 31.0401 0.771051 -1.3745 0
M  V30 279 C 31.9881 1.90574 -1.33358 0
M  V30 280 C 32.9821 1.67936 -0.22224 0
M  V30 281 O 34.1881 1.75717 -0.390304 0
M  V30 282 H 30.5631 0.626714 -0.415612 0
M  V30 283 H 32.5341 1.91142 -2.29144 0
M  V30 284 C 31.2831 3.27845 -1.15813 0
M  V30 285 H 30.6061 3.45842 -2.00583 0
M  V30 286 H 32.0461 4.07538 -1.17 0
M  V30 287 C 30.5051 3.36625 0.136165 0
M  V30 288 O 31.0351 3.85785 1.11949 0
M  V30 289 N 29.2411 2.89997 0.187099 0
M  V30 290 H 28.7881 2.50182 -0.613753 0
M  V30 291 H 28.7461 2.96252 1.05272 0
M  V30 292 N 32.5182 1.22032 0.997298 0
M  V30 293 C 33.7432 1.06921 1.77715 0
M  V30 294 C 34.1682 -0.376226 1.84299 0
M  V30 295 O 33.5262 -1.27165 1.29223 0
M  V30 296 C 33.5742 1.67996 3.19076 0
M  V30 297 O 32.6782 0.930653 4.01762 0
M  V30 298 H 32.0192 0.375814 0.547412 0
M  V30 299 H 34.5492 1.61737 1.25309 0
M  V30 300 H 34.5592 1.72538 3.69723 0
M  V30 301 H 33.2342 2.73182 3.13599 0
M  V30 302 H 31.8112 0.960917 3.60307 0
M  V30 303 N 33.9963 -1.19345 1.0293 0
M  V30 304 C 35.2453 -1.88363 0.721256 0
M  V30 305 C 35.5583 -1.80514 -0.753254 0
M  V30 306 O 36.7643 -2.44788 -1.17436 0
M  V30 307 C 35.2203 -3.37872 1.23978 0
M  V30 308 C 34.8283 -3.54278 2.74211 0
M  V30 309 C 36.5723 -4.12365 1.00775 0
M  V30 310 C 34.4793 -4.97682 3.19479 0
M  V30 311 H 33.4093 -0.705484 0.266098 0
M  V30 312 H 36.0603 -1.34928 1.24365 0
M  V30 313 H 34.4423 -3.90707 0.6453 0
M  V30 314 H 35.6163 -3.11769 3.39318 0
M  V30 315 H 33.9313 -2.93174 2.95699 0
M  V30 316 H 36.5283 -5.18119 1.32123 0
M  V30 317 H 36.8713 -4.16263 -0.0554308 0
M  V30 318 H 37.4043 -3.65668 1.56625 0
M  V30 319 H 34.1433 -4.98945 4.25128 0
M  V30 320 H 33.6633 -5.4095 2.591 0
M  V30 321 H 35.3423 -5.66337 3.12845 0
M  V30 322 N 35.4744 -0.807222 -1.35358 0
M  V30 323 C 36.7234 -0.384376 -1.98004 0
M  V30 324 C 37.0364 1.0543 -1.64754 0
M  V30 325 O 38.2424 1.58029 -2.20769 0
M  V30 326 C 36.6984 -0.636326 -3.5423 0
M  V30 327 C 36.3064 -2.08759 -3.96388 0
M  V30 328 C 38.0504 -0.278869 -4.23583 0
M  V30 329 C 35.9574 -2.28525 -5.45463 0
M  V30 330 H 34.8874 -0.139986 -0.740891 0
M  V30 331 H 37.5384 -0.991369 -1.54415 0
M  V30 332 H 35.9204 0.0406256 -3.95979 0
M  V30 333 H 37.0944 -2.8024 -3.6579 0
M  V30 334 H 35.4094 -2.40497 -3.39926 0
M  V30 335 H 38.0064 -0.404599 -5.33167 0
M  V30 336 H 38.3494 0.775012 -4.09022 0
M  V30 337 H 38.8824 -0.909764 -3.87257 0
M  V30 338 H 35.6214 -3.32361 -5.64992 0
M  V30 339 H 35.1414 -1.61569 -5.77629 0
M  V30 340 H 36.8204 -2.10109 -6.11934 0
M  V30 341 N 36.9525 1.47285 -0.560781 0
M  V30 342 C 37.9025 2.27073 0.205384 0
M  V30 343 C 38.8865 1.34569 0.882044 0
M  V30 344 O 40.0785 1.58899 0.77976 0
M  V30 345 C 37.2075 3.20414 1.23247 0
M  V30 346 C 36.2935 4.20399 0.559041 0
M  V30 347 N 36.6845 5.04423 -0.372927 0
M  V30 348 C 34.9825 4.38536 0.812522 0
M  V30 349 C 35.6835 5.76655 -0.764446 0
M  V30 350 N 34.6595 5.43471 -0.11848 0
M  V30 351 H 38.4615 2.89422 -0.511117 0
M  V30 352 H 35.9755 1.57868 -0.380975 0
M  V30 353 H 37.9725 3.76262 1.79534 0
M  V30 354 H 36.6325 2.59623 1.95002 0
M  V30 355 H 37.6435 5.1248 -0.747287 0
M  V30 356 H 34.3205 3.88913 1.51832 0
M  V30 357 H 35.7105 6.54238 -1.53045 0
M  V30 358 N 38.4306 0.297415 1.54768 0
M  V30 359 C 39.6606 -0.315165 2.04182 0
M  V30 360 C 40.0686 -1.4834 1.17439 0
M  V30 361 O 39.4116 -1.82695 0.191891 0
M  V30 362 C 39.4736 -0.837583 3.49607 0
M  V30 363 C 39.1376 0.204912 4.5654 0
M  V30 364 C 40.1346 1.03214 5.09552 0
M  V30 365 C 37.8196 0.345578 5.0111 0
M  V30 366 C 39.8136 1.986 6.05671 0
M  V30 367 C 37.5006 1.30289 5.97049 0
M  V30 368 C 38.4986 2.12159 6.49213 0
M  V30 369 O 38.1866 3.06268 7.43273 0
M  V30 370 H 37.9186 -0.0729646 0.672051 0
M  V30 371 H 40.4726 0.433907 2.00765 0
M  V30 372 H 38.7026 -1.63712 3.50336 0
M  V30 373 H 40.3916 -1.36566 3.82236 0
M  V30 374 H 41.1576 0.934312 4.75916 0
M  V30 375 H 37.0366 -0.28171 4.60138 0
M  V30 376 H 40.5806 2.62542 6.46311 0
M  V30 377 H 36.4776 1.40145 6.30103 0
M  V30 378 H 37.2456 3.01205 7.61064 0
M  V30 379 N 39.9087 -1.5758 0.0250728 0
M  V30 380 C 41.1367 -1.9593 -0.664747 0
M  V30 381 C 41.5517 -0.901352 -1.65895 0
M  V30 382 O 40.9087 0.117255 -1.82123 0
M  V30 383 C 40.9597 -3.34342 -1.37468 0
M  V30 384 O 40.6807 -4.36079 -0.420324 0
M  V30 385 C 42.1817 -3.873 -2.1567 0
M  V30 386 H 39.4017 -0.645405 -0.183557 0
M  V30 387 H 41.9457 -2.04329 0.0836372 0
M  V30 388 H 40.1007 -3.27175 -2.0745 0
M  V30 389 H 40.5147 -5.16297 -0.923991 0
M  V30 390 H 41.9887 -4.86504 -2.60803 0
M  V30 391 H 42.4657 -3.21331 -2.99405 0
M  V30 392 H 43.0717 -3.97723 -1.50654 0
M  V30 393 N 41.3868 0.248026 -1.55636 0
M  V30 394 C 42.3348 1.32683 -1.91045 0
M  V30 395 C 43.3288 1.49883 -0.789401 0
M  V30 396 O 44.5348 1.51371 -0.974007 0
M  V30 397 H 40.9098 0.444272 -0.606734 0
M  V30 398 H 42.8808 1.00085 -2.81115 0
M  V30 399 C 41.6298 2.6755 -2.22064 0
M  V30 400 H 40.9528 2.55114 -3.07826 0
M  V30 401 H 42.3928 3.41912 -2.50743 0
M  V30 402 C 40.8518 3.20556 -1.0366 0
M  V30 403 O 41.3818 4.00695 -0.284016 0
M  V30 404 N 39.5878 2.78568 -0.82753 0
M  V30 405 H 39.1348 2.1351 -1.44123 0
M  V30 406 H 39.0928 3.14378 -0.0369803 0
M  V30 407 N 42.8649 1.48995 0.513639 0
M  V30 408 C 44.1139 1.57093 1.2651 0
M  V30 409 C 44.4269 0.257091 1.93903 0
M  V30 410 O 45.6329 0.216478 2.70636 0
M  V30 411 C 44.0889 2.77118 2.29638 0
M  V30 412 C 43.6969 4.15209 1.68241 0
M  V30 413 C 45.4409 2.94538 3.05692 0
M  V30 414 C 43.3479 5.26474 2.69406 0
M  V30 415 H 42.2779 0.584876 0.475854 0
M  V30 416 H 44.9289 1.7536 0.540487 0
M  V30 417 H 43.3109 2.52319 3.05207 0
M  V30 418 H 44.4849 4.50094 0.987505 0
M  V30 419 H 42.7999 4.03042 1.04623 0
M  V30 420 H 45.3969 3.74832 3.8132 0
M  V30 421 H 45.7399 2.04614 3.62545 0
M  V30 422 H 46.2729 3.19316 2.37238 0
M  V30 423 H 43.0119 6.18417 2.17351 0
M  V30 424 H 42.5319 4.96058 3.37175 0
M  V30 425 H 44.2109 5.55277 3.32078 0
M  V30 426 N 44.343 -0.763751 1.37857 0
M  V30 427 C 45.291 -1.89864 1.34367 0
M  V30 428 C 46.285 -1.67816 0.231143 0
M  V30 429 O 47.491 -1.75508 0.399617 0
M  V30 430 H 43.866 -0.624501 0.41893 0
M  V30 431 H 45.837 -1.89925 2.30155 0
M  V30 432 C 44.586 -3.27227 1.1755 0
M  V30 433 H 43.909 -3.44773 2.02414 0
M  V30 434 H 45.349 -4.06911 1.1916 0
M  V30 435 C 43.808 -3.36692 -0.118311 0
M  V30 436 O 44.338 -3.86374 -1.09902 0
M  V30 437 N 42.544 -2.90092 -0.171717 0
M  V30 438 H 42.091 -2.49853 0.627012 0
M  V30 439 H 42.049 -2.96806 -1.03699 0
M  V30 440 N 45.8211 -1.22559 -0.990812 0
M  V30 441 C 47.0511 -1.07623 -1.76355 0
M  V30 442 C 47.4591 0.37601 -1.85426 0
M  V30 443 O 46.8021 1.27228 -1.32509 0
M  V30 444 C 46.8641 -1.61507 -3.21179 0
M  V30 445 C 46.5281 -3.10146 -3.35646 0
M  V30 446 C 47.5251 -4.07553 -3.22796 0
M  V30 447 C 45.2101 -3.49644 -3.60631 0
M  V30 448 C 47.2041 -5.42442 -3.34716 0
M  V30 449 C 44.8911 -4.84682 -3.72192 0
M  V30 450 C 45.8891 -5.8089 -3.59243 0
M  V30 451 O 45.5771 -7.13476 -3.70415 0
M  V30 452 H 45.3091 -0.377745 -0.560611 0
M  V30 453 H 47.8631 -1.62658 -1.25425 0
M  V30 454 H 46.0931 -1.00881 -3.73309 0
M  V30 455 H 47.7821 -1.42202 -3.80175 0
M  V30 456 H 48.5481 -3.78381 -3.03403 0
M  V30 457 H 44.4271 -2.75282 -3.69785 0
M  V30 458 H 47.9711 -6.17518 -3.24526 0
M  V30 459 H 43.8681 -5.13534 -3.91092 0
M  V30 460 H 44.6361 -7.21083 -3.87275 0
M  V30 461 N 47.2992 1.18797 -1.03562 0
M  V30 462 C 48.5292 1.92319 -0.754773 0
M  V30 463 C 48.9372 1.7612 0.691248 0
M  V30 464 O 48.2802 1.08491 1.48241 0
M  V30 465 C 48.3422 3.44284 -1.03484 0
M  V30 466 C 48.0062 3.84258 -2.47376 0
M  V30 467 C 49.0032 3.88459 -3.45537 0
M  V30 468 C 46.6882 4.15701 -2.81954 0
M  V30 469 C 48.6822 4.23545 -4.76328 0
M  V30 470 C 46.3692 4.50458 -4.12954 0
M  V30 471 C 47.3672 4.54356 -5.09951 0
M  V30 472 O 47.0552 4.88305 -6.38603 0
M  V30 473 H 46.7872 0.617527 -0.275021 0
M  V30 474 H 49.3412 1.51683 -1.38497 0
M  V30 475 H 47.5712 3.85135 -0.347513 0
M  V30 476 H 49.2602 3.99049 -0.7426 0
M  V30 477 H 50.0262 3.6431 -3.20162 0
M  V30 478 H 45.9052 4.11847 -2.0713 0
M  V30 479 H 49.4492 4.26502 -5.52035 0
M  V30 480 H 45.3462 4.74067 -4.38099 0
M  V30 481 H 46.1142 5.06227 -6.43177 0
M  V30 482 N 48.7773 0.814389 1.34928 0
M  V30 483 C 49.7243 0.22822 2.29669 0
M  V30 484 C 50.6943 -0.642164 1.53184 0
M  V30 485 O 51.8793 -0.585605 1.81591 0
M  V30 486 C 49.0193 -0.61089 3.3965 0
M  V30 487 C 48.1323 0.280792 4.31086 0
M  V30 488 C 47.2673 -0.567067 5.28165 0
M  V30 489 C 46.3063 0.324531 6.11239 0
M  V30 490 N 45.4433 -0.483756 7.00431 0
M  V30 491 H 50.2833 1.04153 2.79206 0
M  V30 492 H 47.8203 0.525133 1.37407 0
M  V30 493 H 49.7783 -1.11263 4.0209 0
M  V30 494 H 48.4083 -1.38939 2.91369 0
M  V30 495 H 47.4603 0.900688 3.69583 0
M  V30 496 H 48.7723 0.966723 4.89342 0
M  V30 497 H 47.9263 -1.13363 5.96015 0
M  V30 498 H 46.6653 -1.28654 4.70425 0
M  V30 499 H 45.6703 0.903298 5.42329 0
M  V30 500 H 46.8953 1.04198 6.71059 0
M  V30 501 H 44.8413 -1.18706 6.45171 0
M  V30 502 H 44.7583 0.143965 7.55863 0
M  V30 503 H 46.0263 -1.03334 7.7262 0
M  V30 504 N 50.2554 -1.46986 0.568584 0
M  V30 505 C 51.5324 -1.95592 -0.0174074 0
M  V30 506 C 51.9124 -1.51124 -1.47393 0
M  V30 507 O 51.2604 -0.755329 -2.15655 0
M  V30 508 C 51.4704 -3.48719 0.139913 0
M  V30 509 C 52.8184 -4.246 0.000426376 0
M  V30 510 O 53.8424 -3.56135 0.0680316 0
M  V30 511 O 52.7014 -5.46302 -0.146988 0
M  V30 512 H 49.7954 -0.82498 -0.0577599 0
M  V30 513 H 52.3414 -1.57335 0.635909 0
M  V30 514 H 51.1134 -3.73927 1.15301 0
M  V30 515 H 50.7364 -3.93771 -0.550491 0
M  V30 516 N 51.7335 -0.305618 -1.54608 0
M  V30 517 C 52.6965 0.555591 -2.22364 0
M  V30 518 C 53.6965 1.05768 -1.21119 0
M  V30 519 O 54.8865 0.952972 -1.45822 0
M  V30 520 C 52.0185 1.76974 -2.91364 0
M  V30 521 H 53.2115 -0.0364572 -2.99878 0
M  V30 522 H 50.7645 -0.0565007 -1.56198 0
M  V30 523 H 51.4995 2.40151 -2.17941 0
M  V30 524 H 51.2845 1.41732 -3.65588 0
M  V30 525 H 52.7745 2.38148 -3.43038 0
M  V30 526 N 53.2116 1.57565 -0.0334293 0
M  V30 527 C 54.1746 2.09393 0.932048 0
M  V30 528 C 55.1746 1.00986 1.25134 0
M  V30 529 O 56.3646 1.27129 1.19096 0
M  V30 530 C 53.4966 2.56338 2.2473 0
M  V30 531 H 54.6896 2.95984 0.483085 0
M  V30 532 H 52.2426 1.54819 0.21468 0
M  V30 533 H 52.9776 1.7309 2.74245 0
M  V30 534 H 52.7626 3.35542 2.02865 0
M  V30 535 H 54.2526 2.96646 2.93923 0
M  V30 536 N 54.6897 -0.239769 1.55765 0
M  V30 537 C 55.9147 -0.988373 1.82335 0
M  V30 538 C 56.3397 -1.77886 0.611421 0
M  V30 539 O 55.6977 -1.75889 -0.439639 0
M  V30 540 C 55.7457 -1.89627 3.06715 0
M  V30 541 O 54.8497 -2.98904 2.84131 0
M  V30 542 H 54.1907 -0.280858 0.601677 0
M  V30 543 H 56.7207 -0.258597 2.02959 0
M  V30 544 H 56.7307 -2.30957 3.36338 0
M  V30 545 H 55.4057 -1.31511 3.9456 0
M  V30 546 H 53.9827 -2.61651 2.65694 0
M  V30 547 N 56.1678 -1.49265 -0.50573 0
M  V30 548 C 57.1158 -1.66065 -1.62866 0
M  V30 549 C 58.1098 -0.526636 -1.61006 0
M  V30 550 O 59.3158 -0.706126 -1.65571 0
M  V30 551 H 55.6908 -0.52356 -0.539805 0
M  V30 552 H 57.6618 -2.60329 -1.45848 0
M  V30 553 C 56.4108 -1.74008 -3.01026 0
M  V30 554 H 55.7338 -2.6064 -3.03161 0
M  V30 555 H 57.1738 -1.89798 -3.79147 0
M  V30 556 C 55.6328 -0.483868 -3.33407 0
M  V30 557 O 56.1628 0.392548 -3.99777 0
M  V30 558 N 54.3688 -0.348236 -2.88506 0
M  V30 559 H 53.9158 -1.06242 -2.34671 0
M  V30 560 H 53.8738 0.491204 -3.10539 0
M  V30 561 N 57.6459 0.756429 -1.3826 0
M  V30 562 C 58.8709 1.55077 -1.37717 0
M  V30 563 C 59.2959 1.88073 0.03164 0
M  V30 564 O 58.6539 1.50364 1.01293 0
M  V30 565 C 58.7019 2.8283 -2.23695 0
M  V30 566 O 57.8059 3.77862 -1.6521 0
M  V30 567 H 57.1469 0.469152 -0.469885 0
M  V30 568 H 59.6769 0.935019 -1.81985 0
M  V30 569 H 59.6869 3.31783 -2.37453 0
M  V30 570 H 58.3619 2.58144 -3.2609 0
M  V30 571 H 56.9389 3.36555 -1.60578 0
M  V30 572 N 59.124 1.23083 0.984299 0
M  V30 573 C 60.087 1.00979 2.05757 0
M  V30 574 C 61.087 -0.0269573 1.60777 0
M  V30 575 O 62.277 0.212403 1.729 0
M  V30 576 C 59.409 0.527072 3.36801 0
M  V30 577 H 60.602 1.9622 2.26799 0
M  V30 578 H 58.155 1.05072 1.15714 0
M  V30 579 H 58.89 -0.429294 3.21446 0
M  V30 580 H 58.675 1.27515 3.70786 0
M  V30 581 H 60.165 0.392942 4.15747 0
M  V30 582 N 60.6021 -1.18246 1.0419 0
M  V30 583 C 61.5501 -2.23968 0.627792 0
M  V30 584 C 62.5441 -1.65828 -0.346019 0
M  V30 585 O 63.7501 -1.78733 -0.213175 0
M  V30 586 H 60.1251 -0.728939 0.184802 0
M  V30 587 H 62.0961 -2.56202 1.52981 0
M  V30 588 C 60.8451 -3.47699 0.00796591 0
M  V30 589 H 60.1681 -3.92734 0.748347 0
M  V30 590 H 61.6081 -4.23294 -0.24455 0
M  V30 591 C 60.0671 -3.13153 -1.24246 0
M  V30 592 O 60.5971 -3.27003 -2.33307 0
M  V30 593 N 58.8031 -2.67467 -1.13622 0
M  V30 594 H 58.3501 -2.56396 -0.248734 0
M  V30 595 H 58.3081 -2.44724 -1.97377 0
M  V30 596 N 62.0802 -0.821533 -1.34494 0
M  V30 597 C 63.4962 -0.507117 -1.51329 0
M  V30 598 C 63.6962 0.968964 -1.76673 0
M  V30 599 O 62.7522 1.75348 -1.81685 0
M  V30 600 C 64.0652 -1.36544 -2.67911 0
M  V30 601 C 65.6132 -1.36242 -2.81793 0
M  V30 602 C 66.0882 -2.2052 -4.01416 0
M  V30 603 N 67.5792 -2.18136 -4.08621 0
M  V30 604 C 68.3142 -2.80095 -5.00334 0
M  V30 605 N 67.8102 -3.51039 -5.9728 0
M  V30 606 N 69.6032 -2.69656 -4.93196 0
M  V30 607 H 61.7542 -1.77729 -1.16302 0
M  V30 608 H 64.0172 -0.757291 -0.570276 0
M  V30 609 H 63.7232 -2.41361 -2.55808 0
M  V30 610 H 63.5972 -1.02917 -3.62888 0
M  V30 611 H 65.9842 -0.322041 -2.93338 0
M  V30 612 H 66.0652 -1.73866 -1.87628 0
M  V30 613 H 65.7092 -3.24607 -3.90631 0
M  V30 614 H 65.6392 -1.80247 -4.94791 0
M  V30 615 H 68.1302 -1.6653 -3.39229 0
M  V30 616 H 68.4432 -3.95565 -6.63889 0
M  V30 617 H 66.7882 -3.55145 -5.97409 0
M  V30 618 H 69.9792 -2.13808 -4.16418 0
M  V30 619 H 70.1522 -3.1823 -5.64476 0
M  V30 620 N 63.5583 1.46682 -0.576371 0
M  V30 621 C 64.4903 2.28341 0.198231 0
M  V30 622 C 65.5033 1.38141 0.861453 0
M  V30 623 O 66.6923 1.62797 0.732082 0
M  V30 624 C 63.7923 3.12986 1.29972 0
M  V30 625 C 62.9653 4.31271 0.729639 0
M  V30 626 C 62.0243 4.97363 1.71803 0
M  V30 627 O 61.0503 5.55156 1.25658 0
M  V30 628 N 62.2523 4.93796 3.05198 0
M  V30 629 H 65.0173 2.9546 -0.502324 0
M  V30 630 H 62.5783 1.56525 -0.413715 0
M  V30 631 H 64.5703 3.54066 1.96008 0
M  V30 632 H 63.1403 2.47984 1.90323 0
M  V30 633 H 62.3603 3.94052 -0.108012 0
M  V30 634 H 63.6483 5.07739 0.328438 0
M  V30 635 H 63.0463 4.48077 3.45317 0
M  V30 636 H 61.6033 5.38837 3.6674 0
M  V30 637 N 65.0364 0.313813 1.54444 0
M  V30 638 C 66.3134 -0.345447 1.92525 0
M  V30 639 C 66.6934 -1.70667 1.24242 0
M  V30 640 O 66.0414 -2.25273 0.382654 0
M  V30 641 C 66.2514 -0.44737 3.46121 0
M  V30 642 C 67.5994 -0.712238 4.18584 0
M  V30 643 O 68.6234 -0.530678 3.52225 0
M  V30 644 O 67.4824 -1.06183 5.36085 0
M  V30 645 H 64.5764 -0.195407 0.803583 0
M  V30 646 H 67.1224 0.362813 1.65776 0
M  V30 647 H 65.8944 0.509043 3.87975 0
M  V30 648 H 65.5174 -1.20359 3.78945 0
M  V30 649 N 66.5145 -1.57545 0.0417849 0
M  V30 650 C 67.7615 -1.92317 -0.634082 0
M  V30 651 C 68.0895 -0.919334 -1.71402 0
M  V30 652 O 67.3445 0.0698253 -1.95575 0
M  V30 653 C 67.6435 -3.33794 -1.27735 0
M  V30 654 C 67.3095 -4.49716 -0.326543 0
M  V30 655 C 65.9715 -4.81156 -0.0648814 0
M  V30 656 C 68.3235 -5.20182 0.325623 0
M  V30 657 C 65.6515 -5.80414 0.856539 0
M  V30 658 C 68.0035 -6.20424 1.23518 0
M  V30 659 C 66.6675 -6.50298 1.5056 0
M  V30 660 H 65.9375 -0.703736 -0.232027 0
M  V30 661 H 68.5845 -1.91205 0.106259 0
M  V30 662 H 66.8895 -3.31228 -2.09274 0
M  V30 663 H 68.5865 -3.57975 -1.80707 0
M  V30 664 H 65.1765 -4.25176 -0.540665 0
M  V30 665 H 69.3605 -4.96112 0.136546 0
M  V30 666 H 64.6165 -6.019 1.07363 0
M  V30 667 H 68.7905 -6.74141 1.74664 0
M  V30 668 H 66.4175 -7.27025 2.22123 0
M  V30 669 N 67.9926 0.231505 -1.5589 0
M  V30 670 C 69.2206 0.974505 -1.82513 0
M  V30 671 C 69.6356 1.78344 -0.619591 0
M  V30 672 O 68.9926 1.77792 0.411848 0
M  V30 673 C 69.0436 1.90007 -3.07538 0
M  V30 674 O 68.7646 1.12385 -4.2344 0
M  V30 675 C 70.2656 2.75779 -3.47075 0
M  V30 676 H 67.4856 0.286065 -0.606966 0
M  V30 677 H 70.0296 0.249739 -2.02969 0
M  V30 678 H 68.1846 2.57891 -2.89086 0
M  V30 679 H 68.5986 1.75125 -4.944 0
M  V30 680 H 70.0726 3.36443 -4.37619 0
M  V30 681 H 70.5496 3.47672 -2.68367 0
M  V30 682 H 71.1556 2.13323 -3.67931 0
M  V30 683 N 69.4707 1.49531 0.497807 0
M  V30 684 C 70.4027 1.62559 1.61578 0
M  V30 685 C 71.4157 0.508134 1.54667 0
M  V30 686 O 72.6047 0.780309 1.60541 0
M  V30 687 C 69.7047 1.56925 3.00379 0
M  V30 688 C 68.8777 2.84257 3.3244 0
M  V30 689 C 67.9367 2.71632 4.50669 0
M  V30 690 O 66.9627 3.4557 4.52294 0
M  V30 691 N 68.1647 1.83391 5.5077 0
M  V30 692 H 70.9297 2.58981 1.50828 0
M  V30 693 H 68.4907 1.4666 0.685743 0
M  V30 694 H 70.4827 1.46129 3.77397 0
M  V30 695 H 69.0527 0.683483 3.05037 0
M  V30 696 H 68.2727 3.09381 2.44289 0
M  V30 697 H 69.5607 3.68666 3.5066 0
M  V30 698 H 68.9587 1.22583 5.52259 0
M  V30 699 H 67.5157 1.78515 6.26878 0
M  V30 700 N 70.9488 -0.749086 1.3866 0
M  V30 701 C 72.2258 -1.4992 1.25632 0
M  V30 702 C 72.6058 -2.10633 -0.140317 0
M  V30 703 O 71.9538 -1.97437 -1.15025 0
M  V30 704 C 72.1638 -2.56195 2.36992 0
M  V30 705 C 73.5118 -3.22972 2.75634 0
M  V30 706 O 74.5358 -2.66502 2.36337 0
M  V30 707 O 73.3948 -4.25122 3.43415 0
M  V30 708 H 70.4888 -0.665067 0.491544 0
M  V30 709 H 73.0348 -0.784113 1.50498 0
M  V30 710 H 71.8068 -2.09612 3.30422 0
M  V30 711 H 71.4298 -3.35279 2.13714 0
M  V30 712 N 72.4269 -1.23603 -0.977757 0
M  V30 713 C 73.8379 -1.06424 -1.53398 0
M  V30 714 C 74.1889 0.367578 -1.92726 0
M  V30 715 O 73.3139 1.25465 -1.76316 0
M  V30 716 C 73.9089 -1.92568 -2.78753 0
M  V30 717 C 72.4679 -1.79642 -3.30765 0
M  V30 718 C 71.6149 -1.88111 -2.03739 0
M  V30 719 H 74.5659 -1.37227 -0.797152 0
M  V30 720 H 74.5869 -1.45203 -3.51705 0
M  V30 721 H 74.0989 -2.96771 -2.50098 0
M  V30 722 H 72.1999 -0.782325 -3.64294 0
M  V30 723 H 72.3129 -2.63174 -4.00345 0
M  V30 724 H 70.6769 -1.31723 -2.17994 0
M  V30 725 H 71.4599 -2.93875 -1.77461 0
M  V30 726 N 73.905 1.17692 -1.04816 0
M  V30 727 C 75.13 1.92327 -0.776207 0
M  V30 728 C 75.555 1.76082 0.661581 0
M  V30 729 O 74.913 1.076 1.45917 0
M  V30 730 C 74.961 3.41539 -1.15687 0
M  V30 731 O 74.065 4.11402 -0.286775 0
M  V30 732 H 73.406 0.599735 -0.284981 0
M  V30 733 H 75.936 1.49201 -1.4 0
M  V30 734 H 75.946 3.92269 -1.12202 0
M  V30 735 H 74.621 3.52684 -2.20425 0
M  V30 736 H 73.198 3.70939 -0.381903 0
M  V30 737 N 75.3831 0.828654 1.34056 0
M  V30 738 C 76.3301 0.252567 2.29414 0
M  V30 739 C 77.3001 -0.62588 1.53857 0
M  V30 740 O 78.4851 -0.566312 1.82202 0
M  V30 741 C 75.6251 -0.574831 3.40279 0
M  V30 742 C 74.7381 0.326499 4.30764 0
M  V30 743 C 73.8731 -0.511016 5.28736 0
M  V30 744 C 72.9121 0.389342 6.1086 0
M  V30 745 N 72.0491 -0.409439 7.00905 0
M  V30 746 H 76.8891 1.07108 2.78086 0
M  V30 747 H 74.4261 0.539677 1.36843 0
M  V30 748 H 76.3841 -1.06992 4.03248 0
M  V30 749 H 75.0141 -1.35841 2.92826 0
M  V30 750 H 74.0661 0.939837 3.68607 0
M  V30 751 H 75.3781 1.01857 4.88289 0
M  V30 752 H 74.5321 -1.07035 5.97184 0
M  V30 753 H 73.2711 -1.23657 4.71763 0
M  V30 754 H 72.2761 0.960769 5.4134 0
M  V30 755 H 73.5011 1.1131 6.69916 0
M  V30 756 H 71.4471 -1.11856 6.46393 0
M  V30 757 H 71.3641 0.224126 7.55668 0
M  V30 758 H 72.6321 -0.951336 7.73673 0
M  V30 759 N 76.8612 -1.46375 0.584142 0
M  V30 760 C 78.1082 -2.02378 0.0702675 0
M  V30 761 C 78.4362 -1.45545 -1.29023 0
M  V30 762 O 77.6912 -0.610967 -1.85918 0
M  V30 763 C 77.9902 -3.57373 -0.0439342 0
M  V30 764 C 77.6562 -4.33252 1.24915 0
M  V30 765 C 76.3182 -4.53701 1.60341 0
M  V30 766 C 78.6702 -4.7681 2.1048 0
M  V30 767 C 75.9982 -5.1496 2.81128 0
M  V30 768 C 78.3502 -5.39404 3.30494 0
M  V30 769 C 77.0142 -5.5808 3.66201 0
M  V30 770 H 76.2842 -0.740554 0.0257127 0
M  V30 771 H 78.9312 -1.75727 0.761065 0
M  V30 772 H 77.2362 -3.83169 -0.817869 0
M  V30 773 H 78.9332 -3.98384 -0.457318 0
M  V30 774 H 75.5232 -4.17633 0.963364 0
M  V30 775 H 79.7072 -4.60766 1.84414 0
M  V30 776 H 74.9632 -5.27611 3.08928 0
M  V30 777 H 79.1372 -5.72114 3.97063 0
M  V30 778 H 76.7642 -6.05318 4.59885 0
M  V30 779 N 78.3393 -0.321999 -1.54275 0
M  V30 780 C 79.5673 0.283052 -2.04955 0
M  V30 781 C 79.9823 1.45904 -1.19823 0
M  V30 782 O 79.3393 1.81063 -0.228545 0
M  V30 783 C 79.3903 0.719028 -3.54277 0
M  V30 784 O 79.1113 -0.410175 -4.36176 0
M  V30 785 C 80.6123 1.38705 -4.21041 0
M  V30 786 H 77.8323 0.0584616 -0.668448 0
M  V30 787 H 80.3763 -0.467734 -1.99079 0
M  V30 788 H 78.5313 1.41979 -3.60445 0
M  V30 789 H 78.9453 -0.0669416 -5.24457 0
M  V30 790 H 80.4193 1.64306 -5.2698 0
M  V30 791 H 80.8963 2.33385 -3.72059 0
M  V30 792 H 81.5023 0.728906 -4.19007 0
M  V30 793 N 79.8174 1.5752 -0.0501392 0
M  V30 794 C 80.7274 2.14952 0.939827 0
M  V30 795 C 81.7434 1.10706 1.34239 0
M  V30 796 O 82.9194 1.42869 1.41952 0
M  V30 797 C 79.9844 2.68232 2.19665 0
M  V30 798 C 79.0454 3.87272 1.85253 0
M  V30 799 C 78.2784 4.38002 3.04943 0
M  V30 800 O 78.5014 3.87811 4.18281 0
M  V30 801 O 77.4354 5.29602 2.86017 0
M  V30 802 H 81.2614 2.9986 0.481392 0
M  V30 803 H 78.8464 1.4841 0.171699 0
M  V30 804 H 80.7284 3.02475 2.93406 0
M  V30 805 H 79.4034 1.86395 2.64648 0
M  V30 806 H 78.3104 3.5792 1.0883 0
M  V30 807 H 79.6434 4.70336 1.4507 0
M  V30 808 N 81.2955 -0.223234 1.56011 0
M  V30 809 C 82.7065 -0.790368 1.69145 0
M  V30 810 C 83.0575 -1.85055 0.651845 0
M  V30 811 O 82.1825 -2.15498 -0.197359 0
M  V30 812 C 82.7775 -1.4404 3.06656 0
M  V30 813 C 81.3365 -1.95494 3.2165 0
M  V30 814 C 80.4835 -0.814506 2.65068 0
M  V30 815 H 83.4345 0.00139011 1.587 0
M  V30 816 H 83.4555 -2.30916 3.0242 0
M  V30 817 H 82.9675 -0.668543 3.82298 0
M  V30 818 H 81.0685 -2.75487 2.50874 0
M  V30 819 H 81.1815 -2.13607 4.28846 0
M  V30 820 H 79.5455 -1.22137 2.23505 0
M  V30 821 H 80.3285 -0.0553515 3.43255 0
M  V30 822 N 82.7736 -1.49793 -0.48987 0
M  V30 823 C 84.0196 -1.60078 -1.24511 0
M  V30 824 C 84.3526 -0.291608 -1.91998 0
M  V30 825 O 83.6276 0.705647 -1.81248 0
M  V30 826 C 83.9106 -2.76791 -2.30345 0
M  V30 827 C 83.7636 -4.17535 -1.67286 0
M  V30 828 C 85.0826 -2.89111 -3.31817 0
M  V30 829 H 82.2016 -0.582645 -0.451324 0
M  V30 830 H 84.8436 -1.82117 -0.541612 0
M  V30 831 H 82.9936 -2.5813 -2.90346 0
M  V30 832 H 84.6656 -4.4774 -1.11026 0
M  V30 833 H 82.9086 -4.22665 -0.976577 0
M  V30 834 H 83.5796 -4.95094 -2.44103 0
M  V30 835 H 86.0556 -3.06133 -2.81819 0
M  V30 836 H 84.9316 -3.72433 -4.03219 0
M  V30 837 H 85.1926 -1.9893 -3.94815 0
M  V30 838 N 84.2517 0.741722 -1.39055 0
M  V30 839 C 85.1987 1.85566 -1.37237 0
M  V30 840 C 86.1687 1.64457 -0.233072 0
M  V30 841 O 87.3537 1.85957 -0.427147 0
M  V30 842 C 84.4937 3.23004 -1.215 0
M  V30 843 C 83.6067 3.55864 -2.44918 0
M  V30 844 C 82.7417 4.82669 -2.21821 0
M  V30 845 C 81.7807 5.08351 -3.40948 0
M  V30 846 N 80.9177 6.26356 -3.17211 0
M  V30 847 H 85.7577 1.86455 -2.32462 0
M  V30 848 H 83.2947 0.911176 -1.15482 0
M  V30 849 H 85.2527 4.02331 -1.10389 0
M  V30 850 H 83.8827 3.21411 -0.29908 0
M  V30 851 H 82.9347 2.7129 -2.66657 0
M  V30 852 H 84.2467 3.70765 -3.33668 0
M  V30 853 H 83.4007 5.69962 -2.07914 0
M  V30 854 H 82.1397 4.69929 -1.30454 0
M  V30 855 H 81.1447 4.19522 -3.55361 0
M  V30 856 H 82.3697 5.22981 -4.33207 0
M  V30 857 H 80.3157 6.14917 -2.28502 0
M  V30 858 H 80.2327 6.41813 -3.99515 0
M  V30 859 H 81.5007 7.16506 -3.06984 0
M  V30 860 N 85.7298 1.2412 0.971189 0
M  V30 861 C 87.0068 0.986867 1.6888 0
M  V30 862 C 87.3868 -0.491857 2.0529 0
M  V30 863 O 86.7348 -1.46531 1.75331 0
M  V30 864 C 86.9448 1.9063 2.92338 0
M  V30 865 C 88.2928 2.17515 3.64654 0
M  V30 866 O 89.3168 1.88254 3.02388 0
M  V30 867 O 88.1758 2.6719 4.7673 0
M  V30 868 H 85.2698 0.372944 0.738134 0
M  V30 869 H 87.8158 1.35203 1.02559 0
M  V30 870 H 86.5878 2.90552 2.62097 0
M  V30 871 H 86.2108 1.54408 3.66393 0
M  V30 872 N 87.2079 -1.17134 1.05439 0
M  V30 873 C 88.4539 -1.87733 0.767077 0
M  V30 874 C 88.7869 -1.8098 -0.704253 0
M  V30 875 O 88.0619 -1.21951 -1.5152 0
M  V30 876 C 88.3449 -3.37659 1.25133 0
M  V30 877 C 88.1979 -3.53149 2.78578 0
M  V30 878 C 89.5169 -4.31768 0.852324 0
M  V30 879 H 86.6359 -0.681687 0.280129 0
M  V30 880 H 89.2779 -1.37732 1.30881 0
M  V30 881 H 87.4279 -3.80373 0.790469 0
M  V30 882 H 89.0999 -3.19434 3.32806 0
M  V30 883 H 87.3429 -2.95345 3.17732 0
M  V30 884 H 88.0139 -4.58403 3.07523 0
M  V30 885 H 90.4899 -3.96909 1.24911 0
M  V30 886 H 89.3659 -5.35199 1.21873 0
M  V30 887 H 89.6269 -4.41429 -0.243485 0
M  V30 888 N 88.686 -0.835752 -1.33615 0
M  V30 889 C 89.619 -0.211815 -2.27215 0
M  V30 890 C 90.597 0.639249 -1.49507 0
M  V30 891 O 91.781 0.600193 -1.78689 0
M  V30 892 C 88.908 0.702893 -3.31326 0
M  V30 893 C 87.954 -0.0723049 -4.26439 0
M  V30 894 S 88.787 -1.42811 -5.16106 0
M  V30 895 C 89.943 -0.518613 -6.23748 0
M  V30 896 H 90.176 -1.00533 -2.79786 0
M  V30 897 H 87.709 -0.632336 -1.40858 0
M  V30 898 H 89.667 1.22505 -3.91794 0
M  V30 899 H 88.328 1.47004 -2.77576 0
M  V30 900 H 87.521 0.62359 -5.00127 0
M  V30 901 H 87.123 -0.525424 -3.70291 0
M  V30 902 H 89.415 0.284778 -6.76901 0
M  V30 903 H 90.358 -1.22556 -6.97413 0
M  V30 904 H 90.766 -0.101344 -5.64409 0
M  V30 905 N 90.1641 1.46063 -0.591896 0
M  V30 906 C 91.4131 2.01547 -0.0786637 0
M  V30 907 C 91.7261 1.46796 1.29268 0
M  V30 908 O 92.9321 1.94157 1.89777 0
M  V30 909 C 91.3881 3.59787 -0.0900024 0
M  V30 910 C 90.9961 4.23534 -1.46023 0
M  V30 911 C 92.7401 4.22895 0.368806 0
M  V30 912 C 90.6471 5.73881 -1.4288 0
M  V30 913 H 89.5771 0.753564 -0.0256388 0
M  V30 914 H 92.2281 1.677 -0.744905 0
M  V30 915 H 90.6101 3.90752 0.642586 0
M  V30 916 H 91.7841 4.04167 -2.21328 0
M  V30 917 H 90.0991 3.72558 -1.85982 0
M  V30 918 H 92.6961 5.33116 0.411258 0
M  V30 919 H 93.0391 3.9247 1.38827 0
M  V30 920 H 93.5721 3.9659 -0.31001 0
M  V30 921 H 90.3111 6.0898 -2.42536 0
M  V30 922 H 89.8311 5.95486 -0.718095 0
M  V30 923 H 91.5101 6.36776 -1.14565 0
M  V30 924 N 91.6422 0.330177 1.54103 0
M  V30 925 C 92.5892 -0.532762 2.24567 0
M  V30 926 C 93.5592 -1.10635 1.23892 0
M  V30 927 O 94.7442 -1.14546 1.5259 0
M  V30 928 C 91.8842 -1.6845 3.01195 0
M  V30 929 C 90.9972 -1.13951 4.167 0
M  V30 930 C 90.1322 -2.25746 4.80845 0
M  V30 931 C 89.1712 -1.6853 5.88442 0
M  V30 932 N 88.3082 -2.74014 6.46421 0
M  V30 933 H 93.1482 0.0746905 2.97906 0
M  V30 934 H 90.6852 0.048632 1.4702 0
M  V30 935 H 92.6432 -2.36234 3.43874 0
M  V30 936 H 91.2732 -2.26314 2.30178 0
M  V30 937 H 90.3252 -0.35301 3.78758 0
M  V30 938 H 91.6372 -0.680892 4.94131 0
M  V30 939 H 90.7912 -3.01422 5.26526 0
M  V30 940 H 89.5302 -2.74947 4.0281 0
M  V30 941 H 88.5352 -0.913543 5.42157 0
M  V30 942 H 89.7602 -1.20198 6.68378 0
M  V30 943 H 87.7062 -3.22494 5.71256 0
M  V30 944 H 87.6232 -2.32735 7.19285 0
M  V30 945 H 88.8912 -3.49499 6.96757 0
M  V30 946 N 93.1203 -1.57491 0.0584922 0
M  V30 947 C 94.3453 -1.97711 -0.62652 0
M  V30 948 C 94.7703 -0.936132 -1.63151 0
M  V30 949 O 94.1283 0.099811 -1.81025 0
M  V30 950 C 94.1763 -3.36989 -1.28338 0
M  V30 951 O 93.2803 -3.35433 -2.39913 0
M  V30 952 H 92.6213 -0.643868 -0.162266 0
M  V30 953 H 95.1513 -2.04193 0.129064 0
M  V30 954 H 95.1613 -3.73879 -1.63335 0
M  V30 955 H 93.8363 -4.12289 -0.546889 0
M  V30 956 H 92.4133 -3.10298 -2.06809 0
M  V30 957 N 94.5984 0.214957 -1.56127 0
M  V30 958 C 95.5284 1.2695 -1.95974 0
M  V30 959 C 96.5094 1.48539 -0.828868 0
M  V30 960 O 97.6944 1.60611 -1.09168 0
M  V30 961 C 94.8244 2.61794 -2.28214 0
M  V30 962 C 93.7784 2.54851 -3.43853 0
M  V30 963 C 93.1044 3.93785 -3.61715 0
M  V30 964 C 94.4044 2.09065 -4.78632 0
M  V30 965 H 96.0984 0.93846 -2.84312 0
M  V30 966 H 93.6444 0.449996 -1.36788 0
M  V30 967 H 95.5974 3.35731 -2.54682 0
M  V30 968 H 94.3214 2.96599 -1.36736 0
M  V30 969 H 92.9804 1.8337 -3.17444 0
M  V30 970 H 92.6284 4.25908 -2.67602 0
M  V30 971 H 92.3284 3.90019 -4.39498 0
M  V30 972 H 93.8524 4.69374 -3.90539 0
M  V30 973 H 95.2664 2.7275 -5.04262 0
M  V30 974 H 93.6634 2.16346 -5.59745 0
M  V30 975 H 94.7334 1.04315 -4.73547 0
M  V30 976 N 96.0765 1.50051 0.48192 0
M  V30 977 C 97.4875 1.5348 1.06305 0
M  V30 978 C 97.8385 0.331997 1.93371 0
M  V30 979 O 96.9635 -0.556256 2.09129 0
M  V30 980 C 97.5585 2.7813 1.93466 0
M  V30 981 C 96.1175 2.84275 2.46707 0
M  V30 982 C 95.2645 2.47637 1.24785 0
M  V30 983 H 98.2155 1.56472 0.264995 0
M  V30 984 H 98.2365 2.59372 2.78399 0
M  V30 985 H 97.7485 3.65654 1.30072 0
M  V30 986 H 95.8495 2.01077 3.13686 0
M  V30 987 H 95.9625 3.8691 2.82555 0
M  V30 988 H 94.3265 1.99835 1.57918 0
M  V30 989 H 95.1095 3.37457 0.630694 0
M  V30 990 N 97.5546 -0.734337 1.39446 0
M  V30 991 C 98.5176 -1.83004 1.37994 0
M  V30 992 C 99.5176 -1.58397 0.276938 0
M  V30 993 O 100.708 -1.65785 0.534875 0
M  V30 994 C 97.8396 -3.20802 1.1532 0
M  V30 995 H 99.0326 -1.85694 2.35494 0
M  V30 996 H 96.5856 -0.938059 1.25021 0
M  V30 997 H 97.3206 -3.23772 0.185036 0
M  V30 998 H 97.1056 -3.4006 1.95197 0
M  V30 999 H 98.5956 -4.00862 1.17046 0
M  V30 1000 N 99.0327 -1.24633 -0.964593 0
M  V30 1001 C 99.9627 -1.06611 -2.07741 0
M  V30 1002 C 100.944 0.0218666 -1.70086 0
M  V30 1003 O 102.129 -0.145793 -1.93652 0
M  V30 1004 C 99.2587 -0.673444 -3.40708 0
M  V30 1005 C 98.2127 -1.71054 -3.92332 0
M  V30 1006 C 97.5387 -1.17285 -5.21678 0
M  V30 1007 C 98.8387 -3.10718 -4.19824 0
M  V30 1008 H 100.533 -1.99693 -2.23076 0
M  V30 1009 H 98.0787 -0.96152 -1.07195 0
M  V30 1010 H 100.032 -0.534345 -4.17998 0
M  V30 1011 H 98.7557 0.293073 -3.25282 0
M  V30 1012 H 97.4147 -1.83791 -3.17201 0
M  V30 1013 H 97.0627 -0.196847 -5.02615 0
M  V30 1014 H 96.7627 -1.86592 -5.57187 0
M  V30 1015 H 98.2867 -1.04593 -6.01575 0
M  V30 1016 H 99.7007 -3.01192 -4.87808 0
M  V30 1017 H 98.0977 -3.77406 -4.66567 0
M  V30 1018 H 99.1677 -3.58524 -3.26479 0
M  V30 1019 N 100.511 1.16574 -1.06058 0
M  V30 1020 C 101.459 2.22941 -0.663343 0
M  V30 1021 C 102.453 1.66358 0.319593 0
M  V30 1022 O 103.659 1.7905 0.184713 0
M  V30 1023 H 100.034 0.725907 -0.196376 0
M  V30 1024 H 102.005 2.53736 -1.57037 0
M  V30 1025 C 100.754 3.47642 -0.0632808 0
M  V30 1026 H 100.077 3.91493 -0.810733 0
M  V30 1027 H 101.517 4.2363 0.177177 0
M  V30 1028 C 99.9758 3.1509 1.19248 0
M  V30 1029 O 100.506 3.30673 2.28075 0
M  V30 1030 N 98.7118 2.6924 1.09353 0
M  V30 1031 H 98.2588 2.5676 0.207912 0
M  V30 1032 H 98.2168 2.47833 1.93458 0
M  V30 1033 N 101.989 0.842826 1.3317 0
M  V30 1034 C 103.214 0.453129 2.02389 0
M  V30 1035 C 103.639 -0.939105 1.6298 0
M  V30 1036 O 102.997 -1.61472 0.8244 0
M  V30 1037 C 103.045 0.586094 3.55805 0
M  V30 1038 O 102.149 -0.386029 4.10589 0
M  V30 1039 H 101.49 0.183664 0.638094 0
M  V30 1040 H 104.02 1.13875 1.69981 0
M  V30 1041 H 104.03 0.469209 4.05293 0
M  V30 1042 H 102.705 1.6014 3.83833 0
M  V30 1043 H 101.282 -0.226371 3.72212 0
M  V30 1044 N 103.467 -1.45747 0.599634 0
M  V30 1045 C 104.878 -1.85853 0.177681 0
M  V30 1046 C 105.229 -1.50102 -1.26348 0
M  V30 1047 O 104.354 -0.923905 -1.95686 0
M  V30 1048 C 104.949 -3.37326 0.315688 0
M  V30 1049 C 103.508 -3.76365 -0.0515144 0
M  V30 1050 C 102.655 -2.69722 0.643822 0
M  V30 1051 H 105.606 -1.36661 0.806814 0
M  V30 1052 H 105.627 -3.77778 -0.454321 0
M  V30 1053 H 105.139 -3.63315 1.36468 0
M  V30 1054 H 103.24 -3.55993 -1.09999 0
M  V30 1055 H 103.353 -4.77916 0.336594 0
M  V30 1056 H 101.717 -2.54567 0.0822881 0
M  V30 1057 H 102.5 -2.98549 1.6948 0
M  V30 1058 N 104.945 -0.338344 -1.53925 0
M  V30 1059 C 106.173 0.261298 -2.05243 0
M  V30 1060 C 106.588 1.44625 -1.21363 0
M  V30 1061 O 105.945 1.80811 -0.247736 0
M  V30 1062 C 105.996 0.681412 -3.5502 0
M  V30 1063 O 105.717 -0.456414 -4.35716 0
M  V30 1064 C 107.218 1.34232 -4.22489 0
M  V30 1065 H 104.438 0.0513685 -0.669031 0
M  V30 1066 H 106.982 -0.488822 -1.98572 0
M  V30 1067 H 105.137 1.38148 -3.61931 0
M  V30 1068 H 105.551 -0.122564 -5.24357 0
M  V30 1069 H 107.025 1.58708 -5.28693 0
M  V30 1070 H 107.502 2.29426 -3.74514 0
M  V30 1071 H 108.108 0.684424 -4.19757 0
M  V30 1072 N 106.423 1.57458 -0.0668435 0
M  V30 1073 C 107.669 1.93587 0.6043 0
M  V30 1074 C 108.002 0.946722 1.69561 0
M  V30 1075 O 107.277 -0.0248516 1.94484 0
M  V30 1076 C 107.56 3.40014 1.18585 0
M  V30 1077 C 107.413 4.49685 0.101529 0
M  V30 1078 C 108.732 3.87154 2.09284 0
M  V30 1079 H 105.851 0.703958 0.218202 0
M  V30 1080 H 108.493 1.89542 -0.131804 0
M  V30 1081 H 106.643 3.43592 1.81319 0
M  V30 1082 H 108.315 4.5823 -0.531279 0
M  V30 1083 H 106.558 4.30059 -0.568487 0
M  V30 1084 H 107.229 5.49266 0.54874 0
M  V30 1085 H 109.705 3.85551 1.56491 0
M  V30 1086 H 108.581 4.90231 2.46911 0
M  V30 1087 H 108.842 3.2481 2.99918 0
M  V30 1088 N 107.901 -0.206675 1.56239 0
M  V30 1089 C 108.811 -1.27686 1.96808 0
M  V30 1090 C 109.827 -1.50455 0.874035 0
M  V30 1091 O 111.003 -1.63295 1.17884 0
M  V30 1092 C 108.068 -2.60358 2.28942 0
M  V30 1093 C 107.129 -2.45762 3.51994 0
M  V30 1094 C 106.362 -3.72108 3.82585 0
M  V30 1095 O 106.585 -4.75776 3.14631 0
M  V30 1096 O 105.519 -3.6833 4.76043 0
M  V30 1097 H 109.345 -0.962593 2.88041 0
M  V30 1098 H 106.93 -0.410746 1.43643 0
M  V30 1099 H 108.812 -3.38687 2.50737 0
M  V30 1100 H 107.487 -2.91435 1.4088 0
M  V30 1101 H 106.394 -1.65584 3.35459 0
M  V30 1102 H 107.727 -2.19621 4.40486 0
M  V30 1103 N 109.379 -1.50304 -0.473955 0
M  V30 1104 C 110.289 -1.7174 -1.5982 0
M  V30 1105 C 111.305 -0.600457 -1.63311 0
M  V30 1106 O 112.481 -0.878441 -1.81233 0
M  V30 1107 C 109.546 -1.80427 -2.96052 0
M  V30 1108 C 108.607 -3.04148 -3.02972 0
M  V30 1109 C 107.84 -3.12411 -4.32706 0
M  V30 1110 O 108.063 -2.27542 -5.23049 0
M  V30 1111 O 106.997 -4.05113 -4.45159 0
M  V30 1112 H 110.823 -2.67035 -1.44657 0
M  V30 1113 H 108.408 -1.34366 -0.653148 0
M  V30 1114 H 110.29 -1.88338 -3.7697 0
M  V30 1115 H 108.965 -0.883156 -3.11419 0
M  V30 1116 H 107.872 -3.0174 -2.21142 0
M  V30 1117 H 109.205 -3.95829 -2.92541 0
M  V30 1118 N 110.857 0.726932 -1.39834 0
M  V30 1119 C 112.097 1.4992 -1.38936 0
M  V30 1120 C 112.461 1.91996 0.0126883 0
M  V30 1121 O 113.662 2.68399 0.146715 0
M  V30 1122 C 111.933 2.70013 -2.34153 0
M  V30 1123 S 113.492 3.59563 -2.51515 0
M  V30 1124 H 110.31 0.51271 -0.492595 0
M  V30 1125 H 112.912 0.85107 -1.76003 0
M  V30 1126 H 111.616 2.37254 -3.34871 0
M  V30 1127 H 111.147 3.39748 -1.98331 0
M  V30 1128 H 113.162 4.63973 -1.75909 0
M  V30 1129 N 112.336 1.25143 0.95797 0
M  V30 1130 C 113.584 1.09476 1.69881 0
M  V30 1131 C 113.905 -0.365502 1.91544 0
M  V30 1132 O 113.175 -1.25985 1.50015 0
M  V30 1133 H 111.755 0.402128 0.629525 0
M  V30 1134 H 114.417 1.57214 1.15194 0
M  V30 1135 H 113.513 1.60046 2.6794 0
M  V30 1136 N 113.814 -1.1601 1.06675 0
M  V30 1137 C 115.044 -1.90251 0.805497 0
M  V30 1138 C 115.452 -1.77891 -0.64431 0
M  V30 1139 O 114.795 -1.12383 -1.45313 0
M  V30 1140 C 114.857 -3.41419 1.12576 0
M  V30 1141 C 114.521 -3.77564 2.57477 0
M  V30 1142 C 115.518 -3.79161 3.55715 0
M  V30 1143 C 113.203 -4.08079 2.92877 0
M  V30 1144 C 115.197 -4.10767 4.8739 0
M  V30 1145 C 112.884 -4.39351 4.24751 0
M  V30 1146 C 113.882 -4.40675 5.21818 0
M  V30 1147 O 113.57 -4.71202 6.51325 0
M  V30 1148 H 113.302 -0.610018 0.291297 0
M  V30 1149 H 115.856 -1.47958 1.4247 0
M  V30 1150 H 114.086 -3.84079 0.449503 0
M  V30 1151 H 115.775 -3.9694 0.84814 0
M  V30 1152 H 116.541 -3.55693 3.29708 0
M  V30 1153 H 112.42 -4.06211 2.17976 0
M  V30 1154 H 115.964 -4.11715 5.63148 0
M  V30 1155 H 111.861 -4.62285 4.50514 0
M  V30 1156 H 112.629 -4.88996 6.56373 0
M  V30 1157 N 115.292 -0.849877 -1.32721 0
M  V30 1158 C 116.517 -0.463856 -2.02146 0
M  V30 1159 C 116.942 0.930449 -1.63476 0
M  V30 1160 O 116.3 1.61033 -0.832952 0
M  V30 1161 C 116.348 -0.604955 -3.55489 0
M  V30 1162 O 115.452 0.36425 -4.10788 0
M  V30 1163 H 114.793 -0.187046 -0.637111 0
M  V30 1164 H 117.323 -1.14775 -1.69375 0
M  V30 1165 H 117.333 -0.490696 -4.05038 0
M  V30 1166 H 116.008 -1.62174 -3.82978 0
M  V30 1167 H 114.585 0.206628 -3.72327 0
M  V30 1168 N 116.77 1.45427 -0.607355 0
M  V30 1169 C 118.047 1.9557 -0.0344566 0
M  V30 1170 C 118.427 1.54979 1.43334 0
M  V30 1171 O 117.775 0.812241 2.13576 0
M  V30 1172 C 117.985 3.48226 -0.232321 0
M  V30 1173 C 119.333 4.2445 -0.113001 0
M  V30 1174 O 120.357 3.55829 -0.162431 0
M  V30 1175 O 119.216 5.465 0.00209442 0
M  V30 1176 H 116.31 0.826222 0.0358667 0
M  V30 1177 H 118.856 1.55594 -0.6774 0
M  V30 1178 H 117.628 3.70739 -1.25174 0
M  V30 1179 H 117.251 3.95092 0.445896 0
M  V30 1180 N 118.248 0.346503 1.53744 0
M  V30 1181 C 119.664 -0.00530975 1.59599 0
M  V30 1182 C 119.864 -1.48465 1.36236 0
M  V30 1183 O 118.92 -2.24376 1.15808 0
M  V30 1184 C 120.233 0.433516 2.97559 0
M  V30 1185 C 121.781 0.386111 3.10609 0
M  V30 1186 C 122.256 0.800451 4.50951 0
M  V30 1187 N 123.747 0.754753 4.5701 0
M  V30 1188 C 124.482 1.04727 5.63755 0
M  V30 1189 N 123.978 1.4081 6.7834 0
M  V30 1190 N 125.771 0.971316 5.53644 0
M  V30 1191 H 117.922 1.31009 1.67184 0
M  V30 1192 H 120.185 0.534242 0.783128 0
M  V30 1193 H 119.891 1.46509 3.19731 0
M  V30 1194 H 119.765 -0.189753 3.76722 0
M  V30 1195 H 122.152 -0.636295 2.88158 0
M  V30 1196 H 122.233 1.04462 2.33498 0
M  V30 1197 H 121.877 1.82088 4.74137 0
M  V30 1198 H 121.807 0.119386 5.26465 0
M  V30 1199 H 124.298 0.488662 3.74727 0
M  V30 1200 H 124.611 1.61607 7.55714 0
M  V30 1201 H 122.956 1.44657 6.79779 0
M  V30 1202 H 126.147 0.688748 4.63005 0
M  V30 1203 H 126.32 1.20263 6.36742 0
M  V30 1204 N 119.726 -1.57421 0.075193 0
M  V30 1205 C 120.972 -1.93905 -0.594025 0
M  V30 1206 C 121.305 -0.955701 -1.69056 0
M  V30 1207 O 120.58 0.0145373 -1.94495 0
M  V30 1208 C 120.863 -3.40638 -1.1678 0
M  V30 1209 C 120.716 -4.49733 -0.0776792 0
M  V30 1210 C 122.035 -3.88259 -2.07228 0
M  V30 1211 H 119.154 -0.705105 -0.214466 0
M  V30 1212 H 121.796 -1.8947 0.141854 0
M  V30 1213 H 119.946 -3.44549 -1.79494 0
M  V30 1214 H 121.618 -4.57942 0.555573 0
M  V30 1215 H 119.861 -4.29751 0.591286 0
M  V30 1216 H 120.532 -5.49549 -0.519603 0
M  V30 1217 H 123.008 -3.86376 -1.54445 0
M  V30 1218 H 121.884 -4.91533 -2.44308 0
M  V30 1219 H 122.145 -3.26396 -2.98191 0
M  V30 1220 N 121.204 0.198386 -1.56346 0
M  V30 1221 C 122.62 0.549085 -1.49857 0
M  V30 1222 C 122.82 1.86016 -0.774611 0
M  V30 1223 O 121.876 2.50416 -0.323776 0
M  V30 1224 C 123.189 0.606868 -2.94512 0
M  V30 1225 C 124.737 0.695925 -3.05165 0
M  V30 1226 C 125.212 0.784848 -4.51225 0
M  V30 1227 N 126.703 0.848463 -4.55363 0
M  V30 1228 C 127.438 0.937378 -5.65686 0
M  V30 1229 N 126.934 0.9888 -6.85707 0
M  V30 1230 N 128.727 0.974312 -5.53592 0
M  V30 1231 H 120.878 -0.661655 -2.01831 0
M  V30 1232 H 123.141 -0.235261 -0.918344 0
M  V30 1233 H 122.847 -0.28732 -3.50524 0
M  V30 1234 H 122.721 1.46268 -3.47686 0
M  V30 1235 H 125.108 1.58055 -2.49204 0
M  V30 1236 H 125.189 -0.186022 -2.55123 0
M  V30 1237 H 124.833 -0.0954072 -5.0781 0
M  V30 1238 H 124.763 1.68255 -4.98997 0
M  V30 1239 H 127.254 0.818103 -3.68938 0
M  V30 1240 H 127.567 1.05707 -7.65536 0
M  V30 1241 H 125.912 0.957534 -6.88372 0
M  V30 1242 H 129.103 0.930954 -4.58749 0
M  V30 1243 H 129.276 1.04015 -6.39597 0
M  V30 1244 N 122.682 1.50554 0.465978 0
M  V30 1245 C 123.907 1.65838 1.24549 0
M  V30 1246 C 124.332 0.343486 1.84937 0
M  V30 1247 O 123.69 -0.69324 1.67523 0
M  V30 1248 C 123.738 2.75533 2.32624 0
M  V30 1249 O 122.842 2.37142 3.37398 0
M  V30 1250 H 122.183 0.553893 0.366194 0
M  V30 1251 H 124.713 1.96959 0.553927 0
M  V30 1252 H 124.723 2.98763 2.77857 0
M  V30 1253 H 123.398 3.70962 1.88043 0
M  V30 1254 H 121.975 2.24377 2.97841 0
M  V30 1255 N 124.16 -0.719506 1.40217 0
M  V30 1256 C 125.409 -1.47486 1.37589 0
M  V30 1257 C 125.722 -1.9559 -0.0201568 0
M  V30 1258 O 126.928 -2.70973 -0.169049 0
M  V30 1259 C 125.384 -2.66575 2.41796 0
M  V30 1260 C 124.992 -2.25358 3.87192 0
M  V30 1261 C 126.736 -3.4433 2.48269 0
M  V30 1262 C 124.643 -3.41262 4.83005 0
M  V30 1263 H 123.573 -0.553901 0.511576 0
M  V30 1264 H 126.224 -0.783427 1.65936 0
M  V30 1265 H 124.606 -3.3787 2.06543 0
M  V30 1266 H 125.78 -1.61509 4.31569 0
M  V30 1267 H 124.095 -1.60657 3.84159 0
M  V30 1268 H 126.692 -4.30569 3.17041 0
M  V30 1269 H 127.035 -3.87872 1.51198 0
M  V30 1270 H 127.568 -2.80076 2.82493 0
M  V30 1271 H 124.307 -3.02755 5.81394 0
M  V30 1272 H 123.827 -4.0404 4.43297 0
M  V30 1273 H 125.506 -4.07383 5.02641 0
M  V30 1274 N 125.638 -1.25649 -0.95132 0
M  V30 1275 C 126.866 -1.13343 -1.73092 0
M  V30 1276 C 127.281 0.312434 -1.86197 0
M  V30 1277 O 126.638 1.21465 -1.36207 0
M  V30 1278 C 126.689 -1.78602 -3.14299 0
M  V30 1279 O 126.41 -3.17537 -3.01831 0
M  V30 1280 C 127.911 -1.72119 -4.08522 0
M  V30 1281 H 125.131 -0.395181 -0.542285 0
M  V30 1282 H 127.675 -1.66076 -1.19328 0
M  V30 1283 H 125.83 -1.29832 -3.64996 0
M  V30 1284 H 126.244 -3.49676 -3.90931 0
M  V30 1285 H 127.718 -2.22435 -5.052 0
M  V30 1286 H 128.195 -0.685635 -4.33815 0
M  V30 1287 H 128.801 -2.20393 -3.63741 0
M  V30 1288 N 127.117 1.15442 -1.07289 0
M  V30 1289 C 128.047 2.22312 -0.714107 0
M  V30 1290 C 129.028 1.67467 0.298155 0
M  V30 1291 O 130.213 1.93445 0.171048 0
M  V30 1292 C 127.343 3.47124 -0.110448 0
M  V30 1293 C 126.297 4.14926 -1.04979 0
M  V30 1294 C 125.623 5.33807 -0.308924 0
M  V30 1295 C 126.923 4.64762 -2.38314 0
M  V30 1296 H 128.617 2.5258 -1.6076 0
M  V30 1297 H 126.163 1.21404 -0.77441 0
M  V30 1298 H 128.116 4.21124 0.152482 0
M  V30 1299 H 126.84 3.16187 0.81812 0
M  V30 1300 H 125.499 3.42866 -1.29764 0
M  V30 1301 H 125.147 4.99126 0.623084 0
M  V30 1302 H 124.847 5.80113 -0.935036 0
M  V30 1303 H 126.371 6.10576 -0.0537771 0
M  V30 1304 H 127.785 5.30292 -2.1786 0
M  V30 1305 H 126.182 5.21728 -2.96514 0
M  V30 1306 H 127.252 3.80434 -3.00663 0
M  V30 1307 N 128.595 0.856903 1.32268 0
M  V30 1308 C 129.843 0.460474 1.96784 0
M  V30 1309 C 130.164 -0.987701 1.68135 0
M  V30 1310 O 129.434 -1.69058 0.989765 0
M  V30 1311 H 128.014 0.167289 0.728027 0
M  V30 1312 H 130.676 1.09383 1.61312 0
M  V30 1313 H 129.772 0.60739 3.06133 0
M  V30 1314 N 130.073 -1.45103 0.615059 0
M  V30 1315 C 131.021 -2.32331 -0.111791 0
M  V30 1316 C 132.015 -1.46409 -0.852102 0
M  V30 1317 O 133.221 -1.62849 -0.766821 0
M  V30 1318 H 129.596 -0.749993 -0.0549072 0
M  V30 1319 H 131.567 -2.91407 0.642225 0
M  V30 1320 C 130.316 -3.3015 -1.09071 0
M  V30 1321 H 129.639 -3.96265 -0.530485 0
M  V30 1322 H 131.079 -3.93898 -1.56908 0
M  V30 1323 C 129.538 -2.57875 -2.168 0
M  V30 1324 O 130.068 -2.36567 -3.24652 0
M  V30 1325 N 128.274 -2.17884 -1.92289 0
M  V30 1326 H 127.821 -2.35413 -1.04587 0
M  V30 1327 H 127.779 -1.6985 -2.64572 0
M  V30 1328 N 131.551 -0.354651 -1.53558 0
M  V30 1329 C 132.776 0.242153 -2.05981 0
M  V30 1330 C 133.201 1.42553 -1.2272 0
M  V30 1331 O 132.559 1.79656 -0.243604 0
M  V30 1332 C 132.607 0.624367 -3.55154 0
M  V30 1333 O 131.711 1.72301 -3.74681 0
M  V30 1334 H 131.052 0.0378432 -0.662921 0
M  V30 1335 H 133.582 -0.512087 -1.98088 0
M  V30 1336 H 133.592 0.898433 -3.97985 0
M  V30 1337 H 132.267 -0.240989 -4.15201 0
M  V30 1338 H 130.844 1.44535 -3.4375 0
M  V30 1339 N 133.029 1.57378 -0.0835403 0
M  V30 1340 C 134.257 1.98263 0.59157 0
M  V30 1341 C 134.672 0.962302 1.62435 0
M  V30 1342 O 134.029 -0.049581 1.82433 0
M  V30 1343 C 134.08 3.39214 1.24965 0
M  V30 1344 O 133.801 4.37339 0.258186 0
M  V30 1345 C 135.302 3.95038 2.01147 0
M  V30 1346 H 132.522 0.651773 0.159477 0
M  V30 1347 H 135.066 2.03878 -0.159415 0
M  V30 1348 H 133.221 3.34649 1.95164 0
M  V30 1349 H 133.635 5.19371 0.731734 0
M  V30 1350 H 135.109 4.95848 2.42567 0
M  V30 1351 H 135.586 3.32222 2.87272 0
M  V30 1352 H 136.192 4.0304 1.35789 0
M  V30 1353 N 134.507 -0.190092 1.56449 0
M  V30 1354 C 135.756 -0.907912 1.80111 0
M  V30 1355 C 136.069 -1.84214 0.657619 0
M  V30 1356 O 137.275 -2.60094 0.778663 0
M  V30 1357 C 135.731 -1.66485 3.19078 0
M  V30 1358 C 135.339 -0.7752 4.41242 0
M  V30 1359 C 137.083 -2.37201 3.52045 0
M  V30 1360 C 134.99 -1.53129 5.71231 0
M  V30 1361 H 133.92 -0.34276 0.671589 0
M  V30 1362 H 136.571 -0.161109 1.82791 0
M  V30 1363 H 134.953 -2.45572 3.10661 0
M  V30 1364 H 136.127 -0.0226298 4.60794 0
M  V30 1365 H 134.442 -0.178627 4.16017 0
M  V30 1366 H 137.039 -2.94329 4.46402 0
M  V30 1367 H 137.382 -3.11632 2.76028 0
M  V30 1368 H 137.915 -1.65075 3.61932 0
M  V30 1369 H 134.654 -0.82967 6.50228 0
M  V30 1370 H 134.174 -2.25767 5.55688 0
M  V30 1371 H 135.853 -2.08377 6.12526 0
M  V30 1372 N 135.985 -1.50799 -0.457987 0
M  V30 1373 C 137.213 -1.66218 -1.23203 0
M  V30 1374 C 137.628 -0.350894 -1.85511 0
M  V30 1375 O 136.985 0.668546 -1.69814 0
M  V30 1376 C 137.036 -2.76291 -2.33121 0
M  V30 1377 O 136.757 -4.02338 -1.73366 0
M  V30 1378 C 138.258 -3.028 -3.2377 0
M  V30 1379 H 135.478 -0.558361 -0.372121 0
M  V30 1380 H 138.022 -1.97099 -0.545179 0
M  V30 1381 H 136.177 -2.48068 -2.97558 0
M  V30 1382 H 136.591 -4.63312 -2.4585 0
M  V30 1383 H 138.065 -3.8345 -3.97077 0
M  V30 1384 H 138.542 -2.14385 -3.83322 0
M  V30 1385 H 139.148 -3.32604 -2.65056 0
M  V30 1386 N 137.463 0.71206 -1.40597 0
M  V30 1387 C 138.691 1.50111 -1.42388 0
M  V30 1388 C 139.106 1.88784 -0.0245395 0
M  V30 1389 O 138.463 1.55681 0.952351 0
M  V30 1390 C 138.514 2.7742 -2.31776 0
M  V30 1391 O 138.235 2.40382 -3.66262 0
M  V30 1392 C 139.736 3.7129 -2.42196 0
M  V30 1393 H 136.956 0.46314 -0.485533 0
M  V30 1394 H 139.5 0.878068 -1.8469 0
M  V30 1395 H 137.655 3.36001 -1.92827 0
M  V30 1396 H 138.069 3.22324 -4.13772 0
M  V30 1397 H 139.543 4.57448 -3.08943 0
M  V30 1398 H 140.02 4.14641 -1.44809 0
M  V30 1399 H 140.626 3.18619 -2.81712 0
M  V30 1400 N 138.941 1.26152 0.944643 0
M  V30 1401 C 139.873 1.03199 2.04652 0
M  V30 1402 C 140.886 -0.00642356 1.62799 0
M  V30 1403 O 142.075 0.233263 1.76969 0
M  V30 1404 C 139.175 0.540111 3.34568 0
M  V30 1405 C 138.348 1.64697 4.05208 0
M  V30 1406 C 137.407 1.15374 5.13396 0
M  V30 1407 O 136.433 1.85013 5.38293 0
M  V30 1408 N 137.635 0.00031529 5.805 0
M  V30 1409 H 140.4 1.9808 2.2491 0
M  V30 1410 H 137.961 1.17491 1.11389 0
M  V30 1411 H 139.953 0.194401 4.04233 0
M  V30 1412 H 138.523 -0.315021 3.11009 0
M  V30 1413 H 137.743 2.16379 3.29506 0
M  V30 1414 H 139.031 2.3903 4.49157 0
M  V30 1415 H 138.429 -0.581336 5.62705 0
M  V30 1416 H 136.986 -0.286346 6.51171 0
M  V30 1417 N 140.419 -1.14872 1.07899 0
M  V30 1418 C 141.329 -2.2341 0.715915 0
M  V30 1419 C 142.345 -1.71808 -0.275306 0
M  V30 1420 O 143.521 -2.01039 -0.120545 0
M  V30 1421 C 140.586 -3.46474 0.125168 0
M  V30 1422 C 139.647 -4.13039 1.17034 0
M  V30 1423 C 138.88 -5.30229 0.607688 0
M  V30 1424 O 139.103 -5.675 -0.574497 0
M  V30 1425 O 138.037 -5.86444 1.35526 0
M  V30 1426 H 141.863 -2.56808 1.62121 0
M  V30 1427 H 139.448 -1.22702 0.852322 0
M  V30 1428 H 141.33 -4.20917 -0.201729 0
M  V30 1429 H 140.005 -3.14811 -0.753364 0
M  V30 1430 H 138.912 -3.40493 1.54968 0
M  V30 1431 H 140.245 -4.48796 2.02097 0
M  V30 1432 N 141.898 -0.863906 -1.31812 0
M  V30 1433 C 143.138 -0.47825 -1.98726 0
M  V30 1434 C 143.502 0.950397 -1.66828 0
M  V30 1435 O 144.703 1.44109 -2.26905 0
M  V30 1436 C 142.974 -0.721134 -3.50049 0
M  V30 1437 S 144.533 -0.434432 -4.36644 0
M  V30 1438 H 141.351 -0.178773 -0.688158 0
M  V30 1439 H 143.953 -1.11862 -1.60334 0
M  V30 1440 H 142.657 -1.75981 -3.70755 0
M  V30 1441 H 142.188 -0.0675315 -3.93342 0
M  V30 1442 H 144.203 0.735786 -4.90714 0
M  V30 1443 N 143.376 1.44774 -0.622745 0
M  V30 1444 C 144.339 2.29069 0.0774015 0
M  V30 1445 C 145.339 1.4059 0.780461 0
M  V30 1446 O 146.529 1.62551 0.626322 0
M  V30 1447 C 143.661 3.21974 1.12006 0
M  V30 1448 H 144.854 2.92459 -0.663901 0
M  V30 1449 H 142.407 1.51548 -0.382486 0
M  V30 1450 H 143.142 2.63417 1.89162 0
M  V30 1451 H 142.927 3.87168 0.619951 0
M  V30 1452 H 144.417 3.85318 1.60995 0
M  V30 1453 N 144.854 0.36279 1.53368 0
M  V30 1454 C 145.802 -0.500155 2.27159 0
M  V30 1455 C 146.796 -1.08575 1.3003 0
M  V30 1456 O 148.002 -1.02927 1.47668 0
M  V30 1457 H 144.377 -0.180009 0.730138 0
M  V30 1458 H 146.348 0.14401 2.98052 0
M  V30 1459 C 145.097 -1.62937 3.07159 0
M  V30 1460 H 144.42 -1.18806 3.8174 0
M  V30 1461 H 145.86 -2.20795 3.61975 0
M  V30 1462 C 144.319 -2.57007 2.17829 0
M  V30 1463 O 144.849 -3.59752 1.78721 0
M  V30 1464 N 143.055 -2.26131 1.82518 0
M  V30 1465 H 142.602 -1.42616 2.14519 0
M  V30 1466 H 142.56 -2.89327 1.23034 0
M  V30 1467 N 146.332 -1.57332 0.0918853 0
M  V30 1468 C 147.578 -1.94524 -0.573425 0
M  V30 1469 C 147.911 -0.973578 -1.68033 0
M  V30 1470 O 147.186 -0.00609226 -1.94499 0
M  V30 1471 C 147.469 -3.41858 -1.13161 0
M  V30 1472 C 147.322 -4.4979 -0.0299747 0
M  V30 1473 C 148.641 -3.90435 -2.03098 0
M  V30 1474 H 145.76 -0.70734 -0.206975 0
M  V30 1475 H 148.402 -1.89309 0.161942 0
M  V30 1476 H 146.552 -3.46433 -1.7583 0
M  V30 1477 H 148.224 -4.57327 0.604112 0
M  V30 1478 H 146.467 -4.291 0.636833 0
M  V30 1479 H 147.138 -5.50069 -0.461287 0
M  V30 1480 H 149.614 -3.87992 -1.50338 0
M  V30 1481 H 148.49 -4.94097 -2.39081 0
M  V30 1482 H 148.751 -3.29541 -2.94712 0
M  V30 1483 N 147.81 0.181792 -1.56548 0
M  V30 1484 C 149.056 0.901431 -1.81665 0
M  V30 1485 C 149.389 1.82347 -0.668075 0
M  V30 1486 O 148.664 1.91669 0.330615 0
M  V30 1487 C 148.947 1.70618 -3.17115 0
M  V30 1488 C 148.8 0.807964 -4.42484 0
M  V30 1489 C 150.119 2.67605 -3.49393 0
M  V30 1490 H 147.238 0.32627 -0.660846 0
M  V30 1491 H 149.88 0.168134 -1.89255 0
M  V30 1492 H 148.03 2.33133 -3.10775 0
M  V30 1493 H 149.702 0.19649 -4.60881 0
M  V30 1494 H 147.945 0.115411 -4.33646 0
M  V30 1495 H 148.616 1.40632 -5.33785 0
M  V30 1496 H 151.092 2.15218 -3.56118 0
M  V30 1497 H 149.968 3.20985 -4.45264 0
M  V30 1498 H 150.229 3.47298 -2.73563 0
M  V30 1499 N 149.288 1.51039 0.449983 0
M  V30 1500 C 150.534 1.63322 1.20223 0
M  V30 1501 C 150.867 0.34241 1.91158 0
M  V30 1502 O 150.142 -0.657344 1.83055 0
M  V30 1503 C 150.425 2.82801 2.22925 0
M  V30 1504 C 150.278 4.21823 1.56157 0
M  V30 1505 C 151.597 2.97807 3.24035 0
M  V30 1506 H 148.716 0.594407 0.435718 0
M  V30 1507 H 151.358 1.83489 0.493136 0
M  V30 1508 H 149.508 2.65738 2.834 0
M  V30 1509 H 151.18 4.50526 0.991162 0
M  V30 1510 H 149.423 4.25105 0.864172 0
M  V30 1511 H 150.094 5.01391 2.30891 0
M  V30 1512 H 152.57 3.13497 2.73603 0
M  V30 1513 H 151.446 3.82992 3.93202 0
M  V30 1514 H 151.707 2.09328 3.89402 0
M  V30 1515 N 150.766 -0.704594 1.40972 0
M  V30 1516 C 152.014 -1.46169 1.39568 0
M  V30 1517 C 152.335 -1.95 0.00253745 0
M  V30 1518 O 151.605 -1.71095 -0.954114 0
M  V30 1519 H 150.185 -0.542326 0.513704 0
M  V30 1520 H 152.847 -0.834553 1.76128 0
M  V30 1521 H 151.943 -2.32922 2.07735 0
M  V30 1522 N 152.244 -1.26651 -0.937939 0
M  V30 1523 C 153.474 -1.15006 -1.71631 0
M  V30 1524 C 153.882 0.297026 -1.86854 0
M  V30 1525 O 153.225 1.21493 -1.37786 0
M  V30 1526 C 153.287 -1.74984 -3.14039 0
M  V30 1527 C 152.951 -3.24103 -3.2219 0
M  V30 1528 C 153.948 -4.20877 -3.05219 0
M  V30 1529 C 151.633 -3.64625 -3.45476 0
M  V30 1530 C 153.627 -5.56151 -3.11408 0
M  V30 1531 C 151.314 -5.00032 -3.513 0
M  V30 1532 C 152.312 -5.95604 -3.34282 0
M  V30 1533 O 152 -7.28545 -3.3982 0
M  V30 1534 H 151.732 -0.401183 -0.544085 0
M  V30 1535 H 154.286 -1.67832 -1.18413 0
M  V30 1536 H 152.516 -1.16624 -3.68695 0
M  V30 1537 H 154.205 -1.58199 -3.73802 0
M  V30 1538 H 154.971 -3.90908 -2.87081 0
M  V30 1539 H 150.85 -2.90718 -3.57777 0
M  V30 1540 H 154.394 -6.30727 -2.98043 0
M  V30 1541 H 150.291 -5.29659 -3.68959 0
M  V30 1542 H 151.059 -7.3686 -3.56343 0
M  V30 1543 N 153.722 1.14298 -1.08507 0
M  V30 1544 C 154.97 1.84993 -0.813763 0
M  V30 1545 C 155.291 1.83405 0.662393 0
M  V30 1546 O 154.561 1.28319 1.48024 0
M  V30 1547 H 153.141 0.684966 -0.298045 0
M  V30 1548 H 155.803 1.385 -1.37126 0
M  V30 1549 H 154.899 2.89788 -1.15884 0
M  V30 1550 N 155.201 0.870884 1.31352 0
M  V30 1551 C 156.617 0.562932 1.49343 0
M  V30 1552 C 156.817 -0.902725 1.80148 0
M  V30 1553 O 155.873 -1.68484 1.88067 0
M  V30 1554 C 157.186 1.46393 2.62659 0
M  V30 1555 C 158.734 1.46607 2.76542 0
M  V30 1556 C 159.209 2.35266 3.92955 0
M  V30 1557 N 160.7 2.33151 4.00243 0
M  V30 1558 C 161.435 2.98471 4.89594 0
M  V30 1559 N 160.931 3.72964 5.8384 0
M  V30 1560 N 162.724 2.87775 4.82848 0
M  V30 1561 H 154.875 1.81923 1.09626 0
M  V30 1562 H 157.138 0.777934 0.541777 0
M  V30 1563 H 156.844 2.50689 2.46674 0
M  V30 1564 H 156.718 1.16314 3.58819 0
M  V30 1565 H 159.105 0.43069 2.9194 0
M  V30 1566 H 159.186 1.8071 1.81046 0
M  V30 1567 H 158.83 3.38881 3.78315 0
M  V30 1568 H 158.76 1.98487 4.87761 0
M  V30 1569 H 161.251 1.79006 3.32814 0
M  V30 1570 H 161.564 4.19932 6.4875 0
M  V30 1571 H 159.909 3.77073 5.83816 0
M  V30 1572 H 163.1 2.29116 4.08195 0
M  V30 1573 H 163.273 3.38961 5.52277 0
M  V30 1574 N 156.679 -1.44442 0.630414 0
M  V30 1575 C 157.925 -2.02894 0.143332 0
M  V30 1576 C 158.28 -1.48697 -1.22094 0
M  V30 1577 O 157.573 -0.661171 -1.79831 0
M  V30 1578 C 157.767 -3.57332 0.0697835 0
M  V30 1579 C 157.596 -4.26512 1.42539 0
M  V30 1580 C 156.366 -4.63516 2.01198 0
M  V30 1581 C 158.564 -4.57004 2.35907 0
M  V30 1582 N 156.546 -5.17661 3.30001 0
M  V30 1583 C 157.917 -5.12223 3.49324 0
M  V30 1584 C 159.972 -4.38955 2.34995 0
M  V30 1585 C 158.675 -5.51295 4.62024 0
M  V30 1586 C 160.701 -4.79075 3.46758 0
M  V30 1587 C 160.063 -5.34407 4.58899 0
M  V30 1588 H 156.162 -0.776041 0.0963523 0
M  V30 1589 H 158.746 -1.75945 0.833752 0
M  V30 1590 H 156.917 -3.83894 -0.589915 0
M  V30 1591 H 158.649 -4.02451 -0.42606 0
M  V30 1592 H 155.404 -4.47811 1.54151 0
M  V30 1593 H 155.828 -5.4921 3.95851 0
M  V30 1594 H 160.47 -3.95469 1.49545 0
M  V30 1595 H 158.188 -5.93736 5.48182 0
M  V30 1596 H 161.774 -4.66824 3.47227 0
M  V30 1597 H 160.654 -5.64878 5.4395 0
M  V30 1598 N 158.157 -0.370918 -1.53173 0
M  V30 1599 C 159.568 0.107139 -1.86392 0
M  V30 1600 C 159.919 1.47714 -1.29132 0
M  V30 1601 O 159.044 2.07464 -0.615439 0
M  V30 1602 C 159.639 0.201187 -3.38202 0
M  V30 1603 C 158.198 0.623507 -3.712 0
M  V30 1604 C 157.345 -0.225978 -2.76378 0
M  V30 1605 H 160.296 -0.58951 -1.47345 0
M  V30 1606 H 160.317 1.02377 -3.66468 0
M  V30 1607 H 159.829 -0.796058 -3.79848 0
M  V30 1608 H 157.93 1.62879 -3.35114 0
M  V30 1609 H 158.043 0.394414 -4.77474 0
M  V30 1610 H 156.407 0.305962 -2.52856 0
M  V30 1611 H 157.19 -1.22086 -3.20858 0
M  V30 1612 N 159.635 1.57281 -0.100228 0
M  V30 1613 C 160.863 1.98879 0.570509 0
M  V30 1614 C 161.278 0.979476 1.61405 0
M  V30 1615 O 160.635 -0.0302288 1.82475 0
M  V30 1616 C 160.686 3.4052 1.2136 0
M  V30 1617 O 160.407 4.37588 0.211786 0
M  V30 1618 C 161.908 3.97149 1.96945 0
M  V30 1619 H 159.128 0.653428 0.152555 0
M  V30 1620 H 161.672 2.03697 -0.18103 0
M  V30 1621 H 159.827 3.367 1.91603 0
M  V30 1622 H 160.241 5.20118 0.676607 0
M  V30 1623 H 161.715 4.98393 2.37294 0
M  V30 1624 H 162.192 3.3525 2.83733 0
M  V30 1625 H 162.798 4.04458 1.31506 0
M  V30 1626 N 161.113 -0.173488 1.56642 0
M  V30 1627 C 162.343 -0.904781 1.85734 0
M  V30 1628 C 162.751 -1.76431 0.68328 0
M  V30 1629 O 162.094 -1.802 -0.356865 0
M  V30 1630 C 162.156 -1.83382 3.09211 0
M  V30 1631 C 161.82 -1.15411 4.42187 0
M  V30 1632 C 162.817 -0.520609 5.17287 0
M  V30 1633 C 160.502 -1.15151 4.88923 0
M  V30 1634 C 162.496 0.106412 6.37311 0
M  V30 1635 C 160.183 -0.520664 6.08878 0
M  V30 1636 C 161.181 0.107196 6.82916 0
M  V30 1637 O 160.869 0.728102 8.00596 0
M  V30 1638 H 160.601 -0.268408 0.62043 0
M  V30 1639 H 163.155 -0.179096 2.04618 0
M  V30 1640 H 161.385 -2.59976 2.86268 0
M  V30 1641 H 163.074 -2.43476 3.24768 0
M  V30 1642 H 163.84 -0.514606 4.82262 0
M  V30 1643 H 159.719 -1.62961 4.31236 0
M  V30 1644 H 163.263 0.597081 6.9504 0
M  V30 1645 H 159.16 -0.524242 6.43368 0
M  V30 1646 H 159.928 0.627138 8.16094 0
M  V30 1647 N 162.591 -1.51276 -0.441967 0
M  V30 1648 C 163.521 -1.752 -1.54361 0
M  V30 1649 C 164.502 -0.601682 -1.59103 0
M  V30 1650 O 165.687 -0.843913 -1.74905 0
M  V30 1651 C 162.817 -1.87282 -2.92477 0
M  V30 1652 C 161.771 -3.02687 -3.02596 0
M  V30 1653 C 161.097 -2.99947 -4.42647 0
M  V30 1654 C 162.397 -4.4273 -2.77106 0
M  V30 1655 H 164.091 -2.67442 -1.34592 0
M  V30 1656 H 161.637 -1.28694 -0.646048 0
M  V30 1657 H 163.59 -2.02602 -3.695 0
M  V30 1658 H 162.314 -0.916844 -3.13467 0
M  V30 1659 H 160.973 -2.87065 -2.28012 0
M  V30 1660 H 160.621 -2.02136 -4.60597 0
M  V30 1661 H 160.321 -3.77439 -4.50348 0
M  V30 1662 H 161.845 -3.17354 -5.2165 0
M  V30 1663 H 163.259 -4.58727 -3.43864 0
M  V30 1664 H 161.656 -5.21893 -2.96222 0
M  V30 1665 H 162.726 -4.53087 -1.72744 0
M  V30 1666 N 164.069 0.697108 -1.41344 0
M  V30 1667 C 165.485 1.00751 -1.2378 0
M  V30 1668 C 165.685 2.01105 -0.126066 0
M  V30 1669 O 164.741 2.47295 0.51004 0
M  V30 1670 C 166.054 1.53359 -2.58653 0
M  V30 1671 C 167.602 1.6525 -2.65822 0
M  V30 1672 C 168.077 2.2126 -4.01009 0
M  V30 1673 N 169.568 2.28622 -4.02847 0
M  V30 1674 C 170.303 2.72984 -5.04249 0
M  V30 1675 N 169.799 3.16962 -6.16041 0
M  V30 1676 N 171.592 2.72534 -4.91611 0
M  V30 1677 H 163.743 0.0322662 -2.12375 0
M  V30 1678 H 166.006 0.0768853 -0.944877 0
M  V30 1679 H 165.712 0.870773 -3.4075 0
M  V30 1680 H 165.586 2.51597 -2.81032 0
M  V30 1681 H 167.973 2.30644 -1.84086 0
M  V30 1682 H 168.054 0.655614 -2.47256 0
M  V30 1683 H 167.698 1.56482 -4.83193 0
M  V30 1684 H 167.628 3.21698 -4.16915 0
M  V30 1685 H 170.119 1.97585 -3.22131 0
M  V30 1686 H 170.432 3.49434 -6.89287 0
M  V30 1687 H 168.777 3.14875 -6.1958 0
M  V30 1688 H 171.968 2.37525 -4.0336 0
M  V30 1689 H 172.141 3.06789 -5.70775 0
M  V30 1690 N 165.547 1.27147 0.931209 0
M  V30 1691 C 166.824 1.0401 1.65654 0
M  V30 1692 C 167.204 -0.426297 2.06751 0
M  V30 1693 O 166.552 -1.40879 1.79904 0
M  V30 1694 C 166.762 1.99834 2.86125 0
M  V30 1695 C 168.11 2.29007 3.57549 0
M  V30 1696 O 169.134 1.97779 2.96246 0
M  V30 1697 O 167.993 2.82222 4.67989 0
M  V30 1698 H 165.087 0.396239 0.725895 0
M  V30 1699 H 167.633 1.38397 0.982056 0
M  V30 1700 H 166.405 2.98744 2.52721 0
M  V30 1701 H 166.028 1.65987 3.61295 0
M  V30 1702 N 167.025 -1.13721 1.09112 0
M  V30 1703 C 168.302 -1.81155 0.737706 0
M  V30 1704 C 168.682 -1.96253 -0.777683 0
M  V30 1705 O 168.03 -1.52807 -1.69889 0
M  V30 1706 C 168.24 -3.16392 1.47299 0
M  V30 1707 C 169.588 -3.91787 1.63671 0
M  V30 1708 O 170.612 -3.26005 1.43524 0
M  V30 1709 O 169.471 -5.0977 1.96969 0
M  V30 1710 H 166.565 -0.783518 0.26463 0
M  V30 1711 H 169.111 -1.20676 1.19312 0
M  V30 1712 H 167.883 -3.0061 2.50498 0
M  V30 1713 H 167.506 -3.8457 1.00953 0
M  V30 1714 N 168.503 -0.877838 -1.30888 0
M  V30 1715 C 169.413 -0.343096 -2.32078 0
M  V30 1716 C 170.429 0.551022 -1.65045 0
M  V30 1717 O 171.605 0.445854 -1.96403 0
M  V30 1718 C 168.67 0.439905 -3.43898 0
M  V30 1719 C 167.731 -0.483111 -4.26573 0
M  V30 1720 C 166.964 0.262616 -5.33053 0
M  V30 1721 O 167.187 1.48967 -5.50604 0
M  V30 1722 O 166.121 -0.383593 -6.00676 0
M  V30 1723 H 169.947 -1.18203 -2.79753 0
M  V30 1724 H 167.532 -0.64145 -1.34929 0
M  V30 1725 H 169.414 0.883504 -4.12034 0
M  V30 1726 H 168.089 1.25526 -2.98371 0
M  V30 1727 H 166.996 -0.975374 -3.61161 0
M  V30 1728 H 168.329 -1.26427 -4.75686 0
M  V30 1729 N 169.982 1.44106 -0.638065 0
M  V30 1730 C 170.945 2.29138 0.0531013 0
M  V30 1731 C 171.945 1.41409 0.765506 0
M  V30 1732 O 173.135 1.63206 0.609046 0
M  V30 1733 C 170.267 3.23144 1.08584 0
M  V30 1734 H 171.46 2.91739 -0.694883 0
M  V30 1735 H 169.013 1.51134 -0.398538 0
M  V30 1736 H 169.748 2.65408 1.86357 0
M  V30 1737 H 169.533 3.87804 0.578852 0
M  V30 1738 H 171.023 3.87004 1.56899 0
M  V30 1739 N 171.46 0.379036 1.52974 0
M  V30 1740 C 172.688 -0.20679 2.05864 0
M  V30 1741 C 173.103 -1.41356 1.25155 0
M  V30 1742 O 172.46 -1.8009 0.295588 0
M  V30 1743 C 172.511 -0.587045 3.56702 0
M  V30 1744 O 172.232 0.571776 4.34353 0
M  V30 1745 C 173.733 -1.22983 4.25899 0
M  V30 1746 H 170.953 -0.0336123 0.670158 0
M  V30 1747 H 173.497 0.541298 1.97206 0
M  V30 1748 H 171.652 -1.28504 3.65466 0
M  V30 1749 H 172.066 0.261544 5.23847 0
M  V30 1750 H 173.54 -1.44635 5.32715 0
M  V30 1751 H 174.017 -2.19416 3.80465 0
M  V30 1752 H 174.623 -0.572892 4.21424 0
M  V30 1753 N 172.938 -1.57226 0.108567 0
M  V30 1754 C 173.901 -2.13602 -0.831082 0
M  V30 1755 C 174.901 -1.06841 -1.20173 0
M  V30 1756 O 176.091 -1.32666 -1.12895 0
M  V30 1757 C 173.223 -2.66769 -2.12243 0
M  V30 1758 H 174.416 -2.97951 -0.341317 0
M  V30 1759 H 171.969 -1.55667 -0.14057 0
M  V30 1760 H 172.704 -1.85977 -2.65675 0
M  V30 1761 H 172.489 -3.44839 -1.86625 0
M  V30 1762 H 173.979 -3.10332 -2.79435 0
M  V30 1763 N 174.416 0.165178 -1.56732 0
M  V30 1764 C 175.326 1.22423 -2.00125 0
M  V30 1765 C 176.342 1.48084 -0.913619 0
M  V30 1766 O 177.518 1.60112 -1.22172 0
M  V30 1767 C 174.583 2.54197 -2.35764 0
M  V30 1768 C 173.644 2.36343 -3.58386 0
M  V30 1769 C 172.877 3.61834 -3.92316 0
M  V30 1770 O 173.1 4.67267 -3.27135 0
M  V30 1771 O 172.034 3.55579 -4.85641 0
M  V30 1772 H 175.86 0.885886 -2.90492 0
M  V30 1773 H 173.445 0.372518 -1.44681 0
M  V30 1774 H 175.327 3.3192 -2.59629 0
M  V30 1775 H 174.002 2.87598 -1.48557 0
M  V30 1776 H 172.909 1.56632 -3.39731 0
M  V30 1777 H 174.242 2.07865 -4.46154 0
M  V30 1778 N 175.894 1.51508 0.433938 0
M  V30 1779 C 177.171 1.54888 1.19453 0
M  V30 1780 C 177.551 0.315154 2.08734 0
M  V30 1781 O 176.899 -0.699558 2.17528 0
M  V30 1782 C 177.109 2.86467 1.99342 0
M  V30 1783 C 178.457 3.38545 2.56267 0
M  V30 1784 O 179.481 2.88041 2.0955 0
M  V30 1785 O 178.34 4.26675 3.41483 0
M  V30 1786 H 175.434 0.622863 0.544032 0
M  V30 1787 H 177.98 1.63823 0.442732 0
M  V30 1788 H 176.752 3.67718 1.33788 0
M  V30 1789 H 176.375 2.8071 2.8158 0
M  V30 1790 N 177.372 -0.689602 1.41712 0
M  V30 1791 C 178.304 -1.815 1.39966 0
M  V30 1792 C 179.317 -1.59995 0.300917 0
M  V30 1793 O 180.506 -1.69387 0.563039 0
M  V30 1794 C 177.606 -3.18364 1.16179 0
M  V30 1795 C 176.779 -3.66847 2.38206 0
M  V30 1796 C 175.838 -4.82398 2.10186 0
M  V30 1797 O 174.864 -4.93706 2.83272 0
M  V30 1798 N 176.066 -5.70064 1.0958 0
M  V30 1799 H 178.831 -1.83488 2.36965 0
M  V30 1800 H 176.392 -0.872149 1.36401 0
M  V30 1801 H 178.384 -3.93301 0.953756 0
M  V30 1802 H 176.954 -3.11365 0.27756 0
M  V30 1803 H 176.174 -2.82751 2.74673 0
M  V30 1804 H 177.462 -3.95978 3.19498 0
M  V30 1805 H 176.86 -5.63565 0.491019 0
M  V30 1806 H 175.417 -6.44874 0.947656 0
M  V30 1807 N 178.85 -1.27639 -0.924453 0
M  V30 1808 C 180.261 -1.12834 -1.48746 0
M  V30 1809 C 180.612 0.285505 -1.94112 0
M  V30 1810 O 179.737 1.17874 -1.81479 0
M  V30 1811 C 180.332 -2.04217 -2.70334 0
M  V30 1812 C 178.891 -1.93509 -3.22848 0
M  V30 1813 C 178.038 -1.96583 -1.95577 0
M  V30 1814 H 180.989 -1.40484 -0.738233 0
M  V30 1815 H 181.01 -1.59989 -3.4523 0
M  V30 1816 H 180.522 -3.07111 -2.37285 0
M  V30 1817 H 178.623 -0.936131 -3.60649 0
M  V30 1818 H 178.736 -2.79917 -3.88823 0
M  V30 1819 H 177.1 -1.4085 -2.12211 0
M  V30 1820 H 177.883 -3.01137 -1.64837 0
M  V30 1821 N 180.328 1.1314 -1.09713 0
M  V30 1822 C 181.556 1.88321 -0.856898 0
M  V30 1823 C 181.971 1.79276 0.592073 0
M  V30 1824 O 181.328 1.16142 1.40774 0
M  V30 1825 C 181.379 3.37812 -1.28706 0
M  V30 1826 O 181.1 3.46627 -2.67921 0
M  V30 1827 C 182.601 4.29952 -1.07964 0
M  V30 1828 H 179.821 0.596094 -0.308079 0
M  V30 1829 H 182.365 1.43205 -1.45988 0
M  V30 1830 H 180.52 3.805 -0.727912 0
M  V30 1831 H 180.934 4.39579 -2.8613 0
M  V30 1832 H 182.408 5.33159 -1.42986 0
M  V30 1833 H 182.885 4.39196 -0.0176577 0
M  V30 1834 H 183.491 3.93036 -1.62489 0
M  V30 1835 N 181.806 0.884767 1.30421 0
M  V30 1836 C 182.738 0.308655 2.27112 0
M  V30 1837 C 183.751 -0.536655 1.53701 0
M  V30 1838 O 184.94 -0.35624 1.74909 0
M  V30 1839 C 182.04 -0.579782 3.33904 0
M  V30 1840 C 181.213 0.236417 4.36761 0
M  V30 1841 C 180.272 -0.582482 5.22966 0
M  V30 1842 O 179.298 -0.00525502 5.692 0
M  V30 1843 N 180.5 -1.89163 5.48815 0
M  V30 1844 H 183.265 1.13964 2.77186 0
M  V30 1845 H 180.826 0.747731 1.43599 0
M  V30 1846 H 182.818 -1.13366 3.88497 0
M  V30 1847 H 181.388 -1.31144 2.83761 0
M  V30 1848 H 180.608 0.97174 3.82035 0
M  V30 1849 H 181.896 0.795924 5.02536 0
M  V30 1850 H 181.294 -2.38352 5.13035 0
M  V30 1851 H 179.851 -2.39296 6.06284 0
M  V30 1852 N 183.284 -1.43765 0.645699 0
M  V30 1853 C 184.695 -1.85193 0.236719 0
M  V30 1854 C 185.046 -1.54045 -1.21509 0
M  V30 1855 O 184.171 -0.985694 -1.92647 0
M  V30 1856 C 184.766 -3.36151 0.422845 0
M  V30 1857 C 183.325 -3.76338 0.0682492 0
M  V30 1858 C 182.472 -2.67538 0.729306 0
M  V30 1859 H 185.423 -1.34025 0.849883 0
M  V30 1860 H 185.444 -3.79032 -0.333904 0
M  V30 1861 H 184.956 -3.5879 1.47958 0
M  V30 1862 H 183.057 -3.59312 -0.986179 0
M  V30 1863 H 183.17 -4.76603 0.488469 0
M  V30 1864 H 181.534 -2.54176 0.163235 0
M  V30 1865 H 182.317 -2.93006 1.78892 0
M  V30 1866 N 184.763 -0.387143 -1.52771 0
M  V30 1867 C 186.04 0.253197 -1.93954 0
M  V30 1868 C 186.42 1.64545 -1.32243 0
M  V30 1869 O 185.768 2.23191 -0.489699 0
M  V30 1870 C 185.978 0.281722 -3.47861 0
M  V30 1871 C 187.326 0.511715 -4.21505 0
M  V30 1872 O 188.35 0.362023 -3.54356 0
M  V30 1873 O 187.209 0.804847 -5.40541 0
M  V30 1874 H 184.303 0.156845 -0.811991 0
M  V30 1875 H 186.849 -0.441494 -1.63856 0
M  V30 1876 H 185.621 -0.693571 -3.85104 0
M  V30 1877 H 185.244 1.02142 -3.84256 0
M  V30 1878 N 186.241 1.57166 -0.116904 0
M  V30 1879 C 187.487 1.95412 0.542405 0
M  V30 1880 C 187.82 1.00019 1.66463 0
M  V30 1881 O 187.095 0.0370346 1.94465 0
M  V30 1882 C 187.378 3.43615 1.07708 0
M  V30 1883 C 187.231 4.49781 -0.0415868 0
M  V30 1884 C 188.55 3.93616 1.96861 0
M  V30 1885 H 185.669 0.710543 0.195696 0
M  V30 1886 H 188.311 1.89027 -0.192038 0
M  V30 1887 H 186.461 3.49187 1.70296 0
M  V30 1888 H 188.133 4.56308 -0.676793 0
M  V30 1889 H 186.376 4.28033 -0.705019 0
M  V30 1890 H 187.047 5.50733 0.373717 0
M  V30 1891 H 189.523 3.90335 1.44146 0
M  V30 1892 H 188.399 4.97838 2.3119 0
M  V30 1893 H 188.66 3.34188 2.89432 0
M  V30 1894 N 187.719 -0.156864 1.56817 0
M  V30 1895 C 188.682 -1.17781 1.96622 0
M  V30 1896 C 189.682 -1.36401 0.851555 0
M  V30 1897 O 190.872 -1.33561 1.11836 0
M  V30 1898 C 188.004 -2.54008 2.27361 0
M  V30 1899 H 189.197 -0.836564 2.87996 0
M  V30 1900 H 186.75 -0.39985 1.51099 0
M  V30 1901 H 187.485 -2.9312 1.38748 0
M  V30 1902 H 187.27 -2.41856 3.08623 0
M  V30 1903 H 188.76 -3.27558 2.59029 0
M  V30 1904 N 189.197 -1.51736 -0.425897 0
M  V30 1905 C 190.425 -1.68794 -1.1965 0
M  V30 1906 C 190.84 -0.390164 -1.84725 0
M  V30 1907 O 190.197 0.632376 -1.71194 0
M  V30 1908 C 190.248 -2.81174 -2.27208 0
M  V30 1909 O 189.969 -4.05925 -1.64793 0
M  V30 1910 C 191.47 -3.09599 -3.17275 0
M  V30 1911 H 188.69 -0.566128 -0.360194 0
M  V30 1912 H 191.234 -1.98211 -0.503249 0
M  V30 1913 H 189.389 -2.54324 -2.9223 0
M  V30 1914 H 189.803 -4.68423 -2.35967 0
M  V30 1915 H 191.277 -3.91786 -3.88854 0
M  V30 1916 H 191.754 -2.22468 -3.78688 0
M  V30 1917 H 192.36 -3.38151 -2.57941 0
M  V30 1918 N 190.675 0.682077 -1.42076 0
M  V30 1919 C 191.915 1.45424 -1.43636 0
M  V30 1920 C 192.279 1.91939 -0.0484001 0
M  V30 1921 O 193.48 2.6873 0.0612514 0
M  V30 1922 C 191.751 2.62427 -2.42625 0
M  V30 1923 S 193.31 3.51379 -2.62827 0
M  V30 1924 H 190.128 0.496779 -0.508657 0
M  V30 1925 H 192.73 0.794645 -1.78621 0
M  V30 1926 H 191.434 2.26481 -3.42249 0
M  V30 1927 H 190.965 3.33266 -2.09039 0
M  V30 1928 H 192.98 4.58141 -1.9058 0
M  V30 1929 N 192.153 1.28127 0.917671 0
M  V30 1930 C 193.569 1.05749 1.19538 0
M  V30 1931 C 193.769 -0.202633 2.00479 0
M  V30 1932 O 192.825 -0.905382 2.3571 0
M  V30 1933 C 194.138 2.30273 1.93378 0
M  V30 1934 C 195.686 2.35412 2.06277 0
M  V30 1935 C 196.161 3.59692 2.83524 0
M  V30 1936 N 197.652 3.60309 2.91087 0
M  V30 1937 C 198.387 4.53147 3.51348 0
M  V30 1938 N 197.883 5.563 4.12919 0
M  V30 1939 N 199.676 4.40751 3.48849 0
M  V30 1940 H 191.827 2.09024 0.377184 0
M  V30 1941 H 194.09 0.919798 0.22951 0
M  V30 1942 H 193.796 3.22055 1.41328 0
M  V30 1943 H 193.67 2.36378 2.93947 0
M  V30 1944 H 196.057 1.4413 2.57508 0
M  V30 1945 H 196.138 2.33304 1.04895 0
M  V30 1946 H 195.782 4.51316 2.32973 0
M  V30 1947 H 195.712 3.59054 3.85211 0
M  V30 1948 H 198.203 2.85714 2.47338 0
M  V30 1949 H 198.516 6.2329 4.56869 0
M  V30 1950 H 196.861 5.60131 4.11435 0
M  V30 1951 H 200.052 3.59367 2.99955 0
M  V30 1952 H 200.225 5.13291 3.9552 0
M  V30 1953 N 193.631 -1.12557 1.10312 0
M  V30 1954 C 194.878 -1.84038 0.844759 0
M  V30 1955 C 195.206 -1.84026 -0.629668 0
M  V30 1956 O 194.461 -1.28026 -1.48013 0
M  V30 1957 C 194.76 -3.31462 1.33669 0
M  V30 1958 C 194.426 -3.51647 2.82232 0
M  V30 1959 C 193.088 -3.56864 3.22802 0
M  V30 1960 C 195.44 -3.58867 3.77974 0
M  V30 1961 C 192.768 -3.66844 4.57867 0
M  V30 1962 C 195.12 -3.70375 5.1284 0
M  V30 1963 C 193.784 -3.73848 5.52986 0
M  V30 1964 H 193.054 -0.673444 0.309119 0
M  V30 1965 H 195.701 -1.32824 1.37949 0
M  V30 1966 H 194.006 -3.85091 0.721949 0
M  V30 1967 H 195.703 -3.85236 1.11329 0
M  V30 1968 H 192.293 -3.48249 2.49842 0
M  V30 1969 H 196.477 -3.54107 3.47738 0
M  V30 1970 H 191.733 -3.67804 4.88396 0
M  V30 1971 H 195.907 -3.74904 5.86873 0
M  V30 1972 H 193.534 -3.81333 6.57639 0
M  V30 1973 N 195.109 -0.891671 -1.2995 0
M  V30 1974 C 196.339 -0.527893 -1.99742 0
M  V30 1975 C 196.747 0.88979 -1.66971 0
M  V30 1976 O 196.09 1.59766 -0.906667 0
M  V30 1977 C 196.152 -0.630804 -3.53922 0
M  V30 1978 C 195.816 -2.01401 -4.10228 0
M  V30 1979 C 196.813 -2.98422 -4.25724 0
M  V30 1980 C 194.498 -2.32121 -4.45449 0
M  V30 1981 C 196.492 -4.24293 -4.75662 0
M  V30 1982 C 194.179 -3.58237 -4.95086 0
M  V30 1983 C 195.177 -4.54137 -5.10146 0
M  V30 1984 O 194.865 -5.78014 -5.58708 0
M  V30 1985 H 194.597 -0.201953 -0.645129 0
M  V30 1986 H 197.151 -1.20076 -1.66646 0
M  V30 1987 H 195.381 0.0990616 -3.86573 0
M  V30 1988 H 197.07 -0.277338 -4.04951 0
M  V30 1989 H 197.836 -2.76001 -3.98809 0
M  V30 1990 H 193.715 -1.5824 -4.32991 0
M  V30 1991 H 197.259 -4.99153 -4.87332 0
M  V30 1992 H 193.156 -3.80491 -5.21437 0
M  V30 1993 H 193.924 -5.8049 -5.77039 0
M  V30 1994 N 196.587 1.43421 -0.653314 0
M  V30 1995 C 197.815 2.06163 -0.174491 0
M  V30 1996 C 198.23 1.48969 1.1599 0
M  V30 1997 O 197.587 0.621042 1.71608 0
M  V30 1998 C 197.638 3.61417 -0.0774865 0
M  V30 1999 O 197.359 4.16485 -1.35912 0
M  V30 2000 C 198.86 4.41235 0.427402 0
M  V30 2001 H 196.08 0.664946 -0.0899353 0
M  V30 2002 H 198.624 1.83924 -0.893988 0
M  V30 2003 H 196.779 3.82841 0.59257 0
M  V30 2004 H 197.193 5.10153 -1.21839 0
M  V30 2005 H 198.667 5.5021 0.44423 0
M  V30 2006 H 199.144 4.14268 1.45873 0
M  V30 2007 H 199.75 4.2478 -0.210167 0
M  V30 2008 N 198.065 0.39524 1.52563 0
M  V30 2009 C 198.995 -0.428384 2.29537 0
M  V30 2010 C 199.976 -1.05831 1.33169 0
M  V30 2011 O 201.161 -1.06995 1.62067 0
M  V30 2012 C 198.291 -1.55274 3.10656 0
M  V30 2013 C 197.245 -1.04855 4.14957 0
M  V30 2014 C 196.571 -2.26543 4.84337 0
M  V30 2015 C 197.871 -0.112324 5.22179 0
M  V30 2016 H 199.565 0.213867 2.98635 0
M  V30 2017 H 197.111 0.104298 1.43622 0
M  V30 2018 H 199.064 -2.1358 3.63265 0
M  V30 2019 H 197.788 -2.22266 2.39302 0
M  V30 2020 H 196.447 -0.487985 3.63338 0
M  V30 2021 H 196.095 -2.92059 4.09525 0
M  V30 2022 H 195.795 -1.93466 5.54837 0
M  V30 2023 H 197.319 -2.85481 5.39753 0
M  V30 2024 H 198.733 -0.603752 5.70112 0
M  V30 2025 H 197.13 0.128968 5.99961 0
M  V30 2026 H 198.2 0.837052 4.77621 0
M  V30 2027 N 199.544 -1.57102 0.125237 0
M  V30 2028 C 200.821 -1.86953 -0.575142 0
M  V30 2029 C 201.201 -1.02749 -1.84407 0
M  V30 2030 O 200.549 -0.108144 -2.28244 0
M  V30 2031 C 200.759 -3.38198 -0.861583 0
M  V30 2032 C 202.107 -4.06937 -1.21192 0
M  V30 2033 O 203.131 -3.43252 -0.951645 0
M  V30 2034 O 201.99 -5.19364 -1.70068 0
M  V30 2035 H 199.084 -0.774147 -0.290906 0
M  V30 2036 H 201.63 -1.68942 0.160211 0
M  V30 2037 H 200.402 -3.91282 0.0373647 0
M  V30 2038 H 200.025 -3.61661 -1.65188 0
M  V30 2039 N 201.022 0.148545 -1.56898 0
M  V30 2040 C 202.247 0.880385 -1.87787 0
M  V30 2041 C 202.672 1.74018 -0.714093 0
M  V30 2042 O 202.03 1.78153 0.336343 0
M  V30 2043 C 202.078 1.71422 -3.17249 0
M  V30 2044 O 201.182 2.8183 -3.01074 0
M  V30 2045 H 200.523 0.245301 -0.617028 0
M  V30 2046 H 203.053 0.139826 -2.04122 0
M  V30 2047 H 203.063 2.10954 -3.49231 0
M  V30 2048 H 201.738 1.08284 -4.01556 0
M  V30 2049 H 200.315 2.45715 -2.80497 0
M  V30 2050 N 202.5 1.5196 0.417844 0
M  V30 2051 C 203.749 1.6482 1.16264 0
M  V30 2052 C 204.062 0.379886 1.91876 0
M  V30 2053 O 205.268 0.388154 2.68711 0
M  V30 2054 C 203.724 2.91161 2.1155 0
M  V30 2055 C 203.332 4.25068 1.41495 0
M  V30 2056 C 205.076 3.13383 2.86341 0
M  V30 2057 C 202.983 5.42541 2.35379 0
M  V30 2058 H 201.913 0.613954 0.437694 0
M  V30 2059 H 204.564 1.78442 0.427871 0
M  V30 2060 H 202.946 2.71218 2.88543 0
M  V30 2061 H 204.12 4.55463 0.699263 0
M  V30 2062 H 202.435 4.0888 0.787792 0
M  V30 2063 H 205.032 3.98324 3.5671 0
M  V30 2064 H 205.375 2.27256 3.48798 0
M  V30 2065 H 205.908 3.33757 2.1645 0
M  V30 2066 H 202.647 6.30987 1.77582 0
M  V30 2067 H 202.167 5.16497 3.04945 0
M  V30 2068 H 203.846 5.75272 2.96093 0
M  V30 2069 N 203.978 -0.674533 1.42435 0
M  V30 2070 C 204.925 -1.78807 1.45934 0
M  V30 2071 C 205.895 -1.63157 0.311271 0
M  V30 2072 O 207.08 -1.83707 0.515383 0
M  V30 2073 C 204.22 -3.16839 1.36773 0
M  V30 2074 C 203.333 -3.43774 2.61617 0
M  V30 2075 C 202.468 -4.71536 2.44597 0
M  V30 2076 C 201.507 -4.91505 3.64814 0
M  V30 2077 N 200.644 -6.10508 3.46734 0
M  V30 2078 H 205.484 -1.75151 2.41093 0
M  V30 2079 H 203.021 -0.85504 1.19697 0
M  V30 2080 H 204.979 -3.96606 1.29459 0
M  V30 2081 H 203.609 -3.19619 0.452089 0
M  V30 2082 H 202.661 -2.58259 2.79297 0
M  V30 2083 H 203.973 -3.54423 3.50978 0
M  V30 2084 H 203.127 -5.59393 2.3487 0
M  V30 2085 H 201.866 -4.6317 1.52726 0
M  V30 2086 H 200.871 -4.0209 3.74972 0
M  V30 2087 H 202.096 -5.01716 4.57665 0
M  V30 2088 H 200.042 -6.03315 2.5758 0
M  V30 2089 H 199.959 -6.2202 4.29682 0
M  V30 2090 H 201.227 -7.01044 3.40819 0
M  V30 2091 N 205.456 -1.28612 -0.910864 0
M  V30 2092 C 206.702 -1.17116 -1.66299 0
M  V30 2093 C 207.057 0.276917 -1.90397 0
M  V30 2094 O 206.35 1.19795 -1.49532 0
M  V30 2095 C 206.544 -1.90624 -3.0232 0
M  V30 2096 C 206.373 -3.42431 -2.91498 0
M  V30 2097 C 205.143 -4.11773 -2.92867 0
M  V30 2098 C 207.341 -4.38124 -2.69355 0
M  V30 2099 N 205.323 -5.50025 -2.72664 0
M  V30 2100 C 206.694 -5.63759 -2.58023 0
M  V30 2101 C 208.749 -4.28016 -2.54375 0
M  V30 2102 C 207.452 -6.80436 -2.33238 0
M  V30 2103 C 209.478 -5.44433 -2.30969 0
M  V30 2104 C 208.84 -6.69034 -2.20394 0
M  V30 2105 H 204.939 -0.483506 -0.61461 0
M  V30 2106 H 207.523 -1.62299 -1.0755 0
M  V30 2107 H 205.694 -1.4787 -3.5915 0
M  V30 2108 H 207.426 -1.71488 -3.66571 0
M  V30 2109 H 204.181 -3.63378 -3.03732 0
M  V30 2110 H 204.605 -6.22705 -2.65646 0
M  V30 2111 H 209.247 -3.32388 -2.613 0
M  V30 2112 H 206.965 -7.7613 -2.25051 0
M  V30 2113 H 210.551 -5.38504 -2.20238 0
M  V30 2114 H 209.431 -7.57595 -2.02531 0
M  V30 2115 N 206.934 1.1197 -1.10907 0
M  V30 2116 C 207.844 2.21433 -0.774896 0
M  V30 2117 C 208.86 1.72478 0.229657 0
M  V30 2118 O 210.036 2.01288 0.0672008 0
M  V30 2119 C 207.101 3.4602 -0.216986 0
M  V30 2120 C 206.162 4.09791 -1.27944 0
M  V30 2121 C 205.395 5.28431 -0.748055 0
M  V30 2122 O 205.618 5.68823 0.423833 0
M  V30 2123 O 204.552 5.82644 -1.51027 0
M  V30 2124 H 208.378 2.5242 -1.68873 0
M  V30 2125 H 205.963 1.20399 -0.884555 0
M  V30 2126 H 207.845 4.21304 0.090059 0
M  V30 2127 H 206.52 3.16698 0.669633 0
M  V30 2128 H 205.427 3.36265 -1.63941 0
M  V30 2129 H 206.76 4.4328 -2.13925 0
M  V30 2130 N 208.412 0.89855 1.29475 0
M  V30 2131 C 209.359 0.373819 2.27753 0
M  V30 2132 C 210.329 -0.543444 1.56958 0
M  V30 2133 O 211.514 -0.468934 1.84948 0
M  V30 2134 C 208.654 -0.393648 3.42848 0
M  V30 2135 C 207.767 0.554379 4.28428 0
M  V30 2136 C 206.902 -0.230026 5.30702 0
M  V30 2137 C 205.941 0.712599 6.07938 0
M  V30 2138 N 205.078 -0.0373283 7.0209 0
M  V30 2139 H 209.918 1.21699 2.72017 0
M  V30 2140 H 207.455 0.611456 1.33789 0
M  V30 2141 H 209.413 -0.85466 4.08352 0
M  V30 2142 H 208.043 -1.20128 2.99615 0
M  V30 2143 H 207.095 1.13391 3.63107 0
M  V30 2144 H 208.407 1.27597 4.82204 0
M  V30 2145 H 207.561 -0.752288 6.02018 0
M  V30 2146 H 206.3 -0.984758 4.77654 0
M  V30 2147 H 205.305 1.24637 5.35486 0
M  V30 2148 H 206.53 1.46664 6.63074 0
M  V30 2149 H 204.476 -0.774348 6.51414 0
M  V30 2150 H 204.393 0.624374 7.53417 0
M  V30 2151 H 205.661 -0.539891 7.77628 0
M  V30 2152 N 209.89 -1.43072 0.660911 0
M  V30 2153 C 211.138 -2.01323 0.177094 0
M  V30 2154 C 211.459 -1.5245 -1.2159 0
M  V30 2155 O 210.729 -0.740322 -1.81373 0
M  V30 2156 H 209.309 -0.744382 0.0624804 0
M  V30 2157 H 211.971 -1.75179 0.854305 0
M  V30 2158 H 211.067 -3.11649 0.167641 0
M  V30 2159 N 211.368 -0.403325 -1.52352 0
M  V30 2160 C 212.593 0.176499 -2.06648 0
M  V30 2161 C 213.018 1.38577 -1.27193 0
M  V30 2162 O 212.376 1.7879 -0.300637 0
M  V30 2163 C 212.424 0.511061 -3.5696 0
M  V30 2164 O 211.528 1.60294 -3.79973 0
M  V30 2165 H 210.869 0.0167337 -0.663789 0
M  V30 2166 H 213.399 -0.574848 -1.96359 0
M  V30 2167 H 213.409 0.771362 -4.00642 0
M  V30 2168 H 212.084 -0.37296 -4.14224 0
M  V30 2169 H 210.661 1.33526 -3.48174 0
M  V30 2170 N 212.846 1.57033 -0.133567 0
M  V30 2171 C 214.092 1.95976 0.521649 0
M  V30 2172 C 214.425 1.01779 1.65393 0
M  V30 2173 O 213.7 0.0576581 1.94415 0
M  V30 2174 C 213.983 3.44738 1.04057 0
M  V30 2175 C 213.836 4.49711 -0.0892897 0
M  V30 2176 C 215.155 3.95682 1.92675 0
M  V30 2177 H 212.274 0.712579 0.188149 0
M  V30 2178 H 214.916 1.88813 -0.212076 0
M  V30 2179 H 213.066 3.50973 1.66583 0
M  V30 2180 H 214.738 4.55565 -0.725152 0
M  V30 2181 H 212.981 4.27261 -0.750378 0
M  V30 2182 H 213.652 5.51099 0.315284 0
M  V30 2183 H 216.128 3.91841 1.39998 0
M  V30 2184 H 215.004 5.00262 2.25897 0
M  V30 2185 H 215.265 3.37239 2.85872 0
M  V30 2186 N 214.325 -0.140222 1.56975 0
M  V30 2187 C 215.573 -0.850005 1.83356 0
M  V30 2188 C 215.894 -1.81399 0.71551 0
M  V30 2189 O 215.164 -1.94136 -0.262294 0
M  V30 2190 H 213.744 -0.316886 0.676456 0
M  V30 2191 H 216.406 -0.132608 1.94448 0
M  V30 2192 H 215.502 -1.40814 2.78528 0
M  V30 2193 N 215.803 -1.52179 -0.40978 0
M  V30 2194 C 217.049 -1.67408 -1.15525 0
M  V30 2195 C 217.404 -0.398746 -1.88223 0
M  V30 2196 O 216.697 0.60678 -1.81738 0
M  V30 2197 C 216.891 -2.83428 -2.17723 0
M  V30 2198 C 216.72 -4.22121 -1.55061 0
M  V30 2199 C 215.49 -4.87657 -1.3236 0
M  V30 2200 C 217.688 -5.04248 -1.01185 0
M  V30 2201 N 215.67 -6.10387 -0.655834 0
M  V30 2202 C 217.041 -6.18209 -0.470963 0
M  V30 2203 C 219.096 -4.89583 -0.906252 0
M  V30 2204 C 217.799 -7.1911 0.165172 0
M  V30 2205 C 219.825 -5.90718 -0.28397 0
M  V30 2206 C 219.187 -7.03969 0.246243 0
M  V30 2207 H 215.286 -0.666251 -0.409431 0
M  V30 2208 H 217.87 -1.89482 -0.447729 0
M  V30 2209 H 216.041 -2.6297 -2.85834 0
M  V30 2210 H 217.773 -2.87697 -2.84627 0
M  V30 2211 H 214.528 -4.46007 -1.59294 0
M  V30 2212 H 214.952 -6.76153 -0.338596 0
M  V30 2213 H 219.594 -4.02253 -1.302 0
M  V30 2214 H 217.312 -8.06066 0.572986 0
M  V30 2215 H 220.898 -5.81443 -0.203792 0
M  V30 2216 H 219.778 -7.80886 0.720173 0
M  V30 2217 N 217.281 0.66697 -1.42791 0
M  V30 2218 C 218.527 1.42754 -1.44889 0
M  V30 2219 C 218.882 1.92283 -0.0669755 0
M  V30 2220 O 218.175 1.68494 0.912154 0
M  V30 2221 C 218.369 2.6349 -2.4147 0
M  V30 2222 C 218.198 2.25776 -3.88915 0
M  V30 2223 C 216.968 2.1476 -4.57391 0
M  V30 2224 C 219.166 1.86927 -4.79127 0
M  V30 2225 N 217.148 1.70232 -5.89826 0
M  V30 2226 C 218.519 1.53378 -6.00729 0
M  V30 2227 C 220.574 1.73989 -4.66511 0
M  V30 2228 C 219.277 1.08187 -7.11117 0
M  V30 2229 C 221.303 1.30203 -5.76889 0
M  V30 2230 C 220.665 0.975818 -6.97608 0
M  V30 2231 H 216.764 0.518559 -0.585338 0
M  V30 2232 H 219.348 0.768906 -1.78874 0
M  V30 2233 H 217.519 3.27033 -2.09533 0
M  V30 2234 H 219.251 3.30123 -2.34096 0
M  V30 2235 H 216.006 2.3408 -4.11708 0
M  V30 2236 H 216.43 1.50369 -6.6009 0
M  V30 2237 H 221.072 1.97853 -3.7365 0
M  V30 2238 H 218.79 0.830701 -8.03819 0
M  V30 2239 H 222.376 1.20701 -5.69142 0
M  V30 2240 H 221.256 0.642157 -7.81566 0
M  V30 2241 N 218.759 1.29093 0.90403 0
M  V30 2242 C 220.005 1.17996 1.65676 0
M  V30 2243 C 220.36 -0.266816 1.90541 0
M  V30 2244 O 219.653 -1.19 1.50165 0
M  V30 2245 C 219.847 1.92224 3.01305 0
M  V30 2246 C 219.676 3.43972 2.89678 0
M  V30 2247 C 218.446 4.1332 2.90679 0
M  V30 2248 C 220.644 4.39546 2.67028 0
M  V30 2249 N 218.626 5.51463 2.69743 0
M  V30 2250 C 219.997 5.65119 2.5503 0
M  V30 2251 C 222.052 4.29359 2.52101 0
M  V30 2252 C 220.755 6.81663 2.29626 0
M  V30 2253 C 222.781 5.4565 2.28079 0
M  V30 2254 C 222.143 6.70193 2.16843 0
M  V30 2255 H 218.242 0.486759 0.612037 0
M  V30 2256 H 220.826 1.62868 1.06688 0
M  V30 2257 H 218.997 1.49773 3.58361 0
M  V30 2258 H 220.729 1.73429 3.65656 0
M  V30 2259 H 217.484 3.64984 3.01801 0
M  V30 2260 H 217.908 6.24105 2.6234 0
M  V30 2261 H 222.55 3.33769 2.59534 0
M  V30 2262 H 220.268 7.77313 2.20932 0
M  V30 2263 H 223.854 5.39664 2.1738 0
M  V30 2264 H 222.734 7.58659 1.98511 0
M  V30 2265 N 220.237 -1.11381 1.11499 0
M  V30 2266 C 221.184 -2.17439 0.773887 0
M  V30 2267 C 222.154 -1.64132 -0.254899 0
M  V30 2268 O 223.339 -1.90345 -0.13168 0
M  V30 2269 C 220.479 -3.44373 0.223917 0
M  V30 2270 C 219.592 -4.1168 1.30934 0
M  V30 2271 C 218.727 -5.263 0.71984 0
M  V30 2272 C 217.766 -5.85493 1.78507 0
M  V30 2273 N 216.903 -6.91507 1.21502 0
M  V30 2274 H 221.743 -2.45962 1.68246 0
M  V30 2275 H 219.28 -1.20744 0.840191 0
M  V30 2276 H 221.238 -4.17047 -0.112921 0
M  V30 2277 H 219.868 -3.16232 -0.647851 0
M  V30 2278 H 218.92 -3.37073 1.76312 0
M  V30 2279 H 220.232 -4.51729 2.11524 0
M  V30 2280 H 219.386 -6.05785 0.333094 0
M  V30 2281 H 218.125 -4.87559 -0.117377 0
M  V30 2282 H 217.13 -5.04686 2.18111 0
M  V30 2283 H 218.355 -6.26301 2.62533 0
M  V30 2284 H 216.301 -6.54783 0.399455 0
M  V30 2285 H 216.218 -7.30214 1.95763 0
M  V30 2286 H 217.486 -7.74795 0.855181 0
M  V30 2287 N 221.715 -0.905404 -1.28997 0
M  V30 2288 C 222.962 -0.534248 -1.95325 0
M  V30 2289 C 223.29 0.920535 -1.71337 0
M  V30 2290 O 222.545 1.66861 -1.02254 0
M  V30 2291 C 222.844 -0.779906 -3.48787 0
M  V30 2292 C 222.51 -2.21293 -3.92861 0
M  V30 2293 C 221.172 -2.60475 -4.04606 0
M  V30 2294 C 223.524 -3.14587 -4.15553 0
M  V30 2295 C 220.852 -3.9212 -4.36416 0
M  V30 2296 C 223.204 -4.45787 -4.48839 0
M  V30 2297 C 221.868 -4.84834 -4.58794 0
M  V30 2298 H 221.138 -0.195495 -0.714747 0
M  V30 2299 H 223.785 -1.14514 -1.53488 0
M  V30 2300 H 222.09 -0.0861365 -3.91705 0
M  V30 2301 H 223.787 -0.472029 -3.98212 0
M  V30 2302 H 220.377 -1.89887 -3.84241 0
M  V30 2303 H 224.561 -2.85528 -4.0594 0
M  V30 2304 H 219.817 -4.22086 -4.42327 0
M  V30 2305 H 223.991 -5.18098 -4.65346 0
M  V30 2306 H 221.618 -5.86877 -4.83197 0
M  V30 2307 N 223.193 1.4272 -0.668489 0
M  V30 2308 C 224.604 1.84793 -0.266151 0
M  V30 2309 C 224.955 1.55959 1.19043 0
M  V30 2310 O 224.08 1.01622 1.91055 0
M  V30 2311 C 224.675 3.35436 -0.476271 0
M  V30 2312 C 223.234 3.76182 -0.128113 0
M  V30 2313 C 222.381 2.66344 -0.771777 0
M  V30 2314 H 225.332 1.32656 -0.871098 0
M  V30 2315 H 225.353 3.79515 0.273561 0
M  V30 2316 H 224.865 3.5639 -1.53647 0
M  V30 2317 H 222.966 3.60836 0.928891 0
M  V30 2318 H 223.079 4.75766 -0.564231 0
M  V30 2319 H 221.443 2.53885 -0.203652 0
M  V30 2320 H 222.226 2.90123 -1.83531 0
M  V30 2321 N 224.671 0.411399 1.52136 0
M  V30 2322 C 225.581 -0.419774 2.30814 0
M  V30 2323 C 226.597 -1.0515 1.38634 0
M  V30 2324 O 227.773 -1.05252 1.71709 0
M  V30 2325 C 224.838 -1.52019 3.11594 0
M  V30 2326 C 223.899 -0.91129 4.19516 0
M  V30 2327 C 223.132 -1.95927 4.96436 0
M  V30 2328 O 223.355 -3.17775 4.73683 0
M  V30 2329 O 222.289 -1.56423 5.81219 0
M  V30 2330 H 226.115 0.221805 3.02889 0
M  V30 2331 H 223.7 0.174547 1.48377 0
M  V30 2332 H 225.582 -2.15898 3.61892 0
M  V30 2333 H 224.257 -2.14633 2.42311 0
M  V30 2334 H 223.164 -0.235157 3.7336 0
M  V30 2335 H 224.497 -0.32904 4.91099 0
M  V30 2336 N 226.149 -1.5696 0.141893 0
M  V30 2337 C 227.112 -2.15316 -0.785587 0
M  V30 2338 C 228.112 -1.09366 -1.1788 0
M  V30 2339 O 229.302 -1.35031 -1.10056 0
M  V30 2340 C 226.434 -2.71211 -2.06537 0
M  V30 2341 H 227.627 -2.98608 -0.278041 0
M  V30 2342 H 225.18 -1.5593 -0.107519 0
M  V30 2343 H 225.915 -1.91571 -2.6167 0
M  V30 2344 H 225.7 -3.4872 -1.79268 0
M  V30 2345 H 227.19 -3.16189 -2.72789 0
M  V30 2346 N 227.627 0.131896 -1.57047 0
M  V30 2347 C 228.557 1.16384 -2.02428 0
M  V30 2348 C 229.538 1.43936 -0.90644 0
M  V30 2349 O 230.723 1.54599 -1.17528 0
M  V30 2350 C 227.853 2.49328 -2.4177 0
M  V30 2351 C 226.807 2.36266 -3.56879 0
M  V30 2352 C 226.133 3.74057 -3.8208 0
M  V30 2353 C 227.433 1.834 -4.89042 0
M  V30 2354 H 229.127 0.786433 -2.88887 0
M  V30 2355 H 226.673 0.376855 -1.38981 0
M  V30 2356 H 228.626 3.21759 -2.7212 0
M  V30 2357 H 227.35 2.88934 -1.52266 0
M  V30 2358 H 226.009 1.66286 -3.26718 0
M  V30 2359 H 225.657 4.11125 -2.89803 0
M  V30 2360 H 225.357 3.66174 -4.59554 0
M  V30 2361 H 226.881 4.48012 -4.1487 0
M  V30 2362 H 228.295 2.45636 -5.18011 0
M  V30 2363 H 226.692 1.8637 -5.70426 0
M  V30 2364 H 227.762 0.790662 -4.7841 0
M  V30 2365 N 229.106 1.52395 0.401703 0
M  V30 2366 C 230.331 1.70972 1.17403 0
M  V30 2367 C 230.756 0.421615 1.83314 0
M  V30 2368 O 230.114 -0.621564 1.70312 0
M  V30 2369 C 230.162 2.85151 2.20728 0
M  V30 2370 O 229.266 2.51238 3.27037 0
M  V30 2371 H 228.607 0.568927 0.342372 0
M  V30 2372 H 231.137 1.99131 0.469891 0
M  V30 2373 H 231.147 3.10279 2.64936 0
M  V30 2374 H 229.822 3.78603 1.7214 0
M  V30 2375 H 228.399 2.36808 2.88057 0
M  V30 2376 N 230.584 -0.659388 1.43143 0
M  V30 2377 C 231.861 -1.41627 1.34912 0
M  V30 2378 C 232.241 -2.11099 -0.00607785 0
M  V30 2379 O 231.589 -2.04353 -1.02236 0
M  V30 2380 C 231.799 -2.40604 2.52805 0
M  V30 2381 C 233.147 -3.04789 2.95616 0
M  V30 2382 O 234.171 -2.50932 2.52807 0
M  V30 2383 O 233.03 -4.02421 3.69756 0
M  V30 2384 H 230.124 -0.63246 0.532844 0
M  V30 2385 H 232.67 -0.686814 1.5518 0
M  V30 2386 H 231.442 -1.88174 3.43083 0
M  V30 2387 H 231.065 -3.21009 2.34604 0
M  V30 2388 N 232.062 -1.29571 -0.897171 0
M  V30 2389 C 232.995 -1.0924 -2.00354 0
M  V30 2390 C 233.973 -0.00354011 -1.626 0
M  V30 2391 O 235.157 -0.15473 -1.87864 0
M  V30 2392 C 232.284 -0.66352 -3.32137 0
M  V30 2393 C 231.33 -1.75146 -3.88878 0
M  V30 2394 S 232.163 -3.35124 -4.17674 0
M  V30 2395 C 233.319 -2.9411 -5.52494 0
M  V30 2396 H 233.552 -2.02907 -2.17292 0
M  V30 2397 H 231.085 -1.13746 -1.04408 0
M  V30 2398 H 233.043 -0.422791 -4.08317 0
M  V30 2399 H 231.704 0.253588 -3.13075 0
M  V30 2400 H 230.897 -1.40337 -4.84068 0
M  V30 2401 H 230.499 -1.94584 -3.19395 0
M  V30 2402 H 232.791 -2.41312 -6.33068 0
M  V30 2403 H 233.734 -3.88161 -5.9223 0
M  V30 2404 H 234.142 -2.32332 -5.14473 0
M  V30 2405 N 233.54 1.10788 -1.12088 0
M  V30 2406 C 234.788 1.8231 -0.872205 0
M  V30 2407 C 235.109 1.85419 0.603709 0
M  V30 2408 O 234.379 1.32963 1.43867 0
M  V30 2409 H 232.959 0.675137 -0.319686 0
M  V30 2410 H 235.621 1.34068 -1.41463 0
M  V30 2411 H 234.717 2.85955 -1.25045 0
M  V30 2412 N 235.018 0.912232 1.28515 0
M  V30 2413 C 235.948 0.416403 2.29757 0
M  V30 2414 C 236.929 -0.515194 1.6211 0
M  V30 2415 O 238.114 -0.423253 1.89532 0
M  V30 2416 C 235.244 -0.34572 3.45575 0
M  V30 2417 C 234.198 0.496599 4.25109 0
M  V30 2418 C 233.524 -0.393771 5.33248 0
M  V30 2419 C 234.824 1.75307 4.92001 0
M  V30 2420 H 236.518 1.26249 2.7148 0
M  V30 2421 H 234.064 0.608515 1.30511 0
M  V30 2422 H 236.017 -0.703422 4.15488 0
M  V30 2423 H 234.741 -1.2257 3.02728 0
M  V30 2424 H 233.4 0.8368 3.56922 0
M  V30 2425 H 233.048 -1.27225 4.86644 0
M  V30 2426 H 232.748 0.166209 5.87365 0
M  V30 2427 H 234.272 -0.747389 6.06009 0
M  V30 2428 H 235.686 1.46437 5.54283 0
M  V30 2429 H 234.083 2.25534 5.56106 0
M  V30 2430 H 235.153 2.48176 4.16577 0
M  V30 2431 N 236.496 -1.42363 0.676048 0
M  V30 2432 C 237.743 -2.01522 0.19883 0
M  V30 2433 C 238.071 -1.53456 -1.19505 0
M  V30 2434 O 237.326 -0.727967 -1.81657 0
M  V30 2435 C 237.625 -3.56929 0.183431 0
M  V30 2436 C 237.291 -4.24431 1.52215 0
M  V30 2437 C 235.953 -4.42585 1.8887 0
M  V30 2438 C 238.305 -4.62459 2.40377 0
M  V30 2439 C 235.633 -4.96039 3.13309 0
M  V30 2440 C 237.985 -5.17294 3.64129 0
M  V30 2441 C 236.649 -5.33661 4.00951 0
M  V30 2442 H 235.919 -0.737419 0.0727571 0
M  V30 2443 H 238.566 -1.70531 0.871281 0
M  V30 2444 H 236.871 -3.87594 -0.572532 0
M  V30 2445 H 238.568 -4.00486 -0.203035 0
M  V30 2446 H 235.158 -4.10661 1.22701 0
M  V30 2447 H 239.342 -4.48105 2.13343 0
M  V30 2448 H 234.598 -5.06896 3.41857 0
M  V30 2449 H 238.772 -5.45704 4.32644 0
M  V30 2450 H 236.399 -5.74845 4.9745 0
M  V30 2451 N 237.974 -0.419461 -1.51915 0
M  V30 2452 C 239.222 0.152637 -2.01523 0
M  V30 2453 C 239.543 1.44762 -1.30649 0
M  V30 2454 O 238.813 1.90997 -0.435535 0
M  V30 2455 H 237.393 0.0593966 -0.744635 0
M  V30 2456 H 240.055 -0.558073 -1.86739 0
M  V30 2457 H 239.151 0.341369 -3.10227 0
M  V30 2458 N 239.452 1.56882 -0.150215 0
M  V30 2459 C 240.384 2.14057 0.819286 0
M  V30 2460 C 241.397 1.09082 1.20851 0
M  V30 2461 O 242.586 1.36347 1.15203 0
M  V30 2462 C 239.686 2.65102 2.11127 0
M  V30 2463 C 238.859 3.94511 1.88891 0
M  V30 2464 C 237.918 4.30834 3.02107 0
M  V30 2465 O 236.944 4.99099 2.73659 0
M  V30 2466 N 238.146 3.90676 4.29363 0
M  V30 2467 H 240.911 2.97871 0.330618 0
M  V30 2468 H 238.472 1.61866 0.0332538 0
M  V30 2469 H 240.464 2.86411 2.85921 0
M  V30 2470 H 239.034 1.85994 2.51247 0
M  V30 2471 H 238.254 3.81795 0.981152 0
M  V30 2472 H 239.542 4.7907 1.71376 0
M  V30 2473 H 238.94 3.35677 4.55343 0
M  V30 2474 H 237.497 4.1703 5.00928 0
M  V30 2475 N 240.93 -0.123565 1.57115 0
M  V30 2476 C 241.878 -1.17082 2.00984 0
M  V30 2477 C 242.872 -1.43136 0.906009 0
M  V30 2478 O 244.078 -1.43152 1.09121 0
M  V30 2479 H 240.453 -0.394653 0.64012 0
M  V30 2480 H 242.424 -0.774292 2.88179 0
M  V30 2481 C 241.173 -2.49057 2.42623 0
M  V30 2482 H 240.496 -2.29846 3.27125 0
M  V30 2483 H 241.936 -3.20906 2.7712 0
M  V30 2484 C 240.395 -3.11305 1.28805 0
M  V30 2485 O 240.925 -3.97171 0.60153 0
M  V30 2486 N 239.131 -2.71111 1.04628 0
M  V30 2487 H 238.678 -2.01382 1.60634 0
M  V30 2488 H 238.636 -3.1309 0.286685 0
M  V30 2489 N 242.408 -1.52605 -0.393616 0
M  V30 2490 C 243.341 -1.71798 -1.50202 0
M  V30 2491 C 244.319 -0.565743 -1.52441 0
M  V30 2492 O 245.503 -0.794987 -1.70916 0
M  V30 2493 C 242.63 -1.7714 -2.88685 0
M  V30 2494 C 241.676 -2.98845 -3.04292 0
M  V30 2495 S 242.509 -4.58909 -2.75976 0
M  V30 2496 C 243.665 -4.6706 -4.1666 0
M  V30 2497 H 243.898 -2.65542 -1.33696 0
M  V30 2498 H 241.431 -1.42839 -0.586195 0
M  V30 2499 H 243.389 -1.80903 -3.68489 0
M  V30 2500 H 242.05 -0.844969 -3.02521 0
M  V30 2501 H 241.243 -2.99111 -4.05646 0
M  V30 2502 H 240.845 -2.9305 -2.32374 0
M  V30 2503 H 243.137 -4.45391 -5.10523 0
M  V30 2504 H 244.08 -5.6905 -4.21412 0
M  V30 2505 H 244.488 -3.95944 -4.02354 0
M  V30 2506 N 243.887 0.651787 -1.4349 0
M  V30 2507 C 244.819 1.77725 -1.44729 0
M  V30 2508 C 245.832 1.59141 -0.343231 0
M  V30 2509 O 247.021 1.67835 -0.607751 0
M  V30 2510 C 244.121 3.15172 -1.24579 0
M  V30 2511 C 243.294 3.60402 -2.47849 0
M  V30 2512 C 242.353 4.76656 -2.22902 0
M  V30 2513 O 241.379 4.86022 -2.96263 0
M  V30 2514 N 242.581 5.66958 -1.24656 0
M  V30 2515 H 245.346 1.77141 -2.41746 0
M  V30 2516 H 242.907 0.835678 -1.38665 0
M  V30 2517 H 244.899 3.90634 -1.0577 0
M  V30 2518 H 243.469 3.1052 -0.360015 0
M  V30 2519 H 242.689 2.75369 -2.82073 0
M  V30 2520 H 243.977 3.87368 -3.29884 0
M  V30 2521 H 243.375 5.62065 -0.640265 0
M  V30 2522 H 241.932 6.42135 -1.1183 0
M  V30 2523 N 245.365 1.30045 0.890287 0
M  V30 2524 C 246.595 1.21296 1.67245 0
M  V30 2525 C 247.003 -0.227471 1.87828 0
M  V30 2526 O 246.346 -1.16296 1.422 0
M  V30 2527 C 246.408 1.86519 3.07329 0
M  V30 2528 C 246.072 3.35837 3.09939 0
M  V30 2529 C 247.069 4.31915 2.89389 0
M  V30 2530 C 244.754 3.77196 3.31706 0
M  V30 2531 C 246.748 5.67325 2.90552 0
M  V30 2532 C 244.435 5.12725 3.32499 0
M  V30 2533 C 245.433 6.076 3.11947 0
M  V30 2534 O 245.121 7.40655 3.12547 0
M  V30 2535 H 244.853 0.4211 0.528821 0
M  V30 2536 H 247.407 1.72111 1.12103 0
M  V30 2537 H 245.637 1.30228 3.64112 0
M  V30 2538 H 247.326 1.71963 3.67673 0
M  V30 2539 H 248.092 4.01294 2.72375 0
M  V30 2540 H 243.971 3.03796 3.4674 0
M  V30 2541 H 247.515 6.41354 2.74429 0
M  V30 2542 H 243.412 5.42988 3.49047 0
M  V30 2543 H 244.18 7.49577 3.28749 0
M  V30 2544 N 246.843 -1.10192 1.12674 0
M  V30 2545 C 247.793 -2.14754 0.765801 0
M  V30 2546 C 248.777 -1.59154 -0.236409 0
M  V30 2547 O 249.969 -1.76951 -0.0415261 0
M  V30 2548 C 247.098 -3.42563 0.224827 0
M  V30 2549 C 246.184 -4.05091 1.25548 0
M  V30 2550 N 246.575 -4.42287 2.4539 0
M  V30 2551 C 244.873 -4.32186 1.10142 0
M  V30 2552 C 245.574 -4.91441 3.11224 0
M  V30 2553 N 244.55 -4.88405 2.38666 0
M  V30 2554 H 248.352 -2.41309 1.67772 0
M  V30 2555 H 245.866 -1.27339 1.00789 0
M  V30 2556 H 247.863 -4.16868 -0.0519578 0
M  V30 2557 H 246.523 -3.17467 -0.681515 0
M  V30 2558 H 247.534 -4.33902 2.82754 0
M  V30 2559 H 244.211 -4.16735 0.252587 0
M  V30 2560 H 245.601 -5.29749 4.13298 0
M  V30 2561 N 248.321 -0.919034 -1.28029 0
M  V30 2562 C 249.551 -0.570143 -1.98577 0
M  V30 2563 C 249.959 0.854172 -1.68821 0
M  V30 2564 O 249.302 1.57807 -0.940351 0
M  V30 2565 C 249.364 -0.705734 -3.52505 0
M  V30 2566 C 249.028 -2.10057 -4.05863 0
M  V30 2567 C 250.025 -3.07385 -4.19298 0
M  V30 2568 C 247.71 -2.41517 -4.40426 0
M  V30 2569 C 249.704 -4.34287 -4.66555 0
M  V30 2570 C 247.391 -3.68657 -4.87376 0
M  V30 2571 C 248.389 -4.64856 -5.00398 0
M  V30 2572 O 248.077 -5.89735 -5.46322 0
M  V30 2573 H 247.809 -0.215592 -0.6407 0
M  V30 2574 H 250.363 -1.23583 -1.64062 0
M  V30 2575 H 248.593 0.0170414 -3.86696 0
M  V30 2576 H 250.282 -0.363172 -4.04272 0
M  V30 2577 H 251.048 -2.84398 -3.92865 0
M  V30 2578 H 246.927 -1.67389 -4.29537 0
M  V30 2579 H 250.471 -5.09377 -4.76635 0
M  V30 2580 H 246.368 -3.91466 -5.13249 0
M  V30 2581 H 247.136 -5.92599 -5.64596 0
M  V30 2582 N 249.799 1.42003 -0.683588 0
M  V30 2583 C 250.729 2.33487 -0.024866 0
M  V30 2584 C 251.71 1.51163 0.779975 0
M  V30 2585 O 252.895 1.79739 0.735362 0
M  V30 2586 C 250.025 3.3487 0.920836 0
M  V30 2587 C 248.979 4.27414 0.223958 0
M  V30 2588 C 248.305 5.19074 1.2832 0
M  V30 2589 C 249.605 5.14445 -0.90242 0
M  V30 2590 H 251.299 2.88819 -0.788921 0
M  V30 2591 H 248.845 1.38873 -0.38083 0
M  V30 2592 H 250.798 3.97787 1.39081 0
M  V30 2593 H 249.522 2.77861 1.71642 0
M  V30 2594 H 248.181 3.65904 -0.225864 0
M  V30 2595 H 247.829 4.58387 2.071 0
M  V30 2596 H 247.529 5.81822 0.821995 0
M  V30 2597 H 249.053 5.84867 1.75392 0
M  V30 2598 H 250.467 5.70998 -0.513272 0
M  V30 2599 H 248.864 5.86072 -1.28997 0
M  V30 2600 H 249.934 4.52322 -1.74737 0
M  V30 2601 N 251.277 0.427512 1.51691 0
M  V30 2602 C 252.525 -0.141948 2.01601 0
M  V30 2603 C 252.846 -1.44067 1.31414 0
M  V30 2604 O 252.116 -1.90763 0.445658 0
M  V30 2605 H 250.696 -0.0554468 0.744939 0
M  V30 2606 H 253.358 0.567968 1.86441 0
M  V30 2607 H 252.454 -0.324913 3.10404 0
M  V30 2608 N 252.755 -1.56801 0.158532 0
M  V30 2609 C 254.171 -1.5837 -0.197774 0
M  V30 2610 C 254.371 -1.17334 -1.63814 0
M  V30 2611 O 253.427 -0.878988 -2.36707 0
M  V30 2612 C 254.74 -3.00615 0.0714459 0
M  V30 2613 C 256.288 -3.12999 0.00864533 0
M  V30 2614 C 256.763 -4.57313 0.250685 0
M  V30 2615 N 258.254 -4.62777 0.198014 0
M  V30 2616 C 258.989 -5.72271 0.359642 0
M  V30 2617 N 258.485 -6.90371 0.579625 0
M  V30 2618 N 260.278 -5.61318 0.296438 0
M  V30 2619 H 252.429 -1.81765 1.09887 0
M  V30 2620 H 254.692 -0.841849 0.435884 0
M  V30 2621 H 254.398 -3.35068 1.06874 0
M  V30 2622 H 254.272 -3.71683 -0.642757 0
M  V30 2623 H 256.659 -2.7838 -0.979217 0
M  V30 2624 H 256.74 -2.44393 0.755359 0
M  V30 2625 H 256.384 -4.92639 1.2357 0
M  V30 2626 H 256.314 -5.24061 -0.516489 0
M  V30 2627 H 258.805 -3.77885 0.0331115 0
M  V30 2628 H 259.118 -7.69689 0.69275 0
M  V30 2629 H 257.463 -6.92264 0.616087 0
M  V30 2630 H 260.654 -4.67932 0.125258 0
M  V30 2631 H 260.827 -6.46599 0.425831 0
M  V30 2632 N 254.233 0.115231 -1.57178 0
M  V30 2633 C 255.196 1.12526 -1.99676 0
M  V30 2634 C 256.196 1.34095 -0.88742 0
M  V30 2635 O 257.386 1.30548 -1.15337 0
M  V30 2636 C 254.518 2.4789 -2.34015 0
M  V30 2637 H 255.711 0.759912 -2.90113 0
M  V30 2638 H 253.264 0.359648 -1.52106 0
M  V30 2639 H 253.999 2.89339 -1.4647 0
M  V30 2640 H 253.784 2.33588 -3.14927 0
M  V30 2641 H 255.274 3.20575 -2.67622 0
M  V30 2642 N 255.711 1.52812 0.385517 0
M  V30 2643 C 256.959 1.67694 1.12797 0
M  V30 2644 C 257.28 0.421115 1.90399 0
M  V30 2645 O 256.55 -0.564551 1.87589 0
M  V30 2646 H 255.13 0.618155 0.419396 0
M  V30 2647 H 257.792 1.89938 0.436972 0
M  V30 2648 H 256.888 2.52896 1.82894 0
M  V30 2649 N 257.189 -0.644168 1.43834 0
M  V30 2650 C 258.419 -1.42939 1.49171 0
M  V30 2651 C 258.827 -1.88874 0.111048 0
M  V30 2652 O 258.17 -1.60656 -0.8908 0
M  V30 2653 C 258.232 -2.69151 2.38324 0
M  V30 2654 C 257.896 -2.45097 3.85715 0
M  V30 2655 C 258.893 -2.07747 4.76589 0
M  V30 2656 C 256.578 -2.59141 4.30292 0
M  V30 2657 C 258.572 -1.8475 6.10038 0
M  V30 2658 C 256.259 -2.35759 5.63792 0
M  V30 2659 C 257.257 -1.9862 6.53482 0
M  V30 2660 O 256.945 -1.75489 7.84512 0
M  V30 2661 H 256.677 -0.445271 0.508635 0
M  V30 2662 H 259.231 -0.79621 1.8934 0
M  V30 2663 H 257.461 -3.3506 1.93058 0
M  V30 2664 H 259.15 -3.31123 2.3476 0
M  V30 2665 H 259.916 -1.96465 4.43426 0
M  V30 2666 H 255.795 -2.87022 3.60749 0
M  V30 2667 H 259.339 -1.55686 6.80006 0
M  V30 2668 H 255.236 -2.46646 5.9652 0
M  V30 2669 H 256.004 -1.89841 7.9618 0
M  V30 2670 N 258.668 -1.30515 -0.883378 0
M  V30 2671 C 259.896 -1.22359 -1.66841 0
M  V30 2672 C 260.311 0.213296 -1.87591 0
M  V30 2673 O 259.668 1.14075 -1.42454 0
M  V30 2674 C 259.719 -1.95011 -3.04389 0
M  V30 2675 O 259.44 -3.3309 -2.84575 0
M  V30 2676 C 260.941 -1.93532 -3.98824 0
M  V30 2677 H 258.161 -0.423371 -0.520575 0
M  V30 2678 H 260.705 -1.72167 -1.10357 0
M  V30 2679 H 258.86 -1.48997 -3.57601 0
M  V30 2680 H 259.274 -3.69907 -3.71846 0
M  V30 2681 H 260.748 -2.48902 -4.92699 0
M  V30 2682 H 261.225 -0.914627 -4.29571 0
M  V30 2683 H 261.831 -2.39364 -3.51547 0
M  V30 2684 N 260.146 1.09593 -1.13257 0
M  V30 2685 C 261.395 1.81105 -0.887917 0
M  V30 2686 C 261.708 1.86563 0.587672 0
M  V30 2687 O 262.914 2.54367 0.949204 0
M  V30 2688 C 261.37 3.25338 -1.53895 0
M  V30 2689 C 260.978 3.28151 -3.04994 0
M  V30 2690 C 262.722 4.01617 -1.37492 0
M  V30 2691 C 260.629 4.66897 -3.6299 0
M  V30 2692 H 259.559 0.678661 -0.328534 0
M  V30 2693 H 262.21 1.23183 -1.36008 0
M  V30 2694 H 260.592 3.8331 -0.994446 0
M  V30 2695 H 261.766 2.79953 -3.66009 0
M  V30 2696 H 260.081 2.65361 -3.20893 0
M  V30 2697 H 262.678 5.04119 -1.78235 0
M  V30 2698 H 263.021 4.15072 -0.31957 0
M  V30 2699 H 263.554 3.50082 -1.88912 0
M  V30 2700 H 260.293 4.58643 -4.68323 0
M  V30 2701 H 259.813 5.15426 -3.06752 0
M  V30 2702 H 261.492 5.3587 -3.62563 0
M  V30 2703 N 261.624 0.925811 1.2754 0
M  V30 2704 C 262.574 0.394488 2.24561 0
M  V30 2705 C 263.558 -0.500183 1.52928 0
M  V30 2706 O 264.75 -0.337936 1.73744 0
M  V30 2707 C 261.879 -0.353328 3.41477 0
M  V30 2708 C 260.965 0.557752 4.20416 0
M  V30 2709 N 261.356 1.67674 4.77199 0
M  V30 2710 C 259.654 0.360404 4.44541 0
M  V30 2711 C 260.355 2.24324 5.36706 0
M  V30 2712 N 259.331 1.53305 5.21535 0
M  V30 2713 H 263.133 1.2489 2.66045 0
M  V30 2714 H 260.647 0.779864 1.4245 0
M  V30 2715 H 262.644 -0.7509 4.10082 0
M  V30 2716 H 261.304 -1.20469 3.01525 0
M  V30 2717 H 262.315 2.05915 4.75204 0
M  V30 2718 H 258.992 -0.450454 4.15063 0
M  V30 2719 H 260.382 3.18521 5.91603 0
M  V30 2720 N 263.102 -1.41638 0.69111 0
M  V30 2721 C 264.032 -2.3347 0.037248 0
M  V30 2722 C 265.013 -1.51575 -0.771947 0
M  V30 2723 O 266.198 -1.80126 -0.72582 0
M  V30 2724 C 263.328 -3.35354 -0.903064 0
M  V30 2725 C 262.282 -4.27526 -0.201288 0
M  V30 2726 C 261.608 -5.19747 -1.25565 0
M  V30 2727 C 262.908 -5.13959 0.929689 0
M  V30 2728 H 264.602 -2.88397 0.804227 0
M  V30 2729 H 262.148 -1.38669 0.388189 0
M  V30 2730 H 264.101 -3.98519 -1.36969 0
M  V30 2731 H 262.825 -2.78767 -1.70166 0
M  V30 2732 H 261.484 -3.65779 0.245265 0
M  V30 2733 H 261.132 -4.59479 -2.04666 0
M  V30 2734 H 260.832 -5.8225 -0.791128 0
M  V30 2735 H 262.356 -5.85789 -1.72288 0
M  V30 2736 H 263.77 -5.70718 0.543546 0
M  V30 2737 H 262.167 -5.85379 1.32103 0
M  V30 2738 H 263.237 -4.51389 1.77133 0
M  V30 2739 N 264.58 -0.43555 -1.51462 0
M  V30 2740 C 265.512 0.41257 -2.25456 0
M  V30 2741 C 266.525 0.987822 -1.29406 0
M  V30 2742 O 267.714 0.882266 -1.55172 0
M  V30 2743 C 264.814 1.58894 -2.99342 0
M  V30 2744 C 263.987 1.13288 -4.22474 0
M  V30 2745 C 263.046 2.17917 -4.78956 0
M  V30 2746 O 262.072 1.77425 -5.40841 0
M  V30 2747 N 263.274 3.50382 -4.62832 0
M  V30 2748 H 266.039 -0.221603 -2.9888 0
M  V30 2749 H 263.6 -0.264342 -1.59727 0
M  V30 2750 H 265.592 2.28508 -3.34015 0
M  V30 2751 H 264.162 2.12849 -2.28941 0
M  V30 2752 H 263.382 0.263881 -3.93316 0
M  V30 2753 H 264.67 0.805542 -5.02383 0
M  V30 2754 H 264.068 3.86013 -4.13534 0
M  V30 2755 H 262.625 4.15895 -5.01871 0
M  V30 2756 N 266.058 1.56714 -0.166846 0
M  V30 2757 C 267.298 1.98641 0.481763 0
M  V30 2758 C 267.662 1.05038 1.6072 0
M  V30 2759 O 268.863 1.36087 2.31805 0
M  V30 2760 C 267.134 3.44362 0.956517 0
M  V30 2761 S 268.693 4.08317 1.60694 0
M  V30 2762 H 265.511 0.693873 0.155116 0
M  V30 2763 H 268.113 1.93719 -0.263251 0
M  V30 2764 H 266.817 4.10204 0.126936 0
M  V30 2765 H 266.348 3.53041 1.73568 0
M  V30 2766 H 268.363 4.02999 2.89494 0
M  V30 2767 N 267.536 -0.106894 1.57237 0
M  V30 2768 C 268.484 -1.14944 2.02215 0
M  V30 2769 C 269.478 -1.42167 0.92114 0
M  V30 2770 O 270.684 -1.41987 1.10634 0
M  V30 2771 H 267.059 -0.387841 0.64427 0
M  V30 2772 H 269.03 -0.743683 2.88984 0
M  V30 2773 C 267.779 -2.4647 2.4525 0
M  V30 2774 H 267.102 -2.26363 3.29545 0
M  V30 2775 H 268.542 -3.17948 2.80508 0
M  V30 2776 C 267.001 -3.09921 1.321 0
M  V30 2777 O 267.531 -3.9651 0.643622 0
M  V30 2778 N 265.737 -2.69986 1.07497 0
M  V30 2779 H 265.284 -1.99667 1.62761 0
M  V30 2780 H 265.242 -3.12769 0.319876 0
M  V30 2781 N 269.014 -1.53014 -0.377408 0
M  V30 2782 C 269.977 -1.77957 -1.44444 0
M  V30 2783 C 270.977 -0.649763 -1.47087 0
M  V30 2784 O 272.167 -0.917897 -1.48055 0
M  V30 2785 C 269.299 -1.89089 -2.83651 0
M  V30 2786 H 270.492 -2.73243 -1.23606 0
M  V30 2787 H 268.045 -1.43912 -0.609844 0
M  V30 2788 H 268.78 -0.958293 -3.09818 0
M  V30 2789 H 268.565 -2.71254 -2.83132 0
M  V30 2790 H 270.055 -2.1002 -3.60945 0
M  V30 2791 N 270.492 0.636531 -1.44174 0
M  V30 2792 C 271.717 1.42847 -1.50364 0
M  V30 2793 C 272.142 1.87665 -0.127867 0
M  V30 2794 O 271.5 1.58408 0.88185 0
M  V30 2795 C 271.548 2.62854 -2.4686 0
M  V30 2796 O 270.652 3.62501 -1.9664 0
M  V30 2797 H 269.993 0.427642 -0.507955 0
M  V30 2798 H 272.523 0.777422 -1.89255 0
M  V30 2799 H 272.533 3.10465 -2.64718 0
M  V30 2800 H 271.208 2.29578 -3.46795 0
M  V30 2801 H 269.785 3.21735 -1.88523 0
M  V30 2802 N 271.97 1.30982 0.876444 0
M  V30 2803 C 272.917 1.18085 1.98304 0
M  V30 2804 C 273.887 0.0682263 1.6596 0
M  V30 2805 O 275.072 0.239937 1.89285 0
M  V30 2806 C 272.212 0.887475 3.33493 0
M  V30 2807 C 271.325 2.08281 3.78475 0
M  V30 2808 C 270.46 1.72678 5.0235 0
M  V30 2809 C 269.499 2.88657 5.39762 0
M  V30 2810 N 268.636 2.53292 6.54819 0
M  V30 2811 H 273.476 2.1275 2.08666 0
M  V30 2812 H 271.013 1.05839 1.02159 0
M  V30 2813 H 272.971 0.697961 4.1132 0
M  V30 2814 H 271.601 -0.022315 3.22792 0
M  V30 2815 H 270.653 2.3833 2.96484 0
M  V30 2816 H 271.965 2.95108 4.02135 0
M  V30 2817 H 271.119 1.50151 5.87826 0
M  V30 2818 H 269.858 0.830327 4.8058 0
M  V30 2819 H 268.863 3.1184 4.52809 0
M  V30 2820 H 270.088 3.79002 5.63502 0
M  V30 2821 H 268.034 1.66163 6.34607 0
M  V30 2822 H 267.951 3.3365 6.7839 0
M  V30 2823 H 269.219 2.34143 7.43503 0
M  V30 2824 N 273.449 -1.08991 1.13837 0
M  V30 2825 C 274.696 -1.81258 0.902882 0
M  V30 2826 C 275.024 -1.85936 -0.570803 0
M  V30 2827 O 274.279 -1.3267 -1.43865 0
M  V30 2828 C 274.578 -3.27042 1.44147 0
M  V30 2829 C 274.244 -3.4249 2.93276 0
M  V30 2830 C 272.906 -3.46414 3.33992 0
M  V30 2831 C 275.258 -3.4666 3.892 0
M  V30 2832 C 272.586 -3.52091 4.69307 0
M  V30 2833 C 274.938 -3.53872 5.24364 0
M  V30 2834 C 273.602 -3.56066 5.646 0
M  V30 2835 H 272.872 -0.663268 0.330388 0
M  V30 2836 H 275.519 -1.28368 1.42105 0
M  V30 2837 H 273.824 -3.82599 0.844097 0
M  V30 2838 H 275.521 -3.81499 1.23528 0
M  V30 2839 H 272.111 -3.40124 2.60794 0
M  V30 2840 H 276.295 -3.42865 3.58828 0
M  V30 2841 H 271.551 -3.52079 4.9985 0
M  V30 2842 H 275.725 -3.56043 5.98503 0
M  V30 2843 H 273.352 -3.60218 6.69438 0
M  V30 2844 N 274.927 -0.932562 -1.27047 0
M  V30 2845 C 275.877 -0.406392 -2.24349 0
M  V30 2846 C 276.861 0.492066 -1.53191 0
M  V30 2847 O 278.053 0.328717 -1.73921 0
M  V30 2848 C 275.182 0.335214 -3.41659 0
M  V30 2849 C 274.268 -0.58004 -4.20115 0
M  V30 2850 N 274.659 -1.70203 -4.76303 0
M  V30 2851 C 272.957 -0.383974 -4.44344 0
M  V30 2852 C 273.658 -2.27167 -5.35509 0
M  V30 2853 N 272.634 -1.56068 -5.20715 0
M  V30 2854 H 276.436 -1.26299 -2.65378 0
M  V30 2855 H 273.95 -0.787408 -1.42034 0
M  V30 2856 H 275.947 0.729142 -4.10474 0
M  V30 2857 H 274.607 1.18868 -3.0216 0
M  V30 2858 H 275.618 -2.08433 -4.74106 0
M  V30 2859 H 272.295 0.428436 -4.15296 0
M  V30 2860 H 273.685 -3.21654 -5.89905 0
M  V30 2861 N 276.405 1.4127 -0.698611 0
M  V30 2862 C 277.337 2.292 0.00399731 0
M  V30 2863 C 278.35 1.44944 0.741279 0
M  V30 2864 O 279.539 1.68416 0.591477 0
M  V30 2865 C 276.639 3.22875 1.02979 0
M  V30 2866 C 275.812 4.35904 0.36151 0
M  V30 2867 C 274.871 5.10134 1.29033 0
M  V30 2868 O 273.897 5.63809 0.781562 0
M  V30 2869 N 275.099 5.17885 2.6225 0
M  V30 2870 H 277.864 2.9014 -0.750921 0
M  V30 2871 H 275.425 1.52455 -0.544882 0
M  V30 2872 H 277.417 3.69404 1.65296 0
M  V30 2873 H 275.987 2.63221 1.68622 0
M  V30 2874 H 275.207 3.91719 -0.441584 0
M  V30 2875 H 276.495 5.08696 -0.103055 0
M  V30 2876 H 275.893 4.7573 3.061 0
M  V30 2877 H 274.45 5.6798 3.19754 0
M  V30 2878 N 277.883 0.443576 1.51229 0
M  V30 2879 C 279.131 -0.120557 2.0174 0
M  V30 2880 C 279.452 -1.42665 1.32935 0
M  V30 2881 O 278.722 -1.9028 0.465866 0
M  V30 2882 H 277.302 -0.0475426 0.745486 0
M  V30 2883 H 279.964 0.587711 1.85828 0
M  V30 2884 H 279.06 -0.291972 3.10731 0
M  V30 2885 N 279.361 -1.56624 0.175154 0
M  V30 2886 C 280.601 -1.98894 -0.471221 0
M  V30 2887 C 280.965 -1.05889 -1.60161 0
M  V30 2888 O 282.166 -1.37315 -2.3108 0
M  V30 2889 C 280.437 -3.44865 -0.938241 0
M  V30 2890 S 281.996 -4.09164 -1.58526 0
M  V30 2891 H 278.814 -0.694686 -0.151434 0
M  V30 2892 H 281.416 -1.93577 0.27352 0
M  V30 2893 H 280.12 -4.10265 -0.10518 0
M  V30 2894 H 279.651 -3.53956 -1.71693 0
M  V30 2895 H 281.666 -4.04528 -2.87352 0
M  V30 2896 N 280.839 0.0985539 -1.57292 0
M  V30 2897 C 281.769 1.12064 -2.04851 0
M  V30 2898 C 282.75 1.41981 -0.936767 0
M  V30 2899 O 283.935 1.52071 -1.20781 0
M  V30 2900 C 281.065 2.44144 -2.47004 0
M  V30 2901 C 280.019 2.28643 -3.6181 0
M  V30 2902 C 279.345 3.65869 -3.89929 0
M  V30 2903 C 280.645 1.72986 -4.92822 0
M  V30 2904 H 282.339 0.724979 -2.9049 0
M  V30 2905 H 279.885 0.34729 -1.39749 0
M  V30 2906 H 281.838 3.15914 -2.78884 0
M  V30 2907 H 280.562 2.85639 -1.5836 0
M  V30 2908 H 279.221 1.59318 -3.30172 0
M  V30 2909 H 278.869 4.04885 -2.98458 0
M  V30 2910 H 278.569 3.56344 -4.67218 0
M  V30 2911 H 280.093 4.39112 -4.2428 0
M  V30 2912 H 281.507 2.34593 -5.23105 0
M  V30 2913 H 279.904 1.74229 -5.74251 0
M  V30 2914 H 280.974 0.689007 -4.7998 0
M  V30 2915 N 282.317 1.53212 0.369288 0
M  V30 2916 C 283.247 1.82365 1.45826 0
M  V30 2917 C 284.228 0.676907 1.56051 0
M  V30 2918 O 285.413 0.926401 1.70679 0
M  V30 2919 C 282.543 2.01023 2.83208 0
M  V30 2920 C 281.497 3.1678 2.8781 0
M  V30 2921 C 280.823 3.20724 4.27832 0
M  V30 2922 C 282.123 4.55447 2.55667 0
M  V30 2923 H 283.817 2.73559 1.21678 0
M  V30 2924 H 281.363 1.3163 0.583911 0
M  V30 2925 H 283.316 2.20001 3.59413 0
M  V30 2926 H 282.04 1.06536 3.08736 0
M  V30 2927 H 280.699 2.97616 2.14056 0
M  V30 2928 H 280.347 2.23882 4.50429 0
M  V30 2929 H 280.047 3.98496 4.31827 0
M  V30 2930 H 281.571 3.41881 5.05915 0
M  V30 2931 H 282.985 4.74611 3.21586 0
M  V30 2932 H 281.382 5.35432 2.70984 0
M  V30 2933 H 282.452 4.60812 1.5093 0
M  V30 2934 N 283.795 -0.628877 1.44509 0
M  V30 2935 C 285.041 -1.39045 1.47629 0
M  V30 2936 C 285.374 -1.93892 0.109343 0
M  V30 2937 O 284.649 -1.7379 -0.87334 0
M  V30 2938 C 284.932 -2.55408 2.53848 0
M  V30 2939 C 284.785 -2.05896 3.99909 0
M  V30 2940 C 286.104 -3.5759 2.56549 0
M  V30 2941 H 283.223 -0.504232 0.537512 0
M  V30 2942 H 285.865 -0.710854 1.76201 0
M  V30 2943 H 284.015 -3.13384 2.29615 0
M  V30 2944 H 285.687 -1.52734 4.35282 0
M  V30 2945 H 283.93 -1.37061 4.11578 0
M  V30 2946 H 284.601 -2.89681 4.69882 0
M  V30 2947 H 287.077 -3.09419 2.78207 0
M  V30 2948 H 285.953 -4.36527 3.32769 0
M  V30 2949 H 286.214 -4.11808 1.60832 0
M  V30 2950 N 285.273 -1.31445 -0.869486 0
M  V30 2951 C 286.519 -1.21337 -1.62496 0
M  V30 2952 C 286.852 0.227872 -1.92858 0
M  V30 2953 O 286.127 1.16094 -1.56053 0
M  V30 2954 C 286.41 -2.05814 -2.95487 0
M  V30 2955 C 286.263 -3.5824 -2.72 0
M  V30 2956 C 287.582 -1.9079 -3.96594 0
M  V30 2957 H 284.701 -0.442135 -0.589649 0
M  V30 2958 H 287.343 -1.6124 -1.00507 0
M  V30 2959 H 285.493 -1.71913 -3.48394 0
M  V30 2960 H 287.165 -4.0228 -2.25762 0
M  V30 2961 H 285.408 -3.81647 -2.06224 0
M  V30 2962 H 286.079 -4.12657 -3.66631 0
M  V30 2963 H 288.555 -2.20459 -3.52898 0
M  V30 2964 H 287.431 -2.52199 -4.87531 0
M  V30 2965 H 287.692 -0.871341 -4.33428 0
M  V30 2966 N 286.751 1.08385 -1.14413 0
M  V30 2967 C 287.991 1.8238 -0.922868 0
M  V30 2968 C 288.355 1.84225 0.540842 0
M  V30 2969 O 289.556 2.53985 0.880058 0
M  V30 2970 C 287.827 3.24048 -1.50757 0
M  V30 2971 S 289.386 4.14917 -1.4279 0
M  V30 2972 H 286.204 0.628524 -0.332384 0
M  V30 2973 H 288.806 1.30278 -1.45766 0
M  V30 2974 H 287.51 3.20288 -2.56601 0
M  V30 2975 H 287.041 3.81224 -0.971178 0
M  V30 2976 H 289.056 4.94473 -0.413582 0
M  V30 2977 N 288.23 0.939286 1.26551 0
M  V30 2978 C 289.476 0.586715 1.94128 0
M  V30 2979 C 289.809 -0.8717 1.73537 0
M  V30 2980 O 289.084 -1.62339 1.07127 0
M  V30 2981 C 289.367 0.927497 3.4795 0
M  V30 2982 C 289.22 2.44052 3.77834 0
M  V30 2983 C 290.539 0.441569 4.37879 0
M  V30 2984 H 287.658 0.21463 0.705055 0
M  V30 2985 H 290.3 1.17316 1.49455 0
M  V30 2986 H 288.45 0.428431 3.8613 0
M  V30 2987 H 290.122 3.01216 3.4938 0
M  V30 2988 H 288.365 2.8848 3.23978 0
M  V30 2989 H 289.036 2.62947 4.85348 0
M  V30 2990 H 291.512 0.869448 4.06915 0
M  V30 2991 H 290.388 0.708856 5.44304 0
M  V30 2992 H 290.649 -0.658467 4.37169 0
M  V30 2993 N 289.708 -1.40897 0.706093 0
M  V30 2994 C 291.119 -1.84023 0.315052 0
M  V30 2995 C 291.47 -1.5906 -1.14866 0
M  V30 2996 O 290.595 -1.06651 -1.88293 0
M  V30 2997 C 291.19 -3.34055 0.565038 0
M  V30 2998 C 289.749 -3.7571 0.227806 0
M  V30 2999 C 288.896 -2.64204 0.842122 0
M  V30 3000 H 291.847 -1.303 0.905963 0
M  V30 3001 H 291.868 -3.80107 -0.172843 0
M  V30 3002 H 291.38 -3.52192 1.63042 0
M  V30 3003 H 289.481 -3.63172 -0.832895 0
M  V30 3004 H 289.594 -4.74103 0.690174 0
M  V30 3005 H 287.958 -2.53255 0.270893 0
M  V30 3006 H 288.741 -2.85155 1.91158 0
M  V30 3007 N 291.186 -0.45159 -1.50991 0
M  V30 3008 C 292.096 0.358431 -2.31846 0
M  V30 3009 C 293.112 1.01438 -1.41373 0
M  V30 3010 O 294.288 1.00663 -1.74439 0
M  V30 3011 C 291.353 1.43704 -3.15515 0
M  V30 3012 C 290.414 0.799742 -4.21785 0
M  V30 3013 C 289.647 1.82696 -5.01456 0
M  V30 3014 O 289.87 3.05105 -4.81941 0
M  V30 3015 O 288.804 1.40958 -5.85162 0
M  V30 3016 H 292.63 -0.302032 -3.02194 0
M  V30 3017 H 290.215 -0.213825 -1.47862 0
M  V30 3018 H 292.097 2.06227 -3.67489 0
M  V30 3019 H 290.772 2.08133 -2.47916 0
M  V30 3020 H 289.679 0.136084 -3.73852 0
M  V30 3021 H 291.012 0.198718 -4.91799 0
M  V30 3022 N 292.664 1.56529 -0.183458 0
M  V30 3023 C 293.627 2.17324 0.728223 0
M  V30 3024 C 294.627 1.12453 1.14939 0
M  V30 3025 O 295.817 1.37902 1.06437 0
M  V30 3026 C 292.949 2.76591 1.99274 0
M  V30 3027 H 294.142 2.99241 0.198772 0
M  V30 3028 H 291.695 1.5616 0.0661391 0
M  V30 3029 H 292.43 1.98441 2.56499 0
M  V30 3030 H 292.215 3.5335 1.69959 0
M  V30 3031 H 293.705 3.23311 2.6431 0
M  V30 3032 N 294.142 -0.090211 1.57342 0
M  V30 3033 C 295.052 -1.12735 2.05738 0
M  V30 3034 C 296.068 -1.43557 0.983231 0
M  V30 3035 O 297.244 -1.54101 1.29672 0
M  V30 3036 C 294.309 -2.42659 2.47624 0
M  V30 3037 C 293.37 -2.18975 3.69254 0
M  V30 3038 C 292.603 -3.42704 4.09133 0
M  V30 3039 O 292.826 -4.51127 3.49057 0
M  V30 3040 O 291.76 -3.32003 5.02053 0
M  V30 3041 H 295.586 -0.746279 2.94388 0
M  V30 3042 H 293.171 -0.303064 1.46294 0
M  V30 3043 H 295.053 -3.19155 2.7517 0
M  V30 3044 H 293.728 -2.80182 1.62109 0
M  V30 3045 H 292.635 -1.40244 3.46818 0
M  V30 3046 H 293.968 -1.86342 4.55563 0
M  V30 3047 N 295.62 -1.53406 -0.361157 0
M  V30 3048 C 296.553 -1.74946 -1.46524 0
M  V30 3049 C 297.531 -0.59795 -1.51206 0
M  V30 3050 O 298.715 -0.831062 -1.69191 0
M  V30 3051 C 295.842 -1.83224 -2.84863 0
M  V30 3052 C 294.888 -3.05233 -2.97885 0
M  V30 3053 S 295.721 -4.6466 -2.66179 0
M  V30 3054 C 296.877 -4.75793 -4.06659 0
M  V30 3055 H 297.11 -2.68319 -1.28033 0
M  V30 3056 H 294.643 -1.44051 -0.555764 0
M  V30 3057 H 296.601 -1.88679 -3.64569 0
M  V30 3058 H 295.262 -0.908948 -3.00661 0
M  V30 3059 H 294.455 -3.07648 -3.9921 0
M  V30 3060 H 294.057 -2.97913 -2.26106 0
M  V30 3061 H 296.349 -4.5612 -5.0096 0
M  V30 3062 H 297.292 -5.7786 -4.09247 0
M  V30 3063 H 297.7 -4.04389 -3.93865 0
M  V30 3064 N 297.098 0.621204 -1.44841 0
M  V30 3065 C 298.346 1.37783 -1.47852 0
M  V30 3066 C 298.667 1.94653 -0.116224 0
M  V30 3067 O 297.937 1.76367 0.852737 0
M  V30 3068 H 296.517 0.511453 -0.544449 0
M  V30 3069 H 299.179 0.730446 -1.80694 0
M  V30 3070 H 298.275 2.20414 -2.20961 0
M  V30 3071 N 298.576 1.31904 0.862503 0
M  V30 3072 C 299.824 1.21776 1.61292 0
M  V30 3073 C 300.145 -0.222413 1.93727 0
M  V30 3074 O 299.415 -1.1451 1.58947 0
M  V30 3075 H 297.995 0.447717 0.597962 0
M  V30 3076 H 300.657 1.65326 1.03215 0
M  V30 3077 H 299.753 1.7948 2.5533 0
M  V30 3078 N 300.054 -1.07777 1.14986 0
M  V30 3079 C 301.017 -2.13041 0.845358 0
M  V30 3080 C 302.017 -1.60071 -0.152931 0
M  V30 3081 O 303.207 -1.74033 0.0761879 0
M  V30 3082 C 300.339 -3.39896 0.261383 0
M  V30 3083 H 301.532 -2.41485 1.77834 0
M  V30 3084 H 299.085 -1.23595 0.956757 0
M  V30 3085 H 299.82 -3.17091 -0.68 0
M  V30 3086 H 299.605 -3.79642 0.980514 0
M  V30 3087 H 301.095 -4.17548 0.0657687 0
M  V30 3088 N 301.532 -0.945985 -1.26051 0
M  V30 3089 C 302.778 -0.597002 -1.93814 0
M  V30 3090 C 303.111 0.862484 -1.73997 0
M  V30 3091 O 302.386 1.61769 -1.07986 0
M  V30 3092 C 302.669 -0.945937 -3.47454 0
M  V30 3093 C 302.522 -2.46052 -3.76535 0
M  V30 3094 C 303.841 -0.464785 -4.37639 0
M  V30 3095 H 300.96 -0.218366 -0.703907 0
M  V30 3096 H 303.602 -1.18107 -1.48831 0
M  V30 3097 H 301.752 -0.448902 -3.85898 0
M  V30 3098 H 303.424 -3.03065 -3.47778 0
M  V30 3099 H 301.667 -2.90194 -3.22444 0
M  V30 3100 H 302.338 -2.65517 -4.83947 0
M  V30 3101 H 304.814 -0.891016 -4.06448 0
M  V30 3102 H 303.69 -0.737712 -5.4392 0
M  V30 3103 H 303.951 0.635274 -4.37512 0
M  V30 3104 N 303.011 1.40521 -0.713556 0
M  V30 3105 C 304.257 2.01221 -0.252564 0
M  V30 3106 C 304.59 1.56444 1.1506 0
M  V30 3107 O 303.865 0.783597 1.78017 0
M  V30 3108 C 304.148 3.58582 -0.330332 0
M  V30 3109 C 304.001 4.13437 -1.77173 0
M  V30 3110 C 305.32 4.39079 0.299641 0
M  V30 3111 H 302.439 0.731077 -0.0932471 0
M  V30 3112 H 305.081 1.67026 -0.905673 0
M  V30 3113 H 303.231 3.87844 0.225737 0
M  V30 3114 H 304.903 3.9498 -2.38303 0
M  V30 3115 H 303.146 3.67801 -2.3001 0
M  V30 3116 H 303.817 5.22597 -1.77755 0
M  V30 3117 H 306.293 4.15735 -0.174139 0
M  V30 3118 H 305.169 5.4848 0.214771 0
M  V30 3119 H 305.43 4.19915 1.38288 0
M  V30 3120 N 304.489 0.459591 1.5075 0
M  V30 3121 C 305.737 -0.0991532 2.01857 0
M  V30 3122 C 306.058 -1.41247 1.34441 0
M  V30 3123 O 305.328 -1.89775 0.486022 0
M  V30 3124 H 303.908 -0.039633 0.745948 0
M  V30 3125 H 306.57 0.607387 1.85194 0
M  V30 3126 H 305.666 -0.258998 3.11023 0
M  V30 3127 N 305.967 -1.56429 0.191757 0
M  V30 3128 C 306.899 -2.16154 -0.762245 0
M  V30 3129 C 307.912 -1.12247 -1.17917 0
M  V30 3130 O 309.101 -1.39353 -1.11548 0
M  V30 3131 C 306.201 -2.70606 -2.04024 0
M  V30 3132 C 305.374 -3.99381 -1.78364 0
M  V30 3133 C 304.433 -4.38692 -2.90578 0
M  V30 3134 O 303.459 -5.06179 -2.6033 0
M  V30 3135 N 304.661 -4.01922 -4.18854 0
M  V30 3136 H 307.426 -2.98643 -0.251526 0
M  V30 3137 H 304.987 -1.61897 0.00967373 0
M  V30 3138 H 306.979 -2.93891 -2.78227 0
M  V30 3139 H 305.549 -1.9259 -2.46227 0
M  V30 3140 H 304.769 -3.84262 -0.879581 0
M  V30 3141 H 306.057 -4.83445 -1.58614 0
M  V30 3142 H 305.455 -3.47631 -4.46283 0
M  V30 3143 H 304.012 -4.30165 -4.89695 0
M  V30 3144 N 307.445 0.0818655 -1.57387 0
M  V30 3145 C 308.408 1.08265 -2.02018 0
M  V30 3146 C 309.408 1.32183 -0.915664 0
M  V30 3147 O 310.598 1.28073 -1.18081 0
M  V30 3148 C 307.73 2.42871 -2.39221 0
M  V30 3149 H 308.923 0.698204 -2.91659 0
M  V30 3150 H 306.476 0.327303 -1.52835 0
M  V30 3151 H 307.211 2.86167 -1.52575 0
M  V30 3152 H 306.996 2.26855 -3.19811 0
M  V30 3153 H 308.486 3.14826 -2.74362 0
M  V30 3154 N 308.923 1.53595 0.353017 0
M  V30 3155 C 310.17 1.70385 1.09431 0
M  V30 3156 C 310.498 0.462113 1.88931 0
M  V30 3157 O 309.753 -0.556074 1.87633 0
M  V30 3158 C 310.052 2.91313 2.07054 0
M  V30 3159 C 309.718 4.27308 1.43939 0
M  V30 3160 C 308.38 4.64287 1.26454 0
M  V30 3161 C 310.732 5.11829 0.983883 0
M  V30 3162 C 308.06 5.83412 0.620226 0
M  V30 3163 C 310.412 6.31611 0.353516 0
M  V30 3164 C 309.076 6.67293 0.166272 0
M  V30 3165 H 308.346 0.623484 0.400436 0
M  V30 3166 H 310.993 1.87799 0.374655 0
M  V30 3167 H 309.298 2.68463 2.85368 0
M  V30 3168 H 310.995 3.01497 2.64387 0
M  V30 3169 H 307.585 3.98198 1.58543 0
M  V30 3170 H 311.769 4.838 1.10685 0
M  V30 3171 H 307.025 6.09639 0.463681 0
M  V30 3172 H 311.199 6.964 -0.00757555 0
M  V30 3173 H 308.826 7.59461 -0.335047 0
M  V30 3174 N 310.401 -0.613514 1.45168 0
M  V30 3175 C 311.626 -1.40437 1.52618 0
M  V30 3176 C 312.051 -1.87438 0.157707 0
M  V30 3177 O 311.409 -1.59791 -0.856537 0
M  V30 3178 C 311.457 -2.58894 2.51011 0
M  V30 3179 O 310.561 -3.59326 2.02382 0
M  V30 3180 H 309.902 -0.419506 0.514695 0
M  V30 3181 H 312.432 -0.747215 1.90467 0
M  V30 3182 H 312.442 -3.06214 2.69624 0
M  V30 3183 H 311.117 -2.24032 3.50403 0
M  V30 3184 H 309.694 -3.18695 1.93618 0
M  V30 3185 N 311.879 -1.3236 -0.855495 0
M  V30 3186 C 312.842 -1.21164 -1.94556 0
M  V30 3187 C 313.842 -0.134908 -1.60233 0
M  V30 3188 O 315.032 -0.385249 -1.69887 0
M  V30 3189 C 312.164 -0.863192 -3.29791 0
M  V30 3190 H 313.357 -2.18038 -2.05911 0
M  V30 3191 H 310.91 -1.16179 -1.04557 0
M  V30 3192 H 311.645 0.103769 -3.24134 0
M  V30 3193 H 311.43 -1.64166 -3.56078 0
M  V30 3194 H 312.92 -0.809156 -4.09686 0
M  V30 3195 N 313.357 1.07166 -1.15556 0
M  V30 3196 C 314.585 1.83514 -0.955519 0
M  V30 3197 C 315 1.82163 0.49621 0
M  V30 3198 O 314.357 1.23441 1.34419 0
M  V30 3199 C 314.408 3.30515 -1.46432 0
M  V30 3200 O 314.129 3.31937 -2.85918 0
M  V30 3201 C 315.63 4.23625 -1.30603 0
M  V30 3202 H 312.85 0.578926 -0.339244 0
M  V30 3203 H 315.394 1.35265 -1.53374 0
M  V30 3204 H 313.549 3.76106 -0.928584 0
M  V30 3205 H 313.963 4.23794 -3.09029 0
M  V30 3206 H 315.437 5.24831 -1.71047 0
M  V30 3207 H 315.914 4.38485 -0.250441 0
M  V30 3208 H 316.52 3.83871 -1.83094 0
M  V30 3209 N 314.835 0.952656 1.25548 0
M  V30 3210 C 315.798 0.475794 2.24207 0
M  V30 3211 C 316.798 -0.419428 1.55234 0
M  V30 3212 O 317.988 -0.216994 1.72843 0
M  V30 3213 C 315.12 -0.312814 3.39462 0
M  V30 3214 H 316.313 1.34779 2.67908 0
M  V30 3215 H 313.866 0.735739 1.37901 0
M  V30 3216 H 314.601 -1.20257 3.01179 0
M  V30 3217 H 314.386 0.329404 3.90714 0
M  V30 3218 H 315.876 -0.635986 4.12729 0
M  V30 3219 N 316.313 -1.40141 0.720998 0
M  V30 3220 C 317.246 -2.2819 0.020916 0
M  V30 3221 C 318.224 -1.43633 -0.762129 0
M  V30 3222 O 319.408 -1.7304 -0.747633 0
M  V30 3223 C 316.535 -3.24281 -0.977715 0
M  V30 3224 C 315.581 -4.25548 -0.284836 0
M  V30 3225 S 316.414 -5.26247 0.991169 0
M  V30 3226 C 317.57 -6.259 -0.0052214 0
M  V30 3227 H 317.803 -2.87218 0.767649 0
M  V30 3228 H 315.336 -1.45656 0.512233 0
M  V30 3229 H 317.294 -3.80167 -1.54865 0
M  V30 3230 H 315.955 -2.643 -1.69719 0
M  V30 3231 H 315.148 -4.93154 -1.03996 0
M  V30 3232 H 314.75 -3.73389 0.213684 0
M  V30 3233 H 317.042 -6.72143 -0.850279 0
M  V30 3234 H 317.985 -7.05224 0.637599 0
M  V30 3235 H 318.393 -5.63277 -0.371366 0
M  V30 3236 N 317.792 -0.46758 -1.50504 0
M  V30 3237 C 318.755 0.317059 -2.26996 0
M  V30 3238 C 319.755 0.923513 -1.31635 0
M  V30 3239 O 320.945 0.793239 -1.55091 0
M  V30 3240 C 318.077 1.45134 -3.08462 0
M  V30 3241 H 319.27 -0.353723 -2.97807 0
M  V30 3242 H 316.823 -0.221545 -1.54722 0
M  V30 3243 H 317.558 2.15728 -2.4214 0
M  V30 3244 H 317.343 1.02232 -3.78538 0
M  V30 3245 H 318.833 2.00493 -3.66323 0
M  V30 3246 N 319.27 1.56325 -0.20005 0
M  V30 3247 C 320.218 2.20666 0.735482 0
M  V30 3248 C 321.212 1.17934 1.21605 0
M  V30 3249 O 322.418 1.36068 1.17837 0
M  V30 3250 H 318.793 0.70725 0.255542 0
M  V30 3251 H 320.764 2.9792 0.169166 0
M  V30 3252 C 319.513 2.88391 1.94232 0
M  V30 3253 H 318.836 3.67185 1.58161 0
M  V30 3254 H 320.276 3.3684 2.57517 0
M  V30 3255 C 318.735 1.89692 2.78421 0
M  V30 3256 O 319.265 1.40032 3.76502 0
M  V30 3257 N 317.471 1.57813 2.44015 0
M  V30 3258 H 317.018 1.9839 1.64314 0
M  V30 3259 H 316.976 0.920325 3.00628 0
M  V30 3260 N 320.748 -0.0735177 1.57428 0
M  V30 3261 C 321.996 -0.771472 1.86796 0
M  V30 3262 C 322.317 -1.78201 0.791804 0
M  V30 3263 O 321.587 -1.95074 -0.179718 0
M  V30 3264 H 320.167 -0.28791 0.689287 0
M  V30 3265 H 322.829 -0.0500161 1.94836 0
M  V30 3266 H 321.925 -1.28874 2.8425 0
M  V30 3267 N 322.226 -1.5378 -0.344866 0
M  V30 3268 C 323.503 -1.61589 -1.10219 0
M  V30 3269 C 323.883 -0.436316 -2.06542 0
M  V30 3270 O 323.231 0.571543 -2.21237 0
M  V30 3271 C 323.441 -2.97602 -1.82301 0
M  V30 3272 C 324.789 -3.5291 -2.36093 0
M  V30 3273 O 325.813 -2.99768 -1.924 0
M  V30 3274 O 324.672 -4.45859 -3.16026 0
M  V30 3275 H 321.766 -0.653522 -0.506792 0
M  V30 3276 H 324.312 -1.66126 -0.346465 0
M  V30 3277 H 323.084 -3.74893 -1.12121 0
M  V30 3278 H 322.707 -2.9665 -2.64735 0
M  V30 3279 N 323.704 0.605807 -1.45491 0
M  V30 3280 C 324.651 1.7164 -1.54299 0
M  V30 3281 C 325.621 1.61486 -0.388761 0
M  V30 3282 O 326.806 1.81039 -0.602445 0
M  V30 3283 C 323.946 3.09953 -1.51734 0
M  V30 3284 C 323.059 3.309 -2.77721 0
M  V30 3285 C 322.194 4.59329 -2.66816 0
M  V30 3286 C 321.233 4.7354 -3.87848 0
M  V30 3287 N 320.37 5.9327 -3.75467 0
M  V30 3288 H 325.21 1.63449 -2.49176 0
M  V30 3289 H 322.747 0.796957 -1.23641 0
M  V30 3290 H 324.705 3.89977 -1.48235 0
M  V30 3291 H 323.335 3.17098 -0.604068 0
M  V30 3292 H 322.387 2.44639 -2.913 0
M  V30 3293 H 323.699 3.37274 -3.67488 0
M  V30 3294 H 322.853 5.4755 -2.61292 0
M  V30 3295 H 321.592 4.55355 -1.74651 0
M  V30 3296 H 320.597 3.83741 -3.93729 0
M  V30 3297 H 321.822 4.79309 -4.81082 0
M  V30 3298 H 319.768 5.90338 -2.86072 0
M  V30 3299 H 319.685 6.00811 -4.5887 0
M  V30 3300 H 320.953 6.83984 -3.73879 0
M  V30 3301 N 325.182 1.32811 0.848464 0
M  V30 3302 C 326.145 1.22194 1.9391 0
M  V30 3303 C 327.145 0.143404 1.60159 0
M  V30 3304 O 328.335 0.394253 1.6968 0
M  V30 3305 C 325.467 0.88067 3.29328 0
M  V30 3306 H 326.66 2.19127 2.04752 0
M  V30 3307 H 324.213 1.16731 1.0394 0
M  V30 3308 H 324.948 -0.0865776 3.24184 0
M  V30 3309 H 324.733 1.66052 3.55203 0
M  V30 3310 H 326.223 0.830871 4.09251 0
M  V30 3311 N 326.66 -1.06551 1.16123 0
M  V30 3312 C 327.89 -1.8274 0.963838 0
M  V30 3313 C 328.298 -1.82712 -0.491228 0
M  V30 3314 O 327.641 -1.24294 -1.35265 0
M  V30 3315 C 327.703 -3.3065 1.41106 0
M  V30 3316 C 327.367 -3.54384 2.88549 0
M  V30 3317 C 328.364 -3.4765 3.86569 0
M  V30 3318 C 326.049 -3.81789 3.26408 0
M  V30 3319 C 328.043 -3.67982 5.2045 0
M  V30 3320 C 325.73 -4.01772 4.60459 0
M  V30 3321 C 326.728 -3.94866 5.57288 0
M  V30 3322 O 326.416 -4.14306 6.88916 0
M  V30 3323 H 326.148 -0.583136 0.341948 0
M  V30 3324 H 328.702 -1.35351 1.54497 0
M  V30 3325 H 326.932 -3.78887 0.773394 0
M  V30 3326 H 328.621 -3.88324 1.1815 0
M  V30 3327 H 329.387 -3.2647 3.58667 0
M  V30 3328 H 325.266 -3.86276 2.51619 0
M  V30 3329 H 328.81 -3.62507 5.96015 0
M  V30 3330 H 324.707 -4.2244 4.88072 0
M  V30 3331 H 325.475 -4.31609 6.95454 0
M  V30 3332 N 328.138 -0.959301 -1.25041 0
M  V30 3333 C 329.048 -0.489994 -2.29426 0
M  V30 3334 C 330.064 0.444944 -1.68215 0
M  V30 3335 O 331.24 0.320046 -1.98841 0
M  V30 3336 C 328.305 0.220309 -3.45999 0
M  V30 3337 C 327.366 -0.753418 -4.22637 0
M  V30 3338 C 326.599 -0.076918 -5.33645 0
M  V30 3339 O 326.822 1.13649 -5.58963 0
M  V30 3340 O 325.756 -0.764824 -5.97021 0
M  V30 3341 H 329.582 -1.35755 -2.71669 0
M  V30 3342 H 327.167 -0.725961 -1.30576 0
M  V30 3343 H 329.049 0.619677 -4.16819 0
M  V30 3344 H 327.724 1.06296 -3.0575 0
M  V30 3345 H 326.631 -1.20308 -3.54227 0
M  V30 3346 H 327.964 -1.56423 -4.66683 0
M  V30 3347 N 329.616 1.39756 -0.72842 0
M  V30 3348 C 330.863 2.00645 -0.273487 0
M  V30 3349 C 331.191 1.57786 1.13727 0
M  V30 3350 O 330.446 0.794886 1.7883 0
M  V30 3351 C 330.745 3.56002 -0.315776 0
M  V30 3352 C 330.411 4.18489 -1.67863 0
M  V30 3353 C 329.073 4.3527 -2.05166 0
M  V30 3354 C 331.425 4.53219 -2.57375 0
M  V30 3355 C 328.753 4.84069 -3.31503 0
M  V30 3356 C 331.105 5.03423 -3.83077 0
M  V30 3357 C 329.769 5.18413 -4.20481 0
M  V30 3358 H 329.039 0.734211 -0.100076 0
M  V30 3359 H 331.686 1.6718 -0.933972 0
M  V30 3360 H 329.991 3.89452 0.428285 0
M  V30 3361 H 331.688 4.00963 0.0542575 0
M  V30 3362 H 328.278 4.05824 -1.37858 0
M  V30 3363 H 332.462 4.39878 -2.29827 0
M  V30 3364 H 327.718 4.93859 -3.60435 0
M  V30 3365 H 331.892 5.2927 -4.52599 0
M  V30 3366 H 329.519 5.55987 -5.18443 0
M  V30 3367 N 331.094 0.475555 1.50254 0
M  V30 3368 C 332.322 -0.0754493 2.06762 0
M  V30 3369 C 332.737 -1.33111 1.33891 0
M  V30 3370 O 332.094 -1.77846 0.40952 0
M  V30 3371 C 332.145 -0.359008 3.59713 0
M  V30 3372 O 331.866 0.846851 4.29837 0
M  V30 3373 C 333.367 -0.956484 4.32858 0
M  V30 3374 H 330.587 0.00907525 0.670939 0
M  V30 3375 H 333.131 0.665618 1.93364 0
M  V30 3376 H 331.286 -1.05001 3.72899 0
M  V30 3377 H 331.7 0.594162 5.21124 0
M  V30 3378 H 333.174 -1.10463 5.40834 0
M  V30 3379 H 333.651 -1.94775 3.93649 0
M  V30 3380 H 334.257 -0.303723 4.24214 0
M  V30 3381 N 332.573 -1.56217 0.208337 0
M  V30 3382 C 333.798 -2.02782 -0.435222 0
M  V30 3383 C 334.223 -1.08738 -1.53485 0
M  V30 3384 O 333.581 -0.0731855 -1.81152 0
M  V30 3385 C 333.629 -3.47687 -0.956335 0
M  V30 3386 O 332.733 -3.56773 -2.06849 0
M  V30 3387 H 332.074 -0.656403 -0.100158 0
M  V30 3388 H 334.604 -2.02033 0.3231 0
M  V30 3389 H 334.614 -3.87745 -1.26955 0
M  V30 3390 H 333.289 -4.15624 -0.15143 0
M  V30 3391 H 331.866 -3.28597 -1.76292 0
M  V30 3392 N 334.051 0.0651679 -1.57465 0
M  V30 3393 C 335.014 1.06117 -2.03155 0
M  V30 3394 C 336.014 1.31204 -0.929632 0
M  V30 3395 O 337.204 1.26813 -1.19432 0
M  V30 3396 C 334.336 2.4032 -2.41783 0
M  V30 3397 H 335.529 0.667231 -2.92383 0
M  V30 3398 H 333.082 0.311075 -1.53173 0
M  V30 3399 H 333.817 2.84532 -1.55601 0
M  V30 3400 H 333.602 2.23451 -3.22199 0
M  V30 3401 H 335.092 3.11898 -2.77685 0
M  V30 3402 N 335.529 1.53961 0.336706 0
M  V30 3403 C 336.757 1.75483 1.09605 0
M  V30 3404 C 337.172 0.4972 1.82136 0
M  V30 3405 O 336.529 -0.53149 1.74589 0
M  V30 3406 C 336.58 2.93943 2.10428 0
M  V30 3407 O 336.301 4.14842 1.40846 0
M  V30 3408 C 337.802 3.27571 2.98684 0
M  V30 3409 H 335.022 0.586166 0.326574 0
M  V30 3410 H 337.566 2.00808 0.38683 0
M  V30 3411 H 335.721 2.70929 2.76905 0
M  V30 3412 H 336.135 4.81383 2.08255 0
M  V30 3413 H 337.609 4.13791 3.6535 0
M  V30 3414 H 338.086 2.44168 3.65074 0
M  V30 3415 H 338.692 3.52615 2.37787 0
M  V30 3416 N 337.007 -0.598083 1.45811 0
M  V30 3417 C 337.939 -1.72231 1.51225 0
M  V30 3418 C 338.952 -1.57757 0.402059 0
M  V30 3419 O 340.141 -1.65464 0.669624 0
M  V30 3420 C 337.241 -3.10331 1.3619 0
M  V30 3421 C 336.414 -3.50955 2.61054 0
M  V30 3422 C 335.473 -4.68055 2.40439 0
M  V30 3423 O 334.499 -4.74691 3.14097 0
M  V30 3424 N 335.701 -5.61941 1.45612 0
M  V30 3425 H 338.466 -1.68046 2.48154 0
M  V30 3426 H 336.027 -0.783637 1.41671 0
M  V30 3427 H 338.019 -3.86439 1.20195 0
M  V30 3428 H 336.589 -3.0897 0.475015 0
M  V30 3429 H 335.809 -2.64711 2.92099 0
M  V30 3430 H 337.097 -3.74858 3.44034 0
M  V30 3431 H 336.495 -5.59301 0.848431 0
M  V30 3432 H 335.052 -6.37542 1.35585 0
M  V30 3433 N 338.485 -1.33259 -0.841409 0
M  V30 3434 C 339.71 -1.2775 -1.63385 0
M  V30 3435 C 340.135 0.149188 -1.87507 0
M  V30 3436 O 339.493 1.10498 -1.43736 0
M  V30 3437 C 339.541 -2.05571 -2.96265 0
M  V30 3438 O 338.645 -1.41257 -3.87453 0
M  V30 3439 H 337.986 -0.439627 -0.497618 0
M  V30 3440 H 340.516 -1.75782 -1.04699 0
M  V30 3441 H 340.526 -2.16241 -3.45982 0
M  V30 3442 H 339.201 -3.09309 -2.7803 0
M  V30 3443 H 337.778 -1.39217 -3.45938 0
M  V30 3444 N 339.963 1.05934 -1.16686 0
M  V30 3445 C 341.24 1.75643 -0.860747 0
M  V30 3446 C 341.62 2.01144 0.640641 0
M  V30 3447 O 340.968 1.64147 1.58959 0
M  V30 3448 C 341.178 3.05493 -1.68745 0
M  V30 3449 C 342.526 3.79581 -1.90271 0
M  V30 3450 O 343.55 3.15344 -1.65641 0
M  V30 3451 O 342.409 4.9499 -2.31618 0
M  V30 3452 H 339.503 0.763426 -0.317977 0
M  V30 3453 H 342.049 1.1217 -1.27342 0
M  V30 3454 H 340.821 2.8264 -2.70611 0
M  V30 3455 H 340.444 3.76702 -1.27206 0
M  V30 3456 N 341.441 0.965919 1.2453 0
M  V30 3457 C 342.373 0.452465 2.2469 0
M  V30 3458 C 343.386 -0.437821 1.56802 0
M  V30 3459 O 344.575 -0.244283 1.76821 0
M  V30 3460 C 341.675 -0.366258 3.36915 0
M  V30 3461 C 340.848 0.513701 4.34373 0
M  V30 3462 C 339.907 -0.248716 5.25612 0
M  V30 3463 O 338.933 0.356745 5.68081 0
M  V30 3464 N 340.135 -1.53877 5.59734 0
M  V30 3465 H 342.9 1.31361 2.69378 0
M  V30 3466 H 340.461 0.837541 1.38553 0
M  V30 3467 H 342.453 -0.884297 3.94921 0
M  V30 3468 H 341.023 -1.12832 2.91526 0
M  V30 3469 H 340.243 1.21273 3.75082 0
M  V30 3470 H 341.531 1.11391 4.96457 0
M  V30 3471 H 340.929 -2.05243 5.27154 0
M  V30 3472 H 339.486 -2.00254 6.20275 0
M  V30 3473 N 342.919 -1.39368 0.735821 0
M  V30 3474 C 344.147 -2.04795 0.294393 0
M  V30 3475 C 344.562 -1.55478 -1.07107 0
M  V30 3476 O 343.919 -0.720038 -1.67695 0
M  V30 3477 C 343.97 -3.6035 0.288071 0
M  V30 3478 O 343.691 -4.07852 1.59963 0
M  V30 3479 C 345.192 -4.42976 -0.169422 0
M  V30 3480 H 342.412 -0.658571 0.128551 0
M  V30 3481 H 344.956 -1.78399 0.999701 0
M  V30 3482 H 343.111 -3.85645 -0.368355 0
M  V30 3483 H 343.525 -5.02181 1.51375 0
M  V30 3484 H 344.999 -5.51864 -0.122687 0
M  V30 3485 H 345.476 -4.22068 -1.21472 0
M  V30 3486 H 346.082 -4.22832 0.457469 0
M  V30 3487 N 344.397 -0.483516 -1.5 0
M  V30 3488 C 345.344 0.304164 -2.28787 0
M  V30 3489 C 346.314 0.976114 -1.34392 0
M  V30 3490 O 347.499 0.986156 -1.63339 0
M  V30 3491 C 344.639 1.37298 -3.16612 0
M  V30 3492 C 343.752 0.714561 -4.26049 0
M  V30 3493 C 342.887 1.76232 -5.01114 0
M  V30 3494 C 341.926 1.08483 -6.0241 0
M  V30 3495 N 341.063 2.076 -6.70706 0
M  V30 3496 H 345.903 -0.373981 -2.95644 0
M  V30 3497 H 343.44 -0.196275 -1.45785 0
M  V30 3498 H 345.398 2.00445 -3.65893 0
M  V30 3499 H 344.028 2.02012 -2.51776 0
M  V30 3500 H 343.08 -0.0297798 -3.80388 0
M  V30 3501 H 344.392 0.180383 -4.98474 0
M  V30 3502 H 343.546 2.46929 -5.54176 0
M  V30 3503 H 342.285 2.33033 -4.28424 0
M  V30 3504 H 341.29 0.363545 -5.48597 0
M  V30 3505 H 342.515 0.523551 -6.77079 0
M  V30 3506 H 340.461 2.63394 -6.00799 0
M  V30 3507 H 340.378 1.59201 -7.39047 0
M  V30 3508 H 341.646 2.77639 -7.2838 0
M  V30 3509 N 345.875 1.56104 -0.216619 0
M  V30 3510 C 347.121 1.98466 0.417033 0
M  V30 3511 C 347.454 1.10403 1.59765 0
M  V30 3512 O 346.729 0.160632 1.93836 0
M  V30 3513 C 347.012 3.49769 0.85637 0
M  V30 3514 C 346.865 4.48606 -0.327546 0
M  V30 3515 C 348.184 4.05339 1.7143 0
M  V30 3516 H 345.303 0.721551 0.150112 0
M  V30 3517 H 347.945 1.87423 -0.311864 0
M  V30 3518 H 346.095 3.5931 1.47745 0
M  V30 3519 H 347.767 4.5108 -0.965618 0
M  V30 3520 H 346.01 4.22682 -0.975805 0
M  V30 3521 H 346.681 5.51995 0.0227149 0
M  V30 3522 H 349.157 3.98712 1.19031 0
M  V30 3523 H 348.033 5.11533 1.99061 0
M  V30 3524 H 348.294 3.51918 2.67593 0
M  V30 3525 N 347.353 -0.0568162 1.57498 0
M  V30 3526 C 348.285 -1.09292 2.01464 0
M  V30 3527 C 349.298 -1.34112 0.922913 0
M  V30 3528 O 350.487 -1.32089 1.20062 0
M  V30 3529 C 347.587 -2.44068 2.35125 0
M  V30 3530 C 346.76 -2.38995 3.66333 0
M  V30 3531 C 345.819 -3.55997 3.87495 0
M  V30 3532 O 344.845 -3.36746 4.58901 0
M  V30 3533 N 346.047 -4.76888 3.30996 0
M  V30 3534 H 348.812 -0.718386 2.90963 0
M  V30 3535 H 346.373 -0.245235 1.60032 0
M  V30 3536 H 348.365 -3.21011 2.46443 0
M  V30 3537 H 346.935 -2.73468 1.5144 0
M  V30 3538 H 346.155 -1.47336 3.65631 0
M  V30 3539 H 347.443 -2.3272 4.52458 0
M  V30 3540 H 346.841 -4.95431 2.73065 0
M  V30 3541 H 345.398 -5.51291 3.47738 0
M  V30 3542 N 348.832 -1.54138 -0.328536 0
M  V30 3543 C 350.06 -1.76062 -1.08673 0
M  V30 3544 C 350.475 -0.506852 -1.81869 0
M  V30 3545 O 349.832 0.522223 -1.74869 0
M  V30 3546 C 349.883 -2.95054 -2.08866 0
M  V30 3547 O 349.604 -4.15583 -1.38644 0
M  V30 3548 C 351.105 -3.2915 -2.96943 0
M  V30 3549 H 348.325 -0.587889 -0.323461 0
M  V30 3550 H 350.869 -2.0101 -0.376175 0
M  V30 3551 H 349.024 -2.72394 -2.75464 0
M  V30 3552 H 349.438 -4.82481 -2.05699 0
M  V30 3553 H 350.912 -4.15723 -3.63151 0
M  V30 3554 H 351.389 -2.461 -3.63774 0
M  V30 3555 H 351.995 -3.53871 -2.35914 0
M  V30 3556 N 350.31 0.590341 -1.46126 0
M  V30 3557 C 351.273 1.68194 -1.55703 0
M  V30 3558 C 352.273 1.54808 -0.434868 0
M  V30 3559 O 353.463 1.59564 -0.698928 0
M  V30 3560 C 350.595 3.07575 -1.47005 0
M  V30 3561 H 351.788 1.61064 -2.52979 0
M  V30 3562 H 349.341 0.807541 -1.33823 0
M  V30 3563 H 350.076 3.20268 -0.509785 0
M  V30 3564 H 349.861 3.187 -2.28414 0
M  V30 3565 H 351.351 3.87055 -1.56776 0
M  V30 3566 N 351.788 1.33704 0.83433 0
M  V30 3567 C 353.037 1.24763 1.58484 0
M  V30 3568 C 353.35 -0.183775 1.94735 0
M  V30 3569 O 354.556 -0.395234 2.68608 0
M  V30 3570 C 353.012 2.18638 2.85876 0
M  V30 3571 C 352.62 3.66974 2.56971 0
M  V30 3572 C 354.364 2.18581 3.63899 0
M  V30 3573 C 352.271 4.5275 3.80488 0
M  V30 3574 H 351.201 0.463425 0.594772 0
M  V30 3575 H 353.852 1.58797 0.919551 0
M  V30 3576 H 352.234 1.77542 3.5397 0
M  V30 3577 H 353.408 4.16538 1.9706 0
M  V30 3578 H 351.723 3.69366 1.92244 0
M  V30 3579 H 354.32 2.79894 4.55591 0
M  V30 3580 H 354.663 1.18207 3.99165 0
M  V30 3581 H 355.196 2.58062 3.02735 0
M  V30 3582 H 351.935 5.54017 3.5035 0
M  V30 3583 H 351.455 4.07927 4.39722 0
M  V30 3584 H 353.134 4.66784 4.4802 0
M  V30 3585 N 353.266 -1.05314 1.17247 0
M  V30 3586 C 354.216 -2.11313 0.856196 0
M  V30 3587 C 355.2 -1.60013 -0.168694 0
M  V30 3588 O 356.392 -1.76968 0.0335624 0
M  V30 3589 C 353.521 -3.41301 0.369917 0
M  V30 3590 C 352.607 -3.99401 1.42616 0
M  V30 3591 N 352.998 -4.31481 2.63928 0
M  V30 3592 C 351.296 -4.27126 1.28373 0
M  V30 3593 C 351.997 -4.77799 3.31787 0
M  V30 3594 N 350.973 -4.77843 2.59166 0
M  V30 3595 H 354.775 -2.33976 1.77856 0
M  V30 3596 H 352.289 -1.2295 1.06099 0
M  V30 3597 H 354.286 -4.16713 0.124897 0
M  V30 3598 H 352.946 -3.20072 -0.546253 0
M  V30 3599 H 353.957 -4.21519 3.00902 0
M  V30 3600 H 350.634 -4.15289 0.429111 0
M  V30 3601 H 352.024 -5.11743 4.35395 0
M  V30 3602 N 354.744 -0.972509 -1.24016 0
M  V30 3603 C 355.692 -0.498562 -2.27194 0
M  V30 3604 C 356.686 0.440372 -1.63576 0
M  V30 3605 O 357.892 0.315133 -1.7722 0
M  V30 3606 H 354.267 -0.142775 -0.738322 0
M  V30 3607 H 356.238 -1.38065 -2.64539 0
M  V30 3608 C 354.987 0.191072 -3.47175 0
M  V30 3609 H 354.31 -0.522318 -3.96373 0
M  V30 3610 H 355.75 0.486445 -4.212 0
M  V30 3611 C 354.209 1.41967 -3.05527 0
M  V30 3612 O 354.739 2.51642 -3.13112 0
M  V30 3613 N 352.945 1.28746 -2.60524 0
M  V30 3614 H 352.492 0.395089 -2.54552 0
M  V30 3615 H 352.45 2.11061 -2.33025 0
M  V30 3616 N 356.222 1.38976 -0.743202 0
M  V30 3617 C 357.185 2.28901 -0.117014 0
M  V30 3618 C 358.185 1.46698 0.658503 0
M  V30 3619 O 359.375 1.67274 0.486305 0
M  V30 3620 C 356.507 3.30309 0.84315 0
M  V30 3621 H 357.7 2.8578 -0.909373 0
M  V30 3622 H 355.253 1.47761 -0.509547 0
M  V30 3623 H 355.988 2.785 1.66157 0
M  V30 3624 H 355.773 3.91029 0.289594 0
M  V30 3625 H 357.263 3.97577 1.2776 0
M  V30 3626 N 357.7 0.491464 1.49741 0
M  V30 3627 C 358.948 -0.0563141 2.02022 0
M  V30 3628 C 359.269 -1.38363 1.37407 0
M  V30 3629 O 358.539 -1.88702 0.526166 0
M  V30 3630 H 357.119 -0.0238014 0.746621 0
M  V30 3631 H 359.781 0.646533 1.83864 0
M  V30 3632 H 358.877 -0.192967 3.11503 0
M  V30 3633 N 359.178 -1.55987 0.224894 0
M  V30 3634 C 360.111 -2.16413 -0.723929 0
M  V30 3635 C 361.089 -1.10952 -1.18863 0
M  V30 3636 O 362.273 -1.39225 -1.27077 0
M  V30 3637 C 359.4 -2.74711 -1.98121 0
M  V30 3638 C 358.446 -3.9303 -1.6562 0
M  V30 3639 S 359.279 -5.29817 -0.778058 0
M  V30 3640 C 360.435 -5.91555 -2.04483 0
M  V30 3641 H 360.668 -2.96555 -0.210347 0
M  V30 3642 H 358.201 -1.54397 0.00955457 0
M  V30 3643 H 360.159 -3.08938 -2.70311 0
M  V30 3644 H 358.82 -1.94555 -2.46591 0
M  V30 3645 H 358.013 -4.32334 -2.59043 0
M  V30 3646 H 357.615 -3.59966 -1.01491 0
M  V30 3647 H 359.907 -6.07732 -2.99446 0
M  V30 3648 H 360.85 -6.87498 -1.69563 0
M  V30 3649 H 361.258 -5.20419 -2.18688 0
M  V30 3650 N 360.656 0.0484629 -1.57525 0
M  V30 3651 C 361.904 0.741657 -1.88 0
M  V30 3652 C 362.225 1.76918 -0.820054 0
M  V30 3653 O 361.495 1.95335 0.148661 0
M  V30 3654 H 360.075 0.276908 -0.69378 0
M  V30 3655 H 362.737 0.019013 -1.94891 0
M  V30 3656 H 361.833 1.24336 -2.86264 0
M  V30 3657 N 362.134 1.5431 0.320358 0
M  V30 3658 C 363.38 1.72924 1.05949 0
M  V30 3659 C 363.713 0.503185 1.87568 0
M  V30 3660 O 362.988 -0.499839 1.87968 0
M  V30 3661 C 363.271 3.00676 1.98156 0
M  V30 3662 C 363.124 4.3354 1.19845 0
M  V30 3663 C 364.443 3.24198 2.9763 0
M  V30 3664 H 361.562 0.629195 0.383774 0
M  V30 3665 H 364.204 1.87008 0.335854 0
M  V30 3666 H 362.354 2.888 2.59859 0
M  V30 3667 H 364.026 4.57305 0.605773 0
M  V30 3668 H 362.269 4.309 0.500784 0
M  V30 3669 H 362.94 5.19156 1.87567 0
M  V30 3670 H 365.416 3.35557 2.4605 0
M  V30 3671 H 364.292 4.14938 3.59329 0
M  V30 3672 H 364.553 2.41577 3.7026 0
M  V30 3673 N 363.613 -0.582584 1.46437 0
M  V30 3674 C 364.861 -1.33814 1.51453 0
M  V30 3675 C 365.182 -1.94277 0.167792 0
M  V30 3676 O 364.452 -1.78566 -0.805677 0
M  V30 3677 H 363.032 -0.496838 0.557818 0
M  V30 3678 H 365.694 -0.682281 1.82568 0
M  V30 3679 H 364.79 -2.14479 2.26728 0
M  V30 3680 N 365.091 -1.34144 -0.827227 0
M  V30 3681 C 366.337 -1.26446 -1.58554 0
M  V30 3682 C 366.67 0.1664 -1.93486 0
M  V30 3683 O 365.945 1.1107 -1.59667 0
M  V30 3684 C 366.228 -2.15111 -2.8879 0
M  V30 3685 C 366.081 -3.66712 -2.60465 0
M  V30 3686 C 367.4 -2.03311 -3.90324 0
M  V30 3687 H 364.519 -0.46067 -0.575284 0
M  V30 3688 H 367.161 -1.64356 -0.953269 0
M  V30 3689 H 365.311 -1.8291 -3.42748 0
M  V30 3690 H 366.983 -4.09259 -2.1285 0
M  V30 3691 H 365.226 -3.88014 -1.93978 0
M  V30 3692 H 365.897 -4.24112 -3.53317 0
M  V30 3693 H 368.373 -2.31574 -3.45706 0
M  V30 3694 H 367.249 -2.67582 -4.79261 0
M  V30 3695 H 367.51 -1.00879 -4.30437 0
M  V30 3696 N 366.569 1.04691 -1.17803 0
M  V30 3697 C 367.817 1.7743 -0.967617 0
M  V30 3698 C 368.138 1.88359 0.504574 0
M  V30 3699 O 367.408 1.40402 1.36617 0
M  V30 3700 H 365.988 0.657242 -0.355024 0
M  V30 3701 H 368.65 1.2638 -1.48371 0
M  V30 3702 H 367.746 2.78924 -1.40027 0
M  V30 3703 N 368.047 0.979072 1.23499 0
M  V30 3704 C 368.995 0.510604 2.26926 0
M  V30 3705 C 369.989 -0.431691 1.63807 0
M  V30 3706 O 371.195 -0.30573 1.77385 0
M  V30 3707 H 367.57 0.146688 0.737554 0
M  V30 3708 H 369.541 1.39466 2.63803 0
M  V30 3709 C 368.29 -0.172658 3.47271 0
M  V30 3710 H 367.613 0.543331 3.96091 0
M  V30 3711 H 369.053 -0.464101 4.21452 0
M  V30 3712 C 367.512 -1.40345 3.06276 0
M  V30 3713 O 368.042 -2.49978 3.14442 0
M  V30 3714 N 366.248 -1.27362 2.61203 0
M  V30 3715 H 365.795 -0.381584 2.54758 0
M  V30 3716 H 365.753 -2.09822 2.34141 0
M  V30 3717 N 369.525 -1.3858 0.750561 0
M  V30 3718 C 370.455 -2.33102 0.136237 0
M  V30 3719 C 371.436 -1.54713 -0.706965 0
M  V30 3720 O 372.621 -1.83043 -0.648769 0
M  V30 3721 C 369.751 -3.38882 -0.760017 0
M  V30 3722 C 368.705 -4.27995 -0.0197785 0
M  V30 3723 C 368.031 -5.24605 -1.03408 0
M  V30 3724 C 369.331 -5.09554 1.14684 0
M  V30 3725 H 371.025 -2.84726 0.925822 0
M  V30 3726 H 368.571 -1.36898 0.446654 0
M  V30 3727 H 370.524 -4.0397 -1.19943 0
M  V30 3728 H 369.248 -2.85734 -1.58189 0
M  V30 3729 H 367.907 -3.64409 0.400184 0
M  V30 3730 H 367.555 -4.67746 -1.84994 0
M  V30 3731 H 367.255 -5.85081 -0.543464 0
M  V30 3732 H 368.779 -5.9257 -1.47288 0
M  V30 3733 H 370.193 -5.67899 0.785118 0
M  V30 3734 H 368.59 -5.7925 1.56812 0
M  V30 3735 H 369.66 -4.4347 1.96118 0
M  V30 3736 N 371.003 -0.499398 -1.49478 0
M  V30 3737 C 372.231 0.0425456 -2.06856 0
M  V30 3738 C 372.646 1.30964 -1.35992 0
M  V30 3739 O 372.003 1.77172 -0.437762 0
M  V30 3740 C 372.054 0.301735 -3.60239 0
M  V30 3741 O 371.775 -0.915127 -4.28436 0
M  V30 3742 C 373.276 0.887499 -4.34325 0
M  V30 3743 H 370.496 -0.0197482 -0.670709 0
M  V30 3744 H 373.04 -0.696297 -1.92281 0
M  V30 3745 H 371.195 0.990556 -3.74522 0
M  V30 3746 H 371.609 -0.676993 -5.20113 0
M  V30 3747 H 373.083 1.01845 -5.42523 0
M  V30 3748 H 373.56 1.88488 -3.96698 0
M  V30 3749 H 374.166 0.236196 -4.24644 0
M  V30 3750 N 372.481 1.55866 -0.233164 0
M  V30 3751 C 373.73 1.97779 0.39579 0
M  V30 3752 C 374.043 1.12419 1.60066 0
M  V30 3753 O 375.249 1.44283 2.29988 0
M  V30 3754 C 373.705 3.5188 0.755556 0
M  V30 3755 C 373.313 4.45959 -0.427152 0
M  V30 3756 C 375.057 4.02479 1.34946 0
M  V30 3757 C 372.964 5.91383 -0.0443043 0
M  V30 3758 H 371.894 0.738592 0.15165 0
M  V30 3759 H 374.545 1.80486 -0.331212 0
M  V30 3760 H 372.927 3.64816 1.5403 0
M  V30 3761 H 374.101 4.44776 -1.20462 0
M  V30 3762 H 372.416 4.05765 -0.935068 0
M  V30 3763 H 375.013 5.08637 1.649 0
M  V30 3764 H 375.356 3.49014 2.26925 0
M  V30 3765 H 375.889 3.92813 0.62791 0
M  V30 3766 H 372.628 6.48857 -0.930874 0
M  V30 3767 H 372.148 5.95734 0.697238 0
M  V30 3768 H 373.827 6.45893 0.378334 0
M  V30 3769 N 373.959 -0.0401083 1.57549 0
M  V30 3770 C 375.189 -0.744115 1.92734 0
M  V30 3771 C 375.597 -1.70005 0.830348 0
M  V30 3772 O 374.94 -1.82576 -0.20286 0
M  V30 3773 C 375.002 -1.56516 3.2364 0
M  V30 3774 C 374.666 -0.7752 4.50377 0
M  V30 3775 C 375.663 -0.0803326 5.19838 0
M  V30 3776 C 373.348 -0.733002 4.96923 0
M  V30 3777 C 375.342 0.646154 6.34116 0
M  V30 3778 C 373.029 -0.00276321 6.111 0
M  V30 3779 C 374.027 0.685585 6.7955 0
M  V30 3780 O 373.715 1.40399 7.91545 0
M  V30 3781 H 373.447 -0.214861 0.640945 0
M  V30 3782 H 376.001 -0.00503675 2.05399 0
M  V30 3783 H 374.231 -2.3478 3.07271 0
M  V30 3784 H 375.92 -2.15076 3.44234 0
M  V30 3785 H 376.686 -0.104035 4.84888 0
M  V30 3786 H 372.565 -1.25827 4.43496 0
M  V30 3787 H 376.109 1.18398 6.87479 0
M  V30 3788 H 372.006 0.0229012 6.45496 0
M  V30 3789 H 372.774 1.31653 8.07843 0
M  V30 3790 N 375.437 -1.54477 -0.31217 0
M  V30 3791 C 376.848 -1.64344 -0.885891 0
M  V30 3792 C 377.199 -0.54485 -1.88483 0
M  V30 3793 O 376.324 0.320387 -2.14015 0
M  V30 3794 C 376.919 -2.97908 -1.61357 0
M  V30 3795 C 375.478 -3.09933 -2.13585 0
M  V30 3796 C 374.625 -2.59971 -0.964897 0
M  V30 3797 H 377.576 -1.58448 -0.0894528 0
M  V30 3798 H 377.597 -2.88706 -2.47848 0
M  V30 3799 H 377.109 -3.77845 -0.886277 0
M  V30 3800 H 375.21 -2.34694 -2.89395 0
M  V30 3801 H 375.323 -4.15916 -2.37804 0
M  V30 3802 H 373.687 -2.16147 -1.34731 0
M  V30 3803 H 374.47 -3.42376 -0.251742 0
M  V30 3804 N 376.915 0.57481 -1.46744 0
M  V30 3805 C 377.865 1.67838 -1.54319 0
M  V30 3806 C 378.849 1.55759 -0.40346 0
M  V30 3807 O 380.041 1.6454 -0.652347 0
M  V30 3808 C 377.17 3.06624 -1.5439 0
M  V30 3809 C 376.256 3.23971 -2.73685 0
M  V30 3810 N 376.647 3.11447 -3.9854 0
M  V30 3811 C 374.945 3.5493 -2.70075 0
M  V30 3812 C 375.646 3.31011 -4.78337 0
M  V30 3813 N 374.622 3.56533 -4.10348 0
M  V30 3814 H 378.424 1.56698 -2.48642 0
M  V30 3815 H 375.938 0.779071 -1.42493 0
M  V30 3816 H 377.935 3.85839 -1.57905 0
M  V30 3817 H 376.595 3.1889 -0.611493 0
M  V30 3818 H 377.606 2.89145 -4.29669 0
M  V30 3819 H 374.283 3.73832 -1.85893 0
M  V30 3820 H 375.673 3.26445 -5.87268 0
M  V30 3821 N 378.394 1.34581 0.820102 0
M  V30 3822 C 379.326 1.22236 1.93884 0
M  V30 3823 C 380.339 0.148776 1.62119 0
M  V30 3824 O 381.528 0.400877 1.7394 0
M  V30 3825 C 378.628 0.856542 3.27897 0
M  V30 3826 C 377.801 2.02569 3.87666 0
M  V30 3827 C 376.86 1.63782 5.00062 0
M  V30 3828 O 375.886 2.35477 5.18208 0
M  V30 3829 N 377.088 0.553611 5.77854 0
M  V30 3830 H 379.853 2.18615 2.05006 0
M  V30 3831 H 377.414 1.27573 0.99683 0
M  V30 3832 H 379.406 0.578806 4.0054 0
M  V30 3833 H 377.976 -0.0171518 3.12595 0
M  V30 3834 H 377.196 2.468 3.07382 0
M  V30 3835 H 378.484 2.80752 4.24329 0
M  V30 3836 H 377.882 -0.0423528 5.65684 0
M  V30 3837 H 376.439 0.335614 6.50935 0
M  V30 3838 N 379.872 -1.04064 1.18357 0
M  V30 3839 C 381.118 -1.77658 0.990412 0
M  V30 3840 C 381.473 -1.86446 -0.474944 0
M  V30 3841 O 380.766 -1.36153 -1.34807 0
M  V30 3842 C 380.96 -3.20634 1.57888 0
M  V30 3843 C 380.789 -3.25782 3.09994 0
M  V30 3844 C 379.559 -3.34411 3.7881 0
M  V30 3845 C 381.757 -3.13791 4.0748 0
M  V30 3846 N 379.739 -3.28809 5.18418 0
M  V30 3847 C 381.11 -3.15689 5.33611 0
M  V30 3848 C 383.165 -2.97833 3.98998 0
M  V30 3849 C 381.868 -3.03268 6.52243 0
M  V30 3850 C 383.894 -2.86759 5.17227 0
M  V30 3851 C 383.256 -2.893 6.4225 0
M  V30 3852 H 379.355 -0.661901 0.416427 0
M  V30 3853 H 381.939 -1.23968 1.50133 0
M  V30 3854 H 380.11 -3.7267 1.09414 0
M  V30 3855 H 381.842 -3.82525 1.32124 0
M  V30 3856 H 378.597 -3.40144 3.29543 0
M  V30 3857 H 379.021 -3.29448 5.91433 0
M  V30 3858 H 383.663 -2.94698 3.03171 0
M  V30 3859 H 381.381 -3.05156 7.48268 0
M  V30 3860 H 384.967 -2.75465 5.12455 0
M  V30 3861 H 383.847 -2.80818 7.32196 0
M  V30 3862 N 381.35 -0.985608 -1.22978 0
M  V30 3863 C 382.599 -0.652881 -1.90841 0
M  V30 3864 C 382.912 0.817842 -1.77681 0
M  V30 3865 O 384.118 1.26185 -2.40395 0
M  V30 3866 C 382.574 -1.11717 -3.42122 0
M  V30 3867 C 382.182 -2.6126 -3.63933 0
M  V30 3868 C 383.926 -0.85843 -4.1573 0
M  V30 3869 C 381.833 -3.0133 -5.08876 0
M  V30 3870 H 380.763 -0.240491 -0.714619 0
M  V30 3871 H 383.414 -1.1942 -1.39324 0
M  V30 3872 H 381.796 -0.504027 -3.92779 0
M  V30 3873 H 382.97 -3.27858 -3.23799 0
M  V30 3874 H 381.285 -2.84937 -3.03644 0
M  V30 3875 H 383.882 -1.13359 -5.22546 0
M  V30 3876 H 384.225 0.205461 -4.15793 0
M  V30 3877 H 384.758 -1.43341 -3.71077 0
M  V30 3878 H 381.497 -4.06864 -5.13947 0
M  V30 3879 H 381.017 -2.3943 -5.49939 0
M  V30 3880 H 382.696 -2.92224 -5.77247 0
M  V30 3881 N 382.828 1.3818 -0.7579 0
M  V30 3882 C 383.776 2.32277 -0.122482 0
M  V30 3883 C 384.77 1.54238 0.700505 0
M  V30 3884 O 385.976 1.69737 0.599119 0
M  V30 3885 H 382.351 0.751712 -0.0208143 0
M  V30 3886 H 384.322 2.83469 -0.932099 0
M  V30 3887 C 383.071 3.39447 0.753076 0
M  V30 3888 H 382.394 3.99591 0.129184 0
M  V30 3889 H 383.834 4.07684 1.16489 0
M  V30 3890 C 382.293 2.78375 1.8976 0
M  V30 3891 O 382.823 2.68025 2.99208 0
M  V30 3892 N 381.029 2.36121 1.69397 0
M  V30 3893 H 380.576 2.4474 0.803762 0
M  V30 3894 H 380.534 1.95602 2.46145 0
M  V30 3895 N 384.306 0.507319 1.49211 0
M  V30 3896 C 385.236 -0.256939 2.32082 0
M  V30 3897 C 386.217 -0.956609 1.40652 0
M  V30 3898 O 387.402 -0.946788 1.69557 0
M  V30 3899 C 384.532 -1.31802 3.21318 0
M  V30 3900 C 383.486 -0.737855 4.21592 0
M  V30 3901 C 382.812 -1.89992 4.99807 0
M  V30 3902 C 384.112 0.275325 5.21574 0
M  V30 3903 H 385.806 0.434798 2.96226 0
M  V30 3904 H 383.352 0.210546 1.42452 0
M  V30 3905 H 385.305 -1.86045 3.78107 0
M  V30 3906 H 384.029 -2.03903 2.5513 0
M  V30 3907 H 382.688 -0.217126 3.65956 0
M  V30 3908 H 382.336 -2.60877 4.30061 0
M  V30 3909 H 382.036 -1.51777 5.6766 0
M  V30 3910 H 383.56 -2.44657 5.59442 0
M  V30 3911 H 384.974 -0.179193 5.7302 0
M  V30 3912 H 383.371 0.573649 5.97352 0
M  V30 3913 H 384.441 1.18903 4.70096 0
M  V30 3914 N 385.784 -1.5574 0.241426 0
M  V30 3915 C 387.2 -1.59196 -0.113548 0
M  V30 3916 C 387.4 -1.25852 -1.57364 0
M  V30 3917 O 386.456 -1.00322 -2.31715 0
M  V30 3918 C 387.769 -2.99814 0.230695 0
M  V30 3919 C 389.317 -3.12513 0.174547 0
M  V30 3920 C 389.792 -4.55342 0.492744 0
M  V30 3921 N 391.283 -4.61076 0.443043 0
M  V30 3922 C 392.018 -5.6956 0.662484 0
M  V30 3923 N 391.514 -6.86328 0.944761 0
M  V30 3924 N 393.307 -5.58957 0.593564 0
M  V30 3925 H 385.458 -1.75685 1.19368 0
M  V30 3926 H 387.721 -0.81756 0.479896 0
M  V30 3927 H 387.427 -3.28932 1.24485 0
M  V30 3928 H 387.301 -3.74568 -0.444833 0
M  V30 3929 H 389.688 -2.83179 -0.830277 0
M  V30 3930 H 389.769 -2.40045 0.883845 0
M  V30 3931 H 389.413 -4.85396 1.4951 0
M  V30 3932 H 389.343 -5.26062 -0.23797 0
M  V30 3933 H 391.834 -3.77179 0.233374 0
M  V30 3934 H 392.147 -7.64935 1.09977 0
M  V30 3935 H 390.492 -6.88025 0.982175 0
M  V30 3936 H 393.683 -4.66611 0.373123 0
M  V30 3937 H 393.856 -6.43433 0.767981 0
M  V30 3938 N 387.262 0.0317525 -1.57568 0
M  V30 3939 C 388.49 0.734949 -1.93407 0
M  V30 3940 C 388.905 1.69036 -0.84096 0
M  V30 3941 O 388.262 1.81582 0.182836 0
M  V30 3942 C 388.313 1.49432 -3.29169 0
M  V30 3943 O 388.034 0.577261 -4.3428 0
M  V30 3944 C 389.535 2.29492 -3.79273 0
M  V30 3945 H 386.755 0.206706 -0.638368 0
M  V30 3946 H 389.299 -0.00992046 -2.04498 0
M  V30 3947 H 387.454 2.1911 -3.19483 0
M  V30 3948 H 387.868 1.10952 -5.1263 0
M  V30 3949 H 389.342 2.78172 -4.76785 0
M  V30 3950 H 389.819 3.10794 -3.10328 0
M  V30 3951 H 390.425 1.64894 -3.92033 0
M  V30 3952 N 388.74 1.54641 0.303973 0
M  V30 3953 C 389.688 1.86137 1.39484 0
M  V30 3954 C 390.682 0.734854 1.52631 0
M  V30 3955 O 391.888 0.918803 1.54784 0
M  V30 3956 H 388.263 0.590324 0.465856 0
M  V30 3957 H 390.234 2.77324 1.10154 0
M  V30 3958 C 388.983 2.12274 2.75382 0
M  V30 3959 H 388.306 2.98429 2.66046 0
M  V30 3960 H 389.746 2.38254 3.5073 0
M  V30 3961 C 388.205 0.920365 3.24085 0
M  V30 3962 O 388.735 0.139377 4.01458 0
M  V30 3963 N 386.941 0.726566 2.81371 0
M  V30 3964 H 386.488 1.36332 2.18567 0
M  V30 3965 H 386.446 -0.0763799 3.14307 0
M  V30 3966 N 390.218 -0.567019 1.47046 0
M  V30 3967 C 391.166 -1.69593 1.59188 0
M  V30 3968 C 392.16 -1.63046 0.459609 0
M  V30 3969 O 393.366 -1.6835 0.637058 0
M  V30 3970 H 389.741 -0.560993 0.500791 0
M  V30 3971 H 391.712 -1.56488 2.54075 0
M  V30 3972 C 390.461 -3.07964 1.61411 0
M  V30 3973 H 389.784 -3.13679 2.47881 0
M  V30 3974 H 391.224 -3.86671 1.73958 0
M  V30 3975 C 389.683 -3.35123 0.34559 0
M  V30 3976 O 390.213 -3.97812 -0.557521 0
M  V30 3977 N 388.419 -2.89699 0.22864 0
M  V30 3978 H 387.966 -2.38863 0.964479 0
M  V30 3979 H 387.924 -3.08242 -0.619192 0
M  V30 3980 N 391.696 -1.35014 -0.812953 0
M  V30 3981 C 392.921 -1.31187 -1.60639 0
M  V30 3982 C 393.346 0.109382 -1.87782 0
M  V30 3983 O 392.704 1.07424 -1.46047 0
M  V30 3984 C 392.752 -2.11809 -2.91838 0
M  V30 3985 O 391.856 -1.49444 -3.8437 0
M  V30 3986 H 391.197 -0.450084 -0.488181 0
M  V30 3987 H 393.727 -1.77963 -1.00947 0
M  V30 3988 H 393.737 -2.23531 -3.41318 0
M  V30 3989 H 392.412 -3.15137 -2.71407 0
M  V30 3990 H 390.989 -1.46524 -3.42907 0
M  V30 3991 N 393.175 1.03435 -1.18907 0
M  V30 3992 C 394.138 2.09756 -0.923844 0
M  V30 3993 C 395.138 1.60528 0.093416 0
M  V30 3994 O 396.328 1.73631 -0.140727 0
M  V30 3995 C 393.46 3.38692 -0.387354 0
M  V30 3996 H 394.653 2.34719 -1.86674 0
M  V30 3997 H 392.206 1.19959 -1.00197 0
M  V30 3998 H 392.941 3.19396 0.561845 0
M  V30 3999 H 392.726 3.75742 -1.12074 0
M  V30 4000 H 394.216 4.17016 -0.220694 0
M  V30 4001 N 394.653 0.992116 1.22453 0
M  V30 4002 C 395.881 0.685944 1.95198 0
M  V30 4003 C 396.296 -0.749233 1.73297 0
M  V30 4004 O 395.653 -1.50549 1.03156 0
M  V30 4005 C 395.704 0.981395 3.47924 0
M  V30 4006 O 395.425 2.36018 3.6909 0
M  V30 4007 C 396.926 0.692815 4.37853 0
M  V30 4008 H 394.146 0.253821 0.621141 0
M  V30 4009 H 396.69 1.32668 1.55626 0
M  V30 4010 H 394.845 0.386481 3.85467 0
M  V30 4011 H 395.259 2.45884 4.63294 0
M  V30 4012 H 396.733 0.949818 5.43767 0
M  V30 4013 H 397.21 -0.373181 4.37612 0
M  V30 4014 H 397.816 1.26874 4.05935 0
M  V30 4015 N 396.131 -1.37776 0.765217 0
M  V30 4016 C 397.38 -1.99092 0.323307 0
M  V30 4017 C 397.693 -1.61434 -1.10446 0
M  V30 4018 O 398.899 -2.15805 -1.64743 0
M  V30 4019 C 397.355 -3.56019 0.527098 0
M  V30 4020 C 396.963 -4.0262 1.96471 0
M  V30 4021 C 398.707 -4.2424 0.148483 0
M  V30 4022 C 396.614 -5.52233 2.11644 0
M  V30 4023 H 395.544 -0.744846 0.117137 0
M  V30 4024 H 398.195 -1.57391 0.943417 0
M  V30 4025 H 396.577 -3.95667 -0.162372 0
M  V30 4026 H 397.751 -3.74234 2.68859 0
M  V30 4027 H 396.066 -3.47161 2.29931 0
M  V30 4028 H 398.663 -5.34159 0.240456 0
M  V30 4029 H 399.006 -4.06446 -0.900422 0
M  V30 4030 H 399.539 -3.89872 0.79025 0
M  V30 4031 H 396.278 -5.74945 3.1483 0
M  V30 4032 H 395.798 -5.82324 1.4373 0
M  V30 4033 H 397.477 -6.18106 1.91193 0
M  V30 4034 N 397.609 -0.515225 -1.4894 0
M  V30 4035 C 398.855 0.0242508 -2.02785 0
M  V30 4036 C 399.188 1.35323 -1.39289 0
M  V30 4037 O 398.463 1.87041 -0.533469 0
M  V30 4038 C 398.746 0.16184 -3.59736 0
M  V30 4039 C 398.599 -1.19127 -4.33738 0
M  V30 4040 C 399.918 0.895719 -4.30888 0
M  V30 4041 H 397.037 0.00733914 -0.736963 0
M  V30 4042 H 399.679 -0.669395 -1.77818 0
M  V30 4043 H 397.829 0.752624 -3.8114 0
M  V30 4044 H 399.501 -1.82202 -4.23792 0
M  V30 4045 H 397.744 -1.77695 -3.95736 0
M  V30 4046 H 398.415 -1.04815 -5.41957 0
M  V30 4047 H 400.891 0.394528 -4.14225 0
M  V30 4048 H 399.767 0.960859 -5.40425 0
M  V30 4049 H 400.028 1.9427 -3.97129 0
M  V30 4050 N 399.087 1.5561 -0.249682 0
M  V30 4051 C 400.02 2.17537 0.689408 0
M  V30 4052 C 400.998 1.12829 1.17083 0
M  V30 4053 O 402.182 1.41229 1.24846 0
M  V30 4054 C 399.309 2.77828 1.93725 0
M  V30 4055 C 398.355 3.95615 1.59346 0
M  V30 4056 S 399.188 5.30988 0.69367 0
M  V30 4057 C 400.344 5.94734 1.95046 0
M  V30 4058 H 400.577 2.96852 0.163142 0
M  V30 4059 H 398.11 1.54362 -0.0341166 0
M  V30 4060 H 400.068 3.13199 2.65361 0
M  V30 4061 H 398.729 1.98454 2.43465 0
M  V30 4062 H 397.922 4.364 2.52132 0
M  V30 4063 H 397.524 3.61535 0.957512 0
M  V30 4064 H 399.816 6.12419 2.89739 0
M  V30 4065 H 400.759 6.90109 1.58604 0
M  V30 4066 H 401.167 5.23832 2.10381 0
M  V30 4067 N 400.565 -0.0233959 1.57583 0
M  V30 4068 C 401.976 -0.56927 1.77809 0
M  V30 4069 C 402.327 -1.75284 0.881472 0
M  V30 4070 O 401.452 -2.1626 0.0777805 0
M  V30 4071 C 402.047 -1.03949 3.22459 0
M  V30 4072 C 400.606 -1.53084 3.43864 0
M  V30 4073 C 399.753 -0.471454 2.73263 0
M  V30 4074 H 402.704 0.202825 1.57399 0
M  V30 4075 H 402.725 -1.90661 3.29285 0
M  V30 4076 H 402.237 -0.177865 3.87692 0
M  V30 4077 H 400.338 -2.41414 2.83814 0
M  V30 4078 H 400.451 -1.57443 4.52491 0
M  V30 4079 H 398.815 -0.927788 2.37201 0
M  V30 4080 H 399.598 0.380808 3.41181 0
M  V30 4081 N 402.043 -1.548 -0.295768 0
M  V30 4082 C 403.273 -1.78069 -1.04762 0
M  V30 4083 C 403.681 -0.542847 -1.81245 0
M  V30 4084 O 403.024 0.497051 -1.76848 0
M  V30 4085 C 403.086 -2.93881 -2.07061 0
M  V30 4086 C 402.75 -4.31777 -1.49725 0
M  V30 4087 C 403.747 -5.11613 -0.924581 0
M  V30 4088 C 401.432 -4.78389 -1.5313 0
M  V30 4089 C 403.426 -6.36184 -0.393594 0
M  V30 4090 C 401.113 -6.02921 -0.996447 0
M  V30 4091 C 402.111 -6.81654 -0.428569 0
M  V30 4092 O 401.799 -8.0384 0.0981593 0
M  V30 4093 H 401.531 -0.597475 -0.316226 0
M  V30 4094 H 404.085 -2.02584 -0.338973 0
M  V30 4095 H 402.315 -2.65003 -2.81621 0
M  V30 4096 H 404.004 -3.04679 -2.6819 0
M  V30 4097 H 404.77 -4.76743 -0.891136 0
M  V30 4098 H 400.649 -4.17132 -1.9627 0
M  V30 4099 H 404.193 -6.97582 0.0503014 0
M  V30 4100 H 400.09 -6.37277 -1.02706 0
M  V30 4101 H 400.858 -8.18499 -0.0146455 0
M  V30 4102 N 403.521 0.559213 -1.47345 0
M  V30 4103 C 404.77 1.31281 -1.53128 0
M  V30 4104 C 405.083 1.94602 -0.197344 0
M  V30 4105 O 406.289 2.71173 -0.133154 0
M  V30 4106 C 404.745 2.38051 -2.69925 0
M  V30 4107 C 404.353 1.8093 -4.0984 0
M  V30 4108 C 406.097 3.14604 -2.84999 0
M  V30 4109 C 404.004 2.85468 -5.1794 0
M  V30 4110 H 402.934 0.493614 -0.569966 0
M  V30 4111 H 405.585 0.594155 -1.73615 0
M  V30 4112 H 403.967 3.12822 -2.42814 0
M  V30 4113 H 405.141 1.12544 -4.46845 0
M  V30 4114 H 403.456 1.16967 -3.99634 0
M  V30 4115 H 406.053 3.92666 -3.62929 0
M  V30 4116 H 406.396 3.68665 -1.93369 0
M  V30 4117 H 406.929 2.46945 -3.1187 0
M  V30 4118 H 403.668 2.36264 -6.1144 0
M  V30 4119 H 403.188 3.52269 -4.85455 0
M  V30 4120 H 404.867 3.48996 -5.44803 0
M  V30 4121 N 404.999 1.35443 0.805782 0
M  V30 4122 C 405.947 1.28465 1.93906 0
M  V30 4123 C 406.941 0.17943 1.68447 0
M  V30 4124 O 408.147 0.345459 1.76654 0
M  V30 4125 H 404.522 0.399528 0.637088 0
M  V30 4126 H 406.493 2.24206 1.96912 0
M  V30 4127 C 405.242 1.07432 3.30687 0
M  V30 4128 H 404.565 1.91716 3.50835 0
M  V30 4129 H 406.005 1.06591 4.10383 0
M  V30 4130 C 404.464 -0.22179 3.36169 0
M  V30 4131 O 404.994 -1.21731 3.82811 0
M  V30 4132 N 403.2 -0.260841 2.89427 0
M  V30 4133 H 402.747 0.549884 2.51663 0
M  V30 4134 H 402.705 -1.12777 2.93477 0
M  V30 4135 N 406.477 -1.02803 1.19454 0
M  V30 4136 C 407.702 -1.80378 1.02364 0
M  V30 4137 C 408.127 -1.83282 -0.423007 0
M  V30 4138 O 407.485 -1.25945 -1.30413 0
M  V30 4139 C 407.533 -3.23248 1.59821 0
M  V30 4140 O 406.637 -4.04 0.828105 0
M  V30 4141 H 405.978 -0.556799 0.361761 0
M  V30 4142 H 408.508 -1.29385 1.58495 0
M  V30 4143 H 408.518 -3.73994 1.63073 0
M  V30 4144 H 407.193 -3.2045 2.65113 0
M  V30 4145 H 405.77 -3.62635 0.86891 0
M  V30 4146 N 407.956 -0.998596 -1.21925 0
M  V30 4147 C 409.202 -0.678667 -1.91107 0
M  V30 4148 C 409.535 0.78791 -1.77498 0
M  V30 4149 O 408.81 1.57043 -1.1475 0
M  V30 4150 C 409.093 -1.09245 -3.43129 0
M  V30 4151 C 408.946 -2.61801 -3.6576 0
M  V30 4152 C 410.265 -0.649984 -4.35274 0
M  V30 4153 H 407.384 -0.248025 -0.694012 0
M  V30 4154 H 410.026 -1.24314 -1.43688 0
M  V30 4155 H 408.176 -0.612171 -3.83647 0
M  V30 4156 H 409.848 -3.17543 -3.34611 0
M  V30 4157 H 408.091 -3.03609 -3.09845 0
M  V30 4158 H 408.762 -2.85804 -4.7225 0
M  V30 4159 H 411.238 -1.0626 -4.02303 0
M  V30 4160 H 410.114 -0.967743 -5.40302 0
M  V30 4161 H 410.375 0.449139 -4.39813 0
M  V30 4162 N 409.434 1.37368 -0.772513 0
M  V30 4163 C 410.845 1.8231 -0.402493 0
M  V30 4164 C 411.196 1.6436 1.07146 0
M  V30 4165 O 410.321 1.15514 1.82991 0
M  V30 4166 C 410.916 3.30979 -0.723776 0
M  V30 4167 C 409.475 3.74195 -0.406802 0
M  V30 4168 C 408.622 2.59885 -0.967218 0
M  V30 4169 H 411.573 1.25829 -0.967099 0
M  V30 4170 H 411.594 3.80499 -0.00870832 0
M  V30 4171 H 411.106 3.44011 -1.7966 0
M  V30 4172 H 409.207 3.66732 0.658673 0
M  V30 4173 H 409.32 4.7027 -0.915588 0
M  V30 4174 H 407.684 2.51674 -0.391416 0
M  V30 4175 H 408.467 2.7571 -2.04546 0
M  V30 4176 N 410.912 0.523116 1.48665 0
M  V30 4177 C 411.845 -0.290518 2.26343 0
M  V30 4178 C 412.823 -0.950913 1.31895 0
M  V30 4179 O 414.007 -0.976662 1.61225 0
M  V30 4180 C 411.134 -1.41088 3.07915 0
M  V30 4181 C 410.18 -0.862597 4.17686 0
M  V30 4182 S 411.013 0.264135 5.34848 0
M  V30 4183 C 412.169 -0.858864 6.19979 0
M  V30 4184 H 412.402 0.368726 2.95005 0
M  V30 4185 H 409.935 0.30878 1.51281 0
M  V30 4186 H 411.893 -2.0527 3.55492 0
M  V30 4187 H 410.554 -2.04182 2.38681 0
M  V30 4188 H 409.747 -1.70287 4.74361 0
M  V30 4189 H 409.349 -0.297595 3.72814 0
M  V30 4190 H 411.641 -1.7591 6.54264 0
M  V30 4191 H 412.584 -0.330244 7.07329 0
M  V30 4192 H 412.992 -1.13617 5.52948 0
M  V30 4193 N 412.39 -1.55475 0.257931 0
M  V30 4194 C 413.667 -1.91155 -0.414629 0
M  V30 4195 C 414.047 -1.18008 -1.75035 0
M  V30 4196 O 413.395 -0.301193 -2.26506 0
M  V30 4197 C 413.605 -3.44283 -0.571859 0
M  V30 4198 C 414.953 -4.15744 -0.862678 0
M  V30 4199 O 415.977 -3.50083 -0.657314 0
M  V30 4200 O 414.836 -5.31909 -1.2544 0
M  V30 4201 H 411.93 -0.796016 -0.22425 0
M  V30 4202 H 414.476 -1.66976 0.302814 0
M  V30 4203 H 413.248 -3.89558 0.368844 0
M  V30 4204 H 412.871 -3.7436 -1.33943 0
M  V30 4205 N 413.868 0.0150385 -1.57593 0
M  V30 4206 C 414.816 1.02958 -2.08572 0
M  V30 4207 C 415.81 1.36554 -1.00246 0
M  V30 4208 O 417.016 1.35295 -1.18724 0
M  V30 4209 H 413.391 0.349619 -0.665786 0
M  V30 4210 H 415.362 0.573932 -2.92829 0
M  V30 4211 C 414.111 2.31752 -2.59203 0
M  V30 4212 H 413.434 2.06765 -3.42182 0
M  V30 4213 H 414.874 3.01053 -2.98568 0
M  V30 4214 C 413.333 3.01692 -1.49945 0
M  V30 4215 O 413.863 3.92083 -0.873704 0
M  V30 4216 N 412.069 2.6326 -1.23056 0
M  V30 4217 H 411.616 1.89838 -1.74125 0
M  V30 4218 H 411.574 3.10372 -0.501685 0
M  V30 4219 N 415.346 1.54954 0.287554 0
M  V30 4220 C 416.279 1.81737 1.3801 0
M  V30 4221 C 417.257 0.669412 1.48181 0
M  V30 4222 O 418.441 0.910839 1.65033 0
M  V30 4223 C 415.568 1.96606 2.75796 0
M  V30 4224 C 414.614 3.19098 2.82982 0
M  V30 4225 S 415.447 4.7683 2.43707 0
M  V30 4226 C 416.603 4.94653 3.83496 0
M  V30 4227 H 416.836 2.74122 1.15085 0
M  V30 4228 H 414.369 1.46538 0.486403 0
M  V30 4229 H 416.327 2.05858 3.55152 0
M  V30 4230 H 414.988 1.05136 2.95982 0
M  V30 4231 H 414.181 3.26344 3.84077 0
M  V30 4232 H 413.783 3.08361 2.11635 0
M  V30 4233 H 416.075 4.79502 4.78628 0
M  V30 4234 H 417.018 5.96728 3.8121 0
M  V30 4235 H 417.426 4.2272 3.74123 0
M  V30 4236 N 416.824 -0.551391 1.4764 0
M  V30 4237 C 418.071 -1.3083 1.54563 0
M  V30 4238 C 418.399 -1.93359 0.210361 0
M  V30 4239 O 417.654 -1.78721 -0.797332 0
M  V30 4240 C 417.953 -2.43469 2.61644 0
M  V30 4241 C 417.619 -1.98732 4.04742 0
M  V30 4242 C 416.281 -1.86248 4.43695 0
M  V30 4243 C 418.633 -1.64659 4.94507 0
M  V30 4244 C 415.961 -1.37995 5.70241 0
M  V30 4245 C 418.313 -1.17875 6.21521 0
M  V30 4246 C 416.977 -1.03992 6.5935 0
M  V30 4247 H 416.247 -0.478741 0.565587 0
M  V30 4248 H 418.894 -0.617697 1.81264 0
M  V30 4249 H 417.199 -3.18109 2.28722 0
M  V30 4250 H 418.896 -3.01642 2.64222 0
M  V30 4251 H 415.486 -2.09393 3.73968 0
M  V30 4252 H 419.67 -1.73174 4.65107 0
M  V30 4253 H 414.926 -1.25915 5.98294 0
M  V30 4254 H 419.1 -0.905739 6.90485 0
M  V30 4255 H 416.727 -0.663794 7.57296 0
M  V30 4256 N 418.302 -1.35869 -0.798587 0
M  V30 4257 C 419.718 -1.16082 -1.09532 0
M  V30 4258 C 419.918 0.0213124 -2.01489 0
M  V30 4259 O 418.974 0.689488 -2.42904 0
M  V30 4260 C 420.287 -2.46748 -1.7186 0
M  V30 4261 C 421.835 -2.53028 -1.84244 0
M  V30 4262 C 422.31 -3.83758 -2.49988 0
M  V30 4263 N 423.801 -3.85053 -2.57465 0
M  V30 4264 C 424.536 -4.8294 -3.09122 0
M  V30 4265 N 424.032 -5.91217 -3.61157 0
M  V30 4266 N 425.825 -4.70369 -3.0775 0
M  V30 4267 H 417.976 -2.11571 -0.187461 0
M  V30 4268 H 420.239 -0.936726 -0.145765 0
M  V30 4269 H 419.945 -3.33471 -1.11759 0
M  V30 4270 H 419.819 -2.61883 -2.71472 0
M  V30 4271 H 422.206 -1.66729 -2.43486 0
M  V30 4272 H 422.287 -2.418 -0.834643 0
M  V30 4273 H 421.931 -4.70459 -1.91393 0
M  V30 4274 H 421.861 -3.92278 -3.5132 0
M  V30 4275 H 424.352 -3.06822 -2.20609 0
M  V30 4276 H 424.665 -6.61892 -3.98896 0
M  V30 4277 H 423.01 -5.94899 -3.59333 0
M  V30 4278 H 426.201 -3.84914 -2.66381 0
M  V30 4279 H 426.374 -5.46816 -3.47701 0
M  V30 4280 N 419.78 1.02168 -1.19998 0
M  V30 4281 C 420.73 2.08969 -0.911921 0
M  V30 4282 C 421.714 1.60404 0.12621 0
M  V30 4283 O 422.906 1.76817 -0.0804706 0
M  V30 4284 C 420.035 3.402 -0.460277 0
M  V30 4285 C 419.121 3.9548 -1.53155 0
M  V30 4286 N 419.512 4.24332 -2.75275 0
M  V30 4287 C 417.81 4.23572 -1.39653 0
M  V30 4288 C 418.511 4.68834 -3.44339 0
M  V30 4289 N 417.487 4.70804 -2.71744 0
M  V30 4290 H 421.289 2.29178 -1.83997 0
M  V30 4291 H 418.803 1.20094 -1.09322 0
M  V30 4292 H 420.8 4.16235 -0.235337 0
M  V30 4293 H 419.46 3.21408 0.4612 0
M  V30 4294 H 420.471 4.13393 -3.11973 0
M  V30 4295 H 417.148 4.14005 -0.539067 0
M  V30 4296 H 418.538 5.00019 -4.4881 0
M  V30 4297 N 421.258 1.00505 1.21394 0
M  V30 4298 C 422.488 0.705584 1.94178 0
M  V30 4299 C 422.896 -0.735846 1.74304 0
M  V30 4300 O 422.239 -1.50954 1.04683 0
M  V30 4301 C 422.301 0.94689 3.46806 0
M  V30 4302 C 421.965 2.37517 3.90429 0
M  V30 4303 C 422.962 3.35539 3.97127 0
M  V30 4304 C 420.647 2.71284 4.22742 0
M  V30 4305 C 422.641 4.65395 4.3553 0
M  V30 4306 C 420.328 4.01356 4.60822 0
M  V30 4307 C 421.326 4.98223 4.67186 0
M  V30 4308 O 421.014 6.25969 5.04399 0
M  V30 4309 H 420.746 0.259216 0.624326 0
M  V30 4310 H 423.3 1.34592 1.55159 0
M  V30 4311 H 421.53 0.249386 3.85895 0
M  V30 4312 H 423.219 0.640804 4.0081 0
M  V30 4313 H 423.985 3.10786 3.7234 0
M  V30 4314 H 419.864 1.96581 4.16985 0
M  V30 4315 H 423.408 5.41002 4.40412 0
M  V30 4316 H 419.305 4.25893 4.85063 0
M  V30 4317 H 420.073 6.30085 5.22431 0
M  V30 4318 N 422.737 -1.36956 0.779787 0
M  V30 4319 C 423.685 -2.32053 0.15942 0
M  V30 4320 C 424.679 -1.55333 -0.675878 0
M  V30 4321 O 425.885 -1.70668 -0.57204 0
M  V30 4322 H 422.26 -0.751286 0.0327707 0
M  V30 4323 H 424.231 -2.8195 0.977078 0
M  V30 4324 C 422.98 -3.40602 -0.698977 0
M  V30 4325 H 422.303 -3.99746 -0.0655966 0
M  V30 4326 H 423.743 -4.09486 -1.09989 0
M  V30 4327 C 422.202 -2.81359 -1.85307 0
M  V30 4328 O 422.732 -2.72751 -2.94906 0
M  V30 4329 N 420.938 -2.38786 -1.65619 0
M  V30 4330 H 420.485 -2.45987 -0.764725 0
M  V30 4331 H 420.443 -1.99493 -2.43002 0
M  V30 4332 N 424.215 -0.530993 -1.48385 0
M  V30 4333 C 425.462 0.0027373 -2.025 0
M  V30 4334 C 425.79 1.34186 -1.40799 0
M  V30 4335 O 425.045 1.88 -0.543544 0
M  V30 4336 C 425.344 0.172742 -3.56982 0
M  V30 4337 C 425.01 -1.09215 -4.37473 0
M  V30 4338 C 423.672 -1.43881 -4.59186 0
M  V30 4339 C 426.024 -1.93153 -4.84088 0
M  V30 4340 C 423.352 -2.62381 -5.2476 0
M  V30 4341 C 425.704 -3.10833 -5.50968 0
M  V30 4342 C 424.368 -3.45843 -5.70919 0
M  V30 4343 H 423.638 0.00100165 -0.740999 0
M  V30 4344 H 426.285 -0.697219 -1.78357 0
M  V30 4345 H 424.59 0.955473 -3.79971 0
M  V30 4346 H 426.287 0.600642 -3.96476 0
M  V30 4347 H 422.877 -0.812177 -4.20834 0
M  V30 4348 H 427.061 -1.67683 -4.67115 0
M  V30 4349 H 422.317 -2.89707 -5.38405 0
M  V30 4350 H 426.491 -3.7618 -5.86056 0
M  V30 4351 H 424.118 -4.37764 -6.21503 0
M  V30 4352 N 425.693 1.55336 -0.266172 0
M  V30 4353 C 426.921 2.03801 0.356756 0
M  V30 4354 C 427.336 1.14485 1.50129 0
M  V30 4355 O 426.693 0.163121 1.8177 0
M  V30 4356 C 426.744 3.51455 0.846281 0
M  V30 4357 O 426.465 4.37371 -0.252663 0
M  V30 4358 C 427.966 4.15767 1.53794 0
M  V30 4359 H 425.186 0.665906 0.0825218 0
M  V30 4360 H 427.73 2.00636 -0.39566 0
M  V30 4361 H 425.885 3.55092 1.54881 0
M  V30 4362 H 426.299 5.24358 0.122173 0
M  V30 4363 H 427.773 5.20714 1.83198 0
M  V30 4364 H 428.25 3.63404 2.46646 0
M  V30 4365 H 428.856 4.16107 0.879488 0
M  V30 4366 N 427.171 -0.0066808 1.57599 0
M  V30 4367 C 428.101 -0.999296 2.11036 0
M  V30 4368 C 429.082 -1.36278 1.01795 0
M  V30 4369 O 430.267 -1.4477 1.29442 0
M  V30 4370 C 427.397 -2.29328 2.60818 0
M  V30 4371 C 426.351 -2.07159 3.74525 0
M  V30 4372 C 425.677 -3.42512 4.10596 0
M  V30 4373 C 426.977 -1.43959 5.02069 0
M  V30 4374 H 428.671 -0.554382 2.94223 0
M  V30 4375 H 426.217 -0.265221 1.41536 0
M  V30 4376 H 428.17 -2.99117 2.96828 0
M  V30 4377 H 426.894 -2.7592 1.74745 0
M  V30 4378 H 425.553 -1.39797 3.38899 0
M  V30 4379 H 425.201 -3.86795 3.21556 0
M  V30 4380 H 424.901 -3.28498 4.87199 0
M  V30 4381 H 426.425 -4.13628 4.4916 0
M  V30 4382 H 427.839 -2.03696 5.35893 0
M  V30 4383 H 426.236 -1.40452 5.83432 0
M  V30 4384 H 427.306 -0.407992 4.83181 0
M  V30 4385 N 428.649 -1.55105 -0.279332 0
M  V30 4386 C 429.582 -1.82467 -1.37044 0
M  V30 4387 C 430.56 -0.677261 -1.47824 0
M  V30 4388 O 431.744 -0.919578 -1.64548 0
M  V30 4389 C 428.871 -1.98066 -2.7475 0
M  V30 4390 C 427.917 -3.20594 -2.81286 0
M  V30 4391 S 428.75 -4.78116 -2.41175 0
M  V30 4392 C 429.906 -4.9668 -3.80867 0
M  V30 4393 H 430.139 -2.74728 -1.1363 0
M  V30 4394 H 427.672 -1.46794 -0.478625 0
M  V30 4395 H 429.63 -2.07739 -3.54055 0
M  V30 4396 H 428.291 -1.06704 -2.9542 0
M  V30 4397 H 427.484 -3.28376 -3.82341 0
M  V30 4398 H 427.086 -3.09479 -2.09996 0
M  V30 4399 H 429.378 -4.82033 -4.76078 0
M  V30 4400 H 430.321 -5.98741 -3.78041 0
M  V30 4401 H 430.729 -4.24698 -3.71876 0
M  V30 4402 N 430.127 0.543554 -1.4793 0
M  V30 4403 C 431.373 1.30201 -1.55485 0
M  V30 4404 C 431.706 1.92925 -0.222201 0
M  V30 4405 O 430.981 1.78586 0.77053 0
M  V30 4406 C 431.264 2.40174 -2.68307 0
M  V30 4407 C 431.117 1.8223 -4.11233 0
M  V30 4408 C 432.436 3.42024 -2.76961 0
M  V30 4409 H 429.555 0.472036 -0.565996 0
M  V30 4410 H 432.197 0.606914 -1.80046 0
M  V30 4411 H 430.347 2.99463 -2.47495 0
M  V30 4412 H 432.019 1.27096 -4.43446 0
M  V30 4413 H 430.262 1.12832 -4.18869 0
M  V30 4414 H 430.933 2.61793 -4.85972 0
M  V30 4415 H 433.409 2.92672 -2.95774 0
M  V30 4416 H 432.285 4.16383 -3.57654 0
M  V30 4417 H 432.546 4.0173 -1.84568 0
M  V30 4418 N 431.605 1.3629 0.791371 0
M  V30 4419 C 432.854 1.29742 1.54434 0
M  V30 4420 C 433.167 -0.121729 1.95221 0
M  V30 4421 O 434.373 -0.309579 2.69729 0
M  V30 4422 C 432.829 2.27623 2.78776 0
M  V30 4423 C 432.437 3.74963 2.45166 0
M  V30 4424 C 434.181 2.30047 3.56761 0
M  V30 4425 C 432.088 4.64626 3.65891 0
M  V30 4426 H 431.018 0.482113 0.579727 0
M  V30 4427 H 433.669 1.61642 0.868565 0
M  V30 4428 H 432.051 1.88714 3.48142 0
M  V30 4429 H 433.225 4.22596 1.83709 0
M  V30 4430 H 431.54 3.75295 1.80396 0
M  V30 4431 H 434.137 2.94247 4.46456 0
M  V30 4432 H 434.48 1.30846 3.95203 0
M  V30 4433 H 435.013 2.67563 2.94372 0
M  V30 4434 H 431.752 5.64883 3.32547 0
M  V30 4435 H 431.272 4.2171 4.26521 0
M  V30 4436 H 432.951 4.80801 4.32943 0
M  V30 4437 N 433.083 -1.0153 1.20538 0
M  V30 4438 C 434.494 -1.56598 1.01657 0
M  V30 4439 C 434.845 -1.91505 -0.426668 0
M  V30 4440 O 433.97 -1.72375 -1.30827 0
M  V30 4441 C 434.565 -2.84542 1.83905 0
M  V30 4442 C 433.124 -3.36133 1.69386 0
M  V30 4443 C 432.271 -2.09427 1.81757 0
M  V30 4444 H 435.222 -0.838974 1.34711 0
M  V30 4445 H 435.243 -3.56004 1.34319 0
M  V30 4446 H 434.755 -2.59105 2.8894 0
M  V30 4447 H 432.856 -3.66528 0.669933 0
M  V30 4448 H 432.969 -4.08248 2.50739 0
M  V30 4449 H 431.333 -2.21941 1.24957 0
M  V30 4450 H 432.116 -1.86414 2.88279 0
M  V30 4451 N 434.561 -1.01147 -1.20859 0
M  V30 4452 C 435.808 -0.697865 -1.90095 0
M  V30 4453 C 436.136 0.772014 -1.78522 0
M  V30 4454 O 435.391 1.57595 -1.16027 0
M  V30 4455 C 435.69 -1.0727 -3.40922 0
M  V30 4456 C 435.356 -2.53792 -3.72693 0
M  V30 4457 C 434.018 -2.93829 -3.81075 0
M  V30 4458 C 436.37 -3.48674 -3.87397 0
M  V30 4459 C 433.698 -4.27696 -4.01613 0
M  V30 4460 C 436.05 -4.82223 -4.09444 0
M  V30 4461 C 434.714 -5.21973 -4.16054 0
M  V30 4462 H 433.984 -0.255367 -0.695607 0
M  V30 4463 H 436.631 -1.27111 -1.43231 0
M  V30 4464 H 434.936 -0.417799 -3.89566 0
M  V30 4465 H 436.633 -0.807818 -3.92779 0
M  V30 4466 H 433.223 -2.21768 -3.66765 0
M  V30 4467 H 437.407 -3.18904 -3.80281 0
M  V30 4468 H 432.663 -4.58055 -4.04964 0
M  V30 4469 H 436.837 -5.55672 -4.19763 0
M  V30 4470 H 434.464 -6.25717 -4.31721 0
M  V30 4471 N 436.039 1.36541 -0.78704 0
M  V30 4472 C 437.285 1.99599 -0.358872 0
M  V30 4473 C 437.618 1.62323 1.06606 0
M  V30 4474 O 436.893 0.876858 1.73613 0
M  V30 4475 C 437.176 3.56327 -0.519944 0
M  V30 4476 C 437.029 4.03464 -1.98839 0
M  V30 4477 C 438.348 4.4005 0.0664737 0
M  V30 4478 H 435.467 0.725107 -0.131869 0
M  V30 4479 H 438.109 1.6199 -0.992936 0
M  V30 4480 H 436.259 3.88495 0.0198321 0
M  V30 4481 H 437.931 3.81793 -2.58905 0
M  V30 4482 H 436.174 3.55092 -2.49183 0
M  V30 4483 H 436.845 5.12439 -2.05207 0
M  V30 4484 H 439.321 4.14228 -0.394267 0
M  V30 4485 H 438.197 5.48847 -0.0762682 0
M  V30 4486 H 438.458 4.26655 1.15835 0
M  V30 4487 N 437.518 0.538854 1.48102 0
M  V30 4488 C 438.465 -0.219042 2.29758 0
M  V30 4489 C 439.435 -0.925562 1.37922 0
M  V30 4490 O 440.62 -0.924855 1.66886 0
M  V30 4491 C 437.76 -1.25452 3.2149 0
M  V30 4492 C 436.873 -0.555943 4.28408 0
M  V30 4493 C 436.008 -1.57512 5.0731 0
M  V30 4494 C 435.047 -0.860498 6.06021 0
M  V30 4495 N 434.184 -1.82564 6.77949 0
M  V30 4496 H 439.024 0.483449 2.94052 0
M  V30 4497 H 436.561 0.250247 1.44956 0
M  V30 4498 H 438.519 -1.86727 3.7308 0
M  V30 4499 H 437.149 -1.92528 2.591 0
M  V30 4500 H 436.201 0.170938 3.80016 0
M  V30 4501 H 437.513 0.00474616 4.988 0
M  V30 4502 H 436.667 -2.26191 5.62959 0
M  V30 4503 H 435.406 -2.16972 4.36778 0
M  V30 4504 H 434.411 -0.159686 5.49568 0
M  V30 4505 H 435.636 -0.271897 6.78555 0
M  V30 4506 H 433.582 -2.40915 6.10161 0
M  V30 4507 H 433.499 -1.31662 7.44447 0
M  V30 4508 H 434.767 -2.50414 7.38182 0
M  V30 4509 N 438.996 -1.55193 0.274407 0
M  V30 4510 C 439.926 -2.25471 -0.607032 0
M  V30 4511 C 440.907 -1.24461 -1.15946 0
M  V30 4512 O 442.092 -1.53179 -1.19373 0
M  V30 4513 C 439.222 -2.97526 -1.79153 0
M  V30 4514 C 438.176 -4.05459 -1.37067 0
M  V30 4515 C 437.502 -4.65084 -2.6382 0
M  V30 4516 C 438.802 -5.19691 -0.521389 0
M  V30 4517 H 440.496 -2.99393 -0.0209343 0
M  V30 4518 H 438.042 -1.43997 -0.00862866 0
M  V30 4519 H 439.995 -3.45402 -2.41404 0
M  V30 4520 H 438.719 -2.21138 -2.40344 0
M  V30 4521 H 437.378 -3.58393 -0.771355 0
M  V30 4522 H 437.026 -3.85365 -3.23268 0
M  V30 4523 H 436.726 -5.37961 -2.36372 0
M  V30 4524 H 438.25 -5.15708 -3.26921 0
M  V30 4525 H 439.664 -5.63623 -1.04889 0
M  V30 4526 H 438.061 -5.99126 -0.341825 0
M  V30 4527 H 439.131 -4.82713 0.46 0
M  V30 4528 N 440.474 -0.00167713 -1.576 0
M  V30 4529 C 441.751 0.719951 -1.81868 0
M  V30 4530 C 442.131 1.91895 -0.879747 0
M  V30 4531 O 441.479 2.28389 0.0711423 0
M  V30 4532 C 441.689 1.12409 -3.30402 0
M  V30 4533 C 443.037 1.52724 -3.96182 0
M  V30 4534 O 444.061 1.21784 -3.34734 0
M  V30 4535 O 442.92 2.10265 -5.04431 0
M  V30 4536 H 440.014 0.350707 -0.748955 0
M  V30 4537 H 442.56 -0.0272597 -1.69678 0
M  V30 4538 H 441.332 0.269532 -3.90371 0
M  V30 4539 H 440.955 1.93035 -3.47596 0
M  V30 4540 N 441.952 1.55251 0.271103 0
M  V30 4541 C 443.182 1.79713 1.01916 0
M  V30 4542 C 443.59 0.571613 1.80359 0
M  V30 4543 O 442.933 -0.468853 1.77616 0
M  V30 4544 C 442.995 2.97138 2.02359 0
M  V30 4545 C 442.659 4.34104 1.42837 0
M  V30 4546 C 443.656 5.13019 0.843071 0
M  V30 4547 C 441.341 4.80765 1.455 0
M  V30 4548 C 443.335 6.36729 0.292333 0
M  V30 4549 C 441.022 6.0443 0.900402 0
M  V30 4550 C 442.02 6.8225 0.32007 0
M  V30 4551 O 441.708 8.03582 -0.226031 0
M  V30 4552 H 441.44 0.602431 0.306681 0
M  V30 4553 H 443.994 2.03097 0.306701 0
M  V30 4554 H 442.224 2.6945 2.77369 0
M  V30 4555 H 443.913 3.08907 2.63309 0
M  V30 4556 H 444.679 4.781 0.815178 0
M  V30 4557 H 440.558 4.20202 1.89609 0
M  V30 4558 H 444.102 6.97414 -0.161274 0
M  V30 4559 H 439.999 6.3883 0.925541 0
M  V30 4560 H 440.767 8.18418 -0.115572 0
M  V30 4561 N 443.43 -0.535701 1.48216 0
M  V30 4562 C 444.393 -1.623 1.61838 0
M  V30 4563 C 445.393 -1.53087 0.492024 0
M  V30 4564 O 446.583 -1.5686 0.757668 0
M  V30 4565 C 443.715 -3.01907 1.58319 0
M  V30 4566 H 444.908 -1.51564 2.58783 0
M  V30 4567 H 442.461 -0.757317 1.36727 0
M  V30 4568 H 443.196 -3.18155 0.628299 0
M  V30 4569 H 442.981 -3.10003 2.40085 0
M  V30 4570 H 444.471 -3.80969 1.71033 0
M  V30 4571 N 444.908 -1.36708 -0.784132 0
M  V30 4572 C 446.185 -1.21776 -1.53069 0
M  V30 4573 C 446.565 0.193876 -2.10208 0
M  V30 4574 O 445.913 1.20012 -1.94446 0
M  V30 4575 C 446.123 -2.30395 -2.62143 0
M  V30 4576 C 447.471 -2.67325 -3.29882 0
M  V30 4577 O 448.495 -2.29478 -2.7243 0
M  V30 4578 O 447.354 -3.32485 -4.33724 0
M  V30 4579 H 444.448 -0.474459 -0.677361 0
M  V30 4580 H 446.994 -1.48454 -0.82216 0
M  V30 4581 H 445.766 -3.2498 -2.17953 0
M  V30 4582 H 445.389 -2.05112 -3.40609 0
M  V30 4583 N 446.386 1.0089 -1.21074 0
M  V30 4584 C 447.614 1.78191 -1.05145 0
M  V30 4585 C 448.029 1.84537 0.398952 0
M  V30 4586 O 447.386 1.30393 1.27687 0
M  V30 4587 C 447.437 3.22288 -1.63746 0
M  V30 4588 O 447.158 3.16315 -3.03111 0
M  V30 4589 C 448.659 4.16106 -1.52875 0
M  V30 4590 H 445.879 0.560129 -0.369454 0
M  V30 4591 H 448.423 1.26945 -1.60328 0
M  V30 4592 H 446.578 3.70655 -1.12664 0
M  V30 4593 H 446.992 4.06817 -3.31059 0
M  V30 4594 H 448.466 5.15026 -1.98626 0
M  V30 4595 H 448.943 4.36541 -0.482521 0
M  V30 4596 H 449.549 3.73625 -2.03185 0
M  V30 4597 N 447.864 1.01787 1.20321 0
M  V30 4598 C 448.827 0.593972 2.2137 0
M  V30 4599 C 449.827 -0.336553 1.57239 0
M  V30 4600 O 451.017 -0.125069 1.7375 0
M  V30 4601 C 448.149 -0.132433 3.40643 0
M  V30 4602 H 449.342 1.48791 2.60387 0
M  V30 4603 H 446.895 0.807803 1.33807 0
M  V30 4604 H 447.63 -1.04123 3.0713 0
M  V30 4605 H 447.415 0.53605 3.88418 0
M  V30 4606 H 448.905 -0.416314 4.1552 0
M  V30 4607 N 449.342 -1.36122 0.79427 0
M  V30 4608 C 450.567 -2.03891 0.379871 0
M  V30 4609 C 450.992 -1.59488 -0.997251 0
M  V30 4610 O 450.35 -0.765652 -1.64339 0
M  V30 4611 C 450.398 -3.57687 0.457442 0
M  V30 4612 O 449.502 -4.08931 -0.5338 0
M  V30 4613 H 448.843 -0.6443 0.160541 0
M  V30 4614 H 451.373 -1.73976 1.07673 0
M  V30 4615 H 451.383 -4.06721 0.322792 0
M  V30 4616 H 450.058 -3.89357 1.46199 0
M  V30 4617 H 448.635 -3.71154 -0.360409 0
M  V30 4618 N 450.82 -0.546701 -1.47814 0
M  V30 4619 C 452.048 -0.0232857 -2.06887 0
M  V30 4620 C 452.463 1.26571 -1.4009 0
M  V30 4621 O 451.82 1.7569 -0.493906 0
M  V30 4622 C 451.871 0.186975 -3.61016 0
M  V30 4623 O 451.592 -1.05097 -4.25307 0
M  V30 4624 C 453.093 0.748872 -4.36929 0
M  V30 4625 H 450.313 -0.0410763 -0.669742 0
M  V30 4626 H 452.857 -0.757117 -1.89968 0
M  V30 4627 H 451.012 0.870903 -3.77484 0
M  V30 4628 H 451.426 -0.842121 -5.17695 0
M  V30 4629 H 452.9 0.845334 -5.45489 0
M  V30 4630 H 453.377 1.75772 -4.02493 0
M  V30 4631 H 453.983 0.100979 -4.2518 0
M  V30 4632 N 452.299 1.55045 -0.282633 0
M  V30 4633 C 453.529 2.03872 0.334635 0
M  V30 4634 C 453.937 1.16018 1.49454 0
M  V30 4635 O 453.28 0.174449 1.8287 0
M  V30 4636 C 453.342 3.48791 0.870905 0
M  V30 4637 C 453.006 4.56715 -0.161338 0
M  V30 4638 C 454.003 5.10513 -0.983466 0
M  V30 4639 C 451.688 5.01417 -0.297745 0
M  V30 4640 C 453.682 6.07538 -1.92811 0
M  V30 4641 C 451.369 5.98265 -1.24586 0
M  V30 4642 C 452.367 6.51208 -2.05954 0
M  V30 4643 O 452.055 7.46162 -2.99162 0
M  V30 4644 H 451.787 0.671324 0.0793742 0
M  V30 4645 H 454.341 2.01169 -0.41473 0
M  V30 4646 H 452.571 3.48758 1.67047 0
M  V30 4647 H 454.26 3.80916 1.40207 0
M  V30 4648 H 455.026 4.76785 -0.888856 0
M  V30 4649 H 450.905 4.59849 0.325604 0
M  V30 4650 H 454.449 6.48787 -2.56363 0
M  V30 4651 H 450.346 6.31412 -1.34126 0
M  V30 4652 H 451.114 7.63903 -2.93929 0
M  V30 4653 N 453.777 0.010035 1.57597 0
M  V30 4654 C 455.023 -0.673697 1.91283 0
M  V30 4655 C 455.356 -1.72863 0.884979 0
M  V30 4656 O 454.631 -1.94268 -0.0949487 0
M  V30 4657 C 454.914 -1.30766 3.35518 0
M  V30 4658 C 454.767 -0.263578 4.49027 0
M  V30 4659 C 456.086 -2.23105 3.79358 0
M  V30 4660 H 453.205 -0.243439 0.695634 0
M  V30 4661 H 455.847 0.0633864 1.89894 0
M  V30 4662 H 453.997 -1.93588 3.36832 0
M  V30 4663 H 455.669 0.365738 4.59848 0
M  V30 4664 H 453.912 0.413077 4.31829 0
M  V30 4665 H 454.583 -0.746398 5.4693 0
M  V30 4666 H 457.059 -1.70289 3.79659 0
M  V30 4667 H 455.935 -2.64424 4.81011 0
M  V30 4668 H 456.196 -3.11433 3.13787 0
M  V30 4669 N 455.255 -1.55392 -0.262866 0
M  V30 4670 C 456.666 -1.67079 -0.833158 0
M  V30 4671 C 457.017 -0.604539 -1.86654 0
M  V30 4672 O 456.142 0.252138 -2.14926 0
M  V30 4673 C 456.737 -3.02891 -1.51797 0
M  V30 4674 C 455.296 -3.16571 -2.03617 0
M  V30 4675 C 454.443 -2.62909 -0.881701 0
M  V30 4676 H 457.394 -1.58652 -0.0389986 0
M  V30 4677 H 457.415 -2.96445 -2.38538 0
M  V30 4678 H 456.927 -3.80473 -0.765619 0
M  V30 4679 H 455.028 -2.43782 -2.81782 0
M  V30 4680 H 455.141 -4.23271 -2.24452 0
M  V30 4681 H 453.505 -2.20324 -1.27786 0
M  V30 4682 H 454.288 -3.43003 -0.14269 0
M  V30 4683 N 456.733 0.527833 -1.48498 0
M  V30 4684 C 457.982 1.28003 -1.55878 0
M  V30 4685 C 458.295 1.9414 -0.238577 0
M  V30 4686 O 459.501 2.7083 -0.190643 0
M  V30 4687 C 457.957 2.32272 -2.74914 0
M  V30 4688 C 457.565 1.72196 -4.13585 0
M  V30 4689 C 459.309 3.08488 -2.91608 0
M  V30 4690 C 457.216 2.74417 -5.23879 0
M  V30 4691 H 456.146 0.481413 -0.580308 0
M  V30 4692 H 458.797 0.557195 -1.74836 0
M  V30 4693 H 457.179 3.07601 -2.49395 0
M  V30 4694 H 458.353 1.03041 -4.49132 0
M  V30 4695 H 456.668 1.08464 -4.02025 0
M  V30 4696 H 459.265 3.84879 -3.71177 0
M  V30 4697 H 459.608 3.64481 -2.01145 0
M  V30 4698 H 460.141 2.40274 -3.17038 0
M  V30 4699 H 456.88 2.23242 -6.16314 0
M  V30 4700 H 456.4 3.41893 -4.92818 0
M  V30 4701 H 458.079 3.37362 -5.52083 0
M  V30 4702 N 458.211 1.37122 0.776871 0
M  V30 4703 C 459.439 1.3523 1.5659 0
M  V30 4704 C 459.854 -0.0635518 1.88693 0
M  V30 4705 O 459.211 -1.02394 1.51069 0
M  V30 4706 C 459.262 2.18583 2.8793 0
M  V30 4707 O 458.983 3.5465 2.57206 0
M  V30 4708 C 460.484 2.24612 3.82183 0
M  V30 4709 H 457.704 0.4634 0.485285 0
M  V30 4710 H 460.248 1.80392 0.963266 0
M  V30 4711 H 458.403 1.76943 3.4463 0
M  V30 4712 H 458.817 3.98286 3.41275 0
M  V30 4713 H 460.291 2.87267 4.71361 0
M  V30 4714 H 460.768 1.25309 4.20944 0
M  V30 4715 H 461.374 2.66543 3.31414 0
M  V30 4716 N 459.689 -1.00246 1.21608 0
M  V30 4717 C 460.935 -1.74319 1.03638 0
M  V30 4718 C 461.268 -1.89408 -0.428749 0
M  V30 4719 O 460.543 -1.43026 -1.3181 0
M  V30 4720 C 460.826 -3.15431 1.73711 0
M  V30 4721 C 460.679 -3.08049 3.27759 0
M  V30 4722 C 461.998 -4.14407 1.48173 0
M  V30 4723 H 459.117 -0.632741 0.377899 0
M  V30 4724 H 461.759 -1.16853 1.49818 0
M  V30 4725 H 459.909 -3.64493 1.34452 0
M  V30 4726 H 461.581 -2.66681 3.76403 0
M  V30 4727 H 459.824 -2.45088 3.57931 0
M  V30 4728 H 460.495 -4.07862 3.71958 0
M  V30 4729 H 462.971 -3.74061 1.82258 0
M  V30 4730 H 461.847 -5.11279 1.99713 0
M  V30 4731 H 462.108 -4.40174 0.412273 0
M  V30 4732 N 461.167 -1.02423 -1.1978 0
M  V30 4733 C 462.395 -0.737456 -1.93311 0
M  V30 4734 C 462.81 0.703023 -1.75223 0
M  V30 4735 O 462.167 1.47761 -1.07112 0
M  V30 4736 C 462.218 -1.0733 -3.45199 0
M  V30 4737 O 461.939 -2.4572 -3.62702 0
M  V30 4738 C 463.44 -0.80866 -4.35862 0
M  V30 4739 H 460.66 -0.2702 -0.614193 0
M  V30 4740 H 463.204 -1.36747 -1.52054 0
M  V30 4741 H 461.359 -0.488545 -3.84307 0
M  V30 4742 H 461.773 -2.58081 -4.56612 0
M  V30 4743 H 463.247 -1.09365 -5.41057 0
M  V30 4744 H 463.724 0.257025 -4.38447 0
M  V30 4745 H 464.33 -1.37592 -4.02428 0
M  V30 4746 N 462.645 1.35699 -0.801477 0
M  V30 4747 C 463.891 1.99208 -0.380022 0
M  V30 4748 C 464.224 1.63445 1.04878 0
M  V30 4749 O 463.499 0.895223 1.72673 0
M  V30 4750 C 463.782 3.55755 -0.557708 0
M  V30 4751 C 463.635 4.01332 -2.03107 0
M  V30 4752 C 464.954 4.40096 0.0197968 0
M  V30 4753 H 462.073 0.723667 -0.139552 0
M  V30 4754 H 464.715 1.60928 -1.01006 0
M  V30 4755 H 462.865 3.88494 -0.0213741 0
M  V30 4756 H 464.537 3.79026 -2.62939 0
M  V30 4757 H 462.78 3.52429 -2.52936 0
M  V30 4758 H 463.451 5.10234 -2.1063 0
M  V30 4759 H 465.927 4.13786 -0.438179 0
M  V30 4760 H 464.803 5.48735 -0.134477 0
M  V30 4761 H 465.064 4.2786 1.11303 0
M  V30 4762 N 464.123 0.554532 1.47522 0
M  V30 4763 C 465.086 -0.184174 2.28459 0
M  V30 4764 C 466.086 -0.845195 1.36796 0
M  V30 4765 O 467.276 -0.701467 1.59452 0
M  V30 4766 C 464.408 -1.26903 3.16399 0
M  V30 4767 H 465.601 0.526751 2.95238 0
M  V30 4768 H 463.154 0.311375 1.53167 0
M  V30 4769 H 463.889 -2.01244 2.54306 0
M  V30 4770 H 463.674 -0.799883 3.83854 0
M  V30 4771 H 465.164 -1.78794 3.77389 0
M  V30 4772 N 465.601 -1.54893 0.290851 0
M  V30 4773 C 467.012 -1.85584 -0.203816 0
M  V30 4774 C 467.363 -1.21285 -1.54222 0
M  V30 4775 O 466.488 -0.506841 -2.10381 0
M  V30 4776 C 467.083 -3.367 -0.376595 0
M  V30 4777 C 465.642 -3.6746 -0.815485 0
M  V30 4778 C 464.789 -2.77178 0.0821087 0
M  V30 4779 H 467.74 -1.50208 0.512175 0
M  V30 4780 H 467.761 -3.60656 -1.21275 0
M  V30 4781 H 467.273 -3.8347 0.59767 0
M  V30 4782 H 465.374 -3.26201 -1.80066 0
M  V30 4783 H 465.487 -4.7478 -0.641905 0
M  V30 4784 H 463.851 -2.50925 -0.436895 0
M  V30 4785 H 464.634 -3.26767 1.05254 0
M  V30 4786 N 467.08 -0.0183926 -1.57589 0
M  V30 4787 C 468.013 1.00148 -2.0505 0
M  V30 4788 C 468.991 1.32387 -0.944058 0
M  V30 4789 O 470.175 1.44237 -1.21358 0
M  V30 4790 C 467.302 2.32435 -2.46357 0
M  V30 4791 C 466.348 2.15731 -3.67916 0
M  V30 4792 S 467.181 1.46613 -5.15039 0
M  V30 4793 C 468.337 2.80293 -5.59631 0
M  V30 4794 H 468.57 0.597429 -2.91235 0
M  V30 4795 H 466.103 0.193002 -1.53189 0
M  V30 4796 H 468.061 3.0849 -2.70822 0
M  V30 4797 H 466.722 2.69975 -1.60537 0
M  V30 4798 H 465.915 3.13502 -3.9463 0
M  V30 4799 H 465.517 1.4782 -3.43548 0
M  V30 4800 H 467.809 3.76557 -5.63215 0
M  V30 4801 H 468.752 2.58256 -6.59325 0
M  V30 4802 H 469.16 2.85047 -4.87246 0
M  V30 4803 N 468.558 1.5553 0.254621 0
M  V30 4804 C 469.798 1.7876 0.991179 0
M  V30 4805 C 470.162 0.586669 1.82817 0
M  V30 4806 O 471.363 0.697585 2.5959 0
M  V30 4807 C 469.634 3.06679 1.83529 0
M  V30 4808 S 471.193 3.511 2.632 0
M  V30 4809 H 468.011 0.627916 0.333531 0
M  V30 4810 H 470.613 1.93766 0.259778 0
M  V30 4811 H 469.317 3.92158 1.20996 0
M  V30 4812 H 468.848 2.94388 2.60958 0
M  V30 4813 H 470.863 3.11823 3.8598 0
M  V30 4814 N 470.036 -0.519951 1.48776 0
M  V30 4815 C 470.999 -1.60574 1.6355 0
M  V30 4816 C 471.999 -1.52557 0.508234 0
M  V30 4817 O 473.189 -1.56047 0.774262 0
M  V30 4818 C 470.321 -3.00211 1.61512 0
M  V30 4819 H 471.514 -1.4881 2.60376 0
M  V30 4820 H 469.067 -0.742772 1.37523 0
M  V30 4821 H 469.802 -3.17471 0.662009 0
M  V30 4822 H 469.587 -3.07439 2.43359 0
M  V30 4823 H 471.077 -3.79134 1.75064 0
M  V30 4824 N 471.514 -1.37532 -0.769588 0
M  V30 4825 C 472.424 -1.35668 -1.91393 0
M  V30 4826 C 473.44 -0.255954 -1.72107 0
M  V30 4827 O 474.616 -0.491704 -1.95305 0
M  V30 4828 C 471.681 -1.16481 -3.26547 0
M  V30 4829 C 470.742 -2.36212 -3.58472 0
M  V30 4830 C 469.975 -2.17932 -4.87177 0
M  V30 4831 O 470.198 -1.1647 -5.58382 0
M  V30 4832 O 469.132 -3.06167 -5.18214 0
M  V30 4833 H 472.958 -2.32055 -1.95918 0
M  V30 4834 H 470.543 -1.18284 -0.912641 0
M  V30 4835 H 472.425 -1.07778 -4.07384 0
M  V30 4836 H 471.1 -0.231687 -3.2287 0
M  V30 4837 H 470.007 -2.50488 -2.77861 0
M  V30 4838 H 471.34 -3.281 -3.66894 0
M  V30 4839 N 472.992 0.995999 -1.22138 0
M  V30 4840 C 474.222 1.76809 -1.06874 0
M  V30 4841 C 474.63 1.85265 0.383866 0
M  V30 4842 O 473.973 1.31969 1.27789 0
M  V30 4843 C 474.035 3.2186 -1.60144 0
M  V30 4844 C 473.699 3.36958 -3.0872 0
M  V30 4845 C 474.696 3.2452 -4.0618 0
M  V30 4846 C 472.381 3.62109 -3.48112 0
M  V30 4847 C 474.375 3.37013 -5.41019 0
M  V30 4848 C 472.062 3.74243 -4.831 0
M  V30 4849 C 473.06 3.61702 -5.79362 0
M  V30 4850 O 472.748 3.73436 -7.119 0
M  V30 4851 H 472.48 0.562207 -0.375365 0
M  V30 4852 H 475.034 1.26113 -1.62125 0
M  V30 4853 H 473.264 3.73734 -0.992981 0
M  V30 4854 H 474.953 3.80775 -1.40589 0
M  V30 4855 H 475.719 3.05004 -3.77091 0
M  V30 4856 H 471.598 3.70949 -2.73712 0
M  V30 4857 H 475.142 3.27141 -6.16137 0
M  V30 4858 H 471.039 3.93266 -5.11872 0
M  V30 4859 H 471.807 3.90328 -7.19435 0
M  V30 4860 N 474.47 1.03057 1.19235 0
M  V30 4861 C 475.418 0.606391 2.24557 0
M  V30 4862 C 476.412 -0.361826 1.65491 0
M  V30 4863 O 477.618 -0.23022 1.78522 0
M  V30 4864 H 473.993 0.177838 0.730669 0
M  V30 4865 H 475.964 1.50529 2.5765 0
M  V30 4866 C 474.713 -0.0252127 3.47691 0
M  V30 4867 H 474.036 0.710838 3.9343 0
M  V30 4868 H 475.476 -0.284931 4.23042 0
M  V30 4869 C 473.935 -1.27229 3.11953 0
M  V30 4870 O 474.465 -2.36416 3.24762 0
M  V30 4871 N 472.671 -1.16169 2.6637 0
M  V30 4872 H 472.218 -0.273189 2.56147 0
M  V30 4873 H 472.176 -1.99703 2.42829 0
M  V30 4874 N 475.948 -1.35272 0.808662 0
M  V30 4875 C 477.196 -1.98316 0.389233 0
M  V30 4876 C 477.517 -1.64465 -1.04767 0
M  V30 4877 O 476.787 -0.928175 -1.72516 0
M  V30 4878 H 475.367 -0.733585 0.140935 0
M  V30 4879 H 478.029 -1.6515 1.03496 0
M  V30 4880 H 477.125 -3.08123 0.496631 0
M  V30 4881 N 477.426 -0.562348 -1.47226 0
M  V30 4882 C 478.356 0.170627 -2.32876 0
M  V30 4883 C 479.337 0.903748 -1.44106 0
M  V30 4884 O 480.522 0.883206 -1.72954 0
M  V30 4885 C 477.652 1.19786 -3.25989 0
M  V30 4886 C 476.606 0.580875 -4.2404 0
M  V30 4887 C 475.932 1.71311 -5.06514 0
M  V30 4888 C 477.232 -0.468714 -5.20193 0
M  V30 4889 H 478.926 -0.544441 -2.94408 0
M  V30 4890 H 476.472 -0.263271 -1.41573 0
M  V30 4891 H 478.425 1.71884 -3.84752 0
M  V30 4892 H 477.149 1.94294 -2.62521 0
M  V30 4893 H 475.808 0.0811538 -3.6651 0
M  V30 4894 H 475.456 2.44736 -4.39447 0
M  V30 4895 H 475.156 1.30604 -5.72902 0
M  V30 4896 H 476.68 2.23725 -5.68137 0
M  V30 4897 H 478.094 -0.0336028 -5.7329 0
M  V30 4898 H 476.491 -0.794957 -5.94811 0
M  V30 4899 H 477.561 -1.36269 -4.65359 0
M  V30 4900 N 478.904 1.54736 -0.299062 0
M  V30 4901 C 480.32 1.59507 0.0543849 0
M  V30 4902 C 480.52 1.31606 1.52585 0
M  V30 4903 O 479.576 1.08853 2.27832 0
M  V30 4904 C 480.889 2.98751 -0.34181 0
M  V30 4905 C 482.437 3.1165 -0.290414 0
M  V30 4906 C 482.912 4.53199 -0.661402 0
M  V30 4907 N 484.403 4.59114 -0.613863 0
M  V30 4908 C 485.138 5.66709 -0.873417 0
M  V30 4909 N 484.634 6.82349 -1.19884 0
M  V30 4910 N 486.427 5.56369 -0.800608 0
M  V30 4911 H 478.578 1.71133 -1.25806 0
M  V30 4912 H 480.841 0.799186 -0.509908 0
M  V30 4913 H 480.547 3.24085 -1.36608 0
M  V30 4914 H 480.421 3.75961 0.305508 0
M  V30 4915 H 482.808 2.86066 0.724605 0
M  V30 4916 H 482.889 2.366 -0.972327 0
M  V30 4917 H 482.533 4.79513 -1.67422 0
M  V30 4918 H 482.463 5.26583 0.0425612 0
M  V30 4919 H 484.954 3.76053 -0.3732 0
M  V30 4920 H 485.267 7.60326 -1.38291 0
M  V30 4921 H 483.612 6.83906 -1.23685 0
M  V30 4922 H 486.803 4.64904 -0.546045 0
M  V30 4923 H 486.976 6.40139 -1.00626 0
M  V30 4924 N 480.382 0.0267497 1.57577 0
M  V30 4925 C 481.312 -0.954308 2.13108 0
M  V30 4926 C 482.293 -1.34088 1.04663 0
M  V30 4927 O 483.478 -1.41992 1.32484 0
M  V30 4928 C 480.608 -2.23744 2.65624 0
M  V30 4929 C 479.562 -1.99168 3.78835 0
M  V30 4930 C 478.888 -3.33726 4.17769 0
M  V30 4931 C 480.188 -1.33277 5.0501 0
M  V30 4932 H 481.882 -0.491848 2.95332 0
M  V30 4933 H 479.428 -0.23514 1.42067 0
M  V30 4934 H 481.381 -2.92754 3.03106 0
M  V30 4935 H 480.105 -2.72151 1.80558 0
M  V30 4936 H 478.764 -1.32577 3.41788 0
M  V30 4937 H 478.412 -3.79888 3.29688 0
M  V30 4938 H 478.112 -3.18089 4.94058 0
M  V30 4939 H 479.636 -4.04008 4.57832 0
M  V30 4940 H 481.05 -1.92283 5.40093 0
M  V30 4941 H 479.447 -1.28045 5.8628 0
M  V30 4942 H 480.517 -0.305411 4.83937 0
M  V30 4943 N 481.861 -1.55662 -0.24637 0
M  V30 4944 C 482.824 -1.89558 -1.28842 0
M  V30 4945 C 483.824 -0.772082 -1.41052 0
M  V30 4946 O 485.014 -1.04007 -1.39743 0
M  V30 4947 C 482.146 -2.12449 -2.66605 0
M  V30 4948 H 483.339 -2.82735 -1.00004 0
M  V30 4949 H 480.892 -1.48562 -0.485684 0
M  V30 4950 H 481.627 -1.21742 -3.00582 0
M  V30 4951 H 481.412 -2.94273 -2.59125 0
M  V30 4952 H 482.902 -2.39854 -3.41847 0
M  V30 4953 N 483.339 0.512053 -1.4905 0
M  V30 4954 C 484.271 1.63121 -1.6101 0
M  V30 4955 C 485.284 1.55145 -0.493352 0
M  V30 4956 O 486.473 1.61278 -0.764955 0
M  V30 4957 C 483.573 3.01863 -1.54052 0
M  V30 4958 C 482.746 3.35138 -2.81072 0
M  V30 4959 C 481.805 4.5324 -2.67319 0
M  V30 4960 O 480.831 4.55571 -3.41238 0
M  V30 4961 N 482.033 5.52495 -1.78127 0
M  V30 4962 H 484.798 1.53292 -2.5753 0
M  V30 4963 H 482.359 0.699706 -1.45999 0
M  V30 4964 H 484.351 3.78774 -1.42521 0
M  V30 4965 H 482.921 3.05675 -0.654345 0
M  V30 4966 H 482.141 2.4723 -3.07036 0
M  V30 4967 H 483.429 3.54162 -3.65304 0
M  V30 4968 H 482.827 5.53403 -1.17308 0
M  V30 4969 H 481.384 6.28553 -1.72525 0
M  V30 4970 N 484.817 1.37938 0.762283 0
M  V30 4971 C 485.78 1.34279 1.85747 0
M  V30 4972 C 486.78 0.244969 1.58923 0
M  V30 4973 O 487.97 0.501365 1.66829 0
M  V30 4974 C 485.102 1.08833 3.23061 0
M  V30 4975 H 486.295 2.31705 1.90401 0
M  V30 4976 H 483.848 1.23105 0.963057 0
M  V30 4977 H 484.583 0.119767 3.24079 0
M  V30 4978 H 484.368 1.88306 3.43923 0
M  V30 4979 H 485.858 1.08946 4.03138 0
M  V30 4980 N 486.295 -0.989507 1.22664 0
M  V30 4981 C 487.227 -2.0824 0.957542 0
M  V30 4982 C 488.24 -1.6267 -0.0651098 0
M  V30 4983 O 489.429 -1.77695 0.169312 0
M  V30 4984 C 486.529 -3.36298 0.419145 0
M  V30 4985 C 485.702 -4.10882 1.49982 0
M  V30 4986 C 484.761 -5.17221 0.967904 0
M  V30 4987 O 483.787 -5.44613 1.65487 0
M  V30 4988 N 484.989 -5.80124 -0.20896 0
M  V30 4989 H 487.754 -2.31904 1.89843 0
M  V30 4990 H 485.315 -1.15552 1.13399 0
M  V30 4991 H 487.307 -4.04671 0.0485451 0
M  V30 4992 H 485.877 -3.09671 -0.426937 0
M  V30 4993 H 485.097 -3.37092 2.04359 0
M  V30 4994 H 486.385 -4.57482 2.22682 0
M  V30 4995 H 485.783 -5.60244 -0.783818 0
M  V30 4996 H 484.34 -6.49715 -0.520913 0
M  V30 4997 N 487.773 -1.03688 -1.18687 0
M  V30 4998 C 489.021 -0.736572 -1.88199 0
M  V30 4999 C 489.342 0.737665 -1.80509 0
M  V30 5000 O 488.612 1.53204 -1.22088 0
M  V30 5001 H 487.192 -0.269466 -0.696704 0
M  V30 5002 H 489.854 -1.31282 -1.44052 0
M  V30 5003 H 488.95 -1.03802 -2.94332 0
M  V30 5004 N 489.251 1.34841 -0.815825 0
M  V30 5005 C 490.181 2.32187 -0.247298 0
M  V30 5006 C 491.162 1.5791 0.632344 0
M  V30 5007 O 492.347 1.8593 0.560698 0
M  V30 5008 C 489.477 3.42122 0.597466 0
M  V30 5009 C 488.431 4.27602 -0.184446 0
M  V30 5010 C 487.757 5.28942 0.782609 0
M  V30 5011 C 489.057 5.03502 -1.38865 0
M  V30 5012 H 490.751 2.79985 -1.06061 0
M  V30 5013 H 488.297 1.34611 -0.511461 0
M  V30 5014 H 490.25 4.09232 1.00533 0
M  V30 5015 H 488.974 2.92956 1.44376 0
M  V30 5016 H 487.633 3.62085 -0.573592 0
M  V30 5017 H 487.281 4.7604 1.62466 0
M  V30 5018 H 486.981 5.87008 0.263695 0
M  V30 5019 H 488.505 5.98922 1.18848 0
M  V30 5020 H 489.919 5.63506 -1.05518 0
M  V30 5021 H 488.316 5.71108 -1.8427 0
M  V30 5022 H 489.386 4.33608 -2.17054 0
M  V30 5023 N 490.729 0.570148 1.46925 0
M  V30 5024 C 492.14 0.1402 1.86173 0
M  V30 5025 C 492.491 -1.29347 1.47526 0
M  V30 5026 O 491.616 -1.97508 0.884292 0
M  V30 5027 C 492.211 0.247661 3.37894 0
M  V30 5028 C 490.77 -0.127332 3.76185 0
M  V30 5029 C 489.917 0.589349 2.70965 0
M  V30 5030 H 492.868 0.779117 1.38259 0
M  V30 5031 H 492.889 -0.530341 3.76786 0
M  V30 5032 H 492.401 1.29121 3.65991 0
M  V30 5033 H 490.502 -1.17149 3.53704 0
M  V30 5034 H 490.615 0.240238 4.78497 0
M  V30 5035 H 488.979 0.0309824 2.54681 0
M  V30 5036 H 489.762 1.6343 3.01903 0
M  V30 5037 N 492.207 -1.54576 0.307264 0
M  V30 5038 C 493.435 -2.04675 -0.302597 0
M  V30 5039 C 493.85 -1.18425 -1.47041 0
M  V30 5040 O 493.207 -0.211257 -1.81273 0
M  V30 5041 C 493.258 -3.53575 -0.752801 0
M  V30 5042 O 492.979 -4.36547 0.368536 0
M  V30 5043 C 494.48 -4.19699 -1.42717 0
M  V30 5044 H 491.7 -0.66786 -0.0648374 0
M  V30 5045 H 494.244 -1.99516 0.448716 0
M  V30 5046 H 492.399 -3.59074 -1.45412 0
M  V30 5047 H 492.813 -5.24497 0.0168937 0
M  V30 5048 H 494.287 -5.25388 -1.69327 0
M  V30 5049 H 494.764 -3.69815 -2.36925 0
M  V30 5050 H 495.37 -4.18293 -0.768856 0
M  V30 5051 N 493.685 -0.035106 -1.57561 0
M  V30 5052 C 494.618 0.979673 -2.06101 0
M  V30 5053 C 495.596 1.31378 -0.958046 0
M  V30 5054 O 496.78 1.42942 -1.22881 0
M  V30 5055 C 493.907 2.29809 -2.48808 0
M  V30 5056 C 492.953 2.11817 -3.70184 0
M  V30 5057 S 493.786 1.41143 -5.16565 0
M  V30 5058 C 494.942 2.74341 -5.62572 0
M  V30 5059 H 495.175 0.566506 -2.91853 0
M  V30 5060 H 492.708 0.176744 -1.53385 0
M  V30 5061 H 494.666 3.056 -2.74078 0
M  V30 5062 H 493.327 2.68257 -1.63392 0
M  V30 5063 H 492.52 3.09299 -3.97933 0
M  V30 5064 H 492.122 1.44168 -3.45097 0
M  V30 5065 H 494.414 3.70562 -5.67177 0
M  V30 5066 H 495.357 2.51249 -6.62027 0
M  V30 5067 H 495.765 2.79863 -4.90242 0
M  V30 5068 N 495.163 1.55791 0.238111 0
M  V30 5069 C 496.111 1.91885 1.31464 0
M  V30 5070 C 497.105 0.798929 1.49377 0
M  V30 5071 O 498.311 0.983626 1.50747 0
M  V30 5072 H 494.686 0.609551 0.440399 0
M  V30 5073 H 496.657 2.81747 0.982925 0
M  V30 5074 C 495.406 2.23763 2.6613 0
M  V30 5075 H 494.729 3.09444 2.53149 0
M  V30 5076 H 496.169 2.52915 3.40309 0
M  V30 5077 C 494.628 1.05699 3.1989 0
M  V30 5078 O 495.158 0.309524 4.00506 0
M  V30 5079 N 493.364 0.845251 2.78036 0
M  V30 5080 H 492.911 1.4548 2.12588 0
M  V30 5081 H 492.869 0.0569973 3.14348 0
M  V30 5082 N 496.642 -0.504142 1.49319 0
M  V30 5083 C 497.87 -1.28256 1.62351 0
M  V30 5084 C 498.285 -1.86502 0.293682 0
M  V30 5085 O 497.642 -1.67678 -0.720449 0
M  V30 5086 C 497.693 -2.41507 2.68992 0
M  V30 5087 O 497.414 -1.85656 3.96817 0
M  V30 5088 C 498.915 -3.32929 2.927 0
M  V30 5089 H 496.135 -0.389115 0.546654 0
M  V30 5090 H 498.679 -0.605531 1.95329 0
M  V30 5091 H 496.834 -3.05046 2.38801 0
M  V30 5092 H 497.248 -2.59981 4.55533 0
M  V30 5093 H 498.722 -4.0868 3.71058 0
M  V30 5094 H 499.199 -3.89733 2.02496 0
M  V30 5095 H 499.805 -2.75158 3.24296 0
M  V30 5096 N 498.12 -1.38341 -0.754957 0
M  V30 5097 C 499.531 -1.30803 -1.3322 0
M  V30 5098 C 499.882 0.0368 -1.96165 0
M  V30 5099 O 499.007 0.938844 -1.94974 0
M  V30 5100 C 499.602 -2.3688 -2.42225 0
M  V30 5101 C 498.161 -2.32925 -2.95674 0
M  V30 5102 C 497.308 -2.19819 -1.69042 0
M  V30 5103 H 500.259 -1.48719 -0.553937 0
M  V30 5104 H 500.28 -2.02517 -3.22129 0
M  V30 5105 H 499.792 -3.34747 -1.96383 0
M  V30 5106 H 497.893 -1.38635 -3.45848 0
M  V30 5107 H 498.006 -3.27008 -3.50146 0
M  V30 5108 H 496.37 -1.66648 -1.92615 0
M  V30 5109 H 497.153 -3.19625 -1.25279 0
M  V30 5110 N 499.598 0.982988 -1.23187 0
M  V30 5111 C 500.846 1.72052 -1.06031 0
M  V30 5112 C 501.167 1.90769 0.404019 0
M  V30 5113 O 500.437 1.47446 1.28982 0
M  V30 5114 H 499.017 0.637499 -0.389363 0
M  V30 5115 H 501.679 1.18338 -1.54862 0
M  V30 5116 H 500.775 2.7111 -1.54615 0
M  V30 5117 N 501.076 1.04316 1.18135 0
M  V30 5118 C 502.301 0.768047 1.92655 0
M  V30 5119 C 502.726 -0.66904 1.758 0
M  V30 5120 O 502.084 -1.46372 1.06981 0
M  V30 5121 C 502.132 1.14239 3.42026 0
M  V30 5122 O 501.236 0.269333 4.1152 0
M  V30 5123 H 500.577 0.282436 0.600937 0
M  V30 5124 H 503.107 1.39367 1.49793 0
M  V30 5125 H 503.117 1.10538 3.92741 0
M  V30 5126 H 501.792 2.18928 3.53615 0
M  V30 5127 H 500.369 0.366175 3.71098 0
M  V30 5128 N 502.554 -1.34406 0.822964 0
M  V30 5129 C 503.782 -2.02508 0.424039 0
M  V30 5130 C 504.197 -1.61975 -0.970022 0
M  V30 5131 O 503.554 -0.825228 -1.62777 0
M  V30 5132 C 503.605 -3.57789 0.516657 0
M  V30 5133 O 503.326 -3.96853 1.85577 0
M  V30 5134 C 504.827 -4.43157 0.112637 0
M  V30 5135 H 502.047 -0.649063 0.170173 0
M  V30 5136 H 504.591 -1.7168 1.11113 0
M  V30 5137 H 502.746 -3.87207 -0.122353 0
M  V30 5138 H 503.16 -4.91538 1.83005 0
M  V30 5139 H 504.634 -5.51527 0.228526 0
M  V30 5140 H 505.111 -4.28939 -0.943837 0
M  V30 5141 H 505.717 -4.19067 0.725449 0
M  V30 5142 N 504.032 -0.577932 -1.46621 0
M  V30 5143 C 504.964 0.195801 -2.28362 0
M  V30 5144 C 505.977 0.859983 -1.38232 0
M  V30 5145 O 507.166 0.730349 -1.62875 0
M  V30 5146 C 504.266 1.29639 -3.13124 0
M  V30 5147 C 503.439 0.725049 -4.31349 0
M  V30 5148 C 502.498 1.71274 -4.97546 0
M  V30 5149 O 501.524 1.25067 -5.5529 0
M  V30 5150 N 502.726 3.04672 -4.94121 0
M  V30 5151 H 505.491 -0.505468 -2.95407 0
M  V30 5152 H 503.052 -0.415381 -1.56481 0
M  V30 5153 H 505.044 1.95631 -3.54275 0
M  V30 5154 H 503.614 1.90059 -2.48186 0
M  V30 5155 H 502.834 -0.112205 -3.9404 0
M  V30 5156 H 504.122 0.323034 -5.07774 0
M  V30 5157 H 503.52 3.4484 -4.48444 0
M  V30 5158 H 502.077 3.66166 -5.39227 0
M  V30 5159 N 505.51 1.54411 -0.315457 0
M  V30 5160 C 506.757 2.00419 0.289543 0
M  V30 5161 C 507.085 1.20373 1.52776 0
M  V30 5162 O 506.34 0.271769 1.93804 0
M  V30 5163 C 506.639 3.50936 0.676652 0
M  V30 5164 C 506.305 4.48532 -0.461472 0
M  V30 5165 C 504.967 4.74936 -0.773879 0
M  V30 5166 C 507.319 5.06567 -1.22637 0
M  V30 5167 C 504.647 5.56634 -1.85405 0
M  V30 5168 C 506.999 5.89441 -2.29657 0
M  V30 5169 C 505.663 6.1415 -2.61488 0
M  V30 5170 H 504.933 0.733386 0.105951 0
M  V30 5171 H 507.58 1.86434 -0.437554 0
M  V30 5172 H 505.885 3.62606 1.48405 0
M  V30 5173 H 507.582 3.83971 1.15618 0
M  V30 5174 H 504.172 4.28096 -0.207893 0
M  V30 5175 H 508.356 4.86157 -0.998271 0
M  V30 5176 H 503.612 5.74012 -2.10523 0
M  V30 5177 H 507.786 6.33432 -2.89374 0
M  V30 5178 H 505.413 6.77245 -3.45317 0
M  V30 5179 N 506.988 0.0434614 1.5754 0
M  V30 5180 C 507.918 -0.931651 2.14109 0
M  V30 5181 C 508.899 -1.32971 1.06079 0
M  V30 5182 O 510.084 -1.40579 1.33982 0
M  V30 5183 C 507.214 -2.20914 2.67982 0
M  V30 5184 C 506.168 -1.95139 3.80926 0
M  V30 5185 C 505.494 -3.29276 4.21285 0
M  V30 5186 C 506.794 -1.27913 5.06395 0
M  V30 5187 H 508.488 -0.460497 2.95837 0
M  V30 5188 H 506.034 -0.220058 1.42309 0
M  V30 5189 H 507.987 -2.89522 3.06194 0
M  V30 5190 H 506.711 -2.70221 1.83434 0
M  V30 5191 H 505.37 -1.28945 3.43175 0
M  V30 5192 H 505.018 -3.76369 3.33699 0
M  V30 5193 H 504.718 -3.12831 4.97404 0
M  V30 5194 H 506.242 -3.99129 4.62091 0
M  V30 5195 H 507.656 -1.86544 5.42102 0
M  V30 5196 H 506.053 -1.2182 5.87605 0
M  V30 5197 H 507.123 -0.254066 4.84234 0
M  V30 5198 N 508.466 -1.55915 -0.229846 0
M  V30 5199 C 509.694 -1.82617 -0.972562 0
M  V30 5200 C 510.109 -0.621488 -1.78278 0
M  V30 5201 O 509.466 0.409956 -1.77836 0
M  V30 5202 C 509.517 -3.0774 -1.89679 0
M  V30 5203 O 509.238 -4.23559 -1.11934 0
M  V30 5204 C 510.739 -3.47368 -2.75409 0
M  V30 5205 H 507.959 -0.60727 -0.285419 0
M  V30 5206 H 510.503 -2.02996 -0.247579 0
M  V30 5207 H 508.658 -2.89361 -2.57583 0
M  V30 5208 H 509.072 -4.94586 -1.74599 0
M  V30 5209 H 510.546 -4.37977 -3.35977 0
M  V30 5210 H 511.023 -2.68737 -3.47386 0
M  V30 5211 H 511.629 -3.68158 -2.12931 0
M  V30 5212 N 509.944 0.496216 -1.49584 0
M  V30 5213 C 511.169 1.27865 -1.63295 0
M  V30 5214 C 511.594 1.85592 -0.306156 0
M  V30 5215 O 510.952 1.66092 0.726851 0
M  V30 5216 C 511 2.38128 -2.7079 0
M  V30 5217 O 510.104 3.42108 -2.30296 0
M  V30 5218 H 509.445 0.377279 -0.546403 0
M  V30 5219 H 511.975 0.593497 -1.95803 0
M  V30 5220 H 511.985 2.8382 -2.93104 0
M  V30 5221 H 510.66 1.95479 -3.67098 0
M  V30 5222 H 509.237 3.02301 -2.18331 0
M  V30 5223 N 511.423 1.38739 0.74761 0
M  V30 5224 C 512.7 1.25791 1.49786 0
M  V30 5225 C 513.08 -0.138075 2.10648 0
M  V30 5226 O 512.428 -1.14815 1.9756 0
M  V30 5227 C 512.638 2.37265 2.55942 0
M  V30 5228 C 513.986 2.75978 3.22679 0
M  V30 5229 O 515.01 2.36621 2.6625 0
M  V30 5230 O 513.869 3.43867 4.24756 0
M  V30 5231 H 510.963 0.492251 0.664543 0
M  V30 5232 H 513.509 1.50582 0.782511 0
M  V30 5233 H 512.281 3.30644 2.0926 0
M  V30 5234 H 511.904 2.14071 3.35051 0
M  V30 5235 N 512.901 -0.976442 1.23707 0
M  V30 5236 C 514.178 -1.69296 0.979699 0
M  V30 5237 C 514.558 -2.0508 -0.500555 0
M  V30 5238 O 513.906 -1.74708 -1.47273 0
M  V30 5239 C 514.116 -2.93143 1.89389 0
M  V30 5240 C 515.464 -3.65572 2.15968 0
M  V30 5241 O 516.488 -3.03184 1.86971 0
M  V30 5242 O 515.347 -4.77859 2.65167 0
M  V30 5243 H 512.441 -0.739708 0.369812 0
M  V30 5244 H 514.987 -1.03131 1.34767 0
M  V30 5245 H 513.759 -2.63327 2.89439 0
M  V30 5246 H 513.382 -3.67044 1.52854 0
M  V30 5247 N 514.379 -1.04941 -1.1758 0
M  V30 5248 C 515.626 -0.757989 -1.87779 0
M  V30 5249 C 515.954 0.714827 -1.80888 0
M  V30 5250 O 515.209 1.53824 -1.20982 0
M  V30 5251 C 515.508 -1.18062 -3.37337 0
M  V30 5252 C 515.174 -2.65521 -3.6443 0
M  V30 5253 C 513.836 -3.05804 -3.71534 0
M  V30 5254 C 516.188 -3.60822 -3.76108 0
M  V30 5255 C 513.516 -4.40256 -3.87803 0
M  V30 5256 C 515.868 -4.95005 -3.93895 0
M  V30 5257 C 514.532 -5.34945 -3.99237 0
M  V30 5258 H 513.802 -0.277368 -0.68713 0
M  V30 5259 H 516.449 -1.31603 -1.39115 0
M  V30 5260 H 514.754 -0.541525 -3.8804 0
M  V30 5261 H 516.451 -0.932368 -3.9001 0
M  V30 5262 H 513.041 -2.33324 -3.59524 0
M  V30 5263 H 517.225 -3.30841 -3.69943 0
M  V30 5264 H 512.481 -4.70707 -3.90186 0
M  V30 5265 H 516.655 -5.68746 -4.01872 0
M  V30 5266 H 514.282 -6.39135 -4.11596 0
M  V30 5267 N 515.857 1.33968 -0.830081 0
M  V30 5268 C 516.789 2.28194 -0.21448 0
M  V30 5269 C 517.802 1.5135 0.599752 0
M  V30 5270 O 518.991 1.73286 0.42826 0
M  V30 5271 C 516.091 3.31221 0.717356 0
M  V30 5272 C 515.264 4.37365 -0.055613 0
M  V30 5273 C 514.323 5.2011 0.798231 0
M  V30 5274 O 513.349 5.68691 0.240616 0
M  V30 5275 N 514.551 5.40523 2.11695 0
M  V30 5276 H 517.316 2.81662 -1.02405 0
M  V30 5277 H 514.877 1.46568 -0.687713 0
M  V30 5278 H 516.869 3.83477 1.29334 0
M  V30 5279 H 515.439 2.78095 1.42765 0
M  V30 5280 H 514.659 3.85727 -0.812936 0
M  V30 5281 H 515.947 5.05397 -0.587444 0
M  V30 5282 H 515.345 5.0274 2.59363 0
M  V30 5283 H 513.902 5.95871 2.64162 0
M  V30 5284 N 517.335 0.585699 1.46312 0
M  V30 5285 C 518.56 0.0762461 2.0726 0
M  V30 5286 C 518.985 -1.22071 1.43109 0
M  V30 5287 O 518.343 -1.73804 0.515942 0
M  V30 5288 C 518.391 -0.0729404 3.60526 0
M  V30 5289 O 517.495 -1.1287 3.96654 0
M  V30 5290 H 516.836 0.0641558 0.660893 0
M  V30 5291 H 519.366 0.809492 1.87905 0
M  V30 5292 H 519.376 -0.278158 4.07051 0
M  V30 5293 H 518.051 0.874188 4.06609 0
M  V30 5294 H 516.628 -0.901703 3.61834 0
M  V30 5295 N 518.813 -1.54241 0.323641 0
M  V30 5296 C 520.224 -1.85975 -0.164405 0
M  V30 5297 C 520.575 -1.24529 -1.51615 0
M  V30 5298 O 519.7 -0.551351 -2.09258 0
M  V30 5299 C 520.295 -3.37424 -0.305091 0
M  V30 5300 C 518.854 -3.69107 -0.737358 0
M  V30 5301 C 518.001 -2.76942 0.140884 0
M  V30 5302 H 520.952 -1.49088 0.543922 0
M  V30 5303 H 520.973 -3.63147 -1.13598 0
M  V30 5304 H 520.485 -3.82116 0.678876 0
M  V30 5305 H 518.586 -3.29947 -1.73107 0
M  V30 5306 H 518.699 -4.76035 -0.541053 0
M  V30 5307 H 517.063 -2.51795 -0.383572 0
M  V30 5308 H 517.846 -3.24461 1.12162 0
M  V30 5309 N 520.291 -0.0518155 -1.57515 0
M  V30 5310 C 521.531 0.625712 -1.94587 0
M  V30 5311 C 521.895 1.6797 -0.930053 0
M  V30 5312 O 523.096 2.41135 -1.18774 0
M  V30 5313 C 521.367 1.20574 -3.36447 0
M  V30 5314 S 522.926 1.90118 -3.95475 0
M  V30 5315 H 519.744 0.205434 -0.680675 0
M  V30 5316 H 522.346 -0.120906 -1.95126 0
M  V30 5317 H 521.05 0.426521 -4.08178 0
M  V30 5318 H 520.581 1.98916 -3.39405 0
M  V30 5319 H 522.596 3.18184 -3.80753 0
M  V30 5320 N 521.769 1.56035 0.221574 0
M  V30 5321 C 522.732 1.91584 1.2581 0
M  V30 5322 C 523.732 0.794425 1.39805 0
M  V30 5323 O 524.922 1.06217 1.38071 0
M  V30 5324 C 522.054 2.16663 2.63192 0
M  V30 5325 H 523.247 2.8429 0.954935 0
M  V30 5326 H 520.8 1.49316 0.461988 0
M  V30 5327 H 521.535 1.26508 2.98607 0
M  V30 5328 H 521.32 2.98358 2.5441 0
M  V30 5329 H 522.81 2.45262 3.37988 0
M  V30 5330 N 523.247 -0.488276 1.49845 0
M  V30 5331 C 524.177 -1.59675 1.70371 0
M  V30 5332 C 525.158 -1.60878 0.552473 0
M  V30 5333 O 526.343 -1.77417 0.78973 0
M  V30 5334 C 523.473 -2.98098 1.782 0
M  V30 5335 C 522.427 -3.11761 2.93239 0
M  V30 5336 C 521.753 -4.51661 2.86193 0
M  V30 5337 C 523.053 -2.90589 4.33999 0
M  V30 5338 H 524.747 -1.42752 2.63177 0
M  V30 5339 H 522.293 -0.685317 1.26647 0
M  V30 5340 H 524.246 -3.75555 1.91144 0
M  V30 5341 H 522.97 -3.16138 0.820018 0
M  V30 5342 H 521.629 -2.36732 2.79917 0
M  V30 5343 H 521.277 -4.66595 1.87877 0
M  V30 5344 H 520.977 -4.61742 3.63412 0
M  V30 5345 H 522.501 -5.31162 3.01163 0
M  V30 5346 H 523.915 -3.57807 4.47936 0
M  V30 5347 H 522.312 -3.1213 5.12538 0
M  V30 5348 H 523.382 -1.86595 4.4756 0
M  V30 5349 N 524.725 -1.39134 -0.740242 0
M  V30 5350 C 526.136 -1.32208 -1.31825 0
M  V30 5351 C 526.487 0.0159919 -1.96193 0
M  V30 5352 O 525.612 0.918111 -1.95958 0
M  V30 5353 C 526.207 -2.39436 -2.39699 0
M  V30 5354 C 524.766 -2.36048 -2.93187 0
M  V30 5355 C 523.913 -2.21599 -1.66701 0
M  V30 5356 H 526.864 -1.49298 -0.538133 0
M  V30 5357 H 526.885 -2.05922 -3.19963 0
M  V30 5358 H 526.397 -3.36811 -1.92821 0
M  V30 5359 H 524.498 -1.42295 -3.44359 0
M  V30 5360 H 524.611 -3.30704 -3.46658 0
M  V30 5361 H 522.975 -1.68681 -1.90837 0
M  V30 5362 H 523.758 -3.20936 -1.21882 0
M  V30 5363 N 526.204 0.969867 -1.24223 0
M  V30 5364 C 527.136 2.0669 -0.99055 0
M  V30 5365 C 528.149 1.62753 0.0392222 0
M  V30 5366 O 529.338 1.77403 -0.197561 0
M  V30 5367 C 526.438 3.35589 -0.472594 0
M  V30 5368 C 525.611 4.08444 -1.56499 0
M  V30 5369 C 524.67 5.15616 -1.05007 0
M  V30 5370 O 523.696 5.41911 -1.7413 0
M  V30 5371 N 524.898 5.80383 0.116641 0
M  V30 5372 H 527.663 2.28855 -1.93508 0
M  V30 5373 H 525.224 1.13733 -1.15223 0
M  V30 5374 H 527.216 4.04542 -0.112919 0
M  V30 5375 H 525.786 3.10311 0.377617 0
M  V30 5376 H 525.006 3.33798 -2.09696 0
M  V30 5377 H 526.294 4.53882 -2.29932 0
M  V30 5378 H 525.692 5.6142 0.694589 0
M  V30 5379 H 524.249 6.50462 0.417483 0
M  V30 5380 N 527.682 1.05563 1.17022 0
M  V30 5381 C 528.929 0.767937 1.87374 0
M  V30 5382 C 529.257 -0.705224 1.81265 0
M  V30 5383 O 528.512 -1.5318 1.21796 0
M  V30 5384 C 528.811 1.19849 3.36706 0
M  V30 5385 C 528.477 2.6745 3.63017 0
M  V30 5386 C 527.139 3.0777 3.69907 0
M  V30 5387 C 529.491 3.62811 3.74189 0
M  V30 5388 C 526.819 4.42307 3.85463 0
M  V30 5389 C 529.171 4.97087 3.91264 0
M  V30 5390 C 527.835 5.37055 3.96394 0
M  V30 5391 H 527.105 0.281008 0.68565 0
M  V30 5392 H 529.752 1.32339 1.38415 0
M  V30 5393 H 528.057 0.562096 3.87747 0
M  V30 5394 H 529.754 0.953038 3.8951 0
M  V30 5395 H 526.344 2.35228 3.58282 0
M  V30 5396 H 530.528 3.32798 3.68183 0
M  V30 5397 H 525.784 4.72769 3.87684 0
M  V30 5398 H 529.958 5.70869 3.9885 0
M  V30 5399 H 527.585 6.41308 4.082 0
M  V30 5400 N 529.16 -1.33526 0.837174 0
M  V30 5401 C 530.437 -1.92369 0.354065 0
M  V30 5402 C 530.817 -1.76348 -1.16038 0
M  V30 5403 O 530.165 -1.15083 -1.97403 0
M  V30 5404 C 530.375 -3.39728 0.799101 0
M  V30 5405 C 531.723 -4.16877 0.806139 0
M  V30 5406 O 532.747 -3.48373 0.742597 0
M  V30 5407 O 531.606 -5.39166 0.892345 0
M  V30 5408 H 528.7 -0.820952 0.0998378 0
M  V30 5409 H 531.246 -1.42409 0.922913 0
M  V30 5410 H 530.018 -3.45254 1.84162 0
M  V30 5411 H 529.641 -3.97062 0.206731 0
M  V30 5412 N 530.638 -0.59345 -1.46 0
M  V30 5413 C 531.884 -0.0832754 -2.02629 0
M  V30 5414 C 532.217 1.27749 -1.46266 0
M  V30 5415 O 531.492 1.8395 -0.631866 0
M  V30 5416 C 531.775 -0.0290756 -3.60088 0
M  V30 5417 C 531.628 -1.41951 -4.26814 0
M  V30 5418 C 532.947 0.666055 -4.35031 0
M  V30 5419 H 530.066 -0.031736 -0.736316 0
M  V30 5420 H 532.708 -0.762711 -1.74019 0
M  V30 5421 H 530.858 0.549532 -3.84594 0
M  V30 5422 H 532.53 -2.04411 -4.13538 0
M  V30 5423 H 530.773 -1.98422 -3.8576 0
M  V30 5424 H 531.444 -1.33395 -5.3564 0
M  V30 5425 H 533.92 0.174401 -4.15734 0
M  V30 5426 H 532.796 0.673041 -5.44758 0
M  V30 5427 H 533.057 1.72946 -4.06869 0
M  V30 5428 N 532.116 1.54067 -0.331816 0
M  V30 5429 C 533.344 2.05131 0.269996 0
M  V30 5430 C 533.759 1.20749 1.45138 0
M  V30 5431 O 533.116 0.240069 1.80914 0
M  V30 5432 C 533.167 3.54728 0.696456 0
M  V30 5433 O 532.888 4.35906 -0.43794 0
M  V30 5434 C 534.389 4.21916 1.36021 0
M  V30 5435 H 531.609 0.668807 0.0542042 0
M  V30 5436 H 534.153 1.98777 -0.4804 0
M  V30 5437 H 532.308 3.61342 1.39681 0
M  V30 5438 H 532.722 5.24404 -0.100334 0
M  V30 5439 H 534.196 5.28015 1.60947 0
M  V30 5440 H 534.673 3.73538 2.31011 0
M  V30 5441 H 535.279 4.19463 0.702212 0
M  V30 5442 N 533.594 0.0601682 1.57485 0
M  V30 5443 C 535.005 -0.474217 1.80577 0
M  V30 5444 C 535.356 -1.70365 0.973147 0
M  V30 5445 O 534.481 -2.15544 0.192306 0
M  V30 5446 C 535.076 -0.867102 3.27516 0
M  V30 5447 C 533.635 -1.34642 3.51495 0
M  V30 5448 C 532.782 -0.32594 2.75378 0
M  V30 5449 H 535.733 0.285973 1.56102 0
M  V30 5450 H 535.754 -1.72938 3.38929 0
M  V30 5451 H 535.266 0.0278927 3.8809 0
M  V30 5452 H 533.367 -2.2603 2.96212 0
M  V30 5453 H 533.48 -1.33237 4.60201 0
M  V30 5454 H 531.844 -0.800749 2.41785 0
M  V30 5455 H 532.627 0.561125 3.38683 0
M  V30 5456 N 535.072 -1.5615 -0.213296 0
M  V30 5457 C 536.297 -1.83986 -0.957282 0
M  V30 5458 C 536.722 -0.641526 -1.76822 0
M  V30 5459 O 536.08 0.409722 -1.7661 0
M  V30 5460 C 536.128 -3.09889 -1.84393 0
M  V30 5461 O 535.232 -2.89163 -2.94038 0
M  V30 5462 H 534.573 -0.606357 -0.270605 0
M  V30 5463 H 537.103 -2.03369 -0.224111 0
M  V30 5464 H 537.113 -3.40209 -2.25215 0
M  V30 5465 H 535.788 -3.96735 -1.24795 0
M  V30 5466 H 534.365 -2.70097 -2.57103 0
M  V30 5467 N 536.55 0.480323 -1.50102 0
M  V30 5468 C 537.483 1.59789 -1.62919 0
M  V30 5469 C 538.461 1.55429 -0.477557 0
M  V30 5470 O 539.645 1.75186 -0.695851 0
M  V30 5471 C 536.772 2.98351 -1.60325 0
M  V30 5472 C 535.818 3.20899 -2.80938 0
M  V30 5473 S 536.651 3.01791 -4.4236 0
M  V30 5474 C 537.807 4.42712 -4.42444 0
M  V30 5475 H 538.04 1.48676 -2.57454 0
M  V30 5476 H 535.573 0.666996 -1.3925 0
M  V30 5477 H 537.531 3.7824 -1.59514 0
M  V30 5478 H 536.192 3.06862 -0.670419 0
M  V30 5479 H 535.385 4.22102 -2.75401 0
M  V30 5480 H 534.987 2.48768 -2.79268 0
M  V30 5481 H 537.279 5.3518 -4.15438 0
M  V30 5482 H 538.222 4.53294 -5.43995 0
M  V30 5483 H 538.63 4.24359 -3.72263 0
M  V30 5484 N 538.028 1.39524 0.732853 0
M  V30 5485 C 538.976 1.38563 1.86824 0
M  V30 5486 C 539.97 0.268467 1.67259 0
M  V30 5487 O 541.176 0.438613 1.74574 0
M  V30 5488 H 537.551 0.432737 0.615014 0
M  V30 5489 H 539.522 2.34328 1.84751 0
M  V30 5490 C 538.271 1.2481 3.24527 0
M  V30 5491 H 537.594 2.10044 3.40179 0
M  V30 5492 H 539.034 1.28194 4.04156 0
M  V30 5493 C 537.493 -0.0432825 3.36872 0
M  V30 5494 O 538.023 -1.01268 3.88726 0
M  V30 5495 N 536.229 -0.107055 2.90403 0
M  V30 5496 H 535.776 0.682512 2.48394 0
M  V30 5497 H 535.734 -0.970618 2.99042 0
M  V30 5498 N 539.506 -0.963266 1.24736 0
M  V30 5499 C 540.755 -1.70115 1.08369 0
M  V30 5500 C 541.068 -1.91939 -0.376688 0
M  V30 5501 O 542.274 -2.6334 -0.660624 0
M  V30 5502 C 540.73 -3.06218 1.89099 0
M  V30 5503 C 540.338 -2.92221 3.39574 0
M  V30 5504 C 542.082 -3.83848 1.81275 0
M  V30 5505 C 539.989 -4.23662 4.12631 0
M  V30 5506 H 538.919 -0.637944 0.401924 0
M  V30 5507 H 541.57 -1.07304 1.48856 0
M  V30 5508 H 539.952 -3.69884 1.41429 0
M  V30 5509 H 541.126 -2.37541 3.94856 0
M  V30 5510 H 539.441 -2.28054 3.48397 0
M  V30 5511 H 542.038 -4.81188 2.33158 0
M  V30 5512 H 542.381 -4.08949 0.778895 0
M  V30 5513 H 542.914 -3.26918 2.26649 0
M  V30 5514 H 539.653 -4.03753 5.16395 0
M  V30 5515 H 539.173 -4.78141 3.62135 0
M  V30 5516 H 540.852 -4.92256 4.19873 0
M  V30 5517 N 540.985 -1.06182 -1.16461 0
M  V30 5518 C 542.396 -0.802426 -1.68576 0
M  V30 5519 C 542.747 0.67412 -1.84255 0
M  V30 5520 O 541.872 1.52303 -1.5373 0
M  V30 5521 C 542.467 -1.45002 -3.06202 0
M  V30 5522 C 541.026 -1.23843 -3.55443 0
M  V30 5523 C 540.173 -1.52724 -2.31454 0
M  V30 5524 H 543.124 -1.22545 -1.00839 0
M  V30 5525 H 543.145 -0.864731 -3.70544 0
M  V30 5526 H 542.657 -2.52466 -2.94759 0
M  V30 5527 H 540.758 -0.183487 -3.72148 0
M  V30 5528 H 540.871 -1.95036 -4.37604 0
M  V30 5529 H 539.235 -0.947726 -2.36411 0
M  V30 5530 H 540.018 -2.61343 -2.22609 0
M  V30 5531 N 542.463 1.3308 -0.844243 0
M  V30 5532 C 543.711 1.97215 -0.441676 0
M  V30 5533 C 544.032 1.67185 1.0037 0
M  V30 5534 O 543.302 0.973588 1.69994 0
M  V30 5535 H 541.882 0.72959 -0.160335 0
M  V30 5536 H 544.544 1.62348 -1.07838 0
M  V30 5537 H 543.64 3.06698 -0.57815 0
M  V30 5538 N 543.941 0.601185 1.45683 0
M  V30 5539 C 544.851 -0.123395 2.34275 0
M  V30 5540 C 545.867 -0.86702 1.5086 0
M  V30 5541 O 547.043 -0.826049 1.8368 0
M  V30 5542 C 544.108 -1.11237 3.2837 0
M  V30 5543 C 543.169 -0.371405 4.2769 0
M  V30 5544 C 542.402 -1.31327 5.1729 0
M  V30 5545 O 542.625 -2.55078 5.10188 0
M  V30 5546 O 541.559 -0.813811 5.96373 0
M  V30 5547 H 545.385 0.604483 2.97623 0
M  V30 5548 H 542.97 0.361477 1.44961 0
M  V30 5549 H 544.852 -1.68214 3.8637 0
M  V30 5550 H 543.527 -1.82139 2.67595 0
M  V30 5551 H 542.434 0.24067 3.73325 0
M  V30 5552 H 543.767 0.296998 4.91303 0
M  V30 5553 N 545.419 -1.53889 0.339982 0
M  V30 5554 C 546.665 -2.01152 -0.258003 0
M  V30 5555 C 546.998 -1.22749 -1.50487 0
M  V30 5556 O 546.273 -0.314156 -1.91946 0
M  V30 5557 C 546.556 -3.55468 -0.575717 0
M  V30 5558 C 546.409 -4.44584 0.682996 0
M  V30 5559 C 547.728 -4.1768 -1.38677 0
M  V30 5560 H 544.847 -0.731198 -0.0922992 0
M  V30 5561 H 547.489 -1.84352 0.459814 0
M  V30 5562 H 545.639 -3.69914 -1.18725 0
M  V30 5563 H 547.311 -4.41981 1.32102 0
M  V30 5564 H 545.554 -4.13592 1.3086 0
M  V30 5565 H 546.225 -5.5043 0.416001 0
M  V30 5566 H 548.701 -4.0691 -0.869705 0
M  V30 5567 H 547.577 -5.25734 -1.57783 0
M  V30 5568 H 547.838 -3.72069 -2.38782 0
M  V30 5569 N 546.897 -0.0685191 -1.57451 0
M  V30 5570 C 547.844 0.899861 -2.12535 0
M  V30 5571 C 548.814 1.29749 -1.03703 0
M  V30 5572 O 549.999 1.38392 -1.31348 0
M  V30 5573 C 547.139 2.16328 -2.6888 0
M  V30 5574 C 546.252 1.81857 -3.91857 0
M  V30 5575 C 545.387 3.02786 -4.36457 0
M  V30 5576 C 544.426 2.64317 -5.5209 0
M  V30 5577 N 543.563 3.77994 -5.91663 0
M  V30 5578 H 548.403 0.423243 -2.94979 0
M  V30 5579 H 545.94 0.197268 -1.45771 0
M  V30 5580 H 547.898 2.90281 -2.99655 0
M  V30 5581 H 546.528 2.61536 -1.89206 0
M  V30 5582 H 545.58 0.979808 -3.67565 0
M  V30 5583 H 546.892 1.49553 -4.75852 0
M  V30 5584 H 546.046 3.85021 -4.68875 0
M  V30 5585 H 544.785 3.38281 -3.51308 0
M  V30 5586 H 543.79 1.80503 -5.19325 0
M  V30 5587 H 545.015 2.29995 -6.38967 0
M  V30 5588 H 542.961 4.13258 -5.09464 0
M  V30 5589 H 542.878 3.49447 -6.7039 0
M  V30 5590 H 544.146 4.60818 -6.28703 0
M  V30 5591 N 548.375 1.56261 0.205012 0
M  V30 5592 C 549.323 1.94631 1.27364 0
M  V30 5593 C 550.317 0.830434 1.47649 0
M  V30 5594 O 551.523 1.01538 1.48627 0
M  V30 5595 H 547.898 0.618755 0.427371 0
M  V30 5596 H 549.869 2.83768 0.922941 0
M  V30 5597 C 548.618 2.29358 2.61324 0
M  V30 5598 H 547.941 3.14744 2.46528 0
M  V30 5599 H 549.381 2.60076 3.34868 0
M  V30 5600 C 547.84 1.12461 3.17575 0
M  V30 5601 O 548.37 0.394407 3.99759 0
M  V30 5602 N 546.576 0.904036 2.7618 0
M  V30 5603 H 546.123 1.49956 2.09454 0
M  V30 5604 H 546.081 0.123662 3.14157 0
M  V30 5605 N 549.853 -0.472356 1.50355 0
M  V30 5606 C 550.783 -1.57859 1.72055 0
M  V30 5607 C 551.764 -1.60283 0.569505 0
M  V30 5608 O 552.949 -1.7657 0.808503 0
M  V30 5609 C 550.079 -2.96191 1.81351 0
M  V30 5610 C 549.033 -3.08633 2.96529 0
M  V30 5611 C 548.359 -4.486 2.90968 0
M  V30 5612 C 549.659 -2.85969 4.37057 0
M  V30 5613 H 551.353 -1.39953 2.64676 0
M  V30 5614 H 548.899 -0.671846 1.27367 0
M  V30 5615 H 550.852 -3.73507 1.95117 0
M  V30 5616 H 549.576 -3.15251 0.853502 0
M  V30 5617 H 548.235 -2.33749 2.82413 0
M  V30 5618 H 547.883 -4.64577 1.92815 0
M  V30 5619 H 547.583 -4.57861 3.68289 0
M  V30 5620 H 549.107 -5.27938 3.0678 0
M  V30 5621 H 550.521 -3.53036 4.51706 0
M  V30 5622 H 548.918 -3.06677 5.15819 0
M  V30 5623 H 549.988 -1.81838 4.49514 0
M  V30 5624 N 551.331 -1.39911 -0.725443 0
M  V30 5625 C 552.264 -1.33788 -1.84867 0
M  V30 5626 C 553.242 -0.209907 -1.61239 0
M  V30 5627 O 554.426 -0.391943 -1.8438 0
M  V30 5628 C 551.553 -1.07975 -3.21028 0
M  V30 5629 C 550.599 -2.23092 -3.635 0
M  V30 5630 S 551.432 -3.85431 -3.71757 0
M  V30 5631 C 552.588 -3.61862 -5.10692 0
M  V30 5632 H 552.821 -2.28848 -1.89779 0
M  V30 5633 H 550.354 -1.26079 -0.891254 0
M  V30 5634 H 552.312 -0.937669 -3.99647 0
M  V30 5635 H 550.973 -0.145865 -3.13761 0
M  V30 5636 H 550.166 -2.00647 -4.62338 0
M  V30 5637 H 549.768 -2.33553 -2.92112 0
M  V30 5638 H 552.06 -3.19719 -5.97316 0
M  V30 5639 H 553.003 -4.60196 -5.38169 0
M  V30 5640 H 553.411 -2.95757 -4.8082 0
M  V30 5641 N 552.809 0.956637 -1.25245 0
M  V30 5642 C 553.719 2.0868 -1.0719 0
M  V30 5643 C 554.735 1.73997 -0.00959074 0
M  V30 5644 O 555.911 2.00301 -0.210104 0
M  V30 5645 C 552.976 3.39754 -0.690526 0
M  V30 5646 C 552.037 3.88316 -1.83055 0
M  V30 5647 C 551.27 5.13134 -1.46728 0
M  V30 5648 O 551.493 5.6925 -0.362029 0
M  V30 5649 O 550.427 5.56356 -2.29677 0
M  V30 5650 H 554.253 2.26813 -2.01965 0
M  V30 5651 H 551.838 1.07098 -1.04165 0
M  V30 5652 H 553.72 4.18543 -0.489871 0
M  V30 5653 H 552.395 3.22896 0.227981 0
M  V30 5654 H 551.302 3.1054 -2.08604 0
M  V30 5655 H 552.635 4.09669 -2.72822 0
M  V30 5656 N 554.287 1.06798 1.15896 0
M  V30 5657 C 555.536 0.782796 1.8589 0
M  V30 5658 C 555.849 -0.693498 1.82893 0
M  V30 5659 O 557.055 -1.09325 2.48516 0
M  V30 5660 C 555.511 1.3502 3.33613 0
M  V30 5661 C 555.119 2.8571 3.45071 0
M  V30 5662 C 556.863 1.14278 4.08829 0
M  V30 5663 C 554.77 3.35669 4.86909 0
M  V30 5664 H 553.7 0.289149 0.696354 0
M  V30 5665 H 556.351 1.28734 1.30766 0
M  V30 5666 H 554.733 0.773407 3.88374 0
M  V30 5667 H 555.907 3.49385 3.00445 0
M  V30 5668 H 554.222 3.05178 2.83294 0
M  V30 5669 H 556.819 1.49087 5.13495 0
M  V30 5670 H 557.162 0.0814575 4.1622 0
M  V30 5671 H 557.695 1.68563 3.60321 0
M  V30 5672 H 554.434 4.41302 4.84698 0
M  V30 5673 H 553.954 2.76745 5.32139 0
M  V30 5674 H 555.633 3.31296 5.55745 0
M  V30 5675 N 555.766 -1.3263 0.851289 0
M  V30 5676 C 556.729 -2.27247 0.298541 0
M  V30 5677 C 557.729 -1.51467 -0.539847 0
M  V30 5678 O 558.919 -1.7061 -0.351843 0
M  V30 5679 C 556.051 -3.35964 -0.578004 0
M  V30 5680 H 557.244 -2.7765 1.13359 0
M  V30 5681 H 554.797 -1.43245 0.625354 0
M  V30 5682 H 555.532 -2.90823 -1.435 0
M  V30 5683 H 555.317 -3.92094 0.0220539 0
M  V30 5684 H 556.807 -4.06472 -0.957626 0
M  V30 5685 N 557.244 -0.608902 -1.45362 0
M  V30 5686 C 558.154 0.110969 -2.34337 0
M  V30 5687 C 559.17 0.859007 -1.51318 0
M  V30 5688 O 560.346 0.816296 -1.84116 0
M  V30 5689 C 557.411 1.09494 -3.28956 0
M  V30 5690 C 556.472 0.348718 -4.27881 0
M  V30 5691 C 555.705 1.28582 -5.17979 0
M  V30 5692 O 555.928 2.52369 -5.11533 0
M  V30 5693 O 554.862 0.782172 -5.96796 0
M  V30 5694 H 558.688 -0.620258 -2.97299 0
M  V30 5695 H 556.273 -0.36916 -1.44767 0
M  V30 5696 H 558.155 1.66163 -3.87257 0
M  V30 5697 H 556.83 1.80717 -2.68557 0
M  V30 5698 H 555.737 -0.260465 -3.73192 0
M  V30 5699 H 557.07 -0.323049 -4.91139 0
M  V30 5700 N 558.722 1.53707 -0.348139 0
M  V30 5701 C 559.968 2.01286 0.247332 0
M  V30 5702 C 560.301 1.23546 1.49834 0
M  V30 5703 O 559.576 0.324331 1.91777 0
M  V30 5704 C 559.859 3.55768 0.556858 0
M  V30 5705 C 559.712 4.44216 -0.706564 0
M  V30 5706 C 561.031 4.1841 1.3646 0
M  V30 5707 H 558.15 0.731677 0.0884201 0
M  V30 5708 H 560.792 1.84106 -0.469584 0
M  V30 5709 H 558.942 3.70539 1.16761 0
M  V30 5710 H 560.614 4.41274 -1.34444 0
M  V30 5711 H 558.857 4.12892 -1.33052 0
M  V30 5712 H 559.528 5.50202 -0.445186 0
M  V30 5713 H 562.004 4.07365 0.848113 0
M  V30 5714 H 560.88 5.26563 1.54992 0
M  V30 5715 H 561.141 3.7333 2.36805 0
M  V30 5716 N 560.2 0.0768682 1.57412 0
M  V30 5717 C 561.477 -0.632359 1.85096 0
M  V30 5718 C 561.857 -1.87479 0.9703 0
M  V30 5719 O 561.205 -2.28469 0.0379062 0
M  V30 5720 C 561.415 -0.965174 3.35388 0
M  V30 5721 C 562.763 -1.33648 4.03018 0
M  V30 5722 O 563.787 -1.05675 3.40164 0
M  V30 5723 O 562.646 -1.85959 5.13889 0
M  V30 5724 H 559.74 -0.314574 0.764835 0
M  V30 5725 H 562.286 0.108184 1.69355 0
M  V30 5726 H 561.058 -0.0829745 3.91212 0
M  V30 5727 H 560.681 -1.76231 3.5641 0
M  V30 5728 N 561.678 -1.56367 -0.196722 0
M  V30 5729 C 562.903 -1.84991 -0.937714 0
M  V30 5730 C 563.328 -0.660244 -1.76132 0
M  V30 5731 O 562.686 0.390967 -1.77034 0
M  V30 5732 C 562.734 -3.11828 -1.81096 0
M  V30 5733 O 561.838 -2.92266 -2.90955 0
M  V30 5734 H 561.179 -0.609193 -0.264159 0
M  V30 5735 H 563.709 -2.03595 -0.202529 0
M  V30 5736 H 563.719 -3.42579 -2.21594 0
M  V30 5737 H 562.394 -3.98037 -1.2058 0
M  V30 5738 H 560.971 -2.72809 -2.54224 0
M  V30 5739 N 563.156 0.464375 -1.50603 0
M  V30 5740 C 564.402 1.21776 -1.62168 0
M  V30 5741 C 564.735 1.91476 -0.324154 0
M  V30 5742 O 564.01 1.8242 0.674782 0
M  V30 5743 C 564.293 2.25614 -2.80661 0
M  V30 5744 C 564.146 1.60175 -4.20314 0
M  V30 5745 C 565.465 3.26862 -2.94702 0
M  V30 5746 H 562.584 0.44137 -0.590222 0
M  V30 5747 H 565.226 0.510623 -1.8301 0
M  V30 5748 H 563.376 2.85923 -2.63021 0
M  V30 5749 H 565.048 1.03411 -4.4956 0
M  V30 5750 H 563.291 0.904697 -4.24261 0
M  V30 5751 H 563.962 2.35665 -4.99165 0
M  V30 5752 H 566.438 2.76582 -3.10872 0
M  V30 5753 H 565.314 3.96839 -3.79223 0
M  V30 5754 H 565.575 3.91382 -2.05603 0
M  V30 5755 N 564.634 1.40294 0.718013 0
M  V30 5756 C 565.88 1.38645 1.48005 0
M  V30 5757 C 566.213 -0.0121202 1.94196 0
M  V30 5758 O 565.488 -0.980309 1.67989 0
M  V30 5759 C 565.771 2.37379 2.70782 0
M  V30 5760 C 565.624 3.8625 2.30501 0
M  V30 5761 C 566.943 2.33685 3.72933 0
M  V30 5762 H 564.062 0.504928 0.536858 0
M  V30 5763 H 566.704 1.71411 0.819649 0
M  V30 5764 H 564.854 2.09568 3.27129 0
M  V30 5765 H 566.526 4.24879 1.79655 0
M  V30 5766 H 564.769 4.02202 1.6253 0
M  V30 5767 H 565.44 4.50847 3.18498 0
M  V30 5768 H 567.916 2.58314 3.2621 0
M  V30 5769 H 566.792 3.0482 4.56482 0
M  V30 5770 H 567.053 1.34765 4.21059 0
M  V30 5771 N 566.112 -0.949982 1.2575 0
M  V30 5772 C 567.523 -1.50989 1.09815 0
M  V30 5773 C 567.874 -1.93497 -0.324556 0
M  V30 5774 O 566.999 -1.79068 -1.21506 0
M  V30 5775 C 567.594 -2.74394 1.98729 0
M  V30 5776 C 566.153 -3.26682 1.86965 0
M  V30 5777 C 565.3 -1.99498 1.92603 0
M  V30 5778 H 568.251 -0.766387 1.38968 0
M  V30 5779 H 568.272 -3.48383 1.53001 0
M  V30 5780 H 567.784 -2.43425 3.02268 0
M  V30 5781 H 565.885 -3.62461 0.863279 0
M  V30 5782 H 565.998 -3.94383 2.72027 0
M  V30 5783 H 564.362 -2.15005 1.36546 0
M  V30 5784 H 565.145 -1.70871 2.97755 0
M  V30 5785 N 567.59 -1.07411 -1.15328 0
M  V30 5786 C 568.836 -0.798831 -1.86404 0
M  V30 5787 C 569.169 0.673433 -1.8215 0
M  V30 5788 O 568.444 1.49428 -1.24505 0
M  V30 5789 C 568.727 -1.30846 -3.35487 0
M  V30 5790 C 568.58 -2.84532 -3.4837 0
M  V30 5791 C 569.899 -0.925486 -4.30259 0
M  V30 5792 H 567.018 -0.291659 -0.676834 0
M  V30 5793 H 569.66 -1.332 -1.35491 0
M  V30 5794 H 567.81 -0.854916 -3.78977 0
M  V30 5795 H 569.482 -3.3818 -3.13739 0
M  V30 5796 H 567.725 -3.22699 -2.8991 0
M  V30 5797 H 568.396 -3.15259 -4.53118 0
M  V30 5798 H 570.872 -1.3163 -3.94731 0
M  V30 5799 H 569.748 -1.3094 -5.33053 0
M  V30 5800 H 570.009 0.168525 -4.41779 0
M  V30 5801 N 569.068 1.32177 -0.85831 0
M  V30 5802 C 570.016 2.30729 -0.294442 0
M  V30 5803 C 571.01 1.59009 0.584165 0
M  V30 5804 O 572.216 1.73713 0.471562 0
M  V30 5805 H 568.591 0.748097 -0.0765171 0
M  V30 5806 H 570.562 2.75774 -1.1398 0
M  V30 5807 C 569.311 3.44098 0.499208 0
M  V30 5808 H 568.634 3.99449 -0.167579 0
M  V30 5809 H 570.074 4.15202 0.859273 0
M  V30 5810 C 568.533 2.91684 1.68588 0
M  V30 5811 O 569.063 2.89481 2.78503 0
M  V30 5812 N 567.269 2.48036 1.51415 0
M  V30 5813 H 566.816 2.50027 0.620006 0
M  V30 5814 H 566.774 2.13322 2.30957 0
M  V30 5815 N 570.547 0.616602 1.45037 0
M  V30 5816 C 571.495 -0.109318 2.32343 0
M  V30 5817 C 572.489 -0.850543 1.465 0
M  V30 5818 O 573.695 -0.765088 1.62931 0
M  V30 5819 H 570.07 -0.0541091 0.750051 0
M  V30 5820 H 572.041 0.645326 2.91338 0
M  V30 5821 C 570.79 -1.0872 3.30266 0
M  V30 5822 H 570.113 -0.526267 3.96321 0
M  V30 5823 H 571.553 -1.56489 3.94065 0
M  V30 5824 C 570.012 -2.16525 2.58105 0
M  V30 5825 O 570.542 -3.244 2.36913 0
M  V30 5826 N 568.748 -1.92057 2.18088 0
M  V30 5827 H 568.295 -1.04337 2.35524 0
M  V30 5828 H 568.253 -2.64391 1.70131 0
M  V30 5829 N 572.025 -1.5352 0.356285 0
M  V30 5830 C 573.271 -2.01414 -0.236653 0
M  V30 5831 C 573.604 -1.24339 -1.49176 0
M  V30 5832 O 572.879 -0.334496 -1.91602 0
M  V30 5833 C 573.162 -3.56059 -0.537982 0
M  V30 5834 C 573.015 -4.43835 0.730112 0
M  V30 5835 C 574.334 -4.19127 -1.34239 0
M  V30 5836 H 571.453 -0.732135 -0.0845386 0
M  V30 5837 H 574.095 -1.83854 0.479341 0
M  V30 5838 H 572.245 -3.71153 -1.14795 0
M  V30 5839 H 573.917 -4.40555 1.36782 0
M  V30 5840 H 572.16 -4.1218 1.3524 0
M  V30 5841 H 572.831 -5.49958 0.474358 0
M  V30 5842 H 575.307 -4.07809 -0.826498 0
M  V30 5843 H 574.183 -5.27378 -1.52198 0
M  V30 5844 H 574.444 -3.74581 -2.34822 0
M  V30 5845 N 573.503 -0.0852151 -1.57369 0
M  V30 5846 C 574.435 0.907099 -2.10486 0
M  V30 5847 C 575.448 1.25259 -1.03991 0
M  V30 5848 O 576.637 1.20743 -1.31467 0
M  V30 5849 C 573.737 2.21908 -2.56145 0
M  V30 5850 C 572.91 2.05042 -3.86363 0
M  V30 5851 C 571.969 3.19664 -4.17973 0
M  V30 5852 O 570.995 2.94062 -4.87356 0
M  V30 5853 N 572.197 4.45151 -3.72587 0
M  V30 5854 H 574.962 0.453505 -2.96249 0
M  V30 5855 H 572.523 0.100157 -1.6159 0
M  V30 5856 H 574.515 2.97519 -2.74343 0
M  V30 5857 H 573.085 2.58723 -1.75446 0
M  V30 5858 H 572.305 1.13819 -3.77411 0
M  V30 5859 H 573.593 1.91039 -4.71574 0
M  V30 5860 H 572.991 4.68834 -3.16561 0
M  V30 5861 H 571.548 5.17744 -3.9596 0
M  V30 5862 N 574.981 1.5647 0.188427 0
M  V30 5863 C 576.258 1.71857 0.934058 0
M  V30 5864 C 576.638 0.641867 2.01105 0
M  V30 5865 O 575.986 -0.346098 2.25864 0
M  V30 5866 C 576.196 3.14431 1.5144 0
M  V30 5867 C 577.544 3.74869 1.99396 0
M  V30 5868 O 578.568 3.17601 1.61269 0
M  V30 5869 O 577.427 4.75387 2.69573 0
M  V30 5870 H 574.521 0.701186 0.438483 0
M  V30 5871 H 577.067 1.68768 0.177599 0
M  V30 5872 H 575.839 3.8427 0.738416 0
M  V30 5873 H 575.462 3.21775 2.33552 0
M  V30 5874 N 576.459 -0.456382 1.50847 0
M  V30 5875 C 577.687 -1.23026 1.66349 0
M  V30 5876 C 578.102 -1.85473 0.352868 0
M  V30 5877 O 577.459 -1.69885 -0.666739 0
M  V30 5878 C 577.51 -2.32827 2.76539 0
M  V30 5879 O 577.231 -1.72938 4.02522 0
M  V30 5880 C 578.732 -3.23448 3.03144 0
M  V30 5881 H 575.952 -0.371527 0.558756 0
M  V30 5882 H 578.496 -0.543082 1.97157 0
M  V30 5883 H 576.651 -2.97294 2.48384 0
M  V30 5884 H 577.065 -2.45357 4.63573 0
M  V30 5885 H 578.539 -3.96669 3.83872 0
M  V30 5886 H 579.016 -3.83094 2.14793 0
M  V30 5887 H 579.622 -2.64702 3.32886 0
M  V30 5888 N 577.937 -1.40673 -0.710563 0
M  V30 5889 C 579.165 -1.42547 -1.4996 0
M  V30 5890 C 579.58 -0.0265485 -1.88781 0
M  V30 5891 O 578.937 0.950694 -1.55782 0
M  V30 5892 C 578.988 -2.32071 -2.77173 0
M  V30 5893 O 578.709 -3.66518 -2.39992 0
M  V30 5894 C 580.21 -2.42591 -3.71032 0
M  V30 5895 H 577.43 -0.486025 -0.462623 0
M  V30 5896 H 579.974 -1.84783 -0.876102 0
M  V30 5897 H 578.129 -1.93184 -3.35795 0
M  V30 5898 H 578.543 -4.14115 -3.21884 0
M  V30 5899 H 580.017 -3.09429 -4.57119 0
M  V30 5900 H 580.494 -1.4525 -4.14486 0
M  V30 5901 H 581.1 -2.82051 -3.18319 0
M  V30 5902 N 579.415 0.9433 -1.26252 0
M  V30 5903 C 580.692 1.66639 -1.02424 0
M  V30 5904 C 581.072 2.06335 0.446006 0
M  V30 5905 O 580.42 1.78551 1.42589 0
M  V30 5906 C 580.63 2.88019 -1.97094 0
M  V30 5907 C 581.978 3.59718 -2.25584 0
M  V30 5908 O 583.002 2.9812 -1.94943 0
M  V30 5909 O 581.861 4.7066 -2.77743 0
M  V30 5910 H 578.955 0.729643 -0.389294 0
M  V30 5911 H 581.501 0.995218 -1.37454 0
M  V30 5912 H 580.273 2.5556 -2.96319 0
M  V30 5913 H 579.896 3.62863 -1.62532 0
M  V30 5914 N 580.893 1.08022 1.14757 0
M  V30 5915 C 581.825 0.664566 2.19354 0
M  V30 5916 C 582.838 -0.286374 1.60261 0
M  V30 5917 O 584.027 -0.0746362 1.78344 0
M  V30 5918 C 581.127 -0.0434634 3.38872 0
M  V30 5919 C 580.3 0.925381 4.27499 0
M  V30 5920 C 579.359 0.253398 5.2559 0
M  V30 5921 O 578.385 0.896581 5.62094 0
M  V30 5922 N 579.587 -0.998263 5.71852 0
M  V30 5923 H 582.352 1.56438 2.55631 0
M  V30 5924 H 579.913 0.965788 1.29939 0
M  V30 5925 H 581.905 -0.503857 4.01551 0
M  V30 5926 H 580.475 -0.845321 3.00954 0
M  V30 5927 H 579.695 1.56472 3.61815 0
M  V30 5928 H 580.983 1.58203 4.8358 0
M  V30 5929 H 580.381 -1.54063 5.44317 0
M  V30 5930 H 578.938 -1.40222 6.36538 0
M  V30 5931 N 582.371 -1.3172 0.865308 0
M  V30 5932 C 583.304 -2.26687 0.262376 0
M  V30 5933 C 584.282 -1.50894 -0.605787 0
M  V30 5934 O 585.466 -1.79982 -0.56024 0
M  V30 5935 C 582.593 -3.3281 -0.628915 0
M  V30 5936 C 581.639 -4.26172 0.167278 0
M  V30 5937 S 582.472 -5.12797 1.54272 0
M  V30 5938 C 583.628 -6.22438 0.657427 0
M  V30 5939 H 583.861 -2.77478 1.0674 0
M  V30 5940 H 581.394 -1.39414 0.663555 0
M  V30 5941 H 583.352 -3.94426 -1.13747 0
M  V30 5942 H 582.013 -2.80782 -1.40785 0
M  V30 5943 H 581.206 -5.01392 -0.51203 0
M  V30 5944 H 580.808 -3.69029 0.607777 0
M  V30 5945 H 583.1 -6.77368 -0.133925 0
M  V30 5946 H 584.043 -6.9451 1.38061 0
M  V30 5947 H 584.451 -5.64043 0.227044 0
M  V30 5948 N 583.85 -0.624285 -1.44708 0
M  V30 5949 C 584.76 0.0861083 -2.34442 0
M  V30 5950 C 585.776 0.84291 -1.5222 0
M  V30 5951 O 586.952 0.796723 -1.84971 0
M  V30 5952 C 584.017 1.05999 -3.30099 0
M  V30 5953 C 583.077 0.303316 -4.28227 0
M  V30 5954 C 582.311 1.23081 -5.19314 0
M  V30 5955 O 582.534 2.46929 -5.14181 0
M  V30 5956 O 581.468 0.71883 -5.97592 0
M  V30 5957 H 585.293 -0.651756 -2.96624 0
M  V30 5958 H 582.879 -0.384493 -1.44368 0
M  V30 5959 H 584.76 1.62046 -3.88997 0
M  V30 5960 H 583.436 1.77859 -2.70459 0
M  V30 5961 H 582.343 -0.300033 -3.72895 0
M  V30 5962 H 583.676 -0.375123 -4.90768 0
M  V30 5963 N 585.328 1.53329 -0.364422 0
M  V30 5964 C 586.261 2.22052 0.526145 0
M  V30 5965 C 587.239 1.21203 1.08391 0
M  V30 5966 O 588.423 1.50101 1.14026 0
M  V30 5967 C 585.55 2.91432 1.72583 0
M  V30 5968 C 584.596 4.06345 1.29562 0
M  V30 5969 S 585.429 5.34671 0.297885 0
M  V30 5970 C 586.585 6.07563 1.50392 0
M  V30 5971 H 586.818 2.97244 -0.0575055 0
M  V30 5972 H 584.351 1.53684 -0.148525 0
M  V30 5973 H 586.309 3.3202 2.41398 0
M  V30 5974 H 584.97 2.15966 2.28073 0
M  V30 5975 H 584.163 4.53901 2.19067 0
M  V30 5976 H 583.765 3.67642 0.686696 0
M  V30 5977 H 586.057 6.32224 2.43513 0
M  V30 5978 H 587 6.99973 1.06977 0
M  V30 5979 H 587.408 5.37994 1.70945 0
M  V30 5980 N 586.806 0.0935595 1.57322 0
M  V30 5981 C 588.053 -0.570509 1.94297 0
M  V30 5982 C 588.381 -1.68286 0.97519 0
M  V30 5983 O 587.636 -1.95699 -0.00548655 0
M  V30 5984 C 587.935 -1.16692 3.37813 0
M  V30 5985 C 587.601 -0.178509 4.50547 0
M  V30 5986 C 586.263 0.0933475 4.81109 0
M  V30 5987 C 588.615 0.496472 5.1883 0
M  V30 5988 C 585.943 1.0469 5.77284 0
M  V30 5989 C 588.295 1.43849 6.16028 0
M  V30 5990 C 586.959 1.71859 6.44997 0
M  V30 5991 H 586.229 -0.208764 0.710984 0
M  V30 5992 H 588.876 0.169066 1.90752 0
M  V30 5993 H 587.181 -1.98271 3.37929 0
M  V30 5994 H 588.878 -1.6884 3.63722 0
M  V30 5995 H 585.468 -0.400584 4.26724 0
M  V30 5996 H 589.652 0.299584 4.95395 0
M  V30 5997 H 584.908 1.27094 5.98044 0
M  V30 5998 H 589.082 1.96734 6.68034 0
M  V30 5999 H 586.709 2.45906 7.19329 0
M  V30 6000 N 588.284 -1.56567 -0.180126 0
M  V30 6001 C 589.7 -1.50488 -0.531559 0
M  V30 6002 C 589.9 -0.796267 -1.851 0
M  V30 6003 O 588.956 -0.352978 -2.50021 0
M  V30 6004 C 590.269 -2.95201 -0.572456 0
M  V30 6005 C 591.817 -3.05957 -0.660264 0
M  V30 6006 C 592.292 -4.5211 -0.732135 0
M  V30 6007 N 593.783 -4.56322 -0.795262 0
M  V30 6008 C 594.518 -5.66742 -0.871296 0
M  V30 6009 N 594.014 -6.86815 -0.908708 0
M  V30 6010 N 595.807 -5.54691 -0.909639 0
M  V30 6011 H 587.958 -2.01045 0.685165 0
M  V30 6012 H 590.221 -0.915536 0.245962 0
M  V30 6013 H 589.927 -3.50165 0.328208 0
M  V30 6014 H 589.801 -3.49369 -1.422 0
M  V30 6015 H 592.188 -2.51032 -1.55136 0
M  V30 6016 H 592.269 -2.54888 0.215783 0
M  V30 6017 H 591.913 -5.07664 0.154664 0
M  V30 6018 H 591.843 -5.00926 -1.6242 0
M  V30 6019 H 594.334 -3.69868 -0.77499 0
M  V30 6020 H 594.647 -7.66718 -0.967654 0
M  V30 6021 H 592.992 -6.89443 -0.877132 0
M  V30 6022 H 596.183 -4.59804 -0.877353 0
M  V30 6023 H 596.356 -6.40768 -0.965434 0
M  V30 6024 N 589.762 0.448376 -1.51087 0
M  V30 6025 C 591.011 1.19561 -1.62444 0
M  V30 6026 C 591.324 1.92602 -0.341151 0
M  V30 6027 O 592.53 2.69439 -0.333936 0
M  V30 6028 C 590.986 2.17373 -2.8684 0
M  V30 6029 C 590.594 1.5003 -4.22131 0
M  V30 6030 C 592.338 2.92597 -3.0755 0
M  V30 6031 C 590.245 2.46262 -5.37689 0
M  V30 6032 H 589.175 0.449975 -0.605011 0
M  V30 6033 H 591.826 0.463735 -1.77544 0
M  V30 6034 H 590.208 2.93948 -2.65349 0
M  V30 6035 H 591.382 0.790886 -4.53962 0
M  V30 6036 H 589.697 0.870011 -4.0721 0
M  V30 6037 H 592.294 3.64663 -3.91056 0
M  V30 6038 H 592.637 3.53306 -2.20183 0
M  V30 6039 H 593.17 2.23131 -3.29329 0
M  V30 6040 H 589.909 1.90258 -6.27281 0
M  V30 6041 H 589.429 3.15289 -5.10248 0
M  V30 6042 H 591.108 3.07623 -5.6919 0
M  V30 6043 N 591.24 1.41047 0.703093 0
M  V30 6044 C 592.651 1.35657 1.28274 0
M  V30 6045 C 593.002 0.0360309 1.96167 0
M  V30 6046 O 592.127 -0.865833 1.98324 0
M  V30 6047 C 592.722 2.45707 2.33267 0
M  V30 6048 C 591.281 2.43738 2.86825 0
M  V30 6049 C 590.428 2.25941 1.60767 0
M  V30 6050 H 593.379 1.50672 0.49836 0
M  V30 6051 H 593.4 2.14333 3.14391 0
M  V30 6052 H 592.912 3.41805 1.83824 0
M  V30 6053 H 591.013 1.51375 3.40465 0
M  V30 6054 H 591.126 3.39779 3.37768 0
M  V30 6055 H 589.49 1.73681 1.86298 0
M  V30 6056 H 590.273 3.24054 1.1333 0
M  V30 6057 N 592.718 -0.936591 1.26751 0
M  V30 6058 C 593.964 -1.6858 1.12733 0
M  V30 6059 C 594.297 -1.91414 -0.327745 0
M  V30 6060 O 593.572 -1.49812 -1.24043 0
M  V30 6061 C 593.855 -3.05779 1.90187 0
M  V30 6062 C 593.708 -2.90242 3.43627 0
M  V30 6063 C 595.027 -4.0597 1.69931 0
M  V30 6064 H 592.146 -0.61182 0.410908 0
M  V30 6065 H 594.788 -1.08747 1.55801 0
M  V30 6066 H 592.938 -3.56853 1.53584 0
M  V30 6067 H 594.61 -2.46354 3.9001 0
M  V30 6068 H 592.853 -2.2577 3.70419 0
M  V30 6069 H 593.524 -3.87572 3.93055 0
M  V30 6070 H 596 -3.63874 2.0183 0
M  V30 6071 H 594.876 -4.99974 2.26534 0
M  V30 6072 H 595.137 -4.37369 0.64502 0
M  V30 6073 N 594.196 -1.08629 -1.14182 0
M  V30 6074 C 595.424 -0.838889 -1.8913 0
M  V30 6075 C 595.839 0.609153 -1.78703 0
M  V30 6076 O 595.196 1.41876 -1.14794 0
M  V30 6077 C 595.247 -1.25477 -3.39025 0
M  V30 6078 O 594.968 -2.64601 -3.49167 0
M  V30 6079 C 596.469 -1.03856 -4.30963 0
M  V30 6080 H 593.689 -0.302377 -0.599007 0
M  V30 6081 H 596.233 -1.44615 -1.44592 0
M  V30 6082 H 594.388 -0.691571 -3.81177 0
M  V30 6083 H 594.802 -2.81922 -4.42289 0
M  V30 6084 H 596.276 -1.37892 -5.345 0
M  V30 6085 H 596.753 0.0242522 -4.39193 0
M  V30 6086 H 597.359 -1.58731 -3.94569 0
M  V30 6087 N 595.674 1.31259 -0.872281 0
M  V30 6088 C 596.923 1.95893 -0.480493 0
M  V30 6089 C 597.236 1.697 0.972688 0
M  V30 6090 O 598.442 2.28214 1.47073 0
M  V30 6091 C 596.898 3.50705 -0.808342 0
M  V30 6092 C 596.506 3.85735 -2.27844 0
M  V30 6093 C 598.25 4.21719 -0.485136 0
M  V30 6094 C 596.157 5.33668 -2.54858 0
M  V30 6095 H 595.087 0.733182 -0.175955 0
M  V30 6096 H 597.738 1.49396 -1.0655 0
M  V30 6097 H 596.12 3.95706 -0.152558 0
M  V30 6098 H 597.294 3.51686 -2.97748 0
M  V30 6099 H 595.609 3.27792 -2.56791 0
M  V30 6100 H 598.206 5.30559 -0.664166 0
M  V30 6101 H 598.549 4.12316 0.574592 0
M  V30 6102 H 599.082 3.82359 -1.09756 0
M  V30 6103 H 595.821 5.48109 -3.59523 0
M  V30 6104 H 595.341 5.69061 -1.8955 0
M  V30 6105 H 597.02 6.00958 -2.39706 0
M  V30 6106 N 597.152 0.631951 1.44375 0
M  V30 6107 C 598.1 -0.0846693 2.32446 0
M  V30 6108 C 599.094 -0.834957 1.47393 0
M  V30 6109 O 600.3 -0.747764 1.63733 0
M  V30 6110 H 596.675 -0.0461508 0.750583 0
M  V30 6111 H 598.646 0.67619 2.90638 0
M  V30 6112 C 597.395 -1.05211 3.314 0
M  V30 6113 H 596.718 -0.484203 3.96857 0
M  V30 6114 H 598.158 -1.523 3.95703 0
M  V30 6115 C 596.617 -2.13776 2.60387 0
M  V30 6116 O 597.147 -3.21869 2.4034 0
M  V30 6117 N 595.353 -1.89733 2.20113 0
M  V30 6118 H 594.9 -1.01833 2.36618 0
M  V30 6119 H 594.858 -2.62572 1.72926 0
M  V30 6120 N 598.631 -1.53133 0.372548 0
M  V30 6121 C 599.594 -2.24569 -0.458389 0
M  V30 6122 C 600.594 -1.25603 -1.00402 0
M  V30 6123 O 601.784 -1.49827 -0.888672 0
M  V30 6124 C 598.916 -2.98783 -1.6414 0
M  V30 6125 H 600.109 -2.99436 0.166799 0
M  V30 6126 H 597.662 -1.55805 0.124357 0
M  V30 6127 H 598.397 -2.28176 -2.30448 0
M  V30 6128 H 598.182 -3.71404 -1.25704 0
M  V30 6129 H 599.672 -3.53068 -2.23008 0
M  V30 6130 N 600.109 -0.101901 -1.5727 0
M  V30 6131 C 601.52 0.426173 -1.81771 0
M  V30 6132 C 601.871 1.67725 -1.01797 0
M  V30 6133 O 600.996 2.14958 -0.249386 0
M  V30 6134 C 601.591 0.779962 -3.297 0
M  V30 6135 C 600.15 1.25275 -3.54941 0
M  V30 6136 C 599.297 0.252814 -2.76145 0
M  V30 6137 H 602.248 -0.32726 -1.55289 0
M  V30 6138 H 602.269 1.63891 -3.43395 0
M  V30 6139 H 601.781 -0.130778 -3.8788 0
M  V30 6140 H 599.882 2.18097 -3.021 0
M  V30 6141 H 599.995 1.20988 -4.63572 0
M  V30 6142 H 598.359 0.736362 -2.43823 0
M  V30 6143 H 599.142 -0.650724 -3.37076 0
M  V30 6144 N 601.587 1.56661 0.17182 0
M  V30 6145 C 602.517 1.99401 1.21498 0
M  V30 6146 C 603.498 0.869516 1.46197 0
M  V30 6147 O 604.683 1.13556 1.57539 0
M  V30 6148 C 601.813 2.35346 2.55401 0
M  V30 6149 C 600.767 3.5075 2.45272 0
M  V30 6150 C 600.093 3.72437 3.8366 0
M  V30 6151 C 601.393 4.84216 1.95787 0
M  V30 6152 H 603.087 2.86792 0.859699 0
M  V30 6153 H 600.633 1.37977 0.412103 0
M  V30 6154 H 602.586 2.63843 3.2858 0
M  V30 6155 H 601.31 1.44864 2.92715 0
M  V30 6156 H 599.969 3.2238 1.74547 0
M  V30 6157 H 599.617 2.79246 4.18367 0
M  V30 6158 H 599.317 4.50087 3.77751 0
M  V30 6159 H 600.841 4.03334 4.58426 0
M  V30 6160 H 602.255 5.11592 2.5874 0
M  V30 6161 H 600.652 5.65498 2.00827 0
M  V30 6162 H 601.722 4.76243 0.912159 0
M  V30 6163 N 603.065 -0.440357 1.51323 0
M  V30 6164 C 603.997 -1.55254 1.68609 0
M  V30 6165 C 605.01 -1.52614 0.566812 0
M  V30 6166 O 606.199 -1.57445 0.841032 0
M  V30 6167 C 603.299 -2.94169 1.68279 0
M  V30 6168 C 602.472 -3.21346 2.96742 0
M  V30 6169 C 601.531 -4.3997 2.8864 0
M  V30 6170 O 600.557 -4.38771 3.62586 0
M  V30 6171 N 601.759 -5.43367 2.04285 0
M  V30 6172 H 604.524 -1.40831 2.6455 0
M  V30 6173 H 602.085 -0.629251 1.49171 0
M  V30 6174 H 604.077 -3.71543 1.60431 0
M  V30 6175 H 602.647 -3.02205 0.799441 0
M  V30 6176 H 601.867 -2.32299 3.18482 0
M  V30 6177 H 603.155 -3.3633 3.81785 0
M  V30 6178 H 602.553 -5.47176 1.43578 0
M  V30 6179 H 601.11 -6.19605 2.02318 0
M  V30 6180 N 604.543 -1.41418 -0.695603 0
M  V30 6181 C 605.475 -1.39195 -1.82092 0
M  V30 6182 C 606.488 -0.294132 -1.60121 0
M  V30 6183 O 607.677 -0.555854 -1.69625 0
M  V30 6184 C 604.777 -1.14828 -3.18854 0
M  V30 6185 C 603.95 -2.36649 -3.67853 0
M  V30 6186 C 603.009 -2.08139 -4.83285 0
M  V30 6187 O 602.035 -2.81177 -4.94902 0
M  V30 6188 N 603.237 -1.07162 -5.70523 0
M  V30 6189 H 606.002 -2.36185 -1.84491 0
M  V30 6190 H 603.563 -1.3603 -0.877923 0
M  V30 6191 H 605.555 -0.937075 -3.93702 0
M  V30 6192 H 604.125 -0.264358 -3.1148 0
M  V30 6193 H 603.345 -2.73472 -2.83913 0
M  V30 6194 H 604.633 -3.17816 -3.97329 0
M  V30 6195 H 604.031 -0.467124 -5.63768 0
M  V30 6196 H 602.588 -0.920311 -6.4527 0
M  V30 6197 N 606.021 0.929856 -1.27246 0
M  V30 6198 C 606.953 2.03434 -1.0558 0
M  V30 6199 C 607.966 1.62795 -0.0125762 0
M  V30 6200 O 609.155 1.76685 -0.2539 0
M  V30 6201 C 606.255 3.33915 -0.57912 0
M  V30 6202 C 605.428 4.03259 -1.69415 0
M  V30 6203 C 604.487 5.12014 -1.21357 0
M  V30 6204 O 603.513 5.36097 -1.91282 0
M  V30 6205 N 604.715 5.8046 -0.0680622 0
M  V30 6206 H 607.48 2.22583 -2.00691 0
M  V30 6207 H 605.041 1.1001 -1.18783 0
M  V30 6208 H 607.033 4.03978 -0.241563 0
M  V30 6209 H 605.603 3.11355 0.278703 0
M  V30 6210 H 604.823 3.26958 -2.20209 0
M  V30 6211 H 606.111 4.46337 -2.44255 0
M  V30 6212 H 605.509 5.63345 0.515626 0
M  V30 6213 H 604.066 6.51461 0.210332 0
M  V30 6214 N 607.499 1.09233 1.13605 0
M  V30 6215 C 608.745 0.828385 1.8511 0
M  V30 6216 C 609.078 -0.64437 1.83198 0
M  V30 6217 O 608.353 -1.47428 1.26867 0
M  V30 6218 C 608.636 1.36167 3.33363 0
M  V30 6219 C 608.489 2.90038 3.438 0
M  V30 6220 C 609.808 0.993819 4.28732 0
M  V30 6221 H 606.927 0.30239 0.672108 0
M  V30 6222 H 609.569 1.35339 1.33355 0
M  V30 6223 H 607.719 0.9151 3.77569 0
M  V30 6224 H 609.391 3.43128 3.08319 0
M  V30 6225 H 607.634 3.27271 2.84739 0
M  V30 6226 H 608.305 3.22428 4.48045 0
M  V30 6227 H 610.781 1.37893 3.92587 0
M  V30 6228 H 609.657 1.39403 5.30903 0
M  V30 6229 H 609.918 -0.0982206 4.41991 0
M  V30 6230 N 608.977 -1.30795 0.87923 0
M  V30 6231 C 610.224 -1.96362 0.494786 0
M  V30 6232 C 610.552 -1.69448 -0.954868 0
M  V30 6233 O 609.807 -0.988711 -1.68888 0
M  V30 6234 C 610.106 -3.50287 0.709476 0
M  V30 6235 C 609.772 -3.9724 2.13333 0
M  V30 6236 C 608.434 -4.09772 2.52271 0
M  V30 6237 C 610.786 -4.21807 3.06151 0
M  V30 6238 C 608.114 -4.44227 3.83248 0
M  V30 6239 C 610.466 -4.5773 4.36654 0
M  V30 6240 C 609.13 -4.68469 4.75492 0
M  V30 6241 H 608.4 -0.71854 0.181055 0
M  V30 6242 H 611.047 -1.55764 1.11399 0
M  V30 6243 H 609.352 -3.91799 0.0072 0
M  V30 6244 H 611.049 -3.99082 0.391703 0
M  V30 6245 H 607.639 -3.87988 1.82107 0
M  V30 6246 H 611.823 -4.11611 2.77291 0
M  V30 6247 H 607.079 -4.50741 4.13089 0
M  V30 6248 H 611.253 -4.7569 5.08617 0
M  V30 6249 H 608.88 -4.94923 5.77022 0
M  V30 6250 N 610.455 -0.639598 -1.44038 0
M  V30 6251 C 611.703 -0.147188 -2.01563 0
M  V30 6252 C 612.024 1.2384 -1.50628 0
M  V30 6253 O 611.294 1.82452 -0.713316 0
M  V30 6254 H 609.874 -0.0514231 -0.745228 0
M  V30 6255 H 612.536 -0.828205 -1.76428 0
M  V30 6256 H 611.632 -0.121358 -3.11864 0
M  V30 6257 N 611.933 1.52934 -0.380664 0
M  V30 6258 C 612.863 2.29118 0.450268 0
M  V30 6259 C 613.844 1.32153 1.07096 0
M  V30 6260 O 615.029 1.61038 1.08537 0
M  V30 6261 C 612.159 3.09161 1.58231 0
M  V30 6262 C 611.113 4.13938 1.0881 0
M  V30 6263 C 610.439 4.82153 2.31155 0
M  V30 6264 C 611.739 5.22048 0.162146 0
M  V30 6265 H 613.433 2.98826 -0.185361 0
M  V30 6266 H 610.979 1.43715 -0.0905886 0
M  V30 6267 H 612.932 3.61211 2.17036 0
M  V30 6268 H 611.656 2.3717 2.2454 0
M  V30 6269 H 610.315 3.62855 0.522633 0
M  V30 6270 H 609.963 4.06719 2.95953 0
M  V30 6271 H 609.663 5.52966 1.98752 0
M  V30 6272 H 611.187 5.37004 2.90618 0
M  V30 6273 H 612.601 5.6951 0.658126 0
M  V30 6274 H 610.998 6.00057 -0.0717122 0
M  V30 6275 H 612.068 4.78398 -0.791438 0
M  V30 6276 N 613.412 0.11024 1.57214 0
M  V30 6277 C 614.828 -0.24638 1.57687 0
M  V30 6278 C 615.028 -1.67344 1.12241 0
M  V30 6279 O 614.084 -2.39298 0.805783 0
M  V30 6280 C 615.397 -0.0210288 3.00693 0
M  V30 6281 C 616.945 -0.0876077 3.12877 0
M  V30 6282 C 617.42 0.10994 4.57868 0
M  V30 6283 N 618.911 0.0556135 4.63167 0
M  V30 6284 C 619.646 0.183495 5.73106 0
M  V30 6285 N 619.142 0.367058 6.91827 0
M  V30 6286 N 620.935 0.123689 5.61964 0
M  V30 6287 H 613.086 1.04246 1.85058 0
M  V30 6288 H 615.349 0.40979 0.854854 0
M  V30 6289 H 615.055 0.965203 3.38196 0
M  V30 6290 H 614.929 -0.756748 3.69531 0
M  V30 6291 H 617.316 -1.06436 2.75237 0
M  V30 6292 H 617.397 0.67985 2.466 0
M  V30 6293 H 617.041 1.08362 4.96206 0
M  V30 6294 H 616.971 -0.677397 5.22225 0
M  V30 6295 H 619.462 -0.0831062 3.77809 0
M  V30 6296 H 619.775 0.455739 7.71455 0
M  V30 6297 H 618.12 0.40292 6.93831 0
M  V30 6298 H 621.311 -0.0186928 4.68096 0
M  V30 6299 H 621.484 0.226797 6.47603 0
M  V30 6300 N 614.89 -1.56749 -0.16351 0
M  V30 6301 C 615.82 -2.00042 -1.20438 0
M  V30 6302 C 616.801 -0.877256 -1.45733 0
M  V30 6303 O 617.986 -1.1439 -1.56935 0
M  V30 6304 C 615.116 -2.36697 -2.54149 0
M  V30 6305 C 614.07 -3.52046 -2.43408 0
M  V30 6306 C 613.396 -3.74466 -3.81679 0
M  V30 6307 C 614.696 -4.85247 -1.93216 0
M  V30 6308 H 616.39 -2.87244 -0.844477 0
M  V30 6309 H 613.936 -1.38194 -0.40478 0
M  V30 6310 H 615.889 -2.65582 -3.27176 0
M  V30 6311 H 614.613 -1.46414 -2.91943 0
M  V30 6312 H 613.272 -3.23301 -1.72834 0
M  V30 6313 H 612.92 -2.81461 -4.1688 0
M  V30 6314 H 612.62 -4.52084 -3.75359 0
M  V30 6315 H 614.144 -4.0576 -4.5628 0
M  V30 6316 H 615.558 -5.12957 -2.56023 0
M  V30 6317 H 613.955 -5.66556 -1.97825 0
M  V30 6318 H 615.025 -4.7672 -0.88689 0
M  V30 6319 N 616.368 0.432326 -1.51554 0
M  V30 6320 C 617.3 1.54357 -1.6943 0
M  V30 6321 C 618.313 1.52311 -0.574897 0
M  V30 6322 O 619.502 1.56997 -0.849369 0
M  V30 6323 C 616.602 2.93273 -1.69836 0
M  V30 6324 C 615.775 3.19768 -2.98442 0
M  V30 6325 C 614.834 4.38433 -2.90969 0
M  V30 6326 O 613.86 4.36842 -3.64908 0
M  V30 6327 N 615.062 5.42276 -2.07163 0
M  V30 6328 H 617.827 1.39426 -2.65293 0
M  V30 6329 H 615.388 0.621331 -1.49503 0
M  V30 6330 H 617.38 3.70687 -1.62399 0
M  V30 6331 H 615.95 3.01777 -0.815456 0
M  V30 6332 H 615.17 2.30607 -3.19709 0
M  V30 6333 H 616.458 3.343 -3.83563 0
M  V30 6334 H 615.856 5.46407 -1.46477 0
M  V30 6335 H 614.413 6.18524 -2.05601 0
M  V30 6336 N 617.846 1.41785 0.688094 0
M  V30 6337 C 619.257 1.3701 1.26828 0
M  V30 6338 C 619.608 0.056835 1.96118 0
M  V30 6339 O 618.733 -0.84475 1.99231 0
M  V30 6340 C 619.328 2.48168 2.30648 0
M  V30 6341 C 617.887 2.46766 2.84224 0
M  V30 6342 C 617.034 2.27633 1.58361 0
M  V30 6343 H 619.985 1.51192 0.482351 0
M  V30 6344 H 620.006 2.17655 3.121 0
M  V30 6345 H 619.518 3.43735 1.80188 0
M  V30 6346 H 617.619 1.54978 3.3884 0
M  V30 6347 H 617.732 3.43342 3.34145 0
M  V30 6348 H 616.096 1.75648 1.84445 0
M  V30 6349 H 616.879 3.25238 1.09887 0
M  V30 6350 N 619.324 -0.923095 1.27737 0
M  V30 6351 C 620.572 -1.66797 1.14119 0
M  V30 6352 C 620.893 -1.92479 -0.312541 0
M  V30 6353 O 620.163 -1.53432 -1.218 0
M  V30 6354 H 618.743 -0.618196 0.419336 0
M  V30 6355 H 621.405 -1.10815 1.60331 0
M  V30 6356 H 620.501 -2.63424 1.67374 0
M  V30 6357 N 620.802 -1.09834 -1.13024 0
M  V30 6358 C 621.732 -0.763451 -2.20666 0
M  V30 6359 C 622.713 0.260778 -1.68089 0
M  V30 6360 O 623.898 0.127915 -1.93778 0
M  V30 6361 C 621.028 -0.187744 -3.46792 0
M  V30 6362 C 619.982 -1.14196 -4.12484 0
M  V30 6363 C 619.308 -0.427755 -5.32986 0
M  V30 6364 C 620.608 -2.48607 -4.59338 0
M  V30 6365 H 622.302 -1.66347 -2.48936 0
M  V30 6366 H 619.848 -0.801261 -1.19649 0
M  V30 6367 H 621.801 0.0586375 -4.21359 0
M  V30 6368 H 620.525 0.747485 -3.17931 0
M  V30 6369 H 619.184 -1.37369 -3.3989 0
M  V30 6370 H 618.832 0.511747 -5.0039 0
M  V30 6371 H 618.532 -1.06403 -5.77886 0
M  V30 6372 H 620.056 -0.189772 -6.10305 0
M  V30 6373 H 621.47 -2.29618 -5.25308 0
M  V30 6374 H 619.867 -3.08062 -5.14993 0
M  V30 6375 H 620.937 -3.09062 -3.73642 0
M  V30 6376 N 622.28 1.30327 -0.886154 0
M  V30 6377 C 623.557 1.90922 -0.425217 0
M  V30 6378 C 623.937 1.80533 1.09413 0
M  V30 6379 O 623.285 1.2233 1.92996 0
M  V30 6380 C 623.495 3.36529 -0.924638 0
M  V30 6381 C 624.843 4.13598 -0.960305 0
M  V30 6382 O 625.867 3.45377 -0.871382 0
M  V30 6383 O 624.726 5.35482 -1.09184 0
M  V30 6384 H 621.82 0.81668 -0.130238 0
M  V30 6385 H 624.366 1.38886 -0.975132 0
M  V30 6386 H 623.138 3.38181 -1.96849 0
M  V30 6387 H 622.761 3.96021 -0.353955 0
M  V30 6388 N 623.758 0.647228 1.43697 0
M  V30 6389 C 624.983 0.164083 2.0675 0
M  V30 6390 C 625.408 -1.15892 1.48158 0
M  V30 6391 O 624.766 -1.71459 0.589194 0
M  V30 6392 C 624.814 0.0800368 3.60511 0
M  V30 6393 O 623.918 -0.959453 4.01084 0
M  V30 6394 H 623.259 0.0921288 0.657578 0
M  V30 6395 H 625.789 0.88846 1.84303 0
M  V30 6396 H 625.799 -0.105263 4.07864 0
M  V30 6397 H 624.474 1.04586 4.02535 0
M  V30 6398 H 623.051 -0.747425 3.65333 0
M  V30 6399 N 625.236 -1.5273 0.388769 0
M  V30 6400 C 626.482 -2.01871 -0.193877 0
M  V30 6401 C 626.815 -1.27475 -1.46505 0
M  V30 6402 O 626.09 -0.375063 -1.90849 0
M  V30 6403 C 626.373 -3.5712 -0.462336 0
M  V30 6404 C 626.226 -4.42186 0.824091 0
M  V30 6405 C 627.545 -4.21881 -1.25319 0
M  V30 6406 H 624.664 -0.733764 -0.0689899 0
M  V30 6407 H 627.306 -1.82796 0.518231 0
M  V30 6408 H 625.456 -3.73504 -1.06896 0
M  V30 6409 H 627.128 -4.37554 1.46096 0
M  V30 6410 H 625.371 -4.09219 1.43952 0
M  V30 6411 H 626.042 -5.48828 0.590905 0
M  V30 6412 H 628.518 -4.0947 -0.73981 0
M  V30 6413 H 627.394 -5.30487 -1.40977 0
M  V30 6414 H 627.655 -3.79478 -2.26824 0
M  V30 6415 N 626.714 -0.118576 -1.57153 0
M  V30 6416 C 627.961 0.539526 -1.9518 0
M  V30 6417 C 628.289 1.66714 -1.00184 0
M  V30 6418 O 627.544 1.95683 -0.0256482 0
M  V30 6419 C 627.843 1.11303 -3.39627 0
M  V30 6420 C 627.509 0.106809 -4.50773 0
M  V30 6421 C 626.171 -0.169876 -4.809 0
M  V30 6422 C 628.523 -0.57895 -5.17975 0
M  V30 6423 C 625.851 -1.13861 -5.75545 0
M  V30 6424 C 628.203 -1.53631 -6.13661 0
M  V30 6425 C 626.867 -1.82099 -6.42181 0
M  V30 6426 H 626.137 0.197427 -0.714215 0
M  V30 6427 H 628.784 -0.199391 -1.90459 0
M  V30 6428 H 627.089 1.92869 -3.4104 0
M  V30 6429 H 628.786 1.63032 -3.66363 0
M  V30 6430 H 625.376 0.332645 -4.27307 0
M  V30 6431 H 629.56 -0.378359 -4.94856 0
M  V30 6432 H 624.816 -1.36592 -5.95947 0
M  V30 6433 H 628.99 -2.07337 -6.64819 0
M  V30 6434 H 626.617 -2.57319 -7.15326 0
M  V30 6435 N 628.193 1.56834 0.155195 0
M  V30 6436 C 629.14 1.97646 1.19184 0
M  V30 6437 C 630.11 0.842788 1.4313 0
M  V30 6438 O 631.295 1.1042 1.55602 0
M  V30 6439 C 628.435 2.35527 2.52232 0
M  V30 6440 C 627.548 3.62147 2.35529 0
M  V30 6441 C 626.683 3.89167 3.61555 0
M  V30 6442 C 625.722 5.09084 3.39853 0
M  V30 6443 N 624.859 5.32156 4.5799 0
M  V30 6444 H 629.699 2.8601 0.836802 0
M  V30 6445 H 627.236 1.41507 0.401758 0
M  V30 6446 H 629.194 2.55516 3.29799 0
M  V30 6447 H 627.824 1.50253 2.85699 0
M  V30 6448 H 626.876 3.4998 1.49057 0
M  V30 6449 H 628.188 4.49871 2.15448 0
M  V30 6450 H 627.342 4.09611 4.47553 0
M  V30 6451 H 626.081 2.9985 3.84632 0
M  V30 6452 H 625.086 4.88522 2.52243 0
M  V30 6453 H 626.311 5.99947 3.18183 0
M  V30 6454 H 624.257 4.45791 4.81255 0
M  V30 6455 H 624.174 6.14133 4.40882 0
M  V30 6456 H 625.442 5.57091 5.45225 0
M  V30 6457 N 629.671 -0.424282 1.51781 0
M  V30 6458 C 630.621 -1.51464 1.70419 0
M  V30 6459 C 631.605 -1.50911 0.558094 0
M  V30 6460 O 632.797 -1.57143 0.814552 0
M  V30 6461 C 629.926 -2.89539 1.84451 0
M  V30 6462 C 629.012 -2.94798 3.04886 0
M  V30 6463 N 629.403 -2.69778 4.27848 0
M  V30 6464 C 627.701 -3.25962 3.04408 0
M  V30 6465 C 628.402 -2.81216 5.09208 0
M  V30 6466 N 627.378 -3.13447 4.44131 0
M  V30 6467 H 631.18 -1.30892 2.63144 0
M  V30 6468 H 628.694 -0.631783 1.49607 0
M  V30 6469 H 630.691 -3.67998 1.95917 0
M  V30 6470 H 629.351 -3.11121 0.929168 0
M  V30 6471 H 630.362 -2.44458 4.56575 0
M  V30 6472 H 627.039 -3.53236 2.22555 0
M  V30 6473 H 628.429 -2.65715 6.17127 0
M  V30 6474 N 631.149 -1.42148 -0.680565 0
M  V30 6475 C 632.377 -1.45696 -1.46902 0
M  V30 6476 C 632.792 -0.0665858 -1.88683 0
M  V30 6477 O 632.149 0.917436 -1.57764 0
M  V30 6478 C 632.2 -2.37898 -2.72188 0
M  V30 6479 O 631.921 -3.71526 -2.32163 0
M  V30 6480 C 633.422 -2.50407 -3.65802 0
M  V30 6481 H 630.642 -0.495729 -0.45221 0
M  V30 6482 H 633.186 -1.866 -0.836709 0
M  V30 6483 H 631.341 -2.00263 -3.31622 0
M  V30 6484 H 631.755 -4.20849 -3.13027 0
M  V30 6485 H 633.229 -3.19056 -4.50452 0
M  V30 6486 H 633.706 -1.5401 -4.11312 0
M  V30 6487 H 634.312 -2.8874 -3.12265 0
M  V30 6488 N 632.627 0.916307 -1.28225 0
M  V30 6489 C 633.557 2.0352 -1.14464 0
M  V30 6490 C 634.538 1.70045 -0.0430844 0
M  V30 6491 O 635.723 1.92954 -0.219619 0
M  V30 6492 C 632.853 3.37889 -0.803027 0
M  V30 6493 C 631.807 3.85516 -1.85908 0
M  V30 6494 C 631.133 5.1682 -1.37116 0
M  V30 6495 C 632.433 4.07655 -3.26519 0
M  V30 6496 H 634.127 2.1529 -2.08064 0
M  V30 6497 H 631.673 1.03446 -1.00174 0
M  V30 6498 H 633.626 4.15654 -0.693537 0
M  V30 6499 H 632.35 3.26164 0.168674 0
M  V30 6500 H 631.009 3.09953 -1.95767 0
M  V30 6501 H 630.657 5.01497 -0.38859 0
M  V30 6502 H 630.357 5.49657 -2.07728 0
M  V30 6503 H 631.881 5.97143 -1.27484 0
M  V30 6504 H 633.295 4.75953 -3.19596 0
M  V30 6505 H 631.692 4.51818 -3.94943 0
M  V30 6506 H 632.762 3.12553 -3.70727 0
M  V30 6507 N 634.105 1.10431 1.1244 0
M  V30 6508 C 635.035 0.775143 2.20258 0
M  V30 6509 C 636.016 -0.25186 1.68225 0
M  V30 6510 O 637.201 -0.117637 1.93843 0
M  V30 6511 C 634.331 0.206133 3.46688 0
M  V30 6512 C 633.285 1.16382 4.11873 0
M  V30 6513 C 632.611 0.456014 5.32752 0
M  V30 6514 C 633.911 2.5104 4.58013 0
M  V30 6515 H 635.605 1.67665 2.4805 0
M  V30 6516 H 633.151 0.807595 1.19222 0
M  V30 6517 H 635.104 -0.036291 4.21384 0
M  V30 6518 H 633.828 -0.730614 3.18323 0
M  V30 6519 H 632.487 1.39169 3.39157 0
M  V30 6520 H 632.135 -0.485203 5.00654 0
M  V30 6521 H 631.835 1.09466 5.77314 0
M  V30 6522 H 633.359 0.222135 6.10196 0
M  V30 6523 H 634.773 2.32401 5.24083 0
M  V30 6524 H 633.17 3.10789 5.13352 0
M  V30 6525 H 634.24 3.11039 3.71998 0
M  V30 6526 N 635.583 -1.29855 0.893053 0
M  V30 6527 C 636.831 -1.9544 0.514566 0
M  V30 6528 C 637.152 -1.70795 -0.940959 0
M  V30 6529 O 636.422 -1.03601 -1.66264 0
M  V30 6530 H 635.002 -0.723137 0.187302 0
M  V30 6531 H 637.664 -1.58234 1.13789 0
M  V30 6532 H 636.76 -3.04341 0.691581 0
M  V30 6533 N 637.061 -0.65484 -1.43351 0
M  V30 6534 C 637.971 0.0363603 -2.34572 0
M  V30 6535 C 638.987 0.810432 -1.53974 0
M  V30 6536 O 640.163 0.757308 -1.86619 0
M  V30 6537 C 637.228 0.989733 -3.32273 0
M  V30 6538 C 636.289 0.212414 -4.28774 0
M  V30 6539 C 635.522 1.12038 -5.21808 0
M  V30 6540 O 635.745 2.35967 -5.19303 0
M  V30 6541 O 634.679 0.59191 -5.98982 0
M  V30 6542 H 638.505 -0.714527 -2.95175 0
M  V30 6543 H 636.09 -0.415029 -1.4352 0
M  V30 6544 H 637.972 1.53759 -3.92347 0
M  V30 6545 H 636.647 1.72082 -2.74171 0
M  V30 6546 H 635.554 -0.379062 -3.72175 0
M  V30 6547 H 636.887 -0.479138 -4.89862 0
M  V30 6548 N 638.539 1.52521 -0.396863 0
M  V30 6549 C 639.788 2.00857 0.184184 0
M  V30 6550 C 640.101 1.28733 1.47265 0
M  V30 6551 O 641.307 1.67821 2.13421 0
M  V30 6552 C 639.763 3.57901 0.378787 0
M  V30 6553 C 639.371 4.38931 -0.896873 0
M  V30 6554 C 641.115 4.14504 0.915789 0
M  V30 6555 C 639.022 5.87591 -0.670133 0
M  V30 6556 H 637.952 0.750496 0.0726055 0
M  V30 6557 H 640.603 1.75965 -0.520425 0
M  V30 6558 H 638.985 3.79072 1.14543 0
M  V30 6559 H 640.159 4.29524 -1.66872 0
M  V30 6560 H 638.474 3.93586 -1.35938 0
M  V30 6561 H 641.071 5.23236 1.10126 0
M  V30 6562 H 641.414 3.71076 1.88701 0
M  V30 6563 H 641.947 3.97253 0.208523 0
M  V30 6564 H 638.686 6.35355 -1.61257 0
M  V30 6565 H 638.206 5.99767 0.0626368 0
M  V30 6566 H 639.885 6.46268 -0.307577 0
M  V30 6567 N 640.017 0.126909 1.57088 0
M  V30 6568 C 640.947 -0.816847 2.18746 0
M  V30 6569 C 641.928 -1.27161 1.12979 0
M  V30 6570 O 643.113 -1.33279 1.41246 0
M  V30 6571 C 640.243 -2.06398 2.79315 0
M  V30 6572 C 639.197 -1.74673 3.90735 0
M  V30 6573 C 638.523 -3.06482 4.38147 0
M  V30 6574 C 639.823 -1.0089 5.12463 0
M  V30 6575 H 641.517 -0.303032 2.97863 0
M  V30 6576 H 639.063 -0.144314 1.43275 0
M  V30 6577 H 641.016 -2.72885 3.2111 0
M  V30 6578 H 639.74 -2.60118 1.975 0
M  V30 6579 H 638.399 -1.10572 3.49527 0
M  V30 6580 H 638.047 -3.58152 3.5318 0
M  V30 6581 H 637.747 -2.86025 5.13287 0
M  V30 6582 H 639.271 -3.74073 4.82599 0
M  V30 6583 H 640.685 -1.57546 5.51228 0
M  V30 6584 H 639.082 -0.905006 5.93237 0
M  V30 6585 H 640.152 0.00297335 4.849 0
M  V30 6586 N 641.495 -1.56914 -0.146875 0
M  V30 6587 C 642.443 -1.99224 -1.20053 0
M  V30 6588 C 643.437 -0.884661 -1.44465 0
M  V30 6589 O 644.643 -1.06984 -1.44756 0
M  V30 6590 H 641.018 -0.634191 -0.404112 0
M  V30 6591 H 642.989 -2.86998 -0.816987 0
M  V30 6592 C 641.738 -2.38899 -2.52632 0
M  V30 6593 H 641.061 -3.23677 -2.34677 0
M  V30 6594 H 642.501 -2.72326 -3.24984 0
M  V30 6595 C 640.96 -1.2417 -3.13183 0
M  V30 6596 O 641.49 -0.542503 -3.9802 0
M  V30 6597 N 639.696 -1.00592 -2.72635 0
M  V30 6598 H 639.243 -1.57627 -2.03744 0
M  V30 6599 H 639.201 -0.240174 -3.13481 0
M  V30 6600 N 642.974 0.416227 -1.52004 0
M  V30 6601 C 644.204 1.18401 -1.69307 0
M  V30 6602 C 644.612 1.84943 -0.399072 0
M  V30 6603 O 643.955 1.72406 0.634177 0
M  V30 6604 C 644.017 2.29465 -2.76742 0
M  V30 6605 C 643.681 1.83117 -4.18709 0
M  V30 6606 C 644.678 1.32286 -5.02789 0
M  V30 6607 C 642.363 1.90167 -4.64911 0
M  V30 6608 C 644.357 0.891178 -6.31139 0
M  V30 6609 C 642.044 1.4661 -5.93253 0
M  V30 6610 C 643.042 0.961696 -6.76196 0
M  V30 6611 O 642.73 0.532388 -8.02135 0
M  V30 6612 H 642.462 0.362098 -0.570843 0
M  V30 6613 H 645.016 0.496764 -1.99302 0
M  V30 6614 H 643.246 3.01531 -2.42107 0
M  V30 6615 H 644.935 2.91252 -2.82713 0
M  V30 6616 H 645.701 1.26218 -4.68288 0
M  V30 6617 H 641.58 2.28371 -4.00459 0
M  V30 6618 H 645.124 0.496788 -6.95829 0
M  V30 6619 H 641.021 1.52355 -6.27263 0
M  V30 6620 H 641.789 0.656339 -8.15864 0
M  V30 6621 N 644.452 1.42507 0.673017 0
M  V30 6622 C 645.682 1.46261 1.45916 0
M  V30 6623 C 646.09 0.0729724 1.89059 0
M  V30 6624 O 645.433 -0.922987 1.58829 0
M  V30 6625 C 645.495 2.32853 2.73898 0
M  V30 6626 C 645.159 3.80699 2.52819 0
M  V30 6627 C 646.156 4.72307 2.17306 0
M  V30 6628 C 643.841 4.24983 2.67758 0
M  V30 6629 C 645.835 6.06192 1.97003 0
M  V30 6630 C 643.522 5.58927 2.4707 0
M  V30 6631 C 644.52 6.49348 2.11746 0
M  V30 6632 O 644.208 7.80817 1.91259 0
M  V30 6633 H 643.94 0.499561 0.455428 0
M  V30 6634 H 646.494 1.87697 0.834196 0
M  V30 6635 H 644.724 1.86268 3.38882 0
M  V30 6636 H 646.413 2.28041 3.35786 0
M  V30 6637 H 647.179 4.39378 2.05359 0
M  V30 6638 H 643.058 3.54893 2.94231 0
M  V30 6639 H 646.602 6.76731 1.69355 0
M  V30 6640 H 642.499 5.91429 2.58615 0
M  V30 6641 H 643.267 7.92194 2.05843 0
M  V30 6642 N 645.93 -0.909495 1.28709 0
M  V30 6643 C 646.893 -1.99399 1.13016 0
M  V30 6644 C 647.893 -1.60654 0.068536 0
M  V30 6645 O 649.083 -1.71334 0.314671 0
M  V30 6646 C 646.215 -3.33078 0.726085 0
M  V30 6647 H 647.408 -2.14751 2.09338 0
M  V30 6648 H 644.961 -1.09272 1.11756 0
M  V30 6649 H 645.696 -3.23428 -0.23771 0
M  V30 6650 H 645.481 -3.62562 1.49302 0
M  V30 6651 H 646.971 -4.12681 0.639058 0
M  V30 6652 N 647.408 -1.11026 -1.11852 0
M  V30 6653 C 648.358 -0.733836 -2.15868 0
M  V30 6654 C 649.342 0.26001 -1.58785 0
M  V30 6655 O 650.534 0.0677901 -1.7687 0
M  V30 6656 C 647.663 -0.173948 -3.42859 0
M  V30 6657 C 646.749 -1.1952 -4.0691 0
M  V30 6658 N 647.14 -2.38797 -4.45881 0
M  V30 6659 C 645.438 -1.03714 -4.33773 0
M  V30 6660 C 646.139 -3.03894 -4.96007 0
M  V30 6661 N 645.115 -2.31389 -4.91894 0
M  V30 6662 H 648.917 -1.64171 -2.43773 0
M  V30 6663 H 646.431 -0.988877 -1.28822 0
M  V30 6664 H 648.428 0.113836 -4.16745 0
M  V30 6665 H 647.088 0.728568 -3.16421 0
M  V30 6666 H 648.099 -2.76281 -4.38051 0
M  V30 6667 H 644.776 -0.190694 -4.17064 0
M  V30 6668 H 646.166 -4.05389 -5.35826 0
M  V30 6669 N 648.886 1.2938 -0.899927 0
M  V30 6670 C 650.132 1.96206 -0.536153 0
M  V30 6671 C 650.487 1.69647 0.90761 0
M  V30 6672 O 649.78 0.999089 1.63489 0
M  V30 6673 C 649.974 3.49114 -0.765113 0
M  V30 6674 C 649.803 3.90538 -2.22958 0
M  V30 6675 C 648.573 4.15395 -2.87706 0
M  V30 6676 C 650.771 4.0224 -3.20479 0
M  V30 6677 N 648.753 4.43389 -4.24593 0
M  V30 6678 C 650.124 4.34288 -4.42486 0
M  V30 6679 C 652.179 3.84716 -3.16066 0
M  V30 6680 C 650.882 4.50638 -5.6064 0
M  V30 6681 C 652.908 4.02276 -4.33507 0
M  V30 6682 C 652.27 4.34684 -5.54283 0
M  V30 6683 H 648.369 0.742364 -0.245804 0
M  V30 6684 H 650.953 1.56314 -1.16078 0
M  V30 6685 H 649.124 3.88028 -0.169861 0
M  V30 6686 H 650.856 4.03035 -0.366751 0
M  V30 6687 H 647.611 4.09164 -2.385 0
M  V30 6688 H 648.035 4.61494 -4.95331 0
M  V30 6689 H 652.677 3.58724 -2.23778 0
M  V30 6690 H 650.395 4.75467 -6.5342 0
M  V30 6691 H 653.981 3.90169 -4.31578 0
M  V30 6692 H 652.861 4.47988 -6.43643 0
M  V30 6693 N 650.364 0.662433 1.43002 0
M  V30 6694 C 651.589 0.186003 2.06564 0
M  V30 6695 C 652.014 -1.14314 1.49379 0
M  V30 6696 O 651.372 -1.70824 0.607346 0
M  V30 6697 C 651.42 0.118269 3.60406 0
M  V30 6698 O 650.524 -0.916859 4.02079 0
M  V30 6699 H 649.865 0.0990981 0.656563 0
M  V30 6700 H 652.395 0.907958 1.8335 0
M  V30 6701 H 652.405 -0.0619981 4.07953 0
M  V30 6702 H 651.08 1.08849 4.01403 0
M  V30 6703 H 649.657 -0.708635 3.66105 0
M  V30 6704 N 651.842 -1.52309 0.404946 0
M  V30 6705 C 653.09 -2.01368 -0.17186 0
M  V30 6706 C 653.411 -1.29261 -1.46002 0
M  V30 6707 O 652.681 -0.41729 -1.91404 0
M  V30 6708 H 651.261 -0.744034 -0.0664993 0
M  V30 6709 H 653.923 -1.87263 0.540228 0
M  V30 6710 H 653.019 -3.09888 -0.370957 0
M  V30 6711 N 653.32 -0.135238 -1.57019 0
M  V30 6712 C 654.545 0.529343 -2.00531 0
M  V30 6713 C 654.97 1.58391 -1.01459 0
M  V30 6714 O 654.328 1.81296 0.0113986 0
M  V30 6715 C 654.376 1.11748 -3.42848 0
M  V30 6716 O 653.48 2.23267 -3.46736 0
M  V30 6717 H 652.821 0.130669 -0.651016 0
M  V30 6718 H 655.351 -0.228503 -2.0332 0
M  V30 6719 H 655.361 1.44905 -3.81401 0
M  V30 6720 H 654.036 0.345147 -4.14465 0
M  V30 6721 H 652.613 1.91428 -3.20015 0
M  V30 6722 N 654.798 1.5699 0.138552 0
M  V30 6723 C 655.731 1.94064 1.2006 0
M  V30 6724 C 656.709 0.807601 1.41126 0
M  V30 6725 O 657.893 1.06399 1.556 0
M  V30 6726 C 655.02 2.21999 2.55801 0
M  V30 6727 C 654.066 3.44617 2.5128 0
M  V30 6728 S 654.899 4.97888 1.97149 0
M  V30 6729 C 656.055 5.28954 3.34602 0
M  V30 6730 H 656.288 2.83843 0.884337 0
M  V30 6731 H 653.821 1.50507 0.344517 0
M  V30 6732 H 655.779 2.38772 3.33914 0
M  V30 6733 H 654.44 1.32869 2.84613 0
M  V30 6734 H 653.633 3.61466 3.51224 0
M  V30 6735 H 653.235 3.27129 1.8128 0
M  V30 6736 H 655.527 5.22938 4.30745 0
M  V30 6737 H 656.47 6.30346 3.22598 0
M  V30 6738 H 656.878 4.56455 3.32128 0
M  V30 6739 N 656.276 -0.40816 1.52223 0
M  V30 6740 C 657.223 -1.49737 1.75635 0
M  V30 6741 C 658.193 -1.5493 0.598824 0
M  V30 6742 O 659.378 -1.71487 0.83648 0
M  V30 6743 C 656.518 -2.87174 1.91376 0
M  V30 6744 C 655.631 -2.91283 3.19027 0
M  V30 6745 C 654.766 -4.20026 3.25195 0
M  V30 6746 C 653.805 -4.18113 4.47044 0
M  V30 6747 N 652.942 -5.38429 4.50598 0
M  V30 6748 H 657.782 -1.29075 2.68596 0
M  V30 6749 H 655.319 -0.626518 1.33091 0
M  V30 6750 H 657.277 -3.66959 1.98486 0
M  V30 6751 H 655.907 -3.06329 1.01795 0
M  V30 6752 H 654.959 -2.03984 3.21084 0
M  V30 6753 H 656.271 -2.85734 4.08849 0
M  V30 6754 H 655.425 -5.08204 3.31382 0
M  V30 6755 H 654.164 -4.28271 2.33313 0
M  V30 6756 H 653.169 -3.28325 4.41002 0
M  V30 6757 H 654.394 -4.11507 5.40221 0
M  V30 6758 H 652.34 -5.4734 3.616 0
M  V30 6759 H 652.257 -5.34879 5.34266 0
M  V30 6760 H 653.525 -6.28557 4.61016 0
M  V30 6761 N 657.755 -1.42862 -0.66545 0
M  V30 6762 C 658.685 -1.49867 -1.79059 0
M  V30 6763 C 659.666 -0.354394 -1.66367 0
M  V30 6764 O 660.851 -0.569969 -1.85647 0
M  V30 6765 C 657.981 -1.40943 -3.17415 0
M  V30 6766 C 656.935 -2.53495 -3.44854 0
M  V30 6767 C 656.261 -2.29626 -4.82883 0
M  V30 6768 C 657.561 -3.95781 -3.40815 0
M  V30 6769 H 659.255 -2.44037 -1.73453 0
M  V30 6770 H 656.801 -1.17456 -0.833071 0
M  V30 6771 H 658.754 -1.4445 -3.95869 0
M  V30 6772 H 657.478 -0.432716 -3.23721 0
M  V30 6773 H 656.137 -2.4932 -2.68766 0
M  V30 6774 H 655.785 -1.30226 -4.8585 0
M  V30 6775 H 655.485 -3.05065 -5.02204 0
M  V30 6776 H 657.009 -2.34897 -5.63609 0
M  V30 6777 H 658.423 -4.01508 -4.09224 0
M  V30 6778 H 656.82 -4.71148 -3.71672 0
M  V30 6779 H 657.89 -4.21786 -2.39216 0
M  V30 6780 N 659.233 0.902656 -1.29189 0
M  V30 6781 C 660.461 1.68639 -1.19869 0
M  V30 6782 C 660.876 1.87254 0.241121 0
M  V30 6783 O 660.233 1.40745 1.16177 0
M  V30 6784 C 660.284 3.07251 -1.90471 0
M  V30 6785 O 660.005 2.89488 -3.28829 0
M  V30 6786 C 661.506 4.01653 -1.8759 0
M  V30 6787 H 658.726 0.526802 -0.415596 0
M  V30 6788 H 661.27 1.12901 -1.7051 0
M  V30 6789 H 659.425 3.59774 -1.43672 0
M  V30 6790 H 659.839 3.77296 -3.64346 0
M  V30 6791 H 661.313 4.96339 -2.4156 0
M  V30 6792 H 661.79 4.30881 -0.850756 0
M  V30 6793 H 662.396 3.55061 -2.34119 0
M  V30 6794 N 660.711 1.11618 1.11262 0
M  V30 6795 C 661.958 0.86618 1.8304 0
M  V30 6796 C 662.286 -0.608149 1.84748 0
M  V30 6797 O 661.541 -1.46508 1.29745 0
M  V30 6798 C 661.84 1.37529 3.2988 0
M  V30 6799 C 661.506 2.86317 3.4833 0
M  V30 6800 C 660.168 3.26945 3.53073 0
M  V30 6801 C 662.52 3.82136 3.54431 0
M  V30 6802 C 659.848 4.62117 3.61475 0
M  V30 6803 C 662.2 5.17128 3.64365 0
M  V30 6804 C 660.864 5.57312 3.67369 0
M  V30 6805 H 660.134 0.316958 0.66979 0
M  V30 6806 H 662.781 1.3949 1.31205 0
M  V30 6807 H 661.086 0.766842 3.84222 0
M  V30 6808 H 662.783 1.15817 3.83911 0
M  V30 6809 H 659.373 2.53889 3.45309 0
M  V30 6810 H 663.557 3.51847 3.50025 0
M  V30 6811 H 658.813 4.92655 3.62079 0
M  V30 6812 H 662.987 5.91208 3.68029 0
M  V30 6813 H 660.614 6.62045 3.73632 0
M  V30 6814 N 662.189 -1.289 0.906776 0
M  V30 6815 C 663.435 -1.95558 0.53712 0
M  V30 6816 C 663.768 -1.71262 -0.915582 0
M  V30 6817 O 663.043 -1.02961 -1.65013 0
M  V30 6818 C 663.326 -3.50198 0.838645 0
M  V30 6819 C 663.179 -3.83923 2.34357 0
M  V30 6820 C 664.498 -4.38861 0.329988 0
M  V30 6821 H 661.617 -0.710289 0.196617 0
M  V30 6822 H 664.259 -1.52392 1.13475 0
M  V30 6823 H 662.409 -3.87096 0.330024 0
M  V30 6824 H 664.081 -3.56933 2.92227 0
M  V30 6825 H 662.324 -3.31215 2.80141 0
M  V30 6826 H 662.995 -4.91883 2.5051 0
M  V30 6827 H 665.471 -4.08996 0.765609 0
M  V30 6828 H 664.347 -5.45931 0.570105 0
M  V30 6829 H 664.608 -4.35352 -0.769511 0
M  V30 6830 N 663.667 -0.670007 -1.42649 0
M  V30 6831 C 664.914 -0.190286 -2.01604 0
M  V30 6832 C 665.242 1.20155 -1.52948 0
M  V30 6833 O 664.497 1.81964 -0.72026 0
M  V30 6834 C 664.796 -0.168298 -3.57004 0
M  V30 6835 C 664.462 -1.50415 -4.25072 0
M  V30 6836 C 663.124 -1.86992 -4.43382 0
M  V30 6837 C 665.476 -2.38414 -4.63474 0
M  V30 6838 C 662.804 -3.11203 -4.97363 0
M  V30 6839 C 665.156 -3.61933 -5.18833 0
M  V30 6840 C 663.82 -3.98685 -5.35356 0
M  V30 6841 H 663.09 -0.0696305 -0.737721 0
M  V30 6842 H 665.737 -0.864044 -1.70899 0
M  V30 6843 H 664.042 0.588958 -3.87348 0
M  V30 6844 H 665.739 0.22001 -4.00396 0
M  V30 6845 H 662.329 -1.20959 -4.11177 0
M  V30 6846 H 666.513 -2.11442 -4.49006 0
M  V30 6847 H 661.769 -3.39705 -5.08341 0
M  V30 6848 H 665.943 -4.30326 -5.47533 0
M  V30 6849 H 663.57 -4.95009 -5.76949 0
M  V30 6850 N 665.145 1.52092 -0.413018 0
M  V30 6851 C 666.385 2.03765 0.160975 0
M  V30 6852 C 666.749 1.29174 1.4205 0
M  V30 6853 O 667.95 1.71093 2.07318 0
M  V30 6854 C 666.221 3.55167 0.398871 0
M  V30 6855 S 667.78 4.28619 0.939755 0
M  V30 6856 H 664.598 0.709685 0.0432281 0
M  V30 6857 H 667.2 1.87102 -0.566831 0
M  V30 6858 H 665.904 4.07034 -0.524544 0
M  V30 6859 H 665.435 3.7608 1.15444 0
M  V30 6860 H 667.45 4.43773 2.21991 0
M  V30 6861 N 666.623 0.143563 1.56945 0
M  V30 6862 C 667.871 -0.507402 1.95627 0
M  V30 6863 C 668.192 -1.65626 1.02922 0
M  V30 6864 O 667.462 -1.95693 0.0901136 0
M  V30 6865 H 666.042 -0.190436 0.722318 0
M  V30 6866 H 668.704 0.218257 1.93674 0
M  V30 6867 H 667.8 -0.885816 2.99265 0
M  V30 6868 N 668.101 -1.57061 -0.130224 0
M  V30 6869 C 669.326 -1.88802 -0.858409 0
M  V30 6870 C 669.751 -0.734353 -1.73173 0
M  V30 6871 O 669.109 0.315529 -1.78533 0
M  V30 6872 C 669.157 -3.19228 -1.67708 0
M  V30 6873 O 668.261 -3.04343 -2.78297 0
M  V30 6874 H 667.602 -0.619849 -0.238083 0
M  V30 6875 H 670.132 -2.04271 -0.115995 0
M  V30 6876 H 670.142 -3.51669 -2.06864 0
M  V30 6877 H 668.817 -4.02793 -1.0359 0
M  V30 6878 H 667.394 -2.83346 -2.42425 0
M  V30 6879 N 669.579 0.400081 -1.52437 0
M  V30 6880 C 670.542 1.4707 -1.75793 0
M  V30 6881 C 671.542 1.48036 -0.627856 0
M  V30 6882 O 672.732 1.49401 -0.895817 0
M  V30 6883 C 669.864 2.86427 -1.84858 0
M  V30 6884 H 671.057 1.27649 -2.71377 0
M  V30 6885 H 668.61 0.631141 -1.42991 0
M  V30 6886 H 669.345 3.11207 -0.912194 0
M  V30 6887 H 669.13 2.87128 -2.6702 0
M  V30 6888 H 670.62 3.64023 -2.04638 0
M  V30 6889 N 671.057 1.43213 0.657864 0
M  V30 6890 C 671.99 1.42456 1.78273 0
M  V30 6891 C 672.968 0.286598 1.60054 0
M  V30 6892 O 674.152 0.479467 1.823 0
M  V30 6893 C 671.279 1.23169 3.15511 0
M  V30 6894 C 670.325 2.40181 3.52442 0
M  V30 6895 S 671.158 4.02729 3.52944 0
M  V30 6896 C 672.314 3.85816 4.92846 0
M  V30 6897 H 672.547 2.37642 1.78644 0
M  V30 6898 H 670.08 1.30188 0.830084 0
M  V30 6899 H 672.038 1.12728 3.94719 0
M  V30 6900 H 670.699 0.295398 3.12708 0
M  V30 6901 H 669.892 2.22478 4.52239 0
M  V30 6902 H 669.494 2.47224 2.80636 0
M  V30 6903 H 671.786 3.47853 5.81381 0
M  V30 6904 H 672.729 4.85348 5.15599 0
M  V30 6905 H 673.137 3.18361 4.66162 0
M  V30 6906 N 672.536 -0.895792 1.29666 0
M  V30 6907 C 673.499 -1.98189 1.15124 0
M  V30 6908 C 674.499 -1.60572 0.0855717 0
M  V30 6909 O 675.689 -1.70991 0.332826 0
M  V30 6910 C 672.821 -3.32289 0.761372 0
M  V30 6911 H 674.014 -2.12518 2.11603 0
M  V30 6912 H 671.567 -1.0808 1.12908 0
M  V30 6913 H 672.302 -3.23662 -0.203393 0
M  V30 6914 H 672.087 -3.60958 1.53139 0
M  V30 6915 H 673.577 -4.1198 0.682792 0
M  V30 6916 N 674.014 -1.12206 -1.10668 0
M  V30 6917 C 675.242 -0.898635 -1.86366 0
M  V30 6918 C 675.657 0.551991 -1.80551 0
M  V30 6919 O 675.014 1.38152 -1.19249 0
M  V30 6920 C 675.065 -1.36199 -3.34861 0
M  V30 6921 O 674.786 -2.75576 -3.40573 0
M  V30 6922 C 676.287 -1.17515 -4.2744 0
M  V30 6923 H 673.507 -0.321281 -0.589084 0
M  V30 6924 H 676.051 -1.49142 -1.39918 0
M  V30 6925 H 674.206 -0.81249 -3.78784 0
M  V30 6926 H 674.62 -2.95851 -4.33096 0
M  V30 6927 H 676.094 -1.54827 -5.29842 0
M  V30 6928 H 676.571 -0.115486 -4.39048 0
M  V30 6929 H 677.177 -1.71203 -3.89319 0
M  V30 6930 N 675.492 1.28418 -0.913599 0
M  V30 6931 C 676.74 1.94596 -0.545594 0
M  V30 6932 C 677.061 1.7227 0.913668 0
M  V30 6933 O 676.331 1.06233 1.64595 0
M  V30 6934 H 674.911 0.720065 -0.198783 0
M  V30 6935 H 677.573 1.56404 -1.16292 0
M  V30 6936 H 676.669 3.03202 -0.739911 0
M  V30 6937 N 676.97 0.677563 1.42291 0
M  V30 6938 C 677.917 0.000947061 2.308 0
M  V30 6939 C 678.887 -0.789889 1.46116 0
M  V30 6940 O 680.072 -0.761578 1.74942 0
M  V30 6941 C 677.212 -0.942387 3.31984 0
M  V30 6942 C 676.325 -0.14508 4.31756 0
M  V30 6943 C 675.46 -1.08442 5.20013 0
M  V30 6944 C 674.499 -0.278958 6.11464 0
M  V30 6945 N 673.636 -1.17115 6.92263 0
M  V30 6946 H 678.476 0.761521 2.88106 0
M  V30 6947 H 676.013 0.38727 1.41911 0
M  V30 6948 H 677.971 -1.50317 3.89179 0
M  V30 6949 H 676.601 -1.66956 2.76271 0
M  V30 6950 H 675.653 0.532368 3.76656 0
M  V30 6951 H 676.965 0.48015 4.96484 0
M  V30 6952 H 676.119 -1.71504 5.81955 0
M  V30 6953 H 674.858 -1.74353 4.55469 0
M  V30 6954 H 673.863 0.364856 5.48588 0
M  V30 6955 H 675.088 0.376099 6.78058 0
M  V30 6956 H 673.034 -1.81661 6.30345 0
M  V30 6957 H 672.951 -0.601063 7.53607 0
M  V30 6958 H 674.219 -1.78915 7.58689 0
M  V30 6959 N 678.448 -1.51871 0.421078 0
M  V30 6960 C 679.695 -2.01938 -0.15079 0
M  V30 6961 C 680.023 -1.30611 -1.44121 0
M  V30 6962 O 679.278 -0.404631 -1.91471 0
M  V30 6963 C 679.577 -3.54764 -0.433292 0
M  V30 6964 C 679.243 -4.44288 0.76936 0
M  V30 6965 C 677.905 -4.68477 1.09921 0
M  V30 6966 C 680.257 -4.96915 1.57242 0
M  V30 6967 C 677.585 -5.4254 2.2331 0
M  V30 6968 C 679.937 -5.7222 2.69716 0
M  V30 6969 C 678.601 -5.94678 3.03174 0
M  V30 6970 H 677.871 -0.738943 -0.0551781 0
M  V30 6971 H 680.518 -1.82977 0.564945 0
M  V30 6972 H 678.823 -3.71968 -1.23074 0
M  V30 6973 H 680.52 -3.91023 -0.888922 0
M  V30 6974 H 677.11 -4.25646 0.502305 0
M  V30 6975 H 681.294 -4.78125 1.3308 0
M  V30 6976 H 676.55 -5.58146 2.49565 0
M  V30 6977 H 680.724 -6.11992 3.32323 0
M  V30 6978 H 678.351 -6.51848 3.9115 0
M  V30 6979 N 679.926 -0.151884 -1.56866 0
M  V30 6980 C 680.856 0.781943 -2.20018 0
M  V30 6981 C 681.837 1.25347 -1.14987 0
M  V30 6982 O 683.022 1.31015 -1.43348 0
M  V30 6983 C 680.152 2.01928 -2.82564 0
M  V30 6984 C 679.106 1.68434 -3.93464 0
M  V30 6985 C 678.432 2.99472 -4.42968 0
M  V30 6986 C 679.732 0.927244 -5.14003 0
M  V30 6987 H 681.426 0.255607 -2.98307 0
M  V30 6988 H 678.972 0.121502 -1.43486 0
M  V30 6989 H 680.925 2.67741 -3.25411 0
M  V30 6990 H 679.649 2.56943 -2.01614 0
M  V30 6991 H 678.308 1.04998 -3.51242 0
M  V30 6992 H 677.956 3.52488 -3.58834 0
M  V30 6993 H 677.656 2.77823 -5.17772 0
M  V30 6994 H 679.18 3.66348 -4.88489 0
M  V30 6995 H 680.594 1.48756 -5.53665 0
M  V30 6996 H 678.991 0.810513 -5.94601 0
M  V30 6997 H 680.061 -0.0801163 -4.84834 0
M  V30 6998 N 681.404 1.57128 0.121893 0
M  V30 6999 C 682.653 1.83888 0.828748 0
M  V30 7000 C 682.966 0.737087 1.81181 0
M  V30 7001 O 684.172 0.891007 2.56463 0
M  V30 7002 C 682.628 3.26014 1.52455 0
M  V30 7003 C 682.236 4.44195 0.58263 0
M  V30 7004 C 683.98 3.62025 2.21671 0
M  V30 7005 C 681.887 5.77349 1.28149 0
M  V30 7006 H 680.817 0.685856 0.313238 0
M  V30 7007 H 683.468 1.83319 0.0814851 0
M  V30 7008 H 681.85 3.21044 2.31834 0
M  V30 7009 H 683.024 4.60457 -0.177729 0
M  V30 7010 H 681.339 4.164 -0.00241228 0
M  V30 7011 H 683.936 4.58776 2.74643 0
M  V30 7012 H 684.279 2.89315 2.99337 0
M  V30 7013 H 684.812 3.68767 1.49184 0
M  V30 7014 H 681.551 6.53221 0.546189 0
M  V30 7015 H 681.071 5.64978 2.01394 0
M  V30 7016 H 682.75 6.21006 1.81549 0
M  V30 7017 N 682.882 -0.391992 1.52647 0
M  V30 7018 C 683.845 -1.46135 1.7657 0
M  V30 7019 C 684.845 -1.47701 0.635698 0
M  V30 7020 O 686.035 -1.48924 0.903728 0
M  V30 7021 C 683.167 -2.85443 1.86374 0
M  V30 7022 H 684.36 -1.26208 2.72051 0
M  V30 7023 H 681.913 -0.623549 1.43323 0
M  V30 7024 H 682.648 -3.10718 0.928685 0
M  V30 7025 H 682.433 -2.85708 2.68539 0
M  V30 7026 H 683.923 -3.62933 2.06566 0
M  V30 7027 N 684.36 -1.4356 -0.65026 0
M  V30 7028 C 685.59 -1.48563 -1.4357 0
M  V30 7029 C 685.998 -0.103041 -1.88919 0
M  V30 7030 O 685.341 0.897602 -1.60277 0
M  V30 7031 C 685.403 -2.37181 -2.70158 0
M  V30 7032 C 685.067 -3.84673 -2.4673 0
M  V30 7033 C 686.064 -4.75704 -2.09765 0
M  V30 7034 C 683.749 -4.29189 -2.60963 0
M  V30 7035 C 685.743 -6.09249 -1.87334 0
M  V30 7036 C 683.43 -5.62787 -2.38147 0
M  V30 7037 C 684.428 -6.52634 -2.01389 0
M  V30 7038 O 684.116 -7.83761 -1.78813 0
M  V30 7039 H 683.848 -0.506743 -0.447423 0
M  V30 7040 H 686.402 -1.89001 -0.80423 0
M  V30 7041 H 684.632 -1.91636 -3.35876 0
M  V30 7042 H 686.321 -2.33354 -3.32116 0
M  V30 7043 H 687.087 -4.42589 -1.98343 0
M  V30 7044 H 682.966 -3.59529 -2.88548 0
M  V30 7045 H 686.51 -6.7934 -1.58567 0
M  V30 7046 H 682.407 -5.95469 -2.49173 0
M  V30 7047 H 683.175 -7.95368 -1.93214 0
M  V30 7048 N 685.838 0.888903 -1.30139 0
M  V30 7049 C 687.063 1.67884 -1.21777 0
M  V30 7050 C 687.488 1.86848 0.216689 0
M  V30 7051 O 686.846 1.39659 1.15608 0
M  V30 7052 C 686.894 3.03483 -1.94757 0
M  V30 7053 O 685.998 3.92294 -1.27198 0
M  V30 7054 H 685.339 0.513144 -0.421402 0
M  V30 7055 H 687.869 1.10968 -1.71893 0
M  V30 7056 H 687.879 3.53553 -2.03627 0
M  V30 7057 H 686.554 2.89 -2.99085 0
M  V30 7058 H 685.131 3.50732 -1.26655 0
M  V30 7059 N 687.317 1.12792 1.10072 0
M  V30 7060 C 688.728 0.899346 1.63611 0
M  V30 7061 C 689.079 -0.565547 1.87872 0
M  V30 7062 O 688.204 -1.43081 1.62348 0
M  V30 7063 C 688.799 1.62608 2.97227 0
M  V30 7064 C 687.358 1.44356 3.47618 0
M  V30 7065 C 686.505 1.65958 2.22156 0
M  V30 7066 H 689.456 1.28216 0.935223 0
M  V30 7067 H 689.477 1.0793 3.64872 0
M  V30 7068 H 688.989 2.69221 2.79538 0
M  V30 7069 H 687.09 0.400148 3.70445 0
M  V30 7070 H 687.203 2.20218 4.25489 0
M  V30 7071 H 685.567 1.08395 2.30484 0
M  V30 7072 H 686.35 2.73877 2.06993 0
M  V30 7073 N 688.795 -1.27931 0.920396 0
M  V30 7074 C 690.206 -1.76707 0.602616 0
M  V30 7075 C 690.557 -1.75249 -0.882159 0
M  V30 7076 O 689.682 -1.35135 -1.69019 0
M  V30 7077 C 690.277 -3.20884 1.08714 0
M  V30 7078 C 688.836 -3.67356 0.820157 0
M  V30 7079 C 687.983 -2.47525 1.25006 0
M  V30 7080 H 690.934 -1.14301 1.10095 0
M  V30 7081 H 690.955 -3.78045 0.431535 0
M  V30 7082 H 690.467 -3.21913 2.1678 0
M  V30 7083 H 688.568 -3.7178 -0.247012 0
M  V30 7084 H 688.681 -4.57181 1.43257 0
M  V30 7085 H 687.045 -2.45765 0.668698 0
M  V30 7086 H 687.828 -2.51269 2.3392 0
M  V30 7087 N 690.273 -0.685099 -1.4193 0
M  V30 7088 C 691.521 -0.21124 -2.00993 0
M  V30 7089 C 691.842 1.18985 -1.54491 0
M  V30 7090 O 691.112 1.8009 -0.771 0
M  V30 7091 H 689.692 -0.0751059 -0.743215 0
M  V30 7092 H 692.354 -0.883915 -1.73704 0
M  V30 7093 H 691.45 -0.220513 -3.1132 0
M  V30 7094 N 691.751 1.51645 -0.429126 0
M  V30 7095 C 692.714 2.26116 0.374726 0
M  V30 7096 C 693.714 1.29242 0.956714 0
M  V30 7097 O 694.904 1.53022 0.832452 0
M  V30 7098 C 692.036 3.04669 1.52937 0
M  V30 7099 H 693.229 2.9861 -0.277818 0
M  V30 7100 H 690.782 1.55236 -0.182097 0
M  V30 7101 H 691.517 2.36571 2.21821 0
M  V30 7102 H 691.302 3.75814 1.11833 0
M  V30 7103 H 692.792 3.61102 2.09751 0
M  V30 7104 N 693.229 0.160201 1.56784 0
M  V30 7105 C 694.177 -0.791402 2.18723 0
M  V30 7106 C 695.171 -1.24567 1.14801 0
M  V30 7107 O 696.377 -1.21262 1.33025 0
M  V30 7108 H 692.752 -0.273458 0.700517 0
M  V30 7109 H 694.723 -0.244931 2.97393 0
M  V30 7110 C 693.472 -2.01509 2.83354 0
M  V30 7111 H 692.795 -1.67454 3.63041 0
M  V30 7112 H 694.235 -2.66006 3.30177 0
M  V30 7113 C 692.694 -2.83159 1.82545 0
M  V30 7114 O 693.224 -3.79944 1.30405 0
M  V30 7115 N 691.43 -2.47953 1.51552 0
M  V30 7116 H 690.977 -1.69309 1.94144 0
M  V30 7117 H 690.935 -3.02873 0.843519 0
M  V30 7118 N 694.707 -1.5719 -0.113559 0
M  V30 7119 C 696.118 -1.74259 -0.670116 0
M  V30 7120 C 696.469 -0.779694 -1.80042 0
M  V30 7121 O 695.594 0.0461353 -2.16351 0
M  V30 7122 C 696.189 -3.15981 -1.22236 0
M  V30 7123 C 694.748 -3.34537 -1.72516 0
M  V30 7124 C 693.895 -2.70116 -0.627098 0
M  V30 7125 H 696.846 -1.58301 0.112396 0
M  V30 7126 H 696.867 -3.17832 -2.09197 0
M  V30 7127 H 696.379 -3.86038 -0.39949 0
M  V30 7128 H 694.48 -2.6953 -2.57263 0
M  V30 7129 H 694.593 -4.42737 -1.83086 0
M  V30 7130 H 692.957 -2.31501 -1.06204 0
M  V30 7131 H 693.74 -3.42802 0.184889 0
M  V30 7132 N 696.185 0.383891 -1.52853 0
M  V30 7133 C 697.596 0.961591 -1.60032 0
M  V30 7134 C 697.947 1.90819 -0.456333 0
M  V30 7135 O 697.072 2.12288 0.419873 0
M  V30 7136 C 697.667 1.75078 -2.90057 0
M  V30 7137 C 696.226 2.2781 -2.99632 0
M  V30 7138 C 695.373 1.08512 -2.55187 0
M  V30 7139 H 698.324 0.163269 -1.57858 0
M  V30 7140 H 698.345 2.61046 -2.7683 0
M  V30 7141 H 697.857 1.06157 -3.73299 0
M  V30 7142 H 695.958 3.00028 -2.20939 0
M  V30 7143 H 696.071 2.56947 -4.0437 0
M  V30 7144 H 694.435 1.44667 -2.09627 0
M  V30 7145 H 695.218 0.41118 -3.40829 0
M  V30 7146 N 697.663 1.43903 0.642637 0
M  V30 7147 C 698.61 1.49881 1.75512 0
M  V30 7148 C 699.58 0.347538 1.62423 0
M  V30 7149 O 700.765 0.556177 1.82514 0
M  V30 7150 C 697.905 1.43797 3.13714 0
M  V30 7151 C 697.018 2.6921 3.37861 0
M  V30 7152 C 696.153 2.5504 4.6597 0
M  V30 7153 C 695.192 3.75671 4.83257 0
M  V30 7154 N 694.329 3.60247 6.02633 0
M  V30 7155 H 699.169 2.44935 1.69737 0
M  V30 7156 H 696.706 1.21572 0.828165 0
M  V30 7157 H 698.664 1.38262 3.93624 0
M  V30 7158 H 697.294 0.523173 3.18532 0
M  V30 7159 H 696.346 2.8498 2.51973 0
M  V30 7160 H 697.658 3.58786 3.46517 0
M  V30 7161 H 696.812 2.47273 5.54023 0
M  V30 7162 H 695.551 1.63006 4.59653 0
M  V30 7163 H 694.556 3.83836 3.93637 0
M  V30 7164 H 695.781 4.68728 4.91397 0
M  V30 7165 H 693.727 2.70955 5.97427 0
M  V30 7166 H 693.644 4.43431 6.12295 0
M  V30 7167 H 694.912 3.56351 6.93278 0
M  V30 7168 N 699.141 -0.881989 1.30609 0
M  V30 7169 C 700.369 -1.66711 1.22536 0
M  V30 7170 C 700.784 -1.87614 -0.2113 0
M  V30 7171 O 700.141 -1.42576 -1.13923 0
M  V30 7172 C 700.192 -3.04182 1.95335 0
M  V30 7173 O 699.913 -2.8422 3.33393 0
M  V30 7174 C 701.414 -3.98617 1.93956 0
M  V30 7175 H 698.634 -0.520124 0.423925 0
M  V30 7176 H 701.178 -1.10174 1.72285 0
M  V30 7177 H 699.333 -3.57442 1.49378 0
M  V30 7178 H 699.747 -3.71452 3.70302 0
M  V30 7179 H 701.221 -4.92433 2.49426 0
M  V30 7180 H 701.698 -4.29473 0.919198 0
M  V30 7181 H 702.304 -3.51292 2.39738 0
M  V30 7182 N 700.619 -1.13374 -1.09472 0
M  V30 7183 C 702.035 -0.871846 -1.33682 0
M  V30 7184 C 702.235 0.492847 -1.9538 0
M  V30 7185 O 701.291 1.23946 -2.19985 0
M  V30 7186 C 702.604 -1.99608 -2.24893 0
M  V30 7187 C 704.152 -2.02812 -2.38404 0
M  V30 7188 C 704.627 -3.14497 -3.3295 0
M  V30 7189 N 706.118 -3.14004 -3.40523 0
M  V30 7190 C 706.853 -3.97061 -4.13679 0
M  V30 7191 N 706.349 -4.90131 -4.89636 0
M  V30 7192 N 708.142 -3.85162 -4.09398 0
M  V30 7193 H 700.293 -2.01288 -0.677995 0
M  V30 7194 H 702.556 -0.876492 -0.361201 0
M  V30 7195 H 702.262 -2.98 -1.86786 0
M  V30 7196 H 702.136 -1.90981 -3.25278 0
M  V30 7197 H 704.523 -1.05034 -2.75775 0
M  V30 7198 H 704.604 -2.15511 -1.37799 0
M  V30 7199 H 704.248 -4.12514 -2.96302 0
M  V30 7200 H 704.178 -2.99035 -4.33458 0
M  V30 7201 H 706.669 -2.46587 -2.86362 0
M  V30 7202 H 706.982 -5.49996 -5.42885 0
M  V30 7203 H 705.327 -4.94138 -4.88726 0
M  V30 7204 H 708.518 -3.11779 -3.49158 0
M  V30 7205 H 708.691 -4.5012 -4.6615 0
M  V30 7206 N 702.098 1.27442 -0.927168 0
M  V30 7207 C 703.045 2.26863 -0.424459 0
M  V30 7208 C 704.015 1.5813 0.508346 0
M  V30 7209 O 705.2 1.85946 0.42762 0
M  V30 7210 C 702.34 3.43639 0.31718 0
M  V30 7211 C 701.453 4.27087 -0.649675 0
M  V30 7212 C 700.588 5.31082 0.111753 0
M  V30 7213 C 699.627 6.062 -0.847843 0
M  V30 7214 N 698.764 7.01999 -0.119074 0
M  V30 7215 H 703.604 2.69239 -1.27728 0
M  V30 7216 H 701.141 1.32394 -0.641106 0
M  V30 7217 H 703.099 4.10155 0.763486 0
M  V30 7218 H 701.729 3.02217 1.13424 0
M  V30 7219 H 700.781 3.60491 -1.21451 0
M  V30 7220 H 702.093 4.79242 -1.38307 0
M  V30 7221 H 701.247 6.03544 0.618 0
M  V30 7222 H 699.986 4.7973 0.878114 0
M  V30 7223 H 698.991 5.32577 -1.36534 0
M  V30 7224 H 700.216 6.59642 -1.61398 0
M  V30 7225 H 698.162 6.52977 0.629051 0
M  V30 7226 H 698.079 7.5184 -0.792046 0
M  V30 7227 H 699.347 7.78638 0.366537 0
M  V30 7228 N 703.576 0.692616 1.41565 0
M  V30 7229 C 704.853 0.150496 1.9502 0
M  V30 7230 C 705.233 -1.33881 1.63215 0
M  V30 7231 O 704.581 -2.08378 0.937598 0
M  V30 7232 C 704.791 0.438636 3.46233 0
M  V30 7233 C 706.139 0.364777 4.2303 0
M  V30 7234 O 707.163 0.373383 3.54238 0
M  V30 7235 O 706.022 0.32234 5.45549 0
M  V30 7236 H 703.116 0.0132454 0.826894 0
M  V30 7237 H 705.662 0.768574 1.51298 0
M  V30 7238 H 704.434 1.46962 3.62654 0
M  V30 7239 H 704.057 -0.210562 3.97042 0
M  V30 7240 N 705.054 -1.51416 0.437162 0
M  V30 7241 C 706.017 -2.26312 -0.362729 0
M  V30 7242 C 707.017 -1.29748 -0.949847 0
M  V30 7243 O 708.207 -1.53462 -0.824325 0
M  V30 7244 C 705.339 -3.05475 -1.5132 0
M  V30 7245 H 706.532 -2.98459 0.29365 0
M  V30 7246 H 704.085 -1.55137 0.190327 0
M  V30 7247 H 704.82 -2.37744 -2.20563 0
M  V30 7248 H 704.605 -3.76401 -1.09838 0
M  V30 7249 H 706.095 -3.62209 -2.07833 0
M  V30 7250 N 706.532 -0.168513 -1.56696 0
M  V30 7251 C 707.465 0.801477 -2.13662 0
M  V30 7252 C 708.443 1.22786 -1.06594 0
M  V30 7253 O 709.627 1.32014 -1.34554 0
M  V30 7254 C 706.754 2.07896 -2.6739 0
M  V30 7255 C 705.8 1.79681 -3.86803 0
M  V30 7256 S 706.633 0.968556 -5.26668 0
M  V30 7257 C 707.789 2.25676 -5.83799 0
M  V30 7258 H 708.022 0.317121 -2.95604 0
M  V30 7259 H 705.555 0.0461132 -1.54331 0
M  V30 7260 H 707.513 2.81272 -2.98992 0
M  V30 7261 H 706.174 2.53445 -1.85539 0
M  V30 7262 H 705.367 2.74461 -4.22714 0
M  V30 7263 H 704.969 1.14402 -3.56073 0
M  V30 7264 H 707.261 3.2116 -5.96542 0
M  V30 7265 H 708.204 1.94238 -6.80939 0
M  V30 7266 H 708.612 2.37308 -5.12197 0
M  V30 7267 N 708.01 1.57248 0.105221 0
M  V30 7268 C 708.94 2.04374 1.12931 0
M  V30 7269 C 709.921 0.93074 1.42377 0
M  V30 7270 O 711.106 1.20136 1.52581 0
M  V30 7271 C 708.236 2.45967 2.45189 0
M  V30 7272 C 707.19 3.60838 2.30174 0
M  V30 7273 C 706.516 3.88374 3.67518 0
M  V30 7274 C 707.816 4.92084 1.75073 0
M  V30 7275 H 709.51 2.9018 0.737287 0
M  V30 7276 H 707.056 1.39601 0.353211 0
M  V30 7277 H 709.009 2.77542 3.17094 0
M  V30 7278 H 707.733 1.57148 2.86308 0
M  V30 7279 H 706.392 3.29493 1.60716 0
M  V30 7280 H 706.04 2.96739 4.06147 0
M  V30 7281 H 705.74 4.65703 3.58321 0
M  V30 7282 H 707.264 4.22415 4.40906 0
M  V30 7283 H 708.678 5.22106 2.36809 0
M  V30 7284 H 707.075 5.73507 1.76662 0
M  V30 7285 H 708.145 4.79684 0.709347 0
M  V30 7286 N 709.488 -0.375779 1.53054 0
M  V30 7287 C 710.736 -1.11727 1.68409 0
M  V30 7288 C 711.057 -1.90127 0.43323 0
M  V30 7289 O 710.327 -1.87945 -0.552595 0
M  V30 7290 H 708.907 -0.415451 0.620813 0
M  V30 7291 H 711.569 -0.424869 1.90213 0
M  V30 7292 H 710.665 -1.8128 2.54055 0
M  V30 7293 N 710.966 -1.44241 -0.634997 0
M  V30 7294 C 712.194 -1.50296 -1.42193 0
M  V30 7295 C 712.609 -0.12658 -1.88375 0
M  V30 7296 O 711.966 0.86678 -1.60603 0
M  V30 7297 C 712.017 -2.46437 -2.64482 0
M  V30 7298 O 711.738 -3.78724 -2.20226 0
M  V30 7299 C 713.239 -2.61918 -3.57651 0
M  V30 7300 H 710.459 -0.509865 -0.43621 0
M  V30 7301 H 713.003 -1.89167 -0.776921 0
M  V30 7302 H 711.158 -2.10712 -3.25083 0
M  V30 7303 H 711.572 -4.30595 -2.9948 0
M  V30 7304 H 713.046 -3.33225 -4.40074 0
M  V30 7305 H 713.523 -1.67017 -4.06204 0
M  V30 7306 H 714.129 -2.98528 -3.02921 0
M  V30 7307 N 712.444 0.87505 -1.31075 0
M  V30 7308 C 713.394 1.96933 -1.14898 0
M  V30 7309 C 714.378 1.60783 -0.0613703 0
M  V30 7310 O 715.57 1.74678 -0.285751 0
M  V30 7311 C 712.699 3.3253 -0.853166 0
M  V30 7312 C 711.785 3.74963 -1.98151 0
M  V30 7313 N 712.176 3.89403 -3.22799 0
M  V30 7314 C 710.474 4.04436 -1.8801 0
M  V30 7315 C 711.175 4.25563 -3.96574 0
M  V30 7316 N 710.151 4.3597 -3.24701 0
M  V30 7317 H 713.953 2.06201 -2.09424 0
M  V30 7318 H 711.467 1.06551 -1.22558 0
M  V30 7319 H 713.464 4.10666 -0.718266 0
M  V30 7320 H 712.124 3.24592 0.0839218 0
M  V30 7321 H 713.135 3.74266 -3.57974 0
M  V30 7322 H 709.812 4.04915 -1.01733 0
M  V30 7323 H 711.202 4.44375 -5.03965 0
M  V30 7324 N 713.922 1.13953 1.08869 0
M  V30 7325 C 715.171 0.899431 1.80536 0
M  V30 7326 C 715.484 -0.575781 1.86933 0
M  V30 7327 O 716.69 -0.932988 2.54966 0
M  V30 7328 C 715.146 1.55963 3.24351 0
M  V30 7329 C 714.754 3.07077 3.26202 0
M  V30 7330 C 716.498 1.40046 4.00733 0
M  V30 7331 C 714.405 3.65955 4.64576 0
M  V30 7332 H 713.335 0.332849 0.676556 0
M  V30 7333 H 715.986 1.3679 1.22314 0
M  V30 7334 H 714.368 1.01883 3.82669 0
M  V30 7335 H 715.542 3.67785 2.77617 0
M  V30 7336 H 713.857 3.22576 2.63312 0
M  V30 7337 H 716.454 1.81441 5.02974 0
M  V30 7338 H 716.797 0.345993 4.1486 0
M  V30 7339 H 717.33 1.91137 3.48872 0
M  V30 7340 H 714.069 4.71234 4.55652 0
M  V30 7341 H 713.589 3.10027 5.13462 0
M  V30 7342 H 715.268 3.65968 5.33551 0
M  V30 7343 N 715.4 -1.26948 0.933913 0
M  V30 7344 C 716.649 -1.93378 0.573409 0
M  V30 7345 C 716.962 -1.74148 -0.890614 0
M  V30 7346 O 718.168 -2.34971 -1.36017 0
M  V30 7347 C 716.624 -3.46449 0.974747 0
M  V30 7348 C 716.232 -3.74425 2.45988 0
M  V30 7349 C 717.976 -4.18924 0.685791 0
M  V30 7350 C 715.883 -5.209 2.8003 0
M  V30 7351 H 714.813 -0.723952 0.210736 0
M  V30 7352 H 717.464 -1.44143 1.13557 0
M  V30 7353 H 715.846 -3.94528 0.341181 0
M  V30 7354 H 717.02 -3.37079 3.14188 0
M  V30 7355 H 715.335 -3.15167 2.72138 0
M  V30 7356 H 717.932 -5.26786 0.916546 0
M  V30 7357 H 718.275 -4.14587 -0.377217 0
M  V30 7358 H 718.808 -3.76687 1.27874 0
M  V30 7359 H 715.547 -5.30332 3.85264 0
M  V30 7360 H 715.067 -5.59369 2.16485 0
M  V30 7361 H 716.746 -5.88837 2.68105 0
M  V30 7362 N 716.879 -0.700114 -1.41195 0
M  V30 7363 C 718.125 -0.242122 -2.01954 0
M  V30 7364 C 718.48 1.14697 -1.54475 0
M  V30 7365 O 717.773 1.76392 -0.748095 0
M  V30 7366 C 717.967 -0.243986 -3.56566 0
M  V30 7367 C 717.796 -1.63172 -4.19053 0
M  V30 7368 C 716.566 -2.23566 -4.53152 0
M  V30 7369 C 718.764 -2.57916 -4.44954 0
M  V30 7370 N 716.746 -3.54856 -5.00949 0
M  V30 7371 C 718.117 -3.73892 -4.94576 0
M  V30 7372 C 720.172 -2.56125 -4.26971 0
M  V30 7373 C 718.875 -4.88363 -5.28104 0
M  V30 7374 C 720.901 -3.69712 -4.61592 0
M  V30 7375 C 720.263 -4.84418 -5.11389 0
M  V30 7376 H 716.362 -0.134088 -0.770418 0
M  V30 7377 H 718.946 -0.918576 -1.71669 0
M  V30 7378 H 717.117 0.401971 -3.86314 0
M  V30 7379 H 718.849 0.229261 -4.0405 0
M  V30 7380 H 715.604 -1.75809 -4.39759 0
M  V30 7381 H 716.028 -4.22167 -5.29249 0
M  V30 7382 H 720.67 -1.68656 -3.87705 0
M  V30 7383 H 718.388 -5.76488 -5.66292 0
M  V30 7384 H 721.974 -3.69583 -4.49332 0
M  V30 7385 H 720.854 -5.70855 -5.37675 0
M  V30 7386 N 718.357 1.51182 -0.445186 0
M  V30 7387 C 719.634 1.9478 0.178965 0
M  V30 7388 C 720.014 1.38428 1.59376 0
M  V30 7389 O 719.362 0.574552 2.21159 0
M  V30 7390 C 719.572 3.48683 0.148711 0
M  V30 7391 C 720.92 4.23152 0.35042 0
M  V30 7392 O 721.944 3.55479 0.226474 0
M  V30 7393 O 720.803 5.4322 0.597893 0
M  V30 7394 H 717.897 0.817387 0.12573 0
M  V30 7395 H 720.443 1.62051 -0.503729 0
M  V30 7396 H 719.215 3.82176 -0.84009 0
M  V30 7397 H 718.838 3.87875 0.873979 0
M  V30 7398 N 719.835 0.176821 1.56605 0
M  V30 7399 C 721.084 -0.466833 1.96223 0
M  V30 7400 C 721.397 -1.64015 1.06576 0
M  V30 7401 O 722.603 -2.3504 1.35898 0
M  V30 7402 C 721.059 -0.881921 3.48927 0
M  V30 7403 C 720.667 0.266102 4.47209 0
M  V30 7404 C 722.411 -1.49368 3.97353 0
M  V30 7405 C 720.318 -0.168923 5.91159 0
M  V30 7406 H 719.248 -0.178178 0.732645 0
M  V30 7407 H 721.899 0.265929 1.81563 0
M  V30 7408 H 720.281 -1.67082 3.59026 0
M  V30 7409 H 721.455 1.04349 4.4883 0
M  V30 7410 H 719.77 0.788178 4.08872 0
M  V30 7411 H 722.367 -1.8313 5.02362 0
M  V30 7412 H 722.71 -2.3936 3.40606 0
M  V30 7413 H 723.243 -0.769114 3.90294 0
M  V30 7414 H 719.982 0.696351 6.51791 0
M  V30 7415 H 719.502 -0.911552 5.92833 0
M  V30 7416 H 721.181 -0.610938 6.44109 0
M  V30 7417 N 721.313 -1.57302 -0.09688 0
M  V30 7418 C 722.561 -1.8563 -0.799117 0
M  V30 7419 C 722.882 -0.765263 -1.79356 0
M  V30 7420 O 722.152 0.208657 -1.94786 0
M  V30 7421 H 720.732 -0.684937 -0.298111 0
M  V30 7422 H 723.394 -1.9474 -0.0789341 0
M  V30 7423 H 722.49 -2.82305 -1.3308 0
M  V30 7424 N 722.791 0.367657 -1.53252 0
M  V30 7425 C 723.721 1.45632 -1.8252 0
M  V30 7426 C 724.702 1.55979 -0.678568 0
M  V30 7427 O 725.887 1.70581 -0.928217 0
M  V30 7428 C 723.017 2.82994 -2.01325 0
M  V30 7429 C 721.971 2.87473 -3.17086 0
M  V30 7430 C 721.297 4.2749 -3.21179 0
M  V30 7431 C 722.597 2.55182 -4.55719 0
M  V30 7432 H 724.291 1.21387 -2.73689 0
M  V30 7433 H 721.837 0.58251 -1.31692 0
M  V30 7434 H 723.79 3.59179 -2.20383 0
M  V30 7435 H 722.514 3.08622 -1.06864 0
M  V30 7436 H 721.173 2.13739 -2.97844 0
M  V30 7437 H 720.821 4.5019 -2.24361 0
M  V30 7438 H 720.521 4.31403 -3.98955 0
M  V30 7439 H 722.045 5.0555 -3.42419 0
M  V30 7440 H 723.459 3.21081 -4.74953 0
M  V30 7441 H 721.856 2.70414 -5.3572 0
M  V30 7442 H 722.926 1.5044 -4.60973 0
M  V30 7443 N 724.269 1.44576 0.627338 0
M  V30 7444 C 725.201 1.47724 1.75243 0
M  V30 7445 C 726.214 0.370193 1.58535 0
M  V30 7446 O 727.403 0.636151 1.66779 0
M  V30 7447 C 724.503 1.2991 3.13012 0
M  V30 7448 C 723.676 2.5393 3.56143 0
M  V30 7449 C 722.735 2.30961 4.72804 0
M  V30 7450 O 721.761 3.04469 4.80923 0
M  V30 7451 N 722.963 1.34261 5.6476 0
M  V30 7452 H 725.728 2.44718 1.73012 0
M  V30 7453 H 723.289 1.40064 0.812022 0
M  V30 7454 H 725.281 1.12385 3.88782 0
M  V30 7455 H 723.851 0.412668 3.09864 0
M  V30 7456 H 723.071 2.86707 2.70542 0
M  V30 7457 H 724.359 3.36411 3.81713 0
M  V30 7458 H 723.757 0.735573 5.60897 0
M  V30 7459 H 722.314 1.22713 6.40144 0
M  V30 7460 N 725.747 -0.868086 1.31537 0
M  V30 7461 C 726.972 -1.65926 1.24432 0
M  V30 7462 C 727.397 -1.87169 -0.186936 0
M  V30 7463 O 726.755 -1.4148 -1.13371 0
M  V30 7464 C 726.803 -3.00347 1.9956 0
M  V30 7465 O 725.907 -3.90221 1.33422 0
M  V30 7466 H 725.248 -0.506375 0.429512 0
M  V30 7467 H 727.778 -1.0822 1.73637 0
M  V30 7468 H 727.788 -3.50269 2.09226 0
M  V30 7469 H 726.463 -2.84205 3.03645 0
M  V30 7470 H 725.04 -3.48672 1.32219 0
M  V30 7471 N 727.225 -1.14528 -1.08264 0
M  V30 7472 C 728.45 -0.938381 -1.84957 0
M  V30 7473 C 728.875 0.508044 -1.81109 0
M  V30 7474 O 728.233 1.36146 -1.19724 0
M  V30 7475 C 728.281 -1.44568 -3.30352 0
M  V30 7476 O 727.385 -0.638745 -4.07423 0
M  V30 7477 H 726.726 -0.335394 -0.573068 0
M  V30 7478 H 729.256 -1.52287 -1.36637 0
M  V30 7479 H 729.266 -1.45449 -3.81194 0
M  V30 7480 H 727.941 -2.49876 -3.32468 0
M  V30 7481 H 726.518 -0.698801 -3.66294 0
M  V30 7482 N 728.703 1.26451 -0.940633 0
M  V30 7483 C 729.943 1.95537 -0.595381 0
M  V30 7484 C 730.307 1.72175 0.849683 0
M  V30 7485 O 731.508 2.3506 1.30384 0
M  V30 7486 C 729.779 3.45151 -0.927669 0
M  V30 7487 S 731.338 4.33295 -0.69288 0
M  V30 7488 H 728.156 0.676331 -0.219311 0
M  V30 7489 H 730.758 1.53411 -1.21183 0
M  V30 7490 H 729.462 3.59654 -1.9768 0
M  V30 7491 H 728.993 3.92247 -0.300921 0
M  V30 7492 H 731.008 4.94217 0.443175 0
M  V30 7493 N 730.181 0.707592 1.40822 0
M  V30 7494 C 731.427 0.244031 2.01326 0
M  V30 7495 C 731.76 -1.15722 1.55955 0
M  V30 7496 O 731.035 -1.78347 0.776044 0
M  V30 7497 C 731.318 0.315128 3.58718 0
M  V30 7498 C 731.171 1.75419 4.14184 0
M  V30 7499 C 732.49 -0.318251 4.38948 0
M  V30 7500 H 729.609 0.0901471 0.731466 0
M  V30 7501 H 732.251 0.898584 1.67408 0
M  V30 7502 H 730.401 -0.242176 3.87744 0
M  V30 7503 H 732.073 2.36626 3.95987 0
M  V30 7504 H 730.316 2.28449 3.68773 0
M  V30 7505 H 730.987 1.75538 5.23345 0
M  V30 7506 H 733.463 0.156514 4.15806 0
M  V30 7507 H 732.339 -0.238019 5.48384 0
M  V30 7508 H 732.6 -1.40067 4.19325 0
M  V30 7509 N 731.66 -1.50943 0.453197 0
M  V30 7510 C 732.59 -2.31005 -0.34044 0
M  V30 7511 C 733.571 -1.37112 -1.00669 0
M  V30 7512 O 734.756 -1.66033 -1.0073 0
M  V30 7513 C 731.886 -3.16358 -1.433 0
M  V30 7514 C 730.84 -4.18658 -0.889363 0
M  V30 7515 C 730.166 -4.92633 -2.07887 0
M  V30 7516 C 731.466 -5.22227 0.0871142 0
M  V30 7517 H 733.16 -2.97601 0.327723 0
M  V30 7518 H 730.706 -1.43119 0.159054 0
M  V30 7519 H 732.659 -3.71155 -1.99555 0
M  V30 7520 H 731.383 -2.47613 -2.12968 0
M  V30 7521 H 730.042 -3.64936 -0.348915 0
M  V30 7522 H 729.69 -4.20376 -2.76211 0
M  V30 7523 H 729.39 -5.61819 -1.72143 0
M  V30 7524 H 730.914 -5.50258 -2.64666 0
M  V30 7525 H 732.328 -5.72001 -0.385656 0
M  V30 7526 H 730.725 -5.99032 0.357926 0
M  V30 7527 H 731.795 -4.74077 1.01879 0
M  V30 7528 N 733.138 -0.185124 -1.56509 0
M  V30 7529 C 734.378 0.458547 -1.9919 0
M  V30 7530 C 734.742 1.59484 -1.06906 0
M  V30 7531 O 735.943 2.30201 -1.38783 0
M  V30 7532 C 734.214 0.916263 -3.45455 0
M  V30 7533 S 735.773 1.55918 -4.10165 0
M  V30 7534 H 732.591 0.147008 -0.695636 0
M  V30 7535 H 735.193 -0.285841 -1.93399 0
M  V30 7536 H 733.897 0.0790543 -4.10324 0
M  V30 7537 H 733.428 1.69436 -3.55042 0
M  V30 7538 H 735.443 2.84771 -4.0635 0
M  V30 7539 N 734.616 1.57351 0.0885366 0
M  V30 7540 C 735.862 1.86696 0.791996 0
M  V30 7541 C 736.195 0.775148 1.78059 0
M  V30 7542 O 735.47 -0.216247 1.93294 0
M  V30 7543 C 735.753 3.26684 1.51491 0
M  V30 7544 C 735.606 4.465 0.543858 0
M  V30 7545 C 736.925 3.64664 2.46391 0
M  V30 7546 H 734.044 0.679049 0.286463 0
M  V30 7547 H 736.686 1.89919 0.0554866 0
M  V30 7548 H 734.836 3.24067 2.14273 0
M  V30 7549 H 736.508 4.61235 -0.0774597 0
M  V30 7550 H 734.751 4.33567 -0.142228 0
M  V30 7551 H 735.422 5.41192 1.08696 0
M  V30 7552 H 737.898 3.68267 1.93698 0
M  V30 7553 H 736.774 4.63534 2.93986 0
M  V30 7554 H 737.035 2.93698 3.30445 0
M  V30 7555 N 736.094 -0.359525 1.53444 0
M  V30 7556 C 737.505 -0.936009 1.61542 0
M  V30 7557 C 737.856 -1.90069 0.486633 0
M  V30 7558 O 736.981 -2.12929 -0.386047 0
M  V30 7559 C 737.576 -1.70441 2.92806 0
M  V30 7560 C 736.135 -2.23015 3.03218 0
M  V30 7561 C 735.282 -1.04438 2.56881 0
M  V30 7562 H 738.233 -0.138134 1.58098 0
M  V30 7563 H 738.254 -2.56609 2.80948 0
M  V30 7564 H 737.766 -1.00205 3.74941 0
M  V30 7565 H 735.867 -2.96475 2.25684 0
M  V30 7566 H 735.98 -2.50481 4.08407 0
M  V30 7567 H 734.344 -1.41314 2.11902 0
M  V30 7568 H 735.127 -0.356905 3.4144 0
M  V30 7569 N 737.572 -1.44907 -0.619662 0
M  V30 7570 C 738.818 -1.49504 -1.37914 0
M  V30 7571 C 739.173 -0.130158 -1.91959 0
M  V30 7572 O 738.466 0.856263 -1.71402 0
M  V30 7573 C 738.66 -2.50002 -2.55409 0
M  V30 7574 C 738.489 -3.96128 -2.12867 0
M  V30 7575 C 737.259 -4.64204 -1.99606 0
M  V30 7576 C 739.457 -4.85014 -1.71074 0
M  V30 7577 N 737.439 -5.95104 -1.50748 0
M  V30 7578 C 738.81 -6.05447 -1.33544 0
M  V30 7579 C 740.865 -4.71979 -1.58557 0
M  V30 7580 C 739.568 -7.1429 -0.847484 0
M  V30 7581 C 741.594 -5.80858 -1.11165 0
M  V30 7582 C 740.956 -7.00439 -0.745932 0
M  V30 7583 H 737.055 -0.60207 -0.499034 0
M  V30 7584 H 739.639 -1.81305 -0.70968 0
M  V30 7585 H 737.81 -2.20172 -3.19967 0
M  V30 7586 H 739.542 -2.44823 -3.22248 0
M  V30 7587 H 736.297 -4.19182 -2.20417 0
M  V30 7588 H 736.721 -6.64676 -1.28585 0
M  V30 7589 H 741.363 -3.79953 -1.85461 0
M  V30 7590 H 739.081 -8.06116 -0.565974 0
M  V30 7591 H 742.667 -5.72803 -1.01923 0
M  V30 7592 H 741.547 -7.83255 -0.384848 0
M  V30 7593 N 739.05 0.861098 -1.31996 0
M  V30 7594 C 740.299 1.60965 -1.21545 0
M  V30 7595 C 740.612 1.94325 0.222972 0
M  V30 7596 O 741.818 2.67757 0.449272 0
M  V30 7597 C 740.274 2.90223 -2.12834 0
M  V30 7598 C 739.882 2.64313 -3.61722 0
M  V30 7599 C 741.626 3.68229 -2.11205 0
M  V30 7600 C 739.533 3.89532 -4.44993 0
M  V30 7601 H 738.463 0.603988 -0.451348 0
M  V30 7602 H 741.114 0.951358 -1.56912 0
M  V30 7603 H 739.496 3.57475 -1.70375 0
M  V30 7604 H 740.67 2.05413 -4.12483 0
M  V30 7605 H 738.985 1.99647 -3.65418 0
M  V30 7606 H 741.582 4.61138 -2.70658 0
M  V30 7607 H 741.925 4.01466 -1.1014 0
M  V30 7608 H 742.458 3.07873 -2.51911 0
M  V30 7609 H 739.197 3.61441 -5.46846 0
M  V30 7610 H 738.717 4.47851 -3.98985 0
M  V30 7611 H 740.396 4.57334 -4.57663 0
M  V30 7612 N 740.528 1.15101 1.07655 0
M  V30 7613 C 741.753 0.948177 1.84457 0
M  V30 7614 C 742.178 -0.498432 1.81376 0
M  V30 7615 O 741.536 -1.35509 1.20445 0
M  V30 7616 C 741.584 1.46318 3.29581 0
M  V30 7617 O 740.688 0.660342 4.07079 0
M  V30 7618 H 740.029 0.338428 0.571281 0
M  V30 7619 H 742.559 1.5301 1.35828 0
M  V30 7620 H 742.569 1.47468 3.80417 0
M  V30 7621 H 741.244 2.51635 3.31138 0
M  V30 7622 H 739.821 0.718216 3.65918 0
M  V30 7623 N 742.006 -1.2595 0.947325 0
M  V30 7624 C 742.938 -2.25336 0.41906 0
M  V30 7625 C 743.951 -1.56135 -0.461051 0
M  V30 7626 O 745.14 -1.76438 -0.270505 0
M  V30 7627 C 742.24 -3.36334 -0.416233 0
M  V30 7628 C 741.413 -4.35088 0.449162 0
M  V30 7629 C 740.472 -5.25185 -0.326716 0
M  V30 7630 O 739.498 -5.68548 0.272374 0
M  V30 7631 N 740.7 -5.57388 -1.6217 0
M  V30 7632 H 743.465 -2.71298 1.27348 0
M  V30 7633 H 741.026 -1.39781 0.81688 0
M  V30 7634 H 743.018 -3.93564 -0.942826 0
M  V30 7635 H 741.588 -2.89819 -1.17148 0
M  V30 7636 H 740.808 -3.76841 1.15692 0
M  V30 7637 H 742.096 -4.98056 1.04008 0
M  V30 7638 H 741.494 -5.2405 -2.13046 0
M  V30 7639 H 740.051 -6.17234 -2.0944 0
M  V30 7640 N 743.484 -0.715051 -1.40445 0
M  V30 7641 C 744.712 -0.263959 -2.05209 0
M  V30 7642 C 745.127 1.09403 -1.53871 0
M  V30 7643 O 744.484 1.68746 -0.695064 0
M  V30 7644 C 744.535 -0.234545 -3.60738 0
M  V30 7645 O 744.256 -1.53891 -4.10182 0
M  V30 7646 C 745.757 0.235164 -4.42676 0
M  V30 7647 H 742.977 -0.11876 -0.660407 0
M  V30 7648 H 745.521 -0.973107 -1.79864 0
M  V30 7649 H 743.676 0.425563 -3.85055 0
M  V30 7650 H 744.09 -1.43903 -5.04373 0
M  V30 7651 H 745.564 0.204598 -5.51621 0
M  V30 7652 H 746.041 1.27724 -4.20218 0
M  V30 7653 H 746.647 -0.394649 -4.23465 0
M  V30 7654 N 744.962 1.50701 -0.461195 0
M  V30 7655 C 745.912 2.25195 0.35653 0
M  V30 7656 C 746.896 1.2838 0.96992 0
M  V30 7657 O 748.088 1.53338 0.884108 0
M  V30 7658 C 745.217 3.11471 1.44364 0
M  V30 7659 C 744.303 4.15729 0.83847 0
M  V30 7660 N 744.694 5.05788 -0.0353198 0
M  V30 7661 C 742.992 4.32133 1.1035 0
M  V30 7662 C 743.693 5.80472 -0.37774 0
M  V30 7663 N 742.669 5.43049 0.24463 0
M  V30 7664 H 746.471 2.92188 -0.316746 0
M  V30 7665 H 743.985 1.60059 -0.274725 0
M  V30 7666 H 745.982 3.63436 2.04255 0
M  V30 7667 H 744.642 2.46025 2.11901 0
M  V30 7668 H 745.653 5.16326 -0.403465 0
M  V30 7669 H 742.33 3.77908 1.77458 0
M  V30 7670 H 743.72 6.62996 -1.09024 0
M  V30 7671 N 746.441 0.193421 1.56409 0
M  V30 7672 C 747.671 -0.450783 2.01622 0
M  V30 7673 C 748.079 -1.5585 1.07273 0
M  V30 7674 O 747.422 -1.83569 0.0694875 0
M  V30 7675 C 747.484 -1.06913 3.43235 0
M  V30 7676 C 747.148 -0.100352 4.5689 0
M  V30 7677 C 748.145 0.689633 5.15306 0
M  V30 7678 C 745.83 0.0102436 5.02299 0
M  V30 7679 C 747.824 1.5772 6.17579 0
M  V30 7680 C 745.511 0.901368 6.04416 0
M  V30 7681 C 746.509 1.68341 6.61929 0
M  V30 7682 O 746.197 2.5596 7.62063 0
M  V30 7683 H 745.929 -0.117671 0.66568 0
M  V30 7684 H 748.483 0.2989 2.03214 0
M  V30 7685 H 746.713 -1.86736 3.38624 0
M  V30 7686 H 748.402 -1.61781 3.72266 0
M  V30 7687 H 749.168 0.614485 4.81092 0
M  V30 7688 H 745.047 -0.58829 4.57231 0
M  V30 7689 H 748.591 2.18805 6.62397 0
M  V30 7690 H 744.488 0.977637 6.38054 0
M  V30 7691 H 745.256 2.49721 7.79475 0
M  V30 7692 N 747.919 -1.57396 -0.0801906 0
M  V30 7693 C 749.335 -1.53564 -0.434778 0
M  V30 7694 C 749.535 -0.912372 -1.79661 0
M  V30 7695 O 748.591 -0.511268 -2.4727 0
M  V30 7696 C 749.904 -2.98244 -0.383561 0
M  V30 7697 C 751.452 -3.09536 -0.46435 0
M  V30 7698 C 751.927 -4.55851 -0.443128 0
M  V30 7699 N 753.418 -4.60456 -0.503448 0
M  V30 7700 C 754.153 -5.71135 -0.509106 0
M  V30 7701 N 753.649 -6.91203 -0.47008 0
M  V30 7702 N 755.442 -5.59353 -0.555035 0
M  V30 7703 H 747.593 -1.96281 0.811635 0
M  V30 7704 H 749.856 -0.898041 0.303689 0
M  V30 7705 H 749.562 -3.47369 0.550236 0
M  V30 7706 H 749.436 -3.57705 -1.19694 0
M  V30 7707 H 751.823 -2.6039 -1.38857 0
M  V30 7708 H 751.904 -2.53 0.377445 0
M  V30 7709 H 751.548 -5.05653 0.477207 0
M  V30 7710 H 751.478 -5.10242 -1.30234 0
M  V30 7711 H 753.969 -3.74048 -0.538199 0
M  V30 7712 H 754.282 -7.7132 -0.478091 0
M  V30 7713 H 752.627 -6.93625 -0.436897 0
M  V30 7714 H 755.818 -4.64453 -0.583158 0
M  V30 7715 H 755.991 -6.4561 -0.555976 0
M  V30 7716 N 749.397 0.351382 -1.53633 0
M  V30 7717 C 750.327 1.43688 -1.84055 0
M  V30 7718 C 751.308 1.55251 -0.695073 0
M  V30 7719 O 752.493 1.69587 -0.946257 0
M  V30 7720 C 749.623 2.80843 -2.04315 0
M  V30 7721 C 748.577 2.84094 -3.20117 0
M  V30 7722 C 747.903 4.2406 -3.25696 0
M  V30 7723 C 749.203 2.50334 -4.58399 0
M  V30 7724 H 750.897 1.18478 -2.74961 0
M  V30 7725 H 748.443 0.568509 -1.32303 0
M  V30 7726 H 750.396 3.56821 -2.2418 0
M  V30 7727 H 749.12 3.07471 -1.10132 0
M  V30 7728 H 747.779 2.10568 -3.00094 0
M  V30 7729 H 747.427 4.47785 -2.29123 0
M  V30 7730 H 747.127 4.27147 -4.03509 0
M  V30 7731 H 748.651 5.0189 -3.47762 0
M  V30 7732 H 750.065 3.16025 -4.78332 0
M  V30 7733 H 748.462 2.64717 -5.38558 0
M  V30 7734 H 749.532 1.45542 -4.62543 0
M  V30 7735 N 750.875 1.45233 0.611969 0
M  V30 7736 C 752.121 1.49242 1.37312 0
M  V30 7737 C 752.454 0.131963 1.93751 0
M  V30 7738 O 751.729 -0.852999 1.74798 0
M  V30 7739 C 752.012 2.56811 2.52428 0
M  V30 7740 C 751.865 4.02284 2.01215 0
M  V30 7741 C 753.184 2.60705 3.54572 0
M  V30 7742 H 750.303 0.54336 0.497925 0
M  V30 7743 H 752.945 1.77019 0.690242 0
M  V30 7744 H 751.095 2.33256 3.10683 0
M  V30 7745 H 752.767 4.37035 1.47643 0
M  V30 7746 H 751.01 4.1315 1.32248 0
M  V30 7747 H 751.681 4.7323 2.84178 0
M  V30 7748 H 754.157 2.81799 3.06151 0
M  V30 7749 H 753.033 3.37841 4.32614 0
M  V30 7750 H 753.294 1.65627 4.09903 0
M  V30 7751 N 752.353 -0.854086 1.3245 0
M  V30 7752 C 753.285 -1.96932 1.17262 0
M  V30 7753 C 754.298 -1.62445 0.107469 0
M  V30 7754 O 755.487 -1.74904 0.356481 0
M  V30 7755 C 752.587 -3.29971 0.772817 0
M  V30 7756 C 751.76 -3.92695 1.92638 0
M  V30 7757 C 750.819 -5.04068 1.51003 0
M  V30 7758 O 749.845 -5.24032 2.22213 0
M  V30 7759 N 751.047 -5.79076 0.406371 0
M  V30 7760 H 753.812 -2.10503 2.13327 0
M  V30 7761 H 751.373 -1.02897 1.24995 0
M  V30 7762 H 753.365 -4.01883 0.476684 0
M  V30 7763 H 751.935 -3.1245 -0.0967 0
M  V30 7764 H 751.155 -3.13563 2.38897 0
M  V30 7765 H 752.443 -4.31337 2.69863 0
M  V30 7766 H 751.841 -5.65393 -0.186302 0
M  V30 7767 H 750.398 -6.51579 0.169846 0
M  V30 7768 N 753.831 -1.1567 -1.07043 0
M  V30 7769 C 754.763 -0.814095 -2.14255 0
M  V30 7770 C 755.776 0.175293 -1.61854 0
M  V30 7771 O 756.965 -0.0483984 -1.78434 0
M  V30 7772 C 754.065 -0.190082 -3.38367 0
M  V30 7773 C 753.238 -1.21768 -4.20109 0
M  V30 7774 C 752.297 -0.614863 -5.22595 0
M  V30 7775 O 751.323 -1.28167 -5.54583 0
M  V30 7776 N 752.525 0.601955 -5.77371 0
M  V30 7777 H 755.29 -1.73677 -2.44247 0
M  V30 7778 H 752.851 -1.05301 -1.22977 0
M  V30 7779 H 754.843 0.22604 -4.04068 0
M  V30 7780 H 753.413 0.635992 -3.06062 0
M  V30 7781 H 752.633 -1.81025 -3.50177 0
M  V30 7782 H 753.921 -1.9114 -4.71533 0
M  V30 7783 H 753.319 1.162 -5.53637 0
M  V30 7784 H 751.876 0.96039 -6.44686 0
M  V30 7785 N 755.309 1.25446 -0.953992 0
M  V30 7786 C 756.586 1.884 -0.525823 0
M  V30 7787 C 756.966 1.86079 0.996891 0
M  V30 7788 O 756.314 1.32389 1.8624 0
M  V30 7789 C 756.524 3.31154 -1.10172 0
M  V30 7790 C 757.872 4.07926 -1.17819 0
M  V30 7791 O 758.896 3.40273 -1.05323 0
M  V30 7792 O 757.755 5.28942 -1.37415 0
M  V30 7793 H 754.849 0.808629 -0.173345 0
M  V30 7794 H 757.395 1.33522 -1.04738 0
M  V30 7795 H 756.167 3.27271 -2.14499 0
M  V30 7796 H 755.79 3.93588 -0.56338 0
M  V30 7797 N 756.787 0.722489 1.40064 0
M  V30 7798 C 757.697 0.0755984 2.34478 0
M  V30 7799 C 758.713 -0.736046 1.57665 0
M  V30 7800 O 759.889 -0.667407 1.9002 0
M  V30 7801 C 756.954 -0.830075 3.36616 0
M  V30 7802 C 756.015 -0.00759884 4.29299 0
M  V30 7803 C 755.248 -0.870139 5.26559 0
M  V30 7804 O 755.471 -2.10921 5.2997 0
M  V30 7805 O 754.405 -0.305454 6.01124 0
M  V30 7806 H 758.231 0.854545 2.9143 0
M  V30 7807 H 755.816 0.483032 1.41376 0
M  V30 7808 H 757.698 -1.34864 3.99236 0
M  V30 7809 H 756.373 -1.58805 2.82069 0
M  V30 7810 H 755.28 0.556199 3.69942 0
M  V30 7811 H 756.613 0.712312 4.87018 0
M  V30 7812 N 758.265 -1.50454 0.469181 0
M  V30 7813 C 759.495 -2.06429 -0.0840913 0
M  V30 7814 C 759.903 -1.3334 -1.34227 0
M  V30 7815 O 759.246 -0.395656 -1.79389 0
M  V30 7816 C 759.308 -3.56797 -0.440049 0
M  V30 7817 C 758.972 -4.51359 0.715838 0
M  V30 7818 C 759.969 -4.94754 1.59732 0
M  V30 7819 C 757.654 -4.94069 0.905621 0
M  V30 7820 C 759.648 -5.79564 2.653 0
M  V30 7821 C 757.335 -5.78662 1.96453 0
M  V30 7822 C 758.333 -6.21311 2.83658 0
M  V30 7823 O 758.021 -7.04218 3.87727 0
M  V30 7824 H 757.753 -0.675994 0.00289751 0
M  V30 7825 H 760.307 -1.94629 0.656417 0
M  V30 7826 H 758.537 -3.66492 -1.23372 0
M  V30 7827 H 760.226 -3.95145 -0.928181 0
M  V30 7828 H 760.992 -4.62428 1.46237 0
M  V30 7829 H 756.871 -4.60394 0.236326 0
M  V30 7830 H 760.415 -6.12774 3.33398 0
M  V30 7831 H 756.312 -6.10401 2.09955 0
M  V30 7832 H 757.08 -7.22464 3.84692 0
M  V30 7833 N 759.743 -0.201713 -1.56304 0
M  V30 7834 C 760.971 0.440723 -2.02152 0
M  V30 7835 C 761.386 1.54735 -1.08179 0
M  V30 7836 O 760.743 1.82289 -0.0878196 0
M  V30 7837 C 760.794 0.990884 -3.47655 0
M  V30 7838 O 760.515 -0.0715937 -4.38041 0
M  V30 7839 C 762.016 1.70854 -4.09052 0
M  V30 7840 H 759.236 0.109987 -0.661924 0
M  V30 7841 H 761.78 -0.312358 -2.021 0
M  V30 7842 H 759.935 1.69432 -3.48384 0
M  V30 7843 H 760.349 0.338892 -5.23404 0
M  V30 7844 H 761.823 2.04572 -5.12693 0
M  V30 7845 H 762.3 2.61462 -3.52894 0
M  V30 7846 H 762.906 1.0508 -4.12114 0
M  V30 7847 N 761.222 1.57436 0.0718424 0
M  V30 7848 C 762.447 1.91858 0.787745 0
M  V30 7849 C 762.872 0.798119 1.70328 0
M  V30 7850 O 762.23 -0.24905 1.79581 0
M  V30 7851 C 762.278 3.25232 1.55744 0
M  V30 7852 O 761.382 3.14462 2.6681 0
M  V30 7853 H 760.723 0.628258 0.214914 0
M  V30 7854 H 763.253 2.04561 0.0401012 0
M  V30 7855 H 763.263 3.59105 1.9367 0
M  V30 7856 H 761.938 4.0636 0.885691 0
M  V30 7857 H 760.515 2.92148 2.31741 0
M  V30 7858 N 762.7 -0.34323 1.53817 0
M  V30 7859 C 763.663 -1.40444 1.8113 0
M  V30 7860 C 764.663 -1.45604 0.682366 0
M  V30 7861 O 765.853 -1.45974 0.950649 0
M  V30 7862 C 762.985 -2.79369 1.95361 0
M  V30 7863 H 764.178 -1.17489 2.75928 0
M  V30 7864 H 761.731 -0.577636 1.45234 0
M  V30 7865 H 762.466 -3.07607 1.02707 0
M  V30 7866 H 762.251 -2.7702 2.77493 0
M  V30 7867 H 763.741 -3.56178 2.18008 0
M  V30 7868 N 764.178 -1.45556 -0.604258 0
M  V30 7869 C 765.426 -1.4945 -1.36048 0
M  V30 7870 C 765.747 -0.138933 -1.94504 0
M  V30 7871 O 765.017 0.832097 -1.7735 0
M  V30 7872 H 763.597 -0.550381 -0.505064 0
M  V30 7873 H 766.259 -1.81535 -0.709308 0
M  V30 7874 H 765.355 -2.23519 -2.17821 0
M  V30 7875 N 765.656 0.84705 -1.32902 0
M  V30 7876 C 766.886 1.63166 -1.26729 0
M  V30 7877 C 767.294 1.88474 0.165595 0
M  V30 7878 O 766.637 1.45947 1.11558 0
M  V30 7879 C 766.699 3.0103 -1.96522 0
M  V30 7880 C 766.363 2.9873 -3.45846 0
M  V30 7881 C 767.36 2.75032 -4.41196 0
M  V30 7882 C 765.045 3.19125 -3.87898 0
M  V30 7883 C 767.039 2.71743 -5.76571 0
M  V30 7884 C 764.726 3.15462 -5.2338 0
M  V30 7885 C 765.724 2.91801 -6.17528 0
M  V30 7886 O 765.412 2.88027 -7.5053 0
M  V30 7887 H 765.144 0.51469 -0.438258 0
M  V30 7888 H 767.698 1.06383 -1.75704 0
M  V30 7889 H 765.928 3.59634 -1.42128 0
M  V30 7890 H 767.617 3.61821 -1.83958 0
M  V30 7891 H 768.383 2.59034 -4.10032 0
M  V30 7892 H 764.262 3.36565 -3.15032 0
M  V30 7893 H 767.806 2.53194 -6.5003 0
M  V30 7894 H 763.703 3.31006 -5.54171 0
M  V30 7895 H 764.471 3.03927 -7.59981 0
M  V30 7896 N 767.134 1.16236 1.06428 0
M  V30 7897 C 768.38 0.944431 1.79467 0
M  V30 7898 C 768.713 -0.526558 1.86925 0
M  V30 7899 O 767.988 -1.39061 1.35986 0
M  V30 7900 C 768.271 1.57092 3.24028 0
M  V30 7901 C 768.124 3.11315 3.24658 0
M  V30 7902 C 769.443 1.26447 4.21544 0
M  V30 7903 H 766.562 0.344521 0.651517 0
M  V30 7904 H 769.204 1.43545 1.24478 0
M  V30 7905 H 767.354 1.15337 3.70985 0
M  V30 7906 H 769.026 3.62042 2.85873 0
M  V30 7907 H 767.269 3.44716 2.6335 0
M  V30 7908 H 767.94 3.50269 4.26633 0
M  V30 7909 H 770.416 1.62581 3.83023 0
M  V30 7910 H 769.292 1.72885 5.20963 0
M  V30 7911 H 769.553 0.183068 4.41721 0
M  V30 7912 N 768.612 -1.24939 0.960631 0
M  V30 7913 C 769.84 -1.96881 0.636045 0
M  V30 7914 C 770.255 -1.71334 -0.793093 0
M  V30 7915 O 769.612 -0.992917 -1.53125 0
M  V30 7916 C 769.663 -3.50309 0.892533 0
M  V30 7917 O 769.384 -3.74977 2.26548 0
M  V30 7918 C 770.885 -4.39474 0.581159 0
M  V30 7919 H 768.105 -0.627399 0.237931 0
M  V30 7920 H 770.649 -1.58952 1.28664 0
M  V30 7921 H 768.804 -3.86326 0.288257 0
M  V30 7922 H 769.218 -4.69401 2.34014 0
M  V30 7923 H 770.692 -5.46008 0.811125 0
M  V30 7924 H 771.169 -4.3652 -0.48443 0
M  V30 7925 H 771.775 -4.09032 1.16502 0
M  V30 7926 N 770.09 -0.729906 -1.39679 0
M  V30 7927 C 771.33 -0.280232 -2.0247 0
M  V30 7928 C 771.694 1.11006 -1.56658 0
M  V30 7929 O 772.895 1.65753 -2.11612 0
M  V30 7930 C 771.166 -0.372922 -3.55449 0
M  V30 7931 S 772.725 -0.00233974 -4.388 0
M  V30 7932 H 769.543 -0.110139 -0.702418 0
M  V30 7933 H 772.145 -0.955296 -1.70571 0
M  V30 7934 H 770.849 -1.38616 -3.86282 0
M  V30 7935 H 770.38 0.320136 -3.92095 0
M  V30 7936 H 772.395 1.21544 -4.81084 0
M  V30 7937 N 771.568 1.50203 -0.477153 0
M  V30 7938 C 772.814 2.03286 0.0679442 0
M  V30 7939 C 773.169 1.35227 1.36863 0
M  V30 7940 O 772.462 0.471029 1.8572 0
M  V30 7941 C 772.656 3.56127 0.301325 0
M  V30 7942 C 772.485 4.38999 -0.975188 0
M  V30 7943 C 771.255 4.81889 -1.52022 0
M  V30 7944 C 773.453 4.79013 -1.8722 0
M  V30 7945 N 771.435 5.49105 -2.74513 0
M  V30 7946 C 772.806 5.45701 -2.94296 0
M  V30 7947 C 774.861 4.60967 -1.88185 0
M  V30 7948 C 773.564 5.96255 -4.02333 0
M  V30 7949 C 775.59 5.12466 -2.95183 0
M  V30 7950 C 774.952 5.79134 -4.00977 0
M  V30 7951 H 771.051 0.78185 -0.015318 0
M  V30 7952 H 773.635 1.83646 -0.64671 0
M  V30 7953 H 771.806 3.75702 0.985021 0
M  V30 7954 H 773.538 3.95859 0.841304 0
M  V30 7955 H 770.293 4.61387 -1.06858 0
M  V30 7956 H 770.717 5.87315 -3.36734 0
M  V30 7957 H 775.359 4.0885 -1.07708 0
M  V30 7958 H 773.077 6.47406 -4.83623 0
M  V30 7959 H 776.663 5.00329 -2.96921 0
M  V30 7960 H 775.543 6.18265 -4.82409 0
M  V30 7961 N 773.046 0.209999 1.56195 0
M  V30 7962 C 774.276 -0.429373 2.02089 0
M  V30 7963 C 774.684 -1.54703 1.0892 0
M  V30 7964 O 774.027 -1.83485 0.0889535 0
M  V30 7965 C 774.089 -1.03266 3.44349 0
M  V30 7966 C 773.753 -0.0518873 4.56971 0
M  V30 7967 C 774.75 0.744249 5.14545 0
M  V30 7968 C 772.435 0.0635185 5.0226 0
M  V30 7969 C 774.429 1.64261 6.15871 0
M  V30 7970 C 772.116 0.965423 6.03426 0
M  V30 7971 C 773.114 1.75352 6.60106 0
M  V30 7972 O 772.802 2.64029 7.59305 0
M  V30 7973 H 772.534 -0.110604 0.66689 0
M  V30 7974 H 775.088 0.320436 2.02885 0
M  V30 7975 H 773.318 -1.83134 3.40586 0
M  V30 7976 H 775.007 -1.57823 3.73961 0
M  V30 7977 H 775.773 0.665476 4.80413 0
M  V30 7978 H 771.652 -0.539762 4.57829 0
M  V30 7979 H 775.196 2.25819 6.60039 0
M  V30 7980 H 771.093 1.04526 6.36981 0
M  V30 7981 H 771.861 2.57974 7.76783 0
M  V30 7982 N 774.524 -1.57472 -0.0634922 0
M  V30 7983 C 775.456 -2.00999 -1.10145 0
M  V30 7984 C 776.469 -0.917219 -1.34503 0
M  V30 7985 O 777.658 -1.19501 -1.32596 0
M  V30 7986 C 774.758 -2.34089 -2.45063 0
M  V30 7987 C 773.931 -3.65317 -2.40546 0
M  V30 7988 C 772.99 -3.85982 -3.57637 0
M  V30 7989 O 772.016 -4.5747 -3.38689 0
M  V30 7990 N 773.218 -3.28971 -4.78287 0
M  V30 7991 H 775.983 -2.90656 -0.730714 0
M  V30 7992 H 773.544 -1.59926 -0.252017 0
M  V30 7993 H 775.536 -2.4508 -3.22053 0
M  V30 7994 H 774.106 -1.50279 -2.74107 0
M  V30 7995 H 773.326 -3.65003 -1.48885 0
M  V30 7996 H 774.614 -4.51468 -2.34636 0
M  V30 7997 H 774.012 -2.70962 -4.96584 0
M  V30 7998 H 772.569 -3.45398 -5.5276 0
M  V30 7999 N 776.003 0.335068 -1.53997 0
M  V30 8000 C 777.231 1.09418 -1.756 0
M  V30 8001 C 777.646 1.82083 -0.499138 0
M  V30 8002 O 777.003 1.74646 0.529631 0
M  V30 8003 C 777.054 2.10115 -2.94166 0
M  V30 8004 O 776.775 1.40404 -4.14992 0
M  V30 8005 C 778.276 2.98336 -3.27888 0
M  V30 8006 H 775.496 0.32595 -0.586513 0
M  V30 8007 H 778.04 0.384693 -2.00849 0
M  V30 8008 H 776.195 2.76616 -2.71224 0
M  V30 8009 H 776.609 2.07743 -4.81605 0
M  V30 8010 H 778.083 3.6491 -4.1418 0
M  V30 8011 H 778.56 3.64814 -2.44556 0
M  V30 8012 H 779.166 2.37412 -3.52868 0
M  V30 8013 N 777.481 1.45874 0.596531 0
M  V30 8014 C 778.729 1.5017 1.35253 0
M  V30 8015 C 779.05 0.149246 1.94428 0
M  V30 8016 O 778.32 -0.82268 1.77789 0
M  V30 8017 H 776.9 0.553052 0.502138 0
M  V30 8018 H 779.562 1.81908 0.699671 0
M  V30 8019 H 778.658 2.24671 2.16632 0
M  V30 8020 N 778.959 -0.83999 1.33349 0
M  V30 8021 C 779.892 -1.95415 1.17848 0
M  V30 8022 C 780.87 -1.6243 0.0742296 0
M  V30 8023 O 782.054 -1.87014 0.23626 0
M  V30 8024 C 779.181 -3.28938 0.807295 0
M  V30 8025 C 778.227 -3.80895 1.91888 0
M  V30 8026 S 779.06 -4.02709 3.52967 0
M  V30 8027 C 780.216 -5.39185 3.17853 0
M  V30 8028 H 780.449 -2.08265 2.12162 0
M  V30 8029 H 777.982 -0.993643 1.18178 0
M  V30 8030 H 779.94 -4.06093 0.599914 0
M  V30 8031 H 778.601 -3.13881 -0.117234 0
M  V30 8032 H 777.794 -4.77508 1.6125 0
M  V30 8033 H 777.396 -3.10633 2.08286 0
M  V30 8034 H 779.688 -6.21978 2.68608 0
M  V30 8035 H 780.631 -5.74795 4.13542 0
M  V30 8036 H 781.039 -5.03885 2.5448 0
M  V30 8037 N 780.437 -1.16799 -1.0581 0
M  V30 8038 C 781.686 -0.94698 -1.78088 0
M  V30 8039 C 781.999 0.526016 -1.88394 0
M  V30 8040 O 783.205 0.865061 -2.5735 0
M  V30 8041 C 781.661 -1.64508 -3.20102 0
M  V30 8042 C 781.269 -3.15618 -3.17946 0
M  V30 8043 C 783.013 -1.50622 -3.96879 0
M  V30 8044 C 780.92 -3.78144 -4.5471 0
M  V30 8045 H 779.85 -0.35067 -0.667493 0
M  V30 8046 H 782.501 -1.39985 -1.18645 0
M  V30 8047 H 780.883 -1.11993 -3.79834 0
M  V30 8048 H 782.057 -3.75016 -2.67768 0
M  V30 8049 H 780.372 -3.29444 -2.54667 0
M  V30 8050 H 782.969 -1.94713 -4.97987 0
M  V30 8051 H 783.312 -0.455864 -4.13797 0
M  V30 8052 H 783.845 -2.00319 -3.43682 0
M  V30 8053 H 780.584 -4.83149 -4.42998 0
M  V30 8054 H 780.104 -3.23532 -5.05062 0
M  V30 8055 H 781.783 -3.79986 -5.2366 0
M  V30 8056 N 781.915 1.24427 -0.967243 0
M  V30 8057 C 783.161 1.92772 -0.629812 0
M  V30 8058 C 783.494 1.75436 0.832827 0
M  V30 8059 O 782.769 1.10716 1.59913 0
M  V30 8060 C 783.052 3.45798 -1.00477 0
M  V30 8061 C 782.905 3.72304 -2.52407 0
M  V30 8062 C 784.224 4.36787 -0.538999 0
M  V30 8063 H 781.343 0.700099 -0.230282 0
M  V30 8064 H 783.985 1.46805 -1.20616 0
M  V30 8065 H 782.135 3.8508 -0.514336 0
M  V30 8066 H 783.807 3.42584 -3.08924 0
M  V30 8067 H 782.05 3.17472 -2.95625 0
M  V30 8068 H 782.721 4.7937 -2.73693 0
M  V30 8069 H 785.197 4.04877 -0.959874 0
M  V30 8070 H 784.073 5.4259 -0.829926 0
M  V30 8071 H 784.334 4.38527 0.560923 0
M  V30 8072 N 783.393 0.737304 1.3929 0
M  V30 8073 C 784.804 0.355966 1.83275 0
M  V30 8074 C 785.155 -1.11295 1.6158 0
M  V30 8075 O 784.28 -1.85871 1.10819 0
M  V30 8076 C 784.875 0.63931 3.32713 0
M  V30 8077 C 783.434 0.31144 3.75109 0
M  V30 8078 C 782.581 0.900765 2.62262 0
M  V30 8079 H 785.532 0.934763 1.28249 0
M  V30 8080 H 785.553 -0.0881293 3.80398 0
M  V30 8081 H 785.065 1.70847 3.48472 0
M  V30 8082 H 783.166 -0.751791 3.64937 0
M  V30 8083 H 783.279 0.795611 4.72448 0
M  V30 8084 H 781.643 0.327239 2.52589 0
M  V30 8085 H 782.426 1.97463 2.80826 0
M  V30 8086 N 784.871 -1.49948 0.485112 0
M  V30 8087 C 786.282 -1.8667 0.0334041 0
M  V30 8088 C 786.633 -1.3988 -1.37579 0
M  V30 8089 O 785.758 -0.769788 -2.02245 0
M  V30 8090 C 786.353 -3.38757 0.0538426 0
M  V30 8091 C 784.912 -3.74839 -0.342453 0
M  V30 8092 C 784.059 -2.73894 0.433281 0
M  V30 8093 H 787.01 -1.42492 0.698699 0
M  V30 8094 H 787.031 -3.73132 -0.745146 0
M  V30 8095 H 786.543 -3.72782 1.07959 0
M  V30 8096 H 784.644 -3.46419 -1.37203 0
M  V30 8097 H 784.757 -4.79088 -0.0340503 0
M  V30 8098 H 783.121 -2.54441 -0.114849 0
M  V30 8099 H 783.904 -3.10763 1.45881 0
M  V30 8100 N 786.349 -0.21828 -1.56081 0
M  V30 8101 C 787.597 0.413488 -1.97825 0
M  V30 8102 C 787.918 1.60527 -1.10707 0
M  V30 8103 O 787.188 1.9504 -0.183378 0
M  V30 8104 H 785.768 0.155757 -0.730581 0
M  V30 8105 H 788.43 -0.310413 -1.92412 0
M  V30 8106 H 787.526 0.742024 -3.03151 0
M  V30 8107 N 787.827 1.57504 0.0551401 0
M  V30 8108 C 789.055 1.92294 0.76358 0
M  V30 8109 C 789.47 0.815774 1.70266 0
M  V30 8110 O 788.827 -0.209772 1.8129 0
M  V30 8111 C 788.878 3.26914 1.54302 0
M  V30 8112 O 788.599 4.33375 0.641666 0
M  V30 8113 C 790.1 3.75825 2.35097 0
M  V30 8114 H 787.32 0.635229 0.216159 0
M  V30 8115 H 789.864 2.0449 0.0204385 0
M  V30 8116 H 788.019 3.16196 2.23828 0
M  V30 8117 H 788.433 5.10927 1.1855 0
M  V30 8118 H 789.907 4.72603 2.8522 0
M  V30 8119 H 790.384 3.0568 3.15367 0
M  V30 8120 H 790.99 3.89542 1.70696 0
M  V30 8121 N 789.305 -0.326896 1.54172 0
M  V30 8122 C 790.716 -0.901533 1.63491 0
M  V30 8123 C 791.067 -1.88994 0.52684 0
M  V30 8124 O 790.192 -2.137 -0.340794 0
M  V30 8125 C 790.787 -1.64192 2.96355 0
M  V30 8126 C 789.346 -2.16533 3.07881 0
M  V30 8127 C 788.493 -0.98966 2.59039 0
M  V30 8128 H 791.444 -0.104568 1.58355 0
M  V30 8129 H 791.465 -2.50592 2.86328 0
M  V30 8130 H 790.977 -0.922291 3.76982 0
M  V30 8131 H 789.078 -2.91622 2.31922 0
M  V30 8132 H 789.191 -2.41762 4.13628 0
M  V30 8133 H 787.555 -1.36787 2.14852 0
M  V30 8134 H 788.338 -0.284401 3.4212 0
M  V30 8135 N 790.784 -1.46188 -0.588786 0
M  V30 8136 C 791.732 -1.56653 -1.71938 0
M  V30 8137 C 792.726 -0.435354 -1.6371 0
M  V30 8138 O 793.932 -0.611996 -1.69277 0
M  V30 8139 H 790.307 -0.492408 -0.568365 0
M  V30 8140 H 792.278 -2.51724 -1.60242 0
M  V30 8141 C 791.027 -1.56822 -3.10326 0
M  V30 8142 H 790.35 -2.43198 -3.17325 0
M  V30 8143 H 791.79 -1.68199 -3.89211 0
M  V30 8144 C 790.249 -0.295802 -3.35599 0
M  V30 8145 O 790.779 0.616515 -3.96941 0
M  V30 8146 N 788.985 -0.185609 -2.90007 0
M  V30 8147 H 788.532 -0.928914 -2.40269 0
M  V30 8148 H 788.49 0.664883 -3.07289 0
M  V30 8149 N 792.262 0.832906 -1.33792 0
M  V30 8150 C 793.487 1.62568 -1.28788 0
M  V30 8151 C 793.912 1.87599 0.137246 0
M  V30 8152 O 793.27 1.44436 1.0958 0
M  V30 8153 C 793.318 2.9495 -2.07453 0
M  V30 8154 O 792.422 3.86546 -1.43722 0
M  V30 8155 H 791.763 0.494809 -0.442787 0
M  V30 8156 H 794.293 1.03578 -1.76445 0
M  V30 8157 H 794.303 3.44599 -2.1844 0
M  V30 8158 H 792.978 2.76055 -3.11073 0
M  V30 8159 H 791.555 3.45044 -1.41417 0
M  V30 8160 N 793.74 1.17359 1.05189 0
M  V30 8161 C 794.965 0.98709 1.82404 0
M  V30 8162 C 795.39 -0.459848 1.82392 0
M  V30 8163 O 794.748 -1.32924 1.23292 0
M  V30 8164 C 794.796 1.53276 3.26403 0
M  V30 8165 O 793.9 0.746541 4.05587 0
M  V30 8166 H 793.241 0.35047 0.563974 0
M  V30 8167 H 795.771 1.55856 1.32552 0
M  V30 8168 H 795.781 1.55504 3.77203 0
M  V30 8169 H 794.456 2.58603 3.25726 0
M  V30 8170 H 793.033 0.795671 3.64312 0
M  V30 8171 N 795.218 -1.23913 0.973828 0
M  V30 8172 C 796.443 -1.96735 0.656511 0
M  V30 8173 C 796.868 -1.71682 -0.768571 0
M  V30 8174 O 796.226 -0.984267 -1.52256 0
M  V30 8175 C 796.274 -3.48004 0.944735 0
M  V30 8176 O 795.378 -4.12387 0.0333357 0
M  V30 8177 H 794.719 -0.616119 0.247575 0
M  V30 8178 H 797.249 -1.57525 1.30564 0
M  V30 8179 H 797.259 -3.98424 0.87876 0
M  V30 8180 H 795.934 -3.65567 1.98328 0
M  V30 8181 H 794.511 -3.72585 0.153157 0
M  V30 8182 N 796.696 -0.74468 -1.38897 0
M  V30 8183 C 797.945 -0.293716 -1.9955 0
M  V30 8184 C 798.258 1.12831 -1.59777 0
M  V30 8185 O 799.464 1.67929 -2.13336 0
M  V30 8186 C 797.92 -0.474188 -3.56762 0
M  V30 8187 C 797.528 -1.90472 -4.05493 0
M  V30 8188 C 799.272 -0.0854875 -4.24414 0
M  V30 8189 C 797.179 -2.03423 -5.55314 0
M  V30 8190 H 796.109 -0.106066 -0.746502 0
M  V30 8191 H 798.76 -0.919948 -1.58774 0
M  V30 8192 H 797.142 0.221092 -3.95382 0
M  V30 8193 H 798.316 -2.63274 -3.78184 0
M  V30 8194 H 796.631 -2.24752 -3.50536 0
M  V30 8195 H 799.228 -0.161133 -5.34457 0
M  V30 8196 H 799.571 0.96066 -4.05064 0
M  V30 8197 H 800.104 -0.732286 -3.91002 0
M  V30 8198 H 796.843 -3.0626 -5.79556 0
M  V30 8199 H 796.363 -1.3507 -5.84394 0
M  V30 8200 H 798.042 -1.81996 -6.20876 0
M  V30 8201 N 798.174 1.49689 -0.493057 0
M  V30 8202 C 799.107 2.25712 0.336062 0
M  V30 8203 C 800.085 1.29953 0.977294 0
M  V30 8204 O 801.269 1.59225 1.00895 0
M  V30 8205 C 798.396 3.0501 1.47263 0
M  V30 8206 C 797.442 4.15863 0.946575 0
M  V30 8207 S 798.275 5.35272 -0.156323 0
M  V30 8208 C 799.431 6.18123 0.983601 0
M  V30 8209 H 799.664 2.95688 -0.309215 0
M  V30 8210 H 797.197 1.51872 -0.278238 0
M  V30 8211 H 799.155 3.51284 2.12391 0
M  V30 8212 H 797.816 2.34519 2.08949 0
M  V30 8213 H 797.009 4.70834 1.7981 0
M  V30 8214 H 796.611 3.72139 0.372647 0
M  V30 8215 H 798.903 6.50588 1.89056 0
M  V30 8216 H 799.846 7.06521 0.472687 0
M  V30 8217 H 800.254 5.50547 1.24735 0
M  V30 8218 N 799.652 0.226554 1.55963 0
M  V30 8219 C 800.892 -0.405574 2.00336 0
M  V30 8220 C 801.256 -1.56593 1.11097 0
M  V30 8221 O 802.457 -2.26441 1.44838 0
M  V30 8222 C 800.728 -0.82435 3.47763 0
M  V30 8223 S 802.287 -1.44988 4.14154 0
M  V30 8224 H 799.105 -0.128512 0.699289 0
M  V30 8225 H 801.707 0.337017 1.92573 0
M  V30 8226 H 800.411 0.0297636 4.10389 0
M  V30 8227 H 799.942 -1.59963 3.5941 0
M  V30 8228 H 801.957 -2.73897 4.13757 0
M  V30 8229 N 801.13 -1.57531 -0.0467866 0
M  V30 8230 C 802.377 -1.88451 -0.74112 0
M  V30 8231 C 802.705 -0.821592 -1.76296 0
M  V30 8232 O 801.96 0.179585 -1.94874 0
M  V30 8233 C 802.259 -3.26091 -1.46285 0
M  V30 8234 C 801.925 -4.47171 -0.578669 0
M  V30 8235 C 800.587 -4.80032 -0.335083 0
M  V30 8236 C 802.939 -5.2119 0.0328809 0
M  V30 8237 C 800.267 -5.84309 0.529121 0
M  V30 8238 C 802.619 -6.26383 0.884684 0
M  V30 8239 C 801.283 -6.57729 1.1379 0
M  V30 8240 H 800.553 -0.68959 -0.271195 0
M  V30 8241 H 803.2 -1.915 -0.00132378 0
M  V30 8242 H 801.505 -3.18948 -2.27551 0
M  V30 8243 H 803.202 -3.47258 -2.00532 0
M  V30 8244 H 799.792 -4.21467 -0.778666 0
M  V30 8245 H 803.976 -4.96096 -0.142375 0
M  V30 8246 H 799.232 -6.06981 0.733794 0
M  V30 8247 H 803.406 -6.82888 1.36516 0
M  V30 8248 H 801.033 -7.38355 1.80929 0
M  V30 8249 N 802.608 0.318715 -1.54344 0
M  V30 8250 C 803.571 1.37545 -1.83342 0
M  V30 8251 C 804.571 1.445 -0.705444 0
M  V30 8252 O 805.761 1.44443 -0.973752 0
M  V30 8253 C 802.893 2.76225 -1.99781 0
M  V30 8254 H 804.086 1.13084 -2.77762 0
M  V30 8255 H 801.639 0.554457 -1.46135 0
M  V30 8256 H 802.374 3.05934 -1.07588 0
M  V30 8257 H 802.159 2.7257 -2.81865 0
M  V30 8258 H 803.649 3.52664 -2.23647 0
M  V30 8259 N 804.086 1.46499 0.581025 0
M  V30 8260 C 805.311 1.55708 1.37002 0
M  V30 8261 C 805.736 0.19942 1.8704 0
M  V30 8262 O 805.094 -0.820731 1.61659 0
M  V30 8263 C 805.142 2.56716 2.53238 0
M  V30 8264 O 804.246 2.10336 3.54729 0
M  V30 8265 H 803.587 0.523912 0.407937 0
M  V30 8266 H 806.117 1.92085 0.704602 0
M  V30 8267 H 806.127 2.76378 3.00132 0
M  V30 8268 H 804.802 3.55307 2.16171 0
M  V30 8269 H 803.379 2.00669 3.14303 0
M  V30 8270 N 805.565 -0.825799 1.34232 0
M  V30 8271 C 806.528 -1.91808 1.25468 0
M  V30 8272 C 807.528 -1.59893 0.170567 0
M  V30 8273 O 808.718 -1.68986 0.422996 0
M  V30 8274 C 805.85 -3.27786 0.93644 0
M  V30 8275 H 807.043 -2.01003 2.22571 0
M  V30 8276 H 804.596 -1.01944 1.18479 0
M  V30 8277 H 805.331 -3.24285 -0.0315408 0
M  V30 8278 H 805.116 -3.52333 1.72057 0
M  V30 8279 H 806.606 -4.07782 0.900214 0
M  V30 8280 N 807.043 -1.17915 -1.04565 0
M  V30 8281 C 808.283 -0.982331 -1.79247 0
M  V30 8282 C 808.647 0.47998 -1.85904 0
M  V30 8283 O 809.848 0.796078 -2.56741 0
M  V30 8284 C 808.119 -1.61329 -3.18916 0
M  V30 8285 S 809.678 -1.56355 -4.09998 0
M  V30 8286 H 806.496 -0.352869 -0.617256 0
M  V30 8287 H 809.098 -1.49971 -1.25415 0
M  V30 8288 H 807.802 -2.66993 -3.11678 0
M  V30 8289 H 807.333 -1.09599 -3.77825 0
M  V30 8290 H 809.348 -0.57593 -4.92846 0
M  V30 8291 N 808.521 1.23394 -0.980386 0
M  V30 8292 C 809.469 2.26872 -0.513018 0
M  V30 8293 C 810.463 1.63853 0.429948 0
M  V30 8294 O 811.669 1.77417 0.303842 0
M  V30 8295 H 808.044 0.737398 -0.147473 0
M  V30 8296 H 810.015 2.63654 -1.39746 0
M  V30 8297 C 808.764 3.47289 0.168962 0
M  V30 8298 H 808.087 3.96033 -0.547546 0
M  V30 8299 H 809.527 4.21502 0.459616 0
M  V30 8300 C 807.986 3.06425 1.40019 0
M  V30 8301 O 808.516 3.14708 2.49643 0
M  V30 8302 N 806.722 2.61339 1.27084 0
M  V30 8303 H 806.269 2.54799 0.378872 0
M  V30 8304 H 806.227 2.34364 2.09573 0
M  V30 8305 N 809.999 0.752036 1.385 0
M  V30 8306 C 811.276 0.233075 1.94206 0
M  V30 8307 C 811.656 -1.26838 1.68746 0
M  V30 8308 O 811.004 -2.04214 1.02513 0
M  V30 8309 C 811.214 0.58509 3.44061 0
M  V30 8310 C 812.562 0.543871 4.21102 0
M  V30 8311 O 813.586 0.523291 3.52335 0
M  V30 8312 O 812.445 0.553436 5.4369 0
M  V30 8313 H 809.539 0.0483049 0.825588 0
M  V30 8314 H 812.085 0.832053 1.47902 0
M  V30 8315 H 810.857 1.62212 3.56094 0
M  V30 8316 H 810.48 -0.0419738 3.97578 0
M  V30 8317 N 811.477 -1.49425 0.500989 0
M  V30 8318 C 812.724 -2.02453 -0.0435355 0
M  V30 8319 C 813.052 -1.38067 -1.36995 0
M  V30 8320 O 812.307 -0.505557 -1.89057 0
M  V30 8321 C 812.606 -3.56562 -0.24463 0
M  V30 8322 C 812.272 -4.39585 1.00379 0
M  V30 8323 C 810.934 -4.61992 1.346 0
M  V30 8324 C 813.286 -4.87881 1.83361 0
M  V30 8325 C 810.614 -5.2994 2.51755 0
M  V30 8326 C 812.966 -5.57119 2.99669 0
M  V30 8327 C 811.63 -5.77771 3.3427 0
M  V30 8328 H 810.9 -0.740829 -0.0159308 0
M  V30 8329 H 813.547 -1.79725 0.661143 0
M  V30 8330 H 811.852 -3.77969 -1.03183 0
M  V30 8331 H 813.549 -3.95185 -0.6804 0
M  V30 8332 H 810.139 -4.22385 0.727225 0
M  V30 8333 H 814.323 -4.70398 1.58237 0
M  V30 8334 H 809.579 -5.44133 2.788 0
M  V30 8335 H 813.753 -5.93516 3.64296 0
M  V30 8336 H 811.38 -6.30197 4.25154 0
M  V30 8337 N 812.955 -0.234822 -1.55841 0
M  V30 8338 C 814.18 0.400741 -2.03492 0
M  V30 8339 C 814.605 1.51618 -1.11327 0
M  V30 8340 O 813.963 1.81002 -0.103922 0
M  V30 8341 C 814.011 0.897184 -3.49261 0
M  V30 8342 O 813.115 2.00764 -3.60233 0
M  V30 8343 H 812.456 0.0890023 -0.658008 0
M  V30 8344 H 814.986 -0.357345 -2.01455 0
M  V30 8345 H 814.996 1.20356 -3.89844 0
M  V30 8346 H 813.671 0.0808639 -4.15821 0
M  V30 8347 H 812.248 1.70689 -3.31541 0
M  V30 8348 N 814.433 1.57553 0.0384317 0
M  V30 8349 C 815.679 1.89121 0.732199 0
M  V30 8350 C 816.012 0.831404 1.75503 0
M  V30 8351 O 815.287 -0.154642 1.93884 0
M  V30 8352 C 815.57 3.31338 1.41021 0
M  V30 8353 C 815.423 4.48004 0.401532 0
M  V30 8354 C 816.742 3.72318 2.34665 0
M  V30 8355 H 813.861 0.687819 0.264715 0
M  V30 8356 H 816.503 1.89999 -0.00496279 0
M  V30 8357 H 814.653 3.3072 2.03854 0
M  V30 8358 H 816.325 4.60755 -0.224159 0
M  V30 8359 H 814.568 4.32895 -0.280092 0
M  V30 8360 H 815.239 5.44377 0.91423 0
M  V30 8361 H 817.715 3.74243 1.81883 0
M  V30 8362 H 816.591 4.72652 2.7909 0
M  V30 8363 H 816.852 3.04062 3.20934 0
M  V30 8364 N 815.911 -0.310526 1.54511 0
M  V30 8365 C 817.327 -0.655637 1.45511 0
M  V30 8366 C 817.527 -1.91114 0.638564 0
M  V30 8367 O 816.583 -2.52098 0.142497 0
M  V30 8368 C 817.896 -0.817501 2.89374 0
M  V30 8369 C 819.444 -0.914003 2.99358 0
M  V30 8370 C 819.919 -1.10794 4.44397 0
M  V30 8371 N 821.41 -1.17437 4.48066 0
M  V30 8372 C 822.145 -1.34255 5.57461 0
M  V30 8373 N 821.641 -1.48032 6.768 0
M  V30 8374 N 823.434 -1.37067 5.45132 0
M  V30 8375 H 815.585 0.514506 2.06074 0
M  V30 8376 H 817.848 0.168478 0.932909 0
M  V30 8377 H 817.554 0.034003 3.51684 0
M  V30 8378 H 817.428 -1.7094 3.36243 0
M  V30 8379 H 819.815 -1.756 2.37168 0
M  V30 8380 H 819.896 0.00170958 2.558 0
M  V30 8381 H 819.54 -0.270743 5.07178 0
M  V30 8382 H 819.47 -2.03773 4.85576 0
M  V30 8383 H 821.961 -1.08181 3.62084 0
M  V30 8384 H 822.274 -1.60593 7.5593 0
M  V30 8385 H 820.619 -1.45105 6.79683 0
M  V30 8386 H 823.81 -1.25909 4.50849 0
M  V30 8387 H 823.983 -1.49831 6.3044 0
M  V30 8388 N 817.389 -1.46805 -0.573248 0
M  V30 8389 C 818.322 -1.52608 -1.69665 0
M  V30 8390 C 819.3 -0.379426 -1.58111 0
M  V30 8391 O 820.484 -0.584938 -1.79195 0
M  V30 8392 C 817.611 -1.41355 -3.07793 0
M  V30 8393 C 816.657 -2.60321 -3.37839 0
M  V30 8394 S 817.49 -4.22622 -3.28863 0
M  V30 8395 C 818.646 -4.13894 -4.69513 0
M  V30 8396 H 818.879 -2.47653 -1.64485 0
M  V30 8397 H 816.412 -1.34806 -0.752769 0
M  V30 8398 H 818.37 -1.35549 -3.87475 0
M  V30 8399 H 817.031 -0.477213 -3.10454 0
M  V30 8400 H 816.224 -2.48466 -4.38498 0
M  V30 8401 H 815.826 -2.63165 -2.65745 0
M  V30 8402 H 818.118 -3.81158 -5.60111 0
M  V30 8403 H 819.061 -5.14584 -4.86425 0
M  V30 8404 H 819.469 -3.44998 -4.46807 0
M  V30 8405 N 818.867 0.818669 -1.34668 0
M  V30 8406 C 819.797 1.94468 -1.29245 0
M  V30 8407 C 820.778 1.69257 -0.169101 0
M  V30 8408 O 821.963 1.90794 -0.362143 0
M  V30 8409 C 819.093 3.31001 -1.05145 0
M  V30 8410 C 818.047 3.70663 -2.13992 0
M  V30 8411 C 817.373 5.05226 -1.75074 0
M  V30 8412 C 818.673 3.82312 -3.55858 0
M  V30 8413 H 820.367 1.99263 -2.2346 0
M  V30 8414 H 817.913 0.957304 -1.07572 0
M  V30 8415 H 819.866 4.09364 -0.999949 0
M  V30 8416 H 818.59 3.26517 -0.0737312 0
M  V30 8417 H 817.249 2.94578 -2.18219 0
M  V30 8418 H 816.897 4.97233 -0.759518 0
M  V30 8419 H 816.597 5.32734 -2.47928 0
M  V30 8420 H 818.121 5.86042 -1.71427 0
M  V30 8421 H 819.535 4.50935 -3.5402 0
M  V30 8422 H 817.932 4.21278 -4.2737 0
M  V30 8423 H 819.002 2.84193 -3.9289 0
M  V30 8424 N 820.346 1.18468 1.03938 0
M  V30 8425 C 821.762 0.934635 1.29371 0
M  V30 8426 C 821.962 -0.399067 1.97509 0
M  V30 8427 O 821.018 -1.13309 2.25648 0
M  V30 8428 C 822.331 2.10111 2.15114 0
M  V30 8429 C 823.879 2.13955 2.28456 0
M  V30 8430 C 824.354 3.30024 3.17566 0
M  V30 8431 N 825.845 3.29893 3.25153 0
M  V30 8432 C 826.58 4.16346 3.94263 0
M  V30 8433 N 826.076 5.12934 4.65693 0
M  V30 8434 N 827.869 4.04256 3.90556 0
M  V30 8435 H 820.02 2.04294 0.581185 0
M  V30 8436 H 822.283 0.892727 0.318971 0
M  V30 8437 H 821.989 3.06572 1.72355 0
M  V30 8438 H 821.863 2.06283 3.15796 0
M  V30 8439 H 824.25 1.18072 2.7045 0
M  V30 8440 H 824.331 2.2184 1.2736 0
M  V30 8441 H 823.975 4.26181 2.76283 0
M  V30 8442 H 823.905 3.19376 4.18697 0
M  V30 8443 H 826.396 2.59969 2.74271 0
M  V30 8444 H 826.709 5.75271 5.16026 0
M  V30 8445 H 825.054 5.16893 4.64593 0
M  V30 8446 H 828.245 3.28083 3.33885 0
M  V30 8447 H 828.418 4.71848 4.44144 0
M  V30 8448 N 821.824 -1.22873 0.986916 0
M  V30 8449 C 823.101 -1.86939 0.575589 0
M  V30 8450 C 823.481 -1.88656 -0.947205 0
M  V30 8451 O 822.829 -1.3728 -1.82665 0
M  V30 8452 C 823.039 -3.28117 1.18914 0
M  V30 8453 C 824.387 -4.04659 1.28593 0
M  V30 8454 O 825.411 -3.3736 1.14308 0
M  V30 8455 O 824.27 -5.25112 1.51391 0
M  V30 8456 H 821.364 -0.803748 0.194724 0
M  V30 8457 H 823.91 -1.30698 1.08241 0
M  V30 8458 H 822.682 -3.21468 2.231 0
M  V30 8459 H 822.305 -3.91956 0.667535 0
M  V30 8460 N 823.302 -0.75937 -1.38099 0
M  V30 8461 C 824.53 -0.329111 -2.04266 0
M  V30 8462 C 824.945 1.04453 -1.57274 0
M  V30 8463 O 824.302 1.66449 -0.748397 0
M  V30 8464 C 824.353 -0.349192 -3.5981 0
M  V30 8465 O 824.074 -1.66863 -4.05078 0
M  V30 8466 C 825.575 0.0942106 -4.432 0
M  V30 8467 H 822.795 -0.13971 -0.656294 0
M  V30 8468 H 825.339 -1.02984 -1.76677 0
M  V30 8469 H 823.494 0.302846 -3.86214 0
M  V30 8470 H 823.908 -1.59877 -4.9954 0
M  V30 8471 H 825.382 0.0290004 -5.51992 0
M  V30 8472 H 825.859 1.1429 -4.24069 0
M  V30 8473 H 826.465 -0.529171 -4.21995 0
M  V30 8474 N 824.78 1.49157 -0.508906 0
M  V30 8475 C 826.191 1.86593 -0.0630975 0
M  V30 8476 C 826.542 1.42051 1.35337 0
M  V30 8477 O 825.667 0.801866 2.00995 0
M  V30 8478 C 826.262 3.38629 -0.107729 0
M  V30 8479 C 824.821 3.75336 0.282776 0
M  V30 8480 C 823.968 2.7317 -0.4768 0
M  V30 8481 H 826.919 1.41362 -0.72128 0
M  V30 8482 H 826.94 3.74271 0.685689 0
M  V30 8483 H 826.452 3.71017 -1.13876 0
M  V30 8484 H 824.553 3.48558 1.31675 0
M  V30 8485 H 824.666 4.79081 -0.0421728 0
M  V30 8486 H 823.03 2.54591 0.0743552 0
M  V30 8487 H 823.813 3.08403 -1.50807 0
M  V30 8488 N 826.258 0.243083 1.55714 0
M  V30 8489 C 827.505 -0.38272 1.9885 0
M  V30 8490 C 827.833 -1.58225 1.13115 0
M  V30 8491 O 827.088 -1.94861 0.181067 0
M  V30 8492 C 827.387 -0.839621 3.47398 0
M  V30 8493 C 827.053 0.251737 4.50197 0
M  V30 8494 C 825.715 0.551487 4.78029 0
M  V30 8495 C 828.067 0.988728 5.11736 0
M  V30 8496 C 825.395 1.59237 5.64677 0
M  V30 8497 C 827.747 2.0191 5.99512 0
M  V30 8498 C 826.411 2.32554 6.2568 0
M  V30 8499 H 825.681 -0.140047 0.727645 0
M  V30 8500 H 828.328 0.35011 1.88272 0
M  V30 8501 H 826.633 -1.65159 3.55288 0
M  V30 8502 H 828.33 -1.33404 3.78159 0
M  V30 8503 H 824.92 0.00796741 4.28599 0
M  V30 8504 H 829.104 0.7704 4.90284 0
M  V30 8505 H 824.36 1.83517 5.83208 0
M  V30 8506 H 828.534 2.59511 6.46241 0
M  V30 8507 H 826.161 3.13349 6.92616 0
M  V30 8508 N 827.736 -1.57571 -0.0300757 0
M  V30 8509 C 828.985 -1.88407 -0.720126 0
M  V30 8510 C 829.298 -0.841466 -1.76575 0
M  V30 8511 O 830.504 -1.03902 -2.50832 0
M  V30 8512 C 828.96 -3.34348 -1.33188 0
M  V30 8513 C 828.568 -4.46837 -0.32266 0
M  V30 8514 C 830.312 -3.74333 -2.00187 0
M  V30 8515 C 828.219 -5.83838 -0.942703 0
M  V30 8516 H 827.149 -0.702952 -0.272718 0
M  V30 8517 H 829.8 -1.83482 0.0255337 0
M  V30 8518 H 828.182 -3.34014 -2.12721 0
M  V30 8519 H 829.356 -4.58638 0.445887 0
M  V30 8520 H 827.671 -4.15678 0.245181 0
M  V30 8521 H 830.268 -4.74008 -2.47428 0
M  V30 8522 H 830.611 -3.06275 -2.81959 0
M  V30 8523 H 831.144 -3.76837 -1.2743 0
M  V30 8524 H 827.883 -6.55294 -0.164413 0
M  V30 8525 H 827.403 -5.75759 -1.68111 0
M  V30 8526 H 829.082 -6.30535 -1.45034 0
M  V30 8527 N 829.214 0.302327 -1.54673 0
M  V30 8528 C 830.439 1.06103 -1.78205 0
M  V30 8529 C 830.864 1.80204 -0.53926 0
M  V30 8530 O 830.222 1.73975 0.510142 0
M  V30 8531 C 830.27 2.01829 -2.98827 0
M  V30 8532 O 829.374 3.10108 -2.71858 0
M  V30 8533 H 828.715 0.30487 -0.589873 0
M  V30 8534 H 831.245 0.340153 -2.01753 0
M  V30 8535 H 831.255 2.44319 -3.2676 0
M  V30 8536 H 829.93 1.473 -3.88942 0
M  V30 8537 H 828.507 2.72142 -2.54937 0
M  V30 8538 N 830.692 1.47107 0.565454 0
M  V30 8539 C 831.624 1.55024 1.6882 0
M  V30 8540 C 832.637 0.4371 1.56822 0
M  V30 8541 O 833.826 0.706315 1.63931 0
M  V30 8542 C 830.926 1.43069 3.0722 0
M  V30 8543 C 830.099 2.68807 3.45053 0
M  V30 8544 C 829.158 2.50806 4.62583 0
M  V30 8545 O 828.184 3.24593 4.67577 0
M  V30 8546 N 829.386 1.58093 5.58558 0
M  V30 8547 H 832.151 2.51836 1.62477 0
M  V30 8548 H 829.712 1.43382 0.751885 0
M  V30 8549 H 831.704 1.28773 3.83666 0
M  V30 8550 H 830.274 0.543721 3.07835 0
M  V30 8551 H 829.494 2.97923 2.58138 0
M  V30 8552 H 830.782 3.52298 3.67101 0
M  V30 8553 H 830.18 0.972807 5.57273 0
M  V30 8554 H 828.737 1.49753 6.34364 0
M  V30 8555 N 832.17 -0.811516 1.35101 0
M  V30 8556 C 833.447 -1.55491 1.18667 0
M  V30 8557 C 833.827 -2.09775 -0.236189 0
M  V30 8558 O 833.175 -1.91989 -1.23905 0
M  V30 8559 C 833.385 -2.66732 2.25067 0
M  V30 8560 C 834.733 -3.35201 2.60625 0
M  V30 8561 O 835.757 -2.76998 2.23943 0
M  V30 8562 O 834.616 -4.40334 3.23679 0
M  V30 8563 H 831.71 -0.686783 0.460716 0
M  V30 8564 H 834.256 -0.851903 1.46768 0
M  V30 8565 H 833.028 -2.24457 3.20523 0
M  V30 8566 H 832.651 -3.44673 1.98208 0
M  V30 8567 N 833.648 -1.19017 -1.03309 0
M  V30 8568 C 834.596 -0.920627 -2.13605 0
M  V30 8569 C 835.59 0.121969 -1.6896 0
M  V30 8570 O 836.796 -0.0268854 -1.7998 0
M  V30 8571 H 833.171 -0.280284 -0.697814 0
M  V30 8572 H 835.142 -1.85755 -2.33533 0
M  V30 8573 C 833.891 -0.471198 -3.44492 0
M  V30 8574 H 833.214 -1.26499 -3.7926 0
M  V30 8575 H 834.654 -0.321663 -4.22778 0
M  V30 8576 C 833.113 0.81411 -3.26916 0
M  V30 8577 O 833.643 1.87654 -3.55175 0
M  V30 8578 N 831.849 0.769695 -2.80221 0
M  V30 8579 H 831.396 -0.0951278 -2.57424 0
M  V30 8580 H 831.354 1.63008 -2.68842 0
M  V30 8581 N 835.127 1.22348 -0.993418 0
M  V30 8582 C 836.074 2.24294 -0.544118 0
M  V30 8583 C 837.044 1.60602 0.42381 0
M  V30 8584 O 838.229 1.87952 0.328453 0
M  V30 8585 C 835.369 3.44837 0.134578 0
M  V30 8586 C 834.482 4.23043 -0.875151 0
M  V30 8587 C 833.617 5.30928 -0.169919 0
M  V30 8588 C 832.656 6.00853 -1.16798 0
M  V30 8589 N 831.793 7.00381 -0.491021 0
M  V30 8590 H 836.633 2.6209 -1.4182 0
M  V30 8591 H 834.17 1.2881 -0.710384 0
M  V30 8592 H 836.128 4.13625 0.544998 0
M  V30 8593 H 834.758 3.07804 0.972446 0
M  V30 8594 H 833.81 3.53546 -1.40389 0
M  V30 8595 H 835.122 4.71237 -1.63516 0
M  V30 8596 H 834.276 6.05972 0.297205 0
M  V30 8597 H 833.015 4.8371 0.622586 0
M  V30 8598 H 832.02 5.24591 -1.64573 0
M  V30 8599 H 833.245 6.50159 -1.96137 0
M  V30 8600 H 831.191 6.55393 0.282037 0
M  V30 8601 H 831.108 7.46584 -1.18947 0
M  V30 8602 H 832.376 7.79486 -0.0467169 0
M  V30 8603 N 836.605 0.766683 1.37694 0
M  V30 8604 C 837.535 0.163432 2.32927 0
M  V30 8605 C 838.516 -0.688861 1.55527 0
M  V30 8606 O 839.701 -0.627363 1.83787 0
M  V30 8607 C 836.831 -0.720416 3.39746 0
M  V30 8608 C 835.785 0.0301718 4.27989 0
M  V30 8609 C 835.111 -0.972788 5.25776 0
M  V30 8610 C 836.411 1.20623 5.0818 0
M  V30 8611 H 838.105 0.958988 2.83626 0
M  V30 8612 H 835.651 0.462601 1.36367 0
M  V30 8613 H 837.604 -1.15221 4.05342 0
M  V30 8614 H 836.328 -1.54844 2.8756 0
M  V30 8615 H 834.987 0.442685 3.63917 0
M  V30 8616 H 834.635 -1.79522 4.69873 0
M  V30 8617 H 834.335 -0.475145 5.85676 0
M  V30 8618 H 835.859 -1.40362 5.94248 0
M  V30 8619 H 837.273 0.851341 5.66944 0
M  V30 8620 H 835.67 1.63561 5.7738 0
M  V30 8621 H 836.74 2.01281 4.41151 0
M  V30 8622 N 838.083 -1.48885 0.516809 0
M  V30 8623 C 839.015 -2.27357 -0.290061 0
M  V30 8624 C 840.028 -1.34558 -0.916406 0
M  V30 8625 O 841.217 -1.59715 -0.797073 0
M  V30 8626 C 838.317 -3.07496 -1.42476 0
M  V30 8627 C 837.49 -4.27982 -0.902793 0
M  V30 8628 C 836.549 -4.90038 -1.91701 0
M  V30 8629 O 835.575 -5.49643 -1.47922 0
M  V30 8630 N 836.777 -4.811 -3.24843 0
M  V30 8631 H 839.542 -2.97244 0.382884 0
M  V30 8632 H 837.103 -1.58064 0.35032 0
M  V30 8633 H 839.095 -3.45882 -2.10113 0
M  V30 8634 H 837.665 -2.40115 -2.00159 0
M  V30 8635 H 836.885 -3.94167 -0.0508272 0
M  V30 8636 H 838.173 -5.06003 -0.532723 0
M  V30 8637 H 837.571 -4.33801 -3.63088 0
M  V30 8638 H 836.128 -5.23625 -3.8815 0
M  V30 8639 N 839.561 -0.251338 -1.55583 0
M  V30 8640 C 840.809 0.371434 -1.98657 0
M  V30 8641 C 841.13 1.58143 -1.14087 0
M  V30 8642 O 840.4 1.94607 -0.224708 0
M  V30 8643 H 838.98 0.140225 -0.733721 0
M  V30 8644 H 841.642 -0.351157 -1.9171 0
M  V30 8645 H 840.738 0.677554 -3.04657 0
M  V30 8646 N 841.039 1.57585 0.0217189 0
M  V30 8647 C 842.316 1.80779 0.74687 0
M  V30 8648 C 842.696 0.851163 1.9318 0
M  V30 8649 O 842.044 -0.105039 2.28258 0
M  V30 8650 C 842.254 3.28696 1.17302 0
M  V30 8651 C 843.602 3.93871 1.58589 0
M  V30 8652 O 844.626 3.3289 1.2674 0
M  V30 8653 O 843.485 5.01254 2.1773 0
M  V30 8654 H 840.579 0.743666 0.361786 0
M  V30 8655 H 843.125 1.697 -0.00206785 0
M  V30 8656 H 841.897 3.89927 0.327453 0
M  V30 8657 H 841.52 3.44692 1.98174 0
M  V30 8658 N 842.517 -0.29412 1.54831 0
M  V30 8659 C 843.763 -1.02999 1.74697 0
M  V30 8660 C 844.096 -1.86687 0.534949 0
M  V30 8661 O 843.371 -1.88789 -0.467863 0
M  V30 8662 C 843.654 -1.93024 3.03996 0
M  V30 8663 C 843.507 -1.1247 4.35512 0
M  V30 8664 C 844.826 -2.92085 3.29203 0
M  V30 8665 H 841.945 -0.373039 0.635618 0
M  V30 8666 H 844.587 -0.304065 1.87551 0
M  V30 8667 H 842.737 -2.5492 2.93169 0
M  V30 8668 H 844.409 -0.528067 4.58268 0
M  V30 8669 H 842.652 -0.427574 4.31688 0
M  V30 8670 H 843.323 -1.78728 5.22265 0
M  V30 8671 H 845.799 -2.40319 3.39685 0
M  V30 8672 H 844.675 -3.52234 4.20978 0
M  V30 8673 H 844.936 -3.66107 2.47827 0
M  V30 8674 N 843.995 -1.47404 -0.557645 0
M  V30 8675 C 844.905 -1.62491 -1.69216 0
M  V30 8676 C 845.921 -0.507764 -1.66426 0
M  V30 8677 O 847.097 -0.775241 -1.85882 0
M  V30 8678 C 844.162 -1.63511 -3.05721 0
M  V30 8679 C 843.223 -2.86648 -3.1958 0
M  V30 8680 C 842.456 -2.87609 -4.49574 0
M  V30 8681 O 842.679 -1.97799 -5.35006 0
M  V30 8682 O 841.613 -3.79465 -4.67215 0
M  V30 8683 H 845.439 -2.58487 -1.59431 0
M  V30 8684 H 843.024 -1.30485 -0.7276 0
M  V30 8685 H 844.906 -1.66863 -3.86956 0
M  V30 8686 H 843.581 -0.706812 -3.15889 0
M  V30 8687 H 842.488 -2.8884 -2.37744 0
M  V30 8688 H 843.821 -3.7877 -3.14316 0
M  V30 8689 N 845.473 0.80434 -1.35529 0
M  V30 8690 C 846.383 1.94784 -1.30753 0
M  V30 8691 C 847.399 1.72703 -0.212071 0
M  V30 8692 O 848.575 1.96494 -0.441841 0
M  V30 8693 C 845.64 3.29406 -1.08133 0
M  V30 8694 C 844.701 3.64367 -2.27013 0
M  V30 8695 C 843.934 4.92566 -2.05463 0
M  V30 8696 O 844.157 5.61166 -1.02222 0
M  V30 8697 O 843.091 5.25838 -2.92879 0
M  V30 8698 H 846.917 2.01761 -2.26994 0
M  V30 8699 H 844.502 0.942448 -1.15924 0
M  V30 8700 H 846.384 4.09995 -0.973756 0
M  V30 8701 H 845.059 3.23355 -0.149444 0
M  V30 8702 H 843.966 2.84146 -2.43335 0
M  V30 8703 H 845.299 3.75125 -3.18656 0
M  V30 8704 N 846.951 1.19563 1.02676 0
M  V30 8705 C 847.914 0.937182 2.09164 0
M  V30 8706 C 848.914 -0.0831927 1.60585 0
M  V30 8707 O 850.104 0.15178 1.73538 0
M  V30 8708 C 847.236 0.408912 3.38439 0
M  V30 8709 H 848.429 1.88164 2.33526 0
M  V30 8710 H 845.982 1.00959 1.19319 0
M  V30 8711 H 846.717 -0.541497 3.19747 0
M  V30 8712 H 846.502 1.14464 3.7502 0
M  V30 8713 H 847.992 0.247242 4.16867 0
M  V30 8714 N 848.429 -1.21819 0.999893 0
M  V30 8715 C 849.678 -1.90066 0.675108 0
M  V30 8716 C 849.991 -1.78624 -0.79705 0
M  V30 8717 O 851.197 -2.41851 -1.23371 0
M  V30 8718 C 849.653 -3.40795 1.15702 0
M  V30 8719 C 849.261 -3.60859 2.6549 0
M  V30 8720 C 851.005 -4.147 0.906889 0
M  V30 8721 C 848.912 -5.05324 3.07248 0
M  V30 8722 H 847.842 -0.711763 0.248815 0
M  V30 8723 H 850.493 -1.3792 1.21038 0
M  V30 8724 H 848.875 -3.92164 0.549832 0
M  V30 8725 H 850.049 -3.19951 3.31614 0
M  V30 8726 H 848.364 -3.00298 2.88461 0
M  V30 8727 H 850.961 -5.21187 1.1945 0
M  V30 8728 H 851.304 -4.16004 -0.156923 0
M  V30 8729 H 851.837 -3.69379 1.47662 0
M  V30 8730 H 848.576 -5.09164 4.12834 0
M  V30 8731 H 848.096 -5.47108 2.45832 0
M  V30 8732 H 849.775 -5.73797 2.98941 0
M  V30 8733 N 849.908 -0.773975 -1.37286 0
M  V30 8734 C 850.818 -0.162571 -2.34036 0
M  V30 8735 C 851.834 0.677022 -1.60289 0
M  V30 8736 O 853.01 0.596423 -1.92366 0
M  V30 8737 C 850.075 0.70457 -3.39465 0
M  V30 8738 C 849.136 -0.151738 -4.29032 0
M  V30 8739 C 848.369 0.674111 -5.29426 0
M  V30 8740 O 848.592 1.91107 -5.37433 0
M  V30 8741 O 847.526 0.0821398 -6.01844 0
M  V30 8742 H 851.352 -0.962119 -2.88057 0
M  V30 8743 H 848.937 -0.53517 -1.39486 0
M  V30 8744 H 850.819 1.19954 -4.03967 0
M  V30 8745 H 849.494 1.48227 -2.87768 0
M  V30 8746 H 848.401 -0.693118 -3.67623 0
M  V30 8747 H 849.734 -0.892575 -4.84039 0
M  V30 8748 N 851.386 1.48609 -0.524698 0
M  V30 8749 C 852.802 1.58557 -0.182199 0
M  V30 8750 C 853.002 1.52732 1.31435 0
M  V30 8751 O 852.058 1.41362 2.0922 0
M  V30 8752 C 853.371 2.90406 -0.78004 0
M  V30 8753 C 854.919 3.03924 -0.748293 0
M  V30 8754 C 855.394 4.38427 -1.32462 0
M  V30 8755 N 856.885 4.4498 -1.28635 0
M  V30 8756 C 857.62 5.47551 -1.70223 0
M  V30 8757 N 857.116 6.57103 -2.19515 0
M  V30 8758 N 858.909 5.38402 -1.61493 0
M  V30 8759 H 851.06 1.50638 -1.4974 0
M  V30 8760 H 853.323 0.714952 -0.622533 0
M  V30 8761 H 853.029 3.00308 -1.83052 0
M  V30 8762 H 852.903 3.76343 -0.254075 0
M  V30 8763 H 855.29 2.93638 0.293407 0
M  V30 8764 H 855.371 2.19611 -1.31167 0
M  V30 8765 H 855.015 4.49466 -2.36522 0
M  V30 8766 H 854.945 5.21418 -0.736967 0
M  V30 8767 H 857.436 3.66393 -0.92545 0
M  V30 8768 H 857.749 7.31499 -2.49257 0
M  V30 8769 H 856.094 6.58081 -2.23506 0
M  V30 8770 H 859.285 4.5171 -1.22785 0
M  V30 8771 H 859.458 6.18208 -1.94225 0
M  V30 8772 N 852.864 0.259585 1.55447 0
M  V30 8773 C 853.827 -0.621359 2.20617 0
M  V30 8774 C 854.827 -1.09317 1.17925 0
M  V30 8775 O 856.017 -0.995842 1.42929 0
M  V30 8776 C 853.149 -1.85546 2.85982 0
M  V30 8777 H 854.342 -0.0525833 2.99854 0
M  V30 8778 H 851.895 0.0101055 1.56297 0
M  V30 8779 H 852.63 -2.46515 2.10715 0
M  V30 8780 H 852.415 -1.52523 3.61219 0
M  V30 8781 H 853.905 -2.48227 3.35817 0
M  V30 8782 N 854.342 -1.57594 -0.0133615 0
M  V30 8783 C 855.758 -1.5527 -0.369255 0
M  V30 8784 C 855.958 -0.987751 -1.7563 0
M  V30 8785 O 855.014 -0.615683 -2.44879 0
M  V30 8786 C 856.327 -2.99602 -0.25672 0
M  V30 8787 C 857.875 -3.11227 -0.332647 0
M  V30 8788 C 858.35 -4.57321 -0.249387 0
M  V30 8789 N 859.841 -4.62177 -0.3077 0
M  V30 8790 C 860.576 -5.72781 -0.26641 0
M  V30 8791 N 860.072 -6.92575 -0.176494 0
M  V30 8792 N 861.865 -5.61204 -0.317295 0
M  V30 8793 H 854.016 -1.92662 0.894154 0
M  V30 8794 H 856.279 -0.884352 0.341505 0
M  V30 8795 H 855.985 -3.44723 0.697072 0
M  V30 8796 H 855.859 -3.6246 -1.04415 0
M  V30 8797 H 858.246 -2.66045 -1.27688 0
M  V30 8798 H 858.327 -2.51171 0.484412 0
M  V30 8799 H 857.971 -5.03174 0.691242 0
M  V30 8800 H 857.901 -5.15306 -1.08476 0
M  V30 8801 H 860.392 -3.75994 -0.379069 0
M  V30 8802 H 860.705 -7.72653 -0.150518 0
M  V30 8803 H 859.05 -6.94854 -0.142314 0
M  V30 8804 H 862.241 -4.66509 -0.385643 0
M  V30 8805 H 862.414 -6.47388 -0.28165 0
M  V30 8806 N 855.82 0.285905 -1.54985 0
M  V30 8807 C 857.06 1.02699 -1.76726 0
M  V30 8808 C 857.424 1.83962 -0.549717 0
M  V30 8809 O 858.625 2.60943 -0.645142 0
M  V30 8810 C 856.896 1.89671 -3.02919 0
M  V30 8811 S 858.455 2.7022 -3.45726 0
M  V30 8812 H 855.273 0.346114 -0.621068 0
M  V30 8813 H 857.875 0.298764 -1.93204 0
M  V30 8814 H 856.579 1.28873 -3.89641 0
M  V30 8815 H 856.11 2.66836 -2.89071 0
M  V30 8816 H 858.125 3.92184 -3.03983 0
M  V30 8817 N 857.298 1.47698 0.54982 0
M  V30 8818 C 858.526 1.5833 1.33188 0
M  V30 8819 C 858.941 0.236193 1.87317 0
M  V30 8820 O 858.298 -0.77167 1.65383 0
M  V30 8821 C 858.349 2.61438 2.49664 0
M  V30 8822 O 858.07 3.9092 1.97771 0
M  V30 8823 C 859.571 2.82324 3.41772 0
M  V30 8824 H 856.791 0.53443 0.405741 0
M  V30 8825 H 859.335 1.93375 0.665309 0
M  V30 8826 H 857.49 2.29307 3.12245 0
M  V30 8827 H 857.904 4.47323 2.73866 0
M  V30 8828 H 859.378 3.58316 4.19897 0
M  V30 8829 H 859.855 1.90416 3.95776 0
M  V30 8830 H 860.461 3.15682 2.85 0
M  V30 8831 N 858.776 -0.797141 1.35954 0
M  V30 8832 C 860.022 -1.55698 1.29946 0
M  V30 8833 C 860.355 -1.93808 -0.123259 0
M  V30 8834 O 859.63 -1.62102 -1.07486 0
M  V30 8835 C 859.913 -2.83926 2.2149 0
M  V30 8836 C 859.766 -2.52232 3.72423 0
M  V30 8837 C 861.085 -3.85698 2.11955 0
M  V30 8838 H 858.204 -0.56488 0.47337 0
M  V30 8839 H 860.846 -0.916421 1.66438 0
M  V30 8840 H 858.996 -3.38588 1.905 0
M  V30 8841 H 860.668 -2.0368 4.13899 0
M  V30 8842 H 858.911 -1.85286 3.92239 0
M  V30 8843 H 859.582 -3.43782 4.31877 0
M  V30 8844 H 862.058 -3.40462 2.39218 0
M  V30 8845 H 860.934 -4.73182 2.78191 0
M  V30 8846 H 861.195 -4.28083 1.10442 0
M  V30 8847 N 860.254 -1.20106 -1.0204 0
M  V30 8848 C 861.217 -0.948261 -2.08664 0
M  V30 8849 C 862.217 0.0746753 -1.60627 0
M  V30 8850 O 863.407 -0.160981 -1.73455 0
M  V30 8851 C 860.539 -0.426854 -3.38217 0
M  V30 8852 H 861.732 -1.894 -2.32524 0
M  V30 8853 H 859.285 -1.0159 -1.18782 0
M  V30 8854 H 860.02 0.524532 -3.2003 0
M  V30 8855 H 859.805 -1.16451 -3.74408 0
M  V30 8856 H 861.295 -0.269346 -4.1673 0
M  V30 8857 N 861.732 1.21287 -1.00634 0
M  V30 8858 C 863.009 1.86 -0.605257 0
M  V30 8859 C 863.389 1.90139 0.917072 0
M  V30 8860 O 862.737 1.40169 1.80458 0
M  V30 8861 C 862.947 3.26183 -1.24119 0
M  V30 8862 C 864.295 4.02562 -1.35015 0
M  V30 8863 O 865.319 3.35499 -1.19661 0
M  V30 8864 O 864.178 5.22638 -1.59726 0
M  V30 8865 H 861.272 0.800549 -0.207486 0
M  V30 8866 H 863.818 1.28959 -1.10307 0
M  V30 8867 H 862.59 3.17878 -2.28186 0
M  V30 8868 H 862.213 3.90845 -0.729807 0
M  V30 8869 N 863.21 0.781244 1.36873 0
M  V30 8870 C 864.438 0.361566 2.03716 0
M  V30 8871 C 864.853 -1.01937 1.58916 0
M  V30 8872 O 864.21 -1.65237 0.774783 0
M  V30 8873 C 864.261 0.406391 3.59208 0
M  V30 8874 O 863.982 1.73286 4.02372 0
M  V30 8875 C 865.483 -0.0236894 4.43294 0
M  V30 8876 H 862.703 0.150133 0.653988 0
M  V30 8877 H 865.247 1.05781 1.75016 0
M  V30 8878 H 863.402 -0.241364 3.86647 0
M  V30 8879 H 863.816 1.67804 4.96933 0
M  V30 8880 H 865.29 0.0588205 5.51969 0
M  V30 8881 H 865.767 -1.07529 4.25833 0
M  V30 8882 H 866.373 0.59624 4.211 0
M  V30 8883 N 864.689 -1.48329 0.532571 0
M  V30 8884 C 865.622 -2.26524 -0.2761 0
M  V30 8885 C 866.6 -1.32498 -0.942496 0
M  V30 8886 O 867.784 -1.61844 -0.966376 0
M  V30 8887 C 864.911 -3.08808 -1.39124 0
M  V30 8888 C 863.957 -4.18227 -0.835984 0
M  V30 8889 S 864.79 -5.34669 0.298186 0
M  V30 8890 C 865.946 -6.20514 -0.81937 0
M  V30 8891 H 866.179 -2.94764 0.387502 0
M  V30 8892 H 863.712 -1.51081 0.318407 0
M  V30 8893 H 865.67 -3.56792 -2.03002 0
M  V30 8894 H 864.331 -2.39976 -2.02658 0
M  V30 8895 H 863.524 -4.75435 -1.67264 0
M  V30 8896 H 863.126 -3.72996 -0.27385 0
M  V30 8897 H 865.418 -6.55371 -1.7174 0
M  V30 8898 H 866.361 -7.07525 -0.285199 0
M  V30 8899 H 866.769 -5.5366 -1.10094 0
M  V30 8900 N 866.167 -0.267825 -1.55308 0
M  V30 8901 C 867.583 0.0865107 -1.59365 0
M  V30 8902 C 867.783 1.55205 -1.28505 0
M  V30 8903 O 866.839 2.29978 -1.04241 0
M  V30 8904 C 868.152 -0.28155 -2.99379 0
M  V30 8905 C 869.7 -0.227565 -3.12172 0
M  V30 8906 C 870.175 -0.569959 -4.5444 0
M  V30 8907 N 871.666 -0.521238 -4.60258 0
M  V30 8908 C 872.401 -0.759061 -5.68354 0
M  V30 8909 N 871.897 -1.06112 -6.84626 0
M  V30 8910 N 873.69 -0.688351 -5.57869 0
M  V30 8911 H 865.841 -1.22332 -1.73633 0
M  V30 8912 H 868.104 -0.493703 -0.809297 0
M  V30 8913 H 867.81 -1.3005 -3.26772 0
M  V30 8914 H 867.684 0.381192 -3.75269 0
M  V30 8915 H 870.071 0.782093 -2.84548 0
M  V30 8916 H 870.152 -0.924461 -2.38511 0
M  V30 8917 H 869.796 -1.57727 -4.82788 0
M  V30 8918 H 869.726 0.148646 -5.2639 0
M  V30 8919 H 872.217 -0.297359 -3.76728 0
M  V30 8920 H 872.53 -1.22945 -7.62958 0
M  V30 8921 H 870.875 -1.09881 -6.86259 0
M  V30 8922 H 874.066 -0.452268 -4.6591 0
M  V30 8923 H 874.239 -0.877081 -6.42037 0
M  V30 8924 N 867.645 1.57599 0.00500368 0
M  V30 8925 C 868.873 1.94626 0.702016 0
M  V30 8926 C 869.288 0.86953 1.67585 0
M  V30 8927 O 868.645 -0.15199 1.81866 0
M  V30 8928 C 868.696 3.31658 1.43824 0
M  V30 8929 O 868.417 4.35197 0.503467 0
M  V30 8930 C 869.918 3.83114 2.23021 0
M  V30 8931 H 867.138 0.641785 0.195841 0
M  V30 8932 H 869.682 2.04451 -0.0446287 0
M  V30 8933 H 867.837 3.23156 2.13655 0
M  V30 8934 H 868.251 5.1444 1.02235 0
M  V30 8935 H 869.725 4.81438 2.7004 0
M  V30 8936 H 870.202 3.15559 3.05482 0
M  V30 8937 H 870.808 3.94775 1.58216 0
M  V30 8938 N 869.123 -0.277682 1.55134 0
M  V30 8939 C 870.371 -1.00791 1.75173 0
M  V30 8940 C 870.692 -1.86987 0.553266 0
M  V30 8941 O 869.962 -1.91079 -0.43195 0
M  V30 8942 H 868.542 -0.375129 0.645978 0
M  V30 8943 H 871.204 -0.303041 1.9253 0
M  V30 8944 H 870.3 -1.64756 2.6507 0
M  V30 8945 N 870.601 -1.47988 -0.541979 0
M  V30 8946 C 872.012 -1.49073 -1.12402 0
M  V30 8947 C 872.363 -0.253825 -1.94551 0
M  V30 8948 O 871.488 0.640056 -2.06718 0
M  V30 8949 C 872.083 -2.7011 -2.04514 0
M  V30 8950 C 870.642 -2.74105 -2.5796 0
M  V30 8951 C 869.789 -2.42409 -1.3466 0
M  V30 8952 H 872.74 -1.55277 -0.327818 0
M  V30 8953 H 872.761 -2.47946 -2.88623 0
M  V30 8954 H 872.273 -3.60117 -1.44697 0
M  V30 8955 H 870.374 -1.88276 -3.21532 0
M  V30 8956 H 870.487 -3.75213 -2.97913 0
M  V30 8957 H 868.851 -1.9331 -1.65841 0
M  V30 8958 H 869.634 -3.34642 -0.766133 0
M  V30 8959 N 872.079 0.78992 -1.36375 0
M  V30 8960 C 873.304 1.58389 -1.33895 0
M  V30 8961 C 873.729 1.8794 0.0774934 0
M  V30 8962 O 873.087 1.4785 1.0493 0
M  V30 8963 C 873.135 2.88201 -2.16732 0
M  V30 8964 O 872.239 3.81778 -1.55946 0
M  V30 8965 H 871.58 0.480471 -0.458305 0
M  V30 8966 H 874.11 0.979119 -1.79651 0
M  V30 8967 H 874.12 3.37475 -2.29292 0
M  V30 8968 H 872.795 2.66019 -3.19698 0
M  V30 8969 H 871.372 3.40371 -1.52323 0
M  V30 8970 N 873.557 1.20646 1.01402 0
M  V30 8971 C 874.505 0.954493 2.12114 0
M  V30 8972 C 875.499 -0.0950737 1.69133 0
M  V30 8973 O 876.705 0.0555153 1.79914 0
M  V30 8974 H 873.08 0.29135 0.693267 0
M  V30 8975 H 875.051 1.89447 2.30548 0
M  V30 8976 C 873.8 0.525944 3.43699 0
M  V30 8977 H 873.123 1.32516 3.772 0
M  V30 8978 H 874.563 0.388883 4.22213 0
M  V30 8979 C 873.022 -0.761997 3.28169 0
M  V30 8980 O 873.552 -1.81979 3.58115 0
M  V30 8981 N 871.758 -0.725017 2.8141 0
M  V30 8982 H 871.305 0.13607 2.5724 0
M  V30 8983 H 871.263 -1.5871 2.71401 0
M  V30 8984 N 875.035 -1.20752 1.01276 0
M  V30 8985 C 876.26 -1.94547 0.718769 0
M  V30 8986 C 876.685 -1.7404 -0.713563 0
M  V30 8987 O 876.043 -1.03221 -1.49047 0
M  V30 8988 C 876.091 -3.44823 1.05497 0
M  V30 8989 O 875.195 -4.12072 0.164516 0
M  V30 8990 H 874.536 -0.607931 0.267051 0
M  V30 8991 H 877.066 -1.53292 1.35509 0
M  V30 8992 H 877.076 -3.95427 1.00507 0
M  V30 8993 H 875.751 -3.59072 2.09858 0
M  V30 8994 H 874.328 -3.71909 0.271615 0
M  V30 8995 N 876.513 -0.788492 -1.36457 0
M  V30 8996 C 877.476 -0.192209 -2.28393 0
M  V30 8997 C 878.476 0.609916 -1.48784 0
M  V30 8998 O 879.666 0.431046 -1.68783 0
M  V30 8999 C 876.798 0.734096 -3.32902 0
M  V30 9000 H 877.991 -1.00284 -2.82636 0
M  V30 9001 H 875.544 -0.557852 -1.46006 0
M  V30 9002 H 876.279 1.5691 -2.83813 0
M  V30 9003 H 876.064 0.160875 -3.9177 0
M  V30 9004 H 877.554 1.1462 -4.01562 0
M  V30 9005 N 877.991 1.48044 -0.54043 0
M  V30 9006 C 879.216 2.07396 -0.0124765 0
M  V30 9007 C 879.641 1.39288 1.26414 0
M  V30 9008 O 878.999 0.462252 1.75308 0
M  V30 9009 C 879.047 3.60131 0.18377 0
M  V30 9010 O 878.151 3.92995 1.25014 0
M  V30 9011 H 877.492 0.662554 -0.0438026 0
M  V30 9012 H 880.022 1.90306 -0.751327 0
M  V30 9013 H 880.032 4.06003 0.403197 0
M  V30 9014 H 878.707 4.09105 -0.74874 0
M  V30 9015 H 877.284 3.5889 1.01254 0
M  V30 9016 N 879.47 0.276058 1.55163 0
M  V30 9017 C 880.716 -0.340959 1.99913 0
M  V30 9018 C 881.049 -1.55434 1.16422 0
M  V30 9019 O 880.324 -1.93081 0.234517 0
M  V30 9020 C 880.607 -0.722211 3.52783 0
M  V30 9021 C 880.46 0.498575 4.47028 0
M  V30 9022 C 881.779 -1.5583 4.11589 0
M  V30 9023 H 878.898 -0.122455 0.726756 0
M  V30 9024 H 881.54 0.38319 1.86096 0
M  V30 9025 H 879.69 -1.33919 3.64689 0
M  V30 9026 H 881.362 1.13713 4.47065 0
M  V30 9027 H 879.605 1.13646 4.18649 0
M  V30 9028 H 880.276 0.188041 5.5168 0
M  V30 9029 H 882.752 -1.03722 4.02965 0
M  V30 9030 H 881.628 -1.79387 5.1876 0
M  V30 9031 H 881.889 -2.53963 3.61877 0
M  V30 9032 N 880.948 -1.576 0.00335426 0
M  V30 9033 C 882.359 -1.7875 -0.539008 0
M  V30 9034 C 882.71 -0.911097 -1.73763 0
M  V30 9035 O 881.835 -0.114476 -2.16097 0
M  V30 9036 C 882.43 -3.24177 -0.984611 0
M  V30 9037 C 880.989 -3.46412 -1.47226 0
M  V30 9038 C 880.136 -2.74024 -0.425004 0
M  V30 9039 H 883.087 -1.57032 0.229511 0
M  V30 9040 H 883.108 -3.32474 -1.85044 0
M  V30 9041 H 882.62 -3.87938 -0.112035 0
M  V30 9042 H 880.721 -2.8787 -2.36562 0
M  V30 9043 H 880.834 -4.55098 -1.49741 0
M  V30 9044 H 879.198 -2.38741 -0.887394 0
M  V30 9045 H 879.981 -3.40486 0.438662 0
M  V30 9046 N 882.426 0.269451 -1.5528 0
M  V30 9047 C 883.389 1.31642 -1.87625 0
M  V30 9048 C 884.389 1.42182 -0.751058 0
M  V30 9049 O 885.579 1.41272 -1.01921 0
M  V30 9050 C 882.711 2.6973 -2.08467 0
M  V30 9051 H 883.904 1.0419 -2.81219 0
M  V30 9052 H 881.457 0.507685 -1.47825 0
M  V30 9053 H 882.192 3.02356 -1.17266 0
M  V30 9054 H 881.977 2.63465 -2.90394 0
M  V30 9055 H 883.467 3.4537 -2.34753 0
M  V30 9056 N 883.904 1.48273 0.534124 0
M  V30 9057 C 884.834 1.6538 1.64839 0
M  V30 9058 C 885.815 0.502741 1.62501 0
M  V30 9059 O 887 0.734799 1.79762 0
M  V30 9060 C 884.13 1.68949 3.03436 0
M  V30 9061 C 883.084 2.83513 3.20631 0
M  V30 9062 C 882.41 2.72169 4.60248 0
M  V30 9063 C 883.71 4.24858 3.03797 0
M  V30 9064 H 885.404 2.58663 1.50777 0
M  V30 9065 H 882.95 1.24479 0.723937 0
M  V30 9066 H 884.903 1.79505 3.81256 0
M  V30 9067 H 883.627 0.722415 3.1851 0
M  V30 9068 H 882.286 2.72505 2.45227 0
M  V30 9069 H 881.934 1.7344 4.72152 0
M  V30 9070 H 881.634 3.49042 4.72698 0
M  V30 9071 H 883.158 2.84687 5.40172 0
M  V30 9072 H 884.572 4.36721 3.71413 0
M  V30 9073 H 882.969 5.02697 3.27743 0
M  V30 9074 H 884.039 4.41611 2.0027 0
M  V30 9075 N 885.382 -0.782676 1.36792 0
M  V30 9076 C 886.61 -1.57162 1.34565 0
M  V30 9077 C 887.025 -1.88664 -0.0715501 0
M  V30 9078 O 886.382 -1.50633 -1.03033 0
M  V30 9079 C 886.433 -2.88854 2.1736 0
M  V30 9080 O 886.154 -2.58707 3.53557 0
M  V30 9081 C 887.655 -3.83132 2.2299 0
M  V30 9082 H 884.875 -0.487245 0.461338 0
M  V30 9083 H 887.419 -0.970905 1.79982 0
M  V30 9084 H 885.574 -3.45377 1.7548 0
M  V30 9085 H 885.988 -3.42961 3.96835 0
M  V30 9086 H 887.462 -4.72575 2.85266 0
M  V30 9087 H 887.939 -4.21472 1.23524 0
M  V30 9088 H 888.545 -3.32541 2.65135 0
M  V30 9089 N 886.86 -1.21182 -1.00761 0
M  V30 9090 C 887.823 -0.970339 -2.07646 0
M  V30 9091 C 888.823 0.0576345 -1.60697 0
M  V30 9092 O 890.013 -0.179369 -1.73274 0
M  V30 9093 C 887.145 -0.462703 -3.37745 0
M  V30 9094 H 888.338 -1.91856 -2.30502 0
M  V30 9095 H 885.891 -1.02844 -1.17698 0
M  V30 9096 H 886.626 0.490559 -3.20568 0
M  V30 9097 H 886.411 -1.20416 -3.73152 0
M  V30 9098 H 887.901 -0.313531 -4.16421 0
M  V30 9099 N 888.338 1.20213 -1.01915 0
M  V30 9100 C 889.584 1.89928 -0.711007 0
M  V30 9101 C 889.917 1.7881 0.75767 0
M  V30 9102 O 889.192 1.17399 1.55073 0
M  V30 9103 C 889.475 3.41225 -1.15053 0
M  V30 9104 C 889.328 3.61264 -2.67971 0
M  V30 9105 C 890.647 4.34108 -0.72377 0
M  V30 9106 H 887.766 0.689702 -0.259768 0
M  V30 9107 H 890.408 1.41557 -1.26734 0
M  V30 9108 H 888.558 3.82552 -0.677199 0
M  V30 9109 H 890.23 3.29173 -3.23176 0
M  V30 9110 H 888.473 3.04647 -3.08824 0
M  V30 9111 H 889.144 4.67331 -2.93779 0
M  V30 9112 H 891.62 4.00442 -1.13073 0
M  V30 9113 H 890.496 5.38581 -1.05931 0
M  V30 9114 H 890.757 4.40512 0.374424 0
M  V30 9115 N 889.816 0.795718 1.36037 0
M  V30 9116 C 890.726 0.199784 2.33748 0
M  V30 9117 C 891.742 -0.651436 1.61345 0
M  V30 9118 O 892.918 -0.565743 1.93291 0
M  V30 9119 C 889.983 -0.650475 3.40543 0
M  V30 9120 C 889.044 0.219974 4.28736 0
M  V30 9121 C 888.277 -0.589798 5.30431 0
M  V30 9122 O 888.5 -1.82532 5.40406 0
M  V30 9123 O 887.434 0.0136187 6.01898 0
M  V30 9124 H 891.26 1.00782 2.8649 0
M  V30 9125 H 888.845 0.557293 1.38617 0
M  V30 9126 H 890.727 -1.13512 4.05824 0
M  V30 9127 H 889.402 -1.4363 2.9009 0
M  V30 9128 H 888.309 0.751516 3.66474 0
M  V30 9129 H 889.642 0.969468 4.82558 0
M  V30 9130 N 891.294 -1.47756 0.548274 0
M  V30 9131 C 892.522 -2.06884 0.0254873 0
M  V30 9132 C 892.937 -1.40225 -1.26422 0
M  V30 9133 O 892.294 -0.495776 -1.75637 0
M  V30 9134 C 892.345 -3.61036 -0.183134 0
M  V30 9135 O 892.066 -4.25195 1.05549 0
M  V30 9136 C 893.567 -4.37008 -0.744222 0
M  V30 9137 H 890.787 -0.669697 0.041789 0
M  V30 9138 H 893.331 -1.89888 0.759138 0
M  V30 9139 H 891.486 -3.77576 -0.866886 0
M  V30 9140 H 891.9 -5.17606 0.847629 0
M  V30 9141 H 893.374 -5.45579 -0.839529 0
M  V30 9142 H 893.851 -4.0268 -1.75344 0
M  V30 9143 H 894.457 -4.25191 -0.0964542 0
M  V30 9144 N 892.772 -0.284283 -1.55015 0
M  V30 9145 C 894.02 0.329212 -1.99401 0
M  V30 9146 C 894.341 1.55687 -1.17416 0
M  V30 9147 O 893.611 1.94087 -0.265937 0
M  V30 9148 H 892.191 0.12463 -0.73653 0
M  V30 9149 H 894.853 -0.391743 -1.90922 0
M  V30 9150 H 893.949 0.61278 -3.06025 0
M  V30 9151 N 894.251 1.57596 -0.0117121 0
M  V30 9152 C 895.201 2.05641 0.98467 0
M  V30 9153 C 896.185 0.953422 1.2961 0
M  V30 9154 O 897.377 1.21712 1.28512 0
M  V30 9155 C 894.506 2.57285 2.27286 0
M  V30 9156 C 893.592 3.74483 1.99057 0
M  V30 9157 N 893.983 4.85741 1.41029 0
M  V30 9158 C 892.281 3.82637 2.2914 0
M  V30 9159 C 892.982 5.67094 1.29536 0
M  V30 9160 N 891.958 5.13459 1.78497 0
M  V30 9161 H 895.76 2.89069 0.530702 0
M  V30 9162 H 893.274 1.6124 0.193717 0
M  V30 9163 H 895.271 2.89988 2.99521 0
M  V30 9164 H 893.931 1.75281 2.73325 0
M  V30 9165 H 894.942 5.06352 1.08756 0
M  V30 9166 H 891.619 3.11509 2.77972 0
M  V30 9167 H 893.009 6.66525 0.848144 0
M  V30 9168 N 895.729 -0.261212 1.5542 0
M  V30 9169 C 896.957 -1.00916 1.8062 0
M  V30 9170 C 897.372 -1.79494 0.585444 0
M  V30 9171 O 896.729 -1.76974 -0.445702 0
M  V30 9172 C 896.78 -1.95841 3.03856 0
M  V30 9173 O 896.501 -1.20445 4.21218 0
M  V30 9174 C 898.002 -2.82352 3.41749 0
M  V30 9175 H 895.222 -0.297596 0.601397 0
M  V30 9176 H 897.766 -0.288427 2.02456 0
M  V30 9177 H 895.921 -2.63361 2.84112 0
M  V30 9178 H 896.335 -1.84528 4.90968 0
M  V30 9179 H 897.809 -3.44733 4.31118 0
M  V30 9180 H 898.286 -3.5273 2.61683 0
M  V30 9181 H 898.892 -2.20306 3.63793 0
M  V30 9182 N 897.207 -1.48554 -0.526253 0
M  V30 9183 C 898.432 -1.60686 -1.31129 0
M  V30 9184 C 898.857 -0.268701 -1.86171 0
M  V30 9185 O 898.215 0.760167 -1.64594 0
M  V30 9186 C 898.263 -2.65938 -2.43536 0
M  V30 9187 O 897.367 -2.23356 -3.46678 0
M  V30 9188 H 896.708 -0.538691 -0.388211 0
M  V30 9189 H 899.238 -1.94567 -0.632826 0
M  V30 9190 H 899.248 -2.87327 -2.89668 0
M  V30 9191 H 897.923 -3.63085 -2.02835 0
M  V30 9192 H 896.5 -2.12196 -3.06639 0
M  V30 9193 N 898.685 0.775411 -1.37205 0
M  V30 9194 C 899.617 1.89761 -1.28544 0
M  V30 9195 C 900.63 1.61542 -0.201996 0
M  V30 9196 O 901.819 1.72528 -0.457848 0
M  V30 9197 C 898.919 3.24904 -0.963885 0
M  V30 9198 C 898.092 3.80796 -2.15205 0
M  V30 9199 C 897.151 4.94407 -1.80135 0
M  V30 9200 O 896.177 5.10185 -2.52388 0
M  V30 9201 N 897.379 5.75722 -0.743298 0
M  V30 9202 H 900.144 1.97708 -2.25237 0
M  V30 9203 H 897.705 0.954348 -1.30782 0
M  V30 9204 H 899.697 3.9842 -0.710182 0
M  V30 9205 H 898.267 3.12483 -0.085632 0
M  V30 9206 H 897.487 2.99101 -2.56773 0
M  V30 9207 H 898.775 4.1487 -2.94552 0
M  V30 9208 H 898.173 5.65518 -0.143655 0
M  V30 9209 H 896.73 6.4948 -0.549446 0
M  V30 9210 N 900.163 1.21714 1.00117 0
M  V30 9211 C 901.409 1.03823 1.74208 0
M  V30 9212 C 901.742 -0.426733 1.89454 0
M  V30 9213 O 901.017 -1.31658 1.43166 0
M  V30 9214 C 901.3 1.74047 3.15246 0
M  V30 9215 C 901.153 3.28087 3.077 0
M  V30 9216 C 902.472 1.48614 4.14249 0
M  V30 9217 H 899.591 0.378573 0.632338 0
M  V30 9218 H 902.233 1.49942 1.16694 0
M  V30 9219 H 900.383 1.3484 3.64349 0
M  V30 9220 H 902.055 3.76686 2.6628 0
M  V30 9221 H 900.298 3.58191 2.44707 0
M  V30 9222 H 900.969 3.72392 4.07466 0
M  V30 9223 H 903.445 1.82656 3.73866 0
M  V30 9224 H 902.321 2.00257 5.11066 0
M  V30 9225 H 902.582 0.416957 4.40129 0
M  V30 9226 N 901.641 -1.19671 1.02551 0
M  V30 9227 C 902.869 -1.93233 0.739513 0
M  V30 9228 C 903.284 -1.75298 -0.701158 0
M  V30 9229 O 902.641 -1.07269 -1.47647 0
M  V30 9230 C 902.692 -3.45085 1.07697 0
M  V30 9231 O 902.413 -3.62441 2.46106 0
M  V30 9232 C 903.914 -4.35776 0.813298 0
M  V30 9233 H 901.134 -0.613905 0.270853 0
M  V30 9234 H 903.678 -1.51909 1.36909 0
M  V30 9235 H 901.833 -3.84255 0.492635 0
M  V30 9236 H 902.247 -4.56337 2.58567 0
M  V30 9237 H 903.721 -5.40941 1.09941 0
M  V30 9238 H 904.198 -4.38474 -0.252359 0
M  V30 9239 H 904.804 -4.02282 1.38021 0
M  V30 9240 N 903.119 -0.802921 -1.35613 0
M  V30 9241 C 904.53 -0.443004 -1.81368 0
M  V30 9242 C 904.881 1.03459 -1.66706 0
M  V30 9243 O 904.006 1.80372 -1.19561 0
M  V30 9244 C 904.601 -0.797324 -3.29284 0
M  V30 9245 C 903.16 -0.490055 -3.73196 0
M  V30 9246 C 902.307 -1.02487 -2.57666 0
M  V30 9247 H 905.258 -0.994888 -1.23643 0
M  V30 9248 H 905.279 -0.0934638 -3.80385 0
M  V30 9249 H 904.791 -1.87278 -3.39924 0
M  V30 9250 H 902.892 0.576818 -3.68108 0
M  V30 9251 H 903.005 -1.02012 -4.68114 0
M  V30 9252 H 901.369 -0.44738 -2.5074 0
M  V30 9253 H 902.152 -2.10636 -2.71085 0
M  V30 9254 N 904.597 1.47463 -0.556102 0
M  V30 9255 C 905.822 2.07371 -0.0344729 0
M  V30 9256 C 906.247 1.40621 1.2493 0
M  V30 9257 O 905.605 0.48082 1.74808 0
M  V30 9258 C 905.653 3.60306 0.145563 0
M  V30 9259 O 904.757 3.94299 1.20839 0
M  V30 9260 H 904.098 0.662052 -0.0508274 0
M  V30 9261 H 906.628 1.89498 -0.771469 0
M  V30 9262 H 906.638 4.06408 0.360112 0
M  V30 9263 H 905.313 4.08288 -0.792089 0
M  V30 9264 H 903.89 3.59944 0.97442 0
M  V30 9265 N 906.075 0.2925 1.54862 0
M  V30 9266 C 907.352 -0.371946 1.92031 0
M  V30 9267 C 907.732 -1.72363 1.21878 0
M  V30 9268 O 907.08 -2.25779 0.351573 0
M  V30 9269 C 907.29 -0.495027 3.45471 0
M  V30 9270 C 908.638 -0.769855 4.17562 0
M  V30 9271 O 909.662 -0.579168 3.5146 0
M  V30 9272 O 908.521 -1.13561 5.34571 0
M  V30 9273 H 905.615 -0.206463 0.800813 0
M  V30 9274 H 908.161 0.339933 1.6626 0
M  V30 9275 H 906.933 0.455528 3.88639 0
M  V30 9276 H 906.556 -1.2557 3.7725 0
M  V30 9277 N 907.553 -1.57587 0.0200696 0
M  V30 9278 C 908.781 -1.95718 -0.670964 0
M  V30 9279 C 909.196 -0.896081 -1.6618 0
M  V30 9280 O 908.553 0.123037 -1.82085 0
M  V30 9281 C 908.604 -3.33904 -1.38529 0
M  V30 9282 O 908.325 -4.35943 -0.434167 0
M  V30 9283 C 909.826 -3.86614 -2.16898 0
M  V30 9284 H 907.046 -0.644819 -0.185606 0
M  V30 9285 H 909.59 -2.04354 0.0771495 0
M  V30 9286 H 907.745 -3.26515 -2.08487 0
M  V30 9287 H 908.159 -5.16001 -0.940378 0
M  V30 9288 H 909.633 -4.85673 -2.62346 0
M  V30 9289 H 910.11 -3.20379 -3.00423 0
M  V30 9290 H 910.716 -3.97243 -1.51916 0
M  V30 9291 N 909.032 0.252966 -1.55557 0
M  V30 9292 C 909.965 1.33928 -1.84766 0
M  V30 9293 C 910.943 1.46653 -0.702254 0
M  V30 9294 O 912.127 1.62963 -0.947375 0
M  V30 9295 C 909.254 2.71348 -2.02701 0
M  V30 9296 C 908.3 2.75804 -3.25322 0
M  V30 9297 S 909.133 2.33025 -4.82141 0
M  V30 9298 C 910.289 3.72382 -5.03073 0
M  V30 9299 H 910.522 1.08951 -2.76617 0
M  V30 9300 H 908.055 0.45364 -1.47585 0
M  V30 9301 H 910.013 3.50478 -2.13718 0
M  V30 9302 H 908.674 2.93566 -1.11703 0
M  V30 9303 H 907.867 3.76713 -3.34819 0
M  V30 9304 H 907.469 2.04713 -3.12999 0
M  V30 9305 H 909.761 4.67828 -4.90044 0
M  V30 9306 H 910.704 3.67824 -6.05071 0
M  V30 9307 H 911.112 3.64614 -4.30949 0
M  V30 9308 N 910.51 1.48831 0.518367 0
M  V30 9309 C 911.442 1.60317 1.63802 0
M  V30 9310 C 912.455 0.486771 1.55352 0
M  V30 9311 O 913.644 0.758111 1.61601 0
M  V30 9312 C 910.744 1.52771 3.02513 0
M  V30 9313 C 909.917 2.79649 3.36326 0
M  V30 9314 C 908.976 2.65396 4.54369 0
M  V30 9315 O 908.002 3.39304 4.57013 0
M  V30 9316 N 909.204 1.75784 5.53245 0
M  V30 9317 H 911.969 2.56878 1.54383 0
M  V30 9318 H 909.53 1.45701 0.705889 0
M  V30 9319 H 911.522 1.40914 3.79375 0
M  V30 9320 H 910.092 0.641381 3.05949 0
M  V30 9321 H 909.312 3.05985 2.48529 0
M  V30 9322 H 910.6 3.63799 3.55707 0
M  V30 9323 H 909.998 1.14961 5.53896 0
M  V30 9324 H 908.555 1.69859 6.29278 0
M  V30 9325 N 911.988 -0.768124 1.37614 0
M  V30 9326 C 913.216 -1.55726 1.36224 0
M  V30 9327 C 913.631 -1.8873 -0.0515357 0
M  V30 9328 O 912.988 -1.51718 -1.0143 0
M  V30 9329 C 913.039 -2.86533 2.20412 0
M  V30 9330 O 912.76 -2.54942 3.56281 0
M  V30 9331 C 914.261 -3.80745 2.27041 0
M  V30 9332 H 911.481 -0.482325 0.46648 0
M  V30 9333 H 914.025 -0.95176 1.81002 0
M  V30 9334 H 912.18 -3.43496 1.79134 0
M  V30 9335 H 912.594 -3.38732 4.00451 0
M  V30 9336 H 914.068 -4.69523 2.90263 0
M  V30 9337 H 914.545 -4.20138 1.27987 0
M  V30 9338 H 915.151 -3.2971 2.68647 0
M  V30 9339 N 913.466 -1.22244 -0.994698 0
M  V30 9340 C 914.882 -0.982006 -1.25813 0
M  V30 9341 C 915.082 0.325488 -1.98854 0
M  V30 9342 O 914.138 1.04857 -2.29698 0
M  V30 9343 C 915.451 -2.1795 -2.07167 0
M  V30 9344 C 916.999 -2.22287 -2.20358 0
M  V30 9345 C 917.474 -3.41583 -3.05098 0
M  V30 9346 N 918.965 -3.41734 -3.12686 0
M  V30 9347 C 919.7 -4.30692 -3.78539 0
M  V30 9348 N 919.196 -5.29865 -4.46335 0
M  V30 9349 N 920.989 -4.18473 -3.75283 0
M  V30 9350 H 913.14 -2.0631 -0.504963 0
M  V30 9351 H 915.403 -0.90395 -0.285618 0
M  V30 9352 H 915.109 -3.12758 -1.60858 0
M  V30 9353 H 914.983 -2.17862 -3.07922 0
M  V30 9354 H 917.37 -1.28028 -2.65881 0
M  V30 9355 H 917.451 -2.26414 -1.19039 0
M  V30 9356 H 917.095 -4.36141 -2.60275 0
M  V30 9357 H 917.025 -3.34695 -4.06555 0
M  V30 9358 H 919.516 -2.69969 -2.64433 0
M  V30 9359 H 919.829 -5.94027 -4.9432 0
M  V30 9360 H 918.174 -5.3378 -4.45089 0
M  V30 9361 H 921.365 -3.40249 -3.21478 0
M  V30 9362 H 921.538 -4.88007 -4.26326 0
M  V30 9363 N 914.944 1.19125 -1.03184 0
M  V30 9364 C 915.894 2.20348 -0.585731 0
M  V30 9365 C 916.878 1.56656 0.367109 0
M  V30 9366 O 918.07 1.76003 0.187598 0
M  V30 9367 C 915.199 3.43249 0.0590006 0
M  V30 9368 C 914.285 4.1408 -0.916457 0
M  V30 9369 N 914.676 4.61051 -2.08005 0
M  V30 9370 C 912.974 4.39809 -0.74054 0
M  V30 9371 C 913.675 5.15477 -2.69552 0
M  V30 9372 N 912.651 5.06456 -1.97493 0
M  V30 9373 H 916.453 2.54346 -1.47259 0
M  V30 9374 H 913.967 1.35232 -0.899225 0
M  V30 9375 H 915.964 4.15013 0.396236 0
M  V30 9376 H 914.624 3.1075 0.941507 0
M  V30 9377 H 915.635 4.55782 -2.45934 0
M  V30 9378 H 912.312 4.17397 0.0926238 0
M  V30 9379 H 913.702 5.62088 -3.68112 0
M  V30 9380 N 916.422 0.810101 1.35185 0
M  V30 9381 C 917.668 0.392698 1.98962 0
M  V30 9382 C 918.001 -1.03835 1.64109 0
M  V30 9383 O 917.276 -1.721 0.9062 0
M  V30 9384 C 917.559 0.580349 3.55393 0
M  V30 9385 C 917.412 2.05658 4.00031 0
M  V30 9386 C 918.731 0.00822618 4.40099 0
M  V30 9387 H 915.85 0.144157 0.722764 0
M  V30 9388 H 918.492 1.02029 1.60281 0
M  V30 9389 H 916.642 0.0461106 3.88473 0
M  V30 9390 H 918.314 2.65348 3.77344 0
M  V30 9391 H 916.557 2.55174 3.50811 0
M  V30 9392 H 917.228 2.13875 5.08883 0
M  V30 9393 H 919.704 0.464517 4.13499 0
M  V30 9394 H 918.58 0.169414 5.48638 0
M  V30 9395 H 918.841 -1.08576 4.2856 0
M  V30 9396 N 917.9 -1.47166 0.563914 0
M  V30 9397 C 918.847 -2.30097 -0.180013 0
M  V30 9398 C 919.817 -1.39473 -0.902019 0
M  V30 9399 O 921.002 -1.68432 -0.896396 0
M  V30 9400 C 918.142 -3.23573 -1.19978 0
M  V30 9401 C 917.255 -4.2929 -0.483149 0
M  V30 9402 C 916.39 -5.0991 -1.48879 0
M  V30 9403 C 915.429 -6.07395 -0.757513 0
M  V30 9404 N 914.566 -6.8095 -1.71031 0
M  V30 9405 H 919.406 -2.93189 0.53329 0
M  V30 9406 H 916.943 -1.4451 0.274814 0
M  V30 9407 H 918.901 -3.76196 -1.80368 0
M  V30 9408 H 917.531 -2.6233 -1.88103 0
M  V30 9409 H 916.583 -3.79671 0.235414 0
M  V30 9410 H 917.895 -4.9872 0.0894075 0
M  V30 9411 H 917.049 -5.66717 -2.16603 0
M  V30 9412 H 915.788 -4.40397 -2.09527 0
M  V30 9413 H 914.793 -5.4976 -0.0663841 0
M  V30 9414 H 916.018 -6.78919 -0.156685 0
M  V30 9415 H 913.964 -6.14162 -2.30524 0
M  V30 9416 H 913.881 -7.46574 -1.19007 0
M  V30 9417 H 915.149 -7.42326 -2.37849 0
M  V30 9418 N 919.378 -0.300708 -1.54705 0
M  V30 9419 C 920.326 0.591264 -2.2496 0
M  V30 9420 C 921.32 1.13725 -1.2555 0
M  V30 9421 O 922.526 1.08793 -1.43402 0
M  V30 9422 H 918.901 0.209278 -0.722293 0
M  V30 9423 H 920.872 -0.0238175 -2.9839 0
M  V30 9424 C 919.621 1.75179 -3.00346 0
M  V30 9425 H 918.944 1.34089 -3.76643 0
M  V30 9426 H 920.384 2.35198 -3.52786 0
M  V30 9427 C 918.843 2.65574 -2.07298 0
M  V30 9428 O 919.373 3.6666 -1.64083 0
M  V30 9429 N 917.579 2.33301 -1.7326 0
M  V30 9430 H 917.126 1.51142 -2.08599 0
M  V30 9431 H 917.084 2.94049 -1.11278 0
M  V30 9432 N 920.856 1.57574 -0.0284266 0
M  V30 9433 C 922.086 1.95787 0.659617 0
M  V30 9434 C 922.494 0.903475 1.66235 0
M  V30 9435 O 921.837 -0.12329 1.83286 0
M  V30 9436 C 921.899 3.30139 1.42298 0
M  V30 9437 C 921.563 4.53322 0.578658 0
M  V30 9438 C 922.56 5.19696 -0.145751 0
M  V30 9439 C 920.245 4.9964 0.516264 0
M  V30 9440 C 922.239 6.30708 -0.921235 0
M  V30 9441 C 919.926 6.10534 -0.262925 0
M  V30 9442 C 920.924 6.75927 -0.980382 0
M  V30 9443 O 920.612 7.84692 -1.7468 0
M  V30 9444 H 920.344 0.649681 0.186792 0
M  V30 9445 H 922.898 2.05227 -0.0842687 0
M  V30 9446 H 921.128 3.17188 2.21199 0
M  V30 9447 H 922.817 3.53259 1.99906 0
M  V30 9448 H 923.583 4.84882 -0.106876 0
M  V30 9449 H 919.462 4.48547 1.06427 0
M  V30 9450 H 923.006 6.81682 -1.48176 0
M  V30 9451 H 918.903 6.44786 -0.303519 0
M  V30 9452 H 919.671 8.01355 -1.6665 0
M  V30 9453 N 922.334 -0.244713 1.55689 0
M  V30 9454 C 923.284 -1.30596 1.86892 0
M  V30 9455 C 924.268 -1.43388 0.729972 0
M  V30 9456 O 925.46 -1.46593 0.99194 0
M  V30 9457 C 922.589 -2.66099 2.16902 0
M  V30 9458 C 921.675 -2.57302 3.37129 0
M  V30 9459 N 922.066 -2.18139 4.56343 0
M  V30 9460 C 920.364 -2.88311 3.40283 0
M  V30 9461 C 921.065 -2.20028 5.38482 0
M  V30 9462 N 920.041 -2.59616 4.77599 0
M  V30 9463 H 923.843 -0.993699 2.76591 0
M  V30 9464 H 921.357 -0.453334 1.55944 0
M  V30 9465 H 923.354 -3.4269 2.37422 0
M  V30 9466 H 922.014 -2.9819 1.28502 0
M  V30 9467 H 923.025 -1.89647 4.81928 0
M  V30 9468 H 919.702 -3.24928 2.62161 0
M  V30 9469 H 921.092 -1.9207 6.43862 0
M  V30 9470 N 923.813 -1.49104 -0.510467 0
M  V30 9471 C 925.038 -1.62068 -1.29417 0
M  V30 9472 C 925.463 -0.288432 -1.85875 0
M  V30 9473 O 924.821 0.742667 -1.65391 0
M  V30 9474 C 924.869 -2.68506 -2.40701 0
M  V30 9475 O 923.973 -2.27021 -3.4429 0
M  V30 9476 H 923.314 -0.542778 -0.382476 0
M  V30 9477 H 925.844 -1.95228 -0.612154 0
M  V30 9478 H 925.854 -2.90383 -2.86604 0
M  V30 9479 H 924.529 -3.65216 -1.98973 0
M  V30 9480 H 923.106 -2.15436 -3.04371 0
M  V30 9481 N 925.291 0.760815 -1.38019 0
M  V30 9482 C 926.707 1.06289 -1.19058 0
M  V30 9483 C 926.907 2.01471 -0.0342603 0
M  V30 9484 O 925.963 2.44713 0.62224 0
M  V30 9485 C 927.276 1.6499 -2.51394 0
M  V30 9486 C 928.824 1.77196 -2.58013 0
M  V30 9487 C 929.299 2.3931 -3.90506 0
M  V30 9488 N 930.79 2.46749 -3.92007 0
M  V30 9489 C 931.525 2.95687 -4.91281 0
M  V30 9490 N 931.021 3.44715 -6.00952 0
M  V30 9491 N 932.814 2.94661 -4.78677 0
M  V30 9492 H 924.965 0.129045 -2.12008 0
M  V30 9493 H 927.228 0.119878 -0.94039 0
M  V30 9494 H 926.934 1.0252 -3.36426 0
M  V30 9495 H 926.808 2.64146 -2.6927 0
M  V30 9496 H 929.195 2.38796 -1.7338 0
M  V30 9497 H 929.276 0.767645 -2.4401 0
M  V30 9498 H 928.92 1.78346 -4.75558 0
M  V30 9499 H 928.85 3.40369 -4.01817 0
M  V30 9500 H 931.341 2.12064 -3.12789 0
M  V30 9501 H 931.654 3.80492 -6.72641 0
M  V30 9502 H 929.999 3.42791 -6.04582 0
M  V30 9503 H 933.19 2.55665 -3.92113 0
M  V30 9504 H 933.363 3.32489 -5.56197 0
M  V30 9505 N 926.769 1.22769 0.988202 0
M  V30 9506 C 927.994 1.08239 1.76915 0
M  V30 9507 C 928.419 -0.362519 1.84574 0
M  V30 9508 O 927.777 -1.26202 1.30165 0
M  V30 9509 C 927.825 1.70363 3.17819 0
M  V30 9510 O 926.929 0.960484 4.01059 0
M  V30 9511 H 926.27 0.379872 0.544604 0
M  V30 9512 H 928.8 1.62663 1.24104 0
M  V30 9513 H 928.81 1.7528 3.6843 0
M  V30 9514 H 927.485 2.75505 3.1156 0
M  V30 9515 H 926.062 0.987667 3.59582 0
M  V30 9516 N 928.247 -1.18576 1.03814 0
M  V30 9517 C 929.157 -2.25778 0.637311 0
M  V30 9518 C 930.173 -1.7074 -0.335248 0
M  V30 9519 O 931.349 -2.00494 -0.19081 0
M  V30 9520 C 928.414 -3.467 0.00386953 0
M  V30 9521 C 927.475 -4.16881 1.02511 0
M  V30 9522 C 926.708 -5.32031 0.421802 0
M  V30 9523 O 926.931 -5.65142 -0.772699 0
M  V30 9524 O 925.865 -5.90826 1.14925 0
M  V30 9525 H 929.691 -2.62323 1.53037 0
M  V30 9526 H 927.276 -1.25609 0.80887 0
M  V30 9527 H 929.158 -4.19953 -0.348873 0
M  V30 9528 H 927.833 -3.11983 -0.863047 0
M  V30 9529 H 926.74 -3.45707 1.4296 0
M  V30 9530 H 928.073 -4.55592 1.86271 0
M  V30 9531 N 929.725 -0.817259 -1.34754 0
M  V30 9532 C 930.95 -0.414423 -2.03217 0
M  V30 9533 C 931.375 0.970037 -1.61158 0
M  V30 9534 O 930.733 1.63016 -0.793436 0
M  V30 9535 C 930.781 -0.518087 -3.56859 0
M  V30 9536 O 929.885 0.464314 -4.09778 0
M  V30 9537 H 929.226 -0.171454 -0.641482 0
M  V30 9538 H 931.756 -1.10611 -1.72123 0
M  V30 9539 H 931.766 -0.391779 -4.06115 0
M  V30 9540 H 930.441 -1.52786 -3.86819 0
M  V30 9541 H 929.018 0.297361 -3.71712 0
M  V30 9542 N 931.203 1.46865 -0.571711 0
M  V30 9543 C 932.431 2.06818 -0.0583975 0
M  V30 9544 C 932.846 1.42218 1.24175 0
M  V30 9545 O 932.203 0.523655 1.74826 0
M  V30 9546 C 932.254 3.61281 0.125673 0
M  V30 9547 O 931.975 4.23462 -1.123 0
M  V30 9548 C 933.476 4.38137 0.674604 0
M  V30 9549 H 930.696 0.668948 -0.052438 0
M  V30 9550 H 933.24 1.88656 -0.789251 0
M  V30 9551 H 931.395 3.78908 0.806707 0
M  V30 9552 H 931.809 5.16192 -0.929869 0
M  V30 9553 H 933.283 5.46845 0.752626 0
M  V30 9554 H 933.76 4.05419 1.68915 0
M  V30 9555 H 934.366 4.2529 0.0287979 0
M  V30 9556 N 932.681 0.308908 1.54543 0
M  V30 9557 C 933.927 -0.298478 2.00592 0
M  V30 9558 C 934.26 -1.52929 1.19692 0
M  V30 9559 O 933.535 -1.9254 0.27542 0
M  V30 9560 C 933.818 -0.647218 3.54236 0
M  V30 9561 C 933.671 0.593284 4.4587 0
M  V30 9562 C 934.99 -1.47064 4.14801 0
M  V30 9563 H 932.109 -0.107012 0.72919 0
M  V30 9564 H 934.751 0.422578 1.85241 0
M  V30 9565 H 932.901 -1.26153 3.67447 0
M  V30 9566 H 934.573 1.2317 4.44552 0
M  V30 9567 H 932.816 1.22501 4.16144 0
M  V30 9568 H 933.487 0.305018 5.51157 0
M  V30 9569 H 935.963 -0.951511 4.05075 0
M  V30 9570 H 934.839 -1.68343 5.22448 0
M  V30 9571 H 935.1 -2.4623 3.67183 0
M  V30 9572 N 934.159 -1.57557 0.0367827 0
M  V30 9573 C 935.069 -2.14148 -0.958017 0
M  V30 9574 C 936.085 -1.09564 -1.35173 0
M  V30 9575 O 937.261 -1.4166 -1.43158 0
M  V30 9576 C 934.326 -2.6636 -2.21931 0
M  V30 9577 C 933.387 -3.85688 -1.8853 0
M  V30 9578 C 932.62 -4.35401 -3.08645 0
M  V30 9579 O 932.843 -3.8425 -4.21554 0
M  V30 9580 O 931.777 -5.27158 -2.90497 0
M  V30 9581 H 935.603 -2.99442 -0.506797 0
M  V30 9582 H 933.188 -1.48259 -0.184275 0
M  V30 9583 H 935.07 -2.99976 -2.9596 0
M  V30 9584 H 933.745 -1.84145 -2.66219 0
M  V30 9585 H 932.652 -3.56985 -1.11861 0
M  V30 9586 H 933.985 -4.69089 -1.49052 0
M  V30 9587 N 935.637 0.236453 -1.55816 0
M  V30 9588 C 936.585 1.31259 -1.92025 0
M  V30 9589 C 937.579 1.49292 -0.800518 0
M  V30 9590 O 938.785 1.50643 -0.985229 0
M  V30 9591 H 935.16 0.439751 -0.610019 0
M  V30 9592 H 937.131 0.979926 -2.81851 0
M  V30 9593 C 935.88 2.65892 -2.24046 0
M  V30 9594 H 935.203 2.5282 -3.09713 0
M  V30 9595 H 936.643 3.40039 -2.53277 0
M  V30 9596 C 935.102 3.19777 -1.0604 0
M  V30 9597 O 935.632 4.00473 -0.313786 0
M  V30 9598 N 933.838 2.77946 -0.848209 0
M  V30 9599 H 933.385 2.12433 -1.45706 0
M  V30 9600 H 933.343 3.14342 -0.0603424 0
M  V30 9601 N 937.115 1.49373 0.502552 0
M  V30 9602 C 938.362 1.58781 1.25678 0
M  V30 9603 C 938.69 0.273819 1.92563 0
M  V30 9604 O 937.945 -0.738141 1.81246 0
M  V30 9605 C 938.244 2.69508 2.34735 0
M  V30 9606 C 937.91 4.11057 1.85318 0
M  V30 9607 C 936.572 4.49578 1.7156 0
M  V30 9608 C 938.924 4.99653 1.48312 0
M  V30 9609 C 936.252 5.74469 1.19172 0
M  V30 9610 C 938.604 6.2506 0.97377 0
M  V30 9611 C 937.268 6.62412 0.822573 0
M  V30 9612 H 936.538 0.581021 0.459887 0
M  V30 9613 H 939.185 1.83197 0.557767 0
M  V30 9614 H 937.49 2.39057 3.10418 0
M  V30 9615 H 939.187 2.73997 2.92791 0
M  V30 9616 H 935.777 3.80651 1.96985 0
M  V30 9617 H 939.961 4.70549 1.57789 0
M  V30 9618 H 935.217 6.0211 1.06176 0
M  V30 9619 H 939.391 6.93089 0.678233 0
M  V30 9620 H 937.018 7.59069 0.414453 0
M  V30 9621 N 938.594 -0.753485 1.38421 0
M  V30 9622 C 939.524 -1.8808 1.38377 0
M  V30 9623 C 940.505 -1.68258 0.249664 0
M  V30 9624 O 941.69 -1.88848 0.45276 0
M  V30 9625 C 938.82 -3.25608 1.20818 0
M  V30 9626 C 937.774 -3.60032 2.31433 0
M  V30 9627 C 937.1 -4.96297 1.9898 0
M  V30 9628 C 938.4 -3.64898 3.73694 0
M  V30 9629 H 940.094 -1.88375 2.32713 0
M  V30 9630 H 937.64 -0.90489 1.12017 0
M  V30 9631 H 939.593 -4.04127 1.19412 0
M  V30 9632 H 938.317 -3.25793 0.229433 0
M  V30 9633 H 936.976 -2.83831 2.32025 0
M  V30 9634 H 936.624 -4.93043 0.995889 0
M  V30 9635 H 936.324 -5.20298 2.73063 0
M  V30 9636 H 937.848 -5.77196 1.99193 0
M  V30 9637 H 939.262 -4.33531 3.75132 0
M  V30 9638 H 937.659 -4.00407 4.46983 0
M  V30 9639 H 938.729 -2.65124 4.06002 0
M  V30 9640 N 940.072 -1.23292 -0.981677 0
M  V30 9641 C 941.32 -1.06214 -1.71939 0
M  V30 9642 C 941.641 0.401989 -1.90812 0
M  V30 9643 O 940.911 1.28825 -1.47584 0
M  V30 9644 H 939.491 -0.390042 -0.637084 0
M  V30 9645 H 942.153 -1.54988 -1.18173 0
M  V30 9646 H 941.249 -1.54904 -2.70945 0
M  V30 9647 N 941.55 1.18024 -1.04442 0
M  V30 9648 C 942.966 1.40107 -0.76435 0
M  V30 9649 C 943.166 1.90914 0.644516 0
M  V30 9650 O 942.222 2.0959 1.40813 0
M  V30 9651 C 943.535 2.39851 -1.81361 0
M  V30 9652 C 945.083 2.53571 -1.83496 0
M  V30 9653 C 945.558 3.56583 -2.87424 0
M  V30 9654 N 947.049 3.64094 -2.86339 0
M  V30 9655 C 947.784 4.43537 -3.63405 0
M  V30 9656 N 947.28 5.26557 -4.50233 0
M  V30 9657 N 949.073 4.38336 -3.51877 0
M  V30 9658 H 941.224 0.833726 -1.95353 0
M  V30 9659 H 943.487 0.42881 -0.845474 0
M  V30 9660 H 943.193 2.09576 -2.82438 0
M  V30 9661 H 943.067 3.39251 -1.6489 0
M  V30 9662 H 945.454 2.83161 -0.830883 0
M  V30 9663 H 945.535 1.54272 -2.04044 0
M  V30 9664 H 945.179 3.27733 -3.88012 0
M  V30 9665 H 945.109 4.55569 -2.6413 0
M  V30 9666 H 947.6 3.04814 -2.23376 0
M  V30 9667 H 947.913 5.84336 -5.05738 0
M  V30 9668 H 946.258 5.25964 -4.54298 0
M  V30 9669 H 949.449 3.72528 -2.83444 0
M  V30 9670 H 949.622 5.00007 -4.12186 0
M  V30 9671 N 943.028 0.824394 1.34319 0
M  V30 9672 C 944.253 0.425194 2.02995 0
M  V30 9673 C 944.678 -0.961476 1.6167 0
M  V30 9674 O 944.036 -1.62593 0.80207 0
M  V30 9675 C 944.084 0.537004 3.56579 0
M  V30 9676 O 943.188 -0.442576 4.10018 0
M  V30 9677 H 942.529 0.174853 0.640564 0
M  V30 9678 H 945.059 1.11522 1.71534 0
M  V30 9679 H 945.069 0.413311 4.05901 0
M  V30 9680 H 943.744 1.54836 3.86004 0
M  V30 9681 H 942.321 -0.277644 3.71865 0
M  V30 9682 N 944.506 -1.46559 0.579492 0
M  V30 9683 C 945.469 -2.28739 -0.145371 0
M  V30 9684 C 946.469 -1.38211 -0.821854 0
M  V30 9685 O 947.659 -1.6062 -0.674302 0
M  V30 9686 C 944.791 -3.18507 -1.21515 0
M  V30 9687 H 945.984 -2.94301 0.576786 0
M  V30 9688 H 943.537 -1.52616 0.337327 0
M  V30 9689 H 944.272 -2.57685 -1.96899 0
M  V30 9690 H 944.057 -3.85157 -0.734616 0
M  V30 9691 H 945.547 -3.80369 -1.72363 0
M  V30 9692 N 945.984 -0.3171 -1.54377 0
M  V30 9693 C 947.224 0.288083 -2.0236 0
M  V30 9694 C 947.588 1.4985 -1.20038 0
M  V30 9695 O 948.789 2.17611 -1.57794 0
M  V30 9696 C 947.06 0.620192 -3.51978 0
M  V30 9697 S 948.619 1.20595 -4.21903 0
M  V30 9698 H 945.437 0.0875231 -0.705592 0
M  V30 9699 H 948.039 -0.448719 -1.90281 0
M  V30 9700 H 946.743 -0.268982 -4.09518 0
M  V30 9701 H 946.274 1.38736 -3.68125 0
M  V30 9702 H 948.289 2.49308 -4.29022 0
M  V30 9703 N 947.462 1.57535 -0.0451378 0
M  V30 9704 C 948.708 1.92736 0.630921 0
M  V30 9705 C 949.041 0.923265 1.70849 0
M  V30 9706 O 948.316 -0.0516512 1.94431 0
M  V30 9707 C 948.599 3.38348 1.23259 0
M  V30 9708 C 948.452 4.49503 0.16349 0
M  V30 9709 C 949.771 3.84233 2.14599 0
M  V30 9710 H 946.89 0.700884 0.227883 0
M  V30 9711 H 949.532 1.89706 -0.10567 0
M  V30 9712 H 947.682 3.41061 1.86037 0
M  V30 9713 H 949.354 4.58919 -0.46808 0
M  V30 9714 H 947.597 4.30802 -0.509166 0
M  V30 9715 H 948.268 5.48457 0.624382 0
M  V30 9716 H 950.744 3.83358 1.6179 0
M  V30 9717 H 949.62 4.86781 2.53644 0
M  V30 9718 H 949.881 3.20646 3.04366 0
M  V30 9719 N 948.94 -0.228186 1.55939 0
M  V30 9720 C 950.17 -0.969211 1.82455 0
M  V30 9721 C 950.578 -1.78714 0.621133 0
M  V30 9722 O 949.921 -1.78841 -0.419694 0
M  V30 9723 C 949.983 -1.94088 3.02605 0
M  V30 9724 C 949.647 -1.30811 4.37878 0
M  V30 9725 C 950.644 -0.701275 5.15149 0
M  V30 9726 C 948.329 -1.32187 4.84595 0
M  V30 9727 C 950.323 -0.116631 6.37293 0
M  V30 9728 C 948.01 -0.733375 6.06683 0
M  V30 9729 C 949.008 -0.131804 6.82873 0
M  V30 9730 O 948.696 0.447549 8.02653 0
M  V30 9731 H 948.428 -0.289951 0.610659 0
M  V30 9732 H 950.982 -0.250576 2.03866 0
M  V30 9733 H 949.212 -2.69833 2.76996 0
M  V30 9734 H 950.901 -2.5469 3.1605 0
M  V30 9735 H 951.667 -0.683022 4.80166 0
M  V30 9736 H 947.546 -1.77949 4.25271 0
M  V30 9737 H 951.09 0.353539 6.96704 0
M  V30 9738 H 946.987 -0.749019 6.4114 0
M  V30 9739 H 947.755 0.341224 8.17788 0
M  V30 9740 N 950.418 -1.49637 -0.494624 0
M  V30 9741 C 951.351 -1.61387 -1.61337 0
M  V30 9742 C 952.329 -0.462704 -1.55878 0
M  V30 9743 O 953.513 -0.679103 -1.75842 0
M  V30 9744 C 950.64 -1.57471 -2.99867 0
M  V30 9745 C 949.686 -2.77863 -3.23565 0
M  V30 9746 S 950.519 -4.3946 -3.05999 0
M  V30 9747 C 951.675 -4.382 -4.46914 0
M  V30 9748 H 951.908 -2.56024 -1.51126 0
M  V30 9749 H 949.441 -1.38607 -0.680253 0
M  V30 9750 H 951.399 -1.55898 -3.79745 0
M  V30 9751 H 950.06 -0.641107 -3.07488 0
M  V30 9752 H 949.253 -2.71361 -4.24711 0
M  V30 9753 H 948.855 -2.76882 -2.51421 0
M  V30 9754 H 951.147 -4.10312 -5.3912 0
M  V30 9755 H 952.09 -5.39645 -4.58464 0
M  V30 9756 H 952.498 -3.68197 -4.27891 0
M  V30 9757 N 951.896 0.746133 -1.38819 0
M  V30 9758 C 952.806 1.89063 -1.38897 0
M  V30 9759 C 953.822 1.71648 -0.28513 0
M  V30 9760 O 954.998 1.94443 -0.524783 0
M  V30 9761 C 952.063 3.24523 -1.22007 0
M  V30 9762 C 951.124 3.54411 -2.42263 0
M  V30 9763 C 950.357 4.83408 -2.26169 0
M  V30 9764 O 950.58 5.56325 -1.25931 0
M  V30 9765 O 949.514 5.12943 -3.14918 0
M  V30 9766 H 953.34 1.91951 -2.35347 0
M  V30 9767 H 950.925 0.892433 -1.19816 0
M  V30 9768 H 952.807 4.05496 -1.14677 0
M  V30 9769 H 951.482 3.2243 -0.286455 0
M  V30 9770 H 950.389 2.73569 -2.55168 0
M  V30 9771 H 951.722 3.61273 -3.3428 0
M  V30 9772 N 953.375 1.23811 0.975125 0
M  V30 9773 C 954.285 1.0408 2.10249 0
M  V30 9774 C 955.301 -0.0162404 1.73992 0
M  V30 9775 O 956.477 0.180346 2.00591 0
M  V30 9776 C 953.542 0.640013 3.40741 0
M  V30 9777 C 952.603 1.7727 3.90991 0
M  V30 9778 C 951.836 1.39094 5.15256 0
M  V30 9779 O 952.059 0.277483 5.69725 0
M  V30 9780 O 950.993 2.21392 5.59704 0
M  V30 9781 H 954.819 1.98575 2.29786 0
M  V30 9782 H 952.404 1.02563 1.08633 0
M  V30 9783 H 954.286 0.427684 4.19224 0
M  V30 9784 H 952.961 -0.27589 3.22522 0
M  V30 9785 H 951.868 2.03971 3.13602 0
M  V30 9786 H 953.201 2.66711 4.13674 0
M  V30 9787 N 954.853 -1.17469 1.05066 0
M  V30 9788 C 956.083 -1.91343 0.779202 0
M  V30 9789 C 956.491 -1.76986 -0.668764 0
M  V30 9790 O 955.834 -1.1037 -1.46848 0
M  V30 9791 C 955.896 -3.42938 1.0786 0
M  V30 9792 C 955.56 -3.81076 2.52249 0
M  V30 9793 C 956.557 -3.84027 3.50456 0
M  V30 9794 C 954.242 -4.12076 2.87225 0
M  V30 9795 C 956.236 -4.17445 4.81683 0
M  V30 9796 C 953.923 -4.45163 4.18656 0
M  V30 9797 C 954.921 -4.47825 5.15696 0
M  V30 9798 O 954.609 -4.80133 6.44769 0
M  V30 9799 H 954.341 -0.613974 0.282863 0
M  V30 9800 H 956.895 -1.49907 1.40417 0
M  V30 9801 H 955.125 -3.84662 0.39653 0
M  V30 9802 H 956.814 -3.98071 0.793357 0
M  V30 9803 H 957.58 -3.60203 3.24775 0
M  V30 9804 H 953.459 -4.09176 2.12358 0
M  V30 9805 H 957.003 -4.19437 5.57421 0
M  V30 9806 H 952.9 -4.68449 4.44101 0
M  V30 9807 H 953.668 -4.97995 6.49571 0
M  V30 9808 N 956.331 -0.831506 -1.3388 0
M  V30 9809 C 957.278 -0.257449 -2.2936 0
M  V30 9810 C 958.248 0.622604 -1.5399 0
M  V30 9811 O 959.433 0.562432 -1.82322 0
M  V30 9812 C 956.573 0.567587 -3.404 0
M  V30 9813 C 955.686 -0.335666 -4.30694 0
M  V30 9814 C 954.821 0.499762 -5.28844 0
M  V30 9815 C 953.86 -0.402343 -6.10776 0
M  V30 9816 N 952.997 0.39452 -7.00991 0
M  V30 9817 H 957.837 -1.077 -2.77857 0
M  V30 9818 H 955.374 -0.542589 -1.36727 0
M  V30 9819 H 957.332 1.06133 -4.03474 0
M  V30 9820 H 955.962 1.35217 -2.93115 0
M  V30 9821 H 955.014 -0.94768 -3.68406 0
M  V30 9822 H 956.326 -1.02896 -4.88072 0
M  V30 9823 H 955.48 1.05763 -5.9741 0
M  V30 9824 H 954.219 1.22652 -4.72025 0
M  V30 9825 H 953.224 -0.972288 -5.41135 0
M  V30 9826 H 954.449 -1.12735 -6.69677 0
M  V30 9827 H 952.395 1.1048 -6.4663 0
M  V30 9828 H 952.312 -0.240209 -7.55618 0
M  V30 9829 H 953.58 0.934867 -7.73874 0
M  V30 9830 N 957.809 1.4625 -0.587256 0
M  V30 9831 C 959.037 2.06744 -0.08033 0
M  V30 9832 C 959.452 1.43527 1.2266 0
M  V30 9833 O 958.809 0.542168 1.74261 0
M  V30 9834 C 958.86 3.61394 0.0873469 0
M  V30 9835 O 958.581 4.22247 -1.16785 0
M  V30 9836 C 960.082 4.38828 0.628095 0
M  V30 9837 H 957.302 0.668354 -0.0595301 0
M  V30 9838 H 959.846 1.87808 -0.809217 0
M  V30 9839 H 958.001 3.79742 0.766473 0
M  V30 9840 H 958.415 5.15176 -0.984565 0
M  V30 9841 H 959.889 5.47613 0.694583 0
M  V30 9842 H 960.366 4.07188 1.64606 0
M  V30 9843 H 960.972 4.25297 -0.0163115 0
M  V30 9844 N 959.287 0.325282 1.54207 0
M  V30 9845 C 960.515 -0.27869 2.05014 0
M  V30 9846 C 960.93 -1.45649 1.20133 0
M  V30 9847 O 960.287 -1.81014 0.232398 0
M  V30 9848 C 960.338 -0.711486 3.54429 0
M  V30 9849 O 960.059 0.419458 4.36087 0
M  V30 9850 C 961.56 -1.37809 4.21336 0
M  V30 9851 H 958.78 -0.0570388 0.668571 0
M  V30 9852 H 961.324 0.47197 1.98979 0
M  V30 9853 H 959.479 -1.41212 3.60746 0
M  V30 9854 H 959.893 0.0781037 5.24442 0
M  V30 9855 H 961.367 -1.63184 5.27328 0
M  V30 9856 H 961.844 -2.32593 3.72555 0
M  V30 9857 H 962.45 -0.719987 4.19161 0
M  V30 9858 N 960.765 -1.57509 0.0534917 0
M  V30 9859 C 962.042 -1.84137 -0.659767 0
M  V30 9860 C 962.422 -0.942362 -1.88899 0
M  V30 9861 O 961.77 -0.00398566 -2.285 0
M  V30 9862 C 961.98 -3.33919 -1.01486 0
M  V30 9863 C 963.328 -4.00989 -1.39616 0
M  V30 9864 O 964.352 -3.38557 -1.10713 0
M  V30 9865 O 963.211 -5.11071 -1.93567 0
M  V30 9866 H 960.305 -0.760081 -0.325893 0
M  V30 9867 H 962.851 -1.69497 0.0830315 0
M  V30 9868 H 961.623 -3.91046 -0.141041 0
M  V30 9869 H 961.246 -3.53755 -1.81503 0
M  V30 9870 N 962.243 0.219913 -1.56058 0
M  V30 9871 C 963.19 1.27254 -1.92549 0
M  V30 9872 C 964.16 1.46493 -0.782883 0
M  V30 9873 O 965.345 1.60035 -1.03892 0
M  V30 9874 C 962.485 2.61756 -2.24896 0
M  V30 9875 C 961.598 2.50302 -3.52098 0
M  V30 9876 C 960.733 3.77338 -3.73884 0
M  V30 9877 C 959.772 3.60613 -4.94595 0
M  V30 9878 N 958.909 4.79603 -5.12763 0
M  V30 9879 H 963.749 0.954352 -2.82305 0
M  V30 9880 H 961.286 0.459928 -1.39725 0
M  V30 9881 H 963.244 3.40082 -2.4166 0
M  V30 9882 H 961.874 2.91668 -1.38311 0
M  V30 9883 H 960.926 1.63401 -3.43517 0
M  V30 9884 H 962.238 2.33866 -4.40577 0
M  V30 9885 H 961.392 4.64108 -3.90754 0
M  V30 9886 H 960.131 3.96702 -2.83689 0
M  V30 9887 H 959.136 2.72228 -4.77674 0
M  V30 9888 H 960.361 3.42719 -5.86277 0
M  V30 9889 H 958.307 4.99277 -4.2551 0
M  V30 9890 H 958.224 4.65899 -5.95377 0
M  V30 9891 H 959.492 5.67794 -5.34069 0
M  V30 9892 N 963.721 1.49897 0.486681 0
M  V30 9893 C 964.671 1.6401 1.58381 0
M  V30 9894 C 965.655 0.495215 1.5309 0
M  V30 9895 O 966.847 0.748876 1.60377 0
M  V30 9896 C 963.976 1.72321 2.96918 0
M  V30 9897 C 963.062 2.92435 3.07152 0
M  V30 9898 N 963.453 4.16326 2.87238 0
M  V30 9899 C 961.751 2.90669 3.38271 0
M  V30 9900 C 962.452 4.97144 3.02031 0
M  V30 9901 N 961.428 4.3079 3.31544 0
M  V30 9902 H 965.23 2.57506 1.41661 0
M  V30 9903 H 962.744 1.46867 0.693106 0
M  V30 9904 H 964.741 1.80532 3.75784 0
M  V30 9905 H 963.401 0.799724 3.14697 0
M  V30 9906 H 964.412 4.46076 2.63128 0
M  V30 9907 H 961.089 2.07758 3.62137 0
M  V30 9908 H 962.479 6.05611 2.91006 0
M  V30 9909 N 965.199 -0.738761 1.39212 0
M  V30 9910 C 966.445 -1.50046 1.36433 0
M  V30 9911 C 966.778 -1.94157 -0.0409474 0
M  V30 9912 O 966.053 -1.66515 -1.00514 0
M  V30 9913 C 966.336 -2.74277 2.33333 0
M  V30 9914 C 966.189 -2.36209 3.82786 0
M  V30 9915 C 967.508 -3.76361 2.28123 0
M  V30 9916 H 964.627 -0.544294 0.496903 0
M  V30 9917 H 967.269 -0.845005 1.70175 0
M  V30 9918 H 965.419 -3.30204 2.04689 0
M  V30 9919 H 967.091 -1.85942 4.22165 0
M  V30 9920 H 965.334 -1.68483 3.99745 0
M  V30 9921 H 966.005 -3.25156 4.46069 0
M  V30 9922 H 968.481 -3.30009 2.53443 0
M  V30 9923 H 967.357 -4.60957 2.9801 0
M  V30 9924 H 967.618 -4.23013 1.28499 0
M  V30 9925 N 966.677 -1.24326 -0.968545 0
M  V30 9926 C 967.625 -1.03256 -2.08425 0
M  V30 9927 C 968.619 0.0322356 -1.69369 0
M  V30 9928 O 969.825 -0.122251 -1.79584 0
M  V30 9929 H 966.2 -0.31688 -0.681976 0
M  V30 9930 H 968.171 -1.97873 -2.23358 0
M  V30 9931 C 966.92 -0.653144 -3.4151 0
M  V30 9932 H 966.243 -1.46424 -3.72021 0
M  V30 9933 H 967.683 -0.545316 -4.20479 0
M  V30 9934 C 966.142 0.639674 -3.30771 0
M  V30 9935 O 966.672 1.68563 -3.64622 0
M  V30 9936 N 964.878 0.620074 -2.83907 0
M  V30 9937 H 964.425 -0.231449 -2.56558 0
M  V30 9938 H 964.383 1.48528 -2.77104 0
M  V30 9939 N 968.156 1.1691 -1.05688 0
M  V30 9940 C 969.103 2.21095 -0.662246 0
M  V30 9941 C 970.073 1.62623 0.338083 0
M  V30 9942 O 971.258 1.89428 0.228362 0
M  V30 9943 C 968.398 3.45066 -0.0484018 0
M  V30 9944 C 967.511 4.17809 -1.09817 0
M  V30 9945 C 966.646 5.29281 -0.451114 0
M  V30 9946 C 965.685 5.93817 -1.48484 0
M  V30 9947 N 964.822 6.96793 -0.861588 0
M  V30 9948 H 969.662 2.54204 -1.55513 0
M  V30 9949 H 967.199 1.24863 -0.777665 0
M  V30 9950 H 969.157 4.15932 0.324978 0
M  V30 9951 H 967.787 3.12526 0.807918 0
M  V30 9952 H 966.839 3.45608 -1.58932 0
M  V30 9953 H 968.151 4.61907 -1.88265 0
M  V30 9954 H 967.305 6.06695 -0.0244251 0
M  V30 9955 H 966.044 4.8633 0.365306 0
M  V30 9956 H 965.049 5.1513 -1.92149 0
M  V30 9957 H 966.274 6.38848 -2.30325 0
M  V30 9958 H 964.22 6.55967 -0.0657688 0
M  V30 9959 H 964.137 7.39229 -1.58354 0
M  V30 9960 H 965.405 7.78142 -0.45984 0
M  V30 9961 N 969.634 0.838594 1.33437 0
M  V30 9962 C 970.581 0.269609 2.2922 0
M  V30 9963 C 971.551 -0.614429 1.54318 0
M  V30 9964 O 972.736 -0.552756 1.82618 0
M  V30 9965 C 969.876 -0.549527 3.40697 0
M  V30 9966 C 968.989 0.358502 4.3051 0
M  V30 9967 C 968.124 -0.471709 5.29101 0
M  V30 9968 C 967.163 0.434728 6.10554 0
M  V30 9969 N 966.3 -0.357339 7.0119 0
M  V30 9970 H 971.14 1.09172 2.77282 0
M  V30 9971 H 968.677 0.549832 1.36438 0
M  V30 9972 H 970.635 -1.03992 4.04032 0
M  V30 9973 H 969.265 -1.33661 2.93828 0
M  V30 9974 H 968.317 0.967204 3.67899 0
M  V30 9975 H 969.629 1.05483 4.87519 0
M  V30 9976 H 968.783 -1.02594 5.97963 0
M  V30 9977 H 967.522 -1.20147 4.72669 0
M  V30 9978 H 966.527 1.00097 5.40611 0
M  V30 9979 H 967.752 1.16285 6.6907 0
M  V30 9980 H 965.698 -1.07049 6.47207 0
M  V30 9981 H 965.615 0.280277 7.5548 0
M  V30 9982 H 966.883 -0.893814 7.74359 0
M  V30 9983 N 971.112 -1.45937 0.595003 0
M  V30 9984 C 972.359 -2.0232 0.0853053 0
M  V30 9985 C 972.687 -1.465 -1.27937 0
M  V30 9986 O 971.942 -0.624767 -1.85459 0
M  V30 9987 C 972.241 -3.57396 -0.0173747 0
M  V30 9988 C 971.907 -4.32311 1.28131 0
M  V30 9989 C 970.569 -4.52496 1.63708 0
M  V30 9990 C 972.921 -4.75233 2.14017 0
M  V30 9991 C 970.249 -5.12857 2.84947 0
M  V30 9992 C 972.601 -5.36933 3.34493 0
M  V30 9993 C 971.265 -5.55343 3.70338 0
M  V30 9994 H 970.535 -0.740342 0.0312154 0
M  V30 9995 H 973.182 -1.75157 0.774103 0
M  V30 9996 H 971.487 -3.83766 -0.789371 0
M  V30 9997 H 973.184 -3.98713 -0.427699 0
M  V30 9998 H 969.774 -4.16905 0.994374 0
M  V30 9999 H 973.958 -4.59383 1.87833 0
M  V30 10000 H 969.214 -5.253 3.12841 0
M  V30 10001 H 973.388 -5.69147 4.01304 0
M  V30 10002 H 971.015 -6.01883 4.64371 0
M  V30 10003 N 972.59 -0.333456 -1.54032 0
M  V30 10004 C 973.836 0.266527 -2.01041 0
M  V30 10005 C 974.169 1.51006 -1.2211 0
M  V30 10006 O 973.444 1.92078 -0.306016 0
M  V30 10007 C 973.727 0.59078 -3.55221 0
M  V30 10008 C 973.58 -0.664143 -4.4487 0
M  V30 10009 C 974.899 1.40447 -4.17088 0
M  V30 10010 H 972.018 0.0953979 -0.7308 0
M  V30 10011 H 974.66 -0.451995 -1.84545 0
M  V30 10012 H 972.81 1.20292 -3.69408 0
M  V30 10013 H 974.482 -1.30227 -4.42537 0
M  V30 10014 H 972.725 -1.29106 -4.14143 0
M  V30 10015 H 973.396 -0.392664 -5.50602 0
M  V30 10016 H 975.872 0.886946 -4.06537 0
M  V30 10017 H 974.748 1.6001 -5.2506 0
M  V30 10018 H 975.009 2.40357 -3.71054 0
M  V30 10019 N 974.068 1.57479 -0.061844 0
M  V30 10020 C 975.031 2.1104 0.894127 0
M  V30 10021 C 976.031 1.03227 1.23292 0
M  V30 10022 O 977.221 1.29256 1.16784 0
M  V30 10023 C 974.353 2.6035 2.20069 0
M  V30 10024 H 975.546 2.96807 0.429619 0
M  V30 10025 H 973.099 1.55181 0.18672 0
M  V30 10026 H 973.834 1.78008 2.71079 0
M  V30 10027 H 973.619 3.39146 1.9678 0
M  V30 10028 H 975.109 3.019 2.88525 0
M  V30 10029 N 975.546 -0.211634 1.56173 0
M  V30 10030 C 976.792 -0.931479 1.80818 0
M  V30 10031 C 977.147 -1.81571 0.636373 0
M  V30 10032 O 976.44 -1.8801 -0.369182 0
M  V30 10033 C 976.634 -1.79657 3.08963 0
M  V30 10034 C 976.463 -0.997577 4.38496 0
M  V30 10035 C 975.233 -0.688558 5.00587 0
M  V30 10036 C 977.431 -0.358138 5.13052 0
M  V30 10037 N 975.413 0.130797 6.13761 0
M  V30 10038 C 976.784 0.324159 6.19152 0
M  V30 10039 C 978.839 -0.272178 4.97156 0
M  V30 10040 C 977.542 1.08421 7.11082 0
M  V30 10041 C 979.568 0.474428 5.89494 0
M  V30 10042 C 978.93 1.14523 6.95028 0
M  V30 10043 H 975.029 -0.32079 0.713174 0
M  V30 10044 H 977.613 -0.201528 1.93654 0
M  V30 10045 H 975.784 -2.49826 2.97392 0
M  V30 10046 H 977.516 -2.45464 3.2176 0
M  V30 10047 H 974.271 -1.00899 4.62727 0
M  V30 10048 H 974.695 0.5296 6.74925 0
M  V30 10049 H 979.337 -0.776448 4.15609 0
M  V30 10050 H 977.055 1.59996 7.92103 0
M  V30 10051 H 980.641 0.542076 5.79269 0
M  V30 10052 H 979.521 1.71371 7.65246 0
M  V30 10053 N 977.024 -1.50153 -0.478725 0
M  V30 10054 C 978.435 -1.53706 -1.05978 0
M  V30 10055 C 978.786 -0.336112 -1.933 0
M  V30 10056 O 977.911 0.551803 -2.09246 0
M  V30 10057 C 978.506 -2.78541 -1.92874 0
M  V30 10058 C 977.065 -2.848 -2.46102 0
M  V30 10059 C 976.212 -2.47902 -1.24257 0
M  V30 10060 H 979.163 -1.56528 -0.261664 0
M  V30 10061 H 979.184 -2.59964 -2.77847 0
M  V30 10062 H 978.696 -3.6593 -1.29293 0
M  V30 10063 H 976.797 -2.01744 -3.13257 0
M  V30 10064 H 976.91 -3.87511 -2.81731 0
M  V30 10065 H 975.274 -2.0017 -1.57493 0
M  V30 10066 H 976.057 -3.3759 -0.62351 0
M  V30 10067 N 978.502 0.731368 -1.39602 0
M  V30 10068 C 979.751 1.48647 -1.36334 0
M  V30 10069 C 980.064 1.95565 0.0367383 0
M  V30 10070 O 981.27 2.7082 0.192017 0
M  V30 10071 C 979.726 2.68616 -2.39528 0
M  V30 10072 C 979.334 2.28632 -3.85268 0
M  V30 10073 C 981.078 3.46422 -2.45341 0
M  V30 10074 C 978.985 3.45345 -4.80095 0
M  V30 10075 H 977.915 0.558218 -0.506861 0
M  V30 10076 H 980.566 0.797467 -1.65266 0
M  V30 10077 H 978.948 3.39609 -2.03671 0
M  V30 10078 H 980.122 1.65162 -4.30184 0
M  V30 10079 H 978.437 1.63909 -3.82783 0
M  V30 10080 H 981.034 4.33241 -3.13379 0
M  V30 10081 H 981.377 3.8914 -1.47904 0
M  V30 10082 H 981.91 2.82461 -2.80108 0
M  V30 10083 H 978.649 3.07674 -5.78807 0
M  V30 10084 H 978.169 4.07784 -4.39855 0
M  V30 10085 H 979.848 4.1163 -4.99169 0
M  V30 10086 N 979.98 1.24838 0.961938 0
M  V30 10087 C 980.928 1.0436 2.07874 0
M  V30 10088 C 981.922 -0.0232531 1.69384 0
M  V30 10089 O 983.128 0.131773 1.79517 0
M  V30 10090 H 979.503 0.320492 0.680286 0
M  V30 10091 H 981.474 1.99055 2.22306 0
M  V30 10092 C 980.223 0.671246 3.41159 0
M  V30 10093 H 979.546 1.48395 3.7124 0
M  V30 10094 H 980.986 0.567608 4.20184 0
M  V30 10095 C 979.445 -0.622124 3.31106 0
M  V30 10096 O 979.975 -1.66627 3.65511 0
M  V30 10097 N 978.181 -0.605009 2.84232 0
M  V30 10098 H 977.728 0.245052 2.56432 0
M  V30 10099 H 977.686 -1.47056 2.77888 0
M  V30 10100 N 981.458 -1.16348 1.06306 0
M  V30 10101 C 982.686 -1.90782 0.800614 0
M  V30 10102 C 983.101 -1.77439 -0.645033 0
M  V30 10103 O 982.458 -1.11912 -1.4416 0
M  V30 10104 C 982.509 -3.41484 1.18621 0
M  V30 10105 O 982.23 -3.54428 2.57512 0
M  V30 10106 C 983.731 -4.32968 0.951525 0
M  V30 10107 H 980.951 -0.604977 0.290247 0
M  V30 10108 H 983.495 -1.47476 1.41672 0
M  V30 10109 H 981.65 -3.82493 0.614633 0
M  V30 10110 H 982.064 -4.4788 2.72954 0
M  V30 10111 H 983.538 -5.37169 1.27095 0
M  V30 10112 H 984.015 -4.39055 -0.112734 0
M  V30 10113 H 984.621 -3.97687 1.50749 0
M  V30 10114 N 982.937 -0.845659 -1.3299 0
M  V30 10115 C 983.884 -0.281761 -2.29074 0
M  V30 10116 C 984.854 0.606237 -1.54641 0
M  V30 10117 O 986.039 0.543063 -1.82908 0
M  V30 10118 C 983.179 0.531451 -3.40983 0
M  V30 10119 C 982.292 -0.381328 -4.30314 0
M  V30 10120 C 981.427 0.443643 -5.29344 0
M  V30 10121 C 980.466 -0.467101 -6.10315 0
M  V30 10122 N 979.603 0.320148 -7.0137 0
M  V30 10123 H 984.443 -1.10641 -2.76699 0
M  V30 10124 H 981.98 -0.55706 -1.36144 0
M  V30 10125 H 983.938 1.01848 -4.04577 0
M  V30 10126 H 982.568 1.32101 -2.94532 0
M  V30 10127 H 981.62 -0.986701 -3.6738 0
M  V30 10128 H 982.932 -1.08067 -4.86953 0
M  V30 10129 H 982.086 0.994212 -5.98498 0
M  V30 10130 H 980.825 1.17639 -4.73299 0
M  V30 10131 H 979.83 -1.02963 -5.40073 0
M  V30 10132 H 981.055 -1.19832 -6.68444 0
M  V30 10133 H 979.001 1.03615 -6.47765 0
M  V30 10134 H 978.918 -0.320338 -7.55321 0
M  V30 10135 H 980.186 0.852735 -7.74822 0
M  V30 10136 N 984.415 1.45619 -0.602734 0
M  V30 10137 C 985.347 2.28662 0.157012 0
M  V30 10138 C 986.36 1.39672 0.836396 0
M  V30 10139 O 987.549 1.64091 0.702599 0
M  V30 10140 C 984.649 3.1528 1.24306 0
M  V30 10141 C 983.822 4.32517 0.651731 0
M  V30 10142 C 982.881 5.00381 1.62804 0
M  V30 10143 O 981.907 5.57333 1.15624 0
M  V30 10144 N 983.109 4.99221 2.96241 0
M  V30 10145 H 985.874 2.94506 -0.555535 0
M  V30 10146 H 983.435 1.55753 -0.441881 0
M  V30 10147 H 985.427 3.57544 1.8959 0
M  V30 10148 H 983.997 2.51376 1.85819 0
M  V30 10149 H 983.217 3.93793 -0.17907 0
M  V30 10150 H 984.505 5.08249 0.236802 0
M  V30 10151 H 983.903 4.54232 3.37179 0
M  V30 10152 H 982.46 5.45364 3.56961 0
M  V30 10153 N 985.893 0.34162 1.53853 0
M  V30 10154 C 986.826 -0.559051 2.21246 0
M  V30 10155 C 987.804 -1.10179 1.1958 0
M  V30 10156 O 988.988 -1.16242 1.48392 0
M  V30 10157 C 986.115 -1.7689 2.88838 0
M  V30 10158 C 985.161 -1.3558 4.04377 0
M  V30 10159 S 985.994 -0.377225 5.3417 0
M  V30 10160 C 987.15 -1.59395 6.05264 0
M  V30 10161 H 987.383 0.013373 2.97297 0
M  V30 10162 H 984.916 0.125694 1.53888 0
M  V30 10163 H 986.874 -2.463 3.284 0
M  V30 10164 H 985.535 -2.31254 2.12557 0
M  V30 10165 H 984.728 -2.25781 4.50599 0
M  V30 10166 H 984.33 -0.741197 3.66582 0
M  V30 10167 H 986.622 -2.52872 6.2854 0
M  V30 10168 H 987.565 -1.17356 6.98307 0
M  V30 10169 H 987.973 -1.78913 5.35397 0
M  V30 10170 N 987.371 -1.57444 0.0701946 0
M  V30 10171 C 988.617 -1.93716 -0.600178 0
M  V30 10172 C 988.95 -0.950329 -1.69359 0
M  V30 10173 O 988.225 0.0207123 -1.94489 0
M  V30 10174 C 988.508 -3.40266 -1.17861 0
M  V30 10175 C 988.361 -4.49706 -0.0919575 0
M  V30 10176 C 989.68 -3.87599 -2.08459 0
M  V30 10177 H 986.799 -0.704421 -0.216704 0
M  V30 10178 H 989.441 -1.89514 0.135838 0
M  V30 10179 H 987.591 -3.43977 -1.80587 0
M  V30 10180 H 989.263 -4.58116 0.541031 0
M  V30 10181 H 987.506 -4.29937 0.577639 0
M  V30 10182 H 988.177 -5.49381 -0.537048 0
M  V30 10183 H 990.653 -3.85883 -1.5567 0
M  V30 10184 H 989.529 -4.90755 -2.45867 0
M  V30 10185 H 989.79 -3.25448 -2.99226 0
M  V30 10186 N 988.849 0.203349 -1.56283 0
M  V30 10187 C 989.781 1.27592 -1.90402 0
M  V30 10188 C 990.794 1.4213 -0.79391 0
M  V30 10189 O 991.983 1.42703 -1.07229 0
M  V30 10190 C 989.083 2.64919 -2.11356 0
M  V30 10191 C 988.256 2.72095 -3.42466 0
M  V30 10192 C 987.315 3.9056 -3.52631 0
M  V30 10193 O 986.341 3.78048 -4.25521 0
M  V30 10194 N 987.543 5.0566 -2.85111 0
M  V30 10195 H 990.308 0.986423 -2.83001 0
M  V30 10196 H 987.869 0.39331 -1.5705 0
M  V30 10197 H 989.861 3.42581 -2.15453 0
M  V30 10198 H 988.431 2.86391 -1.25295 0
M  V30 10199 H 987.651 1.8077 -3.50308 0
M  V30 10200 H 988.939 2.73874 -4.28801 0
M  V30 10201 H 988.337 5.18723 -2.25705 0
M  V30 10202 H 986.894 5.81299 -2.94847 0
M  V30 10203 N 990.327 1.50405 0.470755 0
M  V30 10204 C 991.26 1.63933 1.58749 0
M  V30 10205 C 992.238 0.487444 1.55122 0
M  V30 10206 O 993.422 0.706992 1.74739 0
M  V30 10207 C 990.549 1.62222 2.97324 0
M  V30 10208 C 989.595 2.82975 3.19104 0
M  V30 10209 S 990.428 4.44272 2.98969 0
M  V30 10210 C 991.584 4.45254 4.39886 0
M  V30 10211 H 991.817 2.58396 1.47034 0
M  V30 10212 H 989.35 1.39672 0.658115 0
M  V30 10213 H 991.308 1.6192 3.77217 0
M  V30 10214 H 989.969 0.689944 3.06429 0
M  V30 10215 H 989.162 2.78083 4.2034 0
M  V30 10216 H 988.764 2.80846 2.46984 0
M  V30 10217 H 991.056 4.18837 5.32524 0
M  V30 10218 H 991.999 5.4687 4.49821 0
M  V30 10219 H 992.407 3.74958 4.2198 0
M  V30 10220 N 991.805 -0.723954 1.39988 0
M  V30 10221 C 993.221 -1.03095 1.21834 0
M  V30 10222 C 993.421 -2.01309 0.0876647 0
M  V30 10223 O 992.477 -2.46277 -0.55714 0
M  V30 10224 C 993.79 -1.58267 2.5568 0
M  V30 10225 C 995.338 -1.70293 2.6262 0
M  V30 10226 C 995.813 -2.28872 3.96713 0
M  V30 10227 N 997.304 -2.36269 3.98411 0
M  V30 10228 C 998.039 -2.82557 4.98948 0
M  V30 10229 N 997.535 -3.28661 6.0988 0
M  V30 10230 N 999.328 -2.81866 4.86321 0
M  V30 10231 H 991.479 -0.0727891 2.12275 0
M  V30 10232 H 993.742 -0.0949029 0.943238 0
M  V30 10233 H 993.448 -0.935642 3.39026 0
M  V30 10234 H 993.322 -2.56914 2.76179 0
M  V30 10235 H 995.709 -2.34115 1.7965 0
M  V30 10236 H 995.79 -0.70268 2.45959 0
M  V30 10237 H 995.434 -1.65675 4.80119 0
M  V30 10238 H 995.364 -3.29595 4.107 0
M  V30 10239 H 997.855 -2.03697 3.18302 0
M  V30 10240 H 998.168 -3.62524 6.82493 0
M  V30 10241 H 996.513 -3.26641 6.13458 0
M  V30 10242 H 999.704 -2.45179 3.98754 0
M  V30 10243 H 999.877 -3.17626 5.64817 0
M  V30 10244 N 993.283 -1.25346 -0.955304 0
M  V30 10245 C 994.699 -1.02154 -1.22625 0
M  V30 10246 C 994.899 0.26206 -1.99789 0
M  V30 10247 O 993.955 0.974958 -2.32918 0
M  V30 10248 C 995.268 -2.2443 -2.00129 0
M  V30 10249 C 996.816 -2.29185 -2.13174 0
M  V30 10250 C 997.291 -3.51117 -2.94077 0
M  V30 10251 N 998.782 -3.51509 -3.01655 0
M  V30 10252 C 999.517 -4.42517 -3.64645 0
M  V30 10253 N 999.013 -5.43796 -4.29252 0
M  V30 10254 N 1000.81 -4.302 -3.61779 0
M  V30 10255 H 992.957 -2.07812 -0.439071 0
M  V30 10256 H 995.22 -0.91258 -0.256715 0
M  V30 10257 H 994.926 -3.17717 -1.50827 0
M  V30 10258 H 994.8 -2.27548 -3.00835 0
M  V30 10259 H 997.187 -1.36422 -2.61674 0
M  V30 10260 H 997.268 -2.30087 -1.11775 0
M  V30 10261 H 996.912 -4.44201 -2.46268 0
M  V30 10262 H 996.842 -3.4746 -3.95701 0
M  V30 10263 H 999.333 -2.78245 -2.55711 0
M  V30 10264 H 999.646 -6.09453 -4.75171 0
M  V30 10265 H 997.991 -5.4767 -4.27882 0
M  V30 10266 H 1001.18 -3.50304 -3.10491 0
M  V30 10267 H 1001.36 -5.01323 -4.10584 0
M  V30 10268 N 994.761 1.15782 -1.06922 0
M  V30 10269 C 995.708 2.2038 -0.685659 0
M  V30 10270 C 996.678 1.62972 0.320816 0
M  V30 10271 O 997.863 1.8966 0.208258 0
M  V30 10272 C 995.003 3.44995 -0.084998 0
M  V30 10273 C 994.116 4.16621 -1.14242 0
M  V30 10274 C 993.251 5.28773 -0.507226 0
M  V30 10275 C 992.29 5.92209 -1.54774 0
M  V30 10276 N 991.427 6.9584 -0.935443 0
M  V30 10277 H 996.267 2.5254 -1.58201 0
M  V30 10278 H 993.804 1.24031 -0.790864 0
M  V30 10279 H 995.762 4.16254 0.280845 0
M  V30 10280 H 994.392 3.13365 0.774725 0
M  V30 10281 H 993.444 3.43903 -1.62589 0
M  V30 10282 H 994.756 4.59884 -1.93154 0
M  V30 10283 H 993.91 6.06635 -0.0887719 0
M  V30 10284 H 992.649 4.8669 0.313704 0
M  V30 10285 H 991.654 5.13063 -1.97602 0
M  V30 10286 H 992.879 6.3637 -2.37088 0
M  V30 10287 H 990.825 6.5586 -0.135339 0
M  V30 10288 H 990.742 7.37508 -1.66186 0
M  V30 10289 H 992.01 7.77611 -0.542346 0
M  V30 10290 N 996.239 0.8527 1.3254 0
M  V30 10291 C 997.169 0.311234 2.31416 0
M  V30 10292 C 998.15 -0.588557 1.59593 0
M  V30 10293 O 999.335 -0.509211 1.87405 0
M  V30 10294 C 996.465 -0.502892 3.4364 0
M  V30 10295 C 995.419 0.302296 4.26931 0
M  V30 10296 C 994.745 -0.636445 5.30899 0
M  V30 10297 C 996.045 1.52697 4.99481 0
M  V30 10298 H 997.739 1.13742 2.76953 0
M  V30 10299 H 995.285 0.548389 1.33149 0
M  V30 10300 H 997.238 -0.892092 4.11849 0
M  V30 10301 H 995.962 -1.36242 2.96826 0
M  V30 10302 H 994.621 0.673226 3.60365 0
M  V30 10303 H 994.269 -1.49277 4.80339 0
M  V30 10304 H 993.969 -0.101716 5.87512 0
M  V30 10305 H 995.493 -1.02286 6.01972 0
M  V30 10306 H 996.907 1.21017 5.60382 0
M  V30 10307 H 995.304 1.9995 5.65809 0
M  V30 10308 H 996.374 2.28929 4.27457 0
M  V30 10309 N 997.718 -1.45297 0.610449 0
M  V30 10310 C 998.628 -2.34349 -0.108475 0
M  V30 10311 C 999.644 -1.51409 -0.857397 0
M  V30 10312 O 1000.82 -1.84202 -0.814337 0
M  V30 10313 C 997.885 -3.29072 -1.09144 0
M  V30 10314 C 996.946 -4.27918 -0.344165 0
M  V30 10315 C 996.179 -5.18116 -1.28031 0
M  V30 10316 O 996.402 -5.11802 -2.51824 0
M  V30 10317 O 995.336 -5.96879 -0.775821 0
M  V30 10318 H 999.162 -2.97232 0.623421 0
M  V30 10319 H 996.747 -1.44728 0.3707 0
M  V30 10320 H 998.629 -3.87433 -1.65751 0
M  V30 10321 H 997.304 -2.68749 -1.80431 0
M  V30 10322 H 996.211 -3.73164 0.264437 0
M  V30 10323 H 997.544 -4.91104 0.328275 0
M  V30 10324 N 999.196 -0.349774 -1.5367 0
M  V30 10325 C 1000.13 0.547309 -2.2154 0
M  V30 10326 C 1001.11 1.09543 -1.20163 0
M  V30 10327 O 1002.29 1.15453 -1.49006 0
M  V30 10328 C 999.418 1.75356 -2.89772 0
M  V30 10329 C 998.464 1.33433 -4.0509 0
M  V30 10330 S 999.297 0.348891 -5.34362 0
M  V30 10331 C 1000.45 1.56183 -6.061 0
M  V30 10332 H 1000.69 -0.0291392 -2.97286 0
M  V30 10333 H 998.219 -0.133853 -1.53819 0
M  V30 10334 H 1000.18 2.44555 -3.29701 0
M  V30 10335 H 998.838 2.30123 -2.1378 0
M  V30 10336 H 998.031 2.23388 -4.5179 0
M  V30 10337 H 997.633 0.721746 -3.6697 0
M  V30 10338 H 999.925 2.49535 -6.29872 0
M  V30 10339 H 1000.87 1.13651 -6.9892 0
M  V30 10340 H 1001.28 1.76071 -5.36339 0
M  V30 10341 N 1000.67 1.57404 -0.0785433 0
M  V30 10342 C 1001.92 1.93744 0.589024 0
M  V30 10343 C 1002.25 0.959087 1.69209 0
M  V30 10344 O 1001.5 -0.0241604 1.95685 0
M  V30 10345 C 1001.8 3.36684 1.1991 0
M  V30 10346 C 1001.47 4.50356 0.221493 0
M  V30 10347 C 1000.13 4.81177 -0.0474347 0
M  V30 10348 C 1002.48 5.1928 -0.446941 0
M  V30 10349 C 999.811 5.78257 -0.99177 0
M  V30 10350 C 1002.16 6.17372 -1.37964 0
M  V30 10351 C 1000.83 6.46607 -1.65697 0
M  V30 10352 H 1000.1 0.70896 0.215539 0
M  V30 10353 H 1002.74 1.90905 -0.150856 0
M  V30 10354 H 1001.05 3.36022 2.01486 0
M  V30 10355 H 1002.75 3.62095 1.72303 0
M  V30 10356 H 999.336 4.26322 0.441284 0
M  V30 10357 H 1003.52 4.95658 -0.252298 0
M  V30 10358 H 998.776 5.9923 -1.21381 0
M  V30 10359 H 1002.95 6.6988 -1.9035 0
M  V30 10360 H 1000.58 7.21643 -2.39031 0
M  V30 10361 N 1002.15 -0.195058 1.56388 0
M  V30 10362 C 1003.38 -0.931642 1.84738 0
M  V30 10363 C 1003.79 -1.76849 0.661046 0
M  V30 10364 O 1003.15 -1.78705 -0.370241 0
M  V30 10365 C 1003.2 -1.82777 3.11889 0
M  V30 10366 O 1002.92 -1.02471 4.25948 0
M  V30 10367 C 1004.42 -2.67603 3.53417 0
M  V30 10368 H 1001.64 -0.271821 0.613477 0
M  V30 10369 H 1004.19 -0.202299 2.03497 0
M  V30 10370 H 1002.34 -2.51074 2.95027 0
M  V30 10371 H 1002.76 -1.63539 4.98353 0
M  V30 10372 H 1004.23 -3.26138 4.45352 0
M  V30 10373 H 1004.71 -3.41314 2.76408 0
M  V30 10374 H 1005.31 -2.04678 3.7281 0
M  V30 10375 N 1003.63 -1.50653 -0.462772 0
M  V30 10376 C 1004.86 -1.65586 -1.23551 0
M  V30 10377 C 1005.27 -0.342012 -1.86083 0
M  V30 10378 O 1004.61 0.686893 -1.70374 0
M  V30 10379 C 1004.67 -2.69555 -2.37867 0
M  V30 10380 C 1004.34 -4.1288 -1.95906 0
M  V30 10381 C 1005.33 -4.98483 -1.47685 0
M  V30 10382 C 1003.02 -4.58843 -2.04373 0
M  V30 10383 C 1005.01 -6.281 -1.08484 0
M  V30 10384 C 1002.7 -5.88464 -1.64783 0
M  V30 10385 C 1003.7 -6.72918 -1.16918 0
M  V30 10386 O 1003.39 -8.00119 -0.778798 0
M  V30 10387 H 1003.12 -0.559438 -0.37948 0
M  V30 10388 H 1005.67 -1.9768 -0.557816 0
M  V30 10389 H 1003.9 -2.3272 -3.08834 0
M  V30 10390 H 1005.59 -2.73624 -2.99808 0
M  V30 10391 H 1006.36 -4.64186 -1.40558 0
M  V30 10392 H 1002.24 -3.93247 -2.40577 0
M  V30 10393 H 1005.78 -6.93972 -0.710524 0
M  V30 10394 H 1001.68 -6.22281 -1.71571 0
M  V30 10395 H 1002.44 -8.1346 -0.906911 0
M  V30 10396 N 1005.11 0.71652 -1.4037 0
M  V30 10397 C 1006.04 1.84345 -1.43315 0
M  V30 10398 C 1007.02 1.67537 -0.294186 0
M  V30 10399 O 1008.2 1.87582 -0.502671 0
M  V30 10400 C 1005.33 3.2229 -1.29408 0
M  V30 10401 C 1004.29 3.53769 -2.40897 0
M  V30 10402 C 1003.61 4.90847 -2.12068 0
M  V30 10403 C 1004.91 3.54862 -3.83237 0
M  V30 10404 H 1006.61 1.82138 -2.37626 0
M  V30 10405 H 1004.15 0.874873 -1.14376 0
M  V30 10406 H 1006.11 4.00819 -1.30085 0
M  V30 10407 H 1004.83 3.2507 -0.31573 0
M  V30 10408 H 1003.49 2.77579 -2.39469 0
M  V30 10409 H 1003.14 4.90229 -1.12626 0
M  V30 10410 H 1002.84 5.12875 -2.86762 0
M  V30 10411 H 1004.36 5.71711 -2.14426 0
M  V30 10412 H 1005.78 4.23432 -3.86494 0
M  V30 10413 H 1004.17 3.88416 -4.57442 0
M  V30 10414 H 1005.24 2.54266 -4.12888 0
M  V30 10415 N 1006.59 1.25851 0.948643 0
M  V30 10416 C 1008 1.02802 1.22081 0
M  V30 10417 C 1008.2 -0.251461 1.99925 0
M  V30 10418 O 1007.26 -0.962592 2.33432 0
M  V30 10419 C 1008.57 2.25489 1.98936 0
M  V30 10420 C 1010.12 2.30312 2.11956 0
M  V30 10421 C 1010.59 3.52671 2.92211 0
M  V30 10422 N 1012.09 3.53103 2.99787 0
M  V30 10423 C 1012.82 4.44445 3.62294 0
M  V30 10424 N 1012.32 5.46065 4.26362 0
M  V30 10425 N 1014.11 4.32113 3.59493 0
M  V30 10426 H 1006.26 2.08042 0.428044 0
M  V30 10427 H 1008.52 0.913928 0.251872 0
M  V30 10428 H 1008.23 3.18513 1.4914 0
M  V30 10429 H 1008.1 2.2914 2.99624 0
M  V30 10430 H 1010.49 1.37808 2.60946 0
M  V30 10431 H 1010.57 2.30676 1.10554 0
M  V30 10432 H 1010.22 4.45501 2.43909 0
M  V30 10433 H 1010.15 3.49554 3.93853 0
M  V30 10434 H 1012.64 2.79597 2.54232 0
M  V30 10435 H 1012.95 6.11964 4.71932 0
M  V30 10436 H 1011.29 5.49931 4.24972 0
M  V30 10437 H 1014.49 3.51946 3.08629 0
M  V30 10438 H 1014.66 5.03493 4.0792 0
M  V30 10439 N 1008.06 -1.15214 1.07534 0
M  V30 10440 C 1009.31 -1.86043 0.799629 0
M  V30 10441 C 1009.64 -1.82435 -0.674356 0
M  V30 10442 O 1008.89 -1.24379 -1.51091 0
M  V30 10443 C 1009.19 -3.34623 1.25547 0
M  V30 10444 C 1008.86 -3.58425 2.73573 0
M  V30 10445 C 1007.52 -3.6463 3.14004 0
M  V30 10446 C 1009.87 -3.67977 3.6911 0
M  V30 10447 C 1007.2 -3.779 4.48786 0
M  V30 10448 C 1009.55 -3.82771 5.03656 0
M  V30 10449 C 1008.22 -3.87222 5.43705 0
M  V30 10450 H 1007.49 -0.680781 0.292605 0
M  V30 10451 H 1010.13 -1.36149 1.34669 0
M  V30 10452 H 1008.44 -3.86737 0.627828 0
M  V30 10453 H 1010.14 -3.87836 1.01901 0
M  V30 10454 H 1006.73 -3.54238 2.41275 0
M  V30 10455 H 1010.91 -3.62482 3.39 0
M  V30 10456 H 1006.17 -3.79604 4.79281 0
M  V30 10457 H 1010.34 -3.89104 5.77556 0
M  V30 10458 H 1007.97 -3.97256 6.48145 0
M  V30 10459 N 1009.54 -0.859717 -1.32086 0
M  V30 10460 C 1010.82 -0.386665 -1.9174 0
M  V30 10461 C 1011.2 1.13028 -1.78292 0
M  V30 10462 O 1010.55 1.95422 -1.18417 0
M  V30 10463 C 1010.76 -0.856648 -3.38323 0
M  V30 10464 C 1012.11 -0.87678 -4.15449 0
M  V30 10465 O 1013.13 -0.80162 -3.47063 0
M  V30 10466 O 1011.99 -0.98373 -5.37573 0
M  V30 10467 H 1009.08 -0.113758 -0.819139 0
M  V30 10468 H 1011.63 -0.946952 -1.40822 0
M  V30 10469 H 1010.4 -1.89996 -3.42078 0
M  V30 10470 H 1010.02 -0.274095 -3.96654 0
M  V30 10471 N 1011.02 1.44971 -0.618145 0
M  V30 10472 C 1011.95 2.27748 0.143561 0
M  V30 10473 C 1012.93 1.37768 0.863642 0
M  V30 10474 O 1014.12 1.67203 0.870373 0
M  V30 10475 C 1011.24 3.16394 1.20883 0
M  V30 10476 C 1010.29 4.22389 0.590724 0
M  V30 10477 S 1011.12 5.32021 -0.609406 0
M  V30 10478 C 1012.28 6.24235 0.456199 0
M  V30 10479 H 1012.51 2.92003 -0.558699 0
M  V30 10480 H 1010.04 1.48968 -0.40595 0
M  V30 10481 H 1012 3.6802 1.81855 0
M  V30 10482 H 1010.66 2.51384 1.88322 0
M  V30 10483 H 1009.86 4.84379 1.3926 0
M  V30 10484 H 1009.46 3.73958 0.055917 0
M  V30 10485 H 1011.75 6.64269 1.33238 0
M  V30 10486 H 1012.69 7.07985 -0.127794 0
M  V30 10487 H 1013.1 5.59137 0.776269 0
M  V30 10488 N 1012.5 0.357919 1.53482 0
M  V30 10489 C 1013.41 -0.500273 2.29204 0
M  V30 10490 C 1014.42 -1.09936 1.3487 0
M  V30 10491 O 1015.6 -1.11195 1.67921 0
M  V30 10492 C 1012.67 -1.62828 3.06085 0
M  V30 10493 C 1011.73 -1.05751 4.16071 0
M  V30 10494 C 1010.96 -2.13176 4.89277 0
M  V30 10495 O 1011.18 -3.34153 4.62274 0
M  V30 10496 O 1010.12 -1.76663 5.7539 0
M  V30 10497 H 1013.94 0.115696 3.0348 0
M  V30 10498 H 1011.53 0.122527 1.48897 0
M  V30 10499 H 1013.41 -2.28427 3.54117 0
M  V30 10500 H 1012.08 -2.22979 2.34653 0
M  V30 10501 H 1010.99 -0.365642 3.72309 0
M  V30 10502 H 1012.32 -0.500661 4.89647 0
M  V30 10503 N 1013.98 -1.5736 0.0868897 0
M  V30 10504 C 1015.22 -1.94341 -0.579598 0
M  V30 10505 C 1015.56 -0.968238 -1.68341 0
M  V30 10506 O 1014.83 8.29649e-05 -1.945 0
M  V30 10507 C 1015.11 -3.41497 -1.14245 0
M  V30 10508 C 1014.97 -4.49778 -0.044255 0
M  V30 10509 C 1016.29 -3.89788 -2.04336 0
M  V30 10510 H 1013.4 -0.70668 -0.20922 0
M  V30 10511 H 1016.05 -1.89359 0.15593 0
M  V30 10512 H 1014.2 -3.45873 -1.76929 0
M  V30 10513 H 1015.87 -4.57517 0.58959 0
M  V30 10514 H 1014.11 -4.293 0.623207 0
M  V30 10515 H 1014.78 -5.4992 -0.478749 0
M  V30 10516 H 1017.26 -3.87513 -1.51569 0
M  V30 10517 H 1016.13 -4.93335 -2.40648 0
M  V30 10518 H 1016.4 -3.28603 -2.95757 0
M  V30 10519 N 1015.45 0.186762 -1.56489 0
M  V30 10520 C 1016.68 0.921832 -1.85229 0
M  V30 10521 C 1017.1 1.76496 -0.670416 0
M  V30 10522 O 1016.45 1.78899 0.360758 0
M  V30 10523 C 1016.51 1.81121 -3.12854 0
M  V30 10524 O 1016.23 1.00211 -4.26485 0
M  V30 10525 C 1017.73 2.65725 -3.54831 0
M  V30 10526 H 1014.95 0.268563 -0.61491 0
M  V30 10527 H 1017.49 0.191505 -2.03601 0
M  V30 10528 H 1015.65 2.49506 -2.96354 0
M  V30 10529 H 1016.06 1.60893 -4.99213 0
M  V30 10530 H 1017.53 3.23771 -4.47075 0
M  V30 10531 H 1018.01 3.39843 -2.78215 0
M  V30 10532 H 1018.62 2.02698 -3.7389 0
M  V30 10533 N 1016.93 1.50896 0.454776 0
M  V30 10534 C 1018.18 1.62699 1.20562 0
M  V30 10535 C 1018.51 0.334943 1.91594 0
M  V30 10536 O 1017.76 -0.680106 1.83502 0
M  V30 10537 C 1018.06 2.76839 2.26042 0
M  V30 10538 C 1017.73 4.16745 1.72147 0
M  V30 10539 C 1016.39 4.54809 1.5717 0
M  V30 10540 C 1018.74 5.04118 1.32341 0
M  V30 10541 C 1016.07 5.7797 1.00835 0
M  V30 10542 C 1018.42 6.27842 0.774419 0
M  V30 10543 C 1017.09 6.64694 0.611415 0
M  V30 10544 H 1016.36 0.595358 0.441169 0
M  V30 10545 H 1019 1.84879 0.499202 0
M  V30 10546 H 1017.31 2.48812 3.02655 0
M  V30 10547 H 1019 2.83173 2.83926 0
M  V30 10548 H 1015.59 3.86725 1.84775 0
M  V30 10549 H 1019.78 4.75331 1.42739 0
M  V30 10550 H 1015.03 6.05183 0.869669 0
M  V30 10551 H 1019.21 6.94896 0.457389 0
M  V30 10552 H 1016.84 7.60004 0.172751 0
M  V30 10553 N 1018.41 -0.709066 1.40748 0
M  V30 10554 C 1019.66 -1.47119 1.39585 0
M  V30 10555 C 1019.99 -1.942 0.000245323 0
M  V30 10556 O 1019.26 -1.68609 -0.969593 0
M  V30 10557 C 1019.55 -2.69266 2.39099 0
M  V30 10558 C 1019.4 -2.28037 3.8771 0
M  V30 10559 C 1020.72 -3.71438 2.36055 0
M  V30 10560 H 1017.84 -0.533632 0.508336 0
M  V30 10561 H 1020.48 -0.808718 1.7193 0
M  V30 10562 H 1018.63 -3.25788 2.11647 0
M  V30 10563 H 1020.3 -1.76946 4.26014 0
M  V30 10564 H 1018.55 -1.59966 4.03229 0
M  V30 10565 H 1019.22 -3.15621 4.52866 0
M  V30 10566 H 1021.69 -3.24559 2.60385 0
M  V30 10567 H 1020.57 -4.54532 3.07721 0
M  V30 10568 H 1020.83 -4.20193 1.37443 0
M  V30 10569 N 1019.89 -1.26353 -0.941956 0
M  V30 10570 C 1021.14 -1.11241 -1.68251 0
M  V30 10571 C 1021.45 0.344055 -1.9255 0
M  V30 10572 O 1022.66 0.615832 -2.64423 0
M  V30 10573 C 1021.11 -1.94269 -3.02965 0
M  V30 10574 C 1020.72 -3.44485 -2.86415 0
M  V30 10575 C 1022.47 -1.87764 -3.80716 0
M  V30 10576 C 1020.37 -4.19763 -4.16597 0
M  V30 10577 H 1019.3 -0.412694 -0.63103 0
M  V30 10578 H 1021.95 -1.50656 -1.04762 0
M  V30 10579 H 1020.34 -1.47687 -3.6743 0
M  V30 10580 H 1021.51 -3.9883 -2.30805 0
M  V30 10581 H 1019.82 -3.52218 -2.22107 0
M  V30 10582 H 1022.42 -2.41292 -4.77161 0
M  V30 10583 H 1022.76 -0.848195 -4.07568 0
M  V30 10584 H 1023.3 -2.32165 -3.23024 0
M  V30 10585 H 1020.04 -5.23173 -3.9493 0
M  V30 10586 H 1019.56 -3.70198 -4.71925 0
M  V30 10587 H 1021.24 -4.28168 -4.85058 0
M  V30 10588 N 1021.37 1.14642 -1.08144 0
M  V30 10589 C 1022.6 1.89484 -0.830864 0
M  V30 10590 C 1023.01 1.78443 0.616722 0
M  V30 10591 O 1022.37 1.14191 1.42361 0
M  V30 10592 C 1022.42 3.39554 -1.24039 0
M  V30 10593 O 1022.14 3.50286 -2.63119 0
M  V30 10594 C 1023.64 4.31399 -1.02029 0
M  V30 10595 H 1020.86 0.600283 -0.299835 0
M  V30 10596 H 1023.4 1.45204 -1.44001 0
M  V30 10597 H 1021.56 3.81467 -0.675407 0
M  V30 10598 H 1021.97 4.43481 -2.80045 0
M  V30 10599 H 1023.45 5.35079 -1.35625 0
M  V30 10600 H 1023.92 4.39179 0.0428697 0
M  V30 10601 H 1024.53 3.95238 -1.57057 0
M  V30 10602 N 1022.85 0.866709 1.31628 0
M  V30 10603 C 1024.07 0.48956 2.01539 0
M  V30 10604 C 1024.5 -0.909556 1.64647 0
M  V30 10605 O 1023.85 -1.59959 0.853391 0
M  V30 10606 C 1023.9 0.650176 3.5469 0
M  V30 10607 O 1023.01 -0.311908 4.11219 0
M  V30 10608 H 1022.35 0.195144 0.634677 0
M  V30 10609 H 1024.88 1.16923 1.679 0
M  V30 10610 H 1024.89 0.542236 4.04381 0
M  V30 10611 H 1023.56 1.67038 3.80882 0
M  V30 10612 H 1022.14 -0.159197 3.7256 0
M  V30 10613 N 1024.32 -1.44642 0.625825 0
M  V30 10614 C 1025.74 -1.56925 0.290992 0
M  V30 10615 C 1025.94 -1.61424 -1.20601 0
M  V30 10616 O 1025 -1.55439 -1.98985 0
M  V30 10617 C 1026.31 -2.84343 0.978242 0
M  V30 10618 C 1027.86 -2.98047 0.955882 0
M  V30 10619 C 1028.33 -4.2826 1.62349 0
M  V30 10620 N 1029.82 -4.35062 1.58983 0
M  V30 10621 C 1030.56 -5.34524 2.07538 0
M  V30 10622 N 1030.05 -6.4042 2.6426 0
M  V30 10623 N 1031.85 -5.25998 1.98198 0
M  V30 10624 H 1024 -1.39965 1.59761 0
M  V30 10625 H 1026.26 -0.670368 0.670306 0
M  V30 10626 H 1025.97 -2.86985 2.03304 0
M  V30 10627 H 1025.84 -3.73699 0.512726 0
M  V30 10628 H 1028.23 -2.94961 -0.0904292 0
M  V30 10629 H 1028.31 -2.10053 1.45984 0
M  V30 10630 H 1027.95 -4.32105 2.66923 0
M  V30 10631 H 1027.88 -5.15102 1.09441 0
M  V30 10632 H 1030.37 -3.59147 1.17565 0
M  V30 10633 H 1030.69 -7.1259 2.99056 0
M  V30 10634 H 1029.03 -6.41121 2.68308 0
M  V30 10635 H 1032.22 -4.42178 1.5361 0
M  V30 10636 H 1032.4 -6.03359 2.3635 0
M  V30 10637 N 1025.8 -0.366053 -1.5329 0
M  V30 10638 C 1026.73 0.514916 -2.23341 0
M  V30 10639 C 1027.75 1.04579 -1.24768 0
M  V30 10640 O 1028.94 0.952084 -1.50989 0
M  V30 10641 C 1026.04 1.72374 -2.91788 0
M  V30 10642 C 1025.21 1.32429 -4.16871 0
M  V30 10643 C 1024.27 2.39524 -4.68524 0
M  V30 10644 O 1023.29 2.01895 -5.32191 0
M  V30 10645 N 1024.5 3.71116 -4.46378 0
M  V30 10646 H 1027.26 -0.0851272 -2.99579 0
M  V30 10647 H 1024.82 -0.191255 -1.60766 0
M  V30 10648 H 1026.81 2.43496 -3.23252 0
M  V30 10649 H 1025.38 2.23064 -2.19 0
M  V30 10650 H 1024.6 0.442901 -3.91704 0
M  V30 10651 H 1025.89 1.03372 -4.98188 0
M  V30 10652 H 1025.29 4.04463 -3.95508 0
M  V30 10653 H 1023.85 4.38341 -4.82391 0
M  V30 10654 N 1027.28 1.57312 -0.0952337 0
M  V30 10655 C 1028.56 1.85822 0.610715 0
M  V30 10656 C 1028.94 0.992114 1.86334 0
M  V30 10657 O 1028.28 0.0645669 2.28409 0
M  V30 10658 C 1028.49 3.36492 0.925967 0
M  V30 10659 C 1029.84 4.0455 1.28936 0
M  V30 10660 O 1030.87 3.41374 1.01698 0
M  V30 10661 O 1029.73 5.16024 1.79949 0
M  V30 10662 H 1026.82 0.768454 0.305626 0
M  V30 10663 H 1029.37 1.69217 -0.127941 0
M  V30 10664 H 1028.14 3.91282 0.0373127 0
M  V30 10665 H 1027.76 3.58443 1.7206 0
M  V30 10666 N 1028.76 -0.17846 1.56586 0
M  V30 10667 C 1030.17 -0.741599 1.71339 0
M  V30 10668 C 1030.52 -1.83112 0.704579 0
M  V30 10669 O 1029.64 -2.15975 -0.135557 0
M  V30 10670 C 1030.24 -1.35198 3.10656 0
M  V30 10671 C 1028.8 -1.86202 3.27118 0
M  V30 10672 C 1027.95 -0.738255 2.67292 0
M  V30 10673 H 1030.9 0.0468424 1.58631 0
M  V30 10674 H 1030.92 -2.2216 3.0891 0
M  V30 10675 H 1030.43 -0.558776 3.84056 0
M  V30 10676 H 1028.53 -2.68188 2.58661 0
M  V30 10677 H 1028.64 -2.01237 4.34788 0
M  V30 10678 H 1027.01 -1.15686 2.26912 0
M  V30 10679 H 1027.79 0.0429821 3.43273 0
M  V30 10680 N 1030.24 -1.51135 -0.446768 0
M  V30 10681 C 1031.48 -1.63013 -1.19461 0
M  V30 10682 C 1031.8 -0.344067 -1.91941 0
M  V30 10683 O 1031.07 0.639666 -1.85162 0
M  V30 10684 H 1029.65 -0.600757 -0.443959 0
M  V30 10685 H 1032.32 -1.88024 -0.513137 0
M  V30 10686 H 1031.41 -2.45322 -1.92933 0
M  V30 10687 N 1031.71 0.701592 -1.41122 0
M  V30 10688 C 1032.94 1.49049 -1.43499 0
M  V30 10689 C 1033.36 1.88761 -0.0385684 0
M  V30 10690 O 1032.71 1.56384 0.940755 0
M  V30 10691 C 1032.76 2.7569 -2.33832 0
M  V30 10692 O 1032.49 2.37653 -3.68039 0
M  V30 10693 C 1033.99 3.69479 -2.44949 0
M  V30 10694 H 1031.21 0.459519 -0.488961 0
M  V30 10695 H 1033.75 0.864318 -1.85337 0
M  V30 10696 H 1031.91 3.34559 -1.95318 0
M  V30 10697 H 1032.32 3.19241 -4.16156 0
M  V30 10698 H 1033.79 4.55139 -3.12334 0
M  V30 10699 H 1034.27 4.13553 -1.47887 0
M  V30 10700 H 1034.88 3.16517 -2.84072 0
M  V30 10701 N 1033.19 1.2685 0.935242 0
M  V30 10702 C 1034.42 1.15538 1.71635 0
M  V30 10703 C 1034.83 -0.288698 1.8658 0
M  V30 10704 O 1034.19 -1.19721 1.37743 0
M  V30 10705 C 1034.24 1.8259 3.11999 0
M  V30 10706 O 1033.96 3.21355 2.97763 0
M  V30 10707 C 1035.46 1.77307 4.06297 0
M  V30 10708 H 1032.68 0.402055 0.537208 0
M  V30 10709 H 1035.23 1.67582 1.17203 0
M  V30 10710 H 1033.38 1.3447 3.63313 0
M  V30 10711 H 1033.8 3.54626 3.86446 0
M  V30 10712 H 1035.27 2.28851 5.02326 0
M  V30 10713 H 1035.75 0.740823 4.32907 0
M  V30 10714 H 1036.35 2.25007 3.60904 0
M  V30 10715 N 1034.67 -1.14067 1.0875 0
M  V30 10716 C 1035.6 -2.21385 0.74236 0
M  V30 10717 C 1036.58 -1.67833 -0.276805 0
M  V30 10718 O 1037.77 -1.93647 -0.1464 0
M  V30 10719 C 1034.9 -3.46956 0.154644 0
M  V30 10720 C 1033.85 -4.13555 1.10255 0
M  V30 10721 C 1033.18 -5.3337 0.376877 0
M  V30 10722 C 1034.48 -4.6169 2.44213 0
M  V30 10723 H 1036.17 -2.50512 1.63964 0
M  V30 10724 H 1033.72 -1.20408 0.789807 0
M  V30 10725 H 1035.67 -4.21284 -0.0988419 0
M  V30 10726 H 1034.39 -3.17203 -0.777789 0
M  V30 10727 H 1033.05 -3.41186 1.34119 0
M  V30 10728 H 1032.7 -4.99879 -0.559472 0
M  V30 10729 H 1032.4 -5.78875 1.00884 0
M  V30 10730 H 1033.92 -6.10458 0.131527 0
M  V30 10731 H 1035.34 -5.27475 2.24595 0
M  V30 10732 H 1033.74 -5.17909 3.03134 0
M  V30 10733 H 1034.81 -3.76574 3.05483 0
M  V30 10734 N 1036.15 -0.873678 -1.31166 0
M  V30 10735 C 1037.11 -0.337069 -2.26708 0
M  V30 10736 C 1038.11 0.51406 -1.52362 0
M  V30 10737 O 1039.3 0.322834 -1.71182 0
M  V30 10738 C 1036.43 0.520897 -3.36897 0
M  V30 10739 H 1037.63 -1.18056 -2.75686 0
M  V30 10740 H 1035.18 -0.649577 -1.42163 0
M  V30 10741 H 1035.91 1.38543 -2.93217 0
M  V30 10742 H 1035.7 -0.0886015 -3.92 0
M  V30 10743 H 1037.19 0.888497 -4.08039 0
M  V30 10744 N 1037.63 1.44308 -0.633487 0
M  V30 10745 C 1038.56 2.28943 0.108474 0
M  V30 10746 C 1039.57 1.41415 0.806582 0
M  V30 10747 O 1040.76 1.65544 0.667634 0
M  V30 10748 C 1037.86 3.17845 1.1759 0
M  V30 10749 C 1037.03 4.33802 0.559842 0
M  V30 10750 C 1036.09 5.03722 1.52154 0
M  V30 10751 O 1035.12 5.5966 1.03776 0
M  V30 10752 N 1036.32 5.05392 2.85586 0
M  V30 10753 H 1039.09 2.93262 -0.617879 0
M  V30 10754 H 1036.65 1.54781 -0.474819 0
M  V30 10755 H 1038.64 3.61485 1.81963 0
M  V30 10756 H 1037.21 2.55261 1.80445 0
M  V30 10757 H 1036.43 3.93325 -0.262559 0
M  V30 10758 H 1037.72 5.08637 0.128942 0
M  V30 10759 H 1037.11 4.61282 3.27468 0
M  V30 10760 H 1035.67 5.52813 3.45313 0
M  V30 10761 N 1039.1 0.374177 1.53094 0
M  V30 10762 C 1040.38 -0.269632 1.93733 0
M  V30 10763 C 1040.76 -1.6566 1.30843 0
M  V30 10764 O 1040.11 -2.23598 0.470759 0
M  V30 10765 C 1040.32 -0.311204 3.4761 0
M  V30 10766 C 1041.67 -0.547432 4.21056 0
M  V30 10767 O 1042.69 -0.392053 3.54036 0
M  V30 10768 O 1041.55 -0.850645 5.39839 0
M  V30 10769 H 1038.64 -0.163723 0.810632 0
M  V30 10770 H 1041.19 0.427586 1.64225 0
M  V30 10771 H 1039.96 0.660897 3.85678 0
M  V30 10772 H 1039.59 -1.05397 3.83376 0
M  V30 10773 N 1040.58 -1.57259 0.103575 0
M  V30 10774 C 1041.52 -2.10165 -0.889141 0
M  V30 10775 C 1042.49 -1.01426 -1.27089 0
M  V30 10776 O 1043.68 -1.2898 -1.37465 0
M  V30 10777 C 1040.8 -2.58564 -2.18774 0
M  V30 10778 C 1039.85 -3.79043 -1.95522 0
M  V30 10779 S 1040.68 -5.22213 -1.18551 0
M  V30 10780 C 1041.84 -5.73968 -2.49623 0
M  V30 10781 H 1042.07 -2.9404 -0.439083 0
M  V30 10782 H 1039.61 -1.54008 -0.10989 0
M  V30 10783 H 1041.56 -2.87106 -2.93395 0
M  V30 10784 H 1040.22 -1.749 -2.609 0
M  V30 10785 H 1039.42 -4.11004 -2.91705 0
M  V30 10786 H 1039.02 -3.51038 -1.29028 0
M  V30 10787 H 1041.31 -5.82752 -3.45553 0
M  V30 10788 H 1042.25 -6.72324 -2.22229 0
M  V30 10789 H 1042.66 -5.01946 -2.58284 0
M  V30 10790 N 1042.06 0.170153 -1.56679 0
M  V30 10791 C 1043.47 0.732502 -1.7173 0
M  V30 10792 C 1043.82 1.82736 -0.71428 0
M  V30 10793 O 1042.95 2.16044 0.124102 0
M  V30 10794 C 1043.54 1.33548 -3.11368 0
M  V30 10795 C 1042.1 1.84464 -3.281 0
M  V30 10796 C 1041.25 0.724069 -2.6768 0
M  V30 10797 H 1044.2 -0.0552543 -1.58604 0
M  V30 10798 H 1044.22 2.20519 -3.10083 0
M  V30 10799 H 1043.73 0.5384 -3.84347 0
M  V30 10800 H 1041.83 2.66813 -2.6008 0
M  V30 10801 H 1041.95 1.98928 -4.35849 0
M  V30 10802 H 1040.31 1.14481 -2.27522 0
M  V30 10803 H 1041.09 -0.0611861 -3.43245 0
M  V30 10804 N 1043.54 1.5137 0.438746 0
M  V30 10805 C 1044.78 1.64211 1.19006 0
M  V30 10806 C 1045.12 0.356607 1.90898 0
M  V30 10807 O 1044.39 -0.643722 1.83539 0
M  V30 10808 C 1044.68 2.8445 2.20817 0
M  V30 10809 C 1044.53 4.22972 1.53018 0
M  V30 10810 C 1045.85 3.00207 3.21813 0
M  V30 10811 H 1042.97 0.597628 0.431288 0
M  V30 10812 H 1045.61 1.8385 0.479487 0
M  V30 10813 H 1043.76 2.67836 2.81418 0
M  V30 10814 H 1045.43 4.5125 0.957654 0
M  V30 10815 H 1043.67 4.25736 0.832556 0
M  V30 10816 H 1044.34 5.03094 2.27158 0
M  V30 10817 H 1046.82 3.15522 2.71266 0
M  V30 10818 H 1045.7 3.85904 3.90345 0
M  V30 10819 H 1045.96 2.12216 3.87836 0
M  V30 10820 N 1045.02 -0.694098 1.41492 0
M  V30 10821 C 1045.95 -1.82042 1.46229 0
M  V30 10822 C 1046.93 -1.67047 0.320803 0
M  V30 10823 O 1048.11 -1.86758 0.53245 0
M  V30 10824 C 1045.24 -3.2019 1.34519 0
M  V30 10825 C 1044.2 -3.49892 2.46495 0
M  V30 10826 C 1043.52 -4.87411 2.1985 0
M  V30 10827 C 1044.82 -3.4872 3.88834 0
M  V30 10828 H 1046.52 -1.78335 2.40493 0
M  V30 10829 H 1044.06 -0.856566 1.15754 0
M  V30 10830 H 1046.02 -3.98699 1.36445 0
M  V30 10831 H 1044.74 -3.24527 0.367406 0
M  V30 10832 H 1043.4 -2.73734 2.43854 0
M  V30 10833 H 1043.05 -4.88375 1.20411 0
M  V30 10834 H 1042.75 -5.08248 2.94885 0
M  V30 10835 H 1044.27 -5.68228 2.23494 0
M  V30 10836 H 1045.68 -4.1723 3.93182 0
M  V30 10837 H 1044.08 -3.81089 4.63564 0
M  V30 10838 H 1045.15 -2.47665 4.16881 0
M  V30 10839 N 1046.49 -1.27344 -0.928501 0
M  V30 10840 C 1047.72 -1.16447 -1.7102 0
M  V30 10841 C 1048.14 0.278799 -1.8673 0
M  V30 10842 O 1047.49 1.18989 -1.38376 0
M  V30 10843 C 1047.55 -1.84242 -3.11026 0
M  V30 10844 O 1047.27 -3.2293 -2.96054 0
M  V30 10845 C 1048.77 -1.7946 -4.05351 0
M  V30 10846 H 1045.99 -0.404898 -0.535069 0
M  V30 10847 H 1048.53 -1.68201 -1.16313 0
M  V30 10848 H 1046.69 -1.36395 -3.62595 0
M  V30 10849 H 1047.1 -3.5667 -3.8456 0
M  V30 10850 H 1048.57 -2.31511 -5.01105 0
M  V30 10851 H 1049.05 -0.763771 -4.32508 0
M  V30 10852 H 1049.66 -2.26918 -3.59706 0
M  V30 10853 N 1047.97 1.13488 -1.09353 0
M  V30 10854 C 1049.39 1.36739 -0.823086 0
M  V30 10855 C 1049.59 1.93476 0.562963 0
M  V30 10856 O 1048.64 2.15374 1.31796 0
M  V30 10857 C 1049.96 2.31943 -1.91371 0
M  V30 10858 C 1051.51 2.4556 -1.94085 0
M  V30 10859 C 1051.98 3.44072 -3.02289 0
M  V30 10860 N 1053.47 3.51622 -3.01524 0
M  V30 10861 C 1054.21 4.27724 -3.8189 0
M  V30 10862 N 1053.7 5.06987 -4.72161 0
M  V30 10863 N 1055.5 4.23018 -3.70152 0
M  V30 10864 H 1047.65 0.75012 -1.98713 0
M  V30 10865 H 1049.91 0.392564 -0.862901 0
M  V30 10866 H 1049.62 1.97408 -2.91072 0
M  V30 10867 H 1049.49 3.31952 -1.79131 0
M  V30 10868 H 1051.88 2.79382 -0.950234 0
M  V30 10869 H 1051.96 1.45479 -2.10403 0
M  V30 10870 H 1051.6 3.10981 -4.01564 0
M  V30 10871 H 1051.53 4.43956 -2.83214 0
M  V30 10872 H 1054.02 2.95066 -2.36103 0
M  V30 10873 H 1054.34 5.6236 -5.30067 0
M  V30 10874 H 1052.68 5.06222 -4.76197 0
M  V30 10875 H 1055.87 3.60171 -2.98989 0
M  V30 10876 H 1056.04 4.82075 -4.33022 0
M  V30 10877 N 1049.45 0.880621 1.30701 0
M  V30 10878 C 1050.38 0.301443 2.27209 0
M  V30 10879 C 1051.4 -0.541533 1.53529 0
M  V30 10880 O 1052.59 -0.361791 1.74795 0
M  V30 10881 C 1049.69 -0.59038 3.33718 0
M  V30 10882 C 1048.86 0.222549 4.36833 0
M  V30 10883 C 1047.92 -0.599083 5.22779 0
M  V30 10884 O 1046.94 -0.0233267 5.69195 0
M  V30 10885 N 1048.15 -1.90904 5.48211 0
M  V30 10886 H 1050.91 1.13083 2.77547 0
M  V30 10887 H 1048.47 0.743168 1.43835 0
M  V30 10888 H 1050.46 -1.14599 3.88135 0
M  V30 10889 H 1049.03 -1.32044 2.83343 0
M  V30 10890 H 1048.25 0.959606 3.82342 0
M  V30 10891 H 1049.54 0.779965 5.02786 0
M  V30 10892 H 1048.94 -2.3998 5.12275 0
M  V30 10893 H 1047.5 -2.4122 6.05521 0
M  V30 10894 N 1050.93 -1.4397 0.641131 0
M  V30 10895 C 1052.18 -2.01163 0.147026 0
M  V30 10896 C 1052.49 -1.51099 -1.24211 0
M  V30 10897 O 1053.7 -2.00487 -1.83078 0
M  V30 10898 C 1052.15 -3.59275 0.212068 0
M  V30 10899 C 1051.76 -4.18334 1.60314 0
M  V30 10900 C 1053.51 -4.23903 -0.225057 0
M  V30 10901 C 1051.41 -5.68701 1.62276 0
M  V30 10902 H 1050.34 -0.75226 0.051201 0
M  V30 10903 H 1052.99 -1.65075 0.801396 0
M  V30 10904 H 1051.38 -3.92708 -0.509589 0
M  V30 10905 H 1052.55 -3.96422 2.34918 0
M  V30 10906 H 1050.86 -3.66031 1.9852 0
M  V30 10907 H 1053.46 -5.34205 -0.230074 0
M  V30 10908 H 1053.8 -3.96956 -1.25426 0
M  V30 10909 H 1054.34 -3.95309 0.44444 0
M  V30 10910 H 1051.08 -6.00397 2.63066 0
M  V30 10911 H 1050.6 -5.92705 0.919797 0
M  V30 10912 H 1052.28 -6.32521 1.36112 0
M  V30 10913 N 1052.41 -0.382291 -1.52893 0
M  V30 10914 C 1053.34 0.500194 -2.22651 0
M  V30 10915 C 1054.32 1.06969 -1.22459 0
M  V30 10916 O 1055.5 1.12267 -1.51422 0
M  V30 10917 C 1052.63 1.6917 -2.93427 0
M  V30 10918 C 1051.68 1.24811 -4.07829 0
M  V30 10919 S 1052.51 0.235466 -5.34982 0
M  V30 10920 C 1053.66 1.43292 -6.09277 0
M  V30 10921 H 1053.9 -0.0921913 -2.97157 0
M  V30 10922 H 1051.43 -0.16645 -1.535 0
M  V30 10923 H 1053.39 2.37507 -3.34815 0
M  V30 10924 H 1052.05 2.25537 -2.18613 0
M  V30 10925 H 1051.24 2.13754 -4.56426 0
M  V30 10926 H 1050.84 0.643744 -3.68418 0
M  V30 10927 H 1053.14 2.36118 -6.35023 0
M  V30 10928 H 1054.08 0.988003 -7.01173 0
M  V30 10929 H 1054.49 1.64655 -5.39953 0
M  V30 10930 N 1053.89 1.57202 -0.111913 0
M  V30 10931 C 1055.12 1.99008 0.554907 0
M  V30 10932 C 1055.52 0.990323 1.61212 0
M  V30 10933 O 1054.87 -0.0259612 1.83682 0
M  V30 10934 C 1054.93 3.37218 1.24598 0
M  V30 10935 C 1054.59 4.55752 0.337549 0
M  V30 10936 C 1055.59 5.18192 -0.421026 0
M  V30 10937 C 1053.27 5.01674 0.25069 0
M  V30 10938 C 1055.27 6.24938 -1.25426 0
M  V30 10939 C 1052.96 6.08282 -0.586186 0
M  V30 10940 C 1053.95 6.6978 -1.3373 0
M  V30 10941 O 1053.64 7.7433 -2.16029 0
M  V30 10942 H 1053.37 0.658669 0.152091 0
M  V30 10943 H 1055.93 2.04492 -0.192937 0
M  V30 10944 H 1054.16 3.28467 2.04074 0
M  V30 10945 H 1055.85 3.63359 1.809 0
M  V30 10946 H 1056.61 4.83634 -0.363752 0
M  V30 10947 H 1052.49 4.53558 0.825005 0
M  V30 10948 H 1056.04 6.72869 -1.84102 0
M  V30 10949 H 1051.93 6.42271 -0.64488 0
M  V30 10950 H 1052.7 7.91395 -2.08894 0
M  V30 10951 N 1055.36 -0.161842 1.56767 0
M  V30 10952 C 1056.61 -0.878224 1.82798 0
M  V30 10953 C 1056.94 -1.81481 0.691242 0
M  V30 10954 O 1056.22 -1.92075 -0.30618 0
M  V30 10955 C 1056.5 -1.66565 3.19262 0
M  V30 10956 C 1056.35 -0.751551 4.43477 0
M  V30 10957 C 1057.67 -2.63134 3.52773 0
M  V30 10958 H 1054.79 -0.317828 0.664947 0
M  V30 10959 H 1057.43 -0.14402 1.89453 0
M  V30 10960 H 1055.58 -2.29157 3.13719 0
M  V30 10961 H 1057.26 -0.137783 4.61094 0
M  V30 10962 H 1055.5 -0.0601785 4.33758 0
M  V30 10963 H 1056.17 -1.33823 5.35533 0
M  V30 10964 H 1058.65 -2.10666 3.5883 0
M  V30 10965 H 1057.52 -3.15289 4.49315 0
M  V30 10966 H 1057.78 -3.43786 2.77963 0
M  V30 10967 N 1056.84 -1.516 -0.430713 0
M  V30 10968 C 1058.25 -1.57 -1.01035 0
M  V30 10969 C 1058.6 -0.397439 -1.92132 0
M  V30 10970 O 1057.73 0.484954 -2.10896 0
M  V30 10971 C 1058.32 -2.84536 -1.83915 0
M  V30 10972 C 1056.88 -2.92485 -2.36917 0
M  V30 10973 C 1056.03 -2.5173 -1.16308 0
M  V30 10974 H 1058.98 -1.57281 -0.211734 0
M  V30 10975 H 1059 -2.68672 -2.69435 0
M  V30 10976 H 1058.51 -3.69858 -1.17586 0
M  V30 10977 H 1056.61 -2.11608 -3.0668 0
M  V30 10978 H 1056.73 -3.96277 -2.6926 0
M  V30 10979 H 1055.09 -2.05079 -1.51045 0
M  V30 10980 H 1055.87 -3.39403 -0.515793 0
M  V30 10981 N 1058.32 0.686584 -1.41858 0
M  V30 10982 C 1059.73 1.26682 -1.37145 0
M  V30 10983 C 1060.08 1.96112 -0.058922 0
M  V30 10984 O 1059.21 1.99321 0.842629 0
M  V30 10985 C 1059.8 2.30383 -2.48413 0
M  V30 10986 C 1058.36 2.83961 -2.47069 0
M  V30 10987 C 1057.51 1.58119 -2.27802 0
M  V30 10988 H 1060.46 0.480742 -1.51243 0
M  V30 10989 H 1060.48 3.11868 -2.17987 0
M  V30 10990 H 1059.99 1.79822 -3.43927 0
M  V30 10991 H 1058.09 3.38675 -1.55338 0
M  V30 10992 H 1058.21 3.3378 -3.43697 0
M  V30 10993 H 1056.57 1.84258 -1.75844 0
M  V30 10994 H 1057.35 1.09541 -3.25355 0
M  V30 10995 N 1059.8 1.27835 0.921735 0
M  V30 10996 C 1061.05 1.14296 1.66676 0
M  V30 10997 C 1061.37 -0.310493 1.92512 0
M  V30 10998 O 1060.64 -1.21637 1.53562 0
M  V30 10999 H 1059.22 0.419994 0.617749 0
M  V30 11000 H 1061.88 1.60449 1.10644 0
M  V30 11001 H 1060.97 1.67654 2.63246 0
M  V30 11002 N 1061.28 -1.12907 1.09954 0
M  V30 11003 C 1062.52 -1.83941 0.837255 0
M  V30 11004 C 1062.84 -1.84234 -0.638984 0
M  V30 11005 O 1062.11 -1.30193 -1.46378 0
M  V30 11006 H 1060.69 -0.681115 0.306743 0
M  V30 11007 H 1063.36 -1.36743 1.38879 0
M  V30 11008 H 1062.45 -2.88289 1.19565 0
M  V30 11009 N 1062.75 -0.88754 -1.30232 0
M  V30 11010 C 1064.16 -0.55745 -1.78184 0
M  V30 11011 C 1064.52 0.926474 -1.72948 0
M  V30 11012 O 1063.64 1.72403 -1.3079 0
M  V30 11013 C 1064.24 -1.00512 -3.23547 0
M  V30 11014 C 1062.79 -0.726402 -3.69324 0
M  V30 11015 C 1061.94 -1.18666 -2.50627 0
M  V30 11016 H 1064.89 -1.07151 -1.17066 0
M  V30 11017 H 1064.91 -0.335185 -3.79021 0
M  V30 11018 H 1064.43 -2.08517 -3.27326 0
M  V30 11019 H 1062.53 0.341548 -3.71031 0
M  V30 11020 H 1062.64 -1.31575 -4.60679 0
M  V30 11021 H 1061 -0.605936 -2.47387 0
M  V30 11022 H 1061.79 -2.2745 -2.57141 0
M  V30 11023 N 1064.23 1.43628 -0.648757 0
M  V30 11024 C 1065.48 2.01083 -0.157692 0
M  V30 11025 C 1065.79 1.51756 1.23408 0
M  V30 11026 O 1067 2.01455 1.82012 0
M  V30 11027 C 1065.46 3.59157 -0.231118 0
M  V30 11028 C 1065.06 4.17478 -1.6253 0
M  V30 11029 C 1066.81 4.24016 0.202573 0
M  V30 11030 C 1064.72 5.67832 -1.6529 0
M  V30 11031 H 1063.65 0.751977 -0.0551897 0
M  V30 11032 H 1066.3 1.64648 -0.810139 0
M  V30 11033 H 1064.68 3.92972 0.488755 0
M  V30 11034 H 1065.85 3.9517 -2.37017 0
M  V30 11035 H 1064.17 3.64973 -2.00459 0
M  V30 11036 H 1066.76 5.34319 0.20174 0
M  V30 11037 H 1067.11 3.97616 1.23319 0
M  V30 11038 H 1067.64 3.95068 -0.465398 0
M  V30 11039 H 1064.38 5.98994 -2.66246 0
M  V30 11040 H 1063.9 5.92209 -0.951217 0
M  V30 11041 H 1065.58 6.3179 -1.39465 0
M  V30 11042 N 1065.71 0.390394 1.52688 0
M  V30 11043 C 1067.12 -0.083394 1.86514 0
M  V30 11044 C 1067.47 -1.46057 1.31003 0
M  V30 11045 O 1066.6 -2.06663 0.641809 0
M  V30 11046 C 1067.19 -0.158102 3.38431 0
M  V30 11047 C 1065.75 -0.576186 3.71964 0
M  V30 11048 C 1064.9 0.261156 2.76068 0
M  V30 11049 H 1067.85 0.608226 1.46582 0
M  V30 11050 H 1067.87 -0.977023 3.67742 0
M  V30 11051 H 1067.38 0.844365 3.78803 0
M  V30 11052 H 1065.48 -1.58598 3.37161 0
M  V30 11053 H 1065.6 -0.333577 4.77937 0
M  V30 11054 H 1063.96 -0.273737 2.53225 0
M  V30 11055 H 1064.74 1.26162 3.19277 0
M  V30 11056 N 1067.19 -1.57141 0.120249 0
M  V30 11057 C 1068.15 -2.14213 -0.815185 0
M  V30 11058 C 1069.15 -1.07731 -1.19376 0
M  V30 11059 O 1070.34 -1.33502 -1.11906 0
M  V30 11060 C 1067.47 -2.68339 -2.10255 0
M  V30 11061 H 1068.67 -2.98197 -0.319166 0
M  V30 11062 H 1066.22 -1.55767 -0.128997 0
M  V30 11063 H 1066.95 -1.87946 -2.64285 0
M  V30 11064 H 1066.74 -3.46216 -1.84057 0
M  V30 11065 H 1068.23 -3.124 -2.77121 0
M  V30 11066 N 1068.67 0.153526 -1.5685 0
M  V30 11067 C 1069.61 1.18973 -1.97773 0
M  V30 11068 C 1070.58 1.43041 -0.844311 0
M  V30 11069 O 1071.77 1.55484 -1.10586 0
M  V30 11070 C 1068.91 2.51981 -2.35795 0
M  V30 11071 C 1068.02 2.35143 -3.62397 0
M  V30 11072 C 1067.16 3.61141 -3.89552 0
M  V30 11073 C 1066.2 3.39311 -5.09445 0
M  V30 11074 N 1065.33 4.57423 -5.32643 0
M  V30 11075 H 1070.17 0.833758 -2.86099 0
M  V30 11076 H 1067.71 0.400252 -1.4155 0
M  V30 11077 H 1069.67 3.29527 -2.55867 0
M  V30 11078 H 1068.3 2.85539 -1.50557 0
M  V30 11079 H 1067.35 1.48684 -3.50139 0
M  V30 11080 H 1068.66 2.14969 -4.501 0
M  V30 11081 H 1067.82 4.47117 -4.10087 0
M  V30 11082 H 1066.55 3.84312 -3.00259 0
M  V30 11083 H 1065.56 2.51723 -4.8879 0
M  V30 11084 H 1066.78 3.17545 -6.00285 0
M  V30 11085 H 1064.73 4.8078 -4.46303 0
M  V30 11086 H 1064.65 4.40228 -6.14602 0
M  V30 11087 H 1065.92 5.44632 -5.57671 0
M  V30 11088 N 1070.14 1.51827 0.422667 0
M  V30 11089 C 1071.39 1.65464 1.17258 0
M  V30 11090 C 1071.72 0.376834 1.90509 0
M  V30 11091 O 1071 -0.624219 1.84211 0
M  V30 11092 C 1071.28 2.86776 2.17788 0
M  V30 11093 C 1071.13 4.24571 1.48523 0
M  V30 11094 C 1072.45 3.03603 3.18611 0
M  V30 11095 H 1069.57 0.602169 0.424925 0
M  V30 11096 H 1072.21 1.84349 0.45996 0
M  V30 11097 H 1070.36 2.70806 2.78561 0
M  V30 11098 H 1072.04 4.5224 0.909739 0
M  V30 11099 H 1070.28 4.26595 0.787354 0
M  V30 11100 H 1070.95 5.05475 2.2181 0
M  V30 11101 H 1073.43 3.18381 2.67904 0
M  V30 11102 H 1072.3 3.90022 3.8623 0
M  V30 11103 H 1072.56 2.16318 3.85563 0
M  V30 11104 N 1071.62 -0.679052 1.4222 0
M  V30 11105 C 1072.9 -1.43473 1.32947 0
M  V30 11106 C 1073.28 -2.11071 -0.0351689 0
M  V30 11107 O 1072.63 -2.02925 -1.05042 0
M  V30 11108 C 1072.84 -2.44065 2.49466 0
M  V30 11109 C 1074.19 -3.08834 2.91387 0
M  V30 11110 O 1075.21 -2.54392 2.49325 0
M  V30 11111 O 1074.07 -4.07478 3.64175 0
M  V30 11112 H 1071.16 -0.639743 0.524078 0
M  V30 11113 H 1073.71 -0.708134 1.54219 0
M  V30 11114 H 1072.48 -1.92884 3.40457 0
M  V30 11115 H 1072.1 -3.24212 2.30158 0
M  V30 11116 N 1073.1 -1.28322 -0.914942 0
M  V30 11117 C 1074.38 -1.06111 -1.64316 0
M  V30 11118 C 1074.76 0.399934 -2.07277 0
M  V30 11119 O 1074.11 1.38577 -1.81683 0
M  V30 11120 C 1074.32 -2.03461 -2.83557 0
M  V30 11121 C 1075.66 -2.33541 -3.54604 0
M  V30 11122 O 1076.69 -2.01536 -2.93704 0
M  V30 11123 O 1075.55 -2.88158 -4.64357 0
M  V30 11124 H 1072.64 -0.405451 -0.72079 0
M  V30 11125 H 1075.19 -1.39636 -0.964352 0
M  V30 11126 H 1073.96 -3.01938 -2.48896 0
M  V30 11127 H 1073.58 -1.70574 -3.59152 0
M  V30 11128 N 1074.58 1.12322 -1.10551 0
M  V30 11129 C 1075.81 1.87407 -0.869607 0
M  V30 11130 C 1076.22 1.79976 0.58356 0
M  V30 11131 O 1075.56 1.1725 1.41415 0
M  V30 11132 C 1075.62 3.37401 -1.24099 0
M  V30 11133 C 1075.29 3.68607 -2.70144 0
M  V30 11134 C 1076.28 3.66869 -3.68379 0
M  V30 11135 C 1073.97 3.97903 -3.06559 0
M  V30 11136 C 1075.96 3.93987 -5.01052 0
M  V30 11137 C 1073.65 4.24681 -4.39419 0
M  V30 11138 C 1074.65 4.2271 -5.36475 0
M  V30 11139 O 1074.33 4.48823 -6.66943 0
M  V30 11140 H 1074.07 0.59978 -0.311834 0
M  V30 11141 H 1076.62 1.43037 -1.4741 0
M  V30 11142 H 1074.85 3.82332 -0.579606 0
M  V30 11143 H 1076.54 3.93833 -0.982378 0
M  V30 11144 H 1077.31 3.44297 -3.41591 0
M  V30 11145 H 1073.18 3.98578 -2.31638 0
M  V30 11146 H 1076.73 3.92364 -5.76798 0
M  V30 11147 H 1072.63 4.46727 -4.65945 0
M  V30 11148 H 1073.39 4.66436 -6.72592 0
M  V30 11149 N 1076.06 0.894434 1.2976 0
M  V30 11150 C 1077.02 0.373094 2.26143 0
M  V30 11151 C 1078.02 -0.489756 1.5316 0
M  V30 11152 O 1079.21 -0.29556 1.71674 0
M  V30 11153 C 1076.34 -0.467234 3.37683 0
M  V30 11154 H 1077.53 1.22427 2.73773 0
M  V30 11155 H 1075.09 0.672112 1.41111 0
M  V30 11156 H 1075.82 -1.33861 2.95384 0
M  V30 11157 H 1075.61 0.150954 3.91809 0
M  V30 11158 H 1077.1 -0.823469 4.094 0
M  V30 11159 N 1077.53 -1.43282 0.656365 0
M  V30 11160 C 1078.78 -2.02603 0.179905 0
M  V30 11161 C 1079.14 -1.50875 -1.19393 0
M  V30 11162 O 1078.43 -0.6935 -1.78609 0
M  V30 11163 C 1078.62 -3.57148 0.134225 0
M  V30 11164 C 1078.45 -4.23872 1.50209 0
M  V30 11165 C 1077.22 -4.59812 2.09526 0
M  V30 11166 C 1079.42 -4.52674 2.44112 0
M  V30 11167 N 1077.4 -5.11624 3.39284 0
M  V30 11168 C 1078.77 -5.05839 3.58506 0
M  V30 11169 C 1080.83 -4.34645 2.42874 0
M  V30 11170 C 1079.53 -5.42872 4.71892 0
M  V30 11171 C 1081.56 -4.72742 3.55343 0
M  V30 11172 C 1080.92 -5.26043 4.68463 0
M  V30 11173 H 1077.02 -0.774177 0.110334 0
M  V30 11174 H 1079.6 -1.74413 0.865352 0
M  V30 11175 H 1077.77 -3.84896 -0.520575 0
M  V30 11176 H 1079.5 -4.03154 -0.3534 0
M  V30 11177 H 1076.26 -4.44958 1.62203 0
M  V30 11178 H 1076.68 -5.4198 4.05693 0
M  V30 11179 H 1081.33 -3.92708 1.56654 0
M  V30 11180 H 1079.04 -5.83752 5.58802 0
M  V30 11181 H 1082.63 -4.60485 3.55591 0
M  V30 11182 H 1081.51 -5.54975 5.54051 0
M  V30 11183 N 1079.01 -0.398486 -1.52479 0
M  V30 11184 C 1079.95 0.467426 -2.24383 0
M  V30 11185 C 1080.96 1.01908 -1.26959 0
M  V30 11186 O 1082.15 0.919843 -1.52974 0
M  V30 11187 C 1079.25 1.66146 -2.95379 0
M  V30 11188 C 1078.42 1.23557 -4.19586 0
M  V30 11189 C 1077.48 2.29532 -4.73499 0
M  V30 11190 O 1076.51 1.90561 -5.36354 0
M  V30 11191 N 1077.71 3.61564 -4.5415 0
M  V30 11192 H 1080.47 -0.148653 -2.99331 0
M  V30 11193 H 1078.03 -0.225313 -1.60325 0
M  V30 11194 H 1080.03 2.36585 -3.28344 0
M  V30 11195 H 1078.6 2.18369 -2.23682 0
M  V30 11196 H 1077.82 0.359715 -3.92555 0
M  V30 11197 H 1079.1 0.927812 -5.00269 0
M  V30 11198 H 1078.5 3.95983 -4.03998 0
M  V30 11199 H 1077.06 4.2801 -4.9158 0
M  V30 11200 N 1080.49 1.57075 -0.12858 0
M  V30 11201 C 1081.72 1.99876 0.534544 0
M  V30 11202 C 1082.13 1.00843 1.59612 0
M  V30 11203 O 1081.49 0.00268947 1.825 0
M  V30 11204 C 1081.54 3.42654 1.15198 0
M  V30 11205 O 1081.26 4.37899 0.132823 0
M  V30 11206 C 1082.76 4.00637 1.8975 0
M  V30 11207 H 1079.98 0.656073 0.140744 0
M  V30 11208 H 1082.53 2.03337 -0.217742 0
M  V30 11209 H 1080.68 3.40101 1.85499 0
M  V30 11210 H 1081.1 5.21253 0.582682 0
M  V30 11211 H 1082.57 5.02592 2.28266 0
M  V30 11212 H 1083.05 3.40313 2.7764 0
M  V30 11213 H 1083.65 4.06764 1.2419 0
M  V30 11214 N 1081.97 -0.145205 1.5693 0
M  V30 11215 C 1083.19 -0.876386 1.87974 0
M  V30 11216 C 1083.62 -1.73866 0.717795 0
M  V30 11217 O 1082.98 -1.78224 -0.332551 0
M  V30 11218 C 1083.03 -1.70746 3.17613 0
M  V30 11219 O 1082.13 -2.81188 3.01674 0
M  V30 11220 H 1081.47 -0.243987 0.617549 0
M  V30 11221 H 1084 -0.135482 2.04151 0
M  V30 11222 H 1084.01 -2.1021 3.49679 0
M  V30 11223 H 1082.69 -1.07429 4.01786 0
M  V30 11224 H 1081.26 -2.45117 2.81019 0
M  V30 11225 N 1083.45 -1.52049 -0.414609 0
M  V30 11226 C 1084.68 -1.69679 -1.18392 0
M  V30 11227 C 1085.09 -0.403881 -1.84429 0
M  V30 11228 O 1084.45 0.619636 -1.71659 0
M  V30 11229 C 1084.5 -2.82855 -2.25112 0
M  V30 11230 O 1084.22 -4.07138 -1.61772 0
M  V30 11231 C 1085.72 -3.11948 -3.14965 0
M  V30 11232 H 1082.94 -0.56879 -0.355977 0
M  V30 11233 H 1085.48 -1.9858 -0.488505 0
M  V30 11234 H 1083.64 -2.56488 -2.90332 0
M  V30 11235 H 1084.05 -4.70163 -2.32479 0
M  V30 11236 H 1085.53 -3.94665 -3.85932 0
M  V30 11237 H 1086 -2.25276 -3.77024 0
M  V30 11238 H 1086.61 -3.40059 -2.55421 0
M  V30 11239 N 1084.93 0.6715 -1.42579 0
M  V30 11240 C 1085.87 1.80623 -1.46554 0
M  V30 11241 C 1086.87 1.65934 -0.340932 0
M  V30 11242 O 1088.07 1.72502 -0.514098 0
M  V30 11243 H 1084.45 0.595619 -0.459067 0
M  V30 11244 H 1086.42 1.74388 -2.42139 0
M  V30 11245 C 1085.17 3.18794 -1.38801 0
M  V30 11246 H 1084.49 3.30725 -2.24635 0
M  V30 11247 H 1085.93 3.98201 -1.45645 0
M  V30 11248 C 1084.39 3.36742 -0.103219 0
M  V30 11249 O 1084.92 3.92761 0.842715 0
M  V30 11250 N 1083.13 2.90594 -0.0193034 0
M  V30 11251 H 1082.67 2.45192 -0.78986 0
M  V30 11252 H 1082.63 3.0298 0.839686 0
M  V30 11253 N 1086.4 1.28806 0.908124 0
M  V30 11254 C 1087.81 1.14719 1.47297 0
M  V30 11255 C 1088.17 -0.260763 1.94459 0
M  V30 11256 O 1087.29 -1.15553 1.82966 0
M  V30 11257 C 1087.89 2.07643 2.67712 0
M  V30 11258 C 1086.44 1.97605 3.20358 0
M  V30 11259 C 1085.59 1.99058 1.93058 0
M  V30 11260 H 1088.54 1.41413 0.720283 0
M  V30 11261 H 1088.56 1.64372 3.43165 0
M  V30 11262 H 1088.08 3.10108 2.33355 0
M  V30 11263 H 1086.18 0.981982 3.59427 0
M  V30 11264 H 1086.29 2.84846 3.85226 0
M  V30 11265 H 1084.65 1.43541 2.104 0
M  V30 11266 H 1085.44 3.03212 1.60989 0
M  V30 11267 N 1087.88 -1.11734 1.11145 0
M  V30 11268 C 1089.11 -1.87755 0.881062 0
M  V30 11269 C 1089.53 -1.79461 -0.563496 0
M  V30 11270 O 1088.89 -1.15481 -1.39763 0
M  V30 11271 C 1088.94 -3.34641 1.34342 0
M  V30 11272 O 1088.04 -4.09195 0.513157 0
M  V30 11273 H 1087.38 -0.583111 0.317613 0
M  V30 11274 H 1089.91 -1.41256 1.48013 0
M  V30 11275 H 1089.92 -3.85486 1.33658 0
M  V30 11276 H 1088.6 -3.39994 2.39534 0
M  V30 11277 H 1087.17 -3.68269 0.585833 0
M  V30 11278 N 1089.36 -0.901303 -1.29284 0
M  V30 11279 C 1090.61 -0.52401 -1.94774 0
M  V30 11280 C 1090.92 0.934645 -1.71825 0
M  V30 11281 O 1092.13 1.41953 -2.31434 0
M  V30 11282 C 1090.58 -0.886262 -3.48817 0
M  V30 11283 C 1090.19 -2.3638 -3.80564 0
M  V30 11284 C 1091.94 -0.578955 -4.20533 0
M  V30 11285 C 1089.84 -2.66682 -5.27858 0
M  V30 11286 H 1088.77 -0.192244 -0.72908 0
M  V30 11287 H 1091.42 -1.09852 -1.46986 0
M  V30 11288 H 1089.81 -0.240666 -3.95268 0
M  V30 11289 H 1090.98 -3.05508 -3.44966 0
M  V30 11290 H 1089.29 -2.64029 -3.2199 0
M  V30 11291 H 1091.89 -0.782185 -5.28948 0
M  V30 11292 H 1092.23 0.482605 -4.13493 0
M  V30 11293 H 1092.77 -1.18246 -3.79819 0
M  V30 11294 H 1089.51 -3.71643 -5.39965 0
M  V30 11295 H 1089.03 -2.02179 -5.64698 0
M  V30 11296 H 1090.71 -2.53033 -5.95469 0
M  V30 11297 N 1090.84 1.42931 -0.663954 0
M  V30 11298 C 1092.08 2.01683 -0.181738 0
M  V30 11299 C 1092.41 1.52437 1.20802 0
M  V30 11300 O 1091.67 0.71254 1.82267 0
M  V30 11301 C 1091.97 3.57072 -0.153163 0
M  V30 11302 C 1091.63 4.25706 -1.48612 0
M  V30 11303 C 1090.29 4.4417 -1.85111 0
M  V30 11304 C 1092.65 4.6448 -2.36448 0
M  V30 11305 C 1089.97 4.98677 -3.09092 0
M  V30 11306 C 1092.33 5.20362 -3.5973 0
M  V30 11307 C 1090.99 5.37041 -3.96412 0
M  V30 11308 H 1090.26 0.73801 -0.0665026 0
M  V30 11309 H 1092.91 1.71264 -0.856791 0
M  V30 11310 H 1091.21 3.87095 0.605372 0
M  V30 11311 H 1092.91 4.00299 0.236981 0
M  V30 11312 H 1089.5 4.11686 -1.19215 0
M  V30 11313 H 1093.68 4.49898 -2.09537 0
M  V30 11314 H 1088.94 5.09776 -3.37547 0
M  V30 11315 H 1093.11 5.49352 -4.28001 0
M  V30 11316 H 1090.74 5.79042 -4.92559 0
M  V30 11317 N 1092.32 0.406567 1.52266 0
M  V30 11318 C 1093.56 -0.1627 2.02748 0
M  V30 11319 C 1093.92 -1.43022 1.28695 0
M  V30 11320 O 1093.21 -1.87715 0.383881 0
M  V30 11321 C 1093.4 -0.467124 3.54334 0
M  V30 11322 C 1093.23 0.76934 4.4307 0
M  V30 11323 C 1092 1.29377 4.88456 0
M  V30 11324 C 1094.2 1.64671 4.87225 0
M  V30 11325 N 1092.18 2.48599 5.61313 0
M  V30 11326 C 1093.55 2.68519 5.58836 0
M  V30 11327 C 1095.61 1.66477 4.69244 0
M  V30 11328 C 1094.31 3.74081 6.14374 0
M  V30 11329 C 1096.34 2.70956 5.25677 0
M  V30 11330 C 1095.7 3.73525 5.97209 0
M  V30 11331 H 1091.8 -0.0211706 0.781713 0
M  V30 11332 H 1094.38 0.560338 1.86463 0
M  V30 11333 H 1092.55 -1.15921 3.70698 0
M  V30 11334 H 1094.29 -1.02505 3.91503 0
M  V30 11335 H 1091.04 0.85219 4.6587 0
M  V30 11336 H 1091.46 3.0897 6.02384 0
M  V30 11337 H 1096.11 0.88519 4.1343 0
M  V30 11338 H 1093.82 4.52896 6.69261 0
M  V30 11339 H 1097.41 2.73258 5.13635 0
M  V30 11340 H 1096.29 4.53043 6.40095 0
M  V30 11341 N 1093.79 -1.57004 0.136909 0
M  V30 11342 C 1095.02 -2.00156 -0.523936 0
M  V30 11343 C 1095.44 -1.01688 -1.59075 0
M  V30 11344 O 1094.79 -0.0123678 -1.82496 0
M  V30 11345 C 1094.85 -3.4326 -1.13379 0
M  V30 11346 O 1094.57 -4.37963 -0.109598 0
M  V30 11347 C 1096.07 -4.01637 -1.87623 0
M  V30 11348 H 1093.29 -0.65681 -0.137263 0
M  V30 11349 H 1095.83 -2.03219 0.228522 0
M  V30 11350 H 1093.99 -3.4108 -1.83693 0
M  V30 11351 H 1094.4 -5.21555 -0.55503 0
M  V30 11352 H 1095.87 -5.03795 -2.25597 0
M  V30 11353 H 1096.35 -3.41781 -2.75831 0
M  V30 11354 H 1096.96 -4.07417 -1.22031 0
M  V30 11355 N 1095.27 0.136881 -1.57004 0
M  V30 11356 C 1096.18 1.18793 -2.023 0
M  V30 11357 C 1097.2 1.46412 -0.94018 0
M  V30 11358 O 1098.37 1.57883 -1.2504 0
M  V30 11359 C 1095.44 2.49903 -2.40311 0
M  V30 11360 C 1094.5 2.29841 -3.6259 0
M  V30 11361 C 1093.73 3.54699 -3.98779 0
M  V30 11362 O 1093.96 4.61291 -3.3551 0
M  V30 11363 O 1092.89 3.46761 -4.91976 0
M  V30 11364 H 1096.72 0.833345 -2.92043 0
M  V30 11365 H 1094.3 0.346361 -1.4533 0
M  V30 11366 H 1096.18 3.27183 -2.65574 0
M  V30 11367 H 1094.86 2.84872 -1.5372 0
M  V30 11368 H 1093.77 1.50478 -3.42501 0
M  V30 11369 H 1095.1 1.99784 -4.4983 0
M  V30 11370 N 1096.75 1.52266 0.40654 0
M  V30 11371 C 1098 1.66123 1.15097 0
M  V30 11372 C 1098.32 0.394836 1.90961 0
M  V30 11373 O 1097.59 -0.590349 1.86793 0
M  V30 11374 H 1096.17 0.612317 0.427875 0
M  V30 11375 H 1098.83 1.89318 0.463106 0
M  V30 11376 H 1097.93 2.50351 1.86361 0
M  V30 11377 N 1098.23 -0.663929 1.42933 0
M  V30 11378 C 1099.18 -1.79843 1.4751 0
M  V30 11379 C 1100.17 -1.65751 0.349727 0
M  V30 11380 O 1101.38 -1.72227 0.523239 0
M  V30 11381 H 1097.75 -0.593176 0.462219 0
M  V30 11382 H 1099.72 -1.73102 2.4306 0
M  V30 11383 C 1098.47 -3.18053 1.4049 0
M  V30 11384 H 1097.79 -3.29529 2.26386 0
M  V30 11385 H 1099.23 -3.97423 1.47754 0
M  V30 11386 C 1097.69 -3.36682 0.121076 0
M  V30 11387 O 1098.22 -3.93202 -0.821874 0
M  V30 11388 N 1096.43 -2.90579 0.0347141 0
M  V30 11389 H 1095.98 -2.44769 0.802852 0
M  V30 11390 H 1095.93 -3.03421 -0.823607 0
M  V30 11391 N 1099.71 -1.29285 -0.901281 0
M  V30 11392 C 1100.67 -1.14283 -1.98676 0
M  V30 11393 C 1101.67 -0.0787641 -1.60607 0
M  V30 11394 O 1102.86 -0.325574 -1.71131 0
M  V30 11395 C 1099.99 -0.747279 -3.32609 0
M  V30 11396 H 1101.18 -2.10701 -2.13413 0
M  V30 11397 H 1098.74 -1.12449 -1.08558 0
M  V30 11398 H 1099.47 0.217111 -3.23572 0
M  V30 11399 H 1099.26 -1.51608 -3.61604 0
M  V30 11400 H 1100.75 -0.665322 -4.12266 0
M  V30 11401 N 1101.18 1.11143 -1.11736 0
M  V30 11402 C 1102.6 1.64462 -0.883693 0
M  V30 11403 C 1102.95 1.87324 0.583448 0
M  V30 11404 O 1102.07 1.60975 1.44623 0
M  V30 11405 C 1102.67 2.98765 -1.59764 0
M  V30 11406 C 1101.23 3.4898 -1.41032 0
M  V30 11407 C 1100.37 2.23729 -1.63831 0
M  V30 11408 H 1103.32 0.947415 -1.27317 0
M  V30 11409 H 1103.34 3.65885 -1.04443 0
M  V30 11410 H 1102.86 2.82094 -2.66542 0
M  V30 11411 H 1100.96 3.7081 -0.364781 0
M  V30 11412 H 1101.07 4.27571 -2.16148 0
M  V30 11413 H 1099.43 2.31507 -1.06191 0
M  V30 11414 H 1100.22 2.09597 -2.7189 0
M  V30 11415 N 1102.66 0.908147 1.28804 0
M  V30 11416 C 1103.63 0.397058 2.25735 0
M  V30 11417 C 1104.63 -0.473483 1.53671 0
M  V30 11418 O 1105.82 -0.277335 1.71978 0
M  V30 11419 C 1102.95 -0.431392 3.38159 0
M  V30 11420 H 1104.14 1.25323 2.72459 0
M  V30 11421 H 1101.69 0.687041 1.4039 0
M  V30 11422 H 1102.43 -1.3072 2.96787 0
M  V30 11423 H 1102.21 0.192502 3.91627 0
M  V30 11424 H 1103.7 -0.78 4.10251 0
M  V30 11425 N 1104.14 -1.42577 0.671525 0
M  V30 11426 C 1105.56 -1.5592 0.340769 0
M  V30 11427 C 1105.76 -1.65179 -1.15405 0
M  V30 11428 O 1104.81 -1.61691 -1.93939 0
M  V30 11429 C 1106.13 -2.81087 1.06821 0
M  V30 11430 C 1107.67 -2.94855 1.05022 0
M  V30 11431 C 1108.15 -4.22878 1.75892 0
M  V30 11432 N 1109.64 -4.29783 1.72744 0
M  V30 11433 C 1110.37 -5.2765 2.24439 0
M  V30 11434 N 1109.87 -6.31689 2.84501 0
M  V30 11435 N 1111.66 -5.19426 2.14832 0
M  V30 11436 H 1103.81 -1.34811 1.64133 0
M  V30 11437 H 1106.08 -0.648704 0.691294 0
M  V30 11438 H 1105.78 -2.80371 2.12332 0
M  V30 11439 H 1105.66 -3.71879 0.631356 0
M  V30 11440 H 1108.04 -2.951 0.00345633 0
M  V30 11441 H 1108.13 -2.05303 1.52592 0
M  V30 11442 H 1107.77 -4.23394 2.80535 0
M  V30 11443 H 1107.7 -5.1136 1.25773 0
M  V30 11444 H 1110.19 -3.55225 1.28932 0
M  V30 11445 H 1110.5 -7.02715 3.21575 0
M  V30 11446 H 1108.85 -6.3226 2.88569 0
M  V30 11447 H 1112.04 -4.37067 1.676 0
M  V30 11448 H 1112.21 -5.95535 2.55426 0
M  V30 11449 N 1105.62 -0.414636 -1.52048 0
M  V30 11450 C 1106.55 0.452854 -2.23662 0
M  V30 11451 C 1107.53 1.04348 -1.24701 0
M  V30 11452 O 1108.71 1.09029 -1.53769 0
M  V30 11453 C 1105.84 1.62908 -2.96949 0
M  V30 11454 C 1104.89 1.16132 -4.10385 0
M  V30 11455 S 1105.72 0.121936 -5.35361 0
M  V30 11456 C 1106.88 1.30336 -6.12179 0
M  V30 11457 H 1107.11 -0.155202 -2.96895 0
M  V30 11458 H 1104.64 -0.198972 -1.53113 0
M  V30 11459 H 1106.6 2.30351 -3.39777 0
M  V30 11460 H 1105.26 2.20849 -2.23348 0
M  V30 11461 H 1104.45 2.04025 -4.60858 0
M  V30 11462 H 1104.06 0.565452 -3.69701 0
M  V30 11463 H 1106.35 2.22596 -6.39889 0
M  V30 11464 H 1107.29 0.839052 -7.03111 0
M  V30 11465 H 1107.7 1.53165 -5.43324 0
M  V30 11466 N 1107.1 1.56929 -0.145233 0
M  V30 11467 C 1108.32 2.00864 0.516564 0
M  V30 11468 C 1108.75 1.02466 1.57741 0
M  V30 11469 O 1108.1 0.000145439 1.813 0
M  V30 11470 C 1108.15 3.43552 1.09563 0
M  V30 11471 O 1107.26 3.4815 2.21055 0
M  V30 11472 H 1106.6 0.651835 0.126521 0
M  V30 11473 H 1109.13 2.0317 -0.241445 0
M  V30 11474 H 1109.14 3.82316 1.42473 0
M  V30 11475 H 1107.81 4.14677 0.318749 0
M  V30 11476 H 1106.39 3.21228 1.89387 0
M  V30 11477 N 1108.58 -0.128553 1.57075 0
M  V30 11478 C 1109.82 -0.836536 1.83535 0
M  V30 11479 C 1110.14 -1.81491 0.7294 0
M  V30 11480 O 1111.34 -2.56838 0.880128 0
M  V30 11481 C 1109.8 -1.53836 3.25365 0
M  V30 11482 C 1109.41 -0.601454 4.43944 0
M  V30 11483 C 1111.15 -2.23204 3.61082 0
M  V30 11484 C 1109.06 -1.30596 5.768 0
M  V30 11485 H 1107.99 -0.316142 0.684522 0
M  V30 11486 H 1110.64 -0.0892555 1.83283 0
M  V30 11487 H 1109.02 -2.33192 3.20058 0
M  V30 11488 H 1110.2 0.158209 4.60528 0
M  V30 11489 H 1108.51 -0.0152393 4.16397 0
M  V30 11490 H 1111.11 -2.76585 4.57608 0
M  V30 11491 H 1111.45 -3.0056 2.88044 0
M  V30 11492 H 1111.98 -1.50746 3.68131 0
M  V30 11493 H 1108.72 -0.573874 6.52983 0
M  V30 11494 H 1108.24 -2.03787 5.6412 0
M  V30 11495 H 1109.92 -1.8418 6.20231 0
M  V30 11496 N 1110.05 -1.5248 -0.398459 0
M  V30 11497 C 1111.46 -1.59107 -0.976817 0
M  V30 11498 C 1111.82 -0.438104 -1.91246 0
M  V30 11499 O 1110.94 0.440111 -2.11877 0
M  V30 11500 C 1111.54 -2.88373 -1.77838 0
M  V30 11501 C 1110.09 -2.97445 -2.30659 0
M  V30 11502 C 1109.24 -2.5414 -1.10942 0
M  V30 11503 H 1112.19 -1.57695 -0.178324 0
M  V30 11504 H 1112.21 -2.74327 -2.63676 0
M  V30 11505 H 1111.73 -3.72269 -1.09714 0
M  V30 11506 H 1109.83 -2.18066 -3.02123 0
M  V30 11507 H 1109.94 -4.019 -2.60794 0
M  V30 11508 H 1108.3 -2.08237 -1.46661 0
M  V30 11509 H 1109.09 -3.40421 -0.443684 0
M  V30 11510 N 1111.53 0.65634 -1.43283 0
M  V30 11511 C 1112.78 1.41627 -1.44734 0
M  V30 11512 C 1113.11 1.94372 -0.0704893 0
M  V30 11513 O 1112.36 1.72511 0.924037 0
M  V30 11514 C 1112.66 2.61688 -2.43421 0
M  V30 11515 C 1112.33 2.2738 -3.8937 0
M  V30 11516 C 1110.99 2.17735 -4.29121 0
M  V30 11517 C 1113.34 1.99863 -4.81357 0
M  V30 11518 C 1110.67 1.78725 -5.58815 0
M  V30 11519 C 1113.02 1.62352 -6.11412 0
M  V30 11520 C 1111.68 1.51231 -6.50143 0
M  V30 11521 H 1110.95 0.51825 -0.529621 0
M  V30 11522 H 1113.6 0.746701 -1.76342 0
M  V30 11523 H 1111.91 3.33763 -2.05206 0
M  V30 11524 H 1113.6 3.19896 -2.41801 0
M  V30 11525 H 1110.19 2.35795 -3.57908 0
M  V30 11526 H 1114.38 2.06237 -4.5142 0
M  V30 11527 H 1109.63 1.68698 -5.87666 0
M  V30 11528 H 1113.81 1.40091 -6.82164 0
M  V30 11529 H 1111.43 1.20774 -7.50545 0
M  V30 11530 N 1113.01 1.29761 0.894412 0
M  V30 11531 C 1114.26 1.17409 1.64006 0
M  V30 11532 C 1114.57 -0.272355 1.93695 0
M  V30 11533 O 1115.78 -0.517269 2.66527 0
M  V30 11534 C 1114.23 2.05379 2.95546 0
M  V30 11535 C 1113.84 3.54878 2.73433 0
M  V30 11536 C 1115.59 2.01765 3.73485 0
M  V30 11537 C 1113.49 4.34935 4.00731 0
M  V30 11538 H 1112.42 0.43583 0.615279 0
M  V30 11539 H 1115.07 1.5444 0.990983 0
M  V30 11540 H 1113.46 1.61222 3.61695 0
M  V30 11541 H 1114.63 4.07122 2.15844 0
M  V30 11542 H 1112.94 3.60218 2.08882 0
M  V30 11543 H 1115.54 2.58835 4.67877 0
M  V30 11544 H 1115.88 0.998876 4.04139 0
M  V30 11545 H 1116.42 2.43994 3.14184 0
M  V30 11546 H 1113.16 5.3747 3.75241 0
M  V30 11547 H 1112.68 3.87458 4.5786 0
M  V30 11548 H 1114.36 4.45875 4.68833 0
M  V30 11549 N 1114.49 -1.10549 1.12324 0
M  V30 11550 C 1115.71 -1.8681 0.900927 0
M  V30 11551 C 1116.14 -1.80049 -0.54443 0
M  V30 11552 O 1115.5 -1.16957 -1.38531 0
M  V30 11553 C 1115.54 -3.33197 1.37883 0
M  V30 11554 O 1114.65 -4.08628 0.556529 0
M  V30 11555 H 1113.99 -0.579709 0.32378 0
M  V30 11556 H 1116.52 -1.39678 1.49503 0
M  V30 11557 H 1116.53 -3.84047 1.37739 0
M  V30 11558 H 1115.2 -3.37435 2.43127 0
M  V30 11559 H 1113.78 -3.67627 0.62486 0
M  V30 11560 N 1115.97 -0.914965 -1.28321 0
M  V30 11561 C 1117.21 -0.544639 -1.94208 0
M  V30 11562 C 1117.53 0.916368 -1.72806 0
M  V30 11563 O 1118.73 1.39491 -2.32926 0
M  V30 11564 C 1117.19 -0.923209 -3.47858 0
M  V30 11565 C 1116.8 -2.40403 -3.78035 0
M  V30 11566 C 1118.54 -0.623526 -4.19896 0
M  V30 11567 C 1116.45 -2.72266 -5.25 0
M  V30 11568 H 1115.38 -0.199966 -0.727 0
M  V30 11569 H 1118.03 -1.11405 -1.45812 0
M  V30 11570 H 1116.41 -0.282576 -3.94991 0
M  V30 11571 H 1117.59 -3.09149 -3.41706 0
M  V30 11572 H 1115.9 -2.67429 -3.19172 0
M  V30 11573 H 1118.5 -0.838243 -5.28089 0
M  V30 11574 H 1118.84 0.438721 -4.13982 0
M  V30 11575 H 1119.37 -1.22268 -3.78544 0
M  V30 11576 H 1116.11 -3.77349 -5.35993 0
M  V30 11577 H 1115.63 -2.08157 -5.62522 0
M  V30 11578 H 1117.31 -2.59334 -5.92752 0
M  V30 11579 N 1117.44 1.42219 -0.679077 0
M  V30 11580 C 1118.69 2.01081 -0.202718 0
M  V30 11581 C 1119.01 1.53986 1.19639 0
M  V30 11582 O 1118.28 0.763359 1.80415 0
M  V30 11583 H 1116.86 0.743526 -0.0719547 0
M  V30 11584 H 1119.52 1.74077 -0.876544 0
M  V30 11585 H 1118.62 3.11411 -0.207314 0
M  V30 11586 N 1118.92 0.422693 1.51826 0
M  V30 11587 C 1119.87 -0.41063 2.28947 0
M  V30 11588 C 1120.86 -1.03389 1.34191 0
M  V30 11589 O 1122.07 -0.970533 1.51594 0
M  V30 11590 H 1118.44 -0.151219 0.736639 0
M  V30 11591 H 1120.42 0.260859 2.97258 0
M  V30 11592 C 1119.16 -1.50758 3.13317 0
M  V30 11593 H 1118.49 -1.03734 3.86108 0
M  V30 11594 H 1119.93 -2.0642 3.7036 0
M  V30 11595 C 1118.39 -2.48261 2.27746 0
M  V30 11596 O 1118.92 -3.52462 1.92701 0
M  V30 11597 N 1117.12 -2.18795 1.91251 0
M  V30 11598 H 1116.67 -1.34088 2.1995 0
M  V30 11599 H 1116.63 -2.84276 1.34293 0
M  V30 11600 N 1120.4 -1.5685 0.153553 0
M  V30 11601 C 1121.36 -2.15894 -0.769564 0
M  V30 11602 C 1122.36 -1.10239 -1.17064 0
M  V30 11603 O 1123.55 -1.35845 -1.09049 0
M  V30 11604 C 1120.68 -2.72738 -2.04516 0
M  V30 11605 H 1121.88 -2.98807 -0.255842 0
M  V30 11606 H 1119.43 -1.56005 -0.0959279 0
M  V30 11607 H 1120.17 -1.9351 -2.60239 0
M  V30 11608 H 1119.95 -3.50042 -1.76672 0
M  V30 11609 H 1121.44 -3.18208 -2.70432 0
M  V30 11610 N 1121.88 0.120221 -1.57141 0
M  V30 11611 C 1123.11 0.841219 -1.88698 0
M  V30 11612 C 1123.52 1.7401 -0.74277 0
M  V30 11613 O 1122.86 1.81308 0.295497 0
M  V30 11614 C 1122.92 1.72781 -3.15257 0
M  V30 11615 C 1122.58 1.00336 -4.45849 0
M  V30 11616 C 1123.58 0.344734 -5.18756 0
M  V30 11617 C 1121.27 0.984899 -4.9255 0
M  V30 11618 C 1123.26 -0.322664 -6.36583 0
M  V30 11619 C 1120.95 0.313702 -6.10294 0
M  V30 11620 C 1121.95 -0.338926 -6.82159 0
M  V30 11621 O 1121.63 -0.999416 -7.97663 0
M  V30 11622 H 1121.37 0.247195 -0.629182 0
M  V30 11623 H 1123.92 0.109542 -2.05108 0
M  V30 11624 H 1122.15 2.5011 -2.94927 0
M  V30 11625 H 1123.84 2.32313 -3.32845 0
M  V30 11626 H 1124.6 0.350623 -4.83731 0
M  V30 11627 H 1120.48 1.4823 -4.36519 0
M  V30 11628 H 1124.03 -0.832643 -6.92613 0
M  V30 11629 H 1119.92 0.305572 -6.44776 0
M  V30 11630 H 1120.69 -0.90377 -8.13495 0
M  V30 11631 N 1123.36 1.52689 0.390367 0
M  V30 11632 C 1124.58 1.71839 1.16129 0
M  V30 11633 C 1125.01 0.435226 1.82996 0
M  V30 11634 O 1124.36 -0.60889 1.70769 0
M  V30 11635 C 1124.41 2.86784 2.18603 0
M  V30 11636 O 1123.52 2.53662 3.25161 0
M  V30 11637 H 1122.86 0.571455 0.338135 0
M  V30 11638 H 1125.39 1.99475 0.45508 0
M  V30 11639 H 1125.4 3.12239 2.62622 0
M  V30 11640 H 1124.07 3.79872 1.69322 0
M  V30 11641 H 1122.65 2.38942 2.86289 0
M  V30 11642 N 1124.83 -0.648732 1.43629 0
M  V30 11643 C 1125.78 -1.78269 1.49409 0
M  V30 11644 C 1126.78 -1.6537 0.367288 0
M  V30 11645 O 1127.98 -1.71663 0.541476 0
M  V30 11646 H 1124.36 -0.58824 0.468484 0
M  V30 11647 H 1126.33 -1.70514 2.44883 0
M  V30 11648 C 1125.08 -3.16545 1.43856 0
M  V30 11649 H 1124.4 -3.2711 2.29868 0
M  V30 11650 H 1125.84 -3.95833 1.51961 0
M  V30 11651 C 1124.3 -3.36535 0.156779 0
M  V30 11652 O 1124.83 -3.94052 -0.780124 0
M  V30 11653 N 1123.04 -2.90526 0.0655319 0
M  V30 11654 H 1122.58 -2.43904 0.828768 0
M  V30 11655 H 1122.54 -3.04277 -0.791379 0
M  V30 11656 N 1126.31 -1.30234 -0.887518 0
M  V30 11657 C 1127.56 -1.1891 -1.6391 0
M  V30 11658 C 1127.89 0.256749 -1.92798 0
M  V30 11659 O 1127.14 1.20047 -1.54555 0
M  V30 11660 C 1127.44 -1.96046 -2.98832 0
M  V30 11661 C 1127.11 -3.45683 -2.89507 0
M  V30 11662 C 1125.77 -3.86489 -2.8667 0
M  V30 11663 C 1128.12 -4.40983 -2.7782 0
M  V30 11664 C 1125.45 -5.2089 -2.69982 0
M  V30 11665 C 1127.8 -5.75489 -2.6267 0
M  V30 11666 C 1126.47 -6.15537 -2.58207 0
M  V30 11667 H 1125.74 -0.435123 -0.599791 0
M  V30 11668 H 1128.38 -1.61308 -1.03209 0
M  V30 11669 H 1126.69 -1.46275 -3.6347 0
M  V30 11670 H 1128.38 -1.84678 -3.55942 0
M  V30 11671 H 1124.97 -3.13255 -2.92523 0
M  V30 11672 H 1129.16 -4.10401 -2.79079 0
M  V30 11673 H 1124.41 -5.51014 -2.6494 0
M  V30 11674 H 1128.59 -6.48973 -2.526 0
M  V30 11675 H 1126.22 -7.19627 -2.45034 0
M  V30 11676 N 1127.79 1.09952 -1.12909 0
M  V30 11677 C 1129.02 1.8552 -0.909163 0
M  V30 11678 C 1129.43 1.81173 0.545253 0
M  V30 11679 O 1128.77 1.20223 1.38896 0
M  V30 11680 C 1128.83 3.34693 -1.31228 0
M  V30 11681 C 1128.5 3.62794 -2.77902 0
M  V30 11682 C 1129.49 3.58973 -3.76078 0
M  V30 11683 C 1127.18 3.91311 -3.1493 0
M  V30 11684 C 1129.17 3.83271 -5.09296 0
M  V30 11685 C 1126.86 4.15265 -4.48328 0
M  V30 11686 C 1127.86 4.11236 -5.4532 0
M  V30 11687 O 1127.55 4.34576 -6.76313 0
M  V30 11688 H 1127.28 0.59303 -0.324486 0
M  V30 11689 H 1129.83 1.39878 -1.5041 0
M  V30 11690 H 1128.06 3.81016 -0.660573 0
M  V30 11691 H 1129.75 3.9166 -1.06569 0
M  V30 11692 H 1130.52 3.36974 -3.48817 0
M  V30 11693 H 1126.4 3.93575 -2.40041 0
M  V30 11694 H 1129.94 3.80041 -5.84991 0
M  V30 11695 H 1125.84 4.36743 -4.75316 0
M  V30 11696 H 1126.61 4.52065 -6.82334 0
M  V30 11697 N 1129.27 0.921757 1.27833 0
M  V30 11698 C 1130.55 0.477706 1.89677 0
M  V30 11699 C 1130.93 -1.04392 1.83481 0
M  V30 11700 O 1130.27 -1.89549 1.27606 0
M  V30 11701 C 1130.48 1.01709 3.33851 0
M  V30 11702 C 1131.83 1.074 4.10792 0
M  V30 11703 O 1132.86 0.966295 3.42843 0
M  V30 11704 O 1131.71 1.23909 5.32268 0
M  V30 11705 H 1128.81 0.15271 0.812778 0
M  V30 11706 H 1131.35 1.01306 1.36144 0
M  V30 11707 H 1130.13 2.061 3.32623 0
M  V30 11708 H 1129.75 0.463031 3.94895 0
M  V30 11709 N 1130.75 -1.41857 0.686609 0
M  V30 11710 C 1131.99 -2.0097 0.213378 0
M  V30 11711 C 1132.32 -1.54618 -1.1882 0
M  V30 11712 O 1131.59 -0.772916 -1.80008 0
M  V30 11713 H 1130.17 -0.743134 0.0758968 0
M  V30 11714 H 1132.83 -1.73609 0.885763 0
M  V30 11715 H 1131.92 -3.11296 0.223826 0
M  V30 11716 N 1132.22 -0.430739 -1.51599 0
M  V30 11717 C 1133.47 0.130424 -2.02981 0
M  V30 11718 C 1133.83 1.40956 -1.30954 0
M  V30 11719 O 1133.12 1.87081 -0.413696 0
M  V30 11720 C 1133.31 0.410694 -3.55032 0
M  V30 11721 C 1133.14 -0.839732 -4.4179 0
M  V30 11722 C 1131.91 -1.37132 -4.86336 0
M  V30 11723 C 1134.11 -1.72401 -4.84543 0
M  V30 11724 N 1132.09 -2.57497 -5.57287 0
M  V30 11725 C 1133.46 -2.77376 -5.54493 0
M  V30 11726 C 1135.52 -1.73921 -4.66536 0
M  V30 11727 C 1134.22 -3.83808 -6.08345 0
M  V30 11728 C 1136.25 -2.79285 -5.213 0
M  V30 11729 C 1135.61 -3.82979 -5.91191 0
M  V30 11730 H 1131.71 0.00873155 -0.781951 0
M  V30 11731 H 1134.29 -0.589932 -1.85548 0
M  V30 11732 H 1132.46 1.10009 -3.72495 0
M  V30 11733 H 1134.19 0.962635 -3.93085 0
M  V30 11734 H 1130.95 -0.926198 -4.64455 0
M  V30 11735 H 1131.37 -3.18515 -5.97392 0
M  V30 11736 H 1136.02 -0.950851 -4.11969 0
M  V30 11737 H 1133.73 -4.63487 -6.61971 0
M  V30 11738 H 1137.32 -2.81395 -5.09223 0
M  V30 11739 H 1136.2 -4.63169 -6.32807 0
M  V30 11740 N 1133.7 1.56767 -0.161869 0
M  V30 11741 C 1134.93 2.01401 0.49523 0
M  V30 11742 C 1135.35 1.04133 1.56646 0
M  V30 11743 O 1134.71 0.0193747 1.8129 0
M  V30 11744 C 1134.76 3.44695 1.05913 0
M  V30 11745 O 1133.86 3.50475 2.1735 0
M  V30 11746 H 1133.2 0.65314 0.1196 0
M  V30 11747 H 1135.73 2.02903 -0.26298 0
M  V30 11748 H 1135.74 3.83805 1.3841 0
M  V30 11749 H 1134.42 4.14991 0.274749 0
M  V30 11750 H 1133 3.23218 1.85969 0
M  V30 11751 N 1135.18 -0.111886 1.57202 0
M  V30 11752 C 1136.13 -1.15585 2.01849 0
M  V30 11753 C 1137.12 -1.42458 0.916621 0
M  V30 11754 O 1138.33 -1.42337 1.10182 0
M  V30 11755 H 1134.7 -0.389885 0.643035 0
M  V30 11756 H 1136.67 -0.752854 2.88747 0
M  V30 11757 C 1135.42 -2.47247 2.44467 0
M  V30 11758 H 1134.75 -2.27409 3.28824 0
M  V30 11759 H 1136.19 -3.18837 2.79497 0
M  V30 11760 C 1134.65 -3.10339 1.31115 0
M  V30 11761 O 1135.18 -3.96713 0.631029 0
M  V30 11762 N 1133.38 -2.70326 1.0664 0
M  V30 11763 H 1132.93 -2.00182 1.62126 0
M  V30 11764 H 1132.89 -3.12869 0.309944 0
M  V30 11765 N 1136.66 -1.52894 -0.382264 0
M  V30 11766 C 1137.91 -1.68266 -1.12663 0
M  V30 11767 C 1138.23 -0.425974 -1.89778 0
M  V30 11768 O 1137.49 0.59178 -1.86538 0
M  V30 11769 C 1137.79 -2.87309 -2.12576 0
M  V30 11770 C 1137.45 -4.24484 -1.52067 0
M  V30 11771 C 1136.12 -4.6179 -1.35292 0
M  V30 11772 C 1138.47 -5.09858 -1.08138 0
M  V30 11773 C 1135.8 -5.82123 -0.731449 0
M  V30 11774 C 1138.15 -6.30822 -0.473986 0
M  V30 11775 C 1136.81 -6.66854 -0.293585 0
M  V30 11776 H 1136.08 -0.615728 -0.412262 0
M  V30 11777 H 1138.73 -1.8705 -0.410425 0
M  V30 11778 H 1137.03 -2.62968 -2.90439 0
M  V30 11779 H 1138.73 -2.96397 -2.70092 0
M  V30 11780 H 1135.32 -3.951 -1.66114 0
M  V30 11781 H 1139.5 -4.816 -1.19898 0
M  V30 11782 H 1134.76 -6.08643 -0.579938 0
M  V30 11783 H 1138.93 -6.96287 -0.125324 0
M  V30 11784 H 1136.56 -7.59962 0.190054 0
M  V30 11785 N 1138.14 0.641106 -1.43971 0
M  V30 11786 C 1139.41 1.39897 -1.36704 0
M  V30 11787 C 1139.79 2.1109 -0.0208051 0
M  V30 11788 O 1139.14 2.05638 0.99625 0
M  V30 11789 C 1139.35 2.37366 -2.55849 0
M  V30 11790 C 1140.7 3.01 -2.99473 0
M  V30 11791 O 1141.72 2.47692 -2.55982 0
M  V30 11792 O 1140.58 3.9768 -3.74851 0
M  V30 11793 H 1137.68 0.625623 -0.540855 0
M  V30 11794 H 1140.22 0.666997 -1.56042 0
M  V30 11795 H 1139 1.8379 -3.45452 0
M  V30 11796 H 1138.62 3.17995 -2.38673 0
M  V30 11797 N 1139.62 1.30703 0.880598 0
M  V30 11798 C 1140.55 1.1327 1.99255 0
M  V30 11799 C 1141.56 0.0747186 1.62628 0
M  V30 11800 O 1142.75 0.321169 1.75587 0
M  V30 11801 C 1139.85 0.706179 3.31461 0
M  V30 11802 C 1139.02 1.84687 3.96497 0
M  V30 11803 C 1138.08 1.40817 5.07008 0
M  V30 11804 O 1137.11 2.1161 5.28403 0
M  V30 11805 N 1138.31 0.289619 5.79777 0
M  V30 11806 H 1141.07 2.09043 2.14759 0
M  V30 11807 H 1138.64 1.22896 1.05395 0
M  V30 11808 H 1140.63 0.395617 4.02762 0
M  V30 11809 H 1139.2 -0.159631 3.12192 0
M  V30 11810 H 1138.42 2.32531 3.18312 0
M  V30 11811 H 1139.71 2.61117 4.36687 0
M  V30 11812 H 1139.1 -0.300177 5.64903 0
M  V30 11813 H 1137.66 0.0385346 6.51789 0
M  V30 11814 N 1141.09 -1.09351 1.1349 0
M  V30 11815 C 1142.51 -1.3359 0.873269 0
M  V30 11816 C 1142.71 -1.95432 -0.490767 0
M  V30 11817 O 1141.77 -2.20117 -1.23712 0
M  V30 11818 C 1143.08 -2.24681 1.99847 0
M  V30 11819 C 1144.63 -2.38188 2.03065 0
M  V30 11820 C 1145.1 -3.32615 3.14851 0
M  V30 11821 N 1146.59 -3.40188 3.14366 0
M  V30 11822 C 1147.33 -4.13256 3.97501 0
M  V30 11823 N 1146.82 -4.89114 4.90652 0
M  V30 11824 N 1148.62 -4.08988 3.85597 0
M  V30 11825 H 1140.77 -0.675852 2.0136 0
M  V30 11826 H 1143.03 -0.360268 0.876876 0
M  V30 11827 H 1142.74 -1.86469 2.98198 0
M  V30 11828 H 1142.61 -3.25075 1.91327 0
M  V30 11829 H 1145 -2.75663 1.05327 0
M  V30 11830 H 1145.08 -1.3757 2.15658 0
M  V30 11831 H 1144.72 -2.95863 4.12829 0
M  V30 11832 H 1144.65 -4.33139 2.99496 0
M  V30 11833 H 1147.14 -2.861 2.46892 0
M  V30 11834 H 1147.46 -5.423 5.50573 0
M  V30 11835 H 1145.8 -4.882 4.94657 0
M  V30 11836 H 1148.99 -3.48826 3.12151 0
M  V30 11837 H 1149.17 -4.65671 4.50615 0
M  V30 11838 N 1142.57 -0.928524 -1.27343 0
M  V30 11839 C 1143.82 -0.568267 -1.93946 0
M  V30 11840 C 1144.14 0.893501 -1.73325 0
M  V30 11841 O 1143.41 1.63344 -1.08147 0
M  V30 11842 H 1141.99 -0.207173 -0.717696 0
M  V30 11843 H 1144.65 -1.1811 -1.55036 0
M  V30 11844 H 1143.75 -0.775246 -3.02318 0
M  V30 11845 N 1144.05 1.41491 -0.694123 0
M  V30 11846 C 1145.27 2.06099 -0.23197 0
M  V30 11847 C 1145.7 1.51888 1.10958 0
M  V30 11848 O 1145.06 0.645247 1.69429 0
M  V30 11849 C 1145.11 3.60053 -0.198522 0
M  V30 11850 O 1144.21 4.04021 0.827067 0
M  V30 11851 H 1143.55 0.654193 -0.113699 0
M  V30 11852 H 1146.08 1.81282 -0.948575 0
M  V30 11853 H 1146.09 4.0799 -0.0288904 0
M  V30 11854 H 1144.77 3.98879 -1.17764 0
M  V30 11855 H 1143.34 3.67593 0.626908 0
M  V30 11856 N 1145.53 0.438773 1.51369 0
M  V30 11857 C 1146.76 -0.125665 2.06217 0
M  V30 11858 C 1147.17 -1.36887 1.30609 0
M  V30 11859 O 1146.51 -1.80149 0.359433 0
M  V30 11860 C 1146.57 -0.511846 3.55838 0
M  V30 11861 C 1146.23 0.624755 4.52709 0
M  V30 11862 C 1147.23 1.49731 4.97872 0
M  V30 11863 C 1144.92 0.805895 4.95793 0
M  V30 11864 C 1146.91 2.53569 5.84792 0
M  V30 11865 C 1144.6 1.84755 5.82502 0
M  V30 11866 C 1145.6 2.71083 6.269 0
M  V30 11867 O 1145.28 3.7346 7.11887 0
M  V30 11868 H 1145.02 -0.0107227 0.675915 0
M  V30 11869 H 1147.57 0.617071 1.95912 0
M  V30 11870 H 1145.8 -1.30731 3.63932 0
M  V30 11871 H 1147.49 -1.0076 3.93195 0
M  V30 11872 H 1148.25 1.36891 4.65281 0
M  V30 11873 H 1144.13 0.14352 4.60777 0
M  V30 11874 H 1147.68 3.20984 6.19367 0
M  V30 11875 H 1143.57 1.97614 6.14507 0
M  V30 11876 H 1144.34 3.70058 7.30068 0
M  V30 11877 N 1147.01 -1.56678 0.170181 0
M  V30 11878 C 1148.25 -1.9646 -0.474125 0
M  V30 11879 C 1148.57 -1.05719 -1.63855 0
M  V30 11880 O 1147.84 -0.123316 -1.95511 0
M  V30 11881 H 1146.42 -0.725446 -0.178149 0
M  V30 11882 H 1149.09 -1.93276 0.251099 0
M  V30 11883 H 1148.18 -3.00726 -0.834894 0
M  V30 11884 N 1148.48 0.103547 -1.57259 0
M  V30 11885 C 1149.71 0.821158 -1.8958 0
M  V30 11886 C 1150.12 1.73213 -0.761184 0
M  V30 11887 O 1149.46 1.81611 0.27625 0
M  V30 11888 C 1149.53 1.69428 -3.17072 0
M  V30 11889 C 1149.19 0.956014 -4.46889 0
M  V30 11890 C 1150.19 0.289694 -5.19092 0
M  V30 11891 C 1147.87 0.932602 -4.93566 0
M  V30 11892 C 1149.87 -0.390164 -6.36205 0
M  V30 11893 C 1147.55 0.248954 -6.10593 0
M  V30 11894 C 1148.55 -0.411259 -6.81761 0
M  V30 11895 O 1148.24 -1.08396 -7.96559 0
M  V30 11896 H 1147.97 0.240508 -0.631769 0
M  V30 11897 H 1150.53 0.0877817 -2.05212 0
M  V30 11898 H 1148.76 2.46968 -2.97563 0
M  V30 11899 H 1150.44 2.28769 -3.3529 0
M  V30 11900 H 1151.21 0.299297 -4.84076 0
M  V30 11901 H 1147.09 1.43592 -4.38067 0
M  V30 11902 H 1150.63 -0.906057 -6.91691 0
M  V30 11903 H 1146.53 0.237168 -6.45064 0
M  V30 11904 H 1147.3 -0.990002 -8.12491 0
M  V30 11905 N 1149.96 1.53094 0.37415 0
M  V30 11906 C 1150.91 1.79585 1.47824 0
M  V30 11907 C 1151.9 0.664513 1.55822 0
M  V30 11908 O 1153.11 0.84729 1.58811 0
M  V30 11909 H 1149.48 0.568474 0.492282 0
M  V30 11910 H 1151.46 2.72014 1.22681 0
M  V30 11911 C 1150.2 1.995 2.84772 0
M  V30 11912 H 1149.53 2.85991 2.79373 0
M  V30 11913 H 1150.97 2.22018 3.61226 0
M  V30 11914 C 1149.43 0.771673 3.27943 0
M  V30 11915 O 1149.96 -0.0437737 4.01676 0
M  V30 11916 N 1148.16 0.597547 2.8439 0
M  V30 11917 H 1147.71 1.26227 2.24554 0
M  V30 11918 H 1147.67 -0.219578 3.13632 0
M  V30 11919 N 1151.44 -0.633461 1.44309 0
M  V30 11920 C 1152.67 -1.42033 1.50447 0
M  V30 11921 C 1153.08 -1.88362 0.128585 0
M  V30 11922 O 1152.44 -1.60695 -0.865071 0
M  V30 11923 C 1152.49 -2.6422 2.46719 0
M  V30 11924 O 1152.21 -2.19823 3.78958 0
M  V30 11925 C 1153.71 -3.57372 2.62298 0
M  V30 11926 H 1150.93 -0.435667 0.510329 0
M  V30 11927 H 1153.48 -0.774907 1.8925 0
M  V30 11928 H 1151.63 -3.24859 2.11058 0
M  V30 11929 H 1152.05 -2.99022 4.30913 0
M  V30 11930 H 1153.52 -4.39719 3.33693 0
M  V30 11931 H 1154 -4.06026 1.67449 0
M  V30 11932 H 1154.6 -3.02603 2.9885 0
M  V30 11933 N 1152.92 -1.31168 -0.873655 0
M  V30 11934 C 1153.85 -1.21094 -1.99646 0
M  V30 11935 C 1154.83 -0.0989684 -1.69812 0
M  V30 11936 O 1156.01 -0.282939 -1.92128 0
M  V30 11937 C 1153.14 -0.913684 -3.35066 0
M  V30 11938 C 1152.1 -1.98482 -3.79195 0
M  V30 11939 C 1151.42 -1.54033 -5.12033 0
M  V30 11940 C 1152.72 -3.39745 -3.96699 0
M  V30 11941 H 1154.42 -2.1503 -2.08333 0
M  V30 11942 H 1151.96 -1.03521 -1.00097 0
M  V30 11943 H 1153.92 -0.829821 -4.13149 0
M  V30 11944 H 1152.64 0.0613471 -3.26542 0
M  V30 11945 H 1151.3 -2.05851 -3.03349 0
M  V30 11946 H 1150.95 -0.553261 -4.99948 0
M  V30 11947 H 1150.65 -2.25688 -5.4253 0
M  V30 11948 H 1152.17 -1.47047 -5.92629 0
M  V30 11949 H 1153.59 -3.35071 -4.65188 0
M  V30 11950 H 1151.98 -4.09585 -4.38589 0
M  V30 11951 H 1153.05 -3.80802 -3.00196 0
M  V30 11952 N 1154.4 1.08748 -1.14068 0
M  V30 11953 C 1155.34 2.17667 -0.819981 0
M  V30 11954 C 1156.34 1.68207 0.200654 0
M  V30 11955 O 1157.54 1.79909 0.0571014 0
M  V30 11956 H 1153.92 0.710129 -0.247427 0
M  V30 11957 H 1155.89 2.41944 -1.74659 0
M  V30 11958 C 1154.64 3.46315 -0.309985 0
M  V30 11959 H 1153.96 3.84748 -1.08669 0
M  V30 11960 H 1155.4 4.23818 -0.124094 0
M  V30 11961 C 1153.86 3.22762 0.965724 0
M  V30 11962 O 1154.39 3.46034 2.04018 0
M  V30 11963 N 1152.6 2.76326 0.899576 0
M  V30 11964 H 1152.14 2.57588 0.0250598 0
M  V30 11965 H 1152.1 2.60945 1.75371 0
M  V30 11966 N 1155.87 0.935264 1.26849 0
M  V30 11967 C 1156.82 0.430895 2.28574 0
M  V30 11968 C 1157.82 -0.488739 1.62196 0
M  V30 11969 O 1159.02 -0.367605 1.76206 0
M  V30 11970 H 1155.4 0.120793 0.742235 0
M  V30 11971 H 1157.37 1.3015 2.68521 0
M  V30 11972 C 1156.12 -0.294053 3.46454 0
M  V30 11973 H 1155.44 0.404416 3.97749 0
M  V30 11974 H 1156.88 -0.611272 4.19571 0
M  V30 11975 C 1155.34 -1.50975 3.01178 0
M  V30 11976 O 1155.87 -2.60826 3.05504 0
M  V30 11977 N 1154.08 -1.36423 2.56587 0
M  V30 11978 H 1153.62 -0.470483 2.53267 0
M  V30 11979 H 1153.58 -2.17886 2.26656 0
M  V30 11980 N 1157.35 -1.41121 0.701616 0
M  V30 11981 C 1158.28 -2.33436 0.0545974 0
M  V30 11982 C 1159.26 -1.52144 -0.760662 0
M  V30 11983 O 1160.45 -1.80661 -0.712414 0
M  V30 11984 C 1157.58 -3.36015 -0.878117 0
M  V30 11985 C 1156.53 -4.27664 -0.169511 0
M  V30 11986 C 1155.86 -5.20666 -1.21699 0
M  V30 11987 C 1157.16 -5.13254 0.967859 0
M  V30 11988 H 1158.85 -2.87791 0.825637 0
M  V30 11989 H 1156.4 -1.38377 0.398484 0
M  V30 11990 H 1158.35 -3.99526 -1.34004 0
M  V30 11991 H 1157.08 -2.80024 -1.68089 0
M  V30 11992 H 1155.73 -3.65586 0.272441 0
M  V30 11993 H 1155.38 -4.60987 -2.01246 0
M  V30 11994 H 1155.08 -5.82822 -0.747836 0
M  V30 11995 H 1156.61 -5.87053 -1.6793 0
M  V30 11996 H 1158.02 -5.70298 0.585944 0
M  V30 11997 H 1156.42 -5.84381 1.3645 0
M  V30 11998 H 1157.49 -4.5006 1.80483 0
M  V30 11999 N 1158.83 -0.446794 -1.51134 0
M  V30 12000 C 1160.08 0.116263 -2.01765 0
M  V30 12001 C 1160.4 1.42382 -1.33238 0
M  V30 12002 O 1159.67 1.9018 -0.469915 0
M  V30 12003 H 1158.25 0.0459558 -0.745585 0
M  V30 12004 H 1160.91 -0.591664 -1.85702 0
M  V30 12005 H 1160.01 0.285358 -3.10793 0
M  V30 12006 N 1160.31 1.56586 -0.178487 0
M  V30 12007 C 1161.26 2.1491 0.761432 0
M  V30 12008 C 1162.24 1.08528 1.18788 0
M  V30 12009 O 1163.43 1.34633 1.14904 0
M  V30 12010 C 1160.56 2.79902 1.98771 0
M  V30 12011 C 1159.65 3.93452 1.58293 0
M  V30 12012 N 1160.04 4.97942 0.888124 0
M  V30 12013 C 1158.34 4.04745 1.87343 0
M  V30 12014 C 1159.04 5.7762 0.68772 0
M  V30 12015 N 1158.02 5.2947 1.23136 0
M  V30 12016 H 1161.82 2.93063 0.221693 0
M  V30 12017 H 1159.33 1.62385 0.0219283 0
M  V30 12018 H 1161.33 3.20067 2.67138 0
M  V30 12019 H 1159.99 2.03232 2.53233 0
M  V30 12020 H 1161 5.1502 0.545387 0
M  V30 12021 H 1157.68 3.39186 2.43432 0
M  V30 12022 H 1159.07 6.71759 0.13775 0
M  V30 12023 N 1161.79 -0.095206 1.57312 0
M  V30 12024 C 1163.04 -0.797417 1.85268 0
M  V30 12025 C 1163.35 -1.79903 0.767733 0
M  V30 12026 O 1164.55 -2.54914 0.934409 0
M  V30 12027 C 1163.01 -1.469 3.28555 0
M  V30 12028 C 1162.62 -0.507152 4.4512 0
M  V30 12029 C 1164.36 -2.15494 3.65735 0
M  V30 12030 C 1162.27 -1.18331 5.79441 0
M  V30 12031 H 1161.2 -0.301552 0.691074 0
M  V30 12032 H 1163.85 -0.0503584 1.83431 0
M  V30 12033 H 1162.23 -2.26351 3.24933 0
M  V30 12034 H 1163.41 0.255858 4.60089 0
M  V30 12035 H 1161.72 0.0730882 4.16336 0
M  V30 12036 H 1164.32 -2.66816 4.63371 0
M  V30 12037 H 1164.66 -2.94383 2.94354 0
M  V30 12038 H 1165.19 -1.42903 3.71246 0
M  V30 12039 H 1161.93 -0.435238 6.54053 0
M  V30 12040 H 1161.45 -1.91775 5.68315 0
M  V30 12041 H 1163.13 -1.70983 6.23998 0
M  V30 12042 N 1163.26 -1.53291 -0.366026 0
M  V30 12043 C 1164.49 -1.73108 -1.1277 0
M  V30 12044 C 1164.9 -0.459662 -1.83531 0
M  V30 12045 O 1164.25 0.577151 -1.74398 0
M  V30 12046 C 1164.31 -2.84137 -2.20242 0
M  V30 12047 C 1163.97 -4.24503 -1.69252 0
M  V30 12048 C 1164.97 -5.06866 -1.15684 0
M  V30 12049 C 1162.65 -4.70912 -1.74778 0
M  V30 12050 C 1164.65 -6.33728 -0.683191 0
M  V30 12051 C 1162.33 -5.97752 -1.27025 0
M  V30 12052 C 1163.33 -6.78992 -0.738858 0
M  V30 12053 O 1163.02 -8.03452 -0.268375 0
M  V30 12054 H 1162.75 -0.582439 -0.343134 0
M  V30 12055 H 1165.31 -2.00828 -0.430969 0
M  V30 12056 H 1163.54 -2.5189 -2.93408 0
M  V30 12057 H 1165.23 -2.92136 -2.818 0
M  V30 12058 H 1165.99 -4.72185 -1.10753 0
M  V30 12059 H 1161.87 -4.07751 -2.15081 0
M  V30 12060 H 1165.41 -6.97086 -0.267746 0
M  V30 12061 H 1161.31 -6.31933 -1.31649 0
M  V30 12062 H 1162.08 -8.17581 -0.387745 0
M  V30 12063 N 1164.74 0.6258 -1.44643 0
M  V30 12064 C 1165.99 1.3873 -1.47925 0
M  V30 12065 C 1166.32 1.93868 -0.113469 0
M  V30 12066 O 1165.6 1.73976 0.869639 0
M  V30 12067 C 1165.88 2.54867 -2.54391 0
M  V30 12068 C 1165.73 2.05044 -4.00346 0
M  V30 12069 C 1167.05 3.57043 -2.57309 0
M  V30 12070 H 1164.17 0.503087 -0.538584 0
M  V30 12071 H 1166.81 0.707102 -1.76352 0
M  V30 12072 H 1164.96 3.12894 -2.30281 0
M  V30 12073 H 1166.63 1.51807 -4.35606 0
M  V30 12074 H 1164.88 1.36185 -4.11869 0
M  V30 12075 H 1165.55 2.88681 -4.70497 0
M  V30 12076 H 1168.02 3.08826 -2.78865 0
M  V30 12077 H 1166.9 4.35818 -3.33698 0
M  V30 12078 H 1167.16 4.11464 -1.61708 0
M  V30 12079 N 1166.22 1.31629 0.866686 0
M  V30 12080 C 1167.64 1.10358 1.15296 0
M  V30 12081 C 1167.84 -0.123807 2.01119 0
M  V30 12082 O 1166.89 -0.81219 2.39081 0
M  V30 12083 C 1168.21 2.37684 1.84193 0
M  V30 12084 C 1169.75 2.43326 1.9688 0
M  V30 12085 C 1170.23 3.70541 2.69191 0
M  V30 12086 N 1171.72 3.71454 2.76724 0
M  V30 12087 C 1172.45 4.66585 3.33295 0
M  V30 12088 N 1171.95 5.72075 3.90771 0
M  V30 12089 N 1173.74 4.541 3.31284 0
M  V30 12090 H 1165.89 2.10343 0.29487 0
M  V30 12091 H 1168.16 0.928096 0.193239 0
M  V30 12092 H 1167.86 3.27352 1.28582 0
M  V30 12093 H 1167.74 2.47731 2.84445 0
M  V30 12094 H 1170.12 1.54124 2.51654 0
M  V30 12095 H 1170.21 2.3724 0.956596 0
M  V30 12096 H 1169.85 4.60111 2.15083 0
M  V30 12097 H 1169.78 3.73894 3.70825 0
M  V30 12098 H 1172.27 2.952 2.35936 0
M  V30 12099 H 1172.58 6.40738 4.32058 0
M  V30 12100 H 1170.93 5.75844 3.89138 0
M  V30 12101 H 1174.12 3.70861 2.85622 0
M  V30 12102 H 1174.29 5.28416 3.75074 0
M  V30 12103 N 1167.7 -1.08142 1.14644 0
M  V30 12104 C 1168.65 -2.13338 0.804412 0
M  V30 12105 C 1169.63 -1.59554 -0.207664 0
M  V30 12106 O 1170.83 -1.76997 -0.00960233 0
M  V30 12107 C 1167.95 -3.42102 0.286579 0
M  V30 12108 C 1167.04 -4.0276 1.32834 0
M  V30 12109 N 1167.43 -4.37789 2.53327 0
M  V30 12110 C 1165.73 -4.30129 1.17919 0
M  V30 12111 C 1166.43 -4.85748 3.20037 0
M  V30 12112 N 1165.41 -4.84021 2.47436 0
M  V30 12113 H 1169.21 -2.38243 1.72097 0
M  V30 12114 H 1166.72 -1.25501 1.0307 0
M  V30 12115 H 1168.72 -4.16894 0.0232417 0
M  V30 12116 H 1167.38 -3.18645 -0.624142 0
M  V30 12117 H 1168.39 -4.28731 2.90534 0
M  V30 12118 H 1165.07 -4.16212 0.327713 0
M  V30 12119 H 1166.46 -5.22208 4.22786 0
M  V30 12120 N 1169.18 -0.941978 -1.26351 0
M  V30 12121 C 1170.42 -0.590845 -1.94002 0
M  V30 12122 C 1170.76 0.868004 -1.73722 0
M  V30 12123 O 1170.03 1.62111 -1.07472 0
M  V30 12124 C 1170.31 -0.934901 -3.47752 0
M  V30 12125 C 1170.17 -2.44855 -3.77314 0
M  V30 12126 C 1171.49 -0.450888 -4.37784 0
M  V30 12127 H 1168.61 -0.21613 -0.704597 0
M  V30 12128 H 1171.25 -1.17634 -1.49205 0
M  V30 12129 H 1169.4 -0.436648 -3.86038 0
M  V30 12130 H 1171.07 -3.01959 -3.48738 0
M  V30 12131 H 1169.31 -2.89169 -3.23363 0
M  V30 12132 H 1169.98 -2.6398 -4.84787 0
M  V30 12133 H 1172.46 -0.878107 -4.06729 0
M  V30 12134 H 1171.34 -0.720439 -5.44152 0
M  V30 12135 H 1171.6 0.649162 -4.37308 0
M  V30 12136 N 1170.66 1.40747 -0.709091 0
M  V30 12137 C 1171.88 2.05841 -0.253816 0
M  V30 12138 C 1172.31 1.53056 1.09341 0
M  V30 12139 O 1171.66 0.663181 1.68735 0
M  V30 12140 C 1171.71 3.59822 -0.236699 0
M  V30 12141 O 1170.82 4.04876 0.784168 0
M  V30 12142 H 1170.16 0.65295 -0.120631 0
M  V30 12143 H 1172.69 1.80266 -0.967749 0
M  V30 12144 H 1172.7 4.07936 -0.0721616 0
M  V30 12145 H 1171.37 3.97608 -1.21988 0
M  V30 12146 H 1169.95 3.68237 0.587884 0
M  V30 12147 N 1172.13 0.454803 1.50895 0
M  V30 12148 C 1173.38 -0.105562 2.01824 0
M  V30 12149 C 1173.7 -1.41673 1.33992 0
M  V30 12150 O 1172.97 -1.89929 0.479994 0
M  V30 12151 H 1171.55 -0.0420011 0.745818 0
M  V30 12152 H 1174.21 0.601504 1.85386 0
M  V30 12153 H 1173.31 -0.268872 3.1094 0
M  V30 12154 N 1173.61 -1.56489 0.186789 0
M  V30 12155 C 1174.84 -2.02163 -0.463126 0
M  V30 12156 C 1175.26 -1.06612 -1.54969 0
M  V30 12157 O 1174.62 -0.0482139 -1.81236 0
M  V30 12158 C 1174.67 -3.46337 -1.00416 0
M  V30 12159 O 1173.77 -3.53889 -2.11747 0
M  V30 12160 H 1173.11 -0.65496 -0.109194 0
M  V30 12161 H 1175.64 -2.02459 0.295227 0
M  V30 12162 H 1175.65 -3.85959 -1.32287 0
M  V30 12163 H 1174.33 -4.15376 -0.208693 0
M  V30 12164 H 1172.9 -3.26136 -1.80803 0
M  V30 12165 N 1175.09 0.086862 -1.5736 0
M  V30 12166 C 1176.31 0.806017 -1.91097 0
M  V30 12167 C 1176.74 1.71082 -0.78183 0
M  V30 12168 O 1176.1 1.79335 0.266175 0
M  V30 12169 C 1176.15 1.5884 -3.23732 0
M  V30 12170 O 1175.25 2.69798 -3.11902 0
M  V30 12171 H 1174.59 0.220899 -0.626179 0
M  V30 12172 H 1177.12 0.059619 -2.04513 0
M  V30 12173 H 1177.13 1.97088 -3.5724 0
M  V30 12174 H 1175.81 0.924426 -4.05496 0
M  V30 12175 H 1174.38 2.34519 -2.89923 0
M  V30 12176 N 1176.57 1.53483 0.357892 0
M  V30 12177 C 1177.98 1.61641 0.934289 0
M  V30 12178 C 1178.33 0.488655 1.90017 0
M  V30 12179 O 1177.45 -0.38378 2.1297 0
M  V30 12180 C 1178.05 2.92987 1.7013 0
M  V30 12181 C 1176.61 3.03456 2.22692 0
M  V30 12182 C 1175.76 2.56992 1.04165 0
M  V30 12183 H 1178.71 1.58112 0.136452 0
M  V30 12184 H 1178.73 2.81221 2.5631 0
M  V30 12185 H 1178.24 3.75047 0.998056 0
M  V30 12186 H 1176.34 2.25999 2.96235 0
M  V30 12187 H 1176.45 4.08673 2.50046 0
M  V30 12188 H 1174.82 2.12052 1.41088 0
M  V30 12189 H 1175.6 3.41477 0.353272 0
M  V30 12190 N 1178.05 -0.61812 1.44973 0
M  V30 12191 C 1179 -1.72346 1.49268 0
M  V30 12192 C 1179.98 -1.56889 0.357042 0
M  V30 12193 O 1181.17 -1.66404 0.603212 0
M  V30 12194 C 1178.3 -3.11073 1.4522 0
M  V30 12195 C 1177.39 -3.31953 2.63947 0
M  V30 12196 N 1177.78 -3.23141 3.89119 0
M  V30 12197 C 1176.08 -3.62791 2.59419 0
M  V30 12198 C 1176.78 -3.45066 4.683 0
M  V30 12199 N 1175.75 -3.68558 3.99582 0
M  V30 12200 H 1179.55 -1.6401 2.43881 0
M  V30 12201 H 1177.07 -0.821029 1.40117 0
M  V30 12202 H 1179.07 -3.90356 1.46381 0
M  V30 12203 H 1177.73 -3.20565 0.516555 0
M  V30 12204 H 1178.74 -3.01773 4.20896 0
M  V30 12205 H 1175.41 -3.79185 1.74713 0
M  V30 12206 H 1176.8 -3.43735 5.77318 0
M  V30 12207 N 1179.52 -1.32087 -0.859693 0
M  V30 12208 C 1180.93 -1.20107 -1.42938 0
M  V30 12209 C 1181.29 0.188411 -1.95293 0
M  V30 12210 O 1180.41 1.08683 -1.87128 0
M  V30 12211 C 1181.01 -2.17436 -2.59821 0
M  V30 12212 C 1179.56 -2.09359 -3.12803 0
M  V30 12213 C 1178.71 -2.06086 -1.85537 0
M  V30 12214 H 1181.66 -1.43989 -0.667302 0
M  V30 12215 H 1181.68 -1.76996 -3.36828 0
M  V30 12216 H 1181.2 -3.18555 -2.21685 0
M  V30 12217 H 1179.3 -1.1147 -3.55535 0
M  V30 12218 H 1179.41 -2.98947 -3.74389 0
M  V30 12219 H 1177.77 -1.51251 -2.04928 0
M  V30 12220 H 1178.56 -3.08978 -1.49625 0
M  V30 12221 N 1181 1.07532 -1.15215 0
M  V30 12222 C 1182.25 1.79474 -0.920439 0
M  V30 12223 C 1182.56 1.87593 0.553926 0
M  V30 12224 O 1183.77 2.56037 0.903169 0
M  V30 12225 C 1182.23 3.22509 -1.59738 0
M  V30 12226 C 1181.83 3.22596 -3.10863 0
M  V30 12227 C 1183.58 3.99072 -1.44714 0
M  V30 12228 C 1181.48 4.60273 -3.71352 0
M  V30 12229 H 1180.41 0.672625 -0.340722 0
M  V30 12230 H 1183.07 1.2071 -1.38208 0
M  V30 12231 H 1181.45 3.81454 -1.06342 0
M  V30 12232 H 1182.62 2.73306 -3.70999 0
M  V30 12233 H 1180.94 2.5953 -3.25627 0
M  V30 12234 H 1183.53 5.00823 -1.87299 0
M  V30 12235 H 1183.88 4.14428 -0.394386 0
M  V30 12236 H 1184.41 3.46617 -1.95195 0
M  V30 12237 H 1181.15 4.50122 -4.76519 0
M  V30 12238 H 1180.67 5.09809 -3.15998 0
M  V30 12239 H 1182.35 5.29243 -3.7217 0
M  V30 12240 N 1182.48 0.948665 1.2585 0
M  V30 12241 C 1183.71 0.617229 1.97479 0
M  V30 12242 C 1184.12 -0.809406 1.7057 0
M  V30 12243 O 1183.48 -1.54066 0.97826 0
M  V30 12244 C 1183.53 0.859065 3.51144 0
M  V30 12245 O 1183.25 2.2296 3.77121 0
M  V30 12246 C 1184.75 0.539197 4.40009 0
M  V30 12247 H 1181.97 0.231933 0.629641 0
M  V30 12248 H 1184.52 1.27141 1.60173 0
M  V30 12249 H 1182.67 0.25138 3.86584 0
M  V30 12250 H 1183.09 2.29524 4.71613 0
M  V30 12251 H 1184.56 0.758986 5.46757 0
M  V30 12252 H 1185.04 -0.526062 4.36038 0
M  V30 12253 H 1185.64 1.12594 4.10125 0
M  V30 12254 N 1183.96 -1.40369 0.716545 0
M  V30 12255 C 1185.18 -2.05704 0.264729 0
M  V30 12256 C 1185.61 -1.53634 -1.08527 0
M  V30 12257 O 1184.97 -0.67212 -1.68381 0
M  V30 12258 C 1185.01 -3.59692 0.255778 0
M  V30 12259 O 1184.12 -4.05286 -0.762686 0
M  V30 12260 H 1183.46 -0.652301 0.124092 0
M  V30 12261 H 1185.99 -1.7975 0.977295 0
M  V30 12262 H 1186 -4.07892 0.0937944 0
M  V30 12263 H 1184.67 -3.96955 1.24095 0
M  V30 12264 H 1183.25 -3.68543 -0.568347 0
M  V30 12265 N 1185.44 -0.462799 -1.50652 0
M  V30 12266 C 1186.66 0.0929761 -2.06691 0
M  V30 12267 C 1187.08 1.34241 -1.32758 0
M  V30 12268 O 1186.44 1.78187 -0.394427 0
M  V30 12269 C 1186.49 0.389492 -3.59396 0
M  V30 12270 O 1186.21 -0.810379 -4.3054 0
M  V30 12271 C 1187.71 0.993147 -4.32032 0
M  V30 12272 H 1184.93 -0.00338664 -0.670991 0
M  V30 12273 H 1187.47 -0.649201 -1.93922 0
M  V30 12274 H 1185.63 1.08159 -3.71995 0
M  V30 12275 H 1186.04 -0.54996 -5.21609 0
M  V30 12276 H 1187.52 1.15044 -5.39878 0
M  V30 12277 H 1187.99 1.98106 -3.91983 0
M  V30 12278 H 1188.6 0.339677 -4.23941 0
M  V30 12279 N 1186.91 1.56388 -0.195085 0
M  V30 12280 C 1188.16 1.96755 0.443901 0
M  V30 12281 C 1188.48 1.08483 1.6276 0
M  V30 12282 O 1189.68 1.38632 2.33438 0
M  V30 12283 C 1188.14 3.49933 0.841139 0
M  V30 12284 C 1187.75 4.46868 -0.318275 0
M  V30 12285 C 1189.49 3.99069 1.44721 0
M  V30 12286 C 1187.4 5.91316 0.0999211 0
M  V30 12287 H 1186.33 0.734674 0.169616 0
M  V30 12288 H 1188.98 1.8124 -0.287101 0
M  V30 12289 H 1187.36 3.60951 1.62881 0
M  V30 12290 H 1188.53 4.47581 -1.0958 0
M  V30 12291 H 1186.85 4.07925 -0.835842 0
M  V30 12292 H 1189.45 5.04465 1.77255 0
M  V30 12293 H 1189.79 3.43376 2.35369 0
M  V30 12294 H 1190.32 3.91165 0.723513 0
M  V30 12295 H 1187.06 6.50934 -0.77237 0
M  V30 12296 H 1186.58 5.93856 0.842304 0
M  V30 12297 H 1188.26 6.44778 0.535726 0
M  V30 12298 N 1188.39 -0.0785156 1.57404 0
M  V30 12299 C 1189.81 -0.433143 1.5361 0
M  V30 12300 C 1190.01 -1.79564 0.914283 0
M  V30 12301 O 1189.06 -2.47215 0.513899 0
M  V30 12302 C 1190.38 -0.380387 2.98284 0
M  V30 12303 C 1191.93 -0.461056 3.09586 0
M  V30 12304 C 1192.4 -0.438276 4.55898 0
M  V30 12305 N 1193.89 -0.498548 4.60509 0
M  V30 12306 C 1194.63 -0.503028 5.71189 0
M  V30 12307 N 1194.12 -0.462724 6.91253 0
M  V30 12308 N 1195.92 -0.549083 5.59412 0
M  V30 12309 H 1188.07 0.813724 1.96195 0
M  V30 12310 H 1190.33 0.304644 0.897717 0
M  V30 12311 H 1190.04 0.553932 3.4731 0
M  V30 12312 H 1189.91 -1.19313 3.57833 0
M  V30 12313 H 1192.3 -1.3858 2.60537 0
M  V30 12314 H 1192.38 0.380138 2.5296 0
M  V30 12315 H 1192.02 0.482588 5.05602 0
M  V30 12316 H 1191.95 -1.29691 5.1038 0
M  V30 12317 H 1194.44 -0.534219 3.74105 0
M  V30 12318 H 1194.76 -0.469883 7.7137 0
M  V30 12319 H 1193.1 -0.429515 6.93672 0
M  V30 12320 H 1196.29 -0.578215 4.64515 0
M  V30 12321 H 1196.46 -0.549105 6.45669 0
M  V30 12322 N 1189.87 -1.5367 -0.349747 0
M  V30 12323 C 1191.12 -1.7087 -1.0923 0
M  V30 12324 C 1191.45 -0.467299 -1.88494 0
M  V30 12325 O 1190.72 0.535619 -1.8698 0
M  V30 12326 C 1191.01 -2.9684 -2.03858 0
M  V30 12327 C 1190.86 -4.31174 -1.28097 0
M  V30 12328 C 1192.18 -3.18459 -3.03763 0
M  V30 12329 H 1189.3 -0.621757 -0.395711 0
M  V30 12330 H 1191.94 -1.86333 -0.371481 0
M  V30 12331 H 1190.09 -2.83788 -2.65323 0
M  V30 12332 H 1191.76 -4.56066 -0.692933 0
M  V30 12333 H 1190.01 -4.29866 -0.582924 0
M  V30 12334 H 1190.68 -5.15482 -1.9744 0
M  V30 12335 H 1193.15 -3.30801 -2.52409 0
M  V30 12336 H 1192.03 -4.08006 -3.67182 0
M  V30 12337 H 1192.29 -2.34467 -3.74803 0
M  V30 12338 N 1191.35 0.610423 -1.45298 0
M  V30 12339 C 1192.58 1.39419 -1.52466 0
M  V30 12340 C 1192.99 1.88563 -0.1551 0
M  V30 12341 O 1192.33 1.62692 0.853061 0
M  V30 12342 C 1192.39 2.63515 -2.44541 0
M  V30 12343 C 1192.06 2.36028 -3.91331 0
M  V30 12344 C 1193.05 1.96567 -4.81308 0
M  V30 12345 C 1190.74 2.49028 -4.36223 0
M  V30 12346 C 1192.73 1.70461 -6.14184 0
M  V30 12347 C 1190.42 2.22536 -5.6914 0
M  V30 12348 C 1191.42 1.83314 -6.5794 0
M  V30 12349 O 1191.1 1.57131 -7.88394 0
M  V30 12350 H 1190.84 0.433278 -0.518889 0
M  V30 12351 H 1193.39 0.751803 -1.91147 0
M  V30 12352 H 1191.62 3.30463 -2.00826 0
M  V30 12353 H 1193.31 3.25554 -2.42424 0
M  V30 12354 H 1194.08 1.86062 -4.4789 0
M  V30 12355 H 1189.95 2.78524 -3.67349 0
M  V30 12356 H 1193.5 1.39773 -6.83454 0
M  V30 12357 H 1189.4 2.32657 -6.02114 0
M  V30 12358 H 1190.16 1.71207 -8.00394 0
M  V30 12359 N 1192.83 1.32541 0.852676 0
M  V30 12360 C 1194.07 1.23214 1.607 0
M  V30 12361 C 1194.4 -0.205542 1.93411 0
M  V30 12362 O 1193.66 -1.15907 1.57683 0
M  V30 12363 C 1193.96 2.039 2.9353 0
M  V30 12364 C 1193.62 3.53237 2.8024 0
M  V30 12365 C 1192.28 3.93953 2.76323 0
M  V30 12366 C 1194.64 4.48194 2.6603 0
M  V30 12367 C 1191.96 5.27865 2.56077 0
M  V30 12368 C 1194.32 5.82251 2.47319 0
M  V30 12369 C 1192.98 6.22166 2.41796 0
M  V30 12370 H 1192.25 0.450873 0.588043 0
M  V30 12371 H 1194.9 1.63988 0.988954 0
M  V30 12372 H 1193.2 1.55861 3.59464 0
M  V30 12373 H 1194.9 1.94051 3.50921 0
M  V30 12374 H 1191.49 3.209 2.84114 0
M  V30 12375 H 1195.67 4.17656 2.681 0
M  V30 12376 H 1190.93 5.57845 2.50237 0
M  V30 12377 H 1195.1 6.55442 2.35305 0
M  V30 12378 H 1192.73 7.2587 2.25868 0
M  V30 12379 N 1194.3 -1.0692 1.15784 0
M  V30 12380 C 1195.25 -2.14235 0.858616 0
M  V30 12381 C 1196.22 -1.65006 -0.190295 0
M  V30 12382 O 1197.41 -1.90715 -0.0568853 0
M  V30 12383 C 1194.55 -3.43229 0.35888 0
M  V30 12384 C 1193.66 -4.06225 1.46987 0
M  V30 12385 C 1192.79 -5.2307 0.925812 0
M  V30 12386 C 1191.83 -5.78037 2.01345 0
M  V30 12387 N 1190.97 -6.86206 1.48544 0
M  V30 12388 H 1195.81 -2.3917 1.77769 0
M  V30 12389 H 1193.35 -1.17354 0.886925 0
M  V30 12390 H 1195.31 -4.17169 0.0508198 0
M  V30 12391 H 1193.94 -3.18531 -0.523259 0
M  V30 12392 H 1192.99 -3.29895 1.89403 0
M  V30 12393 H 1194.3 -4.43081 2.29088 0
M  V30 12394 H 1193.45 -6.04011 0.570555 0
M  V30 12395 H 1192.19 -4.87644 0.0740371 0
M  V30 12396 H 1191.2 -4.95738 2.37748 0
M  V30 12397 H 1192.42 -6.15517 2.86907 0
M  V30 12398 H 1190.37 -6.52711 0.656092 0
M  V30 12399 H 1190.29 -7.2197 2.24266 0
M  V30 12400 H 1191.55 -7.70842 1.15856 0
M  V30 12401 N 1195.78 -0.955326 -1.25345 0
M  V30 12402 C 1197.19 -0.651118 -1.74978 0
M  V30 12403 C 1197.54 0.833495 -1.77616 0
M  V30 12404 O 1196.67 1.65228 -1.39745 0
M  V30 12405 C 1197.26 -1.17521 -3.17764 0
M  V30 12406 C 1195.82 -0.921151 -3.64954 0
M  V30 12407 C 1194.97 -1.31784 -2.43984 0
M  V30 12408 H 1197.92 -1.13205 -1.11222 0
M  V30 12409 H 1197.94 -0.535625 -3.76711 0
M  V30 12410 H 1197.45 -2.25575 -3.15813 0
M  V30 12411 H 1195.56 0.144392 -3.7232 0
M  V30 12412 H 1195.67 -1.5581 -4.53056 0
M  V30 12413 H 1194.03 -0.736219 -2.43828 0
M  V30 12414 H 1194.82 -2.40761 -2.44723 0
M  V30 12415 N 1197.26 1.39987 -0.723979 0
M  V30 12416 C 1198.21 2.30672 -0.0768286 0
M  V30 12417 C 1199.18 1.48634 0.741422 0
M  V30 12418 O 1200.36 1.77351 0.703649 0
M  V30 12419 C 1197.5 3.34902 0.832729 0
M  V30 12420 C 1196.62 4.32 0.00304942 0
M  V30 12421 C 1195.75 5.23298 0.91286 0
M  V30 12422 C 1194.79 6.12051 0.0777706 0
M  V30 12423 N 1193.93 6.9574 0.942912 0
M  V30 12424 H 1198.77 2.85446 -0.855832 0
M  V30 12425 H 1196.3 1.40561 -0.433718 0
M  V30 12426 H 1198.26 3.93911 1.37441 0
M  V30 12427 H 1196.89 2.81611 1.57782 0
M  V30 12428 H 1195.94 3.74702 -0.655916 0
M  V30 12429 H 1197.26 4.94637 -0.643124 0
M  V30 12430 H 1196.41 5.87279 1.52277 0
M  V30 12431 H 1195.15 4.60956 1.59284 0
M  V30 12432 H 1194.15 5.47092 -0.545022 0
M  V30 12433 H 1195.38 6.76455 -0.598827 0
M  V30 12434 H 1193.33 6.35977 1.60838 0
M  V30 12435 H 1193.24 7.55176 0.352968 0
M  V30 12436 H 1194.51 7.64162 1.53874 0
M  V30 12437 N 1198.74 0.470782 1.50404 0
M  V30 12438 C 1199.69 -0.342183 2.25418 0
M  V30 12439 C 1200.67 -0.961726 1.28995 0
M  V30 12440 O 1201.87 -0.874327 1.53898 0
M  V30 12441 C 1198.99 -1.42378 3.12383 0
M  V30 12442 C 1198.08 -0.811982 4.16254 0
M  V30 12443 N 1198.47 0.0675245 5.05755 0
M  V30 12444 C 1196.77 -1.07596 4.32827 0
M  V30 12445 C 1197.47 0.414693 5.8022 0
M  V30 12446 N 1196.45 -0.210047 5.43194 0
M  V30 12447 H 1200.25 0.335344 2.91981 0
M  V30 12448 H 1197.76 0.284911 1.59881 0
M  V30 12449 H 1199.76 -2.01936 3.64729 0
M  V30 12450 H 1198.42 -2.1033 2.47369 0
M  V30 12451 H 1199.43 0.436333 5.16059 0
M  V30 12452 H 1196.11 -1.75048 3.79031 0
M  V30 12453 H 1197.5 1.13243 6.62288 0
M  V30 12454 N 1200.22 -1.56282 0.203376 0
M  V30 12455 C 1201.45 -2.02198 -0.438572 0
M  V30 12456 C 1201.86 -1.08343 -1.54619 0
M  V30 12457 O 1201.22 -0.0897594 -1.82279 0
M  V30 12458 C 1201.27 -3.4776 -0.987184 0
M  V30 12459 O 1200.99 -4.38034 0.0762552 0
M  V30 12460 C 1202.49 -4.09234 -1.70419 0
M  V30 12461 H 1199.71 -0.662041 -0.109282 0
M  V30 12462 H 1202.25 -2.02067 0.314509 0
M  V30 12463 H 1200.41 -3.48564 -1.69061 0
M  V30 12464 H 1200.82 -5.2344 -0.333322 0
M  V30 12465 H 1202.3 -5.1291 -2.04027 0
M  V30 12466 H 1202.77 -3.53172 -2.61087 0
M  V30 12467 H 1203.38 -4.12226 -1.04641 0
M  V30 12468 N 1201.7 0.070167 -1.57444 0
M  V30 12469 C 1203.11 0.424991 -1.53838 0
M  V30 12470 C 1203.31 1.79076 -0.923793 0
M  V30 12471 O 1202.37 2.46939 -0.527002 0
M  V30 12472 C 1203.68 0.364562 -2.98482 0
M  V30 12473 C 1205.23 0.444631 -3.09826 0
M  V30 12474 C 1205.7 0.414093 -4.56124 0
M  V30 12475 N 1207.19 0.474119 -4.60767 0
M  V30 12476 C 1207.93 0.472729 -5.71448 0
M  V30 12477 N 1207.43 0.426059 -6.91489 0
M  V30 12478 N 1209.22 0.519408 -5.59695 0
M  V30 12479 H 1201.37 -0.824117 -1.9576 0
M  V30 12480 H 1203.63 -0.309401 -0.896089 0
M  V30 12481 H 1203.34 -0.572343 -3.47012 0
M  V30 12482 H 1203.21 1.17414 -3.5846 0
M  V30 12483 H 1205.6 1.37196 -2.61269 0
M  V30 12484 H 1205.68 -0.393547 -2.52755 0
M  V30 12485 H 1205.32 -0.509394 -5.05339 0
M  V30 12486 H 1205.25 1.26983 -5.11061 0
M  V30 12487 H 1207.75 0.514371 -3.74383 0
M  V30 12488 H 1208.06 0.428969 -7.71609 0
M  V30 12489 H 1206.4 0.392722 -6.9389 0
M  V30 12490 H 1209.59 0.553573 -4.64815 0
M  V30 12491 H 1209.77 0.514856 -6.45951 0
M  V30 12492 N 1203.17 1.53854 0.341593 0
M  V30 12493 C 1204.14 1.8128 1.40251 0
M  V30 12494 C 1205.14 0.683915 1.45531 0
M  V30 12495 O 1206.33 0.952202 1.45872 0
M  V30 12496 C 1203.46 1.95658 2.79161 0
M  V30 12497 H 1204.65 2.76053 1.17195 0
M  V30 12498 H 1202.2 1.45296 0.57609 0
M  V30 12499 H 1202.94 1.03034 3.07497 0
M  V30 12500 H 1202.72 2.77788 2.76724 0
M  V30 12501 H 1204.21 2.18387 3.55945 0
M  V30 12502 N 1204.65 -0.602709 1.4562 0
M  V30 12503 C 1205.9 -1.36159 1.51103 0
M  V30 12504 C 1206.25 -1.91794 0.152552 0
M  V30 12505 O 1205.55 -1.7239 -0.836201 0
M  V30 12506 C 1205.74 -2.52474 2.52966 0
M  V30 12507 C 1205.57 -2.0823 3.98585 0
M  V30 12508 C 1204.34 -1.94175 4.66502 0
M  V30 12509 C 1206.54 -1.65402 4.86977 0
M  V30 12510 N 1204.52 -1.43792 5.96822 0
M  V30 12511 C 1205.89 -1.26469 6.06964 0
M  V30 12512 C 1207.94 -1.53038 4.73797 0
M  V30 12513 C 1206.65 -0.764065 7.1523 0
M  V30 12514 C 1208.67 -1.04379 5.82116 0
M  V30 12515 C 1208.04 -0.664136 7.01262 0
M  V30 12516 H 1204.13 -0.491974 0.607853 0
M  V30 12517 H 1206.72 -0.688472 1.82121 0
M  V30 12518 H 1204.89 -3.17375 2.23891 0
M  V30 12519 H 1206.62 -3.19369 2.48567 0
M  V30 12520 H 1203.38 -2.1551 4.21726 0
M  V30 12521 H 1203.8 -1.2082 6.66132 0
M  V30 12522 H 1208.44 -1.81014 3.82091 0
M  V30 12523 H 1206.16 -0.471858 8.06721 0
M  V30 12524 H 1209.75 -0.952316 5.73953 0
M  V30 12525 H 1208.63 -0.293412 7.83651 0
M  V30 12526 N 1206.13 -1.32992 -0.845635 0
M  V30 12527 C 1207.38 -1.24249 -1.60281 0
M  V30 12528 C 1207.71 0.193049 -1.93238 0
M  V30 12529 O 1206.98 1.1326 -1.58122 0
M  V30 12530 C 1207.27 -2.1111 -2.91727 0
M  V30 12531 C 1207.12 -3.63088 -2.65494 0
M  V30 12532 C 1208.44 -1.97913 -3.93089 0
M  V30 12533 H 1205.56 -0.452698 -0.581578 0
M  V30 12534 H 1208.2 -1.63026 -0.975828 0
M  V30 12535 H 1206.35 -1.78169 -3.45236 0
M  V30 12536 H 1208.02 -4.06287 -2.18469 0
M  V30 12537 H 1206.26 -3.85304 -1.99306 0
M  V30 12538 H 1206.94 -4.19202 -3.59129 0
M  V30 12539 H 1209.41 -2.26788 -3.48864 0
M  V30 12540 H 1208.29 -2.60952 -4.82903 0
M  V30 12541 H 1208.55 -0.949378 -4.31786 0
M  V30 12542 N 1207.61 1.06304 -1.1635 0
M  V30 12543 C 1209.02 1.60566 -0.952652 0
M  V30 12544 C 1209.37 1.8963 0.503473 0
M  V30 12545 O 1208.49 1.66964 1.37666 0
M  V30 12546 C 1209.09 2.9172 -1.72292 0
M  V30 12547 C 1207.65 3.42684 -1.55707 0
M  V30 12548 C 1206.8 2.16579 -1.73172 0
M  V30 12549 H 1209.75 0.892563 -1.31221 0
M  V30 12550 H 1209.77 3.61126 -1.19868 0
M  V30 12551 H 1209.28 2.70535 -2.78267 0
M  V30 12552 H 1207.38 3.68929 -0.521726 0
M  V30 12553 H 1207.49 4.18018 -2.34088 0
M  V30 12554 H 1205.86 2.26795 -1.15914 0
M  V30 12555 H 1206.64 1.97877 -2.80535 0
M  V30 12556 N 1209.09 0.96196 1.24836 0
M  V30 12557 C 1210.5 0.667561 1.44968 0
M  V30 12558 C 1210.7 -0.772521 1.86103 0
M  V30 12559 O 1209.76 -1.54704 1.99557 0
M  V30 12560 C 1211.07 1.64675 2.516 0
M  V30 12561 C 1212.62 1.65874 2.65433 0
M  V30 12562 C 1213.09 2.62576 3.75257 0
M  V30 12563 N 1214.58 2.60984 3.82677 0
M  V30 12564 C 1215.32 3.32484 4.67163 0
M  V30 12565 N 1214.82 4.13482 5.55882 0
M  V30 12566 N 1216.61 3.21336 4.61193 0
M  V30 12567 H 1208.76 1.89248 0.964307 0
M  V30 12568 H 1211.02 0.814443 0.485167 0
M  V30 12569 H 1210.73 2.67572 2.2825 0
M  V30 12570 H 1210.6 1.415 3.49653 0
M  V30 12571 H 1212.99 0.636912 2.88145 0
M  V30 12572 H 1213.07 1.9311 1.67756 0
M  V30 12573 H 1212.71 3.6489 3.53295 0
M  V30 12574 H 1212.64 2.32622 4.72435 0
M  V30 12575 H 1215.14 2.02187 3.19263 0
M  V30 12576 H 1215.45 4.6494 6.17293 0
M  V30 12577 H 1213.79 4.17578 5.55566 0
M  V30 12578 H 1216.98 2.57524 3.90895 0
M  V30 12579 H 1217.16 3.77323 5.26812 0
M  V30 12580 N 1210.56 -1.39601 0.731392 0
M  V30 12581 C 1211.97 -1.83424 0.348194 0
M  V30 12582 C 1212.33 -1.61106 -1.11979 0
M  V30 12583 O 1211.45 -1.1003 -1.86339 0
M  V30 12584 C 1212.05 -3.32982 0.6252 0
M  V30 12585 C 1210.6 -3.75238 0.295536 0
M  V30 12586 C 1209.75 -2.62642 0.88964 0
M  V30 12587 H 1212.7 -1.28644 0.929318 0
M  V30 12588 H 1212.72 -3.80357 -0.104254 0
M  V30 12589 H 1212.24 -3.49193 1.69368 0
M  V30 12590 H 1210.34 -3.64615 -0.767254 0
M  V30 12591 H 1210.45 -4.72781 0.775576 0
M  V30 12592 H 1208.81 -2.52726 0.316529 0
M  V30 12593 H 1209.6 -2.81661 1.96271 0
M  V30 12594 N 1212.04 -0.478751 -1.50152 0
M  V30 12595 C 1213.45 -0.0254907 -1.86683 0
M  V30 12596 C 1213.8 1.38171 -1.39295 0
M  V30 12597 O 1212.93 2.0257 -0.761207 0
M  V30 12598 C 1213.52 -0.0394819 -3.38777 0
M  V30 12599 C 1212.08 0.35834 -3.7469 0
M  V30 12600 C 1211.23 -0.421667 -2.74075 0
M  V30 12601 H 1214.18 -0.692653 -1.42787 0
M  V30 12602 H 1214.2 0.760957 -3.72813 0
M  V30 12603 H 1213.71 -1.06378 -3.73236 0
M  V30 12604 H 1211.82 1.38671 -3.45834 0
M  V30 12605 H 1211.93 0.0543589 -4.79069 0
M  V30 12606 H 1210.29 0.125634 -2.5439 0
M  V30 12607 H 1211.08 -1.44562 -3.11379 0
M  V30 12608 N 1213.52 1.56172 -0.211661 0
M  V30 12609 C 1214.94 1.5895 0.143907 0
M  V30 12610 C 1215.14 1.22826 1.59737 0
M  V30 12611 O 1214.19 0.958823 2.33587 0
M  V30 12612 C 1215.51 3.00199 -0.173438 0
M  V30 12613 C 1217.05 3.12789 -0.114877 0
M  V30 12614 C 1217.53 4.56199 -0.405759 0
M  V30 12615 N 1219.02 4.61838 -0.354973 0
M  V30 12616 C 1219.75 5.70721 -0.553671 0
M  V30 12617 N 1219.25 6.88006 -0.813613 0
M  V30 12618 N 1221.04 5.59988 -0.486787 0
M  V30 12619 H 1213.19 1.77931 -1.15993 0
M  V30 12620 H 1215.46 0.826569 -0.464206 0
M  V30 12621 H 1215.16 3.31248 -1.18186 0
M  V30 12622 H 1215.04 3.73651 0.516232 0
M  V30 12623 H 1217.42 2.81543 0.884166 0
M  V30 12624 H 1217.51 2.41688 -0.837875 0
M  V30 12625 H 1217.15 4.88161 -1.40219 0
M  V30 12626 H 1217.08 5.25512 0.338318 0
M  V30 12627 H 1219.57 3.77555 -0.161352 0
M  V30 12628 H 1219.88 7.66894 -0.953594 0
M  V30 12629 H 1218.23 6.89774 -0.850696 0
M  V30 12630 H 1221.42 4.67238 -0.284009 0
M  V30 12631 H 1221.59 6.44781 -0.645051 0
M  V30 12632 N 1215 -0.0618163 1.57479 0
M  V30 12633 C 1215.93 -1.07252 2.07411 0
M  V30 12634 C 1216.91 -1.39756 0.969649 0
M  V30 12635 O 1218.09 -1.4921 1.24298 0
M  V30 12636 C 1215.22 -2.38313 2.52635 0
M  V30 12637 C 1214.18 -2.20136 3.67048 0
M  V30 12638 C 1213.5 -3.56668 3.98361 0
M  V30 12639 C 1214.8 -1.61437 4.96725 0
M  V30 12640 H 1216.5 -0.656983 2.92103 0
M  V30 12641 H 1214.04 -0.314579 1.40522 0
M  V30 12642 H 1216 -3.09319 2.86181 0
M  V30 12643 H 1214.72 -2.81865 1.64984 0
M  V30 12644 H 1213.38 -1.51569 3.338 0
M  V30 12645 H 1213.03 -3.97809 3.07826 0
M  V30 12646 H 1212.73 -3.45342 4.75408 0
M  V30 12647 H 1214.25 -4.2909 4.34413 0
M  V30 12648 H 1215.67 -2.2232 5.28438 0
M  V30 12649 H 1214.06 -1.60779 5.78161 0
M  V30 12650 H 1215.13 -0.576795 4.81457 0
M  V30 12651 N 1216.48 -1.54033 -0.333429 0
M  V30 12652 C 1217.72 -1.73485 -1.08085 0
M  V30 12653 C 1218.08 -0.492888 -1.85566 0
M  V30 12654 O 1219.28 -0.564596 -2.62804 0
M  V30 12655 C 1217.55 -2.96943 -1.98896 0
M  V30 12656 S 1219.11 -3.37253 -2.80724 0
M  V30 12657 H 1215.93 -0.610131 -0.365049 0
M  V30 12658 H 1218.53 -1.92194 -0.358034 0
M  V30 12659 H 1217.24 -3.85494 -1.40794 0
M  V30 12660 H 1216.77 -2.80729 -2.75599 0
M  V30 12661 H 1218.78 -2.9178 -4.01347 0
M  V30 12662 N 1217.95 0.594978 -1.45938 0
M  V30 12663 C 1218.89 1.71909 -1.51591 0
M  V30 12664 C 1219.9 1.57671 -0.405416 0
M  V30 12665 O 1221.09 1.65321 -0.673144 0
M  V30 12666 C 1218.19 3.10041 -1.3685 0
M  V30 12667 C 1217.36 3.50399 -2.61801 0
M  V30 12668 C 1216.42 4.67542 -2.41435 0
M  V30 12669 O 1215.45 4.74022 -3.15106 0
M  V30 12670 N 1216.65 5.6163 -1.46808 0
M  V30 12671 H 1219.41 1.67518 -2.48511 0
M  V30 12672 H 1216.97 0.78062 -1.41838 0
M  V30 12673 H 1218.97 3.86183 -1.21017 0
M  V30 12674 H 1217.54 3.08868 -0.481589 0
M  V30 12675 H 1216.76 2.64088 -2.92662 0
M  V30 12676 H 1218.04 3.74125 -3.44831 0
M  V30 12677 H 1217.44 5.5912 -0.860333 0
M  V30 12678 H 1216 6.37252 -1.36942 0
M  V30 12679 N 1219.43 1.33438 0.838571 0
M  V30 12680 C 1220.66 1.27766 1.62356 0
M  V30 12681 C 1221.07 -0.15359 1.88576 0
M  V30 12682 O 1220.41 -1.10626 1.46654 0
M  V30 12683 C 1220.48 1.98435 2.99773 0
M  V30 12684 C 1220.14 3.47741 2.96522 0
M  V30 12685 C 1221.14 4.42938 2.72217 0
M  V30 12686 C 1218.82 3.89922 3.16648 0
M  V30 12687 C 1220.82 5.7829 2.68066 0
M  V30 12688 C 1218.5 5.25378 3.12123 0
M  V30 12689 C 1219.5 6.19374 2.87863 0
M  V30 12690 O 1219.19 7.52349 2.83242 0
M  V30 12691 H 1218.92 0.441527 0.511889 0
M  V30 12692 H 1221.47 1.76377 1.05262 0
M  V30 12693 H 1219.7 1.44415 3.58721 0
M  V30 12694 H 1221.39 1.86258 3.60642 0
M  V30 12695 H 1222.16 4.11673 2.56418 0
M  V30 12696 H 1218.04 3.17169 3.34552 0
M  V30 12697 H 1221.58 6.51629 2.4905 0
M  V30 12698 H 1217.48 5.56267 3.27471 0
M  V30 12699 H 1218.25 7.61901 2.99082 0
M  V30 12700 N 1220.91 -1.05686 1.16912 0
M  V30 12701 C 1221.86 -2.13312 0.88129 0
M  V30 12702 C 1222.83 -1.65199 -0.172783 0
M  V30 12703 O 1224.01 -1.90765 -0.0366542 0
M  V30 12704 C 1221.15 -3.42829 0.395264 0
M  V30 12705 C 1220.27 -4.04643 1.51288 0
M  V30 12706 C 1219.4 -5.22059 0.981238 0
M  V30 12707 C 1218.44 -5.75869 2.07464 0
M  V30 12708 N 1217.58 -6.84592 1.55813 0
M  V30 12709 H 1222.42 -2.37271 1.80295 0
M  V30 12710 H 1219.95 -1.16407 0.899322 0
M  V30 12711 H 1221.91 -4.17092 0.0950633 0
M  V30 12712 H 1220.54 -3.19068 -0.489445 0
M  V30 12713 H 1219.59 -3.27867 1.92891 0
M  V30 12714 H 1220.91 -4.40626 2.33774 0
M  V30 12715 H 1220.06 -6.03372 0.634586 0
M  V30 12716 H 1218.8 -4.87538 0.125754 0
M  V30 12717 H 1217.8 -4.93188 2.42992 0
M  V30 12718 H 1219.03 -6.12439 2.93419 0
M  V30 12719 H 1216.97 -6.51978 0.725283 0
M  V30 12720 H 1216.89 -7.19551 2.31911 0
M  V30 12721 H 1218.16 -7.6957 1.24025 0
M  V30 12722 N 1222.39 -0.968567 -1.24324 0
M  V30 12723 C 1223.34 -0.498817 -2.25345 0
M  V30 12724 C 1224.31 0.456082 -1.59716 0
M  V30 12725 O 1225.49 0.366254 -1.87252 0
M  V30 12726 C 1222.63 0.204027 -3.44496 0
M  V30 12727 C 1221.74 -0.789741 -4.2472 0
M  V30 12728 C 1220.88 -0.0629156 -5.31163 0
M  V30 12729 C 1219.92 -1.04669 -6.03084 0
M  V30 12730 N 1219.05 -0.349812 -7.01228 0
M  V30 12731 H 1223.89 -1.36511 -2.64894 0
M  V30 12732 H 1221.43 -0.684288 -1.30215 0
M  V30 12733 H 1223.39 0.628223 -4.12443 0
M  V30 12734 H 1222.02 1.03426 -3.05782 0
M  V30 12735 H 1221.07 -1.33237 -3.56303 0
M  V30 12736 H 1222.38 -1.53988 -4.74436 0
M  V30 12737 H 1221.54 0.419233 -6.0525 0
M  V30 12738 H 1220.28 0.719915 -4.82357 0
M  V30 12739 H 1219.28 -1.53971 -5.278 0
M  V30 12740 H 1220.51 -1.82998 -6.53979 0
M  V30 12741 H 1218.45 0.414026 -6.54692 0
M  V30 12742 H 1218.37 -1.03881 -7.48829 0
M  V30 12743 H 1219.64 0.11034 -7.79422 0
M  V30 12744 N 1223.87 1.39211 -0.738786 0
M  V30 12745 C 1224.83 2.28937 -0.109746 0
M  V30 12746 C 1225.83 1.46488 0.663157 0
M  V30 12747 O 1227.02 1.67119 0.491614 0
M  V30 12748 C 1224.15 3.30039 0.853633 0
M  V30 12749 H 1225.34 2.86068 -0.900295 0
M  V30 12750 H 1222.9 1.47922 -0.504853 0
M  V30 12751 H 1223.63 2.77971 1.6704 0
M  V30 12752 H 1223.42 3.90935 0.302007 0
M  V30 12753 H 1224.91 3.97169 1.29022 0
M  V30 12754 N 1225.34 0.486708 1.49896 0
M  V30 12755 C 1226.59 -0.062852 2.02402 0
M  V30 12756 C 1226.92 -1.38306 1.36754 0
M  V30 12757 O 1226.17 -1.89531 0.487493 0
M  V30 12758 C 1226.47 -0.278643 3.56312 0
M  V30 12759 C 1226.14 0.961794 4.40523 0
M  V30 12760 C 1224.8 1.30185 4.63255 0
M  V30 12761 C 1227.15 1.78697 4.89609 0
M  V30 12762 C 1224.48 2.46686 5.32318 0
M  V30 12763 C 1226.83 2.9434 5.59953 0
M  V30 12764 C 1225.5 3.28742 5.80935 0
M  V30 12765 H 1224.77 -0.0229992 0.740643 0
M  V30 12766 H 1227.41 0.643963 1.80348 0
M  V30 12767 H 1225.72 -1.06785 3.76967 0
M  V30 12768 H 1227.42 -0.718078 3.94518 0
M  V30 12769 H 1224.01 0.686887 4.2306 0
M  V30 12770 H 1228.19 1.53742 4.71887 0
M  V30 12771 H 1223.45 2.73596 5.46768 0
M  V30 12772 H 1227.62 3.58616 5.96965 0
M  V30 12773 H 1225.25 4.19121 6.34225 0
M  V30 12774 N 1226.82 -1.56058 0.219941 0
M  V30 12775 C 1228.05 -2.031 -0.42014 0
M  V30 12776 C 1228.47 -1.09875 -1.52673 0
M  V30 12777 O 1227.83 -0.0866458 -1.81093 0
M  V30 12778 C 1227.88 -3.48389 -0.93047 0
M  V30 12779 O 1226.98 -3.583 -2.04192 0
M  V30 12780 H 1226.32 -0.657129 -0.0952772 0
M  V30 12781 H 1228.85 -2.01787 0.338105 0
M  V30 12782 H 1228.86 -3.88678 -1.2407 0
M  V30 12783 H 1227.54 -4.15725 -0.120539 0
M  V30 12784 H 1226.12 -3.29898 -1.73845 0
M  V30 12785 N 1228.3 0.053464 -1.57509 0
M  V30 12786 C 1229.55 0.750212 -1.88414 0
M  V30 12787 C 1229.88 1.76288 -0.814619 0
M  V30 12788 O 1229.16 1.93728 0.173136 0
M  V30 12789 C 1229.44 1.44176 -3.29978 0
M  V30 12790 C 1229.29 0.444263 -4.47601 0
M  V30 12791 C 1230.61 2.38207 -3.70061 0
M  V30 12792 H 1227.73 0.271266 -0.685262 0
M  V30 12793 H 1230.37 0.0131676 -1.89995 0
M  V30 12794 H 1228.52 2.07001 -3.2876 0
M  V30 12795 H 1230.19 -0.180182 -4.60948 0
M  V30 12796 H 1228.44 -0.238771 -4.33142 0
M  V30 12797 H 1229.11 0.966134 -5.43479 0
M  V30 12798 H 1231.58 1.85446 -3.7249 0
M  V30 12799 H 1230.46 2.83588 -4.69967 0
M  V30 12800 H 1230.72 3.23821 -3.00985 0
M  V30 12801 N 1229.78 1.54207 0.325255 0
M  V30 12802 C 1231.06 1.6298 1.08153 0
M  V30 12803 C 1231.44 0.462583 2.05969 0
M  V30 12804 O 1230.78 -0.543323 2.21947 0
M  V30 12805 C 1230.99 2.999 1.78497 0
M  V30 12806 C 1232.34 3.55888 2.3158 0
M  V30 12807 O 1233.37 3.02194 1.88566 0
M  V30 12808 O 1232.23 4.49847 3.10322 0
M  V30 12809 H 1229.32 0.659923 0.498429 0
M  V30 12810 H 1231.87 1.66553 0.325282 0
M  V30 12811 H 1230.64 3.7629 1.07338 0
M  V30 12812 H 1230.26 2.99997 2.60936 0
M  V30 12813 N 1231.26 -0.58723 1.46251 0
M  V30 12814 C 1232.5 -1.3456 1.51327 0
M  V30 12815 C 1232.83 -1.93815 0.163146 0
M  V30 12816 O 1232.09 -1.76723 -0.840677 0
M  V30 12817 C 1232.39 -2.49776 2.5563 0
M  V30 12818 C 1232.05 -2.08543 3.99776 0
M  V30 12819 C 1230.71 -1.97013 4.39021 0
M  V30 12820 C 1233.07 -1.76669 4.90344 0
M  V30 12821 C 1230.39 -1.5186 5.66706 0
M  V30 12822 C 1232.75 -1.32996 6.18462 0
M  V30 12823 C 1231.41 -1.20039 6.56618 0
M  V30 12824 H 1230.68 -0.492391 0.553744 0
M  V30 12825 H 1233.33 -0.661715 1.79704 0
M  V30 12826 H 1231.63 -3.23592 2.20897 0
M  V30 12827 H 1233.33 -3.07995 2.56788 0
M  V30 12828 H 1229.92 -2.18451 3.68751 0
M  V30 12829 H 1234.1 -1.84465 4.60746 0
M  V30 12830 H 1229.36 -1.40467 5.95045 0
M  V30 12831 H 1233.53 -1.07385 6.88071 0
M  V30 12832 H 1231.16 -0.848268 7.55452 0
M  V30 12833 N 1232.74 -1.33881 -0.831482 0
M  V30 12834 C 1233.96 -1.28812 -1.61911 0
M  V30 12835 C 1234.38 0.139519 -1.88284 0
M  V30 12836 O 1233.74 1.08397 -1.46821 0
M  V30 12837 C 1233.79 -2.06806 -2.96502 0
M  V30 12838 O 1233.51 -3.44 -2.71285 0
M  V30 12839 C 1235.01 -2.09033 -3.90922 0
M  V30 12840 H 1232.23 -0.443473 -0.50356 0
M  V30 12841 H 1234.77 -1.76365 -1.03516 0
M  V30 12842 H 1232.93 -1.62915 -3.51479 0
M  V30 12843 H 1233.34 -3.84213 -3.57044 0
M  V30 12844 H 1234.82 -2.68044 -4.82552 0
M  V30 12845 H 1235.29 -1.08249 -4.25651 0
M  V30 12846 H 1235.9 -2.52975 -3.41883 0
M  V30 12847 N 1234.21 1.05064 -1.1747 0
M  V30 12848 C 1235.62 1.59547 -0.969628 0
M  V30 12849 C 1235.98 1.90153 0.483332 0
M  V30 12850 O 1235.1 1.68415 1.35887 0
M  V30 12851 C 1235.7 2.89877 -1.75377 0
M  V30 12852 C 1234.25 3.41013 -1.59332 0
M  V30 12853 C 1233.4 2.1473 -1.7546 0
M  V30 12854 H 1236.35 0.878595 -1.3216 0
M  V30 12855 H 1236.37 3.59834 -1.23691 0
M  V30 12856 H 1235.89 2.67569 -2.8112 0
M  V30 12857 H 1233.99 3.68355 -0.560827 0
M  V30 12858 H 1234.1 4.15512 -2.38509 0
M  V30 12859 H 1232.46 2.25553 -1.18313 0
M  V30 12860 H 1233.25 1.9489 -2.82618 0
M  V30 12861 N 1235.69 0.975146 1.23809 0
M  V30 12862 C 1236.92 0.658978 1.96125 0
M  V30 12863 C 1237.33 -0.773044 1.72248 0
M  V30 12864 O 1236.69 -1.51956 1.01072 0
M  V30 12865 C 1236.74 0.933355 3.49243 0
M  V30 12866 O 1236.46 2.30909 3.72307 0
M  V30 12867 C 1237.96 0.632408 4.38766 0
M  V30 12868 H 1235.18 0.245237 0.62458 0
M  V30 12869 H 1237.73 1.3051 1.5744 0
M  V30 12870 H 1235.88 0.333323 3.85963 0
M  V30 12871 H 1236.3 2.39476 4.66638 0
M  V30 12872 H 1237.77 0.874791 5.45024 0
M  V30 12873 H 1238.25 -0.433453 4.37056 0
M  V30 12874 H 1238.85 1.21268 4.07645 0
M  V30 12875 N 1237.17 -1.38817 0.746158 0
M  V30 12876 C 1238.58 -1.83045 0.367629 0
M  V30 12877 C 1238.93 -1.62285 -1.10263 0
M  V30 12878 O 1238.06 -1.12001 -1.85162 0
M  V30 12879 C 1238.65 -3.323 0.660482 0
M  V30 12880 C 1237.21 -3.74903 0.335318 0
M  V30 12881 C 1236.36 -2.61683 0.917446 0
M  V30 12882 H 1239.31 -1.27651 0.94291 0
M  V30 12883 H 1239.33 -3.80446 -0.0639061 0
M  V30 12884 H 1238.84 -3.47377 1.73062 0
M  V30 12885 H 1236.94 -3.65408 -0.728538 0
M  V30 12886 H 1237.06 -4.71932 0.825677 0
M  V30 12887 H 1235.42 -2.52376 0.343316 0
M  V30 12888 H 1236.2 -2.79563 1.99247 0
M  V30 12889 N 1238.65 -0.49465 -1.49636 0
M  V30 12890 C 1239.9 0.0539277 -2.01628 0
M  V30 12891 C 1240.21 1.38634 -1.37986 0
M  V30 12892 O 1241.42 2.02123 -1.81269 0
M  V30 12893 C 1239.87 0.146582 -3.59601 0
M  V30 12894 C 1239.48 -1.1788 -4.32213 0
M  V30 12895 C 1241.22 0.645862 -4.19558 0
M  V30 12896 C 1239.13 -1.04866 -5.82028 0
M  V30 12897 H 1238.06 0.0239278 -0.75362 0
M  V30 12898 H 1240.71 -0.633112 -1.72232 0
M  V30 12899 H 1239.09 0.897931 -3.85685 0
M  V30 12900 H 1240.27 -1.94295 -4.17835 0
M  V30 12901 H 1238.58 -1.61102 -3.83973 0
M  V30 12902 H 1241.18 0.76064 -5.29262 0
M  V30 12903 H 1241.52 1.64313 -3.82501 0
M  V30 12904 H 1242.06 -0.04877 -3.9777 0
M  V30 12905 H 1238.79 -2.02 -6.23599 0
M  V30 12906 H 1238.31 -0.325293 -5.98917 0
M  V30 12907 H 1239.99 -0.724799 -6.42927 0
M  V30 12908 N 1240.13 1.55939 -0.228214 0
M  V30 12909 C 1241.35 2.0287 0.406348 0
M  V30 12910 C 1241.77 1.1079 1.52876 0
M  V30 12911 O 1241.13 0.118747 1.82113 0
M  V30 12912 C 1241.18 3.49286 0.931734 0
M  V30 12913 O 1240.9 4.37857 -0.145933 0
M  V30 12914 C 1242.4 4.11893 1.63887 0
M  V30 12915 H 1239.62 0.663696 0.0987358 0
M  V30 12916 H 1242.16 2.01541 -0.346616 0
M  V30 12917 H 1240.32 3.5121 1.63494 0
M  V30 12918 H 1240.73 5.23904 0.250005 0
M  V30 12919 H 1242.21 5.16091 1.95841 0
M  V30 12920 H 1242.68 3.57281 2.55435 0
M  V30 12921 H 1243.29 4.13839 0.980697 0
M  V30 12922 N 1241.6 -0.0451101 1.57535 0
M  V30 12923 C 1242.88 -0.773625 1.79651 0
M  V30 12924 C 1243.26 -1.94422 0.822391 0
M  V30 12925 O 1242.61 -2.28077 -0.138913 0
M  V30 12926 C 1242.82 -1.22168 3.26919 0
M  V30 12927 C 1244.17 -1.64419 3.91474 0
M  V30 12928 O 1245.19 -1.31668 3.30971 0
M  V30 12929 O 1244.05 -2.25148 4.97967 0
M  V30 12930 H 1241.14 -0.372786 0.738214 0
M  V30 12931 H 1243.69 -0.0231245 1.69684 0
M  V30 12932 H 1242.46 -0.385302 3.89398 0
M  V30 12933 H 1242.09 -2.03269 3.41713 0
M  V30 12934 N 1243.08 -1.54377 -0.317073 0
M  V30 12935 C 1244.31 -1.76865 -1.07362 0
M  V30 12936 C 1244.73 -0.520354 -1.81488 0
M  V30 12937 O 1244.08 0.509213 -1.75252 0
M  V30 12938 C 1244.13 -2.96598 -2.06668 0
M  V30 12939 O 1243.85 -4.16602 -1.35552 0
M  V30 12940 C 1245.36 -3.31348 -2.94489 0
M  V30 12941 H 1242.58 -0.590277 -0.319083 0
M  V30 12942 H 1245.12 -2.01284 -0.361227 0
M  V30 12943 H 1243.27 -2.74433 -2.73432 0
M  V30 12944 H 1243.69 -4.83996 -2.02108 0
M  V30 12945 H 1245.16 -4.1841 -3.60051 0
M  V30 12946 H 1245.64 -2.48797 -3.61935 0
M  V30 12947 H 1246.25 -3.55614 -2.33278 0
M  V30 12948 N 1244.56 0.579466 -1.4656 0
M  V30 12949 C 1245.98 0.903163 -1.31587 0
M  V30 12950 C 1246.18 1.99406 -0.28972 0
M  V30 12951 O 1245.23 2.50632 0.30658 0
M  V30 12952 C 1246.55 1.31745 -2.70303 0
M  V30 12953 C 1248.09 1.43012 -2.78418 0
M  V30 12954 C 1248.57 1.87805 -4.17724 0
M  V30 12955 N 1250.06 1.94993 -4.20157 0
M  V30 12956 C 1250.79 2.30934 -5.2484 0
M  V30 12957 N 1250.29 2.65645 -6.39847 0
M  V30 12958 N 1252.08 2.31517 -5.12207 0
M  V30 12959 H 1244.23 -0.141111 -2.11931 0
M  V30 12960 H 1246.5 -0.000460304 -0.948 0
M  V30 12961 H 1246.2 0.589864 -3.46718 0
M  V30 12962 H 1246.08 2.2783 -3.00622 0
M  V30 12963 H 1248.46 2.14856 -2.02289 0
M  V30 12964 H 1248.55 0.451701 -2.5178 0
M  V30 12965 H 1248.19 1.16539 -4.94349 0
M  V30 12966 H 1248.12 2.86611 -4.41771 0
M  V30 12967 H 1250.61 1.70645 -3.37178 0
M  V30 12968 H 1250.92 2.92032 -7.15498 0
M  V30 12969 H 1249.27 2.63276 -6.43204 0
M  V30 12970 H 1252.46 2.03824 -4.21394 0
M  V30 12971 H 1252.63 2.59199 -5.93902 0
M  V30 12972 N 1246.04 1.3432 0.824371 0
M  V30 12973 C 1246.99 1.25776 1.93517 0
M  V30 12974 C 1247.96 0.133298 1.65564 0
M  V30 12975 O 1249.14 0.31403 1.88198 0
M  V30 12976 C 1246.28 1.01766 3.29754 0
M  V30 12977 C 1245.39 2.22973 3.7001 0
M  V30 12978 C 1244.53 1.92258 4.95187 0
M  V30 12979 C 1243.57 3.09616 5.2802 0
M  V30 12980 N 1242.7 2.78793 6.44375 0
M  V30 12981 H 1247.54 2.20774 2.00157 0
M  V30 12982 H 1245.08 1.09766 0.979274 0
M  V30 12983 H 1247.04 0.858831 4.08265 0
M  V30 12984 H 1245.67 0.10437 3.22631 0
M  V30 12985 H 1244.72 2.49781 2.86903 0
M  V30 12986 H 1246.03 3.10661 3.90245 0
M  V30 12987 H 1245.19 1.73102 5.81481 0
M  V30 12988 H 1243.93 1.01827 4.76951 0
M  V30 12989 H 1242.93 3.29368 4.40223 0
M  V30 12990 H 1244.16 4.00822 5.48196 0
M  V30 12991 H 1242.1 1.90938 6.27598 0
M  V30 12992 H 1242.02 3.60014 6.64775 0
M  V30 12993 H 1243.29 2.63139 7.33743 0
M  V30 12994 N 1247.52 -1.0444 1.18026 0
M  V30 12995 C 1248.79 -1.74533 0.883045 0
M  V30 12996 C 1249.17 -2.01944 -0.614975 0
M  V30 12997 O 1248.52 -1.66158 -1.56855 0
M  V30 12998 C 1248.73 -3.0332 1.72621 0
M  V30 12999 C 1250.08 -3.77128 1.9509 0
M  V30 13000 O 1251.1 -3.13209 1.69643 0
M  V30 13001 O 1249.96 -4.92001 2.37903 0
M  V30 13002 H 1247.06 -0.759315 0.327673 0
M  V30 13003 H 1249.6 -1.10539 1.2876 0
M  V30 13004 H 1248.37 -2.79171 2.74188 0
M  V30 13005 H 1248 -3.75052 1.31993 0
M  V30 13006 N 1248.99 -0.981699 -1.2329 0
M  V30 13007 C 1250.24 -0.646818 -1.91048 0
M  V30 13008 C 1250.56 0.823479 -1.77421 0
M  V30 13009 O 1251.76 1.26948 -2.39993 0
M  V30 13010 C 1250.22 -1.1063 -3.42475 0
M  V30 13011 C 1249.83 -2.60103 -3.6476 0
M  V30 13012 C 1251.57 -0.845227 -4.16 0
M  V30 13013 C 1249.48 -2.99712 -5.0983 0
M  V30 13014 H 1248.41 -0.238221 -0.715379 0
M  V30 13015 H 1251.06 -1.18977 -1.39702 0
M  V30 13016 H 1249.44 -0.491554 -3.92937 0
M  V30 13017 H 1250.61 -3.26828 -3.24839 0
M  V30 13018 H 1248.93 -2.83972 -3.04547 0
M  V30 13019 H 1251.53 -1.11699 -5.22903 0
M  V30 13020 H 1251.87 0.218661 -4.15725 0
M  V30 13021 H 1252.4 -1.42162 -3.7153 0
M  V30 13022 H 1249.14 -4.0523 -5.15237 0
M  V30 13023 H 1248.66 -2.37683 -5.50697 0
M  V30 13024 H 1250.34 -2.9039 -5.78172 0
M  V30 13025 N 1250.47 1.3842 -0.753509 0
M  V30 13026 C 1251.42 2.32315 -0.115107 0
M  V30 13027 C 1252.41 1.54015 0.705398 0
M  V30 13028 O 1253.62 1.69546 0.604505 0
M  V30 13029 H 1250 0.751774 -0.0184276 0
M  V30 13030 H 1251.97 2.83763 -0.923094 0
M  V30 13031 C 1250.72 3.39206 0.763849 0
M  V30 13032 H 1250.04 3.99548 0.14187 0
M  V30 13033 H 1251.48 4.07312 1.17783 0
M  V30 13034 C 1249.94 2.77771 1.90643 0
M  V30 13035 O 1250.47 2.67073 3.00058 0
M  V30 13036 N 1248.67 2.35582 1.70145 0
M  V30 13037 H 1248.22 2.44483 0.811528 0
M  V30 13038 H 1248.18 1.9482 2.46764 0
M  V30 13039 N 1251.95 0.502579 1.49372 0
M  V30 13040 C 1253.18 -0.0381429 2.06865 0
M  V30 13041 C 1253.59 -1.30674 1.36271 0
M  V30 13042 O 1252.95 -1.77078 0.441532 0
M  V30 13043 C 1253 -0.294068 3.60302 0
M  V30 13044 O 1252.72 0.924244 4.2824 0
M  V30 13045 C 1254.22 -0.878253 4.34513 0
M  V30 13046 H 1251.44 0.0211756 0.670666 0
M  V30 13047 H 1253.99 0.700387 1.92132 0
M  V30 13048 H 1252.14 -0.982583 3.74732 0
M  V30 13049 H 1252.56 0.688062 5.19967 0
M  V30 13050 H 1254.03 -1.0069 5.42739 0
M  V30 13051 H 1254.51 -1.87643 3.97098 0
M  V30 13052 H 1255.11 -0.227157 4.24693 0
M  V30 13053 N 1253.43 -1.55816 0.23648 0
M  V30 13054 C 1254.67 -1.98981 -0.391725 0
M  V30 13055 C 1255.01 -1.12428 -1.58346 0
M  V30 13056 O 1254.28 -0.185303 -1.93615 0
M  V30 13057 C 1254.57 -3.50831 -0.811759 0
M  V30 13058 C 1254.42 -4.48152 0.384648 0
M  V30 13059 C 1255.74 -4.07489 -1.66254 0
M  V30 13060 H 1252.86 -0.723404 -0.140911 0
M  V30 13061 H 1255.5 -1.87011 0.335706 0
M  V30 13062 H 1253.65 -3.61162 -1.43157 0
M  V30 13063 H 1255.32 -4.49814 1.02298 0
M  V30 13064 H 1253.56 -4.21406 1.02955 0
M  V30 13065 H 1254.23 -5.51979 0.0475809 0
M  V30 13066 H 1256.71 -4.00195 -1.13944 0
M  V30 13067 H 1255.59 -5.14026 -1.92531 0
M  V30 13068 H 1255.85 -3.55297 -2.6309 0
M  V30 13069 N 1254.91 0.036755 -1.57557 0
M  V30 13070 C 1256.13 0.741086 -1.93172 0
M  V30 13071 C 1256.55 1.69303 -0.835589 0
M  V30 13072 O 1255.91 1.81523 0.1886 0
M  V30 13073 C 1255.96 1.50477 -3.28693 0
M  V30 13074 O 1255.68 0.591046 -4.34095 0
M  V30 13075 C 1257.18 2.30695 -3.78543 0
M  V30 13076 H 1254.4 0.208731 -0.637709 0
M  V30 13077 H 1256.94 -0.00342776 -2.045 0
M  V30 13078 H 1255.1 2.20123 -3.18786 0
M  V30 13079 H 1255.51 1.12579 -5.12276 0
M  V30 13080 H 1256.99 2.79685 -4.759 0
M  V30 13081 H 1257.46 3.11778 -3.0934 0
M  V30 13082 H 1258.07 1.66138 -3.91508 0
M  V30 13083 N 1256.39 1.54543 0.308881 0
M  V30 13084 C 1257.61 1.77431 1.06422 0
M  V30 13085 C 1258.03 0.529972 1.81209 0
M  V30 13086 O 1257.39 -0.499912 1.7552 0
M  V30 13087 C 1257.44 2.9769 2.05092 0
M  V30 13088 O 1257.16 4.17315 1.33341 0
M  V30 13089 C 1258.66 3.32905 2.92727 0
M  V30 13090 H 1255.88 0.591961 0.315948 0
M  V30 13091 H 1258.42 2.01473 0.350547 0
M  V30 13092 H 1256.58 2.7588 2.71973 0
M  V30 13093 H 1256.99 4.85061 1.99539 0
M  V30 13094 H 1258.47 4.20314 3.57827 0
M  V30 13095 H 1258.94 2.50713 3.6061 0
M  V30 13096 H 1259.55 3.56847 2.31388 0
M  V30 13097 N 1257.86 -0.571685 1.46866 0
M  V30 13098 C 1259.11 -1.33145 1.52972 0
M  V30 13099 C 1259.44 -1.93314 0.185344 0
M  V30 13100 O 1258.72 -1.77083 -0.80447 0
M  V30 13101 C 1259 -2.4525 2.63675 0
M  V30 13102 C 1258.85 -1.90044 4.0768 0
M  V30 13103 C 1260.17 -3.47247 2.70384 0
M  V30 13104 H 1257.29 -0.482751 0.556885 0
M  V30 13105 H 1259.93 -0.641163 1.78855 0
M  V30 13106 H 1258.08 -3.04132 2.41735 0
M  V30 13107 H 1259.76 -1.35535 4.4094 0
M  V30 13108 H 1258 -1.20805 4.1664 0
M  V30 13109 H 1258.67 -2.71019 4.80887 0
M  V30 13110 H 1261.15 -2.98263 2.90135 0
M  V30 13111 H 1260.02 -4.23132 3.49643 0
M  V30 13112 H 1260.28 -4.05179 1.76868 0
M  V30 13113 N 1259.34 -1.34755 -0.817236 0
M  V30 13114 C 1260.3 -1.26687 -1.91006 0
M  V30 13115 C 1261.3 -0.180745 -1.59781 0
M  V30 13116 O 1262.49 -0.433748 -1.68714 0
M  V30 13117 C 1259.63 -0.957293 -3.27183 0
M  V30 13118 H 1260.82 -2.23846 -1.99582 0
M  V30 13119 H 1258.37 -1.19125 -1.01187 0
M  V30 13120 H 1259.11 0.0108917 -3.24298 0
M  V30 13121 H 1258.89 -1.74297 -3.5123 0
M  V30 13122 H 1260.38 -0.926161 -4.072 0
M  V30 13123 N 1260.82 1.03812 -1.18578 0
M  V30 13124 C 1261.75 2.11928 -0.872871 0
M  V30 13125 C 1262.76 1.62275 0.130592 0
M  V30 13126 O 1263.95 1.78233 -0.0975869 0
M  V30 13127 C 1261.05 3.37714 -0.283321 0
M  V30 13128 C 1260.23 4.16591 -1.33307 0
M  V30 13129 C 1259.29 5.20701 -0.758746 0
M  V30 13130 O 1258.31 5.50837 -1.43412 0
M  V30 13131 N 1259.51 5.78811 0.442505 0
M  V30 13132 H 1262.28 2.39364 -1.80346 0
M  V30 13133 H 1259.84 1.20027 -1.08652 0
M  V30 13134 H 1261.83 4.04538 0.114524 0
M  V30 13135 H 1260.4 3.07699 0.551347 0
M  V30 13136 H 1259.62 3.45051 -1.90613 0
M  V30 13137 H 1260.91 4.66082 -2.04071 0
M  V30 13138 H 1260.31 5.56631 1.00889 0
M  V30 13139 H 1258.86 6.47089 0.78224 0
M  V30 13140 N 1262.3 0.988223 1.22768 0
M  V30 13141 C 1263.52 0.679426 1.95955 0
M  V30 13142 C 1263.95 -0.748483 1.72567 0
M  V30 13143 O 1263.31 -1.51097 1.00197 0
M  V30 13144 C 1263.35 0.985284 3.46878 0
M  V30 13145 O 1262.46 0.0814607 4.1232 0
M  V30 13146 H 1261.8 0.254749 0.613188 0
M  V30 13147 H 1264.33 1.32393 1.55991 0
M  V30 13148 H 1264.34 0.925198 3.97371 0
M  V30 13149 H 1263.01 2.02581 3.63227 0
M  V30 13150 H 1261.59 0.196629 3.72381 0
M  V30 13151 N 1263.78 -1.38018 0.760839 0
M  V30 13152 C 1265.19 -1.53437 0.439239 0
M  V30 13153 C 1265.39 -1.72184 -1.04666 0
M  V30 13154 O 1264.45 -1.73698 -1.83263 0
M  V30 13155 C 1265.76 -2.73724 1.24481 0
M  V30 13156 C 1267.31 -2.87579 1.23561 0
M  V30 13157 C 1267.78 -4.10836 2.02429 0
M  V30 13158 N 1269.27 -4.17928 1.99727 0
M  V30 13159 C 1270.01 -5.12309 2.57541 0
M  V30 13160 N 1269.51 -6.12317 3.24098 0
M  V30 13161 N 1271.3 -5.04712 2.47431 0
M  V30 13162 H 1263.45 -1.241 1.72375 0
M  V30 13163 H 1265.71 -0.603427 0.73115 0
M  V30 13164 H 1265.42 -2.663 2.29732 0
M  V30 13165 H 1265.29 -3.67111 0.866579 0
M  V30 13166 H 1267.68 -2.9448 0.191122 0
M  V30 13167 H 1267.76 -1.95183 1.6534 0
M  V30 13168 H 1267.4 -4.04696 3.06893 0
M  V30 13169 H 1267.33 -5.02326 1.58039 0
M  V30 13170 H 1269.83 -3.46307 1.51262 0
M  V30 13171 H 1270.14 -6.80842 3.65615 0
M  V30 13172 H 1268.48 -6.12628 3.28195 0
M  V30 13173 H 1271.67 -4.25524 1.95057 0
M  V30 13174 H 1271.85 -5.78085 2.92783 0
M  V30 13175 N 1265.25 -0.510493 -1.49103 0
M  V30 13176 C 1266.67 -0.167061 -1.58723 0
M  V30 13177 C 1266.87 1.32886 -1.51471 0
M  V30 13178 O 1265.93 2.10559 -1.39359 0
M  V30 13179 C 1267.24 -0.752293 -2.91137 0
M  V30 13180 C 1268.79 -0.719258 -3.04624 0
M  V30 13181 C 1269.26 -1.28272 -4.39671 0
M  V30 13182 N 1270.75 -1.24383 -4.46187 0
M  V30 13183 C 1271.49 -1.6499 -5.4915 0
M  V30 13184 N 1270.98 -2.13235 -6.59168 0
M  V30 13185 N 1272.78 -1.56348 -5.39918 0
M  V30 13186 H 1264.93 -1.48296 -1.5206 0
M  V30 13187 H 1267.19 -0.615683 -0.72086 0
M  V30 13188 H 1266.9 -1.80178 -3.02041 0
M  V30 13189 H 1266.77 -0.218152 -3.76569 0
M  V30 13190 H 1269.16 0.321413 -2.93344 0
M  V30 13191 H 1269.24 -1.29065 -2.20852 0
M  V30 13192 H 1268.88 -2.32222 -4.51703 0
M  V30 13193 H 1268.81 -0.687179 -5.22097 0
M  V30 13194 H 1271.3 -0.890446 -3.67259 0
M  V30 13195 H 1271.62 -2.42266 -7.33844 0
M  V30 13196 H 1269.96 -2.17216 -6.60183 0
M  V30 13197 H 1273.15 -1.18469 -4.52861 0
M  V30 13198 H 1273.33 -1.88317 -6.20033 0
M  V30 13199 N 1266.73 1.55688 -0.24474 0
M  V30 13200 C 1268.15 1.59219 0.110159 0
M  V30 13201 C 1268.35 1.26187 1.57096 0
M  V30 13202 O 1267.4 1.00815 2.31501 0
M  V30 13203 C 1268.72 2.99764 -0.237075 0
M  V30 13204 C 1270.26 3.12475 -0.181198 0
M  V30 13205 C 1270.74 4.55236 -0.502435 0
M  V30 13206 N 1272.23 4.60981 -0.452855 0
M  V30 13207 C 1272.97 5.69418 -0.674605 0
M  V30 13208 N 1272.46 6.86125 -0.959366 0
M  V30 13209 N 1274.25 5.5883 -0.605459 0
M  V30 13210 H 1266.41 1.7543 -1.19741 0
M  V30 13211 H 1268.67 0.816537 -0.481634 0
M  V30 13212 H 1268.37 3.28666 -1.25185 0
M  V30 13213 H 1268.25 3.74662 0.436859 0
M  V30 13214 H 1270.64 2.83355 0.824248 0
M  V30 13215 H 1270.72 2.39857 -0.888952 0
M  V30 13216 H 1270.36 4.85077 -1.50543 0
M  V30 13217 H 1270.29 5.26111 0.226773 0
M  V30 13218 H 1272.78 3.77128 -0.241401 0
M  V30 13219 H 1273.09 7.64699 -1.11605 0
M  V30 13220 H 1271.44 6.87814 -0.996816 0
M  V30 13221 H 1274.63 4.6653 -0.383053 0
M  V30 13222 H 1274.8 6.43268 -0.781673 0
M  V30 13223 N 1268.21 -0.0283989 1.57574 0
M  V30 13224 C 1269.46 -0.717656 1.88929 0
M  V30 13225 C 1269.78 -1.7586 0.842517 0
M  V30 13226 O 1269.05 -1.95509 -0.123774 0
M  V30 13227 H 1267.63 -0.268051 0.69725 0
M  V30 13228 H 1270.29 0.00580691 1.94899 0
M  V30 13229 H 1269.39 -1.2068 2.87824 0
M  V30 13230 N 1269.69 -1.54705 -0.300681 0
M  V30 13231 C 1270.96 -1.6468 -1.05546 0
M  V30 13232 C 1271.34 -0.495292 -2.05207 0
M  V30 13233 O 1270.69 0.507944 -2.22783 0
M  V30 13234 C 1270.9 -3.02702 -1.73703 0
M  V30 13235 C 1272.25 -3.59527 -2.25888 0
M  V30 13236 O 1273.27 -3.05156 -1.83735 0
M  V30 13237 O 1272.13 -4.54727 -3.03126 0
M  V30 13238 H 1269.23 -0.667769 -0.487867 0
M  V30 13239 H 1271.77 -1.6705 -0.298743 0
M  V30 13240 H 1270.55 -3.7795 -1.01338 0
M  V30 13241 H 1270.17 -3.0411 -2.5613 0
M  V30 13242 N 1271.17 0.563888 -1.47167 0
M  V30 13243 C 1272.1 1.68689 -1.53685 0
M  V30 13244 C 1273.08 1.57866 -0.389486 0
M  V30 13245 O 1274.26 1.78819 -0.596336 0
M  V30 13246 C 1271.39 3.06887 -1.43311 0
M  V30 13247 C 1270.43 3.36175 -2.62466 0
M  V30 13248 S 1271.27 3.26166 -4.24707 0
M  V30 13249 C 1272.42 4.66868 -4.16875 0
M  V30 13250 H 1272.66 1.62905 -2.48695 0
M  V30 13251 H 1270.19 0.74417 -1.35283 0
M  V30 13252 H 1272.15 3.86604 -1.38014 0
M  V30 13253 H 1270.81 3.10144 -0.496971 0
M  V30 13254 H 1270 4.36907 -2.51253 0
M  V30 13255 H 1269.6 2.64064 -2.64852 0
M  V30 13256 H 1271.9 5.57673 -3.84717 0
M  V30 13257 H 1272.84 4.83139 -5.1767 0
M  V30 13258 H 1273.25 4.44601 -3.47836 0
M  V30 13259 N 1272.64 1.35187 0.810078 0
M  V30 13260 C 1273.87 1.31528 1.60359 0
M  V30 13261 C 1274.29 -0.105385 1.87805 0
M  V30 13262 O 1273.65 -1.07113 1.46276 0
M  V30 13263 C 1273.7 2.12429 2.91386 0
M  V30 13264 O 1272.8 1.50262 3.84051 0
M  V30 13265 H 1272.15 0.451122 0.487222 0
M  V30 13266 H 1274.68 1.78178 1.00568 0
M  V30 13267 H 1274.69 2.24257 3.40841 0
M  V30 13268 H 1273.36 3.15714 2.70735 0
M  V30 13269 H 1271.94 1.47253 3.42594 0
M  V30 13270 N 1274.12 -1.03182 1.19127 0
M  V30 13271 C 1275.35 -1.80165 1.01726 0
M  V30 13272 C 1275.77 -1.83742 -0.434095 0
M  V30 13273 O 1275.12 -1.27932 -1.30152 0
M  V30 13274 C 1275.17 -3.25354 1.57566 0
M  V30 13275 O 1274.89 -3.22042 2.9702 0
M  V30 13276 C 1276.4 -4.18948 1.44906 0
M  V30 13277 H 1273.62 -0.567078 0.358698 0
M  V30 13278 H 1276.16 -1.29982 1.57877 0
M  V30 13279 H 1274.31 -3.72738 1.0557 0
M  V30 13280 H 1274.73 -4.13061 3.23235 0
M  V30 13281 H 1276.2 -5.18723 1.88762 0
M  V30 13282 H 1276.68 -4.37383 0.399125 0
M  V30 13283 H 1277.29 -3.77435 1.96018 0
M  V30 13284 N 1275.6 -0.99472 -1.22242 0
M  V30 13285 C 1276.53 -0.566499 -2.26524 0
M  V30 13286 C 1277.51 0.407541 -1.65146 0
M  V30 13287 O 1278.7 0.297777 -1.91903 0
M  V30 13288 C 1275.83 0.11786 -3.471 0
M  V30 13289 C 1274.78 -0.774908 -4.20927 0
M  V30 13290 C 1274.11 0.0424687 -5.34683 0
M  V30 13291 C 1275.41 -2.07263 -4.79416 0
M  V30 13292 H 1277.1 -1.43818 -2.62596 0
M  V30 13293 H 1274.65 -0.692971 -1.2623 0
M  V30 13294 H 1276.6 0.428842 -4.19212 0
M  V30 13295 H 1275.32 1.0241 -3.10129 0
M  V30 13296 H 1273.98 -1.06956 -3.50651 0
M  V30 13297 H 1273.63 0.949677 -4.93954 0
M  V30 13298 H 1273.33 -0.551867 -5.85003 0
M  V30 13299 H 1274.85 0.347504 -6.0961 0
M  V30 13300 H 1276.27 -1.82548 -5.4346 0
M  V30 13301 H 1274.67 -2.61594 -5.40082 0
M  V30 13302 H 1275.74 -2.75017 -3.99366 0
M  V30 13303 N 1277.08 1.37613 -0.768148 0
M  V30 13304 C 1278.03 2.3218 -0.13974 0
M  V30 13305 C 1279.02 1.54754 0.689023 0
M  V30 13306 O 1280.23 1.70177 0.586489 0
M  V30 13307 H 1276.6 0.751536 -0.0264001 0
M  V30 13308 H 1278.57 2.82768 -0.953139 0
M  V30 13309 C 1277.32 3.39997 0.727829 0
M  V30 13310 H 1276.64 3.99676 0.0994851 0
M  V30 13311 H 1278.08 4.08538 1.13456 0
M  V30 13312 C 1276.54 2.79778 1.87686 0
M  V30 13313 O 1277.07 2.70241 2.97208 0
M  V30 13314 N 1275.28 2.37373 1.67637 0
M  V30 13315 H 1274.83 2.4533 0.785552 0
M  V30 13316 H 1274.78 1.97426 2.44684 0
M  V30 13317 N 1278.56 0.518393 1.4883 0
M  V30 13318 C 1279.78 -0.0162 2.06894 0
M  V30 13319 C 1280.2 -1.29222 1.37649 0
M  V30 13320 O 1279.56 -1.766 0.460288 0
M  V30 13321 C 1279.61 -0.255836 3.60594 0
M  V30 13322 O 1279.33 0.969612 4.27235 0
M  V30 13323 C 1280.83 -0.832117 4.3542 0
M  V30 13324 H 1278.05 0.0282877 0.670403 0
M  V30 13325 H 1280.59 0.720726 1.91379 0
M  V30 13326 H 1278.75 -0.942782 3.75753 0
M  V30 13327 H 1279.16 0.743172 5.19208 0
M  V30 13328 H 1280.64 -0.949279 5.43776 0
M  V30 13329 H 1281.11 -1.83421 3.99066 0
M  V30 13330 H 1281.72 -0.1821 4.2491 0
M  V30 13331 N 1280.03 -1.55556 0.252993 0
M  V30 13332 C 1280.98 -2.18298 -0.658028 0
M  V30 13333 C 1281.97 -1.14072 -1.13474 0
M  V30 13334 O 1283.16 -1.39962 -1.0835 0
M  V30 13335 C 1280.29 -2.89067 -1.8519 0
M  V30 13336 C 1279.38 -4.00556 -1.3934 0
M  V30 13337 N 1279.77 -5.01612 -0.649538 0
M  V30 13338 C 1278.06 -4.13222 -1.67819 0
M  V30 13339 C 1278.77 -5.80244 -0.411347 0
M  V30 13340 N 1277.74 -5.34742 -0.977342 0
M  V30 13341 H 1281.54 -2.93787 -0.0816162 0
M  V30 13342 H 1279.06 -1.62305 0.0555728 0
M  V30 13343 H 1281.05 -3.32448 -2.51563 0
M  V30 13344 H 1279.71 -2.15082 -2.43248 0
M  V30 13345 H 1280.73 -5.17036 -0.299043 0
M  V30 13346 H 1277.4 -3.50414 -2.26972 0
M  V30 13347 H 1278.79 -6.71651 0.182911 0
M  V30 13348 N 1281.51 0.0200419 -1.57587 0
M  V30 13349 C 1282.76 0.707627 -1.89307 0
M  V30 13350 C 1283.08 1.7541 -0.851831 0
M  V30 13351 O 1282.35 1.95571 0.113404 0
M  V30 13352 H 1280.93 0.264349 -0.698662 0
M  V30 13353 H 1283.59 -0.0161428 -1.94893 0
M  V30 13354 H 1282.69 1.19152 -2.8846 0
M  V30 13355 N 1282.99 1.54862 0.292472 0
M  V30 13356 C 1283.95 1.8565 1.34413 0
M  V30 13357 C 1284.95 0.729868 1.43281 0
M  V30 13358 O 1286.14 0.998128 1.42769 0
M  V30 13359 C 1283.28 2.0444 2.72795 0
M  V30 13360 H 1284.47 2.79642 1.08354 0
M  V30 13361 H 1282.02 1.47055 0.529574 0
M  V30 13362 H 1282.76 1.12765 3.04063 0
M  V30 13363 H 1282.54 2.86451 2.67747 0
M  V30 13364 H 1284.03 2.296 3.48817 0
M  V30 13365 N 1284.47 -0.556076 1.47464 0
M  V30 13366 C 1285.72 -1.3132 1.54147 0
M  V30 13367 C 1286.04 -1.93425 0.204221 0
M  V30 13368 O 1285.3 -1.78467 -0.803002 0
M  V30 13369 C 1285.6 -2.44298 2.6087 0
M  V30 13370 C 1285.26 -2.00016 4.04109 0
M  V30 13371 C 1283.93 -1.87656 4.43101 0
M  V30 13372 C 1286.28 -1.66228 4.93981 0
M  V30 13373 C 1283.61 -1.39805 5.698 0
M  V30 13374 C 1285.96 -1.19848 6.21144 0
M  V30 13375 C 1284.62 -1.06084 6.59016 0
M  V30 13376 H 1283.89 -0.480534 0.564064 0
M  V30 13377 H 1286.54 -0.623449 1.81067 0
M  V30 13378 H 1284.84 -3.18834 2.27711 0
M  V30 13379 H 1286.54 -3.02479 2.63263 0
M  V30 13380 H 1283.13 -2.1058 3.73302 0
M  V30 13381 H 1287.31 -1.7465 4.64555 0
M  V30 13382 H 1282.57 -1.27814 5.97891 0
M  V30 13383 H 1286.74 -0.927657 6.90194 0
M  V30 13384 H 1284.37 -0.687834 7.57082 0
M  V30 13385 N 1285.95 -1.35615 -0.802897 0
M  V30 13386 C 1287.2 -1.28839 -1.55708 0
M  V30 13387 C 1287.52 0.135906 -1.94526 0
M  V30 13388 O 1286.79 1.07317 -1.6389 0
M  V30 13389 H 1285.37 -0.473906 -0.577427 0
M  V30 13390 H 1288.03 -1.69759 -0.957487 0
M  V30 13391 H 1287.12 -1.90675 -2.47082 0
M  V30 13392 N 1287.43 1.02549 -1.19673 0
M  V30 13393 C 1288.36 2.10991 -0.8953 0
M  V30 13394 C 1289.37 1.62405 0.113373 0
M  V30 13395 O 1290.56 1.7812 -0.116485 0
M  V30 13396 C 1287.66 3.37394 -0.319124 0
M  V30 13397 C 1286.83 4.15154 -1.37718 0
M  V30 13398 C 1285.89 5.19867 -0.81393 0
M  V30 13399 O 1284.92 5.49285 -1.49246 0
M  V30 13400 N 1286.12 5.79248 0.381089 0
M  V30 13401 H 1288.88 2.37438 -1.82875 0
M  V30 13402 H 1286.45 1.18867 -1.09919 0
M  V30 13403 H 1288.44 4.04637 0.0716106 0
M  V30 13404 H 1287.01 3.08267 0.518681 0
M  V30 13405 H 1286.23 3.4301 -1.94262 0
M  V30 13406 H 1287.52 4.63892 -2.09003 0
M  V30 13407 H 1286.91 5.5767 0.949791 0
M  V30 13408 H 1285.47 6.47882 0.713563 0
M  V30 13409 N 1288.9 1.00119 1.21713 0
M  V30 13410 C 1289.84 0.516633 2.23301 0
M  V30 13411 C 1290.85 -0.392732 1.57992 0
M  V30 13412 O 1292.04 -0.19354 1.77448 0
M  V30 13413 C 1289.14 -0.269612 3.37826 0
M  V30 13414 C 1288.31 0.637898 4.32723 0
M  V30 13415 C 1287.37 -0.0980745 5.26109 0
M  V30 13416 O 1286.4 0.519302 5.66826 0
M  V30 13417 N 1287.6 -1.37783 5.63911 0
M  V30 13418 H 1290.36 1.39022 2.65505 0
M  V30 13419 H 1287.92 0.87688 1.36097 0
M  V30 13420 H 1289.92 -0.770826 3.97291 0
M  V30 13421 H 1288.49 -1.04436 2.94638 0
M  V30 13422 H 1287.71 1.31966 3.71455 0
M  V30 13423 H 1288.99 1.25564 4.93063 0
M  V30 13424 H 1288.39 -1.90061 5.32817 0
M  V30 13425 H 1286.95 -1.82407 6.25756 0
M  V30 13426 N 1290.38 -1.37203 0.775435 0
M  V30 13427 C 1291.61 -2.04396 0.351737 0
M  V30 13428 C 1292.03 -1.58099 -1.01913 0
M  V30 13429 O 1291.39 -0.742932 -1.65379 0
M  V30 13430 C 1291.44 -3.58283 0.408105 0
M  V30 13431 O 1290.54 -4.08156 -0.590104 0
M  V30 13432 H 1289.88 -0.646451 0.151647 0
M  V30 13433 H 1292.41 -1.75443 1.05265 0
M  V30 13434 H 1292.42 -4.07127 0.266711 0
M  V30 13435 H 1291.1 -3.91335 1.40819 0
M  V30 13436 H 1289.67 -3.70622 -0.411524 0
M  V30 13437 N 1291.86 -0.526279 -1.48553 0
M  V30 13438 C 1293.11 0.00914839 -2.02098 0
M  V30 13439 C 1293.43 1.35119 -1.40598 0
M  V30 13440 O 1292.7 1.87422 -0.570065 0
M  V30 13441 H 1291.28 0.00636935 -0.746973 0
M  V30 13442 H 1293.94 -0.689269 -1.82305 0
M  V30 13443 H 1293.04 0.120212 -3.11868 0
M  V30 13444 N 1293.34 1.5542 -0.261239 0
M  V30 13445 C 1294.3 2.20683 0.619011 0
M  V30 13446 C 1295.3 1.18042 1.09192 0
M  V30 13447 O 1296.49 1.43035 0.99432 0
M  V30 13448 C 1293.62 2.86179 1.85242 0
M  V30 13449 H 1294.82 2.99859 0.0493924 0
M  V30 13450 H 1292.37 1.56296 -0.0117687 0
M  V30 13451 H 1293.1 2.10978 2.4629 0
M  V30 13452 H 1292.89 3.61381 1.52138 0
M  V30 13453 H 1294.38 3.36081 2.47869 0
M  V30 13454 N 1294.82 -0.0116844 1.57596 0
M  V30 13455 C 1296.06 -0.699994 1.90336 0
M  V30 13456 C 1296.39 -1.74067 0.861072 0
M  V30 13457 O 1295.67 -1.94119 -0.121712 0
M  V30 13458 C 1295.95 -1.35377 3.33684 0
M  V30 13459 C 1295.81 -0.325434 4.48621 0
M  V30 13460 C 1297.12 -2.28312 3.76247 0
M  V30 13461 H 1294.24 -0.253002 0.692213 0
M  V30 13462 H 1296.89 0.037211 1.89964 0
M  V30 13463 H 1295.04 -1.98212 3.34132 0
M  V30 13464 H 1296.71 0.302331 4.60308 0
M  V30 13465 H 1294.95 0.353527 4.32357 0
M  V30 13466 H 1295.62 -0.8217 5.4585 0
M  V30 13467 H 1298.1 -1.75505 3.77276 0
M  V30 13468 H 1296.97 -2.71028 4.77321 0
M  V30 13469 H 1297.23 -3.15727 3.09465 0
M  V30 13470 N 1296.29 -1.55015 -0.284256 0
M  V30 13471 C 1297.52 -1.78842 -1.03436 0
M  V30 13472 C 1297.93 -0.556301 -1.80837 0
M  V30 13473 O 1297.27 0.483895 -1.77212 0
M  V30 13474 C 1297.34 -2.95412 -2.04871 0
M  V30 13475 C 1297 -4.32878 -1.46512 0
M  V30 13476 C 1298 -5.12286 -0.886535 0
M  V30 13477 C 1295.68 -4.79514 -1.49571 0
M  V30 13478 C 1297.68 -6.36459 -0.346305 0
M  V30 13479 C 1295.36 -6.03645 -0.951613 0
M  V30 13480 C 1296.36 -6.81954 -0.3779 0
M  V30 13481 O 1296.05 -8.03745 0.157894 0
M  V30 13482 H 1295.78 -0.599809 -0.311778 0
M  V30 13483 H 1298.34 -2.0283 -0.323909 0
M  V30 13484 H 1296.57 -2.67089 -2.79644 0
M  V30 13485 H 1298.25 -3.06663 -2.65918 0
M  V30 13486 H 1299.02 -4.77392 -0.855682 0
M  V30 13487 H 1294.9 -4.18579 -1.93165 0
M  V30 13488 H 1298.44 -6.97525 0.102141 0
M  V30 13489 H 1294.34 -6.38023 -0.979669 0
M  V30 13490 H 1295.11 -8.18487 0.046182 0
M  V30 13491 N 1297.77 0.548248 -1.47757 0
M  V30 13492 C 1299.02 1.30694 -1.55071 0
M  V30 13493 C 1299.35 1.92994 -0.216075 0
M  V30 13494 O 1298.63 1.78341 0.776196 0
M  V30 13495 C 1298.91 2.41024 -2.67543 0
M  V30 13496 C 1298.76 1.83534 -4.10652 0
M  V30 13497 C 1300.08 3.42902 -2.75874 0
M  V30 13498 H 1297.2 0.47383 -0.564494 0
M  V30 13499 H 1299.84 0.612628 -1.79852 0
M  V30 13500 H 1297.99 3.00248 -2.46543 0
M  V30 13501 H 1299.66 1.28503 -4.4304 0
M  V30 13502 H 1297.91 1.14161 -4.18509 0
M  V30 13503 H 1298.58 2.63335 -4.85138 0
M  V30 13504 H 1301.05 2.9361 -2.94843 0
M  V30 13505 H 1299.93 4.17516 -3.5633 0
M  V30 13506 H 1300.19 4.02314 -1.83291 0
M  V30 13507 N 1299.25 1.36039 0.795694 0
M  V30 13508 C 1300.5 1.29663 1.55023 0
M  V30 13509 C 1300.82 -0.125588 1.94595 0
M  V30 13510 O 1300.09 -1.06447 1.64456 0
M  V30 13511 H 1298.67 0.476962 0.574906 0
M  V30 13512 H 1301.33 1.70265 0.948471 0
M  V30 13513 H 1300.43 1.91982 2.46068 0
M  V30 13514 N 1300.73 -1.01913 1.20215 0
M  V30 13515 C 1301.68 -2.12516 0.945493 0
M  V30 13516 C 1302.67 -1.69091 -0.102243 0
M  V30 13517 O 1303.88 -1.79936 0.047888 0
M  V30 13518 H 1300.25 -0.694496 0.288409 0
M  V30 13519 H 1302.22 -2.31349 1.88468 0
M  V30 13520 C 1300.97 -3.43919 0.51137 0
M  V30 13521 H 1300.29 -3.77758 1.30916 0
M  V30 13522 H 1301.73 -4.22374 0.370981 0
M  V30 13523 C 1300.19 -3.27844 -0.775902 0
M  V30 13524 O 1300.72 -3.5734 -1.83496 0
M  V30 13525 N 1298.93 -2.81101 -0.73694 0
M  V30 13526 H 1298.48 -2.57296 0.125164 0
M  V30 13527 H 1298.43 -2.70726 -1.59859 0
M  V30 13528 N 1302.21 -1.00763 -1.2118 0
M  V30 13529 C 1303.44 -0.709715 -1.94027 0
M  V30 13530 C 1303.84 0.732135 -1.7446 0
M  V30 13531 O 1303.19 1.50731 -1.05004 0
M  V30 13532 C 1303.25 -0.95427 -3.46603 0
M  V30 13533 C 1302.91 -2.38347 -3.89923 0
M  V30 13534 C 1303.91 -3.36383 -3.96412 0
M  V30 13535 C 1301.6 -2.72183 -4.22163 0
M  V30 13536 C 1303.59 -4.66321 -4.34538 0
M  V30 13537 C 1301.28 -4.02336 -4.59966 0
M  V30 13538 C 1302.27 -4.99216 -4.66125 0
M  V30 13539 O 1301.96 -6.27041 -5.03065 0
M  V30 13540 H 1301.69 -0.260545 -0.623773 0
M  V30 13541 H 1304.25 -1.34922 -1.54872 0
M  V30 13542 H 1302.48 -0.257599 -3.85841 0
M  V30 13543 H 1304.17 -0.649333 -4.00673 0
M  V30 13544 H 1304.93 -3.11578 -3.71677 0
M  V30 13545 H 1300.81 -1.97468 -4.16566 0
M  V30 13546 H 1304.36 -5.41938 -4.3926 0
M  V30 13547 H 1300.25 -4.26924 -4.84155 0
M  V30 13548 H 1301.02 -6.31196 -5.21089 0
M  V30 13549 N 1303.68 1.3679 -0.7827 0
M  V30 13550 C 1305.1 1.52719 -0.463594 0
M  V30 13551 C 1305.3 1.73827 1.01914 0
M  V30 13552 O 1304.36 1.76591 1.80477 0
M  V30 13553 C 1305.67 2.71709 -1.2882 0
M  V30 13554 C 1307.22 2.85577 -1.2812 0
M  V30 13555 C 1307.69 4.07564 -2.0894 0
M  V30 13556 N 1309.18 4.14697 -2.0635 0
M  V30 13557 C 1309.92 5.08147 -2.65659 0
M  V30 13558 N 1309.41 6.07083 -3.33799 0
M  V30 13559 N 1311.21 5.00712 -2.55429 0
M  V30 13560 H 1303.36 1.21342 -1.74327 0
M  V30 13561 H 1305.62 0.591719 -0.740657 0
M  V30 13562 H 1305.33 2.62612 -2.3394 0
M  V30 13563 H 1305.2 3.65686 -0.924873 0
M  V30 13564 H 1307.59 2.94139 -0.237947 0
M  V30 13565 H 1307.67 1.92528 -1.68424 0
M  V30 13566 H 1307.31 3.99763 -3.13293 0
M  V30 13567 H 1307.24 4.99748 -1.66011 0
M  V30 13568 H 1309.73 3.43856 -1.56752 0
M  V30 13569 H 1310.05 6.74939 -3.764 0
M  V30 13570 H 1308.39 6.07329 -3.379 0
M  V30 13571 H 1311.58 4.22367 -2.01802 0
M  V30 13572 H 1311.76 5.73354 -3.01943 0
M  V30 13573 N 1305.16 0.53415 1.48272 0
M  V30 13574 C 1306.41 0.00157492 2.028 0
M  V30 13575 C 1306.74 -1.33538 1.41001 0
M  V30 13576 O 1306.02 -1.86347 0.557245 0
M  V30 13577 C 1306.3 -0.116016 3.59913 0
M  V30 13578 C 1306.15 1.2464 4.32186 0
M  V30 13579 C 1307.47 -0.840775 4.31994 0
M  V30 13580 H 1304.59 0.00204634 0.736997 0
M  V30 13581 H 1307.23 0.691985 1.76951 0
M  V30 13582 H 1305.38 -0.704027 3.82068 0
M  V30 13583 H 1307.05 1.87584 4.21438 0
M  V30 13584 H 1305.3 1.8272 3.93441 0
M  V30 13585 H 1305.97 1.11708 5.40579 0
M  V30 13586 H 1308.44 -0.341746 4.14694 0
M  V30 13587 H 1307.32 -0.89196 5.41604 0
M  V30 13588 H 1307.58 -1.89197 3.99571 0
M  V30 13589 N 1306.64 -1.55279 0.269478 0
M  V30 13590 C 1307.89 -1.98649 -0.349522 0
M  V30 13591 C 1308.2 -1.16125 -1.57399 0
M  V30 13592 O 1309.41 -1.49612 -2.26558 0
M  V30 13593 C 1307.86 -3.53547 -0.673224 0
M  V30 13594 C 1307.47 -4.44841 0.531119 0
M  V30 13595 C 1309.22 -4.05519 -1.25516 0
M  V30 13596 C 1307.12 -5.91119 0.182317 0
M  V30 13597 H 1306.05 -0.74193 -0.13437 0
M  V30 13598 H 1308.7 -1.79664 0.373246 0
M  V30 13599 H 1307.09 -3.68311 -1.45474 0
M  V30 13600 H 1308.26 -4.41843 1.3081 0
M  V30 13601 H 1306.58 -4.03472 1.02952 0
M  V30 13602 H 1309.17 -5.12347 -1.52984 0
M  V30 13603 H 1309.52 -3.54215 -2.18718 0
M  V30 13604 H 1310.05 -3.94172 -0.536059 0
M  V30 13605 H 1306.79 -6.46507 1.08206 0
M  V30 13606 H 1306.31 -5.97199 -0.558008 0
M  V30 13607 H 1307.99 -6.466 -0.227484 0
M  V30 13608 N 1308.12 0.00332656 -1.576 0
M  V30 13609 C 1309.07 1.01406 -2.09331 0
M  V30 13610 C 1310.06 1.35806 -1.01258 0
M  V30 13611 O 1311.27 1.34409 -1.19726 0
M  V30 13612 H 1307.64 0.344661 -0.668366 0
M  V30 13613 H 1309.61 0.552154 -2.93247 0
M  V30 13614 C 1308.36 2.29819 -2.60918 0
M  V30 13615 H 1307.68 2.04216 -3.43709 0
M  V30 13616 H 1309.12 2.98826 -3.00797 0
M  V30 13617 C 1307.58 3.0057 -1.52182 0
M  V30 13618 O 1308.11 3.91423 -0.902817 0
M  V30 13619 N 1306.32 2.62338 -1.25009 0
M  V30 13620 H 1305.87 1.88538 -1.75531 0
M  V30 13621 H 1305.82 3.0999 -0.524736 0
M  V30 13622 N 1309.6 1.55164 0.276031 0
M  V30 13623 C 1311.01 1.46936 0.623061 0
M  V30 13624 C 1311.21 0.680977 1.89644 0
M  V30 13625 O 1310.27 0.198618 2.51718 0
M  V30 13626 C 1311.58 2.91123 0.752839 0
M  V30 13627 C 1313.13 3.01319 0.847093 0
M  V30 13628 C 1313.6 4.46755 1.00867 0
M  V30 13629 N 1315.1 4.5057 1.07427 0
M  V30 13630 C 1315.83 5.60314 1.21804 0
M  V30 13631 N 1315.33 6.7993 1.32919 0
M  V30 13632 N 1317.12 5.4805 1.2489 0
M  V30 13633 H 1309.27 2.04877 -0.560282 0
M  V30 13634 H 1311.53 0.928925 -0.189217 0
M  V30 13635 H 1311.24 3.51521 -0.112333 0
M  V30 13636 H 1311.11 3.39967 1.63408 0
M  V30 13637 H 1313.5 2.41021 1.70274 0
M  V30 13638 H 1313.58 2.55733 -0.0586896 0
M  V30 13639 H 1313.23 5.07655 0.1577 0
M  V30 13640 H 1313.16 4.89995 1.92906 0
M  V30 13641 H 1315.65 3.64404 1.00089 0
M  V30 13642 H 1315.96 7.59319 1.43714 0
M  V30 13643 H 1314.3 6.82747 1.29929 0
M  V30 13644 H 1317.5 4.53542 1.15834 0
M  V30 13645 H 1317.67 6.33621 1.3575 0
M  V30 13646 N 1311.07 -0.540404 1.48045 0
M  V30 13647 C 1312.02 -1.64191 1.58194 0
M  V30 13648 C 1313.01 -1.54775 0.439703 0
M  V30 13649 O 1314.2 -1.62973 0.690572 0
M  V30 13650 C 1311.33 -3.02937 1.61505 0
M  V30 13651 C 1310.42 -3.17495 2.81172 0
M  V30 13652 N 1310.81 -3.02061 4.05701 0
M  V30 13653 C 1309.1 -3.4853 2.78286 0
M  V30 13654 C 1309.81 -3.19757 4.85932 0
M  V30 13655 N 1308.78 -3.46859 4.18557 0
M  V30 13656 H 1312.58 -1.50852 2.52232 0
M  V30 13657 H 1310.1 -0.745602 1.44272 0
M  V30 13658 H 1312.09 -3.82048 1.66868 0
M  V30 13659 H 1310.75 -3.17376 0.685753 0
M  V30 13660 H 1311.77 -2.79038 4.363 0
M  V30 13661 H 1308.44 -3.69391 1.94567 0
M  V30 13662 H 1309.83 -3.1265 5.94727 0
M  V30 13663 N 1312.55 -1.36459 -0.788468 0
M  V30 13664 C 1313.48 -1.33545 -1.91541 0
M  V30 13665 C 1314.46 -0.206762 -1.68839 0
M  V30 13666 O 1315.65 -0.404553 -1.89939 0
M  V30 13667 C 1312.78 -1.12492 -3.28577 0
M  V30 13668 C 1311.73 -2.22196 -3.65805 0
M  V30 13669 C 1311.06 -1.86285 -5.01201 0
M  V30 13670 C 1312.36 -3.64286 -3.7429 0
M  V30 13671 H 1314.05 -2.27844 -1.94236 0
M  V30 13672 H 1311.6 -1.09677 -0.933105 0
M  V30 13673 H 1313.55 -1.09089 -4.07035 0
M  V30 13674 H 1312.28 -0.146446 -3.26272 0
M  V30 13675 H 1310.93 -2.24727 -2.89644 0
M  V30 13676 H 1310.58 -0.87009 -4.95417 0
M  V30 13677 H 1310.28 -2.59734 -5.27079 0
M  V30 13678 H 1311.81 -1.84439 -5.82078 0
M  V30 13679 H 1313.22 -3.63977 -4.42937 0
M  V30 13680 H 1311.62 -4.36648 -4.11653 0
M  V30 13681 H 1312.69 -3.99123 -2.75371 0
M  V30 13682 N 1314.03 1.01274 -1.20754 0
M  V30 13683 C 1314.99 2.08056 -0.961528 0
M  V30 13684 C 1315.99 1.60671 0.0644461 0
M  V30 13685 O 1317.18 1.73349 -0.172022 0
M  V30 13686 C 1314.32 3.37938 -0.448381 0
M  V30 13687 H 1315.51 2.31314 -1.90877 0
M  V30 13688 H 1313.06 1.18133 -1.02344 0
M  V30 13689 H 1313.8 3.20357 0.504144 0
M  V30 13690 H 1313.58 3.73659 -1.18833 0
M  V30 13691 H 1315.07 4.16551 -0.295876 0
M  V30 13692 N 1315.51 1.01404 1.20644 0
M  V30 13693 C 1316.74 0.72104 1.93929 0
M  V30 13694 C 1317.15 -0.717853 1.7462 0
M  V30 13695 O 1316.51 -1.48664 1.05855 0
M  V30 13696 C 1316.56 1.04399 3.46097 0
M  V30 13697 O 1316.28 2.42637 3.64773 0
M  V30 13698 C 1317.78 0.771678 4.36532 0
M  V30 13699 H 1315 0.264983 0.616462 0
M  V30 13700 H 1317.55 1.35453 1.53208 0
M  V30 13701 H 1315.7 0.455946 3.84708 0
M  V30 13702 H 1316.12 2.54201 4.58783 0
M  V30 13703 H 1317.59 1.04774 5.41965 0
M  V30 13704 H 1318.07 -0.294188 4.38214 0
M  V30 13705 H 1318.67 1.34176 4.0358 0
M  V30 13706 N 1316.99 -1.36373 0.789944 0
M  V30 13707 C 1317.94 -2.27425 0.161798 0
M  V30 13708 C 1318.92 -1.46983 -0.654583 0
M  V30 13709 O 1320.11 -1.69355 -0.51457 0
M  V30 13710 C 1317.24 -3.36043 -0.702128 0
M  V30 13711 C 1316.33 -4.23921 0.123071 0
M  V30 13712 N 1316.72 -4.91895 1.17784 0
M  V30 13713 C 1315.02 -4.45892 -0.0980072 0
M  V30 13714 C 1315.72 -5.56905 1.68023 0
M  V30 13715 N 1314.69 -5.34521 0.989371 0
M  V30 13716 H 1318.5 -2.77463 0.969093 0
M  V30 13717 H 1316.01 -1.49705 0.629458 0
M  V30 13718 H 1318.01 -4.00203 -1.16805 0
M  V30 13719 H 1316.67 -2.8756 -1.50796 0
M  V30 13720 H 1317.68 -4.93838 1.56027 0
M  V30 13721 H 1314.36 -4.08243 -0.874307 0
M  V30 13722 H 1315.75 -6.21185 2.56085 0
M  V30 13723 N 1318.47 -0.542005 -1.47987 0
M  V30 13724 C 1319.69 -0.016717 -2.06893 0
M  V30 13725 C 1320.11 1.27015 -1.39687 0
M  V30 13726 O 1319.47 1.75845 -0.488326 0
M  V30 13727 C 1319.52 0.198437 -3.60955 0
M  V30 13728 O 1319.24 -1.03746 -4.25639 0
M  V30 13729 C 1320.74 0.762741 -4.36689 0
M  V30 13730 H 1317.96 -0.0389497 -0.669869 0
M  V30 13731 H 1320.5 -0.751082 -1.90208 0
M  V30 13732 H 1318.66 0.882884 -3.77205 0
M  V30 13733 H 1319.07 -0.82568 -5.1796 0
M  V30 13734 H 1320.55 0.862649 -5.45218 0
M  V30 13735 H 1321.02 1.77049 -4.01933 0
M  V30 13736 H 1321.63 0.114478 -4.25146 0
M  V30 13737 N 1319.94 1.55134 -0.277709 0
M  V30 13738 C 1321.22 1.91667 0.390253 0
M  V30 13739 C 1321.6 1.20228 1.73518 0
M  V30 13740 O 1320.95 0.330013 2.26104 0
M  V30 13741 C 1321.16 3.44983 0.52797 0
M  V30 13742 C 1322.51 4.16809 0.809665 0
M  V30 13743 O 1323.53 3.50891 0.612679 0
M  V30 13744 O 1322.39 5.33463 1.18656 0
M  V30 13745 H 1319.48 0.798807 0.214095 0
M  V30 13746 H 1322.03 1.66577 -0.324053 0
M  V30 13747 H 1320.8 3.89056 -0.418422 0
M  V30 13748 H 1320.42 3.76035 1.29164 0
M  V30 13749 N 1321.42 0.00503138 1.57599 0
M  V30 13750 C 1322.67 -0.674107 1.91905 0
M  V30 13751 C 1323.02 -1.71101 0.8799 0
M  V30 13752 O 1322.32 -1.913 -0.107261 0
M  V30 13753 C 1322.51 -1.35485 3.30724 0
M  V30 13754 C 1322.34 -0.385403 4.48045 0
M  V30 13755 C 1321.11 0.00602574 5.053 0
M  V30 13756 C 1323.31 0.350442 5.13105 0
M  V30 13757 N 1321.29 0.97316 6.06138 0
M  V30 13758 C 1322.66 1.1721 6.0882 0
M  V30 13759 C 1324.71 0.413738 4.96178 0
M  V30 13760 C 1323.42 2.05129 6.89431 0
M  V30 13761 C 1325.44 1.28018 5.77378 0
M  V30 13762 C 1324.81 2.08967 6.7269 0
M  V30 13763 H 1320.9 -0.219721 0.750498 0
M  V30 13764 H 1323.49 0.0665598 1.94586 0
M  V30 13765 H 1321.66 -2.06578 3.28907 0
M  V30 13766 H 1323.39 -1.98909 3.52445 0
M  V30 13767 H 1320.15 -0.363403 4.72204 0
M  V30 13768 H 1320.57 1.45225 6.6124 0
M  V30 13769 H 1325.21 -0.19783 4.22337 0
M  V30 13770 H 1322.93 2.67351 7.62594 0
M  V30 13771 H 1326.52 1.33313 5.66321 0
M  V30 13772 H 1325.4 2.74926 7.34428 0
M  V30 13773 N 1322.9 -1.55308 -0.267798 0
M  V30 13774 C 1323.83 -1.84963 -1.35356 0
M  V30 13775 C 1324.84 -0.73446 -1.45291 0
M  V30 13776 O 1326.03 -1.01237 -1.47015 0
M  V30 13777 C 1323.13 -2.00221 -2.73432 0
M  V30 13778 C 1322.31 -3.30922 -2.86024 0
M  V30 13779 C 1321.37 -3.3618 -4.04808 0
M  V30 13780 O 1320.39 -4.09525 -3.9532 0
M  V30 13781 N 1321.59 -2.63958 -5.17017 0
M  V30 13782 H 1324.36 -2.7868 -1.1026 0
M  V30 13783 H 1321.92 -1.55289 -0.457914 0
M  V30 13784 H 1323.91 -2.01103 -3.51197 0
M  V30 13785 H 1322.48 -1.13346 -2.91327 0
M  V30 13786 H 1321.7 -3.42534 -1.951 0
M  V30 13787 H 1322.99 -4.17109 -2.91371 0
M  V30 13788 H 1322.39 -2.04062 -5.27613 0
M  V30 13789 H 1320.94 -2.70558 -5.92994 0
M  V30 13790 N 1324.38 0.532545 -1.4833 0
M  V30 13791 C 1325.33 1.65832 -1.63103 0
M  V30 13792 C 1326.32 1.61929 -0.497538 0
M  V30 13793 O 1327.53 1.66817 -0.676176 0
M  V30 13794 H 1323.9 0.549152 -0.513748 0
M  V30 13795 H 1325.87 1.50515 -2.57658 0
M  V30 13796 C 1324.62 3.04113 -1.68555 0
M  V30 13797 H 1323.94 3.07809 -2.55135 0
M  V30 13798 H 1325.38 3.82506 -1.82936 0
M  V30 13799 C 1323.84 3.34225 -0.423711 0
M  V30 13800 O 1324.37 3.99005 0.464523 0
M  V30 13801 N 1322.58 2.89087 -0.296192 0
M  V30 13802 H 1322.13 2.36547 -1.01997 0
M  V30 13803 H 1322.08 3.09604 0.547082 0
M  V30 13804 N 1325.86 1.36875 0.78122 0
M  V30 13805 C 1327.1 1.32949 1.55254 0
M  V30 13806 C 1327.46 -0.0879862 1.91798 0
M  V30 13807 O 1328.66 -0.251878 2.67617 0
M  V30 13808 C 1326.93 2.23382 2.78989 0
M  V30 13809 S 1328.49 2.37218 3.69152 0
M  V30 13810 H 1325.31 0.472105 0.531637 0
M  V30 13811 H 1327.91 1.72529 0.91945 0
M  V30 13812 H 1326.61 3.25307 2.50207 0
M  V30 13813 H 1326.15 1.84852 3.47266 0
M  V30 13814 H 1328.16 1.57575 4.70515 0
M  V30 13815 N 1327.33 -1.00632 1.21289 0
M  V30 13816 C 1328.58 -1.74647 1.03084 0
M  V30 13817 C 1328.91 -1.89271 -0.43476 0
M  V30 13818 O 1328.19 -1.42607 -1.32263 0
M  V30 13819 C 1328.47 -3.15981 1.72709 0
M  V30 13820 C 1328.32 -3.09088 3.2678 0
M  V30 13821 C 1329.64 -4.14875 1.46857 0
M  V30 13822 H 1326.76 -0.633938 0.375889 0
M  V30 13823 H 1329.4 -1.17328 1.49446 0
M  V30 13824 H 1327.55 -3.64918 1.33294 0
M  V30 13825 H 1329.23 -2.67875 3.75554 0
M  V30 13826 H 1327.47 -2.46223 3.57151 0
M  V30 13827 H 1328.14 -4.09041 3.70661 0
M  V30 13828 H 1330.62 -3.74637 1.81069 0
M  V30 13829 H 1329.49 -5.1191 1.98088 0
M  V30 13830 H 1329.75 -4.40302 0.398296 0
M  V30 13831 N 1328.81 -1.02043 -1.20104 0
M  V30 13832 C 1330.06 -0.722748 -1.90126 0
M  V30 13833 C 1330.41 0.739891 -1.77605 0
M  V30 13834 O 1329.71 1.531 -1.152 0
M  V30 13835 C 1329.9 -1.098 -3.40116 0
M  V30 13836 C 1329.73 -2.59558 -3.67233 0
M  V30 13837 C 1328.5 -3.264 -3.85735 0
M  V30 13838 C 1330.7 -3.57753 -3.69483 0
M  V30 13839 N 1328.68 -4.65348 -4.00406 0
M  V30 13840 C 1330.05 -4.8228 -3.89623 0
M  V30 13841 C 1332.1 -3.51671 -3.52465 0
M  V30 13842 C 1330.81 -6.0146 -3.9451 0
M  V30 13843 C 1332.83 -4.70257 -3.58625 0
M  V30 13844 C 1332.2 -5.93595 -3.79242 0
M  V30 13845 H 1328.29 -0.316203 -0.71522 0
M  V30 13846 H 1330.88 -1.30602 -1.44399 0
M  V30 13847 H 1329.05 -0.543026 -3.84585 0
M  V30 13848 H 1330.78 -0.753461 -3.97624 0
M  V30 13849 H 1327.54 -2.76822 -3.84274 0
M  V30 13850 H 1327.96 -5.37501 -4.11609 0
M  V30 13851 H 1332.6 -2.57308 -3.35488 0
M  V30 13852 H 1330.32 -6.962 -4.10281 0
M  V30 13853 H 1333.91 -4.67171 -3.4676 0
M  V30 13854 H 1332.79 -6.83821 -3.83872 0
M  V30 13855 N 1330.29 1.35952 -0.797165 0
M  V30 13856 C 1331.2 2.33726 -0.202271 0
M  V30 13857 C 1332.22 1.61415 0.649719 0
M  V30 13858 O 1333.39 1.93351 0.563686 0
M  V30 13859 C 1330.46 3.40612 0.64685 0
M  V30 13860 C 1329.52 4.28712 -0.224536 0
M  V30 13861 C 1328.75 5.30493 0.584153 0
M  V30 13862 O 1328.97 5.40599 1.81957 0
M  V30 13863 O 1327.91 6.01897 -0.0200239 0
M  V30 13864 H 1331.73 2.86383 -1.01087 0
M  V30 13865 H 1329.32 1.38557 -0.558768 0
M  V30 13866 H 1331.2 4.05944 1.1308 0
M  V30 13867 H 1329.88 2.90243 1.43321 0
M  V30 13868 H 1328.78 3.66394 -0.755415 0
M  V30 13869 H 1330.12 4.82454 -0.974603 0
M  V30 13870 N 1331.77 0.549846 1.47697 0
M  V30 13871 C 1333.05 -0.0422793 1.95554 0
M  V30 13872 C 1333.43 -1.49303 1.49238 0
M  V30 13873 O 1332.77 -2.16598 0.727844 0
M  V30 13874 C 1332.98 0.0955552 3.48869 0
M  V30 13875 C 1334.33 -0.0535698 4.24566 0
M  V30 13876 O 1335.36 0.0227365 3.56193 0
M  V30 13877 O 1334.21 -0.21645 5.46071 0
M  V30 13878 H 1331.31 -0.0682465 0.824179 0
M  V30 13879 H 1333.85 0.615849 1.58131 0
M  V30 13880 H 1332.63 1.10536 3.75363 0
M  V30 13881 H 1332.25 -0.600522 3.93039 0
M  V30 13882 N 1333.25 -1.54984 0.285932 0
M  V30 13883 C 1334.48 -2.03943 -0.330295 0
M  V30 13884 C 1334.88 -1.16336 -1.49207 0
M  V30 13885 O 1334.23 -0.178341 -1.82832 0
M  V30 13886 C 1334.29 -3.48976 -0.863479 0
M  V30 13887 C 1333.95 -4.5668 0.171058 0
M  V30 13888 C 1334.95 -5.10303 0.994329 0
M  V30 13889 C 1332.64 -5.01352 0.308416 0
M  V30 13890 C 1334.63 -6.07126 1.94104 0
M  V30 13891 C 1332.32 -5.97999 1.25859 0
M  V30 13892 C 1333.31 -6.50768 2.0734 0
M  V30 13893 O 1333 -7.45524 3.00749 0
M  V30 13894 H 1332.73 -0.671491 -0.0779452 0
M  V30 13895 H 1335.29 -2.01081 0.419011 0
M  V30 13896 H 1333.52 -3.49113 -1.66305 0
M  V30 13897 H 1335.21 -3.81213 -1.39396 0
M  V30 13898 H 1335.97 -4.76595 0.899002 0
M  V30 13899 H 1331.85 -4.59917 -0.315817 0
M  V30 13900 H 1335.4 -6.48239 2.57743 0
M  V30 13901 H 1331.29 -6.31125 1.35469 0
M  V30 13902 H 1332.06 -7.63276 2.95554 0
M  V30 13903 N 1334.72 -0.0133892 -1.57594 0
M  V30 13904 C 1335.67 0.991796 -2.10395 0
M  V30 13905 C 1336.67 1.34724 -1.02693 0
M  V30 13906 O 1337.87 1.33131 -1.21145 0
M  V30 13907 H 1334.25 0.337553 -0.671984 0
M  V30 13908 H 1336.22 0.52102 -2.93816 0
M  V30 13909 C 1334.97 2.27039 -2.63341 0
M  V30 13910 H 1334.29 2.00559 -3.45855 0
M  V30 13911 H 1335.73 2.95619 -3.0395 0
M  V30 13912 C 1334.19 2.98939 -1.55362 0
M  V30 13913 O 1334.72 3.90444 -0.944282 0
M  V30 13914 N 1332.93 2.60997 -1.27784 0
M  V30 13915 H 1332.47 1.86666 -1.77521 0
M  V30 13916 H 1332.43 3.09416 -0.557585 0
M  V30 13917 N 1336.2 1.55448 0.259558 0
M  V30 13918 C 1337.62 1.47588 0.607442 0
M  V30 13919 C 1337.82 0.701053 1.88911 0
M  V30 13920 O 1336.87 0.225305 2.51493 0
M  V30 13921 C 1338.19 2.91905 0.72192 0
M  V30 13922 C 1339.74 3.02201 0.815087 0
M  V30 13923 C 1340.21 4.47799 0.961231 0
M  V30 13924 N 1341.7 4.51684 1.02642 0
M  V30 13925 C 1342.44 5.61574 1.15854 0
M  V30 13926 N 1341.93 6.81301 1.257 0
M  V30 13927 N 1343.73 5.49344 1.1907 0
M  V30 13928 H 1335.88 2.04271 -0.581981 0
M  V30 13929 H 1338.14 0.926865 -0.199059 0
M  V30 13930 H 1337.85 3.51382 -0.149611 0
M  V30 13931 H 1337.72 3.41681 1.59793 0
M  V30 13932 H 1340.11 2.42813 1.67708 0
M  V30 13933 H 1340.19 2.55656 -0.0858102 0
M  V30 13934 H 1339.83 5.07794 0.103848 0
M  V30 13935 H 1339.76 4.92013 1.87698 0
M  V30 13936 H 1342.25 3.65446 0.962184 0
M  V30 13937 H 1342.57 7.60801 1.35652 0
M  V30 13938 H 1340.91 6.84087 1.2268 0
M  V30 13939 H 1344.1 4.54745 1.11018 0
M  V30 13940 H 1344.27 6.35025 1.29022 0
M  V30 13941 N 1337.68 -0.524672 1.4861 0
M  V30 13942 C 1338.96 -1.28592 1.47389 0
M  V30 13943 C 1339.34 -2.10257 0.188482 0
M  V30 13944 O 1338.69 -2.12905 -0.829689 0
M  V30 13945 C 1338.9 -2.16284 2.73902 0
M  V30 13946 C 1340.24 -2.7625 3.22445 0
M  V30 13947 O 1341.27 -2.26567 2.74856 0
M  V30 13948 O 1340.13 -3.66635 4.05267 0
M  V30 13949 H 1337.22 -0.580666 0.58886 0
M  V30 13950 H 1339.77 -0.540888 1.60849 0
M  V30 13951 H 1338.54 -1.55757 3.58964 0
M  V30 13952 H 1338.16 -2.98024 2.63188 0
M  V30 13953 N 1339.16 -1.37287 -0.77395 0
M  V30 13954 C 1340.09 -1.35569 -1.90114 0
M  V30 13955 C 1341.07 -0.224658 -1.6861 0
M  V30 13956 O 1342.25 -0.424676 -1.895 0
M  V30 13957 C 1339.38 -1.15971 -3.27365 0
M  V30 13958 C 1338.34 -2.26063 -3.63427 0
M  V30 13959 C 1337.66 -1.9159 -4.99197 0
M  V30 13960 C 1338.96 -3.68236 -3.70405 0
M  V30 13961 H 1340.66 -2.29891 -1.91808 0
M  V30 13962 H 1338.2 -1.10661 -0.92142 0
M  V30 13963 H 1340.16 -1.134 -4.05855 0
M  V30 13964 H 1338.88 -0.181043 -3.26098 0
M  V30 13965 H 1337.54 -2.27786 -2.87244 0
M  V30 13966 H 1337.19 -0.922586 -4.94467 0
M  V30 13967 H 1336.89 -2.65309 -5.24294 0
M  V30 13968 H 1338.41 -1.90602 -5.80089 0
M  V30 13969 H 1339.83 -3.68655 -4.39052 0
M  V30 13970 H 1338.22 -4.4099 -4.06999 0
M  V30 13971 H 1339.29 -4.02021 -2.71122 0
M  V30 13972 N 1340.64 0.999871 -1.21821 0
M  V30 13973 C 1341.57 2.10708 -1.00621 0
M  V30 13974 C 1342.55 1.69954 0.0705417 0
M  V30 13975 O 1343.73 1.9399 -0.0903042 0
M  V30 13976 C 1340.86 3.42496 -0.575646 0
M  V30 13977 C 1339.82 3.97068 -1.59754 0
M  V30 13978 C 1339.14 5.24822 -1.02304 0
M  V30 13979 C 1340.44 4.28545 -2.98574 0
M  V30 13980 H 1342.14 2.28701 -1.93226 0
M  V30 13981 H 1339.68 1.09903 -0.930443 0
M  V30 13982 H 1341.64 4.19357 -0.414481 0
M  V30 13983 H 1340.36 3.2431 0.386059 0
M  V30 13984 H 1339.02 3.22332 -1.74636 0
M  V30 13985 H 1338.67 5.02972 -0.0529016 0
M  V30 13986 H 1338.37 5.62299 -1.70567 0
M  V30 13987 H 1339.89 6.04322 -0.873312 0
M  V30 13988 H 1341.3 4.96229 -2.87106 0
M  V30 13989 H 1339.7 4.77178 -3.63897 0
M  V30 13990 H 1340.77 3.36607 -3.49032 0
M  V30 13991 N 1342.11 1.02678 1.19562 0
M  V30 13992 C 1343.36 0.723086 1.89471 0
M  V30 13993 C 1343.69 -0.746269 1.79289 0
M  V30 13994 O 1342.97 -1.54322 1.18384 0
M  V30 13995 C 1343.25 1.17224 3.40486 0
M  V30 13996 C 1343.1 2.70266 3.5955 0
M  V30 13997 C 1344.42 0.751397 4.33638 0
M  V30 13998 H 1341.54 0.264155 0.688034 0
M  V30 13999 H 1344.18 1.27633 1.40747 0
M  V30 14000 H 1342.33 0.701544 3.82113 0
M  V30 14001 H 1344.01 3.25266 3.27108 0
M  V30 14002 H 1342.25 3.10758 3.02675 0
M  V30 14003 H 1342.92 2.96748 4.65451 0
M  V30 14004 H 1345.4 1.15621 3.99714 0
M  V30 14005 H 1344.27 1.09358 5.37896 0
M  V30 14006 H 1344.53 -0.346367 4.40741 0
M  V30 14007 N 1343.59 -1.35528 0.804364 0
M  V30 14008 C 1344.82 -2.03604 0.395013 0
M  V30 14009 C 1345.24 -1.60225 -0.985371 0
M  V30 14010 O 1344.6 -0.777844 -1.63766 0
M  V30 14011 C 1344.65 -3.57337 0.484011 0
M  V30 14012 O 1343.75 -4.09316 -0.503395 0
M  V30 14013 H 1343.09 -0.643089 0.165325 0
M  V30 14014 H 1345.62 -1.73171 1.08963 0
M  V30 14015 H 1345.63 -4.0647 0.353009 0
M  V30 14016 H 1344.31 -3.8826 1.49088 0
M  V30 14017 H 1342.89 -3.71412 -0.332817 0
M  V30 14018 N 1345.07 -0.557671 -1.47404 0
M  V30 14019 C 1346.3 -0.0386599 -2.06864 0
M  V30 14020 C 1346.71 1.25527 -1.41027 0
M  V30 14021 O 1346.07 1.75318 -0.506949 0
M  V30 14022 C 1346.12 0.160141 -3.61145 0
M  V30 14023 O 1345.84 -1.08255 -4.24515 0
M  V30 14024 C 1347.34 0.716381 -4.37473 0
M  V30 14025 H 1344.56 -0.0460523 -0.669418 0
M  V30 14026 H 1347.11 -0.771214 -1.894 0
M  V30 14027 H 1345.26 0.842826 -3.78121 0
M  V30 14028 H 1345.68 -0.88057 -5.17055 0
M  V30 14029 H 1347.15 0.804773 -5.46102 0
M  V30 14030 H 1347.63 1.72776 -4.03788 0
M  V30 14031 H 1348.23 0.0693787 -4.25243 0
M  V30 14032 N 1346.55 1.54831 -0.294147 0
M  V30 14033 C 1347.78 2.04411 0.319938 0
M  V30 14034 C 1348.19 1.17174 1.4804 0
M  V30 14035 O 1347.55 0.195881 1.81446 0
M  V30 14036 C 1347.6 3.52924 0.782751 0
M  V30 14037 O 1347.32 4.36844 -0.331512 0
M  V30 14038 C 1348.82 4.18474 1.4627 0
M  V30 14039 H 1346.04 0.667286 0.0704973 0
M  V30 14040 H 1348.59 1.9989 -0.431785 0
M  V30 14041 H 1346.74 3.57828 1.48451 0
M  V30 14042 H 1347.16 5.24493 0.0275743 0
M  V30 14043 H 1348.63 5.23933 1.73776 0
M  V30 14044 H 1349.11 3.67793 2.40052 0
M  V30 14045 H 1349.71 4.17626 0.804291 0
M  V30 14046 N 1348.03 0.0217466 1.57585 0
M  V30 14047 C 1349.26 -0.668881 1.9579 0
M  V30 14048 C 1349.67 -1.66085 0.897849 0
M  V30 14049 O 1349.03 -1.82098 -0.121099 0
M  V30 14050 C 1349.08 -1.38174 3.34051 0
M  V30 14051 O 1348.8 -0.429527 4.35989 0
M  V30 14052 C 1350.3 -2.16487 3.86844 0
M  V30 14053 H 1347.52 -0.184919 0.645016 0
M  V30 14054 H 1350.06 0.0793241 2.04346 0
M  V30 14055 H 1348.22 -2.0814 3.26736 0
M  V30 14056 H 1348.63 -0.934887 5.16101 0
M  V30 14057 H 1350.11 -2.61829 4.85952 0
M  V30 14058 H 1350.58 -3.00082 3.20698 0
M  V30 14059 H 1351.19 -1.51493 3.97404 0
M  V30 14060 N 1349.51 -1.55583 -0.251311 0
M  V30 14061 C 1350.47 -1.89148 -1.29443 0
M  V30 14062 C 1351.47 -0.7676 -1.41296 0
M  V30 14063 O 1352.66 -1.03563 -1.40073 0
M  V30 14064 C 1349.79 -2.11601 -2.67279 0
M  V30 14065 H 1350.98 -2.82416 -1.00901 0
M  V30 14066 H 1348.54 -1.48407 -0.490398 0
M  V30 14067 H 1349.27 -1.20787 -3.00967 0
M  V30 14068 H 1349.06 -2.93449 -2.60058 0
M  V30 14069 H 1350.55 -2.38768 -3.42607 0
M  V30 14070 N 1350.98 0.516783 -1.48886 0
M  V30 14071 C 1351.93 1.61653 -1.60786 0
M  V30 14072 C 1352.92 1.54056 -0.464271 0
M  V30 14073 O 1354.11 1.61853 -0.716412 0
M  V30 14074 C 1351.24 3.0033 -1.66304 0
M  V30 14075 C 1350.32 3.12982 -2.86187 0
M  V30 14076 N 1350.72 2.95568 -4.10455 0
M  V30 14077 C 1349.01 3.44059 -2.83795 0
M  V30 14078 C 1349.71 3.11986 -4.90958 0
M  V30 14079 N 1348.69 3.40156 -4.24022 0
M  V30 14080 H 1352.49 1.4682 -2.546 0
M  V30 14081 H 1350.01 0.722555 -1.4544 0
M  V30 14082 H 1352 3.79345 -1.72924 0
M  V30 14083 H 1350.66 3.16245 -0.736158 0
M  V30 14084 H 1351.67 2.72062 -4.40684 0
M  V30 14085 H 1348.35 3.66249 -2.0042 0
M  V30 14086 H 1349.74 3.03149 -5.99625 0
M  V30 14087 N 1352.46 1.37696 0.766659 0
M  V30 14088 C 1353.71 1.32922 1.52237 0
M  V30 14089 C 1354.03 -0.0842833 1.94818 0
M  V30 14090 O 1353.3 -1.02934 1.66677 0
M  V30 14091 H 1351.88 0.489049 0.564659 0
M  V30 14092 H 1354.54 1.72238 0.912142 0
M  V30 14093 H 1353.64 1.97158 2.4194 0
M  V30 14094 N 1353.94 -0.993397 1.22349 0
M  V30 14095 C 1355.18 -1.74807 1.05933 0
M  V30 14096 C 1355.54 -1.87815 -0.398702 0
M  V30 14097 O 1356.74 -2.5996 -0.683703 0
M  V30 14098 C 1355.02 -3.11601 1.75042 0
M  V30 14099 S 1356.57 -4.02813 1.74032 0
M  V30 14100 H 1353.39 -0.601331 0.379371 0
M  V30 14101 H 1355.99 -1.18777 1.55282 0
M  V30 14102 H 1354.7 -2.99775 2.80291 0
M  V30 14103 H 1354.23 -3.72703 1.25922 0
M  V30 14104 H 1356.24 -4.89876 0.789658 0
M  V30 14105 N 1355.42 -1.03311 -1.19015 0
M  V30 14106 C 1356.69 -0.646539 -1.84606 0
M  V30 14107 C 1357.07 0.87449 -1.92135 0
M  V30 14108 O 1356.42 1.77291 -1.44154 0
M  V30 14109 C 1356.63 -1.31354 -3.23338 0
M  V30 14110 C 1357.98 -1.43949 -3.99455 0
M  V30 14111 O 1359 -1.27104 -3.32751 0
M  V30 14112 O 1357.86 -1.71328 -5.1895 0
M  V30 14113 H 1354.96 -0.225267 -0.795728 0
M  V30 14114 H 1357.5 -1.13152 -1.2647 0
M  V30 14115 H 1356.28 -2.3521 -3.12717 0
M  V30 14116 H 1355.9 -0.816688 -3.89122 0
M  V30 14117 N 1356.9 1.35099 -0.81154 0
M  V30 14118 C 1358.14 1.9892 -0.394815 0
M  V30 14119 C 1358.47 1.6422 1.0366 0
M  V30 14120 O 1357.75 0.908031 1.72003 0
M  V30 14121 C 1358.03 3.55331 -0.58413 0
M  V30 14122 C 1357.89 3.99812 -2.06084 0
M  V30 14123 C 1359.2 4.40098 -0.0129096 0
M  V30 14124 H 1356.32 0.72261 -0.144926 0
M  V30 14125 H 1358.97 1.60173 -1.02199 0
M  V30 14126 H 1357.12 3.88468 -0.0502446 0
M  V30 14127 H 1358.79 3.77061 -2.65749 0
M  V30 14128 H 1357.03 3.50539 -2.55548 0
M  V30 14129 H 1357.7 5.08655 -2.14416 0
M  V30 14130 H 1360.18 4.13449 -0.468917 0
M  V30 14131 H 1359.05 5.4862 -0.175252 0
M  V30 14132 H 1359.31 4.28675 1.0812 0
M  V30 14133 N 1358.37 0.56548 1.47106 0
M  V30 14134 C 1359.62 0.042333 2.01656 0
M  V30 14135 C 1359.94 -1.31892 1.44443 0
M  V30 14136 O 1361.14 -1.93245 1.90706 0
M  V30 14137 C 1359.6 0.0251556 3.59891 0
M  V30 14138 C 1359.21 1.38367 4.26097 0
M  V30 14139 C 1360.95 -0.44495 4.22162 0
M  V30 14140 C 1358.86 1.32516 5.76362 0
M  V30 14141 H 1357.79 0.0120557 0.753904 0
M  V30 14142 H 1360.44 0.714565 1.69015 0
M  V30 14143 H 1358.82 -0.712893 3.8953 0
M  V30 14144 H 1359.99 2.14009 4.08089 0
M  V30 14145 H 1358.31 1.79239 3.75849 0
M  V30 14146 H 1360.91 -0.507256 5.32288 0
M  V30 14147 H 1361.25 -1.45876 3.89905 0
M  V30 14148 H 1361.78 0.238496 3.97084 0
M  V30 14149 H 1358.52 2.31523 6.13252 0
M  V30 14150 H 1358.04 0.610674 5.96683 0
M  V30 14151 H 1359.72 1.03072 6.38737 0
M  V30 14152 N 1359.85 -1.54672 0.302354 0
M  V30 14153 C 1360.82 -2.22246 -0.560283 0
M  V30 14154 C 1361.82 -1.20895 -1.06023 0
M  V30 14155 O 1363.01 -1.45621 -0.956047 0
M  V30 14156 C 1360.14 -2.9099 -1.77589 0
M  V30 14157 H 1361.33 -2.99885 0.0301274 0
M  V30 14158 H 1358.88 -1.56209 0.0532036 0
M  V30 14159 H 1359.62 -2.17433 -2.4061 0
M  V30 14160 H 1359.4 -3.65288 -1.42503 0
M  V30 14161 H 1360.89 -3.42535 -2.38871 0
M  V30 14162 N 1361.33 -0.0301034 -1.57571 0
M  V30 14163 C 1362.75 0.326296 -1.56229 0
M  V30 14164 C 1362.95 1.72839 -1.03581 0
M  V30 14165 O 1362 2.43088 -0.682979 0
M  V30 14166 C 1363.32 0.174001 -3.00196 0
M  V30 14167 C 1364.86 0.246694 -3.12026 0
M  V30 14168 C 1365.34 0.123177 -4.57834 0
M  V30 14169 N 1366.83 0.180129 -4.6285 0
M  V30 14170 C 1367.56 0.108353 -5.73298 0
M  V30 14171 N 1367.06 -0.0145648 -6.92798 0
M  V30 14172 N 1368.85 0.162411 -5.61865 0
M  V30 14173 H 1361 -0.946945 -1.90123 0
M  V30 14174 H 1363.27 -0.365762 -0.874598 0
M  V30 14175 H 1362.97 -0.791871 -3.42669 0
M  V30 14176 H 1362.85 0.943794 -3.65202 0
M  V30 14177 H 1365.23 1.20303 -2.69465 0
M  V30 14178 H 1365.32 -0.553493 -2.4974 0
M  V30 14179 H 1364.96 -0.82974 -5.01077 0
M  V30 14180 H 1364.89 0.94224 -5.18102 0
M  V30 14181 H 1367.38 0.275236 -3.76896 0
M  V30 14182 H 1367.69 -0.062614 -7.72775 0
M  V30 14183 H 1366.04 -0.0493606 -6.94982 0
M  V30 14184 H 1369.23 0.256847 -4.67395 0
M  V30 14185 H 1369.4 0.103013 -6.47918 0
M  V30 14186 N 1362.81 1.55714 0.243056 0
M  V30 14187 C 1364.05 1.79491 0.977867 0
M  V30 14188 C 1364.41 0.600239 1.82376 0
M  V30 14189 O 1365.61 0.716857 2.59065 0
M  V30 14190 C 1363.88 3.08034 1.81245 0
M  V30 14191 S 1365.44 3.53046 2.60583 0
M  V30 14192 H 1362.26 0.630377 0.328855 0
M  V30 14193 H 1364.86 1.93954 0.245371 0
M  V30 14194 H 1363.57 3.93047 1.18079 0
M  V30 14195 H 1363.1 2.9632 2.58763 0
M  V30 14196 H 1365.11 3.14683 3.83652 0
M  V30 14197 N 1364.29 -0.50888 1.49158 0
M  V30 14198 C 1365.22 -1.62778 1.61356 0
M  V30 14199 C 1366.23 -1.55039 0.496653 0
M  V30 14200 O 1367.42 -1.61115 0.768386 0
M  V30 14201 C 1364.52 -3.01534 1.54694 0
M  V30 14202 C 1363.69 -3.34539 2.81785 0
M  V30 14203 C 1362.75 -4.5267 2.68283 0
M  V30 14204 O 1361.78 -4.54844 3.42207 0
M  V30 14205 N 1362.98 -5.52115 1.79303 0
M  V30 14206 H 1365.75 -1.52744 2.57855 0
M  V30 14207 H 1363.31 -0.696597 1.46148 0
M  V30 14208 H 1365.3 -3.7847 1.43327 0
M  V30 14209 H 1363.87 -3.05535 0.660849 0
M  V30 14210 H 1363.09 -2.46576 3.07561 0
M  V30 14211 H 1364.38 -3.53384 3.66057 0
M  V30 14212 H 1363.77 -5.53153 1.18485 0
M  V30 14213 H 1362.33 -6.28184 1.73863 0
M  V30 14214 N 1365.76 -1.381 -0.759346 0
M  V30 14215 C 1367 -1.35402 -1.5312 0
M  V30 14216 C 1367.37 0.0574616 -1.91914 0
M  V30 14217 O 1368.57 0.20927 -2.67984 0
M  V30 14218 C 1366.84 -2.27793 -2.754 0
M  V30 14219 S 1368.4 -2.43061 -3.65331 0
M  V30 14220 H 1365.22 -0.480503 -0.524059 0
M  V30 14221 H 1367.82 -1.7397 -0.891886 0
M  V30 14222 H 1366.52 -3.29247 -2.45 0
M  V30 14223 H 1366.05 -1.90353 -3.44281 0
M  V30 14224 H 1368.07 -1.6504 -4.67949 0
M  V30 14225 N 1367.24 0.986894 -1.22875 0
M  V30 14226 C 1368.47 1.76266 -1.08342 0
M  V30 14227 C 1368.89 1.85226 0.365602 0
M  V30 14228 O 1368.24 1.32675 1.25314 0
M  V30 14229 C 1368.29 3.19282 -1.69533 0
M  V30 14230 O 1368.01 3.10796 -3.08768 0
M  V30 14231 C 1369.52 4.13281 -1.60355 0
M  V30 14232 H 1366.74 0.553374 -0.379497 0
M  V30 14233 H 1369.28 1.24033 -1.62592 0
M  V30 14234 H 1367.43 3.68563 -1.19332 0
M  V30 14235 H 1367.85 4.0078 -3.38343 0
M  V30 14236 H 1369.32 5.11359 -2.07884 0
M  V30 14237 H 1369.8 4.356 -0.561182 0
M  V30 14238 H 1370.41 3.699 -2.09891 0
M  V30 14239 N 1368.72 1.0394 1.18466 0
M  V30 14240 C 1369.95 0.762014 1.92356 0
M  V30 14241 C 1370.36 -0.680652 1.76104 0
M  V30 14242 O 1369.72 -1.46385 1.08985 0
M  V30 14243 C 1369.77 1.11717 3.43805 0
M  V30 14244 O 1369.49 2.50319 3.59544 0
M  V30 14245 C 1370.99 0.864099 4.34797 0
M  V30 14246 H 1368.21 0.277999 0.610702 0
M  V30 14247 H 1370.76 1.38672 1.503 0
M  V30 14248 H 1368.91 0.537445 3.83654 0
M  V30 14249 H 1369.33 2.63875 4.53288 0
M  V30 14250 H 1370.8 1.16247 5.39621 0
M  V30 14251 H 1371.28 -0.20117 4.38739 0
M  V30 14252 H 1371.88 1.42706 4.00643 0
M  V30 14253 N 1370.2 -1.34667 0.818693 0
M  V30 14254 C 1371.45 -1.98022 0.40396 0
M  V30 14255 C 1371.77 -1.65239 -1.03542 0
M  V30 14256 O 1371.04 -0.94097 -1.71821 0
M  V30 14257 H 1369.62 -0.732517 0.146382 0
M  V30 14258 H 1372.28 -1.64377 1.0472 0
M  V30 14259 H 1371.38 -3.07746 0.519516 0
M  V30 14260 N 1371.68 -0.573274 -1.46804 0
M  V30 14261 C 1372.92 -0.0553432 -2.02724 0
M  V30 14262 C 1373.26 1.29753 -1.44492 0
M  V30 14263 O 1372.53 1.84804 -0.606455 0
M  V30 14264 C 1372.81 0.0205511 -3.60094 0
M  V30 14265 C 1372.67 -1.36055 -4.2873 0
M  V30 14266 C 1373.99 0.725944 -4.34071 0
M  V30 14267 H 1371.1 -0.0215858 -0.736684 0
M  V30 14268 H 1373.75 -0.738657 -1.75054 0
M  V30 14269 H 1371.9 0.602481 -3.838 0
M  V30 14270 H 1373.57 -1.98692 -4.16316 0
M  V30 14271 H 1371.81 -1.93087 -3.88458 0
M  V30 14272 H 1372.48 -1.26001 -5.37427 0
M  V30 14273 H 1374.96 0.231677 -4.15455 0
M  V30 14274 H 1373.83 0.74805 -5.43779 0
M  V30 14275 H 1374.1 1.78536 -4.04447 0
M  V30 14276 N 1373.15 1.5451 -0.310553 0
M  V30 14277 C 1374.38 2.04442 0.297807 0
M  V30 14278 C 1374.79 1.18695 1.47337 0
M  V30 14279 O 1374.14 0.207405 1.82525 0
M  V30 14280 C 1374.2 3.50306 0.807851 0
M  V30 14281 C 1373.86 4.5635 -0.24369 0
M  V30 14282 C 1374.86 5.08656 -1.07539 0
M  V30 14283 C 1372.54 5.00798 -0.388138 0
M  V30 14284 C 1374.54 6.03961 -2.03738 0
M  V30 14285 C 1372.22 5.95921 -1.35357 0
M  V30 14286 C 1373.22 6.47387 -2.17667 0
M  V30 14287 O 1372.91 7.40644 -3.12571 0
M  V30 14288 H 1372.64 0.672646 0.0672525 0
M  V30 14289 H 1375.2 2.00389 -0.450948 0
M  V30 14290 H 1373.43 3.51714 1.6073 0
M  V30 14291 H 1375.12 3.83383 1.33314 0
M  V30 14292 H 1375.88 4.75105 -0.97471 0
M  V30 14293 H 1371.76 4.60361 0.242608 0
M  V30 14294 H 1375.3 6.44057 -2.68023 0
M  V30 14295 H 1371.2 6.2889 -1.45493 0
M  V30 14296 H 1371.97 7.58477 -3.0766 0
M  V30 14297 N 1374.63 0.0384594 1.57553 0
M  V30 14298 C 1375.88 -0.63814 1.92182 0
M  V30 14299 C 1376.21 -1.71595 0.915714 0
M  V30 14300 O 1375.46 -1.9556 -0.0739533 0
M  V30 14301 C 1375.76 -1.28439 3.33524 0
M  V30 14302 C 1375.43 -0.336034 4.49646 0
M  V30 14303 C 1374.09 -0.0750373 4.81141 0
M  V30 14304 C 1376.44 0.314642 5.20249 0
M  V30 14305 C 1373.77 0.844286 5.80593 0
M  V30 14306 C 1376.12 1.22208 6.20684 0
M  V30 14307 C 1374.79 1.49187 6.50615 0
M  V30 14308 H 1374.06 -0.233512 0.703245 0
M  V30 14309 H 1376.7 0.102223 1.91227 0
M  V30 14310 H 1375.01 -2.09973 3.30785 0
M  V30 14311 H 1376.71 -1.81462 3.57593 0
M  V30 14312 H 1373.3 -0.549638 4.25061 0
M  V30 14313 H 1377.48 0.126074 4.9614 0
M  V30 14314 H 1372.74 1.06092 6.02125 0
M  V30 14315 H 1376.91 1.7324 6.74508 0
M  V30 14316 H 1374.54 2.20588 7.27492 0
M  V30 14317 N 1376.11 -1.55841 -0.234795 0
M  V30 14318 C 1377.35 -1.80007 -0.968334 0
M  V30 14319 C 1377.72 -0.609903 -1.82055 0
M  V30 14320 O 1378.92 -0.730586 -2.58681 0
M  V30 14321 C 1377.19 -3.08991 -1.79609 0
M  V30 14322 S 1378.75 -3.54423 -2.58707 0
M  V30 14323 H 1375.56 -0.632112 -0.325508 0
M  V30 14324 H 1378.17 -1.94081 -0.235082 0
M  V30 14325 H 1376.87 -3.93667 -1.15993 0
M  V30 14326 H 1376.4 -2.97688 -2.57188 0
M  V30 14327 H 1378.42 -3.16713 -3.81978 0
M  V30 14328 N 1377.59 0.500963 -1.49426 0
M  V30 14329 C 1378.55 1.58478 -1.65582 0
M  V30 14330 C 1379.55 1.51897 -0.52762 0
M  V30 14331 O 1380.74 1.55049 -0.794071 0
M  V30 14332 C 1377.87 2.9813 -1.65322 0
M  V30 14333 H 1379.07 1.45483 -2.6225 0
M  V30 14334 H 1376.62 0.725199 -1.38458 0
M  V30 14335 H 1377.36 3.16602 -0.702384 0
M  V30 14336 H 1377.14 3.04315 -2.47255 0
M  V30 14337 H 1378.63 3.76874 -1.79878 0
M  V30 14338 N 1379.07 1.38501 0.752011 0
M  V30 14339 C 1380.29 1.38212 1.54636 0
M  V30 14340 C 1380.72 -0.0256356 1.88083 0
M  V30 14341 O 1380.08 -1.00812 1.50687 0
M  V30 14342 C 1380.12 2.24597 2.82114 0
M  V30 14343 O 1379.23 1.66415 3.77332 0
M  V30 14344 H 1378.57 0.47138 0.46765 0
M  V30 14345 H 1381.1 1.82283 0.929205 0
M  V30 14346 H 1381.11 2.38511 3.31023 0
M  V30 14347 H 1379.78 3.26913 2.57101 0
M  V30 14348 H 1378.36 1.61651 3.36041 0
M  V30 14349 N 1380.55 -0.980364 1.23396 0
M  V30 14350 C 1381.49 -2.07275 1.01516 0
M  V30 14351 C 1382.46 -1.65963 -0.0673729 0
M  V30 14352 O 1383.65 -1.90612 0.0847392 0
M  V30 14353 C 1380.79 -3.39621 0.61249 0
M  V30 14354 C 1379.9 -3.94203 1.76715 0
M  V30 14355 C 1379.04 -5.14761 1.31126 0
M  V30 14356 C 1378.07 -5.61509 2.43667 0
M  V30 14357 N 1377.21 -6.73297 1.99035 0
M  V30 14358 H 1382.05 -2.25325 1.9502 0
M  V30 14359 H 1379.59 -1.10452 0.971532 0
M  V30 14360 H 1381.55 -4.15643 0.360126 0
M  V30 14361 H 1380.18 -3.21535 -0.285539 0
M  V30 14362 H 1379.23 -3.14937 2.13352 0
M  V30 14363 H 1380.54 -4.24867 2.61323 0
M  V30 14364 H 1379.69 -5.98115 1.01702 0
M  V30 14365 H 1378.43 -4.85751 0.435555 0
M  V30 14366 H 1377.44 -4.76737 2.73865 0
M  V30 14367 H 1378.66 -5.92539 3.31774 0
M  V30 14368 H 1376.61 -6.46046 1.13845 0
M  V30 14369 H 1376.53 -7.03345 2.77203 0
M  V30 14370 H 1377.79 -7.60125 1.72716 0
M  V30 14371 N 1382.02 -1.04567 -1.17913 0
M  V30 14372 C 1382.97 -0.634939 -2.23766 0
M  V30 14373 C 1383.97 0.340723 -1.65938 0
M  V30 14374 O 1385.17 0.207467 -1.788 0
M  V30 14375 H 1381.55 -0.187129 -0.728345 0
M  V30 14376 H 1383.52 -1.53798 -2.55712 0
M  V30 14377 C 1382.27 -0.0190662 -3.47695 0
M  V30 14378 H 1381.59 -0.760881 -3.92493 0
M  V30 14379 H 1383.03 0.231035 -4.2337 0
M  V30 14380 C 1381.49 1.23246 -3.13548 0
M  V30 14381 O 1382.02 2.32262 -3.27746 0
M  V30 14382 N 1380.22 1.12768 -2.67828 0
M  V30 14383 H 1379.77 0.240547 -2.56474 0
M  V30 14384 H 1379.73 1.96594 -2.45353 0
M  V30 14385 N 1383.5 1.34231 -0.825823 0
M  V30 14386 C 1384.45 2.29467 -0.247724 0
M  V30 14387 C 1385.42 1.53724 0.629127 0
M  V30 14388 O 1386.6 1.82082 0.570156 0
M  V30 14389 C 1383.74 3.40157 0.582012 0
M  V30 14390 C 1382.86 4.30832 -0.317406 0
M  V30 14391 C 1381.99 5.28627 0.522176 0
M  V30 14392 C 1381.03 6.10941 -0.376448 0
M  V30 14393 N 1380.17 7.00817 0.424232 0
M  V30 14394 H 1385.01 2.78311 -1.06521 0
M  V30 14395 H 1382.54 1.36956 -0.536788 0
M  V30 14396 H 1384.5 4.03021 1.07843 0
M  V30 14397 H 1383.13 2.92539 1.36459 0
M  V30 14398 H 1382.18 3.68805 -0.932054 0
M  V30 14399 H 1383.5 4.88503 -1.00826 0
M  V30 14400 H 1382.65 5.96957 1.08295 0
M  V30 14401 H 1381.39 4.71501 1.24652 0
M  V30 14402 H 1380.39 5.41542 -0.94934 0
M  V30 14403 H 1381.62 6.70149 -1.09895 0
M  V30 14404 H 1379.57 6.46156 1.1322 0
M  V30 14405 H 1379.48 7.55713 -0.208175 0
M  V30 14406 H 1380.75 7.7347 0.967664 0
M  V30 14407 N 1384.98 0.581051 1.46498 0
M  V30 14408 C 1385.93 -0.174031 2.27335 0
M  V30 14409 C 1386.91 -0.863391 1.35773 0
M  V30 14410 O 1388.11 -0.75776 1.59959 0
M  V30 14411 C 1385.23 -1.18814 3.22084 0
M  V30 14412 C 1384.32 -0.500978 4.21131 0
M  V30 14413 N 1384.71 0.442495 5.03861 0
M  V30 14414 C 1383.01 -0.751932 4.39616 0
M  V30 14415 C 1383.71 0.843944 5.75545 0
M  V30 14416 N 1382.69 0.19346 5.43256 0
M  V30 14417 H 1386.49 0.551004 2.88689 0
M  V30 14418 H 1384 0.402722 1.57327 0
M  V30 14419 H 1386 -1.74325 3.78703 0
M  V30 14420 H 1384.66 -1.91401 2.62289 0
M  V30 14421 H 1385.67 0.817931 5.114 0
M  V30 14422 H 1382.35 -1.46451 3.90971 0
M  V30 14423 H 1383.74 1.62058 6.52063 0
M  V30 14424 N 1386.46 -1.54343 0.318742 0
M  V30 14425 C 1387.69 -2.04597 -0.286961 0
M  V30 14426 C 1388.1 -1.19474 -1.46706 0
M  V30 14427 O 1387.44 -0.217082 -1.82413 0
M  V30 14428 C 1387.5 -3.50729 -0.789262 0
M  V30 14429 C 1387.16 -4.56214 0.267888 0
M  V30 14430 C 1388.16 -5.08079 1.10235 0
M  V30 14431 C 1385.85 -5.00585 0.414691 0
M  V30 14432 C 1387.84 -6.02872 2.06938 0
M  V30 14433 C 1385.53 -5.95195 1.38515 0
M  V30 14434 C 1386.53 -6.46224 2.21097 0
M  V30 14435 O 1386.21 -7.38976 3.16495 0
M  V30 14436 H 1385.95 -0.672994 -0.0636843 0
M  V30 14437 H 1388.5 -2.00147 0.461569 0
M  V30 14438 H 1386.73 -3.52562 -1.58862 0
M  V30 14439 H 1388.42 -3.84084 -1.31278 0
M  V30 14440 H 1389.18 -4.74581 0.999893 0
M  V30 14441 H 1385.06 -4.60483 -0.21819 0
M  V30 14442 H 1388.61 -6.42627 2.71435 0
M  V30 14443 H 1384.5 -6.28109 1.48826 0
M  V30 14444 H 1385.27 -7.56835 3.11678 0
M  V30 14445 N 1387.94 -0.0468143 -1.5753 0
M  V30 14446 C 1389.35 0.489509 -1.80169 0
M  V30 14447 C 1389.7 1.71184 -0.958669 0
M  V30 14448 O 1388.82 2.15699 -0.174025 0
M  V30 14449 C 1389.42 0.894838 -3.26769 0
M  V30 14450 C 1387.98 1.37617 -3.50341 0
M  V30 14451 C 1387.12 0.349275 -2.75092 0
M  V30 14452 H 1390.07 -0.272728 -1.56339 0
M  V30 14453 H 1390.1 1.75805 -3.3745 0
M  V30 14454 H 1389.61 0.00501096 -3.881 0
M  V30 14455 H 1387.71 2.28533 -2.94285 0
M  V30 14456 H 1387.82 1.37133 -4.59055 0
M  V30 14457 H 1386.19 0.821219 -2.41098 0
M  V30 14458 H 1386.97 -0.532391 -3.39147 0
M  V30 14459 N 1389.41 1.55964 0.226527 0
M  V30 14460 C 1390.66 1.7901 0.95306 0
M  V30 14461 C 1390.99 0.615608 1.84184 0
M  V30 14462 O 1390.27 -0.385341 1.90645 0
M  V30 14463 C 1390.55 3.12101 1.79624 0
M  V30 14464 C 1390.4 4.3999 0.934286 0
M  V30 14465 C 1391.72 3.4159 2.77496 0
M  V30 14466 H 1388.84 0.651236 0.345052 0
M  V30 14467 H 1391.48 1.88696 0.222236 0
M  V30 14468 H 1389.63 3.03975 2.41933 0
M  V30 14469 H 1391.31 4.6013 0.328328 0
M  V30 14470 H 1389.55 4.33138 0.239487 0
M  V30 14471 H 1390.22 5.29541 1.55853 0
M  V30 14472 H 1392.7 3.49812 2.25323 0
M  V30 14473 H 1391.57 4.35894 3.33599 0
M  V30 14474 H 1391.83 2.6351 3.54986 0
M  V30 14475 N 1390.89 -0.493031 1.4969 0
M  V30 14476 C 1392.12 -1.27517 1.63567 0
M  V30 14477 C 1392.54 -1.85526 0.310105 0
M  V30 14478 O 1391.9 -1.66246 -0.723314 0
M  V30 14479 C 1391.95 -2.37551 2.71296 0
M  V30 14480 O 1391.05 -3.41617 2.31023 0
M  V30 14481 H 1390.39 -0.376116 0.547205 0
M  V30 14482 H 1392.92 -0.589328 1.95929 0
M  V30 14483 H 1392.93 -2.83196 2.93708 0
M  V30 14484 H 1391.61 -1.94697 3.67513 0
M  V30 14485 H 1390.19 -3.01836 2.18974 0
M  V30 14486 N 1392.37 -1.38898 -0.744656 0
M  V30 14487 C 1393.62 -1.35595 -1.50401 0
M  V30 14488 C 1393.95 0.0511979 -1.94433 0
M  V30 14489 O 1393.2 1.03011 -1.66395 0
M  V30 14490 C 1393.5 -2.2658 -2.76398 0
M  V30 14491 C 1393.17 -3.74389 -2.51283 0
M  V30 14492 C 1391.83 -4.14666 -2.44143 0
M  V30 14493 C 1394.18 -4.67916 -2.29573 0
M  V30 14494 C 1391.51 -5.46545 -2.1332 0
M  V30 14495 C 1393.86 -6.00063 -2.00269 0
M  V30 14496 C 1392.52 -6.39413 -1.91591 0
M  V30 14497 H 1391.79 -0.496176 -0.550355 0
M  V30 14498 H 1394.44 -1.71328 -0.855514 0
M  V30 14499 H 1392.75 -1.83933 -3.45942 0
M  V30 14500 H 1394.44 -2.21323 -3.34391 0
M  V30 14501 H 1391.03 -3.42463 -2.57715 0
M  V30 14502 H 1395.22 -4.37639 -2.34063 0
M  V30 14503 H 1390.47 -5.75966 -2.05117 0
M  V30 14504 H 1394.65 -6.72068 -1.82476 0
M  V30 14505 H 1392.27 -7.41524 -1.67472 0
M  V30 14506 N 1393.85 0.973806 -1.23914 0
M  V30 14507 C 1394.76 2.10138 -1.04304 0
M  V30 14508 C 1395.77 1.73994 0.0143888 0
M  V30 14509 O 1396.95 2.00572 -0.182481 0
M  V30 14510 C 1394.02 3.40673 -0.643639 0
M  V30 14511 C 1393.08 3.90802 -1.77686 0
M  V30 14512 C 1392.31 5.15108 -1.39642 0
M  V30 14513 O 1392.53 5.69695 -0.283546 0
M  V30 14514 O 1391.47 5.59468 -2.21988 0
M  V30 14515 H 1395.29 2.29574 -1.9882 0
M  V30 14516 H 1392.88 1.08524 -1.02679 0
M  V30 14517 H 1394.76 4.19178 -0.432145 0
M  V30 14518 H 1393.43 3.22551 0.272458 0
M  V30 14519 H 1392.34 3.13385 -2.04305 0
M  V30 14520 H 1393.67 4.1339 -2.67151 0
M  V30 14521 N 1395.33 1.05191 1.17357 0
M  V30 14522 C 1396.57 0.760479 1.87246 0
M  V30 14523 C 1396.9 -0.714618 1.81434 0
M  V30 14524 O 1396.17 -1.51636 1.24029 0
M  V30 14525 H 1394.75 0.278317 0.693216 0
M  V30 14526 H 1397.41 1.33106 1.42369 0
M  V30 14527 H 1396.5 1.07542 2.92987 0
M  V30 14528 N 1396.8 -1.33791 0.83293 0
M  V30 14529 C 1398.22 -1.80336 0.483294 0
M  V30 14530 C 1398.57 -1.68969 -0.997195 0
M  V30 14531 O 1397.69 -1.23549 -1.77664 0
M  V30 14532 C 1398.29 -3.27427 0.870475 0
M  V30 14533 C 1396.85 -3.72012 0.573064 0
M  V30 14534 C 1395.99 -2.55319 1.08201 0
M  V30 14535 H 1398.94 -1.21396 1.02218 0
M  V30 14536 H 1398.96 -3.80083 0.178173 0
M  V30 14537 H 1398.48 -3.35668 1.94804 0
M  V30 14538 H 1396.58 -3.69302 -0.494678 0
M  V30 14539 H 1396.69 -4.65725 1.12414 0
M  V30 14540 H 1395.05 -2.49681 0.503123 0
M  V30 14541 H 1395.84 -2.66326 2.16623 0
M  V30 14542 N 1398.28 -0.588812 -1.46187 0
M  V30 14543 C 1399.53 -0.0765765 -2.01955 0
M  V30 14544 C 1399.85 1.29034 -1.46203 0
M  V30 14545 O 1399.12 1.84836 -0.649044 0
M  V30 14546 H 1397.7 -0.025318 -0.746571 0
M  V30 14547 H 1400.36 -0.765971 -1.79217 0
M  V30 14548 H 1399.46 -0.0121702 -3.12098 0
M  V30 14549 N 1399.76 1.54172 -0.326923 0
M  V30 14550 C 1400.69 2.27402 0.530154 0
M  V30 14551 C 1401.67 1.28325 1.11655 0
M  V30 14552 O 1402.86 1.57142 1.14105 0
M  V30 14553 C 1399.99 3.03435 1.68951 0
M  V30 14554 C 1398.94 4.09877 1.23226 0
M  V30 14555 C 1398.27 4.7377 2.47882 0
M  V30 14556 C 1399.57 5.21161 0.344698 0
M  V30 14557 H 1401.26 2.99291 -0.0806959 0
M  V30 14558 H 1398.81 1.43944 -0.0402511 0
M  V30 14559 H 1400.76 3.53396 2.29541 0
M  V30 14560 H 1399.48 2.29169 2.327 0
M  V30 14561 H 1398.14 3.60805 0.649267 0
M  V30 14562 H 1397.79 3.96116 3.10002 0
M  V30 14563 H 1397.49 5.45674 2.17977 0
M  V30 14564 H 1399.01 5.26507 3.09229 0
M  V30 14565 H 1400.43 5.66859 0.856979 0
M  V30 14566 H 1398.83 5.99941 0.138276 0
M  V30 14567 H 1399.9 4.80874 -0.623575 0
M  V30 14568 N 1401.24 0.0551678 1.57503 0
M  V30 14569 C 1402.48 -0.618636 1.93134 0
M  V30 14570 C 1402.82 -1.70258 0.934125 0
M  V30 14571 O 1402.09 -1.9446 -0.0392699 0
M  V30 14572 C 1402.38 -1.21103 3.39126 0
M  V30 14573 C 1402.23 -0.134865 4.49598 0
M  V30 14574 C 1403.55 -2.12148 3.85592 0
M  V30 14575 H 1400.67 -0.223416 0.702321 0
M  V30 14576 H 1403.31 0.117748 1.89635 0
M  V30 14577 H 1401.46 -1.83862 3.42238 0
M  V30 14578 H 1403.13 0.497292 4.58612 0
M  V30 14579 H 1401.37 0.536587 4.30469 0
M  V30 14580 H 1402.04 -0.589447 5.48844 0
M  V30 14581 H 1404.52 -1.59346 3.8438 0
M  V30 14582 H 1403.4 -2.50539 4.88387 0
M  V30 14583 H 1403.66 -3.02318 3.22578 0
M  V30 14584 N 1402.72 -1.56081 -0.218252 0
M  V30 14585 C 1403.63 -1.95856 -1.29141 0
M  V30 14586 C 1404.64 -0.862857 -1.51099 0
M  V30 14587 O 1405.82 -1.1667 -1.64165 0
M  V30 14588 C 1402.88 -2.27005 -2.62049 0
M  V30 14589 C 1401.94 -3.50162 -2.48365 0
M  V30 14590 C 1401.18 -3.79815 -3.74935 0
M  V30 14591 O 1401.4 -3.11095 -4.78096 0
M  V30 14592 O 1400.33 -4.73299 -3.71849 0
M  V30 14593 H 1404.16 -2.8732 -0.983922 0
M  V30 14594 H 1401.75 -1.43334 -0.421385 0
M  V30 14595 H 1403.63 -2.4822 -3.40536 0
M  V30 14596 H 1402.3 -1.38715 -2.92472 0
M  V30 14597 H 1401.21 -3.34222 -1.68066 0
M  V30 14598 H 1402.54 -4.38845 -2.22881 0
M  V30 14599 N 1404.2 0.485086 -1.49949 0
M  V30 14600 C 1405.44 1.23999 -1.60474 0
M  V30 14601 C 1405.77 1.91904 -0.297736 0
M  V30 14602 O 1405.05 1.81472 0.699857 0
M  V30 14603 C 1405.33 2.2946 -2.77525 0
M  V30 14604 C 1405.19 1.65952 -4.18067 0
M  V30 14605 C 1406.5 3.30893 -2.90169 0
M  V30 14606 H 1403.62 0.449462 -0.584083 0
M  V30 14607 H 1406.27 0.535795 -1.82289 0
M  V30 14608 H 1404.42 2.89521 -2.59056 0
M  V30 14609 H 1406.09 1.09596 -4.48092 0
M  V30 14610 H 1404.33 0.963079 -4.22974 0
M  V30 14611 H 1405 2.42521 -4.9587 0
M  V30 14612 H 1407.48 2.8084 -3.07031 0
M  V30 14613 H 1406.35 4.02027 -3.73718 0
M  V30 14614 H 1406.61 3.94178 -2.0019 0
M  V30 14615 N 1405.67 1.39291 0.737279 0
M  V30 14616 C 1406.61 1.33728 1.86144 0
M  V30 14617 C 1407.62 0.246468 1.60924 0
M  V30 14618 O 1408.81 0.505252 1.712 0
M  V30 14619 C 1405.91 1.05312 3.22122 0
M  V30 14620 C 1405.08 2.25624 3.74716 0
M  V30 14621 C 1404.14 1.937 4.89251 0
M  V30 14622 O 1403.17 2.66361 5.03031 0
M  V30 14623 N 1404.37 0.901782 5.73453 0
M  V30 14624 H 1407.13 2.30604 1.91421 0
M  V30 14625 H 1404.69 1.33364 0.917919 0
M  V30 14626 H 1406.69 0.819784 3.9631 0
M  V30 14627 H 1405.26 0.171773 3.12128 0
M  V30 14628 H 1404.48 2.64923 2.91906 0
M  V30 14629 H 1405.76 3.05881 4.06589 0
M  V30 14630 H 1405.16 0.299553 5.64906 0
M  V30 14631 H 1403.72 0.728344 6.47718 0
M  V30 14632 N 1407.15 -0.967221 1.24429 0
M  V30 14633 C 1408.06 -2.09582 1.05417 0
M  V30 14634 C 1409.08 -1.73999 -0.00516127 0
M  V30 14635 O 1410.25 -2.00472 0.193115 0
M  V30 14636 C 1407.32 -3.40327 0.661697 0
M  V30 14637 C 1406.38 -3.89854 1.79756 0
M  V30 14638 C 1405.61 -5.1436 1.42372 0
M  V30 14639 O 1405.84 -5.69536 0.313754 0
M  V30 14640 O 1404.77 -5.58283 2.24952 0
M  V30 14641 H 1408.6 -2.28517 2.00034 0
M  V30 14642 H 1406.18 -1.07978 1.03253 0
M  V30 14643 H 1408.06 -4.18943 0.454369 0
M  V30 14644 H 1406.74 -3.22691 -0.255348 0
M  V30 14645 H 1405.64 -3.12297 2.05964 0
M  V30 14646 H 1406.98 -4.11967 2.69339 0
M  V30 14647 N 1408.63 -1.05812 -1.16797 0
M  V30 14648 C 1409.85 -0.792518 -1.91661 0
M  V30 14649 C 1410.28 0.646598 -1.76637 0
M  V30 14650 O 1409.64 1.44998 -1.08836 0
M  V30 14651 C 1409.69 -1.18585 -3.40544 0
M  V30 14652 O 1408.79 -0.321716 -4.11143 0
M  V30 14653 H 1408.13 -0.290066 -0.597292 0
M  V30 14654 H 1410.66 -1.41263 -1.48007 0
M  V30 14655 H 1410.67 -1.1553 -3.91301 0
M  V30 14656 H 1409.35 -2.23413 -3.50798 0
M  V30 14657 H 1407.92 -0.413403 -3.70601 0
M  V30 14658 N 1410.11 1.33347 -0.840014 0
M  V30 14659 C 1411.02 2.32965 -0.276527 0
M  V30 14660 C 1412.03 1.634 0.598037 0
M  V30 14661 O 1413.21 1.95046 0.501888 0
M  V30 14662 C 1410.27 3.42498 0.53816 0
M  V30 14663 C 1409.34 4.27781 -0.360814 0
M  V30 14664 C 1408.57 5.32083 0.415085 0
M  V30 14665 O 1408.79 5.46115 1.64666 0
M  V30 14666 O 1407.73 6.01528 -0.211503 0
M  V30 14667 H 1411.55 2.83022 -1.10147 0
M  V30 14668 H 1409.14 1.3671 -0.602566 0
M  V30 14669 H 1411.02 4.09336 1.00108 0
M  V30 14670 H 1409.69 2.94655 1.34015 0
M  V30 14671 H 1408.6 3.63805 -0.871598 0
M  V30 14672 H 1409.93 4.7911 -1.1276 0
M  V30 14673 N 1411.59 0.596556 1.45873 0
M  V30 14674 C 1412.82 0.093357 2.06389 0
M  V30 14675 C 1413.22 -1.2229 1.44367 0
M  V30 14676 O 1412.57 -1.75332 0.548131 0
M  V30 14677 C 1412.63 -0.132256 3.59257 0
M  V30 14678 C 1412.29 1.10051 4.43551 0
M  V30 14679 C 1413.29 2.01598 4.79223 0
M  V30 14680 C 1410.97 1.32625 4.84475 0
M  V30 14681 C 1412.97 3.14054 5.54661 0
M  V30 14682 C 1410.66 2.45384 5.5967 0
M  V30 14683 C 1411.65 3.35927 5.94678 0
M  V30 14684 O 1411.34 4.46726 6.6835 0
M  V30 14685 H 1411.07 0.0608944 0.673252 0
M  V30 14686 H 1413.63 0.821009 1.88278 0
M  V30 14687 H 1411.86 -0.914678 3.75727 0
M  V30 14688 H 1413.55 -0.585681 4.01652 0
M  V30 14689 H 1414.31 1.85379 4.48174 0
M  V30 14690 H 1410.19 0.630522 4.56668 0
M  V30 14691 H 1413.74 3.8475 5.81904 0
M  V30 14692 H 1409.63 2.6156 5.90133 0
M  V30 14693 H 1410.4 4.45268 6.86789 0
M  V30 14694 N 1413.06 -1.53996 0.335095 0
M  V30 14695 C 1414.29 -2.0489 -0.265245 0
M  V30 14696 C 1414.7 -1.21024 -1.4543 0
M  V30 14697 O 1414.04 -0.236417 -1.82172 0
M  V30 14698 C 1414.11 -3.51546 -0.752018 0
M  V30 14699 C 1413.77 -4.55904 0.316261 0
M  V30 14700 C 1414.77 -5.06881 1.15617 0
M  V30 14701 C 1412.45 -5.00117 0.467762 0
M  V30 14702 C 1414.45 -6.00644 2.13321 0
M  V30 14703 C 1412.13 -5.93692 1.4482 0
M  V30 14704 C 1413.13 -6.43842 2.27938 0
M  V30 14705 O 1412.82 -7.35578 3.24315 0
M  V30 14706 H 1412.55 -0.673631 -0.0565427 0
M  V30 14707 H 1415.11 -1.99646 0.482771 0
M  V30 14708 H 1413.34 -3.54227 -1.55114 0
M  V30 14709 H 1415.02 -3.85455 -1.27197 0
M  V30 14710 H 1415.79 -4.73494 1.05017 0
M  V30 14711 H 1411.67 -4.60689 -0.169338 0
M  V30 14712 H 1415.21 -6.39711 2.78236 0
M  V30 14713 H 1411.11 -6.26495 1.5548 0
M  V30 14714 H 1411.88 -7.53487 3.19688 0
M  V30 14715 N 1414.54 -0.0635198 -1.57472 0
M  V30 14716 C 1415.95 0.470372 -1.80678 0
M  V30 14717 C 1416.3 1.70158 -0.976771 0
M  V30 14718 O 1415.43 2.15502 -0.196893 0
M  V30 14719 C 1416.02 0.860129 -3.277 0
M  V30 14720 C 1414.58 1.33893 -3.51781 0
M  V30 14721 C 1413.73 0.320078 -2.75447 0
M  V30 14722 H 1416.68 -0.289295 -1.56041 0
M  V30 14723 H 1416.7 1.72216 -3.39296 0
M  V30 14724 H 1416.21 -0.0361525 -3.88083 0
M  V30 14725 H 1414.31 2.25399 -2.96692 0
M  V30 14726 H 1414.43 1.32257 -4.60483 0
M  V30 14727 H 1412.79 0.795601 -2.41955 0
M  V30 14728 H 1413.57 -0.568332 -3.38563 0
M  V30 14729 N 1416.02 1.56195 0.209972 0
M  V30 14730 C 1416.97 1.93355 1.26026 0
M  V30 14731 C 1417.94 0.792195 1.45991 0
M  V30 14732 O 1419.12 1.04909 1.5937 0
M  V30 14733 C 1416.26 2.26558 2.60318 0
M  V30 14734 C 1415.37 3.53685 2.48055 0
M  V30 14735 C 1414.51 3.76279 3.7495 0
M  V30 14736 C 1413.55 4.96881 3.57457 0
M  V30 14737 N 1412.69 5.15806 4.76328 0
M  V30 14738 H 1417.53 2.82907 0.936357 0
M  V30 14739 H 1415.06 1.40015 0.451022 0
M  V30 14740 H 1417.02 2.43821 3.38537 0
M  V30 14741 H 1415.65 1.40165 2.90781 0
M  V30 14742 H 1414.7 3.44551 1.61211 0
M  V30 14743 H 1416.01 4.42057 2.31056 0
M  V30 14744 H 1415.17 3.93702 4.6161 0
M  V30 14745 H 1413.91 2.86209 3.94887 0
M  V30 14746 H 1412.91 4.79397 2.69181 0
M  V30 14747 H 1414.14 5.88447 3.38979 0
M  V30 14748 H 1412.08 4.28681 4.96557 0
M  V30 14749 H 1412 5.98332 4.62099 0
M  V30 14750 H 1413.27 5.37674 5.64382 0
M  V30 14751 N 1417.5 -0.477127 1.50204 0
M  V30 14752 C 1418.91 -0.81037 1.37496 0
M  V30 14753 C 1419.11 -1.96937 0.426399 0
M  V30 14754 O 1418.17 -2.52148 -0.133197 0
M  V30 14755 C 1419.48 -1.12811 2.78737 0
M  V30 14756 C 1421.03 -1.23492 2.87608 0
M  V30 14757 C 1421.51 -1.58583 4.29669 0
M  V30 14758 N 1423 -1.65586 4.32591 0
M  V30 14759 C 1423.73 -1.94231 5.39502 0
M  V30 14760 N 1423.23 -2.20936 6.56627 0
M  V30 14761 N 1425.02 -1.95682 5.26939 0
M  V30 14762 H 1417.17 0.286771 2.10455 0
M  V30 14763 H 1419.43 0.0657649 0.945716 0
M  V30 14764 H 1419.14 -0.349616 3.49958 0
M  V30 14765 H 1419.01 -2.0658 3.15602 0
M  V30 14766 H 1421.4 -2.0041 2.1661 0
M  V30 14767 H 1421.48 -0.277182 2.54294 0
M  V30 14768 H 1421.13 -0.822071 5.01203 0
M  V30 14769 H 1421.06 -2.55497 4.60466 0
M  V30 14770 H 1423.55 -1.47012 3.48132 0
M  V30 14771 H 1423.86 -2.42049 7.33916 0
M  V30 14772 H 1422.21 -2.18341 6.59812 0
M  V30 14773 H 1425.4 -1.74311 4.34434 0
M  V30 14774 H 1425.57 -2.1767 6.10347 0
M  V30 14775 N 1418.98 -1.3968 -0.729882 0
M  V30 14776 C 1420.21 -1.40263 -1.5169 0
M  V30 14777 C 1420.61 0.00325293 -1.892 0
M  V30 14778 O 1419.96 0.986225 -1.54982 0
M  V30 14779 C 1420.02 -2.21629 -2.83056 0
M  V30 14780 C 1419.68 -3.70204 -2.67951 0
M  V30 14781 C 1420.68 -4.63169 -2.36158 0
M  V30 14782 C 1418.37 -4.13851 -2.84662 0
M  V30 14783 C 1420.36 -5.97763 -2.21265 0
M  V30 14784 C 1418.05 -5.4852 -2.69387 0
M  V30 14785 C 1419.04 -6.4029 -2.37734 0
M  V30 14786 O 1418.73 -7.72478 -2.22561 0
M  V30 14787 H 1418.46 -0.480808 -0.475184 0
M  V30 14788 H 1421.02 -1.84184 -0.909136 0
M  V30 14789 H 1419.25 -1.72465 -3.46111 0
M  V30 14790 H 1420.94 -2.14328 -3.447 0
M  V30 14791 H 1421.7 -4.30748 -2.22893 0
M  V30 14792 H 1417.58 -3.42751 -3.0829 0
M  V30 14793 H 1421.13 -6.69359 -1.96481 0
M  V30 14794 H 1417.02 -5.8053 -2.82232 0
M  V30 14795 H 1417.79 -7.83258 -2.37591 0
M  V30 14796 N 1420.45 0.960609 -1.2494 0
M  V30 14797 C 1421.39 2.05948 -1.00588 0
M  V30 14798 C 1422.4 1.62777 0.0271261 0
M  V30 14799 O 1423.59 1.77252 -0.210739 0
M  V30 14800 C 1420.69 3.35228 -0.497521 0
M  V30 14801 C 1419.86 4.0727 -1.59531 0
M  V30 14802 C 1418.92 5.14822 -1.08836 0
M  V30 14803 O 1417.95 5.40602 -1.78153 0
M  V30 14804 N 1419.15 5.80453 0.0735067 0
M  V30 14805 H 1421.91 2.27411 -1.95204 0
M  V30 14806 H 1419.47 1.12874 -1.16065 0
M  V30 14807 H 1421.47 4.04447 -0.142979 0
M  V30 14808 H 1420.04 3.10583 0.354546 0
M  V30 14809 H 1419.26 3.32231 -2.12171 0
M  V30 14810 H 1420.54 4.52161 -2.33299 0
M  V30 14811 H 1419.94 5.6192 0.652848 0
M  V30 14812 H 1418.5 6.50754 0.369132 0
M  V30 14813 N 1421.93 1.0643 1.16234 0
M  V30 14814 C 1423.16 0.802671 1.91238 0
M  V30 14815 C 1423.58 -0.637222 1.76978 0
M  V30 14816 O 1422.94 -1.44419 1.09603 0
M  V30 14817 C 1422.99 1.20389 3.3991 0
M  V30 14818 O 1422.09 0.343516 4.10967 0
M  V30 14819 H 1421.43 0.29323 0.595745 0
M  V30 14820 H 1423.96 1.42046 1.47255 0
M  V30 14821 H 1423.97 1.17604 3.90683 0
M  V30 14822 H 1422.65 2.2527 3.49608 0
M  V30 14823 H 1421.23 0.433051 3.70377 0
M  V30 14824 N 1423.41 -1.329 0.847073 0
M  V30 14825 C 1424.36 -2.26534 0.258111 0
M  V30 14826 C 1425.34 -1.49627 -0.591653 0
M  V30 14827 O 1426.54 -1.71385 -0.442277 0
M  V30 14828 C 1423.67 -3.38719 -0.558969 0
M  V30 14829 C 1422.75 -4.23018 0.30276 0
M  V30 14830 N 1423.14 -4.86457 1.38541 0
M  V30 14831 C 1421.44 -4.45907 0.0911992 0
M  V30 14832 C 1422.14 -5.49277 1.91492 0
M  V30 14833 N 1421.12 -5.29843 1.21519 0
M  V30 14834 H 1424.92 -2.73103 1.0859 0
M  V30 14835 H 1422.43 -1.46901 0.692386 0
M  V30 14836 H 1424.43 -4.04797 -0.997259 0
M  V30 14837 H 1423.09 -2.93697 -1.38464 0
M  V30 14838 H 1424.1 -4.86776 1.76832 0
M  V30 14839 H 1420.78 -4.11584 -0.70037 0
M  V30 14840 H 1422.17 -6.09764 2.82201 0
M  V30 14841 N 1424.89 -0.604284 -1.45555 0
M  V30 14842 C 1426.13 -0.0983316 -2.02561 0
M  V30 14843 C 1426.47 1.26659 -1.47211 0
M  V30 14844 O 1425.74 1.83476 -0.645519 0
M  V30 14845 C 1426.03 -0.0558349 -3.60057 0
M  V30 14846 C 1425.88 -1.45119 -4.25747 0
M  V30 14847 C 1427.2 0.633708 -4.35514 0
M  V30 14848 H 1424.32 -0.0372071 -0.73606 0
M  V30 14849 H 1426.96 -0.775623 -1.73448 0
M  V30 14850 H 1425.11 0.520935 -3.84992 0
M  V30 14851 H 1426.78 -2.07478 -4.12008 0
M  V30 14852 H 1425.02 -2.01283 -3.84275 0
M  V30 14853 H 1425.69 -1.37372 -5.34633 0
M  V30 14854 H 1428.17 0.143501 -4.15852 0
M  V30 14855 H 1427.05 0.632538 -5.45243 0
M  V30 14856 H 1427.31 1.69917 -4.08143 0
M  V30 14857 N 1426.37 1.53816 -0.343257 0
M  V30 14858 C 1427.3 2.27951 0.506005 0
M  V30 14859 C 1428.28 1.29502 1.10287 0
M  V30 14860 O 1429.46 1.58344 1.12432 0
M  V30 14861 C 1426.59 3.0521 1.65723 0
M  V30 14862 C 1425.55 4.11161 1.18871 0
M  V30 14863 C 1424.87 4.76373 2.42843 0
M  V30 14864 C 1426.17 5.21498 0.289403 0
M  V30 14865 H 1427.87 2.99189 -0.112435 0
M  V30 14866 H 1425.41 1.43893 -0.055516 0
M  V30 14867 H 1427.37 3.55811 2.2578 0
M  V30 14868 H 1426.09 2.31624 2.30256 0
M  V30 14869 H 1424.75 3.61473 0.610962 0
M  V30 14870 H 1424.4 3.99381 3.05784 0
M  V30 14871 H 1424.1 5.47955 2.12177 0
M  V30 14872 H 1425.62 5.29758 3.03627 0
M  V30 14873 H 1427.03 5.67736 0.796808 0
M  V30 14874 H 1425.43 6.00054 0.0746366 0
M  V30 14875 H 1426.5 4.80185 -0.674543 0
M  V30 14876 N 1427.84 0.0718701 1.57436 0
M  V30 14877 C 1428.77 -0.89288 2.15754 0
M  V30 14878 C 1429.76 -1.31036 1.0846 0
M  V30 14879 O 1430.94 -1.38139 1.36496 0
M  V30 14880 C 1428.07 -2.16044 2.71923 0
M  V30 14881 C 1427.02 -1.88236 3.84384 0
M  V30 14882 C 1426.35 -3.21624 4.27156 0
M  V30 14883 C 1427.65 -1.18758 5.0862 0
M  V30 14884 H 1429.34 -0.407061 2.9662 0
M  V30 14885 H 1426.89 -0.194354 1.42682 0
M  V30 14886 H 1428.84 -2.83952 3.11366 0
M  V30 14887 H 1427.57 -2.66868 1.88279 0
M  V30 14888 H 1426.23 -1.22734 3.45445 0
M  V30 14889 H 1425.87 -3.70289 3.40433 0
M  V30 14890 H 1425.57 -3.03809 5.02965 0
M  V30 14891 H 1427.1 -3.90729 4.69215 0
M  V30 14892 H 1428.51 -1.76735 5.45378 0
M  V30 14893 H 1426.91 -1.11201 5.89707 0
M  V30 14894 H 1427.98 -0.166682 4.84613 0
M  V30 14895 N 1429.32 -1.56304 -0.201686 0
M  V30 14896 C 1430.29 -1.93171 -1.2336 0
M  V30 14897 C 1431.29 -0.812164 -1.38782 0
M  V30 14898 O 1432.48 -1.07967 -1.36707 0
M  V30 14899 C 1429.61 -2.19997 -2.60411 0
M  V30 14900 H 1430.8 -2.85483 -0.918654 0
M  V30 14901 H 1428.35 -1.49893 -0.442935 0
M  V30 14902 H 1429.09 -1.30301 -2.96972 0
M  V30 14903 H 1428.87 -3.01574 -2.5059 0
M  V30 14904 H 1430.36 -2.49547 -3.34838 0
M  V30 14905 N 1430.8 0.469154 -1.50455 0
M  V30 14906 C 1431.76 1.5493 -1.68906 0
M  V30 14907 C 1432.76 1.50744 -0.559721 0
M  V30 14908 O 1433.95 1.5333 -0.826781 0
M  V30 14909 C 1431.09 2.94556 -1.71609 0
M  V30 14910 H 1432.28 1.39887 -2.65276 0
M  V30 14911 H 1429.83 0.695667 -1.39965 0
M  V30 14912 H 1430.57 3.15041 -0.769382 0
M  V30 14913 H 1430.35 2.99002 -2.53654 0
M  V30 14914 H 1431.84 3.72973 -1.87831 0
M  V30 14915 N 1432.28 1.40065 0.722464 0
M  V30 14916 C 1433.53 1.37698 1.47932 0
M  V30 14917 C 1433.85 -0.0222608 1.94987 0
M  V30 14918 O 1433.12 -0.975795 1.69868 0
M  V30 14919 H 1431.7 0.506766 0.548815 0
M  V30 14920 H 1434.36 1.75053 0.856884 0
M  V30 14921 H 1433.46 2.04756 2.35545 0
M  V30 14922 N 1433.76 -0.95397 1.25448 0
M  V30 14923 C 1435 -1.69866 1.10235 0
M  V30 14924 C 1435.33 -1.91204 -0.356552 0
M  V30 14925 O 1434.59 -1.4811 -1.27914 0
M  V30 14926 C 1434.89 -3.08613 1.80258 0
M  V30 14927 C 1434.55 -3.07072 3.30178 0
M  V30 14928 C 1433.21 -3.0636 3.71076 0
M  V30 14929 C 1435.57 -3.00351 4.25956 0
M  V30 14930 C 1432.89 -2.96675 5.06163 0
M  V30 14931 C 1435.25 -2.92209 5.61067 0
M  V30 14932 C 1433.91 -2.89832 6.01293 0
M  V30 14933 H 1433.18 -0.621583 0.40338 0
M  V30 14934 H 1435.83 -1.11448 1.55729 0
M  V30 14935 H 1434.13 -3.70578 1.27197 0
M  V30 14936 H 1435.83 -3.65055 1.6594 0
M  V30 14937 H 1432.42 -3.084 2.97637 0
M  V30 14938 H 1436.6 -3.0002 3.9535 0
M  V30 14939 H 1431.86 -2.93204 5.36508 0
M  V30 14940 H 1436.03 -2.8597 6.34976 0
M  V30 14941 H 1433.66 -2.82084 7.05927 0
M  V30 14942 N 1435.24 -1.07045 -1.15668 0
M  V30 14943 C 1436.46 -0.812802 -1.9081 0
M  V30 14944 C 1436.89 0.627827 -1.77313 0
M  V30 14945 O 1436.24 1.43836 -1.10368 0
M  V30 14946 C 1436.29 -1.2219 -3.39267 0
M  V30 14947 O 1435.4 -0.365305 -4.10779 0
M  V30 14948 H 1434.74 -0.296385 -0.594182 0
M  V30 14949 H 1437.27 -1.42825 -1.465 0
M  V30 14950 H 1437.28 -1.19674 -3.90054 0
M  V30 14951 H 1435.95 -2.27121 -3.48409 0
M  V30 14952 H 1434.53 -0.452687 -3.70142 0
M  V30 14953 N 1436.71 1.32449 -0.85411 0
M  V30 14954 C 1437.62 2.32658 -0.301221 0
M  V30 14955 C 1438.64 1.64025 0.580673 0
M  V30 14956 O 1439.82 1.95568 0.481172 0
M  V30 14957 C 1436.88 3.43049 0.501803 0
M  V30 14958 C 1435.94 4.27374 -0.406166 0
M  V30 14959 C 1435.17 5.32494 0.358627 0
M  V30 14960 O 1435.4 5.4783 1.58865 0
M  V30 14961 O 1434.33 6.0127 -0.275291 0
M  V30 14962 H 1438.16 2.81838 -1.13143 0
M  V30 14963 H 1435.74 1.36063 -0.617032 0
M  V30 14964 H 1437.62 4.10375 0.957608 0
M  V30 14965 H 1436.3 2.9606 1.30882 0
M  V30 14966 H 1435.21 3.6286 -0.910136 0
M  V30 14967 H 1436.54 4.77887 -1.17835 0
M  V30 14968 N 1438.19 0.611994 1.45232 0
M  V30 14969 C 1439.6 0.193464 1.85695 0
M  V30 14970 C 1439.95 -1.25069 1.5117 0
M  V30 14971 O 1439.08 -1.94894 0.940497 0
M  V30 14972 C 1439.67 0.344334 3.37046 0
M  V30 14973 C 1438.23 -0.0195378 3.76395 0
M  V30 14974 C 1437.38 0.666714 2.69166 0
M  V30 14975 H 1440.33 0.818395 1.35971 0
M  V30 14976 H 1440.35 -0.422209 3.7815 0
M  V30 14977 H 1439.86 1.3955 3.62143 0
M  V30 14978 H 1437.96 -1.06971 3.56915 0
M  V30 14979 H 1438.08 0.377184 4.77613 0
M  V30 14980 H 1436.44 0.103912 2.54488 0
M  V30 14981 H 1437.22 1.7201 2.97099 0
M  V30 14982 N 1439.67 -1.53632 0.351409 0
M  V30 14983 C 1440.92 -2.00643 -0.242208 0
M  V30 14984 C 1441.24 -1.24074 -1.50435 0
M  V30 14985 O 1440.51 -0.350067 -1.92747 0
M  V30 14986 H 1439.09 -0.741252 -0.0924904 0
M  V30 14987 H 1441.75 -1.89039 0.474379 0
M  V30 14988 H 1440.85 -3.084 -0.479151 0
M  V30 14989 N 1441.15 -0.0802183 -1.57396 0
M  V30 14990 C 1442.42 0.628419 -1.8523 0
M  V30 14991 C 1442.8 1.87272 -0.974288 0
M  V30 14992 O 1442.15 2.2846 -0.0427687 0
M  V30 14993 C 1442.36 0.958033 -3.35593 0
M  V30 14994 C 1443.71 1.3279 -4.03301 0
M  V30 14995 O 1444.73 1.04951 -3.40388 0
M  V30 14996 O 1443.59 1.84865 -5.14283 0
M  V30 14997 H 1440.69 0.312945 -0.765503 0
M  V30 14998 H 1443.23 -0.111788 -1.69331 0
M  V30 14999 H 1442.01 0.074648 -3.91229 0
M  V30 15000 H 1441.63 1.75472 -3.56785 0
M  V30 15001 N 1442.63 1.56409 0.193394 0
M  V30 15002 C 1443.87 1.82511 0.920268 0
M  V30 15003 C 1444.23 0.657957 1.80374 0
M  V30 15004 O 1445.43 0.798914 2.56653 0
M  V30 15005 C 1443.7 3.13644 1.71354 0
M  V30 15006 S 1445.26 3.61158 2.4922 0
M  V30 15007 H 1442.08 0.64052 0.308634 0
M  V30 15008 H 1444.68 1.94637 0.183542 0
M  V30 15009 H 1443.38 3.96604 1.05514 0
M  V30 15010 H 1442.92 3.04402 2.49205 0
M  V30 15011 H 1444.93 3.26729 3.73447 0
M  V30 15012 N 1444.1 -0.461169 1.50702 0
M  V30 15013 C 1445.35 -1.21012 1.61866 0
M  V30 15014 C 1445.67 -1.9226 0.325736 0
M  V30 15015 O 1444.94 -1.84543 -0.657306 0
M  V30 15016 H 1443.52 -0.449671 0.596494 0
M  V30 15017 H 1446.18 -0.531056 1.87525 0
M  V30 15018 H 1445.28 -1.95266 2.4347 0
M  V30 15019 N 1445.58 -1.40446 -0.715026 0
M  V30 15020 C 1446.83 -1.3848 -1.47199 0
M  V30 15021 C 1447.15 0.0119198 -1.94996 0
M  V30 15022 O 1446.42 0.966772 -1.70383 0
M  V30 15023 H 1445 -0.509669 -0.54612 0
M  V30 15024 H 1447.66 -1.75505 -0.847588 0
M  V30 15025 H 1446.76 -2.06002 -2.34456 0
M  V30 15026 N 1447.06 0.947303 -1.25952 0
M  V30 15027 C 1448.31 1.68721 -1.10527 0
M  V30 15028 C 1448.62 1.92403 0.352215 0
M  V30 15029 O 1449.83 2.6416 0.627036 0
M  V30 15030 C 1448.28 3.03785 -1.92983 0
M  V30 15031 C 1447.89 2.87873 -3.43268 0
M  V30 15032 C 1449.64 3.81509 -1.86149 0
M  V30 15033 C 1447.54 4.18373 -4.17993 0
M  V30 15034 H 1446.47 0.632774 -0.410016 0
M  V30 15035 H 1449.12 1.054 -1.5021 0
M  V30 15036 H 1447.51 3.68052 -1.46128 0
M  V30 15037 H 1448.68 2.32493 -3.97848 0
M  V30 15038 H 1446.99 2.23598 -3.51273 0
M  V30 15039 H 1449.59 4.78179 -2.39267 0
M  V30 15040 H 1449.93 4.07923 -0.83091 0
M  V30 15041 H 1450.47 3.24005 -2.30794 0
M  V30 15042 H 1447.21 3.97145 -5.21494 0
M  V30 15043 H 1446.73 4.7349 -3.68194 0
M  V30 15044 H 1448.41 4.86869 -4.26108 0
M  V30 15045 N 1448.54 1.07657 1.15099 0
M  V30 15046 C 1449.47 0.721201 2.22083 0
M  V30 15047 C 1450.45 -0.292808 1.67561 0
M  V30 15048 O 1451.63 -0.164872 1.93499 0
M  V30 15049 C 1448.76 0.12153 3.47087 0
M  V30 15050 C 1447.72 1.06303 4.14588 0
M  V30 15051 C 1447.04 0.325964 5.33706 0
M  V30 15052 C 1448.34 2.39796 4.63999 0
M  V30 15053 H 1450.04 1.61566 2.52065 0
M  V30 15054 H 1447.58 0.778282 1.21156 0
M  V30 15055 H 1449.54 -0.139037 4.21171 0
M  V30 15056 H 1448.26 -0.808022 3.16447 0
M  V30 15057 H 1446.92 1.30858 3.4245 0
M  V30 15058 H 1446.57 -0.607147 4.99322 0
M  V30 15059 H 1446.27 0.953552 5.79811 0
M  V30 15060 H 1447.79 0.0732695 6.10556 0
M  V30 15061 H 1449.21 2.19552 5.29594 0
M  V30 15062 H 1447.6 2.98178 5.20778 0
M  V30 15063 H 1448.67 3.01876 3.79472 0
M  V30 15064 N 1450.02 -1.31994 0.861122 0
M  V30 15065 C 1451.43 -1.49756 0.551844 0
M  V30 15066 C 1451.63 -1.79473 -0.916056 0
M  V30 15067 O 1450.69 -1.86813 -1.69874 0
M  V30 15068 C 1452 -2.63737 1.44442 0
M  V30 15069 C 1453.55 -2.77621 1.44552 0
M  V30 15070 C 1454.02 -3.94689 2.32346 0
M  V30 15071 N 1455.52 -4.01961 2.30177 0
M  V30 15072 C 1456.25 -4.91794 2.94833 0
M  V30 15073 N 1455.75 -5.86589 3.68626 0
M  V30 15074 N 1457.54 -4.84968 2.84188 0
M  V30 15075 H 1449.69 -1.10972 1.81105 0
M  V30 15076 H 1451.95 -0.54753 0.773896 0
M  V30 15077 H 1451.66 -2.48526 2.48853 0
M  V30 15078 H 1451.53 -3.59671 1.13651 0
M  V30 15079 H 1453.92 -2.92251 0.409034 0
M  V30 15080 H 1454 -1.8238 1.79363 0
M  V30 15081 H 1453.65 -3.80817 3.36067 0
M  V30 15082 H 1453.58 -4.89219 1.94865 0
M  V30 15083 H 1456.07 -3.34132 1.76533 0
M  V30 15084 H 1456.38 -6.51846 4.15111 0
M  V30 15085 H 1454.72 -5.86596 3.72734 0
M  V30 15086 H 1457.92 -4.09883 2.26084 0
M  V30 15087 H 1458.09 -5.54774 3.34857 0
M  V30 15088 N 1451.49 -0.619688 -1.44906 0
M  V30 15089 C 1452.73 -0.122796 -2.04031 0
M  V30 15090 C 1453.1 1.2279 -1.47603 0
M  V30 15091 O 1454.3 1.81623 -1.98158 0
M  V30 15092 C 1452.57 -0.0968883 -3.57269 0
M  V30 15093 S 1454.13 0.33705 -4.37504 0
M  V30 15094 H 1450.95 -0.0554816 -0.708832 0
M  V30 15095 H 1453.55 -0.82051 -1.77448 0
M  V30 15096 H 1452.25 -1.08324 -3.95846 0
M  V30 15097 H 1451.78 0.622437 -3.88445 0
M  V30 15098 H 1453.8 1.58388 -4.70242 0
M  V30 15099 N 1452.97 1.53444 -0.359552 0
M  V30 15100 C 1453.88 2.29257 0.497834 0
M  V30 15101 C 1454.9 1.34987 1.09793 0
M  V30 15102 O 1456.07 1.68039 1.11017 0
M  V30 15103 C 1453.14 3.06258 1.62502 0
M  V30 15104 C 1452.2 4.16183 1.05308 0
M  V30 15105 C 1451.43 4.89503 2.12655 0
M  V30 15106 O 1451.66 4.6263 3.33661 0
M  V30 15107 O 1450.59 5.75578 1.76051 0
M  V30 15108 H 1454.42 3.03467 -0.118925 0
M  V30 15109 H 1452 1.48884 -0.124111 0
M  V30 15110 H 1453.88 3.5436 2.2805 0
M  V30 15111 H 1452.56 2.3489 2.22729 0
M  V30 15112 H 1451.47 3.72348 0.361679 0
M  V30 15113 H 1452.8 4.897 0.49545 0
M  V30 15114 N 1454.45 0.0885642 1.57351 0
M  V30 15115 C 1455.4 -0.883199 2.10199 0
M  V30 15116 C 1456.38 -1.24805 1.0155 0
M  V30 15117 O 1457.58 -1.22423 1.27835 0
M  V30 15118 C 1454.71 -2.14467 2.68065 0
M  V30 15119 C 1453.79 -1.80555 3.83746 0
M  V30 15120 N 1454.18 -1.17169 4.92042 0
M  V30 15121 C 1452.48 -2.10204 3.93358 0
M  V30 15122 C 1453.18 -1.01722 5.72737 0
M  V30 15123 N 1452.16 -1.53241 5.21553 0
M  V30 15124 H 1455.96 -0.38908 2.91313 0
M  V30 15125 H 1453.47 -0.114842 1.61993 0
M  V30 15126 H 1455.47 -2.85021 3.04251 0
M  V30 15127 H 1454.13 -2.64451 1.88403 0
M  V30 15128 H 1455.14 -0.839293 5.11054 0
M  V30 15129 H 1451.82 -2.62448 3.24696 0
M  V30 15130 H 1453.21 -0.522042 6.69869 0
M  V30 15131 N 1455.93 -1.56509 -0.185096 0
M  V30 15132 C 1457.18 -1.80848 -0.902139 0
M  V30 15133 C 1457.5 -0.663295 -1.83372 0
M  V30 15134 O 1456.77 0.317754 -1.93306 0
M  V30 15135 H 1455.35 -0.667108 -0.336119 0
M  V30 15136 H 1458.01 -1.93989 -0.188211 0
M  V30 15137 H 1457.11 -2.74383 -1.48729 0
M  V30 15138 N 1457.41 0.45317 -1.50944 0
M  V30 15139 C 1458.65 1.20568 -1.63068 0
M  V30 15140 C 1458.99 1.91229 -0.338375 0
M  V30 15141 O 1458.26 1.82916 0.661207 0
M  V30 15142 C 1458.54 2.23522 -2.8233 0
M  V30 15143 C 1458.4 1.57047 -4.21493 0
M  V30 15144 C 1459.72 3.24663 -2.97123 0
M  V30 15145 H 1456.83 0.436971 -0.593486 0
M  V30 15146 H 1459.48 0.497008 -1.83384 0
M  V30 15147 H 1457.63 2.83961 -2.65139 0
M  V30 15148 H 1459.3 1.00067 -4.50316 0
M  V30 15149 H 1457.54 0.873143 -4.24922 0
M  V30 15150 H 1458.21 2.31949 -5.00903 0
M  V30 15151 H 1460.69 2.74264 -3.12919 0
M  V30 15152 H 1459.56 3.9401 -3.82161 0
M  V30 15153 H 1459.83 3.89843 -2.08506 0
M  V30 15154 N 1458.88 1.40823 0.707568 0
M  V30 15155 C 1460.13 1.38837 1.46312 0
M  V30 15156 C 1460.45 -0.00353939 1.956 0
M  V30 15157 O 1461.65 -0.146022 2.71107 0
M  V30 15158 C 1460.11 2.44052 2.64512 0
M  V30 15159 C 1459.72 3.89093 2.2206 0
M  V30 15160 C 1461.46 2.51185 3.42208 0
M  V30 15161 C 1459.37 4.85887 3.37147 0
M  V30 15162 H 1458.3 0.516263 0.549535 0
M  V30 15163 H 1460.95 1.66595 0.769302 0
M  V30 15164 H 1459.33 2.09406 3.36103 0
M  V30 15165 H 1460.5 4.32925 1.57837 0
M  V30 15166 H 1458.82 3.8551 1.57388 0
M  V30 15167 H 1461.42 3.20687 4.2786 0
M  V30 15168 H 1461.76 1.54488 3.86574 0
M  V30 15169 H 1462.29 2.84862 2.77666 0
M  V30 15170 H 1459.03 5.83946 2.97805 0
M  V30 15171 H 1458.55 4.46713 4.00259 0
M  V30 15172 H 1460.23 5.06084 4.03098 0
M  V30 15173 N 1460.36 -0.94061 1.26453 0
M  V30 15174 C 1461.61 -1.68354 1.11809 0
M  V30 15175 C 1461.93 -1.9203 -0.339037 0
M  V30 15176 O 1461.2 -1.51739 -1.23903 0
M  V30 15177 H 1459.78 -0.623916 0.410777 0
M  V30 15178 H 1462.44 -1.13014 1.58789 0
M  V30 15179 H 1461.54 -2.65706 1.63728 0
M  V30 15180 N 1461.84 -1.08266 -1.14527 0
M  V30 15181 C 1463.09 -0.806405 -1.84878 0
M  V30 15182 C 1463.4 0.670151 -1.83762 0
M  V30 15183 O 1464.61 1.06151 -2.49888 0
M  V30 15184 C 1463.06 -1.39257 -3.31867 0
M  V30 15185 C 1462.67 -2.90081 -3.41404 0
M  V30 15186 C 1464.42 -1.19475 -4.0734 0
M  V30 15187 C 1462.32 -3.41842 -4.82595 0
M  V30 15188 H 1461.25 -0.297993 -0.692615 0
M  V30 15189 H 1463.9 -1.30389 -1.29116 0
M  V30 15190 H 1462.29 -0.822802 -3.87358 0
M  V30 15191 H 1463.46 -3.53182 -2.95971 0
M  V30 15192 H 1461.78 -3.08761 -2.79385 0
M  V30 15193 H 1464.37 -1.55614 -5.11555 0
M  V30 15194 H 1464.72 -0.134455 -4.16083 0
M  V30 15195 H 1465.25 -1.73138 -3.58145 0
M  V30 15196 H 1461.99 -4.47439 -4.79039 0
M  V30 15197 H 1461.51 -2.835 -5.28572 0
M  V30 15198 H 1463.19 -3.38346 -5.51481 0
M  V30 15199 N 1463.32 1.31536 -0.86811 0
M  V30 15200 C 1464.57 1.97066 -0.478829 0
M  V30 15201 C 1464.9 1.68469 0.966021 0
M  V30 15202 O 1464.17 0.980166 1.67997 0
M  V30 15203 C 1464.46 3.52533 -0.734313 0
M  V30 15204 C 1464.31 3.90711 -2.22856 0
M  V30 15205 C 1465.63 4.39647 -0.199559 0
M  V30 15206 H 1462.75 0.715813 -0.175444 0
M  V30 15207 H 1465.39 1.55694 -1.08901 0
M  V30 15208 H 1463.54 3.87905 -0.214962 0
M  V30 15209 H 1465.21 3.65451 -2.81502 0
M  V30 15210 H 1463.45 3.39385 -2.70185 0
M  V30 15211 H 1464.13 4.99103 -2.35797 0
M  V30 15212 H 1466.6 4.11088 -0.643853 0
M  V30 15213 H 1465.48 5.47383 -0.407783 0
M  V30 15214 H 1465.74 4.32875 0.898414 0
M  V30 15215 N 1464.8 0.627364 1.44575 0
M  V30 15216 C 1466.03 0.137313 2.06444 0
M  V30 15217 C 1466.44 -1.18655 1.46855 0
M  V30 15218 O 1465.8 -1.72699 0.590018 0
M  V30 15219 C 1465.85 0.0123481 3.61498 0
M  V30 15220 O 1465.57 1.28385 4.18866 0
M  V30 15221 C 1467.07 -0.506841 4.40393 0
M  V30 15222 H 1464.29 0.0779387 0.666458 0
M  V30 15223 H 1466.83 0.860701 1.85505 0
M  V30 15224 H 1464.99 -0.66146 3.81711 0
M  V30 15225 H 1465.4 1.12626 5.12265 0
M  V30 15226 H 1466.88 -0.543304 5.4932 0
M  V30 15227 H 1467.35 -1.53314 4.11572 0
M  V30 15228 H 1467.96 0.133589 4.2509 0
M  V30 15229 N 1466.28 -1.53251 0.367684 0
M  V30 15230 C 1467.21 -2.22163 -0.521418 0
M  V30 15231 C 1468.19 -1.21433 -1.08133 0
M  V30 15232 O 1469.37 -1.50343 -1.13706 0
M  V30 15233 C 1466.5 -2.91799 -1.71962 0
M  V30 15234 C 1465.54 -4.0662 -1.28696 0
M  V30 15235 S 1466.38 -5.34733 -0.286505 0
M  V30 15236 C 1467.53 -6.07882 -1.49099 0
M  V30 15237 H 1467.77 -2.97231 0.0638317 0
M  V30 15238 H 1465.3 -1.53652 0.151795 0
M  V30 15239 H 1467.26 -3.32533 -2.40691 0
M  V30 15240 H 1465.92 -2.16451 -2.27613 0
M  V30 15241 H 1465.11 -4.54366 -2.181 0
M  V30 15242 H 1464.71 -3.67787 -0.67887 0
M  V30 15243 H 1467 -6.32741 -2.42167 0
M  V30 15244 H 1467.95 -7.00199 -1.05487 0
M  V30 15245 H 1468.36 -5.38357 -1.698 0
M  V30 15246 N 1467.75 -0.0969077 -1.57302 0
M  V30 15247 C 1469 0.565254 -1.94034 0
M  V30 15248 C 1469.32 1.68609 -0.9796 0
M  V30 15249 O 1468.59 1.95874 -0.0319788 0
M  V30 15250 H 1467.17 0.211796 -0.716346 0
M  V30 15251 H 1469.83 -0.160665 -1.94237 0
M  V30 15252 H 1468.93 0.974268 -2.96504 0
M  V30 15253 N 1469.23 1.56605 0.176793 0
M  V30 15254 C 1470.48 1.81324 0.892535 0
M  V30 15255 C 1470.8 0.67301 1.83018 0
M  V30 15256 O 1470.07 -0.307498 1.93472 0
M  V30 15257 H 1468.65 0.668881 0.332576 0
M  V30 15258 H 1471.31 1.94086 0.17792 0
M  V30 15259 H 1470.41 2.75168 1.47272 0
M  V30 15260 N 1470.71 -0.445159 1.51182 0
M  V30 15261 C 1471.62 -1.5651 1.74762 0
M  V30 15262 C 1472.64 -1.62134 0.631542 0
M  V30 15263 O 1473.81 -1.79522 0.912898 0
M  V30 15264 C 1470.88 -2.92552 1.86049 0
M  V30 15265 C 1469.94 -2.97108 3.0988 0
M  V30 15266 C 1469.17 -4.2666 3.2062 0
M  V30 15267 O 1469.39 -5.18608 2.37491 0
M  V30 15268 O 1468.33 -4.3734 4.13542 0
M  V30 15269 H 1472.15 -1.3953 2.6975 0
M  V30 15270 H 1469.74 -0.627363 1.3559 0
M  V30 15271 H 1471.62 -3.73304 1.95504 0
M  V30 15272 H 1470.3 -3.09676 0.94248 0
M  V30 15273 H 1469.2 -2.15338 3.05909 0
M  V30 15274 H 1470.54 -2.84927 4.01345 0
M  V30 15275 N 1472.19 -1.41197 -0.700089 0
M  V30 15276 C 1473.44 -1.40034 -1.45722 0
M  V30 15277 C 1473.76 -0.00876281 -1.94998 0
M  V30 15278 O 1473.03 0.948647 -1.71399 0
M  V30 15279 H 1471.61 -0.515433 -0.540683 0
M  V30 15280 H 1474.27 -1.76394 -0.828926 0
M  V30 15281 H 1473.36 -2.08477 -2.32258 0
M  V30 15282 N 1473.67 0.933891 -1.2695 0
M  V30 15283 C 1474.91 1.6834 -1.13091 0
M  V30 15284 C 1475.24 1.91484 0.32367 0
M  V30 15285 O 1474.52 1.50075 1.23724 0
M  V30 15286 C 1474.8 3.05374 -1.90838 0
M  V30 15287 C 1474.66 2.8951 -3.44244 0
M  V30 15288 C 1475.97 4.05607 -1.70795 0
M  V30 15289 H 1473.09 0.610944 -0.41221 0
M  V30 15290 H 1475.74 1.08416 -1.56032 0
M  V30 15291 H 1473.89 3.56526 -1.54343 0
M  V30 15292 H 1475.56 2.45523 -3.90533 0
M  V30 15293 H 1473.8 2.24981 -3.70899 0
M  V30 15294 H 1474.47 3.86734 -3.93879 0
M  V30 15295 H 1476.95 3.63443 -2.02604 0
M  V30 15296 H 1475.82 4.9949 -2.27597 0
M  V30 15297 H 1476.08 4.37231 -0.654327 0
M  V30 15298 N 1475.14 1.08871 1.13951 0
M  V30 15299 C 1476.39 0.822504 1.85372 0
M  V30 15300 C 1476.72 -0.650183 1.82993 0
M  V30 15301 O 1476 -1.4783 1.26398 0
M  V30 15302 C 1476.28 1.35107 3.33793 0
M  V30 15303 C 1476.13 2.88945 3.44719 0
M  V30 15304 C 1477.45 0.980203 4.29045 0
M  V30 15305 H 1474.57 0.300255 0.673065 0
M  V30 15306 H 1477.21 1.34914 1.33784 0
M  V30 15307 H 1475.36 0.903108 3.77857 0
M  V30 15308 H 1477.04 3.42148 3.09407 0
M  V30 15309 H 1475.28 3.26365 2.85777 0
M  V30 15310 H 1475.95 3.21004 4.49066 0
M  V30 15311 H 1478.43 1.36646 3.93023 0
M  V30 15312 H 1477.3 1.37717 5.31343 0
M  V30 15313 H 1477.56 -0.112253 4.41957 0
M  V30 15314 N 1476.62 -1.31073 0.875073 0
M  V30 15315 C 1477.87 -1.9613 0.487584 0
M  V30 15316 C 1478.19 -1.69482 -0.964407 0
M  V30 15317 O 1477.46 -1.013 -1.67676 0
M  V30 15318 H 1476.04 -0.725649 0.177319 0
M  V30 15319 H 1478.7 -1.59787 1.11598 0
M  V30 15320 H 1477.8 -3.05265 0.649574 0
M  V30 15321 N 1478.1 -0.635022 -1.4424 0
M  V30 15322 C 1479.35 -0.141067 -2.02008 0
M  V30 15323 C 1479.68 1.23849 -1.49973 0
M  V30 15324 O 1478.93 1.83666 -0.675673 0
M  V30 15325 C 1479.23 -0.081191 -3.57308 0
M  V30 15326 C 1478.9 -1.40004 -4.28614 0
M  V30 15327 C 1477.56 -1.76125 -4.4781 0
M  V30 15328 C 1479.91 -2.27041 -4.6915 0
M  V30 15329 C 1477.24 -2.98982 -5.04804 0
M  V30 15330 C 1479.59 -3.49173 -5.27504 0
M  V30 15331 C 1478.25 -3.85512 -5.44919 0
M  V30 15332 H 1477.52 -0.05162 -0.7392 0
M  V30 15333 H 1480.17 -0.822112 -1.72955 0
M  V30 15334 H 1478.48 0.68324 -3.85797 0
M  V30 15335 H 1480.17 0.317584 -3.9974 0
M  V30 15336 H 1476.76 -1.10897 -4.14005 0
M  V30 15337 H 1480.95 -2.0043 -4.54028 0
M  V30 15338 H 1476.2 -3.27208 -5.16473 0
M  V30 15339 H 1480.38 -4.16847 -5.57864 0
M  V30 15340 H 1478 -4.80793 -5.88848 0
M  V30 15341 N 1479.58 1.53054 -0.375806 0
M  V30 15342 C 1480.54 2.24666 0.453608 0
M  V30 15343 C 1481.54 1.25816 1.00135 0
M  V30 15344 O 1482.73 1.50016 0.885481 0
M  V30 15345 C 1479.86 2.99131 1.63503 0
M  V30 15346 H 1481.06 2.994 -0.173172 0
M  V30 15347 H 1478.61 1.55778 -0.127673 0
M  V30 15348 H 1479.34 2.28666 2.29962 0
M  V30 15349 H 1479.13 3.71671 1.24913 0
M  V30 15350 H 1480.62 3.53542 2.22256 0
M  V30 15351 N 1481.06 0.105248 1.57248 0
M  V30 15352 C 1482.33 -0.598871 1.86207 0
M  V30 15353 C 1482.71 -1.85698 1.00396 0
M  V30 15354 O 1482.06 -2.28363 0.0791093 0
M  V30 15355 C 1482.27 -0.904522 3.37075 0
M  V30 15356 C 1483.62 -1.26357 4.05363 0
M  V30 15357 O 1484.64 -0.99522 3.42014 0
M  V30 15358 O 1483.5 -1.76659 5.17159 0
M  V30 15359 H 1480.6 -0.300727 0.770384 0
M  V30 15360 H 1483.14 0.138713 1.69132 0
M  V30 15361 H 1481.91 -0.0123974 3.91298 0
M  V30 15362 H 1481.54 -1.69774 3.59531 0
M  V30 15363 N 1482.53 -1.56697 -0.168486 0
M  V30 15364 C 1483.78 -1.82424 -0.885965 0
M  V30 15365 C 1484.11 -0.683543 -1.81773 0
M  V30 15366 O 1483.39 0.314319 -1.91943 0
M  V30 15367 C 1483.67 -3.18553 -1.67917 0
M  V30 15368 C 1483.52 -4.43154 -0.770343 0
M  V30 15369 C 1484.84 -3.51654 -2.64627 0
M  V30 15370 H 1481.96 -0.663594 -0.320644 0
M  V30 15371 H 1484.6 -1.89391 -0.15205 0
M  V30 15372 H 1482.75 -3.12745 -2.30484 0
M  V30 15373 H 1484.43 -4.61032 -0.157328 0
M  V30 15374 H 1482.67 -4.33729 -0.0785653 0
M  V30 15375 H 1483.34 -5.34961 -1.36092 0
M  V30 15376 H 1485.82 -3.57934 -2.12185 0
M  V30 15377 H 1484.69 -4.47975 -3.17191 0
M  V30 15378 H 1484.95 -2.76503 -3.44961 0
M  V30 15379 N 1484.01 0.437135 -1.51416 0
M  V30 15380 C 1485.43 0.773631 -1.39596 0
M  V30 15381 C 1485.63 1.95737 -0.478463 0
M  V30 15382 O 1484.68 2.52413 0.0662971 0
M  V30 15383 C 1486 1.05381 -2.8163 0
M  V30 15384 C 1487.55 1.15824 -2.90782 0
M  V30 15385 C 1488.02 1.47135 -4.33722 0
M  V30 15386 N 1489.51 1.54059 -4.3683 0
M  V30 15387 C 1490.25 1.79858 -5.44462 0
M  V30 15388 N 1489.74 2.03449 -6.62254 0
M  V30 15389 N 1491.54 1.81642 -5.31942 0
M  V30 15390 H 1483.69 -0.342468 -2.09621 0
M  V30 15391 H 1485.95 -0.0908158 -0.94364 0
M  V30 15392 H 1485.66 0.256708 -3.50762 0
M  V30 15393 H 1485.53 1.98139 -3.20968 0
M  V30 15394 H 1487.92 1.94597 -2.21847 0
M  V30 15395 H 1488 0.209663 -2.54939 0
M  V30 15396 H 1487.64 0.688897 -5.03206 0
M  V30 15397 H 1487.57 2.43199 -4.67078 0
M  V30 15398 H 1490.06 1.3773 -3.51907 0
M  V30 15399 H 1490.38 2.22506 -7.40075 0
M  V30 15400 H 1488.72 2.00771 -6.65369 0
M  V30 15401 H 1491.91 1.62731 -4.38903 0
M  V30 15402 H 1492.08 2.01411 -6.15904 0
M  V30 15403 N 1485.49 1.41566 0.692592 0
M  V30 15404 C 1486.77 1.31572 1.44735 0
M  V30 15405 C 1487.15 -0.0553081 2.11028 0
M  V30 15406 O 1486.5 -1.06974 2.01913 0
M  V30 15407 C 1486.71 2.47125 2.46435 0
M  V30 15408 C 1488.05 2.88427 3.11601 0
M  V30 15409 O 1489.08 2.46886 2.5676 0
M  V30 15410 O 1487.94 3.6027 4.10935 0
M  V30 15411 H 1485.03 0.517949 0.644715 0
M  V30 15412 H 1487.58 1.53536 0.722818 0
M  V30 15413 H 1486.35 3.38601 1.96124 0
M  V30 15414 H 1485.97 2.27054 3.26393 0
M  V30 15415 N 1486.97 -0.927146 1.27443 0
M  V30 15416 C 1487.9 -2.04483 1.12735 0
M  V30 15417 C 1488.88 -1.70076 0.0286662 0
M  V30 15418 O 1490.06 -1.93133 0.203252 0
M  V30 15419 C 1487.19 -3.38557 0.774352 0
M  V30 15420 C 1486.15 -3.87078 1.82632 0
M  V30 15421 C 1485.47 -5.17964 1.32729 0
M  V30 15422 C 1486.77 -4.10409 3.23051 0
M  V30 15423 H 1488.47 -2.17046 2.06231 0
M  V30 15424 H 1486.01 -1.04292 0.992937 0
M  V30 15425 H 1487.97 -4.16227 0.658273 0
M  V30 15426 H 1486.69 -3.26009 -0.196321 0
M  V30 15427 H 1485.35 -3.11602 1.93132 0
M  V30 15428 H 1485 -5.01808 0.346059 0
M  V30 15429 H 1484.7 -5.51398 2.03061 0
M  V30 15430 H 1486.22 -5.98203 1.22416 0
M  V30 15431 H 1487.64 -4.78646 3.15549 0
M  V30 15432 H 1486.03 -4.5515 3.91099 0
M  V30 15433 H 1487.1 -3.15685 3.68064 0
M  V30 15434 N 1488.45 -1.09474 -1.13372 0
M  V30 15435 C 1489.38 -0.756441 -2.20908 0
M  V30 15436 C 1490.36 0.266113 -1.68006 0
M  V30 15437 O 1491.54 0.134067 -1.93737 0
M  V30 15438 C 1488.67 -0.176733 -3.4685 0
M  V30 15439 C 1487.63 -1.12886 -4.12845 0
M  V30 15440 C 1486.95 -0.410831 -5.33119 0
M  V30 15441 C 1488.25 -2.47148 -4.60125 0
M  V30 15442 H 1489.95 -1.65555 -2.49463 0
M  V30 15443 H 1487.49 -0.797458 -1.19902 0
M  V30 15444 H 1489.45 0.0720151 -4.21338 0
M  V30 15445 H 1488.17 0.757576 -3.17692 0
M  V30 15446 H 1486.83 -1.36289 -3.40325 0
M  V30 15447 H 1486.48 0.527632 -5.00225 0
M  V30 15448 H 1486.18 -1.04567 -5.78221 0
M  V30 15449 H 1487.7 -0.170394 -6.10362 0
M  V30 15450 H 1489.11 -2.27949 -5.26034 0
M  V30 15451 H 1487.51 -3.06425 -5.15969 0
M  V30 15452 H 1488.58 -3.07874 -3.74622 0
M  V30 15453 N 1489.92 1.30607 -0.882012 0
M  V30 15454 C 1491.17 1.96927 -0.509063 0
M  V30 15455 C 1491.53 1.6838 0.930903 0
M  V30 15456 O 1490.82 0.976464 1.64851 0
M  V30 15457 C 1491.01 3.50136 -0.716929 0
M  V30 15458 C 1490.84 3.93573 -2.17555 0
M  V30 15459 C 1489.61 4.19321 -2.81954 0
M  V30 15460 C 1491.81 4.06619 -3.14906 0
M  V30 15461 N 1489.79 4.49198 -4.18443 0
M  V30 15462 C 1491.16 4.40345 -4.36459 0
M  V30 15463 C 1493.22 3.89035 -3.10734 0
M  V30 15464 C 1491.92 4.58322 -5.54377 0
M  V30 15465 C 1493.95 4.08212 -4.27922 0
M  V30 15466 C 1493.31 4.42281 -5.4824 0
M  V30 15467 H 1489.41 0.745681 -0.23555 0
M  V30 15468 H 1491.99 1.57898 -1.13913 0
M  V30 15469 H 1490.16 3.88226 -0.116371 0
M  V30 15470 H 1491.89 4.03502 -0.311174 0
M  V30 15471 H 1488.65 4.12412 -2.32838 0
M  V30 15472 H 1489.07 4.68276 -4.88924 0
M  V30 15473 H 1493.72 3.61774 -2.18813 0
M  V30 15474 H 1491.43 4.84426 -6.46805 0
M  V30 15475 H 1495.02 3.96079 -4.2616 0
M  V30 15476 H 1493.9 4.56815 -6.37408 0
M  V30 15477 N 1491.4 0.642663 1.43901 0
M  V30 15478 C 1492.33 -0.0419756 2.33462 0
M  V30 15479 C 1493.31 -0.822923 1.48869 0
M  V30 15480 O 1494.5 -0.786508 1.7756 0
M  V30 15481 C 1491.63 -1.01631 3.32097 0
M  V30 15482 C 1490.58 -0.346206 4.26597 0
M  V30 15483 C 1489.91 -1.43125 5.15189 0
M  V30 15484 C 1491.21 0.754799 5.16817 0
M  V30 15485 H 1492.9 0.705929 2.90959 0
M  V30 15486 H 1490.45 0.340924 1.39906 0
M  V30 15487 H 1492.4 -1.5041 3.93643 0
M  V30 15488 H 1491.13 -1.79525 2.72834 0
M  V30 15489 H 1489.78 0.121038 3.664 0
M  V30 15490 H 1489.43 -2.20135 4.52271 0
M  V30 15491 H 1489.13 -0.988194 5.79231 0
M  V30 15492 H 1490.66 -1.92061 5.79607 0
M  V30 15493 H 1492.07 0.349624 5.72233 0
M  V30 15494 H 1490.47 1.12169 5.89524 0
M  V30 15495 H 1491.54 1.61718 4.57138 0
M  V30 15496 N 1492.88 -1.52852 0.383918 0
M  V30 15497 C 1493.79 -2.3002 -0.461298 0
M  V30 15498 C 1494.81 -1.36717 -1.07631 0
M  V30 15499 O 1495.98 -1.69784 -1.08329 0
M  V30 15500 C 1493.05 -3.08804 -1.57609 0
M  V30 15501 C 1492.11 -4.17806 -0.986737 0
M  V30 15502 C 1491.34 -4.92825 -2.04841 0
M  V30 15503 O 1491.57 -4.67879 -3.26259 0
M  V30 15504 O 1490.5 -5.78306 -1.66871 0
M  V30 15505 H 1494.33 -3.03239 0.167189 0
M  V30 15506 H 1491.91 -1.48667 0.147781 0
M  V30 15507 H 1493.79 -3.57943 -2.22384 0
M  V30 15508 H 1492.47 -2.38404 -2.18964 0
M  V30 15509 H 1491.37 -3.72876 -0.302396 0
M  V30 15510 H 1492.71 -4.90426 -0.417481 0
M  V30 15511 N 1494.36 -0.113586 -1.5719 0
M  V30 15512 C 1495.64 0.588987 -1.86522 0
M  V30 15513 C 1496.02 1.85163 -1.01379 0
M  V30 15514 O 1495.36 2.28318 -0.0912188 0
M  V30 15515 C 1495.57 0.886633 -3.3755 0
M  V30 15516 C 1496.92 1.24206 -4.06027 0
M  V30 15517 O 1497.95 0.977068 -3.42537 0
M  V30 15518 O 1496.81 1.73914 -5.18089 0
M  V30 15519 H 1493.9 0.296637 -0.771968 0
M  V30 15520 H 1496.45 -0.147681 -1.69056 0
M  V30 15521 H 1495.22 -0.00835421 -3.91299 0
M  V30 15522 H 1494.84 1.67865 -3.60426 0
M  V30 15523 N 1495.84 1.56784 0.160173 0
M  V30 15524 C 1497.11 1.73513 0.902908 0
M  V30 15525 C 1497.49 0.678036 1.99915 0
M  V30 15526 O 1496.84 -0.305302 2.26451 0
M  V30 15527 C 1497.05 3.17111 1.45744 0
M  V30 15528 C 1498.4 3.78404 1.92602 0
M  V30 15529 O 1499.42 3.20459 1.55515 0
M  V30 15530 O 1498.28 4.80172 2.60954 0
M  V30 15531 H 1495.38 0.708981 0.425764 0
M  V30 15532 H 1497.92 1.69061 0.147129 0
M  V30 15533 H 1496.7 3.85539 0.668985 0
M  V30 15534 H 1496.32 3.25936 2.2771 0
M  V30 15535 N 1497.32 -0.429099 1.51646 0
M  V30 15536 C 1498.28 -1.50398 1.72954 0
M  V30 15537 C 1499.28 -1.49207 0.599491 0
M  V30 15538 O 1500.47 -1.51084 0.867143 0
M  V30 15539 C 1497.6 -2.89903 1.79358 0
M  V30 15540 H 1498.79 -1.32805 2.68892 0
M  V30 15541 H 1496.35 -0.658313 1.4176 0
M  V30 15542 H 1497.08 -3.12891 0.852639 0
M  V30 15543 H 1496.87 -2.92171 2.61492 0
M  V30 15544 H 1498.36 -3.67862 1.97654 0
M  V30 15545 N 1498.79 -1.41931 -0.685074 0
M  V30 15546 C 1499.73 -1.39028 -1.8096 0
M  V30 15547 C 1500.7 -0.256001 -1.60572 0
M  V30 15548 O 1501.89 -0.44459 -1.83182 0
M  V30 15549 C 1499.02 -1.17125 -3.17804 0
M  V30 15550 C 1498.06 -2.33411 -3.56961 0
M  V30 15551 S 1498.89 -3.9592 -3.60565 0
M  V30 15552 C 1500.05 -3.7634 -5.00119 0
M  V30 15553 H 1500.28 -2.34189 -1.83146 0
M  V30 15554 H 1497.82 -1.2858 -0.854778 0
M  V30 15555 H 1499.77 -1.05175 -3.96798 0
M  V30 15556 H 1498.44 -0.235668 -3.13215 0
M  V30 15557 H 1497.63 -2.13807 -4.56402 0
M  V30 15558 H 1497.23 -2.41823 -2.85303 0
M  V30 15559 H 1499.52 -3.36695 -5.87914 0
M  V30 15560 H 1500.47 -4.7542 -5.24768 0
M  V30 15561 H 1500.87 -3.09407 -4.72152 0
M  V30 15562 N 1500.27 0.920374 -1.27933 0
M  V30 15563 C 1501.18 2.05525 -1.13123 0
M  V30 15564 C 1502.2 1.73899 -0.059421 0
M  V30 15565 O 1503.37 1.99617 -0.267386 0
M  V30 15566 C 1500.44 3.37637 -0.787551 0
M  V30 15567 C 1499.5 3.82914 -1.94101 0
M  V30 15568 C 1498.73 5.08721 -1.61364 0
M  V30 15569 O 1498.96 5.6798 -0.524918 0
M  V30 15570 O 1497.89 5.4955 -2.45517 0
M  V30 15571 H 1501.72 2.20935 -2.08378 0
M  V30 15572 H 1499.3 1.04071 -1.07189 0
M  V30 15573 H 1501.18 4.16968 -0.609544 0
M  V30 15574 H 1499.86 3.23417 0.135407 0
M  V30 15575 H 1498.76 3.04438 -2.17413 0
M  V30 15576 H 1500.1 4.01687 -2.84444 0
M  V30 15577 N 1501.75 1.10074 1.1279 0
M  V30 15578 C 1502.68 0.704023 2.1812 0
M  V30 15579 C 1503.69 -0.25742 1.60752 0
M  V30 15580 O 1504.88 -0.0424559 1.7845 0
M  V30 15581 C 1501.98 0.0176666 3.38895 0
M  V30 15582 C 1501.16 1.00234 4.2576 0
M  V30 15583 C 1500.22 0.348158 5.25047 0
M  V30 15584 O 1499.24 0.997821 5.60386 0
M  V30 15585 N 1500.44 -0.894955 5.7356 0
M  V30 15586 H 1503.21 1.61024 2.52767 0
M  V30 15587 H 1500.77 0.989068 1.28176 0
M  V30 15588 H 1502.76 -0.431346 4.02395 0
M  V30 15589 H 1501.33 -0.7909 3.02429 0
M  V30 15590 H 1500.55 1.62972 3.58934 0
M  V30 15591 H 1501.84 1.669 4.80647 0
M  V30 15592 H 1501.24 -1.4422 5.47007 0
M  V30 15593 H 1499.79 -1.28718 6.38964 0
M  V30 15594 N 1503.23 -1.30138 0.888926 0
M  V30 15595 C 1504.48 -1.95602 0.508359 0
M  V30 15596 C 1504.8 -1.70495 -0.946377 0
M  V30 15597 O 1504.07 -1.03073 -1.66592 0
M  V30 15598 H 1502.65 -0.723728 0.185006 0
M  V30 15599 H 1505.31 -1.58594 1.13286 0
M  V30 15600 H 1504.4 -3.04559 0.681915 0
M  V30 15601 N 1504.71 -0.650285 -1.43559 0
M  V30 15602 C 1505.95 -0.162725 -2.02146 0
M  V30 15603 C 1506.28 1.21911 -1.51166 0
M  V30 15604 O 1505.56 1.81329 -0.703563 0
M  V30 15605 C 1505.84 -0.170356 -3.59697 0
M  V30 15606 C 1505.7 -1.5859 -4.20915 0
M  V30 15607 C 1507.01 0.494831 -4.37309 0
M  V30 15608 H 1504.13 -0.0606055 -0.734504 0
M  V30 15609 H 1506.78 -0.830411 -1.70892 0
M  V30 15610 H 1504.93 0.39819 -3.86454 0
M  V30 15611 H 1506.6 -2.20481 -4.05199 0
M  V30 15612 H 1504.84 -2.13407 -3.77677 0
M  V30 15613 H 1505.51 -1.54312 -5.29992 0
M  V30 15614 H 1507.99 0.0111281 -4.16099 0
M  V30 15615 H 1506.86 0.458753 -5.4698 0
M  V30 15616 H 1507.12 1.56846 -4.13342 0
M  V30 15617 N 1506.18 1.52647 -0.392018 0
M  V30 15618 C 1507.13 2.26532 0.441819 0
M  V30 15619 C 1508.1 1.2825 1.05552 0
M  V30 15620 O 1509.29 1.57083 1.08303 0
M  V30 15621 C 1506.43 3.0774 1.56174 0
M  V30 15622 C 1505.54 4.20955 0.970632 0
M  V30 15623 C 1504.67 4.89553 2.06183 0
M  V30 15624 C 1503.71 5.94756 1.44676 0
M  V30 15625 N 1502.85 6.5694 2.47738 0
M  V30 15626 H 1507.69 2.97363 -0.194699 0
M  V30 15627 H 1505.23 1.46704 -0.107848 0
M  V30 15628 H 1507.18 3.53116 2.22183 0
M  V30 15629 H 1505.81 2.39112 2.16853 0
M  V30 15630 H 1504.87 3.79874 0.200067 0
M  V30 15631 H 1506.18 4.96474 0.481181 0
M  V30 15632 H 1505.33 5.38247 2.79956 0
M  V30 15633 H 1504.07 4.13564 2.58488 0
M  V30 15634 H 1503.08 5.45399 0.694288 0
M  V30 15635 H 1504.3 6.72679 0.931617 0
M  V30 15636 H 1502.25 5.8379 2.99208 0
M  V30 15637 H 1502.16 7.2808 2.03556 0
M  V30 15638 H 1503.43 7.10277 3.21133 0
M  V30 15639 N 1507.66 0.121921 1.57128 0
M  V30 15640 C 1508.94 -0.579087 1.86831 0
M  V30 15641 C 1509.32 -1.84623 1.0236 0
M  V30 15642 O 1508.67 -2.28266 0.103326 0
M  V30 15643 C 1508.88 -0.86872 3.38015 0
M  V30 15644 C 1510.23 -1.22051 4.0668 0
M  V30 15645 O 1511.25 -0.958889 3.43051 0
M  V30 15646 O 1510.11 -1.71164 5.19004 0
M  V30 15647 H 1507.2 -0.292539 0.773531 0
M  V30 15648 H 1509.75 0.156644 1.68975 0
M  V30 15649 H 1508.52 0.0291056 3.91289 0
M  V30 15650 H 1508.14 -1.65951 3.61312 0
M  V30 15651 N 1509.14 -1.56867 -0.151857 0
M  V30 15652 C 1510.37 -1.86965 -0.879066 0
M  V30 15653 C 1510.78 -0.70756 -1.75471 0
M  V30 15654 O 1510.12 0.331966 -1.80676 0
M  V30 15655 C 1510.18 -3.11712 -1.79098 0
M  V30 15656 C 1509.85 -4.43737 -1.09298 0
M  V30 15657 C 1510.84 -5.17956 -0.449181 0
M  V30 15658 C 1508.53 -4.90465 -1.08394 0
M  V30 15659 C 1510.52 -6.37104 0.194342 0
M  V30 15660 C 1508.21 -6.09538 -0.436597 0
M  V30 15661 C 1509.21 -6.82703 0.201419 0
M  V30 15662 O 1508.9 -7.99515 0.838504 0
M  V30 15663 H 1508.63 -0.624074 -0.259822 0
M  V30 15664 H 1511.18 -2.04845 -0.150844 0
M  V30 15665 H 1509.41 -2.89828 -2.56002 0
M  V30 15666 H 1511.1 -3.28097 -2.38972 0
M  V30 15667 H 1511.87 -4.82926 -0.448012 0
M  V30 15668 H 1507.75 -4.33444 -1.56995 0
M  V30 15669 H 1511.29 -6.9415 0.69293 0
M  V30 15670 H 1507.19 -6.4403 -0.435417 0
M  V30 15671 H 1507.96 -8.15151 0.739688 0
M  V30 15672 N 1510.62 0.421051 -1.51871 0
M  V30 15673 C 1511.86 1.17082 -1.65589 0
M  V30 15674 C 1512.2 1.90469 -0.378861 0
M  V30 15675 O 1511.47 1.84277 0.622259 0
M  V30 15676 C 1511.76 2.17483 -2.87007 0
M  V30 15677 C 1511.61 1.48071 -4.24729 0
M  V30 15678 C 1512.93 3.18288 -3.03942 0
M  V30 15679 H 1510.05 0.424284 -0.602621 0
M  V30 15680 H 1512.69 0.457998 -1.84397 0
M  V30 15681 H 1510.84 2.78273 -2.71102 0
M  V30 15682 H 1512.51 0.904926 -4.52337 0
M  V30 15683 H 1510.75 0.782814 -4.26678 0
M  V30 15684 H 1511.42 2.21272 -5.0571 0
M  V30 15685 H 1513.9 2.67565 -3.18666 0
M  V30 15686 H 1512.78 3.85815 -3.90433 0
M  V30 15687 H 1513.04 3.85333 -2.16728 0
M  V30 15688 N 1512.1 1.42293 0.677538 0
M  V30 15689 C 1513.01 1.47953 1.82063 0
M  V30 15690 C 1514.02 0.36851 1.70053 0
M  V30 15691 O 1515.2 0.618996 1.91652 0
M  V30 15692 C 1512.26 1.3769 3.18186 0
M  V30 15693 C 1511.32 2.59261 3.42173 0
M  V30 15694 C 1510.56 2.49478 4.71801 0
M  V30 15695 O 1510.78 1.52915 5.49521 0
M  V30 15696 O 1509.71 3.39562 4.96972 0
M  V30 15697 H 1513.54 2.4443 1.80244 0
M  V30 15698 H 1511.13 1.24027 0.832932 0
M  V30 15699 H 1513.01 1.34319 3.9942 0
M  V30 15700 H 1511.68 0.443377 3.20649 0
M  V30 15701 H 1510.59 2.68207 2.60798 0
M  V30 15702 H 1511.92 3.51503 3.44538 0
M  V30 15703 N 1513.57 -0.913576 1.28419 0
M  V30 15704 C 1514.51 -2.02073 1.08163 0
M  V30 15705 C 1515.52 -1.62766 0.0333064 0
M  V30 15706 O 1516.71 -1.76347 0.27638 0
M  V30 15707 C 1513.81 -3.33151 0.621596 0
M  V30 15708 C 1512.98 -4.01068 1.74536 0
M  V30 15709 C 1512.04 -5.10428 1.27868 0
M  V30 15710 O 1511.07 -5.33617 1.98094 0
M  V30 15711 N 1512.27 -5.80326 0.141976 0
M  V30 15712 H 1515.03 -2.20009 2.0351 0
M  V30 15713 H 1512.59 -1.08488 1.20174 0
M  V30 15714 H 1514.59 -4.03638 0.292989 0
M  V30 15715 H 1513.16 -3.11685 -0.239031 0
M  V30 15716 H 1512.38 -3.24127 2.24355 0
M  V30 15717 H 1513.66 -4.4319 2.49919 0
M  V30 15718 H 1513.06 -5.63956 -0.443845 0
M  V30 15719 H 1511.62 -6.51676 -0.127354 0
M  V30 15720 N 1515.05 -1.1067 -1.12204 0
M  V30 15721 C 1515.98 -0.779829 -2.20093 0
M  V30 15722 C 1516.96 0.248279 -1.68278 0
M  V30 15723 O 1518.15 0.113511 -1.93868 0
M  V30 15724 C 1515.28 -0.213511 -3.46643 0
M  V30 15725 C 1514.23 -1.17258 -4.11624 0
M  V30 15726 C 1513.56 -0.467352 -5.32654 0
M  V30 15727 C 1514.86 -2.52014 -4.57478 0
M  V30 15728 H 1516.55 -1.68192 -2.47693 0
M  V30 15729 H 1514.1 -0.810131 -1.1905 0
M  V30 15730 H 1516.05 0.0273225 -4.21391 0
M  V30 15731 H 1514.78 0.723837 -3.18478 0
M  V30 15732 H 1513.43 -1.39891 -3.3886 0
M  V30 15733 H 1513.08 0.474547 -5.00756 0
M  V30 15734 H 1512.78 -1.10694 -5.77079 0
M  V30 15735 H 1514.31 -0.235122 -6.10147 0
M  V30 15736 H 1515.72 -2.33516 -5.23587 0
M  V30 15737 H 1514.12 -3.1188 -5.1269 0
M  V30 15738 H 1515.19 -3.11831 -3.71335 0
M  V30 15739 N 1516.53 1.29665 -0.895815 0
M  V30 15740 C 1517.78 1.9533 -0.518725 0
M  V30 15741 C 1518.1 1.70995 0.937322 0
M  V30 15742 O 1517.37 1.03955 1.66043 0
M  V30 15743 H 1515.95 0.722736 -0.188841 0
M  V30 15744 H 1518.61 1.57991 -1.14126 0
M  V30 15745 H 1517.71 3.04193 -0.698057 0
M  V30 15746 N 1518.01 0.657889 1.43212 0
M  V30 15747 C 1518.96 -0.0427288 2.32561 0
M  V30 15748 C 1519.95 -0.808236 1.48875 0
M  V30 15749 O 1521.16 -0.718109 1.65055 0
M  V30 15750 H 1517.53 -0.0326049 0.751293 0
M  V30 15751 H 1519.5 0.728503 2.89371 0
M  V30 15752 C 1518.25 -0.99216 3.33244 0
M  V30 15753 H 1517.57 -0.412542 3.97666 0
M  V30 15754 H 1519.01 -1.45138 3.98385 0
M  V30 15755 C 1517.47 -2.09044 2.64201 0
M  V30 15756 O 1518 -3.17481 2.46107 0
M  V30 15757 N 1516.21 -1.85732 2.23499 0
M  V30 15758 H 1515.76 -0.975483 2.38416 0
M  V30 15759 H 1515.71 -2.5941 1.77634 0
M  V30 15760 N 1519.49 -1.52437 0.400108 0
M  V30 15761 C 1520.45 -2.2536 -0.417808 0
M  V30 15762 C 1521.45 -1.27393 -0.981204 0
M  V30 15763 O 1522.64 -1.51406 -0.861503 0
M  V30 15764 C 1519.77 -3.01695 -1.58724 0
M  V30 15765 H 1520.96 -2.99086 0.220782 0
M  V30 15766 H 1518.52 -1.55555 0.152439 0
M  V30 15767 H 1519.25 -2.32295 -2.26295 0
M  V30 15768 H 1519.04 -3.73611 -1.18984 0
M  V30 15769 H 1520.53 -3.57033 -2.16604 0
M  V30 15770 N 1520.96 -0.130252 -1.57061 0
M  V30 15771 C 1522.21 0.525006 -1.95576 0
M  V30 15772 C 1522.54 1.65964 -1.0142 0
M  V30 15773 O 1521.79 1.95659 -0.0401898 0
M  V30 15774 C 1522.09 1.08776 -3.40445 0
M  V30 15775 C 1521.76 0.0733062 -4.5084 0
M  V30 15776 C 1520.42 -0.20561 -4.80761 0
M  V30 15777 C 1522.77 -0.617428 -5.1753 0
M  V30 15778 C 1520.1 -1.18135 -5.74683 0
M  V30 15779 C 1522.45 -1.58188 -6.12503 0
M  V30 15780 C 1521.12 -1.86866 -6.4081 0
M  V30 15781 H 1520.39 0.192113 -0.715663 0
M  V30 15782 H 1523.03 -0.21354 -1.90306 0
M  V30 15783 H 1521.34 1.9033 -3.42464 0
M  V30 15784 H 1523.04 1.60305 -3.67564 0
M  V30 15785 H 1519.63 0.30088 -4.27543 0
M  V30 15786 H 1523.81 -0.415124 -4.94561 0
M  V30 15787 H 1519.07 -1.41017 -5.94915 0
M  V30 15788 H 1523.24 -2.12271 -6.6326 0
M  V30 15789 H 1520.87 -2.62628 -7.13394 0
M  V30 15790 N 1522.44 1.56945 0.143535 0
M  V30 15791 C 1523.69 1.83176 0.853873 0
M  V30 15792 C 1524.01 0.71168 1.81549 0
M  V30 15793 O 1523.28 -0.266391 1.9408 0
M  V30 15794 H 1521.86 0.675785 0.318313 0
M  V30 15795 H 1524.52 1.9442 0.136712 0
M  V30 15796 H 1523.62 2.7823 1.41402 0
M  V30 15797 N 1523.92 -0.412991 1.52093 0
M  V30 15798 C 1525.15 -1.18667 1.70096 0
M  V30 15799 C 1525.57 -1.83622 0.408012 0
M  V30 15800 O 1524.93 -1.69847 -0.634174 0
M  V30 15801 C 1524.98 -2.22837 2.83507 0
M  V30 15802 O 1524.08 -3.2889 2.48807 0
M  V30 15803 H 1523.42 -0.346581 0.566373 0
M  V30 15804 H 1525.95 -0.484642 1.98777 0
M  V30 15805 H 1525.96 -2.67229 3.08306 0
M  V30 15806 H 1524.64 -1.74942 3.77317 0
M  V30 15807 H 1523.21 -2.89804 2.34665 0
M  V30 15808 N 1525.4 -1.4265 -0.669982 0
M  V30 15809 C 1526.65 -1.43093 -1.42719 0
M  V30 15810 C 1526.97 -0.0501228 -1.94936 0
M  V30 15811 O 1526.24 0.912077 -1.73372 0
M  V30 15812 H 1524.82 -0.526785 -0.529628 0
M  V30 15813 H 1527.48 -1.78113 -0.791324 0
M  V30 15814 H 1526.58 -2.13357 -2.27783 0
M  V30 15815 N 1526.88 0.906753 -1.28902 0
M  V30 15816 C 1528.12 1.65658 -1.16464 0
M  V30 15817 C 1528.45 1.92396 0.285342 0
M  V30 15818 O 1527.71 1.52755 1.22329 0
M  V30 15819 C 1528.01 3.0171 -1.91588 0
M  V30 15820 C 1527.67 2.94606 -3.41347 0
M  V30 15821 C 1526.33 2.92376 -3.8219 0
M  V30 15822 C 1528.69 2.84335 -4.3681 0
M  V30 15823 C 1526.01 2.77685 -5.16825 0
M  V30 15824 C 1528.37 2.71184 -5.71526 0
M  V30 15825 C 1527.03 2.67316 -6.11636 0
M  V30 15826 H 1526.3 0.606184 -0.426171 0
M  V30 15827 H 1528.95 1.05592 -1.59758 0
M  V30 15828 H 1527.25 3.65602 -1.40863 0
M  V30 15829 H 1528.95 3.58645 -1.79374 0
M  V30 15830 H 1525.54 2.97141 -3.08878 0
M  V30 15831 H 1529.72 2.85141 -4.06212 0
M  V30 15832 H 1524.98 2.7309 -5.47021 0
M  V30 15833 H 1529.15 2.62206 -6.45152 0
M  V30 15834 H 1526.78 2.5569 -7.1591 0
M  V30 15835 N 1528.36 1.11264 1.11616 0
M  V30 15836 C 1529.58 0.882802 1.87121 0
M  V30 15837 C 1530 -0.567279 1.80076 0
M  V30 15838 O 1529.36 -1.39158 1.18074 0
M  V30 15839 C 1529.41 1.33355 3.36004 0
M  V30 15840 O 1529.13 2.72678 3.42897 0
M  V30 15841 C 1530.63 1.13886 4.28421 0
M  V30 15842 H 1527.85 0.316275 0.591786 0
M  V30 15843 H 1530.39 1.4795 1.41177 0
M  V30 15844 H 1528.55 0.780347 3.79459 0
M  V30 15845 H 1528.96 2.92168 4.35589 0
M  V30 15846 H 1530.44 1.50329 5.31136 0
M  V30 15847 H 1530.91 0.078259 4.3913 0
M  V30 15848 H 1531.52 1.67896 3.90757 0
M  V30 15849 N 1529.83 -1.29188 0.902679 0
M  V30 15850 C 1530.78 -2.29597 0.372585 0
M  V30 15851 C 1531.78 -1.609 -0.529858 0
M  V30 15852 O 1532.98 -1.75214 -0.41233 0
M  V30 15853 H 1529.36 -0.745069 0.101864 0
M  V30 15854 H 1531.33 -2.71746 1.23275 0
M  V30 15855 C 1530.08 -3.45594 -0.382128 0
M  V30 15856 H 1529.4 -3.9865 0.303061 0
M  V30 15857 H 1530.84 -4.17879 -0.717852 0
M  V30 15858 C 1529.3 -2.97238 -1.58591 0
M  V30 15859 O 1529.83 -2.98767 -2.68517 0
M  V30 15860 N 1528.03 -2.53032 -1.42909 0
M  V30 15861 H 1527.58 -2.51988 -0.534786 0
M  V30 15862 H 1527.54 -2.21038 -2.23584 0
M  V30 15863 N 1531.31 -0.665475 -1.42861 0
M  V30 15864 C 1532.24 0.0574495 -2.29128 0
M  V30 15865 C 1533.26 0.774881 -1.43176 0
M  V30 15866 O 1534.45 0.630593 -1.6699 0
M  V30 15867 C 1531.55 1.10481 -3.20386 0
M  V30 15868 C 1530.72 0.463071 -4.34942 0
M  V30 15869 C 1529.78 1.40896 -5.06986 0
M  V30 15870 O 1528.8 0.912839 -5.61833 0
M  V30 15871 N 1530.01 2.74257 -5.11628 0
M  V30 15872 H 1532.77 -0.683051 -2.91812 0
M  V30 15873 H 1530.33 -0.509179 -1.53685 0
M  V30 15874 H 1532.32 1.73866 -3.65449 0
M  V30 15875 H 1530.89 1.74715 -2.59217 0
M  V30 15876 H 1530.11 -0.350109 -3.92642 0
M  V30 15877 H 1531.4 0.0156092 -5.08798 0
M  V30 15878 H 1530.8 3.17112 -4.68462 0
M  V30 15879 H 1529.36 3.32913 -5.60368 0
M  V30 15880 N 1532.79 1.52222 -0.408187 0
M  V30 15881 C 1534.04 2.00989 0.169252 0
M  V30 15882 C 1534.35 1.29824 1.46305 0
M  V30 15883 O 1535.56 1.69402 2.12168 0
M  V30 15884 C 1534.01 3.58173 0.352179 0
M  V30 15885 C 1533.62 4.38252 -0.929468 0
M  V30 15886 C 1535.37 4.15173 0.88496 0
M  V30 15887 C 1533.27 5.87077 -0.713781 0
M  V30 15888 H 1532.2 0.751015 0.0670261 0
M  V30 15889 H 1534.85 1.75574 -0.533487 0
M  V30 15890 H 1533.24 3.79913 1.11723 0
M  V30 15891 H 1534.41 4.28272 -1.70059 0
M  V30 15892 H 1532.72 3.92565 -1.38859 0
M  V30 15893 H 1535.32 5.2404 1.06235 0
M  V30 15894 H 1535.66 3.72468 1.85938 0
M  V30 15895 H 1536.2 3.97397 0.178995 0
M  V30 15896 H 1532.94 6.3414 -1.65974 0
M  V30 15897 H 1532.46 5.99797 0.0180631 0
M  V30 15898 H 1534.14 6.46022 -0.355596 0
M  V30 15899 N 1534.27 0.138579 1.5699 0
M  V30 15900 C 1535.51 -0.517479 1.97741 0
M  V30 15901 C 1535.87 -1.62587 1.02125 0
M  V30 15902 O 1537.07 -2.3422 1.31888 0
M  V30 15903 C 1535.34 -1.01841 3.42583 0
M  V30 15904 S 1536.9 -1.68025 4.05355 0
M  V30 15905 H 1533.72 -0.167594 0.690965 0
M  V30 15906 H 1536.32 0.2283 1.94162 0
M  V30 15907 H 1535.03 -0.200832 4.09908 0
M  V30 15908 H 1534.56 -1.79901 3.49856 0
M  V30 15909 H 1536.57 -2.96708 3.97717 0
M  V30 15910 N 1535.75 -1.57019 -0.13521 0
M  V30 15911 C 1536.66 -2.02427 -1.18578 0
M  V30 15912 C 1537.67 -0.941738 -1.46312 0
M  V30 15913 O 1538.85 -1.25208 -1.57749 0
M  V30 15914 C 1535.91 -2.40577 -2.49647 0
M  V30 15915 C 1534.97 -3.62835 -2.29455 0
M  V30 15916 C 1534.21 -3.99156 -3.54274 0
M  V30 15917 O 1534.43 -3.36001 -4.60933 0
M  V30 15918 O 1533.36 -4.92345 -3.46238 0
M  V30 15919 H 1537.19 -2.92131 -0.830237 0
M  V30 15920 H 1534.77 -1.45366 -0.344814 0
M  V30 15921 H 1536.66 -2.65922 -3.269 0
M  V30 15922 H 1535.33 -1.54023 -2.84708 0
M  V30 15923 H 1534.24 -3.42661 -1.50114 0
M  V30 15924 H 1535.57 -4.50043 -1.99305 0
M  V30 15925 N 1537.22 0.404919 -1.52309 0
M  V30 15926 C 1538.16 1.51276 -1.72186 0
M  V30 15927 C 1539.17 1.5125 -0.602276 0
M  V30 15928 O 1540.36 1.55439 -0.877549 0
M  V30 15929 C 1537.46 2.90162 -1.75099 0
M  V30 15930 C 1536.63 3.14333 -3.04161 0
M  V30 15931 C 1535.69 4.33113 -2.9883 0
M  V30 15932 O 1534.72 4.30189 -3.72728 0
M  V30 15933 N 1535.92 5.38451 -2.16911 0
M  V30 15934 H 1538.68 1.34618 -2.67765 0
M  V30 15935 H 1536.24 0.594264 -1.50599 0
M  V30 15936 H 1538.24 3.67697 -1.69058 0
M  V30 15937 H 1536.81 3.00257 -0.869756 0
M  V30 15938 H 1536.03 2.24803 -3.23817 0
M  V30 15939 H 1537.31 3.27327 -3.89531 0
M  V30 15940 H 1536.71 5.43676 -1.56309 0
M  V30 15941 H 1535.27 6.14715 -2.16724 0
M  V30 15942 N 1538.7 1.43003 0.662408 0
M  V30 15943 C 1539.95 1.44346 1.4245 0
M  V30 15944 C 1540.28 0.064094 1.94094 0
M  V30 15945 O 1539.56 -0.913633 1.71706 0
M  V30 15946 C 1539.84 2.47822 2.61259 0
M  V30 15947 C 1539.69 3.94998 2.15166 0
M  V30 15948 C 1541.01 2.48139 3.63476 0
M  V30 15949 H 1538.13 0.525606 0.51663 0
M  V30 15950 H 1540.77 1.74495 0.751754 0
M  V30 15951 H 1538.92 2.22244 3.18653 0
M  V30 15952 H 1540.59 4.31601 1.62843 0
M  V30 15953 H 1538.84 4.0827 1.46622 0
M  V30 15954 H 1539.51 4.62998 3.00561 0
M  V30 15955 H 1541.98 2.70916 3.15823 0
M  V30 15956 H 1540.86 3.22498 4.44169 0
M  V30 15957 H 1541.12 1.51184 4.15447 0
M  V30 15958 N 1540.18 -0.899904 1.29381 0
M  V30 15959 C 1541.13 -2.02537 1.14375 0
M  V30 15960 C 1542.12 -1.69296 0.0593904 0
M  V30 15961 O 1543.33 -1.78661 0.219174 0
M  V30 15962 H 1539.7 -0.663844 0.353291 0
M  V30 15963 H 1541.67 -2.12332 2.0966 0
M  V30 15964 C 1540.42 -3.37479 0.836845 0
M  V30 15965 H 1539.75 -3.6356 1.66326 0
M  V30 15966 H 1541.19 -4.16915 0.771873 0
M  V30 15967 C 1539.65 -3.33746 -0.459889 0
M  V30 15968 O 1540.18 -3.73203 -1.48601 0
M  V30 15969 N 1538.38 -2.86845 -0.465657 0
M  V30 15970 H 1537.93 -2.54931 0.369833 0
M  V30 15971 H 1537.89 -2.8473 -1.33327 0
M  V30 15972 N 1541.66 -1.11854 -1.11024 0
M  V30 15973 C 1542.59 -0.803129 -2.19253 0
M  V30 15974 C 1543.57 0.230417 -1.68532 0
M  V30 15975 O 1544.75 0.0929421 -1.93977 0
M  V30 15976 C 1541.88 -0.250265 -3.46397 0
M  V30 15977 C 1540.84 -1.21617 -4.10357 0
M  V30 15978 C 1540.16 -0.523821 -5.32128 0
M  V30 15979 C 1541.46 -2.56852 -4.54779 0
M  V30 15980 H 1543.16 -1.7081 -2.45895 0
M  V30 15981 H 1540.7 -0.822712 -1.18184 0
M  V30 15982 H 1542.66 -0.0173732 -4.21396 0
M  V30 15983 H 1541.38 0.690018 -3.19228 0
M  V30 15984 H 1540.04 -1.43477 -3.37357 0
M  V30 15985 H 1539.69 0.421408 -5.01232 0
M  V30 15986 H 1539.39 -1.16809 -5.75873 0
M  V30 15987 H 1540.91 -0.299823 -6.09863 0
M  V30 15988 H 1542.33 -2.39056 -5.21081 0
M  V30 15989 H 1540.72 -3.17301 -5.09353 0
M  V30 15990 H 1541.79 -3.15751 -3.68007 0
M  V30 15991 N 1543.14 1.28707 -0.909517 0
M  V30 15992 C 1544.07 2.29845 -0.411552 0
M  V30 15993 C 1545.05 1.62001 0.518615 0
M  V30 15994 O 1546.23 1.89442 0.427252 0
M  V30 15995 C 1543.36 3.45501 0.353013 0
M  V30 15996 C 1542.32 4.25213 -0.487625 0
M  V30 15997 C 1541.64 5.33164 0.405026 0
M  V30 15998 C 1542.94 4.9237 -1.74268 0
M  V30 15999 H 1544.64 2.71746 -1.25676 0
M  V30 16000 H 1542.18 1.30639 -0.605759 0
M  V30 16001 H 1544.14 4.15338 0.712191 0
M  V30 16002 H 1542.86 3.02469 1.23209 0
M  V30 16003 H 1541.52 3.57098 -0.829265 0
M  V30 16004 H 1541.17 4.86375 1.28252 0
M  V30 16005 H 1540.87 5.87399 -0.153811 0
M  V30 16006 H 1542.39 6.0585 0.760179 0
M  V30 16007 H 1543.8 5.5459 -1.45266 0
M  V30 16008 H 1542.2 5.56581 -2.2436 0
M  V30 16009 H 1543.27 4.171 -2.47297 0
M  V30 16010 N 1544.61 0.673042 1.42506 0
M  V30 16011 C 1545.56 -0.00638067 2.30799 0
M  V30 16012 C 1546.53 -0.794524 1.45865 0
M  V30 16013 O 1547.72 -0.767129 1.74699 0
M  V30 16014 C 1544.86 -0.952923 3.31683 0
M  V30 16015 C 1543.97 -0.158787 4.31708 0
M  V30 16016 C 1543.1 -1.10092 5.19666 0
M  V30 16017 C 1542.14 -0.29837 6.11372 0
M  V30 16018 N 1541.28 -1.19312 6.91888 0
M  V30 16019 H 1546.12 0.75237 2.88346 0
M  V30 16020 H 1543.66 0.382763 1.42033 0
M  V30 16021 H 1545.62 -1.51552 3.887 0
M  V30 16022 H 1544.25 -1.67832 2.75739 0
M  V30 16023 H 1543.3 0.520406 3.76823 0
M  V30 16024 H 1544.61 0.464385 4.96634 0
M  V30 16025 H 1543.76 -1.7335 5.81407 0
M  V30 16026 H 1542.5 -1.75798 4.54914 0
M  V30 16027 H 1541.51 0.347437 5.48701 0
M  V30 16028 H 1542.73 0.354569 6.78174 0
M  V30 16029 H 1540.68 -1.83661 6.29765 0
M  V30 16030 H 1540.6 -0.624986 7.53412 0
M  V30 16031 H 1541.86 -1.81323 7.58118 0
M  V30 16032 N 1546.09 -1.52004 0.416254 0
M  V30 16033 C 1547 -2.30947 -0.412403 0
M  V30 16034 C 1548.02 -1.38969 -1.04707 0
M  V30 16035 O 1549.19 -1.72044 -1.04703 0
M  V30 16036 C 1546.26 -3.12078 -1.51024 0
M  V30 16037 C 1545.32 -4.19805 -0.897892 0
M  V30 16038 C 1544.55 -4.97059 -1.94341 0
M  V30 16039 O 1544.78 -4.74695 -3.16261 0
M  V30 16040 O 1543.71 -5.81715 -1.54567 0
M  V30 16041 H 1547.54 -3.02817 0.231473 0
M  V30 16042 H 1545.12 -1.4832 0.179283 0
M  V30 16043 H 1547 -3.6258 -2.14741 0
M  V30 16044 H 1545.68 -2.42995 -2.13858 0
M  V30 16045 H 1544.59 -3.73433 -0.223236 0
M  V30 16046 H 1545.92 -4.91201 -0.31336 0
M  V30 16047 N 1547.57 -0.146903 -1.56914 0
M  V30 16048 C 1548.8 0.514426 -2.00919 0
M  V30 16049 C 1549.22 1.57632 -1.02634 0
M  V30 16050 O 1548.58 1.813 -0.00207478 0
M  V30 16051 C 1548.63 1.09197 -3.43669 0
M  V30 16052 O 1547.73 2.20684 -3.48385 0
M  V30 16053 H 1547.07 0.125827 -0.651969 0
M  V30 16054 H 1549.6 -0.243607 -2.03145 0
M  V30 16055 H 1549.61 1.42066 -3.82467 0
M  V30 16056 H 1548.29 0.314336 -4.1471 0
M  V30 16057 H 1546.86 1.89045 -3.21429 0
M  V30 16058 N 1549.05 1.57088 0.126881 0
M  V30 16059 C 1549.98 2.02799 1.15737 0
M  V30 16060 C 1550.96 0.911031 1.43646 0
M  V30 16061 O 1552.14 1.18021 1.54223 0
M  V30 16062 C 1549.27 2.42565 2.48555 0
M  V30 16063 C 1548.23 3.57631 2.35125 0
M  V30 16064 C 1547.55 3.83272 3.72836 0
M  V30 16065 C 1548.85 4.89625 1.81838 0
M  V30 16066 H 1550.55 2.89136 0.777207 0
M  V30 16067 H 1548.09 1.39101 0.372416 0
M  V30 16068 H 1550.05 2.73146 3.20888 0
M  V30 16069 H 1548.77 1.53188 2.88446 0
M  V30 16070 H 1547.43 3.27247 1.65242 0
M  V30 16071 H 1547.08 2.91114 4.10197 0
M  V30 16072 H 1546.78 4.60721 3.64705 0
M  V30 16073 H 1548.3 4.16298 4.46686 0
M  V30 16074 H 1549.72 5.18793 2.43981 0
M  V30 16075 H 1548.11 5.71018 1.84548 0
M  V30 16076 H 1549.18 4.7866 0.775385 0
M  V30 16077 N 1550.53 -0.396836 1.52522 0
M  V30 16078 C 1551.77 -1.14432 1.67431 0
M  V30 16079 C 1552.11 -1.89842 0.409115 0
M  V30 16080 O 1551.38 -1.85244 -0.592863 0
M  V30 16081 C 1551.66 -2.12889 2.90431 0
M  V30 16082 C 1551.52 -1.41295 4.27031 0
M  V30 16083 C 1552.84 -3.13412 3.08967 0
M  V30 16084 H 1549.95 -0.414643 0.609295 0
M  V30 16085 H 1552.6 -0.428604 1.85103 0
M  V30 16086 H 1550.75 -2.73924 2.75495 0
M  V30 16087 H 1552.42 -0.832848 4.53719 0
M  V30 16088 H 1550.66 -0.714834 4.2787 0
M  V30 16089 H 1551.33 -2.13198 5.09167 0
M  V30 16090 H 1553.81 -2.62462 3.22883 0
M  V30 16091 H 1552.68 -3.79555 3.96522 0
M  V30 16092 H 1552.95 -3.81836 2.22831 0
M  V30 16093 N 1552.01 -1.43353 -0.654814 0
M  V30 16094 C 1553.25 -1.44599 -1.41193 0
M  V30 16095 C 1553.57 -0.0707955 -1.94871 0
M  V30 16096 O 1552.84 0.893637 -1.7433 0
M  V30 16097 H 1551.42 -0.532373 -0.524011 0
M  V30 16098 H 1554.09 -1.78942 -0.772388 0
M  V30 16099 H 1553.18 -2.15761 -2.25508 0
M  V30 16100 N 1553.48 0.89303 -1.29857 0
M  V30 16101 C 1554.42 2.00327 -1.11364 0
M  V30 16102 C 1555.43 1.62692 -0.0591968 0
M  V30 16103 O 1556.62 1.75885 -0.3044 0
M  V30 16104 C 1553.72 3.3212 -0.674518 0
M  V30 16105 C 1552.89 3.98241 -1.80895 0
M  V30 16106 C 1551.95 5.08329 -1.35972 0
M  V30 16107 O 1550.98 5.30398 -2.06558 0
M  V30 16108 N 1552.18 5.80027 -0.234282 0
M  V30 16109 H 1554.94 2.16743 -2.06984 0
M  V30 16110 H 1552.5 1.06563 -1.21885 0
M  V30 16111 H 1554.5 4.03121 -0.357167 0
M  V30 16112 H 1553.07 3.12026 0.189414 0
M  V30 16113 H 1552.29 3.20517 -2.29483 0
M  V30 16114 H 1553.57 4.39158 -2.56939 0
M  V30 16115 H 1552.97 5.64591 0.354068 0
M  V30 16116 H 1551.53 6.51796 0.0236623 0
M  V30 16117 N 1554.96 1.12442 1.10429 0
M  V30 16118 C 1556.24 0.791191 1.78884 0
M  V30 16119 C 1556.62 -0.719044 1.98477 0
M  V30 16120 O 1555.97 -1.65275 1.57786 0
M  V30 16121 C 1556.18 1.56632 3.11877 0
M  V30 16122 C 1557.52 1.75236 3.86752 0
M  V30 16123 O 1558.55 1.53145 3.21598 0
M  V30 16124 O 1557.41 2.12025 5.03694 0
M  V30 16125 H 1554.5 0.287788 0.775311 0
M  V30 16126 H 1557.05 1.22844 1.17078 0
M  V30 16127 H 1555.82 2.59317 2.93037 0
M  V30 16128 H 1555.44 1.12332 3.81402 0
M  V30 16129 N 1556.44 -1.28223 0.91633 0
M  V30 16130 C 1557.66 -1.99523 0.566147 0
M  V30 16131 C 1558.09 -1.68 -0.846034 0
M  V30 16132 O 1557.45 -0.913838 -1.56584 0
M  V30 16133 C 1557.5 -3.51949 0.785114 0
M  V30 16134 O 1556.6 -4.1211 -0.154686 0
M  V30 16135 H 1555.94 -0.626764 0.219232 0
M  V30 16136 H 1558.47 -1.63313 1.23247 0
M  V30 16137 H 1558.48 -4.02016 0.696224 0
M  V30 16138 H 1557.16 -3.74227 1.81457 0
M  V30 16139 H 1555.73 -3.72896 -0.0168463 0
M  V30 16140 N 1557.92 -0.68059 -1.42147 0
M  V30 16141 C 1559.17 -0.202445 -2.00681 0
M  V30 16142 C 1559.48 1.19997 -1.54467 0
M  V30 16143 O 1560.69 1.77479 -2.05459 0
M  V30 16144 C 1559.14 -0.311064 -3.58553 0
M  V30 16145 C 1558.75 -1.7179 -4.13754 0
M  V30 16146 C 1560.49 0.108072 -4.24362 0
M  V30 16147 C 1558.4 -1.77897 -5.64009 0
M  V30 16148 H 1557.33 -0.0719266 -0.750561 0
M  V30 16149 H 1559.98 -0.846614 -1.62803 0
M  V30 16150 H 1558.36 0.401098 -3.93963 0
M  V30 16151 H 1559.54 -2.45761 -3.89793 0
M  V30 16152 H 1557.85 -2.08539 -3.60417 0
M  V30 16153 H 1560.45 0.0826684 -5.34636 0
M  V30 16154 H 1560.79 1.14431 -4.00264 0
M  V30 16155 H 1561.33 -0.553285 -3.93933 0
M  V30 16156 H 1558.06 -2.79523 -5.92914 0
M  V30 16157 H 1557.58 -1.0829 -5.89944 0
M  V30 16158 H 1559.26 -1.53504 -6.28527 0
M  V30 16159 N 1559.4 1.51781 -0.424309 0
M  V30 16160 C 1560.33 2.30313 0.384462 0
M  V30 16161 C 1561.31 1.35166 1.03268 0
M  V30 16162 O 1562.49 1.64081 1.0388 0
M  V30 16163 C 1559.62 3.13566 1.49311 0
M  V30 16164 C 1558.58 4.16884 0.969096 0
M  V30 16165 C 1557.9 4.88576 2.17251 0
M  V30 16166 C 1559.2 5.22298 0.0125613 0
M  V30 16167 H 1560.9 2.98172 -0.270871 0
M  V30 16168 H 1558.44 1.43396 -0.131712 0
M  V30 16169 H 1560.39 3.67279 2.06602 0
M  V30 16170 H 1559.12 2.43504 2.17655 0
M  V30 16171 H 1557.78 3.64203 0.418494 0
M  V30 16172 H 1557.43 4.15029 2.84183 0
M  V30 16173 H 1557.13 5.58432 1.82833 0
M  V30 16174 H 1558.65 5.45107 2.75119 0
M  V30 16175 H 1560.06 5.71161 0.494744 0
M  V30 16176 H 1558.46 5.99606 -0.243544 0
M  V30 16177 H 1559.53 4.75935 -0.92813 0
M  V30 16178 N 1560.87 0.155222 1.56834 0
M  V30 16179 C 1561.78 -0.794179 2.20749 0
M  V30 16180 C 1562.8 -1.26546 1.19424 0
M  V30 16181 O 1563.98 -1.32094 1.5203 0
M  V30 16182 C 1561.04 -2.01261 2.82303 0
M  V30 16183 C 1560.1 -1.58976 3.98779 0
M  V30 16184 C 1559.33 -2.75011 4.57389 0
M  V30 16185 O 1559.56 -3.91449 4.14879 0
M  V30 16186 O 1558.49 -2.50011 5.4752 0
M  V30 16187 H 1562.32 -0.280064 3.02406 0
M  V30 16188 H 1559.9 -0.0722048 1.49225 0
M  V30 16189 H 1561.78 -2.72551 3.21394 0
M  V30 16190 H 1560.46 -2.51609 2.03653 0
M  V30 16191 H 1559.37 -0.846848 3.64389 0
M  V30 16192 H 1560.7 -1.13336 4.78974 0
M  V30 16193 N 1562.35 -1.57153 -0.118549 0
M  V30 16194 C 1563.3 -2.00374 -1.14538 0
M  V30 16195 C 1564.27 -0.875964 -1.41124 0
M  V30 16196 O 1565.45 -1.14022 -1.52982 0
M  V30 16197 C 1562.59 -2.4135 -2.46666 0
M  V30 16198 C 1561.71 -3.67545 -2.27012 0
M  V30 16199 C 1560.84 -3.975 -3.52374 0
M  V30 16200 C 1559.88 -5.16877 -3.27879 0
M  V30 16201 N 1559.02 -5.427 -4.45445 0
M  V30 16202 H 1563.86 -2.87885 -0.769821 0
M  V30 16203 H 1561.39 -1.42406 -0.368622 0
M  V30 16204 H 1563.35 -2.63144 -3.23745 0
M  V30 16205 H 1561.98 -1.5688 -2.82114 0
M  V30 16206 H 1561.03 -3.53364 -1.40848 0
M  V30 16207 H 1562.35 -4.54777 -2.04889 0
M  V30 16208 H 1561.5 -4.19945 -4.37871 0
M  V30 16209 H 1560.24 -3.08745 -3.77529 0
M  V30 16210 H 1559.24 -4.94276 -2.40773 0
M  V30 16211 H 1560.47 -6.0721 -3.04094 0
M  V30 16212 H 1558.42 -4.56902 -4.70719 0
M  V30 16213 H 1558.33 -6.24256 -4.26428 0
M  V30 16214 H 1559.6 -5.69664 -5.32074 0
M  V30 16215 N 1563.83 0.388742 -1.5273 0
M  V30 16216 C 1565.05 1.15946 -1.71963 0
M  V30 16217 C 1565.48 1.82949 -0.437173 0
M  V30 16218 O 1564.84 1.70834 0.607072 0
M  V30 16219 C 1564.89 2.18298 -2.87016 0
M  V30 16220 O 1563.99 3.24891 -2.54008 0
M  V30 16221 H 1563.33 0.337526 -0.571815 0
M  V30 16222 H 1565.86 0.452957 -1.99523 0
M  V30 16223 H 1565.87 2.6229 -3.12519 0
M  V30 16224 H 1564.55 1.68917 -3.80052 0
M  V30 16225 H 1563.12 2.86034 -2.39246 0
M  V30 16226 N 1565.31 1.43698 0.647203 0
M  V30 16227 C 1566.24 1.52135 1.77136 0
M  V30 16228 C 1567.22 0.375551 1.65902 0
M  V30 16229 O 1568.4 0.593564 1.84907 0
M  V30 16230 C 1565.53 1.44974 3.15594 0
M  V30 16231 C 1564.49 2.57866 3.41598 0
M  V30 16232 C 1563.81 2.35757 4.7992 0
M  V30 16233 C 1565.11 4.00089 3.35747 0
M  V30 16234 H 1566.81 2.46227 1.70332 0
M  V30 16235 H 1564.35 1.18507 0.818046 0
M  V30 16236 H 1566.31 1.4948 3.93997 0
M  V30 16237 H 1565.03 0.473905 3.23143 0
M  V30 16238 H 1563.69 2.52722 2.65569 0
M  V30 16239 H 1563.34 1.36403 4.84152 0
M  V30 16240 H 1563.04 3.11436 4.98278 0
M  V30 16241 H 1564.56 2.42055 5.60572 0
M  V30 16242 H 1565.98 4.06687 4.04078 0
M  V30 16243 H 1564.37 4.75842 3.65642 0
M  V30 16244 H 1565.44 4.24798 2.33825 0
M  V30 16245 N 1566.79 -0.886131 1.30328 0
M  V30 16246 C 1567.73 -1.99174 1.16612 0
M  V30 16247 C 1568.7 -1.66006 0.0559202 0
M  V30 16248 O 1569.89 -1.89458 0.225897 0
M  V30 16249 C 1567.03 -3.34142 0.862726 0
M  V30 16250 C 1566.14 -3.80008 2.05469 0
M  V30 16251 C 1565.28 -5.03617 1.68949 0
M  V30 16252 C 1564.32 -5.41888 2.84647 0
M  V30 16253 N 1563.45 -6.56678 2.48431 0
M  V30 16254 H 1568.29 -2.10238 2.11197 0
M  V30 16255 H 1565.83 -1.02941 1.05079 0
M  V30 16256 H 1567.79 -4.11826 0.667447 0
M  V30 16257 H 1566.42 -3.22767 -0.0462461 0
M  V30 16258 H 1565.47 -2.98243 2.36126 0
M  V30 16259 H 1566.78 -4.04312 2.92119 0
M  V30 16260 H 1565.94 -5.88923 1.45789 0
M  V30 16261 H 1564.67 -4.81182 0.794674 0
M  V30 16262 H 1563.68 -4.55109 3.08474 0
M  V30 16263 H 1564.9 -5.66296 3.74813 0
M  V30 16264 H 1562.85 -6.35821 1.61453 0
M  V30 16265 H 1562.77 -6.80846 3.28611 0
M  V30 16266 H 1564.04 -7.45219 2.28624 0
M  V30 16267 N 1568.26 -1.13026 -1.09832 0
M  V30 16268 C 1569.23 -0.806832 -2.14529 0
M  V30 16269 C 1570.23 0.18175 -1.5977 0
M  V30 16270 O 1571.42 -0.0448155 -1.74142 0
M  V30 16271 C 1568.55 -0.200093 -3.40312 0
M  V30 16272 H 1569.74 -1.73453 -2.44651 0
M  V30 16273 H 1567.3 -0.934331 -1.25299 0
M  V30 16274 H 1568.03 0.737028 -3.15814 0
M  V30 16275 H 1567.82 -0.911945 -3.81348 0
M  V30 16276 H 1569.31 0.00948247 -4.17599 0
M  V30 16277 N 1569.74 1.27735 -0.923117 0
M  V30 16278 C 1570.67 2.29395 -0.435907 0
M  V30 16279 C 1571.65 1.62542 0.501403 0
M  V30 16280 O 1572.84 1.89884 0.407135 0
M  V30 16281 C 1569.97 3.45856 0.316348 0
M  V30 16282 C 1568.92 4.24672 -0.532697 0
M  V30 16283 C 1568.25 5.33563 0.348454 0
M  V30 16284 C 1569.55 4.90494 -1.79481 0
M  V30 16285 H 1571.24 2.70398 -1.28551 0
M  V30 16286 H 1568.79 1.29989 -0.619581 0
M  V30 16287 H 1570.74 4.1607 0.668098 0
M  V30 16288 H 1569.47 3.03758 1.19994 0
M  V30 16289 H 1568.12 3.56198 -0.867093 0
M  V30 16290 H 1567.77 4.87708 1.23086 0
M  V30 16291 H 1567.47 5.87202 -0.216104 0
M  V30 16292 H 1569 6.06622 0.695878 0
M  V30 16293 H 1570.41 5.53019 -1.5114 0
M  V30 16294 H 1568.81 5.5417 -2.30251 0
M  V30 16295 H 1569.88 4.14454 -2.51707 0
M  V30 16296 N 1571.22 0.688118 1.41784 0
M  V30 16297 C 1572.47 0.216263 2.01644 0
M  V30 16298 C 1572.8 -1.17861 1.54345 0
M  V30 16299 O 1572.07 -1.794 0.751392 0
M  V30 16300 C 1572.36 0.265663 3.59119 0
M  V30 16301 C 1572.21 1.69694 4.16562 0
M  V30 16302 C 1573.53 -0.378713 4.38468 0
M  V30 16303 H 1570.65 0.0800582 0.732639 0
M  V30 16304 H 1573.29 0.875428 1.68631 0
M  V30 16305 H 1571.44 -0.295588 3.87374 0
M  V30 16306 H 1573.11 2.31146 3.9921 0
M  V30 16307 H 1571.36 2.23345 3.71886 0
M  V30 16308 H 1572.03 1.68309 5.25715 0
M  V30 16309 H 1574.5 0.0991969 4.15982 0
M  V30 16310 H 1573.38 -0.31357 5.48004 0
M  V30 16311 H 1573.64 -1.45832 4.17355 0
M  V30 16312 N 1572.7 -1.51554 0.432352 0
M  V30 16313 C 1573.65 -2.27623 -0.381602 0
M  V30 16314 C 1574.62 -1.31003 -1.02114 0
M  V30 16315 O 1575.8 -1.59899 -1.041 0
M  V30 16316 C 1572.94 -3.11772 -1.47959 0
M  V30 16317 C 1572.05 -4.2338 -0.858682 0
M  V30 16318 C 1571.19 -4.94847 -1.93131 0
M  V30 16319 C 1570.23 -5.98383 -1.28856 0
M  V30 16320 N 1569.36 -6.63278 -2.30233 0
M  V30 16321 H 1574.2 -2.96743 0.273472 0
M  V30 16322 H 1571.74 -1.46367 0.146706 0
M  V30 16323 H 1573.7 -3.58882 -2.12742 0
M  V30 16324 H 1572.33 -2.44778 -2.10437 0
M  V30 16325 H 1571.38 -3.8027 -0.0992797 0
M  V30 16326 H 1572.69 -4.97575 -0.349381 0
M  V30 16327 H 1571.85 -5.4548 -2.65587 0
M  V30 16328 H 1570.59 -4.20272 -2.47432 0
M  V30 16329 H 1569.59 -5.47048 -0.549441 0
M  V30 16330 H 1570.82 -6.74913 -0.752941 0
M  V30 16331 H 1568.76 -5.91518 -2.83624 0
M  V30 16332 H 1568.68 -7.33221 -1.84181 0
M  V30 16333 H 1569.95 -7.18542 -3.02188 0
M  V30 16334 N 1574.18 -0.163538 -1.56749 0
M  V30 16335 C 1575.43 0.483453 -1.9582 0
M  V30 16336 C 1575.74 1.64913 -1.05181 0
M  V30 16337 O 1576.94 2.36184 -1.33901 0
M  V30 16338 C 1575.4 0.911471 -3.48167 0
M  V30 16339 C 1575.01 -0.228178 -4.47419 0
M  V30 16340 C 1576.75 1.52732 -3.96072 0
M  V30 16341 C 1574.66 0.219036 -5.90994 0
M  V30 16342 H 1573.59 0.184383 -0.731108 0
M  V30 16343 H 1576.24 -0.250527 -1.81782 0
M  V30 16344 H 1574.62 1.7012 -3.57596 0
M  V30 16345 H 1575.8 -1.0054 -4.49698 0
M  V30 16346 H 1574.11 -0.753485 -4.09526 0
M  V30 16347 H 1576.71 1.87383 -5.00791 0
M  V30 16348 H 1577.05 2.42239 -3.38565 0
M  V30 16349 H 1577.58 0.802176 -3.89628 0
M  V30 16350 H 1574.32 -0.641066 -6.52358 0
M  V30 16351 H 1573.84 0.96178 -5.92039 0
M  V30 16352 H 1575.52 0.665524 -6.43568 0
M  V30 16353 N 1575.65 1.57214 0.110213 0
M  V30 16354 C 1576.9 1.84498 0.815059 0
M  V30 16355 C 1577.22 0.750531 1.80628 0
M  V30 16356 O 1578.42 0.910042 2.55794 0
M  V30 16357 C 1576.88 3.27138 1.50028 0
M  V30 16358 C 1576.49 4.44616 0.549603 0
M  V30 16359 C 1578.23 3.63662 2.18975 0
M  V30 16360 C 1576.14 5.78285 1.23855 0
M  V30 16361 H 1575.07 0.688165 0.308132 0
M  V30 16362 H 1577.72 1.83374 0.0678595 0
M  V30 16363 H 1576.1 3.22758 2.29441 0
M  V30 16364 H 1577.27 4.60312 -0.211944 0
M  V30 16365 H 1575.59 4.16387 -0.0333571 0
M  V30 16366 H 1578.19 4.60804 2.71226 0
M  V30 16367 H 1578.53 2.91532 2.97178 0
M  V30 16368 H 1579.06 3.69865 1.46439 0
M  V30 16369 H 1575.8 6.53608 0.497629 0
M  V30 16370 H 1575.32 5.66459 1.9719 0
M  V30 16371 H 1577 6.22338 1.76929 0
M  V30 16372 N 1577.13 -0.380637 1.52934 0
M  V30 16373 C 1578.36 -1.15033 1.72575 0
M  V30 16374 C 1578.78 -1.82715 0.446869 0
M  V30 16375 O 1578.14 -1.71154 -0.598004 0
M  V30 16376 C 1578.19 -2.16773 2.8817 0
M  V30 16377 O 1577.29 -3.23539 2.55727 0
M  V30 16378 H 1576.63 -0.334489 0.573597 0
M  V30 16379 H 1579.16 -0.442369 1.9976 0
M  V30 16380 H 1579.17 -2.60629 3.13905 0
M  V30 16381 H 1577.85 -1.669 3.80943 0
M  V30 16382 H 1576.43 -2.84761 2.4076 0
M  V30 16383 N 1578.61 -1.44039 -0.639573 0
M  V30 16384 C 1579.57 -1.49907 -1.7338 0
M  V30 16385 C 1580.57 -0.382101 -1.56194 0
M  V30 16386 O 1581.76 -0.644396 -1.61843 0
M  V30 16387 C 1578.9 -1.36486 -3.12385 0
M  V30 16388 H 1580.09 -2.4737 -1.69553 0
M  V30 16389 H 1577.64 -1.31006 -0.852474 0
M  V30 16390 H 1578.38 -0.400845 -3.21813 0
M  V30 16391 H 1578.16 -2.17471 -3.26265 0
M  V30 16392 H 1579.65 -1.43555 -3.9215 0
M  V30 16393 N 1580.09 0.879207 -1.30796 0
M  V30 16394 C 1581.02 2.00158 -1.20246 0
M  V30 16395 C 1582 1.69852 -0.091769 0
M  V30 16396 O 1583.18 1.92246 -0.274792 0
M  V30 16397 C 1580.31 3.3545 -0.899472 0
M  V30 16398 C 1579.27 3.80033 -1.96873 0
M  V30 16399 C 1578.59 5.12681 -1.51861 0
M  V30 16400 C 1579.89 3.98136 -3.38061 0
M  V30 16401 H 1581.59 2.09242 -2.14145 0
M  V30 16402 H 1579.13 1.00535 -1.03096 0
M  V30 16403 H 1581.09 4.13497 -0.812299 0
M  V30 16404 H 1579.81 3.26513 0.075189 0
M  V30 16405 H 1578.47 3.04219 -2.04564 0
M  V30 16406 H 1578.12 5.00178 -0.532063 0
M  V30 16407 H 1577.82 5.43482 -2.23386 0
M  V30 16408 H 1579.34 5.93247 -1.44534 0
M  V30 16409 H 1580.76 4.66604 -3.33096 0
M  V30 16410 H 1579.15 4.40321 -4.07722 0
M  V30 16411 H 1580.22 3.01807 -3.79526 0
M  V30 16412 N 1581.57 1.13606 1.09231 0
M  V30 16413 C 1582.81 0.900386 1.81717 0
M  V30 16414 C 1583.15 -0.571984 1.85586 0
M  V30 16415 O 1582.42 -1.42336 1.32554 0
M  V30 16416 C 1582.7 1.49143 3.27763 0
M  V30 16417 C 1582.56 3.03306 3.32153 0
M  V30 16418 C 1583.88 1.16129 4.24502 0
M  V30 16419 H 1581 0.328531 0.659724 0
M  V30 16420 H 1583.64 1.40467 1.27941 0
M  V30 16421 H 1581.79 1.06256 3.73687 0
M  V30 16422 H 1583.46 3.54963 2.94617 0
M  V30 16423 H 1581.7 3.38192 2.71677 0
M  V30 16424 H 1582.37 3.39761 4.35047 0
M  V30 16425 H 1584.85 1.53193 3.86874 0
M  V30 16426 H 1583.73 1.60129 5.25024 0
M  V30 16427 H 1583.99 0.0752973 4.42036 0
M  V30 16428 N 1583.05 -1.27244 0.929878 0
M  V30 16429 C 1584.29 -1.93559 0.567267 0
M  V30 16430 C 1584.61 -1.73864 -0.896138 0
M  V30 16431 O 1585.81 -2.34538 -1.36763 0
M  V30 16432 C 1584.27 -3.46756 0.963743 0
M  V30 16433 C 1583.88 -3.75204 2.44798 0
M  V30 16434 C 1585.62 -4.19139 0.672487 0
M  V30 16435 C 1583.53 -5.21787 2.78375 0
M  V30 16436 H 1582.46 -0.724617 0.208437 0
M  V30 16437 H 1585.11 -1.44502 1.13099 0
M  V30 16438 H 1583.49 -3.94634 0.328654 0
M  V30 16439 H 1584.67 -3.38075 3.13116 0
M  V30 16440 H 1582.98 -3.16029 2.71136 0
M  V30 16441 H 1585.58 -5.27074 0.899816 0
M  V30 16442 H 1585.92 -4.14466 -0.390378 0
M  V30 16443 H 1586.45 -3.77091 1.26678 0
M  V30 16444 H 1583.19 -5.31552 3.83579 0
M  V30 16445 H 1582.71 -5.60054 2.14708 0
M  V30 16446 H 1584.39 -5.89685 2.66234 0
M  V30 16447 N 1584.52 -0.695628 -1.41417 0
M  V30 16448 C 1585.77 -0.226954 -2.01526 0
M  V30 16449 C 1586.1 1.1704 -1.54968 0
M  V30 16450 O 1585.38 1.78999 -0.760895 0
M  V30 16451 C 1585.66 -0.284704 -3.58973 0
M  V30 16452 C 1585.51 -1.71901 -4.15656 0
M  V30 16453 C 1586.83 0.355454 -4.38662 0
M  V30 16454 H 1583.95 -0.0839425 -0.732204 0
M  V30 16455 H 1586.59 -0.884359 -1.68164 0
M  V30 16456 H 1584.74 0.275041 -3.87525 0
M  V30 16457 H 1586.42 -2.3326 -3.97979 0
M  V30 16458 H 1584.66 -2.25314 -3.70696 0
M  V30 16459 H 1585.33 -1.71095 -5.24815 0
M  V30 16460 H 1587.81 -0.121256 -4.15923 0
M  V30 16461 H 1586.68 0.284503 -5.48162 0
M  V30 16462 H 1586.94 1.43617 -4.18123 0
M  V30 16463 N 1586 1.51322 -0.440383 0
M  V30 16464 C 1587.25 2.02413 0.125248 0
M  V30 16465 C 1587.58 1.32374 1.42094 0
M  V30 16466 O 1586.86 0.439624 1.89467 0
M  V30 16467 C 1587.14 3.58483 0.340858 0
M  V30 16468 C 1586.99 4.39134 -0.973701 0
M  V30 16469 C 1588.31 4.25891 1.10927 0
M  V30 16470 H 1585.43 0.735683 0.0440452 0
M  V30 16471 H 1588.07 1.80932 -0.579976 0
M  V30 16472 H 1586.22 3.76917 0.941572 0
M  V30 16473 H 1587.89 4.32343 -1.60863 0
M  V30 16474 H 1586.14 4.04097 -1.57759 0
M  V30 16475 H 1586.81 5.46506 -0.776845 0
M  V30 16476 H 1589.28 4.11746 0.600403 0
M  V30 16477 H 1588.16 5.34967 1.2289 0
M  V30 16478 H 1588.42 3.86958 2.13813 0
M  V30 16479 N 1587.48 0.171848 1.5666 0
M  V30 16480 C 1588.9 -0.184312 1.58532 0
M  V30 16481 C 1589.1 -1.62811 1.18721 0
M  V30 16482 O 1588.15 -2.35951 0.899066 0
M  V30 16483 C 1589.46 0.0969826 3.00544 0
M  V30 16484 C 1591.01 0.0352364 3.1298 0
M  V30 16485 C 1591.49 0.289528 4.57084 0
M  V30 16486 N 1592.98 0.237322 4.62592 0
M  V30 16487 C 1593.71 0.408247 5.71945 0
M  V30 16488 N 1593.21 0.638256 6.89854 0
M  V30 16489 N 1595 0.344115 5.61046 0
M  V30 16490 H 1587.15 1.11427 1.80825 0
M  V30 16491 H 1589.42 0.44302 0.838115 0
M  V30 16492 H 1589.12 1.09717 3.34148 0
M  V30 16493 H 1589 -0.611157 3.72216 0
M  V30 16494 H 1591.38 -0.955531 2.79202 0
M  V30 16495 H 1591.46 0.776095 2.43743 0
M  V30 16496 H 1591.11 1.27751 4.91571 0
M  V30 16497 H 1591.04 -0.471948 5.24481 0
M  V30 16498 H 1593.53 0.0652142 3.77844 0
M  V30 16499 H 1593.84 0.758116 7.69072 0
M  V30 16500 H 1592.19 0.674877 6.91716 0
M  V30 16501 H 1595.38 0.165008 4.67809 0
M  V30 16502 H 1595.55 0.480749 6.46214 0
M  V30 16503 N 1588.96 -1.5727 -0.101874 0
M  V30 16504 C 1589.91 -2.0258 -1.14297 0
M  V30 16505 C 1590.9 -0.925674 -1.41872 0
M  V30 16506 O 1592.11 -1.11086 -1.41633 0
M  V30 16507 H 1588.48 -0.645504 -0.385782 0
M  V30 16508 H 1590.45 -2.8922 -0.734453 0
M  V30 16509 C 1589.2 -2.46036 -2.45686 0
M  V30 16510 H 1588.52 -3.30266 -2.2531 0
M  V30 16511 H 1589.96 -2.81522 -3.17051 0
M  V30 16512 C 1588.42 -1.33089 -3.09498 0
M  V30 16513 O 1588.95 -0.656277 -3.96303 0
M  V30 16514 N 1587.16 -1.08359 -2.69642 0
M  V30 16515 H 1586.71 -1.63397 -1.99146 0
M  V30 16516 H 1586.66 -0.329859 -3.12665 0
M  V30 16517 N 1590.44 0.372521 -1.53134 0
M  V30 16518 C 1591.39 1.45592 -1.75462 0
M  V30 16519 C 1592.37 1.4893 -0.608994 0
M  V30 16520 O 1593.56 1.54288 -0.867419 0
M  V30 16521 C 1590.69 2.83111 -1.94172 0
M  V30 16522 C 1589.78 2.84279 -3.14716 0
M  V30 16523 N 1590.17 2.551 -4.36758 0
M  V30 16524 C 1588.47 3.15443 -3.15297 0
M  V30 16525 C 1589.17 2.6377 -5.18459 0
M  V30 16526 N 1588.14 2.98192 -4.54513 0
M  V30 16527 H 1591.94 1.21885 -2.67435 0
M  V30 16528 H 1589.46 0.58064 -1.51665 0
M  V30 16529 H 1591.46 3.61136 -2.08294 0
M  V30 16530 H 1590.12 3.07788 -1.03423 0
M  V30 16531 H 1591.13 2.2882 -4.64609 0
M  V30 16532 H 1587.8 3.45479 -2.34416 0
M  V30 16533 H 1589.19 2.44616 -6.2579 0
M  V30 16534 N 1591.91 1.44376 0.631925 0
M  V30 16535 C 1593.19 1.37592 1.39024 0
M  V30 16536 C 1593.57 0.0342456 2.11072 0
M  V30 16537 O 1592.92 -0.983136 2.06268 0
M  V30 16538 C 1593.13 2.57355 2.35732 0
M  V30 16539 C 1594.48 3.01384 2.99087 0
M  V30 16540 O 1595.5 2.57554 2.46057 0
M  V30 16541 O 1594.36 3.77375 3.95285 0
M  V30 16542 H 1591.45 0.544828 0.622167 0
M  V30 16543 H 1594 1.56464 0.657048 0
M  V30 16544 H 1592.77 3.46615 1.81587 0
M  V30 16545 H 1592.39 2.40693 3.16469 0
M  V30 16546 N 1593.39 -0.872258 1.31261 0
M  V30 16547 C 1594.67 -1.60739 1.11456 0
M  V30 16548 C 1595.05 -2.0848 -0.331569 0
M  V30 16549 O 1594.4 -1.86141 -1.32528 0
M  V30 16550 C 1594.61 -2.76714 2.12674 0
M  V30 16551 C 1595.95 -3.46734 2.45074 0
M  V30 16552 O 1596.98 -2.86919 2.11083 0
M  V30 16553 O 1595.84 -4.54632 3.0327 0
M  V30 16554 H 1592.93 -0.70707 0.428929 0
M  V30 16555 H 1595.48 -0.917922 1.42732 0
M  V30 16556 H 1594.25 -2.38834 3.09958 0
M  V30 16557 H 1593.87 -3.5335 1.8229 0
M  V30 16558 N 1594.87 -1.14184 -1.08627 0
M  V30 16559 C 1595.8 -0.849455 -2.17501 0
M  V30 16560 C 1596.78 0.194617 -1.68983 0
M  V30 16561 O 1597.97 0.0517757 -1.94131 0
M  V30 16562 C 1595.1 -0.323685 -3.45788 0
M  V30 16563 C 1594.05 -1.30294 -4.07685 0
M  V30 16564 C 1593.38 -0.636575 -5.30897 0
M  V30 16565 C 1594.68 -2.66441 -4.49229 0
M  V30 16566 H 1596.37 -1.75987 -2.42217 0
M  V30 16567 H 1593.92 -0.847595 -1.16412 0
M  V30 16568 H 1595.87 -0.106754 -4.21265 0
M  V30 16569 H 1594.59 0.62215 -3.20619 0
M  V30 16570 H 1593.25 -1.50601 -3.34238 0
M  V30 16571 H 1592.9 0.314995 -5.02013 0
M  V30 16572 H 1592.6 -1.28998 -5.73266 0
M  V30 16573 H 1594.12 -0.429117 -6.0909 0
M  V30 16574 H 1595.54 -2.50055 -5.15893 0
M  V30 16575 H 1593.93 -3.28033 -5.02508 0
M  V30 16576 H 1595 -3.23486 -3.61226 0
M  V30 16577 N 1596.35 1.26749 -0.936613 0
M  V30 16578 C 1597.6 1.93255 -0.577524 0
M  V30 16579 C 1597.91 1.74337 0.886905 0
M  V30 16580 O 1599.12 2.3526 1.35517 0
M  V30 16581 C 1597.57 3.4624 -0.982119 0
M  V30 16582 C 1597.18 3.739 -2.46784 0
M  V30 16583 C 1598.92 4.18777 -0.694706 0
M  V30 16584 C 1596.83 5.20303 -2.81138 0
M  V30 16585 H 1595.76 0.723502 -0.212276 0
M  V30 16586 H 1598.41 1.43901 -1.13863 0
M  V30 16587 H 1596.79 3.94454 -0.349577 0
M  V30 16588 H 1597.97 3.3641 -3.14905 0
M  V30 16589 H 1596.28 3.14587 -2.72808 0
M  V30 16590 H 1598.88 5.2659 -0.927756 0
M  V30 16591 H 1599.22 4.14667 0.368392 0
M  V30 16592 H 1599.76 3.76414 -1.28676 0
M  V30 16593 H 1596.5 5.29511 -3.86392 0
M  V30 16594 H 1596.02 5.58907 -2.17675 0
M  V30 16595 H 1597.69 5.88265 -2.69358 0
M  V30 16596 N 1597.83 0.703118 1.41046 0
M  V30 16597 C 1599.05 0.246552 2.05426 0
M  V30 16598 C 1599.47 -1.10704 1.52938 0
M  V30 16599 O 1598.83 -1.69329 0.680733 0
M  V30 16600 C 1598.88 0.203953 3.60924 0
M  V30 16601 O 1598.6 1.50408 4.11472 0
M  V30 16602 C 1600.1 -0.272686 4.42461 0
M  V30 16603 H 1597.32 0.113157 0.66139 0
M  V30 16604 H 1599.86 0.957823 1.80682 0
M  V30 16605 H 1598.02 -0.458194 3.84681 0
M  V30 16606 H 1598.43 1.39622 5.05575 0
M  V30 16607 H 1599.91 -0.251357 5.51427 0
M  V30 16608 H 1600.38 -1.31282 4.1912 0
M  V30 16609 H 1600.99 0.358733 4.23784 0
M  V30 16610 N 1599.3 -1.51086 0.448402 0
M  V30 16611 C 1600.55 -2.02476 -0.114511 0
M  V30 16612 C 1600.88 -1.33126 -1.4139 0
M  V30 16613 O 1600.16 -0.449665 -1.89231 0
M  V30 16614 C 1600.44 -3.58659 -0.321842 0
M  V30 16615 C 1600.29 -4.38612 0.996975 0
M  V30 16616 C 1601.61 -4.26473 -1.08667 0
M  V30 16617 H 1598.73 -0.735906 -0.0401431 0
M  V30 16618 H 1601.37 -1.80622 0.589563 0
M  V30 16619 H 1599.52 -3.77411 -0.92157 0
M  V30 16620 H 1601.2 -4.31484 1.63154 0
M  V30 16621 H 1599.44 -4.03255 1.599 0
M  V30 16622 H 1600.11 -5.46087 0.805817 0
M  V30 16623 H 1602.59 -4.12058 -0.578559 0
M  V30 16624 H 1601.46 -5.35611 -1.20051 0
M  V30 16625 H 1601.72 -3.88086 -2.11758 0
M  V30 16626 N 1600.78 -0.180154 -1.56567 0
M  V30 16627 C 1602.01 0.46854 -2.01525 0
M  V30 16628 C 1602.43 1.56211 -1.06036 0
M  V30 16629 O 1601.78 1.82392 -0.06269 0
M  V30 16630 C 1601.83 1.0387 -3.46256 0
M  V30 16631 O 1601.55 -0.0112203 -4.38099 0
M  V30 16632 C 1603.06 1.76475 -4.06659 0
M  V30 16633 H 1600.28 0.119098 -0.660346 0
M  V30 16634 H 1602.82 -0.284477 -2.02512 0
M  V30 16635 H 1600.97 1.74217 -3.46016 0
M  V30 16636 H 1601.39 0.41099 -5.22887 0
M  V30 16637 H 1602.86 2.11618 -5.09825 0
M  V30 16638 H 1603.34 2.66301 -3.49257 0
M  V30 16639 H 1603.95 1.10749 -4.10627 0
M  V30 16640 N 1602.26 1.57322 0.0935319 0
M  V30 16641 C 1603.22 2.0121 1.0976 0
M  V30 16642 C 1604.22 0.905839 1.32858 0
M  V30 16643 O 1605.41 1.17128 1.28945 0
M  V30 16644 C 1602.55 2.37414 2.44638 0
M  V30 16645 H 1603.74 2.91134 0.719809 0
M  V30 16646 H 1601.29 1.52588 0.338625 0
M  V30 16647 H 1602.03 1.50449 2.8729 0
M  V30 16648 H 1601.81 3.1812 2.2922 0
M  V30 16649 H 1603.3 2.7202 3.16851 0
M  V30 16650 N 1603.74 -0.364395 1.53329 0
M  V30 16651 C 1604.99 -1.10423 1.68789 0
M  V30 16652 C 1605.3 -1.90428 0.446819 0
M  V30 16653 O 1606.51 -2.67188 0.481978 0
M  V30 16654 C 1604.96 -2.01228 2.98388 0
M  V30 16655 C 1604.57 -1.26529 4.29761 0
M  V30 16656 C 1606.31 -2.75196 3.23214 0
M  V30 16657 C 1604.22 -2.16243 5.50448 0
M  V30 16658 H 1603.15 -0.415935 0.628899 0
M  V30 16659 H 1605.8 -0.365145 1.7983 0
M  V30 16660 H 1604.18 -2.78872 2.81152 0
M  V30 16661 H 1605.36 -0.5394 4.57632 0
M  V30 16662 H 1603.67 -0.644181 4.11387 0
M  V30 16663 H 1606.27 -3.42548 4.10567 0
M  V30 16664 H 1606.61 -3.40629 2.39327 0
M  V30 16665 H 1607.15 -2.04635 3.4113 0
M  V30 16666 H 1603.89 -1.55385 6.36817 0
M  V30 16667 H 1603.41 -2.86678 5.26855 0
M  V30 16668 H 1605.08 -2.75774 5.85284 0
M  V30 16669 N 1605.22 -1.44709 -0.62426 0
M  V30 16670 C 1606.15 -1.54934 -1.74693 0
M  V30 16671 C 1607.13 -0.401897 -1.65284 0
M  V30 16672 O 1608.31 -0.622906 -1.83939 0
M  V30 16673 C 1605.44 -1.49976 -3.13248 0
M  V30 16674 C 1604.4 -2.63267 -3.37453 0
M  V30 16675 C 1603.72 -2.43362 -4.76108 0
M  V30 16676 C 1605.02 -4.0538 -3.2934 0
M  V30 16677 H 1606.72 -2.48905 -1.66393 0
M  V30 16678 H 1604.26 -1.19794 -0.799088 0
M  V30 16679 H 1606.22 -1.55729 -3.91569 0
M  V30 16680 H 1604.94 -0.525254 -3.22349 0
M  V30 16681 H 1603.6 -2.56915 -2.61515 0
M  V30 16682 H 1603.25 -1.44088 -4.81921 0
M  V30 16683 H 1602.95 -3.19324 -4.93261 0
M  V30 16684 H 1604.47 -2.50943 -5.56651 0
M  V30 16685 H 1605.88 -4.13064 -3.97556 0
M  V30 16686 H 1604.28 -4.81599 -3.58025 0
M  V30 16687 H 1605.35 -4.28465 -2.27038 0
M  V30 16688 N 1606.69 0.865285 -1.31722 0
M  V30 16689 C 1607.66 1.95449 -1.19718 0
M  V30 16690 C 1608.66 1.60329 -0.123025 0
M  V30 16691 O 1609.85 1.70168 -0.372643 0
M  V30 16692 C 1606.98 3.30421 -0.838718 0
M  V30 16693 H 1608.17 2.07522 -2.16506 0
M  V30 16694 H 1605.73 1.05416 -1.154 0
M  V30 16695 H 1606.46 3.24048 0.127797 0
M  V30 16696 H 1606.25 3.57286 -1.61522 0
M  V30 16697 H 1607.74 4.10274 -0.77876 0
M  V30 16698 N 1608.17 1.14759 1.0802 0
M  V30 16699 C 1609.1 0.860977 2.17047 0
M  V30 16700 C 1610.08 -0.185652 1.69084 0
M  V30 16701 O 1611.27 -0.0414797 1.94156 0
M  V30 16702 C 1608.4 0.342018 3.45612 0
M  V30 16703 C 1607.35 1.32455 4.06989 0
M  V30 16704 C 1606.68 0.664721 5.30552 0
M  V30 16705 C 1607.98 2.68819 4.4781 0
M  V30 16706 H 1609.67 1.77269 2.4128 0
M  V30 16707 H 1607.22 0.853757 1.15961 0
M  V30 16708 H 1609.17 0.129093 4.21202 0
M  V30 16709 H 1607.9 -0.605138 3.20945 0
M  V30 16710 H 1606.55 1.52371 3.33435 0
M  V30 16711 H 1606.2 -0.288367 5.02173 0
M  V30 16712 H 1605.9 1.32036 5.72573 0
M  V30 16713 H 1607.43 0.461412 6.08854 0
M  V30 16714 H 1608.84 2.52787 5.14559 0
M  V30 16715 H 1607.24 3.30694 5.00761 0
M  V30 16716 H 1608.31 3.25398 3.59506 0
M  V30 16717 N 1609.65 -1.26251 0.943322 0
M  V30 16718 C 1610.9 -1.92946 0.587764 0
M  V30 16719 C 1611.21 -1.74805 -0.877647 0
M  V30 16720 O 1612.42 -2.35976 -1.34267 0
M  V30 16721 C 1610.87 -3.45715 1.00047 0
M  V30 16722 C 1610.48 -3.72586 2.48764 0
M  V30 16723 C 1612.23 -4.18403 0.716905 0
M  V30 16724 C 1610.13 -5.18805 2.83893 0
M  V30 16725 H 1609.06 -0.722366 0.21611 0
M  V30 16726 H 1611.71 -1.43295 1.14625 0
M  V30 16727 H 1610.1 -3.94263 0.370491 0
M  V30 16728 H 1611.27 -3.34735 3.16684 0
M  V30 16729 H 1609.59 -3.13136 2.74472 0
M  V30 16730 H 1612.18 -5.2609 0.955669 0
M  V30 16731 H 1612.53 -4.14856 -0.346396 0
M  V30 16732 H 1613.06 -3.75726 1.3067 0
M  V30 16733 H 1609.8 -5.27454 3.89195 0
M  V30 16734 H 1609.32 -5.57745 2.20636 0
M  V30 16735 H 1611 -5.86828 2.72474 0
M  V30 16736 N 1611.13 -0.710588 -1.40671 0
M  V30 16737 C 1612.38 -0.247459 -2.00579 0
M  V30 16738 C 1612.7 1.16179 -1.56612 0
M  V30 16739 O 1611.97 1.7867 -0.803358 0
M  V30 16740 H 1610.55 -0.0884992 -0.741739 0
M  V30 16741 H 1613.21 -0.915103 -1.72081 0
M  V30 16742 H 1612.31 -0.276631 -3.10872 0
M  V30 16743 N 1612.61 1.50847 -0.456408 0
M  V30 16744 C 1613.85 2.04143 0.102549 0
M  V30 16745 C 1614.21 1.33189 1.38292 0
M  V30 16746 O 1615.41 1.7696 2.02333 0
M  V30 16747 C 1613.68 3.56164 0.296985 0
M  V30 16748 S 1615.24 4.31134 0.816609 0
M  V30 16749 H 1612.06 0.710632 0.0228845 0
M  V30 16750 H 1614.66 1.85402 -0.620186 0
M  V30 16751 H 1613.37 4.05365 -0.640906 0
M  V30 16752 H 1612.9 3.79232 1.04626 0
M  V30 16753 H 1614.91 4.49949 2.0919 0
M  V30 16754 N 1614.09 0.188454 1.56469 0
M  V30 16755 C 1615.31 -0.457846 2.01771 0
M  V30 16756 C 1615.73 -1.55646 1.06863 0
M  V30 16757 O 1615.09 -1.82356 0.0723619 0
M  V30 16758 C 1615.14 -1.02032 3.46802 0
M  V30 16759 O 1614.86 0.0344536 4.38086 0
M  V30 16760 C 1616.36 -1.74316 4.07589 0
M  V30 16761 H 1613.58 -0.115594 0.660968 0
M  V30 16762 H 1616.12 0.295213 2.02358 0
M  V30 16763 H 1614.28 -1.7238 3.46935 0
M  V30 16764 H 1614.69 -0.383254 5.23098 0
M  V30 16765 H 1616.17 -2.08912 5.1094 0
M  V30 16766 H 1616.64 -2.64445 3.50665 0
M  V30 16767 H 1617.25 -1.0857 4.11209 0
M  V30 16768 N 1615.56 -1.5737 -0.0851874 0
M  V30 16769 C 1616.79 -1.91183 -0.803983 0
M  V30 16770 C 1617.21 -0.78365 -1.70999 0
M  V30 16771 O 1616.57 0.264266 -1.79364 0
M  V30 16772 C 1616.62 -3.239 -1.58496 0
M  V30 16773 O 1615.72 -3.12189 -2.69466 0
M  V30 16774 H 1615.06 -0.626413 -0.220233 0
M  V30 16775 H 1617.59 -2.04519 -0.0574426 0
M  V30 16776 H 1617.6 -3.5745 -1.96707 0
M  V30 16777 H 1616.28 -4.05594 -0.920111 0
M  V30 16778 H 1614.86 -2.90173 -2.3421 0
M  V30 16779 N 1617.04 0.356258 -1.53521 0
M  V30 16780 C 1618.27 1.12273 -1.74383 0
M  V30 16781 C 1618.69 1.81981 -0.475881 0
M  V30 16782 O 1618.05 1.72083 0.570699 0
M  V30 16783 C 1618.1 2.12161 -2.91582 0
M  V30 16784 O 1617.2 3.1943 -2.60842 0
M  V30 16785 H 1616.54 0.325321 -0.578845 0
M  V30 16786 H 1619.07 0.410533 -2.00439 0
M  V30 16787 H 1619.08 2.55602 -3.18012 0
M  V30 16788 H 1617.76 1.60818 -3.8355 0
M  V30 16789 H 1616.33 2.80895 -2.4526 0
M  V30 16790 N 1618.52 1.45038 0.616577 0
M  V30 16791 C 1619.93 1.4316 1.19842 0
M  V30 16792 C 1620.28 0.154504 1.95591 0
M  V30 16793 O 1619.41 -0.744409 2.03193 0
M  V30 16794 C 1620 2.59354 2.17993 0
M  V30 16795 C 1618.56 2.60625 2.71573 0
M  V30 16796 C 1617.71 2.35243 1.4682 0
M  V30 16797 H 1620.66 1.53408 0.406402 0
M  V30 16798 H 1620.68 2.32939 3.00865 0
M  V30 16799 H 1620.19 3.52288 1.62833 0
M  V30 16800 H 1618.29 1.71672 3.30695 0
M  V30 16801 H 1618.41 3.59568 3.16619 0
M  V30 16802 H 1616.77 1.84622 1.75462 0
M  V30 16803 H 1617.55 3.3031 0.935414 0
M  V30 16804 N 1620 -0.858287 1.32179 0
M  V30 16805 C 1621.24 -1.61444 1.23723 0
M  V30 16806 C 1621.6 -1.91358 -0.199954 0
M  V30 16807 O 1620.89 -1.54239 -1.1367 0
M  V30 16808 C 1621.09 -2.94391 2.02654 0
M  V30 16809 C 1620.91 -2.7746 3.53901 0
M  V30 16810 C 1619.68 -2.76033 4.23242 0
M  V30 16811 C 1621.88 -2.51478 4.48624 0
M  V30 16812 N 1619.86 -2.50274 5.60568 0
M  V30 16813 C 1621.24 -2.35092 5.737 0
M  V30 16814 C 1623.29 -2.36917 4.37921 0
M  V30 16815 C 1621.99 -2.05624 6.89283 0
M  V30 16816 C 1624.02 -2.08839 5.533 0
M  V30 16817 C 1623.38 -1.9325 6.77373 0
M  V30 16818 H 1619.48 -0.594623 0.507885 0
M  V30 16819 H 1622.06 -1.00921 1.66502 0
M  V30 16820 H 1620.24 -3.52899 1.62225 0
M  V30 16821 H 1621.97 -3.59361 1.86123 0
M  V30 16822 H 1618.72 -2.8884 3.75325 0
M  V30 16823 H 1619.15 -2.40333 6.32905 0
M  V30 16824 H 1623.79 -2.47691 3.4265 0
M  V30 16825 H 1621.51 -1.93587 7.8457 0
M  V30 16826 H 1625.09 -1.98355 5.46943 0
M  V30 16827 H 1623.97 -1.71832 7.65143 0
M  V30 16828 N 1621.48 -1.1533 -1.07409 0
M  V30 16829 C 1622.89 -0.895817 -1.32088 0
M  V30 16830 C 1623.09 0.457526 -1.96237 0
M  V30 16831 O 1622.15 1.19958 -2.22185 0
M  V30 16832 C 1623.46 -2.03632 -2.21256 0
M  V30 16833 C 1625.01 -2.07079 -2.34707 0
M  V30 16834 C 1625.48 -3.20451 -3.27223 0
M  V30 16835 N 1626.97 -3.20095 -3.34804 0
M  V30 16836 C 1627.71 -4.04458 -4.0645 0
M  V30 16837 N 1627.21 -4.98883 -4.80715 0
M  V30 16838 N 1629 -3.92483 -4.02385 0
M  V30 16839 H 1621.15 -2.02478 -0.641578 0
M  V30 16840 H 1623.41 -0.882864 -0.345332 0
M  V30 16841 H 1623.12 -3.0132 -1.81381 0
M  V30 16842 H 1622.99 -1.96817 -3.21781 0
M  V30 16843 H 1625.38 -1.09991 -2.73836 0
M  V30 16844 H 1625.46 -2.17962 -1.3389 0
M  V30 16845 H 1625.1 -4.17791 -2.88813 0
M  V30 16846 H 1625.03 -3.06805 -4.27993 0
M  V30 16847 H 1627.53 -2.51712 -2.81868 0
M  V30 16848 H 1627.84 -5.59698 -5.32877 0
M  V30 16849 H 1626.18 -5.02872 -4.79734 0
M  V30 16850 H 1629.37 -3.18026 -3.43478 0
M  V30 16851 H 1629.55 -4.58454 -4.57956 0
M  V30 16852 N 1622.95 1.25748 -0.950004 0
M  V30 16853 C 1624.2 1.93951 -0.612734 0
M  V30 16854 C 1624.55 1.73078 0.840339 0
M  V30 16855 O 1623.85 1.06247 1.59443 0
M  V30 16856 C 1624.04 3.45843 -0.901521 0
M  V30 16857 C 1623.87 3.81488 -2.38111 0
M  V30 16858 C 1622.64 4.03786 -3.03785 0
M  V30 16859 C 1624.84 3.89355 -3.36017 0
M  V30 16860 N 1622.82 4.26386 -4.41665 0
M  V30 16861 C 1624.19 4.1659 -4.59187 0
M  V30 16862 C 1626.25 3.72017 -3.30919 0
M  V30 16863 C 1624.95 4.28291 -5.77892 0
M  V30 16864 C 1626.98 3.84955 -4.48958 0
M  V30 16865 C 1626.34 4.12598 -5.70913 0
M  V30 16866 H 1622.44 0.732147 -0.274745 0
M  V30 16867 H 1625.02 1.51638 -1.22123 0
M  V30 16868 H 1623.19 3.87063 -0.321997 0
M  V30 16869 H 1624.92 4.01285 -0.524624 0
M  V30 16870 H 1621.68 3.9949 -2.54372 0
M  V30 16871 H 1622.1 4.41701 -5.13059 0
M  V30 16872 H 1626.74 3.49667 -2.37682 0
M  V30 16873 H 1624.46 4.49459 -6.71574 0
M  V30 16874 H 1628.05 3.72933 -4.46556 0
M  V30 16875 H 1626.93 4.22385 -6.60727 0
M  V30 16876 N 1624.43 0.718038 1.40292 0
M  V30 16877 C 1625.36 0.0818367 2.33357 0
M  V30 16878 C 1626.34 -0.742854 1.53022 0
M  V30 16879 O 1627.53 -0.691281 1.8148 0
M  V30 16880 C 1624.66 -0.838843 3.37017 0
M  V30 16881 C 1623.61 -0.119589 4.27833 0
M  V30 16882 C 1622.94 -1.15615 5.22051 0
M  V30 16883 C 1624.24 1.02769 5.1209 0
M  V30 16884 H 1625.93 0.859167 2.86808 0
M  V30 16885 H 1623.48 0.414606 1.37902 0
M  V30 16886 H 1625.43 -1.29332 4.01063 0
M  V30 16887 H 1624.15 -1.6481 2.81967 0
M  V30 16888 H 1622.81 0.315088 3.65243 0
M  V30 16889 H 1622.46 -1.95852 4.63304 0
M  V30 16890 H 1622.16 -0.679767 5.83655 0
M  V30 16891 H 1623.69 -1.61068 5.88973 0
M  V30 16892 H 1625.1 0.652461 5.69575 0
M  V30 16893 H 1623.5 1.4326 5.82749 0
M  V30 16894 H 1624.57 1.85723 4.47923 0
M  V30 16895 N 1625.91 -1.50602 0.464402 0
M  V30 16896 C 1626.86 -2.28382 -0.333234 0
M  V30 16897 C 1627.83 -1.3314 -0.993125 0
M  V30 16898 O 1629.01 -1.62072 -1.00685 0
M  V30 16899 C 1626.15 -3.14841 -1.41313 0
M  V30 16900 C 1625.27 -4.25106 -0.768684 0
M  V30 16901 C 1624.4 -4.98833 -1.82591 0
M  V30 16902 C 1623.44 -6.00982 -1.16135 0
M  V30 16903 N 1622.58 -6.68012 -2.16112 0
M  V30 16904 H 1627.42 -2.96096 0.336354 0
M  V30 16905 H 1624.95 -1.46022 0.17772 0
M  V30 16906 H 1626.91 -3.63314 -2.05082 0
M  V30 16907 H 1625.54 -2.49186 -2.05197 0
M  V30 16908 H 1624.59 -3.80395 -0.0185964 0
M  V30 16909 H 1625.91 -4.98204 -0.243759 0
M  V30 16910 H 1625.06 -5.50991 -2.53957 0
M  V30 16911 H 1623.8 -4.25426 -2.38462 0
M  V30 16912 H 1622.8 -5.4809 -0.43328 0
M  V30 16913 H 1624.03 -6.76358 -0.609612 0
M  V30 16914 H 1621.97 -5.97401 -2.71013 0
M  V30 16915 H 1621.89 -7.36963 -1.68586 0
M  V30 16916 H 1623.16 -7.2479 -2.86879 0
M  V30 16917 N 1627.39 -0.19675 -1.56367 0
M  V30 16918 C 1628.32 0.75534 -2.16396 0
M  V30 16919 C 1629.33 1.17558 -1.12623 0
M  V30 16920 O 1630.52 1.11102 -1.39709 0
M  V30 16921 C 1627.62 2.03159 -2.71256 0
M  V30 16922 C 1626.8 1.77088 -3.99948 0
M  V30 16923 C 1625.85 2.89176 -4.39618 0
M  V30 16924 O 1624.88 2.58712 -5.07007 0
M  V30 16925 N 1626.08 4.17569 -4.03257 0
M  V30 16926 H 1628.85 0.241991 -2.98721 0
M  V30 16927 H 1626.41 -0.0148423 -1.61893 0
M  V30 16928 H 1628.4 2.77287 -2.94778 0
M  V30 16929 H 1626.97 2.45611 -1.93375 0
M  V30 16930 H 1626.19 0.867309 -3.84541 0
M  V30 16931 H 1627.48 1.5707 -4.83949 0
M  V30 16932 H 1626.88 4.45171 -3.49054 0
M  V30 16933 H 1625.43 4.88319 -4.31726 0
M  V30 16934 N 1628.87 1.57413 0.0768405 0
M  V30 16935 C 1629.81 2.0334 1.09185 0
M  V30 16936 C 1630.78 0.913073 1.38752 0
M  V30 16937 O 1631.97 1.18038 1.49906 0
M  V30 16938 C 1629.11 2.47805 2.40181 0
M  V30 16939 C 1628.22 3.73435 2.17188 0
M  V30 16940 C 1627.36 4.06703 3.41711 0
M  V30 16941 C 1626.4 5.25388 3.1406 0
M  V30 16942 N 1625.53 5.54319 4.309 0
M  V30 16943 H 1630.37 2.89825 0.693223 0
M  V30 16944 H 1627.91 1.43334 0.330736 0
M  V30 16945 H 1629.87 2.71635 3.16655 0
M  V30 16946 H 1628.5 1.64305 2.77856 0
M  V30 16947 H 1627.55 3.56974 1.3143 0
M  V30 16948 H 1628.86 4.60049 1.9276 0
M  V30 16949 H 1628.02 4.31407 4.26583 0
M  V30 16950 H 1626.75 3.18646 3.6921 0
M  V30 16951 H 1625.76 5.00486 2.27583 0
M  V30 16952 H 1626.98 6.15059 2.87888 0
M  V30 16953 H 1624.93 4.69222 4.5844 0
M  V30 16954 H 1624.85 6.35342 4.09727 0
M  V30 16955 H 1626.12 5.83571 5.16783 0
M  V30 16956 N 1630.34 -0.348112 1.53707 0
M  V30 16957 C 1631.59 -1.09048 1.70987 0
M  V30 16958 C 1631.92 -1.88444 0.469305 0
M  V30 16959 O 1631.2 -1.87037 -0.533629 0
M  V30 16960 C 1631.48 -2.03542 2.97057 0
M  V30 16961 C 1631.33 -1.27638 4.3131 0
M  V30 16962 C 1632.65 -3.03424 3.18782 0
M  V30 16963 H 1629.77 -0.395049 0.622178 0
M  V30 16964 H 1632.41 -0.369498 1.86373 0
M  V30 16965 H 1630.56 -2.65021 2.8407 0
M  V30 16966 H 1632.24 -0.688079 4.56139 0
M  V30 16967 H 1630.48 -0.578349 4.29927 0
M  V30 16968 H 1631.15 -1.96891 5.15692 0
M  V30 16969 H 1633.63 -2.52056 3.31069 0
M  V30 16970 H 1632.5 -3.66748 4.08396 0
M  V30 16971 H 1632.76 -3.74553 2.34866 0
M  V30 16972 N 1631.82 -1.45363 -0.608876 0
M  V30 16973 C 1633.05 -1.53066 -1.39949 0
M  V30 16974 C 1633.47 -0.16369 -1.87386 0
M  V30 16975 O 1632.83 0.851432 -1.60064 0
M  V30 16976 C 1632.88 -2.51836 -2.58091 0
M  V30 16977 O 1631.98 -2.03528 -3.58678 0
M  V30 16978 H 1631.32 -0.516031 -0.417861 0
M  V30 16979 H 1633.85 -1.90705 -0.74113 0
M  V30 16980 H 1633.86 -2.706 -3.05352 0
M  V30 16981 H 1632.54 -3.51117 -2.22912 0
M  V30 16982 H 1631.12 -1.94634 -3.18075 0
M  V30 16983 N 1633.3 0.851265 -1.32632 0
M  V30 16984 C 1634.23 1.96682 -1.17681 0
M  V30 16985 C 1635.25 1.62422 -0.110926 0
M  V30 16986 O 1636.43 1.74828 -0.360202 0
M  V30 16987 C 1633.53 3.29806 -0.779838 0
M  V30 16988 C 1632.71 3.92284 -1.93473 0
M  V30 16989 C 1631.77 5.03745 -1.52075 0
M  V30 16990 O 1630.79 5.23558 -2.23328 0
M  V30 16991 N 1631.99 5.78988 -0.418695 0
M  V30 16992 H 1634.76 2.10049 -2.13775 0
M  V30 16993 H 1632.32 1.02631 -1.25214 0
M  V30 16994 H 1634.31 4.0178 -0.485236 0
M  V30 16995 H 1632.88 3.1247 0.0900498 0
M  V30 16996 H 1632.1 3.13054 -2.39564 0
M  V30 16997 H 1633.39 4.30762 -2.7078 0
M  V30 16998 H 1632.79 5.65432 0.174269 0
M  V30 16999 H 1631.35 6.51541 -0.183714 0
M  V30 17000 N 1634.78 1.15898 1.06796 0
M  V30 17001 C 1636.01 0.959978 1.82943 0
M  V30 17002 C 1636.42 -0.495084 1.82608 0
M  V30 17003 O 1635.76 -1.35528 1.24008 0
M  V30 17004 C 1635.82 1.40408 3.30947 0
M  V30 17005 C 1635.49 2.87801 3.54993 0
M  V30 17006 C 1636.48 3.85834 3.48465 0
M  V30 17007 C 1634.17 3.25601 3.82478 0
M  V30 17008 C 1636.16 5.19672 3.6908 0
M  V30 17009 C 1633.85 4.59609 4.02744 0
M  V30 17010 C 1634.85 5.56454 3.96041 0
M  V30 17011 O 1634.53 6.8804 4.1576 0
M  V30 17012 H 1634.27 0.340717 0.583856 0
M  V30 17013 H 1636.82 1.54211 1.35677 0
M  V30 17014 H 1635.05 0.765395 3.7905 0
M  V30 17015 H 1636.74 1.1733 3.88572 0
M  V30 17016 H 1637.51 3.57977 3.27227 0
M  V30 17017 H 1633.38 2.50803 3.86806 0
M  V30 17018 H 1636.93 5.95249 3.63764 0
M  V30 17019 H 1632.83 4.8718 4.23469 0
M  V30 17020 H 1633.59 6.94541 4.33076 0
M  V30 17021 N 1636.26 -1.25243 0.956659 0
M  V30 17022 C 1637.49 -1.96796 0.628878 0
M  V30 17023 C 1637.89 -1.71284 -0.803648 0
M  V30 17024 O 1637.24 -0.986812 -1.54944 0
M  V30 17025 C 1637.3 -3.50253 0.810132 0
M  V30 17026 C 1636.96 -3.99445 2.2202 0
M  V30 17027 C 1637.96 -4.09982 3.19704 0
M  V30 17028 C 1635.65 -4.33057 2.54493 0
M  V30 17029 C 1637.64 -4.53449 4.47954 0
M  V30 17030 C 1635.33 -4.7621 3.82972 0
M  V30 17031 C 1636.32 -4.86369 4.79515 0
M  V30 17032 O 1636.01 -5.28563 6.05703 0
M  V30 17033 H 1635.74 -0.634013 0.234529 0
M  V30 17034 H 1638.3 -1.60318 1.28402 0
M  V30 17035 H 1636.53 -3.86576 0.0978322 0
M  V30 17036 H 1638.22 -4.03015 0.483099 0
M  V30 17037 H 1638.98 -3.84243 2.95943 0
M  V30 17038 H 1634.86 -4.24375 1.80075 0
M  V30 17039 H 1638.41 -4.61294 5.23311 0
M  V30 17040 H 1634.3 -5.01394 4.06539 0
M  V30 17041 H 1635.07 -5.46744 6.09109 0
M  V30 17042 N 1637.73 -0.725468 -1.3991 0
M  V30 17043 C 1638.98 -0.268719 -2.00306 0
M  V30 17044 C 1639.3 1.14511 -1.57836 0
M  V30 17045 O 1638.57 1.77808 -0.822263 0
M  V30 17046 H 1637.15 -0.0963614 -0.740759 0
M  V30 17047 H 1639.82 -0.933303 -1.71101 0
M  V30 17048 H 1638.91 -0.309587 -3.10561 0
M  V30 17049 N 1639.21 1.50354 -0.472382 0
M  V30 17050 C 1640.46 2.01526 0.0838536 0
M  V30 17051 C 1640.77 1.35913 1.40667 0
M  V30 17052 O 1641.98 1.78248 2.04792 0
M  V30 17053 C 1640.44 3.59344 0.199949 0
M  V30 17054 C 1640.04 4.33916 -1.11451 0
M  V30 17055 C 1641.79 4.18553 0.708075 0
M  V30 17056 C 1639.7 5.83521 -0.962138 0
M  V30 17057 H 1638.63 0.753182 0.0351127 0
M  V30 17058 H 1641.28 1.73153 -0.607474 0
M  V30 17059 H 1639.66 3.8431 0.955088 0
M  V30 17060 H 1640.83 4.20673 -1.8807 0
M  V30 17061 H 1639.15 3.86322 -1.55385 0
M  V30 17062 H 1641.74 5.28075 0.839126 0
M  V30 17063 H 1642.09 3.80019 1.69973 0
M  V30 17064 H 1642.62 3.97799 0.0102847 0
M  V30 17065 H 1639.36 6.26529 -1.9272 0
M  V30 17066 H 1638.88 5.99334 -0.236348 0
M  V30 17067 H 1640.56 6.43933 -0.629276 0
M  V30 17068 N 1640.69 0.205039 1.56261 0
M  V30 17069 C 1642.1 -0.305792 1.84179 0
M  V30 17070 C 1642.45 -1.60672 1.126 0
M  V30 17071 O 1641.58 -2.12855 0.390118 0
M  V30 17072 C 1642.17 -0.561596 3.34113 0
M  V30 17073 C 1640.73 -1.01677 3.62407 0
M  V30 17074 C 1639.88 -0.0707844 2.7721 0
M  V30 17075 H 1642.83 0.428609 1.52803 0
M  V30 17076 H 1642.85 -1.40969 3.53423 0
M  V30 17077 H 1642.36 0.38541 3.86182 0
M  V30 17078 H 1640.46 -1.97771 3.1578 0
M  V30 17079 H 1640.58 -0.902607 4.70521 0
M  V30 17080 H 1638.94 -0.574529 2.48136 0
M  V30 17081 H 1639.72 0.870844 3.32071 0
M  V30 17082 N 1642.17 -1.57451 -0.0684915 0
M  V30 17083 C 1643.1 -1.99219 -1.11297 0
M  V30 17084 C 1644.08 -0.869657 -1.37389 0
M  V30 17085 O 1645.26 -1.13224 -1.50707 0
M  V30 17086 C 1642.39 -2.33172 -2.4566 0
M  V30 17087 C 1641.44 -3.55467 -2.35681 0
M  V30 17088 S 1642.27 -5.06175 -1.74777 0
M  V30 17089 C 1643.43 -5.43332 -3.10711 0
M  V30 17090 H 1643.66 -2.875 -0.757037 0
M  V30 17091 H 1641.19 -1.51892 -0.27714 0
M  V30 17092 H 1643.15 -2.53407 -3.22947 0
M  V30 17093 H 1641.81 -1.45413 -2.78413 0
M  V30 17094 H 1641 -3.76751 -3.34775 0
M  V30 17095 H 1640.61 -3.34879 -1.6653 0
M  V30 17096 H 1642.9 -5.41605 -4.07026 0
M  V30 17097 H 1643.84 -6.44089 -2.94203 0
M  V30 17098 H 1644.25 -4.70795 -3.11468 0
M  V30 17099 N 1643.65 0.339955 -1.5389 0
M  V30 17100 C 1644.61 1.40058 -1.81429 0
M  V30 17101 C 1645.61 1.45458 -0.685463 0
M  V30 17102 O 1646.8 1.45771 -0.953754 0
M  V30 17103 C 1643.93 2.78952 -1.95955 0
M  V30 17104 H 1645.13 1.16902 -2.76178 0
M  V30 17105 H 1642.68 0.574543 -1.45357 0
M  V30 17106 H 1643.41 3.07387 -1.03361 0
M  V30 17107 H 1643.2 2.76429 -2.78082 0
M  V30 17108 H 1644.69 3.55713 -2.18765 0
M  V30 17109 N 1645.13 1.45684 0.601159 0
M  V30 17110 C 1646.04 1.57396 1.73965 0
M  V30 17111 C 1647.05 0.458133 1.6786 0
M  V30 17112 O 1648.23 0.719717 1.88101 0
M  V30 17113 C 1645.29 1.54363 3.1044 0
M  V30 17114 C 1644.35 2.77034 3.27949 0
M  V30 17115 C 1643.59 2.74136 4.57914 0
M  V30 17116 O 1643.81 1.81829 5.40643 0
M  V30 17117 O 1642.74 3.65428 4.78274 0
M  V30 17118 H 1646.57 2.5364 1.67034 0
M  V30 17119 H 1644.15 1.28267 0.766017 0
M  V30 17120 H 1646.04 1.55302 3.91739 0
M  V30 17121 H 1644.71 0.612723 3.17848 0
M  V30 17122 H 1643.62 2.81655 2.46214 0
M  V30 17123 H 1644.95 3.69272 3.25422 0
M  V30 17124 N 1646.6 -0.84422 1.33082 0
M  V30 17125 C 1648.02 -1.13406 1.12299 0
M  V30 17126 C 1648.22 -2.013 -0.0896529 0
M  V30 17127 O 1647.28 -2.40425 -0.771493 0
M  V30 17128 C 1648.59 -1.80132 2.40776 0
M  V30 17129 C 1650.14 -1.92721 2.46632 0
M  V30 17130 C 1650.61 -2.62863 3.75056 0
M  V30 17131 N 1652.1 -2.70379 3.76097 0
M  V30 17132 C 1652.84 -3.25328 4.72175 0
M  V30 17133 N 1652.33 -3.81005 5.78625 0
M  V30 17134 N 1654.13 -3.23529 4.59658 0
M  V30 17135 H 1646.28 -0.259126 2.10813 0
M  V30 17136 H 1648.54 -0.177459 0.931242 0
M  V30 17137 H 1648.25 -1.23007 3.29488 0
M  V30 17138 H 1648.12 -2.802 2.52523 0
M  V30 17139 H 1650.51 -2.49002 1.58373 0
M  V30 17140 H 1650.59 -0.916191 2.3883 0
M  V30 17141 H 1650.23 -2.07242 4.63695 0
M  V30 17142 H 1650.16 -3.64425 3.80134 0
M  V30 17143 H 1652.65 -2.30891 2.99162 0
M  V30 17144 H 1652.97 -4.21121 6.47979 0
M  V30 17145 H 1651.31 -3.79308 5.82366 0
M  V30 17146 H 1654.5 -2.79286 3.75656 0
M  V30 17147 H 1654.68 -3.66051 5.34706 0
M  V30 17148 N 1648.08 -1.16463 -1.0618 0
M  V30 17149 C 1649.01 -0.829995 -2.13644 0
M  V30 17150 C 1650.03 0.16326 -1.61979 0
M  V30 17151 O 1651.22 -0.0616575 -1.78393 0
M  V30 17152 C 1648.32 -0.215222 -3.38216 0
M  V30 17153 C 1647.49 -1.24886 -4.19192 0
M  V30 17154 C 1646.55 -0.653683 -5.22124 0
M  V30 17155 O 1645.57 -1.32285 -5.53615 0
M  V30 17156 N 1646.78 0.559031 -5.77802 0
M  V30 17157 H 1649.54 -1.75487 -2.42949 0
M  V30 17158 H 1647.1 -1.06212 -1.22191 0
M  V30 17159 H 1649.09 0.196005 -4.04225 0
M  V30 17160 H 1647.66 0.613229 -3.06526 0
M  V30 17161 H 1646.88 -1.83622 -3.48822 0
M  V30 17162 H 1648.17 -1.94639 -4.70099 0
M  V30 17163 H 1647.57 1.12083 -5.54485 0
M  V30 17164 H 1646.13 0.912453 -6.45382 0
M  V30 17165 N 1649.56 1.24734 -0.963288 0
M  V30 17166 C 1650.51 2.27557 -0.481704 0
M  V30 17167 C 1651.5 1.63245 0.452488 0
M  V30 17168 O 1652.71 1.76981 0.328263 0
M  V30 17169 H 1649.08 0.73936 -0.137297 0
M  V30 17170 H 1651.05 2.65555 -1.361 0
M  V30 17171 C 1649.8 3.47023 0.216806 0
M  V30 17172 H 1649.13 3.9675 -0.492916 0
M  V30 17173 H 1650.57 4.20828 0.517659 0
M  V30 17174 C 1649.02 3.04466 1.44229 0
M  V30 17175 O 1649.55 3.11238 2.53956 0
M  V30 17176 N 1647.76 2.59563 1.30674 0
M  V30 17177 H 1647.31 2.54252 0.41395 0
M  V30 17178 H 1647.27 2.31453 2.12783 0
M  V30 17179 N 1651.04 0.732878 1.39523 0
M  V30 17180 C 1652.31 0.20629 1.94509 0
M  V30 17181 C 1652.69 -1.29152 1.66982 0
M  V30 17182 O 1652.04 -2.05607 0.996895 0
M  V30 17183 C 1652.25 0.537619 3.44834 0
M  V30 17184 C 1653.6 0.485787 4.21812 0
M  V30 17185 O 1654.62 0.474686 3.53023 0
M  V30 17186 O 1653.48 0.478457 5.44402 0
M  V30 17187 H 1650.58 0.0369228 0.826175 0
M  V30 17188 H 1653.12 0.811591 1.49035 0
M  V30 17189 H 1651.9 1.57289 3.58296 0
M  V30 17190 H 1651.52 -0.0967601 3.97482 0
M  V30 17191 N 1652.52 -1.50101 0.480349 0
M  V30 17192 C 1653.74 -2.07278 -0.0710872 0
M  V30 17193 C 1654.17 -1.34082 -1.31923 0
M  V30 17194 O 1653.52 -0.391251 -1.77028 0
M  V30 17195 C 1653.57 -3.59099 -0.328706 0
M  V30 17196 O 1652.68 -3.8764 -1.40745 0
M  V30 17197 H 1652.02 -0.66378 0.0170748 0
M  V30 17198 H 1654.55 -1.93178 0.674049 0
M  V30 17199 H 1654.56 -4.04049 -0.566435 0
M  V30 17200 H 1653.23 -4.11789 0.583316 0
M  V30 17201 H 1651.81 -3.54519 -1.15631 0
M  V30 17202 N 1653.99 -0.213323 -1.5615 0
M  V30 17203 C 1655.24 0.414505 -1.99132 0
M  V30 17204 C 1655.59 1.57968 -1.09836 0
M  V30 17205 O 1654.89 1.91039 -0.146566 0
M  V30 17206 C 1655.08 0.905764 -3.45732 0
M  V30 17207 C 1654.91 -0.210267 -4.49208 0
M  V30 17208 C 1653.68 -0.673947 -5.00785 0
M  V30 17209 C 1655.88 -1.02566 -5.03969 0
M  V30 17210 N 1653.86 -1.76589 -5.87954 0
M  V30 17211 C 1655.23 -1.96663 -5.87983 0
M  V30 17212 C 1657.29 -1.06602 -4.86354 0
M  V30 17213 C 1655.99 -2.94467 -6.56263 0
M  V30 17214 C 1658.02 -2.0322 -5.55388 0
M  V30 17215 C 1657.38 -2.96058 -6.39163 0
M  V30 17216 H 1653.48 0.118581 -0.772957 0
M  V30 17217 H 1656.06 -0.323206 -1.91999 0
M  V30 17218 H 1654.23 1.61286 -3.53329 0
M  V30 17219 H 1655.96 1.50572 -3.75646 0
M  V30 17220 H 1652.72 -0.26401 -4.72864 0
M  V30 17221 H 1653.14 -2.31362 -6.36239 0
M  V30 17222 H 1657.78 -0.362209 -4.21246 0
M  V30 17223 H 1655.5 -3.65815 -7.20559 0
M  V30 17224 H 1659.09 -2.07007 -5.43727 0
M  V30 17225 H 1657.97 -3.696 -6.91639 0
M  V30 17226 N 1655.47 1.57485 0.0601405 0
M  V30 17227 C 1656.4 2.07525 1.07031 0
M  V30 17228 C 1657.38 0.971136 1.39653 0
M  V30 17229 O 1658.57 1.24456 1.49078 0
M  V30 17230 C 1655.7 2.52888 2.38044 0
M  V30 17231 C 1654.65 3.67282 2.19745 0
M  V30 17232 C 1653.98 3.98741 3.56244 0
M  V30 17233 C 1655.28 4.96896 1.60908 0
M  V30 17234 H 1656.97 2.92173 0.653875 0
M  V30 17235 H 1654.52 1.40555 0.313083 0
M  V30 17236 H 1656.47 2.8651 3.09014 0
M  V30 17237 H 1655.2 1.65284 2.81689 0
M  V30 17238 H 1653.85 3.33961 1.51213 0
M  V30 17239 H 1653.5 3.08249 3.97481 0
M  V30 17240 H 1653.2 4.75775 3.44836 0
M  V30 17241 H 1654.73 4.34869 4.28627 0
M  V30 17242 H 1656.14 5.28674 2.21758 0
M  V30 17243 H 1654.54 5.78332 1.60164 0
M  V30 17244 H 1655.61 4.81518 0.571671 0
M  V30 17245 N 1656.95 -0.331789 1.54068 0
M  V30 17246 C 1657.9 -1.40798 1.82879 0
M  V30 17247 C 1658.87 -1.51753 0.675292 0
M  V30 17248 O 1660.05 -1.67105 0.920905 0
M  V30 17249 C 1657.19 -2.7728 2.0545 0
M  V30 17250 C 1656.31 -2.75022 3.33147 0
M  V30 17251 C 1655.44 -4.03297 3.45723 0
M  V30 17252 C 1654.48 -3.95314 4.67326 0
M  V30 17253 N 1653.62 -5.15303 4.76872 0
M  V30 17254 H 1658.46 -1.15529 2.74695 0
M  V30 17255 H 1655.99 -0.559411 1.36048 0
M  V30 17256 H 1657.95 -3.56611 2.16528 0
M  V30 17257 H 1656.58 -3.00875 1.16935 0
M  V30 17258 H 1655.63 -1.87729 3.30851 0
M  V30 17259 H 1656.95 -2.65003 4.22581 0
M  V30 17260 H 1656.1 -4.91057 3.56297 0
M  V30 17261 H 1654.84 -4.16112 2.54367 0
M  V30 17262 H 1653.84 -3.05939 4.56817 0
M  V30 17263 H 1655.07 -3.84072 5.60058 0
M  V30 17264 H 1653.01 -5.28639 3.88429 0
M  V30 17265 H 1652.93 -5.07588 5.60259 0
M  V30 17266 H 1654.2 -6.04801 4.91769 0
M  V30 17267 N 1658.43 -1.46001 -0.593424 0
M  V30 17268 C 1659.38 -1.55752 -1.70323 0
M  V30 17269 C 1660.35 -0.402466 -1.6115 0
M  V30 17270 O 1661.53 -0.617804 -1.80521 0
M  V30 17271 C 1658.67 -1.54362 -3.08653 0
M  V30 17272 C 1657.78 -2.80523 -3.28529 0
M  V30 17273 C 1656.92 -2.70709 -4.57045 0
M  V30 17274 C 1655.96 -3.91857 -4.70228 0
M  V30 17275 N 1655.09 -3.80494 -5.90059 0
M  V30 17276 H 1659.93 -2.50555 -1.61326 0
M  V30 17277 H 1657.47 -1.24313 -0.786425 0
M  V30 17278 H 1659.43 -1.51542 -3.88704 0
M  V30 17279 H 1658.06 -0.630986 -3.16573 0
M  V30 17280 H 1657.11 -2.93368 -2.42155 0
M  V30 17281 H 1658.42 -3.70341 -3.3414 0
M  V30 17282 H 1657.58 -2.65935 -5.45311 0
M  V30 17283 H 1656.32 -1.78513 -4.53855 0
M  V30 17284 H 1655.32 -3.96975 -3.80383 0
M  V30 17285 H 1656.55 -4.85136 -4.75205 0
M  V30 17286 H 1654.49 -2.91077 -5.87886 0
M  V30 17287 H 1654.41 -4.63958 -5.96891 0
M  V30 17288 H 1655.68 -3.79676 -6.80783 0
M  V30 17289 N 1659.91 0.83715 -1.33527 0
M  V30 17290 C 1661.15 1.59251 -1.25081 0
M  V30 17291 C 1661.48 1.93638 0.182956 0
M  V30 17292 O 1660.74 1.59025 1.14059 0
M  V30 17293 C 1661.04 2.9113 -2.07312 0
M  V30 17294 C 1660.7 2.76098 -3.56484 0
M  V30 17295 C 1659.36 2.71706 -3.97151 0
M  V30 17296 C 1661.72 2.60781 -4.51268 0
M  V30 17297 C 1659.04 2.49899 -5.30818 0
M  V30 17298 C 1661.4 2.40507 -5.85097 0
M  V30 17299 C 1660.06 2.34519 -6.24946 0
M  V30 17300 H 1659.33 0.582741 -0.457705 0
M  V30 17301 H 1661.98 0.969749 -1.65131 0
M  V30 17302 H 1660.28 3.57621 -1.60045 0
M  V30 17303 H 1661.98 3.48632 -1.98133 0
M  V30 17304 H 1658.57 2.8035 -3.24194 0
M  V30 17305 H 1662.75 2.63207 -4.20756 0
M  V30 17306 H 1658.01 2.4371 -5.60728 0
M  V30 17307 H 1662.18 2.27639 -6.58144 0
M  V30 17308 H 1659.81 2.17381 -7.28457 0
M  V30 17309 N 1661.38 1.17024 1.05561 0
M  V30 17310 C 1662.61 0.98075 1.82178 0
M  V30 17311 C 1663.03 -0.471027 1.8283 0
M  V30 17312 O 1662.38 -1.32703 1.25284 0
M  V30 17313 C 1662.44 1.50979 3.28463 0
M  V30 17314 O 1662.16 2.90471 3.27961 0
M  V30 17315 C 1663.66 1.36436 4.21782 0
M  V30 17316 H 1660.88 0.3472 0.574189 0
M  V30 17317 H 1663.42 1.55226 1.33136 0
M  V30 17318 H 1661.58 0.980393 3.74789 0
M  V30 17319 H 1661.99 3.14847 4.19489 0
M  V30 17320 H 1663.46 1.78272 5.2242 0
M  V30 17321 H 1663.94 0.310922 4.38098 0
M  V30 17322 H 1664.55 1.88374 3.81308 0
M  V30 17323 N 1662.86 -1.24221 0.969889 0
M  V30 17324 C 1663.77 -2.29001 0.509467 0
M  V30 17325 C 1664.79 -1.68587 -0.430637 0
M  V30 17326 O 1665.96 -1.99106 -0.303142 0
M  V30 17327 C 1663.03 -3.46174 -0.190906 0
M  V30 17328 C 1662.09 -4.21982 0.789296 0
M  V30 17329 C 1661.32 -5.3356 0.122252 0
M  V30 17330 O 1661.55 -5.59909 -1.08896 0
M  V30 17331 O 1660.48 -5.9635 0.815517 0
M  V30 17332 H 1664.31 -2.70506 1.38058 0
M  V30 17333 H 1661.89 -1.29955 0.737028 0
M  V30 17334 H 1663.77 -4.1733 -0.584244 0
M  V30 17335 H 1662.45 -3.06642 -1.03695 0
M  V30 17336 H 1661.36 -3.53192 1.23313 0
M  V30 17337 H 1662.69 -4.65337 1.60382 0
M  V30 17338 N 1664.34 -0.740267 -1.39132 0
M  V30 17339 C 1665.27 -0.0524011 -2.2814 0
M  V30 17340 C 1666.25 0.742237 -1.44671 0
M  V30 17341 O 1667.44 0.723684 -1.74055 0
M  V30 17342 C 1664.56 0.932876 -3.256 0
M  V30 17343 C 1663.61 0.226089 -4.259 0
M  V30 17344 S 1664.44 -1.06369 -5.24829 0
M  V30 17345 C 1665.6 -0.0811445 -6.25847 0
M  V30 17346 H 1665.83 -0.807208 -2.86132 0
M  V30 17347 H 1663.36 -0.532283 -1.44935 0
M  V30 17348 H 1665.32 1.49604 -3.82268 0
M  V30 17349 H 1663.98 1.66056 -2.66616 0
M  V30 17350 H 1663.18 0.971812 -4.94542 0
M  V30 17351 H 1662.78 -0.265186 -3.73059 0
M  V30 17352 H 1665.07 0.757451 -6.73252 0
M  V30 17353 H 1666.01 -0.734849 -7.04277 0
M  V30 17354 H 1666.42 0.293606 -5.63736 0
M  V30 17355 N 1665.82 1.49844 -0.488302 0
M  V30 17356 C 1667.05 2.06819 0.0578807 0
M  V30 17357 C 1667.46 1.35018 1.31969 0
M  V30 17358 O 1666.82 0.424614 1.77492 0
M  V30 17359 C 1666.87 3.60005 0.328435 0
M  V30 17360 O 1666.59 4.29102 -0.883338 0
M  V30 17361 C 1668.09 4.33655 0.919675 0
M  V30 17362 H 1665.31 0.670837 -0.014775 0
M  V30 17363 H 1667.86 1.92792 -0.682022 0
M  V30 17364 H 1666.01 3.73777 1.0183 0
M  V30 17365 H 1666.42 5.206 -0.638414 0
M  V30 17366 H 1667.9 5.41753 1.05864 0
M  V30 17367 H 1668.38 3.95289 1.91424 0
M  V30 17368 H 1668.98 4.24457 0.267672 0
M  V30 17369 N 1667.3 0.221601 1.56034 0
M  V30 17370 C 1668.24 -0.704963 2.2166 0
M  V30 17371 C 1669.24 -1.19966 1.19601 0
M  V30 17372 O 1670.44 -1.15949 1.37681 0
M  V30 17373 H 1666.82 -0.245758 0.710709 0
M  V30 17374 H 1668.79 -0.128041 2.98125 0
M  V30 17375 C 1667.54 -1.90234 2.91043 0
M  V30 17376 H 1666.86 -1.53079 3.69333 0
M  V30 17377 H 1668.3 -2.52844 3.40361 0
M  V30 17378 C 1666.76 -2.75777 1.93516 0
M  V30 17379 O 1667.29 -3.74534 1.45214 0
M  V30 17380 N 1665.5 -2.41815 1.61165 0
M  V30 17381 H 1665.04 -1.61561 2.00639 0
M  V30 17382 H 1665 -2.9933 0.96172 0
M  V30 17383 N 1668.77 -1.57515 -0.0517878 0
M  V30 17384 C 1669.74 -2.04049 -1.04387 0
M  V30 17385 C 1670.74 -0.940745 -1.30409 0
M  V30 17386 O 1671.93 -1.20505 -1.25794 0
M  V30 17387 C 1669.06 -2.43816 -2.38257 0
M  V30 17388 H 1670.25 -2.9294 -0.642367 0
M  V30 17389 H 1667.81 -1.53432 -0.29805 0
M  V30 17390 H 1668.54 -1.58013 -2.832 0
M  V30 17391 H 1668.33 -3.24086 -2.20705 0
M  V30 17392 H 1669.82 -2.80325 -3.09528 0
M  V30 17393 N 1670.25 0.323614 -1.54242 0
M  V30 17394 C 1671.49 1.06978 -1.74169 0
M  V30 17395 C 1671.86 1.85248 -0.504693 0
M  V30 17396 O 1673.06 2.62439 -0.581318 0
M  V30 17397 C 1671.33 1.97001 -2.98203 0
M  V30 17398 S 1672.89 2.78571 -3.39034 0
M  V30 17399 H 1669.71 0.361157 -0.612443 0
M  V30 17400 H 1672.31 0.345789 -1.92418 0
M  V30 17401 H 1671.01 1.38336 -3.86382 0
M  V30 17402 H 1670.54 2.73806 -2.82478 0
M  V30 17403 H 1672.56 3.99481 -2.94329 0
M  V30 17404 N 1671.73 1.46313 0.585673 0
M  V30 17405 C 1672.68 1.56653 1.69495 0
M  V30 17406 C 1673.65 0.411007 1.60935 0
M  V30 17407 O 1674.83 0.627369 1.80191 0
M  V30 17408 C 1671.97 1.55996 3.0783 0
M  V30 17409 C 1671.09 2.82261 3.27036 0
M  V30 17410 C 1670.22 2.73129 4.55603 0
M  V30 17411 C 1669.26 3.94346 4.68143 0
M  V30 17412 N 1668.4 3.83617 5.88032 0
M  V30 17413 H 1673.24 2.51407 1.59995 0
M  V30 17414 H 1670.77 1.24729 0.779821 0
M  V30 17415 H 1672.73 1.53602 3.87895 0
M  V30 17416 H 1671.36 0.647766 3.16234 0
M  V30 17417 H 1670.41 2.94648 2.40596 0
M  V30 17418 H 1671.73 3.72107 3.32171 0
M  V30 17419 H 1670.88 2.68823 5.43893 0
M  V30 17420 H 1669.62 1.80917 4.52902 0
M  V30 17421 H 1668.62 3.98987 3.78272 0
M  V30 17422 H 1669.85 4.8765 4.72625 0
M  V30 17423 H 1667.8 2.9419 5.86334 0
M  V30 17424 H 1667.71 4.67117 5.94422 0
M  V30 17425 H 1668.98 3.83281 6.7876 0
M  V30 17426 N 1673.21 -0.830057 1.33969 0
M  V30 17427 C 1674.63 -1.12209 1.13496 0
M  V30 17428 C 1674.83 -2.01384 -0.0682972 0
M  V30 17429 O 1673.88 -2.4123 -0.745949 0
M  V30 17430 C 1675.19 -1.77568 2.42673 0
M  V30 17431 C 1676.74 -1.90095 2.48662 0
M  V30 17432 C 1677.22 -2.5887 3.77823 0
M  V30 17433 N 1678.71 -2.66375 3.78944 0
M  V30 17434 C 1679.44 -3.20301 4.75599 0
M  V30 17435 N 1678.94 -3.74846 5.82634 0
M  V30 17436 N 1680.73 -3.18636 4.63063 0
M  V30 17437 H 1672.88 -0.236752 2.11076 0
M  V30 17438 H 1675.15 -0.167572 0.933072 0
M  V30 17439 H 1674.85 -1.19505 3.30774 0
M  V30 17440 H 1674.73 -2.77505 2.55481 0
M  V30 17441 H 1677.11 -2.47308 1.61005 0
M  V30 17442 H 1677.19 -0.890808 2.39788 0
M  V30 17443 H 1676.84 -2.02313 4.65867 0
M  V30 17444 H 1676.77 -3.60373 3.83978 0
M  V30 17445 H 1679.26 -2.27705 3.01594 0
M  V30 17446 H 1679.57 -4.14224 6.52409 0
M  V30 17447 H 1677.92 -3.7311 5.86357 0
M  V30 17448 H 1681.11 -2.75286 3.78597 0
M  V30 17449 H 1681.28 -3.60359 5.38559 0
M  V30 17450 N 1674.69 -1.17582 -1.04939 0
M  V30 17451 C 1675.62 -0.838287 -2.12245 0
M  V30 17452 C 1676.6 0.196015 -1.61414 0
M  V30 17453 O 1677.78 0.0769706 -1.88343 0
M  V30 17454 C 1674.91 -0.250934 -3.37769 0
M  V30 17455 C 1673.96 -1.26103 -4.07431 0
M  V30 17456 S 1674.79 -2.81338 -4.55641 0
M  V30 17457 C 1675.94 -2.2409 -5.8441 0
M  V30 17458 H 1676.18 -1.74709 -2.40549 0
M  V30 17459 H 1673.71 -1.00075 -1.17577 0
M  V30 17460 H 1675.67 0.0814566 -4.10419 0
M  V30 17461 H 1674.33 0.635851 -3.07597 0
M  V30 17462 H 1673.52 -0.798761 -4.9763 0
M  V30 17463 H 1673.12 -1.5392 -3.40859 0
M  V30 17464 H 1675.42 -1.61804 -6.57895 0
M  V30 17465 H 1676.36 -3.12554 -6.35386 0
M  V30 17466 H 1676.77 -1.67444 -5.39094 0
M  V30 17467 N 1676.17 1.23705 -0.976463 0
M  V30 17468 C 1677.08 2.28728 -0.521605 0
M  V30 17469 C 1678.09 1.68813 0.421691 0
M  V30 17470 O 1679.27 1.99263 0.292579 0
M  V30 17471 C 1676.33 3.4627 0.172545 0
M  V30 17472 C 1675.39 4.21557 -0.811664 0
M  V30 17473 C 1674.63 5.33488 -0.150546 0
M  V30 17474 O 1674.85 5.60478 1.05926 0
M  V30 17475 O 1673.78 5.95909 -0.847132 0
M  V30 17476 H 1677.61 2.6977 -1.39491 0
M  V30 17477 H 1675.19 1.29562 -0.743909 0
M  V30 17478 H 1677.08 4.17634 0.562103 0
M  V30 17479 H 1675.75 3.07187 1.02067 0
M  V30 17480 H 1674.66 3.52533 -1.25185 0
M  V30 17481 H 1675.99 4.6448 -1.62848 0
M  V30 17482 N 1677.64 0.747635 1.38738 0
M  V30 17483 C 1678.89 0.310528 2.01016 0
M  V30 17484 C 1679.24 -1.09387 1.58279 0
M  V30 17485 O 1678.54 -1.73751 0.807534 0
M  V30 17486 C 1678.73 0.364869 3.55533 0
M  V30 17487 C 1678.56 1.77301 4.13273 0
M  V30 17488 C 1677.33 2.38818 4.45302 0
M  V30 17489 C 1679.53 2.7287 4.35943 0
M  V30 17490 N 1677.51 3.71655 4.88616 0
M  V30 17491 C 1678.88 3.90463 4.816 0
M  V30 17492 C 1680.94 2.70469 4.18032 0
M  V30 17493 C 1679.64 5.06006 5.11224 0
M  V30 17494 C 1681.67 3.85166 4.48777 0
M  V30 17495 C 1681.03 5.01496 4.94652 0
M  V30 17496 H 1677.13 0.16016 0.765423 0
M  V30 17497 H 1679.71 0.976313 1.68452 0
M  V30 17498 H 1677.88 -0.270619 3.87456 0
M  V30 17499 H 1679.61 -0.0919881 4.04595 0
M  V30 17500 H 1676.37 1.90633 4.33539 0
M  V30 17501 H 1676.79 4.39887 5.14615 0
M  V30 17502 H 1681.43 1.81718 3.81757 0
M  V30 17503 H 1679.15 5.95377 5.46399 0
M  V30 17504 H 1682.74 3.84621 4.36529 0
M  V30 17505 H 1681.62 5.88775 5.1799 0
M  V30 17506 N 1679.12 -1.49583 0.496242 0
M  V30 17507 C 1680.37 -2.01634 -0.051782 0
M  V30 17508 C 1680.68 -1.38133 -1.38487 0
M  V30 17509 O 1681.89 -1.81484 -2.0193 0
M  V30 17510 C 1680.35 -3.59617 -0.142755 0
M  V30 17511 C 1679.95 -4.32088 1.1834 0
M  V30 17512 C 1681.7 -4.19626 -0.641397 0
M  V30 17513 C 1679.6 -5.81917 1.05485 0
M  V30 17514 H 1678.53 -0.753645 -0.0231258 0
M  V30 17515 H 1681.19 -1.72165 0.634944 0
M  V30 17516 H 1679.57 -3.85781 -0.893826 0
M  V30 17517 H 1680.74 -4.17628 1.94739 0
M  V30 17518 H 1679.06 -3.83801 1.61511 0
M  V30 17519 H 1681.65 -5.29343 -0.755008 0
M  V30 17520 H 1682 -3.82676 -1.63906 0
M  V30 17521 H 1682.53 -3.97765 0.053003 0
M  V30 17522 H 1679.27 -6.23384 2.02664 0
M  V30 17523 H 1678.79 -5.98882 0.331667 0
M  V30 17524 H 1680.47 -6.4285 0.731641 0
M  V30 17525 N 1680.6 -0.229873 -1.55915 0
M  V30 17526 C 1681.56 0.663347 -2.19391 0
M  V30 17527 C 1682.56 1.11548 -1.15818 0
M  V30 17528 O 1683.75 1.02294 -1.41002 0
M  V30 17529 C 1680.88 1.9097 -2.82389 0
M  V30 17530 H 1682.08 0.109797 -2.99699 0
M  V30 17531 H 1679.63 0.0197234 -1.56288 0
M  V30 17532 H 1680.37 2.50491 -2.05973 0
M  V30 17533 H 1680.15 1.59388 -3.58243 0
M  V30 17534 H 1681.64 2.5459 -3.31019 0
M  V30 17535 N 1682.08 1.5754 0.0434337 0
M  V30 17536 C 1683.33 1.87789 0.736074 0
M  V30 17537 C 1683.64 0.826466 1.77282 0
M  V30 17538 O 1684.85 1.01771 2.51704 0
M  V30 17539 C 1683.3 3.33207 1.36018 0
M  V30 17540 C 1682.91 4.46547 0.360532 0
M  V30 17541 C 1684.65 3.72623 2.03353 0
M  V30 17542 C 1682.56 5.83018 0.992167 0
M  V30 17543 H 1681.49 0.700614 0.278667 0
M  V30 17544 H 1684.14 1.83497 -0.00997697 0
M  V30 17545 H 1682.52 3.32199 2.15546 0
M  V30 17546 H 1683.7 4.58999 -0.406987 0
M  V30 17547 H 1682.01 4.1587 -0.209931 0
M  V30 17548 H 1684.61 4.71893 2.51437 0
M  V30 17549 H 1684.95 3.03874 2.84546 0
M  V30 17550 H 1685.49 3.75744 1.3062 0
M  V30 17551 H 1682.22 6.55131 0.219964 0
M  V30 17552 H 1681.74 5.74313 1.72987 0
M  V30 17553 H 1683.42 6.29283 1.50374 0
M  V30 17554 N 1683.56 -0.31543 1.54411 0
M  V30 17555 C 1684.5 -1.3885 1.84362 0
M  V30 17556 C 1685.47 -1.51028 0.69135 0
M  V30 17557 O 1686.66 -1.66119 0.938577 0
M  V30 17558 C 1683.8 -2.75085 2.0838 0
M  V30 17559 C 1682.91 -2.71473 3.36045 0
M  V30 17560 C 1682.05 -3.99608 3.49981 0
M  V30 17561 C 1681.08 -3.90335 4.71492 0
M  V30 17562 N 1680.22 -5.10216 4.82311 0
M  V30 17563 H 1685.06 -1.12609 2.75905 0
M  V30 17564 H 1682.6 -0.54495 1.36633 0
M  V30 17565 H 1684.56 -3.54295 2.20298 0
M  V30 17566 H 1683.19 -2.99618 1.2012 0
M  V30 17567 H 1682.24 -1.84209 3.32823 0
M  V30 17568 H 1683.55 -2.60507 4.25368 0
M  V30 17569 H 1682.7 -4.8725 3.61486 0
M  V30 17570 H 1681.44 -4.1339 2.58766 0
M  V30 17571 H 1680.45 -3.01077 4.60036 0
M  V30 17572 H 1681.67 -3.78111 5.641 0
M  V30 17573 H 1679.62 -5.24489 3.94014 0
M  V30 17574 H 1679.54 -5.01617 5.65612 0
M  V30 17575 H 1680.8 -5.99551 4.98156 0
M  V30 17576 N 1685.03 -1.46622 -0.577906 0
M  V30 17577 C 1686.28 -1.51446 -1.33218 0
M  V30 17578 C 1686.6 -0.17258 -1.94837 0
M  V30 17579 O 1687.8 -0.0986578 -2.71321 0
M  V30 17580 C 1686.26 -2.66876 -2.41465 0
M  V30 17581 C 1685.87 -4.07506 -1.86127 0
M  V30 17582 C 1687.61 -2.80975 -3.18203 0
M  V30 17583 C 1685.52 -5.14268 -2.92031 0
M  V30 17584 H 1684.45 -0.563643 -0.500822 0
M  V30 17585 H 1687.1 -1.72845 -0.616186 0
M  V30 17586 H 1685.48 -2.38816 -3.15884 0
M  V30 17587 H 1686.65 -4.45378 -1.18218 0
M  V30 17588 H 1684.97 -3.98115 -1.2204 0
M  V30 17589 H 1687.57 -3.57906 -3.97249 0
M  V30 17590 H 1687.91 -1.88665 -3.71095 0
M  V30 17591 H 1688.44 -3.08705 -2.50891 0
M  V30 17592 H 1685.18 -6.08386 -2.44021 0
M  V30 17593 H 1684.7 -4.80936 -3.58414 0
M  V30 17594 H 1686.38 -5.40321 -3.55896 0
M  V30 17595 N 1686.51 0.822941 -1.34408 0
M  V30 17596 C 1687.44 1.94142 -1.21826 0
M  V30 17597 C 1688.46 1.6215 -0.145353 0
M  V30 17598 O 1689.65 1.74025 -0.397205 0
M  V30 17599 C 1686.75 3.28077 -0.849619 0
M  V30 17600 C 1685.92 3.88092 -2.0175 0
M  V30 17601 C 1684.98 5.00406 -1.62726 0
M  V30 17602 O 1684 5.18703 -2.34383 0
M  V30 17603 N 1685.21 5.7797 -0.541413 0
M  V30 17604 H 1687.97 2.05467 -2.18182 0
M  V30 17605 H 1685.53 0.999521 -1.27362 0
M  V30 17606 H 1687.52 4.00661 -0.57035 0
M  V30 17607 H 1686.09 3.12591 0.0237499 0
M  V30 17608 H 1685.31 3.07902 -2.46151 0
M  V30 17609 H 1686.6 4.24921 -2.79856 0
M  V30 17610 H 1686 5.65674 0.0542929 0
M  V30 17611 H 1684.56 6.51005 -0.321874 0
M  V30 17612 N 1687.99 1.18137 1.04314 0
M  V30 17613 C 1688.94 0.906125 2.12269 0
M  V30 17614 C 1689.91 -0.153492 1.65389 0
M  V30 17615 O 1691.09 -0.0143887 1.90795 0
M  V30 17616 C 1688.23 0.435247 3.42344 0
M  V30 17617 C 1687.35 1.56 4.0285 0
M  V30 17618 C 1686.48 1.0421 5.20878 0
M  V30 17619 C 1685.52 2.14171 5.73409 0
M  V30 17620 N 1684.66 1.63792 6.82727 0
M  V30 17621 H 1689.5 1.83052 2.35151 0
M  V30 17622 H 1687.03 0.912846 1.1535 0
M  V30 17623 H 1688.99 0.143733 4.16952 0
M  V30 17624 H 1687.62 -0.452175 3.19617 0
M  V30 17625 H 1686.67 1.96705 3.25594 0
M  V30 17626 H 1687.99 2.389 4.37868 0
M  V30 17627 H 1687.14 0.704959 6.0259 0
M  V30 17628 H 1685.88 0.182643 4.87358 0
M  V30 17629 H 1684.88 2.48732 4.90319 0
M  V30 17630 H 1686.11 3.00547 6.08973 0
M  V30 17631 H 1684.05 0.801323 6.51087 0
M  V30 17632 H 1683.97 2.40293 7.16795 0
M  V30 17633 H 1685.24 1.32998 7.6807 0
M  V30 17634 N 1689.47 -1.23186 0.98301 0
M  V30 17635 C 1690.72 -1.91671 0.653342 0
M  V30 17636 C 1691.04 -1.76673 -0.813438 0
M  V30 17637 O 1690.3 -1.1232 -1.60258 0
M  V30 17638 C 1690.6 -3.43331 0.992898 0
M  V30 17639 C 1690.26 -3.78511 2.45032 0
M  V30 17640 C 1688.93 -3.87824 2.84861 0
M  V30 17641 C 1691.28 -3.95423 3.39544 0
M  V30 17642 C 1688.61 -4.11479 4.18213 0
M  V30 17643 C 1690.96 -4.20579 4.72543 0
M  V30 17644 C 1689.62 -4.28114 5.12128 0
M  V30 17645 H 1688.89 -0.701373 0.239075 0
M  V30 17646 H 1691.54 -1.46157 1.23736 0
M  V30 17647 H 1689.84 -3.90434 0.326832 0
M  V30 17648 H 1691.54 -3.94556 0.715995 0
M  V30 17649 H 1688.13 -3.71838 2.13154 0
M  V30 17650 H 1692.31 -3.87615 3.09949 0
M  V30 17651 H 1687.57 -4.15536 4.48486 0
M  V30 17652 H 1691.74 -4.32608 5.45732 0
M  V30 17653 H 1689.37 -4.46196 6.15478 0
M  V30 17654 N 1690.95 -0.754982 -1.38339 0
M  V30 17655 C 1692.2 -0.308537 -1.99326 0
M  V30 17656 C 1692.51 1.1164 -1.60611 0
M  V30 17657 O 1693.71 1.66339 -2.14578 0
M  V30 17658 C 1692.17 -0.500688 -3.564 0
M  V30 17659 C 1691.78 -1.9348 -4.04066 0
M  V30 17660 C 1693.52 -0.117026 -4.24339 0
M  V30 17661 C 1691.43 -2.07544 -5.53786 0
M  V30 17662 H 1690.36 -0.111611 -0.745694 0
M  V30 17663 H 1693.01 -0.931722 -1.58086 0
M  V30 17664 H 1691.39 0.191702 -3.95536 0
M  V30 17665 H 1692.57 -2.66077 -3.76217 0
M  V30 17666 H 1690.88 -2.27351 -3.48856 0
M  V30 17667 H 1693.48 -0.200847 -5.34323 0
M  V30 17668 H 1693.82 0.930531 -4.05767 0
M  V30 17669 H 1694.35 -0.761323 -3.90447 0
M  V30 17670 H 1691.09 -3.10559 -5.77264 0
M  V30 17671 H 1690.61 -1.39409 -5.83374 0
M  V30 17672 H 1692.29 -1.86605 -6.19506 0
M  V30 17673 N 1692.42 1.49318 -0.504168 0
M  V30 17674 C 1693.33 2.32958 0.277053 0
M  V30 17675 C 1694.35 1.44838 0.964266 0
M  V30 17676 O 1695.53 1.77856 0.944947 0
M  V30 17677 C 1692.59 3.20352 1.32572 0
M  V30 17678 C 1691.65 4.24326 0.651606 0
M  V30 17679 C 1690.89 5.07544 1.65031 0
M  V30 17680 O 1691.11 4.92326 2.88047 0
M  V30 17681 O 1690.04 5.89737 1.20388 0
M  V30 17682 H 1693.87 3.00952 -0.40763 0
M  V30 17683 H 1691.45 1.47023 -0.265453 0
M  V30 17684 H 1693.34 3.74483 1.93237 0
M  V30 17685 H 1692.01 2.5505 1.99327 0
M  V30 17686 H 1690.92 3.741 0.00513384 0
M  V30 17687 H 1692.25 4.92193 0.0264424 0
M  V30 17688 N 1693.9 0.238138 1.5579 0
M  V30 17689 C 1695.15 -0.382773 1.99766 0
M  V30 17690 C 1695.5 -1.562 1.12335 0
M  V30 17691 O 1694.8 -1.90781 0.17694 0
M  V30 17692 C 1694.99 -0.850646 3.47129 0
M  V30 17693 C 1694.82 0.281705 4.48817 0
M  V30 17694 C 1693.59 0.753532 4.9965 0
M  V30 17695 C 1695.79 1.10571 5.02273 0
M  V30 17696 N 1693.77 1.85921 5.8507 0
M  V30 17697 C 1695.14 2.05993 5.84779 0
M  V30 17698 C 1697.2 1.14326 4.84597 0
M  V30 17699 C 1695.9 3.0487 6.51496 0
M  V30 17700 C 1697.92 2.1203 5.52085 0
M  V30 17701 C 1697.29 3.06189 6.34372 0
M  V30 17702 H 1693.39 -0.106269 0.774746 0
M  V30 17703 H 1695.97 0.353711 1.9146 0
M  V30 17704 H 1694.14 -1.55644 3.5585 0
M  V30 17705 H 1695.87 -1.44577 3.77994 0
M  V30 17706 H 1692.63 0.339205 4.72384 0
M  V30 17707 H 1693.05 2.41455 6.32478 0
M  V30 17708 H 1697.69 0.42918 4.20616 0
M  V30 17709 H 1695.41 3.77232 7.14648 0
M  V30 17710 H 1699 2.15631 5.40365 0
M  V30 17711 H 1697.88 3.80557 6.85672 0
M  V30 17712 N 1695.38 -1.57561 -0.0350783 0
M  V30 17713 C 1696.31 -2.09201 -1.03716 0
M  V30 17714 C 1697.29 -0.993231 -1.3809 0
M  V30 17715 O 1698.48 -1.26812 -1.47079 0
M  V30 17716 C 1695.61 -2.56643 -2.3399 0
M  V30 17717 C 1694.56 -3.70731 -2.13874 0
M  V30 17718 C 1693.89 -4.04358 -3.49855 0
M  V30 17719 C 1695.19 -4.99393 -1.52982 0
M  V30 17720 H 1696.88 -2.93176 -0.60731 0
M  V30 17721 H 1694.43 -1.41036 -0.290683 0
M  V30 17722 H 1696.38 -2.9139 -3.04417 0
M  V30 17723 H 1695.1 -1.69744 -2.79024 0
M  V30 17724 H 1693.76 -3.36325 -1.45881 0
M  V30 17725 H 1693.41 -3.14534 -3.92527 0
M  V30 17726 H 1693.11 -4.81201 -3.37223 0
M  V30 17727 H 1694.63 -4.41633 -4.21654 0
M  V30 17728 H 1696.05 -5.32135 -2.13319 0
M  V30 17729 H 1694.45 -5.80807 -1.50943 0
M  V30 17730 H 1695.52 -4.82367 -0.494993 0
M  V30 17731 N 1696.86 0.307236 -1.54576 0
M  V30 17732 C 1697.81 1.3787 -1.85096 0
M  V30 17733 C 1698.78 1.5066 -0.69935 0
M  V30 17734 O 1699.96 1.65618 -0.947373 0
M  V30 17735 C 1697.1 2.73976 -2.09836 0
M  V30 17736 C 1696.21 2.69687 -3.3748 0
M  V30 17737 C 1695.35 3.97746 -3.52096 0
M  V30 17738 C 1694.39 3.87829 -4.73556 0
M  V30 17739 N 1693.52 5.07651 -4.8501 0
M  V30 17740 H 1698.36 1.11144 -2.76498 0
M  V30 17741 H 1695.9 0.537696 -1.36921 0
M  V30 17742 H 1697.86 3.53121 -2.22174 0
M  V30 17743 H 1696.49 2.98977 -1.21707 0
M  V30 17744 H 1695.54 1.82441 -3.33795 0
M  V30 17745 H 1696.85 2.58247 -4.26743 0
M  V30 17746 H 1696.01 4.85327 -3.64065 0
M  V30 17747 H 1694.75 4.12012 -2.60955 0
M  V30 17748 H 1693.75 2.98633 -4.61626 0
M  V30 17749 H 1694.98 3.75114 -5.66098 0
M  V30 17750 H 1692.92 5.22393 -3.9679 0
M  V30 17751 H 1692.84 4.9861 -5.68264 0
M  V30 17752 H 1694.11 5.969 -5.01328 0
M  V30 17753 N 1698.34 1.46926 0.570122 0
M  V30 17754 C 1699.58 1.53113 1.32982 0
M  V30 17755 C 1699.92 0.187401 1.93294 0
M  V30 17756 O 1699.19 -0.802585 1.77169 0
M  V30 17757 C 1699.47 2.63936 2.44969 0
M  V30 17758 C 1699.33 4.07882 1.8961 0
M  V30 17759 C 1700.65 2.70753 3.46959 0
M  V30 17760 H 1697.76 0.557398 0.482158 0
M  V30 17761 H 1700.41 1.78923 0.639259 0
M  V30 17762 H 1698.56 2.42059 3.03874 0
M  V30 17763 H 1700.23 4.41084 1.35066 0
M  V30 17764 H 1698.47 4.16768 1.20361 0
M  V30 17765 H 1699.14 4.81175 2.70508 0
M  V30 17766 H 1701.62 2.90452 2.97954 0
M  V30 17767 H 1700.49 3.50093 4.2276 0
M  V30 17768 H 1700.76 1.77299 4.04991 0
M  V30 17769 N 1699.82 -0.815801 1.34842 0
M  V30 17770 C 1700.76 -1.92713 1.27006 0
M  V30 17771 C 1701.73 -1.65476 0.143838 0
M  V30 17772 O 1702.92 -1.87994 0.326007 0
M  V30 17773 C 1700.06 -3.29099 1.03863 0
M  V30 17774 C 1699.17 -3.68583 2.25324 0
M  V30 17775 C 1698.31 -4.93953 1.95407 0
M  V30 17776 C 1697.34 -5.26037 3.12971 0
M  V30 17777 N 1696.48 -6.42586 2.82891 0
M  V30 17778 H 1701.32 -1.98747 2.22044 0
M  V30 17779 H 1698.86 -0.972265 1.10388 0
M  V30 17780 H 1700.82 -4.07709 0.884809 0
M  V30 17781 H 1699.45 -3.22558 0.124911 0
M  V30 17782 H 1698.5 -2.85307 2.51603 0
M  V30 17783 H 1699.81 -3.88259 3.1314 0
M  V30 17784 H 1698.96 -5.80367 1.76801 0
M  V30 17785 H 1697.7 -4.76293 1.04862 0
M  V30 17786 H 1696.71 -4.38117 3.32165 0
M  V30 17787 H 1697.93 -5.45632 4.04305 0
M  V30 17788 H 1695.88 -6.26369 1.9493 0
M  V30 17789 H 1695.8 -6.62469 3.64239 0
M  V30 17790 H 1697.06 -7.32052 2.67805 0
M  V30 17791 N 1701.29 -1.18689 -1.03686 0
M  V30 17792 C 1702.54 -0.978948 -1.7635 0
M  V30 17793 C 1702.86 0.49195 -1.89312 0
M  V30 17794 O 1704.06 0.818501 -2.58868 0
M  V30 17795 C 1702.52 -1.70255 -3.17083 0
M  V30 17796 C 1702.13 -3.21301 -3.12201 0
M  V30 17797 C 1703.87 -1.57756 -3.94098 0
M  V30 17798 C 1701.78 -3.86284 -4.47815 0
M  V30 17799 H 1700.71 -0.362652 -0.661059 0
M  V30 17800 H 1703.36 -1.42102 -1.161 0
M  V30 17801 H 1701.74 -1.18826 -3.77752 0
M  V30 17802 H 1702.91 -3.79785 -2.6096 0
M  V30 17803 H 1701.23 -3.33984 -2.48684 0
M  V30 17804 H 1703.83 -2.03664 -4.94394 0
M  V30 17805 H 1704.17 -0.530427 -4.12907 0
M  V30 17806 H 1704.7 -2.06486 -3.40012 0
M  V30 17807 H 1701.44 -4.91061 -4.34211 0
M  V30 17808 H 1700.96 -3.32589 -4.99144 0
M  V30 17809 H 1702.64 -3.89369 -5.16721 0
M  V30 17810 N 1702.77 1.22662 -0.989529 0
M  V30 17811 C 1703.7 2.26762 -0.556891 0
M  V30 17812 C 1704.68 1.64971 0.414538 0
M  V30 17813 O 1705.87 1.91775 0.305909 0
M  V30 17814 C 1703 3.47047 0.132573 0
M  V30 17815 C 1701.95 4.21251 -0.757058 0
M  V30 17816 C 1701.28 5.3466 0.065134 0
M  V30 17817 C 1702.58 4.8029 -2.05229 0
M  V30 17818 H 1704.27 2.63204 -1.42703 0
M  V30 17819 H 1701.82 1.26522 -0.687614 0
M  V30 17820 H 1703.77 4.19027 0.446609 0
M  V30 17821 H 1702.49 3.09692 1.03723 0
M  V30 17822 H 1701.15 3.51101 -1.05469 0
M  V30 17823 H 1700.8 4.93547 0.970607 0
M  V30 17824 H 1700.5 5.85231 -0.527063 0
M  V30 17825 H 1702.03 6.09458 0.373342 0
M  V30 17826 H 1703.44 5.44229 -1.80242 0
M  V30 17827 H 1701.84 5.41186 -2.59302 0
M  V30 17828 H 1702.91 4.00529 -2.73322 0
M  V30 17829 N 1704.25 0.762308 1.37937 0
M  V30 17830 C 1705.66 0.388966 1.82603 0
M  V30 17831 C 1706.01 -1.08362 1.63561 0
M  V30 17832 O 1705.14 -1.83842 1.14154 0
M  V30 17833 C 1705.73 0.699218 3.31506 0
M  V30 17834 C 1704.29 0.379048 3.74487 0
M  V30 17835 C 1703.44 0.947924 2.60595 0
M  V30 17836 H 1706.39 0.957743 1.26542 0
M  V30 17837 H 1706.41 -0.019502 3.80495 0
M  V30 17838 H 1705.92 1.77105 3.45334 0
M  V30 17839 H 1704.02 -0.685844 3.66233 0
M  V30 17840 H 1704.14 0.880697 4.70936 0
M  V30 17841 H 1702.5 0.372746 2.51958 0
M  V30 17842 H 1703.28 2.02496 2.77219 0
M  V30 17843 N 1705.73 -1.49049 0.51208 0
M  V30 17844 C 1706.64 -2.33102 -0.264695 0
M  V30 17845 C 1707.65 -1.45347 -0.956571 0
M  V30 17846 O 1708.83 -1.78355 -0.935501 0
M  V30 17847 C 1705.89 -3.21051 -1.30871 0
M  V30 17848 C 1704.96 -4.24666 -0.629094 0
M  V30 17849 C 1704.19 -5.08412 -1.62337 0
M  V30 17850 O 1704.41 -4.93847 -2.85432 0
M  V30 17851 O 1703.35 -5.90368 -1.17259 0
M  V30 17852 H 1707.17 -3.00732 0.423585 0
M  V30 17853 H 1704.76 -1.4688 0.273246 0
M  V30 17854 H 1706.64 -3.75503 -1.91248 0
M  V30 17855 H 1705.31 -2.56103 -1.97972 0
M  V30 17856 H 1704.22 -3.74097 0.0147056 0
M  V30 17857 H 1705.55 -4.922 -0.000339859 0
M  V30 17858 N 1707.21 -0.246397 -1.55662 0
M  V30 17859 C 1708.45 0.379047 -1.99226 0
M  V30 17860 C 1708.78 1.57627 -1.13434 0
M  V30 17861 O 1708.06 1.93493 -0.197627 0
M  V30 17862 C 1708.34 0.789403 -3.51341 0
M  V30 17863 C 1708.2 -0.413176 -4.47898 0
M  V30 17864 C 1709.51 1.63656 -4.0854 0
M  V30 17865 H 1706.63 0.136302 -0.724286 0
M  V30 17866 H 1709.28 -0.347607 -1.86793 0
M  V30 17867 H 1707.43 1.40854 -3.62067 0
M  V30 17868 H 1709.1 -1.0516 -4.49154 0
M  V30 17869 H 1707.34 -1.05636 -4.20741 0
M  V30 17870 H 1708.01 -0.0827267 -5.51938 0
M  V30 17871 H 1710.49 1.11393 -4.00912 0
M  V30 17872 H 1709.36 1.89254 -5.15242 0
M  V30 17873 H 1709.62 2.60823 -3.56965 0
M  V30 17874 N 1708.68 1.57577 0.026722 0
M  V30 17875 C 1710.1 1.54951 0.382406 0
M  V30 17876 C 1710.3 0.972826 1.76461 0
M  V30 17877 O 1709.36 0.5949 2.45392 0
M  V30 17878 C 1710.67 2.99374 0.282111 0
M  V30 17879 C 1712.22 3.10934 0.359022 0
M  V30 17880 C 1712.69 4.57093 0.28815 0
M  V30 17881 N 1714.18 4.61899 0.346873 0
M  V30 17882 C 1714.92 5.72534 0.314961 0
M  V30 17883 N 1714.41 6.92401 0.235205 0
M  V30 17884 N 1716.21 5.60915 0.364863 0
M  V30 17885 H 1708.36 1.93413 -0.877788 0
M  V30 17886 H 1710.62 0.887216 -0.333995 0
M  V30 17887 H 1710.33 3.45301 -0.667821 0
M  V30 17888 H 1710.2 3.61562 1.07484 0
M  V30 17889 H 1712.59 2.64953 1.29939 0
M  V30 17890 H 1712.67 2.51573 -0.4631 0
M  V30 17891 H 1712.31 5.03742 -0.648558 0
M  V30 17892 H 1712.24 5.14368 1.12841 0
M  V30 17893 H 1714.73 3.75659 0.410932 0
M  V30 17894 H 1715.05 7.72498 0.216019 0
M  V30 17895 H 1713.39 6.94709 0.201219 0
M  V30 17896 H 1716.58 4.66165 0.42518 0
M  V30 17897 H 1716.76 6.47126 0.336526 0
M  V30 17898 N 1710.16 -0.299034 1.54737 0
M  V30 17899 C 1711.07 -1.39141 1.88884 0
M  V30 17900 C 1712.09 -1.55377 0.783203 0
M  V30 17901 O 1713.26 -1.70003 1.07985 0
M  V30 17902 C 1710.33 -2.73487 2.13087 0
M  V30 17903 C 1709.39 -2.66219 3.36788 0
M  V30 17904 C 1708.62 -3.94158 3.59827 0
M  V30 17905 O 1708.85 -4.9361 2.85841 0
M  V30 17906 O 1707.78 -3.95933 4.53344 0
M  V30 17907 H 1711.61 -1.13184 2.81821 0
M  V30 17908 H 1709.19 -0.495271 1.40952 0
M  V30 17909 H 1711.07 -3.5297 2.30195 0
M  V30 17910 H 1709.75 -2.99283 1.23335 0
M  V30 17911 H 1708.65 -1.85201 3.25041 0
M  V30 17912 H 1709.99 -2.45376 4.26675 0
M  V30 17913 N 1711.64 -1.47227 -0.562322 0
M  V30 17914 C 1712.59 -1.59329 -1.66981 0
M  V30 17915 C 1713.56 -0.436558 -1.6026 0
M  V30 17916 O 1714.74 -0.655956 -1.7917 0
M  V30 17917 C 1711.88 -1.60874 -3.05309 0
M  V30 17918 C 1710.99 -2.87428 -3.22505 0
M  V30 17919 C 1710.13 -2.80342 -4.512 0
M  V30 17920 C 1709.17 -4.01744 -4.6181 0
M  V30 17921 N 1708.31 -3.92924 -5.81855 0
M  V30 17922 H 1713.15 -2.53921 -1.55975 0
M  V30 17923 H 1710.68 -1.25953 -0.759879 0
M  V30 17924 H 1712.64 -1.59753 -3.85402 0
M  V30 17925 H 1711.27 -0.697994 -3.15163 0
M  V30 17926 H 1710.32 -2.98439 -2.35878 0
M  V30 17927 H 1711.63 -3.77345 -3.26209 0
M  V30 17928 H 1710.79 -2.77442 -5.39547 0
M  V30 17929 H 1709.53 -1.881 -4.49966 0
M  V30 17930 H 1708.53 -4.04954 -3.71877 0
M  V30 17931 H 1709.76 -4.95107 -4.64807 0
M  V30 17932 H 1707.7 -3.03481 -5.8158 0
M  V30 17933 H 1707.62 -4.76514 -5.86916 0
M  V30 17934 H 1708.89 -3.94031 -6.72577 0
M  V30 17935 N 1713.12 0.808639 -1.35273 0
M  V30 17936 C 1714.07 1.90962 -1.24569 0
M  V30 17937 C 1715.05 1.60277 -0.141424 0
M  V30 17938 O 1716.24 1.73037 -0.372451 0
M  V30 17939 C 1713.37 3.27864 -1.01783 0
M  V30 17940 C 1712.46 3.64622 -2.16592 0
M  V30 17941 N 1712.85 3.72831 -3.41805 0
M  V30 17942 C 1711.15 3.94563 -2.07932 0
M  V30 17943 C 1711.85 4.05271 -4.1729 0
M  V30 17944 N 1710.82 4.19246 -3.46025 0
M  V30 17945 H 1714.63 1.95508 -2.1944 0
M  V30 17946 H 1712.14 1.00311 -1.27716 0
M  V30 17947 H 1714.14 4.06576 -0.922037 0
M  V30 17948 H 1712.8 3.24606 -0.0779494 0
M  V30 17949 H 1713.81 3.55961 -3.76181 0
M  V30 17950 H 1710.49 3.99342 -1.21787 0
M  V30 17951 H 1711.88 4.18707 -5.25485 0
M  V30 17952 N 1714.6 1.19237 1.03055 0
M  V30 17953 C 1715.51 0.943876 2.14775 0
M  V30 17954 C 1716.52 -0.0955384 1.73738 0
M  V30 17955 O 1717.7 0.0887187 2.01204 0
M  V30 17956 C 1714.76 0.48402 3.43305 0
M  V30 17957 C 1713.82 1.59262 3.98665 0
M  V30 17958 C 1713.06 1.15461 5.21061 0
M  V30 17959 O 1713.28 0.0174841 5.70397 0
M  V30 17960 O 1712.21 1.95648 5.69215 0
M  V30 17961 H 1716.04 1.87894 2.38599 0
M  V30 17962 H 1713.63 0.975046 1.13195 0
M  V30 17963 H 1715.51 0.236135 4.20738 0
M  V30 17964 H 1714.18 -0.422626 3.20929 0
M  V30 17965 H 1713.09 1.89464 3.22574 0
M  V30 17966 H 1714.42 2.47576 4.25402 0
M  V30 17967 N 1716.07 -1.22136 0.99602 0
M  V30 17968 C 1717.32 -1.90967 0.673634 0
M  V30 17969 C 1717.65 -1.77526 -0.794654 0
M  V30 17970 O 1716.9 -1.14014 -1.59058 0
M  V30 17971 C 1717.2 -3.42259 1.02926 0
M  V30 17972 C 1716.87 -3.75891 2.49032 0
M  V30 17973 C 1715.53 -3.84781 2.88959 0
M  V30 17974 C 1717.88 -3.91799 3.43719 0
M  V30 17975 C 1715.21 -4.0702 4.22554 0
M  V30 17976 C 1717.56 -4.15543 4.76977 0
M  V30 17977 C 1716.23 -4.22658 5.1664 0
M  V30 17978 H 1715.5 -0.698798 0.2465 0
M  V30 17979 H 1718.14 -1.44836 1.25279 0
M  V30 17980 H 1716.45 -3.90066 0.368224 0
M  V30 17981 H 1718.15 -3.93774 0.757803 0
M  V30 17982 H 1714.74 -3.69556 2.17086 0
M  V30 17983 H 1718.92 -3.84306 3.14042 0
M  V30 17984 H 1714.18 -4.10756 4.52868 0
M  V30 17985 H 1718.35 -4.26796 5.50289 0
M  V30 17986 H 1715.98 -4.39643 6.20176 0
M  V30 17987 N 1717.55 -0.769612 -1.37531 0
M  V30 17988 C 1718.48 -0.168389 -2.32892 0
M  V30 17989 C 1719.46 0.685549 -1.55673 0
M  V30 17990 O 1720.65 0.62345 -1.8392 0
M  V30 17991 C 1717.78 0.713183 -3.39898 0
M  V30 17992 C 1716.73 -0.0392808 -4.27982 0
M  V30 17993 C 1716.06 0.961596 -5.25982 0
M  V30 17994 C 1717.36 -1.21704 -5.07923 0
M  V30 17995 H 1719.05 -0.965022 -2.83421 0
M  V30 17996 H 1716.6 -0.465502 -1.36268 0
M  V30 17997 H 1718.55 1.14358 -4.05586 0
M  V30 17998 H 1717.28 1.54231 -2.87889 0
M  V30 17999 H 1715.93 -0.450429 -3.63822 0
M  V30 18000 H 1715.58 1.78522 -4.70254 0
M  V30 18001 H 1715.28 0.462679 -5.85776 0
M  V30 18002 H 1716.81 1.39097 -5.94545 0
M  V30 18003 H 1718.22 -0.863405 -5.66761 0
M  V30 18004 H 1716.62 -1.6479 -5.77031 0
M  V30 18005 H 1717.69 -2.02219 -4.40722 0
M  V30 18006 N 1719.03 1.48775 -0.519977 0
M  V30 18007 C 1719.98 2.31123 0.261738 0
M  V30 18008 C 1720.97 1.40595 0.94496 0
M  V30 18009 O 1722.18 1.57552 0.870484 0
M  V30 18010 H 1718.55 0.744875 0.103272 0
M  V30 18011 H 1720.52 2.94949 -0.452514 0
M  V30 18012 C 1719.27 3.22409 1.30184 0
M  V30 18013 H 1718.6 3.92007 0.785524 0
M  V30 18014 H 1720.04 3.82932 1.82042 0
M  V30 18015 C 1718.5 2.43321 2.33016 0
M  V30 18016 O 1719.03 2.15087 3.39265 0
M  V30 18017 N 1717.23 2.04998 2.05971 0
M  V30 18018 H 1716.78 2.2816 1.19586 0
M  V30 18019 H 1716.74 1.52393 2.74998 0
M  V30 18020 N 1720.51 0.254649 1.55529 0
M  V30 18021 C 1721.92 -0.100019 1.59286 0
M  V30 18022 C 1722.12 -1.56289 1.27185 0
M  V30 18023 O 1721.18 -2.30854 1.02287 0
M  V30 18024 C 1722.49 0.256158 2.99607 0
M  V30 18025 C 1724.04 0.201091 3.12353 0
M  V30 18026 C 1724.52 0.531411 4.54907 0
M  V30 18027 N 1726.01 0.482199 4.60683 0
M  V30 18028 C 1726.74 0.710848 5.68977 0
M  V30 18029 N 1726.24 1.00304 6.85501 0
M  V30 18030 N 1728.03 0.641029 5.58433 0
M  V30 18031 H 1720.18 1.20856 1.74664 0
M  V30 18032 H 1722.45 0.486824 0.813453 0
M  V30 18033 H 1722.15 1.27275 3.27863 0
M  V30 18034 H 1722.03 -0.412994 3.74932 0
M  V30 18035 H 1724.41 -0.806189 2.83874 0
M  V30 18036 H 1724.49 0.904206 2.39286 0
M  V30 18037 H 1724.14 1.53628 4.84108 0
M  V30 18038 H 1724.07 -0.193269 5.26245 0
M  V30 18039 H 1726.56 0.265409 3.76967 0
M  V30 18040 H 1726.87 1.16472 7.63973 0
M  V30 18041 H 1725.22 1.04059 6.87166 0
M  V30 18042 H 1728.41 0.412751 4.66277 0
M  V30 18043 H 1728.58 0.822617 6.42757 0
M  V30 18044 N 1721.99 -1.57589 -0.0183649 0
M  V30 18045 C 1722.92 -2.1029 -1.01492 0
M  V30 18046 C 1723.9 -1.00782 -1.37029 0
M  V30 18047 O 1725.08 -1.28365 -1.45726 0
M  V30 18048 C 1722.21 -2.59111 -2.31255 0
M  V30 18049 C 1721.17 -3.72979 -2.0993 0
M  V30 18050 C 1720.49 -4.08046 -3.45547 0
M  V30 18051 C 1721.79 -5.00988 -1.47677 0
M  V30 18052 H 1723.49 -2.93804 -0.57618 0
M  V30 18053 H 1721.03 -1.41336 -0.275708 0
M  V30 18054 H 1722.99 -2.94602 -3.0131 0
M  V30 18055 H 1721.71 -1.72694 -2.77208 0
M  V30 18056 H 1720.37 -3.37853 -1.42306 0
M  V30 18057 H 1720.02 -3.1868 -3.89169 0
M  V30 18058 H 1719.72 -4.8475 -3.32101 0
M  V30 18059 H 1721.24 -4.46081 -4.16947 0
M  V30 18060 H 1722.65 -5.34368 -2.07663 0
M  V30 18061 H 1721.05 -5.82375 -1.44774 0
M  V30 18062 H 1722.12 -4.82865 -0.443804 0
M  V30 18063 N 1723.46 0.290824 -1.54893 0
M  V30 18064 C 1724.41 1.35899 -1.86548 0
M  V30 18065 C 1725.38 1.49909 -0.71529 0
M  V30 18066 O 1726.57 1.64604 -0.964886 0
M  V30 18067 C 1723.71 2.71735 -2.1273 0
M  V30 18068 C 1722.82 2.66092 -3.40322 0
M  V30 18069 C 1721.95 3.93989 -3.56295 0
M  V30 18070 C 1720.99 3.82785 -4.77642 0
M  V30 18071 N 1720.13 5.02479 -4.90367 0
M  V30 18072 H 1724.97 1.08205 -2.77661 0
M  V30 18073 H 1722.51 0.523144 -1.37483 0
M  V30 18074 H 1724.47 3.50745 -2.25907 0
M  V30 18075 H 1723.1 2.97669 -1.24871 0
M  V30 18076 H 1722.15 1.78891 -3.35712 0
M  V30 18077 H 1723.46 2.53706 -4.29458 0
M  V30 18078 H 1722.61 4.81438 -3.69192 0
M  V30 18079 H 1721.35 4.09221 -2.6531 0
M  V30 18080 H 1720.36 2.9372 -4.64767 0
M  V30 18081 H 1721.58 3.69088 -5.70044 0
M  V30 18082 H 1719.53 5.18155 -4.02308 0
M  V30 18083 H 1719.45 4.92555 -5.7352 0
M  V30 18084 H 1720.71 5.9155 -5.07631 0
M  V30 18085 N 1724.94 1.47523 0.554506 0
M  V30 18086 C 1725.87 1.56275 1.67663 0
M  V30 18087 C 1726.89 0.448743 1.56493 0
M  V30 18088 O 1728.08 0.718478 1.63402 0
M  V30 18089 C 1725.18 1.45348 3.06149 0
M  V30 18090 C 1724.35 2.71364 3.43046 0
M  V30 18091 C 1723.41 2.54237 4.60706 0
M  V30 18092 O 1722.43 3.28059 4.65152 0
M  V30 18093 N 1723.64 1.6224 5.57367 0
M  V30 18094 H 1726.4 2.53036 1.60601 0
M  V30 18095 H 1723.96 1.43936 0.741209 0
M  V30 18096 H 1725.95 1.31621 3.82698 0
M  V30 18097 H 1724.52 0.566583 3.07423 0
M  V30 18098 H 1723.74 2.99833 2.55917 0
M  V30 18099 H 1725.03 3.55017 3.64473 0
M  V30 18100 H 1724.43 1.01419 5.56534 0
M  V30 18101 H 1722.99 1.54463 6.33233 0
M  V30 18102 N 1726.42 -0.801453 1.357 0
M  V30 18103 C 1727.35 -1.92807 1.31711 0
M  V30 18104 C 1728.33 -1.69028 0.190642 0
M  V30 18105 O 1729.52 -1.90317 0.38641 0
M  V30 18106 C 1726.65 -3.29635 1.09352 0
M  V30 18107 C 1725.6 -3.67908 2.18695 0
M  V30 18108 C 1724.93 -5.02955 1.81494 0
M  V30 18109 C 1726.23 -3.77749 3.60698 0
M  V30 18110 H 1727.92 -1.96401 2.2598 0
M  V30 18111 H 1725.47 -0.943528 1.08782 0
M  V30 18112 H 1727.42 -4.08058 1.052 0
M  V30 18113 H 1726.14 -3.26396 0.115306 0
M  V30 18114 H 1724.8 -2.91775 2.21952 0
M  V30 18115 H 1724.45 -4.96225 0.822776 0
M  V30 18116 H 1724.15 -5.29533 2.54692 0
M  V30 18117 H 1725.67 -5.83811 1.78876 0
M  V30 18118 H 1727.09 -4.4639 3.59734 0
M  V30 18119 H 1725.49 -4.15801 4.327 0
M  V30 18120 H 1726.56 -2.79167 3.96477 0
M  V30 18121 N 1727.9 -1.19782 -1.02421 0
M  V30 18122 C 1729.31 -1.00493 -1.57347 0
M  V30 18123 C 1729.66 0.440854 -1.91183 0
M  V30 18124 O 1728.79 1.32102 -1.714 0
M  V30 18125 C 1729.38 -1.8179 -2.85898 0
M  V30 18126 C 1727.94 -1.66889 -3.3738 0
M  V30 18127 C 1727.09 -1.80199 -2.10769 0
M  V30 18128 H 1730.04 -1.34085 -0.848938 0
M  V30 18129 H 1730.06 -1.31676 -3.5699 0
M  V30 18130 H 1729.57 -2.87011 -2.6124 0
M  V30 18131 H 1727.67 -0.64274 -3.67014 0
M  V30 18132 H 1727.78 -2.47705 -4.10096 0
M  V30 18133 H 1726.15 -1.23308 -2.22862 0
M  V30 18134 H 1726.93 -2.86889 -1.88546 0
M  V30 18135 N 1729.38 1.21606 -1.00248 0
M  V30 18136 C 1730.31 2.26159 -0.580911 0
M  V30 18137 C 1731.29 1.65402 0.397017 0
M  V30 18138 O 1732.47 1.92089 0.285552 0
M  V30 18139 C 1729.6 3.47168 0.0957564 0
M  V30 18140 C 1728.56 4.20425 -0.801695 0
M  V30 18141 C 1727.88 5.34699 0.00842241 0
M  V30 18142 C 1729.18 4.78086 -2.10311 0
M  V30 18143 H 1730.88 2.61675 -1.45487 0
M  V30 18144 H 1728.42 1.25786 -0.700995 0
M  V30 18145 H 1730.38 4.19477 0.402141 0
M  V30 18146 H 1729.1 3.10775 1.00433 0
M  V30 18147 H 1727.76 3.49963 -1.09187 0
M  V30 18148 H 1727.41 4.94548 0.918206 0
M  V30 18149 H 1727.11 5.84639 -0.589105 0
M  V30 18150 H 1728.63 6.09819 0.30868 0
M  V30 18151 H 1730.05 5.42287 -1.86004 0
M  V30 18152 H 1728.44 5.38405 -2.65028 0
M  V30 18153 H 1729.51 3.97607 -2.77555 0
M  V30 18154 N 1730.86 0.776895 1.37121 0
M  V30 18155 C 1731.79 0.180738 2.32799 0
M  V30 18156 C 1732.77 -0.677284 1.56035 0
M  V30 18157 O 1733.95 -0.613687 1.84249 0
M  V30 18158 C 1731.08 -0.695148 3.40272 0
M  V30 18159 C 1730.04 0.0619772 4.27955 0
M  V30 18160 C 1729.36 -0.933688 5.26485 0
M  V30 18161 C 1730.66 1.24396 5.0727 0
M  V30 18162 H 1732.36 0.980039 2.82906 0
M  V30 18163 H 1729.9 0.472722 1.3602 0
M  V30 18164 H 1731.85 -1.12205 4.06187 0
M  V30 18165 H 1730.58 -1.52702 2.88703 0
M  V30 18166 H 1729.24 0.469717 3.63578 0
M  V30 18167 H 1728.89 -1.76025 4.71194 0
M  V30 18168 H 1728.59 -0.431608 5.86013 0
M  V30 18169 H 1730.11 -1.35942 5.95275 0
M  V30 18170 H 1731.52 0.89345 5.66295 0
M  V30 18171 H 1729.92 1.67848 5.76149 0
M  V30 18172 H 1730.99 2.04553 4.39643 0
M  V30 18173 N 1732.33 -1.48497 0.527859 0
M  V30 18174 C 1733.24 -2.3337 -0.239957 0
M  V30 18175 C 1734.26 -1.46353 -0.941101 0
M  V30 18176 O 1735.44 -1.79337 -0.916532 0
M  V30 18177 C 1732.5 -3.22421 -1.27458 0
M  V30 18178 C 1731.56 -4.25309 -0.584017 0
M  V30 18179 C 1730.79 -5.10105 -1.56935 0
M  V30 18180 O 1731.02 -4.96846 -2.80178 0
M  V30 18181 O 1729.95 -5.91578 -1.10991 0
M  V30 18182 H 1733.78 -3.00265 0.455458 0
M  V30 18183 H 1731.36 -1.46582 0.288809 0
M  V30 18184 H 1733.24 -3.7751 -1.87254 0
M  V30 18185 H 1731.92 -2.58189 -1.95244 0
M  V30 18186 H 1730.83 -3.7406 0.0543828 0
M  V30 18187 H 1732.16 -4.92173 0.0518646 0
M  V30 18188 N 1733.81 -0.262893 -1.55392 0
M  V30 18189 C 1735.04 0.363972 -2.04181 0
M  V30 18190 C 1735.46 1.49585 -1.14044 0
M  V30 18191 O 1734.82 1.80785 -0.136553 0
M  V30 18192 C 1734.87 0.834041 -3.50822 0
M  V30 18193 O 1733.97 1.94234 -3.63795 0
M  V30 18194 H 1733.31 0.0771193 -0.659506 0
M  V30 18195 H 1735.84 -0.393623 -2.00778 0
M  V30 18196 H 1735.85 1.13304 -3.91952 0
M  V30 18197 H 1734.53 0.00584833 -4.159 0
M  V30 18198 H 1733.1 1.64681 -3.34566 0
M  V30 18199 N 1735.29 1.57597 0.0100073 0
M  V30 18200 C 1736.22 2.04622 1.0326 0
M  V30 18201 C 1737.23 0.962343 1.31312 0
M  V30 18202 O 1738.42 1.23933 1.28464 0
M  V30 18203 C 1735.52 2.42271 2.36976 0
M  V30 18204 C 1734.7 3.73271 2.28008 0
M  V30 18205 C 1733.76 3.97899 3.4433 0
M  V30 18206 O 1732.78 4.68702 3.22966 0
M  V30 18207 N 1733.98 3.45015 4.66846 0
M  V30 18208 H 1736.75 2.92968 0.63164 0
M  V30 18209 H 1734.31 1.6069 0.197591 0
M  V30 18210 H 1736.3 2.55869 3.13549 0
M  V30 18211 H 1734.87 1.59496 2.68849 0
M  V30 18212 H 1734.09 3.69846 1.3641 0
M  V30 18213 H 1735.38 4.59172 2.19178 0
M  V30 18214 H 1734.78 2.87661 4.87101 0
M  V30 18215 H 1733.33 3.6396 5.40718 0
M  V30 18216 N 1736.77 -0.282606 1.55045 0
M  V30 18217 C 1738.02 -1.0132 1.74405 0
M  V30 18218 C 1738.33 -1.87792 0.547133 0
M  V30 18219 O 1739.54 -2.64257 0.622931 0
M  V30 18220 C 1737.99 -1.85128 3.08635 0
M  V30 18221 C 1737.6 -1.0357 4.35864 0
M  V30 18222 C 1739.34 -2.57676 3.37347 0
M  V30 18223 C 1737.25 -1.86761 5.61137 0
M  V30 18224 H 1736.18 -0.382013 0.650063 0
M  V30 18225 H 1738.83 -0.269307 1.81513 0
M  V30 18226 H 1737.21 -2.63576 2.95539 0
M  V30 18227 H 1738.39 -0.296061 4.59848 0
M  V30 18228 H 1736.7 -0.425208 4.14223 0
M  V30 18229 H 1739.3 -3.20303 4.28147 0
M  V30 18230 H 1739.64 -3.27464 2.57046 0
M  V30 18231 H 1740.18 -1.86264 3.51497 0
M  V30 18232 H 1736.91 -1.2141 6.44158 0
M  V30 18233 H 1736.43 -2.58348 5.4131 0
M  V30 18234 H 1738.11 -2.44361 5.9908 0
M  V30 18235 N 1738.25 -1.47815 -0.546675 0
M  V30 18236 C 1739.21 -1.6063 -1.63495 0
M  V30 18237 C 1740.21 -0.480661 -1.53448 0
M  V30 18238 O 1741.4 -0.746017 -1.57417 0
M  V30 18239 C 1738.53 -1.56076 -3.03073 0
M  V30 18240 H 1739.72 -2.57652 -1.53478 0
M  V30 18241 H 1737.28 -1.36162 -0.767433 0
M  V30 18242 H 1738.01 -0.604694 -3.18613 0
M  V30 18243 H 1737.8 -2.3778 -3.11774 0
M  V30 18244 H 1739.29 -1.68204 -3.82227 0
M  V30 18245 N 1739.72 0.794246 -1.36123 0
M  V30 18246 C 1740.95 1.58297 -1.33228 0
M  V30 18247 C 1741.37 1.88597 0.0875426 0
M  V30 18248 O 1740.72 1.49754 1.04307 0
M  V30 18249 C 1740.77 2.90687 -2.14904 0
M  V30 18250 O 1740.5 2.61695 -3.51351 0
M  V30 18251 C 1742 3.85009 -2.19734 0
M  V30 18252 H 1739.22 0.491139 -0.457191 0
M  V30 18253 H 1741.76 0.986129 -1.79153 0
M  V30 18254 H 1739.92 3.46852 -1.72546 0
M  V30 18255 H 1740.33 3.46313 -3.93913 0
M  V30 18256 H 1741.8 4.74976 -2.8125 0
M  V30 18257 H 1742.28 4.22504 -1.19946 0
M  V30 18258 H 1742.89 3.34777 -2.62307 0
M  V30 18259 N 1741.2 1.20323 1.01785 0
M  V30 18260 C 1742.45 1.00688 1.74771 0
M  V30 18261 C 1742.76 -0.461769 1.90071 0
M  V30 18262 O 1743.97 -0.777214 2.60138 0
M  V30 18263 C 1742.43 1.75278 3.14334 0
M  V30 18264 C 1742.03 3.26227 3.0705 0
M  V30 18265 C 1743.78 1.64006 3.91538 0
M  V30 18266 C 1741.68 3.9336 4.41613 0
M  V30 18267 H 1740.61 0.373123 0.655206 0
M  V30 18268 H 1743.27 1.43931 1.13825 0
M  V30 18269 H 1741.65 1.24821 3.75813 0
M  V30 18270 H 1742.82 3.83888 2.54885 0
M  V30 18271 H 1741.14 3.37898 2.43339 0
M  V30 18272 H 1743.73 2.11503 4.91091 0
M  V30 18273 H 1744.08 0.59605 4.12011 0
M  V30 18274 H 1744.61 2.11869 3.36684 0
M  V30 18275 H 1741.35 4.97907 4.26344 0
M  V30 18276 H 1740.87 3.40488 4.93789 0
M  V30 18277 H 1742.55 3.97541 5.10461 0
M  V30 18278 N 1742.68 -1.21073 1.00892 0
M  V30 18279 C 1743.59 -2.27265 0.582065 0
M  V30 18280 C 1744.61 -1.69872 -0.376785 0
M  V30 18281 O 1745.78 -1.99969 -0.239644 0
M  V30 18282 C 1742.85 -3.46606 -0.0806764 0
M  V30 18283 C 1741.91 -4.19257 0.923147 0
M  V30 18284 C 1741.14 -5.32901 0.291938 0
M  V30 18285 O 1741.36 -5.6309 -0.910282 0
M  V30 18286 O 1740.3 -5.93453 1.00483 0
M  V30 18287 H 1744.12 -2.65977 1.46594 0
M  V30 18288 H 1741.71 -1.27544 0.777999 0
M  V30 18289 H 1743.59 -4.18978 -0.451177 0
M  V30 18290 H 1742.27 -3.09785 -0.93887 0
M  V30 18291 H 1741.17 -3.4909 1.34488 0
M  V30 18292 H 1742.51 -4.59999 1.75106 0
M  V30 18293 N 1744.16 -0.784156 -1.36707 0
M  V30 18294 C 1745.09 -0.136944 -2.28791 0
M  V30 18295 C 1746.1 0.65075 -1.49228 0
M  V30 18296 O 1747.29 0.486799 -1.71734 0
M  V30 18297 C 1744.39 0.829306 -3.28597 0
M  V30 18298 C 1743.57 0.09279 -4.37302 0
M  V30 18299 C 1742.62 0.974213 -5.17103 0
M  V30 18300 O 1741.65 0.433399 -5.67548 0
M  V30 18301 N 1742.85 2.29909 -5.33031 0
M  V30 18302 H 1745.62 -0.927906 -2.84974 0
M  V30 18303 H 1743.18 -0.637596 -1.48816 0
M  V30 18304 H 1745.17 1.42268 -3.78869 0
M  V30 18305 H 1743.74 1.52117 -2.73092 0
M  V30 18306 H 1742.96 -0.681615 -3.88262 0
M  V30 18307 H 1744.25 -0.415655 -5.07099 0
M  V30 18308 H 1743.65 2.76268 -4.93652 0
M  V30 18309 H 1742.2 2.84224 -5.86566 0
M  V30 18310 N 1745.64 1.48215 -0.535727 0
M  V30 18311 C 1746.86 2.07399 -0.00589172 0
M  V30 18312 C 1747.29 1.38886 1.26856 0
M  V30 18313 O 1746.64 0.456684 1.75454 0
M  V30 18314 C 1746.69 3.60071 0.195203 0
M  V30 18315 O 1745.8 3.92596 1.26261 0
M  V30 18316 H 1745.14 0.662689 -0.0416988 0
M  V30 18317 H 1747.67 1.90543 -0.745281 0
M  V30 18318 H 1747.68 4.05873 0.416085 0
M  V30 18319 H 1746.35 4.0934 -0.735747 0
M  V30 18320 H 1744.93 3.58567 1.02393 0
M  V30 18321 N 1747.11 0.27113 1.5525 0
M  V30 18322 C 1748.08 -0.604946 2.21072 0
M  V30 18323 C 1749.08 -1.08438 1.18735 0
M  V30 18324 O 1750.27 -0.985192 1.43665 0
M  V30 18325 C 1747.4 -1.83416 2.87353 0
M  V30 18326 H 1748.59 -0.0302981 2.99885 0
M  V30 18327 H 1746.15 0.0217204 1.56285 0
M  V30 18328 H 1746.88 -2.44942 2.12542 0
M  V30 18329 H 1746.67 -1.49834 3.62343 0
M  V30 18330 H 1748.16 -2.45724 3.37653 0
M  V30 18331 N 1748.59 -1.576 -0.00164943 0
M  V30 18332 C 1750 -1.78578 -0.544681 0
M  V30 18333 C 1750.35 -0.905575 -1.74051 0
M  V30 18334 O 1749.48 -0.107614 -2.16132 0
M  V30 18335 C 1750.07 -3.23863 -0.994898 0
M  V30 18336 C 1748.63 -3.45943 -1.48325 0
M  V30 18337 C 1747.78 -2.73887 -0.433702 0
M  V30 18338 H 1750.73 -1.57104 0.224524 0
M  V30 18339 H 1750.75 -3.31885 -1.86099 0
M  V30 18340 H 1750.26 -3.87901 -0.124352 0
M  V30 18341 H 1748.37 -2.87118 -2.37474 0
M  V30 18342 H 1748.48 -4.54621 -1.51185 0
M  V30 18343 H 1746.84 -2.38458 -0.894969 0
M  V30 18344 H 1747.63 -3.40623 0.42785 0
M  V30 18345 N 1750.07 0.274379 -1.55193 0
M  V30 18346 C 1751.3 1.02871 -1.8009 0
M  V30 18347 C 1751.72 1.79202 -0.571676 0
M  V30 18348 O 1751.08 1.74867 0.478679 0
M  V30 18349 C 1751.13 1.96406 -3.02418 0
M  V30 18350 O 1750.23 3.05154 -2.77408 0
M  V30 18351 H 1749.57 0.294181 -0.595276 0
M  V30 18352 H 1752.1 0.303708 -2.02333 0
M  V30 18353 H 1752.11 2.38385 -3.31114 0
M  V30 18354 H 1750.79 1.40261 -3.91535 0
M  V30 18355 H 1749.36 2.675 -2.59805 0
M  V30 18356 N 1751.55 1.48103 0.538828 0
M  V30 18357 C 1752.48 1.58044 1.65996 0
M  V30 18358 C 1753.49 0.465316 1.56009 0
M  V30 18359 O 1754.68 0.735769 1.62631 0
M  V30 18360 C 1751.78 1.48587 3.0459 0
M  V30 18361 C 1750.96 2.74987 3.40148 0
M  V30 18362 C 1750.01 2.59109 4.57984 0
M  V30 18363 O 1749.04 3.32974 4.61646 0
M  V30 18364 N 1750.24 1.68143 5.55615 0
M  V30 18365 H 1753.01 2.54726 1.57908 0
M  V30 18366 H 1750.57 1.44715 0.725901 0
M  V30 18367 H 1752.56 1.35673 3.81281 0
M  V30 18368 H 1751.13 0.599157 3.06804 0
M  V30 18369 H 1750.35 3.02531 2.52723 0
M  V30 18370 H 1751.64 3.58862 3.60687 0
M  V30 18371 H 1751.04 1.07317 5.55427 0
M  V30 18372 H 1749.59 1.61171 6.31559 0
M  V30 18373 N 1753.03 -0.787016 1.36542 0
M  V30 18374 C 1754.25 -1.58103 1.34231 0
M  V30 18375 C 1754.68 -1.87956 -0.0734932 0
M  V30 18376 O 1754.03 -1.48073 -1.04615 0
M  V30 18377 C 1754.08 -2.87739 2.17345 0
M  V30 18378 O 1753.19 -3.81445 1.56759 0
M  V30 18379 H 1752.53 -0.479495 0.459326 0
M  V30 18380 H 1755.06 -0.975294 1.79859 0
M  V30 18381 H 1755.07 -3.36986 2.3001 0
M  V30 18382 H 1753.74 -2.65338 3.20264 0
M  V30 18383 H 1752.32 -3.40046 1.53047 0
M  V30 18384 N 1754.5 -1.20861 -1.01145 0
M  V30 18385 C 1755.78 -0.93084 -1.72031 0
M  V30 18386 C 1756.16 0.559051 -2.03563 0
M  V30 18387 O 1755.51 1.52214 -1.70421 0
M  V30 18388 C 1755.72 -1.8092 -2.98444 0
M  V30 18389 C 1757.07 -2.05415 -3.71604 0
M  V30 18390 O 1758.09 -1.78216 -3.08411 0
M  V30 18391 O 1756.95 -2.5138 -4.85253 0
M  V30 18392 H 1754.04 -0.348488 -0.74999 0
M  V30 18393 H 1756.59 -1.3176 -1.06946 0
M  V30 18394 H 1755.36 -2.81783 -2.71503 0
M  V30 18395 H 1754.99 -1.42285 -3.71269 0
M  V30 18396 N 1755.98 1.20536 -1.01532 0
M  V30 18397 C 1756.91 2.22683 -0.542658 0
M  V30 18398 C 1757.93 1.5844 0.374267 0
M  V30 18399 O 1759.12 1.77661 0.172818 0
M  V30 18400 C 1756.22 3.38117 0.230168 0
M  V30 18401 C 1755.39 4.3195 -0.688356 0
M  V30 18402 C 1754.45 5.26187 0.0366686 0
M  V30 18403 O 1753.47 5.66182 -0.585418 0
M  V30 18404 N 1754.68 5.65481 1.31193 0
M  V30 18405 H 1757.44 2.63864 -1.42111 0
M  V30 18406 H 1755 1.35065 -0.892703 0
M  V30 18407 H 1756.99 3.98164 0.724408 0
M  V30 18408 H 1755.56 2.95837 1.00991 0
M  V30 18409 H 1754.78 3.69889 -1.36292 0
M  V30 18410 H 1756.07 4.91564 -1.3131 0
M  V30 18411 H 1755.47 5.34998 1.83829 0
M  V30 18412 H 1754.03 6.27842 1.75092 0
M  V30 18413 N 1757.46 0.791395 1.36289 0
M  V30 18414 C 1758.37 0.192362 2.3381 0
M  V30 18415 C 1759.39 -0.656556 1.61138 0
M  V30 18416 O 1760.56 -0.571877 1.9311 0
M  V30 18417 C 1757.63 -0.661283 3.40335 0
M  V30 18418 C 1756.69 0.206361 4.28804 0
M  V30 18419 C 1755.92 -0.606636 5.30241 0
M  V30 18420 O 1756.14 -1.84247 5.39823 0
M  V30 18421 O 1755.08 -0.00549116 6.019 0
M  V30 18422 H 1758.9 0.998723 2.86809 0
M  V30 18423 H 1756.49 0.552889 1.38793 0
M  V30 18424 H 1758.37 -1.148 4.05461 0
M  V30 18425 H 1757.05 -1.4455 2.89632 0
M  V30 18426 H 1755.95 0.739877 3.66711 0
M  V30 18427 H 1757.29 0.954142 4.82863 0
M  V30 18428 N 1758.94 -1.47929 0.54358 0
M  V30 18429 C 1759.87 -2.27843 -0.249005 0
M  V30 18430 C 1760.88 -1.36189 -0.891987 0
M  V30 18431 O 1762.07 -1.61127 -0.768135 0
M  V30 18432 C 1759.17 -3.10016 -1.36906 0
M  V30 18433 C 1758.35 -4.29541 -0.82545 0
M  V30 18434 C 1757.41 -4.93416 -1.82831 0
M  V30 18435 O 1756.43 -5.52222 -1.37984 0
M  V30 18436 N 1757.63 -4.86881 -3.16113 0
M  V30 18437 H 1760.4 -2.96505 0.436436 0
M  V30 18438 H 1757.96 -1.57407 0.378774 0
M  V30 18439 H 1759.95 -3.49616 -2.0384 0
M  V30 18440 H 1758.52 -2.43686 -1.95796 0
M  V30 18441 H 1757.74 -3.94195 0.0202776 0
M  V30 18442 H 1759.03 -5.06882 -0.441368 0
M  V30 18443 H 1758.43 -4.4028 -3.55205 0
M  V30 18444 H 1756.98 -5.30541 -3.78642 0
M  V30 18445 N 1760.42 -0.27936 -1.55104 0
M  V30 18446 C 1761.35 0.599831 -2.25664 0
M  V30 18447 C 1762.33 1.15548 -1.24831 0
M  V30 18448 O 1763.51 1.18883 -1.53559 0
M  V30 18449 C 1760.64 1.78202 -2.98096 0
M  V30 18450 C 1759.6 1.35771 -4.05894 0
M  V30 18451 C 1758.92 2.62334 -4.65924 0
M  V30 18452 C 1760.22 0.504795 -5.19855 0
M  V30 18453 H 1761.92 0.0113761 -2.99398 0
M  V30 18454 H 1759.46 0.00403149 -1.43999 0
M  V30 18455 H 1761.42 2.403 -3.4617 0
M  V30 18456 H 1760.14 2.39637 -2.21905 0
M  V30 18457 H 1758.8 0.75991 -3.58638 0
M  V30 18458 H 1758.45 3.22036 -3.86396 0
M  V30 18459 H 1758.15 2.34654 -5.38713 0
M  V30 18460 H 1759.67 3.25273 -5.16749 0
M  V30 18461 H 1761.09 1.03089 -5.63955 0
M  V30 18462 H 1759.48 0.322696 -5.99232 0
M  V30 18463 H 1760.55 -0.475409 -4.82564 0
M  V30 18464 N 1761.9 1.57599 -0.0067085 0
M  V30 18465 C 1763.14 1.90858 0.67673 0
M  V30 18466 C 1763.47 0.880956 1.73405 0
M  V30 18467 O 1762.73 -0.113339 1.95372 0
M  V30 18468 C 1763.02 3.30868 1.35133 0
M  V30 18469 C 1762.69 4.48878 0.426559 0
M  V30 18470 C 1761.35 4.80893 0.17196 0
M  V30 18471 C 1763.7 5.20778 -0.209761 0
M  V30 18472 C 1761.03 5.82177 -0.727139 0
M  V30 18473 C 1763.38 6.2302 -1.09678 0
M  V30 18474 C 1762.05 6.53488 -1.36049 0
M  V30 18475 H 1761.32 0.698397 0.247633 0
M  V30 18476 H 1763.97 1.91394 -0.0636748 0
M  V30 18477 H 1762.27 3.26487 2.16594 0
M  V30 18478 H 1763.97 3.53864 1.8863 0
M  V30 18479 H 1760.56 4.23867 0.635166 0
M  V30 18480 H 1764.74 4.96293 -0.0260888 0
M  V30 18481 H 1760 6.0414 -0.939389 0
M  V30 18482 H 1764.17 6.77861 -1.59616 0
M  V30 18483 H 1761.8 7.31789 -2.05886 0
M  V30 18484 N 1763.37 -0.266145 1.55336 0
M  V30 18485 C 1764.6 -1.01915 1.80633 0
M  V30 18486 C 1765.02 -1.78897 0.581172 0
M  V30 18487 O 1764.38 -1.75118 -0.469399 0
M  V30 18488 C 1764.43 -1.948 3.03456 0
M  V30 18489 O 1763.53 -3.03678 2.79022 0
M  V30 18490 H 1762.87 -0.29102 0.596828 0
M  V30 18491 H 1765.4 -0.292973 2.02492 0
M  V30 18492 H 1765.41 -2.36626 3.32373 0
M  V30 18493 H 1764.09 -1.38182 3.92273 0
M  V30 18494 H 1762.67 -2.66118 2.61219 0
M  V30 18495 N 1764.85 -1.48386 -0.530967 0
M  V30 18496 C 1765.8 -1.63279 -1.65658 0
M  V30 18497 C 1766.79 -0.499261 -1.61876 0
M  V30 18498 O 1768 -0.677951 -1.66745 0
M  V30 18499 H 1764.37 -0.514332 -0.548605 0
M  V30 18500 H 1766.35 -2.57818 -1.50241 0
M  V30 18501 C 1765.09 -1.68878 -3.03933 0
M  V30 18502 H 1764.42 -2.55462 -3.07537 0
M  V30 18503 H 1765.86 -1.83343 -3.82311 0
M  V30 18504 C 1764.32 -0.427267 -3.3418 0
M  V30 18505 O 1764.85 0.460276 -3.99054 0
M  V30 18506 N 1763.05 -0.299268 -2.89055 0
M  V30 18507 H 1762.6 -1.02248 -2.36438 0
M  V30 18508 H 1762.56 0.543787 -3.09662 0
M  V30 18509 N 1766.33 0.779763 -1.36958 0
M  V30 18510 C 1767.58 1.54031 -1.31918 0
M  V30 18511 C 1767.91 1.9395 0.0985685 0
M  V30 18512 O 1767.18 1.63458 1.05413 0
M  V30 18513 C 1767.47 2.81083 -2.25088 0
M  V30 18514 C 1767.32 2.47469 -3.75605 0
M  V30 18515 C 1768.64 3.82968 -2.1685 0
M  V30 18516 H 1765.76 0.558806 -0.480526 0
M  V30 18517 H 1768.4 0.895152 -1.67592 0
M  V30 18518 H 1766.55 3.36135 -1.94796 0
M  V30 18519 H 1768.22 1.98393 -4.16459 0
M  V30 18520 H 1766.46 1.80276 -3.94567 0
M  V30 18521 H 1767.14 3.38255 -4.3622 0
M  V30 18522 H 1769.61 3.37388 -2.43534 0
M  V30 18523 H 1768.49 4.69601 -2.84194 0
M  V30 18524 H 1768.75 4.26642 -1.15885 0
M  V30 18525 N 1767.81 1.21396 1.00503 0
M  V30 18526 C 1768.74 0.930982 2.09441 0
M  V30 18527 C 1769.75 -0.0857912 1.62574 0
M  V30 18528 O 1770.94 0.146701 1.77896 0
M  V30 18529 C 1768.04 0.376344 3.36804 0
M  V30 18530 C 1767.21 1.44744 4.12756 0
M  V30 18531 C 1766.27 0.902051 5.18411 0
M  V30 18532 O 1765.3 1.58548 5.46673 0
M  V30 18533 N 1766.5 -0.282718 5.79811 0
M  V30 18534 H 1769.27 1.86879 2.343 0
M  V30 18535 H 1766.83 1.1192 1.16985 0
M  V30 18536 H 1768.82 -0.00292068 4.047 0
M  V30 18537 H 1767.39 -0.466283 3.09103 0
M  V30 18538 H 1766.61 2.00056 3.39664 0
M  V30 18539 H 1767.9 2.16846 4.60277 0
M  V30 18540 H 1767.3 -0.855 5.59201 0
M  V30 18541 H 1765.85 -0.603494 6.49 0
M  V30 18542 N 1769.29 -1.19996 1.0217 0
M  V30 18543 C 1770.52 -1.93186 0.732311 0
M  V30 18544 C 1770.92 -1.75303 -0.711724 0
M  V30 18545 O 1770.27 -1.06756 -1.49495 0
M  V30 18546 C 1770.33 -3.45466 0.994655 0
M  V30 18547 C 1769.99 -3.87114 2.42882 0
M  V30 18548 C 1770.99 -3.92459 3.40987 0
M  V30 18549 C 1768.67 -4.18958 2.77091 0
M  V30 18550 C 1770.67 -4.29067 4.7136 0
M  V30 18551 C 1768.36 -4.5524 4.07676 0
M  V30 18552 C 1769.35 -4.60267 5.04622 0
M  V30 18553 O 1769.04 -4.95713 6.32869 0
M  V30 18554 H 1768.77 -0.62069 0.267806 0
M  V30 18555 H 1771.33 -1.53287 1.3672 0
M  V30 18556 H 1769.56 -3.85514 0.30261 0
M  V30 18557 H 1771.25 -3.99887 0.696049 0
M  V30 18558 H 1772.01 -3.68016 3.15895 0
M  V30 18559 H 1767.89 -4.14233 2.02317 0
M  V30 18560 H 1771.44 -4.32905 5.47027 0
M  V30 18561 H 1767.33 -4.7914 4.32545 0
M  V30 18562 H 1768.1 -5.13687 6.37234 0
M  V30 18563 N 1770.76 -0.798611 -1.35867 0
M  V30 18564 C 1772.01 -0.37526 -1.98993 0
M  V30 18565 C 1772.34 1.05549 -1.6337 0
M  V30 18566 O 1771.59 1.74552 -0.88488 0
M  V30 18567 C 1771.89 -0.496572 -3.53934 0
M  V30 18568 C 1771.56 -1.88946 -4.09402 0
M  V30 18569 C 1770.22 -2.27056 -4.24263 0
M  V30 18570 C 1772.57 -2.8011 -4.39531 0
M  V30 18571 C 1769.9 -3.55712 -4.66568 0
M  V30 18572 C 1772.25 -4.08205 -4.83272 0
M  V30 18573 C 1770.92 -4.46323 -4.96338 0
M  V30 18574 H 1770.19 -0.137317 -0.728165 0
M  V30 18575 H 1772.83 -1.01786 -1.6221 0
M  V30 18576 H 1771.14 0.229499 -3.91127 0
M  V30 18577 H 1772.84 -0.149903 -4.0072 0
M  V30 18578 H 1769.43 -1.58336 -3.98281 0
M  V30 18579 H 1773.61 -2.51919 -4.2761 0
M  V30 18580 H 1768.87 -3.85105 -4.74873 0
M  V30 18581 H 1773.04 -4.78952 -5.05547 0
M  V30 18582 H 1770.67 -5.4607 -5.28877 0
M  V30 18583 N 1772.24 1.47639 -0.551417 0
M  V30 18584 C 1773.2 2.28419 0.188996 0
M  V30 18585 C 1774.2 1.36617 0.84808 0
M  V30 18586 O 1775.39 1.59304 0.704831 0
M  V30 18587 C 1772.53 3.16131 1.27571 0
M  V30 18588 H 1773.72 2.95348 -0.520518 0
M  V30 18589 H 1771.27 1.53232 -0.308141 0
M  V30 18590 H 1772.01 2.5388 2.0178 0
M  V30 18591 H 1771.79 3.83685 0.807984 0
M  V30 18592 H 1773.28 3.77011 1.79591 0
M  V30 18593 N 1773.72 0.287581 1.54954 0
M  V30 18594 C 1774.67 -0.609238 2.1971 0
M  V30 18595 C 1775.65 -1.10905 1.16571 0
M  V30 18596 O 1776.85 -1.05206 1.4234 0
M  V30 18597 C 1773.98 -1.78705 2.9312 0
M  V30 18598 C 1773.06 -1.30383 4.0356 0
M  V30 18599 N 1773.45 -0.537641 5.02934 0
M  V30 18600 C 1771.75 -1.58573 4.16858 0
M  V30 18601 C 1772.45 -0.281993 5.81016 0
M  V30 18602 N 1771.43 -0.857984 5.36786 0
M  V30 18603 H 1775.23 -0.0161538 2.93896 0
M  V30 18604 H 1772.74 0.0917131 1.62141 0
M  V30 18605 H 1774.74 -2.44095 3.37969 0
M  V30 18606 H 1773.4 -2.38397 2.20448 0
M  V30 18607 H 1774.41 -0.183797 5.17574 0
M  V30 18608 H 1771.09 -2.1911 3.55383 0
M  V30 18609 H 1772.48 0.332479 6.71077 0
M  V30 18610 N 1775.2 -1.57593 0.0150662 0
M  V30 18611 C 1776.43 -1.95221 -0.676193 0
M  V30 18612 C 1776.84 -0.889349 -1.66995 0
M  V30 18613 O 1776.18 0.138825 -1.83175 0
M  V30 18614 C 1776.24 -3.28921 -1.45092 0
M  V30 18615 C 1775.91 -4.52815 -0.61707 0
M  V30 18616 C 1776.9 -5.19801 0.101686 0
M  V30 18617 C 1774.59 -4.99184 -0.558606 0
M  V30 18618 C 1776.58 -6.31466 0.86773 0
M  V30 18619 C 1774.27 -6.10735 0.211154 0
M  V30 18620 C 1775.27 -6.76734 0.923041 0
M  V30 18621 O 1774.95 -7.86145 1.68021 0
M  V30 18622 H 1774.69 -0.648074 -0.192293 0
M  V30 18623 H 1777.24 -2.05291 0.0668663 0
M  V30 18624 H 1775.47 -3.15301 -2.2388 0
M  V30 18625 H 1777.16 -3.51552 -2.02894 0
M  V30 18626 H 1777.93 -4.84955 0.0657637 0
M  V30 18627 H 1773.8 -4.47629 -1.10226 0
M  V30 18628 H 1777.35 -6.82913 1.42391 0
M  V30 18629 H 1773.25 -6.4502 0.248843 0
M  V30 18630 H 1774.01 -8.02739 1.5985 0
M  V30 18631 N 1776.68 0.257904 -1.55475 0
M  V30 18632 C 1777.92 0.99495 -1.7855 0
M  V30 18633 C 1778.28 1.82941 -0.582809 0
M  V30 18634 O 1779.48 2.59737 -0.692104 0
M  V30 18635 C 1777.75 1.84176 -3.06291 0
M  V30 18636 S 1779.31 2.6394 -3.50544 0
M  V30 18637 H 1776.13 0.334856 -0.62721 0
M  V30 18638 H 1778.73 0.263867 -1.93711 0
M  V30 18639 H 1777.44 1.21824 -3.91902 0
M  V30 18640 H 1776.97 2.61579 -2.93837 0
M  V30 18641 H 1778.98 3.86638 -3.11008 0
M  V30 18642 N 1778.15 1.48666 0.52309 0
M  V30 18643 C 1779.57 1.34939 0.852268 0
M  V30 18644 C 1779.77 0.365638 1.98155 0
M  V30 18645 O 1778.83 -0.210671 2.5162 0
M  V30 18646 C 1780.14 2.75136 1.21329 0
M  V30 18647 C 1781.69 2.83675 1.32278 0
M  V30 18648 C 1782.16 4.24589 1.71721 0
M  V30 18649 N 1783.65 4.27295 1.78811 0
M  V30 18650 C 1784.39 5.33274 2.10729 0
M  V30 18651 N 1783.88 6.49523 2.41023 0
M  V30 18652 N 1785.68 5.20673 2.11793 0
M  V30 18653 H 1777.83 2.11237 -0.221919 0
M  V30 18654 H 1780.09 0.947291 -0.0366525 0
M  V30 18655 H 1779.8 3.48717 0.457065 0
M  V30 18656 H 1779.67 3.091 2.16187 0
M  V30 18657 H 1782.06 2.10345 2.06976 0
M  V30 18658 H 1782.14 2.53321 0.355248 0
M  V30 18659 H 1781.78 4.98438 0.975805 0
M  V30 18660 H 1781.71 4.52391 2.69536 0
M  V30 18661 H 1784.2 3.43447 1.57648 0
M  V30 18662 H 1784.52 7.26125 2.64503 0
M  V30 18663 H 1782.86 6.52786 2.38528 0
M  V30 18664 H 1786.05 4.28869 1.87588 0
M  V30 18665 H 1786.23 6.03365 2.36336 0
M  V30 18666 N 1779.63 -0.772489 1.37369 0
M  V30 18667 C 1780.58 -1.88575 1.33073 0
M  V30 18668 C 1781.55 -1.64935 0.19641 0
M  V30 18669 O 1782.73 -1.86862 0.385651 0
M  V30 18670 C 1779.87 -3.25628 1.14281 0
M  V30 18671 C 1778.99 -3.61227 2.36936 0
M  V30 18672 C 1778.12 -4.87486 2.11023 0
M  V30 18673 C 1777.16 -5.15814 3.29548 0
M  V30 18674 N 1776.3 -6.33261 3.03191 0
M  V30 18675 H 1781.14 -1.91583 2.28255 0
M  V30 18676 H 1778.68 -0.936654 1.13425 0
M  V30 18677 H 1780.63 -4.04688 1.01407 0
M  V30 18678 H 1779.26 -3.21998 0.227467 0
M  V30 18679 H 1778.32 -2.77158 2.60552 0
M  V30 18680 H 1779.63 -3.781 3.25333 0
M  V30 18681 H 1778.78 -5.74449 1.95176 0
M  V30 18682 H 1777.52 -4.72716 1.19962 0
M  V30 18683 H 1776.53 -4.27328 3.45935 0
M  V30 18684 H 1777.75 -5.32493 4.21459 0
M  V30 18685 H 1775.7 -6.19851 2.14759 0
M  V30 18686 H 1775.61 -6.50546 3.85131 0
M  V30 18687 H 1776.88 -7.23162 2.9096 0
M  V30 18688 N 1781.11 -1.21927 -0.998575 0
M  V30 18689 C 1782.34 -1.06501 -1.77034 0
M  V30 18690 C 1782.75 0.387776 -1.85184 0
M  V30 18691 O 1782.09 1.28067 -1.31699 0
M  V30 18692 C 1782.15 -1.59465 -3.22198 0
M  V30 18693 C 1781.82 -3.08008 -3.37609 0
M  V30 18694 C 1782.81 -4.05495 -3.25377 0
M  V30 18695 C 1780.5 -3.47347 -3.62843 0
M  V30 18696 C 1782.49 -5.40306 -3.38154 0
M  V30 18697 C 1780.18 -4.82309 -3.75262 0
M  V30 18698 C 1781.18 -5.78597 -3.62924 0
M  V30 18699 O 1780.87 -7.1111 -3.74938 0
M  V30 18700 H 1780.6 -0.374178 -0.562998 0
M  V30 18701 H 1783.15 -1.61859 -1.26455 0
M  V30 18702 H 1781.38 -0.98509 -3.73942 0
M  V30 18703 H 1783.07 -1.39785 -3.81071 0
M  V30 18704 H 1783.84 -3.76446 -3.05799 0
M  V30 18705 H 1779.72 -2.72928 -3.71526 0
M  V30 18706 H 1783.26 -6.15445 -3.28441 0
M  V30 18707 H 1779.16 -5.1104 -3.94345 0
M  V30 18708 H 1779.93 -7.18609 -3.91846 0
M  V30 18709 N 1782.59 1.19452 -1.02805 0
M  V30 18710 C 1783.55 2.20857 -0.612757 0
M  V30 18711 C 1784.55 1.57519 0.323182 0
M  V30 18712 O 1785.74 1.7385 0.110303 0
M  V30 18713 C 1782.87 3.40743 0.103488 0
M  V30 18714 H 1784.07 2.59113 -1.50998 0
M  V30 18715 H 1781.62 1.33116 -0.819142 0
M  V30 18716 H 1782.35 3.08004 1.0151 0
M  V30 18717 H 1782.14 3.87949 -0.56903 0
M  V30 18718 H 1783.63 4.15858 0.380998 0
M  V30 18719 N 1784.07 0.805805 1.35442 0
M  V30 18720 C 1785.48 0.446863 1.81273 0
M  V30 18721 C 1785.83 -1.03104 1.66925 0
M  V30 18722 O 1784.95 -1.80117 1.19945 0
M  V30 18723 C 1785.55 0.80433 3.29114 0
M  V30 18724 C 1784.11 0.497997 3.73091 0
M  V30 18725 C 1783.25 1.03035 2.57447 0
M  V30 18726 H 1786.21 0.997517 1.23431 0
M  V30 18727 H 1786.23 0.101559 3.80364 0
M  V30 18728 H 1785.74 1.88001 3.39525 0
M  V30 18729 H 1783.84 -0.568982 3.6823 0
M  V30 18730 H 1783.95 1.03008 4.67896 0
M  V30 18731 H 1782.32 0.452716 2.50644 0
M  V30 18732 H 1783.1 2.11213 2.70636 0
M  V30 18733 N 1785.54 -1.47344 0.559239 0
M  V30 18734 C 1786.47 -2.32839 -0.175542 0
M  V30 18735 C 1787.46 -1.43914 -0.906787 0
M  V30 18736 O 1788.64 -1.72767 -0.886855 0
M  V30 18737 C 1785.77 -3.25735 -1.20474 0
M  V30 18738 C 1784.72 -4.23916 -0.589825 0
M  V30 18739 C 1784.05 -5.06151 -1.7238 0
M  V30 18740 C 1785.35 -5.2029 0.457733 0
M  V30 18741 H 1787.04 -2.94522 0.538225 0
M  V30 18742 H 1784.59 -1.41628 0.260282 0
M  V30 18743 H 1786.54 -3.84388 -1.72695 0
M  V30 18744 H 1785.27 -2.62111 -1.94847 0
M  V30 18745 H 1783.93 -3.66492 -0.0888897 0
M  V30 18746 H 1783.57 -4.38929 -2.45663 0
M  V30 18747 H 1783.27 -5.72625 -1.31813 0
M  V30 18748 H 1784.8 -5.67663 -2.24923 0
M  V30 18749 H 1786.21 -5.73296 0.0215019 0
M  V30 18750 H 1784.61 -5.94978 0.7824 0
M  V30 18751 H 1785.68 -4.65645 1.35286 0
M  V30 18752 N 1787.02 -0.295795 -1.54799 0
M  V30 18753 C 1788.25 0.317302 -2.04149 0
M  V30 18754 C 1788.66 1.48463 -1.17283 0
M  V30 18755 O 1788 1.82715 -0.189979 0
M  V30 18756 C 1788.07 0.841241 -3.49519 0
M  V30 18757 C 1787.73 -0.200133 -4.56562 0
M  V30 18758 C 1788.73 -1.0268 -5.09659 0
M  V30 18759 C 1786.41 -0.340333 -5.01146 0
M  V30 18760 C 1788.41 -1.97966 -6.05878 0
M  V30 18761 C 1786.09 -1.29664 -5.97185 0
M  V30 18762 C 1787.09 -2.11479 -6.49435 0
M  V30 18763 O 1786.78 -3.0549 -7.43593 0
M  V30 18764 H 1786.51 0.0736679 -0.671974 0
M  V30 18765 H 1789.06 -0.431806 -2.0081 0
M  V30 18766 H 1787.29 1.64078 -3.50165 0
M  V30 18767 H 1788.98 1.36966 -3.82093 0
M  V30 18768 H 1789.75 -0.92933 -4.76013 0
M  V30 18769 H 1785.63 0.286525 -4.60109 0
M  V30 18770 H 1789.17 -2.61865 -6.46585 0
M  V30 18771 H 1785.07 -1.39485 -6.30249 0
M  V30 18772 H 1785.84 -3.00409 -7.61378 0
M  V30 18773 N 1788.5 1.57583 -0.0234236 0
M  V30 18774 C 1789.46 2.08797 0.945325 0
M  V30 18775 C 1790.46 1.00189 1.25773 0
M  V30 18776 O 1791.65 1.2637 1.19901 0
M  V30 18777 C 1788.79 2.54906 2.26353 0
M  V30 18778 H 1789.98 2.95671 0.50187 0
M  V30 18779 H 1787.53 1.54679 0.224507 0
M  V30 18780 H 1788.27 1.71345 2.75339 0
M  V30 18781 H 1788.05 3.34247 2.04991 0
M  V30 18782 H 1789.54 2.94774 2.95801 0
M  V30 18783 N 1789.98 -0.249655 1.5561 0
M  V30 18784 C 1790.94 -1.29242 1.89286 0
M  V30 18785 C 1791.94 -1.41214 0.769104 0
M  V30 18786 O 1793.13 -1.39962 1.03712 0
M  V30 18787 C 1790.26 -2.67053 2.11885 0
M  V30 18788 H 1791.46 -1.00601 2.82523 0
M  V30 18789 H 1789.01 -0.488819 1.4846 0
M  V30 18790 H 1789.75 -3.00838 1.21107 0
M  V30 18791 H 1789.53 -2.59745 2.93726 0
M  V30 18792 H 1791.02 -3.42353 2.39132 0
M  V30 18793 N 1791.46 -1.48941 -0.515198 0
M  V30 18794 C 1792.37 -1.67271 -1.64492 0
M  V30 18795 C 1793.38 -0.555222 -1.64904 0
M  V30 18796 O 1794.56 -0.828161 -1.83585 0
M  V30 18797 C 1791.62 -1.722 -3.00912 0
M  V30 18798 C 1790.69 -2.95683 -3.11239 0
M  V30 18799 C 1789.92 -3.00368 -4.41152 0
M  V30 18800 O 1790.14 -2.13041 -5.29122 0
M  V30 18801 O 1789.08 -3.92691 -4.56155 0
M  V30 18802 H 1792.9 -2.62947 -1.51962 0
M  V30 18803 H 1790.49 -1.32515 -0.68993 0
M  V30 18804 H 1792.37 -1.77877 -3.82018 0
M  V30 18805 H 1791.04 -0.796995 -3.13735 0
M  V30 18806 H 1789.95 -2.95531 -2.29374 0
M  V30 18807 H 1791.28 -3.87617 -3.03338 0
M  V30 18808 N 1792.94 0.765193 -1.37777 0
M  V30 18809 C 1793.9 1.8603 -1.33886 0
M  V30 18810 C 1794.9 1.58974 -0.241614 0
M  V30 18811 O 1796.09 1.66935 -0.497843 0
M  V30 18812 C 1793.22 3.2329 -1.08151 0
M  V30 18813 H 1794.41 1.9089 -2.31303 0
M  V30 18814 H 1791.97 0.965653 -1.22902 0
M  V30 18815 H 1792.7 3.24103 -0.112926 0
M  V30 18816 H 1792.49 3.4432 -1.8758 0
M  V30 18817 H 1793.98 4.03367 -1.08095 0
M  V30 18818 N 1794.41 1.22455 0.992094 0
M  V30 18819 C 1795.36 0.99534 2.08235 0
M  V30 18820 C 1796.33 -0.0832064 1.65891 0
M  V30 18821 O 1797.52 0.0665468 1.90684 0
M  V30 18822 C 1794.66 0.580055 3.4019 0
M  V30 18823 C 1793.77 1.72946 3.95871 0
M  V30 18824 C 1792.9 1.26208 5.15989 0
M  V30 18825 C 1791.94 2.38298 5.63809 0
M  V30 18826 N 1791.08 1.92602 6.75166 0
M  V30 18827 H 1795.92 1.92861 2.27175 0
M  V30 18828 H 1793.46 0.960948 1.11374 0
M  V30 18829 H 1795.41 0.320448 4.15968 0
M  V30 18830 H 1794.04 -0.316208 3.21248 0
M  V30 18831 H 1793.1 2.10337 3.16958 0
M  V30 18832 H 1794.41 2.57257 4.27341 0
M  V30 18833 H 1793.56 0.959904 5.99058 0
M  V30 18834 H 1792.3 0.389184 4.86145 0
M  V30 18835 H 1791.31 2.69304 4.79328 0
M  V30 18836 H 1792.53 3.26105 5.95678 0
M  V30 18837 H 1790.48 1.07675 6.47103 0
M  V30 18838 H 1790.39 2.70478 7.05959 0
M  V30 18839 H 1791.66 1.65455 7.61738 0
M  V30 18840 N 1795.89 -1.18905 1.03437 0
M  V30 18841 C 1797.31 -1.4075 0.752444 0
M  V30 18842 C 1797.51 -1.90361 -0.660679 0
M  V30 18843 O 1796.56 -2.08389 -1.42584 0
M  V30 18844 C 1797.88 -2.4138 1.79321 0
M  V30 18845 C 1799.42 -2.55118 1.81339 0
M  V30 18846 C 1799.9 -3.59007 2.8439 0
M  V30 18847 N 1801.39 -3.66508 2.83242 0
M  V30 18848 C 1802.13 -4.46602 3.59631 0
M  V30 18849 N 1801.62 -5.30355 4.45753 0
M  V30 18850 N 1803.41 -4.41304 3.48148 0
M  V30 18851 H 1795.57 -0.850259 1.94639 0
M  V30 18852 H 1797.83 -0.435962 0.841808 0
M  V30 18853 H 1797.53 -2.11963 2.80651 0
M  V30 18854 H 1797.41 -3.40636 1.62008 0
M  V30 18855 H 1799.8 -2.83856 0.806847 0
M  V30 18856 H 1799.88 -1.55996 2.02728 0
M  V30 18857 H 1799.52 -3.31011 3.8522 0
M  V30 18858 H 1799.45 -4.57792 2.60258 0
M  V30 18859 H 1801.94 -3.06697 2.20784 0
M  V30 18860 H 1802.25 -5.88603 5.00766 0
M  V30 18861 H 1800.6 -5.29797 4.49823 0
M  V30 18862 H 1803.79 -3.74918 2.80275 0
M  V30 18863 H 1803.96 -5.03483 4.07932 0
M  V30 18864 N 1797.37 -0.812977 -1.35013 0
M  V30 18865 C 1798.62 -0.396932 -1.98878 0
M  V30 18866 C 1798.95 1.03486 -1.6433 0
M  V30 18867 O 1798.22 1.71906 -0.90986 0
M  V30 18868 C 1798.51 -0.587911 -3.55268 0
M  V30 18869 C 1798.36 -2.06509 -3.99592 0
M  V30 18870 C 1799.68 -0.017593 -4.40096 0
M  V30 18871 H 1796.8 -0.145695 -0.722455 0
M  V30 18872 H 1799.44 -1.0237 -1.60064 0
M  V30 18873 H 1797.59 -0.0543785 -3.88462 0
M  V30 18874 H 1799.26 -2.6615 -3.76778 0
M  V30 18875 H 1797.5 -2.55921 -3.50267 0
M  V30 18876 H 1798.18 -2.14958 -5.08426 0
M  V30 18877 H 1800.65 -0.473317 -4.13399 0
M  V30 18878 H 1799.53 -0.18109 -5.48601 0
M  V30 18879 H 1799.79 1.07664 -4.2879 0
M  V30 18880 N 1798.85 1.47045 -0.567045 0
M  V30 18881 C 1800.09 2.02446 -0.0466799 0
M  V30 18882 C 1800.42 1.44032 1.3071 0
M  V30 18883 O 1799.68 0.58926 1.86618 0
M  V30 18884 C 1799.98 3.57298 0.0855754 0
M  V30 18885 C 1799.64 4.34678 -1.19858 0
M  V30 18886 C 1798.3 4.55538 -1.55043 0
M  V30 18887 C 1800.66 4.7923 -2.04909 0
M  V30 18888 C 1797.98 5.18201 -2.75108 0
M  V30 18889 C 1800.34 5.43218 -3.24186 0
M  V30 18890 C 1799 5.62309 -3.59673 0
M  V30 18891 H 1798.27 0.740803 -0.0170814 0
M  V30 18892 H 1800.92 1.76602 -0.740536 0
M  V30 18893 H 1799.22 3.82189 0.862463 0
M  V30 18894 H 1800.92 3.97824 0.50371 0
M  V30 18895 H 1797.51 4.18727 -0.914632 0
M  V30 18896 H 1801.69 4.62884 -1.79032 0
M  V30 18897 H 1796.95 5.31175 -3.02759 0
M  V30 18898 H 1801.12 5.76702 -3.90369 0
M  V30 18899 H 1798.75 6.10636 -4.528 0
M  V30 18900 N 1800.33 0.304 1.5464 0
M  V30 18901 C 1801.55 -0.309709 2.05075 0
M  V30 18902 C 1801.98 -1.46509 1.1797 0
M  V30 18903 O 1801.33 -1.80359 0.184437 0
M  V30 18904 C 1801.38 -0.740734 3.5291 0
M  V30 18905 O 1800.49 -1.8452 3.68817 0
M  V30 18906 H 1799.83 -0.0596065 0.661319 0
M  V30 18907 H 1802.36 0.446718 1.99664 0
M  V30 18908 H 1802.37 -1.02873 3.94818 0
M  V30 18909 H 1801.04 0.104422 4.15769 0
M  V30 18910 H 1799.62 -1.55753 3.38815 0
M  V30 18911 N 1801.8 -1.57568 0.0317802 0
M  V30 18912 C 1802.73 -2.13412 -0.947499 0
M  V30 18913 C 1803.71 -1.05091 -1.33753 0
M  V30 18914 O 1804.9 -1.32936 -1.41568 0
M  V30 18915 C 1802.03 -2.66337 -2.22895 0
M  V30 18916 C 1800.98 -3.79469 -1.97958 0
M  V30 18917 C 1800.31 -4.18833 -3.3239 0
M  V30 18918 C 1801.61 -5.05432 -1.31664 0
M  V30 18919 H 1803.3 -2.95488 -0.482417 0
M  V30 18920 H 1800.85 -1.42142 -0.230603 0
M  V30 18921 H 1802.8 -3.04039 -2.91784 0
M  V30 18922 H 1801.53 -1.81426 -2.71574 0
M  V30 18923 H 1800.19 -3.42209 -1.31485 0
M  V30 18924 H 1799.83 -3.30899 -3.78833 0
M  V30 18925 H 1799.53 -4.95071 -3.16511 0
M  V30 18926 H 1801.06 -4.5912 -4.02544 0
M  V30 18927 H 1802.47 -5.40704 -1.90558 0
M  V30 18928 H 1800.87 -5.86686 -1.26173 0
M  V30 18929 H 1801.94 -4.84032 -0.28996 0
M  V30 18930 N 1803.28 0.241399 -1.5574 0
M  V30 18931 C 1804.19 1.32034 -1.93918 0
M  V30 18932 C 1805.21 1.52363 -0.840331 0
M  V30 18933 O 1806.38 1.65879 -1.1422 0
M  V30 18934 C 1803.45 2.6539 -2.2309 0
M  V30 18935 C 1802.51 2.53536 -3.46436 0
M  V30 18936 C 1801.74 3.80532 -3.74208 0
M  V30 18937 O 1801.97 4.82662 -3.03964 0
M  V30 18938 O 1800.9 3.78834 -4.67727 0
M  V30 18939 H 1804.73 1.02647 -2.85827 0
M  V30 18940 H 1802.31 0.442616 -1.42693 0
M  V30 18941 H 1804.19 3.44184 -2.43137 0
M  V30 18942 H 1802.87 2.94499 -1.34358 0
M  V30 18943 H 1801.78 1.73009 -3.3169 0
M  V30 18944 H 1803.11 2.29371 -4.35488 0
M  V30 18945 N 1804.76 1.49212 0.507292 0
M  V30 18946 C 1805.71 1.65417 1.60953 0
M  V30 18947 C 1806.68 0.495737 1.5853 0
M  V30 18948 O 1807.86 0.722002 1.76612 0
M  V30 18949 C 1805 1.72095 2.99128 0
M  V30 18950 C 1804.12 2.99199 3.11615 0
M  V30 18951 C 1803.25 2.96895 4.40485 0
M  V30 18952 C 1802.29 4.18607 4.46581 0
M  V30 18953 N 1801.43 4.14248 5.66871 0
M  V30 18954 H 1806.27 2.59535 1.46444 0
M  V30 18955 H 1803.8 1.28687 0.712609 0
M  V30 18956 H 1805.76 1.73947 3.79207 0
M  V30 18957 H 1804.39 0.814484 3.12356 0
M  V30 18958 H 1803.44 3.06988 2.24639 0
M  V30 18959 H 1804.76 3.89192 3.11979 0
M  V30 18960 H 1803.91 2.97275 5.28878 0
M  V30 18961 H 1802.65 2.0467 4.42675 0
M  V30 18962 H 1801.65 4.18477 3.56591 0
M  V30 18963 H 1802.88 5.12017 4.46112 0
M  V30 18964 H 1800.82 3.24857 5.69916 0
M  V30 18965 H 1800.74 4.97969 5.68826 0
M  V30 18966 H 1802.01 4.18722 6.57489 0
M  V30 18967 N 1806.24 -0.757876 1.38181 0
M  V30 18968 C 1807.19 -1.87152 1.35065 0
M  V30 18969 C 1808.16 -1.64717 0.213892 0
M  V30 18970 O 1809.34 -1.86442 0.405448 0
M  V30 18971 C 1806.48 -3.24398 1.17728 0
M  V30 18972 C 1805.59 -3.58694 2.40754 0
M  V30 18973 C 1804.73 -4.85221 2.16181 0
M  V30 18974 C 1803.77 -5.1229 3.35001 0
M  V30 18975 N 1802.9 -6.3001 3.0989 0
M  V30 18976 H 1807.74 -1.89151 2.30274 0
M  V30 18977 H 1805.28 -0.924571 1.14412 0
M  V30 18978 H 1807.24 -4.0359 1.05694 0
M  V30 18979 H 1805.87 -3.21738 0.261606 0
M  V30 18980 H 1804.92 -2.74379 2.63477 0
M  V30 18981 H 1806.23 -3.74628 3.29325 0
M  V30 18982 H 1805.39 -5.72346 2.01258 0
M  V30 18983 H 1804.13 -4.71417 1.24969 0
M  V30 18984 H 1803.13 -4.23635 3.50448 0
M  V30 18985 H 1804.36 -5.27993 4.27083 0
M  V30 18986 H 1802.3 -6.17538 2.21321 0
M  V30 18987 H 1802.22 -6.46425 3.92009 0
M  V30 18988 H 1803.49 -7.20035 2.98613 0
M  V30 18989 N 1807.72 -1.22979 -0.985586 0
M  V30 18990 C 1808.65 -0.949615 -2.07503 0
M  V30 18991 C 1809.63 0.110178 -1.62226 0
M  V30 18992 O 1810.81 -0.022974 -1.88486 0
M  V30 18993 C 1807.94 -0.429626 -3.35964 0
M  V30 18994 C 1806.98 -1.47522 -4.00174 0
M  V30 18995 S 1807.82 -3.05095 -4.40088 0
M  V30 18996 C 1808.97 -2.54753 -5.71709 0
M  V30 18997 H 1809.21 -1.87215 -2.3095 0
M  V30 18998 H 1806.74 -1.06167 -1.12107 0
M  V30 18999 H 1808.7 -0.136212 -4.10274 0
M  V30 19000 H 1807.36 0.471907 -3.10535 0
M  V30 19001 H 1806.55 -1.06142 -4.92697 0
M  V30 19002 H 1806.15 -1.71772 -3.3222 0
M  V30 19003 H 1808.45 -1.9645 -6.48393 0
M  V30 19004 H 1809.39 -3.45795 -6.17925 0
M  V30 19005 H 1809.8 -1.95785 -5.29461 0
M  V30 19006 N 1809.19 1.18355 -1.04066 0
M  V30 19007 C 1810.42 1.92816 -0.763979 0
M  V30 19008 C 1810.84 1.75658 0.672749 0
M  V30 19009 O 1810.2 1.06671 1.46598 0
M  V30 19010 C 1810.25 3.42267 -1.13516 0
M  V30 19011 O 1809.35 4.11576 -0.260646 0
M  V30 19012 H 1808.7 0.601532 -0.281167 0
M  V30 19013 H 1811.23 1.50087 -1.3905 0
M  V30 19014 H 1811.24 3.92973 -1.09709 0
M  V30 19015 H 1809.91 3.54076 -2.18181 0
M  V30 19016 H 1808.49 3.71174 -0.358342 0
M  V30 19017 N 1810.67 0.820125 1.3458 0
M  V30 19018 C 1811.62 0.22828 2.31477 0
M  V30 19019 C 1812.61 -0.629439 1.57272 0
M  V30 19020 O 1813.82 -0.521091 1.72292 0
M  V30 19021 H 1810.2 0.0550728 0.749981 0
M  V30 19022 H 1812.17 1.0604 2.78923 0
M  V30 19023 C 1810.92 -0.597495 3.42528 0
M  V30 19024 H 1810.24 0.0531749 3.99765 0
M  V30 19025 H 1811.68 -0.977765 4.12572 0
M  V30 19026 C 1810.14 -1.76868 2.86739 0
M  V30 19027 O 1810.67 -2.86674 2.81391 0
M  V30 19028 N 1808.87 -1.58453 2.436 0
M  V30 19029 H 1808.42 -0.691318 2.4815 0
M  V30 19030 H 1808.38 -2.36969 2.06624 0
M  V30 19031 N 1812.15 -1.46743 0.574835 0
M  V30 19032 C 1813.38 -2.06505 0.0627081 0
M  V30 19033 C 1813.79 -1.42535 -1.2442 0
M  V30 19034 O 1813.13 -0.522043 -1.76126 0
M  V30 19035 C 1813.19 -3.59021 -0.185574 0
M  V30 19036 C 1812.86 -4.45136 1.03455 0
M  V30 19037 C 1813.85 -4.82163 1.94461 0
M  V30 19038 C 1811.54 -4.8639 1.25418 0
M  V30 19039 C 1813.53 -5.59262 3.05786 0
M  V30 19040 C 1811.22 -5.63251 2.37049 0
M  V30 19041 C 1812.22 -5.99599 3.27062 0
M  V30 19042 O 1811.91 -6.74908 4.36755 0
M  V30 19043 H 1811.64 -0.674082 0.0508932 0
M  V30 19044 H 1814.19 -1.89476 0.792968 0
M  V30 19045 H 1812.42 -3.74327 -0.970354 0
M  V30 19046 H 1814.11 -4.00739 -0.645242 0
M  V30 19047 H 1814.88 -4.50876 1.78705 0
M  V30 19048 H 1810.76 -4.57553 0.56266 0
M  V30 19049 H 1814.3 -5.87552 3.7607 0
M  V30 19050 H 1810.2 -5.93951 2.5277 0
M  V30 19051 H 1810.97 -6.93323 4.35024 0
M  V30 19052 N 1813.63 -0.312197 -1.54477 0
M  V30 19053 C 1814.88 0.294607 -1.99537 0
M  V30 19054 C 1815.19 1.54137 -1.20421 0
M  V30 19055 O 1816.4 2.22346 -1.55803 0
M  V30 19056 C 1814.85 0.57547 -3.55269 0
M  V30 19057 C 1814.46 -0.653591 -4.43207 0
M  V30 19058 C 1816.2 1.14285 -4.08827 0
M  V30 19059 C 1814.11 -0.345261 -5.90391 0
M  V30 19060 H 1813.04 0.113859 -0.745354 0
M  V30 19061 H 1815.69 -0.42265 -1.78566 0
M  V30 19062 H 1814.07 1.35262 -3.72183 0
M  V30 19063 H 1815.25 -1.42945 -4.38068 0
M  V30 19064 H 1813.56 -1.14039 -4.0048 0
M  V30 19065 H 1816.16 1.38797 -5.16371 0
M  V30 19066 H 1816.5 2.08866 -3.60112 0
M  V30 19067 H 1817.04 0.427154 -3.955 0
M  V30 19068 H 1813.78 -1.25994 -6.43277 0
M  V30 19069 H 1813.3 0.393106 -5.9851 0
M  V30 19070 H 1814.97 0.0490847 -6.46981 0
M  V30 19071 N 1815.11 1.57549 -0.040136 0
M  V30 19072 C 1816.04 2.07803 0.966975 0
M  V30 19073 C 1817.05 1.00363 1.28184 0
M  V30 19074 O 1818.24 1.27957 1.24456 0
M  V30 19075 C 1815.34 2.49688 2.29149 0
M  V30 19076 C 1814.51 3.80336 2.16017 0
M  V30 19077 C 1813.57 4.08652 3.31497 0
M  V30 19078 O 1812.6 4.78739 3.07892 0
M  V30 19079 N 1813.8 3.59693 4.55633 0
M  V30 19080 H 1816.57 2.94829 0.538115 0
M  V30 19081 H 1814.13 1.61237 0.146368 0
M  V30 19082 H 1816.12 2.65715 3.0525 0
M  V30 19083 H 1814.69 1.67969 2.63638 0
M  V30 19084 H 1813.91 3.73998 1.24575 0
M  V30 19085 H 1815.2 4.65912 2.04458 0
M  V30 19086 H 1814.59 3.03012 4.77703 0
M  V30 19087 H 1813.15 3.80978 5.28866 0
M  V30 19088 N 1816.58 -0.233136 1.55866 0
M  V30 19089 C 1817.83 -0.959219 1.7834 0
M  V30 19090 C 1818.16 -1.84789 0.606886 0
M  V30 19091 O 1817.41 -1.91373 -0.409253 0
M  V30 19092 C 1817.71 -1.83897 3.06458 0
M  V30 19093 C 1817.38 -1.1045 4.37163 0
M  V30 19094 C 1816.04 -0.901577 4.72679 0
M  V30 19095 C 1818.39 -0.584979 5.17907 0
M  V30 19096 C 1815.72 -0.167034 5.86462 0
M  V30 19097 C 1818.07 0.136163 6.32453 0
M  V30 19098 C 1816.74 0.35045 6.66579 0
M  V30 19099 H 1816.01 -0.351003 0.652593 0
M  V30 19100 H 1818.65 -0.228249 1.90135 0
M  V30 19101 H 1816.96 -2.63744 2.89735 0
M  V30 19102 H 1818.66 -2.4027 3.21047 0
M  V30 19103 H 1815.25 -1.27263 4.0927 0
M  V30 19104 H 1819.43 -0.729263 4.90913 0
M  V30 19105 H 1814.69 0.00933042 6.11399 0
M  V30 19106 H 1818.86 0.546294 6.94254 0
M  V30 19107 H 1816.49 0.921569 7.54593 0
M  V30 19108 N 1818.06 -1.49479 -0.499372 0
M  V30 19109 C 1819.01 -1.66268 -1.60073 0
M  V30 19110 C 1819.98 -0.504137 -1.58265 0
M  V30 19111 O 1821.17 -0.731358 -1.76227 0
M  V30 19112 C 1818.31 -1.73678 -2.98211 0
M  V30 19113 C 1817.42 -3.00848 -3.10023 0
M  V30 19114 C 1816.55 -2.99227 -4.38904 0
M  V30 19115 C 1815.59 -4.20969 -4.44355 0
M  V30 19116 N 1814.73 -4.17249 -5.64666 0
M  V30 19117 H 1819.57 -2.60308 -1.45065 0
M  V30 19118 H 1817.11 -1.29063 -0.705774 0
M  V30 19119 H 1819.06 -1.75956 -3.7828 0
M  V30 19120 H 1817.69 -0.831037 -3.11919 0
M  V30 19121 H 1816.75 -3.08175 -2.23008 0
M  V30 19122 H 1818.06 -3.90841 -3.09911 0
M  V30 19123 H 1817.21 -3.00076 -5.27294 0
M  V30 19124 H 1815.95 -2.07015 -4.41584 0
M  V30 19125 H 1814.96 -4.20362 -3.54366 0
M  V30 19126 H 1816.18 -5.14376 -4.4339 0
M  V30 19127 H 1814.13 -3.27875 -5.68185 0
M  V30 19128 H 1814.04 -5.00979 -5.66177 0
M  V30 19129 H 1815.31 -4.22203 -6.55259 0
M  V30 19130 N 1819.54 0.750537 -1.38581 0
M  V30 19131 C 1820.77 1.54489 -1.38376 0
M  V30 19132 C 1821.19 1.88085 0.023634 0
M  V30 19133 O 1820.55 1.50794 1.00652 0
M  V30 19134 C 1820.6 2.81875 -2.24897 0
M  V30 19135 O 1819.7 3.77155 -1.66817 0
M  V30 19136 H 1819.04 0.467148 -0.471878 0
M  V30 19137 H 1821.57 0.927264 -1.82381 0
M  V30 19138 H 1821.58 3.30769 -2.38864 0
M  V30 19139 H 1820.26 2.56753 -3.27186 0
M  V30 19140 H 1818.83 3.35868 -1.62009 0
M  V30 19141 N 1821.02 1.235 0.979051 0
M  V30 19142 C 1821.97 1.01737 2.07167 0
M  V30 19143 C 1822.94 -0.0656067 1.6597 0
M  V30 19144 O 1824.12 0.0867676 1.90603 0
M  V30 19145 C 1821.26 0.616104 3.39556 0
M  V30 19146 C 1820.37 1.77135 3.94014 0
M  V30 19147 C 1819.51 1.31674 5.14622 0
M  V30 19148 C 1818.55 2.44265 5.6125 0
M  V30 19149 N 1817.69 1.99752 6.73085 0
M  V30 19150 H 1822.53 1.9526 2.25117 0
M  V30 19151 H 1820.06 0.972707 1.10349 0
M  V30 19152 H 1822.02 0.364549 4.15604 0
M  V30 19153 H 1820.65 -0.282117 3.21565 0
M  V30 19154 H 1819.7 2.13687 3.14709 0
M  V30 19155 H 1821.01 2.61775 4.24588 0
M  V30 19156 H 1820.17 1.02339 5.98006 0
M  V30 19157 H 1818.91 0.440724 4.85705 0
M  V30 19158 H 1817.91 2.74373 4.76445 0
M  V30 19159 H 1819.14 3.32405 5.92186 0
M  V30 19160 H 1817.08 1.14532 6.45924 0
M  V30 19161 H 1817 2.77951 7.0305 0
M  V30 19162 H 1818.27 1.73525 7.5994 0
M  V30 19163 N 1822.5 -1.17802 1.04693 0
M  V30 19164 C 1823.74 -1.89625 0.762995 0
M  V30 19165 C 1824.1 -1.78906 -0.696901 0
M  V30 19166 O 1825.3 -2.45498 -1.09472 0
M  V30 19167 C 1823.57 -3.35787 1.224 0
M  V30 19168 S 1825.13 -4.25638 1.06667 0
M  V30 19169 H 1821.95 -0.654723 0.277235 0
M  V30 19170 H 1824.55 -1.42304 1.34052 0
M  V30 19171 H 1823.26 -3.41121 2.28176 0
M  V30 19172 H 1822.79 -3.8815 0.640532 0
M  V30 19173 H 1824.8 -4.96199 -0.0121683 0
M  V30 19174 N 1823.98 -0.827251 -1.34143 0
M  V30 19175 C 1825.39 -0.513554 -1.51112 0
M  V30 19176 C 1825.59 0.961434 -1.77084 0
M  V30 19177 O 1824.65 1.74573 -1.82429 0
M  V30 19178 C 1825.96 -1.37683 -2.67327 0
M  V30 19179 C 1827.51 -1.3744 -2.8121 0
M  V30 19180 C 1827.98 -2.22226 -4.00474 0
M  V30 19181 N 1829.47 -2.19873 -4.07689 0
M  V30 19182 C 1830.21 -2.82222 -4.99138 0
M  V30 19183 N 1829.71 -3.53578 -5.95781 0
M  V30 19184 N 1831.5 -2.71753 -4.92043 0
M  V30 19185 H 1823.65 -1.78222 -1.15545 0
M  V30 19186 H 1825.91 -0.759711 -0.567047 0
M  V30 19187 H 1825.62 -2.42448 -2.54778 0
M  V30 19188 H 1825.49 -1.0446 -3.62447 0
M  V30 19189 H 1827.88 -0.334525 -2.93198 0
M  V30 19190 H 1827.96 -1.74663 -1.86886 0
M  V30 19191 H 1827.6 -3.26266 -3.89246 0
M  V30 19192 H 1827.53 -1.82352 -4.9402 0
M  V30 19193 H 1830.03 -1.67972 -3.38517 0
M  V30 19194 H 1830.34 -3.98387 -6.62199 0
M  V30 19195 H 1828.68 -3.57685 -5.95892 0
M  V30 19196 H 1831.87 -2.15579 -4.15504 0
M  V30 19197 H 1832.05 -3.2063 -5.63117 0
M  V30 19198 N 1825.45 1.46436 -0.582609 0
M  V30 19199 C 1826.7 2.01592 -0.0658642 0
M  V30 19200 C 1827.02 1.45972 1.30198 0
M  V30 19201 O 1828.22 1.92948 1.91006 0
M  V30 19202 C 1826.68 3.59837 -0.0671547 0
M  V30 19203 C 1826.29 4.24453 -1.43331 0
M  V30 19204 C 1828.03 4.22652 0.395652 0
M  V30 19205 C 1825.94 5.74777 -1.39233 0
M  V30 19206 H 1824.87 0.753712 -0.0208533 0
M  V30 19207 H 1827.52 1.6817 -0.734241 0
M  V30 19208 H 1825.9 3.90336 0.667385 0
M  V30 19209 H 1827.07 4.05564 -2.18757 0
M  V30 19210 H 1825.39 3.73732 -1.83613 0
M  V30 19211 H 1827.99 5.32844 0.445101 0
M  V30 19212 H 1828.33 3.91581 1.41316 0
M  V30 19213 H 1828.86 3.96779 -0.284821 0
M  V30 19214 H 1825.6 6.10508 -2.38664 0
M  V30 19215 H 1825.12 5.9593 -0.680268 0
M  V30 19216 H 1826.8 6.37491 -1.1052 0
M  V30 19217 N 1826.93 0.320385 1.54309 0
M  V30 19218 C 1827.84 -0.556017 2.27916 0
M  V30 19219 C 1828.86 -1.13192 1.32149 0
M  V30 19220 O 1830.03 -1.15257 1.6516 0
M  V30 19221 C 1827.1 -1.70244 3.02023 0
M  V30 19222 C 1826.16 -1.15866 4.13369 0
M  V30 19223 C 1825.39 -2.25044 4.83933 0
M  V30 19224 O 1825.62 -3.45327 4.53988 0
M  V30 19225 O 1824.55 -1.90642 5.70911 0
M  V30 19226 H 1828.38 0.0416563 3.03671 0
M  V30 19227 H 1825.96 0.0861809 1.49151 0
M  V30 19228 H 1827.84 -2.36995 3.48442 0
M  V30 19229 H 1826.52 -2.28635 2.29146 0
M  V30 19230 H 1825.42 -0.456323 3.71306 0
M  V30 19231 H 1826.76 -0.619916 4.88281 0
M  V30 19232 N 1828.41 -1.57525 0.0484906 0
M  V30 19233 C 1829.82 -1.80221 -0.487592 0
M  V30 19234 C 1830.17 -0.96049 -1.71082 0
M  V30 19235 O 1829.3 -0.17632 -2.1568 0
M  V30 19236 C 1829.89 -3.26864 -0.89136 0
M  V30 19237 C 1828.45 -3.50487 -1.37244 0
M  V30 19238 C 1827.6 -2.75129 -0.346348 0
M  V30 19239 H 1830.55 -1.5631 0.274392 0
M  V30 19240 H 1830.57 -3.37637 -1.75446 0
M  V30 19241 H 1830.08 -3.881 -0.000880924 0
M  V30 19242 H 1828.18 -2.94528 -2.2822 0
M  V30 19243 H 1828.3 -4.592 -1.36645 0
M  V30 19244 H 1826.66 -2.41185 -0.818653 0
M  V30 19245 H 1827.44 -3.3909 0.536 0
M  V30 19246 N 1829.89 0.224867 -1.55988 0
M  V30 19247 C 1831.13 0.951154 -1.79111 0
M  V30 19248 C 1831.47 1.84119 -0.617568 0
M  V30 19249 O 1830.74 1.90686 0.383312 0
M  V30 19250 C 1831.02 1.79292 -3.12292 0
M  V30 19251 C 1830.88 0.929603 -4.40089 0
M  V30 19252 C 1832.2 2.77132 -3.41886 0
M  V30 19253 H 1829.32 0.344359 -0.651603 0
M  V30 19254 H 1831.96 0.220228 -1.88719 0
M  V30 19255 H 1830.11 2.41609 -3.04232 0
M  V30 19256 H 1831.78 0.323432 -4.60165 0
M  V30 19257 H 1830.02 0.234877 -4.33164 0
M  V30 19258 H 1830.69 1.55289 -5.29707 0
M  V30 19259 H 1833.17 2.24951 -3.50052 0
M  V30 19260 H 1832.05 3.33135 -4.36248 0
M  V30 19261 H 1832.31 3.54705 -2.63887 0
M  V30 19262 N 1831.37 1.49742 0.491438 0
M  V30 19263 C 1832.61 1.61335 1.25501 0
M  V30 19264 C 1832.97 0.297703 1.89678 0
M  V30 19265 O 1834.17 0.28889 2.67243 0
M  V30 19266 C 1832.44 2.74705 2.28631 0
M  V30 19267 S 1834 3.06308 3.14199 0
M  V30 19268 H 1830.82 0.568965 0.42638 0
M  V30 19269 H 1833.42 1.87442 0.555503 0
M  V30 19270 H 1832.12 3.68806 1.80029 0
M  V30 19271 H 1831.66 2.50621 3.03237 0
M  V30 19272 H 1833.67 2.48565 4.29453 0
M  V30 19273 N 1832.84 -0.743177 1.38977 0
M  V30 19274 C 1833.77 -1.87047 1.3977 0
M  V30 19275 C 1834.76 -1.68068 0.262161 0
M  V30 19276 O 1835.94 -1.88507 0.466782 0
M  V30 19277 C 1833.07 -3.24701 1.23234 0
M  V30 19278 C 1832.02 -3.58302 2.34102 0
M  V30 19279 C 1831.35 -4.94805 2.02663 0
M  V30 19280 C 1832.65 -3.62111 3.76395 0
M  V30 19281 H 1834.34 -1.8664 2.34107 0
M  V30 19282 H 1831.89 -0.896541 1.12686 0
M  V30 19283 H 1833.84 -4.03228 1.22412 0
M  V30 19284 H 1832.57 -3.25614 0.253638 0
M  V30 19285 H 1831.23 -2.82099 2.34128 0
M  V30 19286 H 1830.87 -4.92289 1.0325 0
M  V30 19287 H 1830.57 -5.18254 2.76922 0
M  V30 19288 H 1832.1 -5.75699 2.03477 0
M  V30 19289 H 1833.51 -4.30731 3.78343 0
M  V30 19290 H 1831.91 -3.97075 4.49946 0
M  V30 19291 H 1832.98 -2.62099 4.07961 0
M  V30 19292 N 1834.32 -1.24018 -0.972487 0
M  V30 19293 C 1835.25 -1.0529 -2.08414 0
M  V30 19294 C 1836.23 0.0326663 -1.70069 0
M  V30 19295 O 1837.42 -0.133494 -1.93741 0
M  V30 19296 C 1834.55 -0.651796 -3.41129 0
M  V30 19297 C 1833.5 -1.68559 -3.9341 0
M  V30 19298 C 1832.83 -1.1397 -5.22413 0
M  V30 19299 C 1834.13 -3.08046 -4.21788 0
M  V30 19300 H 1835.82 -1.98272 -2.2434 0
M  V30 19301 H 1833.37 -0.954694 -1.07804 0
M  V30 19302 H 1835.32 -0.507792 -4.18329 0
M  V30 19303 H 1834.05 0.313722 -3.2509 0
M  V30 19304 H 1832.7 -1.81773 -3.18362 0
M  V30 19305 H 1832.35 -0.164928 -5.0273 0
M  V30 19306 H 1832.05 -1.83051 -5.5836 0
M  V30 19307 H 1833.58 -1.00771 -6.02227 0
M  V30 19308 H 1834.99 -2.98088 -4.8971 0
M  V30 19309 H 1833.39 -3.74436 -4.68954 0
M  V30 19310 H 1834.46 -3.56444 -3.28749 0
M  V30 19311 N 1835.8 1.17245 -1.05316 0
M  V30 19312 C 1836.73 2.23491 -0.67631 0
M  V30 19313 C 1837.71 1.66937 0.326507 0
M  V30 19314 O 1838.9 1.93127 0.203823 0
M  V30 19315 C 1836.03 3.47262 -0.0515755 0
M  V30 19316 C 1834.98 4.16646 -0.97929 0
M  V30 19317 C 1834.31 5.34254 -0.218369 0
M  V30 19318 C 1835.61 4.68736 -2.30399 0
M  V30 19319 H 1837.3 2.55269 -1.56455 0
M  V30 19320 H 1834.85 1.22699 -0.753714 0
M  V30 19321 H 1836.8 4.20805 0.223865 0
M  V30 19322 H 1835.52 3.14755 0.871614 0
M  V30 19323 H 1834.18 3.45017 -1.23931 0
M  V30 19324 H 1833.83 4.97998 0.707624 0
M  V30 19325 H 1833.53 5.81615 -0.83654 0
M  V30 19326 H 1835.05 6.1058 0.0497574 0
M  V30 19327 H 1836.47 5.3391 -2.08837 0
M  V30 19328 H 1834.87 5.2668 -2.87625 0
M  V30 19329 H 1835.94 3.85477 -2.94169 0
M  V30 19330 N 1837.28 0.834353 1.33702 0
M  V30 19331 C 1838.23 0.236483 2.2677 0
M  V30 19332 C 1839.21 -0.605904 1.49056 0
M  V30 19333 O 1840.4 -0.458611 1.70955 0
M  V30 19334 C 1837.53 -0.591264 3.3817 0
M  V30 19335 C 1836.62 0.262381 4.23288 0
M  V30 19336 N 1837.01 1.33892 4.87757 0
M  V30 19337 C 1835.31 0.0486456 4.45973 0
M  V30 19338 C 1836.01 1.86242 5.5108 0
M  V30 19339 N 1834.99 1.16457 5.30979 0
M  V30 19340 H 1838.79 1.05979 2.74127 0
M  V30 19341 H 1836.3 0.678337 1.47555 0
M  V30 19342 H 1838.3 -1.03584 4.03827 0
M  V30 19343 H 1836.96 -1.4126 2.92362 0
M  V30 19344 H 1837.97 1.72179 4.88441 0
M  V30 19345 H 1834.65 -0.739613 4.10897 0
M  V30 19346 H 1836.04 2.76369 6.12429 0
M  V30 19347 N 1838.76 -1.46125 0.590367 0
M  V30 19348 C 1840 -2.01947 0.0787256 0
M  V30 19349 C 1840.33 -1.4634 -1.28878 0
M  V30 19350 O 1839.6 -0.651011 -1.84767 0
M  V30 19351 H 1838.18 -0.746543 0.0261125 0
M  V30 19352 H 1840.84 -1.79136 0.767877 0
M  V30 19353 H 1839.93 -3.12096 0.0154914 0
M  V30 19354 N 1840.23 -0.328564 -1.54137 0
M  V30 19355 C 1841.46 0.277044 -2.05541 0
M  V30 19356 C 1841.88 1.44613 -1.20285 0
M  V30 19357 O 1841.24 1.80043 -0.213107 0
M  V30 19358 C 1841.29 0.684495 -3.54044 0
M  V30 19359 O 1840.39 1.78629 -3.71706 0
M  V30 19360 H 1839.74 0.049078 -0.662184 0
M  V30 19361 H 1842.27 -0.478426 -1.98928 0
M  V30 19362 H 1842.28 0.965784 -3.96405 0
M  V30 19363 H 1840.95 -0.170554 -4.1555 0
M  V30 19364 H 1839.53 1.50343 -3.4125 0
M  V30 19365 N 1841.71 1.57497 -0.0568439 0
M  V30 19366 C 1843.12 1.80477 0.478027 0
M  V30 19367 C 1843.47 0.969549 1.7057 0
M  V30 19368 O 1842.6 0.187756 2.15584 0
M  V30 19369 C 1843.19 3.27332 0.874013 0
M  V30 19370 C 1841.75 3.5121 1.35383 0
M  V30 19371 C 1840.9 2.75308 0.331752 0
M  V30 19372 H 1843.85 1.56162 -0.282678 0
M  V30 19373 H 1843.87 3.38563 1.73653 0
M  V30 19374 H 1843.38 3.88095 -0.019701 0
M  V30 19375 H 1841.49 2.95734 2.26655 0
M  V30 19376 H 1841.6 4.59919 1.34208 0
M  V30 19377 H 1839.96 2.41616 0.805851 0
M  V30 19378 H 1840.75 3.38801 -0.553975 0
M  V30 19379 N 1843.19 -0.216591 1.56105 0
M  V30 19380 C 1844.44 -0.938392 1.78993 0
M  V30 19381 C 1844.76 -1.84671 0.626215 0
M  V30 19382 O 1844.03 -1.92626 -0.356636 0
M  V30 19383 H 1842.61 -0.349491 0.660201 0
M  V30 19384 H 1845.27 -0.227256 1.93571 0
M  V30 19385 H 1844.37 -1.54227 2.71331 0
M  V30 19386 N 1844.67 -1.5 -0.48349 0
M  V30 19387 C 1845.63 -1.6742 -1.56535 0
M  V30 19388 C 1846.63 -0.545311 -1.51271 0
M  V30 19389 O 1847.82 -0.812112 -1.54112 0
M  V30 19390 C 1844.95 -1.6879 -2.9618 0
M  V30 19391 H 1846.15 -2.6393 -1.42412 0
M  V30 19392 H 1843.7 -1.39295 -0.708991 0
M  V30 19393 H 1844.43 -0.739285 -3.15761 0
M  V30 19394 H 1844.22 -2.50789 -3.01408 0
M  V30 19395 H 1845.71 -1.84264 -3.74749 0
M  V30 19396 N 1846.15 0.735796 -1.39369 0
M  V30 19397 C 1847.39 1.49239 -1.3628 0
M  V30 19398 C 1847.72 1.94957 0.0408659 0
M  V30 19399 O 1846.99 1.68929 0.991959 0
M  V30 19400 H 1845.57 0.553626 -0.501506 0
M  V30 19401 H 1848.23 0.873549 -1.74227 0
M  V30 19402 H 1847.32 2.37488 -2.02499 0
M  V30 19403 N 1847.63 1.24532 0.965897 0
M  V30 19404 C 1848.57 1.03929 2.06076 0
M  V30 19405 C 1849.54 -0.0479997 1.66031 0
M  V30 19406 O 1850.73 0.106979 1.905 0
M  V30 19407 C 1847.87 0.652084 3.38883 0
M  V30 19408 C 1846.98 1.81304 3.92113 0
M  V30 19409 C 1846.12 1.37125 5.13196 0
M  V30 19410 C 1845.15 2.50204 5.58627 0
M  V30 19411 N 1844.29 2.0688 6.70929 0
M  V30 19412 H 1849.13 1.97636 2.23033 0
M  V30 19413 H 1846.67 0.984356 1.09311 0
M  V30 19414 H 1848.63 0.408608 4.15194 0
M  V30 19415 H 1847.26 -0.247995 3.21846 0
M  V30 19416 H 1846.31 2.17013 3.12425 0
M  V30 19417 H 1847.62 2.66264 4.21788 0
M  V30 19418 H 1846.77 1.08676 5.96887 0
M  V30 19419 H 1845.51 0.492215 4.8521 0
M  V30 19420 H 1844.52 2.7941 4.73508 0
M  V30 19421 H 1845.74 3.38667 5.88627 0
M  V30 19422 H 1843.69 1.21377 6.44673 0
M  V30 19423 H 1843.61 2.85392 7.00062 0
M  V30 19424 H 1844.87 1.81575 7.58057 0
M  V30 19425 N 1849.1 -1.16685 1.05936 0
M  V30 19426 C 1850.33 -1.91576 0.794558 0
M  V30 19427 C 1850.75 -1.76706 -0.644718 0
M  V30 19428 O 1850.11 -1.0899 -1.44882 0
M  V30 19429 C 1850.16 -3.40417 1.18947 0
M  V30 19430 O 1849.26 -4.11109 0.326091 0
M  V30 19431 H 1848.6 -0.596983 0.290702 0
M  V30 19432 H 1851.13 -1.47856 1.4142 0
M  V30 19433 H 1851.14 -3.91178 1.15947 0
M  V30 19434 H 1849.82 -3.5056 2.23786 0
M  V30 19435 H 1848.4 -3.70557 0.417347 0
M  V30 19436 N 1850.58 -0.841432 -1.33258 0
M  V30 19437 C 1851.83 -0.439027 -1.97991 0
M  V30 19438 C 1852.16 0.999767 -1.66488 0
M  V30 19439 O 1851.44 1.69938 -0.94612 0
M  V30 19440 C 1851.72 -0.663137 -3.53941 0
M  V30 19441 C 1851.57 -2.14939 -3.95122 0
M  V30 19442 C 1852.89 -0.11094 -4.3996 0
M  V30 19443 H 1850.01 -0.160987 -0.719203 0
M  V30 19444 H 1852.65 -1.05742 -1.57856 0
M  V30 19445 H 1850.8 -0.136765 -3.88259 0
M  V30 19446 H 1852.47 -2.74082 -3.71048 0
M  V30 19447 H 1850.72 -2.63293 -3.4476 0
M  V30 19448 H 1851.39 -2.25694 -5.03752 0
M  V30 19449 H 1853.86 -0.560898 -4.12302 0
M  V30 19450 H 1852.74 -0.297416 -5.48094 0
M  V30 19451 H 1853 0.985446 -4.30977 0
M  V30 19452 N 1852.06 1.4581 -0.598108 0
M  V30 19453 C 1853.02 2.28905 0.11623 0
M  V30 19454 C 1854.02 1.39246 0.804187 0
M  V30 19455 O 1855.21 1.61466 0.653793 0
M  V30 19456 C 1852.34 3.20029 1.17449 0
M  V30 19457 H 1853.54 2.93543 -0.614217 0
M  V30 19458 H 1851.09 1.52175 -0.356735 0
M  V30 19459 H 1851.83 2.60171 1.93601 0
M  V30 19460 H 1851.61 3.86061 0.685508 0
M  V30 19461 H 1853.1 3.82533 1.67505 0
M  V30 19462 N 1853.54 0.336733 1.53961 0
M  V30 19463 C 1854.77 -0.263446 2.05216 0
M  V30 19464 C 1855.18 -1.44752 1.21212 0
M  V30 19465 O 1854.54 -1.80837 0.245844 0
M  V30 19466 C 1854.59 -0.685127 3.54948 0
M  V30 19467 O 1854.31 0.451854 4.35764 0
M  V30 19468 C 1855.81 -1.34674 4.22348 0
M  V30 19469 H 1853.03 -0.0520687 0.668977 0
M  V30 19470 H 1855.57 0.486744 1.98623 0
M  V30 19471 H 1853.73 -1.38527 3.61786 0
M  V30 19472 H 1854.14 0.117076 5.24369 0
M  V30 19473 H 1855.62 -1.59261 5.28526 0
M  V30 19474 H 1856.09 -2.29818 3.74273 0
M  V30 19475 H 1856.7 -0.688817 4.19685 0
M  V30 19476 N 1855.02 -1.57465 0.0651956 0
M  V30 19477 C 1855.96 -2.13542 -0.922087 0
M  V30 19478 C 1856.96 -1.07067 -1.31275 0
M  V30 19479 O 1858.16 -1.25456 -1.29076 0
M  V30 19480 H 1854.54 -0.682718 -0.315277 0
M  V30 19481 H 1856.51 -2.9537 -0.424138 0
M  V30 19482 C 1855.26 -2.70663 -2.18258 0
M  V30 19483 H 1854.58 -3.52262 -1.8908 0
M  V30 19484 H 1856.02 -3.13505 -2.85466 0
M  V30 19485 C 1854.48 -1.65106 -2.93669 0
M  V30 19486 O 1855.01 -1.07214 -3.87128 0
M  V30 19487 N 1853.22 -1.36296 -2.56655 0
M  V30 19488 H 1852.76 -1.83562 -1.80728 0
M  V30 19489 H 1852.72 -0.659013 -3.07416 0
M  V30 19490 N 1856.49 0.20831 -1.56217 0
M  V30 19491 C 1857.42 1.26115 -1.96513 0
M  V30 19492 C 1858.4 1.48185 -0.835183 0
M  V30 19493 O 1859.59 1.60145 -1.09851 0
M  V30 19494 C 1856.72 2.6082 -2.29326 0
M  V30 19495 C 1855.67 2.53385 -3.44935 0
M  V30 19496 C 1855 3.92241 -3.63388 0
M  V30 19497 C 1856.3 2.07026 -4.79518 0
M  V30 19498 H 1857.99 0.92635 -2.84709 0
M  V30 19499 H 1855.54 0.444169 -1.36979 0
M  V30 19500 H 1857.49 3.34644 -2.56109 0
M  V30 19501 H 1856.22 2.96014 -1.37997 0
M  V30 19502 H 1854.88 1.82018 -3.18222 0
M  V30 19503 H 1854.52 4.24766 -2.69413 0
M  V30 19504 H 1854.22 3.88145 -4.41154 0
M  V30 19505 H 1855.75 4.67707 -3.92533 0
M  V30 19506 H 1857.16 2.70601 -5.05419 0
M  V30 19507 H 1855.56 2.13961 -5.60661 0
M  V30 19508 H 1856.63 1.02298 -4.73986 0
M  V30 19509 N 1857.97 1.50255 0.475528 0
M  V30 19510 C 1859.22 1.60263 1.22468 0
M  V30 19511 C 1859.53 0.306389 1.93185 0
M  V30 19512 O 1860.74 0.285331 2.69997 0
M  V30 19513 C 1859.2 2.82876 2.22506 0
M  V30 19514 C 1858.8 4.19359 1.57612 0
M  V30 19515 C 1860.55 3.02228 2.98091 0
M  V30 19516 C 1858.45 5.33164 2.55911 0
M  V30 19517 H 1857.38 0.596804 0.460804 0
M  V30 19518 H 1860.04 1.76679 0.495653 0
M  V30 19519 H 1858.42 2.6001 2.98682 0
M  V30 19520 H 1859.59 4.52463 0.872559 0
M  V30 19521 H 1857.91 4.05576 0.943247 0
M  V30 19522 H 1860.5 3.84422 3.7165 0
M  V30 19523 H 1860.85 2.13781 3.57216 0
M  V30 19524 H 1861.38 3.25255 2.29029 0
M  V30 19525 H 1858.12 6.23751 2.01531 0
M  V30 19526 H 1857.64 5.04484 3.24432 0
M  V30 19527 H 1859.32 5.63554 3.17829 0
M  V30 19528 N 1859.45 -0.728395 1.39758 0
M  V30 19529 C 1860.7 -1.48514 1.37069 0
M  V30 19530 C 1861.02 -1.94976 -0.0305263 0
M  V30 19531 O 1860.29 -1.69453 -0.982987 0
M  V30 19532 H 1858.87 -0.550958 0.504434 0
M  V30 19533 H 1861.53 -0.864297 1.74688 0
M  V30 19534 H 1860.63 -2.36411 2.03755 0
M  V30 19535 N 1860.93 -1.25042 -0.959279 0
M  V30 19536 C 1862.34 -1.01764 -1.22948 0
M  V30 19537 C 1862.54 0.268402 -1.99704 0
M  V30 19538 O 1861.6 0.982348 -2.32607 0
M  V30 19539 C 1862.91 -2.23794 -2.0084 0
M  V30 19540 C 1864.46 -2.28507 -2.13901 0
M  V30 19541 C 1864.94 -3.50181 -2.9519 0
M  V30 19542 N 1866.43 -3.50549 -3.0277 0
M  V30 19543 C 1867.16 -4.41357 -3.66049 0
M  V30 19544 N 1866.66 -5.42431 -4.30976 0
M  V30 19545 N 1868.45 -4.29049 -3.63143 0
M  V30 19546 H 1860.6 -2.07672 -0.445667 0
M  V30 19547 H 1862.86 -0.91176 -0.259611 0
M  V30 19548 H 1862.57 -3.17237 -1.51835 0
M  V30 19549 H 1862.44 -2.26592 -3.01556 0
M  V30 19550 H 1864.83 -1.3559 -2.62105 0
M  V30 19551 H 1864.91 -2.29731 -1.12505 0
M  V30 19552 H 1864.56 -4.43417 -2.47677 0
M  V30 19553 H 1864.49 -3.46202 -3.96802 0
M  V30 19554 H 1866.98 -2.77432 -2.56593 0
M  V30 19555 H 1867.29 -6.07941 -4.77104 0
M  V30 19556 H 1865.64 -5.46308 -4.29619 0
M  V30 19557 H 1868.83 -3.49317 -3.11601 0
M  V30 19558 H 1869 -5.00017 -4.12174 0
M  V30 19559 N 1862.41 1.16121 -1.06553 0
M  V30 19560 C 1863.63 1.91152 -0.804706 0
M  V30 19561 C 1864.06 1.77045 0.635338 0
M  V30 19562 O 1863.41 1.09757 1.44302 0
M  V30 19563 C 1863.46 3.39782 -1.20751 0
M  V30 19564 O 1862.57 4.1093 -0.347889 0
M  V30 19565 H 1861.91 0.595433 -0.293863 0
M  V30 19566 H 1864.44 1.47104 -1.42203 0
M  V30 19567 H 1864.45 3.90558 -1.1802 0
M  V30 19568 H 1863.12 3.49369 -2.25642 0
M  V30 19569 H 1861.7 3.70331 -0.436993 0
M  V30 19570 N 1863.88 0.848487 1.3281 0
M  V30 19571 C 1864.81 0.303885 2.31514 0
M  V30 19572 C 1865.8 -0.593621 1.59406 0
M  V30 19573 O 1866.98 -0.515158 1.87243 0
M  V30 19574 C 1864.11 -0.5138 3.43478 0
M  V30 19575 C 1863.06 0.28874 4.27025 0
M  V30 19576 C 1862.39 -0.653297 5.30694 0
M  V30 19577 C 1863.69 1.51111 4.99963 0
M  V30 19578 H 1865.38 1.12862 2.77313 0
M  V30 19579 H 1862.93 0.544158 1.33323 0
M  V30 19580 H 1864.88 -0.905164 4.11564 0
M  V30 19581 H 1863.61 -1.37184 2.96392 0
M  V30 19582 H 1862.27 0.661782 3.60577 0
M  V30 19583 H 1861.91 -1.50801 4.79863 0
M  V30 19584 H 1861.61 -0.120368 5.87477 0
M  V30 19585 H 1863.14 -1.04197 6.01644 0
M  V30 19586 H 1864.55 1.19237 5.60763 0
M  V30 19587 H 1862.95 1.98152 5.66441 0
M  V30 19588 H 1864.02 2.2757 4.28182 0
M  V30 19589 N 1865.36 -1.4549 0.605832 0
M  V30 19590 C 1866.33 -2.28964 -0.104089 0
M  V30 19591 C 1867.33 -1.39671 -0.796791 0
M  V30 19592 O 1868.52 -1.6181 -0.645221 0
M  V30 19593 C 1865.65 -3.20647 -1.1575 0
M  V30 19594 H 1866.84 -2.93213 0.629776 0
M  V30 19595 H 1864.39 -1.51983 0.3648 0
M  V30 19596 H 1865.13 -2.61194 -1.92219 0
M  V30 19597 H 1864.91 -3.86419 -0.665025 0
M  V30 19598 H 1866.4 -3.83416 -1.65474 0
M  V30 19599 N 1866.84 -0.344893 -1.5378 0
M  V30 19600 C 1867.75 0.519687 -2.28772 0
M  V30 19601 C 1868.77 1.11076 -1.33934 0
M  V30 19602 O 1869.94 1.12615 -1.66972 0
M  V30 19603 C 1867.01 1.65417 -3.04693 0
M  V30 19604 C 1866.07 1.09275 -4.1516 0
M  V30 19605 C 1865.3 2.17316 -4.87452 0
M  V30 19606 O 1865.52 3.38061 -4.59425 0
M  V30 19607 O 1864.46 1.81535 -5.73872 0
M  V30 19608 H 1868.28 -0.0899625 -3.03567 0
M  V30 19609 H 1865.87 -0.109899 -1.48995 0
M  V30 19610 H 1867.75 2.31421 -3.52168 0
M  V30 19611 H 1866.43 2.24961 -2.32754 0
M  V30 19612 H 1865.33 0.397193 -3.71985 0
M  V30 19613 H 1866.67 0.542156 -4.89205 0
M  V30 19614 N 1868.32 1.57428 -0.0735454 0
M  V30 19615 C 1869.27 2.12821 0.893071 0
M  V30 19616 C 1870.24 1.04117 1.29418 0
M  V30 19617 O 1871.42 1.31789 1.37972 0
M  V30 19618 C 1868.56 2.69569 2.15468 0
M  V30 19619 C 1867.67 3.92436 1.80605 0
M  V30 19620 C 1866.81 4.37421 3.01391 0
M  V30 19621 C 1865.85 5.52931 2.62553 0
M  V30 19622 N 1864.98 5.92866 3.76104 0
M  V30 19623 H 1869.82 2.95113 0.413823 0
M  V30 19624 H 1867.36 1.45834 0.192613 0
M  V30 19625 H 1869.32 3.0058 2.89323 0
M  V30 19626 H 1867.95 1.9004 2.6093 0
M  V30 19627 H 1867 3.67876 0.968068 0
M  V30 19628 H 1868.31 4.76327 1.48033 0
M  V30 19629 H 1867.47 4.70102 3.83522 0
M  V30 19630 H 1866.21 3.52386 3.37158 0
M  V30 19631 H 1865.21 5.19899 1.78844 0
M  V30 19632 H 1866.44 6.39698 2.27954 0
M  V30 19633 H 1864.38 5.10781 4.11629 0
M  V30 19634 H 1864.3 6.71502 3.47305 0
M  V30 19635 H 1865.57 6.30171 4.58808 0
M  V30 19636 N 1869.8 -0.200022 1.56326 0
M  V30 19637 C 1870.73 -1.25071 1.97179 0
M  V30 19638 C 1871.71 -1.4774 0.84303 0
M  V30 19639 O 1872.89 -1.5956 1.10699 0
M  V30 19640 C 1870.02 -2.596 2.30706 0
M  V30 19641 C 1868.98 -2.51552 3.46274 0
M  V30 19642 C 1868.3 -3.90309 3.65463 0
M  V30 19643 C 1869.6 -2.0448 4.80609 0
M  V30 19644 H 1871.3 -0.911238 2.85196 0
M  V30 19645 H 1868.84 -0.436899 1.37212 0
M  V30 19646 H 1870.8 -3.33281 2.5788 0
M  V30 19647 H 1869.52 -2.95278 1.39565 0
M  V30 19648 H 1868.18 -1.80327 3.19183 0
M  V30 19649 H 1867.83 -4.23331 2.71662 0
M  V30 19650 H 1867.53 -3.858 4.43207 0
M  V30 19651 H 1869.05 -4.65619 3.95008 0
M  V30 19652 H 1870.46 -2.67917 5.06847 0
M  V30 19653 H 1868.86 -2.10985 5.61788 0
M  V30 19654 H 1869.93 -0.997828 4.74522 0
M  V30 19655 N 1871.27 -1.50505 -0.467553 0
M  V30 19656 C 1872.22 -1.70158 -1.58584 0
M  V30 19657 C 1873.22 -0.567469 -1.59613 0
M  V30 19658 O 1874.42 -0.748063 -1.63719 0
M  V30 19659 H 1870.8 -0.537137 -0.526296 0
M  V30 19660 H 1872.77 -2.63959 -1.39171 0
M  V30 19661 C 1871.52 -1.81617 -2.96497 0
M  V30 19662 H 1870.84 -2.68276 -2.96425 0
M  V30 19663 H 1872.28 -1.99393 -3.74191 0
M  V30 19664 C 1870.74 -0.56862 -3.32067 0
M  V30 19665 O 1871.27 0.29061 -4.00647 0
M  V30 19666 N 1869.48 -0.421597 -2.87526 0
M  V30 19667 H 1869.02 -1.12184 -2.31889 0
M  V30 19668 H 1868.98 0.411959 -3.11689 0
M  V30 19669 N 1872.75 0.720973 -1.40142 0
M  V30 19670 C 1873.98 1.51519 -1.41622 0
M  V30 19671 C 1874.4 1.88093 -0.0162669 0
M  V30 19672 O 1873.76 1.52895 0.974307 0
M  V30 19673 C 1873.81 2.77041 -2.30826 0
M  V30 19674 O 1872.91 3.73532 -1.74779 0
M  V30 19675 H 1872.25 0.457034 -0.481681 0
M  V30 19676 H 1874.78 0.88837 -1.84307 0
M  V30 19677 H 1874.79 3.25628 -2.45826 0
M  V30 19678 H 1873.47 2.49755 -3.32558 0
M  V30 19679 H 1872.05 3.32356 -1.69097 0
M  V30 19680 N 1874.23 1.25549 0.952634 0
M  V30 19681 C 1875.46 1.13262 1.73743 0
M  V30 19682 C 1875.88 -0.309507 1.85536 0
M  V30 19683 O 1875.24 -1.22422 1.33726 0
M  V30 19684 C 1875.29 1.79395 3.12809 0
M  V30 19685 O 1874.39 1.07496 3.98144 0
M  V30 19686 H 1873.73 0.395314 0.5335 0
M  V30 19687 H 1876.26 1.66151 1.19394 0
M  V30 19688 H 1876.27 1.85761 3.63259 0
M  V30 19689 H 1874.95 2.84316 3.03542 0
M  V30 19690 H 1873.52 1.09025 3.56606 0
M  V30 19691 N 1875.71 -1.15554 1.07168 0
M  V30 19692 C 1876.95 -1.86572 0.794894 0
M  V30 19693 C 1877.29 -1.82007 -0.677276 0
M  V30 19694 O 1876.56 -1.2419 -1.4969 0
M  V30 19695 C 1876.85 -3.35762 1.30137 0
M  V30 19696 C 1876.7 -3.4897 2.83796 0
M  V30 19697 C 1878.02 -4.30453 0.916402 0
M  V30 19698 H 1875.14 -0.677448 0.29023 0
M  V30 19699 H 1877.78 -1.35772 1.32914 0
M  V30 19700 H 1875.93 -3.79156 0.846915 0
M  V30 19701 H 1877.6 -3.14452 3.37517 0
M  V30 19702 H 1875.84 -2.9059 3.22087 0
M  V30 19703 H 1876.51 -4.53782 3.14302 0
M  V30 19704 H 1878.99 -3.95008 1.30797 0
M  V30 19705 H 1877.87 -5.33329 1.29814 0
M  V30 19706 H 1878.13 -4.41742 -0.17785 0
M  V30 19707 N 1877.19 -0.855519 -1.32358 0
M  V30 19708 C 1878.42 -0.472645 -2.01121 0
M  V30 19709 C 1878.83 0.935468 -1.64456 0
M  V30 19710 O 1878.17 1.62204 -0.862292 0
M  V30 19711 C 1878.23 -0.533025 -3.55527 0
M  V30 19712 C 1877.89 -1.90018 -4.15622 0
M  V30 19713 C 1878.89 -2.86576 -4.33786 0
M  V30 19714 C 1876.58 -2.19756 -4.51677 0
M  V30 19715 C 1878.57 -4.11023 -4.87175 0
M  V30 19716 C 1876.26 -3.44456 -5.0477 0
M  V30 19717 C 1877.26 -4.39905 -5.22468 0
M  V30 19718 O 1876.94 -5.62397 -5.74426 0
M  V30 19719 H 1876.68 -0.184097 -0.650449 0
M  V30 19720 H 1879.23 -1.15437 -1.69892 0
M  V30 19721 H 1877.46 0.205561 -3.86153 0
M  V30 19722 H 1879.15 -0.165631 -4.05562 0
M  V30 19723 H 1879.91 -2.64905 -4.06264 0
M  V30 19724 H 1875.79 -1.46247 -4.37187 0
M  V30 19725 H 1879.34 -4.85532 -5.00903 0
M  V30 19726 H 1875.23 -3.65976 -5.31725 0
M  V30 19727 H 1876 -5.64367 -5.92817 0
M  V30 19728 N 1878.67 1.45167 -0.61354 0
M  V30 19729 C 1879.89 2.07076 -0.115821 0
M  V30 19730 C 1880.32 1.45415 1.19315 0
M  V30 19731 O 1879.67 0.549046 1.72786 0
M  V30 19732 C 1879.72 3.606 0.00406239 0
M  V30 19733 O 1878.83 3.98737 1.05273 0
M  V30 19734 H 1878.17 0.659547 -0.0767679 0
M  V30 19735 H 1880.7 1.86325 -0.845236 0
M  V30 19736 H 1880.71 4.07508 0.200356 0
M  V30 19737 H 1879.38 4.04865 -0.951695 0
M  V30 19738 H 1877.96 3.6349 0.832424 0
M  V30 19739 N 1880.14 0.353044 1.53595 0
M  V30 19740 C 1881.07 -0.491481 2.28269 0
M  V30 19741 C 1882.05 -1.0946 1.30201 0
M  V30 19742 O 1883.24 -1.11421 1.59056 0
M  V30 19743 C 1880.37 -1.63776 3.06259 0
M  V30 19744 C 1879.32 -1.16251 4.1191 0
M  V30 19745 C 1878.65 -2.39805 4.7791 0
M  V30 19746 C 1879.95 -0.256191 5.21671 0
M  V30 19747 H 1881.64 0.131483 2.99111 0
M  V30 19748 H 1879.19 0.0646771 1.43855 0
M  V30 19749 H 1881.14 -2.2351 3.57241 0
M  V30 19750 H 1879.87 -2.28777 2.33085 0
M  V30 19751 H 1878.53 -0.587934 3.61855 0
M  V30 19752 H 1878.17 -3.03234 4.0132 0
M  V30 19753 H 1877.87 -2.08684 5.49295 0
M  V30 19754 H 1879.4 -3.00248 5.3168 0
M  V30 19755 H 1880.81 -0.760642 5.68232 0
M  V30 19756 H 1879.21 -0.0364273 6.00089 0
M  V30 19757 H 1880.28 0.705105 4.79746 0
M  V30 19758 N 1881.62 -1.57387 0.0818932 0
M  V30 19759 C 1883.03 -1.81214 -0.449254 0
M  V30 19760 C 1883.38 -0.996563 -1.69006 0
M  V30 19761 O 1882.51 -0.22203 -2.15258 0
M  V30 19762 C 1883.1 -3.28681 -0.821827 0
M  V30 19763 C 1881.66 -3.53319 -1.29779 0
M  V30 19764 C 1880.81 -2.75801 -0.287911 0
M  V30 19765 H 1883.76 -1.55693 0.307486 0
M  V30 19766 H 1883.78 -3.41283 -1.68245 0
M  V30 19767 H 1883.29 -3.88015 0.081441 0
M  V30 19768 H 1881.39 -2.99302 -2.21921 0
M  V30 19769 H 1881.51 -4.61996 -1.26874 0
M  V30 19770 H 1879.87 -2.42867 -0.76731 0
M  V30 19771 H 1880.65 -3.37877 0.607805 0
M  V30 19772 N 1883.1 0.191729 -1.56429 0
M  V30 19773 C 1884.51 0.756099 -1.70705 0
M  V30 19774 C 1884.86 1.83703 -0.689029 0
M  V30 19775 O 1883.99 2.15852 0.153863 0
M  V30 19776 C 1884.58 1.37827 -3.09498 0
M  V30 19777 C 1883.14 1.88968 -3.25527 0
M  V30 19778 C 1882.29 0.76089 -2.66657 0
M  V30 19779 H 1885.24 -0.0333918 -1.58665 0
M  V30 19780 H 1885.26 2.24771 -3.07015 0
M  V30 19781 H 1884.77 0.591316 -3.83569 0
M  V30 19782 H 1882.87 2.70372 -2.56378 0
M  V30 19783 H 1882.99 2.04916 -4.33066 0
M  V30 19784 H 1881.35 1.17606 -2.25923 0
M  V30 19785 H 1882.13 -0.0138776 -3.43297 0
M  V30 19786 N 1884.58 1.50751 0.459565 0
M  V30 19787 C 1885.85 1.5284 1.22062 0
M  V30 19788 C 1886.23 0.279716 2.09239 0
M  V30 19789 O 1885.58 -0.73634 2.16311 0
M  V30 19790 C 1885.79 2.83046 2.04171 0
M  V30 19791 C 1887.14 3.34151 2.6197 0
M  V30 19792 O 1888.16 2.84446 2.14403 0
M  V30 19793 O 1887.02 4.20824 3.48668 0
M  V30 19794 H 1884.12 0.613549 0.554515 0
M  V30 19795 H 1886.66 1.63049 0.470445 0
M  V30 19796 H 1885.44 3.65397 1.40004 0
M  V30 19797 H 1885.06 2.75896 2.86299 0
M  V30 19798 N 1886.06 -0.713531 1.40522 0
M  V30 19799 C 1887.47 -1.29276 1.34702 0
M  V30 19800 C 1887.82 -1.96188 0.0214862 0
M  V30 19801 O 1886.94 -1.97676 -0.880513 0
M  V30 19802 C 1887.54 -2.35082 2.43971 0
M  V30 19803 C 1886.1 -2.88624 2.41605 0
M  V30 19804 C 1885.24 -1.62437 2.24743 0
M  V30 19805 H 1888.19 -0.509517 1.50298 0
M  V30 19806 H 1888.22 -3.15971 2.11996 0
M  V30 19807 H 1887.73 -1.86353 3.40432 0
M  V30 19808 H 1885.83 -3.41578 1.48847 0
M  V30 19809 H 1885.94 -3.40278 3.37265 0
M  V30 19810 H 1884.31 -1.8758 1.72296 0
M  V30 19811 H 1885.09 -1.1573 3.23205 0
M  V30 19812 N 1887.53 -1.26053 -0.945962 0
M  V30 19813 C 1888.81 -1.02072 -1.66855 0
M  V30 19814 C 1889.19 0.45036 -2.0624 0
M  V30 19815 O 1888.54 1.42966 -1.7825 0
M  V30 19816 C 1888.75 -1.96486 -2.88434 0
M  V30 19817 C 1890.1 -2.24825 -3.60193 0
M  V30 19818 O 1891.12 -1.94314 -2.98531 0
M  V30 19819 O 1889.98 -2.76749 -4.71245 0
M  V30 19820 H 1887.07 -0.387753 -0.730463 0
M  V30 19821 H 1889.62 -1.37243 -0.998117 0
M  V30 19822 H 1888.39 -2.95779 -2.56185 0
M  V30 19823 H 1888.01 -1.61765 -3.63205 0
M  V30 19824 N 1889.01 1.14984 -1.07779 0
M  V30 19825 C 1889.96 2.1788 -0.671747 0
M  V30 19826 C 1890.95 1.57976 0.305353 0
M  V30 19827 O 1892.14 1.76604 0.118388 0
M  V30 19828 C 1889.27 3.43216 -0.0757397 0
M  V30 19829 C 1888.35 4.10164 -1.07824 0
M  V30 19830 N 1888.74 4.52533 -2.25937 0
M  V30 19831 C 1887.04 4.36564 -0.912555 0
M  V30 19832 C 1887.74 5.04503 -2.89572 0
M  V30 19833 N 1886.72 4.98316 -2.17214 0
M  V30 19834 H 1890.52 2.48372 -1.57126 0
M  V30 19835 H 1888.03 1.31599 -0.951599 0
M  V30 19836 H 1890.03 4.16248 0.233075 0
M  V30 19837 H 1888.69 3.14206 0.81884 0
M  V30 19838 H 1889.7 4.4578 -2.6363 0
M  V30 19839 H 1886.38 4.17439 -0.0712389 0
M  V30 19840 H 1887.77 5.4721 -3.89886 0
M  V30 19841 N 1890.49 0.862526 1.31902 0
M  V30 19842 C 1891.74 0.469775 1.96976 0
M  V30 19843 C 1892.06 -0.976339 1.6822 0
M  V30 19844 O 1891.32 -1.70131 0.967153 0
M  V30 19845 C 1891.62 0.664872 3.51161 0
M  V30 19846 C 1891.28 2.08264 3.99921 0
M  V30 19847 C 1889.95 2.47039 4.12947 0
M  V30 19848 C 1892.3 3.00762 4.25666 0
M  V30 19849 C 1889.63 3.77568 4.49065 0
M  V30 19850 C 1891.98 4.30797 4.63245 0
M  V30 19851 C 1890.64 4.69496 4.74478 0
M  V30 19852 H 1889.91 0.171903 0.720785 0
M  V30 19853 H 1892.56 1.09409 1.57169 0
M  V30 19854 H 1890.86 -0.0426255 3.91777 0
M  V30 19855 H 1892.56 0.340921 3.99548 0
M  V30 19856 H 1889.15 1.77158 3.90273 0
M  V30 19857 H 1893.34 2.72034 4.15104 0
M  V30 19858 H 1888.59 4.07323 4.55958 0
M  V30 19859 H 1892.77 5.02527 4.8212 0
M  V30 19860 H 1890.39 5.70682 5.02221 0
M  V30 19861 N 1891.97 -1.4484 0.62123 0
M  V30 19862 C 1893.25 -1.95528 0.0531511 0
M  V30 19863 C 1893.63 -1.56342 -1.41846 0
M  V30 19864 O 1892.97 -0.832621 -2.1279 0
M  V30 19865 C 1893.18 -3.47988 0.2656 0
M  V30 19866 C 1894.53 -4.24322 0.153573 0
M  V30 19867 O 1895.56 -3.55658 0.19644 0
M  V30 19868 O 1894.41 -5.46477 0.05015 0
M  V30 19869 H 1891.51 -0.826527 -0.0279665 0
M  V30 19870 H 1894.05 -1.54939 0.692243 0
M  V30 19871 H 1892.83 -3.69525 1.28713 0
M  V30 19872 H 1892.45 -3.955 -0.408105 0
M  V30 19873 N 1893.45 -0.361184 -1.53405 0
M  V30 19874 C 1894.69 0.229427 -2.00794 0
M  V30 19875 C 1895.02 1.49642 -1.25029 0
M  V30 19876 O 1894.29 1.9252 -0.362333 0
M  V30 19877 H 1892.87 0.0877687 -0.741826 0
M  V30 19878 H 1895.53 -0.486406 -1.88733 0
M  V30 19879 H 1894.62 0.459504 -3.08699 0
M  V30 19880 N 1894.92 1.57341 -0.0902386 0
M  V30 19881 C 1896.15 1.98225 0.58228 0
M  V30 19882 C 1896.56 0.968012 1.62561 0
M  V30 19883 O 1895.91 -0.0512719 1.83628 0
M  V30 19884 C 1895.97 3.35468 1.29233 0
M  V30 19885 C 1895.63 4.55243 0.400324 0
M  V30 19886 C 1896.63 5.18723 -0.349573 0
M  V30 19887 C 1894.31 5.01281 0.319802 0
M  V30 19888 C 1896.31 6.26607 -1.16802 0
M  V30 19889 C 1893.99 6.09032 -0.502303 0
M  V30 19890 C 1894.99 6.71559 -1.24487 0
M  V30 19891 O 1894.68 7.77233 -2.05338 0
M  V30 19892 H 1894.41 0.65651 0.161154 0
M  V30 19893 H 1896.97 2.04738 -0.164737 0
M  V30 19894 H 1895.2 3.25623 2.08582 0
M  V30 19895 H 1896.89 3.60832 1.8589 0
M  V30 19896 H 1897.65 4.84089 -0.297067 0
M  V30 19897 H 1893.53 4.52378 0.887432 0
M  V30 19898 H 1897.07 6.75342 -1.74811 0
M  V30 19899 H 1892.97 6.43098 -0.556307 0
M  V30 19900 H 1893.74 7.94198 -1.97968 0
M  V30 19901 N 1896.4 -0.183431 1.56529 0
M  V30 19902 C 1897.35 -1.22726 1.95466 0
M  V30 19903 C 1898.32 -1.44626 0.81686 0
M  V30 19904 O 1899.5 -1.57566 1.07599 0
M  V30 19905 C 1896.64 -2.56435 2.30944 0
M  V30 19906 C 1895.76 -2.42016 3.57844 0
M  V30 19907 C 1894.89 -3.68509 3.82589 0
M  V30 19908 C 1893.93 -3.48972 5.02877 0
M  V30 19909 N 1893.07 -4.67505 5.23817 0
M  V30 19910 H 1897.91 -0.888204 2.84456 0
M  V30 19911 H 1895.45 -0.427192 1.4076 0
M  V30 19912 H 1897.4 -3.3435 2.49532 0
M  V30 19913 H 1896.03 -2.8836 1.4508 0
M  V30 19914 H 1895.09 -1.55339 3.47237 0
M  V30 19915 H 1896.4 -2.23519 4.45915 0
M  V30 19916 H 1895.55 -4.54861 4.0148 0
M  V30 19917 H 1894.29 -3.89972 2.9287 0
M  V30 19918 H 1893.3 -2.61005 4.83897 0
M  V30 19919 H 1894.52 -3.28942 5.94116 0
M  V30 19920 H 1892.47 -4.8921 4.37047 0
M  V30 19921 H 1892.38 -4.51876 6.06089 0
M  V30 19922 H 1893.65 -5.55175 5.47176 0
M  V30 19923 N 1897.88 -1.50992 -0.451564 0
M  V30 19924 C 1898.81 -1.67453 -1.56499 0
M  V30 19925 C 1899.83 -0.555481 -1.5303 0
M  V30 19926 O 1901.01 -0.829335 -1.58064 0
M  V30 19927 C 1898.11 -1.66093 -2.95409 0
M  V30 19928 C 1897.29 -2.94351 -3.23537 0
M  V30 19929 C 1896.35 -2.8537 -4.42098 0
M  V30 19930 O 1895.37 -3.59323 -4.41447 0
M  V30 19931 N 1896.57 -2.0025 -5.44867 0
M  V30 19932 H 1899.34 -2.63499 -1.42788 0
M  V30 19933 H 1896.9 -1.48701 -0.640293 0
M  V30 19934 H 1898.89 -1.57672 -3.72722 0
M  V30 19935 H 1897.46 -0.777014 -3.02789 0
M  V30 19936 H 1896.68 -3.16751 -2.34654 0
M  V30 19937 H 1897.97 -3.79281 -3.39151 0
M  V30 19938 H 1897.37 -1.39517 -5.48226 0
M  V30 19939 H 1895.93 -1.97719 -6.21088 0
M  V30 19940 N 1899.36 0.706069 -1.40899 0
M  V30 19941 C 1900.29 1.83119 -1.37841 0
M  V30 19942 C 1901.3 1.60335 -0.282253 0
M  V30 19943 O 1902.49 1.70032 -0.543263 0
M  V30 19944 C 1899.59 3.19696 -1.12461 0
M  V30 19945 C 1898.77 3.69598 -2.33915 0
M  V30 19946 C 1897.82 4.84815 -2.04551 0
M  V30 19947 O 1896.85 4.96973 -2.775 0
M  V30 19948 N 1898.05 5.71302 -1.0293 0
M  V30 19949 H 1900.82 1.86237 -2.34811 0
M  V30 19950 H 1898.38 0.887984 -1.35375 0
M  V30 19951 H 1900.37 3.94386 -0.90786 0
M  V30 19952 H 1898.94 3.11668 -0.241258 0
M  V30 19953 H 1898.16 2.85933 -2.7136 0
M  V30 19954 H 1899.45 3.99674 -3.14862 0
M  V30 19955 H 1898.85 5.64099 -0.425314 0
M  V30 19956 H 1897.4 6.45935 -0.872446 0
M  V30 19957 N 1900.84 1.26553 0.939264 0
M  V30 19958 C 1901.8 1.08335 2.01981 0
M  V30 19959 C 1902.8 0.0310501 1.6077 0
M  V30 19960 O 1903.99 0.274627 1.72022 0
M  V30 19961 C 1901.12 0.648208 3.34681 0
M  V30 19962 H 1902.31 2.04272 2.19574 0
M  V30 19963 H 1899.87 1.09177 1.11849 0
M  V30 19964 H 1900.6 -0.313074 3.22785 0
M  V30 19965 H 1900.39 1.40806 3.65946 0
M  V30 19966 H 1901.88 0.54264 4.14059 0
M  V30 19967 N 1902.31 -1.14411 1.08387 0
M  V30 19968 C 1903.56 -1.85719 0.814638 0
M  V30 19969 C 1903.89 -1.82715 -0.657934 0
M  V30 19970 O 1903.17 -1.2577 -1.48365 0
M  V30 19971 C 1903.45 -3.34363 1.33691 0
M  V30 19972 C 1903.3 -3.4594 2.87481 0
M  V30 19973 C 1904.62 -4.29457 0.962006 0
M  V30 19974 H 1901.74 -0.674332 0.297399 0
M  V30 19975 H 1904.38 -1.34354 1.34346 0
M  V30 19976 H 1902.53 -3.78237 0.887082 0
M  V30 19977 H 1904.21 -3.10854 3.40833 0
M  V30 19978 H 1902.45 -2.87158 3.25151 0
M  V30 19979 H 1903.12 -4.50423 3.19097 0
M  V30 19980 H 1905.6 -3.93599 1.34979 0
M  V30 19981 H 1904.47 -5.31922 1.35464 0
M  V30 19982 H 1904.73 -4.41906 -0.130987 0
M  V30 19983 N 1903.79 -0.869509 -1.31443 0
M  V30 19984 C 1905.04 -0.480925 -1.97015 0
M  V30 19985 C 1905.37 0.964227 -1.68571 0
M  V30 19986 O 1904.65 1.67893 -0.981953 0
M  V30 19987 C 1904.93 -0.738064 -3.52455 0
M  V30 19988 C 1904.78 -2.23272 -3.90474 0
M  V30 19989 C 1906.1 -0.204237 -4.39626 0
M  V30 19990 H 1903.22 -0.176206 -0.715626 0
M  V30 19991 H 1905.86 -1.09066 -1.55578 0
M  V30 19992 H 1904.01 -0.21909 -3.87882 0
M  V30 19993 H 1905.68 -2.81891 -3.65151 0
M  V30 19994 H 1903.93 -2.70546 -3.39098 0
M  V30 19995 H 1904.6 -2.36328 -4.98852 0
M  V30 19996 H 1907.07 -0.648228 -4.1102 0
M  V30 19997 H 1905.95 -0.413608 -5.47339 0
M  V30 19998 H 1906.21 0.893807 -4.32971 0
M  V30 19999 N 1905.27 1.44508 -0.628902 0
M  V30 20000 C 1906.52 2.01281 -0.129966 0
M  V30 20001 C 1906.83 1.50041 1.25488 0
M  V30 20002 O 1908.04 1.98927 1.84771 0
M  V30 20003 C 1906.49 3.59442 -0.1816 0
M  V30 20004 C 1906.1 4.19678 -1.56762 0
M  V30 20005 C 1907.85 4.23697 0.260988 0
M  V30 20006 C 1905.75 5.70056 -1.57449 0
M  V30 20007 H 1904.68 0.752667 -0.0448215 0
M  V30 20008 H 1907.33 1.65749 -0.787372 0
M  V30 20009 H 1905.72 3.92261 0.542864 0
M  V30 20010 H 1906.89 3.98399 -2.31549 0
M  V30 20011 H 1905.21 3.67701 -1.9541 0
M  V30 20012 H 1907.8 5.33991 0.275356 0
M  V30 20013 H 1908.15 3.95878 1.28787 0
M  V30 20014 H 1908.68 3.95672 -0.410909 0
M  V30 20015 H 1905.42 6.02606 -2.57966 0
M  V30 20016 H 1904.94 5.93464 -0.869514 0
M  V30 20017 H 1906.62 6.33652 -1.30745 0
M  V30 20018 N 1906.75 0.369315 1.53212 0
M  V30 20019 C 1907.68 -0.519053 2.22219 0
M  V30 20020 C 1908.66 -1.08004 1.21548 0
M  V30 20021 O 1909.84 -1.13546 1.50464 0
M  V30 20022 C 1906.97 -1.71652 2.91982 0
M  V30 20023 C 1906.02 -1.28264 4.06756 0
M  V30 20024 S 1906.85 -0.280814 5.34763 0
M  V30 20025 C 1908.01 -1.48452 6.0804 0
M  V30 20026 H 1908.24 0.0669947 2.97225 0
M  V30 20027 H 1905.77 0.15343 1.53636 0
M  V30 20028 H 1907.73 -2.40337 3.32789 0
M  V30 20029 H 1906.39 -2.27382 2.16693 0
M  V30 20030 H 1905.58 -2.17616 4.54598 0
M  V30 20031 H 1905.19 -0.674956 3.67859 0
M  V30 20032 H 1907.48 -2.41494 6.32998 0
M  V30 20033 H 1908.42 -1.04741 7.00311 0
M  V30 20034 H 1908.83 -1.69227 5.38537 0
M  V30 20035 N 1908.23 -1.57291 0.0985816 0
M  V30 20036 C 1909.5 -1.85951 -0.606759 0
M  V30 20037 C 1909.88 -0.996077 -1.86122 0
M  V30 20038 O 1909.23 -0.0694281 -2.28394 0
M  V30 20039 C 1909.44 -3.36688 -0.918803 0
M  V30 20040 C 1910.79 -4.04824 -1.28074 0
M  V30 20041 O 1911.81 -3.41589 -1.00971 0
M  V30 20042 O 1910.67 -5.16406 -1.7885 0
M  V30 20043 H 1907.77 -0.769103 -0.30399 0
M  V30 20044 H 1910.31 -1.69189 0.131543 0
M  V30 20045 H 1909.09 -3.91289 -0.0289848 0
M  V30 20046 H 1908.71 -3.58808 -1.71296 0
M  V30 20047 N 1909.71 0.175127 -1.56624 0
M  V30 20048 C 1910.98 0.919424 -1.72644 0
M  V30 20049 C 1911.36 2.00553 -0.658929 0
M  V30 20050 O 1910.71 2.2615 0.326897 0
M  V30 20051 C 1910.92 1.48764 -3.15706 0
M  V30 20052 C 1912.27 1.96204 -3.76549 0
M  V30 20053 O 1913.29 1.58565 -3.1896 0
M  V30 20054 O 1912.15 2.65525 -4.7766 0
M  V30 20055 H 1909.25 0.43251 -0.704886 0
M  V30 20056 H 1911.79 0.163255 -1.68913 0
M  V30 20057 H 1910.56 0.705743 -3.84883 0
M  V30 20058 H 1910.19 2.3081 -3.23748 0
M  V30 20059 N 1911.18 1.5123 0.44355 0
M  V30 20060 C 1912.11 1.75038 1.54544 0
M  V30 20061 C 1913.09 0.600017 1.59166 0
M  V30 20062 O 1914.28 0.842082 1.74993 0
M  V30 20063 C 1911.41 1.86976 2.92673 0
M  V30 20064 C 1910.36 3.0237 3.02913 0
M  V30 20065 C 1909.69 2.99483 4.4296 0
M  V30 20066 C 1910.99 4.4244 2.77569 0
M  V30 20067 H 1912.68 2.67301 1.34872 0
M  V30 20068 H 1910.23 1.28627 0.647395 0
M  V30 20069 H 1912.18 2.02215 3.69712 0
M  V30 20070 H 1910.91 0.913563 3.13563 0
M  V30 20071 H 1909.57 2.86826 2.28312 0
M  V30 20072 H 1909.21 2.01654 4.60809 0
M  V30 20073 H 1908.91 3.76968 4.50743 0
M  V30 20074 H 1910.44 3.16808 5.21982 0
M  V30 20075 H 1911.85 4.58367 3.44344 0
M  V30 20076 H 1910.25 5.21583 2.96768 0
M  V30 20077 H 1911.32 4.52906 1.73218 0
M  V30 20078 N 1912.66 -0.698586 1.41271 0
M  V30 20079 C 1913.9 -1.47088 1.41931 0
M  V30 20080 C 1914.27 -1.91982 0.0260304 0
M  V30 20081 O 1915.47 -2.68641 -0.092562 0
M  V30 20082 C 1913.74 -2.65236 2.39551 0
M  V30 20083 S 1915.3 -3.54418 2.58715 0
M  V30 20084 H 1912.11 -0.502673 0.502833 0
M  V30 20085 H 1914.72 -0.815406 1.77683 0
M  V30 20086 H 1913.42 -2.30454 3.39587 0
M  V30 20087 H 1912.95 -3.35679 2.05141 0
M  V30 20088 H 1914.97 -4.60331 1.85229 0
M  V30 20089 N 1914.14 -1.27049 -0.93254 0
M  V30 20090 C 1915.07 -1.05151 -2.03656 0
M  V30 20091 C 1916.08 -0.00913996 -1.62797 0
M  V30 20092 O 1917.27 -0.25017 -1.76738 0
M  V30 20093 C 1914.37 -0.572071 -3.34037 0
M  V30 20094 C 1913.55 -1.68563 -4.03615 0
M  V30 20095 C 1912.61 -1.20276 -5.12269 0
M  V30 20096 O 1911.63 -1.9015 -5.36499 0
M  V30 20097 N 1912.83 -0.0558099 -5.80473 0
M  V30 20098 H 1915.6 -2.00221 -2.23006 0
M  V30 20099 H 1913.16 -1.18551 -1.1026 0
M  V30 20100 H 1915.15 -0.233036 -4.04029 0
M  V30 20101 H 1913.72 0.285274 -3.11296 0
M  V30 20102 H 1912.94 -2.19519 -3.27422 0
M  V30 20103 H 1914.23 -2.43313 -4.46852 0
M  V30 20104 H 1913.63 0.527516 -5.63235 0
M  V30 20105 H 1912.18 0.224082 -6.51415 0
M  V30 20106 N 1915.62 1.13835 -1.08993 0
M  V30 20107 C 1916.57 2.21179 -0.719905 0
M  V30 20108 C 1917.56 1.67118 0.277123 0
M  V30 20109 O 1918.77 1.79462 0.139054 0
M  V30 20110 H 1915.14 0.72067 -0.214799 0
M  V30 20111 H 1917.11 2.49654 -1.63448 0
M  V30 20112 C 1915.86 3.47368 -0.151794 0
M  V30 20113 H 1915.18 3.89302 -0.910172 0
M  V30 20114 H 1916.62 4.23943 0.0692336 0
M  V30 20115 C 1915.08 3.18024 1.11185 0
M  V30 20116 O 1915.61 3.36374 2.1958 0
M  V30 20117 N 1913.82 2.71938 1.0246 0
M  V30 20118 H 1913.37 2.57206 0.142456 0
M  V30 20119 H 1913.32 2.52679 1.87084 0
M  V30 20120 N 1917.1 0.876467 1.3098 0
M  V30 20121 C 1918.51 0.542323 1.7865 0
M  V30 20122 C 1918.86 -0.941103 1.72156 0
M  V30 20123 O 1917.98 -1.73506 1.29324 0
M  V30 20124 C 1918.58 0.977656 3.24388 0
M  V30 20125 C 1917.14 0.695064 3.69927 0
M  V30 20126 C 1916.28 1.16537 2.51624 0
M  V30 20127 H 1919.23 1.06154 1.1797 0
M  V30 20128 H 1919.26 0.30304 3.79291 0
M  V30 20129 H 1918.77 2.05735 3.29082 0
M  V30 20130 H 1916.87 -0.372992 3.70728 0
M  V30 20131 H 1916.98 1.27665 4.61778 0
M  V30 20132 H 1915.35 0.584941 2.47892 0
M  V30 20133 H 1916.13 2.25262 2.5906 0
M  V30 20134 N 1918.57 -1.44173 0.636557 0
M  V30 20135 C 1919.85 -1.9546 0.0738864 0
M  V30 20136 C 1920.23 -1.57838 -1.4018 0
M  V30 20137 O 1919.58 -0.855144 -2.11895 0
M  V30 20138 C 1919.79 -3.47687 0.302493 0
M  V30 20139 C 1921.14 -4.24135 0.198569 0
M  V30 20140 O 1922.16 -3.5543 0.234151 0
M  V30 20141 O 1921.02 -5.46393 0.108108 0
M  V30 20142 H 1918.11 -0.826777 -0.0191985 0
M  V30 20143 H 1920.66 -1.54196 0.708638 0
M  V30 20144 H 1919.43 -3.68139 1.32625 0
M  V30 20145 H 1919.05 -3.95911 -0.366134 0
M  V30 20146 N 1920.05 -0.377435 -1.53014 0
M  V30 20147 C 1921.3 0.208118 -2.01026 0
M  V30 20148 C 1921.62 1.48307 -1.26609 0
M  V30 20149 O 1920.89 1.92125 -0.382732 0
M  V30 20150 H 1919.47 0.0798957 -0.742715 0
M  V30 20151 H 1922.13 -0.506396 -1.88206 0
M  V30 20152 H 1921.23 0.426737 -3.09169 0
M  V30 20153 N 1921.53 1.57237 -0.106922 0
M  V30 20154 C 1922.48 2.14668 0.847728 0
M  V30 20155 C 1923.45 1.06838 1.2718 0
M  V30 20156 O 1924.63 1.34686 1.35146 0
M  V30 20157 C 1921.77 2.74079 2.09702 0
M  V30 20158 C 1920.89 3.96178 1.7224 0
M  V30 20159 C 1920.02 4.43715 2.92045 0
M  V30 20160 C 1919.06 5.58375 2.50766 0
M  V30 20161 N 1918.2 6.00711 3.63443 0
M  V30 20162 H 1923.04 2.95924 0.351133 0
M  V30 20163 H 1920.57 1.46209 0.161636 0
M  V30 20164 H 1922.53 3.06649 2.82882 0
M  V30 20165 H 1921.16 1.95532 2.56841 0
M  V30 20166 H 1920.21 3.69846 0.889819 0
M  V30 20167 H 1921.53 4.7936 1.37896 0
M  V30 20168 H 1920.68 4.78131 3.73464 0
M  V30 20169 H 1919.42 3.59458 3.29607 0
M  V30 20170 H 1918.42 5.23576 1.67776 0
M  V30 20171 H 1919.65 6.4439 2.14334 0
M  V30 20172 H 1917.59 5.19397 4.00702 0
M  V30 20173 H 1917.51 6.78718 3.32983 0
M  V30 20174 H 1918.78 6.39761 4.45338 0
M  V30 20175 N 1923.01 -0.166818 1.56715 0
M  V30 20176 C 1924.29 -0.910255 1.73129 0
M  V30 20177 C 1924.67 -2.002 0.669555 0
M  V30 20178 O 1924.01 -2.2632 -0.314899 0
M  V30 20179 C 1924.22 -1.47087 3.16491 0
M  V30 20180 C 1925.57 -1.94204 3.77584 0
M  V30 20181 O 1926.6 -1.56872 3.19796 0
M  V30 20182 O 1925.45 -2.62988 4.79061 0
M  V30 20183 H 1922.55 -0.428766 0.70717 0
M  V30 20184 H 1925.09 -0.154295 1.68997 0
M  V30 20185 H 1923.87 -0.685322 3.85252 0
M  V30 20186 H 1923.49 -2.29089 3.24967 0
M  V30 20187 N 1924.49 -1.51463 -0.435524 0
M  V30 20188 C 1925.73 -1.64464 -1.18656 0
M  V30 20189 C 1926.07 -0.360669 -1.90821 0
M  V30 20190 O 1925.34 0.639814 -1.83675 0
M  V30 20191 C 1925.62 -2.84919 -2.20212 0
M  V30 20192 C 1925.48 -4.23297 -1.52117 0
M  V30 20193 C 1926.8 -3.00891 -3.21174 0
M  V30 20194 H 1923.91 -0.598545 -0.430015 0
M  V30 20195 H 1926.56 -1.83952 -0.475572 0
M  V30 20196 H 1924.71 -2.68435 -2.80847 0
M  V30 20197 H 1926.38 -4.51453 -0.948048 0
M  V30 20198 H 1924.62 -4.25912 -0.823493 0
M  V30 20199 H 1925.29 -5.03576 -2.26087 0
M  V30 20200 H 1927.77 -3.16099 -2.70594 0
M  V30 20201 H 1926.64 -3.86734 -3.89523 0
M  V30 20202 H 1926.91 -2.13041 -3.87383 0
M  V30 20203 N 1925.96 0.691085 -1.4164 0
M  V30 20204 C 1927.19 1.48481 -1.44804 0
M  V30 20205 C 1927.61 1.88016 -0.0561606 0
M  V30 20206 O 1926.97 1.54927 0.941657 0
M  V30 20207 C 1927.02 2.72083 -2.3665 0
M  V30 20208 O 1926.12 3.6974 -1.82663 0
M  V30 20209 H 1925.47 0.446714 -0.491267 0
M  V30 20210 H 1928 0.849076 -1.8615 0
M  V30 20211 H 1928.01 3.2034 -2.52678 0
M  V30 20212 H 1926.68 2.42645 -3.37781 0
M  V30 20213 H 1925.26 3.28695 -1.76108 0
M  V30 20214 N 1927.44 1.27542 0.925789 0
M  V30 20215 C 1928.37 1.12952 2.04363 0
M  V30 20216 C 1929.35 0.0304761 1.70073 0
M  V30 20217 O 1930.54 0.205307 1.93112 0
M  V30 20218 C 1927.67 0.777954 3.38475 0
M  V30 20219 C 1926.62 1.83044 3.86883 0
M  V30 20220 C 1925.95 1.3328 5.17823 0
M  V30 20221 C 1927.25 3.23488 4.10065 0
M  V30 20222 H 1928.94 2.06462 2.16827 0
M  V30 20223 H 1926.49 0.994046 1.04186 0
M  V30 20224 H 1928.44 0.662702 4.16156 0
M  V30 20225 H 1927.17 -0.192851 3.2603 0
M  V30 20226 H 1925.82 1.93463 3.11396 0
M  V30 20227 H 1925.47 0.351399 5.01771 0
M  V30 20228 H 1925.17 2.03648 5.51182 0
M  V30 20229 H 1926.7 1.23053 5.98072 0
M  V30 20230 H 1928.11 3.16058 4.7831 0
M  V30 20231 H 1926.51 3.91583 4.54734 0
M  V30 20232 H 1927.58 3.68399 3.15293 0
M  V30 20233 N 1928.92 -1.13255 1.09595 0
M  V30 20234 C 1930.17 -1.84571 0.833056 0
M  V30 20235 C 1930.5 -1.83622 -0.641341 0
M  V30 20236 O 1929.75 -1.27084 -1.48823 0
M  V30 20237 C 1930.05 -3.32304 1.31562 0
M  V30 20238 C 1929.72 -3.53433 2.79993 0
M  V30 20239 C 1928.38 -3.58907 3.2053 0
M  V30 20240 C 1930.73 -3.61259 3.75687 0
M  V30 20241 C 1928.06 -3.69744 4.55529 0
M  V30 20242 C 1930.41 -3.73624 5.10478 0
M  V30 20243 C 1929.07 -3.77352 5.50601 0
M  V30 20244 H 1928.34 -0.675393 0.304837 0
M  V30 20245 H 1930.99 -1.33697 1.37103 0
M  V30 20246 H 1929.3 -3.85542 0.697482 0
M  V30 20247 H 1930.99 -3.85935 1.0888 0
M  V30 20248 H 1927.58 -3.49828 2.47625 0
M  V30 20249 H 1931.77 -3.56308 3.45483 0
M  V30 20250 H 1927.02 -3.70897 4.8605 0
M  V30 20251 H 1931.2 -3.78623 5.84481 0
M  V30 20252 H 1928.82 -3.85501 6.55204 0
M  V30 20253 N 1930.4 -0.883401 -1.30514 0
M  V30 20254 C 1931.64 -0.507734 -1.97993 0
M  V30 20255 C 1932 0.925497 -1.68222 0
M  V30 20256 O 1933.2 1.40721 -2.29022 0
M  V30 20257 C 1931.47 -0.773081 -3.48939 0
M  V30 20258 S 1933.03 -0.499281 -4.3595 0
M  V30 20259 H 1929.85 -0.188981 -0.685425 0
M  V30 20260 H 1932.45 -1.14233 -1.58654 0
M  V30 20261 H 1931.16 -1.81472 -3.68098 0
M  V30 20262 H 1930.69 -0.125985 -3.93198 0
M  V30 20263 H 1932.7 0.662772 -4.91754 0
M  V30 20264 N 1931.88 1.43833 -0.644194 0
M  V30 20265 C 1932.81 2.29017 0.0914574 0
M  V30 20266 C 1933.82 1.4201 0.79605 0
M  V30 20267 O 1935.01 1.66036 0.655313 0
M  V30 20268 C 1932.11 3.18711 1.15225 0
M  V30 20269 C 1931.28 4.34206 0.527588 0
M  V30 20270 C 1930.34 5.04839 1.48406 0
M  V30 20271 O 1929.37 5.60416 0.996143 0
M  V30 20272 N 1930.57 5.075 2.81822 0
M  V30 20273 H 1933.34 2.92794 -0.639656 0
M  V30 20274 H 1930.9 1.54424 -0.486308 0
M  V30 20275 H 1932.89 3.62827 1.79272 0
M  V30 20276 H 1931.46 2.56595 1.78543 0
M  V30 20277 H 1930.68 3.93119 -0.291782 0
M  V30 20278 H 1931.97 5.08718 0.091139 0
M  V30 20279 H 1931.36 4.63703 3.24031 0
M  V30 20280 H 1929.92 5.55364 3.41195 0
M  V30 20281 N 1933.35 0.385544 1.52811 0
M  V30 20282 C 1934.29 -0.495455 2.22757 0
M  V30 20283 C 1935.27 -1.06709 1.22687 0
M  V30 20284 O 1936.45 -1.11944 1.5166 0
M  V30 20285 C 1933.58 -1.68545 2.93786 0
M  V30 20286 C 1932.62 -1.23942 4.08094 0
M  V30 20287 S 1933.46 -0.22408 5.35031 0
M  V30 20288 C 1934.61 -1.41995 6.0958 0
M  V30 20289 H 1934.84 0.0985156 2.97137 0
M  V30 20290 H 1932.38 0.169717 1.53464 0
M  V30 20291 H 1934.34 -2.36794 3.35319 0
M  V30 20292 H 1933 -2.25071 2.19093 0
M  V30 20293 H 1932.19 -2.12783 4.5688 0
M  V30 20294 H 1931.79 -0.635901 3.68554 0
M  V30 20295 H 1934.08 -2.34766 6.35524 0
M  V30 20296 H 1935.03 -0.973078 7.01382 0
M  V30 20297 H 1935.43 -1.63505 5.40302 0
M  V30 20298 N 1934.83 -1.57178 0.115259 0
M  V30 20299 C 1936.08 -1.95355 -0.54445 0
M  V30 20300 C 1936.41 -0.998445 -1.66567 0
M  V30 20301 O 1935.69 -0.0349993 -1.94469 0
M  V30 20302 C 1935.97 -3.43502 -1.08067 0
M  V30 20303 C 1935.82 -4.49785 0.0368794 0
M  V30 20304 C 1937.14 -3.9341 -1.97273 0
M  V30 20305 H 1934.26 -0.710338 -0.19644 0
M  V30 20306 H 1936.9 -1.89047 0.19006 0
M  V30 20307 H 1935.05 -3.49008 -1.70662 0
M  V30 20308 H 1936.72 -4.56379 0.672017 0
M  V30 20309 H 1934.97 -4.28106 0.700539 0
M  V30 20310 H 1935.64 -5.50694 -0.379481 0
M  V30 20311 H 1938.11 -3.90184 -1.44555 0
M  V30 20312 H 1936.99 -4.97596 -2.31711 0
M  V30 20313 H 1937.25 -3.33884 -2.89782 0
M  V30 20314 N 1936.31 0.158505 -1.56801 0
M  V30 20315 C 1937.54 0.892291 -1.87224 0
M  V30 20316 C 1937.96 1.74468 -0.703029 0
M  V30 20317 O 1937.32 1.77936 0.347649 0
M  V30 20318 C 1937.37 1.73433 -3.16154 0
M  V30 20319 O 1936.47 2.83736 -2.99279 0
M  V30 20320 H 1935.81 0.249214 -0.615458 0
M  V30 20321 H 1938.34 0.152785 -2.04029 0
M  V30 20322 H 1938.35 2.13168 -3.47884 0
M  V30 20323 H 1937.03 1.10831 -4.00861 0
M  V30 20324 H 1935.6 2.47491 -2.78931 0
M  V30 20325 N 1937.79 1.51692 0.427485 0
M  V30 20326 C 1939.01 1.68956 1.20285 0
M  V30 20327 C 1939.44 0.390472 1.84003 0
M  V30 20328 O 1938.8 -0.650352 1.69234 0
M  V30 20329 C 1938.85 2.81368 2.25532 0
M  V30 20330 O 1937.95 2.45657 3.3125 0
M  V30 20331 H 1937.29 0.56304 0.351969 0
M  V30 20332 H 1939.82 1.98306 0.503588 0
M  V30 20333 H 1939.83 3.05742 2.70158 0
M  V30 20334 H 1938.51 3.7563 1.78535 0
M  V30 20335 H 1937.08 2.31889 2.9203 0
M  V30 20336 N 1939.27 -0.683564 1.42004 0
M  V30 20337 C 1940.51 -1.44577 1.42216 0
M  V30 20338 C 1940.85 -1.94168 0.0352735 0
M  V30 20339 O 1940.12 -1.70331 -0.939023 0
M  V30 20340 C 1940.4 -2.64909 2.43916 0
M  V30 20341 C 1940.26 -2.21006 3.9176 0
M  V30 20342 C 1941.58 -3.6712 2.42716 0
M  V30 20343 H 1938.7 -0.524376 0.517879 0
M  V30 20344 H 1941.34 -0.777575 1.7336 0
M  V30 20345 H 1939.49 -3.21918 2.17489 0
M  V30 20346 H 1941.16 -1.69233 4.29136 0
M  V30 20347 H 1939.4 -1.52667 4.06048 0
M  V30 20348 H 1940.07 -3.07401 4.58485 0
M  V30 20349 H 1942.55 -3.1981 2.66197 0
M  V30 20350 H 1941.43 -4.48907 3.15869 0
M  V30 20351 H 1941.69 -4.17645 1.45 0
M  V30 20352 N 1940.75 -1.28031 -0.919012 0
M  V30 20353 C 1942.02 -1.05588 -1.64653 0
M  V30 20354 C 1942.4 0.406513 -2.07149 0
M  V30 20355 O 1941.75 1.39153 -1.81242 0
M  V30 20356 C 1941.96 -2.0256 -2.84202 0
M  V30 20357 C 1943.31 -2.32414 -3.55343 0
M  V30 20358 O 1944.33 -2.00602 -2.94342 0
M  V30 20359 O 1943.19 -2.86683 -4.65269 0
M  V30 20360 H 1940.29 -0.40316 -0.722074 0
M  V30 20361 H 1942.83 -1.3933 -0.968781 0
M  V30 20362 H 1941.6 -3.01146 -2.49853 0
M  V30 20363 H 1941.23 -1.69433 -3.59692 0
M  V30 20364 N 1942.22 1.12672 -1.10194 0
M  V30 20365 C 1943.47 1.84127 -0.842833 0
M  V30 20366 C 1943.8 1.8396 0.631594 0
M  V30 20367 O 1943.05 1.27871 1.48147 0
M  V30 20368 C 1943.35 3.31602 -1.33322 0
M  V30 20369 C 1943.02 3.51943 -2.81864 0
M  V30 20370 C 1941.68 3.57202 -3.22428 0
M  V30 20371 C 1944.03 3.59262 -3.77598 0
M  V30 20372 C 1941.36 3.67323 -4.57483 0
M  V30 20373 C 1943.71 3.70911 -5.12452 0
M  V30 20374 C 1942.38 3.74427 -5.52595 0
M  V30 20375 H 1941.65 0.673767 -0.308414 0
M  V30 20376 H 1944.29 1.32968 -1.3781 0
M  V30 20377 H 1942.6 3.85166 -0.717918 0
M  V30 20378 H 1944.3 3.85353 -1.10925 0
M  V30 20379 H 1940.89 3.4851 -2.49477 0
M  V30 20380 H 1945.07 3.54471 -3.47367 0
M  V30 20381 H 1940.33 3.68315 -4.88011 0
M  V30 20382 H 1944.5 3.75518 -5.8648 0
M  V30 20383 H 1942.13 3.82021 -6.5724 0
M  V30 20384 N 1943.7 0.89031 1.30043 0
M  V30 20385 C 1944.95 0.512208 1.96225 0
M  V30 20386 C 1945.28 -0.937287 1.70084 0
M  V30 20387 O 1944.56 -1.66309 1.00854 0
M  V30 20388 C 1944.84 0.794043 3.51236 0
M  V30 20389 C 1944.69 2.29456 3.86872 0
M  V30 20390 C 1946.01 0.274152 4.39245 0
M  V30 20391 H 1943.13 0.187568 0.712732 0
M  V30 20392 H 1945.77 1.11528 1.53823 0
M  V30 20393 H 1943.92 0.28077 3.87484 0
M  V30 20394 H 1945.59 2.87665 3.6062 0
M  V30 20395 H 1943.84 2.75907 3.34751 0
M  V30 20396 H 1944.51 2.44235 4.95029 0
M  V30 20397 H 1946.98 0.713535 4.09936 0
M  V30 20398 H 1945.86 0.500633 5.46612 0
M  V30 20399 H 1946.12 -0.824812 4.34338 0
M  V30 20400 N 1945.18 -1.43489 0.651812 0
M  V30 20401 C 1946.59 -1.85091 0.2446 0
M  V30 20402 C 1946.94 -1.54561 -1.20852 0
M  V30 20403 O 1946.07 -0.993885 -1.92226 0
M  V30 20404 C 1946.66 -3.35968 0.43715 0
M  V30 20405 C 1945.22 -3.76306 0.0842681 0
M  V30 20406 C 1944.37 -2.67225 0.740688 0
M  V30 20407 H 1947.32 -1.33662 0.855581 0
M  V30 20408 H 1947.34 -3.79171 -0.317766 0
M  V30 20409 H 1946.85 -3.58157 1.49484 0
M  V30 20410 H 1944.95 -3.59729 -0.970875 0
M  V30 20411 H 1945.07 -4.76391 0.508752 0
M  V30 20412 H 1943.43 -2.54105 0.174053 0
M  V30 20413 H 1944.21 -2.92242 1.80137 0
M  V30 20414 N 1946.66 -0.393643 -1.52605 0
M  V30 20415 C 1948.07 0.0794242 -1.86531 0
M  V30 20416 C 1948.42 1.45778 -1.31313 0
M  V30 20417 O 1947.54 2.06526 -0.646206 0
M  V30 20418 C 1948.14 0.150899 -3.38464 0
M  V30 20419 C 1946.7 0.568268 -3.72086 0
M  V30 20420 C 1945.85 -0.267031 -2.76011 0
M  V30 20421 H 1948.8 -0.611344 -1.46452 0
M  V30 20422 H 1948.82 0.969194 -3.6795 0
M  V30 20423 H 1948.33 -0.852425 -3.78623 0
M  V30 20424 H 1946.43 1.5788 -3.37498 0
M  V30 20425 H 1946.54 0.323405 -4.78007 0
M  V30 20426 H 1944.91 0.268347 -2.53282 0
M  V30 20427 H 1945.69 -1.26841 -3.19008 0
M  V30 20428 N 1948.14 1.57115 -0.123593 0
M  V30 20429 C 1949.07 2.11281 0.862306 0
M  V30 20430 C 1950.05 1.03036 1.25787 0
M  V30 20431 O 1951.23 1.3072 1.35811 0
M  V30 20432 C 1948.36 2.61329 2.15464 0
M  V30 20433 C 1947.4 3.81502 1.90679 0
M  V30 20434 S 1948.24 5.2368 1.11891 0
M  V30 20435 C 1949.39 5.771 2.42294 0
M  V30 20436 H 1949.63 2.94575 0.401603 0
M  V30 20437 H 1947.16 1.54136 0.0902687 0
M  V30 20438 H 1949.12 2.90818 2.89715 0
M  V30 20439 H 1947.78 1.78208 2.58651 0
M  V30 20440 H 1946.97 4.14685 2.86448 0
M  V30 20441 H 1946.57 3.52653 1.24547 0
M  V30 20442 H 1948.86 5.87105 3.38104 0
M  V30 20443 H 1949.81 6.751 2.13649 0
M  V30 20444 H 1950.22 5.05194 2.51871 0
M  V30 20445 N 1949.61 -0.150187 1.56883 0
M  V30 20446 C 1950.58 -1.16943 1.97122 0
M  V30 20447 C 1951.58 -1.36037 0.857354 0
M  V30 20448 O 1952.77 -1.33083 1.12403 0
M  V30 20449 C 1949.9 -2.53037 2.2844 0
M  V30 20450 H 1951.09 -0.824297 2.88349 0
M  V30 20451 H 1948.64 -0.393414 1.51268 0
M  V30 20452 H 1949.38 -2.92527 1.39994 0
M  V30 20453 H 1949.16 -2.4054 3.0965 0
M  V30 20454 H 1950.65 -3.26452 2.6042 0
M  V30 20455 N 1951.09 -1.51916 -0.419434 0
M  V30 20456 C 1952.06 -1.73908 -1.49293 0
M  V30 20457 C 1953.06 -0.60898 -1.48822 0
M  V30 20458 O 1954.25 -0.876745 -1.50528 0
M  V30 20459 C 1951.38 -1.812 -2.88755 0
M  V30 20460 H 1952.57 -2.69732 -1.3109 0
M  V30 20461 H 1950.12 -1.42176 -0.649274 0
M  V30 20462 H 1950.86 -0.872544 -3.12341 0
M  V30 20463 H 1950.64 -2.63348 -2.905 0
M  V30 20464 H 1952.13 -1.99992 -3.66596 0
M  V30 20465 N 1952.57 0.676023 -1.42365 0
M  V30 20466 C 1953.5 1.80165 -1.48536 0
M  V30 20467 C 1954.48 1.66625 -0.342049 0
M  V30 20468 O 1955.67 1.86065 -0.55619 0
M  V30 20469 C 1952.8 3.18451 -1.38586 0
M  V30 20470 C 1951.75 3.46724 -2.50931 0
M  V30 20471 C 1951.08 4.84572 -2.2604 0
M  V30 20472 C 1952.38 3.4374 -3.93243 0
M  V30 20473 H 1954.07 1.75258 -2.42745 0
M  V30 20474 H 1951.62 0.841756 -1.16835 0
M  V30 20475 H 1953.57 3.96929 -1.41511 0
M  V30 20476 H 1952.29 3.24033 -0.408703 0
M  V30 20477 H 1950.95 2.70607 -2.47321 0
M  V30 20478 H 1950.6 4.86802 -1.2662 0
M  V30 20479 H 1950.3 5.04452 -3.01334 0
M  V30 20480 H 1951.82 5.65336 -2.30712 0
M  V30 20481 H 1953.24 4.12189 -3.98463 0
M  V30 20482 H 1951.64 3.75155 -4.68379 0
M  V30 20483 H 1952.71 2.42337 -4.20001 0
M  V30 20484 N 1954.05 1.28517 0.912209 0
M  V30 20485 C 1954.96 1.14429 2.048 0
M  V30 20486 C 1955.97 0.0704926 1.73857 0
M  V30 20487 O 1957.15 0.280091 1.99443 0
M  V30 20488 C 1954.22 0.809034 3.37128 0
M  V30 20489 C 1953.28 1.96535 3.8167 0
M  V30 20490 C 1952.51 1.646 5.07684 0
M  V30 20491 O 1952.73 0.561072 5.67634 0
M  V30 20492 O 1951.67 2.49011 5.47975 0
M  V30 20493 H 1955.49 2.0978 2.19604 0
M  V30 20494 H 1953.08 1.0785 1.03387 0
M  V30 20495 H 1954.96 0.636082 4.16572 0
M  V30 20496 H 1953.63 -0.114812 3.23496 0
M  V30 20497 H 1952.54 2.19347 3.03047 0
M  V30 20498 H 1953.87 2.86996 3.99868 0
M  V30 20499 N 1955.53 -1.12086 1.1079 0
M  V30 20500 C 1956.44 -2.21514 0.772578 0
M  V30 20501 C 1957.45 -1.72454 -0.231462 0
M  V30 20502 O 1958.63 -2.01281 -0.0693074 0
M  V30 20503 C 1955.69 -3.46043 0.213364 0
M  V30 20504 C 1954.75 -4.09925 1.27515 0
M  V30 20505 C 1953.99 -5.28509 0.742524 0
M  V30 20506 O 1954.21 -5.68779 -0.429786 0
M  V30 20507 O 1953.14 -5.82802 1.50417 0
M  V30 20508 H 1956.97 -2.52596 1.68608 0
M  V30 20509 H 1954.56 -1.20492 0.883294 0
M  V30 20510 H 1956.44 -4.21294 -0.0944683 0
M  V30 20511 H 1955.11 -3.16628 -0.672947 0
M  V30 20512 H 1954.02 -3.36436 1.63589 0
M  V30 20513 H 1955.35 -4.43504 2.13461 0
M  V30 20514 N 1957 -0.897194 -1.29569 0
M  V30 20515 C 1957.95 -0.371435 -2.27792 0
M  V30 20516 C 1958.92 0.545087 -1.56901 0
M  V30 20517 O 1960.11 0.47087 -1.84899 0
M  V30 20518 C 1957.25 0.397236 -3.42806 0
M  V30 20519 C 1956.36 -0.549895 -4.28486 0
M  V30 20520 C 1955.49 0.23558 -5.30677 0
M  V30 20521 C 1954.53 -0.706236 -6.08012 0
M  V30 20522 N 1953.67 0.0446763 -7.02086 0
M  V30 20523 H 1958.51 -1.21414 -2.72145 0
M  V30 20524 H 1956.05 -0.610055 -1.33853 0
M  V30 20525 H 1958.01 0.858933 -4.08262 0
M  V30 20526 H 1956.64 1.20441 -2.99489 0
M  V30 20527 H 1955.69 -1.13011 -3.63226 0
M  V30 20528 H 1957 -1.27092 -4.82337 0
M  V30 20529 H 1956.15 0.758588 -6.01939 0
M  V30 20530 H 1954.89 0.989757 -4.77551 0
M  V30 20531 H 1953.9 -1.24077 -5.35617 0
M  V30 20532 H 1955.12 -1.4597 -6.63227 0
M  V30 20533 H 1953.07 0.781165 -6.51332 0
M  V30 20534 H 1952.99 -0.616488 -7.53482 0
M  V30 20535 H 1954.25 0.548029 -7.77571 0
M  V30 20536 N 1958.48 1.43142 -0.659413 0
M  V30 20537 C 1959.73 2.01341 -0.174987 0
M  V30 20538 C 1960.05 1.52322 1.21749 0
M  V30 20539 O 1959.32 0.738424 1.8145 0
M  V30 20540 H 1957.9 0.744447 -0.0617013 0
M  V30 20541 H 1960.56 1.75268 -0.852471 0
M  V30 20542 H 1959.66 3.11667 -0.164379 0
M  V30 20543 N 1959.96 0.40173 1.52394 0
M  V30 20544 C 1961.21 -0.177771 2.00915 0
M  V30 20545 C 1961.52 -1.46854 1.29203 0
M  V30 20546 O 1962.73 -2.12884 1.68501 0
M  V30 20547 C 1961.18 -0.367359 3.5802 0
M  V30 20548 C 1960.79 0.910882 4.38642 0
M  V30 20549 C 1962.54 -0.902552 4.14794 0
M  V30 20550 C 1960.44 0.688888 5.87374 0
M  V30 20551 H 1959.37 -0.0702091 0.750724 0
M  V30 20552 H 1962.02 0.52604 1.75798 0
M  V30 20553 H 1960.41 -1.13332 3.79436 0
M  V30 20554 H 1961.58 1.68242 4.28989 0
M  V30 20555 H 1959.9 1.37194 3.9315 0
M  V30 20556 H 1962.49 -1.08455 5.23585 0
M  V30 20557 H 1962.84 -1.87515 3.71677 0
M  V30 20558 H 1963.37 -0.19584 3.97318 0
M  V30 20559 H 1960.11 1.63284 6.34837 0
M  V30 20560 H 1959.63 -0.0434889 5.99784 0
M  V30 20561 H 1961.31 0.328207 6.46167 0
M  V30 20562 N 1961.44 -1.57047 0.131923 0
M  V30 20563 C 1962.37 -2.19006 -0.809859 0
M  V30 20564 C 1963.35 -1.13384 -1.26799 0
M  V30 20565 O 1964.53 -1.4167 -1.32827 0
M  V30 20566 C 1961.66 -2.79973 -2.05505 0
M  V30 20567 C 1960.62 -3.9129 -1.73424 0
M  V30 20568 C 1959.94 -4.39123 -3.05081 0
M  V30 20569 C 1961.24 -5.12783 -0.992535 0
M  V30 20570 H 1962.94 -2.97958 -0.293522 0
M  V30 20571 H 1960.48 -1.4332 -0.13974 0
M  V30 20572 H 1962.44 -3.2198 -2.71858 0
M  V30 20573 H 1961.16 -1.9833 -2.59486 0
M  V30 20574 H 1959.82 -3.49879 -1.09456 0
M  V30 20575 H 1959.47 -3.54322 -3.57022 0
M  V30 20576 H 1959.17 -5.14197 -2.84385 0
M  V30 20577 H 1960.69 -4.8379 -3.72531 0
M  V30 20578 H 1962.11 -5.51728 -1.55785 0
M  V30 20579 H 1960.5 -5.93522 -0.886062 0
M  V30 20580 H 1961.57 -4.84896 0.0184538 0
M  V30 20581 N 1962.92 0.141865 -1.5696 0
M  V30 20582 C 1964.16 0.853609 -1.83629 0
M  V30 20583 C 1964.49 1.80937 -0.713591 0
M  V30 20584 O 1963.75 1.93433 0.296981 0
M  V30 20585 C 1964.05 1.65717 -3.16658 0
M  V30 20586 C 1963.71 0.847748 -4.42859 0
M  V30 20587 C 1962.37 0.624458 -4.77131 0
M  V30 20588 C 1964.73 0.282029 -5.20436 0
M  V30 20589 C 1962.05 -0.175174 -5.86438 0
M  V30 20590 C 1964.41 -0.50467 -6.30584 0
M  V30 20591 C 1963.07 -0.738489 -6.63402 0
M  V30 20592 H 1962.34 0.312358 -0.671948 0
M  V30 20593 H 1964.99 0.117006 -1.91142 0
M  V30 20594 H 1963.29 2.46403 -3.04619 0
M  V30 20595 H 1964.99 2.21144 -3.34509 0
M  V30 20596 H 1961.58 1.03185 -4.15994 0
M  V30 20597 H 1965.76 0.441806 -4.9433 0
M  V30 20598 H 1961.02 -0.365778 -6.10305 0
M  V30 20599 H 1965.19 -0.950134 -6.89888 0
M  V30 20600 H 1962.82 -1.35995 -7.47937 0
M  V30 20601 N 1964.39 1.52136 0.411372 0
M  V30 20602 C 1965.62 1.6993 1.18031 0
M  V30 20603 C 1966.04 0.407806 1.84343 0
M  V30 20604 O 1965.39 -0.615981 1.7179 0
M  V30 20605 C 1965.45 2.83333 2.2451 0
M  V30 20606 O 1965.17 4.07482 1.60905 0
M  V30 20607 C 1966.67 3.12618 3.143 0
M  V30 20608 H 1963.89 0.569546 0.354765 0
M  V30 20609 H 1966.43 1.98683 0.484277 0
M  V30 20610 H 1964.59 2.57106 2.89785 0
M  V30 20611 H 1965 4.70657 2.31478 0
M  V30 20612 H 1966.47 3.95486 3.85091 0
M  V30 20613 H 1966.95 2.26078 3.76544 0
M  V30 20614 H 1967.56 3.40602 2.54697 0
M  V30 20615 N 1965.87 -0.668464 1.42721 0
M  V30 20616 C 1967.1 -1.46158 1.47148 0
M  V30 20617 C 1967.52 -1.87903 0.0860652 0
M  V30 20618 O 1966.88 -1.56406 -0.91689 0
M  V30 20619 C 1966.93 -2.68284 2.40949 0
M  V30 20620 O 1966.03 -3.66787 1.88522 0
M  V30 20621 H 1965.37 -0.438842 0.498311 0
M  V30 20622 H 1967.9 -0.819353 1.87477 0
M  V30 20623 H 1967.91 -3.1628 2.57742 0
M  V30 20624 H 1966.59 -2.3724 3.41599 0
M  V30 20625 H 1965.17 -3.25851 1.81315 0
M  V30 20626 N 1967.35 -1.28999 -0.905381 0
M  V30 20627 C 1968.76 -1.15033 -1.47052 0
M  V30 20628 C 1969.11 0.256623 -1.94514 0
M  V30 20629 O 1968.24 1.15164 -1.83211 0
M  V30 20630 C 1968.83 -2.08213 -2.67269 0
M  V30 20631 C 1967.39 -1.98286 -3.19937 0
M  V30 20632 C 1966.54 -1.99468 -1.92634 0
M  V30 20633 H 1969.49 -1.41566 -0.717271 0
M  V30 20634 H 1969.51 -1.65102 -3.42814 0
M  V30 20635 H 1969.02 -3.10604 -2.32695 0
M  V30 20636 H 1967.12 -0.98963 -3.59217 0
M  V30 20637 H 1967.24 -2.85666 -3.84619 0
M  V30 20638 H 1965.6 -1.43988 -2.10094 0
M  V30 20639 H 1966.38 -3.03554 -1.60344 0
M  V30 20640 N 1968.83 1.11497 -1.11383 0
M  V30 20641 C 1970.08 1.83222 -0.862314 0
M  V30 20642 C 1970.4 1.84619 0.612047 0
M  V30 20643 O 1969.66 1.29435 1.46782 0
M  V30 20644 C 1969.96 3.30169 -1.36832 0
M  V30 20645 C 1969.62 3.48933 -2.85581 0
M  V30 20646 C 1968.29 3.53762 -3.26199 0
M  V30 20647 C 1970.64 3.55237 -3.81387 0
M  V30 20648 C 1967.97 3.6245 -4.61353 0
M  V30 20649 C 1970.32 3.65455 -5.16358 0
M  V30 20650 C 1968.98 3.68544 -5.56535 0
M  V30 20651 H 1968.25 0.670458 -0.315543 0
M  V30 20652 H 1970.9 1.31499 -1.39213 0
M  V30 20653 H 1969.2 3.84383 -0.75873 0
M  V30 20654 H 1970.9 3.84154 -1.15006 0
M  V30 20655 H 1967.49 3.45844 -2.53159 0
M  V30 20656 H 1971.68 3.50767 -3.51107 0
M  V30 20657 H 1966.93 3.63118 -4.9189 0
M  V30 20658 H 1971.11 3.69276 -5.9043 0
M  V30 20659 H 1968.73 3.75029 -6.61255 0
M  V30 20660 N 1970.31 0.904053 1.29092 0
M  V30 20661 C 1971.55 0.532992 1.95671 0
M  V30 20662 C 1971.89 -0.919194 1.71069 0
M  V30 20663 O 1971.16 -1.6523 1.02612 0
M  V30 20664 C 1971.44 0.831252 3.50374 0
M  V30 20665 C 1971.3 2.33546 3.84417 0
M  V30 20666 C 1972.62 0.320724 4.3893 0
M  V30 20667 H 1969.74 0.195117 0.710703 0
M  V30 20668 H 1972.38 1.13153 1.52632 0
M  V30 20669 H 1970.53 0.321853 3.87165 0
M  V30 20670 H 1972.2 2.91473 3.57549 0
M  V30 20671 H 1970.44 2.79442 3.31805 0
M  V30 20672 H 1971.11 2.49471 4.9241 0
M  V30 20673 H 1973.59 0.756974 4.09157 0
M  V30 20674 H 1972.47 0.55858 5.4605 0
M  V30 20675 H 1972.73 -0.778699 4.35188 0
M  V30 20676 N 1971.79 -1.4279 0.666995 0
M  V30 20677 C 1972.72 -2.335 -0.00234362 0
M  V30 20678 C 1973.7 -1.50244 -0.797537 0
M  V30 20679 O 1974.88 -1.7887 -0.756257 0
M  V30 20680 C 1972.01 -3.33774 -0.959795 0
M  V30 20681 C 1970.97 -4.27124 -0.273749 0
M  V30 20682 C 1970.29 -5.17544 -1.3436 0
M  V30 20683 C 1971.59 -5.15462 0.842411 0
M  V30 20684 H 1973.29 -2.89719 0.755212 0
M  V30 20685 H 1970.83 -1.39307 0.364622 0
M  V30 20686 H 1972.78 -3.96139 -1.43707 0
M  V30 20687 H 1971.51 -2.75842 -1.74868 0
M  V30 20688 H 1970.17 -3.66142 0.18321 0
M  V30 20689 H 1969.82 -4.55943 -2.12427 0
M  V30 20690 H 1969.52 -5.80825 -0.889738 0
M  V30 20691 H 1971.04 -5.82784 -1.82196 0
M  V30 20692 H 1972.45 -5.71557 0.4467 0
M  V30 20693 H 1970.85 -5.87535 1.22158 0
M  V30 20694 H 1971.92 -4.54327 1.69454 0
M  V30 20695 N 1973.26 -0.409806 -1.52179 0
M  V30 20696 C 1974.23 0.40345 -2.25621 0
M  V30 20697 C 1975.23 0.973072 -1.28015 0
M  V30 20698 O 1976.42 0.851845 -1.51951 0
M  V30 20699 C 1973.55 1.568 -3.02699 0
M  V30 20700 H 1974.74 -0.239822 -2.9894 0
M  V30 20701 H 1972.29 -0.162341 -1.55455 0
M  V30 20702 H 1973.03 2.24811 -2.33731 0
M  V30 20703 H 1972.81 1.16603 -3.74361 0
M  V30 20704 H 1974.3 2.14326 -3.58405 0
M  V30 20705 N 1974.74 1.56975 -0.14025 0
M  V30 20706 C 1975.97 2.00699 0.522938 0
M  V30 20707 C 1976.39 1.01964 1.58066 0
M  V30 20708 O 1975.75 -0.0056107 1.81299 0
M  V30 20709 C 1975.8 3.43203 1.10653 0
M  V30 20710 O 1974.9 3.47447 2.22159 0
M  V30 20711 H 1974.24 0.65143 0.12859 0
M  V30 20712 H 1976.77 2.03246 -0.234993 0
M  V30 20713 H 1976.78 3.81862 1.43686 0
M  V30 20714 H 1975.46 4.14573 0.331913 0
M  V30 20715 H 1974.03 3.20625 1.90405 0
M  V30 20716 N 1976.22 -0.133539 1.57033 0
M  V30 20717 C 1977.45 -0.858432 1.88251 0
M  V30 20718 C 1977.86 -1.74119 0.729935 0
M  V30 20719 O 1977.22 -1.8002 -0.29983 0
M  V30 20720 C 1977.27 -1.70397 3.18821 0
M  V30 20721 O 1976.99 -0.856775 4.29641 0
M  V30 20722 C 1978.49 -2.53529 3.63646 0
M  V30 20723 H 1975.71 -0.247538 0.623671 0
M  V30 20724 H 1978.26 -0.122289 2.04134 0
M  V30 20725 H 1976.41 -2.39303 3.04652 0
M  V30 20726 H 1976.83 -1.43857 5.04386 0
M  V30 20727 H 1978.3 -3.0841 4.57807 0
M  V30 20728 H 1978.78 -3.30204 2.89589 0
M  V30 20729 H 1979.38 -1.89891 3.80554 0
M  V30 20730 N 1977.7 -1.52352 -0.403298 0
M  V30 20731 C 1978.65 -1.76731 -1.51224 0
M  V30 20732 C 1979.64 -0.634655 -1.57062 0
M  V30 20733 O 1980.85 -0.816829 -1.60399 0
M  V30 20734 H 1977.22 -0.558976 -0.503041 0
M  V30 20735 H 1979.19 -2.69624 -1.2785 0
M  V30 20736 C 1977.94 -1.94029 -2.88527 0
M  V30 20737 H 1977.26 -2.80607 -2.8478 0
M  V30 20738 H 1978.7 -2.15084 -3.65397 0
M  V30 20739 C 1977.16 -0.708949 -3.29356 0
M  V30 20740 O 1977.69 0.12042 -4.01519 0
M  V30 20741 N 1975.9 -0.543167 -2.85479 0
M  V30 20742 H 1975.45 -1.21919 -2.26922 0
M  V30 20743 H 1975.4 0.279391 -3.13156 0
M  V30 20744 N 1979.18 0.660885 -1.43074 0
M  V30 20745 C 1980.14 1.75586 -1.47317 0
M  V30 20746 C 1981.14 1.56744 -0.358871 0
M  V30 20747 O 1982.33 1.62782 -0.620299 0
M  V30 20748 C 1979.46 3.14377 -1.31833 0
M  V30 20749 H 1980.65 1.73207 -2.44825 0
M  V30 20750 H 1978.21 0.871828 -1.29726 0
M  V30 20751 H 1978.94 3.22373 -0.353027 0
M  V30 20752 H 1978.73 3.29457 -2.12604 0
M  V30 20753 H 1980.22 3.94238 -1.37718 0
M  V30 20754 N 1980.65 1.29477 0.898527 0
M  V30 20755 C 1981.9 1.17284 1.64587 0
M  V30 20756 C 1982.22 -0.275718 1.93041 0
M  V30 20757 O 1981.49 -1.18847 1.55731 0
M  V30 20758 H 1980.07 0.431068 0.610073 0
M  V30 20759 H 1982.74 1.62419 1.07732 0
M  V30 20760 H 1981.83 1.72375 2.60179 0
M  V30 20761 N 1982.13 -1.10905 1.11972 0
M  V30 20762 C 1983.36 -1.87095 0.894991 0
M  V30 20763 C 1983.78 -1.79875 -0.550144 0
M  V30 20764 O 1983.14 -1.16517 -1.38901 0
M  V30 20765 C 1983.19 -3.33634 1.36825 0
M  V30 20766 O 1982.29 -4.08802 0.543553 0
M  V30 20767 H 1981.63 -0.580734 0.321938 0
M  V30 20768 H 1984.16 -1.40152 1.49059 0
M  V30 20769 H 1984.17 -3.84482 1.36519 0
M  V30 20770 H 1982.85 -3.38205 2.42054 0
M  V30 20771 H 1981.43 -3.67824 0.613185 0
M  V30 20772 N 1983.61 -0.910886 -1.2861 0
M  V30 20773 C 1984.86 -0.53847 -1.94379 0
M  V30 20774 C 1985.17 0.92185 -1.72515 0
M  V30 20775 O 1986.38 1.40229 -2.32482 0
M  V30 20776 C 1984.83 -0.91216 -3.48149 0
M  V30 20777 C 1984.44 -2.39201 -3.78796 0
M  V30 20778 C 1986.19 -0.610192 -4.20092 0
M  V30 20779 C 1984.09 -2.70598 -5.25862 0
M  V30 20780 H 1983.02 -0.197657 -0.727632 0
M  V30 20781 H 1985.67 -1.10941 -1.46165 0
M  V30 20782 H 1984.06 -0.270034 -3.95078 0
M  V30 20783 H 1985.23 -3.08063 -3.42686 0
M  V30 20784 H 1983.55 -2.66414 -3.20019 0
M  V30 20785 H 1986.14 -0.821472 -5.28352 0
M  V30 20786 H 1986.49 0.451862 -4.1384 0
M  V30 20787 H 1987.02 -1.21066 -3.7893 0
M  V30 20788 H 1983.76 -3.75645 -5.37188 0
M  V30 20789 H 1983.28 -2.0637 -5.6318 0
M  V30 20790 H 1984.96 -2.57451 -5.93572 0
M  V30 20791 N 1985.09 1.42434 -0.674558 0
M  V30 20792 C 1986.04 2.32595 0.0155851 0
M  V30 20793 C 1987.03 1.49809 0.790806 0
M  V30 20794 O 1988.24 1.65882 0.698798 0
M  V30 20795 H 1984.61 0.751622 0.0238347 0
M  V30 20796 H 1986.58 2.88501 -0.762224 0
M  V30 20797 C 1985.33 3.34379 0.953202 0
M  V30 20798 H 1984.65 3.9812 0.366105 0
M  V30 20799 H 1986.09 4.00052 1.40479 0
M  V30 20800 C 1984.55 2.66623 2.05946 0
M  V30 20801 O 1985.08 2.49795 3.14588 0
M  V30 20802 N 1983.29 2.25652 1.83111 0
M  V30 20803 H 1982.84 2.39538 0.947593 0
M  V30 20804 H 1982.79 1.80649 2.57319 0
M  V30 20805 N 1986.57 0.417871 1.51959 0
M  V30 20806 C 1987.53 -0.391479 2.25832 0
M  V30 20807 C 1988.53 -0.96627 1.2853 0
M  V30 20808 O 1989.72 -0.843774 1.52401 0
M  V30 20809 C 1986.85 -1.55192 3.03526 0
M  V30 20810 H 1988.04 0.255672 2.98808 0
M  V30 20811 H 1985.6 0.170583 1.55366 0
M  V30 20812 H 1986.33 -2.23569 2.3492 0
M  V30 20813 H 1986.12 -1.14616 3.74974 0
M  V30 20814 H 1987.61 -2.12422 3.59537 0
M  V30 20815 N 1988.04 -1.56898 0.148573 0
M  V30 20816 C 1989.46 -1.82957 -0.371991 0
M  V30 20817 C 1989.81 -1.06735 -1.64627 0
M  V30 20818 O 1988.93 -0.313128 -2.14123 0
M  V30 20819 C 1989.53 -3.31871 -0.681682 0
M  V30 20820 C 1988.09 -3.58506 -1.14676 0
M  V30 20821 C 1987.23 -2.76774 -0.170675 0
M  V30 20822 H 1990.18 -1.54248 0.373244 0
M  V30 20823 H 1990.2 -3.48112 -1.53618 0
M  V30 20824 H 1989.72 -3.8732 0.245938 0
M  V30 20825 H 1987.82 -3.08445 -2.09027 0
M  V30 20826 H 1987.93 -4.66961 -1.07165 0
M  V30 20827 H 1986.29 -2.45903 -0.663611 0
M  V30 20828 H 1987.08 -3.34995 0.750563 0
M  V30 20829 N 1989.52 0.125209 -1.57102 0
M  V30 20830 C 1990.75 0.848436 -1.88704 0
M  V30 20831 C 1991.17 1.73729 -0.739158 0
M  V30 20832 O 1990.52 1.80177 0.290278 0
M  V30 20833 C 1990.57 1.68704 -3.1972 0
M  V30 20834 O 1990.29 0.833978 -4.30089 0
M  V30 20835 C 1991.8 2.51596 -3.64985 0
M  V30 20836 H 1989.02 0.244227 -0.624975 0
M  V30 20837 H 1991.56 0.111462 -2.04196 0
M  V30 20838 H 1989.71 2.37684 -3.05917 0
M  V30 20839 H 1990.13 1.4118 -5.05142 0
M  V30 20840 H 1991.6 3.05978 -4.59436 0
M  V30 20841 H 1992.08 3.28664 -2.91336 0
M  V30 20842 H 1992.69 1.8787 -3.81556 0
M  V30 20843 N 1991 1.52564 0.395213 0
M  V30 20844 C 1992.25 1.67552 1.14254 0
M  V30 20845 C 1992.58 0.411135 1.89798 0
M  V30 20846 O 1991.85 -0.590891 1.85307 0
M  V30 20847 C 1992.14 2.90657 2.1258 0
M  V30 20848 C 1991.99 4.27181 1.40841 0
M  V30 20849 C 1993.31 3.09301 3.13083 0
M  V30 20850 H 1990.43 0.609735 0.413995 0
M  V30 20851 H 1993.07 1.85148 0.426634 0
M  V30 20852 H 1991.22 2.75787 2.73631 0
M  V30 20853 H 1992.89 4.53808 0.82802 0
M  V30 20854 H 1991.14 4.27946 0.71028 0
M  V30 20855 H 1991.81 5.09393 2.12656 0
M  V30 20856 H 1994.28 3.23162 2.62118 0
M  V30 20857 H 1993.16 3.96925 3.79133 0
M  V30 20858 H 1993.42 2.23237 3.81599 0
M  V30 20859 N 1992.48 -0.653289 1.43422 0
M  V30 20860 C 1993.7 -1.4459 1.4869 0
M  V30 20861 C 1994.13 -1.87801 0.10599 0
M  V30 20862 O 1993.49 -1.5737 -0.90025 0
M  V30 20863 C 1993.53 -2.65713 2.43781 0
M  V30 20864 O 1992.64 -3.64767 1.92402 0
M  V30 20865 H 1991.98 -0.433532 0.502938 0
M  V30 20866 H 1994.51 -0.799423 1.88336 0
M  V30 20867 H 1994.52 -3.13528 2.61082 0
M  V30 20868 H 1993.19 -2.33604 3.44096 0
M  V30 20869 H 1991.77 -3.2391 1.84761 0
M  V30 20870 N 1993.96 -1.29952 -0.891648 0
M  V30 20871 C 1995.23 -1.09057 -1.62376 0
M  V30 20872 C 1995.61 0.362482 -2.07965 0
M  V30 20873 O 1994.96 1.35277 -1.84153 0
M  V30 20874 C 1995.17 -2.08543 -2.79841 0
M  V30 20875 C 1996.52 -2.39899 -3.50333 0
M  V30 20876 O 1997.54 -2.06801 -2.90021 0
M  V30 20877 O 1996.4 -2.96487 -4.59083 0
M  V30 20878 H 1993.5 -0.418386 -0.71336 0
M  V30 20879 H 1996.04 -1.41353 -0.939009 0
M  V30 20880 H 1994.81 -3.06378 -2.43409 0
M  V30 20881 H 1994.44 -1.77024 -3.56017 0
M  V30 20882 N 1995.44 1.1031 -1.12559 0
M  V30 20883 C 1996.66 1.86618 -0.9049 0
M  V30 20884 C 1997.09 1.80164 0.540597 0
M  V30 20885 O 1996.44 1.17252 1.38281 0
M  V30 20886 C 1996.49 3.32903 -1.38592 0
M  V30 20887 O 1995.6 4.08508 -0.565225 0
M  V30 20888 H 1994.94 0.579019 -0.325013 0
M  V30 20889 H 1997.47 1.39359 -1.498 0
M  V30 20890 H 1997.48 3.83753 -1.38556 0
M  V30 20891 H 1996.15 3.36917 -2.43844 0
M  V30 20892 H 1994.73 3.67494 -0.632682 0
M  V30 20893 N 1996.91 0.917694 1.28125 0
M  V30 20894 C 1998.33 0.616431 1.47215 0
M  V30 20895 C 1998.53 -0.837161 1.83286 0
M  V30 20896 O 1997.59 -1.61591 1.94022 0
M  V30 20897 C 1998.9 1.55772 2.57207 0
M  V30 20898 C 2000.45 1.56486 2.71074 0
M  V30 20899 C 2000.92 2.49286 3.84214 0
M  V30 20900 N 2002.41 2.47436 3.91573 0
M  V30 20901 C 2003.15 3.15936 4.7851 0
M  V30 20902 N 2002.64 3.9378 5.70008 0
M  V30 20903 N 2004.44 3.05004 4.72154 0
M  V30 20904 H 1996.59 1.85758 1.02993 0
M  V30 20905 H 1998.85 0.796969 0.513366 0
M  V30 20906 H 1998.56 2.59423 2.37471 0
M  V30 20907 H 1998.43 1.2918 3.5439 0
M  V30 20908 H 2000.82 0.535708 2.90197 0
M  V30 20909 H 2000.9 1.87122 1.7441 0
M  V30 20910 H 2000.54 3.52306 3.65846 0
M  V30 20911 H 2000.47 2.1595 4.80284 0
M  V30 20912 H 2002.96 1.90893 3.26141 0
M  V30 20913 H 2003.28 4.43058 6.33182 0
M  V30 20914 H 2001.62 3.97885 5.69836 0
M  V30 20915 H 2004.81 2.4369 3.99666 0
M  V30 20916 H 2004.99 3.5866 5.39691 0
M  V30 20917 N 1998.39 -1.42074 0.682102 0
M  V30 20918 C 1999.35 -2.29193 0.0174256 0
M  V30 20919 C 2000.35 -1.43698 -0.721635 0
M  V30 20920 O 2001.54 -1.65003 -0.558542 0
M  V30 20921 C 1998.68 -3.26332 -0.985903 0
M  V30 20922 H 1999.87 -2.89462 0.784316 0
M  V30 20923 H 1997.42 -1.49836 0.44485 0
M  V30 20924 H 1998.16 -2.71016 -1.78103 0
M  V30 20925 H 1997.94 -3.89401 -0.459258 0
M  V30 20926 H 1999.43 -3.91649 -1.44918 0
M  V30 20927 N 1999.87 -0.425924 -1.51735 0
M  V30 20928 C 2000.8 0.382011 -2.30354 0
M  V30 20929 C 2001.78 1.03124 -1.35276 0
M  V30 20930 O 2002.97 1.03705 -1.64191 0
M  V30 20931 C 2000.1 1.48978 -3.13724 0
M  V30 20932 C 1999.05 0.964659 -4.16987 0
M  V30 20933 C 1998.38 2.1673 -4.88807 0
M  V30 20934 C 1999.68 0.00700314 -5.223 0
M  V30 20935 H 2001.37 -0.274043 -2.98143 0
M  V30 20936 H 1998.92 -0.133238 -1.43382 0
M  V30 20937 H 2000.87 2.06211 -3.67498 0
M  V30 20938 H 1999.59 2.17396 -2.43735 0
M  V30 20939 H 1998.25 0.414618 -3.64248 0
M  V30 20940 H 1997.9 2.83741 -4.15331 0
M  V30 20941 H 1997.6 1.82239 -5.58626 0
M  V30 20942 H 1999.12 2.74538 -5.454 0
M  V30 20943 H 2000.54 0.488665 -5.71214 0
M  V30 20944 H 1998.93 -0.249924 -5.99579 0
M  V30 20945 H 2000 -0.933195 -4.75836 0
M  V30 20946 N 2001.35 1.56817 -0.156891 0
M  V30 20947 C 2002.31 2.16058 0.764967 0
M  V30 20948 C 2003.31 1.10488 1.16829 0
M  V30 20949 O 2004.5 1.36077 1.0876 0
M  V30 20950 C 2001.63 2.73173 2.03935 0
M  V30 20951 H 2002.83 2.98861 0.249482 0
M  V30 20952 H 2000.38 1.56025 0.0926074 0
M  V30 20953 H 2001.11 1.94064 2.59827 0
M  V30 20954 H 2000.9 3.50417 1.75926 0
M  V30 20955 H 2002.39 3.18783 2.69754 0
M  V30 20956 N 2002.83 -0.116876 1.57166 0
M  V30 20957 C 2004.24 -0.470473 1.52508 0
M  V30 20958 C 2004.44 -1.8174 0.870224 0
M  V30 20959 O 2003.5 -2.48395 0.453461 0
M  V30 20960 C 2004.81 -0.453012 2.97268 0
M  V30 20961 C 2006.36 -0.536413 3.08369 0
M  V30 20962 C 2006.83 -0.549319 4.54694 0
M  V30 20963 N 2008.32 -0.610698 4.59157 0
M  V30 20964 C 2009.06 -0.642166 5.69793 0
M  V30 20965 N 2008.56 -0.631152 6.89919 0
M  V30 20966 N 2010.35 -0.685335 5.57906 0
M  V30 20967 H 2002.5 0.765638 1.98121 0
M  V30 20968 H 2004.76 0.282662 0.904879 0
M  V30 20969 H 2004.47 0.469074 3.48558 0
M  V30 20970 H 2004.34 -1.28004 3.54817 0
M  V30 20971 H 2006.73 -1.44892 2.57081 0
M  V30 20972 H 2006.81 0.318339 2.53811 0
M  V30 20973 H 2006.45 0.35915 5.06629 0
M  V30 20974 H 2006.38 -1.42098 5.07066 0
M  V30 20975 H 2008.88 -0.625287 3.72691 0
M  V30 20976 H 2009.19 -0.657846 7.69995 0
M  V30 20977 H 2007.53 -0.598543 6.92418 0
M  V30 20978 H 2010.72 -0.691318 4.62967 0
M  V30 20979 H 2010.9 -0.706392 6.44138 0
M  V30 20980 N 2004.3 -1.52772 -0.387116 0
M  V30 20981 C 2005.72 -1.42064 -0.727316 0
M  V30 20982 C 2005.92 -0.542559 -1.94058 0
M  V30 20983 O 2004.98 -0.0167267 -2.52494 0
M  V30 20984 C 2006.29 -2.84942 -0.960651 0
M  V30 20985 C 2007.84 -2.94432 -1.06201 0
M  V30 20986 C 2008.31 -4.38326 -1.32796 0
M  V30 20987 N 2009.8 -4.41659 -1.39613 0
M  V30 20988 C 2010.54 -5.50081 -1.6186 0
M  V30 20989 N 2010.03 -6.68585 -1.81566 0
M  V30 20990 N 2011.83 -5.37627 -1.64055 0
M  V30 20991 H 2003.98 -2.08382 0.411202 0
M  V30 20992 H 2006.24 -0.940144 0.121792 0
M  V30 20993 H 2005.95 -3.51416 -0.141246 0
M  V30 20994 H 2005.82 -3.27309 -1.87479 0
M  V30 20995 H 2008.21 -2.28125 -1.87198 0
M  V30 20996 H 2008.29 -2.55491 -0.125731 0
M  V30 20997 H 2007.93 -5.05199 -0.523081 0
M  V30 20998 H 2007.86 -4.74821 -2.27711 0
M  V30 20999 H 2010.35 -3.56245 -1.26086 0
M  V30 21000 H 2010.67 -7.4699 -1.98053 0
M  V30 21001 H 2009.01 -6.7161 -1.78786 0
M  V30 21002 H 2012.2 -4.44016 -1.48213 0
M  V30 21003 H 2012.38 -6.22193 -1.81053 0
M  V30 21004 N 2005.78 0.645673 -1.43767 0
M  V30 21005 C 2007.03 1.40547 -1.45783 0
M  V30 21006 C 2007.36 1.94314 -0.0849322 0
M  V30 21007 O 2006.61 1.73193 0.911191 0
M  V30 21008 C 2006.91 2.59872 -2.45359 0
M  V30 21009 C 2006.58 2.2448 -3.91049 0
M  V30 21010 C 2005.24 2.1454 -4.30728 0
M  V30 21011 C 2007.59 1.9628 -4.82829 0
M  V30 21012 C 2004.92 1.74567 -5.60128 0
M  V30 21013 C 2007.27 1.57804 -6.12602 0
M  V30 21014 C 2005.93 1.46395 -6.51249 0
M  V30 21015 H 2005.2 0.5143 -0.533458 0
M  V30 21016 H 2007.85 0.733575 -1.76892 0
M  V30 21017 H 2006.16 3.32229 -2.07681 0
M  V30 21018 H 2007.85 3.1809 -2.44171 0
M  V30 21019 H 2004.44 2.33129 -3.59651 0
M  V30 21020 H 2008.63 2.02877 -4.5294 0
M  V30 21021 H 2003.88 1.64326 -5.88903 0
M  V30 21022 H 2008.06 1.35018 -6.83186 0
M  V30 21023 H 2005.68 1.15193 -7.51422 0
M  V30 21024 N 2007.26 1.30423 0.884744 0
M  V30 21025 C 2008.21 1.13434 1.97779 0
M  V30 21026 C 2009.19 0.0494483 1.60824 0
M  V30 21027 O 2010.39 0.272793 1.74885 0
M  V30 21028 C 2007.51 0.828489 3.33153 0
M  V30 21029 C 2006.6 1.95365 3.76422 0
M  V30 21030 N 2006.99 3.19903 3.91785 0
M  V30 21031 C 2005.29 1.85007 4.05818 0
M  V30 21032 C 2005.99 3.93408 4.28492 0
M  V30 21033 N 2004.97 3.2146 4.38366 0
M  V30 21034 H 2008.77 2.07889 2.07748 0
M  V30 21035 H 2006.28 1.21765 1.07457 0
M  V30 21036 H 2008.28 0.687799 4.11187 0
M  V30 21037 H 2006.94 -0.107985 3.2452 0
M  V30 21038 H 2007.95 3.55189 3.7691 0
M  V30 21039 H 2004.63 0.987286 4.05659 0
M  V30 21040 H 2006.02 5.00656 4.48099 0
M  V30 21041 N 2008.74 -1.09711 1.13142 0
M  V30 21042 C 2009.98 -1.81827 0.891354 0
M  V30 21043 C 2010.31 -1.8557 -0.582598 0
M  V30 21044 O 2009.57 -1.31754 -1.44704 0
M  V30 21045 C 2009.87 -3.27951 1.42067 0
M  V30 21046 C 2009.53 -3.44346 2.91096 0
M  V30 21047 C 2008.19 -3.48528 3.31786 0
M  V30 21048 C 2010.55 -3.49124 3.86991 0
M  V30 21049 C 2007.87 -3.55064 4.67061 0
M  V30 21050 C 2010.23 -3.57194 5.22106 0
M  V30 21051 C 2008.89 -3.59644 5.62328 0
M  V30 21052 H 2008.16 -0.665353 0.32617 0
M  V30 21053 H 2010.81 -1.29268 1.41287 0
M  V30 21054 H 2009.11 -3.83128 0.819786 0
M  V30 21055 H 2010.81 -3.82276 1.21103 0
M  V30 21056 H 2007.4 -3.41773 2.58629 0
M  V30 21057 H 2011.58 -3.45136 3.56643 0
M  V30 21058 H 2006.84 -3.55246 4.97604 0
M  V30 21059 H 2011.01 -3.59836 5.9623 0
M  V30 21060 H 2008.64 -3.64461 6.67137 0
M  V30 21061 N 2010.22 -0.924476 -1.27637 0
M  V30 21062 C 2011.49 -0.481742 -1.89575 0
M  V30 21063 C 2011.87 1.04002 -1.83703 0
M  V30 21064 O 2011.22 1.89277 -1.28009 0
M  V30 21065 C 2011.43 -1.02419 -3.33633 0
M  V30 21066 C 2012.78 -1.08274 -4.10563 0
M  V30 21067 O 2013.8 -0.97359 -3.42636 0
M  V30 21068 O 2012.66 -1.25042 -5.32003 0
M  V30 21069 H 2009.76 -0.15444 -0.812451 0
M  V30 21070 H 2012.3 -1.01596 -1.35928 0
M  V30 21071 H 2011.07 -2.06808 -3.32184 0
M  V30 21072 H 2010.7 -0.471435 -3.94795 0
M  V30 21073 N 2011.69 1.41711 -0.689627 0
M  V30 21074 C 2012.63 2.2818 0.0298794 0
M  V30 21075 C 2013.61 1.41901 0.793909 0
M  V30 21076 O 2014.79 1.71333 0.785962 0
M  V30 21077 C 2011.92 3.22025 1.04965 0
M  V30 21078 C 2010.96 4.24808 0.379483 0
M  V30 21079 S 2011.8 5.28323 -0.873793 0
M  V30 21080 C 2012.95 6.25733 0.144532 0
M  V30 21081 H 2013.18 2.88856 -0.703531 0
M  V30 21082 H 2010.72 1.4676 -0.479687 0
M  V30 21083 H 2012.68 3.76626 1.63288 0
M  V30 21084 H 2011.34 2.60457 1.7556 0
M  V30 21085 H 2010.53 4.90717 1.14947 0
M  V30 21086 H 2010.13 3.73772 -0.130522 0
M  V30 21087 H 2012.42 6.70084 0.999673 0
M  V30 21088 H 2013.37 7.06468 -0.480474 0
M  V30 21089 H 2013.77 5.62311 0.496647 0
M  V30 21090 N 2013.17 0.433965 1.51507 0
M  V30 21091 C 2014.12 -0.393604 2.29246 0
M  V30 21092 C 2015.11 -1.02389 1.34955 0
M  V30 21093 O 2016.32 -0.959241 1.52311 0
M  V30 21094 H 2012.7 -0.14574 0.737742 0
M  V30 21095 H 2014.67 0.282942 2.97056 0
M  V30 21096 C 2013.42 -1.48425 3.14428 0
M  V30 21097 H 2012.74 -1.00862 3.86868 0
M  V30 21098 H 2014.18 -2.03662 3.71884 0
M  V30 21099 C 2012.64 -2.46561 2.29585 0
M  V30 21100 O 2013.17 -3.5102 1.95315 0
M  V30 21101 N 2011.37 -2.17368 1.92872 0
M  V30 21102 H 2010.92 -1.3245 2.20941 0
M  V30 21103 H 2010.88 -2.8327 1.36402 0
M  V30 21104 N 2014.65 -1.56732 0.165206 0
M  V30 21105 C 2015.9 -1.95872 -0.481368 0
M  V30 21106 C 2016.21 -1.05357 -1.64801 0
M  V30 21107 O 2017.42 -1.34152 -2.36041 0
M  V30 21108 C 2015.87 -3.48264 -0.907766 0
M  V30 21109 C 2015.48 -4.47394 0.232939 0
M  V30 21110 C 2017.23 -3.96235 -1.5231 0
M  V30 21111 C 2015.13 -5.91017 -0.212747 0
M  V30 21112 H 2014.06 -0.731304 -0.183605 0
M  V30 21113 H 2016.71 -1.81755 0.252461 0
M  V30 21114 H 2015.1 -3.57777 -1.69739 0
M  V30 21115 H 2016.27 -4.49591 1.01018 0
M  V30 21116 H 2014.59 -4.09446 0.757843 0
M  V30 21117 H 2017.18 -5.0099 -1.8685 0
M  V30 21118 H 2017.53 -3.38822 -2.41879 0
M  V30 21119 H 2018.06 -3.89713 -0.798029 0
M  V30 21120 H 2014.8 -6.52289 0.648008 0
M  V30 21121 H 2014.32 -5.92141 -0.955479 0
M  V30 21122 H 2016 -6.43638 -0.658675 0
M  V30 21123 N 2016.13 0.10854 -1.57226 0
M  V30 21124 C 2017.04 1.15125 -2.0441 0
M  V30 21125 C 2018.05 1.44693 -0.966436 0
M  V30 21126 O 2019.23 1.55601 -1.27868 0
M  V30 21127 C 2016.3 2.45528 -2.44779 0
M  V30 21128 C 2015.36 2.23263 -3.66677 0
M  V30 21129 C 2014.59 3.47448 -4.05112 0
M  V30 21130 O 2014.81 4.55164 -3.43776 0
M  V30 21131 O 2013.75 3.37831 -4.9815 0
M  V30 21132 H 2017.57 0.780533 -2.93498 0
M  V30 21133 H 2015.16 0.320091 -1.45931 0
M  V30 21134 H 2017.04 3.22339 -2.71432 0
M  V30 21135 H 2015.71 2.82052 -1.58834 0
M  V30 21136 H 2014.62 1.44276 -3.4516 0
M  V30 21137 H 2015.95 1.91638 -4.53361 0
M  V30 21138 N 2017.61 1.52975 0.379009 0
M  V30 21139 C 2018.85 1.68755 1.12471 0
M  V30 21140 C 2019.19 0.431242 1.89351 0
M  V30 21141 O 2018.46 -0.571204 1.85923 0
M  V30 21142 C 2018.74 2.92896 2.09485 0
M  V30 21143 C 2018.6 4.28651 1.36302 0
M  V30 21144 C 2019.92 3.12604 3.09785 0
M  V30 21145 H 2017.03 0.614092 0.407504 0
M  V30 21146 H 2019.68 1.8559 0.406972 0
M  V30 21147 H 2017.83 2.78673 2.70691 0
M  V30 21148 H 2019.5 4.54661 0.779841 0
M  V30 21149 H 2017.74 4.28675 0.664851 0
M  V30 21150 H 2018.41 5.1162 2.07241 0
M  V30 21151 H 2020.89 3.25924 2.58675 0
M  V30 21152 H 2019.76 4.00924 3.74901 0
M  V30 21153 H 2020.03 2.27272 3.79209 0
M  V30 21154 N 2019.08 -0.63804 1.44107 0
M  V30 21155 C 2020.33 -1.39366 1.45808 0
M  V30 21156 C 2020.65 -1.95384 0.091867 0
M  V30 21157 O 2021.85 -2.71497 -0.0136182 0
M  V30 21158 C 2020.31 -2.52293 2.56663 0
M  V30 21159 C 2019.92 -2.02818 3.99461 0
M  V30 21160 C 2021.66 -3.29549 2.67577 0
M  V30 21161 C 2019.57 -3.13047 5.01753 0
M  V30 21162 H 2018.5 -0.5237 0.542452 0
M  V30 21163 H 2021.15 -0.687131 1.70149 0
M  V30 21164 H 2019.53 -3.25489 2.2555 0
M  V30 21165 H 2020.7 -1.36533 4.40108 0
M  V30 21166 H 2019.02 -1.38398 3.92728 0
M  V30 21167 H 2021.62 -4.11709 3.41174 0
M  V30 21168 H 2021.96 -3.78579 1.73159 0
M  V30 21169 H 2022.49 -2.63441 2.98066 0
M  V30 21170 H 2019.23 -2.68969 5.97776 0
M  V30 21171 H 2018.75 -3.77995 4.65704 0
M  V30 21172 H 2020.43 -3.77934 5.25142 0
M  V30 21173 N 2020.56 -1.3089 -0.877815 0
M  V30 21174 C 2021.79 -1.23199 -1.66844 0
M  V30 21175 C 2022.21 0.200808 -1.87025 0
M  V30 21176 O 2021.57 1.14417 -1.40636 0
M  V30 21177 C 2021.62 -1.97328 -3.01818 0
M  V30 21178 O 2020.72 -1.30526 -3.91199 0
M  V30 21179 H 2020.06 -0.425746 -0.509545 0
M  V30 21180 H 2022.59 -1.7283 -1.09504 0
M  V30 21181 H 2022.6 -2.06624 -3.51811 0
M  V30 21182 H 2021.28 -3.01529 -2.86449 0
M  V30 21183 H 2019.86 -1.29631 -3.49643 0
M  V30 21184 N 2022.04 1.0911 -1.13723 0
M  V30 21185 C 2022.97 2.15129 -0.761226 0
M  V30 21186 C 2023.95 1.60603 0.254079 0
M  V30 21187 O 2025.14 1.87943 0.14482 0
M  V30 21188 C 2022.26 3.38454 -0.129002 0
M  V30 21189 C 2021.31 4.11713 -1.11332 0
M  V30 21190 S 2022.14 4.65488 -2.64729 0
M  V30 21191 C 2023.3 5.92108 -2.02876 0
M  V30 21192 H 2023.53 2.46691 -1.65924 0
M  V30 21193 H 2021.06 1.21109 -0.957709 0
M  V30 21194 H 2023.02 4.09859 0.229363 0
M  V30 21195 H 2021.68 3.05104 0.746329 0
M  V30 21196 H 2020.88 5.00186 -0.618842 0
M  V30 21197 H 2020.48 3.46186 -1.41532 0
M  V30 21198 H 2022.77 6.633 -1.37981 0
M  V30 21199 H 2023.71 6.46241 -2.89444 0
M  V30 21200 H 2024.12 5.4478 -1.479 0
M  V30 21201 N 2023.52 0.931232 1.27145 0
M  V30 21202 C 2024.75 0.5891 1.98023 0
M  V30 21203 C 2025.16 -0.837994 1.6963 0
M  V30 21204 O 2024.5 -1.56901 0.955394 0
M  V30 21205 C 2024.56 0.7394 3.51814 0
M  V30 21206 C 2024.23 2.13927 4.03837 0
M  V30 21207 C 2025.22 3.11379 4.1634 0
M  V30 21208 C 2022.91 2.45717 4.38097 0
M  V30 21209 C 2024.9 4.38727 4.62382 0
M  V30 21210 C 2022.59 3.733 4.83829 0
M  V30 21211 C 2023.59 4.69618 4.95931 0
M  V30 21212 O 2023.27 5.94931 5.40659 0
M  V30 21213 H 2023.01 0.221707 0.638609 0
M  V30 21214 H 2025.56 1.25146 1.62873 0
M  V30 21215 H 2023.79 0.0199268 3.86695 0
M  V30 21216 H 2025.48 0.401803 4.03906 0
M  V30 21217 H 2026.25 2.88141 3.90128 0
M  V30 21218 H 2022.12 1.71488 4.27917 0
M  V30 21219 H 2025.67 5.13911 4.71743 0
M  V30 21220 H 2021.57 3.96355 5.09483 0
M  V30 21221 H 2022.33 5.9797 5.58905 0
M  V30 21222 N 2025 -1.41343 0.697132 0
M  V30 21223 C 2026.22 -2.06049 0.236356 0
M  V30 21224 C 2026.65 -1.52124 -1.10634 0
M  V30 21225 O 2026.01 -0.648852 -1.69291 0
M  V30 21226 C 2026.05 -3.6001 0.206185 0
M  V30 21227 O 2025.16 -4.04197 -0.818466 0
M  V30 21228 H 2024.5 -0.65395 0.115091 0
M  V30 21229 H 2027.03 -1.8108 0.952431 0
M  V30 21230 H 2027.04 -4.07983 0.0375737 0
M  V30 21231 H 2025.71 -3.98628 1.18612 0
M  V30 21232 H 2024.29 -3.67725 -0.619082 0
M  V30 21233 N 2026.48 -0.441993 -1.51275 0
M  V30 21234 C 2027.41 0.40297 -2.2563 0
M  V30 21235 C 2028.42 0.982305 -1.29825 0
M  V30 21236 O 2029.61 0.875653 -1.55546 0
M  V30 21237 C 2026.71 1.57618 -3.00016 0
M  V30 21238 C 2025.88 1.11489 -4.22953 0
M  V30 21239 C 2024.94 2.15876 -4.79879 0
M  V30 21240 O 2023.97 1.75121 -5.41591 0
M  V30 21241 N 2025.17 3.48408 -4.64319 0
M  V30 21242 H 2027.93 -0.234323 -2.98783 0
M  V30 21243 H 2025.5 -0.271138 -1.59613 0
M  V30 21244 H 2027.49 2.27084 -3.34985 0
M  V30 21245 H 2026.06 2.11873 -2.29845 0
M  V30 21246 H 2025.28 0.247136 -3.93425 0
M  V30 21247 H 2026.57 0.78415 -5.02721 0
M  V30 21248 H 2025.96 3.84249 -4.15173 0
M  V30 21249 H 2024.52 4.13755 -5.03637 0
M  V30 21250 N 2027.95 1.56642 -0.173515 0
M  V30 21251 C 2028.9 2.19387 0.772791 0
M  V30 21252 C 2029.9 1.15856 1.23587 0
M  V30 21253 O 2031.1 1.3405 1.20127 0
M  V30 21254 H 2027.48 0.702815 0.267497 0
M  V30 21255 H 2029.45 2.9759 0.219656 0
M  V30 21256 C 2028.2 2.85056 1.99094 0
M  V30 21257 H 2027.52 3.64451 1.64364 0
M  V30 21258 H 2028.96 3.32425 2.63191 0
M  V30 21259 C 2027.42 1.84944 2.81598 0
M  V30 21260 O 2027.95 1.33628 3.78823 0
M  V30 21261 N 2026.15 1.53653 2.46656 0
M  V30 21262 H 2025.7 1.95576 1.67654 0
M  V30 21263 H 2025.66 0.86922 3.02146 0
M  V30 21264 N 2029.43 -0.1002 1.57281 0
M  V30 21265 C 2030.68 -0.803034 1.85461 0
M  V30 21266 C 2031 -1.79518 0.761475 0
M  V30 21267 O 2030.27 -1.94741 -0.212768 0
M  V30 21268 H 2028.85 -0.299556 0.684306 0
M  V30 21269 H 2031.51 -0.0830444 1.94723 0
M  V30 21270 H 2030.61 -1.33676 2.82024 0
M  V30 21271 N 2030.91 -1.53174 -0.370891 0
M  V30 21272 C 2031.86 -1.79236 -1.45406 0
M  V30 21273 C 2032.83 -0.636453 -1.53423 0
M  V30 21274 O 2034.01 -0.878079 -1.69394 0
M  V30 21275 C 2031.15 -1.98327 -2.82419 0
M  V30 21276 C 2030.26 -3.2604 -2.83411 0
M  V30 21277 C 2029.4 -3.35348 -4.11965 0
M  V30 21278 C 2028.44 -4.57114 -4.07079 0
M  V30 21279 N 2027.58 -4.63603 -5.27272 0
M  V30 21280 H 2032.42 -2.71666 -1.22482 0
M  V30 21281 H 2029.95 -1.3458 -0.593853 0
M  V30 21282 H 2031.91 -2.07382 -3.62006 0
M  V30 21283 H 2030.54 -1.0924 -3.03754 0
M  V30 21284 H 2029.59 -3.25966 -1.96088 0
M  V30 21285 H 2030.9 -4.157 -2.75672 0
M  V30 21286 H 2030.06 -3.43685 -4.99966 0
M  V30 21287 H 2028.8 -2.43695 -4.2245 0
M  V30 21288 H 2027.8 -4.48883 -3.17466 0
M  V30 21289 H 2029.03 -5.50102 -3.98201 0
M  V30 21290 H 2026.97 -3.74849 -5.38353 0
M  V30 21291 H 2026.89 -5.4716 -5.21682 0
M  V30 21292 H 2028.16 -4.76218 -6.1712 0
M  V30 21293 N 2032.39 0.630389 -1.44443 0
M  V30 21294 C 2033.64 1.38591 -1.46545 0
M  V30 21295 C 2033.95 1.95333 -0.102227 0
M  V30 21296 O 2035.16 2.715 -0.000780135 0
M  V30 21297 C 2033.61 2.50929 -2.57998 0
M  V30 21298 C 2033.22 2.00697 -4.00531 0
M  V30 21299 C 2034.96 3.28126 -2.69321 0
M  V30 21300 C 2032.87 3.10381 -5.03406 0
M  V30 21301 H 2031.8 0.520816 -0.545221 0
M  V30 21302 H 2034.45 0.678097 -1.70511 0
M  V30 21303 H 2032.83 3.24288 -2.27273 0
M  V30 21304 H 2034.01 1.34197 -4.40826 0
M  V30 21305 H 2032.32 1.36313 -3.93456 0
M  V30 21306 H 2034.92 4.09894 -3.43353 0
M  V30 21307 H 2035.26 3.77655 -1.75164 0
M  V30 21308 H 2035.8 2.61857 -2.99459 0
M  V30 21309 H 2032.53 2.65795 -5.99194 0
M  V30 21310 H 2032.05 3.7552 -4.67702 0
M  V30 21311 H 2033.73 3.75144 -5.27139 0
M  V30 21312 N 2033.87 1.31354 0.870861 0
M  V30 21313 C 2034.81 1.18858 1.99939 0
M  V30 21314 C 2035.81 0.0970869 1.69122 0
M  V30 21315 O 2037.01 0.258917 1.78128 0
M  V30 21316 H 2033.39 0.367991 0.65581 0
M  V30 21317 H 2035.36 2.14338 2.07609 0
M  V30 21318 C 2034.11 0.911812 3.35531 0
M  V30 21319 H 2033.43 1.74383 3.59765 0
M  V30 21320 H 2034.87 0.864551 4.15092 0
M  V30 21321 C 2033.33 -0.385431 3.34688 0
M  V30 21322 O 2033.86 -1.40251 3.76421 0
M  V30 21323 N 2032.07 -0.401645 2.87811 0
M  V30 21324 H 2031.61 0.426528 2.54044 0
M  V30 21325 H 2031.57 -1.26952 2.87629 0
M  V30 21326 N 2035.34 -1.08505 1.143 0
M  V30 21327 C 2036.28 -2.14723 0.772624 0
M  V30 21328 C 2037.25 -1.60735 -0.245558 0
M  V30 21329 O 2038.44 -1.88017 -0.134851 0
M  V30 21330 C 2035.57 -3.38381 0.14695 0
M  V30 21331 C 2034.61 -4.11116 1.13514 0
M  V30 21332 S 2035.44 -4.64077 2.67194 0
M  V30 21333 C 2036.6 -5.91024 2.06013 0
M  V30 21334 H 2036.83 -2.45808 1.6723 0
M  V30 21335 H 2034.37 -1.20599 0.964118 0
M  V30 21336 H 2036.32 -4.09975 -0.207624 0
M  V30 21337 H 2034.99 -3.05496 -0.730138 0
M  V30 21338 H 2034.18 -4.99851 0.645359 0
M  V30 21339 H 2033.78 -3.45431 1.43366 0
M  V30 21340 H 2036.07 -6.62559 1.41497 0
M  V30 21341 H 2037.02 -6.44697 2.92867 0
M  V30 21342 H 2037.42 -5.43988 1.50788 0
M  V30 21343 N 2036.82 -0.937962 -1.26649 0
M  V30 21344 C 2038.23 -0.626942 -1.75859 0
M  V30 21345 C 2038.58 0.857893 -1.7645 0
M  V30 21346 O 2037.71 1.67138 -1.37455 0
M  V30 21347 C 2038.3 -1.13131 -3.19354 0
M  V30 21348 C 2036.86 -0.870769 -3.66189 0
M  V30 21349 C 2036.01 -1.28409 -2.45777 0
M  V30 21350 H 2038.96 -1.11662 -1.12771 0
M  V30 21351 H 2038.98 -0.483659 -3.77414 0
M  V30 21352 H 2038.49 -2.21201 -3.18891 0
M  V30 21353 H 2036.59 0.195688 -3.72086 0
M  V30 21354 H 2036.71 -1.49552 -4.55161 0
M  V30 21355 H 2035.07 -0.702547 -2.44819 0
M  V30 21356 H 2035.85 -2.37365 -2.48017 0
M  V30 21357 N 2038.3 1.40971 -0.704618 0
M  V30 21358 C 2039.23 2.28199 0.00567613 0
M  V30 21359 C 2040.21 1.42735 0.778814 0
M  V30 21360 O 2041.39 1.72157 0.767746 0
M  V30 21361 C 2038.52 3.2312 1.01544 0
M  V30 21362 C 2037.57 4.25187 0.334405 0
M  V30 21363 S 2038.4 5.27366 -0.929779 0
M  V30 21364 C 2039.56 6.25851 0.0781563 0
M  V30 21365 H 2039.79 2.88093 -0.734128 0
M  V30 21366 H 2037.32 1.46243 -0.495225 0
M  V30 21367 H 2039.28 3.78337 1.59284 0
M  V30 21368 H 2037.94 2.62304 1.72787 0
M  V30 21369 H 2037.13 4.91909 1.09736 0
M  V30 21370 H 2036.74 3.73613 -0.170159 0
M  V30 21371 H 2039.03 6.71107 0.928545 0
M  V30 21372 H 2039.97 7.05919 -0.555377 0
M  V30 21373 H 2040.38 5.62806 0.436978 0
M  V30 21374 N 2039.78 0.45001 1.51039 0
M  V30 21375 C 2041 -0.112834 2.07093 0
M  V30 21376 C 2041.43 -1.34598 1.31397 0
M  V30 21377 O 2040.79 -1.7778 0.355505 0
M  V30 21378 C 2040.83 -0.400989 3.58364 0
M  V30 21379 O 2039.94 -1.48527 3.84725 0
M  V30 21380 H 2039.28 0.00369778 0.66399 0
M  V30 21381 H 2041.81 0.634991 1.94497 0
M  V30 21382 H 2041.82 -0.647726 4.02826 0
M  V30 21383 H 2040.49 0.500232 4.12881 0
M  V30 21384 H 2039.07 -1.2275 3.52118 0
M  V30 21385 N 2041.26 -1.56548 0.18182 0
M  V30 21386 C 2042.5 -1.97488 -0.461104 0
M  V30 21387 C 2042.84 -1.06819 -1.62183 0
M  V30 21388 O 2042.11 -0.117449 -1.94145 0
M  V30 21389 C 2042.39 -3.47776 -0.934008 0
M  V30 21390 C 2042.25 -4.49224 0.227615 0
M  V30 21391 C 2043.57 -4.01423 -1.80409 0
M  V30 21392 H 2040.68 -0.718031 -0.166135 0
M  V30 21393 H 2043.33 -1.88071 0.27007 0
M  V30 21394 H 2041.48 -3.55933 -1.55705 0
M  V30 21395 H 2043.15 -4.53118 0.864978 0
M  V30 21396 H 2041.39 -4.2475 0.881483 0
M  V30 21397 H 2042.06 -5.51808 -0.145571 0
M  V30 21398 H 2044.54 -3.95963 -1.27876 0
M  V30 21399 H 2043.41 -5.06975 -2.10398 0
M  V30 21400 H 2043.68 -3.45875 -2.7536 0
M  V30 21401 N 2042.73 0.0918577 -1.57332 0
M  V30 21402 C 2043.68 1.11121 -2.02289 0
M  V30 21403 C 2044.65 1.39617 -0.899791 0
M  V30 21404 O 2045.84 1.51025 -1.16602 0
M  V30 21405 C 2042.98 2.42534 -2.45502 0
M  V30 21406 C 2042.09 2.20741 -3.71345 0
M  V30 21407 C 2041.22 3.45576 -4.03424 0
M  V30 21408 C 2040.26 3.19059 -5.22368 0
M  V30 21409 N 2039.4 4.36169 -5.50182 0
M  V30 21410 H 2044.24 0.720847 -2.8915 0
M  V30 21411 H 2041.78 0.344398 -1.43012 0
M  V30 21412 H 2043.74 3.19232 -2.68601 0
M  V30 21413 H 2042.37 2.79411 -1.61646 0
M  V30 21414 H 2041.42 1.3483 -3.55704 0
M  V30 21415 H 2042.73 1.97141 -4.58189 0
M  V30 21416 H 2041.88 4.3068 -4.27317 0
M  V30 21417 H 2040.62 3.72234 -3.15108 0
M  V30 21418 H 2039.63 2.32349 -4.98291 0
M  V30 21419 H 2040.85 2.93744 -6.12284 0
M  V30 21420 H 2038.8 4.62896 -4.64826 0
M  V30 21421 H 2038.72 4.15771 -6.31404 0
M  V30 21422 H 2039.98 5.22328 -5.78613 0
M  V30 21423 N 2044.21 1.53368 0.362763 0
M  V30 21424 C 2045.44 1.73599 1.12565 0
M  V30 21425 C 2045.86 0.466247 1.82952 0
M  V30 21426 O 2045.21 -0.561016 1.73663 0
M  V30 21427 C 2045.26 2.90332 2.15382 0
M  V30 21428 O 2044.98 4.12394 1.4786 0
M  V30 21429 C 2046.49 3.22459 3.04196 0
M  V30 21430 H 2043.71 0.580544 0.336466 0
M  V30 21431 H 2046.25 2.00123 0.420823 0
M  V30 21432 H 2044.4 2.66195 2.81459 0
M  V30 21433 H 2044.82 4.77783 2.16387 0
M  V30 21434 H 2046.29 4.07537 3.72314 0
M  V30 21435 H 2046.77 2.37943 3.69161 0
M  V30 21436 H 2047.38 3.48532 2.43732 0
M  V30 21437 N 2045.69 -0.62272 1.44776 0
M  V30 21438 C 2046.93 -1.39358 1.49529 0
M  V30 21439 C 2047.29 -1.91574 0.12776 0
M  V30 21440 O 2048.5 -2.68754 0.0499687 0
M  V30 21441 C 2046.77 -2.52165 2.53273 0
M  V30 21442 S 2048.33 -3.40206 2.77138 0
M  V30 21443 H 2045.14 -0.475312 0.528772 0
M  V30 21444 H 2047.75 -0.720074 1.81756 0
M  V30 21445 H 2046.45 -2.12129 3.51325 0
M  V30 21446 H 2045.98 -3.24333 2.22647 0
M  V30 21447 H 2048 -4.49865 2.0937 0
M  V30 21448 N 2047.17 -1.31814 -0.863883 0
M  V30 21449 C 2048.45 -1.12477 -1.60026 0
M  V30 21450 C 2048.83 0.318288 -2.08687 0
M  V30 21451 O 2048.17 1.31341 -1.86981 0
M  V30 21452 C 2048.38 -2.14432 -2.75355 0
M  V30 21453 C 2049.73 -2.47276 -3.45166 0
M  V30 21454 O 2050.76 -2.12906 -2.85569 0
M  V30 21455 O 2049.61 -3.06158 -4.52691 0
M  V30 21456 H 2046.71 -0.433423 -0.704325 0
M  V30 21457 H 2049.25 -1.43313 -0.908815 0
M  V30 21458 H 2048.03 -3.11472 -2.36856 0
M  V30 21459 H 2047.65 -1.84536 -3.52182 0
M  V30 21460 N 2048.65 1.07897 -1.14873 0
M  V30 21461 C 2049.56 2.18494 -0.854259 0
M  V30 21462 C 2050.57 1.73194 0.167297 0
M  V30 21463 O 2051.75 2.01399 -0.00544437 0
M  V30 21464 C 2048.81 3.45013 -0.341649 0
M  V30 21465 C 2047.87 4.0491 -1.42641 0
M  V30 21466 C 2047.11 5.2539 -0.938165 0
M  V30 21467 O 2047.33 5.69982 0.218391 0
M  V30 21468 O 2046.26 5.76818 -1.71943 0
M  V30 21469 H 2050.09 2.46164 -1.77867 0
M  V30 21470 H 2047.68 1.1713 -0.927406 0
M  V30 21471 H 2049.56 4.21354 -0.0619573 0
M  V30 21472 H 2048.23 3.18907 0.554969 0
M  V30 21473 H 2047.14 3.30133 -1.75963 0
M  V30 21474 H 2048.47 4.35276 -2.29774 0
M  V30 21475 N 2050.12 0.944665 1.2615 0
M  V30 21476 C 2051.03 0.463226 2.29981 0
M  V30 21477 C 2052.05 -0.464516 1.67685 0
M  V30 21478 O 2053.23 -0.343195 1.98454 0
M  V30 21479 C 2050.29 -0.260612 3.45719 0
M  V30 21480 C 2049.35 0.704117 4.23486 0
M  V30 21481 C 2048.59 0.0147279 5.33698 0
M  V30 21482 O 2048.81 -1.20155 5.57601 0
M  V30 21483 O 2047.74 0.695202 5.97872 0
M  V30 21484 H 2051.57 1.3258 2.73233 0
M  V30 21485 H 2049.15 0.710696 1.31413 0
M  V30 21486 H 2051.04 -0.668207 4.16068 0
M  V30 21487 H 2049.71 -1.09852 3.0449 0
M  V30 21488 H 2048.62 1.16172 3.55605 0
M  V30 21489 H 2049.95 1.50974 4.68474 0
M  V30 21490 N 2051.6 -1.40596 0.712085 0
M  V30 21491 C 2052.84 -2.0281 0.254462 0
M  V30 21492 C 2053.21 -1.55234 -1.12989 0
M  V30 21493 O 2054.41 -2.09487 -1.6843 0
M  V30 21494 C 2052.68 -3.55895 0.327689 0
M  V30 21495 S 2054.24 -4.38767 -0.0534624 0
M  V30 21496 H 2051.06 -0.703761 0.101197 0
M  V30 21497 H 2053.66 -1.71772 0.933528 0
M  V30 21498 H 2052.36 -3.88014 1.33692 0
M  V30 21499 H 2051.89 -3.91656 -0.369973 0
M  V30 21500 H 2053.91 -4.79499 -1.27652 0
M  V30 21501 N 2053.08 -0.458013 -1.50798 0
M  V30 21502 C 2054.32 0.100377 -2.04153 0
M  V30 21503 C 2054.68 1.3815 -1.33336 0
M  V30 21504 O 2055.89 2.02144 -1.77176 0
M  V30 21505 C 2054.16 0.293195 -3.56195 0
M  V30 21506 S 2055.72 0.812021 -4.31221 0
M  V30 21507 H 2052.53 0.0221283 -0.710656 0
M  V30 21508 H 2055.14 -0.622159 -1.85336 0
M  V30 21509 H 2053.84 -0.64522 -4.05296 0
M  V30 21510 H 2053.37 1.04222 -3.79343 0
M  V30 21511 H 2055.39 2.08711 -4.50171 0
M  V30 21512 N 2054.56 1.56449 -0.190119 0
M  V30 21513 C 2055.97 1.83879 0.323353 0
M  V30 21514 C 2056.32 1.11062 1.6174 0
M  V30 21515 O 2055.45 0.369789 2.13217 0
M  V30 21516 C 2056.04 3.33562 0.593453 0
M  V30 21517 C 2054.6 3.6142 1.05131 0
M  V30 21518 C 2053.75 2.77129 0.0972331 0
M  V30 21519 H 2056.7 1.53205 -0.414009 0
M  V30 21520 H 2056.72 3.52062 1.44335 0
M  V30 21521 H 2056.23 3.86532 -0.348543 0
M  V30 21522 H 2054.33 3.13879 2.00776 0
M  V30 21523 H 2054.45 4.69638 0.947464 0
M  V30 21524 H 2052.81 2.47576 0.598181 0
M  V30 21525 H 2053.59 3.32887 -0.839117 0
M  V30 21526 N 2056.04 -0.0835127 1.57379 0
M  V30 21527 C 2057.28 -0.786031 1.86948 0
M  V30 21528 C 2057.62 -1.77811 0.780828 0
M  V30 21529 O 2056.89 -1.93362 -0.210075 0
M  V30 21530 C 2057.17 -1.50447 3.27166 0
M  V30 21531 C 2057.03 -0.529601 4.46671 0
M  V30 21532 C 2058.35 -2.45226 3.65448 0
M  V30 21533 H 2055.47 -0.284294 0.67996 0
M  V30 21534 H 2058.11 -0.0494231 1.89936 0
M  V30 21535 H 2056.26 -2.13237 3.24749 0
M  V30 21536 H 2057.93 0.0921842 4.61208 0
M  V30 21537 H 2056.17 0.156069 4.33519 0
M  V30 21538 H 2056.84 -1.06967 5.41537 0
M  V30 21539 H 2059.32 -1.92521 3.68883 0
M  V30 21540 H 2058.2 -2.92505 4.6447 0
M  V30 21541 H 2058.46 -3.29506 2.94751 0
M  V30 21542 N 2057.52 -1.53558 -0.354624 0
M  V30 21543 C 2058.46 -1.81453 -1.45525 0
M  V30 21544 C 2059.46 -0.684302 -1.54963 0
M  V30 21545 O 2060.66 -0.867445 -1.57719 0
M  V30 21546 H 2057.04 -0.574697 -0.485003 0
M  V30 21547 H 2059.01 -2.73555 -1.19207 0
M  V30 21548 C 2057.76 -2.0311 -2.82208 0
M  V30 21549 H 2057.08 -2.89525 -2.75709 0
M  V30 21550 H 2058.52 -2.266 -3.58369 0
M  V30 21551 C 2056.98 -0.813372 -3.26934 0
M  V30 21552 O 2057.51 -0.00738144 -4.01699 0
M  V30 21553 N 2055.72 -0.633715 -2.83606 0
M  V30 21554 H 2055.26 -1.29076 -2.22928 0
M  V30 21555 H 2055.22 0.179621 -3.13886 0
M  V30 21556 N 2058.99 0.615033 -1.45104 0
M  V30 21557 C 2060.24 1.37424 -1.48731 0
M  V30 21558 C 2060.57 1.94091 -0.12613 0
M  V30 21559 O 2059.82 1.75087 0.874249 0
M  V30 21560 C 2060.12 2.54609 -2.50816 0
M  V30 21561 C 2059.79 2.16134 -3.95723 0
M  V30 21562 C 2058.45 2.05355 -4.35181 0
M  V30 21563 C 2060.8 1.85994 -4.86883 0
M  V30 21564 C 2058.13 1.62647 -5.63705 0
M  V30 21565 C 2060.48 1.44774 -6.15811 0
M  V30 21566 C 2059.15 1.32548 -6.54207 0
M  V30 21567 H 2058.42 0.502868 -0.544247 0
M  V30 21568 H 2061.06 0.695889 -1.78409 0
M  V30 21569 H 2059.37 3.27749 -2.14681 0
M  V30 21570 H 2061.07 3.12839 -2.50864 0
M  V30 21571 H 2057.66 2.25448 -3.64515 0
M  V30 21572 H 2061.84 1.93224 -4.57141 0
M  V30 21573 H 2057.1 1.51797 -5.92256 0
M  V30 21574 H 2061.27 1.20496 -6.85896 0
M  V30 21575 H 2058.9 0.992281 -7.53696 0
M  V30 21576 N 2060.47 1.3227 0.85688 0
M  V30 21577 C 2061.42 1.2102 1.96527 0
M  V30 21578 C 2062.39 0.0928848 1.6584 0
M  V30 21579 O 2063.57 0.268043 1.88908 0
M  V30 21580 C 2060.71 0.936943 3.32138 0
M  V30 21581 C 2059.83 2.13883 3.75337 0
M  V30 21582 C 2058.96 1.80125 4.99728 0
M  V30 21583 C 2058 2.96647 5.35413 0
M  V30 21584 N 2057.14 2.62997 6.50982 0
M  V30 21585 H 2061.98 2.15827 2.05481 0
M  V30 21586 H 2059.51 1.07346 1.00575 0
M  V30 21587 H 2061.47 0.759018 4.10237 0
M  V30 21588 H 2060.1 0.025663 3.2279 0
M  V30 21589 H 2059.15 2.4271 2.92909 0
M  V30 21590 H 2060.47 3.01052 3.97705 0
M  V30 21591 H 2059.62 1.58871 5.8553 0
M  V30 21592 H 2058.36 0.901662 4.79293 0
M  V30 21593 H 2057.36 3.18535 4.48124 0
M  V30 21594 H 2058.59 3.87335 5.57807 0
M  V30 21595 H 2056.54 1.75576 6.32067 0
M  V30 21596 H 2056.45 3.43696 6.73357 0
M  V30 21597 H 2057.72 2.45168 7.39941 0
M  V30 21598 N 2061.95 -1.07287 1.15444 0
M  V30 21599 C 2062.9 -2.14506 0.85181 0
M  V30 21600 C 2063.87 -1.64945 -0.195533 0
M  V30 21601 O 2065.05 -1.90696 -0.0629401 0
M  V30 21602 C 2062.19 -3.43341 0.347981 0
M  V30 21603 C 2061.3 -4.0669 1.45697 0
M  V30 21604 C 2060.44 -5.23361 0.9092 0
M  V30 21605 C 2059.48 -5.78673 1.99508 0
M  V30 21606 N 2058.62 -6.86675 1.46364 0
M  V30 21607 H 2063.46 -2.39733 1.77008 0
M  V30 21608 H 2060.99 -1.17635 0.883195 0
M  V30 21609 H 2062.95 -4.17183 0.0375747 0
M  V30 21610 H 2061.58 -3.18363 -0.53337 0
M  V30 21611 H 2060.63 -3.30495 1.88355 0
M  V30 21612 H 2061.94 -4.43806 2.2768 0
M  V30 21613 H 2061.1 -6.04189 0.551375 0
M  V30 21614 H 2059.84 -4.87665 0.0585544 0
M  V30 21615 H 2058.84 -4.9649 2.36173 0
M  V30 21616 H 2060.07 -6.16425 2.84952 0
M  V30 21617 H 2058.01 -6.52916 0.635365 0
M  V30 21618 H 2057.93 -7.22678 2.21973 0
M  V30 21619 H 2059.2 -7.71206 1.13408 0
M  V30 21620 N 2063.43 -0.951342 -1.25647 0
M  V30 21621 C 2064.67 -0.611972 -1.95024 0
M  V30 21622 C 2065.03 0.835025 -1.72891 0
M  V30 21623 O 2066.23 1.28383 -2.3616 0
M  V30 21624 C 2064.5 -0.956959 -3.4435 0
M  V30 21625 S 2066.06 -0.729667 -4.32691 0
M  V30 21626 H 2062.88 -0.225049 -0.674444 0
M  V30 21627 H 2065.48 -1.22482 -1.52376 0
M  V30 21628 H 2064.19 -2.00729 -3.57961 0
M  V30 21629 H 2063.72 -0.334234 -3.91978 0
M  V30 21630 H 2065.73 0.401172 -4.94576 0
M  V30 21631 N 2064.91 1.40216 -0.719531 0
M  V30 21632 C 2066.15 2.02672 -0.265214 0
M  V30 21633 C 2066.51 1.55831 1.12164 0
M  V30 21634 O 2067.71 2.10377 1.67317 0
M  V30 21635 C 2065.98 3.55716 -0.346559 0
M  V30 21636 S 2067.54 4.3879 0.0301928 0
M  V30 21637 H 2064.36 0.703215 -0.104928 0
M  V30 21638 H 2066.96 1.71274 -0.942624 0
M  V30 21639 H 2065.66 3.87299 -1.35748 0
M  V30 21640 H 2065.2 3.91847 0.349197 0
M  V30 21641 H 2067.21 4.80169 1.25107 0
M  V30 21642 N 2066.38 0.466004 1.50553 0
M  V30 21643 C 2067.79 0.00966264 1.86697 0
M  V30 21644 C 2068.15 -1.39347 1.38119 0
M  V30 21645 O 2067.27 -2.03208 0.744006 0
M  V30 21646 C 2067.87 0.0107586 3.38798 0
M  V30 21647 C 2066.42 -0.390094 3.74373 0
M  V30 21648 C 2065.57 0.398415 2.74423 0
M  V30 21649 H 2068.52 0.680522 1.43369 0
M  V30 21650 H 2068.54 -0.792537 3.72155 0
M  V30 21651 H 2068.06 1.0321 3.74125 0
M  V30 21652 H 2066.16 -1.41598 3.44646 0
M  V30 21653 H 2066.27 -0.0949729 4.79006 0
M  V30 21654 H 2064.63 -0.147197 2.54274 0
M  V30 21655 H 2065.42 1.41917 3.12593 0
M  V30 21656 N 2067.86 -1.56346 0.198413 0
M  V30 21657 C 2068.79 -2.22244 -0.716243 0
M  V30 21658 C 2069.77 -1.1866 -1.21876 0
M  V30 21659 O 2070.96 -1.47177 -1.26699 0
M  V30 21660 C 2068.09 -2.88437 -1.93446 0
M  V30 21661 C 2067.04 -3.98294 -1.56672 0
M  V30 21662 C 2066.37 -4.51668 -2.86182 0
M  V30 21663 C 2067.67 -5.16531 -0.774153 0
M  V30 21664 H 2069.36 -2.98935 -0.166883 0
M  V30 21665 H 2066.91 -1.43784 -0.0788267 0
M  V30 21666 H 2068.86 -3.33221 -2.57957 0
M  V30 21667 H 2067.58 -2.09157 -2.5084 0
M  V30 21668 H 2066.24 -3.54206 -0.945178 0
M  V30 21669 H 2065.89 -3.69146 -3.41673 0
M  V30 21670 H 2065.59 -5.25796 -2.6232 0
M  V30 21671 H 2067.12 -4.99155 -3.51676 0
M  V30 21672 H 2068.53 -5.57839 -1.32244 0
M  V30 21673 H 2066.93 -5.96746 -0.633532 0
M  V30 21674 H 2068 -4.84382 0.224098 0
M  V30 21675 N 2069.34 0.0751653 -1.57421 0
M  V30 21676 C 2070.59 0.776106 -1.87362 0
M  V30 21677 C 2070.92 1.77394 -0.790247 0
M  V30 21678 O 2070.19 1.93471 0.199817 0
M  V30 21679 C 2070.48 1.4871 -3.27959 0
M  V30 21680 C 2070.33 0.505905 -4.46946 0
M  V30 21681 C 2071.65 2.43284 -3.66744 0
M  V30 21682 H 2068.77 0.280684 -0.681458 0
M  V30 21683 H 2071.41 0.0393497 -1.89959 0
M  V30 21684 H 2069.56 2.11512 -3.25876 0
M  V30 21685 H 2071.23 -0.116642 -4.61153 0
M  V30 21686 H 2069.48 -0.179057 -4.3343 0
M  V30 21687 H 2070.15 1.04094 -5.42096 0
M  V30 21688 H 2072.62 1.90562 -3.69899 0
M  V30 21689 H 2071.5 2.90037 -4.66015 0
M  V30 21690 H 2071.76 3.27938 -2.96494 0
M  V30 21691 N 2070.82 1.53744 0.346476 0
M  V30 21692 C 2072.06 1.72562 1.09552 0
M  V30 21693 C 2072.42 0.477138 1.85977 0
M  V30 21694 O 2073.62 0.542295 2.63273 0
M  V30 21695 C 2071.89 2.95246 2.01406 0
M  V30 21696 S 2073.45 3.34861 2.83573 0
M  V30 21697 H 2070.27 0.607015 0.370208 0
M  V30 21698 H 2072.87 1.91883 0.374316 0
M  V30 21699 H 2071.58 3.84286 1.44057 0
M  V30 21700 H 2071.11 2.78382 2.77969 0
M  V30 21701 H 2073.12 2.88367 4.03806 0
M  V30 21702 N 2072.3 -0.607329 1.45428 0
M  V30 21703 C 2073.54 -1.36363 1.49163 0
M  V30 21704 C 2073.87 -1.94533 0.134827 0
M  V30 21705 O 2073.14 -1.77174 -0.835838 0
M  V30 21706 H 2071.72 -0.506225 0.549314 0
M  V30 21707 H 2074.38 -0.713138 1.81385 0
M  V30 21708 H 2073.47 -2.18292 2.23058 0
M  V30 21709 N 2073.77 -1.32722 -0.849853 0
M  V30 21710 C 2074.72 -1.2206 -1.95882 0
M  V30 21711 C 2075.69 -0.101678 -1.65788 0
M  V30 21712 O 2076.88 -0.278058 -1.88763 0
M  V30 21713 C 2074.02 -0.954544 -3.31636 0
M  V30 21714 C 2073.13 -2.15871 -3.74198 0
M  V30 21715 C 2072.26 -1.82773 -4.98766 0
M  V30 21716 C 2071.3 -2.99483 -5.33832 0
M  V30 21717 N 2070.44 -2.66445 -6.49578 0
M  V30 21718 H 2075.28 -2.16914 -2.04334 0
M  V30 21719 H 2072.82 -1.07877 -1.00004 0
M  V30 21720 H 2074.78 -0.780763 -4.09829 0
M  V30 21721 H 2073.41 -0.042781 -3.22772 0
M  V30 21722 H 2072.46 -2.4426 -2.91618 0
M  V30 21723 H 2073.77 -3.03157 -3.96102 0
M  V30 21724 H 2072.92 -1.61974 -5.84679 0
M  V30 21725 H 2071.66 -0.927067 -4.78808 0
M  V30 21726 H 2070.67 -3.20907 -4.46429 0
M  V30 21727 H 2071.89 -3.90288 -5.55745 0
M  V30 21728 H 2069.84 -1.78926 -6.31127 0
M  V30 21729 H 2069.76 -3.47262 -6.71524 0
M  V30 21730 H 2071.02 -2.49088 -7.38631 0
M  V30 21731 N 2075.25 1.06673 -1.16011 0
M  V30 21732 C 2076.22 2.12223 -0.865686 0
M  V30 21733 C 2077.22 1.6021 0.137621 0
M  V30 21734 O 2078.41 1.73953 -0.0928217 0
M  V30 21735 C 2075.54 3.39631 -0.293865 0
M  V30 21736 H 2076.73 2.39774 -1.80134 0
M  V30 21737 H 2074.28 1.22675 -0.968529 0
M  V30 21738 H 2075.02 3.17726 0.649656 0
M  V30 21739 H 2074.8 3.78688 -1.01676 0
M  V30 21740 H 2076.29 4.17466 -0.105682 0
M  V30 21741 N 2076.73 0.957992 1.25141 0
M  V30 21742 C 2077.98 0.610242 1.92247 0
M  V30 21743 C 2078.29 -0.857187 1.75817 0
M  V30 21744 O 2079.5 -1.31504 2.37527 0
M  V30 21745 C 2077.95 1.04075 3.44524 0
M  V30 21746 C 2077.56 2.53095 3.69658 0
M  V30 21747 C 2079.31 0.765685 4.17537 0
M  V30 21748 C 2077.21 2.89928 5.15457 0
M  V30 21749 H 2076.14 0.224526 0.719794 0
M  V30 21750 H 2078.79 1.1629 1.41947 0
M  V30 21751 H 2077.18 0.416478 3.93804 0
M  V30 21752 H 2078.35 3.20569 3.31017 0
M  V30 21753 H 2076.67 2.78108 3.09911 0
M  V30 21754 H 2079.26 1.017 5.24939 0
M  V30 21755 H 2079.61 -0.297957 4.15232 0
M  V30 21756 H 2080.14 1.35046 3.74176 0
M  V30 21757 H 2076.88 3.95324 5.22876 0
M  V30 21758 H 2076.4 2.2713 5.55132 0
M  V30 21759 H 2078.08 2.79304 5.83608 0
M  V30 21760 N 2078.21 -1.39832 0.726957 0
M  V30 21761 C 2079.14 -2.29161 0.0422219 0
M  V30 21762 C 2080.15 -1.4641 -0.7119 0
M  V30 21763 O 2081.34 -1.69574 -0.557395 0
M  V30 21764 C 2078.44 -3.24886 -0.964472 0
M  V30 21765 C 2077.62 -4.36544 -0.273536 0
M  V30 21766 C 2076.67 -5.12632 -1.1872 0
M  V30 21767 O 2075.7 -5.6527 -0.66771 0
M  V30 21768 N 2076.9 -5.23068 -2.51754 0
M  V30 21769 H 2079.67 -2.88567 0.809275 0
M  V30 21770 H 2077.23 -1.51326 0.575514 0
M  V30 21771 H 2079.22 -3.72662 -1.57813 0
M  V30 21772 H 2077.79 -2.66568 -1.63279 0
M  V30 21773 H 2077.01 -3.90749 0.520485 0
M  V30 21774 H 2078.3 -5.08384 0.205613 0
M  V30 21775 H 2077.7 -4.81806 -2.96445 0
M  V30 21776 H 2076.25 -5.74312 -3.08235 0
M  V30 21777 N 2079.69 -0.473982 -1.50304 0
M  V30 21778 C 2080.93 0.0800096 -2.02342 0
M  V30 21779 C 2081.26 1.39461 -1.35576 0
M  V30 21780 O 2080.52 1.89937 -0.471407 0
M  V30 21781 C 2080.82 0.308841 -3.56063 0
M  V30 21782 C 2080.48 -0.924412 -4.41322 0
M  V30 21783 C 2079.14 -1.26253 -4.64342 0
M  V30 21784 C 2081.5 -1.7454 -4.91106 0
M  V30 21785 C 2078.82 -2.42164 -5.34391 0
M  V30 21786 C 2081.18 -2.89582 -5.62428 0
M  V30 21787 C 2079.84 -3.23805 -5.83701 0
M  V30 21788 H 2079.11 0.0292776 -0.740421 0
M  V30 21789 H 2081.76 -0.62865 -1.80887 0
M  V30 21790 H 2080.06 1.09977 -3.76048 0
M  V30 21791 H 2081.76 0.7515 -3.93895 0
M  V30 21792 H 2078.35 -0.650995 -4.23627 0
M  V30 21793 H 2082.53 -1.49735 -4.73173 0
M  V30 21794 H 2077.79 -2.6895 -5.49068 0
M  V30 21795 H 2081.96 -3.53542 -5.99984 0
M  V30 21796 H 2079.59 -4.13729 -6.37756 0
M  V30 21797 N 2081.16 1.56239 -0.206702 0
M  V30 21798 C 2082.41 1.97079 0.429267 0
M  V30 21799 C 2082.73 1.09689 1.6195 0
M  V30 21800 O 2083.93 1.40363 2.32402 0
M  V30 21801 C 2082.39 3.50548 0.815111 0
M  V30 21802 C 2082 4.46619 -0.351476 0
M  V30 21803 C 2083.74 4.00133 1.41751 0
M  V30 21804 C 2081.65 5.91374 0.0559745 0
M  V30 21805 H 2080.58 0.735915 0.164151 0
M  V30 21806 H 2083.23 1.81022 -0.300562 0
M  V30 21807 H 2081.61 3.62152 1.60194 0
M  V30 21808 H 2082.78 4.46754 -1.12903 0
M  V30 21809 H 2081.1 4.07292 -0.866134 0
M  V30 21810 H 2083.7 5.05768 1.73501 0
M  V30 21811 H 2084.04 3.45116 2.3281 0
M  V30 21812 H 2084.57 3.91692 0.694423 0
M  V30 21813 H 2081.31 6.50342 -0.820723 0
M  V30 21814 H 2080.83 5.94466 0.798148 0
M  V30 21815 H 2082.51 6.45159 0.487795 0
M  V30 21816 N 2082.64 -0.0668159 1.57458 0
M  V30 21817 C 2083.92 -0.798309 1.78568 0
M  V30 21818 C 2084.3 -1.95537 0.79552 0
M  V30 21819 O 2083.65 -2.27864 -0.170331 0
M  V30 21820 C 2083.86 -1.26662 3.25204 0
M  V30 21821 C 2085.21 -1.69798 3.89171 0
M  V30 21822 O 2086.23 -1.36216 3.29125 0
M  V30 21823 O 2085.09 -2.31989 4.94817 0
M  V30 21824 H 2082.18 -0.382924 0.733006 0
M  V30 21825 H 2084.73 -0.0465065 1.69636 0
M  V30 21826 H 2083.5 -0.438929 3.8883 0
M  V30 21827 H 2083.12 -2.07959 3.38879 0
M  V30 21828 N 2084.12 -1.53926 -0.338317 0
M  V30 21829 C 2085.54 -1.44306 -0.681751 0
M  V30 21830 C 2085.74 -0.604022 -1.92234 0
M  V30 21831 O 2084.79 -0.0970474 -2.52313 0
M  V30 21832 C 2086.11 -2.87854 -0.869513 0
M  V30 21833 C 2087.65 -2.97662 -0.967798 0
M  V30 21834 C 2088.13 -4.42328 -1.18784 0
M  V30 21835 N 2089.62 -4.45877 -1.25492 0
M  V30 21836 C 2090.36 -5.54952 -1.44278 0
M  V30 21837 N 2089.85 -6.74023 -1.60203 0
M  V30 21838 N 2091.64 -5.42574 -1.46868 0
M  V30 21839 H 2083.8 -2.06968 0.477289 0
M  V30 21840 H 2086.06 -0.935793 0.15164 0
M  V30 21841 H 2085.76 -3.51688 -0.0293745 0
M  V30 21842 H 2085.64 -3.33108 -1.76971 0
M  V30 21843 H 2088.03 -2.33965 -1.79845 0
M  V30 21844 H 2088.11 -2.55761 -0.0443848 0
M  V30 21845 H 2087.75 -5.06608 -0.362091 0
M  V30 21846 H 2087.68 -4.81825 -2.1249 0
M  V30 21847 H 2090.17 -3.60076 -1.14688 0
M  V30 21848 H 2090.48 -7.52913 -1.74188 0
M  V30 21849 H 2088.83 -6.76958 -1.57329 0
M  V30 21850 H 2092.02 -4.48507 -1.34012 0
M  V30 21851 H 2092.19 -6.27638 -1.61167 0
M  V30 21852 N 2085.6 0.599608 -1.45748 0
M  V30 21853 C 2087.02 0.921212 -1.3033 0
M  V30 21854 C 2087.22 1.99787 -0.262213 0
M  V30 21855 O 2086.27 2.50186 0.34109 0
M  V30 21856 C 2087.58 1.35457 -2.68462 0
M  V30 21857 C 2089.13 1.46835 -2.76421 0
M  V30 21858 C 2089.61 1.93544 -4.15096 0
M  V30 21859 N 2091.1 2.00765 -4.1743 0
M  V30 21860 C 2091.83 2.38145 -5.21608 0
M  V30 21861 N 2091.33 2.74437 -6.36126 0
M  V30 21862 N 2093.12 2.38554 -5.08968 0
M  V30 21863 H 2085.27 -0.111892 -2.12105 0
M  V30 21864 H 2087.54 0.0126042 -0.947916 0
M  V30 21865 H 2087.24 0.63759 -3.45872 0
M  V30 21866 H 2087.12 2.31951 -2.97453 0
M  V30 21867 H 2089.5 2.17623 -1.99309 0
M  V30 21868 H 2089.58 0.486356 -2.51134 0
M  V30 21869 H 2089.23 1.2334 -4.92696 0
M  V30 21870 H 2089.16 2.92672 -4.3778 0
M  V30 21871 H 2091.65 1.75275 -3.34794 0
M  V30 21872 H 2091.96 3.01865 -7.11405 0
M  V30 21873 H 2090.31 2.72115 -6.39514 0
M  V30 21874 H 2093.5 2.09612 -4.18546 0
M  V30 21875 H 2093.67 2.67359 -5.90274 0
M  V30 21876 N 2087.08 1.33171 0.842803 0
M  V30 21877 C 2088.31 1.27434 1.62997 0
M  V30 21878 C 2088.72 -0.155477 1.88159 0
M  V30 21879 O 2088.08 -1.09638 1.45897 0
M  V30 21880 C 2088.13 2.04284 2.98245 0
M  V30 21881 O 2087.85 3.41688 2.74191 0
M  V30 21882 C 2089.35 2.05711 3.9268 0
M  V30 21883 H 2086.57 0.439188 0.507302 0
M  V30 21884 H 2089.11 1.75481 1.05007 0
M  V30 21885 H 2087.27 1.5993 3.52847 0
M  V30 21886 H 2087.68 3.81172 3.60288 0
M  V30 21887 H 2089.16 2.63943 4.84807 0
M  V30 21888 H 2089.63 1.04636 4.26553 0
M  V30 21889 H 2090.24 2.50067 3.44015 0
M  V30 21890 N 2088.56 -1.06056 1.16576 0
M  V30 21891 C 2089.49 -2.13555 0.832268 0
M  V30 21892 C 2090.5 -1.61997 -0.161536 0
M  V30 21893 O 2091.69 -1.78387 0.0635559 0
M  V30 21894 C 2088.79 -3.38193 0.218821 0
M  V30 21895 C 2087.96 -4.19059 1.25332 0
M  V30 21896 C 2087.02 -5.22054 0.659239 0
M  V30 21897 O 2086.05 -5.53474 1.32874 0
M  V30 21898 N 2087.25 -5.77861 -0.552882 0
M  V30 21899 H 2090.01 -2.42762 1.75745 0
M  V30 21900 H 2087.58 -1.22078 1.06342 0
M  V30 21901 H 2089.57 -4.04246 -0.191703 0
M  V30 21902 H 2088.14 -3.06591 -0.609967 0
M  V30 21903 H 2087.36 -3.48626 1.83993 0
M  V30 21904 H 2088.65 -4.69892 1.95139 0
M  V30 21905 H 2088.04 -5.54604 -1.11493 0
M  V30 21906 H 2086.6 -6.45478 -0.905585 0
M  V30 21907 N 2090.03 -0.964615 -1.24631 0
M  V30 21908 C 2091.28 -0.625742 -1.92905 0
M  V30 21909 C 2091.61 0.836529 -1.75259 0
M  V30 21910 O 2090.89 1.60146 -1.10379 0
M  V30 21911 C 2091.17 -0.997473 -3.46009 0
M  V30 21912 C 2091.02 -2.51621 -3.72836 0
M  V30 21913 C 2092.34 -0.529778 -4.369 0
M  V30 21914 H 2089.46 -0.228804 -0.700584 0
M  V30 21915 H 2092.1 -1.20306 -1.47059 0
M  V30 21916 H 2090.25 -0.506207 -3.85188 0
M  V30 21917 H 2091.93 -3.082 -3.43235 0
M  V30 21918 H 2090.17 -2.94954 -3.18095 0
M  V30 21919 H 2090.84 -2.72681 -4.79947 0
M  V30 21920 H 2093.32 -0.951326 -4.05079 0
M  V30 21921 H 2092.19 -0.818472 -5.42764 0
M  V30 21922 H 2092.45 0.570178 -4.38408 0
M  V30 21923 N 2091.51 1.39445 -0.734362 0
M  V30 21924 C 2092.93 1.54247 -0.409878 0
M  V30 21925 C 2093.13 1.70155 1.07933 0
M  V30 21926 O 2092.18 1.70169 1.86545 0
M  V30 21927 C 2093.5 2.7605 -1.19234 0
M  V30 21928 C 2095.04 2.89885 -1.1805 0
M  V30 21929 C 2095.52 4.14625 -1.94552 0
M  V30 21930 N 2097.01 4.21663 -1.91715 0
M  V30 21931 C 2097.75 5.1713 -2.47717 0
M  V30 21932 N 2097.24 6.1839 -3.12354 0
M  V30 21933 N 2099.03 5.09342 -2.37754 0
M  V30 21934 H 2091.19 1.27367 -1.69975 0
M  V30 21935 H 2093.45 0.61727 -0.719501 0
M  V30 21936 H 2093.15 2.70636 -2.24609 0
M  V30 21937 H 2093.03 3.68698 -0.796363 0
M  V30 21938 H 2095.42 2.94792 -0.13489 0
M  V30 21939 H 2095.5 1.98302 -1.61585 0
M  V30 21940 H 2095.14 4.10479 -2.99114 0
M  V30 21941 H 2095.07 5.0525 -1.48424 0
M  V30 21942 H 2097.56 3.4913 -1.44625 0
M  V30 21943 H 2097.87 6.87695 -3.52555 0
M  V30 21944 H 2096.22 6.1878 -3.16444 0
M  V30 21945 H 2099.41 4.29169 -1.86901 0
M  V30 21946 H 2099.58 5.83567 -2.81698 0
M  V30 21947 N 2092.99 0.481946 1.5005 0
M  V30 21948 C 2094.22 -0.0665508 2.06493 0
M  V30 21949 C 2094.63 -1.3309 1.34476 0
M  V30 21950 O 2093.97 -1.79046 0.410882 0
M  V30 21951 C 2094.03 -0.409721 3.57158 0
M  V30 21952 C 2093.7 0.754158 4.50734 0
M  V30 21953 C 2094.69 1.63929 4.93379 0
M  V30 21954 C 2092.38 0.947563 4.93281 0
M  V30 21955 C 2094.37 2.70214 5.77289 0
M  V30 21956 C 2092.06 2.01362 5.76972 0
M  V30 21957 C 2093.06 2.88927 6.18878 0
M  V30 21958 O 2092.75 3.93695 7.00899 0
M  V30 21959 H 2092.48 0.00864043 0.675945 0
M  V30 21960 H 2095.03 0.672929 1.94064 0
M  V30 21961 H 2093.26 -1.20254 3.67527 0
M  V30 21962 H 2094.95 -0.894578 3.95919 0
M  V30 21963 H 2095.72 1.5016 4.61169 0
M  V30 21964 H 2091.6 0.275431 4.60176 0
M  V30 21965 H 2095.14 3.38592 6.09919 0
M  V30 21966 H 2091.04 2.15133 6.08595 0
M  V30 21967 H 2091.8 3.90816 7.1917 0
M  V30 21968 N 2094.47 -1.56127 0.214985 0
M  V30 21969 C 2095.69 -2.02966 -0.426587 0
M  V30 21970 C 2096.12 -1.0939 -1.53021 0
M  V30 21971 O 2095.48 -0.0808958 -1.81119 0
M  V30 21972 C 2095.52 -3.48091 -0.941527 0
M  V30 21973 O 2094.63 -3.5765 -2.05329 0
M  V30 21974 H 2093.97 -0.656823 -0.097363 0
M  V30 21975 H 2096.5 -2.01893 0.331697 0
M  V30 21976 H 2096.51 -3.88282 -1.25304 0
M  V30 21977 H 2095.18 -4.15685 -0.133737 0
M  V30 21978 H 2093.76 -3.29344 -1.74891 0
M  V30 21979 N 2095.95 0.0584645 -1.57492 0
M  V30 21980 C 2096.88 1.0681 -2.07639 0
M  V30 21981 C 2097.86 1.3955 -0.972622 0
M  V30 21982 O 2099.04 1.48946 -1.24615 0
M  V30 21983 C 2096.17 2.37774 -2.53142 0
M  V30 21984 C 2095.13 2.19354 -3.67516 0
M  V30 21985 C 2094.45 3.5582 -3.9912 0
M  V30 21986 C 2095.75 1.60379 -4.97067 0
M  V30 21987 H 2097.45 0.650765 -2.92242 0
M  V30 21988 H 2094.99 0.311587 -1.40589 0
M  V30 21989 H 2096.94 3.08709 -2.86839 0
M  V30 21990 H 2095.67 2.81513 -1.65583 0
M  V30 21991 H 2094.33 1.50858 -3.34122 0
M  V30 21992 H 2093.98 3.97153 -3.08672 0
M  V30 21993 H 2093.68 3.4433 -4.76142 0
M  V30 21994 H 2095.2 4.28164 -4.35325 0
M  V30 21995 H 2096.61 2.21195 -5.2891 0
M  V30 21996 H 2095.01 1.59548 -5.78502 0
M  V30 21997 H 2096.08 0.566547 -4.81579 0
M  V30 21998 N 2097.42 1.54103 0.330149 0
M  V30 21999 C 2098.7 1.62635 1.0867 0
M  V30 22000 C 2099.08 0.456041 2.06115 0
M  V30 22001 O 2098.43 -0.550367 2.21773 0
M  V30 22002 C 2098.64 2.99332 1.79448 0
M  V30 22003 C 2099.99 3.55151 2.32708 0
M  V30 22004 O 2101.01 3.01594 1.89525 0
M  V30 22005 O 2099.87 4.4886 3.11749 0
M  V30 22006 H 2096.96 0.658337 0.500521 0
M  V30 22007 H 2099.51 1.66449 0.330568 0
M  V30 22008 H 2098.28 3.75947 1.08532 0
M  V30 22009 H 2097.9 2.99167 2.61887 0
M  V30 22010 N 2098.9 -0.59187 1.46064 0
M  V30 22011 C 2099.84 -1.71592 1.50438 0
M  V30 22012 C 2100.81 -1.58581 0.359289 0
M  V30 22013 O 2102 -1.79924 0.562102 0
M  V30 22014 C 2099.12 -3.09566 1.37429 0
M  V30 22015 C 2098.17 -3.41123 2.56003 0
M  V30 22016 S 2099 -3.34211 4.18405 0
M  V30 22017 C 2100.16 -4.74739 4.0789 0
M  V30 22018 H 2100.39 -1.67621 2.45541 0
M  V30 22019 H 2097.93 -0.769851 1.33838 0
M  V30 22020 H 2099.88 -3.89167 1.30611 0
M  V30 22021 H 2098.54 -3.11035 0.437694 0
M  V30 22022 H 2097.74 -4.41622 2.4287 0
M  V30 22023 H 2097.34 -2.6907 2.59764 0
M  V30 22024 H 2099.63 -5.64913 3.74004 0
M  V30 22025 H 2100.57 -4.9293 5.08356 0
M  V30 22026 H 2100.98 -4.51158 3.39288 0
M  V30 22027 N 2100.38 -1.33616 -0.835729 0
M  V30 22028 C 2101.31 -1.26762 -1.96096 0
M  V30 22029 C 2102.29 -0.147563 -1.69459 0
M  V30 22030 O 2103.48 -0.33785 -1.91239 0
M  V30 22031 C 2100.61 -1.00927 -3.32312 0
M  V30 22032 C 2099.56 -2.09261 -3.73355 0
M  V30 22033 C 2098.89 -1.68635 -5.07411 0
M  V30 22034 C 2100.19 -3.50968 -3.86806 0
M  V30 22035 H 2101.88 -2.20908 -2.02089 0
M  V30 22036 H 2099.43 -1.06346 -0.970907 0
M  V30 22037 H 2101.38 -0.947809 -4.10603 0
M  V30 22038 H 2100.1 -0.0322023 -3.26584 0
M  V30 22039 H 2098.76 -2.14455 -2.97329 0
M  V30 22040 H 2098.41 -0.696223 -4.98158 0
M  V30 22041 H 2098.11 -2.41134 -5.35844 0
M  V30 22042 H 2099.63 -1.63961 -5.88175 0
M  V30 22043 H 2101.05 -3.48257 -4.55401 0
M  V30 22044 H 2099.45 -4.21978 -4.26678 0
M  V30 22045 H 2100.52 -3.89244 -2.89166 0
M  V30 22046 N 2101.86 1.05436 -1.17136 0
M  V30 22047 C 2103.1 1.78658 -0.959644 0
M  V30 22048 C 2103.44 1.87366 0.510659 0
M  V30 22049 O 2102.71 1.37162 1.37901 0
M  V30 22050 C 2103 3.22682 -1.59839 0
M  V30 22051 C 2102.85 3.22002 -3.14062 0
M  V30 22052 C 2104.17 4.20454 -1.30023 0
M  V30 22053 H 2101.29 0.648566 -0.350044 0
M  V30 22054 H 2103.93 1.23254 -1.44598 0
M  V30 22055 H 2102.08 3.69992 -1.18484 0
M  V30 22056 H 2103.75 2.82787 -3.64457 0
M  V30 22057 H 2101.99 2.60411 -3.46941 0
M  V30 22058 H 2102.66 4.23642 -3.53881 0
M  V30 22059 H 2105.14 3.81628 -1.65829 0
M  V30 22060 H 2104.02 5.19475 -1.77304 0
M  V30 22061 H 2104.28 4.41549 -0.220588 0
M  V30 22062 N 2103.34 0.971211 1.24118 0
M  V30 22063 C 2104.56 0.652748 1.96333 0
M  V30 22064 C 2104.98 -0.778509 1.72002 0
M  V30 22065 O 2104.34 -1.52276 1.00589 0
M  V30 22066 C 2104.39 0.922262 3.49538 0
M  V30 22067 O 2104.11 2.29726 3.73039 0
M  V30 22068 C 2105.61 0.618475 4.38964 0
M  V30 22069 H 2102.83 0.243252 0.625355 0
M  V30 22070 H 2105.37 1.3001 1.57853 0
M  V30 22071 H 2103.53 0.321067 3.86067 0
M  V30 22072 H 2103.94 2.37994 4.67396 0
M  V30 22073 H 2105.42 0.857482 5.45299 0
M  V30 22074 H 2105.89 -0.447327 4.36916 0
M  V30 22075 H 2106.5 1.19973 4.08028 0
M  V30 22076 N 2104.81 -1.39054 0.741747 0
M  V30 22077 C 2105.72 -2.34352 0.107946 0
M  V30 22078 C 2106.74 -1.58666 -0.71422 0
M  V30 22079 O 2107.92 -1.90923 -0.641124 0
M  V30 22080 C 2104.98 -3.3773 -0.783547 0
M  V30 22081 C 2104.04 -4.29269 0.0516392 0
M  V30 22082 C 2103.28 -5.27709 -0.797398 0
M  V30 22083 O 2103.5 -5.3283 -2.03588 0
M  V30 22084 O 2102.43 -6.01489 -0.222478 0
M  V30 22085 H 2106.26 -2.90223 0.894677 0
M  V30 22086 H 2103.84 -1.40696 0.502494 0
M  V30 22087 H 2105.73 -4.01059 -1.29342 0
M  V30 22088 H 2104.4 -2.84233 -1.54898 0
M  V30 22089 H 2103.31 -3.6914 0.607193 0
M  V30 22090 H 2104.64 -4.85989 0.779446 0
M  V30 22091 N 2106.29 -0.489897 -1.49792 0
M  V30 22092 C 2107.23 0.340825 -2.2564 0
M  V30 22093 C 2108.2 0.980035 -1.29746 0
M  V30 22094 O 2109.39 1.01231 -1.59011 0
M  V30 22095 C 2106.51 1.47906 -3.04699 0
M  V30 22096 C 2105.56 0.955351 -4.15662 0
M  V30 22097 S 2106.39 -0.145024 -5.35304 0
M  V30 22098 C 2107.55 0.996645 -6.17914 0
M  V30 22099 H 2107.78 -0.302973 -2.95752 0
M  V30 22100 H 2105.32 -0.275032 -1.51931 0
M  V30 22101 H 2107.27 2.13132 -3.50835 0
M  V30 22102 H 2105.93 2.09444 -2.34077 0
M  V30 22103 H 2105.13 1.80804 -4.70453 0
M  V30 22104 H 2104.73 0.380501 -3.72059 0
M  V30 22105 H 2107.02 1.90429 -6.50187 0
M  V30 22106 H 2107.96 0.487599 -7.06419 0
M  V30 22107 H 2108.37 1.25897 -5.50282 0
M  V30 22108 N 2107.77 1.56011 -0.223262 0
M  V30 22109 C 2109.02 1.98348 0.407977 0
M  V30 22110 C 2109.35 1.11094 1.59651 0
M  V30 22111 O 2108.6 0.156272 1.95075 0
M  V30 22112 C 2108.9 3.46302 0.883731 0
M  V30 22113 C 2108.57 4.5048 -0.194465 0
M  V30 22114 C 2107.23 4.78692 -0.490651 0
M  V30 22115 C 2109.58 5.12952 -0.923571 0
M  V30 22116 C 2106.91 5.66657 -1.52043 0
M  V30 22117 C 2109.26 6.02032 -1.9427 0
M  V30 22118 C 2107.92 6.28586 -2.24579 0
M  V30 22119 H 2107.19 0.725806 0.149289 0
M  V30 22120 H 2109.84 1.88702 -0.326139 0
M  V30 22121 H 2108.15 3.53159 1.69664 0
M  V30 22122 H 2109.84 3.76432 1.38202 0
M  V30 22123 H 2106.43 4.28575 0.046538 0
M  V30 22124 H 2110.62 4.91224 -0.707988 0
M  V30 22125 H 2105.87 5.85495 -1.76086 0
M  V30 22126 H 2110.05 6.49489 -2.51272 0
M  V30 22127 H 2107.67 6.96545 -3.04515 0
M  V30 22128 N 2109.25 -0.0501116 1.5752 0
M  V30 22129 C 2110.66 -0.405366 1.54366 0
M  V30 22130 C 2110.86 -1.77885 0.946523 0
M  V30 22131 O 2109.92 -2.46248 0.558406 0
M  V30 22132 C 2111.23 -0.326523 2.98922 0
M  V30 22133 C 2112.78 -0.40514 3.10367 0
M  V30 22134 C 2113.26 -0.355974 4.56615 0
M  V30 22135 N 2114.75 -0.415404 4.61334 0
M  V30 22136 C 2115.48 -0.39992 5.72004 0
M  V30 22137 N 2114.98 -0.337966 6.91975 0
M  V30 22138 N 2116.77 -0.448091 5.60311 0
M  V30 22139 H 2108.92 0.848979 1.94695 0
M  V30 22140 H 2111.19 0.320787 0.892076 0
M  V30 22141 H 2110.89 0.616487 3.46255 0
M  V30 22142 H 2110.77 -1.12839 3.59927 0
M  V30 22143 H 2113.15 -1.33858 2.62995 0
M  V30 22144 H 2113.23 0.425702 2.52233 0
M  V30 22145 H 2112.88 0.573705 5.04649 0
M  V30 22146 H 2112.81 -1.20464 5.12636 0
M  V30 22147 H 2115.3 -0.466654 3.75008 0
M  V30 22148 H 2115.61 -0.330673 7.72092 0
M  V30 22149 H 2113.96 -0.304327 6.94333 0
M  V30 22150 H 2117.15 -0.494336 4.65482 0
M  V30 22151 H 2117.32 -0.432555 6.46555 0
M  V30 22152 N 2110.73 -1.54276 -0.321972 0
M  V30 22153 C 2111.64 -1.86797 -1.41929 0
M  V30 22154 C 2112.65 -0.760051 -1.56522 0
M  V30 22155 O 2113.83 -1.0545 -1.71588 0
M  V30 22156 C 2110.89 -2.09003 -2.7662 0
M  V30 22157 C 2109.95 -3.32799 -2.71189 0
M  V30 22158 C 2109.19 -3.53936 -3.99456 0
M  V30 22159 O 2109.41 -2.78482 -4.97799 0
M  V30 22160 O 2108.34 -4.47417 -4.02619 0
M  V30 22161 H 2112.17 -2.8011 -1.17355 0
M  V30 22162 H 2109.76 -1.40201 -0.516141 0
M  V30 22163 H 2111.64 -2.2493 -3.56349 0
M  V30 22164 H 2110.31 -1.18879 -3.01081 0
M  V30 22165 H 2109.22 -3.22256 -1.90006 0
M  V30 22166 H 2110.55 -4.22986 -2.51683 0
M  V30 22167 N 2112.2 0.584116 -1.46376 0
M  V30 22168 C 2113.43 1.36646 -1.54956 0
M  V30 22169 C 2113.84 1.88253 -0.189086 0
M  V30 22170 O 2113.19 1.64204 0.823577 0
M  V30 22171 C 2113.25 2.59061 -2.49254 0
M  V30 22172 C 2112.91 2.28931 -3.95524 0
M  V30 22173 C 2113.91 1.87853 -4.84775 0
M  V30 22174 C 2111.59 2.41119 -4.40644 0
M  V30 22175 C 2113.59 1.59356 -6.17158 0
M  V30 22176 C 2111.27 2.12234 -5.73062 0
M  V30 22177 C 2112.27 1.71417 -6.61139 0
M  V30 22178 O 2111.96 1.42885 -7.911 0
M  V30 22179 H 2111.69 0.423848 -0.52662 0
M  V30 22180 H 2114.25 0.717203 -1.92472 0
M  V30 22181 H 2112.48 3.26787 -2.06754 0
M  V30 22182 H 2114.17 3.21128 -2.48257 0
M  V30 22183 H 2114.93 1.77953 -4.51174 0
M  V30 22184 H 2110.81 2.71852 -3.72313 0
M  V30 22185 H 2114.35 1.27422 -6.85864 0
M  V30 22186 H 2110.25 2.21758 -6.06212 0
M  V30 22187 H 2111.02 1.56742 -8.03352 0
M  V30 22188 N 2113.68 1.34058 0.828631 0
M  V30 22189 C 2114.63 1.25159 1.96056 0
M  V30 22190 C 2115.63 0.150843 1.68727 0
M  V30 22191 O 2116.83 0.315456 1.77214 0
M  V30 22192 H 2113.21 0.388669 0.643771 0
M  V30 22193 H 2115.18 2.20835 2.00685 0
M  V30 22194 C 2113.93 1.0181 3.32461 0
M  V30 22195 H 2113.25 1.8574 3.54035 0
M  V30 22196 H 2114.69 0.996172 4.12132 0
M  V30 22197 C 2113.15 -0.278758 3.35745 0
M  V30 22198 O 2113.68 -1.28204 3.80692 0
M  V30 22199 N 2111.88 -0.309877 2.88943 0
M  V30 22200 H 2111.43 0.507134 2.52559 0
M  V30 22201 H 2111.39 -1.17737 2.91523 0
M  V30 22202 N 2115.16 -1.04814 1.17694 0
M  V30 22203 C 2116.11 -2.10947 0.865184 0
M  V30 22204 C 2117.1 -1.60084 -0.161881 0
M  V30 22205 O 2118.29 -1.76952 0.041095 0
M  V30 22206 C 2115.42 -3.41141 0.384442 0
M  V30 22207 C 2114.5 -3.98791 1.44315 0
M  V30 22208 N 2114.89 -4.30353 2.65762 0
M  V30 22209 C 2113.19 -4.26575 1.3019 0
M  V30 22210 C 2113.89 -4.76382 3.33818 0
M  V30 22211 N 2112.87 -4.76736 2.61197 0
M  V30 22212 H 2116.67 -2.33216 1.7885 0
M  V30 22213 H 2114.18 -1.22497 1.06622 0
M  V30 22214 H 2116.18 -4.16656 0.142634 0
M  V30 22215 H 2114.84 -3.20302 -0.532624 0
M  V30 22216 H 2115.85 -4.20234 3.02694 0
M  V30 22217 H 2112.53 -4.15102 0.446785 0
M  V30 22218 H 2113.92 -5.09885 4.37569 0
M  V30 22219 N 2116.64 -0.977779 -1.23601 0
M  V30 22220 C 2118.06 -0.685968 -1.44106 0
M  V30 22221 C 2118.26 0.748759 -1.87072 0
M  V30 22222 O 2117.31 1.5215 -2.01511 0
M  V30 22223 C 2118.62 -1.67866 -2.49482 0
M  V30 22224 C 2120.17 -1.69241 -2.63299 0
M  V30 22225 C 2120.65 -2.67334 -3.71883 0
M  V30 22226 N 2122.14 -2.65836 -3.79322 0
M  V30 22227 C 2122.87 -3.38406 -4.62892 0
M  V30 22228 N 2122.37 -4.20527 -5.50571 0
M  V30 22229 N 2124.16 -3.27183 -4.57064 0
M  V30 22230 H 2116.31 -1.90461 -0.940129 0
M  V30 22231 H 2118.58 -0.820555 -0.474756 0
M  V30 22232 H 2118.28 -2.70457 -2.24824 0
M  V30 22233 H 2118.16 -1.45942 -3.47823 0
M  V30 22234 H 2120.54 -0.673554 -2.8731 0
M  V30 22235 H 2120.62 -1.95231 -1.65283 0
M  V30 22236 H 2120.27 -3.6936 -3.4862 0
M  V30 22237 H 2120.2 -2.38619 -4.69434 0
M  V30 22238 H 2122.69 -2.06236 -3.16662 0
M  V30 22239 H 2123 -4.72763 -6.11322 0
M  V30 22240 H 2121.35 -4.24619 -5.50203 0
M  V30 22241 H 2124.54 -2.62481 -3.87584 0
M  V30 22242 H 2124.71 -3.84001 -5.21965 0
M  V30 22243 N 2118.12 1.38658 -0.749111 0
M  V30 22244 C 2119.07 2.27805 -0.0942107 0
M  V30 22245 C 2120.05 1.44975 0.697929 0
M  V30 22246 O 2121.24 1.67753 0.564619 0
M  V30 22247 C 2118.37 3.33811 0.801579 0
M  V30 22248 C 2117.46 4.241 0.0028319 0
M  V30 22249 N 2117.85 4.95175 -1.03129 0
M  V30 22250 C 2116.15 4.45405 0.230336 0
M  V30 22251 C 2116.85 5.61648 -1.51416 0
M  V30 22252 N 2115.82 5.37222 -0.830252 0
M  V30 22253 H 2119.63 2.80218 -0.886296 0
M  V30 22254 H 2117.14 1.51508 -0.584738 0
M  V30 22255 H 2119.14 3.96559 1.28634 0
M  V30 22256 H 2117.8 2.82956 1.59267 0
M  V30 22257 H 2118.81 4.98252 -1.41298 0
M  V30 22258 H 2115.49 4.05467 0.995116 0
M  V30 22259 H 2116.88 6.28513 -2.37531 0
M  V30 22260 N 2119.6 0.497834 1.49531 0
M  V30 22261 C 2120.82 -0.0468921 2.07347 0
M  V30 22262 C 2121.25 -1.30349 1.35612 0
M  V30 22263 O 2120.6 -1.76559 0.411884 0
M  V30 22264 C 2120.65 -0.286776 3.59458 0
M  V30 22265 O 2119.76 -1.36212 3.89256 0
M  V30 22266 H 2119.1 0.0248202 0.663536 0
M  V30 22267 H 2121.63 0.696547 1.92378 0
M  V30 22268 H 2121.64 -0.519243 4.04682 0
M  V30 22269 H 2120.31 0.631334 4.1108 0
M  V30 22270 H 2118.89 -1.11485 3.55845 0
M  V30 22271 N 2121.07 -1.5589 0.231532 0
M  V30 22272 C 2122.32 -1.98855 -0.398041 0
M  V30 22273 C 2122.65 -1.11925 -1.58702 0
M  V30 22274 O 2121.93 -0.179155 -1.93673 0
M  V30 22275 C 2122.21 -3.50572 -0.822893 0
M  V30 22276 C 2122.06 -4.48272 0.370417 0
M  V30 22277 C 2123.38 -4.0696 -1.67547 0
M  V30 22278 H 2120.5 -0.722953 -0.143207 0
M  V30 22279 H 2123.14 -1.87116 0.329767 0
M  V30 22280 H 2121.29 -3.60706 -1.44303 0
M  V30 22281 H 2122.97 -4.50137 1.0087 0
M  V30 22282 H 2121.21 -4.2173 1.01617 0
M  V30 22283 H 2121.88 -5.51992 0.0300558 0
M  V30 22284 H 2124.36 -3.99831 -1.15214 0
M  V30 22285 H 2123.23 -5.13412 -1.94162 0
M  V30 22286 H 2123.49 -3.5446 -2.64217 0
M  V30 22287 N 2122.55 0.0417572 -1.57545 0
M  V30 22288 C 2123.8 0.733648 -1.88314 0
M  V30 22289 C 2124.12 1.76568 -0.827577 0
M  V30 22290 O 2123.39 1.95397 0.140345 0
M  V30 22291 H 2121.97 0.273952 -0.694953 0
M  V30 22292 H 2124.63 0.010717 -1.94897 0
M  V30 22293 H 2123.73 1.23116 -2.8679 0
M  V30 22294 N 2124.03 1.54445 0.313786 0
M  V30 22295 C 2124.99 1.8378 1.36959 0
M  V30 22296 C 2125.99 0.710053 1.44274 0
M  V30 22297 O 2127.18 0.978359 1.44131 0
M  V30 22298 C 2124.31 2.00661 2.75586 0
M  V30 22299 H 2125.51 2.78122 1.12197 0
M  V30 22300 H 2123.06 1.46311 0.549789 0
M  V30 22301 H 2123.8 1.08564 3.05589 0
M  V30 22302 H 2123.58 2.82734 2.71669 0
M  V30 22303 H 2125.07 2.24771 3.51948 0
M  V30 22304 N 2125.51 -0.576345 1.46683 0
M  V30 22305 C 2126.74 -1.3602 1.55905 0
M  V30 22306 C 2127.15 -1.87712 0.202401 0
M  V30 22307 O 2126.51 -1.63966 -0.801346 0
M  V30 22308 C 2126.56 -2.54335 2.56897 0
M  V30 22309 O 2126.28 -2.04783 3.87293 0
M  V30 22310 C 2127.78 -3.46804 2.7612 0
M  V30 22311 H 2125 -0.415305 0.527032 0
M  V30 22312 H 2127.54 -0.700047 1.92145 0
M  V30 22313 H 2125.7 -3.16326 2.23644 0
M  V30 22314 H 2126.11 -2.81882 4.42315 0
M  V30 22315 H 2127.59 -4.26286 3.50691 0
M  V30 22316 H 2128.06 -3.99143 1.83253 0
M  V30 22317 H 2128.67 -2.90643 3.10495 0
M  V30 22318 N 2126.99 -1.34495 -0.82151 0
M  V30 22319 C 2127.92 -1.28835 -1.94741 0
M  V30 22320 C 2128.9 -0.165528 -1.69293 0
M  V30 22321 O 2130.08 -0.358115 -1.9087 0
M  V30 22322 C 2127.21 -1.04446 -3.31222 0
M  V30 22323 C 2126.17 -2.13209 -3.71114 0
M  V30 22324 C 2125.49 -1.74007 -5.05594 0
M  V30 22325 C 2126.79 -3.55051 -3.83062 0
M  V30 22326 H 2128.49 -2.23039 -1.99734 0
M  V30 22327 H 2126.03 -1.07369 -0.959573 0
M  V30 22328 H 2127.98 -0.991306 -4.09574 0
M  V30 22329 H 2126.71 -0.0668391 -3.26532 0
M  V30 22330 H 2125.37 -2.17597 -2.95038 0
M  V30 22331 H 2125.02 -0.749021 -4.97392 0
M  V30 22332 H 2124.72 -2.46803 -5.33256 0
M  V30 22333 H 2126.24 -1.7019 -5.86402 0
M  V30 22334 H 2127.65 -3.53068 -4.51681 0
M  V30 22335 H 2126.05 -4.2648 -4.22179 0
M  V30 22336 H 2127.12 -3.92289 -2.85021 0
M  V30 22337 N 2128.46 1.04188 -1.18248 0
M  V30 22338 C 2129.37 2.15666 -0.923339 0
M  V30 22339 C 2130.39 1.73638 0.112112 0
M  V30 22340 O 2131.57 2.0128 -0.0695153 0
M  V30 22341 C 2128.63 3.43751 -0.451239 0
M  V30 22342 C 2127.69 4.00167 -1.55451 0
M  V30 22343 C 2126.93 5.22139 -1.10484 0
M  V30 22344 O 2127.15 5.70388 0.0369453 0
M  V30 22345 O 2126.08 5.71056 -1.90207 0
M  V30 22346 H 2129.91 2.40381 -1.85609 0
M  V30 22347 H 2127.49 1.14121 -0.9642 0
M  V30 22348 H 2129.38 4.20944 -0.195977 0
M  V30 22349 H 2128.05 3.20511 0.45323 0
M  V30 22350 H 2126.96 3.24368 -1.86377 0
M  V30 22351 H 2128.29 4.27745 -2.43506 0
M  V30 22352 N 2129.94 0.98432 1.23081 0
M  V30 22353 C 2130.91 0.532738 2.22923 0
M  V30 22354 C 2131.91 -0.379759 1.56251 0
M  V30 22355 O 2133.1 -0.172906 1.7334 0
M  V30 22356 C 2130.23 -0.226262 3.40148 0
M  V30 22357 H 2131.42 1.41558 2.64388 0
M  V30 22358 H 2128.97 0.77062 1.35982 0
M  V30 22359 H 2129.71 -1.12547 3.04144 0
M  V30 22360 H 2129.49 0.428801 3.89748 0
M  V30 22361 H 2130.98 -0.530671 4.14214 0
M  V30 22362 N 2131.42 -1.38259 0.756453 0
M  V30 22363 C 2132.35 -2.33042 0.146158 0
M  V30 22364 C 2133.33 -1.55012 -0.700373 0
M  V30 22365 O 2134.52 -1.83317 -0.640972 0
M  V30 22366 C 2131.65 -3.39202 -0.745585 0
M  V30 22367 C 2130.6 -4.28 -0.00155995 0
M  V30 22368 C 2129.93 -5.25041 -1.01174 0
M  V30 22369 C 2131.23 -5.09061 1.16852 0
M  V30 22370 H 2132.92 -2.84329 0.937934 0
M  V30 22371 H 2130.47 -1.36706 0.452478 0
M  V30 22372 H 2132.42 -4.04477 -1.18223 0
M  V30 22373 H 2131.14 -2.86405 -1.56971 0
M  V30 22374 H 2129.8 -3.64236 0.415692 0
M  V30 22375 H 2129.45 -4.68529 -1.83001 0
M  V30 22376 H 2129.15 -5.85307 -0.518554 0
M  V30 22377 H 2130.67 -5.93191 -1.44764 0
M  V30 22378 H 2132.09 -5.67559 0.809284 0
M  V30 22379 H 2130.49 -5.78577 1.59276 0
M  V30 22380 H 2131.56 -4.42631 1.98004 0
M  V30 22381 N 2132.9 -0.505757 -1.49264 0
M  V30 22382 C 2134.15 0.0370719 -2.02466 0
M  V30 22383 C 2134.47 1.36554 -1.38504 0
M  V30 22384 O 2133.73 1.88895 -0.51159 0
M  V30 22385 C 2134.03 0.233245 -3.56638 0
M  V30 22386 C 2133.69 -1.01781 -4.39262 0
M  V30 22387 C 2132.36 -1.36074 -4.6156 0
M  V30 22388 C 2134.71 -1.84918 -4.87293 0
M  V30 22389 C 2132.04 -2.53445 -5.29134 0
M  V30 22390 C 2134.39 -3.01446 -5.56159 0
M  V30 22391 C 2133.05 -3.36113 -5.76701 0
M  V30 22392 H 2132.32 0.0135656 -0.740876 0
M  V30 22393 H 2134.97 -0.666878 -1.79513 0
M  V30 22394 H 2133.27 1.01976 -3.78296 0
M  V30 22395 H 2134.97 0.66778 -3.95401 0
M  V30 22396 H 2131.56 -0.740706 -4.22151 0
M  V30 22397 H 2135.74 -1.59738 -4.69891 0
M  V30 22398 H 2131 -2.80536 -5.4324 0
M  V30 22399 H 2135.17 -3.66189 -5.9235 0
M  V30 22400 H 2132.8 -4.27163 -6.28837 0
M  V30 22401 N 2134.38 1.55765 -0.239796 0
M  V30 22402 C 2135.31 2.18397 0.695377 0
M  V30 22403 C 2136.32 1.15822 1.14407 0
M  V30 22404 O 2137.51 1.4272 1.07207 0
M  V30 22405 C 2134.61 2.76755 1.95601 0
M  V30 22406 C 2133.78 4.0468 1.65992 0
M  V30 22407 C 2132.84 4.47425 2.76943 0
M  V30 22408 O 2131.87 5.13949 2.44632 0
M  V30 22409 N 2133.07 4.14619 4.0629 0
M  V30 22410 H 2135.84 2.99275 0.15952 0
M  V30 22411 H 2133.4 1.61791 -0.0594819 0
M  V30 22412 H 2135.39 3.02313 2.69052 0
M  V30 22413 H 2133.96 2.00075 2.40185 0
M  V30 22414 H 2133.18 3.86786 0.760934 0
M  V30 22415 H 2134.47 4.88096 1.43664 0
M  V30 22416 H 2133.86 3.61198 4.35376 0
M  V30 22417 H 2132.42 4.45028 4.76228 0
M  V30 22418 N 2135.85 -0.0334016 1.57565 0
M  V30 22419 C 2137.1 -0.723651 1.887 0
M  V30 22420 C 2137.42 -1.76126 0.836929 0
M  V30 22421 O 2136.69 -1.95468 -0.12998 0
M  V30 22422 H 2135.27 -0.270263 0.696396 0
M  V30 22423 H 2137.94 -0.000381018 1.949 0
M  V30 22424 H 2137.03 -1.21594 2.87439 0
M  V30 22425 N 2137.33 -1.54609 -0.305591 0
M  V30 22426 C 2138.74 -1.64719 -0.878888 0
M  V30 22427 C 2139.09 -0.552868 -1.88249 0
M  V30 22428 O 2138.22 0.311274 -2.1415 0
M  V30 22429 C 2138.81 -2.98593 -1.60087 0
M  V30 22430 C 2137.37 -3.10839 -2.12264 0
M  V30 22431 C 2136.52 -2.6038 -0.953822 0
M  V30 22432 H 2139.47 -1.58484 -0.0827074 0
M  V30 22433 H 2139.49 -2.89759 -2.46617 0
M  V30 22434 H 2139 -3.78219 -0.870185 0
M  V30 22435 H 2137.11 -2.35924 -2.88394 0
M  V30 22436 H 2137.22 -4.16924 -2.36031 0
M  V30 22437 H 2135.58 -2.16719 -1.33809 0
M  V30 22438 H 2136.37 -3.4248 -0.237166 0
M  V30 22439 N 2138.81 0.568558 -1.46987 0
M  V30 22440 C 2140.22 1.1507 -1.47023 0
M  V30 22441 C 2140.57 1.94977 -0.218726 0
M  V30 22442 O 2139.7 2.05531 0.677201 0
M  V30 22443 C 2140.29 2.09348 -2.66381 0
M  V30 22444 C 2138.85 2.62857 -2.69413 0
M  V30 22445 C 2138 1.39006 -2.39943 0
M  V30 22446 H 2140.95 0.355745 -1.54661 0
M  V30 22447 H 2140.97 2.93044 -2.42705 0
M  V30 22448 H 2140.48 1.51163 -3.57451 0
M  V30 22449 H 2138.58 3.24872 -1.82452 0
M  V30 22450 H 2138.7 3.04626 -3.69784 0
M  V30 22451 H 2137.06 1.69297 -1.90291 0
M  V30 22452 H 2137.84 0.826309 -3.33207 0
M  V30 22453 N 2140.29 1.34929 0.814366 0
M  V30 22454 C 2141.54 1.27105 1.56612 0
M  V30 22455 C 2141.85 -0.154812 1.94986 0
M  V30 22456 O 2143.06 -0.355268 2.69166 0
M  V30 22457 C 2141.51 2.22863 2.82595 0
M  V30 22458 C 2141.12 3.70753 2.51489 0
M  V30 22459 C 2142.86 2.23965 3.6061 0
M  V30 22460 C 2140.77 4.58355 3.73717 0
M  V30 22461 H 2139.7 0.472214 0.587818 0
M  V30 22462 H 2142.35 1.60146 0.895848 0
M  V30 22463 H 2140.73 1.82784 3.51292 0
M  V30 22464 H 2141.91 4.19421 1.90848 0
M  V30 22465 H 2140.22 3.72182 1.86733 0
M  V30 22466 H 2142.82 2.86634 4.51381 0
M  V30 22467 H 2143.16 1.24126 3.97364 0
M  V30 22468 H 2143.7 2.62533 2.98866 0
M  V30 22469 H 2140.44 5.59163 3.42077 0
M  V30 22470 H 2139.96 4.14418 4.3361 0
M  V30 22471 H 2141.63 4.73391 4.41033 0
M  V30 22472 N 2141.77 -1.0356 1.18799 0
M  V30 22473 C 2143 -1.80226 1.01006 0
M  V30 22474 C 2143.4 -1.83904 -0.444538 0
M  V30 22475 O 2142.75 -1.27698 -1.32056 0
M  V30 22476 C 2142.81 -3.26949 1.49481 0
M  V30 22477 C 2142.47 -3.46921 2.97481 0
M  V30 22478 C 2143.47 -3.37692 3.95297 0
M  V30 22479 C 2141.16 -3.73353 3.36025 0
M  V30 22480 C 2143.15 -3.54609 5.29652 0
M  V30 22481 C 2140.84 -3.89916 4.70541 0
M  V30 22482 C 2141.83 -3.80545 5.67164 0
M  V30 22483 O 2141.52 -3.96627 6.99244 0
M  V30 22484 H 2141.25 -0.574238 0.356688 0
M  V30 22485 H 2143.81 -1.31373 1.57894 0
M  V30 22486 H 2142.04 -3.76795 0.869635 0
M  V30 22487 H 2143.73 -3.85189 1.28001 0
M  V30 22488 H 2144.49 -3.1723 3.66865 0
M  V30 22489 H 2140.37 -3.79743 2.61374 0
M  V30 22490 H 2143.92 -3.47211 6.05054 0
M  V30 22491 H 2139.81 -4.09873 4.98672 0
M  V30 22492 H 2140.58 -4.13758 7.0622 0
M  V30 22493 N 2143.25 -0.990834 -1.22557 0
M  V30 22494 C 2144.66 -0.701213 -1.43371 0
M  V30 22495 C 2144.86 0.728876 -1.87855 0
M  V30 22496 O 2143.92 1.50004 -2.03113 0
M  V30 22497 C 2145.23 -1.70503 -2.47688 0
M  V30 22498 C 2146.78 -1.72024 -2.61489 0
M  V30 22499 C 2147.25 -2.71263 -3.69026 0
M  V30 22500 N 2148.74 -2.69845 -3.76481 0
M  V30 22501 C 2149.48 -3.43297 -4.59276 0
M  V30 22502 N 2148.98 -4.26343 -5.4608 0
M  V30 22503 N 2150.77 -3.32013 -4.53568 0
M  V30 22504 H 2142.92 -1.91447 -0.919875 0
M  V30 22505 H 2145.18 -0.825544 -0.466027 0
M  V30 22506 H 2144.89 -2.72827 -2.21942 0
M  V30 22507 H 2144.76 -1.49623 -3.46256 0
M  V30 22508 H 2147.15 -0.70399 -2.8658 0
M  V30 22509 H 2147.23 -1.96973 -1.63203 0
M  V30 22510 H 2146.87 -3.73036 -3.44683 0
M  V30 22511 H 2146.8 -2.43585 -4.66877 0
M  V30 22512 H 2149.3 -2.09583 -3.14457 0
M  V30 22513 H 2149.61 -4.79221 -6.06273 0
M  V30 22514 H 2147.95 -4.30431 -5.45669 0
M  V30 22515 H 2151.14 -2.66577 -3.84778 0
M  V30 22516 H 2151.32 -3.89516 -5.17862 0
M  V30 22517 N 2144.72 1.37856 -0.763775 0
M  V30 22518 C 2145.63 2.3415 -0.145216 0
M  V30 22519 C 2146.65 1.59782 0.688888 0
M  V30 22520 O 2147.83 1.91919 0.610668 0
M  V30 22521 C 2144.89 3.38934 0.729718 0
M  V30 22522 C 2143.95 4.29132 -0.119926 0
M  V30 22523 C 2143.18 5.28911 0.713343 0
M  V30 22524 O 2143.41 5.36002 1.95086 0
M  V30 22525 O 2142.34 6.01767 0.126758 0
M  V30 22526 H 2146.17 2.88763 -0.940736 0
M  V30 22527 H 2143.75 1.39879 -0.524814 0
M  V30 22528 H 2145.63 4.03066 1.22946 0
M  V30 22529 H 2144.31 2.86661 1.50356 0
M  V30 22530 H 2143.22 3.68127 -0.665843 0
M  V30 22531 H 2144.55 4.84688 -0.856664 0
M  V30 22532 N 2146.2 0.513665 1.48994 0
M  V30 22533 C 2147.45 -0.0282469 2.0168 0
M  V30 22534 C 2147.76 -1.36865 1.3974 0
M  V30 22535 O 2148.97 -1.99799 1.83828 0
M  V30 22536 C 2147.43 -0.100776 3.59759 0
M  V30 22537 C 2147.03 1.23375 4.30677 0
M  V30 22538 C 2148.78 -0.592381 4.20346 0
M  V30 22539 C 2146.68 1.12269 5.80646 0
M  V30 22540 H 2145.61 -0.0143288 0.753864 0
M  V30 22541 H 2148.27 0.654994 1.71412 0
M  V30 22542 H 2146.65 -0.848743 3.86798 0
M  V30 22543 H 2147.82 1.996 4.15327 0
M  V30 22544 H 2146.14 1.65979 3.8189 0
M  V30 22545 H 2148.73 -0.69318 5.30188 0
M  V30 22546 H 2149.08 -1.59429 3.84562 0
M  V30 22547 H 2149.61 0.0994202 3.97676 0
M  V30 22548 H 2146.35 2.09925 6.20976 0
M  V30 22549 H 2145.87 0.401536 5.98454 0
M  V30 22550 H 2147.55 0.806614 6.41952 0
M  V30 22551 N 2147.68 -1.55636 0.248053 0
M  V30 22552 C 2148.63 -2.21428 -0.651012 0
M  V30 22553 C 2149.6 -1.17855 -1.17045 0
M  V30 22554 O 2150.78 -1.46306 -1.22471 0
M  V30 22555 C 2147.92 -2.91846 -1.84174 0
M  V30 22556 C 2147.03 -4.10077 -1.35872 0
M  V30 22557 C 2146.17 -4.68207 -2.50909 0
M  V30 22558 C 2145.21 -5.78685 -1.99475 0
M  V30 22559 N 2144.35 -6.30993 -3.07883 0
M  V30 22560 H 2149.19 -2.97884 -0.0832758 0
M  V30 22561 H 2146.72 -1.47071 -0.0293424 0
M  V30 22562 H 2148.68 -3.30873 -2.54124 0
M  V30 22563 H 2147.31 -2.17862 -2.38193 0
M  V30 22564 H 2146.36 -3.76356 -0.553219 0
M  V30 22565 H 2147.67 -4.89829 -0.941776 0
M  V30 22566 H 2146.83 -5.09814 -3.28899 0
M  V30 22567 H 2145.57 -3.87674 -2.95905 0
M  V30 22568 H 2144.57 -5.36555 -1.19955 0
M  V30 22569 H 2145.8 -6.6107 -1.55447 0
M  V30 22570 H 2143.74 -5.53365 -3.52312 0
M  V30 22571 H 2143.66 -7.05941 -2.70523 0
M  V30 22572 H 2144.93 -6.77258 -3.8593 0
M  V30 22573 N 2149.16 0.0250451 -1.5758 0
M  V30 22574 C 2150.41 0.714108 -1.88636 0
M  V30 22575 C 2150.72 1.76305 -0.847099 0
M  V30 22576 O 2151.93 2.50499 -1.04702 0
M  V30 22577 C 2150.38 1.3212 -3.34772 0
M  V30 22578 C 2149.99 0.308393 -4.46937 0
M  V30 22579 C 2151.73 1.98991 -3.74971 0
M  V30 22580 C 2149.64 0.924059 -5.84136 0
M  V30 22581 H 2148.57 0.270472 -0.703819 0
M  V30 22582 H 2151.22 -0.0313912 -1.83473 0
M  V30 22583 H 2149.6 2.11654 -3.34692 0
M  V30 22584 H 2150.78 -0.460527 -4.58493 0
M  V30 22585 H 2149.09 -0.258451 -4.15597 0
M  V30 22586 H 2151.69 2.45913 -4.74796 0
M  V30 22587 H 2152.03 2.8098 -3.07174 0
M  V30 22588 H 2152.57 1.26226 -3.77242 0
M  V30 22589 H 2149.3 0.143492 -6.55343 0
M  V30 22590 H 2148.82 1.66272 -5.76293 0
M  V30 22591 H 2150.5 1.4302 -6.30995 0
M  V30 22592 N 2150.64 1.54769 0.297388 0
M  V30 22593 C 2151.86 1.78543 1.05533 0
M  V30 22594 C 2152.29 0.54501 1.80031 0
M  V30 22595 O 2151.64 -0.504585 1.74137 0
M  V30 22596 C 2151.69 2.99469 2.00874 0
M  V30 22597 O 2150.8 2.72847 3.09238 0
M  V30 22598 H 2150.14 0.590843 0.302985 0
M  V30 22599 H 2152.67 2.0186 0.333711 0
M  V30 22600 H 2152.68 3.27538 2.43275 0
M  V30 22601 H 2151.35 3.8941 1.46058 0
M  V30 22602 H 2149.93 2.55805 2.71327 0
M  V30 22603 N 2152.11 -0.560755 1.47286 0
M  V30 22604 C 2153.36 -1.32004 1.53957 0
M  V30 22605 C 2153.69 -1.9317 0.199705 0
M  V30 22606 O 2152.97 -1.77676 -0.791288 0
M  V30 22607 C 2153.25 -2.43284 2.6549 0
M  V30 22608 C 2153.1 -1.87009 4.09081 0
M  V30 22609 C 2154.42 -3.45228 2.72957 0
M  V30 22610 H 2151.54 -0.478599 0.560457 0
M  V30 22611 H 2154.18 -0.627854 1.79327 0
M  V30 22612 H 2152.33 -3.02327 2.43989 0
M  V30 22613 H 2154.01 -1.32254 4.41935 0
M  V30 22614 H 2152.25 -1.17705 4.17526 0
M  V30 22615 H 2152.92 -2.67438 4.82888 0
M  V30 22616 H 2155.4 -2.96099 2.92344 0
M  V30 22617 H 2154.27 -4.20522 3.52778 0
M  V30 22618 H 2154.53 -4.03854 1.79874 0
M  V30 22619 N 2153.59 -1.35359 -0.807199 0
M  V30 22620 C 2154.55 -1.28103 -1.90059 0
M  V30 22621 C 2155.55 -0.192614 -1.59642 0
M  V30 22622 O 2156.74 -0.446274 -1.68387 0
M  V30 22623 C 2153.88 -0.981581 -3.26463 0
M  V30 22624 H 2155.07 -2.25323 -1.97912 0
M  V30 22625 H 2152.62 -1.19874 -1.00299 0
M  V30 22626 H 2153.36 -0.013209 -3.24297 0
M  V30 22627 H 2153.14 -1.76903 -3.49925 0
M  V30 22628 H 2154.63 -0.956397 -4.06501 0
M  V30 22629 N 2155.07 1.02928 -1.19346 0
M  V30 22630 C 2156.48 1.57772 -0.998248 0
M  V30 22631 C 2156.83 1.90994 0.448955 0
M  V30 22632 O 2155.96 1.70839 1.32827 0
M  V30 22633 C 2156.55 2.86666 -1.80577 0
M  V30 22634 C 2155.11 3.38084 -1.65457 0
M  V30 22635 C 2154.26 2.11531 -1.79304 0
M  V30 22636 H 2157.21 0.854614 -1.33724 0
M  V30 22637 H 2157.23 3.57545 -1.30161 0
M  V30 22638 H 2156.74 2.62455 -2.85901 0
M  V30 22639 H 2154.84 3.67284 -0.627176 0
M  V30 22640 H 2154.96 4.11143 -2.45965 0
M  V30 22641 H 2153.32 2.23382 -1.22362 0
M  V30 22642 H 2154.1 1.89761 -2.86087 0
M  V30 22643 N 2156.55 0.997319 1.2203 0
M  V30 22644 C 2157.46 0.560352 2.2781 0
M  V30 22645 C 2158.47 -0.392977 1.69504 0
M  V30 22646 O 2159.65 -0.258715 1.99731 0
M  V30 22647 C 2156.71 -0.113747 3.46513 0
M  V30 22648 C 2155.78 0.883099 4.20119 0
M  V30 22649 C 2155.01 0.241074 5.33155 0
M  V30 22650 O 2155.23 -0.963972 5.62195 0
M  V30 22651 O 2154.17 0.948154 5.94385 0
M  V30 22652 H 2157.99 1.44049 2.67364 0
M  V30 22653 H 2155.58 0.765793 1.28281 0
M  V30 22654 H 2157.46 -0.491137 4.18528 0
M  V30 22655 H 2156.13 -0.968387 3.08875 0
M  V30 22656 H 2155.04 1.3115 3.50358 0
M  V30 22657 H 2156.37 1.70708 4.61649 0
M  V30 22658 N 2158.03 -1.37449 0.771075 0
M  V30 22659 C 2159.25 -2.03979 0.346453 0
M  V30 22660 C 2159.67 -1.58156 -1.03113 0
M  V30 22661 O 2159.03 -0.762511 -1.65807 0
M  V30 22662 C 2159.08 -3.595 0.379748 0
M  V30 22663 O 2158.8 -4.03646 1.70298 0
M  V30 22664 C 2160.3 -4.43264 -0.0565544 0
M  V30 22665 H 2157.52 -0.655084 0.145281 0
M  V30 22666 H 2160.06 -1.75795 1.04481 0
M  V30 22667 H 2158.22 -3.86458 -0.270023 0
M  V30 22668 H 2158.63 -4.98163 1.64115 0
M  V30 22669 H 2160.11 -5.51997 0.0178961 0
M  V30 22670 H 2160.58 -4.25025 -1.10683 0
M  V30 22671 H 2161.19 -4.2153 0.565003 0
M  V30 22672 N 2159.5 -0.52156 -1.4872 0
M  V30 22673 C 2160.92 -0.0789475 -1.86533 0
M  V30 22674 C 2161.27 1.34125 -1.43196 0
M  V30 22675 O 2160.39 2.00307 -0.818913 0
M  V30 22676 C 2160.99 -0.136494 -3.38525 0
M  V30 22677 C 2159.55 0.250879 -3.75563 0
M  V30 22678 C 2158.69 -0.499991 -2.72755 0
M  V30 22679 H 2161.64 -0.733264 -1.40744 0
M  V30 22680 H 2161.66 0.653868 -3.7484 0
M  V30 22681 H 2161.18 -1.17024 -3.70036 0
M  V30 22682 H 2159.28 1.28709 -3.49664 0
M  V30 22683 H 2159.39 -0.0828724 -4.79028 0
M  V30 22684 H 2157.75 0.0527232 -2.54645 0
M  V30 22685 H 2158.54 -1.53421 -3.0711 0
M  V30 22686 N 2160.98 1.55502 -0.256304 0
M  V30 22687 C 2162.39 1.85085 0.245072 0
M  V30 22688 C 2162.74 1.17822 1.56883 0
M  V30 22689 O 2161.87 0.459889 2.11457 0
M  V30 22690 C 2162.46 3.35779 0.451444 0
M  V30 22691 C 2161.02 3.65554 0.897072 0
M  V30 22692 C 2160.17 2.77293 -0.0203944 0
M  V30 22693 H 2163.12 1.51311 -0.478616 0
M  V30 22694 H 2163.14 3.57867 1.29273 0
M  V30 22695 H 2162.65 3.84706 -0.51217 0
M  V30 22696 H 2160.76 3.22112 1.87282 0
M  V30 22697 H 2160.87 4.73234 0.747422 0
M  V30 22698 H 2159.23 2.4989 0.492637 0
M  V30 22699 H 2160.02 3.29028 -0.979551 0
M  V30 22700 N 2162.46 -0.0166879 1.57591 0
M  V30 22701 C 2163.87 -0.561696 1.7805 0
M  V30 22702 C 2164.22 -1.74907 0.888926 0
M  V30 22703 O 2163.35 -2.16225 0.0869853 0
M  V30 22704 C 2163.94 -1.02576 3.22899 0
M  V30 22705 C 2162.5 -1.51619 3.44512 0
M  V30 22706 C 2161.65 -0.459817 2.73461 0
M  V30 22707 H 2164.6 0.209523 1.57311 0
M  V30 22708 H 2164.62 -1.89257 3.30094 0
M  V30 22709 H 2164.13 -0.16136 3.87764 0
M  V30 22710 H 2162.23 -2.40203 2.84839 0
M  V30 22711 H 2162.35 -1.55516 4.53157 0
M  V30 22712 H 2160.71 -0.917683 2.37594 0
M  V30 22713 H 2161.49 0.395327 3.41016 0
M  V30 22714 N 2163.94 -1.54924 -0.289176 0
M  V30 22715 C 2165.35 -1.65642 -0.861368 0
M  V30 22716 C 2165.7 -0.572803 -1.87652 0
M  V30 22717 O 2164.83 0.288543 -2.14468 0
M  V30 22718 C 2165.42 -3.00274 -1.56911 0
M  V30 22719 C 2163.98 -3.13073 -2.08955 0
M  V30 22720 C 2163.13 -2.61377 -0.926152 0
M  V30 22721 H 2166.08 -1.58563 -0.0658933 0
M  V30 22722 H 2166.1 -2.92358 -2.4353 0
M  V30 22723 H 2165.61 -3.7912 -0.830021 0
M  V30 22724 H 2163.71 -2.38969 -2.85875 0
M  V30 22725 H 2163.82 -4.19404 -2.31596 0
M  V30 22726 H 2162.19 -2.18126 -1.31503 0
M  V30 22727 H 2162.97 -3.42712 -0.200828 0
M  V30 22728 N 2165.42 0.552936 -1.47582 0
M  V30 22729 C 2166.66 1.31186 -1.54655 0
M  V30 22730 C 2167 1.93062 -0.209946 0
M  V30 22731 O 2166.27 1.78093 0.781854 0
M  V30 22732 C 2166.55 2.41873 -2.66776 0
M  V30 22733 C 2166.41 1.84837 -4.10067 0
M  V30 22734 C 2167.73 3.43776 -2.74784 0
M  V30 22735 H 2164.84 0.47562 -0.562987 0
M  V30 22736 H 2167.49 0.618335 -1.79657 0
M  V30 22737 H 2165.64 3.01029 -2.45589 0
M  V30 22738 H 2167.31 1.29909 -4.4263 0
M  V30 22739 H 2165.55 1.15489 -4.18144 0
M  V30 22740 H 2166.22 2.64874 -4.84299 0
M  V30 22741 H 2168.7 2.94544 -2.9391 0
M  V30 22742 H 2167.57 4.18646 -3.55003 0
M  V30 22743 H 2167.84 4.02894 -1.82013 0
M  V30 22744 N 2166.89 1.35785 0.800009 0
M  V30 22745 C 2168.14 1.28759 1.55255 0
M  V30 22746 C 2168.46 -0.134123 1.9514 0
M  V30 22747 O 2169.66 -0.3267 2.69527 0
M  V30 22748 C 2168.12 2.25848 2.80215 0
M  V30 22749 C 2167.73 3.73399 2.47542 0
M  V30 22750 C 2169.47 2.27777 3.58215 0
M  V30 22751 C 2167.38 4.62293 3.68834 0
M  V30 22752 H 2166.31 0.478422 0.582777 0
M  V30 22753 H 2168.96 1.61087 0.878812 0
M  V30 22754 H 2167.34 1.86499 3.49334 0
M  V30 22755 H 2168.51 4.21421 1.86389 0
M  V30 22756 H 2166.83 3.74142 1.82775 0
M  V30 22757 H 2169.43 2.91406 4.48315 0
M  V30 22758 H 2169.77 1.28334 3.96025 0
M  V30 22759 H 2170.3 2.65688 2.96065 0
M  V30 22760 H 2167.04 5.6276 3.36127 0
M  V30 22761 H 2166.56 4.18993 4.29191 0
M  V30 22762 H 2168.24 4.78042 4.35987 0
M  V30 22763 N 2168.37 -1.02294 1.19891 0
M  V30 22764 C 2169.34 -2.08864 0.943854 0
M  V30 22765 C 2170.34 -1.6061 -0.0780656 0
M  V30 22766 O 2171.53 -1.73488 0.157319 0
M  V30 22767 C 2168.66 -3.38306 0.419714 0
M  V30 22768 H 2169.85 -2.32924 1.88909 0
M  V30 22769 H 2167.4 -1.18996 1.01339 0
M  V30 22770 H 2168.14 -3.19918 -0.531286 0
M  V30 22771 H 2167.92 -3.74653 1.15661 0
M  V30 22772 H 2169.41 -4.16786 0.26055 0
M  V30 22773 N 2169.85 -1.00378 -1.21499 0
M  V30 22774 C 2171.13 -0.601329 -1.86127 0
M  V30 22775 C 2171.51 0.921083 -1.89945 0
M  V30 22776 O 2170.86 1.80753 -1.39787 0
M  V30 22777 C 2171.07 -1.2343 -3.26445 0
M  V30 22778 C 2172.41 -1.34165 -4.02846 0
M  V30 22779 O 2173.44 -1.18952 -3.35751 0
M  V30 22780 O 2172.3 -1.58622 -5.22973 0
M  V30 22781 H 2169.39 -0.205796 -0.800985 0
M  V30 22782 H 2171.94 -1.10035 -1.29192 0
M  V30 22783 H 2170.71 -2.27515 -3.18359 0
M  V30 22784 H 2170.33 -0.721556 -3.90998 0
M  V30 22785 N 2171.33 1.37038 -0.778354 0
M  V30 22786 C 2172.26 2.3278 -0.183215 0
M  V30 22787 C 2173.24 1.56107 0.675623 0
M  V30 22788 O 2174.42 1.84314 0.611726 0
M  V30 22789 C 2171.55 3.40346 0.691526 0
M  V30 22790 C 2170.51 4.27948 -0.0665313 0
M  V30 22791 C 2169.83 5.26584 0.928085 0
M  V30 22792 C 2171.13 5.07137 -1.24936 0
M  V30 22793 H 2172.83 2.82801 -0.983049 0
M  V30 22794 H 2170.37 1.35969 -0.474169 0
M  V30 22795 H 2172.33 4.06306 1.11773 0
M  V30 22796 H 2171.05 2.88866 1.52395 0
M  V30 22797 H 2169.71 3.63528 -0.473586 0
M  V30 22798 H 2169.36 4.71381 1.75524 0
M  V30 22799 H 2169.06 5.86058 0.425371 0
M  V30 22800 H 2170.58 5.95419 1.35309 0
M  V30 22801 H 2172 5.662 -0.899476 0
M  V30 22802 H 2170.39 5.7597 -1.68461 0
M  V30 22803 H 2171.46 4.39425 -2.05021 0
M  V30 22804 N 2172.81 0.529439 1.48441 0
M  V30 22805 C 2173.74 -0.222417 2.32438 0
M  V30 22806 C 2174.72 -0.935598 1.42058 0
M  V30 22807 O 2175.9 -0.921483 1.70945 0
M  V30 22808 C 2173.03 -1.27012 3.23242 0
M  V30 22809 C 2171.99 -0.675114 4.22642 0
M  V30 22810 C 2171.31 -1.82543 5.02576 0
M  V30 22811 C 2172.61 0.352815 5.21107 0
M  V30 22812 H 2174.31 0.478777 2.95547 0
M  V30 22813 H 2171.85 0.231695 1.42124 0
M  V30 22814 H 2173.81 -1.80405 3.80831 0
M  V30 22815 H 2172.53 -2.00089 2.58132 0
M  V30 22816 H 2171.19 -0.162711 3.66239 0
M  V30 22817 H 2170.84 -2.54456 4.33891 0
M  V30 22818 H 2170.54 -1.43323 5.69853 0
M  V30 22819 H 2172.06 -2.36315 5.63017 0
M  V30 22820 H 2173.48 -0.0940075 5.73223 0
M  V30 22821 H 2171.87 0.662368 5.96433 0
M  V30 22822 H 2172.94 1.25877 4.68277 0
M  V30 22823 N 2174.29 -1.55364 0.264547 0
M  V30 22824 C 2175.23 -2.22106 -0.62749 0
M  V30 22825 C 2176.2 -1.1909 -1.15788 0
M  V30 22826 O 2177.39 -1.47597 -1.20912 0
M  V30 22827 C 2174.53 -2.93783 -1.81068 0
M  V30 22828 C 2173.64 -4.11495 -1.31515 0
M  V30 22829 C 2172.78 -4.70842 -2.45929 0
M  V30 22830 C 2171.81 -5.80768 -1.93326 0
M  V30 22831 N 2170.95 -6.34223 -3.01173 0
M  V30 22832 H 2175.79 -2.97955 -0.0516766 0
M  V30 22833 H 2173.33 -1.47094 -0.0137419 0
M  V30 22834 H 2175.29 -3.33549 -2.50601 0
M  V30 22835 H 2173.92 -2.20376 -2.35869 0
M  V30 22836 H 2172.97 -3.76921 -0.513271 0
M  V30 22837 H 2174.28 -4.908 -0.88977 0
M  V30 22838 H 2173.43 -5.13274 -3.23474 0
M  V30 22839 H 2172.17 -3.90791 -2.91777 0
M  V30 22840 H 2171.18 -5.37797 -1.14257 0
M  V30 22841 H 2172.4 -6.62681 -1.48426 0
M  V30 22842 H 2170.35 -5.5707 -3.46423 0
M  V30 22843 H 2170.27 -7.08771 -2.63021 0
M  V30 22844 H 2171.53 -6.81313 -3.78725 0
M  V30 22845 N 2175.76 0.00833021 -1.57598 0
M  V30 22846 C 2176.99 0.709778 -1.94877 0
M  V30 22847 C 2177.41 1.66973 -0.866121 0
M  V30 22848 O 2176.77 1.80439 0.176468 0
M  V30 22849 C 2176.82 1.42509 -3.31245 0
M  V30 22850 O 2175.92 2.53918 -3.2496 0
M  V30 22851 H 2175.26 0.189418 -0.636409 0
M  V30 22852 H 2177.79 -0.0423784 -2.04556 0
M  V30 22853 H 2177.8 1.79039 -3.66618 0
M  V30 22854 H 2176.48 0.72119 -4.09599 0
M  V30 22855 H 2175.06 2.19778 -3.01251 0
M  V30 22856 N 2177.24 1.55075 0.280956 0
M  V30 22857 C 2178.49 1.75566 1.01511 0
M  V30 22858 C 2178.82 0.55079 1.86226 0
M  V30 22859 O 2178.1 -0.451807 1.8918 0
M  V30 22860 C 2178.38 3.05625 1.90434 0
M  V30 22861 C 2178.23 4.36452 1.08766 0
M  V30 22862 C 2179.55 3.31672 2.89277 0
M  V30 22863 H 2176.67 0.638765 0.367626 0
M  V30 22864 H 2179.31 1.87803 0.28812 0
M  V30 22865 H 2177.46 2.95324 2.5242 0
M  V30 22866 H 2179.13 4.587 0.489115 0
M  V30 22867 H 2177.38 4.32035 0.390884 0
M  V30 22868 H 2178.05 5.23764 1.74285 0
M  V30 22869 H 2180.52 3.41715 2.37424 0
M  V30 22870 H 2179.4 4.23955 3.48645 0
M  V30 22871 H 2179.66 2.50928 3.63988 0
M  V30 22872 N 2178.72 -0.545102 1.47873 0
M  V30 22873 C 2180 -1.30611 1.45603 0
M  V30 22874 C 2180.38 -2.10497 0.159489 0
M  V30 22875 O 2179.72 -2.11741 -0.85895 0
M  V30 22876 C 2179.93 -2.20038 2.70895 0
M  V30 22877 C 2181.28 -2.80668 3.18608 0
M  V30 22878 O 2182.31 -2.30334 2.71707 0
M  V30 22879 O 2181.17 -3.72185 4.00176 0
M  V30 22880 H 2178.26 -0.588726 0.580802 0
M  V30 22881 H 2180.81 -0.563004 1.60089 0
M  V30 22882 H 2179.58 -1.6069 3.56784 0
M  V30 22883 H 2179.2 -3.01622 2.59056 0
M  V30 22884 N 2180.2 -1.36208 -0.792797 0
M  V30 22885 C 2181.42 -1.3356 -1.58671 0
M  V30 22886 C 2181.85 0.0814602 -1.87924 0
M  V30 22887 O 2181.21 1.05241 -1.47628 0
M  V30 22888 C 2181.25 -2.16123 -2.88658 0
M  V30 22889 O 2180.36 -1.5514 -3.82106 0
M  V30 22890 H 2179.7 -0.45729 -0.481438 0
M  V30 22891 H 2182.23 -1.79444 -0.982909 0
M  V30 22892 H 2182.24 -2.28579 -3.37958 0
M  V30 22893 H 2180.91 -3.19136 -2.66693 0
M  V30 22894 H 2179.49 -1.51604 -3.40691 0
M  V30 22895 N 2181.68 1.01656 -1.20431 0
M  V30 22896 C 2182.59 2.13658 -0.968877 0
M  V30 22897 C 2183.6 1.73837 0.075256 0
M  V30 22898 O 2184.78 2.01087 -0.112194 0
M  V30 22899 C 2181.84 3.42716 -0.524052 0
M  V30 22900 C 2180.9 3.9678 -1.63904 0
M  V30 22901 C 2180.14 5.19678 -1.21534 0
M  V30 22902 O 2180.36 5.70338 -0.0840508 0
M  V30 22903 O 2179.29 5.66893 -2.02278 0
M  V30 22904 H 2183.12 2.3639 -1.90666 0
M  V30 22905 H 2180.7 1.1205 -0.98819 0
M  V30 22906 H 2182.59 4.20434 -0.285221 0
M  V30 22907 H 2181.26 3.21401 0.385143 0
M  V30 22908 H 2180.17 3.20341 -1.93215 0
M  V30 22909 H 2181.5 4.22484 -2.52524 0
M  V30 22910 N 2183.15 1.01021 1.20965 0
M  V30 22911 C 2184.43 0.611192 1.85806 0
M  V30 22912 C 2184.81 -0.910997 1.90431 0
M  V30 22913 O 2184.16 -1.80009 1.40744 0
M  V30 22914 C 2184.37 1.25159 3.25785 0
M  V30 22915 C 2185.72 1.36299 4.02129 0
M  V30 22916 O 2186.74 1.20731 3.35116 0
M  V30 22917 O 2185.6 1.61393 5.22125 0
M  V30 22918 H 2182.69 0.210041 0.799882 0
M  V30 22919 H 2185.24 1.10718 1.28606 0
M  V30 22920 H 2184.01 2.292 3.17148 0
M  V30 22921 H 2183.63 0.742281 3.9061 0
M  V30 22922 N 2184.63 -1.36623 0.78561 0
M  V30 22923 C 2185.88 -1.99637 0.356782 0
M  V30 22924 C 2186.21 -1.62212 -1.06775 0
M  V30 22925 O 2185.49 -0.875041 -1.73705 0
M  V30 22926 C 2185.77 -3.56381 0.516214 0
M  V30 22927 C 2185.62 -4.03672 1.98417 0
M  V30 22928 C 2186.94 -4.40043 -0.0710792 0
M  V30 22929 H 2184.06 -0.725244 0.13111 0
M  V30 22930 H 2186.7 -1.62094 0.99124 0
M  V30 22931 H 2184.85 -3.88493 -0.023898 0
M  V30 22932 H 2186.52 -3.82064 2.58505 0
M  V30 22933 H 2184.77 -3.55352 2.48812 0
M  V30 22934 H 2185.44 -5.12654 2.0467 0
M  V30 22935 H 2187.91 -4.14269 0.389931 0
M  V30 22936 H 2186.79 -5.48855 0.070524 0
M  V30 22937 H 2187.05 -4.26534 -1.16281 0
M  V30 22938 N 2186.11 -0.537304 -1.48158 0
M  V30 22939 C 2187.53 -0.195663 -1.58396 0
M  V30 22940 C 2187.73 1.30132 -1.53843 0
M  V30 22941 O 2186.78 2.08011 -1.43135 0
M  V30 22942 C 2188.09 -0.804684 -2.89733 0
M  V30 22943 C 2189.64 -0.774086 -3.03277 0
M  V30 22944 C 2190.12 -1.36181 -4.37285 0
M  V30 22945 N 2191.61 -1.32411 -4.43871 0
M  V30 22946 C 2192.34 -1.74869 -5.46085 0
M  V30 22947 N 2191.84 -2.2509 -6.55215 0
M  V30 22948 N 2193.63 -1.66061 -5.3701 0
M  V30 22949 H 2185.78 -1.51014 -1.4936 0
M  V30 22950 H 2188.05 -0.628585 -0.709637 0
M  V30 22951 H 2187.75 -1.85596 -2.98742 0
M  V30 22952 H 2187.63 -0.286039 -3.76114 0
M  V30 22953 H 2190.01 0.26845 -2.93876 0
M  V30 22954 H 2190.09 -1.33028 -2.18489 0
M  V30 22955 H 2189.74 -2.40332 -4.47441 0
M  V30 22956 H 2189.67 -0.781239 -5.20773 0
M  V30 22957 H 2192.16 -0.956544 -3.65594 0
M  V30 22958 H 2192.47 -2.55463 -7.29355 0
M  V30 22959 H 2190.82 -2.29088 -6.56158 0
M  V30 22960 H 2194.01 -1.26618 -4.5065 0
M  V30 22961 H 2194.18 -1.9947 -6.16535 0
M  V30 22962 N 2187.59 1.55221 -0.272782 0
M  V30 22963 C 2188.5 2.26098 0.62584 0
M  V30 22964 C 2189.51 1.28606 1.17203 0
M  V30 22965 O 2190.69 1.61537 1.20281 0
M  V30 22966 C 2187.76 2.96645 1.7945 0
M  V30 22967 C 2186.82 4.0961 1.28522 0
M  V30 22968 C 2186.05 4.76784 2.39819 0
M  V30 22969 O 2186.27 4.43155 3.59124 0
M  V30 22970 O 2185.21 5.64779 2.08107 0
M  V30 22971 H 2189.03 3.03656 0.0517442 0
M  V30 22972 H 2186.62 1.49346 -0.0402752 0
M  V30 22973 H 2188.5 3.40989 2.47597 0
M  V30 22974 H 2187.17 2.22006 2.35573 0
M  V30 22975 H 2186.08 3.69728 0.570286 0
M  V30 22976 H 2187.41 4.86143 0.769772 0
M  V30 22977 N 2189.07 2.77022e-05 1.576 0
M  V30 22978 C 2190.3 -0.69479 1.94567 0
M  V30 22979 C 2190.7 -1.67836 0.873374 0
M  V30 22980 O 2190.05 -1.83034 -0.156298 0
M  V30 22981 C 2190.11 -1.48224 3.27521 0
M  V30 22982 C 2189.77 -0.660251 4.52205 0
M  V30 22983 C 2190.77 0.0520805 5.19874 0
M  V30 22984 C 2188.46 -0.606213 4.98628 0
M  V30 22985 C 2190.45 0.807435 6.32265 0
M  V30 22986 C 2188.14 0.152866 6.10909 0
M  V30 22987 C 2189.13 0.858424 6.77584 0
M  V30 22988 O 2188.82 1.60512 7.87713 0
M  V30 22989 H 2188.55 -0.198468 0.646209 0
M  V30 22990 H 2191.11 0.0472739 2.05346 0
M  V30 22991 H 2189.34 -2.26878 3.1315 0
M  V30 22992 H 2191.03 -2.0624 3.496 0
M  V30 22993 H 2191.79 0.0194852 4.84996 0
M  V30 22994 H 2187.67 -1.14492 4.46556 0
M  V30 22995 H 2191.22 1.35868 6.84241 0
M  V30 22996 H 2187.11 0.187282 6.45228 0
M  V30 22997 H 2187.88 1.52183 8.04228 0
M  V30 22998 N 2190.54 -1.55222 -0.272728 0
M  V30 22999 C 2191.78 -1.77592 -1.01194 0
M  V30 23000 C 2192.15 -0.565326 -1.83489 0
M  V30 23001 O 2193.35 -0.667288 -2.60386 0
M  V30 23002 C 2191.62 -3.04519 -1.87091 0
M  V30 23003 S 2193.18 -3.48009 -2.67273 0
M  V30 23004 H 2190 -0.623986 -0.340825 0
M  V30 23005 H 2192.6 -1.9345 -0.28234 0
M  V30 23006 H 2191.3 -3.90722 -1.25558 0
M  V30 23007 H 2190.83 -2.91328 -2.64371 0
M  V30 23008 H 2192.85 -3.07304 -3.89588 0
M  V30 23009 N 2192.02 0.537252 -1.4816 0
M  V30 23010 C 2192.97 1.64253 -1.62141 0
M  V30 23011 C 2193.94 1.59496 -0.463696 0
M  V30 23012 O 2195.12 1.78031 -0.686272 0
M  V30 23013 C 2192.26 3.02534 -1.66033 0
M  V30 23014 C 2191.38 3.17579 -2.9286 0
M  V30 23015 C 2190.51 4.46377 -2.8796 0
M  V30 23016 C 2189.55 4.54925 -4.09524 0
M  V30 23017 N 2188.69 5.75102 -4.02743 0
M  V30 23018 H 2193.53 1.51643 -2.56532 0
M  V30 23019 H 2191.07 0.738391 -1.27225 0
M  V30 23020 H 2193.02 3.82635 -1.66272 0
M  V30 23021 H 2191.65 3.13933 -0.751387 0
M  V30 23022 H 2190.71 2.30779 -3.02399 0
M  V30 23023 H 2192.02 3.19757 -3.82827 0
M  V30 23024 H 2191.17 5.3476 -2.8656 0
M  V30 23025 H 2189.91 4.46709 -1.9571 0
M  V30 23026 H 2188.92 3.6495 -4.11208 0
M  V30 23027 H 2190.14 4.56337 -5.02925 0
M  V30 23028 H 2188.09 5.76345 -3.13309 0
M  V30 23029 H 2188 5.78743 -4.86408 0
M  V30 23030 H 2189.27 6.65792 -4.0539 0
M  V30 23031 N 2193.5 1.36626 0.785562 0
M  V30 23032 C 2194.41 1.33428 1.92961 0
M  V30 23033 C 2195.43 0.235882 1.72394 0
M  V30 23034 O 2196.6 0.468912 1.95865 0
M  V30 23035 C 2193.67 1.12668 3.27882 0
M  V30 23036 C 2192.73 2.32019 3.612 0
M  V30 23037 C 2191.96 2.1224 4.89684 0
M  V30 23038 O 2192.18 1.09955 5.59702 0
M  V30 23039 O 2191.12 3.00107 5.21746 0
M  V30 23040 H 2194.94 2.29757 1.98609 0
M  V30 23041 H 2192.53 1.17213 0.926363 0
M  V30 23042 H 2194.41 1.03024 4.08612 0
M  V30 23043 H 2193.09 0.194048 3.23118 0
M  V30 23044 H 2191.99 2.47233 2.80761 0
M  V30 23045 H 2193.33 3.23802 3.70693 0
M  V30 23046 N 2194.98 -1.01016 1.20969 0
M  V30 23047 C 2195.93 -2.09689 0.964317 0
M  V30 23048 C 2196.9 -1.6575 -0.107824 0
M  V30 23049 O 2198.08 -1.90762 0.0382323 0
M  V30 23050 C 2195.22 -3.41014 0.52949 0
M  V30 23051 C 2194.33 -3.98395 1.6705 0
M  V30 23052 C 2193.47 -5.17806 1.18534 0
M  V30 23053 C 2192.51 -5.67284 2.29902 0
M  V30 23054 N 2191.64 -6.77951 1.82558 0
M  V30 23055 H 2196.48 -2.30013 1.89467 0
M  V30 23056 H 2194.02 -1.12788 0.944309 0
M  V30 23057 H 2195.98 -4.16397 0.258662 0
M  V30 23058 H 2194.61 -3.20743 -0.363862 0
M  V30 23059 H 2193.66 -3.20046 2.05609 0
M  V30 23060 H 2194.97 -4.31113 2.50885 0
M  V30 23061 H 2194.13 -6.00417 0.870867 0
M  V30 23062 H 2192.87 -4.86669 0.316973 0
M  V30 23063 H 2191.87 -4.83273 2.62158 0
M  V30 23064 H 2193.1 -6.00453 3.17226 0
M  V30 23065 H 2191.04 -6.4863 0.980568 0
M  V30 23066 H 2190.96 -7.09896 2.59969 0
M  V30 23067 H 2192.23 -7.6411 1.54129 0
M  V30 23068 N 2196.46 -1.01661 -1.20428 0
M  V30 23069 C 2197.7 -0.704556 -1.89421 0
M  V30 23070 C 2198.03 0.768165 -1.79232 0
M  V30 23071 O 2197.3 1.55252 -1.19473 0
M  V30 23072 H 2195.88 -0.257615 -0.701173 0
M  V30 23073 H 2198.54 -1.28821 -1.46257 0
M  V30 23074 H 2197.63 -0.987968 -2.9605 0
M  V30 23075 N 2197.93 1.36205 -0.792844 0
M  V30 23076 C 2199.18 1.99886 -0.37645 0
M  V30 23077 C 2199.54 1.6179 1.04124 0
M  V30 23078 O 2198.83 0.864223 1.71002 0
M  V30 23079 C 2199.02 3.54141 -0.481564 0
M  V30 23080 C 2198.85 4.0722 -1.90793 0
M  V30 23081 C 2197.62 4.3721 -2.53329 0
M  V30 23082 C 2199.82 4.26736 -2.87055 0
M  V30 23083 N 2197.8 4.76133 -3.87519 0
M  V30 23084 C 2199.17 4.68502 -4.06086 0
M  V30 23085 C 2201.23 4.08913 -2.84067 0
M  V30 23086 C 2199.93 4.94312 -5.2254 0
M  V30 23087 C 2201.96 4.35871 -3.99713 0
M  V30 23088 C 2201.32 4.77897 -5.17488 0
M  V30 23089 H 2197.42 0.759744 -0.185239 0
M  V30 23090 H 2200 1.65151 -1.03117 0
M  V30 23091 H 2198.17 3.88136 0.143086 0
M  V30 23092 H 2199.9 4.04679 -0.0410839 0
M  V30 23093 H 2196.66 4.27037 -2.04784 0
M  V30 23094 H 2197.08 4.99874 -4.56569 0
M  V30 23095 H 2201.73 3.75576 -1.94171 0
M  V30 23096 H 2199.44 5.26529 -6.13019 0
M  V30 23097 H 2203.03 4.23648 -3.98765 0
M  V30 23098 H 2201.91 4.98352 -6.05487 0
M  V30 23099 N 2199.41 0.545154 1.47871 0
M  V30 23100 C 2200.34 -0.197752 2.32661 0
M  V30 23101 C 2201.32 -0.920479 1.43043 0
M  V30 23102 O 2202.51 -0.9033 1.71913 0
M  V30 23103 C 2199.64 -1.23576 3.24571 0
M  V30 23104 C 2198.59 -0.630249 4.23334 0
M  V30 23105 C 2197.92 -1.77202 5.04483 0
M  V30 23106 C 2199.22 0.408065 5.20703 0
M  V30 23107 H 2200.91 0.510097 2.95023 0
M  V30 23108 H 2198.46 0.246756 1.4187 0
M  V30 23109 H 2200.41 -1.76355 3.82723 0
M  V30 23110 H 2199.14 -1.9734 2.6024 0
M  V30 23111 H 2197.79 -0.123857 3.66391 0
M  V30 23112 H 2197.44 -2.4984 4.36565 0
M  V30 23113 H 2197.14 -1.37271 5.71341 0
M  V30 23114 H 2198.67 -2.3033 5.65491 0
M  V30 23115 H 2200.08 -0.0332043 5.7329 0
M  V30 23116 H 2198.48 0.725591 5.95697 0
M  V30 23117 H 2199.55 1.30837 4.66915 0
M  V30 23118 N 2200.89 -1.55074 0.28101 0
M  V30 23119 C 2202.14 -1.98903 -0.334749 0
M  V30 23120 C 2202.45 -1.17291 -1.56532 0
M  V30 23121 O 2203.66 -1.51291 -2.2544 0
M  V30 23122 C 2202.11 -3.54038 -0.646931 0
M  V30 23123 C 2201.72 -4.44434 0.564163 0
M  V30 23124 C 2203.47 -4.06441 -1.22499 0
M  V30 23125 C 2201.37 -5.90967 0.226241 0
M  V30 23126 H 2200.3 -0.742908 -0.128853 0
M  V30 23127 H 2202.95 -1.79382 0.386587 0
M  V30 23128 H 2201.34 -3.69382 -1.42733 0
M  V30 23129 H 2202.51 -4.40859 1.3409 0
M  V30 23130 H 2200.83 -4.02696 1.05947 0
M  V30 23131 H 2203.42 -5.1347 -1.49173 0
M  V30 23132 H 2203.77 -3.55831 -2.16079 0
M  V30 23133 H 2204.3 -3.94559 -0.506751 0
M  V30 23134 H 2201.04 -6.45685 1.13007 0
M  V30 23135 H 2200.56 -5.97597 -0.513612 0
M  V30 23136 H 2202.24 -6.46751 -0.179426 0
M  V30 23137 N 2202.37 -0.00838561 -1.57598 0
M  V30 23138 C 2203.78 0.533299 -1.78921 0
M  V30 23139 C 2204.13 1.73471 -0.916639 0
M  V30 23140 O 2203.26 2.16059 -0.121374 0
M  V30 23141 C 2203.85 0.974256 -3.2449 0
M  V30 23142 C 2202.41 1.46119 -3.46881 0
M  V30 23143 C 2201.56 0.416254 -2.74158 0
M  V30 23144 H 2204.51 -0.234523 -1.56958 0
M  V30 23145 H 2204.53 1.83982 -3.33063 0
M  V30 23146 H 2204.04 0.0996498 -3.87972 0
M  V30 23147 H 2202.14 2.35641 -2.88624 0
M  V30 23148 H 2202.26 1.48287 -4.55574 0
M  V30 23149 H 2200.62 0.879768 -2.39023 0
M  V30 23150 H 2201.4 -0.44953 -3.40344 0
M  V30 23151 N 2203.85 1.55365 0.264492 0
M  V30 23152 C 2204.76 1.91936 1.34899 0
M  V30 23153 C 2205.77 0.81762 1.53594 0
M  V30 23154 O 2206.95 1.11745 1.67556 0
M  V30 23155 C 2204.01 2.19126 2.68672 0
M  V30 23156 C 2203.08 3.42634 2.58651 0
M  V30 23157 C 2202.31 3.68517 3.86045 0
M  V30 23158 O 2202.53 2.96765 4.87121 0
M  V30 23159 O 2201.47 4.62051 3.85736 0
M  V30 23160 H 2205.29 2.84272 1.06878 0
M  V30 23161 H 2202.88 1.4202 0.46375 0
M  V30 23162 H 2204.76 2.38001 3.47755 0
M  V30 23163 H 2203.43 1.29971 2.96461 0
M  V30 23164 H 2202.34 3.29086 1.77914 0
M  V30 23165 H 2203.67 4.32035 2.3581 0
M  V30 23166 N 2205.33 -0.529387 1.48443 0
M  V30 23167 C 2206.57 -1.28709 1.56722 0
M  V30 23168 C 2206.9 -1.92703 0.240634 0
M  V30 23169 O 2206.18 -1.79315 -0.753422 0
M  V30 23170 C 2206.46 -2.37598 2.70591 0
M  V30 23171 C 2206.32 -1.7829 4.12956 0
M  V30 23172 C 2207.63 -3.39361 2.80218 0
M  V30 23173 H 2204.75 -0.466603 0.570483 0
M  V30 23174 H 2207.4 -0.589675 1.80618 0
M  V30 23175 H 2205.55 -2.97084 2.50347 0
M  V30 23176 H 2207.22 -1.2285 4.44641 0
M  V30 23177 H 2205.46 -1.08822 4.19929 0
M  V30 23178 H 2206.13 -2.57135 4.88452 0
M  V30 23179 H 2208.61 -2.89831 2.98558 0
M  V30 23180 H 2207.48 -4.12945 3.61618 0
M  V30 23181 H 2207.74 -3.99947 1.884 0
M  V30 23182 N 2206.8 -1.37041 -0.778305 0
M  V30 23183 C 2207.75 -1.32349 -1.91276 0
M  V30 23184 C 2208.75 -0.213361 -1.68051 0
M  V30 23185 O 2209.95 -0.381011 -1.75921 0
M  V30 23186 H 2206.33 -0.412294 -0.628902 0
M  V30 23187 H 2208.3 -2.28131 -1.92351 0
M  V30 23188 C 2207.05 -1.14079 -3.28453 0
M  V30 23189 H 2206.37 -1.98752 -3.46897 0
M  V30 23190 H 2207.81 -1.14845 -4.0815 0
M  V30 23191 C 2206.27 0.153956 -3.36548 0
M  V30 23192 O 2206.8 1.13987 -3.85188 0
M  V30 23193 N 2205 0.202424 -2.89894 0
M  V30 23194 H 2204.55 -0.60052 -2.50503 0
M  V30 23195 H 2204.51 1.06836 -2.95691 0
M  V30 23196 N 2208.28 1.00373 -1.21503 0
M  V30 23197 C 2209.51 1.78278 -1.0598 0
M  V30 23198 C 2209.93 1.84098 0.385962 0
M  V30 23199 O 2209.29 1.28549 1.27847 0
M  V30 23200 C 2209.34 3.1996 -1.66307 0
M  V30 23201 O 2208.44 4.02248 -0.909404 0
M  V30 23202 H 2207.78 0.54939 -0.372916 0
M  V30 23203 H 2210.31 1.26162 -1.61072 0
M  V30 23204 H 2210.32 3.70629 -1.70581 0
M  V30 23205 H 2209 3.15038 -2.71521 0
M  V30 23206 H 2207.57 3.60809 -0.941859 0
M  V30 23207 N 2209.76 1.02298 1.19887 0
M  V30 23208 C 2210.99 0.735433 1.93388 0
M  V30 23209 C 2211.4 -0.704856 1.75149 0
M  V30 23210 O 2210.76 -1.47873 1.06957 0
M  V30 23211 C 2210.81 1.06968 3.45312 0
M  V30 23212 O 2210.53 2.45341 3.62959 0
M  V30 23213 C 2212.03 0.804098 4.35946 0
M  V30 23214 H 2209.25 0.269557 0.614475 0
M  V30 23215 H 2211.8 1.36588 1.52197 0
M  V30 23216 H 2209.95 0.484523 3.84358 0
M  V30 23217 H 2210.37 2.57603 4.56882 0
M  V30 23218 H 2211.84 1.08799 5.41172 0
M  V30 23219 H 2212.32 -0.261613 4.3842 0
M  V30 23220 H 2212.92 1.37171 4.02572 0
M  V30 23221 N 2211.24 -1.35782 0.800057 0
M  V30 23222 C 2212.17 -2.32459 0.220225 0
M  V30 23223 C 2213.15 -1.57162 -0.650702 0
M  V30 23224 O 2214.33 -1.85264 -0.582326 0
M  V30 23225 C 2211.46 -3.41403 -0.637293 0
M  V30 23226 C 2210.42 -4.27788 0.134606 0
M  V30 23227 C 2209.74 -5.27994 -0.844192 0
M  V30 23228 C 2211.04 -5.05086 1.32988 0
M  V30 23229 H 2212.74 -2.81201 1.02792 0
M  V30 23230 H 2210.28 -1.35198 0.495741 0
M  V30 23231 H 2212.24 -4.08033 -1.05295 0
M  V30 23232 H 2210.96 -2.91253 -1.4778 0
M  V30 23233 H 2209.62 -3.62729 0.53136 0
M  V30 23234 H 2209.27 -4.74114 -1.68002 0
M  V30 23235 H 2208.97 -5.86661 -0.332081 0
M  V30 23236 H 2210.49 -5.97496 -1.25819 0
M  V30 23237 H 2211.91 -5.64697 0.989439 0
M  V30 23238 H 2210.3 -5.73217 1.77603 0
M  V30 23239 H 2211.37 -4.36108 2.11986 0
M  V30 23240 N 2212.72 -0.552988 -1.4758 0
M  V30 23241 C 2213.65 0.234493 -2.27997 0
M  V30 23242 C 2214.66 0.883297 -1.36754 0
M  V30 23243 O 2215.85 0.75786 -1.61613 0
M  V30 23244 C 2212.95 1.3493 -3.10881 0
M  V30 23245 C 2212.12 0.798083 -4.30057 0
M  V30 23246 C 2211.18 1.79686 -4.9457 0
M  V30 23247 O 2210.21 1.34465 -5.53089 0
M  V30 23248 N 2211.41 3.13006 -4.88884 0
M  V30 23249 H 2214.17 -0.455307 -2.96221 0
M  V30 23250 H 2211.74 -0.388789 -1.57162 0
M  V30 23251 H 2213.73 2.0161 -3.50907 0
M  V30 23252 H 2212.3 1.9424 -2.44928 0
M  V30 23253 H 2211.52 -0.0453772 -3.94174 0
M  V30 23254 H 2212.81 0.409084 -5.07153 0
M  V30 23255 H 2212.2 3.52394 -4.42532 0
M  V30 23256 H 2210.76 3.75256 -5.32941 0
M  V30 23257 N 2214.19 1.54923 -0.28923 0
M  V30 23258 C 2215.44 1.99078 0.324196 0
M  V30 23259 C 2215.76 1.1812 1.55907 0
M  V30 23260 O 2216.96 1.52485 2.24635 0
M  V30 23261 C 2215.42 3.54376 0.628147 0
M  V30 23262 C 2215.03 4.44128 -0.587725 0
M  V30 23263 C 2216.77 4.07085 1.20342 0
M  V30 23264 C 2214.68 5.90839 -0.257578 0
M  V30 23265 H 2213.61 0.743581 0.124911 0
M  V30 23266 H 2216.26 1.79174 -0.396095 0
M  V30 23267 H 2214.64 3.70134 1.40772 0
M  V30 23268 H 2215.81 4.40142 -1.36426 0
M  V30 23269 H 2214.13 4.02129 -1.08081 0
M  V30 23270 H 2216.73 5.14254 1.46447 0
M  V30 23271 H 2217.07 3.56972 2.14189 0
M  V30 23272 H 2217.6 3.94822 0.48582 0
M  V30 23273 H 2214.34 6.45077 -1.1643 0
M  V30 23274 H 2213.86 5.97861 0.481912 0
M  V30 23275 H 2215.54 6.46837 0.145124 0
M  V30 23276 N 2215.67 0.0167433 1.57591 0
M  V30 23277 C 2216.58 -0.985172 2.12912 0
M  V30 23278 C 2217.6 -1.36555 1.07836 0
M  V30 23279 O 2218.77 -1.44948 1.39828 0
M  V30 23280 C 2215.84 -2.253 2.63516 0
M  V30 23281 C 2214.9 -1.93419 3.83259 0
M  V30 23282 C 2214.13 -3.14157 4.3144 0
M  V30 23283 O 2214.36 -4.26406 3.78859 0
M  V30 23284 O 2213.29 -2.97177 5.23421 0
M  V30 23285 H 2217.12 -0.544836 2.98773 0
M  V30 23286 H 2214.7 -0.203115 1.48013 0
M  V30 23287 H 2216.58 -2.99751 2.96188 0
M  V30 23288 H 2215.26 -2.68539 1.80745 0
M  V30 23289 H 2214.16 -1.16392 3.55533 0
M  V30 23290 H 2215.5 -1.55005 4.67155 0
M  V30 23291 N 2217.15 -1.55503 -0.256249 0
M  V30 23292 C 2218.1 -1.89528 -1.3171 0
M  V30 23293 C 2219.07 -0.748505 -1.48279 0
M  V30 23294 O 2220.25 -1.00131 -1.62414 0
M  V30 23295 C 2217.39 -2.1873 -2.66929 0
M  V30 23296 C 2216.51 -3.46165 -2.58445 0
M  V30 23297 C 2215.64 -3.64982 -3.85955 0
M  V30 23298 C 2214.68 -4.86051 -3.7205 0
M  V30 23299 N 2213.82 -5.01438 -4.91431 0
M  V30 23300 H 2218.66 -2.80003 -1.01993 0
M  V30 23301 H 2216.19 -1.38614 -0.492389 0
M  V30 23302 H 2218.15 -2.33663 -3.45626 0
M  V30 23303 H 2216.78 -1.31471 -2.94814 0
M  V30 23304 H 2215.83 -3.39613 -1.71368 0
M  V30 23305 H 2217.15 -4.35003 -2.44077 0
M  V30 23306 H 2216.3 -3.79824 -4.73095 0
M  V30 23307 H 2215.04 -2.7436 -4.0321 0
M  V30 23308 H 2214.04 -4.71195 -2.83294 0
M  V30 23309 H 2215.27 -5.78125 -3.56299 0
M  V30 23310 H 2213.21 -4.1375 -5.09065 0
M  V30 23311 H 2213.13 -5.8435 -4.79658 0
M  V30 23312 H 2214.4 -5.20682 -5.80095 0
M  V30 23313 N 2218.63 0.521507 -1.48721 0
M  V30 23314 C 2219.86 1.29951 -1.60612 0
M  V30 23315 C 2220.27 1.87281 -0.26876 0
M  V30 23316 O 2219.61 1.67549 0.753192 0
M  V30 23317 C 2219.67 2.48256 -2.60017 0
M  V30 23318 C 2219.34 2.1195 -4.04878 0
M  V30 23319 C 2220.33 1.67123 -4.92307 0
M  V30 23320 C 2218.02 2.22213 -4.50474 0
M  V30 23321 C 2220.01 1.33036 -6.23362 0
M  V30 23322 C 2217.7 1.87738 -5.81548 0
M  V30 23323 C 2218.7 1.43222 -6.67815 0
M  V30 23324 O 2218.38 1.09203 -7.96448 0
M  V30 23325 H 2218.12 0.401131 -0.544123 0
M  V30 23326 H 2220.67 0.634924 -1.9534 0
M  V30 23327 H 2218.9 3.17724 -2.20428 0
M  V30 23328 H 2220.59 3.1031 -2.61653 0
M  V30 23329 H 2221.36 1.58657 -4.58315 0
M  V30 23330 H 2217.23 2.55817 -3.83509 0
M  V30 23331 H 2220.78 0.982178 -6.90651 0
M  V30 23332 H 2216.68 1.95847 -6.15072 0
M  V30 23333 H 2217.44 1.22528 -8.09277 0
M  V30 23334 N 2220.11 1.37452 0.771027 0
M  V30 23335 C 2221.35 1.32896 1.53187 0
M  V30 23336 C 2221.69 -0.086217 1.94009 0
M  V30 23337 O 2220.96 -1.0437 1.64125 0
M  V30 23338 C 2221.24 2.26873 2.79644 0
M  V30 23339 C 2221.1 3.77173 2.45072 0
M  V30 23340 C 2222.42 2.19284 3.81579 0
M  V30 23341 H 2219.53 0.484074 0.555735 0
M  V30 23342 H 2222.18 1.68158 0.884463 0
M  V30 23343 H 2220.33 1.96932 3.34888 0
M  V30 23344 H 2222 4.17714 1.95737 0
M  V30 23345 H 2220.24 3.95707 1.7776 0
M  V30 23346 H 2220.91 4.38365 3.3547 0
M  V30 23347 H 2223.39 2.45677 3.3583 0
M  V30 23348 H 2222.26 2.87179 4.67782 0
M  V30 23349 H 2222.53 1.18599 4.25895 0
M  V30 23350 N 2221.58 -0.997276 1.22033 0
M  V30 23351 C 2222.81 -1.77713 1.06924 0
M  V30 23352 C 2223.23 -1.843 -0.376193 0
M  V30 23353 O 2222.59 -1.29226 -1.27163 0
M  V30 23354 C 2222.64 -3.19073 1.68002 0
M  V30 23355 O 2221.74 -4.0176 0.930723 0
M  V30 23356 H 2221.09 -0.547405 0.375824 0
M  V30 23357 H 2223.62 -1.25306 1.61739 0
M  V30 23358 H 2223.63 -3.6972 1.72544 0
M  V30 23359 H 2222.3 -3.13594 2.73188 0
M  V30 23360 H 2220.88 -3.60305 0.96098 0
M  V30 23361 N 2223.06 -1.02932 -1.19343 0
M  V30 23362 C 2224.48 -0.746471 -1.41067 0
M  V30 23363 C 2224.68 0.668742 -1.90079 0
M  V30 23364 O 2223.73 1.43467 -2.07783 0
M  V30 23365 C 2225.05 -1.78296 -2.42138 0
M  V30 23366 C 2226.6 -1.80256 -2.55884 0
M  V30 23367 C 2227.07 -2.82866 -3.60209 0
M  V30 23368 N 2228.56 -2.81686 -3.67706 0
M  V30 23369 C 2229.3 -3.57735 -4.48122 0
M  V30 23370 N 2228.79 -4.435 -5.3224 0
M  V30 23371 N 2230.59 -3.46275 -4.42776 0
M  V30 23372 H 2222.74 -1.94277 -0.858502 0
M  V30 23373 H 2225 -0.839953 -0.439527 0
M  V30 23374 H 2224.71 -2.7975 -2.1315 0
M  V30 23375 H 2224.58 -1.60563 -3.4132 0
M  V30 23376 H 2226.97 -0.794807 -2.84195 0
M  V30 23377 H 2227.05 -2.02065 -1.56854 0
M  V30 23378 H 2226.69 -3.83813 -3.32641 0
M  V30 23379 H 2226.62 -2.58315 -4.58891 0
M  V30 23380 H 2229.11 -2.19482 -3.0763 0
M  V30 23381 H 2229.43 -4.98266 -5.9072 0
M  V30 23382 H 2227.77 -4.47573 -5.31699 0
M  V30 23383 H 2230.96 -2.78684 -3.76102 0
M  V30 23384 H 2231.13 -4.05794 -5.05208 0
M  V30 23385 N 2224.54 1.35356 -0.807246 0
M  V30 23386 C 2225.5 2.28106 -0.223706 0
M  V30 23387 C 2226.5 1.49611 0.589328 0
M  V30 23388 O 2227.69 1.69362 0.407716 0
M  V30 23389 C 2224.83 3.33883 0.688091 0
M  V30 23390 H 2226.02 2.81225 -1.04174 0
M  V30 23391 H 2223.57 1.45222 -0.577946 0
M  V30 23392 H 2224.31 2.85951 1.52979 0
M  V30 23393 H 2224.09 3.91955 0.106801 0
M  V30 23394 H 2225.58 4.03105 1.09068 0
M  V30 23395 N 2226.02 0.560807 1.47284 0
M  V30 23396 C 2227.27 0.0380976 2.02464 0
M  V30 23397 C 2227.59 -1.31319 1.43477 0
M  V30 23398 O 2226.85 -1.86866 0.581344 0
M  V30 23399 C 2227.15 -0.100721 3.57258 0
M  V30 23400 C 2226.81 1.18014 4.35182 0
M  V30 23401 C 2225.48 1.53111 4.56191 0
M  V30 23402 C 2227.83 2.02876 4.80095 0
M  V30 23403 C 2225.16 2.72909 5.19363 0
M  V30 23404 C 2227.51 3.2188 5.44588 0
M  V30 23405 C 2226.17 3.57286 5.63829 0
M  V30 23406 H 2225.44 0.0139409 0.740869 0
M  V30 23407 H 2228.09 0.733043 1.76914 0
M  V30 23408 H 2226.39 -0.878657 3.8182 0
M  V30 23409 H 2228.09 -0.52057 3.97607 0
M  V30 23410 H 2224.68 0.896874 4.19111 0
M  V30 23411 H 2228.86 1.77068 4.63638 0
M  V30 23412 H 2224.12 3.00505 5.32454 0
M  V30 23413 H 2228.29 3.87921 5.78351 0
M  V30 23414 H 2225.92 4.50208 6.1255 0
M  V30 23415 N 2227.5 -1.54768 0.297442 0
M  V30 23416 C 2228.75 -1.99247 -0.313634 0
M  V30 23417 C 2229.06 -1.18945 -1.55279 0
M  V30 23418 O 2230.26 -1.53674 -2.23823 0
M  V30 23419 C 2228.72 -3.54704 -0.609345 0
M  V30 23420 C 2228.33 -4.4381 0.61127 0
M  V30 23421 C 2230.07 -4.07717 -1.18181 0
M  V30 23422 C 2227.98 -5.90694 0.288908 0
M  V30 23423 H 2226.91 -0.744233 -0.120966 0
M  V30 23424 H 2229.56 -1.78961 0.405591 0
M  V30 23425 H 2227.94 -3.70876 -1.38807 0
M  V30 23426 H 2229.12 -4.39412 1.38758 0
M  V30 23427 H 2227.43 -4.0155 1.10212 0
M  V30 23428 H 2230.03 -5.15023 -1.43718 0
M  V30 23429 H 2230.37 -3.58102 -2.12293 0
M  V30 23430 H 2230.9 -3.95074 -0.464874 0
M  V30 23431 H 2227.64 -6.4445 1.19849 0
M  V30 23432 H 2227.16 -5.98108 -0.4502 0
M  V30 23433 H 2228.84 -6.46905 -0.110819 0
M  V30 23434 N 2228.97 -0.0251005 -1.5758 0
M  V30 23435 C 2230.21 0.658616 -1.93498 0
M  V30 23436 C 2230.58 1.69523 -0.901439 0
M  V30 23437 O 2231.78 2.43114 -1.14669 0
M  V30 23438 C 2230.05 1.26262 -3.34354 0
M  V30 23439 S 2231.61 1.96796 -3.92195 0
M  V30 23440 H 2228.43 0.216946 -0.677093 0
M  V30 23441 H 2231.03 -0.0878035 -1.95303 0
M  V30 23442 H 2229.73 0.495669 -4.07396 0
M  V30 23443 H 2229.26 2.04642 -3.35984 0
M  V30 23444 H 2231.28 3.24595 -3.75304 0
M  V30 23445 N 2230.45 1.55637 0.247999 0
M  V30 23446 C 2231.38 1.9324 1.31075 0
M  V30 23447 C 2232.36 0.797201 1.50262 0
M  V30 23448 O 2233.55 1.0574 1.62889 0
M  V30 23449 C 2230.68 2.22614 2.66571 0
M  V30 23450 C 2229.63 3.38375 2.62081 0
M  V30 23451 C 2228.96 3.53288 4.01362 0
M  V30 23452 C 2230.26 4.74094 2.19163 0
M  V30 23453 H 2231.95 2.82259 0.998506 0
M  V30 23454 H 2229.5 1.35804 0.478886 0
M  V30 23455 H 2231.45 2.47509 3.41053 0
M  V30 23456 H 2230.18 1.30419 2.9943 0
M  V30 23457 H 2228.83 3.13487 1.90057 0
M  V30 23458 H 2228.48 2.58515 4.31484 0
M  V30 23459 H 2228.18 4.31134 3.99246 0
M  V30 23460 H 2229.71 3.80503 4.77546 0
M  V30 23461 H 2231.12 4.98368 2.83376 0
M  V30 23462 H 2229.52 5.55034 2.2816 0
M  V30 23463 H 2230.59 4.7123 1.14327 0
M  V30 23464 N 2231.93 -0.513613 1.48996 0
M  V30 23465 C 2232.86 -1.6329 1.60839 0
M  V30 23466 C 2233.88 -1.55196 0.491728 0
M  V30 23467 O 2235.07 -1.61358 0.763266 0
M  V30 23468 C 2232.17 -3.02024 1.53736 0
M  V30 23469 C 2231.34 -3.35432 2.80721 0
M  V30 23470 C 2230.4 -4.5352 2.66845 0
M  V30 23471 O 2229.42 -4.55928 3.40761 0
M  V30 23472 N 2230.63 -5.52681 1.77549 0
M  V30 23473 H 2233.39 -1.53562 2.57369 0
M  V30 23474 H 2230.95 -0.701234 1.45926 0
M  V30 23475 H 2232.94 -3.78923 1.42125 0
M  V30 23476 H 2231.51 -3.05743 0.651145 0
M  V30 23477 H 2230.73 -2.47551 3.06777 0
M  V30 23478 H 2232.02 -3.54544 3.64933 0
M  V30 23479 H 2231.42 -5.53526 1.16728 0
M  V30 23480 H 2229.98 -6.28733 1.71867 0
M  V30 23481 N 2233.41 -1.37859 -0.763727 0
M  V30 23482 C 2234.37 -1.34084 -1.85887 0
M  V30 23483 C 2235.37 -0.243305 -1.58949 0
M  V30 23484 O 2236.56 -0.499619 -1.66882 0
M  V30 23485 C 2233.69 -1.08495 -3.23174 0
M  V30 23486 H 2234.89 -2.31506 -1.90644 0
M  V30 23487 H 2232.44 -1.23004 -0.964345 0
M  V30 23488 H 2233.18 -0.116375 -3.24091 0
M  V30 23489 H 2232.96 -1.87946 -3.4412 0
M  V30 23490 H 2234.45 -1.08524 -4.03252 0
M  V30 23491 N 2234.89 0.990791 -1.22561 0
M  V30 23492 C 2236.14 1.72485 -1.04556 0
M  V30 23493 C 2236.45 1.91053 0.419316 0
M  V30 23494 O 2237.66 2.61804 0.719075 0
M  V30 23495 C 2236.11 3.10351 -1.82236 0
M  V30 23496 C 2235.72 2.99707 -3.32986 0
M  V30 23497 C 2237.46 3.87788 -1.72687 0
M  V30 23498 C 2235.37 4.32741 -4.03099 0
M  V30 23499 H 2234.3 0.646732 -0.387626 0
M  V30 23500 H 2236.95 1.10591 -1.46431 0
M  V30 23501 H 2235.33 3.7294 -1.33161 0
M  V30 23502 H 2236.51 2.46271 -3.89471 0
M  V30 23503 H 2234.82 2.35752 -3.43235 0
M  V30 23504 H 2237.42 4.86258 -2.2239 0
M  V30 23505 H 2237.76 4.10581 -0.687679 0
M  V30 23506 H 2238.3 3.31881 -2.19316 0
M  V30 23507 H 2235.03 4.15147 -5.0728 0
M  V30 23508 H 2234.55 4.86082 -3.51403 0
M  V30 23509 H 2236.23 5.01479 -4.08813 0
M  V30 23510 N 2236.37 1.03564 1.18795 0
M  V30 23511 C 2237.59 0.755903 1.92597 0
M  V30 23512 C 2238.01 -0.68624 1.75887 0
M  V30 23513 O 2237.37 -1.4673 1.08519 0
M  V30 23514 C 2237.42 1.10625 3.44158 0
M  V30 23515 O 2237.14 2.49177 3.60337 0
M  V30 23516 C 2238.64 0.850291 4.35069 0
M  V30 23517 H 2235.86 0.276059 0.611582 0
M  V30 23518 H 2238.4 1.38194 1.5074 0
M  V30 23519 H 2236.56 0.525262 3.83823 0
M  V30 23520 H 2236.97 2.62435 4.54124 0
M  V30 23521 H 2238.45 1.14533 5.39987 0
M  V30 23522 H 2238.92 -0.215098 4.38673 0
M  V30 23523 H 2239.53 1.41433 4.01094 0
M  V30 23524 N 2237.84 -1.34926 0.814413 0
M  V30 23525 C 2239.07 -2.02773 0.411172 0
M  V30 23526 C 2239.49 -1.61356 -0.980288 0
M  V30 23527 O 2238.84 -0.814876 -1.63297 0
M  V30 23528 C 2238.89 -3.5811 0.493928 0
M  V30 23529 O 2238.62 -3.98024 1.83054 0
M  V30 23530 C 2240.12 -4.43219 0.0844953 0
M  V30 23531 H 2237.34 -0.65013 0.166048 0
M  V30 23532 H 2239.88 -1.72382 1.10021 0
M  V30 23533 H 2238.04 -3.87121 -0.146938 0
M  V30 23534 H 2238.45 -4.9269 1.7988 0
M  V30 23535 H 2239.92 -5.51661 0.193501 0
M  V30 23536 H 2240.4 -4.28331 -0.971054 0
M  V30 23537 H 2241.01 -4.19519 0.698824 0
M  V30 23538 N 2239.32 -0.56861 -1.46985 0
M  V30 23539 C 2240.57 -0.0488342 -2.02441 0
M  V30 23540 C 2240.9 1.30556 -1.44171 0
M  V30 23541 O 2240.15 1.86555 -0.591246 0
M  V30 23542 C 2240.45 0.0817731 -3.57306 0
M  V30 23543 C 2240.12 -1.2032 -4.3455 0
M  V30 23544 C 2238.78 -1.55528 -4.55373 0
M  V30 23545 C 2241.13 -2.05419 -4.79012 0
M  V30 23546 C 2238.46 -2.7566 -5.17908 0
M  V30 23547 C 2240.81 -3.24764 -5.42873 0
M  V30 23548 C 2239.47 -3.60271 -5.61926 0
M  V30 23549 H 2238.74 -0.0178697 -0.740784 0
M  V30 23550 H 2241.39 -0.742415 -1.76523 0
M  V30 23551 H 2239.7 0.858396 -3.82281 0
M  V30 23552 H 2241.39 0.499476 -3.97877 0
M  V30 23553 H 2237.98 -0.919088 -4.1863 0
M  V30 23554 H 2242.17 -1.79524 -4.62693 0
M  V30 23555 H 2237.42 -3.03324 -5.30852 0
M  V30 23556 H 2241.6 -3.90983 -5.76286 0
M  V30 23557 H 2239.22 -4.5345 -6.10153 0
M  V30 23558 N 2240.8 1.54608 -0.305646 0
M  V30 23559 C 2242.05 2.00528 0.302711 0
M  V30 23560 C 2242.38 1.19369 1.53182 0
M  V30 23561 O 2241.65 0.271355 1.92598 0
M  V30 23562 C 2241.94 3.54099 0.654694 0
M  V30 23563 C 2241.79 4.45994 -0.583872 0
M  V30 23564 C 2243.11 4.1449 1.47939 0
M  V30 23565 H 2240.23 0.728962 0.108551 0
M  V30 23566 H 2242.87 1.8533 -0.418667 0
M  V30 23567 H 2241.02 3.6718 1.26929 0
M  V30 23568 H 2242.69 4.44811 -1.22231 0
M  V30 23569 H 2240.93 4.16402 -1.21622 0
M  V30 23570 H 2241.61 5.5122 -0.293384 0
M  V30 23571 H 2244.08 4.04873 0.960059 0
M  V30 23572 H 2242.96 5.22091 1.69445 0
M  V30 23573 H 2243.22 3.66662 2.47004 0
M  V30 23574 N 2242.28 0.033457 1.57564 0
M  V30 23575 C 2243.5 -0.657861 1.9669 0
M  V30 23576 C 2243.93 -1.64618 0.910086 0
M  V30 23577 O 2243.29 -1.80844 -0.128566 0
M  V30 23578 C 2243.33 -1.33677 3.34907 0
M  V30 23579 O 2242.44 -2.45213 3.31578 0
M  V30 23580 H 2241.78 -0.172478 0.641208 0
M  V30 23581 H 2244.31 0.096598 2.04372 0
M  V30 23582 H 2244.32 -1.69256 3.71236 0
M  V30 23583 H 2242.99 -0.612339 4.11368 0
M  V30 23584 H 2241.57 -2.11714 3.06972 0
M  V30 23585 N 2243.76 -1.55766 -0.239741 0
M  V30 23586 C 2245 -1.78196 -0.968202 0
M  V30 23587 C 2245.33 -0.599971 -1.847 0
M  V30 23588 O 2244.61 0.401491 -1.90311 0
M  V30 23589 C 2244.89 -3.10567 -1.82264 0
M  V30 23590 C 2244.75 -4.39182 -0.971555 0
M  V30 23591 C 2246.06 -3.39226 -2.80382 0
M  V30 23592 H 2243.18 -0.648287 -0.350561 0
M  V30 23593 H 2245.83 -1.88501 -0.238226 0
M  V30 23594 H 2243.98 -3.01913 -2.44501 0
M  V30 23595 H 2245.65 -4.59835 -0.367327 0
M  V30 23596 H 2243.89 -4.3292 -0.2762 0
M  V30 23597 H 2244.56 -5.28201 -1.60337 0
M  V30 23598 H 2247.04 -3.47889 -2.28281 0
M  V30 23599 H 2245.91 -4.3305 -3.37282 0
M  V30 23600 H 2246.17 -2.60491 -3.57207 0
M  V30 23601 N 2245.23 0.505704 -1.49266 0
M  V30 23602 C 2246.2 1.59003 -1.65078 0
M  V30 23603 C 2247.2 1.52064 -0.522794 0
M  V30 23604 O 2248.39 1.553 -0.789145 0
M  V30 23605 C 2245.52 2.98653 -1.64375 0
M  V30 23606 H 2246.71 1.46314 -2.61786 0
M  V30 23607 H 2244.26 0.729592 -1.38227 0
M  V30 23608 H 2245 3.16824 -0.692328 0
M  V30 23609 H 2244.78 3.05098 -2.46287 0
M  V30 23610 H 2246.27 3.77443 -1.7868 0
M  V30 23611 N 2246.71 1.38262 0.756405 0
M  V30 23612 C 2247.96 1.34049 1.51245 0
M  V30 23613 C 2248.28 -0.069803 1.94875 0
M  V30 23614 O 2247.55 -1.01693 1.67438 0
M  V30 23615 H 2246.13 0.493232 0.561009 0
M  V30 23616 H 2248.79 1.72911 0.899317 0
M  V30 23617 H 2247.89 1.98951 2.40468 0
M  V30 23618 N 2248.19 -0.984277 1.23084 0
M  V30 23619 C 2249.44 -1.71928 1.05469 0
M  V30 23620 C 2249.75 -1.91272 -0.409178 0
M  V30 23621 O 2250.96 -2.62182 -0.70518 0
M  V30 23622 C 2249.41 -3.09381 1.83879 0
M  V30 23623 C 2249.02 -2.97937 3.34571 0
M  V30 23624 C 2250.77 -3.86867 1.74741 0
M  V30 23625 C 2248.67 -4.30598 4.05388 0
M  V30 23626 H 2247.6 -0.644667 0.39105 0
M  V30 23627 H 2250.25 -1.09812 1.47015 0
M  V30 23628 H 2248.64 -3.72228 1.35137 0
M  V30 23629 H 2249.81 -2.44202 3.90771 0
M  V30 23630 H 2248.13 -2.33928 3.4448 0
M  V30 23631 H 2250.72 -4.85072 2.24966 0
M  V30 23632 H 2251.07 -4.1021 0.709444 0
M  V30 23633 H 2251.6 -3.30714 2.21073 0
M  V30 23634 H 2248.34 -4.12451 5.09475 0
M  V30 23635 H 2247.86 -4.84212 3.53976 0
M  V30 23636 H 2249.54 -4.99304 4.11466 0
M  V30 23637 N 2249.67 -1.04192 -1.18244 0
M  V30 23638 C 2250.92 -0.741227 -1.87587 0
M  V30 23639 C 2251.23 0.734034 -1.81304 0
M  V30 23640 O 2252.44 1.14829 -2.46021 0
M  V30 23641 C 2250.89 -1.27561 -3.36536 0
M  V30 23642 C 2250.5 -2.77959 -3.51344 0
M  V30 23643 C 2252.24 -1.0515 -4.11271 0
M  V30 23644 C 2250.15 -3.24748 -4.94259 0
M  V30 23645 H 2249.08 -0.273578 -0.702617 0
M  V30 23646 H 2251.73 -1.25792 -1.33599 0
M  V30 23647 H 2250.11 -0.686772 -3.89999 0
M  V30 23648 H 2251.29 -3.42611 -3.08147 0
M  V30 23649 H 2249.6 -2.98797 -2.90016 0
M  V30 23650 H 2252.2 -1.3762 -5.16686 0
M  V30 23651 H 2252.54 0.0112042 -4.16298 0
M  V30 23652 H 2253.08 -1.60501 -3.63984 0
M  V30 23653 H 2249.82 -4.30405 -4.94401 0
M  V30 23654 H 2249.34 -2.64833 -5.38167 0
M  V30 23655 H 2251.01 -3.18844 -5.62981 0
M  V30 23656 N 2251.15 1.34492 -0.821557 0
M  V30 23657 C 2252.38 2.02259 -0.421308 0
M  V30 23658 C 2252.78 1.62022 0.977018 0
M  V30 23659 O 2252.13 0.820732 1.64346 0
M  V30 23660 C 2252.19 3.56768 -0.442373 0
M  V30 23661 C 2251.85 4.20324 -1.7938 0
M  V30 23662 C 2252.85 4.40939 -2.75443 0
M  V30 23663 C 2250.54 4.57124 -2.0819 0
M  V30 23664 C 2252.53 4.97477 -3.98491 0
M  V30 23665 C 2250.22 5.13373 -3.31498 0
M  V30 23666 C 2251.21 5.33494 -4.26466 0
M  V30 23667 O 2250.9 5.88553 -5.47596 0
M  V30 23668 H 2250.63 0.654924 -0.167484 0
M  V30 23669 H 2253.19 1.72775 -1.11076 0
M  V30 23670 H 2251.42 3.85505 0.303769 0
M  V30 23671 H 2253.11 4.05852 -0.0623638 0
M  V30 23672 H 2253.87 4.12874 -2.5448 0
M  V30 23673 H 2249.75 4.40768 -1.35074 0
M  V30 23674 H 2253.3 5.13098 -4.72627 0
M  V30 23675 H 2249.19 5.40867 -3.52325 0
M  V30 23676 H 2249.96 6.06988 -5.49097 0
M  V30 23677 N 2252.62 0.576397 1.46681 0
M  V30 23678 C 2253.87 0.057318 2.01619 0
M  V30 23679 C 2254.19 -1.30815 1.45419 0
M  V30 23680 O 2255.39 -1.91822 1.92137 0
M  V30 23681 C 2253.85 0.0519003 3.59863 0
M  V30 23682 C 2253.46 1.4153 4.25057 0
M  V30 23683 C 2255.2 -0.413565 4.22481 0
M  V30 23684 C 2253.11 1.36795 5.75362 0
M  V30 23685 H 2252.04 0.017658 0.753793 0
M  V30 23686 H 2254.69 0.727106 1.6848 0
M  V30 23687 H 2253.07 -0.683925 3.90049 0
M  V30 23688 H 2254.24 2.17036 4.06488 0
M  V30 23689 H 2252.56 1.82027 3.74507 0
M  V30 23690 H 2255.16 -0.467685 5.32651 0
M  V30 23691 H 2255.5 -1.42975 3.90978 0
M  V30 23692 H 2256.03 0.267999 3.96896 0
M  V30 23693 H 2252.77 2.36074 6.11514 0
M  V30 23694 H 2252.29 0.655 5.96213 0
M  V30 23695 H 2253.97 1.07816 6.37953 0
M  V30 23696 N 2254.1 -1.54444 0.313841 0
M  V30 23697 C 2255.35 -1.99568 -0.292484 0
M  V30 23698 C 2255.66 -1.20585 -1.54009 0
M  V30 23699 O 2256.87 -1.56039 -2.2218 0
M  V30 23700 C 2255.33 -3.5533 -0.571689 0
M  V30 23701 C 2254.93 -4.43137 0.658307 0
M  V30 23702 C 2256.68 -4.08948 -1.1385 0
M  V30 23703 C 2254.59 -5.90354 0.351543 0
M  V30 23704 H 2253.52 -0.745474 -0.113066 0
M  V30 23705 H 2256.17 -1.78521 0.42455 0
M  V30 23706 H 2254.55 -3.72327 -1.34865 0
M  V30 23707 H 2255.72 -4.37916 1.43411 0
M  V30 23708 H 2254.04 -4.00358 1.14465 0
M  V30 23709 H 2256.63 -5.16519 -1.38247 0
M  V30 23710 H 2256.98 -3.60334 -2.08483 0
M  V30 23711 H 2257.51 -3.95545 -0.422945 0
M  V30 23712 H 2254.25 -6.43143 1.26678 0
M  V30 23713 H 2253.77 -5.98552 -0.386737 0
M  V30 23714 H 2255.45 -6.46986 -0.0421997 0
M  V30 23715 N 2255.58 -0.0418125 -1.57545 0
M  V30 23716 C 2256.81 0.64296 -1.9634 0
M  V30 23717 C 2257.22 1.65461 -0.917566 0
M  V30 23718 O 2256.56 1.83384 0.107715 0
M  V30 23719 C 2256.62 1.39488 -3.31336 0
M  V30 23720 C 2256.29 0.540125 -4.53797 0
M  V30 23721 C 2257.28 -0.189898 -5.19553 0
M  V30 23722 C 2254.97 0.473798 -5.0006 0
M  V30 23723 C 2256.96 -0.974785 -6.29902 0
M  V30 23724 C 2254.65 -0.314784 -6.10289 0
M  V30 23725 C 2255.65 -1.03777 -6.7507 0
M  V30 23726 O 2255.34 -1.8134 -7.8318 0
M  V30 23727 H 2255.07 0.181265 -0.651244 0
M  V30 23728 H 2257.62 -0.101701 -2.05148 0
M  V30 23729 H 2255.85 2.18496 -3.19055 0
M  V30 23730 H 2257.54 1.96898 -3.54945 0
M  V30 23731 H 2258.31 -0.148066 -4.84774 0
M  V30 23732 H 2254.19 1.02612 -4.49435 0
M  V30 23733 H 2257.73 -1.53962 -6.80398 0
M  V30 23734 H 2253.63 -0.358287 -6.44505 0
M  V30 23735 H 2254.4 -1.73452 -7.9991 0
M  V30 23736 N 2257.06 1.55891 0.231477 0
M  V30 23737 C 2258.01 1.916 1.28678 0
M  V30 23738 C 2258.98 0.772 1.47069 0
M  V30 23739 O 2260.16 1.02702 1.60801 0
M  V30 23740 C 2257.3 2.22949 2.63416 0
M  V30 23741 C 2256.41 3.50232 2.52906 0
M  V30 23742 C 2255.55 3.71076 3.801 0
M  V30 23743 C 2254.59 4.91908 3.6427 0
M  V30 23744 N 2253.72 5.09193 4.83391 0
M  V30 23745 H 2258.56 2.8159 0.975255 0
M  V30 23746 H 2256.1 1.3938 0.470274 0
M  V30 23747 H 2258.06 2.39132 3.41865 0
M  V30 23748 H 2256.69 1.36144 2.92685 0
M  V30 23749 H 2255.74 3.42296 1.65944 0
M  V30 23750 H 2257.05 4.38831 2.37126 0
M  V30 23751 H 2256.21 3.87303 4.66992 0
M  V30 23752 H 2254.95 2.8074 3.98794 0
M  V30 23753 H 2253.95 4.75642 2.75762 0
M  V30 23754 H 2255.18 5.8372 3.47056 0
M  V30 23755 H 2253.12 4.21797 5.02418 0
M  V30 23756 H 2253.04 5.91907 4.703 0
M  V30 23757 H 2254.31 5.29845 5.71738 0
M  V30 23758 N 2258.54 -0.497781 1.49532 0
M  V30 23759 C 2259.47 -1.60754 1.69353 0
M  V30 23760 C 2260.45 -1.61226 0.542246 0
M  V30 23761 O 2261.63 -1.77915 0.778448 0
M  V30 23762 C 2258.76 -2.99223 1.76303 0
M  V30 23763 C 2257.72 -3.13617 2.91253 0
M  V30 23764 C 2257.04 -4.53469 2.8332 0
M  V30 23765 C 2258.34 -2.93339 4.32145 0
M  V30 23766 H 2260.04 -1.4442 2.62265 0
M  V30 23767 H 2257.58 -0.693345 1.26209 0
M  V30 23768 H 2259.54 -3.76762 1.88756 0
M  V30 23769 H 2258.26 -3.16652 0.799927 0
M  V30 23770 H 2256.92 -2.38504 2.78409 0
M  V30 23771 H 2256.57 -4.67779 1.8491 0
M  V30 23772 H 2256.27 -4.6404 3.60473 0
M  V30 23773 H 2257.79 -5.33064 2.97784 0
M  V30 23774 H 2259.2 -3.60645 4.45655 0
M  V30 23775 H 2257.6 -3.15378 5.10545 0
M  V30 23776 H 2258.67 -1.89433 4.46367 0
M  V30 23777 N 2260.01 -1.38661 -0.749062 0
M  V30 23778 C 2261.26 -1.35116 -1.5083 0
M  V30 23779 C 2261.59 0.0573707 -1.94415 0
M  V30 23780 O 2260.84 1.03538 -1.66067 0
M  V30 23781 C 2261.14 -2.25702 -2.77116 0
M  V30 23782 C 2260.81 -3.7359 -2.52471 0
M  V30 23783 C 2259.47 -4.13888 -2.45458 0
M  V30 23784 C 2261.82 -4.67185 -2.31057 0
M  V30 23785 C 2259.15 -5.45865 -2.15054 0
M  V30 23786 C 2261.5 -5.99424 -2.02173 0
M  V30 23787 C 2260.17 -6.38802 -1.9362 0
M  V30 23788 H 2259.44 -0.494426 -0.551927 0
M  V30 23789 H 2262.08 -1.71055 -0.860949 0
M  V30 23790 H 2260.39 -1.82833 -3.46524 0
M  V30 23791 H 2262.09 -2.2026 -3.35092 0
M  V30 23792 H 2258.68 -3.41643 -2.58801 0
M  V30 23793 H 2262.86 -4.36894 -2.35451 0
M  V30 23794 H 2258.12 -5.75312 -2.06944 0
M  V30 23795 H 2262.29 -6.71485 -1.84609 0
M  V30 23796 H 2259.92 -7.40988 -1.69826 0
M  V30 23797 N 2261.49 0.977736 -1.23605 0
M  V30 23798 C 2262.46 2.05217 -1.02072 0
M  V30 23799 C 2263.46 1.60789 0.0184023 0
M  V30 23800 O 2264.65 1.72785 -0.2216 0
M  V30 23801 C 2261.78 3.36516 -0.544985 0
M  V30 23802 H 2262.97 2.25752 -1.97424 0
M  V30 23803 H 2260.52 1.15153 -1.05686 0
M  V30 23804 H 2261.26 3.2167 0.412184 0
M  V30 23805 H 2261.04 3.70102 -1.29486 0
M  V30 23806 H 2262.53 4.15532 -0.415058 0
M  V30 23807 N 2262.97 1.04818 1.1769 0
M  V30 23808 C 2264.22 0.75453 1.87487 0
M  V30 23809 C 2264.54 -0.720375 1.81206 0
M  V30 23810 O 2263.81 -1.52029 1.23547 0
M  V30 23811 H 2262.39 0.276114 0.694096 0
M  V30 23812 H 2265.05 1.32653 1.4279 0
M  V30 23813 H 2264.15 1.06611 2.93326 0
M  V30 23814 N 2264.45 -1.34055 0.828678 0
M  V30 23815 C 2265.7 -1.98107 0.419493 0
M  V30 23816 C 2266.02 -1.6568 -1.01883 0
M  V30 23817 O 2265.28 -0.923543 -1.72537 0
M  V30 23818 C 2265.58 -3.5274 0.575288 0
M  V30 23819 C 2265.24 -4.05092 1.98019 0
M  V30 23820 C 2263.91 -4.191 2.3645 0
M  V30 23821 C 2266.26 -4.33182 2.89832 0
M  V30 23822 C 2263.59 -4.58529 3.66017 0
M  V30 23823 C 2265.94 -4.74059 4.18869 0
M  V30 23824 C 2264.6 -4.86273 4.57269 0
M  V30 23825 H 2263.87 -0.724926 0.153503 0
M  V30 23826 H 2266.52 -1.59902 1.05374 0
M  V30 23827 H 2264.82 -3.91541 -0.142317 0
M  V30 23828 H 2266.52 -4.00286 0.239128 0
M  V30 23829 H 2263.11 -3.94655 1.67168 0
M  V30 23830 H 2267.3 -4.21892 2.61382 0
M  V30 23831 H 2262.55 -4.66177 3.95587 0
M  V30 23832 H 2266.73 -4.94753 4.90094 0
M  V30 23833 H 2264.35 -5.16582 5.57716 0
M  V30 23834 N 2265.93 -0.584167 -1.46374 0
M  V30 23835 C 2266.86 0.186078 -2.28443 0
M  V30 23836 C 2267.87 0.854091 -1.38597 0
M  V30 23837 O 2269.06 0.723409 -1.63184 0
M  V30 23838 C 2266.16 1.28305 -3.13673 0
M  V30 23839 C 2265.33 0.706682 -4.31654 0
M  V30 23840 C 2264.39 1.69155 -4.9827 0
M  V30 23841 O 2263.42 1.22702 -5.55817 0
M  V30 23842 N 2264.62 3.02566 -4.95413 0
M  V30 23843 H 2267.39 -0.518037 -2.95189 0
M  V30 23844 H 2264.95 -0.422038 -1.56302 0
M  V30 23845 H 2266.94 1.94121 -3.55104 0
M  V30 23846 H 2265.51 1.89001 -2.48993 0
M  V30 23847 H 2264.73 -0.128977 -3.93989 0
M  V30 23848 H 2266.02 0.301417 -5.07906 0
M  V30 23849 H 2265.42 3.42928 -4.49908 0
M  V30 23850 H 2263.97 3.63868 -5.40781 0
M  V30 23851 N 2267.41 1.54275 -0.322027 0
M  V30 23852 C 2268.65 2.00145 0.280454 0
M  V30 23853 C 2268.97 1.2118 1.52775 0
M  V30 23854 O 2268.24 0.313221 1.9338 0
M  V30 23855 H 2266.82 0.739352 0.106619 0
M  V30 23856 H 2269.49 1.8991 -0.438217 0
M  V30 23857 H 2268.58 3.07429 0.537917 0
M  V30 23858 N 2268.88 0.0501669 1.5752 0
M  V30 23859 C 2269.85 -0.909749 2.10372 0
M  V30 23860 C 2270.85 -1.24054 1.0231 0
M  V30 23861 O 2272.04 -1.17739 1.28387 0
M  V30 23862 C 2269.17 -2.21994 2.58712 0
M  V30 23863 H 2270.36 -0.451613 2.9648 0
M  V30 23864 H 2267.91 -0.19822 1.55038 0
M  V30 23865 H 2268.65 -2.72391 1.75994 0
M  V30 23866 H 2268.43 -1.99289 3.37678 0
M  V30 23867 H 2269.92 -2.90755 2.99752 0
M  V30 23868 N 2270.36 -1.56011 -0.223207 0
M  V30 23869 C 2271.59 -1.82764 -0.963381 0
M  V30 23870 C 2272 -0.626835 -1.78514 0
M  V30 23871 O 2271.34 0.413982 -1.78975 0
M  V30 23872 C 2271.4 -3.03223 -1.93121 0
M  V30 23873 C 2271.07 -4.38294 -1.29413 0
M  V30 23874 C 2272.07 -5.1537 -0.684826 0
M  V30 23875 C 2269.75 -4.85014 -1.30639 0
M  V30 23876 C 2271.74 -6.37327 -0.0962851 0
M  V30 23877 C 2269.43 -6.06914 -0.714003 0
M  V30 23878 C 2270.43 -6.82911 -0.110003 0
M  V30 23879 O 2270.12 -8.02506 0.473171 0
M  V30 23880 H 2269.85 -0.611581 -0.288 0
M  V30 23881 H 2272.4 -2.03945 -0.244067 0
M  V30 23882 H 2270.63 -2.77856 -2.68947 0
M  V30 23883 H 2272.32 -3.16862 -2.5368 0
M  V30 23884 H 2273.09 -4.80382 -0.667689 0
M  V30 23885 H 2268.97 -4.25837 -1.76591 0
M  V30 23886 H 2272.51 -6.96587 0.375779 0
M  V30 23887 H 2268.41 -6.41375 -0.728547 0
M  V30 23888 H 2269.18 -8.17675 0.36733 0
M  V30 23889 N 2271.84 0.489844 -1.49794 0
M  V30 23890 C 2273.07 1.26699 -1.6357 0
M  V30 23891 C 2273.48 1.86213 -0.311498 0
M  V30 23892 O 2272.84 1.68359 0.704386 0
M  V30 23893 C 2272.89 2.38924 -2.71289 0
M  V30 23894 O 2272.61 1.81854 -3.98573 0
M  V30 23895 C 2274.11 3.30115 -2.9587 0
M  V30 23896 H 2271.33 0.383871 -0.550349 0
M  V30 23897 H 2273.88 0.58683 -1.95899 0
M  V30 23898 H 2272.03 3.02749 -2.41706 0
M  V30 23899 H 2272.45 2.55614 -4.57997 0
M  V30 23900 H 2273.92 4.05114 -3.74948 0
M  V30 23901 H 2274.4 3.87779 -2.06213 0
M  V30 23902 H 2275 2.72046 -3.26912 0
M  V30 23903 N 2273.32 1.39056 0.741698 0
M  V30 23904 C 2274.57 1.35646 1.49815 0
M  V30 23905 C 2274.89 -0.0491299 1.94938 0
M  V30 23906 O 2274.16 -0.999111 1.68507 0
M  V30 23907 H 2272.74 0.499154 0.555746 0
M  V30 23908 H 2275.4 1.73855 0.880927 0
M  V30 23909 H 2274.49 2.0149 2.38344 0
M  V30 23910 N 2274.8 -0.971167 1.24121 0
M  V30 23911 C 2276.04 -1.70799 1.07287 0
M  V30 23912 C 2276.36 -1.91696 -0.388868 0
M  V30 23913 O 2277.56 -2.62915 -0.677333 0
M  V30 23914 C 2276.02 -3.07413 1.8715 0
M  V30 23915 C 2275.63 -2.94371 3.37712 0
M  V30 23916 C 2277.37 -3.84992 1.78834 0
M  V30 23917 C 2275.28 -4.26274 4.09933 0
M  V30 23918 H 2274.21 -0.640483 0.397865 0
M  V30 23919 H 2276.86 -1.08247 1.48172 0
M  V30 23920 H 2275.24 -3.70774 1.39078 0
M  V30 23921 H 2276.42 -2.40044 3.93339 0
M  V30 23922 H 2274.73 -2.30261 3.46942 0
M  V30 23923 H 2277.33 -4.82658 2.30098 0
M  V30 23924 H 2277.67 -4.09435 0.752912 0
M  V30 23925 H 2278.2 -3.2835 2.24568 0
M  V30 23926 H 2274.94 -4.07024 5.13821 0
M  V30 23927 H 2274.46 -4.8043 3.59091 0
M  V30 23928 H 2276.14 -4.94912 4.16739 0
M  V30 23929 N 2276.27 -1.05441 -1.17133 0
M  V30 23930 C 2277.69 -0.791706 -1.69083 0
M  V30 23931 C 2278.04 0.685806 -1.83824 0
M  V30 23932 O 2277.16 1.53276 -1.5276 0
M  V30 23933 C 2277.76 -1.43055 -3.07117 0
M  V30 23934 C 2276.32 -1.21583 -3.56222 0
M  V30 23935 C 2275.46 -1.51251 -2.32419 0
M  V30 23936 H 2278.41 -1.21902 -1.01615 0
M  V30 23937 H 2278.43 -0.841185 -3.71085 0
M  V30 23938 H 2277.95 -2.50589 -2.96356 0
M  V30 23939 H 2276.05 -0.159853 -3.72257 0
M  V30 23940 H 2276.16 -1.92254 -4.38834 0
M  V30 23941 H 2274.52 -0.932695 -2.37008 0
M  V30 23942 H 2275.31 -2.59924 -2.24264 0
M  V30 23943 N 2277.75 1.33613 -0.835776 0
M  V30 23944 C 2278.7 2.31195 -0.255278 0
M  V30 23945 C 2279.69 1.57996 0.611042 0
M  V30 23946 O 2280.9 1.72889 0.500948 0
M  V30 23947 H 2277.28 0.749287 -0.0638217 0
M  V30 23948 H 2279.25 2.77667 -1.09288 0
M  V30 23949 C 2278 3.43202 0.55748 0
M  V30 23950 H 2277.32 3.99675 -0.0998256 0
M  V30 23951 H 2278.76 4.13685 0.929549 0
M  V30 23952 C 2277.22 2.88784 1.7351 0
M  V30 23953 O 2277.75 2.84717 2.83371 0
M  V30 23954 N 2275.95 2.45433 1.55599 0
M  V30 23955 H 2275.5 2.4894 0.662311 0
M  V30 23956 H 2275.46 2.09375 2.34541 0
M  V30 23957 N 2279.23 0.591922 1.46062 0
M  V30 23958 C 2280.16 -0.173961 2.28539 0
M  V30 23959 C 2281.18 -0.846729 1.39048 0
M  V30 23960 O 2282.36 -0.714745 1.63565 0
M  V30 23961 C 2279.46 -1.2664 3.14349 0
M  V30 23962 C 2278.64 -0.68378 4.32022 0
M  V30 23963 C 2277.7 -1.6651 4.9916 0
M  V30 23964 O 2276.72 -1.19753 5.5646 0
M  V30 23965 N 2277.92 -2.99934 4.97011 0
M  V30 23966 H 2280.69 0.533685 2.9491 0
M  V30 23967 H 2278.25 0.430321 1.56076 0
M  V30 23968 H 2280.24 -1.92235 3.56129 0
M  V30 23969 H 2278.81 -1.87678 2.49992 0
M  V30 23970 H 2278.03 0.149869 3.93915 0
M  V30 23971 H 2279.32 -0.274477 5.08059 0
M  V30 23972 H 2278.72 -3.40537 4.5172 0
M  V30 23973 H 2277.28 -3.60995 5.42703 0
M  V30 23974 N 2280.71 -1.54102 0.330204 0
M  V30 23975 C 2281.66 -2.24568 -0.532722 0
M  V30 23976 C 2282.63 -1.23893 -1.10633 0
M  V30 23977 O 2283.81 -1.52593 -1.14543 0
M  V30 23978 C 2280.95 -3.01198 -1.68445 0
M  V30 23979 C 2280.06 -4.16702 -1.13943 0
M  V30 23980 C 2279.2 -4.80849 -2.25738 0
M  V30 23981 C 2278.24 -5.88445 -1.68519 0
M  V30 23982 N 2277.37 -6.46426 -2.74003 0
M  V30 23983 H 2282.21 -2.97906 0.0747429 0
M  V30 23984 H 2279.75 -1.4702 0.0486579 0
M  V30 23985 H 2281.71 -3.43878 -2.36228 0
M  V30 23986 H 2280.34 -2.30182 -2.2631 0
M  V30 23987 H 2279.39 -3.78759 -0.352944 0
M  V30 23988 H 2280.7 -4.94132 -0.680805 0
M  V30 23989 H 2279.86 -5.26531 -3.01413 0
M  V30 23990 H 2278.6 -4.02814 -2.7494 0
M  V30 23991 H 2277.6 -5.42159 -0.913448 0
M  V30 23992 H 2278.83 -6.6838 -1.20186 0
M  V30 23993 H 2276.77 -5.71262 -3.22484 0
M  V30 23994 H 2276.69 -7.19289 -2.32723 0
M  V30 23995 H 2277.96 -6.96763 -3.49487 0
M  V30 23996 N 2282.19 -0.0585199 -1.57491 0
M  V30 23997 C 2283.6 0.476106 -1.80527 0
M  V30 23998 C 2283.95 1.70467 -0.971364 0
M  V30 23999 O 2283.07 2.15564 -0.19005 0
M  V30 24000 C 2283.67 0.870529 -3.27425 0
M  V30 24001 C 2282.23 1.35009 -3.51354 0
M  V30 24002 C 2281.37 0.328822 -2.75344 0
M  V30 24003 H 2284.33 -0.284339 -1.56132 0
M  V30 24004 H 2284.35 1.73293 -3.38748 0
M  V30 24005 H 2283.86 -0.0238309 -3.88093 0
M  V30 24006 H 2281.96 2.2634 -2.95975 0
M  V30 24007 H 2282.07 1.33718 -4.60061 0
M  V30 24008 H 2280.44 0.803279 -2.41701 0
M  V30 24009 H 2281.22 -0.55758 -3.38742 0
M  V30 24010 N 2283.66 1.56128 0.21493 0
M  V30 24011 C 2284.61 1.92954 1.26639 0
M  V30 24012 C 2285.58 0.787555 1.46242 0
M  V30 24013 O 2286.77 1.04402 1.59702 0
M  V30 24014 C 2283.91 2.2573 2.61036 0
M  V30 24015 C 2283.02 3.52895 2.49177 0
M  V30 24016 C 2282.15 3.75087 3.76143 0
M  V30 24017 C 2281.19 4.95744 3.59033 0
M  V30 24018 N 2280.33 5.14291 4.77963 0
M  V30 24019 H 2285.17 2.82608 0.945334 0
M  V30 24020 H 2282.71 1.39871 0.455465 0
M  V30 24021 H 2284.67 2.42745 3.39309 0
M  V30 24022 H 2283.3 1.39241 2.91225 0
M  V30 24023 H 2282.35 3.44037 1.62304 0
M  V30 24024 H 2283.66 4.41322 2.32458 0
M  V30 24025 H 2282.81 3.92234 4.62858 0
M  V30 24026 H 2281.55 2.84954 3.95794 0
M  V30 24027 H 2280.56 4.7854 2.70701 0
M  V30 24028 H 2281.78 5.87368 3.40846 0
M  V30 24029 H 2279.73 4.27102 4.97916 0
M  V30 24030 H 2279.65 5.96862 4.63996 0
M  V30 24031 H 2280.91 5.35879 5.66086 0
M  V30 24032 N 2285.14 -0.481893 1.50052 0
M  V30 24033 C 2286.39 -1.23658 1.60738 0
M  V30 24034 C 2286.72 -1.9184 0.30182 0
M  V30 24035 O 2286 -1.81621 -0.695993 0
M  V30 24036 C 2286.28 -2.28869 2.78013 0
M  V30 24037 C 2286.13 -1.65062 4.18419 0
M  V30 24038 C 2287.45 -3.30274 2.90873 0
M  V30 24039 H 2284.57 -0.448218 0.585038 0
M  V30 24040 H 2287.21 -0.531914 1.82403 0
M  V30 24041 H 2285.36 -2.88969 2.59672 0
M  V30 24042 H 2287.03 -1.08642 4.48324 0
M  V30 24043 H 2285.28 -0.954074 4.23178 0
M  V30 24044 H 2285.95 -2.41465 4.96385 0
M  V30 24045 H 2288.42 -2.80186 3.07628 0
M  V30 24046 H 2287.3 -4.01231 3.74573 0
M  V30 24047 H 2287.56 -3.93751 2.01028 0
M  V30 24048 N 2286.62 -1.39448 -0.734313 0
M  V30 24049 C 2288.03 -1.32768 -1.31261 0
M  V30 24050 C 2288.38 0.00764048 -1.96199 0
M  V30 24051 O 2287.51 0.909762 -1.96347 0
M  V30 24052 C 2288.1 -2.40454 -2.38678 0
M  V30 24053 C 2286.66 -2.37293 -2.92179 0
M  V30 24054 C 2285.81 -2.22307 -1.65756 0
M  V30 24055 H 2288.76 -1.49525 -0.531773 0
M  V30 24056 H 2288.78 -2.07282 -3.19084 0
M  V30 24057 H 2288.29 -3.37629 -1.91386 0
M  V30 24058 H 2286.39 -1.4376 -3.4375 0
M  V30 24059 H 2286.51 -3.32176 -3.45247 0
M  V30 24060 H 2284.87 -1.69492 -1.90117 0
M  V30 24061 H 2285.65 -3.21451 -1.20515 0
M  V30 24062 N 2288.1 0.964571 -1.24635 0
M  V30 24063 C 2289.33 1.74283 -1.11504 0
M  V30 24064 C 2289.74 1.85856 0.332133 0
M  V30 24065 O 2289.1 1.34913 1.22901 0
M  V30 24066 C 2289.15 3.16172 -1.75264 0
M  V30 24067 O 2288.87 3.05176 -3.14323 0
M  V30 24068 C 2290.37 4.10321 -1.67784 0
M  V30 24069 H 2287.59 0.546439 -0.389417 0
M  V30 24070 H 2290.14 1.2108 -1.64803 0
M  V30 24071 H 2288.29 3.66351 -1.2596 0
M  V30 24072 H 2288.7 3.94612 -3.45517 0
M  V30 24073 H 2290.18 5.07527 -2.17073 0
M  V30 24074 H 2290.66 4.34517 -0.639661 0
M  V30 24075 H 2291.26 3.66054 -2.16529 0
M  V30 24076 N 2289.58 1.0606 1.16572 0
M  V30 24077 C 2290.51 0.690527 2.23056 0
M  V30 24078 C 2291.49 -0.315871 1.67141 0
M  V30 24079 O 2292.67 -0.191522 1.93253 0
M  V30 24080 C 2289.8 0.073686 3.47222 0
M  V30 24081 C 2288.76 1.0058 4.16014 0
M  V30 24082 C 2288.08 0.252383 5.34104 0
M  V30 24083 C 2289.38 2.33379 4.6726 0
M  V30 24084 H 2291.08 1.58077 2.54268 0
M  V30 24085 H 2288.62 0.761512 1.22217 0
M  V30 24086 H 2290.58 -0.197066 4.20939 0
M  V30 24087 H 2289.3 -0.851555 3.15303 0
M  V30 24088 H 2287.96 1.26126 3.44221 0
M  V30 24089 H 2287.61 -0.675901 4.98438 0
M  V30 24090 H 2287.31 0.873557 5.8107 0
M  V30 24091 H 2288.83 -0.0108784 6.10599 0
M  V30 24092 H 2290.24 2.12233 5.32569 0
M  V30 24093 H 2288.64 2.90973 5.24838 0
M  V30 24094 H 2289.71 2.96617 3.83596 0
M  V30 24095 N 2291.06 -1.33168 0.84285 0
M  V30 24096 C 2292.47 -1.50502 0.531154 0
M  V30 24097 C 2292.67 -1.78194 -0.940702 0
M  V30 24098 O 2291.73 -1.84454 -1.72432 0
M  V30 24099 C 2293.04 -2.65702 1.40794 0
M  V30 24100 C 2294.59 -2.79587 1.40713 0
M  V30 24101 C 2295.06 -3.97853 2.26885 0
M  V30 24102 N 2296.55 -4.05095 2.24616 0
M  V30 24103 C 2297.29 -4.9581 2.88028 0
M  V30 24104 N 2296.79 -5.91614 3.60507 0
M  V30 24105 N 2298.58 -4.88838 2.77477 0
M  V30 24106 H 2290.73 -1.13457 1.79559 0
M  V30 24107 H 2292.99 -0.558143 0.766277 0
M  V30 24108 H 2292.7 -2.51932 2.45404 0
M  V30 24109 H 2292.57 -3.61203 1.08683 0
M  V30 24110 H 2294.96 -2.92787 0.36872 0
M  V30 24111 H 2295.04 -1.84835 1.76832 0
M  V30 24112 H 2294.68 -3.85412 3.30787 0
M  V30 24113 H 2294.61 -4.91858 1.88105 0
M  V30 24114 H 2297.11 -3.36533 1.71912 0
M  V30 24115 H 2297.42 -6.57505 4.06088 0
M  V30 24116 H 2295.76 -5.91677 3.64614 0
M  V30 24117 H 2298.95 -4.12959 2.20413 0
M  V30 24118 H 2299.13 -5.59336 3.2718 0
M  V30 24119 N 2292.53 -0.599659 -1.45746 0
M  V30 24120 C 2293.47 0.161838 -2.28628 0
M  V30 24121 C 2294.48 0.839343 -1.39495 0
M  V30 24122 O 2295.67 0.706061 -1.63942 0
M  V30 24123 C 2292.77 1.24971 -3.15017 0
M  V30 24124 C 2291.94 0.660859 -4.32379 0
M  V30 24125 C 2291 1.6386 -5.00036 0
M  V30 24126 O 2290.03 1.168 -5.57087 0
M  V30 24127 N 2291.23 2.97294 -4.98594 0
M  V30 24128 H 2293.99 -0.549317 -2.94623 0
M  V30 24129 H 2291.55 -0.438592 -1.55846 0
M  V30 24130 H 2293.55 1.90344 -3.57143 0
M  V30 24131 H 2292.12 1.86349 -2.50983 0
M  V30 24132 H 2291.34 -0.170758 -3.9383 0
M  V30 24133 H 2292.62 0.24753 -5.08198 0
M  V30 24134 H 2292.02 3.38137 -4.53519 0
M  V30 24135 H 2290.58 3.58111 -5.44609 0
M  V30 24136 N 2294.01 1.53925 -0.338371 0
M  V30 24137 C 2294.97 2.23494 0.50826 0
M  V30 24138 C 2295.97 1.23337 1.03173 0
M  V30 24139 O 2297.16 1.47812 0.9218 0
M  V30 24140 C 2294.3 2.95055 1.70749 0
M  V30 24141 H 2295.49 2.99733 -0.10011 0
M  V30 24142 H 2293.04 1.56043 -0.0896473 0
M  V30 24143 H 2293.78 2.2299 2.3547 0
M  V30 24144 H 2293.56 3.68514 1.33939 0
M  V30 24145 H 2295.05 3.48017 2.30812 0
M  V30 24146 N 2295.49 0.0668712 1.57458 0
M  V30 24147 C 2296.44 -0.902085 2.12441 0
M  V30 24148 C 2297.41 -1.29858 1.03567 0
M  V30 24149 O 2298.59 -1.3853 1.31203 0
M  V30 24150 C 2295.73 -2.16609 2.68653 0
M  V30 24151 C 2294.84 -1.82267 3.91667 0
M  V30 24152 C 2293.98 -3.03242 4.36139 0
M  V30 24153 C 2293.02 -2.64895 5.51813 0
M  V30 24154 N 2292.16 -3.78613 5.91267 0
M  V30 24155 H 2297 -0.42633 2.94935 0
M  V30 24156 H 2294.53 -0.198793 1.45751 0
M  V30 24157 H 2296.49 -2.90594 2.99351 0
M  V30 24158 H 2295.12 -2.61734 1.88932 0
M  V30 24159 H 2294.17 -0.983654 3.67462 0
M  V30 24160 H 2295.48 -1.50051 4.75695 0
M  V30 24161 H 2294.64 -3.85511 4.68472 0
M  V30 24162 H 2293.38 -3.38649 3.50954 0
M  V30 24163 H 2292.38 -1.81046 5.19136 0
M  V30 24164 H 2293.61 -2.30664 6.38726 0
M  V30 24165 H 2291.55 -4.13791 5.09032 0
M  V30 24166 H 2291.47 -3.50148 6.70024 0
M  V30 24167 H 2292.74 -4.61475 6.2822 0
M  V30 24168 N 2296.97 -1.56239 -0.206647 0
M  V30 24169 C 2298.21 -1.80209 -0.930186 0
M  V30 24170 C 2298.55 -0.639013 -1.83386 0
M  V30 24171 O 2297.82 0.361032 -1.9112 0
M  V30 24172 C 2298.1 -3.14363 -1.75635 0
M  V30 24173 C 2297.96 -4.41144 -0.87818 0
M  V30 24174 C 2299.28 -3.45097 -2.73123 0
M  V30 24175 H 2296.4 -0.655577 -0.336731 0
M  V30 24176 H 2299.04 -1.88964 -0.198189 0
M  V30 24177 H 2297.19 -3.07031 -2.38042 0
M  V30 24178 H 2298.86 -4.60511 -0.269706 0
M  V30 24179 H 2297.1 -4.33408 -0.184309 0
M  V30 24180 H 2297.77 -5.31483 -1.49097 0
M  V30 24181 H 2300.25 -3.52653 -2.2085 0
M  V30 24182 H 2299.13 -4.40106 -3.28021 0
M  V30 24183 H 2299.39 -2.68009 -3.51602 0
M  V30 24184 N 2298.45 0.473929 -1.50305 0
M  V30 24185 C 2299.38 1.58968 -1.65112 0
M  V30 24186 C 2300.39 1.53838 -0.532703 0
M  V30 24187 O 2301.58 1.59278 -0.805779 0
M  V30 24188 C 2298.68 2.97842 -1.61689 0
M  V30 24189 C 2297.85 3.27871 -2.89516 0
M  V30 24190 C 2296.91 4.46285 -2.78775 0
M  V30 24191 O 2295.94 4.46733 -3.5273 0
M  V30 24192 N 2297.14 5.4778 -1.9214 0
M  V30 24193 H 2299.9 1.46684 -2.6135 0
M  V30 24194 H 2297.47 0.662298 -1.47734 0
M  V30 24195 H 2299.46 3.75022 -1.52121 0
M  V30 24196 H 2298.03 3.03909 -0.731979 0
M  V30 24197 H 2297.25 2.39331 -3.13232 0
M  V30 24198 H 2298.54 3.44744 -3.74205 0
M  V30 24199 H 2297.93 5.50237 -1.31363 0
M  V30 24200 H 2296.49 6.23955 -1.88477 0
M  V30 24201 N 2299.92 1.39835 0.726907 0
M  V30 24202 C 2301.17 1.37227 1.48368 0
M  V30 24203 C 2301.49 -0.0284514 1.94979 0
M  V30 24204 O 2300.76 -0.981183 1.69557 0
M  V30 24205 H 2299.34 0.505021 0.550421 0
M  V30 24206 H 2302 1.7478 0.862437 0
M  V30 24207 H 2301.1 2.04007 2.36194 0
M  V30 24208 N 2301.4 -0.957948 1.25144 0
M  V30 24209 C 2302.81 -1.51683 1.08854 0
M  V30 24210 C 2303.16 -1.93287 -0.336836 0
M  V30 24211 O 2302.29 -1.78292 -1.22641 0
M  V30 24212 C 2302.88 -2.7565 1.96983 0
M  V30 24213 C 2301.44 -3.27862 1.84887 0
M  V30 24214 C 2300.59 -2.00717 1.91332 0
M  V30 24215 H 2303.54 -0.775196 1.38479 0
M  V30 24216 H 2303.56 -3.49348 1.50786 0
M  V30 24217 H 2303.07 -2.45339 3.00716 0
M  V30 24218 H 2301.17 -3.63002 0.840246 0
M  V30 24219 H 2301.29 -3.96103 2.69517 0
M  V30 24220 H 2299.65 -2.15868 1.35178 0
M  V30 24221 H 2300.43 -1.72758 2.96664 0
M  V30 24222 N 2302.88 -1.06677 -1.16008 0
M  V30 24223 C 2303.84 -0.685039 -2.18723 0
M  V30 24224 C 2304.84 0.271218 -1.58496 0
M  V30 24225 O 2306.03 0.053085 -1.74119 0
M  V30 24226 C 2303.16 -0.0085964 -3.40899 0
M  V30 24227 H 2304.36 -1.59435 -2.54009 0
M  V30 24228 H 2301.91 -0.862464 -1.3035 0
M  V30 24229 H 2302.65 0.913282 -3.11175 0
M  V30 24230 H 2302.43 -0.696271 -3.85868 0
M  V30 24231 H 2303.92 0.244066 -4.16886 0
M  V30 24232 N 2304.36 1.32719 -0.8499 0
M  V30 24233 C 2305.6 1.97415 -0.450957 0
M  V30 24234 C 2305.93 1.6728 0.992347 0
M  V30 24235 O 2305.19 0.950875 1.71046 0
M  V30 24236 C 2305.49 3.5178 -0.631333 0
M  V30 24237 C 2305.15 4.0189 -2.04439 0
M  V30 24238 C 2303.81 4.15285 -2.43087 0
M  V30 24239 C 2306.17 4.28517 -2.96687 0
M  V30 24240 C 2303.49 4.52648 -3.73265 0
M  V30 24241 C 2305.85 4.67335 -4.26357 0
M  V30 24242 C 2304.51 4.78937 -4.64947 0
M  V30 24243 H 2303.78 0.722392 -0.165017 0
M  V30 24244 H 2306.43 1.58205 -1.07904 0
M  V30 24245 H 2304.73 3.91718 0.0800078 0
M  V30 24246 H 2306.43 3.99855 -0.302779 0
M  V30 24247 H 2303.02 3.91946 -1.73426 0
M  V30 24248 H 2307.2 4.17681 -2.68061 0
M  V30 24249 H 2302.46 4.59824 -4.02954 0
M  V30 24250 H 2306.63 4.86893 -4.97904 0
M  V30 24251 H 2304.26 5.07644 -5.65864 0
M  V30 24252 N 2305.84 0.60738 1.45426 0
M  V30 24253 C 2306.75 -0.113422 2.34326 0
M  V30 24254 C 2307.76 -0.860591 1.51228 0
M  V30 24255 O 2308.94 -0.818223 1.8403 0
M  V30 24256 C 2306 -1.09838 3.28841 0
M  V30 24257 C 2305.06 -0.353196 4.27845 0
M  V30 24258 C 2304.3 -1.29124 5.17844 0
M  V30 24259 O 2304.52 -2.52904 5.11269 0
M  V30 24260 O 2303.45 -0.788418 5.96714 0
M  V30 24261 H 2307.28 0.617146 2.97363 0
M  V30 24262 H 2304.87 0.367644 1.44806 0
M  V30 24263 H 2306.75 -1.66568 3.87083 0
M  V30 24264 H 2305.42 -1.80998 2.68368 0
M  V30 24265 H 2304.33 0.25656 3.73219 0
M  V30 24266 H 2305.66 0.317909 4.91172 0
M  V30 24267 N 2307.31 -1.53743 0.34653 0
M  V30 24268 C 2308.56 -2.00962 -0.249069 0
M  V30 24269 C 2308.89 -1.23429 -1.50318 0
M  V30 24270 O 2308.14 -0.310795 -1.93216 0
M  V30 24271 C 2308.44 -3.52229 -0.605747 0
M  V30 24272 C 2308.11 -4.47511 0.551825 0
M  V30 24273 C 2306.77 -4.73279 0.869493 0
M  V30 24274 C 2309.12 -5.03991 1.32827 0
M  V30 24275 C 2306.45 -5.52783 1.96592 0
M  V30 24276 C 2308.8 -5.8469 2.41496 0
M  V30 24277 C 2307.47 -6.08752 2.73819 0
M  V30 24278 H 2306.74 -0.735374 -0.0911408 0
M  V30 24279 H 2309.38 -1.85514 0.47506 0
M  V30 24280 H 2307.69 -3.65525 -1.41063 0
M  V30 24281 H 2309.39 -3.86224 -1.07852 0
M  V30 24282 H 2305.98 -4.27589 0.294177 0
M  V30 24283 H 2310.16 -4.84045 1.0961 0
M  V30 24284 H 2305.42 -5.6965 2.22055 0
M  V30 24285 H 2309.59 -6.27467 3.02089 0
M  V30 24286 H 2307.22 -6.70144 3.58903 0
M  V30 24287 N 2308.79 -0.0752207 -1.5742 0
M  V30 24288 C 2309.76 0.876166 -2.11792 0
M  V30 24289 C 2310.76 1.22411 -1.0427 0
M  V30 24290 O 2311.95 1.15681 -1.30244 0
M  V30 24291 C 2309.08 2.1785 -2.6221 0
M  V30 24292 H 2310.27 0.404388 -2.97161 0
M  V30 24293 H 2307.82 0.17353 -1.55334 0
M  V30 24294 H 2308.56 2.69556 -1.80305 0
M  V30 24295 H 2308.34 1.93891 -3.40806 0
M  V30 24296 H 2309.83 2.85949 -3.0434 0
M  V30 24297 N 2310.27 1.56347 0.198358 0
M  V30 24298 C 2311.52 1.807 0.920616 0
M  V30 24299 C 2311.85 0.64873 1.83044 0
M  V30 24300 O 2311.12 -0.350892 1.91309 0
M  V30 24301 C 2311.41 3.1529 1.73966 0
M  V30 24302 C 2311.26 4.41604 0.854773 0
M  V30 24303 C 2312.58 3.4654 2.71289 0
M  V30 24304 H 2309.7 0.657354 0.333249 0
M  V30 24305 H 2312.34 1.89066 0.188165 0
M  V30 24306 H 2310.49 3.08289 2.36411 0
M  V30 24307 H 2312.16 4.60647 0.245281 0
M  V30 24308 H 2310.41 4.335 0.161322 0
M  V30 24309 H 2311.08 5.32266 1.46276 0
M  V30 24310 H 2313.55 3.5382 2.18977 0
M  V30 24311 H 2312.43 4.4184 3.25682 0
M  V30 24312 H 2312.69 2.6987 3.50175 0
M  V30 24313 N 2311.75 -0.465951 1.50554 0
M  V30 24314 C 2312.71 -1.54571 1.69235 0
M  V30 24315 C 2313.71 -1.50625 0.562928 0
M  V30 24316 O 2314.9 -1.53153 0.830042 0
M  V30 24317 C 2312.03 -2.9419 1.72235 0
M  V30 24318 H 2313.23 -1.39322 2.65574 0
M  V30 24319 H 2310.78 -0.692687 1.40113 0
M  V30 24320 H 2311.51 -3.14877 0.776085 0
M  V30 24321 H 2311.3 -2.98461 2.5429 0
M  V30 24322 H 2312.79 -3.72573 1.88625 0
M  V30 24323 N 2313.23 -1.40218 -0.719481 0
M  V30 24324 C 2314.16 -1.34574 -1.84296 0
M  V30 24325 C 2315.14 -0.216769 -1.61149 0
M  V30 24326 O 2316.32 -0.399788 -1.84212 0
M  V30 24327 C 2313.45 -1.09341 -3.20566 0
M  V30 24328 C 2312.49 -2.24637 -3.62547 0
M  V30 24329 S 2313.33 -3.8701 -3.70113 0
M  V30 24330 C 2314.48 -3.64033 -5.09147 0
M  V30 24331 H 2314.72 -2.29654 -1.88803 0
M  V30 24332 H 2312.25 -1.26458 -0.885879 0
M  V30 24333 H 2314.21 -0.954672 -3.99245 0
M  V30 24334 H 2312.87 -0.159219 -3.13696 0
M  V30 24335 H 2312.06 -2.02614 -4.6148 0
M  V30 24336 H 2311.66 -2.34794 -2.91115 0
M  V30 24337 H 2313.96 -3.22259 -5.95949 0
M  V30 24338 H 2314.9 -4.62482 -5.36205 0
M  V30 24339 H 2315.31 -2.97801 -4.79557 0
M  V30 24340 N 2314.7 0.951297 -1.25651 0
M  V30 24341 C 2315.64 2.04805 -1.00648 0
M  V30 24342 C 2316.62 1.62468 0.0653986 0
M  V30 24343 O 2317.8 1.88351 -0.0749441 0
M  V30 24344 C 2314.93 3.34652 -0.522111 0
M  V30 24345 C 2313.97 3.95954 -1.58502 0
M  V30 24346 S 2314.81 4.31507 -3.17115 0
M  V30 24347 C 2315.96 5.64467 -2.70422 0
M  V30 24348 H 2316.19 2.25699 -1.93512 0
M  V30 24349 H 2313.73 1.09137 -1.09218 0
M  V30 24350 H 2315.69 4.09742 -0.249302 0
M  V30 24351 H 2314.35 3.11718 0.386091 0
M  V30 24352 H 2313.54 4.89582 -1.19689 0
M  V30 24353 H 2313.14 3.27357 -1.80868 0
M  V30 24354 H 2315.43 6.42729 -2.14256 0
M  V30 24355 H 2316.38 6.08154 -3.62704 0
M  V30 24356 H 2316.78 5.2386 -2.10311 0
M  V30 24357 N 2316.18 1.07291 1.1544 0
M  V30 24358 C 2317.13 0.692691 2.2016 0
M  V30 24359 C 2318.1 -0.315611 1.63074 0
M  V30 24360 O 2319.28 -0.202202 1.89726 0
M  V30 24361 C 2316.42 0.0960115 3.44966 0
M  V30 24362 C 2315.54 1.15571 4.16254 0
M  V30 24363 C 2314.67 0.524104 5.28608 0
M  V30 24364 C 2313.71 1.56664 5.91712 0
M  V30 24365 N 2312.85 0.957653 6.95538 0
M  V30 24366 H 2317.69 1.59006 2.52034 0
M  V30 24367 H 2315.23 0.79482 1.23778 0
M  V30 24368 H 2317.18 -0.267555 4.16341 0
M  V30 24369 H 2315.81 -0.764717 3.13611 0
M  V30 24370 H 2314.87 1.63686 3.43382 0
M  V30 24371 H 2316.18 1.94621 4.59265 0
M  V30 24372 H 2315.33 0.108138 6.06604 0
M  V30 24373 H 2314.07 -0.298165 4.86788 0
M  V30 24374 H 2313.08 1.99239 5.12429 0
M  V30 24375 H 2314.3 2.39118 6.35609 0
M  V30 24376 H 2312.25 0.156277 6.55814 0
M  V30 24377 H 2312.16 1.68539 7.36974 0
M  V30 24378 H 2313.43 0.567169 7.77434 0
M  V30 24379 N 2317.66 -1.32267 0.856927 0
M  V30 24380 C 2319.08 -1.4993 0.547087 0
M  V30 24381 C 2319.28 -1.79182 -0.92175 0
M  V30 24382 O 2318.33 -1.86273 -1.70466 0
M  V30 24383 C 2319.65 -2.64194 1.43604 0
M  V30 24384 C 2321.19 -2.78079 1.4367 0
M  V30 24385 C 2321.67 -3.95424 2.31092 0
M  V30 24386 N 2323.16 -4.0269 2.289 0
M  V30 24387 C 2323.89 -4.92727 2.9327 0
M  V30 24388 N 2323.39 -5.87757 3.66761 0
M  V30 24389 N 2325.18 -4.85868 2.82646 0
M  V30 24390 H 2317.33 -1.11546 1.80752 0
M  V30 24391 H 2319.6 -0.549984 0.772154 0
M  V30 24392 H 2319.3 -2.49315 2.48063 0
M  V30 24393 H 2319.18 -3.6003 1.12508 0
M  V30 24394 H 2321.56 -2.9238 0.399753 0
M  V30 24395 H 2321.65 -1.82949 1.78783 0
M  V30 24396 H 2321.29 -3.81882 3.34856 0
M  V30 24397 H 2321.22 -4.89835 1.93311 0
M  V30 24398 H 2323.71 -3.34691 1.75471 0
M  V30 24399 H 2324.02 -6.53161 4.13039 0
M  V30 24400 H 2322.37 -5.87776 3.70869 0
M  V30 24401 H 2325.56 -4.10598 2.24781 0
M  V30 24402 H 2325.73 -5.55835 3.33094 0
M  V30 24403 N 2319.14 -0.615084 -1.45102 0
M  V30 24404 C 2320.09 0.11175 -2.32331 0
M  V30 24405 C 2321.08 0.852076 -1.4641 0
M  V30 24406 O 2322.29 0.766793 -1.62851 0
M  V30 24407 H 2318.66 0.0548941 -0.749994 0
M  V30 24408 H 2320.63 -0.642276 -2.91406 0
M  V30 24409 C 2319.38 1.09065 -3.30152 0
M  V30 24410 H 2318.7 0.530415 -3.96266 0
M  V30 24411 H 2320.14 1.56901 -3.93901 0
M  V30 24412 C 2318.6 2.16795 -2.57879 0
M  V30 24413 O 2319.13 3.24648 -2.36573 0
M  V30 24414 N 2317.34 1.92285 -2.17887 0
M  V30 24415 H 2316.89 1.04583 -2.35415 0
M  V30 24416 H 2316.84 2.64569 -1.69855 0
M  V30 24417 N 2320.62 1.53557 -0.354678 0
M  V30 24418 C 2321.84 2.05982 0.242117 0
M  V30 24419 C 2322.27 1.22723 1.42551 0
M  V30 24420 O 2321.63 0.243635 1.79656 0
M  V30 24421 C 2321.67 3.55155 0.624304 0
M  V30 24422 O 2320.78 3.74684 1.72295 0
M  V30 24423 H 2320.12 0.662921 0.0378315 0
M  V30 24424 H 2322.65 1.98087 -0.512121 0
M  V30 24425 H 2322.66 3.97987 0.898363 0
M  V30 24426 H 2321.33 4.15201 -0.241062 0
M  V30 24427 H 2319.91 3.43753 1.44529 0
M  V30 24428 N 2322.1 0.083568 1.57378 0
M  V30 24429 C 2323.32 -0.594952 1.98683 0
M  V30 24430 C 2323.75 -1.61639 0.961997 0
M  V30 24431 O 2323.1 -1.81161 -0.070967 0
M  V30 24432 C 2323.15 -1.22954 3.38991 0
M  V30 24433 O 2322.26 -2.3454 3.39212 0
M  V30 24434 H 2321.6 -0.151991 0.64637 0
M  V30 24435 H 2324.13 0.161568 2.03961 0
M  V30 24436 H 2324.14 -1.57359 3.76433 0
M  V30 24437 H 2322.81 -0.481155 4.13107 0
M  V30 24438 H 2321.39 -2.01841 3.13552 0
M  V30 24439 N 2323.57 -1.5645 -0.190064 0
M  V30 24440 C 2324.8 -1.85034 -0.92574 0
M  V30 24441 C 2325.22 -0.666689 -1.76637 0
M  V30 24442 O 2324.57 0.364534 -1.78822 0
M  V30 24443 C 2324.62 -3.12471 -1.8178 0
M  V30 24444 O 2324.35 -4.26272 -1.01111 0
M  V30 24445 C 2325.85 -3.54269 -2.66474 0
M  V30 24446 H 2323.07 -0.614342 -0.269861 0
M  V30 24447 H 2325.61 -2.0356 -0.195802 0
M  V30 24448 H 2323.77 -2.95827 -2.50131 0
M  V30 24449 H 2324.18 -4.98872 -1.61947 0
M  V30 24450 H 2325.65 -4.46391 -3.24714 0
M  V30 24451 H 2326.13 -2.77497 -3.40429 0
M  V30 24452 H 2326.74 -3.73461 -2.03487 0
M  V30 24453 N 2325.05 0.45796 -1.50799 0
M  V30 24454 C 2326.3 1.21085 -1.62685 0
M  V30 24455 C 2326.63 1.91336 -0.332301 0
M  V30 24456 O 2325.91 1.82705 0.667011 0
M  V30 24457 C 2326.19 2.24417 -2.81619 0
M  V30 24458 C 2326.04 1.58384 -4.20992 0
M  V30 24459 C 2327.36 3.25605 -2.9609 0
M  V30 24460 H 2324.48 0.438853 -0.592095 0
M  V30 24461 H 2327.12 0.502828 -1.83226 0
M  V30 24462 H 2325.27 2.84801 -2.64236 0
M  V30 24463 H 2326.94 1.01496 -4.49996 0
M  V30 24464 H 2325.19 0.886629 -4.24643 0
M  V30 24465 H 2325.86 2.33538 -5.00164 0
M  V30 24466 H 2328.33 2.75256 -3.12047 0
M  V30 24467 H 2327.21 3.95221 -3.80909 0
M  V30 24468 H 2327.47 3.90503 -2.07267 0
M  V30 24469 N 2326.53 1.40598 0.712035 0
M  V30 24470 C 2327.48 1.41145 1.82611 0
M  V30 24471 C 2328.45 0.267932 1.63925 0
M  V30 24472 O 2329.63 0.466527 1.85009 0
M  V30 24473 C 2326.77 1.2833 3.20352 0
M  V30 24474 C 2325.88 2.52417 3.50585 0
M  V30 24475 C 2325.02 2.32017 4.77851 0
M  V30 24476 C 2324.06 3.51663 5.00999 0
M  V30 24477 N 2323.2 3.30436 6.19481 0
M  V30 24478 H 2328.04 2.36368 1.81478 0
M  V30 24479 H 2325.57 1.1739 0.886455 0
M  V30 24480 H 2327.53 1.18906 3.99897 0
M  V30 24481 H 2326.16 0.367245 3.20704 0
M  V30 24482 H 2325.21 2.72356 2.65568 0
M  V30 24483 H 2326.52 3.41464 3.63598 0
M  V30 24484 H 2325.68 2.19966 5.6542 0
M  V30 24485 H 2324.42 1.40401 4.67054 0
M  V30 24486 H 2323.42 3.64187 4.11884 0
M  V30 24487 H 2324.65 4.44211 5.13666 0
M  V30 24488 H 2322.59 2.41505 6.09927 0
M  V30 24489 H 2322.51 4.1305 6.33187 0
M  V30 24490 H 2323.78 3.22125 7.09828 0
M  V30 24491 N 2328.01 -0.94462 1.26153 0
M  V30 24492 C 2329.24 -1.72487 1.14262 0
M  V30 24493 C 2329.65 -1.86361 -0.302523 0
M  V30 24494 O 2329.01 -1.36852 -1.20739 0
M  V30 24495 C 2329.06 -3.13344 1.80272 0
M  V30 24496 O 2328.78 -3.00137 3.19138 0
M  V30 24497 C 2330.28 -4.076 1.7429 0
M  V30 24498 H 2327.5 -0.540174 0.398061 0
M  V30 24499 H 2330.04 -1.18443 1.66708 0
M  V30 24500 H 2328.2 -3.643 1.31772 0
M  V30 24501 H 2328.61 -3.89065 3.51751 0
M  V30 24502 H 2330.09 -5.04009 2.2512 0
M  V30 24503 H 2330.56 -4.33444 0.708708 0
M  V30 24504 H 2331.17 -3.62563 2.22325 0
M  V30 24505 N 2329.49 -1.07901 -1.1487 0
M  V30 24506 C 2330.4 -0.715954 -2.23408 0
M  V30 24507 C 2331.41 0.275275 -1.71809 0
M  V30 24508 O 2332.59 0.12051 -2.01039 0
M  V30 24509 C 2329.65 -0.125229 -3.46474 0
M  V30 24510 C 2328.71 -1.17041 -4.13037 0
M  V30 24511 C 2327.95 -0.607781 -5.30228 0
M  V30 24512 O 2328.17 0.574397 -5.67501 0
M  V30 24513 O 2327.1 -1.35536 -5.86441 0
M  V30 24514 H 2330.93 -1.62125 -2.56805 0
M  V30 24515 H 2328.51 -0.852344 -1.22701 0
M  V30 24516 H 2330.4 0.201655 -4.20917 0
M  V30 24517 H 2329.07 0.753309 -3.14813 0
M  V30 24518 H 2327.98 -1.54974 -3.40491 0
M  V30 24519 H 2329.31 -2.02105 -4.48792 0
M  V30 24520 N 2330.96 1.31811 -0.863929 0
M  V30 24521 C 2332.19 2.00816 -0.485442 0
M  V30 24522 C 2332.6 1.65048 0.924978 0
M  V30 24523 O 2331.94 0.872602 1.61652 0
M  V30 24524 C 2332.01 3.5518 -0.555652 0
M  V30 24525 C 2331.67 4.14404 -1.92661 0
M  V30 24526 C 2332.67 4.31953 -2.89332 0
M  V30 24527 C 2330.35 4.50269 -2.22628 0
M  V30 24528 C 2332.35 4.84548 -4.14116 0
M  V30 24529 C 2330.03 5.02567 -3.47663 0
M  V30 24530 C 2331.03 5.19656 -4.43223 0
M  V30 24531 O 2330.72 5.70833 -5.66043 0
M  V30 24532 H 2330.45 0.649264 -0.188235 0
M  V30 24533 H 2333.01 1.69154 -1.16517 0
M  V30 24534 H 2331.24 3.86276 0.180969 0
M  V30 24535 H 2332.92 4.05448 -0.191451 0
M  V30 24536 H 2333.69 4.04569 -2.67487 0
M  V30 24537 H 2329.57 4.36247 -1.49028 0
M  V30 24538 H 2333.11 4.97802 -4.88712 0
M  V30 24539 H 2329.01 5.29384 -3.69354 0
M  V30 24540 H 2329.78 5.89212 -5.6813 0
M  V30 24541 N 2332.44 0.62277 1.44773 0
M  V30 24542 C 2333.69 0.12369 2.01721 0
M  V30 24543 C 2334.01 -1.25587 1.49174 0
M  V30 24544 O 2333.28 -1.83271 0.692006 0
M  V30 24545 H 2331.86 0.0427356 0.745777 0
M  V30 24546 H 2334.52 0.80759 1.77381 0
M  V30 24547 H 2333.62 0.0850082 3.11984 0
M  V30 24548 N 2333.92 -1.53367 0.362817 0
M  V30 24549 C 2334.83 -2.29362 -0.492953 0
M  V30 24550 C 2335.85 -1.35221 -1.09505 0
M  V30 24551 O 2337.02 -1.68275 -1.10659 0
M  V30 24552 C 2334.09 -3.06603 -1.6185 0
M  V30 24553 C 2333.15 -4.16407 -1.04422 0
M  V30 24554 C 2332.38 -4.89955 -2.11613 0
M  V30 24555 O 2332.6 -4.63339 -3.32676 0
M  V30 24556 O 2331.54 -5.75951 -1.74825 0
M  V30 24557 H 2335.36 -3.03441 0.125384 0
M  V30 24558 H 2332.95 -1.48857 0.12728 0
M  V30 24559 H 2334.83 -3.54845 -2.27295 0
M  V30 24560 H 2333.51 -2.35363 -2.22229 0
M  V30 24561 H 2332.41 -3.72424 -0.353754 0
M  V30 24562 H 2333.75 -4.89804 -0.485027 0
M  V30 24563 N 2335.4 -0.091913 -1.57332 0
M  V30 24564 C 2336.65 0.572543 -1.94237 0
M  V30 24565 C 2336.97 1.68388 -0.973428 0
M  V30 24566 O 2336.23 1.95699 0.00753472 0
M  V30 24567 C 2336.53 1.17045 -3.37691 0
M  V30 24568 C 2336.19 0.183224 -4.50528 0
M  V30 24569 C 2334.86 -0.0883122 -4.81119 0
M  V30 24570 C 2337.21 -0.491041 -5.18882 0
M  V30 24571 C 2334.54 -1.04086 -5.77393 0
M  V30 24572 C 2336.89 -1.43204 -6.16178 0
M  V30 24573 C 2335.55 -1.71184 -6.45176 0
M  V30 24574 H 2334.82 0.209508 -0.710765 0
M  V30 24575 H 2337.47 -0.167069 -1.9077 0
M  V30 24576 H 2335.77 1.98624 -3.37721 0
M  V30 24577 H 2337.47 1.69221 -3.63546 0
M  V30 24578 H 2334.06 0.405049 -4.26682 0
M  V30 24579 H 2338.24 -0.294399 -4.95426 0
M  V30 24580 H 2333.5 -1.26468 -5.98177 0
M  V30 24581 H 2337.67 -1.96034 -6.68239 0
M  V30 24582 H 2335.3 -2.45153 -7.19586 0
M  V30 24583 N 2336.88 1.56548 0.181765 0
M  V30 24584 C 2338.1 1.85523 0.915914 0
M  V30 24585 C 2338.52 0.676047 1.76281 0
M  V30 24586 O 2337.88 -0.355045 1.79013 0
M  V30 24587 C 2337.93 3.13431 1.80121 0
M  V30 24588 O 2337.65 4.26803 0.988487 0
M  V30 24589 C 2339.15 3.55678 2.64591 0
M  V30 24590 H 2336.37 0.615765 0.266599 0
M  V30 24591 H 2338.91 2.03661 0.185004 0
M  V30 24592 H 2337.07 2.97149 2.48558 0
M  V30 24593 H 2337.48 4.99724 1.59299 0
M  V30 24594 H 2338.96 4.48107 3.22342 0
M  V30 24595 H 2339.43 2.79298 3.38953 0
M  V30 24596 H 2340.04 3.74535 2.01503 0
M  V30 24597 N 2338.35 -0.449957 1.5104 0
M  V30 24598 C 2339.29 -1.56472 1.66108 0
M  V30 24599 C 2340.27 -1.54434 0.508803 0
M  V30 24600 O 2341.45 -1.73747 0.731036 0
M  V30 24601 C 2338.58 -2.95058 1.66309 0
M  V30 24602 C 2337.62 -3.15169 2.87351 0
M  V30 24603 S 2338.46 -2.9281 4.48356 0
M  V30 24604 C 2339.61 -4.337 4.51282 0
M  V30 24605 H 2339.84 -1.43454 2.604 0
M  V30 24606 H 2337.38 -0.63878 1.40567 0
M  V30 24607 H 2339.34 -3.74946 1.67109 0
M  V30 24608 H 2338 -3.05448 0.732162 0
M  V30 24609 H 2337.19 -4.16463 2.83857 0
M  V30 24610 H 2336.79 -2.43086 2.84228 0
M  V30 24611 H 2339.08 -5.26694 4.26146 0
M  V30 24612 H 2340.03 -4.42232 5.53025 0
M  V30 24613 H 2340.43 -4.16766 3.80745 0
M  V30 24614 N 2339.83 -1.40974 -0.704569 0
M  V30 24615 C 2340.76 -1.44876 -1.83121 0
M  V30 24616 C 2341.74 -0.308409 -1.67281 0
M  V30 24617 O 2342.93 -0.518589 -1.87148 0
M  V30 24618 C 2340.06 -1.32142 -3.21179 0
M  V30 24619 C 2339.01 -2.43894 -3.5171 0
M  V30 24620 C 2338.34 -2.16231 -4.89028 0
M  V30 24621 C 2339.64 -3.86238 -3.51593 0
M  V30 24622 H 2341.33 -2.39164 -1.80113 0
M  V30 24623 H 2338.88 -1.15116 -0.865124 0
M  V30 24624 H 2340.83 -1.33486 -3.99699 0
M  V30 24625 H 2339.56 -0.343336 -3.2479 0
M  V30 24626 H 2338.21 -2.41818 -2.75535 0
M  V30 24627 H 2337.86 -1.16787 -4.89254 0
M  V30 24628 H 2337.56 -2.91109 -5.10421 0
M  V30 24629 H 2339.09 -2.19275 -5.69869 0
M  V30 24630 H 2340.5 -3.90078 -4.20134 0
M  V30 24631 H 2338.9 -4.60725 -3.84515 0
M  V30 24632 H 2339.97 -4.15033 -2.50749 0
M  V30 24633 N 2341.31 0.937917 -1.26653 0
M  V30 24634 C 2342.56 1.68116 -1.12168 0
M  V30 24635 C 2342.88 1.92102 0.334949 0
M  V30 24636 O 2342.15 1.52003 1.2358 0
M  V30 24637 H 2340.73 0.623041 -0.412104 0
M  V30 24638 H 2343.39 1.12675 -1.59029 0
M  V30 24639 H 2342.49 2.65357 -1.64293 0
M  V30 24640 N 2342.79 1.08509 1.14296 0
M  V30 24641 C 2344.04 0.810338 1.84706 0
M  V30 24642 C 2344.35 -0.666238 1.83904 0
M  V30 24643 O 2345.56 -1.05619 2.50114 0
M  V30 24644 C 2344.01 1.39963 3.31569 0
M  V30 24645 C 2343.62 2.90807 3.40786 0
M  V30 24646 C 2345.36 1.20342 4.07085 0
M  V30 24647 C 2343.27 3.42869 4.81866 0
M  V30 24648 H 2342.2 0.299466 0.69198 0
M  V30 24649 H 2344.85 1.30663 1.28838 0
M  V30 24650 H 2343.23 0.831045 3.87182 0
M  V30 24651 H 2344.41 3.53811 2.95219 0
M  V30 24652 H 2342.72 3.09355 2.78727 0
M  V30 24653 H 2345.32 1.56702 5.11223 0
M  V30 24654 H 2345.66 0.14331 4.16053 0
M  V30 24655 H 2346.2 1.739 3.57776 0
M  V30 24656 H 2342.94 4.48457 4.78086 0
M  V30 24657 H 2342.46 2.84624 5.27967 0
M  V30 24658 H 2344.13 3.39519 5.50759 0
M  V30 24659 N 2344.27 -1.31351 0.870907 0
M  V30 24660 C 2345.5 -2.00556 0.496085 0
M  V30 24661 C 2345.9 -1.65536 -0.916212 0
M  V30 24662 O 2345.25 -0.881163 -1.61187 0
M  V30 24663 C 2345.31 -3.5488 0.57448 0
M  V30 24664 C 2344.97 -4.13377 1.94856 0
M  V30 24665 C 2345.97 -4.30412 2.91618 0
M  V30 24666 C 2343.66 -4.49082 2.25013 0
M  V30 24667 C 2345.65 -4.82345 4.1668 0
M  V30 24668 C 2343.34 -5.00716 3.50324 0
M  V30 24669 C 2344.33 -5.17298 4.45973 0
M  V30 24670 O 2344.02 -5.67823 5.69062 0
M  V30 24671 H 2343.75 -0.648256 0.191676 0
M  V30 24672 H 2346.31 -1.68533 1.17412 0
M  V30 24673 H 2344.54 -3.86367 -0.160482 0
M  V30 24674 H 2346.23 -4.05341 0.21295 0
M  V30 24675 H 2346.99 -4.03144 2.69629 0
M  V30 24676 H 2342.87 -4.35451 1.5134 0
M  V30 24677 H 2346.42 -4.95203 4.91345 0
M  V30 24678 H 2342.31 -5.27418 3.72157 0
M  V30 24679 H 2343.08 -5.86191 5.71247 0
M  V30 24680 N 2345.74 -0.630439 -1.44441 0
M  V30 24681 C 2347.02 -0.0656 -1.9549 0
M  V30 24682 C 2347.4 1.40848 -1.57242 0
M  V30 24683 O 2346.75 2.12256 -0.846154 0
M  V30 24684 C 2346.96 -0.287752 -3.47812 0
M  V30 24685 C 2348.31 -0.180588 -4.24216 0
M  V30 24686 O 2349.33 -0.219082 -3.55526 0
M  V30 24687 O 2348.19 -0.0849453 -5.46434 0
M  V30 24688 H 2345.28 0.0227031 -0.826688 0
M  V30 24689 H 2347.83 -0.702095 -1.54495 0
M  V30 24690 H 2346.6 -1.31063 -3.68698 0
M  V30 24691 H 2346.23 0.382914 -3.95752 0
M  V30 24692 N 2347.22 1.53172 -0.370945 0
M  V30 24693 C 2348.64 1.59587 -0.0201098 0
M  V30 24694 C 2348.84 1.38583 1.46277 0
M  V30 24695 O 2347.89 1.19367 2.22504 0
M  V30 24696 C 2349.21 2.9683 -0.480852 0
M  V30 24697 C 2350.76 3.09955 -0.435532 0
M  V30 24698 C 2351.23 4.49619 -0.872171 0
M  V30 24699 N 2352.72 4.55749 -0.827444 0
M  V30 24700 C 2353.46 5.62016 -1.13692 0
M  V30 24701 N 2352.95 6.76011 -1.51595 0
M  V30 24702 N 2354.75 5.52027 -1.05937 0
M  V30 24703 H 2346.9 1.65076 -1.33655 0
M  V30 24704 H 2349.16 0.77452 -0.546647 0
M  V30 24705 H 2348.87 3.17357 -1.51583 0
M  V30 24706 H 2348.74 3.76977 0.129729 0
M  V30 24707 H 2351.13 2.89135 0.59032 0
M  V30 24708 H 2351.21 2.31805 -1.08168 0
M  V30 24709 H 2350.85 4.71177 -1.89616 0
M  V30 24710 H 2350.78 5.26208 -0.20322 0
M  V30 24711 H 2353.27 3.73901 -0.548282 0
M  V30 24712 H 2353.59 7.53044 -1.73622 0
M  V30 24713 H 2351.93 6.77389 -1.55466 0
M  V30 24714 H 2355.12 4.6185 -0.762402 0
M  V30 24715 H 2355.29 6.34746 -1.30389 0
M  V30 24716 N 2348.7 0.100255 1.57281 0
M  V30 24717 C 2349.95 -0.556912 1.95627 0
M  V30 24718 C 2350.3 -1.65471 0.981684 0
M  V30 24719 O 2349.59 -1.91598 0.00853215 0
M  V30 24720 C 2349.79 -1.15253 3.38307 0
M  V30 24721 C 2349.62 -0.113956 4.49556 0
M  V30 24722 C 2348.39 0.311354 5.0434 0
M  V30 24723 C 2350.59 0.659858 5.10049 0
M  V30 24724 N 2348.57 1.33766 5.99149 0
M  V30 24725 C 2349.94 1.53785 6.00625 0
M  V30 24726 C 2351.99 0.71281 4.92771 0
M  V30 24727 C 2350.7 2.46414 6.75775 0
M  V30 24728 C 2352.72 1.62673 5.68587 0
M  V30 24729 C 2352.08 2.49234 6.58834 0
M  V30 24730 H 2348.18 -0.173968 0.762403 0
M  V30 24731 H 2350.77 0.184022 1.93828 0
M  V30 24732 H 2348.94 -1.86326 3.40789 0
M  V30 24733 H 2350.67 -1.77248 3.6382 0
M  V30 24734 H 2347.43 -0.077398 4.73537 0
M  V30 24735 H 2347.85 1.84917 6.51256 0
M  V30 24736 H 2352.49 0.0577391 4.22761 0
M  V30 24737 H 2350.21 3.12944 7.45045 0
M  V30 24738 H 2353.8 1.6729 5.5723 0
M  V30 24739 H 2352.68 3.18804 7.16473 0
M  V30 24740 N 2350.18 -1.56643 -0.17346 0
M  V30 24741 C 2351.14 -1.95364 -1.19856 0
M  V30 24742 C 2352.14 -0.837064 -1.37295 0
M  V30 24743 O 2353.33 -1.10415 -1.34737 0
M  V30 24744 C 2350.46 -2.24658 -2.56401 0
M  V30 24745 H 2351.66 -2.87094 -0.867012 0
M  V30 24746 H 2349.21 -1.50667 -0.415827 0
M  V30 24747 H 2349.95 -1.35636 -2.94573 0
M  V30 24748 H 2349.73 -3.06045 -2.4511 0
M  V30 24749 H 2351.22 -2.55546 -3.30282 0
M  V30 24750 N 2351.66 0.44194 -1.51277 0
M  V30 24751 C 2352.9 1.19352 -1.6396 0
M  V30 24752 C 2353.24 1.90973 -0.352577 0
M  V30 24753 O 2352.51 1.83402 0.647595 0
M  V30 24754 C 2352.79 2.21417 -2.83983 0
M  V30 24755 C 2352.65 1.5391 -4.22648 0
M  V30 24756 C 2353.97 3.22446 -2.99527 0
M  V30 24757 H 2351.09 0.432549 -0.596716 0
M  V30 24758 H 2353.73 0.483366 -1.83749 0
M  V30 24759 H 2351.88 2.81982 -2.67242 0
M  V30 24760 H 2353.55 0.967177 -4.51047 0
M  V30 24761 H 2351.79 0.84154 -4.25559 0
M  V30 24762 H 2352.46 2.2822 -5.02613 0
M  V30 24763 H 2354.94 2.71931 -3.14949 0
M  V30 24764 H 2353.82 3.91159 -3.85079 0
M  V30 24765 H 2354.08 3.88283 -2.11397 0
M  V30 24766 N 2353.14 1.41345 0.697083 0
M  V30 24767 C 2354.07 1.45845 1.8235 0
M  V30 24768 C 2355.05 0.317276 1.67115 0
M  V30 24769 O 2356.23 0.528507 1.8687 0
M  V30 24770 C 2353.36 1.33843 3.20474 0
M  V30 24771 C 2352.32 2.45756 3.50411 0
M  V30 24772 C 2351.64 2.18821 4.87874 0
M  V30 24773 C 2352.94 3.88097 3.4954 0
M  V30 24774 H 2354.64 2.40116 1.78842 0
M  V30 24775 H 2352.18 1.15573 0.859007 0
M  V30 24776 H 2354.13 1.35603 3.98986 0
M  V30 24777 H 2352.86 0.360555 3.24604 0
M  V30 24778 H 2351.52 2.43276 2.74249 0
M  V30 24779 H 2351.17 1.1938 4.88628 0
M  V30 24780 H 2350.87 2.93812 5.0887 0
M  V30 24781 H 2352.39 2.22294 5.68698 0
M  V30 24782 H 2353.8 3.923 4.18059 0
M  V30 24783 H 2352.2 4.62758 3.82067 0
M  V30 24784 H 2353.27 4.16357 2.48545 0
M  V30 24785 N 2354.61 -0.931187 1.27148 0
M  V30 24786 C 2356.02 -1.4934 1.12046 0
M  V30 24787 C 2356.38 -1.93958 -0.295761 0
M  V30 24788 O 2355.5 -1.80854 -1.18831 0
M  V30 24789 C 2356.1 -2.7141 2.02786 0
M  V30 24790 C 2354.65 -3.23867 1.918 0
M  V30 24791 C 2353.8 -1.96613 1.95547 0
M  V30 24792 H 2356.75 -0.745648 1.40092 0
M  V30 24793 H 2356.77 -3.46071 1.58162 0
M  V30 24794 H 2356.29 -2.38905 3.05853 0
M  V30 24795 H 2354.39 -3.61138 0.917055 0
M  V30 24796 H 2354.5 -3.90297 2.77858 0
M  V30 24797 H 2352.86 -2.12952 1.39726 0
M  V30 24798 H 2353.65 -1.66427 3.00262 0
M  V30 24799 N 2356.09 -1.09114 -1.13719 0
M  V30 24800 C 2357.51 -0.820198 -1.36912 0
M  V30 24801 C 2357.71 0.567045 -1.93357 0
M  V30 24802 O 2356.76 1.32251 -2.15095 0
M  V30 24803 C 2358.08 -1.90881 -2.32347 0
M  V30 24804 C 2359.62 -1.93566 -2.4597 0
M  V30 24805 C 2360.1 -3.01562 -3.44709 0
M  V30 24806 N 2361.59 -3.00781 -3.52257 0
M  V30 24807 C 2362.33 -3.80986 -4.28529 0
M  V30 24808 N 2361.82 -4.7109 -5.07982 0
M  V30 24809 N 2363.61 -3.69258 -4.23798 0
M  V30 24810 H 2355.77 -1.98554 -0.754313 0
M  V30 24811 H 2358.03 -0.86207 -0.394385 0
M  V30 24812 H 2357.73 -2.90655 -1.98022 0
M  V30 24813 H 2357.61 -1.7843 -3.32329 0
M  V30 24814 H 2360 -0.944335 -2.79582 0
M  V30 24815 H 2360.08 -2.10096 -1.45923 0
M  V30 24816 H 2359.72 -4.00906 -3.11828 0
M  V30 24817 H 2359.65 -2.82277 -4.44553 0
M  V30 24818 H 2362.14 -2.3548 -2.95563 0
M  V30 24819 H 2362.45 -5.28879 -5.63478 0
M  V30 24820 H 2360.8 -4.75128 -5.07226 0
M  V30 24821 H 2363.99 -2.98228 -3.60801 0
M  V30 24822 H 2364.16 -4.32003 -4.82988 0
M  V30 24823 N 2357.57 1.30887 -0.877861 0
M  V30 24824 C 2358.52 2.2587 -0.310912 0
M  V30 24825 C 2359.5 1.50967 0.55657 0
M  V30 24826 O 2360.7 1.72371 0.402157 0
M  V30 24827 C 2357.82 3.39931 0.479762 0
M  V30 24828 C 2356.91 4.22196 -0.401407 0
M  V30 24829 N 2357.3 4.83091 -1.49856 0
M  V30 24830 C 2355.6 4.45572 -0.195246 0
M  V30 24831 C 2356.3 5.44659 -2.0426 0
M  V30 24832 N 2355.28 5.26863 -1.33852 0
M  V30 24833 H 2359.08 2.70494 -1.14935 0
M  V30 24834 H 2356.59 1.45245 -0.726483 0
M  V30 24835 H 2358.59 4.07014 0.902511 0
M  V30 24836 H 2357.25 2.96848 1.31572 0
M  V30 24837 H 2358.26 4.82516 -1.88145 0
M  V30 24838 H 2354.94 4.13106 0.604119 0
M  V30 24839 H 2356.33 6.03012 -2.96355 0
M  V30 24840 N 2359.05 0.638091 1.44105 0
M  V30 24841 C 2360.01 -0.053061 2.29139 0
M  V30 24842 C 2361.01 -0.765481 1.41411 0
M  V30 24843 O 2362.2 -0.609017 1.63207 0
M  V30 24844 C 2359.33 -1.08579 3.23146 0
M  V30 24845 H 2360.53 0.694934 2.91737 0
M  V30 24846 H 2358.08 0.398565 1.51133 0
M  V30 24847 H 2358.81 -1.86353 2.65411 0
M  V30 24848 H 2358.6 -0.578784 3.87805 0
M  V30 24849 H 2360.09 -1.56893 3.87007 0
M  V30 24850 N 2360.53 -1.52973 0.379063 0
M  V30 24851 C 2361.47 -2.26149 -0.461008 0
M  V30 24852 C 2362.44 -1.2735 -1.06635 0
M  V30 24853 O 2363.63 -1.56159 -1.09631 0
M  V30 24854 C 2360.77 -3.06405 -1.58777 0
M  V30 24855 C 2359.88 -4.20117 -1.00629 0
M  V30 24856 C 2359.02 -4.87787 -2.10326 0
M  V30 24857 C 2358.05 -5.93509 -1.49713 0
M  V30 24858 N 2357.19 -6.54816 -2.53299 0
M  V30 24859 H 2362.03 -2.97518 0.169482 0
M  V30 24860 H 2359.57 -1.4679 0.0954064 0
M  V30 24861 H 2361.53 -3.51219 -2.25168 0
M  V30 24862 H 2360.16 -2.37265 -2.18872 0
M  V30 24863 H 2359.21 -3.7969 -0.232266 0
M  V30 24864 H 2360.52 -4.96048 -0.523256 0
M  V30 24865 H 2359.67 -5.35854 -2.84509 0
M  V30 24866 H 2358.41 -4.11358 -2.61985 0
M  V30 24867 H 2357.42 -5.4479 -0.740502 0
M  V30 24868 H 2358.64 -6.71865 -0.988614 0
M  V30 24869 H 2356.59 -5.81232 -3.04146 0
M  V30 24870 H 2356.51 -7.26328 -2.09721 0
M  V30 24871 H 2357.77 -7.07529 -3.27143 0
M  V30 24872 N 2362 -0.108595 -1.57225 0
M  V30 24873 C 2363.41 0.418432 -1.81951 0
M  V30 24874 C 2363.77 1.6729 -1.0251 0
M  V30 24875 O 2362.89 2.1485 -0.258534 0
M  V30 24876 C 2363.49 0.765921 -3.30029 0
M  V30 24877 C 2362.04 1.23763 -3.55471 0
M  V30 24878 C 2361.19 0.241057 -2.7625 0
M  V30 24879 H 2364.14 -0.333868 -1.55148 0
M  V30 24880 H 2364.16 1.62428 -3.44089 0
M  V30 24881 H 2363.68 -0.147288 -3.8782 0
M  V30 24882 H 2361.78 2.16809 -3.03026 0
M  V30 24883 H 2361.89 1.19014 -4.64082 0
M  V30 24884 H 2360.25 0.725977 -2.44135 0
M  V30 24885 H 2361.04 -0.665066 -3.36796 0
M  V30 24886 N 2363.48 1.56732 0.16515 0
M  V30 24887 C 2364.73 1.81982 0.879036 0
M  V30 24888 C 2365.05 0.686593 1.82513 0
M  V30 24889 O 2364.32 -0.293112 1.93695 0
M  V30 24890 H 2362.9 0.671334 0.327596 0
M  V30 24891 H 2365.56 1.94213 0.163492 0
M  V30 24892 H 2364.66 2.76255 1.45223 0
M  V30 24893 N 2364.96 -0.433911 1.51509 0
M  V30 24894 C 2366.37 -1.01366 1.56786 0
M  V30 24895 C 2366.72 -1.92216 0.393383 0
M  V30 24896 O 2365.85 -2.10793 -0.489404 0
M  V30 24897 C 2366.44 -1.84515 2.84147 0
M  V30 24898 C 2365 -2.37533 2.91984 0
M  V30 24899 C 2364.15 -1.16839 2.51484 0
M  V30 24900 H 2367.1 -0.215053 1.57236 0
M  V30 24901 H 2367.12 -2.70002 2.68103 0
M  V30 24902 H 2366.63 -1.18366 3.69609 0
M  V30 24903 H 2364.73 -3.07126 2.1096 0
M  V30 24904 H 2364.85 -2.70096 3.95708 0
M  V30 24905 H 2363.21 -1.51477 2.0476 0
M  V30 24906 H 2363.99 -0.522955 3.39293 0
M  V30 24907 N 2366.44 -1.41713 -0.689577 0
M  V30 24908 C 2367.67 -1.4476 -1.47825 0
M  V30 24909 C 2368.08 -0.0546035 -1.88721 0
M  V30 24910 O 2367.44 0.927435 -1.57178 0
M  V30 24911 C 2367.49 -2.36165 -2.73694 0
M  V30 24912 O 2367.21 -3.70045 -2.34518 0
M  V30 24913 C 2368.71 -2.48079 -3.67385 0
M  V30 24914 H 2365.93 -0.492848 -0.455349 0
M  V30 24915 H 2368.48 -1.86065 -0.848541 0
M  V30 24916 H 2366.63 -1.98154 -3.32887 0
M  V30 24917 H 2367.04 -4.18853 -3.15694 0
M  V30 24918 H 2368.52 -3.16189 -4.52469 0
M  V30 24919 H 2369 -1.51395 -4.12282 0
M  V30 24920 H 2369.6 -2.86751 -3.14092 0
M  V30 24921 N 2367.92 0.924431 -1.2764 0
M  V30 24922 C 2369.17 1.667 -1.13552 0
M  V30 24923 C 2369.48 1.93007 0.317453 0
M  V30 24924 O 2370.68 2.65248 0.579287 0
M  V30 24925 C 2369.14 3.00255 -1.98431 0
M  V30 24926 C 2368.75 2.81635 -3.48405 0
M  V30 24927 C 2370.49 3.78089 -1.93 0
M  V30 24928 C 2368.4 4.10766 -4.25471 0
M  V30 24929 H 2367.33 0.625276 -0.421362 0
M  V30 24930 H 2369.98 1.02673 -1.52087 0
M  V30 24931 H 2368.36 3.65357 -1.52743 0
M  V30 24932 H 2369.54 2.2528 -4.01977 0
M  V30 24933 H 2367.85 2.17226 -3.55249 0
M  V30 24934 H 2370.45 4.73786 -2.47853 0
M  V30 24935 H 2370.79 4.06358 -0.904352 0
M  V30 24936 H 2371.32 3.19789 -2.366 0
M  V30 24937 H 2368.06 3.87674 -5.28573 0
M  V30 24938 H 2367.58 4.66772 -3.76675 0
M  V30 24939 H 2369.26 4.79104 -4.3482 0
M  V30 24940 N 2369.39 1.09715 1.13139 0
M  V30 24941 C 2370.32 0.761141 2.20746 0
M  V30 24942 C 2371.31 -0.262537 1.68062 0
M  V30 24943 O 2372.49 -0.129943 1.93765 0
M  V30 24944 C 2369.62 0.184115 3.46812 0
M  V30 24945 C 2368.57 1.13764 4.12604 0
M  V30 24946 C 2367.9 0.422176 5.33031 0
M  V30 24947 C 2369.2 2.48127 4.59598 0
M  V30 24948 H 2370.89 1.66086 2.4911 0
M  V30 24949 H 2368.44 0.800008 1.19732 0
M  V30 24950 H 2370.39 -0.0630474 4.21353 0
M  V30 24951 H 2369.12 -0.750812 3.17853 0
M  V30 24952 H 2367.78 1.37013 3.40034 0
M  V30 24953 H 2367.42 -0.516984 5.00336 0
M  V30 24954 H 2367.12 1.05798 5.77997 0
M  V30 24955 H 2368.65 0.183385 6.10325 0
M  V30 24956 H 2370.06 2.29068 5.25548 0
M  V30 24957 H 2368.46 3.07523 5.15315 0
M  V30 24958 H 2369.53 3.08671 3.73965 0
M  V30 24959 N 2370.87 -1.30419 0.88479 0
M  V30 24960 C 2371.81 -2.26272 0.296039 0
M  V30 24961 C 2372.78 -1.51778 -0.583293 0
M  V30 24962 O 2373.97 -1.80795 -0.533428 0
M  V30 24963 C 2371.09 -3.33708 -0.579381 0
M  V30 24964 C 2370.14 -4.25876 0.2306 0
M  V30 24965 S 2370.97 -5.10447 1.61876 0
M  V30 24966 C 2372.13 -6.21392 0.749865 0
M  V30 24967 H 2372.36 -2.7586 1.10853 0
M  V30 24968 H 2369.9 -1.38413 0.684203 0
M  V30 24969 H 2371.85 -3.96073 -1.07873 0
M  V30 24970 H 2370.51 -2.82843 -1.36596 0
M  V30 24971 H 2369.71 -5.02098 -0.437453 0
M  V30 24972 H 2369.31 -3.68084 0.662557 0
M  V30 24973 H 2371.6 -6.77492 -0.0332357 0
M  V30 24974 H 2372.54 -6.92382 1.48368 0
M  V30 24975 H 2372.95 -5.63643 0.31085 0
M  V30 24976 N 2372.35 -0.645724 -1.43764 0
M  V30 24977 C 2373.3 0.062444 -2.32516 0
M  V30 24978 C 2374.29 0.820829 -1.48185 0
M  V30 24979 O 2375.5 0.732077 -1.6444 0
M  V30 24980 H 2371.87 0.0389732 -0.750989 0
M  V30 24981 H 2373.84 -0.703943 -2.89978 0
M  V30 24982 C 2372.59 1.02038 -3.32391 0
M  V30 24983 H 2371.92 0.446242 -3.97302 0
M  V30 24984 H 2373.36 1.4851 -3.97141 0
M  V30 24985 C 2371.82 2.11276 -2.62419 0
M  V30 24986 O 2372.35 3.19556 -2.43406 0
M  V30 24987 N 2370.55 1.8762 -2.21917 0
M  V30 24988 H 2370.1 0.995661 -2.3758 0
M  V30 24989 H 2370.06 2.60907 -1.75428 0
M  V30 24990 N 2373.83 1.5277 -0.38717 0
M  V30 24991 C 2375.11 1.93955 0.253163 0
M  V30 24992 C 2375.49 1.32246 1.64543 0
M  V30 24993 O 2374.83 0.489738 2.2319 0
M  V30 24994 C 2375.04 3.47862 0.281661 0
M  V30 24995 C 2376.39 4.21506 0.511641 0
M  V30 24996 O 2377.42 3.54356 0.361961 0
M  V30 24997 O 2376.27 5.40542 0.804752 0
M  V30 24998 H 2373.37 0.811993 0.15683 0
M  V30 24999 H 2375.91 1.63856 -0.441523 0
M  V30 25000 H 2374.69 3.85103 -0.693639 0
M  V30 25001 H 2374.31 3.84258 1.02136 0
M  V30 25002 N 2375.31 0.116931 1.57166 0
M  V30 25003 C 2376.24 -0.864469 2.12272 0
M  V30 25004 C 2377.25 -1.23136 1.06496 0
M  V30 25005 O 2378.44 -1.18067 1.33875 0
M  V30 25006 C 2375.54 -2.16698 2.60567 0
M  V30 25007 C 2374.71 -1.97209 3.90419 0
M  V30 25008 C 2373.77 -3.1117 4.24334 0
M  V30 25009 O 2372.8 -2.84175 4.93187 0
M  V30 25010 N 2374 -4.37547 3.81488 0
M  V30 25011 H 2376.77 -0.393674 2.97103 0
M  V30 25012 H 2374.33 -0.0675521 1.61759 0
M  V30 25013 H 2376.32 -2.91927 2.80287 0
M  V30 25014 H 2374.89 -2.55132 1.80628 0
M  V30 25015 H 2374.11 -1.06185 3.79629 0
M  V30 25016 H 2375.4 -1.81491 4.7533 0
M  V30 25017 H 2374.79 -4.62355 3.25951 0
M  V30 25018 H 2373.35 -5.09654 4.0632 0
M  V30 25019 N 2376.78 -1.56818 -0.156836 0
M  V30 25020 C 2377.69 -2.00773 -1.21356 0
M  V30 25021 C 2378.71 -0.921485 -1.47596 0
M  V30 25022 O 2379.89 -1.23022 -1.5946 0
M  V30 25023 C 2376.95 -2.37113 -2.52939 0
M  V30 25024 C 2376.01 -3.59638 -2.34433 0
M  V30 25025 C 2375.25 -3.94236 -3.59741 0
M  V30 25026 O 2375.47 -3.29617 -4.6552 0
M  V30 25027 O 2374.4 -4.87526 -3.5299 0
M  V30 25028 H 2378.23 -2.9096 -0.870417 0
M  V30 25029 H 2375.81 -1.44877 -0.364814 0
M  V30 25030 H 2377.7 -2.61391 -3.30534 0
M  V30 25031 H 2376.37 -1.50085 -2.86803 0
M  V30 25032 H 2375.28 -3.4056 -1.54822 0
M  V30 25033 H 2376.61 -4.47253 -2.05488 0
M  V30 25034 N 2378.26 0.425871 -1.51737 0
M  V30 25035 C 2379.51 1.17607 -1.65217 0
M  V30 25036 C 2379.84 1.90588 -0.372812 0
M  V30 25037 O 2379.12 1.84079 0.628106 0
M  V30 25038 C 2379.4 2.18393 -2.86315 0
M  V30 25039 C 2379.25 1.49419 -4.24257 0
M  V30 25040 C 2380.57 3.19251 -3.0293 0
M  V30 25041 H 2377.69 0.426195 -0.601271 0
M  V30 25042 H 2380.33 0.46385 -1.84251 0
M  V30 25043 H 2378.48 2.79132 -2.70218 0
M  V30 25044 H 2380.15 0.919283 -4.52047 0
M  V30 25045 H 2378.4 0.796357 -4.26428 0
M  V30 25046 H 2379.07 2.22876 -5.05005 0
M  V30 25047 H 2381.54 2.68575 -3.17815 0
M  V30 25048 H 2380.42 3.87053 -3.89206 0
M  V30 25049 H 2380.68 3.86019 -2.15504 0
M  V30 25050 N 2379.74 1.42077 0.682052 0
M  V30 25051 C 2380.99 1.41878 1.43927 0
M  V30 25052 C 2381.31 0.0335942 1.94971 0
M  V30 25053 O 2380.58 -0.926743 1.72593 0
M  V30 25054 H 2379.16 0.522276 0.534076 0
M  V30 25055 H 2381.82 1.77435 0.806396 0
M  V30 25056 H 2380.92 2.11418 2.29584 0
M  V30 25057 N 2381.22 -0.917649 1.28129 0
M  V30 25058 C 2382.47 -1.66886 1.15226 0
M  V30 25059 C 2382.8 -1.9188 -0.299259 0
M  V30 25060 O 2382.07 -1.51639 -1.21803 0
M  V30 25061 C 2382.36 -3.02919 1.94711 0
M  V30 25062 C 2382.21 -2.85102 3.47903 0
M  V30 25063 C 2383.53 -4.03399 1.75946 0
M  V30 25064 H 2380.65 -0.605645 0.419956 0
M  V30 25065 H 2383.29 -1.0642 1.574 0
M  V30 25066 H 2381.44 -3.54531 1.58871 0
M  V30 25067 H 2383.11 -2.4053 3.93628 0
M  V30 25068 H 2381.35 -2.2024 3.73734 0
M  V30 25069 H 2382.03 -3.81687 3.98772 0
M  V30 25070 H 2384.5 -3.60834 2.07216 0
M  V30 25071 H 2383.38 -4.96552 2.3394 0
M  V30 25072 H 2383.64 -4.36362 0.709953 0
M  V30 25073 N 2382.7 -1.10314 -1.12555 0
M  V30 25074 C 2383.63 -0.694712 -2.17368 0
M  V30 25075 C 2384.61 0.303345 -1.59745 0
M  V30 25076 O 2385.79 0.202545 -1.87409 0
M  V30 25077 C 2382.92 -0.0248647 -3.38691 0
M  V30 25078 C 2381.97 -0.986194 -4.14942 0
M  V30 25079 S 2382.8 -2.5029 -4.73408 0
M  V30 25080 C 2383.95 -1.84572 -5.98067 0
M  V30 25081 H 2384.19 -1.58259 -2.51677 0
M  V30 25082 H 2381.72 -0.920014 -1.23996 0
M  V30 25083 H 2383.68 0.355289 -4.0896 0
M  V30 25084 H 2382.34 0.839797 -3.02665 0
M  V30 25085 H 2381.53 -0.464739 -5.01853 0
M  V30 25086 H 2381.13 -1.30819 -3.50374 0
M  V30 25087 H 2383.43 -1.17519 -6.6723 0
M  V30 25088 H 2384.37 -2.69435 -6.54836 0
M  V30 25089 H 2384.78 -1.31078 -5.49071 0
M  V30 25090 N 2384.18 1.29948 -0.891694 0
M  V30 25091 C 2385.45 1.90739 -0.43334 0
M  V30 25092 C 2385.83 1.80997 1.08643 0
M  V30 25093 O 2385.18 1.23151 1.92474 0
M  V30 25094 C 2385.39 3.36132 -0.938955 0
M  V30 25095 C 2386.74 4.13185 -0.977902 0
M  V30 25096 O 2387.76 3.45003 -0.886076 0
M  V30 25097 O 2386.62 5.35013 -1.11462 0
M  V30 25098 H 2383.72 0.816119 -0.133713 0
M  V30 25099 H 2386.26 1.38469 -0.981035 0
M  V30 25100 H 2385.03 3.3734 -1.98287 0
M  V30 25101 H 2384.66 3.95867 -0.370809 0
M  V30 25102 N 2385.65 0.653339 1.4342 0
M  V30 25103 C 2386.62 -0.0287548 2.29182 0
M  V30 25104 C 2387.62 -0.75044 1.42215 0
M  V30 25105 O 2388.81 -0.591672 1.63844 0
M  V30 25106 C 2385.94 -1.05145 3.2428 0
M  V30 25107 H 2387.13 0.725838 2.90984 0
M  V30 25108 H 2384.68 0.414572 1.50702 0
M  V30 25109 H 2385.42 -1.83527 2.67373 0
M  V30 25110 H 2385.2 -0.537619 3.88397 0
M  V30 25111 H 2386.69 -1.52779 3.88649 0
M  V30 25112 N 2387.13 -1.52563 0.395266 0
M  V30 25113 C 2388.08 -2.26625 -0.436996 0
M  V30 25114 C 2389.05 -1.28474 -1.05278 0
M  V30 25115 O 2390.23 -1.57313 -1.07968 0
M  V30 25116 C 2387.37 -3.08072 -1.55518 0
M  V30 25117 C 2386.49 -4.2116 -0.961671 0
M  V30 25118 C 2385.62 -4.89991 -2.0514 0
M  V30 25119 C 2384.66 -5.95063 -1.4341 0
M  V30 25120 N 2383.8 -6.57466 -2.46339 0
M  V30 25121 H 2388.64 -2.97321 0.201028 0
M  V30 25122 H 2386.17 -1.46681 0.11097 0
M  V30 25123 H 2388.13 -3.53588 -2.2143 0
M  V30 25124 H 2386.76 -2.39573 -2.16343 0
M  V30 25125 H 2385.81 -3.79915 -0.191981 0
M  V30 25126 H 2387.13 -4.96575 -0.470614 0
M  V30 25127 H 2386.28 -5.38841 -2.7881 0
M  V30 25128 H 2385.02 -4.14113 -2.57607 0
M  V30 25129 H 2384.02 -5.45545 -0.682678 0
M  V30 25130 H 2385.25 -6.72876 -0.917298 0
M  V30 25131 H 2383.2 -5.84426 -2.97964 0
M  V30 25132 H 2383.11 -7.28512 -2.02006 0
M  V30 25133 H 2384.38 -7.10959 -3.1962 0
M  V30 25134 N 2388.61 -0.125265 -1.57101 0
M  V30 25135 C 2389.52 0.836161 -2.19193 0
M  V30 25136 C 2390.54 1.28802 -1.16987 0
M  V30 25137 O 2391.71 1.34972 -1.49481 0
M  V30 25138 C 2388.78 2.06612 -2.78411 0
M  V30 25139 C 2387.84 1.66558 -3.95673 0
M  V30 25140 C 2387.07 2.8369 -4.52057 0
M  V30 25141 O 2387.29 3.99295 -4.07333 0
M  V30 25142 O 2386.23 2.60414 -5.42649 0
M  V30 25143 H 2390.05 0.337723 -3.01816 0
M  V30 25144 H 2387.64 0.100669 -1.4906 0
M  V30 25145 H 2389.52 2.78635 -3.16134 0
M  V30 25146 H 2388.2 2.5545 -1.98814 0
M  V30 25147 H 2387.1 0.916232 -3.62706 0
M  V30 25148 H 2388.44 1.22456 -4.76724 0
M  V30 25149 N 2390.09 1.56899 0.148518 0
M  V30 25150 C 2391.02 2.01184 1.18521 0
M  V30 25151 C 2392 0.891148 1.44888 0
M  V30 25152 O 2393.18 1.15885 1.55834 0
M  V30 25153 C 2390.31 2.39116 2.51874 0
M  V30 25154 C 2389.27 3.54357 2.40031 0
M  V30 25155 C 2388.59 3.78098 3.78082 0
M  V30 25156 C 2389.89 4.87072 1.88568 0
M  V30 25157 H 2391.59 2.88038 0.816979 0
M  V30 25158 H 2389.13 1.38574 0.39155 0
M  V30 25159 H 2391.09 2.68698 3.24622 0
M  V30 25160 H 2389.81 1.49198 2.9053 0
M  V30 25161 H 2388.47 3.24939 1.69736 0
M  V30 25162 H 2388.12 2.85433 4.1417 0
M  V30 25163 H 2387.82 4.55651 3.7102 0
M  V30 25164 H 2389.34 4.10103 4.5238 0
M  V30 25165 H 2390.76 5.15381 2.51108 0
M  V30 25166 H 2389.15 5.68421 1.924 0
M  V30 25167 H 2390.22 4.77546 0.841276 0
M  V30 25168 N 2391.57 -0.417818 1.51961 0
M  V30 25169 C 2392.81 -1.16729 1.65838 0
M  V30 25170 C 2393.14 -1.90388 0.382914 0
M  V30 25171 O 2392.42 -1.8441 -0.618335 0
M  V30 25172 C 2392.7 -2.16871 2.8747 0
M  V30 25173 C 2392.56 -1.47167 4.25043 0
M  V30 25174 C 2393.87 -3.1764 3.04619 0
M  V30 25175 H 2390.99 -0.423001 0.603522 0
M  V30 25176 H 2393.64 -0.454072 1.84494 0
M  V30 25177 H 2391.79 -2.77695 2.71694 0
M  V30 25178 H 2393.46 -0.895297 4.52529 0
M  V30 25179 H 2391.7 -0.773731 4.26844 0
M  V30 25180 H 2392.37 -2.20195 5.0618 0
M  V30 25181 H 2394.85 -2.66886 3.19235 0
M  V30 25182 H 2393.72 -3.84983 3.91253 0
M  V30 25183 H 2393.98 -3.84871 2.17548 0
M  V30 25184 N 2393.04 -1.42436 -0.674508 0
M  V30 25185 C 2394.32 -1.33405 -1.43047 0
M  V30 25186 C 2394.7 0.0284303 -2.11081 0
M  V30 25187 O 2394.05 1.04394 -2.03259 0
M  V30 25188 C 2394.26 -2.50243 -2.43268 0
M  V30 25189 C 2395.61 -2.92372 -3.07902 0
M  V30 25190 O 2396.63 -2.50136 -2.53595 0
M  V30 25191 O 2395.49 -3.65474 -4.06314 0
M  V30 25192 H 2392.58 -0.526118 -0.638067 0
M  V30 25193 H 2395.13 -1.54444 -0.703207 0
M  V30 25194 H 2393.9 -3.41071 -1.91797 0
M  V30 25195 H 2393.52 -2.31192 -3.23475 0
M  V30 25196 N 2394.52 0.910841 -1.28614 0
M  V30 25197 C 2395.47 2.01363 -1.1279 0
M  V30 25198 C 2396.44 1.66082 -0.0242302 0
M  V30 25199 O 2397.62 1.89855 -0.1897 0
M  V30 25200 C 2394.76 3.35728 -0.798802 0
M  V30 25201 C 2393.88 3.8386 -1.9818 0
M  V30 25202 C 2393.01 5.06749 -1.59307 0
M  V30 25203 C 2392.05 5.47221 -2.74254 0
M  V30 25204 N 2391.19 6.613 -2.35854 0
M  V30 25205 H 2396.03 2.1423 -2.07146 0
M  V30 25206 H 2393.56 1.04928 -1.03095 0
M  V30 25207 H 2395.52 4.13025 -0.588734 0
M  V30 25208 H 2394.15 3.2262 0.107833 0
M  V30 25209 H 2393.2 3.02695 -2.30391 0
M  V30 25210 H 2394.52 4.09813 -2.8435 0
M  V30 25211 H 2393.67 5.91598 -1.34524 0
M  V30 25212 H 2392.41 4.82611 -0.702702 0
M  V30 25213 H 2391.41 4.60912 -2.99733 0
M  V30 25214 H 2392.64 5.73346 -3.63938 0
M  V30 25215 H 2390.59 6.38787 -1.4929 0
M  V30 25216 H 2390.5 6.86993 -3.15558 0
M  V30 25217 H 2391.77 7.49446 -2.14361 0
M  V30 25218 N 2396 1.10909 1.11969 0
M  V30 25219 C 2397.28 0.766464 1.79957 0
M  V30 25220 C 2397.66 -0.746328 1.97467 0
M  V30 25221 O 2397.01 -1.67434 1.55494 0
M  V30 25222 C 2397.22 1.5232 3.14006 0
M  V30 25223 C 2398.56 1.6989 3.89131 0
M  V30 25224 O 2399.59 1.48698 3.23678 0
M  V30 25225 O 2398.45 2.05063 5.06568 0
M  V30 25226 H 2395.54 0.277076 0.779203 0
M  V30 25227 H 2398.09 1.21219 1.1876 0
M  V30 25228 H 2396.86 2.55254 2.96583 0
M  V30 25229 H 2396.48 1.07065 3.82914 0
M  V30 25230 N 2397.48 -1.29474 0.898573 0
M  V30 25231 C 2398.73 -1.95219 0.522881 0
M  V30 25232 C 2399.05 -1.71194 -0.93368 0
M  V30 25233 O 2398.32 -1.04308 -1.65821 0
M  V30 25234 H 2396.9 -0.722333 0.190379 0
M  V30 25235 H 2399.56 -1.57748 1.14462 0
M  V30 25236 H 2398.66 -3.04044 0.704529 0
M  V30 25237 N 2398.96 -0.660936 -1.43071 0
M  V30 25238 C 2400.18 -0.185458 -2.06067 0
M  V30 25239 C 2400.6 1.15195 -1.49584 0
M  V30 25240 O 2399.96 1.71275 -0.630164 0
M  V30 25241 C 2400.01 -0.0967158 -3.61371 0
M  V30 25242 O 2399.73 -1.38126 -4.15756 0
M  V30 25243 C 2401.23 0.403918 -4.41456 0
M  V30 25244 H 2398.45 -0.0934721 -0.664458 0
M  V30 25245 H 2400.99 -0.903762 -1.83446 0
M  V30 25246 H 2399.15 0.572191 -3.83151 0
M  V30 25247 H 2399.56 -1.24551 -5.09497 0
M  V30 25248 H 2401.04 0.414948 -5.50438 0
M  V30 25249 H 2401.51 1.43666 -4.15038 0
M  V30 25250 H 2402.12 -0.232766 -4.24663 0
M  V30 25251 N 2400.43 1.52351 -0.403352 0
M  V30 25252 C 2401.38 2.28406 0.439712 0
M  V30 25253 C 2402.38 1.32865 1.05087 0
M  V30 25254 O 2403.58 1.50347 0.989733 0
M  V30 25255 H 2399.96 0.734656 0.160574 0
M  V30 25256 H 2401.93 2.97565 -0.223035 0
M  V30 25257 C 2400.68 3.11374 1.5473 0
M  V30 25258 H 2400 3.84757 1.08636 0
M  V30 25259 H 2401.44 3.67705 2.11114 0
M  V30 25260 C 2399.9 2.2457 2.51137 0
M  V30 25261 O 2400.43 1.88203 3.54884 0
M  V30 25262 N 2398.64 1.88454 2.21209 0
M  V30 25263 H 2398.18 2.18227 1.36874 0
M  V30 25264 H 2398.14 1.30667 2.85961 0
M  V30 25265 N 2401.91 0.133594 1.57033 0
M  V30 25266 C 2402.84 -0.807528 2.19092 0
M  V30 25267 C 2403.82 -1.26679 1.13519 0
M  V30 25268 O 2405.01 -1.32677 1.41812 0
M  V30 25269 C 2402.14 -2.05207 2.80191 0
M  V30 25270 C 2401.09 -1.73008 3.91475 0
M  V30 25271 C 2400.42 -3.04614 4.39448 0
M  V30 25272 C 2401.72 -0.987077 5.12888 0
M  V30 25273 H 2403.41 -0.290351 2.97989 0
M  V30 25274 H 2400.96 -0.138214 1.43335 0
M  V30 25275 H 2402.91 -2.71515 3.22269 0
M  V30 25276 H 2401.64 -2.59275 1.98606 0
M  V30 25277 H 2400.29 -1.09083 3.49995 0
M  V30 25278 H 2399.94 -3.56645 3.54702 0
M  V30 25279 H 2399.64 -2.83838 5.145 0
M  V30 25280 H 2401.17 -3.72016 4.84187 0
M  V30 25281 H 2402.58 -1.55198 5.51894 0
M  V30 25282 H 2400.98 -0.879746 5.93616 0
M  V30 25283 H 2402.05 0.0236139 4.84894 0
M  V30 25284 N 2403.39 -1.56975 -0.140195 0
M  V30 25285 C 2404.3 -2.02049 -1.1922 0
M  V30 25286 C 2405.32 -0.937088 -1.46611 0
M  V30 25287 O 2406.49 -1.24707 -1.58146 0
M  V30 25288 C 2403.56 -2.39783 -2.5041 0
M  V30 25289 C 2402.62 -3.62104 -2.30605 0
M  V30 25290 C 2401.85 -3.98029 -3.5554 0
M  V30 25291 O 2402.07 -3.34536 -4.61998 0
M  V30 25292 O 2401.01 -4.91243 -3.47799 0
M  V30 25293 H 2404.83 -2.91866 -0.839508 0
M  V30 25294 H 2402.42 -1.45256 -0.349427 0
M  V30 25295 H 2404.3 -2.64882 -3.27743 0
M  V30 25296 H 2402.98 -1.53119 -2.85195 0
M  V30 25297 H 2401.88 -3.42183 -1.51201 0
M  V30 25298 H 2403.22 -4.49408 -2.00733 0
M  V30 25299 N 2404.87 0.409753 -1.5218 0
M  V30 25300 C 2405.8 1.50606 -1.78438 0
M  V30 25301 C 2406.78 1.5779 -0.635323 0
M  V30 25302 O 2407.96 1.73074 -0.880853 0
M  V30 25303 C 2405.09 2.88435 -1.93449 0
M  V30 25304 C 2404.05 2.96102 -3.09043 0
M  V30 25305 C 2403.37 4.36179 -3.09276 0
M  V30 25306 C 2404.67 2.67645 -4.48513 0
M  V30 25307 H 2406.37 1.28884 -2.70239 0
M  V30 25308 H 2403.91 0.618582 -1.30037 0
M  V30 25309 H 2405.87 3.65116 -2.10401 0
M  V30 25310 H 2404.59 3.1145 -0.983184 0
M  V30 25311 H 2403.25 2.21866 -2.9184 0
M  V30 25312 H 2402.9 4.56202 -2.11869 0
M  V30 25313 H 2402.6 4.42234 -3.86915 0
M  V30 25314 H 2404.12 5.14795 -3.28357 0
M  V30 25315 H 2405.54 3.34048 -4.65924 0
M  V30 25316 H 2403.93 2.85076 -5.28064 0
M  V30 25317 H 2405 1.63087 -4.56652 0
M  V30 25318 N 2406.35 1.42792 0.666944 0
M  V30 25319 C 2407.57 1.47094 1.45503 0
M  V30 25320 C 2407.99 0.0846204 1.8861 0
M  V30 25321 O 2407.35 -0.902312 1.58633 0
M  V30 25322 C 2407.4 2.4049 2.69902 0
M  V30 25323 O 2407.12 3.73729 2.28601 0
M  V30 25324 C 2408.62 2.53892 3.63392 0
M  V30 25325 H 2405.84 0.500029 0.44745 0
M  V30 25326 H 2408.38 1.87391 0.818833 0
M  V30 25327 H 2406.54 2.03425 3.29693 0
M  V30 25328 H 2406.95 4.23822 3.0899 0
M  V30 25329 H 2408.43 3.23347 4.47382 0
M  V30 25330 H 2408.9 1.57935 4.09821 0
M  V30 25331 H 2409.51 2.91712 3.0949 0
M  V30 25332 N 2407.82 -0.904008 1.29095 0
M  V30 25333 C 2408.75 -2.02416 1.16405 0
M  V30 25334 C 2409.74 -1.69996 0.0593384 0
M  V30 25335 O 2410.92 -1.92735 0.238055 0
M  V30 25336 C 2408.05 -3.37106 0.835292 0
M  V30 25337 C 2407 -3.83721 1.89585 0
M  V30 25338 C 2406.33 -5.15486 1.4205 0
M  V30 25339 C 2407.63 -4.04515 3.30401 0
M  V30 25340 H 2409.32 -2.13291 2.10113 0
M  V30 25341 H 2406.87 -1.02484 1.01159 0
M  V30 25342 H 2408.82 -4.14972 0.733241 0
M  V30 25343 H 2407.55 -3.2631 -0.137486 0
M  V30 25344 H 2406.21 -3.08068 1.98721 0
M  V30 25345 H 2405.85 -5.01102 0.436514 0
M  V30 25346 H 2405.55 -5.47646 2.12974 0
M  V30 25347 H 2407.08 -5.95897 1.33186 0
M  V30 25348 H 2408.49 -4.72876 3.24131 0
M  V30 25349 H 2406.89 -4.48022 3.99245 0
M  V30 25350 H 2407.96 -3.08995 3.73698 0
M  V30 25351 N 2409.3 -1.11501 -1.11379 0
M  V30 25352 C 2410.23 -0.796163 -2.19507 0
M  V30 25353 C 2411.21 0.235766 -1.68458 0
M  V30 25354 O 2412.4 0.0991003 -1.93947 0
M  V30 25355 C 2409.53 -0.239266 -3.46475 0
M  V30 25356 C 2408.48 -1.20314 -4.10741 0
M  V30 25357 C 2407.81 -0.506924 -5.32292 0
M  V30 25358 C 2409.11 -2.55407 -4.55593 0
M  V30 25359 H 2410.8 -1.70028 -2.46436 0
M  V30 25360 H 2408.35 -0.818956 -1.18445 0
M  V30 25361 H 2410.3 -0.00399414 -4.214 0
M  V30 25362 H 2409.03 0.70015 -3.19007 0
M  V30 25363 H 2407.68 -1.42405 -3.37811 0
M  V30 25364 H 2407.33 0.43732 -5.01095 0
M  V30 25365 H 2407.03 -1.1498 -5.76241 0
M  V30 25366 H 2408.56 -0.280459 -6.09956 0
M  V30 25367 H 2409.97 -2.374 -5.21837 0
M  V30 25368 H 2408.37 -3.15682 -5.10358 0
M  V30 25369 H 2409.44 -3.14581 -3.69007 0
M  V30 25370 N 2410.78 1.28995 -0.905426 0
M  V30 25371 C 2411.73 2.2755 -0.385932 0
M  V30 25372 C 2412.7 1.57245 0.535085 0
M  V30 25373 O 2413.88 1.85195 0.459087 0
M  V30 25374 C 2411.02 3.43052 0.3754 0
M  V30 25375 C 2410.14 4.28127 -0.577167 0
M  V30 25376 C 2409.27 5.30817 0.201785 0
M  V30 25377 C 2408.31 6.0755 -0.744936 0
M  V30 25378 N 2407.45 7.021 -2.91531e-05 0
M  V30 25379 H 2412.29 2.71366 -1.23144 0
M  V30 25380 H 2409.82 1.33462 -0.618566 0
M  V30 25381 H 2411.78 4.08801 0.83292 0
M  V30 25382 H 2410.41 3.0025 1.18532 0
M  V30 25383 H 2409.46 3.62499 -1.15321 0
M  V30 25384 H 2410.78 4.81518 -1.30161 0
M  V30 25385 H 2409.93 6.0241 0.720245 0
M  V30 25386 H 2408.67 4.78172 0.959329 0
M  V30 25387 H 2407.67 5.34816 -1.27485 0
M  V30 25388 H 2408.9 6.62284 -1.5019 0
M  V30 25389 H 2406.85 6.51817 0.739676 0
M  V30 25390 H 2406.76 7.53074 -0.664453 0
M  V30 25391 H 2408.03 7.77904 0.498507 0
M  V30 25392 N 2412.26 0.668514 1.42719 0
M  V30 25393 C 2413.19 0.000141219 2.335 0
M  V30 25394 C 2414.17 -0.795938 1.50329 0
M  V30 25395 O 2415.36 -0.754353 1.7895 0
M  V30 25396 C 2412.49 -0.956243 3.33876 0
M  V30 25397 C 2411.44 -0.269203 4.27153 0
M  V30 25398 C 2410.77 -1.33809 5.17686 0
M  V30 25399 C 2412.07 0.847896 5.15372 0
M  V30 25400 H 2413.76 0.758295 2.89638 0
M  V30 25401 H 2411.31 0.366104 1.39268 0
M  V30 25402 H 2413.26 -1.43285 3.96292 0
M  V30 25403 H 2411.98 -1.74574 2.76028 0
M  V30 25404 H 2410.64 0.187106 3.66122 0
M  V30 25405 H 2410.29 -2.11942 4.56168 0
M  V30 25406 H 2409.99 -0.883557 5.80919 0
M  V30 25407 H 2411.51 -1.81576 5.82977 0
M  V30 25408 H 2412.93 0.452782 5.71509 0
M  V30 25409 H 2411.32 1.22784 5.87405 0
M  V30 25410 H 2412.39 1.69937 4.54147 0
M  V30 25411 N 2413.74 -1.52135 0.411426 0
M  V30 25412 C 2414.69 -2.28636 -0.427593 0
M  V30 25413 C 2415.68 -1.3342 -1.04381 0
M  V30 25414 O 2416.89 -1.5087 -0.981746 0
M  V30 25415 H 2413.26 -0.735498 -0.156676 0
M  V30 25416 H 2415.23 -2.97443 0.238813 0
M  V30 25417 C 2413.98 -3.1219 -1.53077 0
M  V30 25418 H 2413.3 -3.85328 -1.06594 0
M  V30 25419 H 2414.74 -3.6882 -2.09161 0
M  V30 25420 C 2413.2 -2.25899 -2.49942 0
M  V30 25421 O 2413.73 -1.90082 -3.53881 0
M  V30 25422 N 2411.94 -1.89624 -2.20207 0
M  V30 25423 H 2411.49 -2.1895 -1.35715 0
M  V30 25424 H 2411.44 -1.32181 -2.85264 0
M  V30 25425 N 2415.22 -0.14192 -1.5696 0
M  V30 25426 C 2416.63 0.214532 -1.58152 0
M  V30 25427 C 2416.83 1.65047 -1.15593 0
M  V30 25428 O 2415.89 2.37624 -0.853874 0
M  V30 25429 C 2417.2 -0.0396105 -3.00674 0
M  V30 25430 C 2418.75 0.0244978 -3.1299 0
M  V30 25431 C 2419.22 -0.202247 -4.57553 0
M  V30 25432 N 2420.71 -0.149 -4.6296 0
M  V30 25433 C 2421.45 -0.299025 -5.7262 0
M  V30 25434 N 2420.95 -0.506491 -6.90946 0
M  V30 25435 N 2422.74 -0.236985 -5.616 0
M  V30 25436 H 2414.89 -1.07956 -1.82919 0
M  V30 25437 H 2417.15 -0.426945 -0.846417 0
M  V30 25438 H 2416.86 -1.0332 -3.36181 0
M  V30 25439 H 2416.73 0.682078 -3.70982 0
M  V30 25440 H 2419.12 1.00864 -2.77327 0
M  V30 25441 H 2419.2 -0.729439 -2.45179 0
M  V30 25442 H 2418.84 -1.18346 -4.9392 0
M  V30 25443 H 2418.77 0.571952 -5.23485 0
M  V30 25444 H 2421.27 0.00690373 -3.77899 0
M  V30 25445 H 2421.58 -0.611211 -7.70379 0
M  V30 25446 H 2419.92 -0.54275 -6.92877 0
M  V30 25447 H 2423.11 -0.0757031 -4.68039 0
M  V30 25448 H 2423.29 -0.357341 -6.47014 0
M  V30 25449 N 2416.69 1.57047 0.131868 0
M  V30 25450 C 2417.64 2.00362 1.18143 0
M  V30 25451 C 2418.64 0.898431 1.43613 0
M  V30 25452 O 2419.84 1.08363 1.43727 0
M  V30 25453 H 2416.22 0.638025 0.398031 0
M  V30 25454 H 2418.19 2.87766 0.789513 0
M  V30 25455 C 2416.94 2.41303 2.50336 0
M  V30 25456 H 2416.26 3.25906 2.31572 0
M  V30 25457 H 2417.7 2.7542 3.22366 0
M  V30 25458 C 2416.16 1.27158 3.11981 0
M  V30 25459 O 2416.69 0.580529 3.97483 0
M  V30 25460 N 2414.89 1.03193 2.71661 0
M  V30 25461 H 2414.44 1.59567 2.02228 0
M  V30 25462 H 2414.4 0.270132 3.13237 0
M  V30 25463 N 2418.17 -0.401677 1.52395 0
M  V30 25464 C 2419.08 -1.51441 1.79173 0
M  V30 25465 C 2420.1 -1.60259 0.67772 0
M  V30 25466 O 2421.27 -1.76834 0.96394 0
M  V30 25467 C 2418.34 -2.87103 1.94352 0
M  V30 25468 C 2417.4 -2.8811 3.18262 0
M  V30 25469 C 2416.63 -4.17302 3.32708 0
M  V30 25470 O 2416.86 -5.11593 2.52247 0
M  V30 25471 O 2415.79 -4.25316 4.25899 0
M  V30 25472 H 2419.62 -1.31747 2.73635 0
M  V30 25473 H 2417.2 -0.588272 1.37331 0
M  V30 25474 H 2419.08 -3.67552 2.06116 0
M  V30 25475 H 2417.76 -3.06849 1.03079 0
M  V30 25476 H 2416.66 -2.06489 3.11951 0
M  V30 25477 H 2418 -2.73315 4.09341 0
M  V30 25478 N 2419.65 -1.43144 -0.659362 0
M  V30 25479 C 2420.6 -1.47825 -1.77246 0
M  V30 25480 C 2421.57 -0.328587 -1.62817 0
M  V30 25481 O 2422.75 -0.534871 -1.8315 0
M  V30 25482 C 2419.89 -1.40131 -3.15368 0
M  V30 25483 C 2419 -2.65255 -3.40975 0
M  V30 25484 C 2418.14 -2.49593 -4.6891 0
M  V30 25485 C 2417.18 -3.70015 -4.87602 0
M  V30 25486 N 2416.32 -3.532 -6.0679 0
M  V30 25487 H 2421.16 -2.42941 -1.7258 0
M  V30 25488 H 2418.69 -1.20599 -0.842275 0
M  V30 25489 H 2420.65 -1.33666 -3.95208 0
M  V30 25490 H 2419.28 -0.48602 -3.1912 0
M  V30 25491 H 2418.33 -2.82025 -2.55277 0
M  V30 25492 H 2419.64 -3.54724 -3.50674 0
M  V30 25493 H 2418.8 -2.408 -5.56866 0
M  V30 25494 H 2417.54 -1.57638 -4.61521 0
M  V30 25495 H 2416.54 -3.79222 -3.98083 0
M  V30 25496 H 2417.77 -4.6297 -4.96826 0
M  V30 25497 H 2415.71 -2.63975 -6.00544 0
M  V30 25498 H 2415.63 -4.36266 -6.1742 0
M  V30 25499 H 2416.9 -3.48248 -6.97383 0
M  V30 25500 N 2421.13 0.897149 -1.29572 0
M  V30 25501 C 2422.37 1.64787 -1.17692 0
M  V30 25502 C 2422.7 1.92602 0.271036 0
M  V30 25503 O 2421.96 1.5366 1.2119 0
M  V30 25504 C 2422.26 3.00278 -1.93825 0
M  V30 25505 C 2421.92 2.92062 -3.43527 0
M  V30 25506 C 2420.58 2.89528 -3.84353 0
M  V30 25507 C 2422.94 2.81081 -4.38911 0
M  V30 25508 C 2420.26 2.73837 -5.18874 0
M  V30 25509 C 2422.62 2.66929 -5.73526 0
M  V30 25510 C 2421.28 2.62763 -6.13606 0
M  V30 25511 H 2420.55 0.603 -0.430665 0
M  V30 25512 H 2423.2 1.04402 -1.60538 0
M  V30 25513 H 2421.5 3.64545 -1.43577 0
M  V30 25514 H 2423.2 3.57302 -1.82034 0
M  V30 25515 H 2419.79 2.94837 -3.11077 0
M  V30 25516 H 2423.97 2.82114 -4.0832 0
M  V30 25517 H 2419.23 2.69018 -5.49035 0
M  V30 25518 H 2423.4 2.57404 -6.47083 0
M  V30 25519 H 2421.03 2.50362 -7.1779 0
M  V30 25520 N 2422.61 1.1209 1.10786 0
M  V30 25521 C 2424.02 0.856209 1.34689 0
M  V30 25522 C 2424.22 -0.515581 1.94792 0
M  V30 25523 O 2423.28 -1.26501 2.18526 0
M  V30 25524 C 2424.59 1.96974 2.27204 0
M  V30 25525 C 2426.14 2.0002 2.40751 0
M  V30 25526 C 2426.61 3.10596 3.36592 0
M  V30 25527 N 2428.1 3.10015 3.44159 0
M  V30 25528 C 2428.84 3.92214 4.18277 0
M  V30 25529 N 2428.34 4.84392 4.95314 0
M  V30 25530 N 2430.13 3.80365 4.13859 0
M  V30 25531 H 2422.28 2.00485 0.701405 0
M  V30 25532 H 2424.54 0.872223 0.37139 0
M  V30 25533 H 2424.25 2.95803 1.90246 0
M  V30 25534 H 2424.12 1.87178 3.27482 0
M  V30 25535 H 2426.51 1.01813 2.7698 0
M  V30 25536 H 2426.59 2.13891 1.40301 0
M  V30 25537 H 2426.23 4.09033 3.01089 0
M  V30 25538 H 2426.16 2.93964 4.36913 0
M  V30 25539 H 2428.66 2.43233 2.89216 0
M  V30 25540 H 2428.97 5.43632 5.49257 0
M  V30 25541 H 2427.31 4.88409 4.94451 0
M  V30 25542 H 2430.5 3.07689 3.52767 0
M  V30 25543 H 2430.68 4.44657 4.71364 0
M  V30 25544 N 2424.08 -1.28513 0.912254 0
M  V30 25545 C 2425.36 -1.90026 0.46363 0
M  V30 25546 C 2425.74 -1.82702 -1.0575 0
M  V30 25547 O 2425.09 -1.26197 -1.9049 0
M  V30 25548 C 2425.3 -3.34596 0.992311 0
M  V30 25549 C 2426.65 -4.11577 1.04351 0
M  V30 25550 O 2427.67 -3.4355 0.94085 0
M  V30 25551 O 2426.53 -5.33172 1.1996 0
M  V30 25552 H 2423.62 -0.813888 0.14668 0
M  V30 25553 H 2426.17 -1.36891 1.00294 0
M  V30 25554 H 2424.94 -3.34142 2.03629 0
M  V30 25555 H 2424.56 -3.95227 0.433741 0
M  V30 25556 N 2425.56 -0.676073 -1.42362 0
M  V30 25557 C 2426.81 -0.196073 -2.00745 0
M  V30 25558 C 2427.12 1.20487 -1.54085 0
M  V30 25559 O 2428.33 1.78131 -2.04895 0
M  V30 25560 C 2426.79 -0.299679 -3.5865 0
M  V30 25561 C 2426.39 -1.70475 -4.14297 0
M  V30 25562 C 2428.14 0.121544 -4.24326 0
M  V30 25563 C 2426.05 -1.76106 -5.64571 0
M  V30 25564 H 2424.98 -0.0695433 -0.750786 0
M  V30 25565 H 2427.63 -0.841441 -1.63071 0
M  V30 25566 H 2426.01 0.413604 -3.93834 0
M  V30 25567 H 2427.18 -2.44522 -3.90571 0
M  V30 25568 H 2425.5 -2.07394 -3.61077 0
M  V30 25569 H 2428.09 0.0996423 -5.34607 0
M  V30 25570 H 2428.44 1.15701 -3.99899 0
M  V30 25571 H 2428.97 -0.540775 -3.94107 0
M  V30 25572 H 2425.71 -2.77639 -5.93799 0
M  V30 25573 H 2425.23 -1.06416 -5.90284 0
M  V30 25574 H 2426.91 -1.51507 -6.29011 0
M  V30 25575 N 2427.04 1.51915 -0.419488 0
M  V30 25576 C 2428.46 1.59443 -0.0708711 0
M  V30 25577 C 2428.66 1.43167 1.41794 0
M  V30 25578 O 2427.71 1.26385 2.18593 0
M  V30 25579 C 2429.03 2.9515 -0.575043 0
M  V30 25580 C 2430.57 3.08413 -0.533921 0
M  V30 25581 C 2431.05 4.46617 -1.01477 0
M  V30 25582 N 2432.54 4.52886 -0.972019 0
M  V30 25583 C 2433.27 5.58114 -1.31515 0
M  V30 25584 N 2432.77 6.70846 -1.73025 0
M  V30 25585 N 2434.56 5.48377 -1.23446 0
M  V30 25586 H 2426.71 1.60741 -1.38839 0
M  V30 25587 H 2428.98 0.756736 -0.571011 0
M  V30 25588 H 2428.68 3.12374 -1.61602 0
M  V30 25589 H 2428.56 3.77199 0.00973147 0
M  V30 25590 H 2430.94 2.90867 0.498035 0
M  V30 25591 H 2431.03 2.28246 -1.15488 0
M  V30 25592 H 2430.67 4.64906 -2.04511 0
M  V30 25593 H 2430.6 5.25295 -0.370526 0
M  V30 25594 H 2433.09 3.71968 -0.666958 0
M  V30 25595 H 2433.4 7.47139 -1.97492 0
M  V30 25596 H 2431.75 6.721 -1.76938 0
M  V30 25597 H 2434.94 4.5919 -0.90895 0
M  V30 25598 H 2435.11 6.30277 -1.50517 0
M  V30 25599 N 2428.52 0.150242 1.56882 0
M  V30 25600 C 2429.77 -0.49907 1.95841 0
M  V30 25601 C 2430.09 -1.65186 1.03626 0
M  V30 25602 O 2429.36 -1.95652 0.0984428 0
M  V30 25603 H 2427.94 -0.18736 0.723122 0
M  V30 25604 H 2430.6 0.2265 1.93579 0
M  V30 25605 H 2429.7 -0.873069 2.9964 0
M  V30 25606 N 2430 -1.57115 -0.123538 0
M  V30 25607 C 2431.24 -1.84613 -0.832121 0
M  V30 25608 C 2431.57 -0.734659 -1.80092 0
M  V30 25609 O 2430.83 0.274386 -1.93767 0
M  V30 25610 C 2431.13 -3.18571 -1.6201 0
M  V30 25611 C 2430.79 -4.43818 -0.796006 0
M  V30 25612 C 2429.45 -4.77827 -0.568732 0
M  V30 25613 C 2431.81 -5.2073 -0.221273 0
M  V30 25614 C 2429.13 -5.86194 0.243602 0
M  V30 25615 C 2431.49 -6.29952 0.578228 0
M  V30 25616 C 2430.15 -6.62495 0.815861 0
M  V30 25617 H 2429.42 -0.675547 -0.304495 0
M  V30 25618 H 2432.07 -1.91266 -0.0946912 0
M  V30 25619 H 2430.37 -3.07474 -2.42831 0
M  V30 25620 H 2432.07 -3.37067 -2.17225 0
M  V30 25621 H 2428.66 -4.1717 -0.983234 0
M  V30 25622 H 2432.84 -4.94812 -0.384086 0
M  V30 25623 H 2428.1 -6.09836 0.436978 0
M  V30 25624 H 2432.27 -6.88732 1.03058 0
M  V30 25625 H 2429.9 -7.46299 1.44715 0
M  V30 25626 N 2431.47 0.393589 -1.52606 0
M  V30 25627 C 2432.4 1.48705 -1.80025 0
M  V30 25628 C 2433.39 1.57107 -0.652023 0
M  V30 25629 O 2434.57 1.7213 -0.899161 0
M  V30 25630 C 2431.7 2.86367 -1.96497 0
M  V30 25631 C 2430.65 2.92808 -3.12166 0
M  V30 25632 C 2429.98 4.32874 -3.13885 0
M  V30 25633 C 2431.28 2.62872 -4.51326 0
M  V30 25634 H 2432.97 1.2601 -2.71591 0
M  V30 25635 H 2430.52 0.604755 -1.30686 0
M  V30 25636 H 2432.47 3.62864 -2.14261 0
M  V30 25637 H 2431.2 3.1039 -1.01616 0
M  V30 25638 H 2429.86 2.18759 -2.94177 0
M  V30 25639 H 2429.5 4.5393 -2.16695 0
M  V30 25640 H 2429.2 4.38105 -3.91583 0
M  V30 25641 H 2430.73 5.11284 -3.33798 0
M  V30 25642 H 2432.14 3.29088 -4.6944 0
M  V30 25643 H 2430.54 2.79459 -5.31058 0
M  V30 25644 H 2431.61 1.58234 -4.58356 0
M  V30 25645 N 2432.95 1.43492 0.651762 0
M  V30 25646 C 2433.92 1.48432 1.74644 0
M  V30 25647 C 2434.92 0.368845 1.56513 0
M  V30 25648 O 2436.11 0.630651 1.62384 0
M  V30 25649 C 2433.24 1.33833 3.13531 0
M  V30 25650 H 2434.43 2.45923 1.71644 0
M  V30 25651 H 2431.98 1.30279 0.86355 0
M  V30 25652 H 2432.72 0.373546 3.22141 0
M  V30 25653 H 2432.5 2.14697 3.28097 0
M  V30 25654 H 2433.99 1.40225 3.93353 0
M  V30 25655 N 2434.43 -0.890264 1.30046 0
M  V30 25656 C 2435.38 -1.99543 1.15979 0
M  V30 25657 C 2436.35 -1.66023 0.0506494 0
M  V30 25658 O 2437.53 -1.89529 0.219881 0
M  V30 25659 C 2434.67 -3.34414 0.852113 0
M  V30 25660 C 2433.79 -3.80659 2.04262 0
M  V30 25661 C 2432.92 -5.04151 1.67349 0
M  V30 25662 C 2431.96 -5.42789 2.82925 0
M  V30 25663 N 2431.1 -6.57464 2.46345 0
M  V30 25664 H 2435.94 -2.10907 2.10528 0
M  V30 25665 H 2433.47 -1.03274 1.04751 0
M  V30 25666 H 2435.43 -4.12036 0.654369 0
M  V30 25667 H 2434.06 -3.22751 -0.0564935 0
M  V30 25668 H 2433.11 -2.98991 2.35177 0
M  V30 25669 H 2434.43 -4.05237 2.90834 0
M  V30 25670 H 2433.58 -5.89383 1.43918 0
M  V30 25671 H 2432.32 -4.81432 0.779393 0
M  V30 25672 H 2431.32 -4.56086 3.07028 0
M  V30 25673 H 2432.55 -5.67484 3.73014 0
M  V30 25674 H 2430.49 -6.36331 1.59434 0
M  V30 25675 H 2430.41 -6.81885 3.26448 0
M  V30 25676 H 2431.68 -7.45941 2.26257 0
M  V30 25677 N 2435.91 -1.12676 -1.1019 0
M  V30 25678 C 2436.82 -0.810065 -2.20171 0
M  V30 25679 C 2437.83 0.202158 -1.72822 0
M  V30 25680 O 2439.01 0.0351337 -2.01369 0
M  V30 25681 C 2436.08 -0.272068 -3.45631 0
M  V30 25682 C 2435.14 -1.34454 -4.07702 0
M  V30 25683 C 2434.37 -0.832122 -5.27173 0
M  V30 25684 O 2434.59 0.333184 -5.69426 0
M  V30 25685 O 2433.53 -1.60287 -5.80165 0
M  V30 25686 H 2437.35 -1.72871 -2.49698 0
M  V30 25687 H 2434.94 -0.903618 -1.18975 0
M  V30 25688 H 2436.82 0.0229478 -4.21394 0
M  V30 25689 H 2435.49 0.619108 -3.17724 0
M  V30 25690 H 2434.4 -1.69276 -3.33611 0
M  V30 25691 H 2435.73 -2.20958 -4.39817 0
M  V30 25692 N 2437.39 1.28028 -0.919057 0
M  V30 25693 C 2438.3 2.30868 -0.416796 0
M  V30 25694 C 2439.31 1.66715 0.498206 0
M  V30 25695 O 2440.49 1.97723 0.383109 0
M  V30 25696 C 2437.55 3.45124 0.330213 0
M  V30 25697 C 2436.61 4.24819 -0.618652 0
M  V30 25698 C 2435.85 5.33619 0.0928021 0
M  V30 25699 O 2436.07 5.55067 1.31365 0
M  V30 25700 O 2435 5.99151 -0.574604 0
M  V30 25701 H 2438.83 2.75849 -1.27048 0
M  V30 25702 H 2436.42 1.32819 -0.684075 0
M  V30 25703 H 2438.3 4.14638 0.751899 0
M  V30 25704 H 2436.97 3.02215 1.15964 0
M  V30 25705 H 2435.88 3.57873 -1.08984 0
M  V30 25706 H 2437.21 4.7142 -1.41505 0
M  V30 25707 N 2438.86 0.683613 1.42002 0
M  V30 25708 C 2439.8 -0.0395519 2.28166 0
M  V30 25709 C 2440.78 -0.799918 1.41563 0
M  V30 25710 O 2441.96 -0.793218 1.70998 0
M  V30 25711 C 2439.09 -1.06329 3.21577 0
M  V30 25712 C 2438.13 -0.397488 4.24644 0
M  V30 25713 S 2438.97 0.851389 5.28689 0
M  V30 25714 C 2440.12 -0.171056 6.25666 0
M  V30 25715 H 2440.35 0.691279 2.89152 0
M  V30 25716 H 2437.89 0.473461 1.46962 0
M  V30 25717 H 2439.85 -1.64883 3.75931 0
M  V30 25718 H 2438.51 -1.76662 2.5971 0
M  V30 25719 H 2437.7 -1.17026 4.90225 0
M  V30 25720 H 2437.3 0.114677 3.73824 0
M  V30 25721 H 2439.59 -1.02807 6.69654 0
M  V30 25722 H 2440.54 0.450522 7.06665 0
M  V30 25723 H 2440.94 -0.520479 5.62095 0
M  V30 25724 N 2440.34 -1.5169 0.427538 0
M  V30 25725 C 2441.25 -2.31247 -0.395229 0
M  V30 25726 C 2442.27 -1.39744 -1.03671 0
M  V30 25727 O 2443.45 -1.72817 -1.03422 0
M  V30 25728 C 2440.51 -3.13192 -1.487 0
M  V30 25729 C 2439.57 -4.20461 -0.866669 0
M  V30 25730 C 2438.8 -4.98489 -1.90642 0
M  V30 25731 O 2439.03 -4.77032 -3.12725 0
M  V30 25732 O 2437.96 -5.82848 -1.5024 0
M  V30 25733 H 2441.79 -3.02636 0.253971 0
M  V30 25734 H 2439.37 -1.48183 0.1903 0
M  V30 25735 H 2441.25 -3.64166 -2.12041 0
M  V30 25736 H 2439.93 -2.44577 -2.12047 0
M  V30 25737 H 2438.84 -3.73589 -0.195478 0
M  V30 25738 H 2440.17 -4.91421 -0.276848 0
M  V30 25739 N 2441.82 -0.15856 -1.568 0
M  V30 25740 C 2443.07 0.49037 -1.96782 0
M  V30 25741 C 2443.4 1.63751 -1.044 0
M  V30 25742 O 2442.68 1.94298 -0.0886146 0
M  V30 25743 C 2442.96 0.985533 -3.46351 0
M  V30 25744 C 2442.81 -0.160903 -4.49512 0
M  V30 25745 C 2444.13 1.86348 -3.98701 0
M  V30 25746 H 2441.25 0.176776 -0.715485 0
M  V30 25747 H 2443.89 -0.242121 -1.88451 0
M  V30 25748 H 2442.04 1.60972 -3.53582 0
M  V30 25749 H 2443.71 -0.797617 -4.54352 0
M  V30 25750 H 2441.96 -0.818331 -4.26011 0
M  V30 25751 H 2442.63 0.227472 -5.51531 0
M  V30 25752 H 2445.1 1.3374 -3.94021 0
M  V30 25753 H 2443.98 2.179 -5.03796 0
M  V30 25754 H 2444.24 2.80464 -3.41749 0
M  V30 25755 N 2443.3 1.57178 0.115204 0
M  V30 25756 C 2444.25 2.01604 1.16011 0
M  V30 25757 C 2445.24 0.913612 1.42652 0
M  V30 25758 O 2446.45 1.09882 1.42569 0
M  V30 25759 H 2442.82 0.642211 0.391241 0
M  V30 25760 H 2444.79 2.88587 0.758947 0
M  V30 25761 C 2443.54 2.43944 2.47763 0
M  V30 25762 H 2442.87 3.28343 2.28102 0
M  V30 25763 H 2444.31 2.78824 3.19427 0
M  V30 25764 C 2442.76 1.3046 3.10615 0
M  V30 25765 O 2443.29 0.622654 3.96845 0
M  V30 25766 N 2441.5 1.06069 2.70551 0
M  V30 25767 H 2441.05 1.61703 2.00524 0
M  V30 25768 H 2441.01 0.303339 3.12933 0
M  V30 25769 N 2444.78 -0.38549 1.52813 0
M  V30 25770 C 2445.69 -1.49532 1.80769 0
M  V30 25771 C 2446.7 -1.59531 0.694679 0
M  V30 25772 O 2447.88 -1.75801 0.982642 0
M  V30 25773 C 2444.94 -2.85026 1.97386 0
M  V30 25774 C 2444.01 -2.84719 3.213 0
M  V30 25775 C 2443.24 -4.1375 3.37115 0
M  V30 25776 O 2443.46 -5.08889 2.57659 0
M  V30 25777 O 2442.4 -4.20775 4.30386 0
M  V30 25778 H 2446.22 -1.28838 2.75017 0
M  V30 25779 H 2443.81 -0.573673 1.37947 0
M  V30 25780 H 2445.69 -3.65345 2.10003 0
M  V30 25781 H 2444.36 -3.05739 1.06327 0
M  V30 25782 H 2443.27 -2.03168 3.14123 0
M  V30 25783 H 2444.6 -2.68958 4.12217 0
M  V30 25784 N 2446.26 -1.43835 -0.644143 0
M  V30 25785 C 2447.22 -1.49356 -1.73855 0
M  V30 25786 C 2448.22 -0.37714 -1.56315 0
M  V30 25787 O 2449.41 -0.639254 -1.62047 0
M  V30 25788 C 2446.54 -1.35493 -3.12817 0
M  V30 25789 H 2447.73 -2.4683 -1.70338 0
M  V30 25790 H 2445.29 -1.30735 -0.856629 0
M  V30 25791 H 2446.02 -0.390625 -3.21939 0
M  V30 25792 H 2445.81 -2.16434 -3.26954 0
M  V30 25793 H 2447.3 -1.42309 -3.92604 0
M  V30 25794 N 2447.73 0.883355 -1.30517 0
M  V30 25795 C 2448.98 1.63772 -1.1961 0
M  V30 25796 C 2449.31 1.92606 0.24828 0
M  V30 25797 O 2448.59 1.54815 1.1774 0
M  V30 25798 C 2448.87 2.9765 -2.02674 0
M  V30 25799 C 2448.72 2.75778 -3.5534 0
M  V30 25800 C 2450.04 3.98592 -1.8658 0
M  V30 25801 H 2447.16 0.594298 -0.435866 0
M  V30 25802 H 2449.8 1.02209 -1.60166 0
M  V30 25803 H 2447.95 3.50194 -1.68215 0
M  V30 25804 H 2449.63 2.30009 -3.99867 0
M  V30 25805 H 2447.87 2.10253 -3.79442 0
M  V30 25806 H 2448.54 3.7098 -4.08751 0
M  V30 25807 H 2451.02 3.55213 -2.1671 0
M  V30 25808 H 2449.89 4.90174 -2.47023 0
M  V30 25809 H 2450.15 4.34327 -0.825398 0
M  V30 25810 N 2449.21 1.13259 1.09591 0
M  V30 25811 C 2450.14 0.830984 2.18213 0
M  V30 25812 C 2451.12 -0.208936 1.68812 0
M  V30 25813 O 2452.31 -0.0682324 1.9408 0
M  V30 25814 C 2449.44 0.294357 3.4605 0
M  V30 25815 C 2448.39 1.26833 4.08775 0
M  V30 25816 C 2447.72 0.591542 5.31418 0
M  V30 25817 C 2449.02 2.62623 4.51472 0
M  V30 25818 H 2450.71 1.73927 2.437 0
M  V30 25819 H 2448.26 0.837695 1.17127 0
M  V30 25820 H 2450.21 0.0710347 4.2134 0
M  V30 25821 H 2448.93 -0.64931 3.20081 0
M  V30 25822 H 2447.59 1.47762 3.35503 0
M  V30 25823 H 2447.24 -0.357544 5.01728 0
M  V30 25824 H 2446.94 1.24133 5.74339 0
M  V30 25825 H 2448.47 0.377462 6.09432 0
M  V30 25826 H 2449.88 2.45672 5.17994 0
M  V30 25827 H 2448.28 3.23761 5.05271 0
M  V30 25828 H 2449.35 3.20412 3.63956 0
M  V30 25829 N 2450.69 -1.27539 0.925834 0
M  V30 25830 C 2451.65 -2.25165 0.428168 0
M  V30 25831 C 2452.65 -1.5431 -0.452234 0
M  V30 25832 O 2453.84 -1.72344 -0.253578 0
M  V30 25833 C 2450.97 -3.38723 -0.384689 0
M  V30 25834 H 2452.17 -2.70704 1.29071 0
M  V30 25835 H 2449.72 -1.39429 0.706347 0
M  V30 25836 H 2450.46 -2.98563 -1.26613 0
M  V30 25837 H 2450.24 -3.91324 0.246523 0
M  V30 25838 H 2451.73 -4.11288 -0.723317 0
M  V30 25839 N 2452.17 -0.691135 -1.41637 0
M  V30 25840 C 2453.42 -0.217353 -2.00525 0
M  V30 25841 C 2453.73 1.18846 -1.55355 0
M  V30 25842 O 2454.94 1.75947 -2.06772 0
M  V30 25843 C 2453.39 -0.337702 -3.58312 0
M  V30 25844 C 2453 -1.7486 -4.12466 0
M  V30 25845 C 2454.74 0.076532 -4.24431 0
M  V30 25846 C 2452.65 -1.82084 -5.62672 0
M  V30 25847 H 2451.58 -0.0775025 -0.750006 0
M  V30 25848 H 2454.23 -0.858689 -1.62169 0
M  V30 25849 H 2452.61 0.371809 -3.94251 0
M  V30 25850 H 2453.79 -2.48651 -3.87955 0
M  V30 25851 H 2452.1 -2.11212 -3.58857 0
M  V30 25852 H 2454.7 0.0429344 -5.34683 0
M  V30 25853 H 2455.04 1.11453 -4.01103 0
M  V30 25854 H 2455.58 -0.582545 -3.93511 0
M  V30 25855 H 2452.31 -2.83921 -5.90821 0
M  V30 25856 H 2451.83 -1.12671 -5.89122 0
M  V30 25857 H 2453.51 -1.5817 -6.27368 0
M  V30 25858 N 2453.65 1.51461 -0.435577 0
M  V30 25859 C 2454.59 2.29287 0.391164 0
M  V30 25860 C 2455.59 1.35064 1.02245 0
M  V30 25861 O 2456.79 1.52413 0.957619 0
M  V30 25862 H 2453.17 0.737897 0.144955 0
M  V30 25863 H 2455.14 2.97025 -0.286103 0
M  V30 25864 C 2453.89 3.14586 1.48091 0
M  V30 25865 H 2453.21 3.86975 1.0045 0
M  V30 25866 H 2454.65 3.721 2.03267 0
M  V30 25867 C 2453.11 2.29847 2.46317 0
M  V30 25868 O 2453.64 1.95688 3.50812 0
M  V30 25869 N 2451.85 1.93103 2.17162 0
M  V30 25870 H 2451.39 2.21082 1.32215 0
M  V30 25871 H 2451.35 1.36703 2.83125 0
M  V30 25872 N 2455.12 0.166873 1.56714 0
M  V30 25873 C 2456.35 -0.485609 2.0112 0
M  V30 25874 C 2456.77 -1.57104 1.04708 0
M  V30 25875 O 2456.12 -1.82439 0.0472244 0
M  V30 25876 C 2456.18 -1.06802 3.45363 0
M  V30 25877 O 2455.9 -0.0259225 4.38092 0
M  V30 25878 C 2457.4 -1.79917 4.05148 0
M  V30 25879 H 2454.62 -0.124692 0.659312 0
M  V30 25880 H 2457.16 0.267298 2.02746 0
M  V30 25881 H 2455.32 -1.77144 3.44527 0
M  V30 25882 H 2455.73 -0.455306 5.2252 0
M  V30 25883 H 2457.2 -2.15933 5.08013 0
M  V30 25884 H 2457.68 -2.69252 3.46987 0
M  V30 25885 H 2458.29 -1.14226 4.09674 0
M  V30 25886 N 2456.6 -1.57237 -0.106866 0
M  V30 25887 C 2457.83 -1.90057 -0.830254 0
M  V30 25888 C 2458.25 -0.76001 -1.72062 0
M  V30 25889 O 2457.61 0.288959 -1.78982 0
M  V30 25890 C 2457.66 -3.21685 -1.62944 0
M  V30 25891 O 2456.76 -3.08446 -2.73743 0
M  V30 25892 H 2456.1 -0.623319 -0.228844 0
M  V30 25893 H 2458.63 -2.04421 -0.0856221 0
M  V30 25894 H 2458.64 -3.54705 -2.01615 0
M  V30 25895 H 2457.32 -4.04288 -0.975918 0
M  V30 25896 H 2455.9 -2.86917 -2.38186 0
M  V30 25897 N 2458.08 0.377381 -1.53015 0
M  V30 25898 C 2459.03 1.46165 -1.78618 0
M  V30 25899 C 2460 1.53691 -0.629944 0
M  V30 25900 O 2461.18 1.69765 -0.870891 0
M  V30 25901 C 2458.32 2.83257 -1.97128 0
M  V30 25902 C 2457.44 2.84791 -3.24836 0
M  V30 25903 C 2456.57 4.13383 -3.33598 0
M  V30 25904 C 2455.61 4.09013 -4.55384 0
M  V30 25905 N 2454.75 5.29233 -4.61364 0
M  V30 25906 H 2459.59 1.23632 -2.71144 0
M  V30 25907 H 2457.12 0.599553 -1.34327 0
M  V30 25908 H 2459.08 3.62882 -2.05846 0
M  V30 25909 H 2457.71 3.04214 -1.07951 0
M  V30 25910 H 2456.76 1.97468 -3.25132 0
M  V30 25911 H 2458.08 2.77432 -4.14527 0
M  V30 25912 H 2457.23 5.01418 -3.41562 0
M  V30 25913 H 2455.97 4.23479 -2.41902 0
M  V30 25914 H 2454.97 3.19366 -4.47533 0
M  V30 25915 H 2456.2 4.00529 -5.48409 0
M  V30 25916 H 2454.14 5.39937 -3.72564 0
M  V30 25917 H 2454.06 5.23996 -5.44944 0
M  V30 25918 H 2455.33 6.19133 -4.73597 0
M  V30 25919 N 2459.56 1.44175 0.636506 0
M  V30 25920 C 2460.81 1.46675 1.39616 0
M  V30 25921 C 2461.13 0.0973032 1.94256 0
M  V30 25922 O 2460.39 -0.900145 1.7377 0
M  V30 25923 C 2460.69 2.47009 2.58305 0
M  V30 25924 C 2460.35 3.92471 2.21985 0
M  V30 25925 C 2459.02 4.32085 2.11793 0
M  V30 25926 C 2461.37 4.84069 1.93202 0
M  V30 25927 C 2458.7 5.61228 1.70997 0
M  V30 25928 C 2461.05 6.13594 1.539 0
M  V30 25929 C 2459.71 6.52168 1.42245 0
M  V30 25930 H 2458.98 0.536721 0.510892 0
M  V30 25931 H 2461.63 1.77356 0.722297 0
M  V30 25932 H 2459.93 2.09792 3.309 0
M  V30 25933 H 2461.63 2.46192 3.16529 0
M  V30 25934 H 2458.22 3.61128 2.30834 0
M  V30 25935 H 2462.4 4.54223 1.99989 0
M  V30 25936 H 2457.66 5.89938 1.60573 0
M  V30 25937 H 2461.83 6.84032 1.30665 0
M  V30 25938 H 2459.46 7.5214 1.10406 0
M  V30 25939 N 2461.04 -0.876421 1.30983 0
M  V30 25940 C 2462.45 -1.44453 1.1828 0
M  V30 25941 C 2462.8 -1.95038 -0.213231 0
M  V30 25942 O 2461.92 -1.85731 -1.11054 0
M  V30 25943 C 2462.52 -2.62565 2.14115 0
M  V30 25944 C 2461.08 -3.1544 2.05364 0
M  V30 25945 C 2460.22 -1.88143 2.0371 0
M  V30 25946 H 2463.18 -0.685559 1.43129 0
M  V30 25947 H 2463.2 -3.39051 1.72698 0
M  V30 25948 H 2462.71 -2.25718 3.1571 0
M  V30 25949 H 2460.81 -3.56924 1.0694 0
M  V30 25950 H 2460.92 -3.78161 2.94162 0
M  V30 25951 H 2459.29 -2.06834 1.48633 0
M  V30 25952 H 2460.07 -1.53542 3.0705 0
M  V30 25953 N 2462.51 -1.13839 -1.08989 0
M  V30 25954 C 2463.46 -0.815385 -2.1784 0
M  V30 25955 C 2464.46 0.204204 -1.68165 0
M  V30 25956 O 2465.66 0.0608988 -1.79897 0
M  V30 25957 H 2462.04 -0.245928 -0.71065 0
M  V30 25958 H 2464.01 -1.74148 -2.42312 0
M  V30 25959 C 2462.76 -0.302675 -3.4638 0
M  V30 25960 H 2462.08 -1.07857 -3.84977 0
M  V30 25961 H 2463.52 -0.115148 -4.23844 0
M  V30 25962 C 2461.98 0.972535 -3.22558 0
M  V30 25963 O 2462.51 2.04748 -3.45603 0
M  V30 25964 N 2460.72 0.905407 -2.76135 0
M  V30 25965 H 2460.26 0.0304968 -2.57582 0
M  V30 25966 H 2460.22 1.75922 -2.60574 0
M  V30 25967 N 2463.99 1.27046 -0.932584 0
M  V30 25968 C 2464.93 2.25017 -0.379814 0
M  V30 25969 C 2465.9 1.53838 0.52656 0
M  V30 25970 O 2467.09 1.8265 0.46596 0
M  V30 25971 C 2464.21 3.35628 0.455128 0
M  V30 25972 C 2463.26 4.24727 -0.388502 0
M  V30 25973 S 2464.09 5.04088 -1.8071 0
M  V30 25974 C 2465.25 6.18181 -0.979974 0
M  V30 25975 H 2465.48 2.71556 -1.21015 0
M  V30 25976 H 2463.02 1.35778 -0.735102 0
M  V30 25977 H 2464.97 3.99804 0.930982 0
M  V30 25978 H 2463.63 2.87718 1.26004 0
M  V30 25979 H 2462.83 5.03376 0.250802 0
M  V30 25980 H 2462.43 3.65372 -0.798713 0
M  V30 25981 H 2464.72 6.77148 -0.218234 0
M  V30 25982 H 2465.66 6.86398 -1.73963 0
M  V30 25983 H 2466.07 5.62101 -0.519829 0
M  V30 25984 N 2465.47 0.698636 1.41269 0
M  V30 25985 C 2466.7 0.23968 2.05205 0
M  V30 25986 C 2467.11 -1.1173 1.52686 0
M  V30 25987 O 2466.45 -1.70997 0.671252 0
M  V30 25988 C 2466.51 0.123189 3.59289 0
M  V30 25989 C 2466.18 1.4127 4.34617 0
M  V30 25990 C 2467.17 2.35119 4.63697 0
M  V30 25991 C 2464.86 1.66693 4.73834 0
M  V30 25992 C 2466.85 3.52648 5.30959 0
M  V30 25993 C 2464.54 2.84507 5.40832 0
M  V30 25994 C 2465.54 3.77308 5.69322 0
M  V30 25995 O 2465.23 4.93058 6.3494 0
M  V30 25996 H 2464.96 0.108549 0.667228 0
M  V30 25997 H 2467.51 0.952634 1.81973 0
M  V30 25998 H 2465.74 -0.645561 3.81273 0
M  V30 25999 H 2467.43 -0.298985 4.04797 0
M  V30 26000 H 2468.2 2.16736 4.33878 0
M  V30 26001 H 2464.08 0.953215 4.51037 0
M  V30 26002 H 2467.62 4.25101 5.53114 0
M  V30 26003 H 2463.52 3.02805 5.70069 0
M  V30 26004 H 2464.29 4.92914 6.53436 0
M  V30 26005 N 2466.95 -1.51228 0.443603 0
M  V30 26006 C 2468.2 -2.01329 -0.122297 0
M  V30 26007 C 2468.51 -1.33203 -1.43235 0
M  V30 26008 O 2469.72 -1.74308 -2.08156 0
M  V30 26009 C 2468.17 -3.58897 -0.268488 0
M  V30 26010 C 2467.78 -4.35963 1.0315 0
M  V30 26011 C 2469.52 -4.17125 -0.787821 0
M  V30 26012 C 2467.43 -5.85251 0.850607 0
M  V30 26013 H 2466.36 -0.752375 -0.0494797 0
M  V30 26014 H 2469.01 -1.74281 0.57432 0
M  V30 26015 H 2467.39 -3.82417 -1.02825 0
M  V30 26016 H 2468.57 -4.24186 1.80008 0
M  V30 26017 H 2466.88 -3.89217 1.47984 0
M  V30 26018 H 2469.48 -5.26377 -0.939749 0
M  V30 26019 H 2469.82 -3.76707 -1.77194 0
M  V30 26020 H 2470.36 -3.97707 -0.086197 0
M  V30 26021 H 2467.1 -6.30093 1.80729 0
M  V30 26022 H 2466.62 -5.99676 0.12193 0
M  V30 26023 H 2468.29 -6.45016 0.506276 0
M  V30 26024 N 2468.43 -0.175182 -1.56623 0
M  V30 26025 C 2469.84 0.340884 -1.83562 0
M  V30 26026 C 2470.19 1.62792 -1.09514 0
M  V30 26027 O 2469.31 2.1356 -0.349426 0
M  V30 26028 C 2469.91 0.625255 -3.3298 0
M  V30 26029 C 2468.47 1.08575 -3.604 0
M  V30 26030 C 2467.61 0.123673 -2.77024 0
M  V30 26031 H 2470.57 -0.399371 -1.53593 0
M  V30 26032 H 2470.59 1.47688 -3.50669 0
M  V30 26033 H 2470.1 -0.311643 -3.86847 0
M  V30 26034 H 2468.2 2.03761 -3.11949 0
M  V30 26035 H 2468.31 0.992235 -4.68713 0
M  V30 26036 H 2466.68 0.621778 -2.46994 0
M  V30 26037 H 2467.46 -0.807314 -3.33672 0
M  V30 26038 N 2469.91 1.57292 0.0985263 0
M  V30 26039 C 2471.15 1.86189 0.803834 0
M  V30 26040 C 2471.48 0.763826 1.78548 0
M  V30 26041 O 2470.76 -0.228516 1.93153 0
M  V30 26042 C 2471.04 3.25716 1.53562 0
M  V30 26043 C 2470.9 4.46146 0.572199 0
M  V30 26044 C 2472.21 3.63092 2.48702 0
M  V30 26045 H 2469.33 0.677216 0.290769 0
M  V30 26046 H 2471.98 1.8988 0.067545 0
M  V30 26047 H 2470.13 3.227 2.16326 0
M  V30 26048 H 2471.8 4.61275 -0.0481705 0
M  V30 26049 H 2470.04 4.33648 -0.114694 0
M  V30 26050 H 2470.71 5.40491 1.1213 0
M  V30 26051 H 2473.19 3.67029 1.96032 0
M  V30 26052 H 2472.06 4.61658 2.96923 0
M  V30 26053 H 2472.32 2.91593 3.32304 0
M  V30 26054 N 2471.38 -0.369261 1.53213 0
M  V30 26055 C 2472.63 -1.11009 1.68883 0
M  V30 26056 C 2472.95 -1.8994 0.441319 0
M  V30 26057 O 2472.22 -1.88178 -0.54459 0
M  V30 26058 H 2470.8 -0.412805 0.622576 0
M  V30 26059 H 2473.46 -0.416768 1.90392 0
M  V30 26060 H 2472.56 -1.80196 2.54825 0
M  V30 26061 N 2472.86 -1.4451 -0.628851 0
M  V30 26062 C 2473.79 -1.47541 -1.75398 0
M  V30 26063 C 2474.81 -0.368534 -1.58574 0
M  V30 26064 O 2476 -0.634405 -1.66846 0
M  V30 26065 C 2473.1 -1.29583 -3.13148 0
M  V30 26066 C 2472.27 -2.53558 -3.56409 0
M  V30 26067 C 2471.33 -2.30466 -4.73046 0
M  V30 26068 O 2470.35 -3.03966 -4.81242 0
M  V30 26069 N 2471.56 -1.3367 -5.64901 0
M  V30 26070 H 2474.32 -2.44537 -1.73268 0
M  V30 26071 H 2471.88 -1.39979 -0.813487 0
M  V30 26072 H 2473.87 -1.11978 -3.889 0
M  V30 26073 H 2472.44 -0.409425 -3.09907 0
M  V30 26074 H 2471.66 -2.86423 -2.70842 0
M  V30 26075 H 2472.95 -3.36012 -3.82065 0
M  V30 26076 H 2472.35 -0.729703 -5.60974 0
M  V30 26077 H 2470.91 -1.22043 -6.40272 0
M  V30 26078 N 2474.34 0.869463 -1.31446 0
M  V30 26079 C 2475.59 1.62494 -1.2134 0
M  V30 26080 C 2475.92 1.92859 0.227838 0
M  V30 26081 O 2475.19 1.56055 1.16091 0
M  V30 26082 C 2475.48 2.95483 -2.05819 0
M  V30 26083 C 2475.33 2.71994 -3.58245 0
M  V30 26084 C 2476.65 3.96591 -1.90797 0
M  V30 26085 H 2473.77 0.589641 -0.442145 0
M  V30 26086 H 2476.41 1.00505 -1.61241 0
M  V30 26087 H 2474.56 3.48391 -1.71919 0
M  V30 26088 H 2476.23 2.25755 -4.02284 0
M  V30 26089 H 2474.47 2.06217 -3.8165 0
M  V30 26090 H 2475.15 3.66624 -4.12663 0
M  V30 26091 H 2477.62 3.52894 -2.20465 0
M  V30 26092 H 2476.5 4.87527 -2.52208 0
M  V30 26093 H 2476.76 4.33427 -0.871417 0
M  V30 26094 N 2475.82 1.14415 1.08383 0
M  V30 26095 C 2477.05 0.936033 1.84516 0
M  V30 26096 C 2477.46 -0.515471 1.81627 0
M  V30 26097 O 2476.82 -1.35719 1.22011 0
M  V30 26098 C 2476.87 1.42924 3.32047 0
M  V30 26099 O 2476.59 2.82387 3.34946 0
M  V30 26100 C 2478.09 1.2611 4.24984 0
M  V30 26101 H 2475.31 0.333095 0.582485 0
M  V30 26102 H 2477.85 1.51933 1.36882 0
M  V30 26103 H 2476.01 0.888707 3.77069 0
M  V30 26104 H 2476.42 3.04524 4.27042 0
M  V30 26105 H 2477.9 1.6548 5.26612 0
M  V30 26106 H 2478.37 0.203997 4.38726 0
M  V30 26107 H 2478.98 1.79019 3.85788 0
M  V30 26108 N 2477.3 -1.26549 0.939309 0
M  V30 26109 C 2478.57 -1.89 0.503833 0
M  V30 26110 C 2478.95 -1.84904 -1.01851 0
M  V30 26111 O 2478.3 -1.3021 -1.8777 0
M  V30 26112 C 2478.51 -3.32415 1.06306 0
M  V30 26113 C 2479.86 -4.09271 1.13058 0
M  V30 26114 O 2480.88 -3.41477 1.01351 0
M  V30 26115 O 2479.74 -5.30507 1.31242 0
M  V30 26116 H 2476.84 -0.810594 0.163911 0
M  V30 26117 H 2479.38 -1.34733 1.03175 0
M  V30 26118 H 2478.15 -3.29748 2.1067 0
M  V30 26119 H 2477.78 -3.94218 0.517477 0
M  V30 26120 N 2478.77 -0.706118 -1.40896 0
M  V30 26121 C 2480 -0.250559 -2.05075 0
M  V30 26122 C 2480.41 1.10919 -1.53277 0
M  V30 26123 O 2479.75 1.70638 -0.680311 0
M  V30 26124 C 2479.82 -0.142242 -3.59218 0
M  V30 26125 C 2479.48 -1.43573 -4.33861 0
M  V30 26126 C 2480.48 -2.37575 -4.62444 0
M  V30 26127 C 2478.16 -1.69203 -4.72943 0
M  V30 26128 C 2480.16 -3.55459 -5.29082 0
M  V30 26129 C 2477.84 -2.87371 -5.39315 0
M  V30 26130 C 2478.84 -3.80322 -5.67313 0
M  V30 26131 O 2478.53 -4.96419 -6.32316 0
M  V30 26132 H 2478.26 -0.112086 -0.666643 0
M  V30 26133 H 2480.82 -0.962271 -1.81465 0
M  V30 26134 H 2479.05 0.625332 -3.8161 0
M  V30 26135 H 2480.73 0.277513 -4.0495 0
M  V30 26136 H 2481.5 -2.19034 -4.32723 0
M  V30 26137 H 2477.38 -0.977121 -4.50526 0
M  V30 26138 H 2480.92 -4.28028 -5.50852 0
M  V30 26139 H 2476.82 -3.05824 -5.68456 0
M  V30 26140 H 2477.59 -4.96372 -6.50813 0
M  V30 26141 N 2480.25 1.50991 -0.451617 0
M  V30 26142 C 2481.5 2.01801 0.109821 0
M  V30 26143 C 2481.82 1.33692 1.41956 0
M  V30 26144 O 2481.09 0.475984 1.90029 0
M  V30 26145 H 2479.67 0.745728 0.0435753 0
M  V30 26146 H 2482.33 1.85512 -0.59759 0
M  V30 26147 H 2481.43 3.10882 0.275434 0
M  V30 26148 N 2481.73 0.183486 1.56528 0
M  V30 26149 C 2482.98 -0.458323 1.97245 0
M  V30 26150 C 2483.3 -1.62427 1.06995 0
M  V30 26151 O 2482.56 -1.9541 0.106576 0
M  V30 26152 C 2482.86 -0.971577 3.43941 0
M  V30 26153 C 2482.52 0.0797577 4.50829 0
M  V30 26154 C 2481.19 0.368668 4.79786 0
M  V30 26155 C 2483.54 0.792729 5.15136 0
M  V30 26156 C 2480.87 1.37573 5.70343 0
M  V30 26157 C 2483.22 1.78886 6.06781 0
M  V30 26158 C 2481.88 2.08509 6.34098 0
M  V30 26159 H 2481.15 -0.167712 0.721771 0
M  V30 26160 H 2483.8 0.278009 1.89471 0
M  V30 26161 H 2482.1 -1.78596 3.48727 0
M  V30 26162 H 2483.8 -1.47737 3.72793 0
M  V30 26163 H 2480.39 -0.155593 4.28317 0
M  V30 26164 H 2484.58 0.582745 4.92867 0
M  V30 26165 H 2479.83 1.61128 5.89786 0
M  V30 26166 H 2484.01 2.34661 6.55673 0
M  V30 26167 H 2481.63 2.8669 7.04069 0
M  V30 26168 N 2483.21 -1.57342 -0.0901833 0
M  V30 26169 C 2484.14 -2.05444 -1.10972 0
M  V30 26170 C 2485.12 -0.944308 -1.41481 0
M  V30 26171 O 2486.3 -1.21589 -1.51426 0
M  V30 26172 C 2483.43 -2.483 -2.42826 0
M  V30 26173 C 2482.39 -3.63022 -2.26714 0
M  V30 26174 C 2481.71 -3.9187 -3.63789 0
M  V30 26175 C 2483.01 -4.93735 -1.70361 0
M  V30 26176 H 2484.71 -2.90872 -0.709513 0
M  V30 26177 H 2482.25 -1.39932 -0.339849 0
M  V30 26178 H 2484.21 -2.80561 -3.14426 0
M  V30 26179 H 2482.93 -1.59878 -2.84792 0
M  V30 26180 H 2481.59 -3.31015 -1.57559 0
M  V30 26181 H 2481.24 -3.00608 -4.03291 0
M  V30 26182 H 2480.94 -4.69108 -3.53853 0
M  V30 26183 H 2482.46 -4.2661 -4.36848 0
M  V30 26184 H 2483.88 -5.24346 -2.31807 0
M  V30 26185 H 2482.27 -5.7517 -1.71171 0
M  V30 26186 H 2483.34 -4.8034 -0.663458 0
M  V30 26187 N 2484.69 0.36113 -1.53407 0
M  V30 26188 C 2485.63 1.46293 -1.80834 0
M  V30 26189 C 2486.63 1.55252 -0.677727 0
M  V30 26190 O 2487.83 1.58086 -0.860751 0
M  V30 26191 H 2484.21 0.487435 -0.572635 0
M  V30 26192 H 2486.18 1.20366 -2.73047 0
M  V30 26193 C 2484.93 2.83067 -2.01912 0
M  V30 26194 H 2484.25 2.76933 -2.88354 0
M  V30 26195 H 2485.69 3.59327 -2.25079 0
M  V30 26196 C 2484.15 3.27276 -0.799506 0
M  V30 26197 O 2484.68 4.01699 0.00964701 0
M  V30 26198 N 2482.89 2.83872 -0.621687 0
M  V30 26199 H 2482.43 2.23474 -1.2813 0
M  V30 26200 H 2482.39 3.13808 0.192925 0
M  V30 26201 N 2486.16 1.44842 0.621179 0
M  V30 26202 C 2487.09 1.55306 1.74363 0
M  V30 26203 C 2488.08 0.405414 1.65198 0
M  V30 26204 O 2489.26 0.62682 1.83806 0
M  V30 26205 C 2486.39 1.50643 3.12928 0
M  V30 26206 C 2485.34 2.63985 3.36892 0
M  V30 26207 C 2484.67 2.44375 4.75589 0
M  V30 26208 C 2485.97 4.0608 3.28476 0
M  V30 26209 H 2487.66 2.49259 1.65863 0
M  V30 26210 H 2485.21 1.19964 0.796537 0
M  V30 26211 H 2487.16 1.56562 3.91237 0
M  V30 26212 H 2485.89 0.532114 3.22236 0
M  V30 26213 H 2484.55 2.57471 2.60967 0
M  V30 26214 H 2484.19 1.45113 4.81613 0
M  V30 26215 H 2483.89 3.20373 4.9258 0
M  V30 26216 H 2485.42 2.52127 5.56115 0
M  V30 26217 H 2486.83 4.13909 3.96676 0
M  V30 26218 H 2485.23 4.8236 3.57 0
M  V30 26219 H 2486.3 4.28947 2.26125 0
M  V30 26220 N 2487.64 -0.862479 1.31905 0
M  V30 26221 C 2488.89 -1.6129 1.21778 0
M  V30 26222 C 2489.21 -1.93728 -0.222378 0
M  V30 26223 O 2488.48 -1.58949 -1.14508 0
M  V30 26224 H 2487.06 -0.597954 0.447728 0
M  V30 26225 H 2489.72 -1.03212 1.65328 0
M  V30 26226 H 2488.82 -2.55326 1.79485 0
M  V30 26227 N 2489.12 -1.14988 -1.07775 0
M  V30 26228 C 2490.37 -0.920266 -1.79932 0
M  V30 26229 C 2490.69 0.554303 -1.86956 0
M  V30 26230 O 2489.96 1.40289 -1.36733 0
M  V30 26231 H 2488.54 -0.337485 -0.666418 0
M  V30 26232 H 2491.2 -1.4497 -1.30267 0
M  V30 26233 H 2490.3 -1.32588 -2.82537 0
M  V30 26234 N 2490.6 1.26049 -0.946007 0
M  V30 26235 C 2491.83 1.97609 -0.613059 0
M  V30 26236 C 2492.24 1.70399 0.813005 0
M  V30 26237 O 2491.6 0.975006 1.54272 0
M  V30 26238 C 2491.65 3.51325 -0.851651 0
M  V30 26239 O 2491.37 3.77591 -2.22163 0
M  V30 26240 C 2492.87 4.40121 -0.529909 0
M  V30 26241 H 2490.09 0.630129 -0.230604 0
M  V30 26242 H 2492.64 1.60441 -1.26803 0
M  V30 26243 H 2490.79 3.86636 -0.243219 0
M  V30 26244 H 2491.2 4.72096 -2.28528 0
M  V30 26245 H 2492.68 5.46916 -0.747444 0
M  V30 26246 H 2493.16 4.35926 0.535264 0
M  V30 26247 H 2493.76 4.10362 -1.11728 0
M  V30 26248 N 2492.08 0.71358 1.4052 0
M  V30 26249 C 2493.49 0.324839 1.83852 0
M  V30 26250 C 2493.84 -1.14018 1.59669 0
M  V30 26251 O 2492.96 -1.87723 1.07652 0
M  V30 26252 C 2493.56 0.582804 3.3375 0
M  V30 26253 C 2492.12 0.247793 3.75583 0
M  V30 26254 C 2491.26 0.856168 2.63752 0
M  V30 26255 H 2494.22 0.912883 1.29816 0
M  V30 26256 H 2494.24 -0.152615 3.80194 0
M  V30 26257 H 2493.75 1.64914 3.51319 0
M  V30 26258 H 2491.85 -0.81356 3.6361 0
M  V30 26259 H 2491.96 0.71539 4.73729 0
M  V30 26260 H 2490.33 0.284364 2.53108 0
M  V30 26261 H 2491.11 1.92673 2.84134 0
M  V30 26262 N 2493.55 -1.50749 0.459618 0
M  V30 26263 C 2494.78 -2.06671 -0.0973386 0
M  V30 26264 C 2495.2 -1.32475 -1.34521 0
M  V30 26265 O 2494.55 -0.390665 -1.7827 0
M  V30 26266 C 2494.61 -3.59313 -0.397077 0
M  V30 26267 O 2494.33 -4.3071 0.801289 0
M  V30 26268 C 2495.83 -4.31821 -1.00226 0
M  V30 26269 H 2493.05 -0.670997 0.00197033 0
M  V30 26270 H 2495.59 -1.94058 0.645106 0
M  V30 26271 H 2493.75 -3.71766 -1.08944 0
M  V30 26272 H 2494.16 -5.21724 0.538949 0
M  V30 26273 H 2495.63 -5.39634 -1.16184 0
M  V30 26274 H 2496.11 -3.91564 -1.98933 0
M  V30 26275 H 2496.72 -4.23869 -0.348625 0
M  V30 26276 N 2495.03 -0.191784 -1.56429 0
M  V30 26277 C 2495.98 0.730416 -2.18937 0
M  V30 26278 C 2496.95 1.21217 -1.13559 0
M  V30 26279 O 2498.13 1.27666 -1.41796 0
M  V30 26280 C 2495.27 1.94575 -2.85017 0
M  V30 26281 C 2494.39 1.50567 -4.04912 0
M  V30 26282 C 2493.52 2.67625 -4.58857 0
M  V30 26283 C 2492.56 2.20207 -5.71118 0
M  V30 26284 N 2491.7 3.30431 -6.19484 0
M  V30 26285 H 2496.54 0.190611 -2.9739 0
M  V30 26286 H 2494.08 0.0823436 -1.46869 0
M  V30 26287 H 2496.03 2.65887 -3.21496 0
M  V30 26288 H 2494.66 2.45892 -2.09133 0
M  V30 26289 H 2493.72 0.688539 -3.74117 0
M  V30 26290 H 2495.03 1.11775 -4.86115 0
M  V30 26291 H 2494.18 3.47065 -4.97625 0
M  V30 26292 H 2492.92 3.09689 -3.76755 0
M  V30 26293 H 2491.93 1.3922 -5.31881 0
M  V30 26294 H 2493.15 1.79178 -6.55036 0
M  V30 26295 H 2491.1 3.72032 -5.40304 0
M  V30 26296 H 2491.01 2.95797 -6.9573 0
M  V30 26297 H 2492.28 4.10094 -6.62905 0
M  V30 26298 N 2496.51 1.57387 0.0818378 0
M  V30 26299 C 2497.93 1.53518 0.436385 0
M  V30 26300 C 2498.13 0.910491 1.79756 0
M  V30 26301 O 2497.18 0.508679 2.47323 0
M  V30 26302 C 2498.5 2.98203 0.386682 0
M  V30 26303 C 2500.04 3.09488 0.467589 0
M  V30 26304 C 2500.52 4.55805 0.447898 0
M  V30 26305 N 2502.01 4.60403 0.508267 0
M  V30 26306 C 2502.74 5.71082 0.515083 0
M  V30 26307 N 2502.24 6.91154 0.477314 0
M  V30 26308 N 2504.03 5.59295 0.560889 0
M  V30 26309 H 2496.18 1.96366 -0.809581 0
M  V30 26310 H 2498.45 0.898358 -0.302749 0
M  V30 26311 H 2498.15 3.47427 -0.5466 0
M  V30 26312 H 2498.03 3.5758 1.20068 0
M  V30 26313 H 2500.41 2.60244 1.39129 0
M  V30 26314 H 2500.5 2.53039 -0.374797 0
M  V30 26315 H 2500.14 5.05703 -0.471915 0
M  V30 26316 H 2500.07 5.10105 1.30768 0
M  V30 26317 H 2502.56 3.73991 0.542114 0
M  V30 26318 H 2502.87 7.71269 0.486164 0
M  V30 26319 H 2501.22 6.93579 0.444156 0
M  V30 26320 H 2504.41 4.64392 0.588019 0
M  V30 26321 H 2504.58 6.45552 0.562732 0
M  V30 26322 N 2497.99 -0.35299 1.53596 0
M  V30 26323 C 2498.92 -1.45591 1.75723 0
M  V30 26324 C 2499.9 -1.50886 0.605987 0
M  V30 26325 O 2501.08 -1.68746 0.840053 0
M  V30 26326 C 2498.21 -2.83884 1.84737 0
M  V30 26327 C 2497.26 -2.96256 3.06813 0
M  V30 26328 S 2498.09 -2.63703 4.6607 0
M  V30 26329 C 2499.25 -4.04122 4.7795 0
M  V30 26330 H 2499.48 -1.26603 2.68996 0
M  V30 26331 H 2497.01 -0.548092 1.44344 0
M  V30 26332 H 2498.97 -3.6356 1.90616 0
M  V30 26333 H 2497.63 -3.00173 0.924933 0
M  V30 26334 H 2496.82 -3.97568 3.09768 0
M  V30 26335 H 2496.43 -2.24518 2.99112 0
M  V30 26336 H 2498.72 -4.98526 4.58779 0
M  V30 26337 H 2499.66 -4.06167 5.8003 0
M  V30 26338 H 2500.07 -3.91708 4.06479 0
M  V30 26339 N 2499.47 -1.45169 -0.613489 0
M  V30 26340 C 2500.4 -1.56228 -1.73537 0
M  V30 26341 C 2501.38 -0.414169 -1.64981 0
M  V30 26342 O 2502.56 -0.636558 -1.83471 0
M  V30 26343 C 2499.69 -1.523 -3.12125 0
M  V30 26344 C 2498.65 -2.65768 -3.35487 0
M  V30 26345 C 2497.97 -2.46893 -4.74287 0
M  V30 26346 C 2499.27 -4.07816 -3.26318 0
M  V30 26347 H 2500.97 -2.50135 -1.64538 0
M  V30 26348 H 2498.51 -1.20384 -0.790164 0
M  V30 26349 H 2500.47 -1.58635 -3.90401 0
M  V30 26350 H 2499.19 -0.549195 -3.21949 0
M  V30 26351 H 2497.85 -2.58852 -2.59598 0
M  V30 26352 H 2497.5 -1.47665 -4.80837 0
M  V30 26353 H 2497.2 -3.22981 -4.90874 0
M  V30 26354 H 2498.72 -2.55073 -5.5477 0
M  V30 26355 H 2500.14 -4.16007 -3.94476 0
M  V30 26356 H 2498.53 -4.84247 -3.54437 0
M  V30 26357 H 2499.6 -4.3014 -2.23847 0
M  V30 26358 N 2500.95 0.855472 -1.32361 0
M  V30 26359 C 2501.88 1.96775 -1.15562 0
M  V30 26360 C 2502.86 1.62506 -0.0552967 0
M  V30 26361 O 2504.04 1.87276 -0.214452 0
M  V30 26362 C 2501.17 3.29857 -0.768909 0
M  V30 26363 C 2500.21 3.83106 -1.87436 0
M  V30 26364 S 2501.05 4.06795 -3.4825 0
M  V30 26365 C 2502.2 5.42852 -3.11548 0
M  V30 26366 H 2502.44 2.10723 -2.09721 0
M  V30 26367 H 2499.97 1.00735 -1.17012 0
M  V30 26368 H 2501.93 4.06764 -0.552552 0
M  V30 26369 H 2500.59 3.13723 0.153802 0
M  V30 26370 H 2499.78 4.79355 -1.55675 0
M  V30 26371 H 2499.38 3.13039 -2.04653 0
M  V30 26372 H 2501.67 6.25065 -2.61342 0
M  V30 26373 H 2502.62 5.79574 -4.06816 0
M  V30 26374 H 2503.03 5.06816 -2.48591 0
M  V30 26375 N 2502.42 1.15558 1.07164 0
M  V30 26376 C 2503.65 0.954165 1.83246 0
M  V30 26377 C 2504.06 -0.500879 1.8245 0
M  V30 26378 O 2503.4 -1.35921 1.23577 0
M  V30 26379 C 2503.47 1.39357 3.31391 0
M  V30 26380 C 2503.13 2.86672 3.55904 0
M  V30 26381 C 2504.13 3.84726 3.49688 0
M  V30 26382 C 2501.81 3.24385 3.83509 0
M  V30 26383 C 2503.81 5.18497 3.70728 0
M  V30 26384 C 2501.49 4.58328 4.04201 0
M  V30 26385 C 2502.49 5.55193 3.97806 0
M  V30 26386 O 2502.18 6.86717 4.17942 0
M  V30 26387 H 2501.91 0.338861 0.584935 0
M  V30 26388 H 2504.47 1.53779 1.36166 0
M  V30 26389 H 2502.7 0.753357 3.79291 0
M  V30 26390 H 2504.38 1.16096 3.88943 0
M  V30 26391 H 2505.15 3.56936 3.28362 0
M  V30 26392 H 2501.03 2.49574 3.876 0
M  V30 26393 H 2504.57 5.94091 3.65652 0
M  V30 26394 H 2500.47 4.85833 4.25014 0
M  V30 26395 H 2501.24 6.93163 4.35279 0
M  V30 26396 N 2503.9 -1.25546 0.952678 0
M  V30 26397 C 2504.85 -2.27958 0.462394 0
M  V30 26398 C 2505.84 -1.62855 -0.466311 0
M  V30 26399 O 2507.05 -1.76697 -0.343256 0
M  V30 26400 H 2503.42 -0.740498 0.131023 0
M  V30 26401 H 2505.4 -2.66699 1.33843 0
M  V30 26402 C 2504.14 -3.46827 -0.246219 0
M  V30 26403 H 2503.47 -3.97153 0.459262 0
M  V30 26404 H 2504.91 -4.20374 -0.553319 0
M  V30 26405 C 2503.37 -3.03233 -1.46805 0
M  V30 26406 O 2503.9 -3.09074 -2.56586 0
M  V30 26407 N 2502.1 -2.58445 -1.3287 0
M  V30 26408 H 2501.65 -2.53892 -0.435491 0
M  V30 26409 H 2501.61 -2.29641 -2.14738 0
M  V30 26410 N 2505.38 -0.721022 -1.40139 0
M  V30 26411 C 2506.63 -0.262877 -2.00786 0
M  V30 26412 C 2506.95 1.1456 -1.57182 0
M  V30 26413 O 2506.21 1.79247 -0.785423 0
M  V30 26414 C 2506.51 -0.296955 -3.56164 0
M  V30 26415 C 2506.17 -1.65649 -4.1937 0
M  V30 26416 C 2504.84 -2.02863 -4.36349 0
M  V30 26417 C 2507.19 -2.54976 -4.54573 0
M  V30 26418 C 2504.52 -3.2894 -4.85814 0
M  V30 26419 C 2506.87 -3.80411 -5.05441 0
M  V30 26420 C 2505.53 -4.17735 -5.20628 0
M  V30 26421 H 2504.8 -0.0961936 -0.73473 0
M  V30 26422 H 2507.45 -0.925122 -1.67672 0
M  V30 26423 H 2505.75 0.448864 -3.8922 0
M  V30 26424 H 2507.45 0.0754503 -4.00929 0
M  V30 26425 H 2504.04 -1.35711 -4.06547 0
M  V30 26426 H 2508.23 -2.27499 -4.41087 0
M  V30 26427 H 2503.48 -3.57819 -4.95757 0
M  V30 26428 H 2507.66 -4.49795 -5.31655 0
M  V30 26429 H 2505.28 -5.15497 -5.58719 0
M  V30 26430 N 2506.86 1.50503 -0.467606 0
M  V30 26431 C 2508.27 1.86696 -0.0116494 0
M  V30 26432 C 2508.62 1.38267 1.392 0
M  V30 26433 O 2507.74 0.746168 2.03129 0
M  V30 26434 C 2508.34 3.38797 -0.014364 0
M  V30 26435 C 2506.9 3.74414 0.386109 0
M  V30 26436 C 2506.05 2.7438 -0.401335 0
M  V30 26437 H 2509 1.43296 -0.682047 0
M  V30 26438 H 2509.02 3.72239 0.788576 0
M  V30 26439 H 2508.53 3.74015 -1.03608 0
M  V30 26440 H 2506.63 3.44796 1.41231 0
M  V30 26441 H 2506.74 4.79016 0.0898754 0
M  V30 26442 H 2505.11 2.5429 0.144491 0
M  V30 26443 H 2505.89 3.12442 -1.4225 0
M  V30 26444 N 2508.34 0.200077 1.56325 0
M  V30 26445 C 2509.56 -0.442839 2.02105 0
M  V30 26446 C 2509.98 -1.54848 1.08017 0
M  V30 26447 O 2509.34 -1.82298 0.0859117 0
M  V30 26448 C 2509.39 -0.994522 3.47551 0
M  V30 26449 O 2509.11 0.0670092 4.38049 0
M  V30 26450 C 2510.61 -1.71282 4.08873 0
M  V30 26451 H 2507.83 -0.110679 0.661809 0
M  V30 26452 H 2510.37 0.310243 2.02133 0
M  V30 26453 H 2508.53 -1.69797 3.48207 0
M  V30 26454 H 2508.94 -0.34437 5.23368 0
M  V30 26455 H 2510.42 -2.05109 5.12479 0
M  V30 26456 H 2510.89 -2.61831 3.5262 0
M  V30 26457 H 2511.5 -1.05511 4.12004 0
M  V30 26458 N 2509.81 -1.57429 -0.0734901 0
M  V30 26459 C 2511.23 -1.53747 -0.428237 0
M  V30 26460 C 2511.43 -0.920011 -1.79271 0
M  V30 26461 O 2510.49 -0.521788 -2.4705 0
M  V30 26462 C 2511.8 -2.98404 -0.370862 0
M  V30 26463 C 2513.35 -3.09731 -0.45117 0
M  V30 26464 C 2513.82 -4.56036 -0.42372 0
M  V30 26465 N 2515.31 -4.60666 -0.483844 0
M  V30 26466 C 2516.05 -5.71347 -0.48479 0
M  V30 26467 N 2515.54 -6.91397 -0.440653 0
M  V30 26468 N 2517.34 -5.59584 -0.531221 0
M  V30 26469 H 2509.49 -1.95934 0.819983 0
M  V30 26470 H 2511.75 -0.89674 0.307509 0
M  V30 26471 H 2511.46 -3.47132 0.565017 0
M  V30 26472 H 2511.33 -3.58212 -1.1817 0
M  V30 26473 H 2513.72 -2.60978 -1.37747 0
M  V30 26474 H 2513.8 -2.52837 0.388211 0
M  V30 26475 H 2513.44 -5.05445 0.498727 0
M  V30 26476 H 2513.37 -5.10791 -1.28061 0
M  V30 26477 H 2515.86 -3.74274 -0.522272 0
M  V30 26478 H 2516.18 -7.71516 -0.445254 0
M  V30 26479 H 2514.52 -6.93805 -0.407368 0
M  V30 26480 H 2517.71 -4.64697 -0.563383 0
M  V30 26481 H 2517.89 -6.45841 -0.528489 0
M  V30 26482 N 2511.29 0.344839 -1.53781 0
M  V30 26483 C 2512.25 1.40633 -1.80983 0
M  V30 26484 C 2513.25 1.45675 -0.680842 0
M  V30 26485 O 2514.44 1.46073 -0.949121 0
M  V30 26486 C 2511.58 2.79573 -1.95068 0
M  V30 26487 H 2512.77 1.17778 -2.75805 0
M  V30 26488 H 2510.32 0.579155 -1.45174 0
M  V30 26489 H 2511.06 3.07714 -1.02385 0
M  V30 26490 H 2510.84 2.7731 -2.77203 0
M  V30 26491 H 2512.33 3.56405 -2.17635 0
M  V30 26492 N 2512.77 1.45492 0.605781 0
M  V30 26493 C 2514.02 1.49308 1.36204 0
M  V30 26494 C 2514.34 0.136897 1.94519 0
M  V30 26495 O 2513.61 -0.833952 1.77263 0
M  V30 26496 H 2512.19 0.549852 0.50564 0
M  V30 26497 H 2514.85 1.8146 0.711208 0
M  V30 26498 H 2513.95 2.2329 2.18055 0
M  V30 26499 N 2514.25 -0.848441 1.32813 0
M  V30 26500 C 2515.18 -1.96431 1.18099 0
M  V30 26501 C 2516.19 -1.62398 0.114383 0
M  V30 26502 O 2517.38 -1.74751 0.363922 0
M  V30 26503 C 2514.48 -3.29639 0.786856 0
M  V30 26504 C 2513.66 -3.91872 1.94307 0
M  V30 26505 C 2512.71 -5.03421 1.53147 0
M  V30 26506 O 2511.74 -5.23082 2.24442 0
M  V30 26507 N 2512.94 -5.78898 0.431017 0
M  V30 26508 H 2515.71 -2.09593 2.14221 0
M  V30 26509 H 2513.27 -1.02364 1.25432 0
M  V30 26510 H 2515.26 -4.01676 0.493786 0
M  V30 26511 H 2513.83 -3.12489 -0.0833992 0
M  V30 26512 H 2513.05 -3.12543 2.4023 0
M  V30 26513 H 2514.34 -4.30184 2.71696 0
M  V30 26514 H 2513.74 -5.65467 -0.162234 0
M  V30 26515 H 2512.29 -6.515 0.19758 0
M  V30 26516 N 2515.73 -1.16125 -1.06549 0
M  V30 26517 C 2516.97 -0.951798 -1.80887 0
M  V30 26518 C 2517.33 0.511432 -1.85063 0
M  V30 26519 O 2518.53 0.839495 -2.55354 0
M  V30 26520 C 2516.8 -1.55899 -3.21606 0
M  V30 26521 S 2518.36 -1.49381 -4.1259 0
M  V30 26522 H 2515.18 -0.342352 -0.62315 0
M  V30 26523 H 2517.78 -1.47823 -1.2794 0
M  V30 26524 H 2516.49 -2.6167 -3.1616 0
M  V30 26525 H 2516.02 -1.03177 -3.79629 0
M  V30 26526 H 2518.03 -0.492282 -4.93752 0
M  V30 26527 N 2517.2 1.25039 -0.959323 0
M  V30 26528 C 2518.45 1.92502 -0.615427 0
M  V30 26529 C 2518.77 1.75454 0.850938 0
M  V30 26530 O 2518.04 1.12101 1.60656 0
M  V30 26531 H 2516.62 0.712427 -0.224626 0
M  V30 26532 H 2519.29 1.52107 -1.21858 0
M  V30 26533 H 2518.38 3.00336 -0.84879 0
M  V30 26534 N 2518.68 0.728444 1.39755 0
M  V30 26535 C 2519.93 0.272982 2.00248 0
M  V30 26536 C 2520.25 -1.14175 1.58079 0
M  V30 26537 O 2519.52 -1.77632 0.826046 0
M  V30 26538 H 2518.1 0.0979377 0.740552 0
M  V30 26539 H 2520.76 0.936942 1.70902 0
M  V30 26540 H 2519.86 0.316196 3.10494 0
M  V30 26541 N 2520.16 -1.50253 0.475581 0
M  V30 26542 C 2521.41 -2.0265 -0.0779717 0
M  V30 26543 C 2521.74 -1.35654 -1.38966 0
M  V30 26544 O 2521.01 -0.483724 -1.88389 0
M  V30 26545 C 2521.3 -3.59181 -0.257098 0
M  V30 26546 C 2521.15 -4.36742 1.07593 0
M  V30 26547 C 2522.47 -4.28364 -1.00957 0
M  V30 26548 H 2519.59 -0.73651 -0.0268629 0
M  V30 26549 H 2522.23 -1.79529 0.622046 0
M  V30 26550 H 2520.38 -3.79012 -0.853345 0
M  V30 26551 H 2522.05 -4.28471 1.7091 0
M  V30 26552 H 2520.3 -4.00305 1.67147 0
M  V30 26553 H 2520.97 -5.44544 0.904184 0
M  V30 26554 H 2523.44 -4.13035 -0.504141 0
M  V30 26555 H 2522.32 -5.37689 -1.10371 0
M  V30 26556 H 2522.58 -3.91843 -2.04724 0
M  V30 26557 N 2521.64 -0.208365 -1.56217 0
M  V30 26558 C 2522.57 0.702077 -2.22695 0
M  V30 26559 C 2523.55 1.21118 -1.19434 0
M  V30 26560 O 2524.73 1.2576 -1.4798 0
M  V30 26561 C 2521.86 1.91605 -2.89663 0
M  V30 26562 C 2520.82 1.54133 -3.99283 0
M  V30 26563 C 2520.14 2.833 -4.53481 0
M  V30 26564 C 2521.44 0.741248 -5.17013 0
M  V30 26565 H 2523.14 0.147846 -2.99035 0
M  V30 26566 H 2520.68 0.0696698 -1.43831 0
M  V30 26567 H 2522.64 2.5583 -3.34857 0
M  V30 26568 H 2521.36 2.49504 -2.1075 0
M  V30 26569 H 2520.02 0.922606 -3.54801 0
M  V30 26570 H 2519.67 3.39316 -3.71314 0
M  V30 26571 H 2519.37 2.58967 -5.27456 0
M  V30 26572 H 2520.89 3.48491 -5.01385 0
M  V30 26573 H 2522.31 1.2869 -5.5867 0
M  V30 26574 H 2520.7 0.595522 -5.97138 0
M  V30 26575 H 2521.77 -0.254936 -4.84229 0
M  V30 26576 N 2523.12 1.57465 0.0651402 0
M  V30 26577 C 2524.05 1.99455 1.10873 0
M  V30 26578 C 2525.03 0.872579 1.37204 0
M  V30 26579 O 2526.21 1.13544 1.50466 0
M  V30 26580 C 2523.34 2.33694 2.45163 0
M  V30 26581 C 2522.38 3.55968 2.34924 0
M  V30 26582 S 2523.22 5.06546 1.737 0
M  V30 26583 C 2524.37 5.43992 3.09554 0
M  V30 26584 H 2524.61 2.8766 0.750916 0
M  V30 26585 H 2522.14 1.51951 0.273906 0
M  V30 26586 H 2524.1 2.54094 3.22407 0
M  V30 26587 H 2522.76 1.46006 2.78103 0
M  V30 26588 H 2521.95 3.77463 3.33973 0
M  V30 26589 H 2521.55 3.35232 1.65817 0
M  V30 26590 H 2523.85 5.4247 4.05873 0
M  V30 26591 H 2524.79 6.44713 2.92831 0
M  V30 26592 H 2525.2 4.71457 3.10466 0
M  V30 26593 N 2524.59 -0.336679 1.53962 0
M  V30 26594 C 2525.82 -1.10043 1.75799 0
M  V30 26595 C 2526.24 -1.8136 0.499017 0
M  V30 26596 O 2525.6 -1.72796 -0.548739 0
M  V30 26597 C 2525.65 -2.0843 2.9426 0
M  V30 26598 O 2524.75 -3.16082 2.64889 0
M  V30 26599 H 2524.1 -0.317924 0.582941 0
M  V30 26600 H 2526.63 -0.384975 2.00946 0
M  V30 26601 H 2526.64 -2.51531 3.21241 0
M  V30 26602 H 2525.31 -1.55921 3.85567 0
M  V30 26603 H 2523.89 -2.77749 2.48817 0
M  V30 26604 N 2526.07 -1.45812 -0.598057 0
M  V30 26605 C 2527.3 -1.53868 -1.38319 0
M  V30 26606 C 2527.72 -0.174512 -1.87992 0
M  V30 26607 O 2527.07 0.825599 -1.62758 0
M  V30 26608 C 2527.12 -2.53093 -2.5812 0
M  V30 26609 O 2526.84 -3.8421 -2.1051 0
M  V30 26610 C 2528.35 -2.70941 -3.50864 0
M  V30 26611 H 2525.57 -0.520808 -0.423083 0
M  V30 26612 H 2528.11 -1.91084 -0.728494 0
M  V30 26613 H 2526.26 -2.18923 -3.19611 0
M  V30 26614 H 2526.68 -4.38082 -2.88417 0
M  V30 26615 H 2528.15 -3.44324 -4.31445 0
M  V30 26616 H 2528.63 -1.77308 -4.01819 0
M  V30 26617 H 2529.24 -3.06146 -2.9522 0
M  V30 26618 N 2527.55 0.841385 -1.33261 0
M  V30 26619 C 2528.8 1.59332 -1.24329 0
M  V30 26620 C 2529.12 1.94057 0.19153 0
M  V30 26621 O 2528.39 1.60751 1.11964 0
M  V30 26622 H 2526.97 0.590755 -0.457184 0
M  V30 26623 H 2529.63 1.00569 -1.66949 0
M  V30 26624 H 2528.73 2.52439 -1.83524 0
M  V30 26625 N 2529.03 1.16688 1.05932 0
M  V30 26626 C 2529.98 0.876786 2.13497 0
M  V30 26627 C 2530.95 -0.17627 1.65162 0
M  V30 26628 O 2532.13 -0.0406807 1.90757 0
M  V30 26629 C 2529.27 0.388027 3.42912 0
M  V30 26630 C 2528.38 1.50433 4.04961 0
M  V30 26631 C 2527.52 0.970217 5.22265 0
M  V30 26632 C 2526.56 2.06248 5.76306 0
M  V30 26633 N 2525.7 1.54368 6.8492 0
M  V30 26634 H 2530.54 1.79794 2.37651 0
M  V30 26635 H 2528.07 0.896863 1.16597 0
M  V30 26636 H 2530.03 0.0862593 4.17111 0
M  V30 26637 H 2528.66 -0.496179 3.18964 0
M  V30 26638 H 2527.71 1.92199 3.28274 0
M  V30 26639 H 2529.02 2.32844 4.41118 0
M  V30 26640 H 2528.18 0.621849 6.03505 0
M  V30 26641 H 2526.92 0.115463 4.87563 0
M  V30 26642 H 2525.92 2.41951 4.937 0
M  V30 26643 H 2527.15 2.92126 6.13057 0
M  V30 26644 H 2525.09 0.71152 6.5213 0
M  V30 26645 H 2525.01 2.30392 7.20039 0
M  V30 26646 H 2526.28 1.22401 7.6983 0
M  V30 26647 N 2530.51 -1.24529 0.96594 0
M  V30 26648 C 2531.75 -1.92838 0.627794 0
M  V30 26649 C 2532.09 -1.75348 -0.834663 0
M  V30 26650 O 2531.36 -1.10549 -1.60029 0
M  V30 26651 C 2531.64 -3.45903 1.00115 0
M  V30 26652 C 2531.5 -3.72568 2.52018 0
M  V30 26653 C 2532.82 -4.36843 0.534427 0
M  V30 26654 H 2529.94 -0.70034 0.229549 0
M  V30 26655 H 2532.58 -1.46931 1.20463 0
M  V30 26656 H 2530.73 -3.85134 0.510306 0
M  V30 26657 H 2532.4 -3.42907 3.08565 0
M  V30 26658 H 2530.64 -3.17781 2.95293 0
M  V30 26659 H 2531.31 -4.79657 2.73191 0
M  V30 26660 H 2533.79 -4.04978 0.955636 0
M  V30 26661 H 2532.67 -5.42676 0.824247 0
M  V30 26662 H 2532.93 -4.38468 -0.565512 0
M  V30 26663 N 2531.99 -0.735845 -1.39367 0
M  V30 26664 C 2532.92 -0.111547 -2.33233 0
M  V30 26665 C 2533.9 0.723307 -1.53955 0
M  V30 26666 O 2535.08 0.668115 -1.82345 0
M  V30 26667 C 2532.21 0.795857 -3.38058 0
M  V30 26668 C 2531.17 0.0650968 -4.2795 0
M  V30 26669 C 2530.49 1.08957 -5.23481 0
M  V30 26670 C 2531.79 -1.09282 -5.10739 0
M  V30 26671 H 2533.49 -0.895621 -2.8569 0
M  V30 26672 H 2531.03 -0.432134 -1.37363 0
M  V30 26673 H 2532.98 1.24214 -4.02677 0
M  V30 26674 H 2531.71 1.61206 -2.84043 0
M  V30 26675 H 2530.37 -0.361575 -3.64813 0
M  V30 26676 H 2530.02 1.89936 -4.65761 0
M  V30 26677 H 2529.72 0.605386 -5.84473 0
M  V30 26678 H 2531.24 1.53554 -5.90977 0
M  V30 26679 H 2532.65 -0.72494 -5.68698 0
M  V30 26680 H 2531.05 -1.5067 -5.80877 0
M  V30 26681 H 2532.12 -1.91412 -4.45522 0
M  V30 26682 N 2533.46 1.49999 -0.483543 0
M  V30 26683 C 2534.71 2.01989 0.0669915 0
M  V30 26684 C 2535.03 1.36673 1.39088 0
M  V30 26685 O 2534.3 0.516185 1.88977 0
M  V30 26686 H 2532.88 0.746484 0.0277475 0
M  V30 26687 H 2535.54 1.84203 -0.636805 0
M  V30 26688 H 2534.64 3.11397 0.209429 0
M  V30 26689 N 2534.94 0.216646 1.56104 0
M  V30 26690 C 2536.19 -0.41671 1.97348 0
M  V30 26691 C 2536.5 -1.61248 1.10718 0
M  V30 26692 O 2537.71 -2.31503 1.4184 0
M  V30 26693 C 2536.17 -0.792773 3.5106 0
M  V30 26694 C 2535.77 0.379907 4.46386 0
M  V30 26695 C 2537.52 -1.39201 4.01028 0
M  V30 26696 C 2535.42 -0.0183183 5.91397 0
M  V30 26697 H 2534.35 -0.159462 0.736945 0
M  V30 26698 H 2537.01 0.312082 1.80827 0
M  V30 26699 H 2535.39 -1.57885 3.63164 0
M  V30 26700 H 2536.56 1.15745 4.46027 0
M  V30 26701 H 2534.88 0.89205 4.06733 0
M  V30 26702 H 2537.47 -1.70277 5.06863 0
M  V30 26703 H 2537.82 -2.30608 3.46591 0
M  V30 26704 H 2538.35 -0.669469 3.92126 0
M  V30 26705 H 2535.09 0.862116 6.49806 0
M  V30 26706 H 2534.61 -0.76028 5.94962 0
M  V30 26707 H 2536.29 -0.446705 6.45456 0
M  V30 26708 N 2536.42 -1.57498 -0.0567885 0
M  V30 26709 C 2537.37 -2.01167 -1.07311 0
M  V30 26710 C 2538.35 -0.896194 -1.33631 0
M  V30 26711 O 2539.55 -1.16012 -1.3368 0
M  V30 26712 C 2536.67 -2.47165 -2.38253 0
M  V30 26713 C 2535.76 -3.65478 -2.15143 0
M  V30 26714 N 2536.15 -4.79153 -1.62005 0
M  V30 26715 C 2534.45 -3.72317 -2.45552 0
M  V30 26716 C 2535.15 -5.60928 -1.54059 0
M  V30 26717 N 2534.13 -5.05216 -2.00643 0
M  V30 26718 H 2537.93 -2.86489 -0.655827 0
M  V30 26719 H 2535.44 -1.60246 -0.263607 0
M  V30 26720 H 2537.44 -2.76697 -3.11841 0
M  V30 26721 H 2536.1 -1.63237 -2.80685 0
M  V30 26722 H 2537.11 -5.01147 -1.30659 0
M  V30 26723 H 2533.79 -2.99134 -2.91248 0
M  V30 26724 H 2535.18 -6.6221 -1.13701 0
M  V30 26725 N 2537.9 0.328509 -1.54138 0
M  V30 26726 C 2539.14 1.06861 -1.72361 0
M  V30 26727 C 2539.48 1.87831 -0.493264 0
M  V30 26728 O 2538.75 1.87701 0.509767 0
M  V30 26729 C 2539.03 1.99742 -2.99625 0
M  V30 26730 C 2538.89 1.22135 -4.32901 0
M  V30 26731 C 2540.21 2.9934 -3.2262 0
M  V30 26732 H 2537.33 0.387094 -0.627158 0
M  V30 26733 H 2539.97 0.345734 -1.86828 0
M  V30 26734 H 2538.12 2.61382 -2.87422 0
M  V30 26735 H 2539.79 0.629936 -4.56979 0
M  V30 26736 H 2538.03 0.523553 -4.30629 0
M  V30 26737 H 2538.7 1.90308 -5.18157 0
M  V30 26738 H 2541.18 2.4782 -3.34252 0
M  V30 26739 H 2540.06 3.61517 -4.13033 0
M  V30 26740 H 2540.32 3.71532 -2.39617 0
M  V30 26741 N 2539.38 1.46127 0.590316 0
M  V30 26742 C 2540.62 1.50744 1.34613 0
M  V30 26743 C 2540.94 0.15752 1.94363 0
M  V30 26744 O 2540.21 -0.815104 1.78137 0
M  V30 26745 H 2538.79 0.555184 0.49978 0
M  V30 26746 H 2541.46 1.82204 0.691921 0
M  V30 26747 H 2540.55 2.25591 2.15674 0
M  V30 26748 N 2540.85 -0.834306 1.33705 0
M  V30 26749 C 2542.1 -1.58671 1.25172 0
M  V30 26750 C 2542.42 -1.94156 -0.181236 0
M  V30 26751 O 2541.69 -1.61342 -1.1111 0
M  V30 26752 H 2540.27 -0.588322 0.460311 0
M  V30 26753 H 2542.93 -0.996817 1.6748 0
M  V30 26754 H 2542.03 -2.51462 1.8486 0
M  V30 26755 N 2542.33 -1.17248 -1.05312 0
M  V30 26756 C 2543.28 -0.884276 -2.15136 0
M  V30 26757 C 2544.27 0.1506 -1.68729 0
M  V30 26758 O 2545.48 0.00363509 -1.8 0
M  V30 26759 H 2541.85 -0.268412 -0.702466 0
M  V30 26760 H 2543.83 -1.81769 -2.36649 0
M  V30 26761 C 2542.57 -0.41272 -3.45242 0
M  V30 26762 H 2541.9 -1.2005 -3.8135 0
M  V30 26763 H 2543.34 -0.249932 -4.23263 0
M  V30 26764 C 2541.8 0.869423 -3.25488 0
M  V30 26765 O 2542.33 1.93649 -3.51942 0
M  V30 26766 N 2540.53 0.817098 -2.78876 0
M  V30 26767 H 2540.08 -0.0514664 -2.57549 0
M  V30 26768 H 2540.04 1.67543 -2.66039 0
M  V30 26769 N 2543.81 1.24015 -0.972531 0
M  V30 26770 C 2545.06 1.91838 -0.63581 0
M  V30 26771 C 2545.38 1.76346 0.832281 0
M  V30 26772 O 2544.65 1.13798 1.59458 0
M  V30 26773 H 2543.23 0.710005 -0.232169 0
M  V30 26774 H 2545.89 1.50806 -1.23464 0
M  V30 26775 H 2544.99 2.99419 -0.880597 0
M  V30 26776 N 2545.29 0.743226 1.38974 0
M  V30 26777 C 2546.24 0.084553 2.27843 0
M  V30 26778 C 2547.22 -0.704068 1.44678 0
M  V30 26779 O 2548.41 -0.571725 1.67512 0
M  V30 26780 C 2545.54 -0.815722 3.33468 0
M  V30 26781 C 2544.63 -0.0208098 4.24095 0
M  V30 26782 N 2545.02 1.01029 4.95608 0
M  V30 26783 C 2543.32 -0.249215 4.45303 0
M  V30 26784 C 2544.02 1.49034 5.62284 0
M  V30 26785 N 2543 0.807471 5.37569 0
M  V30 26786 H 2546.8 0.874409 2.80591 0
M  V30 26787 H 2544.31 0.57831 1.51754 0
M  V30 26788 H 2546.31 -1.30314 3.9601 0
M  V30 26789 H 2544.97 -1.60465 2.82279 0
M  V30 26790 H 2545.98 1.39185 4.98847 0
M  V30 26791 H 2542.66 -1.0123 4.05042 0
M  V30 26792 H 2544.05 2.34864 6.29514 0
M  V30 26793 N 2546.77 -1.4974 0.491491 0
M  V30 26794 C 2547.7 -2.26833 -0.328569 0
M  V30 26795 C 2548.71 -1.32985 -0.93909 0
M  V30 26796 O 2549.9 -1.58341 -0.824039 0
M  V30 26797 C 2547 -3.05036 -1.47669 0
M  V30 26798 C 2546.17 -4.2639 -0.97523 0
M  V30 26799 C 2545.23 -4.86717 -1.99982 0
M  V30 26800 O 2544.26 -5.47056 -1.5722 0
M  V30 26801 N 2545.46 -4.75523 -3.32954 0
M  V30 26802 H 2548.23 -2.97851 0.33243 0
M  V30 26803 H 2545.79 -1.58636 0.323469 0
M  V30 26804 H 2547.78 -3.4227 -2.15948 0
M  V30 26805 H 2546.35 -2.36686 -2.04202 0
M  V30 26806 H 2545.57 -3.94024 -0.117653 0
M  V30 26807 H 2546.86 -5.05027 -0.618442 0
M  V30 26808 H 2546.25 -4.27582 -3.70392 0
M  V30 26809 H 2544.81 -5.16968 -3.96973 0
M  V30 26810 N 2548.24 -0.224922 -1.55987 0
M  V30 26811 C 2549.49 0.405064 -1.97999 0
M  V30 26812 C 2549.81 1.60054 -1.1139 0
M  V30 26813 O 2549.08 1.9496 -0.191679 0
M  V30 26814 H 2547.66 0.152645 -0.731238 0
M  V30 26815 H 2550.33 -0.318601 -1.92278 0
M  V30 26816 H 2549.42 0.729113 -3.03464 0
M  V30 26817 N 2549.72 1.57526 0.0484352 0
M  V30 26818 C 2550.97 1.88373 0.743092 0
M  V30 26819 C 2551.3 0.819746 1.76381 0
M  V30 26820 O 2550.55 -0.181625 1.94855 0
M  V30 26821 C 2550.85 3.25938 1.46627 0
M  V30 26822 C 2550.52 4.47111 0.583348 0
M  V30 26823 C 2549.18 4.79997 0.340107 0
M  V30 26824 C 2551.53 5.21193 -0.0274261 0
M  V30 26825 C 2548.86 5.84364 -0.523006 0
M  V30 26826 C 2551.21 6.26476 -0.878127 0
M  V30 26827 C 2549.88 6.57848 -1.13102 0
M  V30 26828 H 2549.15 0.689306 0.271917 0
M  V30 26829 H 2551.79 1.915 0.003328 0
M  V30 26830 H 2550.1 3.1871 2.27885 0
M  V30 26831 H 2551.79 3.47048 2.00895 0
M  V30 26832 H 2548.38 4.21386 0.783077 0
M  V30 26833 H 2552.57 4.96081 0.147567 0
M  V30 26834 H 2547.82 6.07057 -0.727441 0
M  V30 26835 H 2552 6.83031 -1.35801 0
M  V30 26836 H 2549.63 7.38544 -1.80157 0
M  V30 26837 N 2551.2 -0.32033 1.5431 0
M  V30 26838 C 2552.43 -1.08172 1.76956 0
M  V30 26839 C 2552.85 -1.8082 0.518225 0
M  V30 26840 O 2552.21 -1.73369 -0.530381 0
M  V30 26841 C 2552.26 -2.05298 2.96454 0
M  V30 26842 O 2551.36 -3.13255 2.68226 0
M  V30 26843 H 2550.7 -0.311723 0.586281 0
M  V30 26844 H 2553.23 -0.36364 2.01343 0
M  V30 26845 H 2553.24 -2.4811 3.23891 0
M  V30 26846 H 2551.92 -1.51822 3.87199 0
M  V30 26847 H 2550.49 -2.75094 2.51749 0
M  V30 26848 N 2552.68 -1.46438 -0.582558 0
M  V30 26849 C 2553.64 -1.56595 -1.67363 0
M  V30 26850 C 2554.64 -0.443099 -1.54574 0
M  V30 26851 O 2555.83 -0.707409 -1.5919 0
M  V30 26852 C 2552.96 -1.48639 -3.06789 0
M  V30 26853 H 2554.16 -2.53833 -1.59715 0
M  V30 26854 H 2551.71 -1.3425 -0.800409 0
M  V30 26855 H 2552.44 -0.526819 -3.19992 0
M  V30 26856 H 2552.23 -2.30106 -3.1748 0
M  V30 26857 H 2553.72 -1.58833 -3.86215 0
M  V30 26858 N 2554.16 0.827204 -1.34146 0
M  V30 26859 C 2555.12 1.9194 -1.25267 0
M  V30 26860 C 2556.12 1.59911 -0.168894 0
M  V30 26861 O 2557.31 1.69031 -0.421227 0
M  V30 26862 C 2554.44 3.27884 -0.933009 0
M  V30 26863 H 2555.63 2.01236 -2.22361 0
M  V30 26864 H 2553.19 1.02067 -1.18372 0
M  V30 26865 H 2553.92 3.24281 0.0349347 0
M  V30 26866 H 2553.71 3.52513 -1.71689 0
M  V30 26867 H 2555.2 4.07876 -0.895946 0
M  V30 26868 N 2555.63 1.17805 1.04688 0
M  V30 26869 C 2556.56 0.922788 2.14492 0
M  V30 26870 C 2557.55 -0.137149 1.69546 0
M  V30 26871 O 2558.73 0.014145 1.94195 0
M  V30 26872 C 2555.86 0.440864 3.4449 0
M  V30 26873 C 2554.81 1.44057 4.03028 0
M  V30 26874 C 2554.14 0.816403 5.28431 0
M  V30 26875 C 2555.44 2.81535 4.39927 0
M  V30 26876 H 2557.13 1.84107 2.36104 0
M  V30 26877 H 2554.68 0.886619 1.13468 0
M  V30 26878 H 2556.63 0.249676 4.2066 0
M  V30 26879 H 2555.36 -0.512968 3.22546 0
M  V30 26880 H 2554.02 1.61859 3.28934 0
M  V30 26881 H 2553.66 -0.144423 5.02793 0
M  V30 26882 H 2553.36 1.48381 5.68557 0
M  V30 26883 H 2554.89 0.635603 6.07283 0
M  V30 26884 H 2556.3 2.67421 5.07108 0
M  V30 26885 H 2554.7 3.449 4.91084 0
M  V30 26886 H 2555.77 3.35561 3.50039 0
M  V30 26887 N 2557.11 -1.23497 0.979094 0
M  V30 26888 C 2558.04 -2.27226 0.537646 0
M  V30 26889 C 2559.02 -1.64614 -0.42851 0
M  V30 26890 O 2560.21 -1.91509 -0.322157 0
M  V30 26891 C 2557.34 -3.46922 -0.161991 0
M  V30 26892 C 2556.29 -4.21878 0.721317 0
M  V30 26893 C 2555.62 -5.34586 -0.110461 0
M  V30 26894 C 2556.92 -4.82013 2.01149 0
M  V30 26895 H 2558.61 -2.64404 1.40467 0
M  V30 26896 H 2556.16 -1.27101 0.676863 0
M  V30 26897 H 2558.11 -4.18633 -0.482119 0
M  V30 26898 H 2556.84 -3.08801 -1.06345 0
M  V30 26899 H 2555.49 -3.51983 1.02488 0
M  V30 26900 H 2555.14 -4.92706 -1.01242 0
M  V30 26901 H 2554.84 -5.85657 0.477428 0
M  V30 26902 H 2556.37 -6.09119 -0.424999 0
M  V30 26903 H 2557.78 -5.45738 1.75622 0
M  V30 26904 H 2556.18 -5.43365 2.54705 0
M  V30 26905 H 2557.25 -4.02831 2.69916 0
M  V30 26906 N 2558.59 -0.750586 -1.38578 0
M  V30 26907 C 2559.54 -0.120876 -2.30483 0
M  V30 26908 C 2560.51 0.712896 -1.50023 0
M  V30 26909 O 2561.69 0.669645 -1.78663 0
M  V30 26910 C 2558.83 0.768606 -3.36432 0
M  V30 26911 C 2557.95 -0.0794681 -4.31927 0
M  V30 26912 C 2557.08 0.812737 -5.24946 0
M  V30 26913 C 2556.12 -0.0391523 -6.12087 0
M  V30 26914 N 2555.26 0.809846 -6.97414 0
M  V30 26915 H 2560.1 -0.9102 -2.83759 0
M  V30 26916 H 2557.63 -0.460488 -1.39707 0
M  V30 26917 H 2559.59 1.29891 -3.96464 0
M  V30 26918 H 2558.22 1.52375 -2.84573 0
M  V30 26919 H 2557.27 -0.727369 -3.73381 0
M  V30 26920 H 2558.59 -0.737488 -4.93318 0
M  V30 26921 H 2557.74 1.41032 -5.9008 0
M  V30 26922 H 2556.48 1.5045 -4.63914 0
M  V30 26923 H 2555.48 -0.649424 -5.45951 0
M  V30 26924 H 2556.71 -0.727928 -6.75187 0
M  V30 26925 H 2554.66 1.48661 -6.38933 0
M  V30 26926 H 2554.57 0.208657 -7.55712 0
M  V30 26927 H 2555.84 1.3925 -7.66961 0
M  V30 26928 N 2560.07 1.49477 -0.499425 0
M  V30 26929 C 2561.02 2.2603 0.299063 0
M  V30 26930 C 2562 1.30808 0.936911 0
M  V30 26931 O 2563.2 1.5554 0.844771 0
M  V30 26932 C 2560.32 3.15046 1.36385 0
M  V30 26933 C 2559.41 4.17729 0.732325 0
M  V30 26934 N 2559.8 5.05534 -0.164117 0
M  V30 26935 C 2558.1 4.34803 0.993086 0
M  V30 26936 C 2558.8 5.79322 -0.525446 0
M  V30 26937 N 2557.78 5.43496 0.106252 0
M  V30 26938 H 2561.58 2.91287 -0.391054 0
M  V30 26939 H 2559.09 1.59308 -0.315398 0
M  V30 26940 H 2561.09 3.6852 1.94933 0
M  V30 26941 H 2559.75 2.51341 2.05567 0
M  V30 26942 H 2560.76 5.15131 -0.534827 0
M  V30 26943 H 2557.44 3.82305 1.67777 0
M  V30 26944 H 2558.83 6.60004 -1.25873 0
M  V30 26945 N 2561.55 0.233191 1.55865 0
M  V30 26946 C 2562.78 -0.39929 2.02705 0
M  V30 26947 C 2563.19 -1.53067 1.11207 0
M  V30 26948 O 2562.53 -1.83332 0.116214 0
M  V30 26949 C 2562.59 -0.981369 3.45846 0
M  V30 26950 C 2562.25 0.0160365 4.56997 0
M  V30 26951 C 2563.25 0.820642 5.13382 0
M  V30 26952 C 2560.94 0.138161 5.0211 0
M  V30 26953 C 2562.93 1.73396 6.13362 0
M  V30 26954 C 2560.62 1.055 6.01924 0
M  V30 26955 C 2561.62 1.85144 6.57427 0
M  V30 26956 O 2561.3 2.75285 7.55297 0
M  V30 26957 H 2561.04 -0.10068 0.668461 0
M  V30 26958 H 2563.59 0.350555 2.02386 0
M  V30 26959 H 2561.82 -1.78052 3.4327 0
M  V30 26960 H 2563.51 -1.52248 3.76265 0
M  V30 26961 H 2564.27 0.736805 4.79371 0
M  V30 26962 H 2560.15 -0.471656 4.58581 0
M  V30 26963 H 2563.7 2.35604 6.5661 0
M  V30 26964 H 2559.59 1.13981 6.35357 0
M  V30 26965 H 2560.36 2.69491 7.72863 0
M  V30 26966 N 2563.03 -1.57549 -0.0400806 0
M  V30 26967 C 2564.27 -1.88764 -0.733092 0
M  V30 26968 C 2564.6 -0.829089 -1.75944 0
M  V30 26969 O 2563.86 0.171289 -1.94949 0
M  V30 26970 C 2564.15 -3.26711 -1.44896 0
M  V30 26971 C 2563.82 -4.47414 -0.559629 0
M  V30 26972 C 2562.48 -4.8017 -0.314647 0
M  V30 26973 C 2564.83 -5.21171 0.0550659 0
M  V30 26974 C 2562.16 -5.84079 0.553989 0
M  V30 26975 C 2564.51 -6.26001 0.911339 0
M  V30 26976 C 2563.18 -6.57239 1.16589 0
M  V30 26977 H 2562.45 -0.690738 -0.268257 0
M  V30 26978 H 2565.1 -1.91499 0.00682774 0
M  V30 26979 H 2563.4 -3.19914 -2.26191 0
M  V30 26980 H 2565.1 -3.48108 -1.99052 0
M  V30 26981 H 2561.69 -4.21795 -0.760719 0
M  V30 26982 H 2565.87 -4.96152 -0.121257 0
M  V30 26983 H 2561.13 -6.06663 0.759625 0
M  V30 26984 H 2565.3 -6.82301 1.39422 0
M  V30 26985 H 2562.93 -7.37578 1.84071 0
M  V30 26986 N 2564.5 0.312142 -1.54478 0
M  V30 26987 C 2565.45 1.40466 -1.85397 0
M  V30 26988 C 2566.45 1.53017 -0.726776 0
M  V30 26989 O 2567.65 1.55267 -0.910609 0
M  V30 26990 H 2564.03 0.46897 -0.587853 0
M  V30 26991 H 2566 1.11618 -2.76738 0
M  V30 26992 C 2564.75 2.765 -2.10816 0
M  V30 26993 H 2564.07 2.67619 -2.97018 0
M  V30 26994 H 2565.51 3.51984 -2.36396 0
M  V30 26995 C 2563.97 3.24567 -0.903222 0
M  V30 26996 O 2564.5 4.01526 -0.118155 0
M  V30 26997 N 2562.7 2.81751 -0.711684 0
M  V30 26998 H 2562.25 2.19284 -1.35175 0
M  V30 26999 H 2562.21 3.14262 0.0929921 0
M  V30 27000 N 2565.98 1.46745 0.574784 0
M  V30 27001 C 2567.26 1.42942 1.33518 0
M  V30 27002 C 2567.64 0.117046 2.10775 0
M  V30 27003 O 2566.99 -0.901437 2.09968 0
M  V30 27004 C 2567.2 2.66407 2.25451 0
M  V30 27005 C 2568.54 3.12888 2.8703 0
M  V30 27006 O 2569.57 2.67011 2.35761 0
M  V30 27007 O 2568.43 3.92596 3.80172 0
M  V30 27008 H 2565.52 0.568823 0.600308 0
M  V30 27009 H 2568.07 1.58922 0.595143 0
M  V30 27010 H 2566.84 3.53474 1.67845 0
M  V30 27011 H 2566.46 2.52926 3.0678 0
M  V30 27012 N 2567.46 -0.820078 1.34583 0
M  V30 27013 C 2568.37 -1.96294 1.28474 0
M  V30 27014 C 2569.39 -1.72938 0.191932 0
M  V30 27015 O 2570.56 -1.96995 0.418914 0
M  V30 27016 C 2567.63 -3.30643 1.04287 0
M  V30 27017 C 2566.69 -3.66988 2.22752 0
M  V30 27018 C 2565.92 -4.94926 1.99709 0
M  V30 27019 O 2566.14 -5.62319 0.956755 0
M  V30 27020 O 2565.08 -5.29215 2.86732 0
M  V30 27021 H 2568.9 -2.04392 2.24628 0
M  V30 27022 H 2566.49 -0.955893 1.14817 0
M  V30 27023 H 2568.37 -4.11102 0.925914 0
M  V30 27024 H 2567.05 -3.23507 0.111754 0
M  V30 27025 H 2565.95 -2.86962 2.40008 0
M  V30 27026 H 2567.29 -3.78813 3.14263 0
M  V30 27027 N 2568.94 -1.18359 -1.04062 0
M  V30 27028 C 2569.87 -0.868396 -2.12112 0
M  V30 27029 C 2570.88 0.134016 -1.62247 0
M  V30 27030 O 2572.07 -0.0938246 -1.78253 0
M  V30 27031 C 2569.17 -0.276192 -3.37773 0
M  V30 27032 C 2568.34 -1.32427 -4.16871 0
M  V30 27033 C 2567.4 -0.747753 -5.2086 0
M  V30 27034 O 2566.43 -1.42249 -5.51139 0
M  V30 27035 N 2567.63 0.454721 -5.78716 0
M  V30 27036 H 2570.4 -1.79841 -2.39745 0
M  V30 27037 H 2567.96 -1.08398 -1.20256 0
M  V30 27038 H 2569.95 0.123062 -4.04513 0
M  V30 27039 H 2568.52 0.557841 -3.07582 0
M  V30 27040 H 2567.74 -1.89884 -3.45453 0
M  V30 27041 H 2569.03 -2.03086 -4.66512 0
M  V30 27042 H 2568.43 1.02063 -5.56417 0
M  V30 27043 H 2566.98 0.795896 -6.46923 0
M  V30 27044 N 2570.42 1.22976 -0.98563 0
M  V30 27045 C 2571.66 1.91153 -0.656121 0
M  V30 27046 C 2571.98 1.77219 0.81353 0
M  V30 27047 O 2571.25 1.15483 1.58242 0
M  V30 27048 H 2569.83 0.707502 -0.239687 0
M  V30 27049 H 2572.5 1.49488 -1.25057 0
M  V30 27050 H 2571.59 2.98468 -0.912305 0
M  V30 27051 N 2571.89 0.757924 1.38178 0
M  V30 27052 C 2572.8 0.135288 2.3421 0
M  V30 27053 C 2573.82 -0.695655 1.59489 0
M  V30 27054 O 2575 -0.618798 1.91658 0
M  V30 27055 C 2572.06 -0.744079 3.38621 0
M  V30 27056 C 2571.12 0.101733 4.29179 0
M  V30 27057 C 2570.35 -0.735758 5.28604 0
M  V30 27058 O 2570.58 -1.97356 5.3517 0
M  V30 27059 O 2569.51 -0.152266 6.01707 0
M  V30 27060 H 2573.34 0.928487 2.89159 0
M  V30 27061 H 2570.92 0.518879 1.401 0
M  V30 27062 H 2572.8 -1.24653 4.02541 0
M  V30 27063 H 2571.48 -1.5157 2.86021 0
M  V30 27064 H 2570.39 0.650232 3.68406 0
M  V30 27065 H 2571.72 0.83611 4.85046 0
M  V30 27066 N 2573.37 -1.4921 0.507345 0
M  V30 27067 C 2574.62 -2.01666 -0.0367961 0
M  V30 27068 C 2574.93 -1.39159 -1.37456 0
M  V30 27069 O 2576.14 -1.82979 -2.00576 0
M  V30 27070 C 2574.6 -3.59713 -0.116026 0
M  V30 27071 C 2574.2 -4.31196 1.21548 0
M  V30 27072 C 2575.95 -4.20092 -0.610195 0
M  V30 27073 C 2573.86 -5.81117 1.09807 0
M  V30 27074 H 2572.79 -0.753796 -0.0175244 0
M  V30 27075 H 2575.44 -1.71688 0.647721 0
M  V30 27076 H 2573.82 -3.86434 -0.865132 0
M  V30 27077 H 2574.99 -4.16169 1.97837 0
M  V30 27078 H 2573.31 -3.8259 1.64359 0
M  V30 27079 H 2575.9 -5.29889 -0.715649 0
M  V30 27080 H 2576.25 -3.83883 -1.61057 0
M  V30 27081 H 2576.78 -3.97714 0.0825615 0
M  V30 27082 H 2573.52 -6.21861 2.07291 0
M  V30 27083 H 2573.04 -5.98619 0.376164 0
M  V30 27084 H 2574.72 -6.42288 0.779394 0
M  V30 27085 N 2574.85 -0.241454 -1.55739 0
M  V30 27086 C 2575.76 0.671266 -2.24791 0
M  V30 27087 C 2576.78 1.1977 -1.26219 0
M  V30 27088 O 2577.95 1.23512 -1.59081 0
M  V30 27089 C 2575.02 1.85391 -2.9297 0
M  V30 27090 C 2574.08 1.36749 -4.06938 0
M  V30 27091 C 2573.31 2.49376 -4.71855 0
M  V30 27092 O 2573.53 3.6798 -4.35829 0
M  V30 27093 O 2572.47 2.19444 -5.60471 0
M  V30 27094 H 2576.29 0.112913 -3.0349 0
M  V30 27095 H 2573.88 -0.0101776 -1.49397 0
M  V30 27096 H 2575.76 2.54417 -3.35931 0
M  V30 27097 H 2574.44 2.39998 -2.17215 0
M  V30 27098 H 2573.34 0.644661 -3.68504 0
M  V30 27099 H 2574.68 0.867561 -4.84494 0
M  V30 27100 N 2576.33 1.57568 0.0317248 0
M  V30 27101 C 2577.58 1.89151 0.723071 0
M  V30 27102 C 2577.9 0.838408 1.75502 0
M  V30 27103 O 2577.16 -0.160948 1.95037 0
M  V30 27104 C 2577.46 3.27475 1.43161 0
M  V30 27105 C 2577.12 4.47704 0.535893 0
M  V30 27106 C 2575.79 4.8033 0.289178 0
M  V30 27107 C 2578.14 5.21134 -0.0827041 0
M  V30 27108 C 2575.47 5.83777 -0.584956 0
M  V30 27109 C 2577.82 6.25509 -0.944524 0
M  V30 27110 C 2576.48 6.56612 -1.20073 0
M  V30 27111 H 2575.75 0.692151 0.26459 0
M  V30 27112 H 2578.4 1.91492 -0.0169833 0
M  V30 27113 H 2576.7 3.21109 2.24492 0
M  V30 27114 H 2578.4 3.49159 1.97203 0
M  V30 27115 H 2574.99 4.22193 0.738339 0
M  V30 27116 H 2579.17 4.96209 0.094943 0
M  V30 27117 H 2574.43 6.06251 -0.791787 0
M  V30 27118 H 2578.6 6.81552 -1.43038 0
M  V30 27119 H 2576.23 7.36592 -1.8798 0
M  V30 27120 N 2577.81 -0.303946 1.54641 0
M  V30 27121 C 2579.06 -1.03714 1.72992 0
M  V30 27122 C 2579.37 -1.88528 0.521201 0
M  V30 27123 O 2580.57 -2.6509 0.586454 0
M  V30 27124 C 2579.03 -1.89364 3.06054 0
M  V30 27125 C 2578.64 -1.09567 4.34395 0
M  V30 27126 C 2580.38 -2.62301 3.33764 0
M  V30 27127 C 2578.29 -1.94476 5.5851 0
M  V30 27128 H 2577.22 -0.390936 0.644737 0
M  V30 27129 H 2579.87 -0.294296 1.81125 0
M  V30 27130 H 2578.25 -2.67624 2.91879 0
M  V30 27131 H 2579.43 -0.359404 4.59396 0
M  V30 27132 H 2577.74 -0.482252 4.13598 0
M  V30 27133 H 2580.34 -3.26173 4.23692 0
M  V30 27134 H 2580.68 -3.30976 2.52509 0
M  V30 27135 H 2581.21 -1.91091 3.48897 0
M  V30 27136 H 2577.95 -1.30276 6.42424 0
M  V30 27137 H 2577.47 -2.65783 5.37698 0
M  V30 27138 H 2579.15 -2.52594 5.95655 0
M  V30 27139 N 2579.28 -1.47047 -0.566994 0
M  V30 27140 C 2580.19 -1.61413 -1.70244 0
M  V30 27141 C 2581.21 -0.497186 -1.66745 0
M  V30 27142 O 2582.39 -0.763422 -1.8637 0
M  V30 27143 C 2579.45 -1.61566 -3.06753 0
M  V30 27144 C 2578.51 -2.84613 -3.21394 0
M  V30 27145 C 2577.75 -2.84749 -4.51391 0
M  V30 27146 O 2577.97 -1.94398 -5.36252 0
M  V30 27147 O 2576.9 -3.76491 -4.69615 0
M  V30 27148 H 2580.73 -2.5747 -1.61069 0
M  V30 27149 H 2578.31 -1.3002 -0.735871 0
M  V30 27150 H 2580.2 -1.64403 -3.88007 0
M  V30 27151 H 2578.87 -0.686739 -3.16331 0
M  V30 27152 H 2577.78 -2.87324 -2.39574 0
M  V30 27153 H 2579.11 -3.76766 -3.16714 0
M  V30 27154 N 2580.76 0.812929 -1.35016 0
M  V30 27155 C 2581.99 1.60636 -1.3119 0
M  V30 27156 C 2582.41 1.87782 0.109349 0
M  V30 27157 O 2581.77 1.46049 1.07421 0
M  V30 27158 C 2581.82 2.91834 -2.11814 0
M  V30 27159 O 2580.92 3.84367 -1.49451 0
M  V30 27160 H 2580.26 0.488173 -0.450092 0
M  V30 27161 H 2582.79 1.00944 -1.77965 0
M  V30 27162 H 2582.8 3.41314 -2.23537 0
M  V30 27163 H 2581.48 2.71401 -3.15142 0
M  V30 27164 H 2580.06 3.42904 -1.4653 0
M  V30 27165 N 2582.24 1.18909 1.03433 0
M  V30 27166 C 2583.47 1.01409 1.80917 0
M  V30 27167 C 2583.89 -0.432689 1.83056 0
M  V30 27168 O 2583.25 -1.31077 1.25254 0
M  V30 27169 C 2583.3 1.58111 3.24089 0
M  V30 27170 O 2582.4 0.80674 4.04432 0
M  V30 27171 H 2581.74 0.358813 0.558703 0
M  V30 27172 H 2584.27 1.57809 1.30221 0
M  V30 27173 H 2584.28 1.61093 3.74851 0
M  V30 27174 H 2582.96 2.63415 3.21846 0
M  V30 27175 H 2581.53 0.84973 3.6309 0
M  V30 27176 N 2583.72 -1.22452 0.992137 0
M  V30 27177 C 2584.67 -2.24351 0.54177 0
M  V30 27178 C 2585.64 -1.60558 -0.425491 0
M  V30 27179 O 2586.82 -1.87917 -0.33042 0
M  V30 27180 C 2583.96 -3.44823 -0.138187 0
M  V30 27181 C 2583.07 -4.23134 0.870723 0
M  V30 27182 C 2582.21 -5.30946 0.164362 0
M  V30 27183 C 2581.25 -6.00975 1.16169 0
M  V30 27184 N 2580.38 -7.00432 0.483691 0
M  V30 27185 H 2585.22 -2.62238 1.41545 0
M  V30 27186 H 2582.76 -1.28884 0.709036 0
M  V30 27187 H 2584.72 -4.13568 -0.549327 0
M  V30 27188 H 2583.35 -3.07702 -0.975667 0
M  V30 27189 H 2582.4 -3.53693 1.40019 0
M  V30 27190 H 2583.71 -4.71408 1.63022 0
M  V30 27191 H 2582.87 -6.0594 -0.303547 0
M  V30 27192 H 2581.61 -4.83644 -0.627648 0
M  V30 27193 H 2580.61 -5.24763 1.64024 0
M  V30 27194 H 2581.84 -6.50364 1.95457 0
M  V30 27195 H 2579.78 -6.55364 -0.288897 0
M  V30 27196 H 2579.7 -7.46708 1.18165 0
M  V30 27197 H 2580.97 -7.7949 0.0385589 0
M  V30 27198 N 2585.2 -0.765242 -1.37774 0
M  V30 27199 C 2586.47 -0.251631 -1.93975 0
M  V30 27200 C 2586.85 1.25219 -1.69951 0
M  V30 27201 O 2586.2 2.03224 -1.04461 0
M  V30 27202 C 2586.41 -0.617955 -3.43486 0
M  V30 27203 C 2587.76 -0.584102 -4.20563 0
M  V30 27204 O 2588.78 -0.55695 -3.51819 0
M  V30 27205 O 2587.64 -0.605386 -5.43137 0
M  V30 27206 H 2584.74 -0.0561951 -0.825089 0
M  V30 27207 H 2587.28 -0.846154 -1.471 0
M  V30 27208 H 2586.05 -1.65608 -3.54527 0
M  V30 27209 H 2585.68 0.00396422 -3.976 0
M  V30 27210 N 2586.67 1.48939 -0.515251 0
M  V30 27211 C 2587.64 2.27891 0.244641 0
M  V30 27212 C 2588.64 1.34508 0.881143 0
M  V30 27213 O 2589.83 1.57538 0.743469 0
M  V30 27214 C 2586.96 3.12926 1.35242 0
M  V30 27215 H 2588.15 2.9653 -0.448341 0
M  V30 27216 H 2585.71 1.53938 -0.270683 0
M  V30 27217 H 2586.44 2.48884 2.07911 0
M  V30 27218 H 2586.23 3.816 0.901307 0
M  V30 27219 H 2587.72 3.72519 1.88731 0
M  V30 27220 N 2588.15 0.249709 1.55609 0
M  V30 27221 C 2589.4 -0.373513 1.98618 0
M  V30 27222 C 2589.72 -1.58262 1.13922 0
M  V30 27223 O 2588.99 -1.9463 0.222671 0
M  V30 27224 H 2587.57 -0.140993 0.733573 0
M  V30 27225 H 2590.23 0.34915 1.91747 0
M  V30 27226 H 2589.33 -0.680743 3.04585 0
M  V30 27227 N 2589.63 -1.57583 -0.0233682 0
M  V30 27228 C 2590.88 -1.89531 -0.713029 0
M  V30 27229 C 2591.21 -0.847703 -1.75055 0
M  V30 27230 O 2590.46 0.150602 -1.9512 0
M  V30 27231 C 2590.76 -3.28229 -1.41423 0
M  V30 27232 C 2590.43 -4.47982 -0.512143 0
M  V30 27233 C 2589.09 -4.80477 -0.2637 0
M  V30 27234 C 2591.44 -5.21083 0.11034 0
M  V30 27235 C 2588.77 -5.83458 0.615907 0
M  V30 27236 C 2591.12 -6.24999 0.977683 0
M  V30 27237 C 2589.78 -6.55966 1.23553 0
M  V30 27238 H 2589.05 -0.693544 -0.260916 0
M  V30 27239 H 2591.7 -1.91481 0.0271384 0
M  V30 27240 H 2590.01 -3.22295 -2.22786 0
M  V30 27241 H 2591.7 -3.502 -1.95349 0
M  V30 27242 H 2588.29 -4.22578 -0.715939 0
M  V30 27243 H 2592.48 -4.96253 -0.0686265 0
M  V30 27244 H 2587.73 -6.05823 0.823927 0
M  V30 27245 H 2591.91 -6.80784 1.4665 0
M  V30 27246 H 2589.53 -7.35585 1.91883 0
M  V30 27247 N 2591.11 0.29574 -1.548 0
M  V30 27248 C 2592.52 0.868382 -1.65276 0
M  V30 27249 C 2592.87 1.87893 -0.564844 0
M  V30 27250 O 2592 2.14343 0.297632 0
M  V30 27251 C 2592.59 1.58183 -2.99606 0
M  V30 27252 C 2591.15 2.1028 -3.12184 0
M  V30 27253 C 2590.3 0.937224 -2.60982 0
M  V30 27254 H 2593.25 0.0726144 -1.58534 0
M  V30 27255 H 2593.27 2.44767 -2.91323 0
M  V30 27256 H 2592.78 0.846085 -3.78765 0
M  V30 27257 H 2590.88 2.86885 -2.37755 0
M  V30 27258 H 2591 2.33372 -4.18419 0
M  V30 27259 H 2589.36 1.32427 -2.17567 0
M  V30 27260 H 2590.14 0.215354 -3.42624 0
M  V30 27261 N 2592.59 1.47346 0.559187 0
M  V30 27262 C 2593.84 1.5313 1.31278 0
M  V30 27263 C 2594.15 0.197378 1.94602 0
M  V30 27264 O 2595.36 0.133201 2.71173 0
M  V30 27265 C 2593.81 2.69929 2.38046 0
M  V30 27266 C 2593.42 4.09843 1.80922 0
M  V30 27267 C 2595.16 2.85004 3.14599 0
M  V30 27268 C 2593.07 5.17945 2.85459 0
M  V30 27269 H 2592 0.569975 0.493604 0
M  V30 27270 H 2594.65 1.73616 0.594125 0
M  V30 27271 H 2593.03 2.4282 3.12817 0
M  V30 27272 H 2594.21 4.46847 1.12537 0
M  V30 27273 H 2592.52 3.99636 1.1696 0
M  V30 27274 H 2595.12 3.62936 3.92659 0
M  V30 27275 H 2595.46 1.93375 3.68662 0
M  V30 27276 H 2596 3.11875 2.46939 0
M  V30 27277 H 2592.73 6.11445 2.36254 0
M  V30 27278 H 2592.25 4.85461 3.52261 0
M  V30 27279 H 2593.93 5.44809 3.48987 0
M  V30 27280 N 2594.07 -0.805758 1.35445 0
M  V30 27281 C 2595.31 -1.55799 1.281 0
M  V30 27282 C 2595.63 -1.95081 -0.142393 0
M  V30 27283 O 2596.83 -2.69386 -0.338122 0
M  V30 27284 C 2595.29 -2.8117 2.24658 0
M  V30 27285 C 2594.9 -2.49123 3.72346 0
M  V30 27286 C 2596.64 -3.59177 2.26257 0
M  V30 27287 C 2594.55 -3.70791 4.60726 0
M  V30 27288 H 2593.48 -0.5848 0.475947 0
M  V30 27289 H 2596.13 -0.885632 1.60713 0
M  V30 27290 H 2594.51 -3.50121 1.85017 0
M  V30 27291 H 2595.69 -1.88173 4.20627 0
M  V30 27292 H 2594 -1.8436 3.73364 0
M  V30 27293 H 2596.6 -4.49547 2.89503 0
M  V30 27294 H 2596.94 -3.96566 1.26654 0
M  V30 27295 H 2597.47 -2.97189 2.64431 0
M  V30 27296 H 2594.21 -3.3851 5.6133 0
M  V30 27297 H 2593.73 -4.30963 4.1717 0
M  V30 27298 H 2595.41 -4.3801 4.7619 0
M  V30 27299 N 2595.54 -1.19456 -1.02801 0
M  V30 27300 C 2596.49 -0.929711 -2.13211 0
M  V30 27301 C 2597.49 0.114776 -1.69011 0
M  V30 27302 O 2598.69 -0.0345463 -1.79967 0
M  V30 27303 H 2595.07 -0.283252 -0.696615 0
M  V30 27304 H 2597.04 -1.86747 -2.3274 0
M  V30 27305 C 2595.79 -0.485858 -3.44289 0
M  V30 27306 H 2595.11 -1.28112 -3.78718 0
M  V30 27307 H 2596.55 -0.339656 -4.22637 0
M  V30 27308 C 2595.01 0.800187 -3.27259 0
M  V30 27309 O 2595.54 1.8614 -3.5597 0
M  V30 27310 N 2593.74 0.75776 -2.80547 0
M  V30 27311 H 2593.29 -0.106085 -2.57381 0
M  V30 27312 H 2593.25 1.61862 -2.69533 0
M  V30 27313 N 2597.02 1.21924 -0.998617 0
M  V30 27314 C 2598.25 1.94831 -0.69632 0
M  V30 27315 C 2598.66 1.73693 0.740001 0
M  V30 27316 O 2598.02 1.03956 1.49998 0
M  V30 27317 C 2598.07 3.47397 -0.999894 0
M  V30 27318 O 2597.79 3.67829 -2.37978 0
M  V30 27319 C 2599.29 4.37478 -0.716102 0
M  V30 27320 H 2596.51 0.619782 -0.257122 0
M  V30 27321 H 2599.06 1.54918 -1.33494 0
M  V30 27322 H 2597.21 3.85256 -0.406986 0
M  V30 27323 H 2597.63 4.61979 -2.48346 0
M  V30 27324 H 2599.1 5.43254 -0.978737 0
M  V30 27325 H 2599.58 4.37804 0.349891 0
M  V30 27326 H 2600.18 4.05254 -1.29032 0
M  V30 27327 N 2598.5 0.772537 1.37367 0
M  V30 27328 C 2599.91 0.402525 1.82309 0
M  V30 27329 C 2600.26 -1.07144 1.64362 0
M  V30 27330 O 2599.39 -1.82988 1.15517 0
M  V30 27331 C 2599.98 0.723835 3.30977 0
M  V30 27332 C 2598.54 0.406868 3.74195 0
M  V30 27333 C 2597.69 0.967264 2.59883 0
M  V30 27334 H 2600.64 0.967121 1.25827 0
M  V30 27335 H 2600.66 0.0087752 3.80499 0
M  V30 27336 H 2600.17 1.79666 3.44008 0
M  V30 27337 H 2598.27 -0.658608 3.66733 0
M  V30 27338 H 2598.39 0.915671 4.70268 0
M  V30 27339 H 2596.75 0.39146 2.51674 0
M  V30 27340 H 2597.53 2.04551 2.75706 0
M  V30 27341 N 2599.98 -1.48664 0.523142 0
M  V30 27342 C 2601.2 -2.07397 -0.011692 0
M  V30 27343 C 2601.63 -1.37805 -1.28029 0
M  V30 27344 O 2600.99 -0.441793 -1.75835 0
M  V30 27345 C 2601.03 -3.59893 -0.225723 0
M  V30 27346 O 2600.14 -3.91512 -1.29585 0
M  V30 27347 H 2599.48 -0.663019 0.036079 0
M  V30 27348 H 2602.01 -1.91168 0.7291 0
M  V30 27349 H 2602.02 -4.05505 -0.45048 0
M  V30 27350 H 2600.69 -4.09949 0.701016 0
M  V30 27351 H 2599.27 -3.57686 -1.05429 0
M  V30 27352 N 2601.46 -0.257958 -1.55475 0
M  V30 27353 C 2602.4 0.6369 -2.21838 0
M  V30 27354 C 2603.37 1.16292 -1.18598 0
M  V30 27355 O 2604.56 1.21537 -1.47083 0
M  V30 27356 C 2601.7 1.82312 -2.93013 0
M  V30 27357 C 2600.81 1.33258 -4.10934 0
M  V30 27358 C 2599.95 2.47923 -4.69795 0
M  V30 27359 C 2598.98 1.95786 -5.79943 0
M  V30 27360 N 2598.12 3.03859 -6.32941 0
M  V30 27361 H 2602.96 0.0643067 -2.97931 0
M  V30 27362 H 2600.5 0.0199772 -1.47086 0
M  V30 27363 H 2602.46 2.52012 -3.32484 0
M  V30 27364 H 2601.09 2.36801 -2.19374 0
M  V30 27365 H 2600.14 0.529244 -3.767 0
M  V30 27366 H 2601.45 0.910568 -4.90418 0
M  V30 27367 H 2600.6 3.25647 -5.11898 0
M  V30 27368 H 2599.34 2.93431 -3.89551 0
M  V30 27369 H 2598.35 1.16536 -5.37308 0
M  V30 27370 H 2599.57 1.51234 -6.62046 0
M  V30 27371 H 2597.52 3.48781 -5.55597 0
M  V30 27372 H 2597.44 2.66023 -7.07649 0
M  V30 27373 H 2598.7 3.81609 -6.79702 0
M  V30 27374 N 2602.93 1.57593 0.0150108 0
M  V30 27375 C 2604.16 1.94176 0.71436 0
M  V30 27376 C 2604.58 0.858871 1.68133 0
M  V30 27377 O 2603.93 -0.163535 1.81766 0
M  V30 27378 C 2603.99 3.30738 1.45927 0
M  V30 27379 O 2603.71 4.34869 0.531091 0
M  V30 27380 C 2605.21 3.8169 2.2545 0
M  V30 27381 H 2602.43 0.640528 0.199912 0
M  V30 27382 H 2604.97 2.04476 -0.0316455 0
M  V30 27383 H 2603.13 3.21793 2.15703 0
M  V30 27384 H 2603.54 5.1378 1.055 0
M  V30 27385 H 2605.01 4.79714 2.73091 0
M  V30 27386 H 2605.49 3.13612 3.0748 0
M  V30 27387 H 2606.1 3.93763 1.6072 0
M  V30 27388 N 2604.41 -0.287527 1.54955 0
M  V30 27389 C 2605.36 -1.35502 1.86836 0
M  V30 27390 C 2606.33 -1.49757 0.718479 0
M  V30 27391 O 2607.51 -1.64399 0.968387 0
M  V30 27392 C 2604.65 -2.71282 2.13308 0
M  V30 27393 C 2603.77 -2.65367 3.40887 0
M  V30 27394 C 2602.9 -3.9323 3.57132 0
M  V30 27395 C 2601.94 -3.81767 4.78456 0
M  V30 27396 N 2601.08 -5.01434 4.91435 0
M  V30 27397 H 2605.92 -1.07614 2.77891 0
M  V30 27398 H 2603.46 -0.520216 1.37594 0
M  V30 27399 H 2605.41 -3.50263 2.26653 0
M  V30 27400 H 2604.04 -2.97403 1.25504 0
M  V30 27401 H 2603.1 -1.78176 3.36092 0
M  V30 27402 H 2604.41 -2.52792 4.29997 0
M  V30 27403 H 2603.56 -4.80651 3.70215 0
M  V30 27404 H 2602.3 -4.08656 2.6618 0
M  V30 27405 H 2601.31 -2.9273 4.65391 0
M  V30 27406 H 2602.53 -3.67874 5.70829 0
M  V30 27407 H 2600.48 -5.17297 4.0341 0
M  V30 27408 H 2600.39 -4.91333 5.74567 0
M  V30 27409 H 2601.66 -5.90468 5.08889 0
M  V30 27410 N 2605.89 -1.47641 -0.551365 0
M  V30 27411 C 2606.82 -1.63448 -1.66755 0
M  V30 27412 C 2607.8 -0.48377 -1.63076 0
M  V30 27413 O 2608.99 -0.713802 -1.80606 0
M  V30 27414 C 2606.12 -1.65401 -3.05384 0
M  V30 27415 C 2605.07 -2.79758 -3.23913 0
M  V30 27416 C 2604.4 -2.66787 -4.63388 0
M  V30 27417 C 2605.7 -4.21289 -3.08727 0
M  V30 27418 H 2607.39 -2.56888 -1.53781 0
M  V30 27419 H 2604.94 -1.23627 -0.738394 0
M  V30 27420 H 2606.89 -1.7505 -3.83322 0
M  V30 27421 H 2605.61 -0.685251 -3.1933 0
M  V30 27422 H 2604.27 -2.69629 -2.48386 0
M  V30 27423 H 2603.92 -1.67926 -4.74141 0
M  V30 27424 H 2603.62 -3.4351 -4.76734 0
M  V30 27425 H 2605.14 -2.78373 -5.43453 0
M  V30 27426 H 2606.56 -4.32364 -3.76476 0
M  V30 27427 H 2604.96 -4.98844 -3.33579 0
M  V30 27428 H 2606.03 -4.39247 -2.05402 0
M  V30 27429 N 2607.37 0.798563 -1.3587 0
M  V30 27430 C 2608.28 1.94226 -1.31581 0
M  V30 27431 C 2609.29 1.72611 -0.219421 0
M  V30 27432 O 2610.47 1.96304 -0.450201 0
M  V30 27433 C 2607.54 3.28942 -1.09534 0
M  V30 27434 C 2606.6 3.63398 -2.28562 0
M  V30 27435 C 2605.83 4.91686 -2.07558 0
M  V30 27436 O 2606.05 5.60725 -1.04609 0
M  V30 27437 O 2604.99 5.24586 -2.95115 0
M  V30 27438 H 2608.81 2.00792 -2.27851 0
M  V30 27439 H 2606.4 0.937505 -1.16324 0
M  V30 27440 H 2608.28 4.09577 -0.991199 0
M  V30 27441 H 2606.95 3.23288 -0.163207 0
M  V30 27442 H 2605.86 2.83107 -2.44543 0
M  V30 27443 H 2607.19 3.73766 -3.2025 0
M  V30 27444 N 2608.85 1.19999 1.02166 0
M  V30 27445 C 2610.26 1.00827 1.57133 0
M  V30 27446 C 2610.61 -0.436784 1.91276 0
M  V30 27447 O 2609.73 -1.31737 1.71681 0
M  V30 27448 C 2610.33 1.82398 2.85511 0
M  V30 27449 C 2608.89 1.67607 3.37024 0
M  V30 27450 C 2608.03 1.80648 2.10385 0
M  V30 27451 H 2610.99 1.34265 0.846082 0
M  V30 27452 H 2611.01 1.32435 3.56709 0
M  V30 27453 H 2610.52 2.87566 2.60629 0
M  V30 27454 H 2608.62 0.65055 3.66877 0
M  V30 27455 H 2608.73 2.48578 4.09568 0
M  V30 27456 H 2607.1 1.23782 2.22599 0
M  V30 27457 H 2607.88 2.87289 1.87935 0
M  V30 27458 N 2610.32 -1.21392 1.00507 0
M  V30 27459 C 2611.55 -1.94999 0.706401 0
M  V30 27460 C 2611.97 -1.73583 -0.7246 0
M  V30 27461 O 2611.33 -1.02272 -1.497 0
M  V30 27462 C 2611.38 -3.45486 1.03306 0
M  V30 27463 O 2610.48 -4.12168 0.138347 0
M  V30 27464 H 2609.83 -0.609614 0.263186 0
M  V30 27465 H 2612.36 -1.54149 1.34533 0
M  V30 27466 H 2612.37 -3.96057 0.979942 0
M  V30 27467 H 2611.04 -3.60397 2.07573 0
M  V30 27468 H 2609.62 -3.72074 0.247994 0
M  V30 27469 N 2611.8 -0.779811 -1.36955 0
M  V30 27470 C 2613.05 -0.348316 -1.99786 0
M  V30 27471 C 2613.38 1.07462 -1.61758 0
M  V30 27472 O 2612.66 1.74074 -0.867669 0
M  V30 27473 C 2612.94 -0.501102 -3.56596 0
M  V30 27474 C 2612.79 -1.96704 -4.04509 0
M  V30 27475 C 2614.11 0.0897324 -4.40009 0
M  V30 27476 H 2611.23 -0.128034 -0.725794 0
M  V30 27477 H 2613.87 -0.98436 -1.62513 0
M  V30 27478 H 2612.02 0.0403664 -3.88479 0
M  V30 27479 H 2613.69 -2.56883 -3.83156 0
M  V30 27480 H 2611.94 -2.47303 -3.56404 0
M  V30 27481 H 2612.61 -2.02495 -5.13517 0
M  V30 27482 H 2615.08 -0.372366 -4.14431 0
M  V30 27483 H 2613.96 -0.047257 -5.4888 0
M  V30 27484 H 2614.22 1.18088 -4.26037 0
M  V30 27485 N 2613.28 1.48384 -0.531019 0
M  V30 27486 C 2614.53 2.025 0.0027017 0
M  V30 27487 C 2614.86 1.40802 1.34183 0
M  V30 27488 O 2614.11 0.543577 1.87999 0
M  V30 27489 C 2614.41 3.56983 0.172679 0
M  V30 27490 C 2614.08 4.37471 -1.09222 0
M  V30 27491 C 2612.74 4.59184 -1.43889 0
M  V30 27492 C 2615.09 4.84085 -1.93162 0
M  V30 27493 C 2612.42 5.24756 -2.6239 0
M  V30 27494 C 2614.77 5.50962 -3.10843 0
M  V30 27495 C 2613.43 5.70913 -3.45853 0
M  V30 27496 H 2612.7 0.740999 0.000988623 0
M  V30 27497 H 2615.35 1.78355 -0.697251 0
M  V30 27498 H 2613.66 3.79973 0.955406 0
M  V30 27499 H 2615.35 3.96477 0.600572 0
M  V30 27500 H 2611.94 4.20833 -0.812251 0
M  V30 27501 H 2616.13 4.67112 -1.67691 0
M  V30 27502 H 2611.38 5.384 -2.89716 0
M  V30 27503 H 2615.56 5.86049 -3.7619 0
M  V30 27504 H 2613.18 6.21496 -4.37775 0
M  V30 27505 N 2614.76 0.2662 1.55336 0
M  V30 27506 C 2615.71 -0.639459 2.18849 0
M  V30 27507 C 2616.69 -1.12501 1.15032 0
M  V30 27508 O 2617.88 -1.07157 1.40877 0
M  V30 27509 C 2615.01 -1.82728 2.90629 0
M  V30 27510 C 2614.1 -1.35932 4.01725 0
M  V30 27511 N 2614.49 -0.6069 5.02146 0
M  V30 27512 C 2612.79 -1.64302 4.14633 0
M  V30 27513 C 2613.49 -0.362036 5.80572 0
M  V30 27514 N 2612.47 -0.931877 5.35553 0
M  V30 27515 H 2616.27 -0.0566541 2.93845 0
M  V30 27516 H 2613.78 0.0693597 1.62252 0
M  V30 27517 H 2615.78 -2.48729 3.34573 0
M  V30 27518 H 2614.44 -2.41412 2.17141 0
M  V30 27519 H 2615.45 -0.255107 5.17271 0
M  V30 27520 H 2612.13 -2.23987 3.5233 0
M  V30 27521 H 2613.52 0.239966 6.71471 0
M  V30 27522 N 2616.24 -1.57599 -0.0066531 0
M  V30 27523 C 2617.17 -2.04841 -1.02824 0
M  V30 27524 C 2618.18 -0.965136 -1.31107 0
M  V30 27525 O 2619.37 -1.24206 -1.282 0
M  V30 27526 C 2616.47 -2.42775 -2.3646 0
M  V30 27527 C 2615.64 -3.73755 -2.27213 0
M  V30 27528 C 2614.7 -3.98631 -3.43482 0
M  V30 27529 O 2613.73 -4.69388 -3.21968 0
M  V30 27530 N 2614.93 -3.46008 -4.6611 0
M  V30 27531 H 2617.7 -2.93102 -0.625404 0
M  V30 27532 H 2615.26 -1.60731 -0.19417 0
M  V30 27533 H 2617.25 -2.56536 -3.13004 0
M  V30 27534 H 2615.82 -1.60068 -2.68509 0
M  V30 27535 H 2615.04 -3.70135 -1.35623 0
M  V30 27536 H 2616.33 -4.59637 -2.182 0
M  V30 27537 H 2615.72 -2.88697 -4.86488 0
M  V30 27538 H 2614.28 -3.6511 -5.39942 0
M  V30 27539 N 2617.72 0.279305 -1.55105 0
M  V30 27540 C 2618.96 1.01324 -1.75674 0
M  V30 27541 C 2619.29 1.86167 -0.552771 0
M  V30 27542 O 2618.57 1.89228 0.449794 0
M  V30 27543 C 2618.85 1.90109 -3.05828 0
M  V30 27544 C 2618.71 1.08301 -4.36567 0
M  V30 27545 C 2620.02 2.88924 -3.3198 0
M  V30 27546 H 2617.14 0.366946 -0.639156 0
M  V30 27547 H 2619.79 0.286121 -1.87833 0
M  V30 27548 H 2617.94 2.52106 -2.95593 0
M  V30 27549 H 2619.61 0.484233 -4.58751 0
M  V30 27550 H 2617.85 0.386286 -4.32077 0
M  V30 27551 H 2618.52 1.73727 -5.23949 0
M  V30 27552 H 2621 2.37061 -3.41967 0
M  V30 27553 H 2619.87 3.48194 -4.24326 0
M  V30 27554 H 2620.13 3.63721 -2.51316 0
M  V30 27555 N 2619.19 1.47931 0.543528 0
M  V30 27556 C 2620.44 1.55257 1.30006 0
M  V30 27557 C 2620.77 0.220646 1.93244 0
M  V30 27558 O 2620.02 -0.787811 1.79142 0
M  V30 27559 C 2620.32 2.62936 2.42073 0
M  V30 27560 C 2619.99 4.05794 1.96576 0
M  V30 27561 C 2618.65 4.44679 1.83885 0
M  V30 27562 C 2621 4.95376 1.62026 0
M  V30 27563 C 2618.33 5.70967 1.34959 0
M  V30 27564 C 2620.68 6.22139 1.14566 0
M  V30 27565 C 2619.35 6.59894 1.00482 0
M  V30 27566 H 2618.62 0.568126 0.475725 0
M  V30 27567 H 2621.26 1.8159 0.608043 0
M  V30 27568 H 2619.57 2.30411 3.16888 0
M  V30 27569 H 2621.27 2.65823 3.00231 0
M  V30 27570 H 2617.86 3.75077 2.07401 0
M  V30 27571 H 2622.04 4.66022 1.70697 0
M  V30 27572 H 2617.3 5.98955 1.2273 0
M  V30 27573 H 2621.47 6.90957 0.868987 0
M  V30 27574 H 2619.1 7.57639 0.62349 0
M  V30 27575 N 2620.67 -0.791347 1.36292 0
M  V30 27576 C 2621.58 -1.93525 1.32609 0
M  V30 27577 C 2622.6 -1.72492 0.228572 0
M  V30 27578 O 2623.77 -1.96062 0.460605 0
M  V30 27579 C 2620.84 -3.28357 1.11277 0
M  V30 27580 C 2619.9 -3.62181 2.30486 0
M  V30 27581 C 2619.13 -4.90579 2.10162 0
M  V30 27582 O 2619.36 -5.60163 1.07582 0
M  V30 27583 O 2618.29 -5.23014 2.97893 0
M  V30 27584 H 2622.12 -1.99581 2.28913 0
M  V30 27585 H 2619.7 -0.931323 1.16819 0
M  V30 27586 H 2621.58 -4.09045 1.01291 0
M  V30 27587 H 2620.26 -3.23197 0.180349 0
M  V30 27588 H 2619.16 -2.81806 2.46041 0
M  V30 27589 H 2620.5 -3.72062 3.22228 0
M  V30 27590 N 2622.15 -1.2054 -1.01528 0
M  V30 27591 C 2623.4 -1.01435 -1.74801 0
M  V30 27592 C 2623.72 0.454423 -1.89631 0
M  V30 27593 O 2622.99 1.32843 -1.43977 0
M  V30 27594 H 2621.57 -0.372336 -0.647592 0
M  V30 27595 H 2624.23 -1.51672 -1.224 0
M  V30 27596 H 2623.33 -1.47378 -2.75111 0
M  V30 27597 N 2623.63 1.20858 -1.01149 0
M  V30 27598 C 2624.87 1.90375 -0.698932 0
M  V30 27599 C 2625.21 1.78325 0.769009 0
M  V30 27600 O 2624.48 1.16412 1.55815 0
M  V30 27601 C 2624.76 3.41949 -1.12884 0
M  V30 27602 C 2624.62 3.62958 -2.65672 0
M  V30 27603 C 2625.94 4.34559 -0.69619 0
M  V30 27604 H 2623.06 0.691338 -0.255384 0
M  V30 27605 H 2625.7 1.42359 -1.25833 0
M  V30 27606 H 2623.85 3.82975 -0.652894 0
M  V30 27607 H 2625.52 3.31218 -3.2108 0
M  V30 27608 H 2623.76 3.06602 -3.06883 0
M  V30 27609 H 2624.43 4.69187 -2.90805 0
M  V30 27610 H 2626.91 4.01152 -1.10528 0
M  V30 27611 H 2625.79 5.39243 -1.02509 0
M  V30 27612 H 2626.05 4.40265 0.402388 0
M  V30 27613 N 2625.11 0.787064 1.3654 0
M  V30 27614 C 2626.05 0.181942 2.30082 0
M  V30 27615 C 2627.02 -0.67287 1.51861 0
M  V30 27616 O 2628.21 -0.62204 1.80375 0
M  V30 27617 C 2625.35 -0.679137 3.38351 0
M  V30 27618 C 2624.46 0.193958 4.31564 0
M  V30 27619 C 2623.6 -0.673272 5.26916 0
M  V30 27620 C 2622.63 0.201423 6.11769 0
M  V30 27621 N 2621.77 -0.624654 6.99316 0
M  V30 27622 H 2626.61 0.985114 2.81246 0
M  V30 27623 H 2624.15 0.497367 1.38437 0
M  V30 27624 H 2626.11 -1.19334 3.99769 0
M  V30 27625 H 2624.74 -1.44776 2.88513 0
M  V30 27626 H 2623.79 0.826109 3.71321 0
M  V30 27627 H 2625.1 0.868023 4.91189 0
M  V30 27628 H 2624.25 -1.25337 5.93612 0
M  V30 27629 H 2622.99 -1.38097 4.6774 0
M  V30 27630 H 2622 0.793945 5.44037 0
M  V30 27631 H 2623.22 0.906686 6.7302 0
M  V30 27632 H 2621.17 -1.31669 6.4265 0
M  V30 27633 H 2621.09 -0.00821949 7.56 0
M  V30 27634 H 2622.35 -1.18866 7.70384 0
M  V30 27635 N 2626.58 -1.48101 0.53888 0
M  V30 27636 C 2627.49 -2.33541 -0.222607 0
M  V30 27637 C 2628.51 -1.47049 -0.930199 0
M  V30 27638 O 2629.69 -1.80013 -0.903179 0
M  V30 27639 C 2626.75 -3.23359 -1.25059 0
M  V30 27640 C 2625.81 -4.25731 -0.552394 0
M  V30 27641 C 2625.04 -5.11257 -1.5314 0
M  V30 27642 O 2625.27 -4.98915 -2.76478 0
M  V30 27643 O 2624.2 -5.92387 -1.06592 0
M  V30 27644 H 2628.03 -2.99919 0.477759 0
M  V30 27645 H 2625.61 -1.46363 0.299695 0
M  V30 27646 H 2627.49 -3.78891 -1.84444 0
M  V30 27647 H 2626.17 -2.59632 -1.9332 0
M  V30 27648 H 2625.08 -3.7401 0.0821798 0
M  V30 27649 H 2626.41 -4.92121 0.0884391 0
M  V30 27650 N 2628.06 -0.274434 -1.55192 0
M  V30 27651 C 2629.47 0.223456 -1.85358 0
M  V30 27652 C 2629.82 1.55498 -1.19645 0
M  V30 27653 O 2628.95 2.10906 -0.484535 0
M  V30 27654 C 2629.54 0.412226 -3.36283 0
M  V30 27655 C 2628.1 0.854349 -3.66576 0
M  V30 27656 C 2627.25 -0.0527543 -2.7725 0
M  V30 27657 H 2630.2 -0.496242 -1.50742 0
M  V30 27658 H 2630.22 1.25088 -3.59351 0
M  V30 27659 H 2629.73 -0.557032 -3.84082 0
M  V30 27660 H 2627.83 1.8351 -3.24276 0
M  V30 27661 H 2627.95 0.692143 -4.74074 0
M  V30 27662 H 2626.31 0.46344 -2.50448 0
M  V30 27663 H 2627.09 -1.01788 -3.27863 0
M  V30 27664 N 2629.54 1.576 -0.00170483 0
M  V30 27665 C 2630.5 2.07475 0.974009 0
M  V30 27666 C 2631.5 0.984466 1.27141 0
M  V30 27667 O 2632.69 1.24706 1.21631 0
M  V30 27668 C 2629.82 2.51763 2.29844 0
M  V30 27669 H 2631.02 2.94951 0.542569 0
M  V30 27670 H 2628.57 1.54355 0.245802 0
M  V30 27671 H 2629.31 1.67534 2.77674 0
M  V30 27672 H 2629.09 3.3139 2.09578 0
M  V30 27673 H 2630.58 2.9067 2.99835 0
M  V30 27674 N 2631.02 -0.271076 1.55251 0
M  V30 27675 C 2632.26 -1.00391 1.76209 0
M  V30 27676 C 2632.6 -1.85871 0.562636 0
M  V30 27677 O 2631.87 -1.89464 -0.439752 0
M  V30 27678 C 2632.15 -1.88484 3.06832 0
M  V30 27679 C 2632.01 -1.05984 4.37135 0
M  V30 27680 C 2633.33 -2.8716 3.33508 0
M  V30 27681 H 2630.45 -0.363551 0.641093 0
M  V30 27682 H 2633.09 -0.276156 1.87982 0
M  V30 27683 H 2631.24 -2.50535 2.96925 0
M  V30 27684 H 2632.91 -0.459898 4.59002 0
M  V30 27685 H 2631.15 -0.363367 4.32275 0
M  V30 27686 H 2631.82 -1.70946 5.24863 0
M  V30 27687 H 2634.3 -2.35244 3.4322 0
M  V30 27688 H 2633.18 -3.45939 4.26166 0
M  V30 27689 H 2633.44 -3.62383 2.53241 0
M  V30 27690 N 2632.5 -1.48217 -0.535675 0
M  V30 27691 C 2633.43 -1.65207 -1.65012 0
M  V30 27692 C 2634.41 -0.50104 -1.62553 0
M  V30 27693 O 2635.59 -0.732917 -1.79839 0
M  V30 27694 C 2632.72 -1.68631 -3.03613 0
M  V30 27695 C 2631.68 -2.83178 -3.20927 0
M  V30 27696 C 2631 -2.71687 -4.60532 0
M  V30 27697 C 2632.3 -4.2454 -3.04242 0
M  V30 27698 H 2634 -2.58505 -1.51048 0
M  V30 27699 H 2631.54 -1.24404 -0.72524 0
M  V30 27700 H 2633.5 -1.79106 -3.81443 0
M  V30 27701 H 2632.22 -0.719082 -3.18586 0
M  V30 27702 H 2630.88 -2.72249 -2.45512 0
M  V30 27703 H 2630.53 -1.72946 -4.72333 0
M  V30 27704 H 2630.23 -3.48547 -4.73063 0
M  V30 27705 H 2631.75 -2.84121 -5.4047 0
M  V30 27706 H 2633.16 -4.36332 -3.71869 0
M  V30 27707 H 2631.56 -5.02354 -3.28269 0
M  V30 27708 H 2632.63 -4.41401 -2.00732 0
M  V30 27709 N 2633.97 0.784108 -1.3671 0
M  V30 27710 C 2635.39 1.08292 -1.17239 0
M  V30 27711 C 2635.59 2.015 -9.48134e-05 0
M  V30 27712 O 2634.65 2.43623 0.663643 0
M  V30 27713 C 2635.96 1.69229 -2.4856 0
M  V30 27714 C 2637.51 1.81545 -2.54971 0
M  V30 27715 C 2637.98 2.45897 -3.86392 0
M  V30 27716 N 2639.47 2.5336 -3.87767 0
M  V30 27717 C 2640.21 3.03974 -4.86197 0
M  V30 27718 N 2639.7 3.54855 -5.95021 0
M  V30 27719 N 2641.5 3.02735 -4.73612 0
M  V30 27720 H 2633.65 0.164973 -2.11758 0
M  V30 27721 H 2635.91 0.135805 -0.938222 0
M  V30 27722 H 2635.62 1.0821 -3.34639 0
M  V30 27723 H 2635.49 2.68674 -2.64753 0
M  V30 27724 H 2637.88 2.41701 -1.69306 0
M  V30 27725 H 2637.96 0.808908 -2.42673 0
M  V30 27726 H 2637.6 1.86384 -4.72465 0
M  V30 27727 H 2637.53 3.47133 -3.95988 0
M  V30 27728 H 2640.02 2.17337 -3.09149 0
M  V30 27729 H 2640.34 3.91842 -6.66093 0
M  V30 27730 H 2638.68 3.52993 -5.98683 0
M  V30 27731 H 2641.87 2.62277 -3.87722 0
M  V30 27732 H 2642.05 3.41872 -5.50479 0
M  V30 27733 N 2635.45 1.21076 1.00888 0
M  V30 27734 C 2636.4 0.963513 2.11705 0
M  V30 27735 C 2637.39 -0.0878734 1.69172 0
M  V30 27736 O 2638.6 0.0631731 1.79889 0
M  V30 27737 H 2634.98 0.294299 0.69202 0
M  V30 27738 H 2636.95 1.90426 2.2974 0
M  V30 27739 C 2635.7 0.54057 3.43472 0
M  V30 27740 H 2635.02 1.34121 3.76632 0
M  V30 27741 H 2636.46 0.406851 4.22044 0
M  V30 27742 C 2634.92 -0.748021 3.28491 0
M  V30 27743 O 2635.45 -1.80453 3.58886 0
M  V30 27744 N 2633.65 -0.713032 2.81717 0
M  V30 27745 H 2633.2 0.147018 2.5718 0
M  V30 27746 H 2633.16 -1.57553 2.72074 0
M  V30 27747 N 2636.93 -1.2032 1.01789 0
M  V30 27748 C 2638.18 -1.89346 0.706571 0
M  V30 27749 C 2638.5 -1.79314 -0.766258 0
M  V30 27750 O 2637.77 -1.19638 -1.55124 0
M  V30 27751 H 2636.35 -0.700899 0.258361 0
M  V30 27752 H 2639.01 -1.4612 1.28976 0
M  V30 27753 H 2638.11 -2.95945 0.991118 0
M  V30 27754 N 2638.41 -0.794293 -1.3612 0
M  V30 27755 C 2639.69 -0.292719 -1.93397 0
M  V30 27756 C 2640.07 1.21586 -1.72569 0
M  V30 27757 O 2639.41 2.00963 -1.08748 0
M  V30 27758 C 2639.62 -0.690674 -3.42097 0
M  V30 27759 C 2640.97 -0.673179 -4.1923 0
M  V30 27760 O 2642 -0.631451 -3.50558 0
M  V30 27761 O 2640.85 -0.720457 -5.4173 0
M  V30 27762 H 2637.95 -0.0736838 -0.823711 0
M  V30 27763 H 2640.49 -0.877165 -1.45272 0
M  V30 27764 H 2639.27 -1.73091 -3.50935 0
M  V30 27765 H 2638.89 -0.0803735 -3.97519 0
M  V30 27766 N 2639.89 1.47813 -0.546727 0
M  V30 27767 C 2641.3 1.86372 -0.110597 0
M  V30 27768 C 2641.65 1.45451 1.31675 0
M  V30 27769 O 2640.77 0.852793 1.98888 0
M  V30 27770 C 2641.37 3.38244 -0.193933 0
M  V30 27771 C 2639.93 3.75935 0.187098 0
M  V30 27772 C 2639.07 2.71867 -0.546214 0
M  V30 27773 H 2642.03 1.39479 -0.757047 0
M  V30 27774 H 2642.05 3.75896 0.590152 0
M  V30 27775 H 2641.56 3.67997 -1.23288 0
M  V30 27776 H 2639.66 3.51798 1.22755 0
M  V30 27777 H 2639.77 4.78819 -0.164167 0
M  V30 27778 H 2638.14 2.54698 0.00949427 0
M  V30 27779 H 2638.92 3.04462 -1.58612 0
M  V30 27780 N 2641.36 0.28266 1.55044 0
M  V30 27781 C 2642.78 -0.0712717 1.59441 0
M  V30 27782 C 2642.98 -1.5397 1.29983 0
M  V30 27783 O 2642.04 -2.28971 1.06435 0
M  V30 27784 C 2643.35 0.310157 2.99096 0
M  V30 27785 C 2644.9 0.257398 3.1194 0
M  V30 27786 C 2645.37 0.613377 4.53874 0
M  V30 27787 N 2646.86 0.565214 4.59739 0
M  V30 27788 C 2647.6 0.81336 5.67602 0
M  V30 27789 N 2647.09 1.12652 6.8358 0
M  V30 27790 N 2648.89 0.741651 5.57186 0
M  V30 27791 H 2641.04 1.23987 1.72456 0
M  V30 27792 H 2643.3 0.501417 0.80454 0
M  V30 27793 H 2643.01 1.33168 3.25514 0
M  V30 27794 H 2642.88 -0.3453 3.75616 0
M  V30 27795 H 2645.27 -0.754855 2.85282 0
M  V30 27796 H 2645.35 0.94722 2.37616 0
M  V30 27797 H 2644.99 1.62335 4.81258 0
M  V30 27798 H 2644.92 -0.0983174 5.26508 0
M  V30 27799 H 2647.41 0.33336 3.76427 0
M  V30 27800 H 2647.73 1.30233 7.61748 0
M  V30 27801 H 2646.07 1.16437 6.85177 0
M  V30 27802 H 2649.26 0.496787 4.65456 0
M  V30 27803 H 2649.44 0.938418 6.41169 0
M  V30 27804 N 2642.84 -1.57597 0.0100627 0
M  V30 27805 C 2643.77 -2.12086 -0.97682 0
M  V30 27806 C 2644.75 -1.03237 -1.35189 0
M  V30 27807 O 2645.94 -1.30973 -1.43387 0
M  V30 27808 C 2643.07 -2.6324 -2.26544 0
M  V30 27809 C 2642.02 -3.76705 -2.03169 0
M  V30 27810 C 2641.35 -4.14212 -3.38131 0
M  V30 27811 C 2642.65 -5.0357 -1.38617 0
M  V30 27812 H 2644.34 -2.94795 -0.523093 0
M  V30 27813 H 2641.89 -1.4181 -0.25017 0
M  V30 27814 H 2643.84 -2.99989 -2.95947 0
M  V30 27815 H 2642.57 -1.77666 -2.74048 0
M  V30 27816 H 2641.22 -3.40365 -1.36189 0
M  V30 27817 H 2640.87 -3.25647 -3.83357 0
M  V30 27818 H 2640.57 -4.90662 -3.23303 0
M  V30 27819 H 2642.1 -4.53529 -4.08833 0
M  V30 27820 H 2643.51 -5.38026 -1.97991 0
M  V30 27821 H 2641.91 -5.84891 -1.34246 0
M  V30 27822 H 2642.98 -4.83587 -0.356637 0
M  V30 27823 N 2644.32 0.262839 -1.55393 0
M  V30 27824 C 2645.27 1.32513 -1.88968 0
M  V30 27825 C 2646.24 1.48595 -0.742213 0
M  V30 27826 O 2647.42 1.62837 -0.994419 0
M  V30 27827 C 2644.56 2.67854 -2.17596 0
M  V30 27828 C 2643.68 2.59911 -3.45066 0
M  V30 27829 C 2642.81 3.87499 -3.63343 0
M  V30 27830 C 2641.85 3.74107 -4.84469 0
M  V30 27831 N 2640.99 4.93552 -4.9935 0
M  V30 27832 H 2645.83 1.03179 -2.79568 0
M  V30 27833 H 2643.36 0.498261 -1.38404 0
M  V30 27834 H 2645.32 3.46613 -2.32196 0
M  V30 27835 H 2643.95 2.95369 -1.3022 0
M  V30 27836 H 2643 1.72806 -3.38884 0
M  V30 27837 H 2644.32 2.45919 -4.33965 0
M  V30 27838 H 2643.47 4.747 -3.77815 0
M  V30 27839 H 2642.21 4.04369 -2.72648 0
M  V30 27840 H 2641.21 2.85289 -4.6999 0
M  V30 27841 H 2642.44 3.58746 -5.76609 0
M  V30 27842 H 2640.38 5.10814 -4.11589 0
M  V30 27843 H 2640.3 4.8213 -5.82311 0
M  V30 27844 H 2641.57 5.82297 -5.18218 0
M  V30 27845 N 2645.8 1.48499 0.527807 0
M  V30 27846 C 2646.76 1.62699 1.61436 0
M  V30 27847 C 2647.76 0.500163 1.52823 0
M  V30 27848 O 2648.95 0.766003 1.56455 0
M  V30 27849 C 2646.08 1.59923 3.01061 0
M  V30 27850 H 2647.28 2.59585 1.50185 0
M  V30 27851 H 2644.83 1.37128 0.750031 0
M  V30 27852 H 2645.56 0.645219 3.17817 0
M  V30 27853 H 2645.35 2.41731 3.08721 0
M  V30 27854 H 2646.84 1.73057 3.80054 0
M  V30 27855 N 2647.28 -0.776847 1.37123 0
M  V30 27856 C 2648.23 -1.91135 1.32552 0
M  V30 27857 C 2649.22 -1.68028 0.215149 0
M  V30 27858 O 2650.43 -1.75881 0.382883 0
M  V30 27859 H 2646.8 -0.628463 0.412963 0
M  V30 27860 H 2648.77 -1.92108 2.28335 0
M  V30 27861 C 2647.52 -3.28331 1.14428 0
M  V30 27862 H 2646.84 -3.46686 1.99121 0
M  V30 27863 H 2648.28 -4.08028 1.15279 0
M  V30 27864 C 2646.74 -3.36564 -0.150375 0
M  V30 27865 O 2647.27 -3.85309 -1.13577 0
M  V30 27866 N 2645.48 -2.89916 -0.199339 0
M  V30 27867 H 2645.03 -2.50438 0.603186 0
M  V30 27868 H 2644.98 -2.95805 -1.06521 0
M  V30 27869 N 2648.76 -1.2161 -1.00244 0
M  V30 27870 C 2650 -1.03488 -1.74059 0
M  V30 27871 C 2650.33 0.431274 -1.89658 0
M  V30 27872 O 2649.59 1.33625 -1.42979 0
M  V30 27873 C 2649.88 -1.68015 -3.15446 0
M  V30 27874 C 2649.55 -3.17879 -3.19787 0
M  V30 27875 C 2648.21 -3.58774 -3.20679 0
M  V30 27876 C 2650.56 -4.13847 -3.16828 0
M  V30 27877 C 2647.89 -4.94136 -3.16301 0
M  V30 27878 C 2650.24 -5.49174 -3.13991 0
M  V30 27879 C 2648.91 -5.89462 -3.13194 0
M  V30 27880 H 2648.18 -0.378689 -0.636927 0
M  V30 27881 H 2650.83 -1.51238 -1.17471 0
M  V30 27882 H 2649.13 -1.12564 -3.75282 0
M  V30 27883 H 2650.83 -1.51493 -3.71283 0
M  V30 27884 H 2647.42 -2.85311 -3.19837 0
M  V30 27885 H 2651.6 -3.83278 -3.15297 0
M  V30 27886 H 2646.86 -5.24595 -3.14023 0
M  V30 27887 H 2651.03 -6.2327 -3.10656 0
M  V30 27888 H 2648.66 -6.94319 -3.09556 0
M  V30 27889 N 2650.23 1.19778 -1.02425 0
M  V30 27890 C 2651.14 2.26505 -0.610958 0
M  V30 27891 C 2652.16 1.70338 0.355122 0
M  V30 27892 O 2653.34 2.00258 0.21416 0
M  V30 27893 C 2650.4 3.46681 0.0365312 0
M  V30 27894 C 2649.46 4.18047 -0.976463 0
M  V30 27895 C 2648.69 5.32486 -0.359777 0
M  V30 27896 O 2648.92 5.64203 0.838501 0
M  V30 27897 O 2647.85 5.92126 -1.08032 0
M  V30 27898 H 2651.68 2.64089 -1.49969 0
M  V30 27899 H 2649.26 1.26543 -0.794178 0
M  V30 27900 H 2651.14 4.19518 0.397786 0
M  V30 27901 H 2649.82 3.10956 0.899344 0
M  V30 27902 H 2648.73 3.47349 -1.38922 0
M  V30 27903 H 2650.06 4.57732 -1.80949 0
M  V30 27904 N 2651.71 0.801501 1.35697 0
M  V30 27905 C 2652.62 0.209732 2.33661 0
M  V30 27906 C 2653.64 -0.644562 1.61621 0
M  V30 27907 O 2654.81 -0.557511 1.9353 0
M  V30 27908 C 2651.88 -0.635973 3.40817 0
M  V30 27909 C 2650.94 0.238222 4.28639 0
M  V30 27910 C 2650.17 -0.567214 5.30677 0
M  V30 27911 O 2650.4 -1.8023 5.41178 0
M  V30 27912 O 2649.33 0.0392394 6.01887 0
M  V30 27913 H 2653.16 1.02001 2.86059 0
M  V30 27914 H 2650.74 0.563188 1.38378 0
M  V30 27915 H 2652.62 -1.11783 4.06303 0
M  V30 27916 H 2651.3 -1.42394 2.90699 0
M  V30 27917 H 2650.2 0.767109 3.66151 0
M  V30 27918 H 2651.54 0.99 4.82141 0
M  V30 27919 N 2653.19 -1.47521 0.554558 0
M  V30 27920 C 2654.15 -2.28459 -0.184134 0
M  V30 27921 C 2655.15 -1.36797 -0.84517 0
M  V30 27922 O 2656.34 -1.59454 -0.701439 0
M  V30 27923 C 2653.47 -3.16401 -1.26898 0
M  V30 27924 H 2654.67 -2.95237 0.526803 0
M  V30 27925 H 2652.22 -1.53167 0.311402 0
M  V30 27926 H 2652.96 -2.54309 -2.01239 0
M  V30 27927 H 2652.74 -3.83856 -0.799816 0
M  V30 27928 H 2654.23 -3.77392 -1.78788 0
M  V30 27929 N 2654.67 -0.290879 -1.54892 0
M  V30 27930 C 2655.92 0.322078 -1.99112 0
M  V30 27931 C 2656.23 1.55782 -1.18285 0
M  V30 27932 O 2657.44 2.24472 -1.52724 0
M  V30 27933 C 2655.89 0.624375 -3.54443 0
M  V30 27934 C 2655.5 -0.592451 -4.44065 0
M  V30 27935 C 2657.24 1.19909 -4.07213 0
M  V30 27936 C 2655.15 -0.263866 -5.90811 0
M  V30 27937 H 2654.08 0.12412 -0.743714 0
M  V30 27938 H 2656.73 -0.398001 -1.79132 0
M  V30 27939 H 2655.11 1.40378 -3.70284 0
M  V30 27940 H 2656.29 -1.36894 -4.39996 0
M  V30 27941 H 2654.6 -1.08509 -4.02013 0
M  V30 27942 H 2657.2 1.459 -5.1441 0
M  V30 27943 H 2657.54 2.13809 -3.57199 0
M  V30 27944 H 2658.08 0.481618 -3.94874 0
M  V30 27945 H 2654.81 -1.17117 -6.44953 0
M  V30 27946 H 2654.33 0.47555 -5.97912 0
M  V30 27947 H 2656.01 0.138241 -6.46852 0
M  V30 27948 N 2656.15 1.57589 -0.0184203 0
M  V30 27949 C 2657.39 1.91355 0.662528 0
M  V30 27950 C 2657.72 0.893818 1.72746 0
M  V30 27951 O 2656.98 -0.0988166 1.9545 0
M  V30 27952 C 2657.27 3.31863 1.3267 0
M  V30 27953 C 2656.94 4.49182 0.393189 0
M  V30 27954 C 2655.6 4.81007 0.136218 0
M  V30 27955 C 2657.95 5.20607 -0.248457 0
M  V30 27956 C 2655.28 5.8162 -0.770384 0
M  V30 27957 C 2657.63 6.22187 -1.14305 0
M  V30 27958 C 2656.3 6.52459 -1.40901 0
M  V30 27959 H 2655.57 0.700218 0.242436 0
M  V30 27960 H 2658.22 1.91342 -0.0778966 0
M  V30 27961 H 2656.52 3.28088 2.14162 0
M  V30 27962 H 2658.22 3.55256 1.85995 0
M  V30 27963 H 2654.81 4.24328 0.603648 0
M  V30 27964 H 2658.99 4.9626 -0.0629703 0
M  V30 27965 H 2654.25 6.03425 -0.98426 0
M  V30 27966 H 2658.42 6.76656 -1.64649 0
M  V30 27967 H 2656.05 7.30239 -2.11319 0
M  V30 27968 N 2657.62 -0.254594 1.5553 0
M  V30 27969 C 2658.85 -1.00569 1.81385 0
M  V30 27970 C 2659.27 -1.7846 0.59445 0
M  V30 27971 O 2658.63 -1.75462 -0.456372 0
M  V30 27972 C 2658.68 -1.92539 3.04895 0
M  V30 27973 O 2657.78 -3.01596 2.81271 0
M  V30 27974 H 2657.12 -0.286576 0.598974 0
M  V30 27975 H 2659.65 -0.277917 2.02704 0
M  V30 27976 H 2659.66 -2.3415 3.34123 0
M  V30 27977 H 2658.34 -1.35263 3.9329 0
M  V30 27978 H 2656.92 -2.64169 2.6319 0
M  V30 27979 N 2659.1 -1.48777 -0.519925 0
M  V30 27980 C 2660.05 -1.64047 -1.6235 0
M  V30 27981 C 2661.02 -0.482279 -1.58944 0
M  V30 27982 O 2662.2 -0.707003 -1.77218 0
M  V30 27983 C 2659.34 -1.69552 -3.00576 0
M  V30 27984 C 2658.46 -2.96547 -3.1414 0
M  V30 27985 C 2657.59 -2.9315 -4.42986 0
M  V30 27986 C 2656.63 -4.14805 -4.50114 0
M  V30 27987 N 2655.77 -4.09428 -5.70363 0
M  V30 27988 H 2660.61 -2.58284 -1.48639 0
M  V30 27989 H 2658.14 -1.28078 -0.723493 0
M  V30 27990 H 2660.1 -1.70726 -3.80668 0
M  V30 27991 H 2658.73 -0.787973 -3.13035 0
M  V30 27992 H 2657.78 -3.05072 -2.27234 0
M  V30 27993 H 2659.1 -3.86533 -3.15268 0
M  V30 27994 H 2658.25 -2.92781 -5.3138 0
M  V30 27995 H 2656.99 -2.0091 -4.44395 0
M  V30 27996 H 2655.99 -4.15439 -3.60126 0
M  V30 27997 H 2657.22 -5.08216 -4.50436 0
M  V30 27998 H 2655.17 -3.20014 -5.72649 0
M  V30 27999 H 2655.08 -4.93129 -5.73027 0
M  V30 28000 H 2656.35 -4.13133 -6.61016 0
M  V30 28001 N 2660.58 0.769564 -1.37534 0
M  V30 28002 C 2661.81 1.55642 -1.35864 0
M  V30 28003 C 2662.22 1.89113 0.0574066 0
M  V30 28004 O 2661.56 1.52095 1.03018 0
M  V30 28005 C 2661.62 2.89284 -2.13436 0
M  V30 28006 C 2661.29 2.78438 -3.62383 0
M  V30 28007 C 2662.28 2.49318 -4.5622 0
M  V30 28008 C 2659.97 2.96391 -4.05534 0
M  V30 28009 C 2661.96 2.38284 -5.91185 0
M  V30 28010 C 2659.65 2.84977 -5.40584 0
M  V30 28011 C 2660.65 2.55964 -6.33223 0
M  V30 28012 O 2660.34 2.4458 -7.65791 0
M  V30 28013 H 2660.07 0.488752 -0.467009 0
M  V30 28014 H 2662.62 0.961483 -1.81507 0
M  V30 28015 H 2660.85 3.50906 -1.62487 0
M  V30 28016 H 2662.54 3.50694 -2.04374 0
M  V30 28017 H 2663.31 2.35132 -4.24191 0
M  V30 28018 H 2659.19 3.17974 -3.33786 0
M  V30 28019 H 2662.73 2.15559 -6.63461 0
M  V30 28020 H 2658.63 2.98733 -5.72214 0
M  V30 28021 H 2659.39 2.59913 -7.76136 0
M  V30 28022 N 2662.06 1.22139 0.995977 0
M  V30 28023 C 2663.31 1.03824 1.72926 0
M  V30 28024 C 2663.62 -0.427411 1.90873 0
M  V30 28025 O 2664.83 -0.730166 2.61497 0
M  V30 28026 C 2663.28 1.80919 3.11121 0
M  V30 28027 C 2662.89 3.31713 3.01116 0
M  V30 28028 C 2664.63 1.71041 3.88517 0
M  V30 28029 C 2662.54 4.01261 4.34446 0
M  V30 28030 H 2661.47 0.384881 0.648369 0
M  V30 28031 H 2664.12 1.45961 1.1121 0
M  V30 28032 H 2662.5 1.31579 3.73501 0
M  V30 28033 H 2663.68 3.88423 2.4792 0
M  V30 28034 H 2661.99 3.42232 2.37204 0
M  V30 28035 H 2664.59 2.20327 4.87196 0
M  V30 28036 H 2664.93 0.670268 4.10869 0
M  V30 28037 H 2665.47 2.17907 3.32808 0
M  V30 28038 H 2662.21 5.05516 4.17294 0
M  V30 28039 H 2661.73 3.49339 4.87568 0
M  V30 28040 H 2663.4 4.06683 5.03208 0
M  V30 28041 N 2663.54 -1.19233 1.03059 0
M  V30 28042 C 2664.78 -1.88586 0.726614 0
M  V30 28043 C 2665.11 -1.80117 -0.747196 0
M  V30 28044 O 2664.38 -1.21277 -1.53847 0
M  V30 28045 H 2662.96 -0.698119 0.26578 0
M  V30 28046 H 2665.62 -1.44744 1.30519 0
M  V30 28047 H 2664.71 -2.94877 1.02245 0
M  V30 28048 N 2665.01 -0.808686 -1.3527 0
M  V30 28049 C 2665.96 -0.208646 -2.31662 0
M  V30 28050 C 2666.96 0.64275 -1.56733 0
M  V30 28051 O 2668.16 0.535679 -1.71844 0
M  V30 28052 H 2664.54 -0.0487124 -0.750421 0
M  V30 28053 H 2666.51 -1.03671 -2.79812 0
M  V30 28054 C 2665.26 0.626513 -3.42009 0
M  V30 28055 H 2664.58 -0.0192806 -3.99795 0
M  V30 28056 H 2666.02 1.01271 -4.11728 0
M  V30 28057 C 2664.48 1.79293 -2.85229 0
M  V30 28058 O 2665.01 2.8905 -2.7895 0
M  V30 28059 N 2663.22 1.60512 -2.42248 0
M  V30 28060 H 2662.76 0.712331 -2.47555 0
M  V30 28061 H 2662.72 2.38712 -2.04607 0
M  V30 28062 N 2666.49 1.47225 -0.562374 0
M  V30 28063 C 2667.74 2.0276 -0.0403117 0
M  V30 28064 C 2668.07 1.43526 1.30821 0
M  V30 28065 O 2667.35 0.592737 1.85248 0
M  V30 28066 C 2667.63 3.60069 0.0472477 0
M  V30 28067 C 2667.48 4.29726 -1.32873 0
M  V30 28068 C 2668.8 4.33521 0.758106 0
M  V30 28069 H 2665.92 0.736824 -0.0161235 0
M  V30 28070 H 2668.56 1.75597 -0.725659 0
M  V30 28071 H 2666.71 3.83343 0.630919 0
M  V30 28072 H 2668.38 4.17778 -1.956 0
M  V30 28073 H 2666.63 3.89879 -1.90202 0
M  V30 28074 H 2667.3 5.38346 -1.22013 0
M  V30 28075 H 2669.77 4.15271 0.262473 0
M  V30 28076 H 2668.65 5.43209 0.788345 0
M  V30 28077 H 2668.91 4.03112 1.8153 0
M  V30 28078 N 2667.97 0.299089 1.54736 0
M  V30 28079 C 2668.92 -0.593618 2.24898 0
M  V30 28080 C 2669.91 -1.13857 1.25431 0
M  V30 28081 O 2671.12 -1.08943 1.43288 0
M  V30 28082 H 2667.49 -0.210033 0.722073 0
M  V30 28083 H 2669.46 0.0206945 2.98393 0
M  V30 28084 C 2668.21 -1.75493 3.00162 0
M  V30 28085 H 2667.54 -1.34483 3.76503 0
M  V30 28086 H 2668.98 -2.35567 3.52539 0
M  V30 28087 C 2667.44 -2.6579 2.0702 0
M  V30 28088 O 2667.97 -3.66832 1.63699 0
M  V30 28089 N 2666.17 -2.33482 1.73016 0
M  V30 28090 H 2665.72 -1.51361 2.08441 0
M  V30 28091 H 2665.68 -2.94165 1.1097 0
M  V30 28092 N 2669.45 -1.57577 0.0267774 0
M  V30 28093 C 2670.68 -1.96002 -0.662627 0
M  V30 28094 C 2671.09 -0.903146 -1.65797 0
M  V30 28095 O 2670.45 0.115285 -1.82136 0
M  V30 28096 C 2670.5 -3.34491 -1.37107 0
M  V30 28097 O 2670.22 -4.36124 -0.415606 0
M  V30 28098 C 2671.72 -3.87533 -2.15251 0
M  V30 28099 H 2668.94 -0.645603 -0.182859 0
M  V30 28100 H 2671.49 -2.0432 0.0858475 0
M  V30 28101 H 2669.64 -3.27399 -2.07096 0
M  V30 28102 H 2670.05 -5.16397 -0.918405 0
M  V30 28103 H 2671.53 -4.86786 -2.60277 0
M  V30 28104 H 2672.01 -3.21654 -2.99057 0
M  V30 28105 H 2672.61 -3.97886 -1.50224 0
M  V30 28106 N 2670.93 0.246342 -1.55663 0
M  V30 28107 C 2671.88 1.30792 -1.86755 0
M  V30 28108 C 2672.86 1.43465 -0.728471 0
M  V30 28109 O 2674.05 1.46697 -0.990406 0
M  V30 28110 C 2671.18 2.66326 -2.16623 0
M  V30 28111 C 2670.27 2.57655 -3.3686 0
M  V30 28112 N 2670.66 2.18616 -4.56115 0
M  V30 28113 C 2668.96 2.88667 -3.39981 0
M  V30 28114 C 2669.66 2.20592 -5.38251 0
M  V30 28115 N 2668.63 2.60116 -4.77327 0
M  V30 28116 H 2672.44 0.996593 -2.76487 0
M  V30 28117 H 2669.95 0.454966 -1.55897 0
M  V30 28118 H 2671.95 3.42938 -2.37063 0
M  V30 28119 H 2670.61 2.98324 -1.2819 0
M  V30 28120 H 2671.62 1.90151 -4.81729 0
M  V30 28121 H 2668.29 3.25202 -2.61821 0
M  V30 28122 H 2669.68 1.92744 -6.43661 0
M  V30 28123 N 2672.4 1.4905 0.512027 0
M  V30 28124 C 2673.65 1.58214 1.26871 0
M  V30 28125 C 2673.98 0.263107 1.92409 0
M  V30 28126 O 2673.26 -0.732444 1.80182 0
M  V30 28127 C 2673.54 2.73345 2.34424 0
M  V30 28128 C 2673.39 4.15009 1.73459 0
M  V30 28129 C 2674.71 2.84159 3.36068 0
M  V30 28130 H 2671.83 0.575889 0.459914 0
M  V30 28131 H 2674.47 1.81294 0.568556 0
M  V30 28132 H 2672.62 2.53797 2.94142 0
M  V30 28133 H 2674.3 4.46044 1.17653 0
M  V30 28134 H 2672.54 4.2117 1.03914 0
M  V30 28135 H 2673.21 4.9142 2.51417 0
M  V30 28136 H 2675.69 3.01921 2.86327 0
M  V30 28137 H 2674.56 3.66413 4.08696 0
M  V30 28138 H 2674.82 1.93054 3.97721 0
M  V30 28139 N 2673.88 -0.762259 1.3794 0
M  V30 28140 C 2675.16 -1.5111 1.24198 0
M  V30 28141 C 2675.54 -2.1049 -0.160372 0
M  V30 28142 O 2674.89 -1.96333 -1.169 0
M  V30 28143 C 2675.1 -2.5844 2.34541 0
M  V30 28144 C 2676.45 -3.25583 2.72545 0
M  V30 28145 O 2677.47 -2.68741 2.33788 0
M  V30 28146 O 2676.33 -4.28373 3.3935 0
M  V30 28147 H 2673.42 -0.669718 0.485187 0
M  V30 28148 H 2675.97 -0.798412 1.49745 0
M  V30 28149 H 2674.74 -2.1275 3.2841 0
M  V30 28150 H 2674.36 -3.37299 2.10511 0
M  V30 28151 N 2675.36 -1.22666 -0.989486 0
M  V30 28152 C 2676.27 -1.01623 -2.11447 0
M  V30 28153 C 2677.29 0.0365144 -1.73962 0
M  V30 28154 O 2678.46 -0.156959 -2.00787 0
M  V30 28155 C 2675.53 -0.600264 -3.41464 0
M  V30 28156 C 2674.59 -1.72702 -3.9303 0
M  V30 28157 C 2673.82 -1.3308 -5.16842 0
M  V30 28158 O 2674.04 -0.211075 -5.70009 0
M  V30 28159 O 2672.98 -2.14855 -5.62246 0
M  V30 28160 H 2676.8 -1.95884 -2.32084 0
M  V30 28161 H 2674.39 -1.0129 -1.09821 0
M  V30 28162 H 2676.27 -0.378804 -4.19694 0
M  V30 28163 H 2674.95 0.313454 -3.22179 0
M  V30 28164 H 2673.85 -2.00303 -3.15958 0
M  V30 28165 H 2675.19 -2.61872 -4.16754 0
M  V30 28166 N 2676.84 1.18685 -1.0369 0
M  V30 28167 C 2678.07 1.92238 -0.756853 0
M  V30 28168 C 2678.48 1.76195 0.689343 0
M  V30 28169 O 2677.82 1.08651 1.48124 0
M  V30 28170 C 2677.88 3.44172 -1.03857 0
M  V30 28171 C 2677.55 3.8399 -2.47792 0
M  V30 28172 C 2678.54 3.88085 -3.45957 0
M  V30 28173 C 2676.23 4.15395 -2.82404 0
M  V30 28174 C 2678.22 4.23029 -4.76786 0
M  V30 28175 C 2675.91 4.50011 -4.13441 0
M  V30 28176 C 2676.91 4.53804 -5.10442 0
M  V30 28177 O 2676.6 4.87614 -6.39131 0
M  V30 28178 H 2676.33 0.617229 -0.275689 0
M  V30 28179 H 2678.88 1.51533 -1.38661 0
M  V30 28180 H 2677.11 3.85098 -0.351679 0
M  V30 28181 H 2678.8 3.98969 -0.746916 0
M  V30 28182 H 2679.57 3.63963 -3.20555 0
M  V30 28183 H 2675.45 4.11623 -2.07575 0
M  V30 28184 H 2678.99 4.25904 -5.52496 0
M  V30 28185 H 2674.89 4.73593 -4.38612 0
M  V30 28186 H 2675.65 5.05531 -6.43724 0
M  V30 28187 N 2678.32 0.815849 1.34839 0
M  V30 28188 C 2679.25 0.178102 2.27504 0
M  V30 28189 C 2680.23 -0.661347 1.48543 0
M  V30 28190 O 2681.41 -0.626622 1.7778 0
M  V30 28191 C 2678.54 -0.751944 3.30248 0
M  V30 28192 C 2677.59 0.00906669 4.26499 0
M  V30 28193 S 2678.42 1.35143 5.18167 0
M  V30 28194 C 2679.57 0.42607 6.24448 0
M  V30 28195 H 2679.81 0.963734 2.81246 0
M  V30 28196 H 2677.34 0.61138 1.4178 0
M  V30 28197 H 2679.3 -1.28301 3.89935 0
M  V30 28198 H 2677.96 -1.51104 2.75366 0
M  V30 28199 H 2677.15 -0.697678 4.99148 0
M  V30 28200 H 2676.75 0.470461 3.71029 0
M  V30 28201 H 2679.05 -0.385115 6.76405 0
M  V30 28202 H 2679.99 1.12202 6.99154 0
M  V30 28203 H 2680.4 0.0176453 5.64497 0
M  V30 28204 N 2679.8 -1.46924 0.570174 0
M  V30 28205 C 2680.73 -2.32963 -0.158233 0
M  V30 28206 C 2681.71 -1.44584 -0.896067 0
M  V30 28207 O 2682.89 -1.73422 -0.873991 0
M  V30 28208 C 2680.02 -3.26621 -1.1805 0
M  V30 28209 C 2678.98 -4.24343 -0.558305 0
M  V30 28210 C 2678.3 -5.07418 -1.68614 0
M  V30 28211 C 2679.6 -5.19936 0.496386 0
M  V30 28212 H 2681.3 -2.94114 0.560098 0
M  V30 28213 H 2678.84 -1.41431 0.2708 0
M  V30 28214 H 2680.79 -3.85661 -1.69834 0
M  V30 28215 H 2679.52 -2.63552 -1.92894 0
M  V30 28216 H 2678.18 -3.66548 -0.0616513 0
M  V30 28217 H 2677.83 -4.40743 -2.42394 0
M  V30 28218 H 2677.53 -5.73589 -1.27554 0
M  V30 28219 H 2679.05 -5.69319 -2.20699 0
M  V30 28220 H 2680.46 -5.73264 0.064106 0
M  V30 28221 H 2678.86 -5.9438 0.826595 0
M  V30 28222 H 2679.93 -4.64627 1.38743 0
M  V30 28223 N 2681.27 -0.307291 -1.54575 0
M  V30 28224 C 2682.18 0.57532 -2.27436 0
M  V30 28225 C 2683.2 1.14309 -1.31185 0
M  V30 28226 O 2684.38 1.16653 -1.64177 0
M  V30 28227 C 2681.44 1.72798 -3.00569 0
M  V30 28228 C 2680.5 1.19366 -4.12371 0
M  V30 28229 C 2679.73 2.29139 -4.82007 0
M  V30 28230 O 2679.96 3.49164 -4.51044 0
M  V30 28231 O 2678.89 1.95475 -5.69274 0
M  V30 28232 H 2682.72 -0.0159092 -3.03696 0
M  V30 28233 H 2680.3 -0.0735326 -1.49219 0
M  V30 28234 H 2682.18 2.3994 -3.4642 0
M  V30 28235 H 2680.86 2.3057 -2.27199 0
M  V30 28236 H 2679.77 0.487786 -3.70906 0
M  V30 28237 H 2681.1 0.66129 -4.87737 0
M  V30 28238 N 2682.75 1.57561 -0.0351337 0
M  V30 28239 C 2683.71 2.09494 0.929782 0
M  V30 28240 C 2684.71 1.01121 1.25024 0
M  V30 28241 O 2685.9 1.27258 1.18959 0
M  V30 28242 C 2683.04 2.56581 2.24452 0
M  V30 28243 H 2684.23 2.96036 0.479883 0
M  V30 28244 H 2681.78 1.54842 0.213005 0
M  V30 28245 H 2682.52 1.73386 2.74058 0
M  V30 28246 H 2682.3 3.35761 2.02502 0
M  V30 28247 H 2683.79 2.96964 2.93602 0
M  V30 28248 N 2684.23 -0.238084 1.55791 0
M  V30 28249 C 2685.48 -0.966305 1.78299 0
M  V30 28250 C 2685.81 -1.84636 0.601936 0
M  V30 28251 O 2685.08 -1.90354 -0.399465 0
M  V30 28252 C 2685.37 -1.81933 3.10761 0
M  V30 28253 C 2685.22 -0.966881 4.39285 0
M  V30 28254 C 2686.54 -2.80021 3.39524 0
M  V30 28255 H 2683.66 -0.349871 0.64866 0
M  V30 28256 H 2686.3 -0.23622 1.88526 0
M  V30 28257 H 2684.45 -2.4418 3.02173 0
M  V30 28258 H 2686.12 -0.362433 4.59874 0
M  V30 28259 H 2684.36 -0.271593 4.32949 0
M  V30 28260 H 2685.04 -1.59775 5.28371 0
M  V30 28261 H 2687.51 -2.27911 3.48132 0
M  V30 28262 H 2686.39 -3.36821 4.33408 0
M  V30 28263 H 2686.65 -3.5693 2.60871 0
M  V30 28264 N 2685.71 -1.4932 -0.504115 0
M  V30 28265 C 2686.98 -1.49149 -1.26546 0
M  V30 28266 C 2687.36 -0.217477 -2.09977 0
M  V30 28267 O 2686.71 0.800232 -2.14029 0
M  V30 28268 C 2686.92 -2.7686 -2.12484 0
M  V30 28269 C 2688.27 -3.26226 -2.71775 0
M  V30 28270 O 2689.29 -2.77956 -2.22753 0
M  V30 28271 O 2688.15 -4.10287 -3.61008 0
M  V30 28272 H 2685.25 -0.596817 -0.572485 0
M  V30 28273 H 2687.79 -1.6158 -0.518642 0
M  V30 28274 H 2686.57 -3.61079 -1.50789 0
M  V30 28275 H 2686.19 -2.67275 -2.94364 0
M  V30 28276 N 2687.19 0.754933 -1.38342 0
M  V30 28277 C 2688.14 1.85927 -1.31967 0
M  V30 28278 C 2689.12 1.59599 -0.204209 0
M  V30 28279 O 2690.31 1.71442 -0.440066 0
M  V30 28280 C 2687.44 3.23618 -1.1457 0
M  V30 28281 C 2686.53 3.55841 -2.30733 0
M  V30 28282 N 2686.92 3.59132 -3.56172 0
M  V30 28283 C 2685.22 3.861 -2.23255 0
M  V30 28284 C 2685.92 3.88584 -4.32872 0
M  V30 28285 N 2684.89 4.05345 -3.62211 0
M  V30 28286 H 2688.69 1.86746 -2.26943 0
M  V30 28287 H 2686.21 0.95222 -1.31554 0
M  V30 28288 H 2688.21 4.02645 -1.08087 0
M  V30 28289 H 2686.87 3.24051 -0.205269 0
M  V30 28290 H 2687.88 3.40925 -3.8986 0
M  V30 28291 H 2684.55 3.94256 -1.37364 0
M  V30 28292 H 2685.94 3.97764 -5.4151 0
M  V30 28293 N 2688.66 1.23189 0.982967 0
M  V30 28294 C 2689.89 1.08746 1.75664 0
M  V30 28295 C 2690.3 -0.364162 1.85662 0
M  V30 28296 O 2689.64 -1.26379 1.33319 0
M  V30 28297 C 2689.71 1.63555 3.20141 0
M  V30 28298 C 2689.37 3.12283 3.33659 0
M  V30 28299 C 2690.37 4.09605 3.20187 0
M  V30 28300 C 2688.05 3.51939 3.58391 0
M  V30 28301 C 2690.05 5.44569 3.31246 0
M  V30 28302 C 2687.73 4.87048 3.69089 0
M  V30 28303 C 2688.73 5.83172 3.55527 0
M  V30 28304 O 2688.42 7.15827 3.65852 0
M  V30 28305 H 2688.15 0.381317 0.558188 0
M  V30 28306 H 2690.71 1.63456 1.24384 0
M  V30 28307 H 2688.94 1.03263 3.72658 0
M  V30 28308 H 2690.62 1.44627 3.7926 0
M  V30 28309 H 2691.39 3.8031 3.0098 0
M  V30 28310 H 2687.27 2.77637 3.6802 0
M  V30 28311 H 2690.81 6.19578 3.20577 0
M  V30 28312 H 2686.71 5.16021 3.87805 0
M  V30 28313 H 2687.48 7.23541 3.82663 0
M  V30 28314 N 2690.14 -1.18133 1.04318 0
M  V30 28315 C 2691.1 -2.20059 0.640833 0
M  V30 28316 C 2692.1 -1.57918 -0.303096 0
M  V30 28317 O 2693.29 -1.73977 -0.0881549 0
M  V30 28318 C 2690.43 -3.40847 -0.0600881 0
M  V30 28319 H 2691.62 -2.57169 1.54285 0
M  V30 28320 H 2689.17 -1.32062 0.836027 0
M  V30 28321 H 2689.91 -3.09271 -0.975791 0
M  V30 28322 H 2689.69 -3.87193 0.618387 0
M  V30 28323 H 2691.18 -4.1631 -0.328009 0
M  V30 28324 N 2691.62 -0.822988 -1.34405 0
M  V30 28325 C 2692.87 -0.41028 -1.97892 0
M  V30 28326 C 2693.19 1.03014 -1.65569 0
M  V30 28327 O 2692.46 1.7152 -0.946451 0
M  V30 28328 H 2691.04 -0.14872 -0.732046 0
M  V30 28329 H 2693.7 -1.05245 -1.64041 0
M  V30 28330 H 2692.8 -0.529338 -3.07578 0
M  V30 28331 N 2693.1 1.4662 -0.577957 0
M  V30 28332 C 2694.03 2.28362 0.195761 0
M  V30 28333 C 2695.04 1.38234 0.859958 0
M  V30 28334 O 2696.23 1.62876 0.73032 0
M  V30 28335 C 2693.33 3.13127 1.29634 0
M  V30 28336 C 2692.51 4.3135 0.724974 0
M  V30 28337 C 2691.56 4.97549 1.71265 0
M  V30 28338 O 2690.59 5.55292 1.25057 0
M  V30 28339 N 2691.79 4.94126 3.04663 0
M  V30 28340 H 2694.56 2.95406 -0.50552 0
M  V30 28341 H 2692.12 1.5648 -0.415408 0
M  V30 28342 H 2694.11 3.54278 1.95625 0
M  V30 28343 H 2692.68 2.48189 1.90055 0
M  V30 28344 H 2691.9 3.9404 -0.112274 0
M  V30 28345 H 2693.19 5.07774 0.322945 0
M  V30 28346 H 2692.59 4.4845 3.44832 0
M  V30 28347 H 2691.14 5.39233 3.66157 0
M  V30 28348 N 2694.58 0.315484 1.5441 0
M  V30 28349 C 2695.51 -0.546999 2.27003 0
M  V30 28350 C 2696.49 -1.12603 1.27494 0
M  V30 28351 O 2697.67 -1.15267 1.56292 0
M  V30 28352 C 2694.8 -1.71196 3.02174 0
M  V30 28353 C 2693.76 -1.26261 4.08952 0
M  V30 28354 C 2693.08 -2.51388 4.7192 0
M  V30 28355 C 2694.38 -0.383327 5.20891 0
M  V30 28356 H 2696.08 0.0585043 2.99343 0
M  V30 28357 H 2693.62 0.0295781 1.4397 0
M  V30 28358 H 2695.58 -2.32155 3.51685 0
M  V30 28359 H 2694.3 -2.34393 2.27437 0
M  V30 28360 H 2692.96 -0.675999 3.60313 0
M  V30 28361 H 2692.61 -3.12931 3.93806 0
M  V30 28362 H 2692.31 -2.22017 5.44043 0
M  V30 28363 H 2693.83 -3.13124 5.242 0
M  V30 28364 H 2695.24 -0.898983 5.66208 0
M  V30 28365 H 2693.64 -0.182752 5.99822 0
M  V30 28366 H 2694.71 0.587906 4.81323 0
M  V30 28367 N 2696.05 -1.5754 0.0434891 0
M  V30 28368 C 2697.02 -2.09984 -0.918659 0
M  V30 28369 C 2698.02 -1.01783 -1.24486 0
M  V30 28370 O 2699.21 -1.27887 -1.18282 0
M  V30 28371 C 2696.34 -2.57768 -2.23088 0
M  V30 28372 H 2697.53 -2.96286 -0.464177 0
M  V30 28373 H 2695.09 -1.54953 -0.204791 0
M  V30 28374 H 2695.82 -1.74837 -2.73134 0
M  V30 28375 H 2695.61 -3.3683 -2.00718 0
M  V30 28376 H 2697.1 -2.98517 -2.92023 0
M  V30 28377 N 2697.53 0.229818 -1.55915 0
M  V30 28378 C 2698.76 0.97253 -1.82618 0
M  V30 28379 C 2699.18 1.78277 -0.62152 0
M  V30 28380 O 2698.53 1.77837 0.409925 0
M  V30 28381 C 2698.58 1.89674 -3.07744 0
M  V30 28382 O 2698.3 1.11926 -4.23561 0
M  V30 28383 C 2699.81 2.75403 -3.47373 0
M  V30 28384 H 2697.03 0.285408 -0.607275 0
M  V30 28385 H 2699.57 0.247543 -2.02996 0
M  V30 28386 H 2697.72 2.57578 -2.89365 0
M  V30 28387 H 2698.14 1.7459 -4.94589 0
M  V30 28388 H 2699.61 3.35969 -4.37982 0
M  V30 28389 H 2700.09 3.47381 -2.68743 0
M  V30 28390 H 2700.7 2.12925 -3.68162 0
M  V30 28391 N 2699.01 1.49585 0.49619 0
M  V30 28392 C 2699.94 1.69524 1.60573 0
M  V30 28393 C 2700.92 0.543962 1.61168 0
M  V30 28394 O 2702.11 0.780341 1.77832 0
M  V30 28395 C 2699.24 1.76622 2.99035 0
M  V30 28396 C 2698.19 2.91587 3.13307 0
M  V30 28397 C 2697.52 2.83802 4.53167 0
M  V30 28398 C 2698.82 4.32457 2.92879 0
M  V30 28399 H 2700.51 2.62419 1.44141 0
M  V30 28400 H 2698.06 1.26283 0.692001 0
M  V30 28401 H 2700.01 1.89156 3.76561 0
M  V30 28402 H 2698.73 0.803296 3.16567 0
M  V30 28403 H 2697.39 2.78662 2.38208 0
M  V30 28404 H 2697.04 1.85408 4.67582 0
M  V30 28405 H 2696.74 3.60967 4.63656 0
M  V30 28406 H 2698.26 2.98351 5.32747 0
M  V30 28407 H 2699.68 4.46039 3.6017 0
M  V30 28408 H 2698.08 5.10881 3.14835 0
M  V30 28409 H 2699.15 4.46568 1.88958 0
M  V30 28410 N 2700.49 -0.747586 1.3874 0
M  V30 28411 C 2701.77 -1.49784 1.25794 0
M  V30 28412 C 2702.15 -2.10648 -0.138038 0
M  V30 28413 O 2701.49 -1.97562 -1.14811 0
M  V30 28414 C 2701.7 -2.55938 2.37269 0
M  V30 28415 C 2703.05 -3.22674 2.75983 0
M  V30 28416 O 2704.08 -2.66246 2.36625 0
M  V30 28417 O 2702.93 -4.2475 3.43875 0
M  V30 28418 H 2700.03 -0.664535 0.492263 0
M  V30 28419 H 2702.57 -0.782484 1.50583 0
M  V30 28420 H 2701.35 -2.09255 3.30648 0
M  V30 28421 H 2700.97 -3.35048 2.14077 0
M  V30 28422 N 2701.97 -1.23709 -0.97642 0
M  V30 28423 C 2703.22 -1.06562 -1.71253 0
M  V30 28424 C 2703.53 0.39699 -1.91529 0
M  V30 28425 O 2704.73 0.688472 -2.62626 0
M  V30 28426 C 2703.19 -1.85846 -3.08204 0
M  V30 28427 C 2702.8 -3.36461 -2.958 0
M  V30 28428 C 2704.54 -1.77201 -3.85746 0
M  V30 28429 C 2702.45 -4.08122 -4.28008 0
M  V30 28430 H 2701.38 -0.395147 -0.642164 0
M  V30 28431 H 2704.03 -1.47711 -1.08874 0
M  V30 28432 H 2702.41 -1.37505 -3.7136 0
M  V30 28433 H 2703.59 -3.92318 -2.41709 0
M  V30 28434 H 2701.9 -3.45963 -2.3173 0
M  V30 28435 H 2704.5 -2.2805 -4.83629 0
M  V30 28436 H 2704.84 -0.735549 -4.0975 0
M  V30 28437 H 2705.37 -2.23174 -3.29299 0
M  V30 28438 H 2702.11 -5.12091 -4.09199 0
M  V30 28439 H 2701.63 -3.57052 -4.81948 0
M  V30 28440 H 2703.31 -4.14637 -4.96674 0
M  V30 28441 N 2703.44 1.17579 -1.04943 0
M  V30 28442 C 2704.67 1.92243 -0.778287 0
M  V30 28443 C 2705.09 1.76153 0.659676 0
M  V30 28444 O 2704.45 1.07758 1.45801 0
M  V30 28445 C 2704.5 3.41414 -1.16057 0
M  V30 28446 O 2703.6 4.1137 -0.291225 0
M  V30 28447 H 2702.95 0.599426 -0.28563 0
M  V30 28448 H 2705.48 1.4905 -1.40162 0
M  V30 28449 H 2705.49 3.92147 -1.12626 0
M  V30 28450 H 2704.16 3.52445 -2.20806 0
M  V30 28451 H 2702.74 3.70898 -0.385916 0
M  V30 28452 N 2704.92 0.830104 1.33967 0
M  V30 28453 C 2706.15 0.434808 2.0228 0
M  V30 28454 C 2706.57 -0.96139 1.62489 0
M  V30 28455 O 2705.92 -1.62335 0.833878 0
M  V30 28456 C 2705.97 0.535687 3.57509 0
M  V30 28457 O 2705.69 1.87686 3.9586 0
M  V30 28458 C 2707.2 0.136215 4.43091 0
M  V30 28459 H 2704.42 0.173624 0.648148 0
M  V30 28460 H 2706.96 1.12025 1.71087 0
M  V30 28461 H 2705.11 -0.101749 3.87266 0
M  V30 28462 H 2705.53 1.85618 4.90557 0
M  V30 28463 H 2707 0.257869 5.51397 0
M  V30 28464 H 2707.48 -0.921 4.29435 0
M  V30 28465 H 2708.09 0.747736 4.18675 0
M  V30 28466 N 2706.4 -1.46311 0.585725 0
M  V30 28467 C 2707.31 -2.34131 -0.148195 0
M  V30 28468 C 2708.33 -1.49934 -0.882946 0
M  V30 28469 O 2709.5 -1.82795 -0.845452 0
M  V30 28470 C 2706.57 -3.27174 -1.14708 0
M  V30 28471 C 2705.63 -4.27273 -0.416671 0
M  V30 28472 C 2704.86 -5.1587 -1.36797 0
M  V30 28473 O 2705.09 -5.07458 -2.60466 0
M  V30 28474 O 2704.02 -5.95478 -0.876914 0
M  V30 28475 H 2707.85 -2.98247 0.572934 0
M  V30 28476 H 2705.43 -1.45336 0.346107 0
M  V30 28477 H 2707.31 -3.84567 -1.72296 0
M  V30 28478 H 2705.99 -2.65651 -1.84962 0
M  V30 28479 H 2704.89 -3.73559 0.201127 0
M  V30 28480 H 2706.23 -4.9159 0.244959 0
M  V30 28481 N 2707.88 -0.323668 -1.54241 0
M  V30 28482 C 2709.29 0.164372 -1.85975 0
M  V30 28483 C 2709.64 1.51613 -1.24531 0
M  V30 28484 O 2708.77 2.09257 -0.551388 0
M  V30 28485 C 2709.36 0.305031 -3.37424 0
M  V30 28486 C 2707.92 0.737293 -3.69108 0
M  V30 28487 C 2707.07 -0.140933 -2.76942 0
M  V30 28488 H 2710.02 -0.543948 -1.49087 0
M  V30 28489 H 2710.04 1.13592 -3.63149 0
M  V30 28490 H 2709.55 -0.678943 -3.82115 0
M  V30 28491 H 2707.65 1.73101 -3.2995 0
M  V30 28492 H 2707.77 0.540969 -4.76036 0
M  V30 28493 H 2706.13 0.383527 -2.51796 0
M  V30 28494 H 2706.91 -1.12168 -3.24459 0
M  V30 28495 N 2709.36 1.57515 -0.0518432 0
M  V30 28496 C 2710.29 2.0713 0.957722 0
M  V30 28497 C 2711.27 0.971949 1.30353 0
M  V30 28498 O 2712.45 1.24393 1.41629 0
M  V30 28499 C 2709.58 2.51236 2.27153 0
M  V30 28500 C 2708.63 3.72413 2.07872 0
M  V30 28501 S 2709.46 5.18035 1.35647 0
M  V30 28502 C 2710.61 5.65455 2.68349 0
M  V30 28503 H 2710.85 2.92438 0.535468 0
M  V30 28504 H 2708.38 1.53564 0.160438 0
M  V30 28505 H 2710.34 2.77309 3.02671 0
M  V30 28506 H 2709 1.66232 2.66506 0
M  V30 28507 H 2708.19 4.01196 3.05054 0
M  V30 28508 H 2707.79 3.46609 1.40493 0
M  V30 28509 H 2710.09 5.71082 3.64516 0
M  V30 28510 H 2711.03 6.64659 2.44201 0
M  V30 28511 H 2711.44 4.93187 2.74639 0
M  V30 28512 N 2710.84 -0.221546 1.56035 0
M  V30 28513 C 2711.78 -1.27456 1.92415 0
M  V30 28514 C 2712.75 -1.46575 0.781349 0
M  V30 28515 O 2713.94 -1.60143 1.03724 0
M  V30 28516 C 2711.08 -2.61991 2.24622 0
M  V30 28517 C 2710.19 -2.5067 3.51836 0
M  V30 28518 C 2709.33 -3.77729 3.73489 0
M  V30 28519 C 2708.36 -3.61131 4.94217 0
M  V30 28520 N 2707.5 -4.80139 5.1226 0
M  V30 28521 H 2712.34 -0.957306 2.82205 0
M  V30 28522 H 2709.88 -0.46139 1.39677 0
M  V30 28523 H 2711.84 -3.40335 2.41304 0
M  V30 28524 H 2710.47 -2.91812 1.38005 0
M  V30 28525 H 2709.52 -1.63761 3.43346 0
M  V30 28526 H 2710.83 -2.34327 4.40332 0
M  V30 28527 H 2709.98 -4.64516 3.90268 0
M  V30 28528 H 2708.72 -3.96998 2.83273 0
M  V30 28529 H 2707.73 -2.72728 4.77388 0
M  V30 28530 H 2708.95 -3.43332 5.85918 0
M  V30 28531 H 2706.9 -4.99722 4.24987 0
M  V30 28532 H 2706.82 -4.66522 5.94889 0
M  V30 28533 H 2708.08 -5.68353 5.33475 0
M  V30 28534 N 2712.31 -1.49846 -0.48825 0
M  V30 28535 C 2713.24 -1.70373 -1.59672 0
M  V30 28536 C 2714.22 -0.552501 -1.60877 0
M  V30 28537 O 2715.41 -0.789761 -1.77416 0
M  V30 28538 C 2712.54 -1.78205 -2.98094 0
M  V30 28539 C 2711.49 -2.93244 -3.11756 0
M  V30 28540 C 2710.82 -2.86201 -4.51656 0
M  V30 28541 C 2712.12 -4.34004 -2.90581 0
M  V30 28542 H 2713.81 -2.6318 -1.42747 0
M  V30 28543 H 2711.36 -1.26648 -0.685295 0
M  V30 28544 H 2713.31 -1.91151 -3.75552 0
M  V30 28545 H 2712.04 -0.820073 -3.16137 0
M  V30 28546 H 2710.7 -2.79922 -2.36727 0
M  V30 28547 H 2710.34 -1.87885 -4.66592 0
M  V30 28548 H 2710.04 -3.6342 -4.61735 0
M  V30 28549 H 2711.57 -3.01172 -5.31157 0
M  V30 28550 H 2712.98 -4.47942 -3.578 0
M  V30 28551 H 2711.38 -5.12543 -3.12121 0
M  V30 28552 H 2712.45 -4.47564 -1.86587 0
M  V30 28553 N 2713.79 0.740218 -1.39135 0
M  V30 28554 C 2714.7 1.8847 -1.397 0
M  V30 28555 C 2715.72 1.71525 -0.292434 0
M  V30 28556 O 2716.89 1.94218 -0.533055 0
M  V30 28557 C 2713.96 3.24001 -1.23387 0
M  V30 28558 C 2713.02 3.53377 -2.43769 0
M  V30 28559 C 2712.25 4.82441 -2.28225 0
M  V30 28560 O 2712.48 5.55784 -1.28298 0
M  V30 28561 O 2711.41 5.11597 -3.17099 0
M  V30 28562 H 2715.24 1.90948 -2.36162 0
M  V30 28563 H 2712.82 0.887325 -1.20195 0
M  V30 28564 H 2714.7 4.05004 -1.16402 0
M  V30 28565 H 2713.38 3.22305 -0.300177 0
M  V30 28566 H 2712.28 2.72481 -2.5633 0
M  V30 28567 H 2713.62 3.59846 -3.35815 0
M  V30 28568 N 2715.27 1.24225 0.969846 0
M  V30 28569 C 2716.55 0.988693 1.68773 0
M  V30 28570 C 2716.93 -0.489636 2.05343 0
M  V30 28571 O 2716.27 -1.46342 1.75489 0
M  V30 28572 C 2716.48 1.90946 2.92131 0
M  V30 28573 C 2717.83 2.1791 3.64418 0
M  V30 28574 O 2718.86 1.88581 3.02185 0
M  V30 28575 O 2717.72 2.67706 4.76441 0
M  V30 28576 H 2714.81 0.373743 0.73773 0
M  V30 28577 H 2717.36 1.35314 1.02413 0
M  V30 28578 H 2716.13 2.90836 2.61783 0
M  V30 28579 H 2715.75 1.54805 3.66226 0
M  V30 28580 N 2716.75 -1.1702 1.05565 0
M  V30 28581 C 2717.71 -2.19367 0.664137 0
M  V30 28582 C 2718.71 -1.5823 -0.28633 0
M  V30 28583 O 2719.9 -1.74061 -0.0696974 0
M  V30 28584 C 2717.03 -3.40892 -0.0239333 0
M  V30 28585 H 2718.23 -2.55518 1.57004 0
M  V30 28586 H 2715.78 -1.31168 0.849987 0
M  V30 28587 H 2716.51 -3.10289 -0.942934 0
M  V30 28588 H 2716.3 -3.86515 0.659419 0
M  V30 28589 H 2717.79 -4.16634 -0.283835 0
M  V30 28590 N 2718.23 -0.837197 -1.33524 0
M  V30 28591 C 2719.47 -0.432739 -1.98129 0
M  V30 28592 C 2719.8 1.00505 -1.6617 0
M  V30 28593 O 2719.08 1.70237 -0.940719 0
M  V30 28594 C 2719.36 -0.651896 -3.5415 0
M  V30 28595 C 2719.22 -2.13683 -3.95802 0
M  V30 28596 C 2720.53 -0.096971 -4.39993 0
M  V30 28597 H 2717.65 -0.158702 -0.71971 0
M  V30 28598 H 2720.3 -1.0524 -1.58191 0
M  V30 28599 H 2718.45 -0.124437 -3.88301 0
M  V30 28600 H 2720.12 -2.72903 -3.71916 0
M  V30 28601 H 2718.36 -2.62197 -3.45594 0
M  V30 28602 H 2719.03 -2.24093 -5.04466 0
M  V30 28603 H 2721.51 -0.547805 -4.12478 0
M  V30 28604 H 2720.38 -0.280013 -5.48185 0
M  V30 28605 H 2720.64 0.999124 -4.30662 0
M  V30 28606 N 2719.7 1.45999 -0.593476 0
M  V30 28607 C 2720.93 2.06408 -0.0890005 0
M  V30 28608 C 2721.34 1.44108 1.22595 0
M  V30 28609 O 2720.68 0.544429 1.75447 0
M  V30 28610 C 2720.75 3.59228 0.139839 0
M  V30 28611 C 2720.41 4.43783 -1.09115 0
M  V30 28612 C 2721.41 4.79647 -2.00586 0
M  V30 28613 C 2719.09 4.84754 -1.31602 0
M  V30 28614 C 2721.09 5.55323 -3.12883 0
M  V30 28615 C 2718.77 5.60186 -2.44202 0
M  V30 28616 C 2719.77 5.95386 -3.34671 0
M  V30 28617 O 2719.46 6.69291 -4.45314 0
M  V30 28618 H 2719.19 0.673379 -0.0594732 0
M  V30 28619 H 2721.75 1.88451 -0.817033 0
M  V30 28620 H 2719.98 3.75533 0.922606 0
M  V30 28621 H 2721.66 4.01528 0.594157 0
M  V30 28622 H 2722.43 4.48564 -1.84433 0
M  V30 28623 H 2718.31 4.568 -0.620881 0
M  V30 28624 H 2721.85 5.82715 -3.83521 0
M  V30 28625 H 2717.75 5.90684 -2.60313 0
M  V30 28626 H 2718.52 6.87727 -4.43817 0
M  V30 28627 N 2721.18 0.331843 1.54067 0
M  V30 28628 C 2722.43 -0.267704 2.00319 0
M  V30 28629 C 2722.75 -1.52001 1.22151 0
M  V30 28630 O 2722.02 -1.93176 0.325527 0
M  V30 28631 H 2720.6 -0.101909 0.740016 0
M  V30 28632 H 2723.26 0.4503 1.89627 0
M  V30 28633 H 2722.36 -0.518331 3.07766 0
M  V30 28634 N 2722.66 -1.57485 0.0601958 0
M  V30 28635 C 2723.89 -1.97364 -0.620903 0
M  V30 28636 C 2724.3 -0.938111 -1.63844 0
M  V30 28637 O 2723.66 0.0766257 -1.82339 0
M  V30 28638 C 2723.71 -3.37324 -1.29981 0
M  V30 28639 O 2723.43 -4.36908 -0.323004 0
M  V30 28640 C 2724.93 -3.92012 -2.06982 0
M  V30 28641 H 2722.15 -0.649337 -0.169124 0
M  V30 28642 H 2724.7 -2.04092 0.129167 0
M  V30 28643 H 2722.85 -3.31718 -2.00104 0
M  V30 28644 H 2723.27 -5.18229 -0.808663 0
M  V30 28645 H 2724.74 -4.92197 -2.49893 0
M  V30 28646 H 2725.22 -3.27926 -2.92167 0
M  V30 28647 H 2725.82 -4.00983 -1.4175 0
M  V30 28648 N 2724.14 0.213268 -1.5615 0
M  V30 28649 C 2725.05 1.28515 -1.96268 0
M  V30 28650 C 2726.06 1.50822 -0.867676 0
M  V30 28651 O 2727.24 1.63791 -1.17194 0
M  V30 28652 C 2724.31 2.61323 -2.27841 0
M  V30 28653 C 2723.37 2.47246 -3.50953 0
M  V30 28654 C 2722.6 3.7372 -3.8101 0
M  V30 28655 O 2722.82 4.771 -3.1262 0
M  V30 28656 O 2721.76 3.70336 -4.74484 0
M  V30 28657 H 2725.58 0.974744 -2.87632 0
M  V30 28658 H 2723.17 0.416807 -1.43468 0
M  V30 28659 H 2725.05 3.39742 -2.49305 0
M  V30 28660 H 2723.72 2.92028 -1.39648 0
M  V30 28661 H 2722.63 1.66999 -3.34757 0
M  V30 28662 H 2723.96 2.21478 -4.39554 0
M  V30 28663 N 2725.62 1.50103 0.480296 0
M  V30 28664 C 2726.86 1.60314 1.2306 0
M  V30 28665 C 2727.19 0.30126 1.92659 0
M  V30 28666 O 2726.46 -0.680721 1.83693 0
M  V30 28667 H 2725.04 0.590727 0.457221 0
M  V30 28668 H 2727.7 1.86835 0.55486 0
M  V30 28669 H 2726.79 2.40967 1.98346 0
M  V30 28670 N 2727.09 -0.732829 1.39526 0
M  V30 28671 C 2728.02 -1.86003 1.41157 0
M  V30 28672 C 2729.01 -1.67868 0.274644 0
M  V30 28673 O 2730.19 -1.88155 0.480778 0
M  V30 28674 C 2727.32 -3.23776 1.25644 0
M  V30 28675 C 2726.27 -3.56552 2.36759 0
M  V30 28676 C 2725.6 -4.93285 2.06334 0
M  V30 28677 C 2726.9 -3.59303 3.79076 0
M  V30 28678 H 2728.59 -1.84895 2.35487 0
M  V30 28679 H 2726.14 -0.888142 1.13349 0
M  V30 28680 H 2728.09 -4.02308 1.25405 0
M  V30 28681 H 2726.82 -3.25416 0.277829 0
M  V30 28682 H 2725.48 -2.80351 2.36218 0
M  V30 28683 H 2725.12 -4.91508 1.06906 0
M  V30 28684 H 2724.82 -5.16182 2.80766 0
M  V30 28685 H 2726.35 -5.74171 2.07749 0
M  V30 28686 H 2727.76 -4.27907 3.81534 0
M  V30 28687 H 2726.16 -3.9372 4.52885 0
M  V30 28688 H 2727.23 -2.5906 4.09897 0
M  V30 28689 N 2728.57 -1.24737 -0.963244 0
M  V30 28690 C 2729.48 -1.06085 -2.09244 0
M  V30 28691 C 2730.5 -0.000393686 -1.74 0
M  V30 28692 O 2731.67 -0.199514 -2.00409 0
M  V30 28693 C 2728.74 -0.672558 -3.40114 0
M  V30 28694 C 2727.8 -1.81 -3.89278 0
M  V30 28695 C 2727.03 -1.44013 -5.13903 0
M  V30 28696 O 2727.26 -0.331935 -5.69433 0
M  V30 28697 O 2726.19 -2.26733 -5.57562 0
M  V30 28698 H 2730.02 -2.00763 -2.27877 0
M  V30 28699 H 2727.6 -1.03597 -1.07648 0
M  V30 28700 H 2729.48 -0.467742 -4.18796 0
M  V30 28701 H 2728.16 0.245045 -3.22771 0
M  V30 28702 H 2727.07 -2.0696 -3.11638 0
M  V30 28703 H 2728.4 -2.70653 -4.11105 0
M  V30 28704 N 2730.05 1.16459 -1.06184 0
M  V30 28705 C 2731.01 2.19012 -0.675761 0
M  V30 28706 C 2732.01 1.5838 0.277935 0
M  V30 28707 O 2733.2 1.74095 0.0604656 0
M  V30 28708 C 2730.34 3.40899 0.00585467 0
M  V30 28709 H 2731.53 2.54682 -1.58357 0
M  V30 28710 H 2729.08 1.30715 -0.856931 0
M  V30 28711 H 2729.82 3.10785 0.926465 0
M  V30 28712 H 2729.6 3.8616 -0.679908 0
M  V30 28713 H 2731.09 4.16779 0.261736 0
M  V30 28714 N 2731.53 0.844266 1.33079 0
M  V30 28715 C 2732.46 0.296533 2.31609 0
M  V30 28716 C 2733.44 -0.598679 1.59216 0
M  V30 28717 O 2734.62 -0.521101 1.87078 0
M  V30 28718 C 2731.75 -0.524702 3.43314 0
M  V30 28719 C 2730.71 0.275181 4.27114 0
M  V30 28720 C 2730.03 -0.670143 5.30484 0
M  V30 28721 C 2731.33 1.49522 5.0044 0
M  V30 28722 H 2733.03 1.11981 2.7767 0
M  V30 28723 H 2730.57 0.539923 1.33495 0
M  V30 28724 H 2732.53 -0.918226 4.11274 0
M  V30 28725 H 2731.25 -1.38124 2.95955 0
M  V30 28726 H 2729.91 0.65033 3.60786 0
M  V30 28727 H 2729.56 -1.52324 4.79381 0
M  V30 28728 H 2729.26 -0.13902 5.87436 0
M  V30 28729 H 2730.78 -1.06107 6.0131 0
M  V30 28730 H 2732.2 1.17456 5.61139 0
M  V30 28731 H 2730.59 1.96353 5.67068 0
M  V30 28732 H 2731.66 2.2621 4.28902 0
M  V30 28733 N 2733.01 -1.45682 0.60121 0
M  V30 28734 C 2734.28 -1.95582 0.0262003 0
M  V30 28735 C 2734.66 -1.54372 -1.43987 0
M  V30 28736 O 2734.01 -0.803217 -2.13917 0
M  V30 28737 C 2734.22 -3.48321 0.217618 0
M  V30 28738 C 2735.57 -4.24494 0.0950822 0
M  V30 28739 O 2736.59 -3.55895 0.147408 0
M  V30 28740 O 2735.45 -5.46494 -0.0251649 0
M  V30 28741 H 2732.55 -0.826063 -0.0393543 0
M  V30 28742 H 2735.09 -1.55878 0.670825 0
M  V30 28743 H 2733.86 -3.71264 1.23608 0
M  V30 28744 H 2733.49 -3.949 -0.462571 0
M  V30 28745 N 2734.48 -0.340009 -1.53889 0
M  V30 28746 C 2735.41 0.510816 -2.27844 0
M  V30 28747 C 2736.4 1.1056 -1.29269 0
M  V30 28748 O 2737.58 1.12766 -1.58106 0
M  V30 28749 C 2734.71 1.66367 -3.0486 0
M  V30 28750 C 2733.66 1.19739 -4.10909 0
M  V30 28751 C 2732.99 2.43848 -4.75859 0
M  V30 28752 C 2734.29 0.30041 -5.21435 0
M  V30 28753 H 2735.98 -0.10612 -2.99212 0
M  V30 28754 H 2733.53 -0.0524786 -1.43904 0
M  V30 28755 H 2735.48 2.26531 -3.55333 0
M  V30 28756 H 2734.21 2.30745 -2.31137 0
M  V30 28757 H 2732.87 0.618591 -3.61343 0
M  V30 28758 H 2732.51 3.06626 -3.98735 0
M  V30 28759 H 2732.21 2.13333 -5.47506 0
M  V30 28760 H 2733.74 3.04744 -5.29115 0
M  V30 28761 H 2735.15 0.80879 -5.67566 0
M  V30 28762 H 2733.55 0.0873021 -6.00036 0
M  V30 28763 H 2734.62 -0.664406 -4.80327 0
M  V30 28764 N 2735.96 1.57451 -0.0685468 0
M  V30 28765 C 2737.19 1.9769 0.610427 0
M  V30 28766 C 2737.61 0.946787 1.63344 0
M  V30 28767 O 2736.96 -0.0669548 1.82377 0
M  V30 28768 C 2737.01 3.38008 1.2819 0
M  V30 28769 O 2736.74 4.37073 0.299829 0
M  V30 28770 C 2738.24 3.93104 2.049 0
M  V30 28771 H 2735.46 0.650224 0.165678 0
M  V30 28772 H 2738 2.0402 -0.139989 0
M  V30 28773 H 2736.16 3.32775 1.98342 0
M  V30 28774 H 2736.57 5.1865 0.781169 0
M  V30 28775 H 2738.04 4.93515 2.47279 0
M  V30 28776 H 2738.52 3.2947 2.90424 0
M  V30 28777 H 2739.13 4.01729 1.39622 0
M  V30 28778 N 2737.44 -0.204984 1.56261 0
M  V30 28779 C 2738.67 -0.943354 1.84142 0
M  V30 28780 C 2739.08 -1.77265 0.649803 0
M  V30 28781 O 2738.44 -1.78466 -0.381581 0
M  V30 28782 C 2738.49 -1.84754 3.10722 0
M  V30 28783 O 2738.21 -1.05174 4.25288 0
M  V30 28784 C 2739.71 -2.69842 3.5171 0
M  V30 28785 H 2736.93 -0.275711 0.611739 0
M  V30 28786 H 2739.48 -0.215217 2.03364 0
M  V30 28787 H 2737.63 -2.52942 2.93427 0
M  V30 28788 H 2738.05 -1.667 4.97304 0
M  V30 28789 H 2739.52 -3.28959 4.43272 0
M  V30 28790 H 2740 -3.43062 2.74236 0
M  V30 28791 H 2740.6 -2.07041 3.71503 0
M  V30 28792 N 2738.92 -1.50356 -0.472329 0
M  V30 28793 C 2740.14 -1.65311 -1.25248 0
M  V30 28794 C 2740.57 -0.335675 -1.85081 0
M  V30 28795 O 2739.93 0.700306 -1.67229 0
M  V30 28796 C 2739.98 -2.74548 -2.33785 0
M  V30 28797 O 2739.08 -2.35715 -3.38396 0
M  V30 28798 H 2738.42 -0.552343 -0.368529 0
M  V30 28799 H 2740.95 -1.96723 -0.562236 0
M  V30 28800 H 2740.96 -2.97587 -2.79116 0
M  V30 28801 H 2739.64 -3.70165 -1.89607 0
M  V30 28802 H 2738.21 -2.23118 -2.98786 0
M  V30 28803 N 2740.4 0.725419 -1.39912 0
M  V30 28804 C 2741.36 1.82119 -1.3916 0
M  V30 28805 C 2742.36 1.58217 -0.287046 0
M  V30 28806 O 2743.55 1.6544 -0.54545 0
M  V30 28807 C 2740.68 3.2006 -1.17366 0
M  V30 28808 H 2741.88 1.84187 -2.36675 0
M  V30 28809 H 2739.43 0.930057 -1.25617 0
M  V30 28810 H 2740.16 3.23647 -0.205705 0
M  V30 28811 H 2739.95 3.38806 -1.97364 0
M  V30 28812 H 2741.44 4.00106 -1.19603 0
M  V30 28813 N 2741.88 1.25246 0.956615 0
M  V30 28814 C 2743.12 1.09659 1.69762 0
M  V30 28815 C 2743.44 -0.36343 1.91583 0
M  V30 28816 O 2742.71 -1.25823 1.50151 0
M  V30 28817 H 2741.29 0.402809 0.62909 0
M  V30 28818 H 2743.96 1.57339 1.15024 0
M  V30 28819 H 2743.05 1.60336 2.67766 0
M  V30 28820 N 2743.35 -1.15894 1.068 0
M  V30 28821 C 2744.58 -1.90163 0.807555 0
M  V30 28822 C 2744.99 -1.77961 -0.642385 0
M  V30 28823 O 2744.33 -1.1254 -1.45191 0
M  V30 28824 C 2744.4 -3.41297 1.12945 0
M  V30 28825 C 2744.06 -3.77285 2.57885 0
M  V30 28826 C 2745.06 -3.78776 3.56125 0
M  V30 28827 C 2742.74 -4.07762 2.93318 0
M  V30 28828 C 2744.74 -4.10239 4.87834 0
M  V30 28829 C 2742.42 -4.38891 4.25227 0
M  V30 28830 C 2743.42 -4.40111 5.22295 0
M  V30 28831 O 2743.11 -4.70497 6.51834 0
M  V30 28832 H 2742.84 -0.609703 0.291957 0
M  V30 28833 H 2745.4 -1.47804 1.4263 0
M  V30 28834 H 2743.63 -3.8403 0.453657 0
M  V30 28835 H 2745.31 -3.96848 0.852433 0
M  V30 28836 H 2746.08 -3.55336 3.30093 0
M  V30 28837 H 2741.96 -4.05975 2.18416 0
M  V30 28838 H 2745.5 -4.11106 5.63593 0
M  V30 28839 H 2741.4 -4.61797 4.51014 0
M  V30 28840 H 2742.17 -4.88286 6.56901 0
M  V30 28841 N 2744.83 -0.851312 -1.32629 0
M  V30 28842 C 2746.24 -0.508132 -1.79652 0
M  V30 28843 C 2746.59 0.973785 -1.70329 0
M  V30 28844 O 2745.72 1.75942 -1.25989 0
M  V30 28845 C 2746.31 -0.915573 -3.26194 0
M  V30 28846 C 2744.87 -0.624342 -3.71186 0
M  V30 28847 C 2744.02 -1.11714 -2.53802 0
M  V30 28848 H 2746.97 -1.03884 -1.19974 0
M  V30 28849 H 2746.99 -0.230602 -3.79801 0
M  V30 28850 H 2746.5 -1.99417 -3.32948 0
M  V30 28851 H 2744.6 0.443672 -3.69949 0
M  V30 28852 H 2744.72 -1.18829 -4.6413 0
M  V30 28853 H 2743.08 -0.537527 -2.48963 0
M  V30 28854 H 2743.86 -2.20277 -2.63311 0
M  V30 28855 N 2746.31 1.45361 -0.608928 0
M  V30 28856 C 2747.54 2.06302 -0.110888 0
M  V30 28857 C 2747.95 1.454 1.21059 0
M  V30 28858 O 2747.29 0.563007 1.7486 0
M  V30 28859 C 2747.35 3.59356 0.10173 0
M  V30 28860 C 2747.02 4.426 -1.13816 0
M  V30 28861 C 2748.01 4.77493 -2.05662 0
M  V30 28862 C 2745.7 4.83331 -1.36736 0
M  V30 28863 C 2747.69 5.51973 -3.18755 0
M  V30 28864 C 2745.38 5.57565 -2.5013 0
M  V30 28865 C 2746.38 5.91803 -3.40967 0
M  V30 28866 O 2746.07 6.6453 -4.52388 0
M  V30 28867 H 2745.8 0.67271 -0.0666119 0
M  V30 28868 H 2748.35 1.87574 -0.836974 0
M  V30 28869 H 2746.58 3.7649 0.882724 0
M  V30 28870 H 2748.27 4.02135 0.551536 0
M  V30 28871 H 2749.04 4.46583 -1.8918 0
M  V30 28872 H 2744.92 4.56116 -0.669296 0
M  V30 28873 H 2748.46 5.78615 -3.8968 0
M  V30 28874 H 2744.36 5.87889 -2.66564 0
M  V30 28875 H 2745.12 6.82981 -4.51087 0
M  V30 28876 N 2747.79 0.348166 1.53706 0
M  V30 28877 C 2749.03 -0.247296 2.01287 0
M  V30 28878 C 2749.37 -1.49831 1.23548 0
M  V30 28879 O 2748.64 -1.91776 0.324364 0
M  V30 28880 C 2748.92 -0.556795 3.55769 0
M  V30 28881 C 2748.78 0.706642 4.44215 0
M  V30 28882 C 2750.1 -1.36453 4.18412 0
M  V30 28883 H 2747.22 -0.0884073 0.731678 0
M  V30 28884 H 2749.86 0.469616 1.84105 0
M  V30 28885 H 2748.01 -1.16755 3.70541 0
M  V30 28886 H 2749.68 1.34451 4.41271 0
M  V30 28887 H 2747.92 1.33059 4.12889 0
M  V30 28888 H 2748.59 0.445282 5.50201 0
M  V30 28889 H 2751.07 -0.848042 4.07366 0
M  V30 28890 H 2749.95 -1.54983 5.26566 0
M  V30 28891 H 2750.21 -2.36799 3.73335 0
M  V30 28892 N 2749.27 -1.57412 0.0768958 0
M  V30 28893 C 2750.23 -2.11885 -0.873911 0
M  V30 28894 C 2751.23 -1.04401 -1.22299 0
M  V30 28895 O 2752.42 -1.30367 -1.15543 0
M  V30 28896 C 2749.55 -2.62442 -2.1757 0
M  V30 28897 H 2750.74 -2.97204 -0.401226 0
M  V30 28898 H 2748.3 -1.55352 -0.171877 0
M  V30 28899 H 2749.03 -1.80592 -2.69364 0
M  V30 28900 H 2748.82 -3.41012 -1.93528 0
M  V30 28901 H 2750.31 -3.04644 -2.85625 0
M  V30 28902 N 2750.74 0.196695 -1.56368 0
M  V30 28903 C 2751.67 1.24651 -1.97445 0
M  V30 28904 C 2752.66 1.4756 -0.846173 0
M  V30 28905 O 2753.84 1.59324 -1.11038 0
M  V30 28906 C 2750.97 2.59108 -2.31258 0
M  V30 28907 C 2749.92 2.50815 -3.46808 0
M  V30 28908 C 2749.25 3.8953 -3.66293 0
M  V30 28909 C 2750.55 2.03457 -4.81043 0
M  V30 28910 H 2752.24 0.905166 -2.85389 0
M  V30 28911 H 2749.79 0.433977 -1.37305 0
M  V30 28912 H 2751.74 3.32731 -2.58588 0
M  V30 28913 H 2750.47 2.9498 -1.40194 0
M  V30 28914 H 2749.13 1.79648 -3.19566 0
M  V30 28915 H 2748.77 4.22752 -2.72562 0
M  V30 28916 H 2748.47 3.84856 -4.44027 0
M  V30 28917 H 2750 4.64777 -3.95998 0
M  V30 28918 H 2751.41 2.66837 -5.07416 0
M  V30 28919 H 2749.81 2.09788 -5.62236 0
M  V30 28920 H 2750.88 0.987726 -4.74734 0
M  V30 28921 N 2752.22 1.50604 0.464349 0
M  V30 28922 C 2753.47 1.6161 1.21353 0
M  V30 28923 C 2753.79 0.321677 1.92328 0
M  V30 28924 O 2753.06 -0.661199 1.84404 0
M  V30 28925 H 2751.64 0.595543 0.450929 0
M  V30 28926 H 2754.3 1.87413 0.535013 0
M  V30 28927 H 2753.4 2.43058 1.95779 0
M  V30 28928 N 2753.7 -0.717989 1.40295 0
M  V30 28929 C 2754.95 -1.47337 1.37748 0
M  V30 28930 C 2755.26 -1.95592 -0.018041 0
M  V30 28931 O 2756.47 -2.70991 -0.166118 0
M  V30 28932 C 2754.92 -2.66314 2.42085 0
M  V30 28933 C 2754.53 -2.24939 3.87436 0
M  V30 28934 C 2756.28 -3.44061 2.48641 0
M  V30 28935 C 2754.18 -3.4074 4.83374 0
M  V30 28936 H 2753.11 -0.553347 0.512175 0
M  V30 28937 H 2755.76 -0.781632 1.6602 0
M  V30 28938 H 2754.15 -3.37646 2.06909 0
M  V30 28939 H 2755.32 -1.61042 4.31743 0
M  V30 28940 H 2753.64 -1.60242 3.84333 0
M  V30 28941 H 2756.23 -4.30225 3.17506 0
M  V30 28942 H 2756.58 -3.87708 1.51618 0
M  V30 28943 H 2757.11 -2.7977 2.82796 0
M  V30 28944 H 2753.85 -3.02126 5.81722 0
M  V30 28945 H 2753.37 -4.0356 4.43733 0
M  V30 28946 H 2755.05 -4.06839 5.03081 0
M  V30 28947 N 2755.18 -1.25752 -0.94996 0
M  V30 28948 C 2756.13 -1.06544 -2.04736 0
M  V30 28949 C 2757.1 0.0268526 -1.66078 0
M  V30 28950 O 2758.28 -0.131229 -1.90348 0
M  V30 28951 C 2755.42 -0.695186 -3.38025 0
M  V30 28952 C 2754.53 -1.86282 -3.89773 0
M  V30 28953 C 2753.67 -1.43649 -5.11408 0
M  V30 28954 C 2752.71 -2.57297 -5.55396 0
M  V30 28955 N 2751.84 -2.15407 -6.6824 0
M  V30 28956 H 2756.68 -2.0046 -2.20499 0
M  V30 28957 H 2754.22 -0.998197 -1.08048 0
M  V30 28958 H 2756.18 -0.461448 -4.1464 0
M  V30 28959 H 2754.81 0.20699 -3.22136 0
M  V30 28960 H 2753.86 -2.20974 -3.09636 0
M  V30 28961 H 2755.17 -2.71613 -4.18363 0
M  V30 28962 H 2754.33 -1.16268 -5.95455 0
M  V30 28963 H 2753.07 -0.553964 -4.84544 0
M  V30 28964 H 2752.07 -2.85418 -4.69911 0
M  V30 28965 H 2753.3 -3.46135 -5.84266 0
M  V30 28966 H 2751.24 -1.29577 -6.43075 0
M  V30 28967 H 2751.16 -2.94284 -6.96371 0
M  V30 28968 H 2752.43 -1.91214 -7.55683 0
M  V30 28969 N 2756.66 1.15326 -1.07413 0
M  V30 28970 C 2757.6 2.20086 -0.695034 0
M  V30 28971 C 2758.57 1.63107 0.313875 0
M  V30 28972 O 2759.76 1.89747 0.200182 0
M  V30 28973 C 2756.9 3.44956 -0.0996825 0
M  V30 28974 C 2756.01 4.16131 -1.16014 0
M  V30 28975 C 2755.15 5.28552 -0.529729 0
M  V30 28976 C 2754.19 5.91545 -1.57293 0
M  V30 28977 N 2753.32 6.95436 -0.965055 0
M  V30 28978 H 2758.16 2.51864 -1.59274 0
M  V30 28979 H 2755.7 1.23693 -0.796137 0
M  V30 28980 H 2757.66 4.16369 0.263124 0
M  V30 28981 H 2756.29 3.13692 0.761379 0
M  V30 28982 H 2755.34 3.43207 -1.64051 0
M  V30 28983 H 2756.65 4.59057 -1.95109 0
M  V30 28984 H 2755.81 6.06592 -0.114593 0
M  V30 28985 H 2754.54 4.86819 0.292984 0
M  V30 28986 H 2753.55 5.12217 -1.99784 0
M  V30 28987 H 2754.77 6.35355 -2.39794 0
M  V30 28988 H 2752.72 6.55797 -0.163256 0
M  V30 28989 H 2752.64 7.36794 -1.69324 0
M  V30 28990 H 2753.91 7.77373 -0.575442 0
M  V30 28991 N 2758.13 0.858334 1.32176 0
M  V30 28992 C 2759.55 0.548682 1.49872 0
M  V30 28993 C 2759.75 -0.919842 1.7928 0
M  V30 28994 O 2758.81 -1.70268 1.86454 0
M  V30 28995 C 2760.12 1.43885 2.64041 0
M  V30 28996 C 2761.67 1.43966 2.77926 0
M  V30 28997 C 2762.14 2.31513 3.95178 0
M  V30 28998 N 2763.63 2.29329 4.02446 0
M  V30 28999 C 2764.37 2.93795 4.92415 0
M  V30 29000 N 2763.86 3.67387 5.87366 0
M  V30 29001 N 2765.66 2.83163 4.85567 0
M  V30 29002 H 2757.81 1.8087 1.11354 0
M  V30 29003 H 2760.07 0.772739 0.549162 0
M  V30 29004 H 2759.78 2.48328 2.4905 0
M  V30 29005 H 2759.65 1.12891 3.5991 0
M  V30 29006 H 2762.04 0.402864 2.92337 0
M  V30 29007 H 2762.12 1.78977 1.82759 0
M  V30 29008 H 2761.76 3.35262 3.81525 0
M  V30 29009 H 2761.69 1.93832 4.89629 0
M  V30 29010 H 2764.18 1.75827 3.34504 0
M  V30 29011 H 2764.5 4.13734 6.52721 0
M  V30 29012 H 2762.84 3.71495 5.87381 0
M  V30 29013 H 2766.03 2.25218 4.10359 0
M  V30 29014 H 2766.21 3.33685 5.5548 0
M  V30 29015 N 2759.61 -1.45036 0.616628 0
M  V30 29016 C 2760.89 -1.95544 0.046943 0
M  V30 29017 C 2761.27 -1.55891 -1.42342 0
M  V30 29018 O 2760.62 -0.825861 -2.13053 0
M  V30 29019 C 2760.83 -3.4807 0.25455 0
M  V30 29020 C 2762.18 -4.24369 0.1401 0
M  V30 29021 O 2763.2 -3.55718 0.185147 0
M  V30 29022 O 2762.06 -5.4649 0.0327995 0
M  V30 29023 H 2759.15 -0.826434 -0.0305906 0
M  V30 29024 H 2761.7 -1.55158 0.687321 0
M  V30 29025 H 2760.47 -3.69932 1.27539 0
M  V30 29026 H 2760.09 -3.95368 -0.42066 0
M  V30 29027 N 2761.09 -0.356312 -1.53519 0
M  V30 29028 C 2762.34 0.237338 -2.00299 0
M  V30 29029 C 2762.65 1.50625 -1.24786 0
M  V30 29030 O 2763.86 2.17793 -1.62107 0
M  V30 29031 C 2762.31 0.473482 -3.56772 0
M  V30 29032 C 2761.92 -0.780261 -4.41153 0
M  V30 29033 C 2763.67 1.02529 -4.11932 0
M  V30 29034 C 2761.57 -0.514211 -5.8916 0
M  V30 29035 H 2760.5 0.0924649 -0.748309 0
M  V30 29036 H 2763.15 -0.473619 -1.77283 0
M  V30 29037 H 2761.54 1.24547 -3.75904 0
M  V30 29038 H 2762.71 -1.55433 -4.33794 0
M  V30 29039 H 2761.03 -1.25462 -3.97049 0
M  V30 29040 H 2763.62 1.23951 -5.20135 0
M  V30 29041 H 2763.97 1.98467 -3.65946 0
M  V30 29042 H 2764.5 0.313705 -3.96561 0
M  V30 29043 H 2761.24 -1.44366 -6.39405 0
M  V30 29044 H 2760.76 0.221527 -5.99391 0
M  V30 29045 H 2762.44 -0.136236 -6.46857 0
M  V30 29046 N 2762.57 1.57369 -0.0852427 0
M  V30 29047 C 2763.5 2.16505 0.874518 0
M  V30 29048 C 2764.48 1.0957 1.30109 0
M  V30 29049 O 2765.66 1.37665 1.36975 0
M  V30 29050 C 2762.79 2.73749 2.13726 0
M  V30 29051 C 2761.75 3.85969 1.84964 0
M  V30 29052 C 2761.07 4.29873 3.17983 0
M  V30 29053 C 2762.37 5.0961 1.14433 0
M  V30 29054 H 2764.07 2.96955 0.381847 0
M  V30 29055 H 2761.61 1.42842 0.182225 0
M  V30 29056 H 2763.57 3.13768 2.81297 0
M  V30 29057 H 2762.29 1.90539 2.65259 0
M  V30 29058 H 2760.95 3.46475 1.19794 0
M  V30 29059 H 2760.6 3.43567 3.67384 0
M  V30 29060 H 2760.3 5.05528 2.99525 0
M  V30 29061 H 2761.82 4.72518 3.86729 0
M  V30 29062 H 2763.24 5.4686 1.72096 0
M  V30 29063 H 2761.63 5.9063 1.06187 0
M  V30 29064 H 2762.7 4.84738 0.125505 0
M  V30 29065 N 2764.05 -0.188399 1.5647 0
M  V30 29066 C 2765.27 -0.927858 1.85487 0
M  V30 29067 C 2765.7 -1.75778 0.669606 0
M  V30 29068 O 2765.05 -1.7724 -0.381542 0
M  V30 29069 C 2765.1 -1.79434 3.12787 0
M  V30 29070 O 2764.21 -2.89395 2.9381 0
M  V30 29071 H 2763.55 -0.260914 0.61059 0
M  V30 29072 H 2766.08 -0.191693 2.037 0
M  V30 29073 H 2766.09 -2.19768 3.43753 0
M  V30 29074 H 2764.76 -1.18461 3.98673 0
M  V30 29075 H 2763.34 -2.52769 2.74157 0
M  V30 29076 N 2765.53 -1.50848 -0.456355 0
M  V30 29077 C 2766.47 -1.70785 -1.55246 0
M  V30 29078 C 2767.44 -0.549259 -1.56756 0
M  V30 29079 O 2768.63 -0.78153 -1.7406 0
M  V30 29080 C 2765.77 -1.82148 -2.93114 0
M  V30 29081 C 2764.88 -3.09604 -3.0128 0
M  V30 29082 C 2764.02 -3.11675 -4.30154 0
M  V30 29083 C 2763.05 -4.33523 -4.32116 0
M  V30 29084 N 2762.19 -4.3325 -5.52484 0
M  V30 29085 H 2767.03 -2.64356 -1.3755 0
M  V30 29086 H 2764.57 -1.31031 -0.66852 0
M  V30 29087 H 2766.53 -1.86718 -3.73085 0
M  V30 29088 H 2765.16 -0.920033 -3.09411 0
M  V30 29089 H 2764.21 -3.14435 -2.1409 0
M  V30 29090 H 2765.52 -3.99557 -2.9859 0
M  V30 29091 H 2764.67 -3.15055 -5.18484 0
M  V30 29092 H 2763.41 -2.19577 -4.35473 0
M  V30 29093 H 2762.42 -4.30339 -3.42182 0
M  V30 29094 H 2763.64 -5.26864 -4.28476 0
M  V30 29095 H 2761.59 -3.44014 -5.58561 0
M  V30 29096 H 2761.51 -5.16989 -5.51596 0
M  V30 29097 H 2762.77 -4.40797 -6.42898 0
M  V30 29098 N 2767 0.710538 -1.40674 0
M  V30 29099 C 2767.95 1.8246 -1.4134 0
M  V30 29100 C 2768.92 1.63896 -0.269676 0
M  V30 29101 O 2770.11 1.84959 -0.468496 0
M  V30 29102 C 2767.25 3.20215 -1.28671 0
M  V30 29103 C 2766.36 3.50316 -2.5279 0
M  V30 29104 C 2765.49 4.77604 -2.32526 0
M  V30 29105 C 2764.53 5.00624 -3.52196 0
M  V30 29106 N 2763.67 6.19129 -3.31095 0
M  V30 29107 H 2768.51 1.81226 -2.36561 0
M  V30 29108 H 2766.05 0.885205 -1.17484 0
M  V30 29109 H 2768 3.9977 -1.19331 0
M  V30 29110 H 2766.63 3.20665 -0.370658 0
M  V30 29111 H 2765.69 2.65278 -2.72638 0
M  V30 29112 H 2767 3.63235 -3.41851 0
M  V30 29113 H 2766.15 5.65186 -2.20568 0
M  V30 29114 H 2764.89 4.66904 -1.40898 0
M  V30 29115 H 2763.9 4.11496 -3.64625 0
M  V30 29116 H 2765.12 5.13193 -4.44758 0
M  V30 29117 H 2763.07 6.0967 -2.42154 0
M  V30 29118 H 2762.98 6.32747 -4.13724 0
M  V30 29119 H 2764.25 7.09485 -3.2288 0
M  V30 29120 N 2768.48 1.26254 0.943277 0
M  V30 29121 C 2769.71 1.14446 1.72365 0
M  V30 29122 C 2770.12 -0.300539 1.86393 0
M  V30 29123 O 2769.48 -1.20593 1.3698 0
M  V30 29124 C 2769.53 1.80605 3.13152 0
M  V30 29125 O 2769.25 3.19458 2.99797 0
M  V30 29126 C 2770.75 1.74724 4.07414 0
M  V30 29127 H 2767.97 0.398636 0.539751 0
M  V30 29128 H 2770.52 1.66834 1.18265 0
M  V30 29129 H 2768.67 1.3216 3.6416 0
M  V30 29130 H 2769.09 3.52165 3.8869 0
M  V30 29131 H 2770.56 2.25656 5.03769 0
M  V30 29132 H 2771.04 0.71332 4.33369 0
M  V30 29133 H 2771.64 2.22711 3.62326 0
M  V30 29134 N 2769.96 -1.14755 1.08024 0
M  V30 29135 C 2771.38 -1.37688 0.807096 0
M  V30 29136 C 2771.58 -1.92807 -0.58547 0
M  V30 29137 O 2770.63 -2.13824 -1.34297 0
M  V30 29138 C 2771.94 -2.34158 1.88655 0
M  V30 29139 C 2773.49 -2.47805 1.91211 0
M  V30 29140 C 2773.97 -3.47571 2.98259 0
M  V30 29141 N 2775.46 -3.55111 2.97406 0
M  V30 29142 C 2776.19 -4.32145 3.76879 0
M  V30 29143 N 2775.69 -5.12455 4.66221 0
M  V30 29144 N 2777.48 -4.27302 3.65198 0
M  V30 29145 H 2769.63 -0.773225 1.97826 0
M  V30 29146 H 2771.9 -0.402593 0.858267 0
M  V30 29147 H 2771.6 -2.00786 2.88752 0
M  V30 29148 H 2771.48 -3.34017 1.7525 0
M  V30 29149 H 2773.86 -2.80471 0.917613 0
M  V30 29150 H 2773.94 -1.47921 2.08694 0
M  V30 29151 H 2773.59 -3.15639 3.97912 0
M  V30 29152 H 2773.52 -4.47226 2.78022 0
M  V30 29153 H 2776.01 -2.97797 2.32649 0
M  V30 29154 H 2776.32 -5.68499 5.23478 0
M  V30 29155 H 2774.67 -5.11737 4.70266 0
M  V30 29156 H 2777.86 -3.63631 2.94772 0
M  V30 29157 H 2778.03 -4.87088 4.27375 0
M  V30 29158 N 2771.44 -0.865331 -1.31719 0
M  V30 29159 C 2772.71 -0.394823 -1.91574 0
M  V30 29160 C 2773.09 1.12268 -1.78771 0
M  V30 29161 O 2772.44 1.94916 -1.19248 0
M  V30 29162 C 2772.65 -0.871042 -3.37955 0
M  V30 29163 C 2774 -0.894457 -4.15072 0
M  V30 29164 O 2775.02 -0.816386 -3.46718 0
M  V30 29165 O 2773.88 -1.0066 -5.3715 0
M  V30 29166 H 2770.98 -0.117243 -0.818647 0
M  V30 29167 H 2773.52 -0.952938 -1.40418 0
M  V30 29168 H 2772.3 -1.9145 -3.41266 0
M  V30 29169 H 2771.92 -0.290977 -3.96534 0
M  V30 29170 N 2772.92 1.44707 -0.624311 0
M  V30 29171 C 2773.85 2.3339 0.0716615 0
M  V30 29172 C 2774.83 1.4781 0.841788 0
M  V30 29173 O 2776.01 1.76546 0.809025 0
M  V30 29174 C 2773.14 3.30778 1.05846 0
M  V30 29175 C 2772.1 4.26123 0.400428 0
M  V30 29176 C 2771.42 5.13327 1.49665 0
M  V30 29177 C 2772.72 5.17735 -0.689015 0
M  V30 29178 H 2774.42 2.91833 -0.668871 0
M  V30 29179 H 2771.96 1.40328 -0.323105 0
M  V30 29180 H 2773.91 3.91699 1.55403 0
M  V30 29181 H 2772.64 2.70529 1.8298 0
M  V30 29182 H 2771.3 3.66524 -0.0744332 0
M  V30 29183 H 2770.95 4.49435 2.25869 0
M  V30 29184 H 2770.65 5.77927 1.06177 0
M  V30 29185 H 2772.17 5.77118 1.99417 0
M  V30 29186 H 2773.58 5.72631 -0.276825 0
M  V30 29187 H 2771.98 5.90902 -1.04663 0
M  V30 29188 H 2773.05 4.59158 -1.55892 0
M  V30 29189 N 2774.39 0.364449 1.53328 0
M  V30 29190 C 2775.62 -0.226388 2.05658 0
M  V30 29191 C 2776.04 -1.42542 1.23803 0
M  V30 29192 O 2775.39 -1.80364 0.278421 0
M  V30 29193 C 2775.44 -0.620993 3.56126 0
M  V30 29194 O 2775.17 0.53038 4.34878 0
M  V30 29195 C 2776.67 -1.27034 4.24708 0
M  V30 29196 H 2773.89 -0.0399938 0.669807 0
M  V30 29197 H 2776.43 0.522491 1.97713 0
M  V30 29198 H 2774.59 -1.31979 3.64226 0
M  V30 29199 H 2775 0.211638 5.24073 0
M  V30 29200 H 2776.47 -1.49702 5.31313 0
M  V30 29201 H 2776.95 -2.23029 3.78358 0
M  V30 29202 H 2777.56 -0.613005 4.20859 0
M  V30 29203 N 2775.87 -1.57322 0.0935872 0
M  V30 29204 C 2776.82 -2.13941 -0.865897 0
M  V30 29205 C 2777.79 -1.05756 -1.28081 0
M  V30 29206 O 2778.97 -1.33535 -1.36283 0
M  V30 29207 C 2776.11 -2.72291 -2.12018 0
M  V30 29208 C 2775.23 -3.94704 -1.75593 0
M  V30 29209 C 2774.36 -4.41224 -2.95796 0
M  V30 29210 C 2773.4 -5.56229 -2.55491 0
M  V30 29211 N 2772.54 -5.97608 -3.68523 0
M  V30 29212 H 2777.38 -2.95616 -0.376209 0
M  V30 29213 H 2774.91 -1.46067 -0.174026 0
M  V30 29214 H 2776.87 -3.0424 -2.85471 0
M  V30 29215 H 2775.5 -1.93347 -2.58489 0
M  V30 29216 H 2774.55 -3.69079 -0.921143 0
M  V30 29217 H 2775.87 -4.78174 -1.41955 0
M  V30 29218 H 2775.02 -4.74948 -3.77504 0
M  V30 29219 H 2773.76 -3.56651 -3.32643 0
M  V30 29220 H 2772.76 -5.22134 -1.72209 0
M  V30 29221 H 2773.99 -6.42549 -2.19789 0
M  V30 29222 H 2771.94 -5.15982 -4.05091 0
M  V30 29223 H 2771.85 -6.75871 -3.38725 0
M  V30 29224 H 2773.12 -6.35962 -4.50746 0
M  V30 29225 N 2777.35 0.180099 -1.56568 0
M  V30 29226 C 2778.28 1.2255 -1.98756 0
M  V30 29227 C 2779.26 1.46654 -0.861776 0
M  V30 29228 O 2780.45 1.58137 -1.12722 0
M  V30 29229 C 2777.58 2.56641 -2.33993 0
M  V30 29230 C 2776.53 2.47122 -3.49449 0
M  V30 29231 C 2775.86 3.85623 -3.70404 0
M  V30 29232 C 2777.16 1.98343 -4.83174 0
M  V30 29233 H 2778.85 0.874846 -2.86333 0
M  V30 29234 H 2776.4 0.41939 -1.37757 0
M  V30 29235 H 2778.35 3.2997 -2.62103 0
M  V30 29236 H 2777.07 2.93477 -1.43314 0
M  V30 29237 H 2775.73 1.76248 -3.21453 0
M  V30 29238 H 2775.38 4.19837 -2.77031 0
M  V30 29239 H 2775.08 3.80125 -4.48084 0
M  V30 29240 H 2776.6 4.60551 -4.00905 0
M  V30 29241 H 2778.02 2.6144 -5.10217 0
M  V30 29242 H 2776.41 2.03813 -5.64429 0
M  V30 29243 H 2777.48 0.937319 -4.75754 0
M  V30 29244 N 2778.83 1.51088 0.448349 0
M  V30 29245 C 2779.77 1.71606 1.54338 0
M  V30 29246 C 2780.74 0.557564 1.56462 0
M  V30 29247 O 2781.93 0.79075 1.73643 0
M  V30 29248 C 2779.07 1.837 2.92144 0
M  V30 29249 C 2778.18 3.11197 2.99634 0
M  V30 29250 C 2777.32 3.13952 4.28495 0
M  V30 29251 C 2776.36 4.35808 4.29811 0
M  V30 29252 N 2775.49 4.36174 5.50179 0
M  V30 29253 H 2780.33 2.65081 1.36146 0
M  V30 29254 H 2777.87 1.31384 0.661562 0
M  V30 29255 H 2779.83 1.88694 3.72089 0
M  V30 29256 H 2778.46 0.936428 3.08919 0
M  V30 29257 H 2777.51 3.15566 2.1242 0
M  V30 29258 H 2778.82 4.01134 2.96467 0
M  V30 29259 H 2777.98 3.178 5.16805 0
M  V30 29260 H 2776.72 2.21884 4.34303 0
M  V30 29261 H 2775.72 4.32148 3.39895 0
M  V30 29262 H 2776.95 5.29128 4.25676 0
M  V30 29263 H 2774.89 3.46971 5.56729 0
M  V30 29264 H 2774.81 5.19907 5.48847 0
M  V30 29265 H 2776.08 4.442 6.40552 0
M  V30 29266 N 2780.31 -0.703068 1.41049 0
M  V30 29267 C 2781.22 -1.847 1.44648 0
M  V30 29268 C 2782.23 -1.70689 0.337808 0
M  V30 29269 O 2783.41 -1.92736 0.584361 0
M  V30 29270 C 2780.47 -3.20615 1.31934 0
M  V30 29271 C 2779.53 -3.46789 2.53053 0
M  V30 29272 C 2778.77 -4.7622 2.40936 0
M  V30 29273 O 2778.99 -5.52187 1.42988 0
M  V30 29274 O 2777.92 -5.0301 3.30552 0
M  V30 29275 H 2781.75 -1.84619 2.41142 0
M  V30 29276 H 2779.34 -0.855145 1.22506 0
M  V30 29277 H 2781.22 -4.01776 1.27099 0
M  V30 29278 H 2779.89 -3.21396 0.385525 0
M  V30 29279 H 2778.8 -2.65589 2.63464 0
M  V30 29280 H 2780.13 -3.50816 3.45237 0
M  V30 29281 N 2781.78 -1.26752 -0.936569 0
M  V30 29282 C 2783.02 -1.13795 -1.69794 0
M  V30 29283 C 2783.39 0.312638 -1.89438 0
M  V30 29284 O 2784.59 0.564442 -2.62807 0
M  V30 29285 C 2782.86 -1.8907 -3.03294 0
M  V30 29286 S 2784.42 -1.92221 -3.94457 0
M  V30 29287 H 2781.24 -0.406399 -0.583405 0
M  V30 29288 H 2783.84 -1.60537 -1.11572 0
M  V30 29289 H 2782.54 -2.9367 -2.86681 0
M  V30 29290 H 2782.07 -1.42787 -3.66572 0
M  V30 29291 H 2784.09 -1.01223 -4.85766 0
M  V30 29292 N 2783.26 1.1418 -1.08631 0
M  V30 29293 C 2784.2 2.18376 -0.662367 0
M  V30 29294 C 2785.17 1.59277 0.327026 0
M  V30 29295 O 2786.36 1.87087 0.230344 0
M  V30 29296 C 2783.48 3.3869 0.025417 0
M  V30 29297 C 2782.53 4.1636 -0.924487 0
M  V30 29298 S 2783.36 4.77072 -2.43234 0
M  V30 29299 C 2784.52 6.00741 -1.75673 0
M  V30 29300 H 2784.75 2.53999 -1.54506 0
M  V30 29301 H 2782.29 1.25348 -0.901506 0
M  V30 29302 H 2784.24 4.08387 0.41596 0
M  V30 29303 H 2782.9 3.01385 0.884636 0
M  V30 29304 H 2782.1 5.02487 -0.390187 0
M  V30 29305 H 2781.7 3.52278 -1.25604 0
M  V30 29306 H 2783.99 6.68901 -1.07601 0
M  V30 29307 H 2784.93 6.58764 -2.59684 0
M  V30 29308 H 2785.34 5.50956 -1.22913 0
M  V30 29309 N 2784.74 0.872304 1.31258 0
M  V30 29310 C 2786.02 0.404977 1.91362 0
M  V30 29311 C 2786.4 -1.11318 1.79364 0
M  V30 29312 O 2785.75 -1.94281 1.2028 0
M  V30 29313 C 2785.96 0.888952 3.37489 0
M  V30 29314 C 2787.3 0.916456 4.14592 0
M  V30 29315 O 2788.33 0.834762 3.4628 0
M  V30 29316 O 2787.19 1.03508 5.36608 0
M  V30 29317 H 2784.28 0.121583 0.818014 0
M  V30 29318 H 2786.83 0.960371 1.39911 0
M  V30 29319 H 2785.6 1.93257 3.40246 0
M  V30 29320 H 2785.22 0.312002 3.96374 0
M  V30 29321 N 2786.22 -1.44374 0.631976 0
M  V30 29322 C 2787.17 -2.30686 -0.0724401 0
M  V30 29323 C 2788.14 -1.43531 -0.83595 0
M  V30 29324 O 2789.32 -1.72432 -0.816819 0
M  V30 29325 C 2786.46 -3.28819 -1.04747 0
M  V30 29326 C 2785.57 -4.31077 -0.282291 0
M  V30 29327 C 2784.71 -5.16302 -1.24921 0
M  V30 29328 C 2783.75 -6.10268 -0.473242 0
M  V30 29329 N 2782.88 -6.88189 -1.39067 0
M  V30 29330 H 2787.72 -2.90381 0.669528 0
M  V30 29331 H 2785.26 -1.4307 0.341952 0
M  V30 29332 H 2787.22 -3.84203 -1.62616 0
M  V30 29333 H 2785.85 -2.70822 -1.75656 0
M  V30 29334 H 2784.9 -3.78159 0.412334 0
M  V30 29335 H 2786.21 -4.97759 0.322042 0
M  V30 29336 H 2785.37 -5.76207 -1.89921 0
M  V30 29337 H 2784.11 -4.49695 -1.88747 0
M  V30 29338 H 2783.11 -5.49471 0.190238 0
M  V30 29339 H 2784.34 -6.78911 0.160309 0
M  V30 29340 H 2782.28 -6.2425 -2.01612 0
M  V30 29341 H 2782.2 -7.51315 -0.840381 0
M  V30 29342 H 2783.47 -7.52617 -2.02948 0
M  V30 29343 N 2787.7 -0.372575 -1.53133 0
M  V30 29344 C 2788.93 0.215166 -2.05477 0
M  V30 29345 C 2789.33 1.42433 -1.24537 0
M  V30 29346 O 2788.68 1.81541 -0.280803 0
M  V30 29347 C 2788.74 0.666006 -3.53277 0
M  V30 29348 C 2788.4 -0.427422 -4.54997 0
M  V30 29349 C 2789.4 -1.27953 -5.03909 0
M  V30 29350 C 2787.09 -0.589667 -4.98827 0
M  V30 29351 C 2789.08 -2.27915 -5.95259 0
M  V30 29352 C 2786.77 -1.59265 -5.89981 0
M  V30 29353 C 2787.76 -2.43582 -6.38088 0
M  V30 29354 O 2787.45 -3.42169 -7.27445 0
M  V30 29355 H 2787.18 0.0400872 -0.67481 0
M  V30 29356 H 2789.74 -0.531347 -1.98408 0
M  V30 29357 H 2787.97 1.46423 -3.57907 0
M  V30 29358 H 2789.66 1.17753 -3.88444 0
M  V30 29359 H 2790.42 -1.16541 -4.7079 0
M  V30 29360 H 2786.3 0.0568646 -4.60965 0
M  V30 29361 H 2789.85 -2.93764 -6.32731 0
M  V30 29362 H 2785.74 -1.70722 -6.22515 0
M  V30 29363 H 2786.51 -3.3798 -7.45461 0
M  V30 29364 N 2789.17 1.5727 -0.101929 0
M  V30 29365 C 2790.42 1.94214 0.559057 0
M  V30 29366 C 2790.74 0.984978 1.68295 0
M  V30 29367 O 2790.01 0.0382319 1.95863 0
M  V30 29368 H 2788.59 0.717018 0.209508 0
M  V30 29369 H 2791.26 1.94184 -0.166866 0
M  V30 29370 H 2790.35 2.96813 0.964798 0
M  V30 29371 N 2790.65 -0.171793 1.56661 0
M  V30 29372 C 2791.58 -1.21494 1.99403 0
M  V30 29373 C 2792.56 -1.46195 0.869541 0
M  V30 29374 O 2793.75 -1.57537 1.13559 0
M  V30 29375 C 2790.88 -2.55396 2.35351 0
M  V30 29376 C 2789.83 -2.45265 3.50755 0
M  V30 29377 C 2789.16 -3.83653 3.72444 0
M  V30 29378 C 2790.46 -1.95778 4.84219 0
M  V30 29379 H 2792.15 -0.859648 2.86793 0
M  V30 29380 H 2789.7 -0.412079 1.37978 0
M  V30 29381 H 2791.65 -3.28575 2.63849 0
M  V30 29382 H 2790.38 -2.92713 1.44869 0
M  V30 29383 H 2789.03 -1.74541 3.22383 0
M  V30 29384 H 2788.68 -4.18362 2.79253 0
M  V30 29385 H 2788.38 -3.77743 4.50093 0
M  V30 29386 H 2789.91 -4.58418 4.03342 0
M  V30 29387 H 2791.32 -2.58731 5.11597 0
M  V30 29388 H 2789.72 -2.00817 5.65502 0
M  V30 29389 H 2790.79 -0.912075 4.76245 0
M  V30 29390 N 2792.13 -1.51324 -0.44033 0
M  V30 29391 C 2793.08 -1.72991 -1.55489 0
M  V30 29392 C 2794.07 -0.596166 -1.58563 0
M  V30 29393 O 2795.28 -0.777471 -1.62343 0
M  V30 29394 H 2791.65 -0.546542 -0.516522 0
M  V30 29395 H 2793.62 -2.66426 -1.34387 0
M  V30 29396 C 2792.37 -1.86936 -2.93173 0
M  V30 29397 H 2791.7 -2.73579 -2.91538 0
M  V30 29398 H 2793.14 -2.0611 -3.70533 0
M  V30 29399 C 2791.6 -0.628423 -3.30987 0
M  V30 29400 O 2792.13 0.218297 -4.01106 0
M  V30 29401 N 2790.33 -0.47339 -2.86718 0
M  V30 29402 H 2789.88 -1.16349 -2.29828 0
M  V30 29403 H 2789.84 0.355672 -3.12382 0
M  V30 29404 N 2793.61 0.695578 -1.41419 0
M  V30 29405 C 2794.54 1.82195 -1.46039 0
M  V30 29406 C 2795.52 1.67081 -0.319054 0
M  V30 29407 O 2796.7 1.86814 -0.530495 0
M  V30 29408 C 2793.83 3.20331 -1.34184 0
M  V30 29409 C 2792.79 3.50149 -2.46129 0
M  V30 29410 C 2792.11 4.87641 -2.1934 0
M  V30 29411 C 2793.41 3.49126 -3.88469 0
M  V30 29412 H 2795.11 1.78587 -2.40306 0
M  V30 29413 H 2792.65 0.857777 -1.15664 0
M  V30 29414 H 2794.61 3.98841 -1.36028 0
M  V30 29415 H 2793.33 3.24565 -0.364009 0
M  V30 29416 H 2791.99 2.7399 -2.43568 0
M  V30 29417 H 2791.64 4.88501 -1.199 0
M  V30 29418 H 2791.34 5.08557 -2.94353 0
M  V30 29419 H 2792.86 5.68461 -2.22899 0
M  V30 29420 H 2794.28 4.17641 -3.92745 0
M  V30 29421 H 2792.67 3.81574 -4.63164 0
M  V30 29422 H 2793.74 2.48102 -4.16622 0
M  V30 29423 N 2795.09 1.27247 0.929833 0
M  V30 29424 C 2796.5 1.12205 1.49221 0
M  V30 29425 C 2796.85 -0.293697 1.93989 0
M  V30 29426 O 2795.97 -1.18639 1.8098 0
M  V30 29427 C 2796.57 2.03074 2.71194 0
M  V30 29428 C 2795.13 1.92145 3.23663 0
M  V30 29429 C 2794.28 1.95756 1.96405 0
M  V30 29430 H 2797.23 1.40171 0.744157 0
M  V30 29431 H 2797.25 1.5853 3.45902 0
M  V30 29432 H 2796.76 3.06107 2.3858 0
M  V30 29433 H 2794.86 0.920898 3.6104 0
M  V30 29434 H 2794.97 2.78274 3.90001 0
M  V30 29435 H 2793.34 1.39953 2.12803 0
M  V30 29436 H 2794.12 3.00438 1.66107 0
M  V30 29437 N 2796.57 -1.13603 1.09235 0
M  V30 29438 C 2797.5 -2.18021 0.673939 0
M  V30 29439 C 2798.48 -1.59449 -0.318575 0
M  V30 29440 O 2799.66 -1.87207 -0.220419 0
M  V30 29441 C 2796.79 -3.38699 -0.00745504 0
M  V30 29442 C 2795.83 -4.15864 0.946554 0
M  V30 29443 S 2796.67 -4.75775 2.45761 0
M  V30 29444 C 2797.82 -5.99801 1.78857 0
M  V30 29445 H 2798.06 -2.53176 1.55851 0
M  V30 29446 H 2795.59 -1.24869 0.90814 0
M  V30 29447 H 2797.55 -4.08602 -0.394297 0
M  V30 29448 H 2796.21 -3.0185 -0.86864 0
M  V30 29449 H 2795.4 -5.02273 0.41683 0
M  V30 29450 H 2795 -3.51607 1.2747 0
M  V30 29451 H 2797.29 -6.68321 1.11147 0
M  V30 29452 H 2798.24 -6.57377 2.63174 0
M  V30 29453 H 2798.65 -5.50297 1.25833 0
M  V30 29454 N 2798.04 -0.879253 -1.30793 0
M  V30 29455 C 2799.29 -0.490909 -1.95635 0
M  V30 29456 C 2799.61 0.963645 -1.70215 0
M  V30 29457 O 2800.81 1.45857 -2.28994 0
M  V30 29458 C 2799.27 -0.826991 -3.5027 0
M  V30 29459 C 2798.88 -2.29893 -3.84517 0
M  V30 29460 C 2800.62 -0.507568 -4.21455 0
M  V30 29461 C 2798.53 -2.57694 -5.32304 0
M  V30 29462 H 2797.46 -0.179854 -0.732235 0
M  V30 29463 H 2800.11 -1.07344 -1.48827 0
M  V30 29464 H 2798.49 -0.173611 -3.95619 0
M  V30 29465 H 2799.66 -2.99615 -3.50097 0
M  V30 29466 H 2797.98 -2.58531 -3.26421 0
M  V30 29467 H 2800.58 -0.692386 -5.30198 0
M  V30 29468 H 2800.92 0.552645 -4.12615 0
M  V30 29469 H 2801.45 -1.11789 -3.8177 0
M  V30 29470 H 2798.19 -3.62434 -5.46189 0
M  V30 29471 H 2797.71 -1.92576 -5.68045 0
M  V30 29472 H 2799.39 -2.429 -5.99674 0
M  V30 29473 N 2799.52 1.44037 -0.639624 0
M  V30 29474 C 2800.75 2.0632 -0.154847 0
M  V30 29475 C 2801.16 1.47858 1.17403 0
M  V30 29476 O 2800.52 0.604669 1.72192 0
M  V30 29477 C 2800.57 3.61474 -0.0430593 0
M  V30 29478 O 2800.29 4.1776 -1.31939 0
M  V30 29479 C 2801.79 4.40808 0.469408 0
M  V30 29480 H 2799.01 0.665772 -0.0835979 0
M  V30 29481 H 2801.56 1.84767 -0.87643 0
M  V30 29482 H 2799.71 3.82259 0.629008 0
M  V30 29483 H 2800.13 5.1129 -1.16974 0
M  V30 29484 H 2801.6 5.49762 0.496616 0
M  V30 29485 H 2802.08 4.1286 1.49812 0
M  V30 29486 H 2802.68 4.24961 -0.169699 0
M  V30 29487 N 2801 0.380691 1.52933 0
M  V30 29488 C 2802.23 -0.204266 2.05588 0
M  V30 29489 C 2802.64 -1.41771 1.2529 0
M  V30 29490 O 2801.98 -1.8139 0.290426 0
M  V30 29491 C 2802.04 -0.647261 3.53625 0
M  V30 29492 C 2801.71 0.451545 4.54764 0
M  V30 29493 C 2802.7 1.30623 5.03223 0
M  V30 29494 C 2800.39 0.616112 4.98507 0
M  V30 29495 C 2802.38 2.31069 5.94042 0
M  V30 29496 C 2800.07 1.62392 5.89128 0
M  V30 29497 C 2801.07 2.46963 6.36788 0
M  V30 29498 O 2800.76 3.46022 7.2562 0
M  V30 29499 H 2800.49 -0.0365079 0.675013 0
M  V30 29500 H 2803.04 0.541862 1.98124 0
M  V30 29501 H 2801.27 -1.44523 3.58678 0
M  V30 29502 H 2802.96 -1.15691 3.89063 0
M  V30 29503 H 2803.73 1.19036 4.70165 0
M  V30 29504 H 2799.61 -0.0324177 4.60989 0
M  V30 29505 H 2803.15 2.97115 6.31164 0
M  V30 29506 H 2799.05 1.74021 6.216 0
M  V30 29507 H 2799.81 3.41929 7.43658 0
M  V30 29508 N 2802.48 -1.57214 0.110268 0
M  V30 29509 C 2803.72 -1.95181 -0.55065 0
M  V30 29510 C 2804.06 -0.993151 -1.66884 0
M  V30 29511 O 2803.33 -0.0288249 -1.94479 0
M  V30 29512 C 2803.61 -3.43157 -1.09157 0
M  V30 29513 C 2803.47 -4.49794 0.0225989 0
M  V30 29514 C 2804.79 -3.92782 -1.98521 0
M  V30 29515 H 2801.91 -0.709711 -0.198694 0
M  V30 29516 H 2804.55 -1.89106 0.184057 0
M  V30 29517 H 2802.7 -3.48465 -1.71769 0
M  V30 29518 H 2804.37 -4.5659 0.657524 0
M  V30 29519 H 2802.61 -4.28326 0.686943 0
M  V30 29520 H 2803.28 -5.50571 -0.396963 0
M  V30 29521 H 2805.76 -3.89723 -1.45793 0
M  V30 29522 H 2804.64 -4.96857 -2.33289 0
M  V30 29523 H 2804.9 -3.32963 -2.90841 0
M  V30 29524 N 2803.96 0.163482 -1.5675 0
M  V30 29525 C 2804.9 1.20227 -1.97013 0
M  V30 29526 C 2805.87 1.43574 -0.835211 0
M  V30 29527 O 2807.06 1.56183 -1.09596 0
M  V30 29528 C 2804.2 2.53474 -2.3419 0
M  V30 29529 C 2803.31 2.37439 -3.60897 0
M  V30 29530 C 2802.45 3.63607 -3.87251 0
M  V30 29531 C 2801.48 3.42539 -5.0728 0
M  V30 29532 N 2800.62 4.60796 -5.29728 0
M  V30 29533 H 2805.46 0.851908 -2.85564 0
M  V30 29534 H 2803 0.409232 -1.41293 0
M  V30 29535 H 2804.96 3.31145 -2.53769 0
M  V30 29536 H 2803.59 2.86489 -1.48741 0
M  V30 29537 H 2802.64 1.50905 -3.49187 0
M  V30 29538 H 2803.95 2.17823 -4.48726 0
M  V30 29539 H 2803.1 4.49712 -4.0724 0
M  V30 29540 H 2801.84 3.86211 -2.97812 0
M  V30 29541 H 2800.85 2.54822 -4.87182 0
M  V30 29542 H 2802.07 3.2135 -5.98257 0
M  V30 29543 H 2800.02 4.83604 -4.43241 0
M  V30 29544 H 2799.94 4.44122 -6.11794 0
M  V30 29545 H 2801.2 5.48162 -5.54201 0
M  V30 29546 N 2805.43 1.51555 0.432299 0
M  V30 29547 C 2806.71 1.55017 1.19285 0
M  V30 29548 C 2807.09 0.317412 2.087 0
M  V30 29549 O 2806.44 -0.697204 2.17604 0
M  V30 29550 C 2806.65 2.86683 1.99032 0
M  V30 29551 C 2808 3.38822 2.55901 0
M  V30 29552 O 2809.02 2.88267 2.09238 0
M  V30 29553 O 2807.88 4.27044 3.41021 0
M  V30 29554 H 2804.97 0.623451 0.543358 0
M  V30 29555 H 2807.52 1.63871 0.440959 0
M  V30 29556 H 2806.29 3.67862 1.3339 0
M  V30 29557 H 2805.91 2.81015 2.81276 0
M  V30 29558 N 2806.91 -0.688069 1.41786 0
M  V30 29559 C 2807.84 -1.81348 1.40162 0
M  V30 29560 C 2808.86 -1.59962 0.302648 0
M  V30 29561 O 2810.05 -1.69326 0.564871 0
M  V30 29562 C 2807.15 -3.18238 1.16523 0
M  V30 29563 C 2806.32 -3.66589 2.38603 0
M  V30 29564 C 2805.38 -4.82171 2.10708 0
M  V30 29565 O 2804.4 -4.93399 2.83806 0
M  V30 29566 N 2805.61 -5.69945 1.10197 0
M  V30 29567 H 2808.37 -1.83231 2.37163 0
M  V30 29568 H 2805.93 -0.870673 1.36495 0
M  V30 29569 H 2807.92 -3.93197 0.95801 0
M  V30 29570 H 2806.49 -3.11335 0.280928 0
M  V30 29571 H 2805.71 -2.82454 2.74979 0
M  V30 29572 H 2807 -3.95632 3.19926 0
M  V30 29573 H 2806.4 -5.63512 0.497115 0
M  V30 29574 H 2804.96 -6.44771 0.954632 0
M  V30 29575 N 2808.39 -1.27739 -0.923072 0
M  V30 29576 C 2809.32 -1.13387 -2.04122 0
M  V30 29577 C 2810.3 -0.0340957 -1.70066 0
M  V30 29578 O 2811.49 -0.209417 -1.93068 0
M  V30 29579 C 2808.62 -0.785156 -3.38308 0
M  V30 29580 C 2807.57 -1.83867 -3.86493 0
M  V30 29581 C 2806.9 -1.34382 -5.17538 0
M  V30 29582 C 2808.2 -3.2436 -4.09375 0
M  V30 29583 H 2809.89 -2.06923 -2.16387 0
M  V30 29584 H 2807.44 -0.996262 -1.03974 0
M  V30 29585 H 2809.39 -0.671558 -4.16014 0
M  V30 29586 H 2808.11 0.185912 -3.2607 0
M  V30 29587 H 2806.77 -1.94126 -3.10984 0
M  V30 29588 H 2806.42 -0.362077 -5.01695 0
M  V30 29589 H 2806.12 -2.0482 -5.50747 0
M  V30 29590 H 2807.64 -1.24326 -5.97809 0
M  V30 29591 H 2809.06 -3.17076 -4.77636 0
M  V30 29592 H 2807.45 -3.9255 -4.53899 0
M  V30 29593 H 2808.52 -3.6907 -3.14509 0
M  V30 29594 N 2809.87 1.13022 -1.09836 0
M  V30 29595 C 2811.28 1.36387 -0.828899 0
M  V30 29596 C 2811.48 1.93714 0.554722 0
M  V30 29597 O 2810.54 2.15933 1.30879 0
M  V30 29598 C 2811.85 2.31127 -1.92356 0
M  V30 29599 C 2813.4 2.44732 -1.95129 0
M  V30 29600 C 2813.88 3.42782 -3.03751 0
M  V30 29601 N 2815.37 3.50335 -3.03018 0
M  V30 29602 C 2816.1 4.26095 -3.83707 0
M  V30 29603 N 2815.6 5.04973 -4.74315 0
M  V30 29604 N 2817.39 4.21438 -3.71949 0
M  V30 29605 H 2809.54 0.741655 -1.99031 0
M  V30 29606 H 2811.81 0.388888 -0.864564 0
M  V30 29607 H 2811.51 1.96167 -2.9191 0
M  V30 29608 H 2811.39 3.31186 -1.80542 0
M  V30 29609 H 2813.77 2.78975 -0.962118 0
M  V30 29610 H 2813.85 1.44582 -2.11021 0
M  V30 29611 H 2813.5 3.09269 -4.02884 0
M  V30 29612 H 2813.43 4.42747 -2.85102 0
M  V30 29613 H 2815.92 2.94058 -2.37357 0
M  V30 29614 H 2816.23 5.60099 -5.32456 0
M  V30 29615 H 2814.58 5.04191 -4.78348 0
M  V30 29616 H 2817.77 3.58895 -3.0052 0
M  V30 29617 H 2817.94 4.80227 -4.3507 0
M  V30 29618 N 2811.35 0.886177 1.30325 0
M  V30 29619 C 2812.57 0.51946 2.00789 0
M  V30 29620 C 2813 -0.884984 1.65981 0
M  V30 29621 O 2812.35 -1.58673 0.877071 0
M  V30 29622 C 2812.4 0.70282 3.53685 0
M  V30 29623 O 2811.51 -0.250756 4.11637 0
M  V30 29624 H 2810.85 0.204555 0.631707 0
M  V30 29625 H 2813.38 1.19405 1.66143 0
M  V30 29626 H 2813.39 0.602278 4.0353 0
M  V30 29627 H 2812.06 1.7268 3.78357 0
M  V30 29628 H 2810.64 -0.103807 3.72755 0
M  V30 29629 N 2812.82 -1.43695 0.647253 0
M  V30 29630 C 2813.79 -2.29168 -0.0384698 0
M  V30 29631 C 2814.79 -1.41895 -0.756462 0
M  V30 29632 O 2815.98 -1.63592 -0.598613 0
M  V30 29633 C 2813.11 -3.23831 -1.06519 0
M  V30 29634 H 2814.3 -2.91289 0.713496 0
M  V30 29635 H 2811.86 -1.50876 0.40818 0
M  V30 29636 H 2812.59 -2.66593 -1.84659 0
M  V30 29637 H 2812.38 -3.88165 -0.554079 0
M  V30 29638 H 2813.87 -3.87998 -1.54425 0
M  V30 29639 N 2814.3 -0.388796 -1.52729 0
M  V30 29640 C 2815.21 0.453952 -2.30166 0
M  V30 29641 C 2816.23 1.07194 -1.3706 0
M  V30 29642 O 2817.4 1.07787 -1.70129 0
M  V30 29643 C 2814.47 1.56623 -3.09306 0
M  V30 29644 C 2813.53 0.973393 -4.18119 0
M  V30 29645 C 2812.76 2.03266 -4.93476 0
M  V30 29646 O 2812.99 3.24764 -4.68919 0
M  V30 29647 O 2811.92 1.65024 -5.78836 0
M  V30 29648 H 2815.75 -0.176869 -3.03185 0
M  V30 29649 H 2813.33 -0.152527 -1.48619 0
M  V30 29650 H 2815.21 2.2124 -3.58651 0
M  V30 29651 H 2813.89 2.18202 -2.39101 0
M  V30 29652 H 2812.8 0.290491 -3.7297 0
M  V30 29653 H 2814.13 0.401822 -4.90557 0
M  V30 29654 N 2815.78 1.57153 -0.118604 0
M  V30 29655 C 2816.73 2.15292 0.831751 0
M  V30 29656 C 2817.7 1.07781 1.26383 0
M  V30 29657 O 2818.88 1.35686 1.34141 0
M  V30 29658 C 2816.02 2.7563 2.07659 0
M  V30 29659 C 2815.14 3.97447 1.69292 0
M  V30 29660 C 2814.27 4.45874 2.88739 0
M  V30 29661 C 2813.31 5.60223 2.46609 0
M  V30 29662 N 2812.45 6.03395 3.58969 0
M  V30 29663 H 2817.29 2.96177 0.329131 0
M  V30 29664 H 2814.82 1.46325 0.150766 0
M  V30 29665 H 2816.78 3.08743 2.80595 0
M  V30 29666 H 2815.41 1.97435 2.5538 0
M  V30 29667 H 2814.46 3.70497 0.862309 0
M  V30 29668 H 2815.78 4.80372 1.3433 0
M  V30 29669 H 2814.93 4.80894 3.699 0
M  V30 29670 H 2813.67 3.61898 3.26927 0
M  V30 29671 H 2812.67 5.24808 1.6388 0
M  V30 29672 H 2813.9 6.45965 2.09539 0
M  V30 29673 H 2811.84 5.22361 3.96831 0
M  V30 29674 H 2811.76 6.81174 3.2793 0
M  V30 29675 H 2813.03 6.43053 4.40571 0
M  V30 29676 N 2817.26 -0.155167 1.56834 0
M  V30 29677 C 2818.5 -0.870435 1.8317 0
M  V30 29678 C 2818.84 -1.81185 0.698961 0
M  V30 29679 O 2818.11 -1.92204 -0.298001 0
M  V30 29680 C 2818.4 -1.65205 3.19968 0
M  V30 29681 C 2818.25 -0.732666 4.43793 0
M  V30 29682 C 2819.57 -2.6163 3.5389 0
M  V30 29683 H 2816.69 -0.314995 0.666294 0
M  V30 29684 H 2819.33 -0.135954 1.89513 0
M  V30 29685 H 2817.48 -2.27819 3.14691 0
M  V30 29686 H 2819.15 -0.118154 4.61149 0
M  V30 29687 H 2817.39 -0.0417143 4.3378 0
M  V30 29688 H 2818.06 -1.31542 5.36098 0
M  V30 29689 H 2820.54 -2.09136 3.59724 0
M  V30 29690 H 2819.42 -3.13374 4.50653 0
M  V30 29691 H 2819.68 -3.426 2.79424 0
M  V30 29692 N 2818.74 -1.51782 -0.424256 0
M  V30 29693 C 2819.7 -1.73434 -1.49845 0
M  V30 29694 C 2820.7 -0.604251 -1.49015 0
M  V30 29695 O 2821.89 -0.871962 -1.50806 0
M  V30 29696 C 2819.02 -1.80282 -2.89329 0
M  V30 29697 H 2820.21 -2.69315 -1.31946 0
M  V30 29698 H 2817.77 -1.4197 -0.653784 0
M  V30 29699 H 2818.5 -0.862623 -3.12617 0
M  V30 29700 H 2818.29 -2.62424 -2.91335 0
M  V30 29701 H 2819.78 -1.98827 -3.67229 0
M  V30 29702 N 2820.21 0.68054 -1.42149 0
M  V30 29703 C 2821.16 1.79421 -1.45178 0
M  V30 29704 C 2822.13 1.63287 -0.304381 0
M  V30 29705 O 2823.32 1.83923 -0.507623 0
M  V30 29706 C 2820.46 3.17414 -1.35434 0
M  V30 29707 C 2819.57 3.44875 -2.60164 0
M  V30 29708 C 2818.7 4.72564 -2.42604 0
M  V30 29709 C 2817.74 4.93041 -3.62735 0
M  V30 29710 N 2816.88 6.11966 -3.44153 0
M  V30 29711 H 2821.72 1.76167 -2.40352 0
M  V30 29712 H 2819.26 0.860086 -1.19335 0
M  V30 29713 H 2821.22 3.97149 -1.27784 0
M  V30 29714 H 2819.85 3.19807 -0.438592 0
M  V30 29715 H 2818.9 2.59435 -2.78204 0
M  V30 29716 H 2820.21 3.55902 -3.49479 0
M  V30 29717 H 2819.36 5.6038 -2.32507 0
M  V30 29718 H 2818.1 4.6381 -1.5077 0
M  V30 29719 H 2817.11 4.03669 -3.73271 0
M  V30 29720 H 2818.33 5.03644 -4.55543 0
M  V30 29721 H 2816.28 6.04397 -2.55031 0
M  V30 29722 H 2816.2 6.23829 -4.27052 0
M  V30 29723 H 2817.46 7.02476 -3.37857 0
M  V30 29724 N 2821.69 1.28226 0.916285 0
M  V30 29725 C 2822.94 1.15005 1.66188 0
M  V30 29726 C 2823.26 -0.302295 1.92643 0
M  V30 29727 O 2822.53 -1.20982 1.54078 0
M  V30 29728 H 2821.11 0.422619 0.615956 0
M  V30 29729 H 2823.77 1.60919 1.0996 0
M  V30 29730 H 2822.87 1.68774 2.6253 0
M  V30 29731 N 2823.17 -1.12438 1.10433 0
M  V30 29732 C 2824.12 -2.18166 0.753141 0
M  V30 29733 C 2825.09 -1.63882 -0.27052 0
M  V30 29734 O 2826.27 -1.90211 -0.149804 0
M  V30 29735 C 2823.41 -3.4457 0.191106 0
M  V30 29736 C 2822.53 -4.12908 1.27006 0
M  V30 29737 C 2821.66 -5.26962 0.669679 0
M  V30 29738 C 2820.7 -5.87166 1.72922 0
M  V30 29739 N 2819.84 -6.92633 1.1491 0
M  V30 29740 H 2824.68 -2.47553 1.65896 0
M  V30 29741 H 2822.21 -1.21539 0.828652 0
M  V30 29742 H 2824.17 -4.16921 -0.152638 0
M  V30 29743 H 2822.8 -3.15601 -0.677942 0
M  V30 29744 H 2821.85 -3.38737 1.73093 0
M  V30 29745 H 2823.17 -4.53723 2.07212 0
M  V30 29746 H 2822.32 -6.06075 0.27538 0
M  V30 29747 H 2821.06 -4.87425 -0.16381 0
M  V30 29748 H 2820.06 -5.0674 2.13294 0
M  V30 29749 H 2821.29 -6.28774 2.56555 0
M  V30 29750 H 2819.23 -6.55133 0.337071 0
M  V30 29751 H 2819.15 -7.32046 1.88799 0
M  V30 29752 H 2820.42 -7.75574 0.781346 0
M  V30 29753 N 2824.65 -0.893076 -1.29853 0
M  V30 29754 C 2825.87 -0.530101 -2.00511 0
M  V30 29755 C 2826.3 0.876169 -1.66448 0
M  V30 29756 O 2825.66 1.58206 -0.885474 0
M  V30 29757 C 2825.71 -0.721567 -3.53307 0
M  V30 29758 O 2824.81 0.228922 -4.11764 0
M  V30 29759 H 2824.15 -0.207902 -0.630613 0
M  V30 29760 H 2826.68 -1.20285 -1.65508 0
M  V30 29761 H 2826.69 -0.623669 -4.03205 0
M  V30 29762 H 2825.37 -1.74684 -3.77436 0
M  V30 29763 H 2823.94 0.0840379 -3.72805 0
M  V30 29764 N 2826.13 1.4335 -0.654865 0
M  V30 29765 C 2827.54 1.56306 -0.322577 0
M  V30 29766 C 2827.74 1.63823 1.17321 0
M  V30 29767 O 2826.8 1.5942 1.9581 0
M  V30 29768 C 2828.11 2.82313 -1.03538 0
M  V30 29769 C 2829.66 2.96059 -1.01579 0
M  V30 29770 C 2830.14 4.24899 -1.70952 0
M  V30 29771 N 2831.63 4.31767 -1.67724 0
M  V30 29772 C 2832.36 5.3023 -2.18275 0
M  V30 29773 N 2831.86 6.34961 -2.77121 0
M  V30 29774 N 2833.65 5.21894 -2.08765 0
M  V30 29775 H 2825.8 1.36715 -1.62551 0
M  V30 29776 H 2828.06 0.656715 -0.683688 0
M  V30 29777 H 2827.77 2.82827 -2.0905 0
M  V30 29778 H 2827.64 3.72589 -0.587979 0
M  V30 29779 H 2830.03 2.95084 0.0309315 0
M  V30 29780 H 2830.11 2.07067 -1.5019 0
M  V30 29781 H 2829.76 4.26635 -2.75582 0
M  V30 29782 H 2829.69 5.12791 -1.19806 0
M  V30 29783 H 2832.18 3.56704 -1.24784 0
M  V30 29784 H 2832.49 7.06415 -3.13365 0
M  V30 29785 H 2830.84 6.3558 -2.81182 0
M  V30 29786 H 2834.03 4.38991 -1.62496 0
M  V30 29787 H 2834.2 5.98471 -2.48469 0
M  V30 29788 N 2827.61 0.39689 1.52521 0
M  V30 29789 C 2828.54 -0.425901 2.29583 0
M  V30 29790 C 2829.52 -1.05686 1.33283 0
M  V30 29791 O 2830.7 -1.0682 1.62182 0
M  V30 29792 C 2827.83 -1.54938 3.10824 0
M  V30 29793 C 2826.79 -1.04406 4.1507 0
M  V30 29794 C 2826.11 -2.26019 4.84582 0
M  V30 29795 C 2827.41 -0.106675 5.22191 0
M  V30 29796 H 2829.11 0.217097 2.98612 0
M  V30 29797 H 2826.65 0.105852 1.4361 0
M  V30 29798 H 2828.6 -2.13186 3.63496 0
M  V30 29799 H 2827.33 -2.22007 2.39542 0
M  V30 29800 H 2825.99 -0.484054 3.6339 0
M  V30 29801 H 2825.64 -2.91616 4.09841 0
M  V30 29802 H 2825.34 -1.92866 5.55046 0
M  V30 29803 H 2826.86 -2.84897 5.40061 0
M  V30 29804 H 2828.27 -0.597584 5.70177 0
M  V30 29805 H 2826.67 0.135458 5.99947 0
M  V30 29806 H 2827.74 0.842218 4.7753 0
M  V30 29807 N 2829.08 -1.57088 0.126936 0
M  V30 29808 C 2830.33 -1.9464 -0.52899 0
M  V30 29809 C 2830.65 -1.01307 -1.67321 0
M  V30 29810 O 2831.85 -1.28356 -2.39243 0
M  V30 29811 C 2830.31 -3.45947 -0.992422 0
M  V30 29812 C 2829.92 -4.47829 0.12377 0
M  V30 29813 C 2831.66 -3.92403 -1.61927 0
M  V30 29814 C 2829.57 -5.90323 -0.356807 0
M  V30 29815 H 2828.5 -0.726609 -0.201384 0
M  V30 29816 H 2831.15 -1.82317 0.208064 0
M  V30 29817 H 2829.53 -3.53532 -1.78414 0
M  V30 29818 H 2830.7 -4.51921 0.900247 0
M  V30 29819 H 2829.02 -4.11172 0.657772 0
M  V30 29820 H 2831.62 -4.96285 -1.99011 0
M  V30 29821 H 2831.96 -3.32823 -2.50069 0
M  V30 29822 H 2832.49 -3.87651 -0.892826 0
M  V30 29823 H 2829.23 -6.53675 0.488751 0
M  V30 29824 H 2828.75 -5.89635 -1.09959 0
M  V30 29825 H 2830.43 -6.41841 -0.815435 0
M  V30 29826 N 2830.56 0.146848 -1.56914 0
M  V30 29827 C 2831.47 1.20075 -2.01542 0
M  V30 29828 C 2832.49 1.47007 -0.930864 0
M  V30 29829 O 2833.66 1.58673 -1.24035 0
M  V30 29830 C 2830.73 2.51424 -2.38719 0
M  V30 29831 C 2829.79 2.32138 -3.61124 0
M  V30 29832 C 2829.02 3.57224 -3.96518 0
M  V30 29833 O 2829.25 4.63412 -3.32574 0
M  V30 29834 O 2828.18 3.49878 -4.89764 0
M  V30 29835 H 2832.01 0.851872 -2.91508 0
M  V30 29836 H 2829.59 0.355582 -1.45107 0
M  V30 29837 H 2831.47 3.28863 -2.63491 0
M  V30 29838 H 2830.15 2.85842 -1.51908 0
M  V30 29839 H 2829.05 1.5265 -3.41539 0
M  V30 29840 H 2830.39 2.02636 -4.48553 0
M  V30 29841 N 2832.04 1.52005 0.4162 0
M  V30 29842 C 2833 1.74226 1.48923 0
M  V30 29843 C 2834 0.612146 1.48692 0
M  V30 29844 O 2835.19 0.879947 1.50342 0
M  V30 29845 C 2832.32 1.81814 2.88368 0
M  V30 29846 H 2833.52 2.70011 1.30515 0
M  V30 29847 H 2831.07 1.42314 0.646246 0
M  V30 29848 H 2831.81 0.87919 3.12155 0
M  V30 29849 H 2831.59 2.63965 2.89939 0
M  V30 29850 H 2833.08 2.00772 3.6617 0
M  V30 29851 N 2833.52 -0.672992 1.42508 0
M  V30 29852 C 2834.74 -1.46625 1.46683 0
M  V30 29853 C 2835.17 -1.87929 0.080099 0
M  V30 29854 O 2834.53 -1.56114 -0.921851 0
M  V30 29855 C 2834.57 -2.69047 2.40096 0
M  V30 29856 O 2833.68 -3.67384 1.87357 0
M  V30 29857 H 2833.02 -0.440421 0.496915 0
M  V30 29858 H 2835.55 -0.825302 1.87216 0
M  V30 29859 H 2835.56 -3.17097 2.56737 0
M  V30 29860 H 2834.23 -2.38324 3.40844 0
M  V30 29861 H 2832.81 -3.26425 1.8028 0
M  V30 29862 N 2835 -1.2871 -0.909472 0
M  V30 29863 C 2836.22 -1.19093 -1.69798 0
M  V30 29864 C 2836.65 0.246355 -1.8648 0
M  V30 29865 O 2836 1.17812 -1.37804 0
M  V30 29866 C 2836.05 -1.89909 -3.0654 0
M  V30 29867 O 2835.16 -1.20947 -3.94266 0
M  V30 29868 H 2834.5 -0.413194 -0.519776 0
M  V30 29869 H 2837.03 -1.70108 -1.13686 0
M  V30 29870 H 2837.04 -1.97983 -3.56745 0
M  V30 29871 H 2835.71 -2.94454 -2.93717 0
M  V30 29872 H 2834.29 -1.21066 -3.527 0
M  V30 29873 N 2836.47 1.1185 -1.11028 0
M  V30 29874 C 2837.4 2.19843 -0.786851 0
M  V30 29875 C 2838.38 1.68357 0.242905 0
M  V30 29876 O 2839.57 1.93903 0.107321 0
M  V30 29877 C 2836.7 3.46573 -0.224577 0
M  V30 29878 C 2835.65 4.11248 -1.18572 0
M  V30 29879 C 2834.98 5.32502 -0.484355 0
M  V30 29880 C 2836.28 4.56671 -2.53473 0
M  V30 29881 H 2837.97 2.47155 -1.68982 0
M  V30 29882 H 2835.52 1.18791 -0.813927 0
M  V30 29883 H 2837.47 4.21398 0.0138694 0
M  V30 29884 H 2836.2 3.18707 0.713666 0
M  V30 29885 H 2834.86 3.38412 -1.40972 0
M  V30 29886 H 2834.5 5.00905 0.458558 0
M  V30 29887 H 2834.2 5.76723 -1.12536 0
M  V30 29888 H 2835.73 6.10069 -0.2546 0
M  V30 29889 H 2837.14 5.22839 -2.35186 0
M  V30 29890 H 2835.54 5.11691 -3.13516 0
M  V30 29891 H 2836.61 3.70338 -3.13014 0
M  V30 29892 N 2837.95 0.89995 1.29378 0
M  V30 29893 C 2838.9 0.367738 2.29675 0
M  V30 29894 C 2839.89 -0.533254 1.60788 0
M  V30 29895 O 2841.1 -0.416027 1.75126 0
M  V30 29896 H 2837.47 0.100292 0.745282 0
M  V30 29897 H 2839.45 1.22701 2.72006 0
M  V30 29898 C 2838.19 -0.389422 3.45512 0
M  V30 29899 H 2837.52 0.294645 3.98713 0
M  V30 29900 H 2838.96 -0.726671 4.17727 0
M  V30 29901 C 2837.42 -1.59218 2.96903 0
M  V30 29902 O 2837.95 -2.69147 2.98199 0
M  V30 29903 N 2836.15 -1.43443 2.5273 0
M  V30 29904 H 2835.7 -0.540104 2.51874 0
M  V30 29905 H 2835.66 -2.2405 2.20565 0
M  V30 29906 N 2839.43 -1.43001 0.662458 0
M  V30 29907 C 2840.71 -1.95295 0.10913 0
M  V30 29908 C 2841.09 -1.60341 -1.3731 0
M  V30 29909 O 2840.44 -0.893224 -2.10318 0
M  V30 29910 C 2840.65 -3.47084 0.365157 0
M  V30 29911 C 2841.99 -4.23708 0.275039 0
M  V30 29912 O 2843.02 -3.54949 0.298222 0
M  V30 29913 O 2841.88 -5.46109 0.206645 0
M  V30 29914 H 2838.97 -0.826989 -0.0042827 0
M  V30 29915 H 2841.52 -1.52893 0.736335 0
M  V30 29916 H 2840.29 -3.65687 1.39243 0
M  V30 29917 H 2839.91 -3.96507 -0.294664 0
M  V30 29918 N 2840.91 -0.404973 -1.52308 0
M  V30 29919 C 2842.13 0.174264 -2.06667 0
M  V30 29920 C 2842.56 1.38439 -1.27343 0
M  V30 29921 O 2841.92 1.78757 -0.302571 0
M  V30 29922 C 2841.96 0.5072 -3.57015 0
M  V30 29923 O 2841.07 1.59883 -3.80146 0
M  V30 29924 H 2840.41 0.0160156 -0.663807 0
M  V30 29925 H 2842.94 -0.576971 -1.96296 0
M  V30 29926 H 2842.95 0.767027 -4.00725 0
M  V30 29927 H 2841.62 -0.37744 -4.14184 0
M  V30 29928 H 2840.2 1.33149 -3.48318 0
M  V30 29929 N 2842.39 1.57018 -0.135265 0
M  V30 29930 C 2843.63 1.96032 0.519529 0
M  V30 29931 C 2843.97 1.01958 1.65282 0
M  V30 29932 O 2843.24 0.0597611 1.94408 0
M  V30 29933 C 2843.52 3.4485 1.03684 0
M  V30 29934 C 2843.38 4.49701 -0.0941544 0
M  V30 29935 C 2844.7 3.9589 1.92247 0
M  V30 29936 H 2841.81 0.712782 0.187378 0
M  V30 29937 H 2844.46 1.8879 -0.214119 0
M  V30 29938 H 2842.61 3.51153 1.66203 0
M  V30 29939 H 2844.28 4.55486 -0.73008 0
M  V30 29940 H 2842.52 4.27179 -0.754999 0
M  V30 29941 H 2843.19 5.51133 0.309322 0
M  V30 29942 H 2845.67 3.91993 1.39574 0
M  V30 29943 H 2844.54 5.00506 2.25355 0
M  V30 29944 H 2844.81 3.37548 2.85507 0
M  V30 29945 N 2843.86 -0.138524 1.5699 0
M  V30 29946 C 2844.83 -1.15474 1.97986 0
M  V30 29947 C 2845.83 -1.35396 0.86744 0
M  V30 29948 O 2847.02 -1.32244 1.13389 0
M  V30 29949 C 2844.15 -2.51333 2.30314 0
M  V30 29950 H 2845.34 -0.802845 2.88954 0
M  V30 29951 H 2842.9 -0.382162 1.51556 0
M  V30 29952 H 2843.63 -2.91479 1.42164 0
M  V30 29953 H 2843.42 -2.38232 3.11429 0
M  V30 29954 H 2844.91 -3.24508 2.62839 0
M  V30 29955 N 2845.34 -1.52224 -0.408133 0
M  V30 29956 C 2846.28 -1.7036 -1.51831 0
M  V30 29957 C 2847.25 -0.551198 -1.52972 0
M  V30 29958 O 2848.44 -0.778672 -1.71665 0
M  V30 29959 C 2845.56 -1.74383 -2.90359 0
M  V30 29960 C 2844.61 -2.95934 -3.07125 0
M  V30 29961 S 2845.44 -4.5626 -2.80334 0
M  V30 29962 C 2846.6 -4.6307 -4.2109 0
M  V30 29963 H 2846.83 -2.64257 -1.36219 0
M  V30 29964 H 2844.37 -1.42275 -0.599773 0
M  V30 29965 H 2846.32 -1.77386 -3.70195 0
M  V30 29966 H 2844.98 -0.816117 -3.03312 0
M  V30 29967 H 2844.18 -2.95233 -4.08477 0
M  V30 29968 H 2843.78 -2.90823 -2.35155 0
M  V30 29969 H 2846.07 -4.40508 -5.14742 0
M  V30 29970 H 2847.01 -5.6501 -4.26813 0
M  V30 29971 H 2847.42 -3.92093 -4.06107 0
M  V30 29972 N 2846.82 0.665425 -1.42863 0
M  V30 29973 C 2848.24 0.979665 -1.25995 0
M  V30 29974 C 2848.44 2.00774 -0.170867 0
M  V30 29975 O 2847.49 2.48371 0.454784 0
M  V30 29976 C 2848.81 1.47555 -2.62008 0
M  V30 29977 C 2850.35 1.59283 -2.6944 0
M  V30 29978 C 2850.83 2.12265 -4.05842 0
M  V30 29979 N 2852.32 2.19585 -4.07844 0
M  V30 29980 C 2853.05 2.61675 -5.10209 0
M  V30 29981 N 2852.55 3.0315 -6.22954 0
M  V30 29982 N 2854.34 2.61507 -4.97565 0
M  V30 29983 H 2846.49 -0.0150867 -2.12395 0
M  V30 29984 H 2848.76 0.0558021 -0.946356 0
M  V30 29985 H 2848.46 0.794594 -3.42606 0
M  V30 29986 H 2848.34 2.4527 -2.86571 0
M  V30 29987 H 2850.72 2.26483 -1.89182 0
M  V30 29988 H 2850.81 0.60033 -2.48656 0
M  V30 29989 H 2850.45 1.45672 -4.86562 0
M  V30 29990 H 2850.38 3.12324 -4.23983 0
M  V30 29991 H 2852.87 1.90355 -3.26456 0
M  V30 29992 H 2853.18 3.3398 -6.96905 0
M  V30 29993 H 2851.53 3.00984 -6.26445 0
M  V30 29994 H 2854.72 2.28474 -4.08555 0
M  V30 29995 H 2854.89 2.93988 -5.77473 0
M  V30 29996 N 2848.3 1.29191 0.902633 0
M  V30 29997 C 2849.23 1.09875 2.01147 0
M  V30 29998 C 2850.24 0.0471332 1.62732 0
M  V30 29999 O 2851.43 0.291351 1.76106 0
M  V30 30000 C 2848.53 0.649876 3.32611 0
M  V30 30001 C 2847.71 1.77937 3.99571 0
M  V30 30002 C 2846.76 1.322 5.09323 0
M  V30 30003 O 2845.79 2.0262 5.31915 0
M  V30 30004 N 2846.99 0.191273 5.80185 0
M  V30 30005 H 2849.76 2.05371 2.18272 0
M  V30 30006 H 2847.32 1.21092 1.07463 0
M  V30 30007 H 2849.31 0.32727 4.03375 0
M  V30 30008 H 2847.88 -0.212542 3.11877 0
M  V30 30009 H 2847.1 2.27101 3.22209 0
M  V30 30010 H 2848.39 2.53676 4.41051 0
M  V30 30011 H 2847.79 -0.395917 5.64313 0
M  V30 30012 H 2846.34 -0.0719855 6.5176 0
M  V30 30013 N 2849.78 -1.1126 1.1162 0
M  V30 30014 C 2851 -1.86838 0.888772 0
M  V30 30015 C 2851.42 -1.80256 -0.561527 0
M  V30 30016 O 2850.78 -1.18517 -1.3878 0
M  V30 30017 C 2850.83 -3.35576 1.34427 0
M  V30 30018 O 2850.55 -3.42024 2.73772 0
M  V30 30019 C 2852.05 -4.28055 1.15254 0
M  V30 30020 H 2849.27 -0.590774 0.318163 0
M  V30 30021 H 2851.81 -1.40704 1.484 0
M  V30 30022 H 2849.97 -3.79208 0.792457 0
M  V30 30023 H 2850.38 -4.34654 2.93558 0
M  V30 30024 H 2851.86 -5.30653 1.52024 0
M  V30 30025 H 2852.33 -4.39103 0.0922779 0
M  V30 30026 H 2852.94 -3.90219 1.69143 0
M  V30 30027 N 2851.25 -0.906798 -1.28899 0
M  V30 30028 C 2852.5 -0.53636 -1.95268 0
M  V30 30029 C 2852.83 0.918681 -1.71437 0
M  V30 30030 O 2852.08 1.66751 -1.02434 0
M  V30 30031 C 2852.38 -0.783678 -3.48702 0
M  V30 30032 C 2852.05 -2.21718 -3.92622 0
M  V30 30033 C 2850.71 -2.60913 -4.04324 0
M  V30 30034 C 2853.06 -3.15036 -4.15213 0
M  V30 30035 C 2850.39 -3.92592 -4.35991 0
M  V30 30036 C 2852.74 -4.46272 -4.48357 0
M  V30 30037 C 2851.41 -4.8533 -4.5827 0
M  V30 30038 H 2850.68 -0.196268 -0.714535 0
M  V30 30039 H 2853.32 -1.1468 -1.53364 0
M  V30 30040 H 2851.63 -0.0903737 -3.91696 0
M  V30 30041 H 2853.33 -0.476337 -3.98161 0
M  V30 30042 H 2849.92 -1.90302 -3.84035 0
M  V30 30043 H 2854.1 -2.85967 -4.05631 0
M  V30 30044 H 2849.36 -4.22564 -4.4187 0
M  V30 30045 H 2853.53 -5.18601 -4.64786 0
M  V30 30046 H 2851.16 -5.87399 -4.82562 0
M  V30 30047 N 2852.73 1.42648 -0.670032 0
M  V30 30048 C 2853.98 2.01205 -0.189945 0
M  V30 30049 C 2854.3 1.53223 1.20614 0
M  V30 30050 O 2853.57 0.751888 1.80896 0
M  V30 30051 H 2852.15 0.743968 -0.067232 0
M  V30 30052 H 2854.81 1.7463 -0.865473 0
M  V30 30053 H 2853.91 3.11536 -0.187536 0
M  V30 30054 N 2854.21 0.413044 1.52091 0
M  V30 30055 C 2855.16 -0.425159 2.28681 0
M  V30 30056 C 2856.15 -1.04239 1.33531 0
M  V30 30057 O 2857.36 -0.980139 1.50974 0
M  V30 30058 H 2853.73 -0.155893 0.735664 0
M  V30 30059 H 2855.71 0.241978 2.97417 0
M  V30 30060 C 2854.45 -1.52745 3.12353 0
M  V30 30061 H 2853.78 -1.06184 3.85441 0
M  V30 30062 H 2855.22 -2.08768 3.69042 0
M  V30 30063 C 2853.68 -2.49702 2.26165 0
M  V30 30064 O 2854.21 -3.53678 1.90459 0
M  V30 30065 N 2852.41 -2.20005 1.89858 0
M  V30 30066 H 2851.96 -1.35482 2.19095 0
M  V30 30067 H 2851.92 -2.85123 1.32485 0
M  V30 30068 N 2855.69 -1.56945 0.143591 0
M  V30 30069 C 2856.62 -2.19602 -0.793561 0
M  V30 30070 C 2857.6 -1.14323 -1.25953 0
M  V30 30071 O 2858.79 -1.42654 -1.31771 0
M  V30 30072 C 2855.92 -2.81492 -2.03419 0
M  V30 30073 C 2854.87 -3.92568 -1.70512 0
M  V30 30074 C 2854.2 -4.41379 -3.0181 0
M  V30 30075 C 2855.5 -5.13506 -0.9544 0
M  V30 30076 H 2857.19 -2.98168 -0.271371 0
M  V30 30077 H 2854.74 -1.4342 -0.129085 0
M  V30 30078 H 2856.69 -3.23991 -2.69458 0
M  V30 30079 H 2855.41 -2.00253 -2.58005 0
M  V30 30080 H 2854.07 -3.50682 -1.06853 0
M  V30 30081 H 2853.72 -3.56965 -3.54379 0
M  V30 30082 H 2853.42 -5.16296 -2.80556 0
M  V30 30083 H 2854.94 -4.86546 -3.68925 0
M  V30 30084 H 2856.36 -5.52871 -1.51681 0
M  V30 30085 H 2854.75 -5.94165 -0.84193 0
M  V30 30086 H 2855.82 -4.84869 0.0544885 0
M  V30 30087 N 2857.17 0.130197 -1.57061 0
M  V30 30088 C 2858.4 0.853184 -1.8816 0
M  V30 30089 C 2858.81 1.74478 -0.731705 0
M  V30 30090 O 2858.15 1.81116 0.307003 0
M  V30 30091 C 2858.21 1.7478 -3.14153 0
M  V30 30092 C 2857.87 1.03165 -4.45203 0
M  V30 30093 C 2858.87 0.377667 -5.18526 0
M  V30 30094 C 2856.56 1.01616 -4.91914 0
M  V30 30095 C 2858.55 -0.282235 -6.36775 0
M  V30 30096 C 2856.24 0.352448 -6.10083 0
M  V30 30097 C 2857.24 -0.295603 -6.8236 0
M  V30 30098 O 2856.92 -0.948746 -7.98282 0
M  V30 30099 H 2856.66 0.251186 -0.6276 0
M  V30 30100 H 2859.21 0.122564 -2.05034 0
M  V30 30101 H 2857.44 2.51978 -2.93333 0
M  V30 30102 H 2859.13 2.34422 -3.31363 0
M  V30 30103 H 2859.89 0.381332 -4.83499 0
M  V30 30104 H 2855.77 1.50999 -4.35569 0
M  V30 30105 H 2859.32 -0.788647 -6.93128 0
M  V30 30106 H 2855.21 0.346508 -6.44569 0
M  V30 30107 H 2855.98 -0.852097 -8.14053 0
M  V30 30108 N 2858.65 1.52438 0.400055 0
M  V30 30109 C 2859.59 1.76429 1.488 0
M  V30 30110 C 2860.56 0.607059 1.54609 0
M  V30 30111 O 2861.75 0.845593 1.71039 0
M  V30 30112 C 2858.89 1.92901 2.86152 0
M  V30 30113 C 2858 3.20572 2.89581 0
M  V30 30114 C 2857.14 3.27425 4.1829 0
M  V30 30115 C 2856.17 4.49262 4.15728 0
M  V30 30116 N 2855.31 4.53457 5.36024 0
M  V30 30117 H 2860.15 2.69279 1.27644 0
M  V30 30118 H 2857.69 1.33422 0.619428 0
M  V30 30119 H 2859.65 2.00436 3.65898 0
M  V30 30120 H 2858.28 1.03423 3.05783 0
M  V30 30121 H 2857.33 3.22164 2.02273 0
M  V30 30122 H 2858.64 4.10363 2.83555 0
M  V30 30123 H 2857.79 3.34081 5.06433 0
M  V30 30124 H 2856.53 2.35588 4.27024 0
M  V30 30125 H 2855.54 4.42743 3.25974 0
M  V30 30126 H 2856.76 5.42403 4.08627 0
M  V30 30127 H 2854.71 3.64507 5.45408 0
M  V30 30128 H 2854.63 5.37105 5.32028 0
M  V30 30129 H 2855.89 4.64354 6.26095 0
M  V30 30130 N 2860.12 -0.657839 1.43214 0
M  V30 30131 C 2861.35 -1.44563 1.48017 0
M  V30 30132 C 2861.77 -1.88553 0.0966283 0
M  V30 30133 O 2861.12 -1.59205 -0.892193 0
M  V30 30134 C 2861.17 -2.68365 2.42203 0
M  V30 30135 O 2860.9 -2.26217 3.75177 0
M  V30 30136 C 2862.4 -3.61768 2.56201 0
M  V30 30137 H 2859.62 -0.444257 0.502868 0
M  V30 30138 H 2862.16 -0.806884 1.87909 0
M  V30 30139 H 2860.32 -3.28391 2.0552 0
M  V30 30140 H 2860.73 -3.06285 4.25781 0
M  V30 30141 H 2862.2 -4.45314 3.2619 0
M  V30 30142 H 2862.68 -4.08807 1.60541 0
M  V30 30143 H 2863.29 -3.07627 2.93677 0
M  V30 30144 N 2861.6 -1.29668 -0.895769 0
M  V30 30145 C 2862.85 -1.17867 -1.64662 0
M  V30 30146 C 2863.18 0.268986 -1.92631 0
M  V30 30147 O 2862.43 1.21026 -1.53789 0
M  V30 30148 C 2862.73 -1.94144 -3.00071 0
M  V30 30149 C 2862.4 -3.43838 -2.91696 0
M  V30 30150 C 2861.06 -3.84661 -2.89119 0
M  V30 30151 C 2863.41 -4.3921 -2.80614 0
M  V30 30152 C 2860.74 -5.19165 -2.73284 0
M  V30 30153 C 2863.09 -5.73809 -2.66319 0
M  V30 30154 C 2861.75 -6.13885 -2.6211 0
M  V30 30155 H 2861.02 -0.431306 -0.602541 0
M  V30 30156 H 2863.67 -1.60649 -1.04231 0
M  V30 30157 H 2861.98 -1.43964 -3.64392 0
M  V30 30158 H 2863.67 -1.82415 -3.57108 0
M  V30 30159 H 2860.26 -3.11391 -2.94506 0
M  V30 30160 H 2864.45 -4.0862 -2.81679 0
M  V30 30161 H 2859.7 -5.49321 -2.68433 0
M  V30 30162 H 2863.88 -6.47356 -2.56716 0
M  V30 30163 H 2861.5 -7.18056 -2.49598 0
M  V30 30164 N 2863.08 1.10667 -1.12208 0
M  V30 30165 C 2864.03 2.15076 -0.756728 0
M  V30 30166 C 2865.01 1.59053 0.243126 0
M  V30 30167 O 2866.21 1.76932 0.0489957 0
M  V30 30168 C 2863.33 3.42655 -0.210363 0
M  V30 30169 C 2862.42 4.05617 -1.23836 0
M  V30 30170 N 2862.81 4.43319 -2.4352 0
M  V30 30171 C 2861.11 4.32647 -1.08317 0
M  V30 30172 C 2861.81 4.92751 -3.09146 0
M  V30 30173 N 2860.79 4.89408 -2.36602 0
M  V30 30174 H 2864.59 2.42015 -1.66752 0
M  V30 30175 H 2862.1 1.27764 -1.00251 0
M  V30 30176 H 2864.1 4.16842 0.0695554 0
M  V30 30177 H 2862.76 3.17177 0.694911 0
M  V30 30178 H 2863.77 4.35092 -2.80919 0
M  V30 30179 H 2860.45 4.16838 -0.234992 0
M  V30 30180 H 2861.84 5.31489 -4.11058 0
M  V30 30181 N 2864.56 0.913621 1.28416 0
M  V30 30182 C 2865.49 0.418888 2.29712 0
M  V30 30183 C 2866.47 -0.51344 1.62166 0
M  V30 30184 O 2867.65 -0.421202 1.89577 0
M  V30 30185 C 2864.78 -0.341981 3.45612 0
M  V30 30186 C 2863.74 0.501198 4.25055 0
M  V30 30187 C 2863.06 -0.388003 5.3329 0
M  V30 30188 C 2864.36 1.75839 4.91811 0
M  V30 30189 H 2866.06 1.26543 2.71344 0
M  V30 30190 H 2863.6 0.609926 1.30445 0
M  V30 30191 H 2865.56 -0.698927 4.15563 0
M  V30 30192 H 2864.28 -1.22242 3.0286 0
M  V30 30193 H 2862.94 0.840661 3.56831 0
M  V30 30194 H 2862.59 -1.26699 4.86782 0
M  V30 30195 H 2862.29 0.172563 5.87347 0
M  V30 30196 H 2863.81 -0.740833 6.06089 0
M  V30 30197 H 2865.23 1.47036 5.54124 0
M  V30 30198 H 2863.62 2.26136 5.55862 0
M  V30 30199 H 2864.69 2.48627 4.16308 0
M  V30 30200 N 2866.04 -1.4229 0.677588 0
M  V30 30201 C 2866.98 -2.32598 -0.0106346 0
M  V30 30202 C 2867.98 -1.49977 -0.787616 0
M  V30 30203 O 2869.18 -1.6603 -0.695266 0
M  V30 30204 H 2865.56 -0.751671 -0.022235 0
M  V30 30205 H 2867.53 -2.88338 0.768362 0
M  V30 30206 C 2866.28 -3.34581 -0.946083 0
M  V30 30207 H 2865.6 -3.98197 -0.357631 0
M  V30 30208 H 2867.04 -4.0035 -1.39627 0
M  V30 30209 C 2865.5 -2.6706 -2.05379 0
M  V30 30210 O 2866.03 -2.50464 -3.14055 0
M  V30 30211 N 2864.24 -2.26041 -1.82631 0
M  V30 30212 H 2863.78 -2.39739 -0.942492 0
M  V30 30213 H 2863.74 -1.81196 -2.56934 0
M  V30 30214 N 2867.51 -0.421104 -1.5187 0
M  V30 30215 C 2868.92 0.0457663 -1.86644 0
M  V30 30216 C 2869.28 1.43386 -1.33921 0
M  V30 30217 O 2868.4 2.05327 -0.683352 0
M  V30 30218 C 2869 0.0898249 -3.38681 0
M  V30 30219 C 2867.55 0.501062 -3.7305 0
M  V30 30220 C 2866.7 -0.316772 -2.75485 0
M  V30 30221 H 2869.65 -0.63766 -1.45326 0
M  V30 30222 H 2869.67 0.902669 -3.69638 0
M  V30 30223 H 2869.19 -0.920579 -3.77024 0
M  V30 30224 H 2867.29 1.51767 -3.4029 0
M  V30 30225 H 2867.4 0.237133 -4.78513 0
M  V30 30226 H 2865.76 0.222618 -2.53725 0
M  V30 30227 H 2866.55 -1.32575 -3.16668 0
M  V30 30228 N 2868.99 1.56866 -0.151912 0
M  V30 30229 C 2870.24 1.95894 0.496986 0
M  V30 30230 C 2870.56 1.03802 1.65076 0
M  V30 30231 O 2869.83 0.100525 1.95642 0
M  V30 30232 H 2868.41 0.723321 0.18659 0
M  V30 30233 H 2871.07 1.93555 -0.228559 0
M  V30 30234 H 2870.17 2.99732 0.86988 0
M  V30 30235 N 2870.47 -0.121866 1.57128 0
M  V30 30236 C 2871.72 -0.828716 1.83889 0
M  V30 30237 C 2872.03 -1.81179 0.737119 0
M  V30 30238 O 2873.24 -2.56462 0.891052 0
M  V30 30239 C 2871.69 -1.52449 3.26017 0
M  V30 30240 C 2871.3 -0.582552 4.44196 0
M  V30 30241 C 2873.05 -2.21665 3.62029 0
M  V30 30242 C 2870.95 -1.28139 5.77351 0
M  V30 30243 H 2869.88 -0.313226 0.685861 0
M  V30 30244 H 2872.53 -0.0814529 1.83319 0
M  V30 30245 H 2870.92 -2.31828 3.21048 0
M  V30 30246 H 2872.09 0.17781 4.60457 0
M  V30 30247 H 2870.41 0.00248548 4.164 0
M  V30 30248 H 2873 -2.74635 4.58781 0
M  V30 30249 H 2873.35 -2.99331 2.89321 0
M  V30 30250 H 2873.88 -1.49177 3.6877 0
M  V30 30251 H 2870.62 -0.546074 6.53221 0
M  V30 30252 H 2870.14 -2.01384 5.64982 0
M  V30 30253 H 2871.82 -1.81538 6.2101 0
M  V30 30254 N 2871.95 -1.52648 -0.391965 0
M  V30 30255 C 2873.19 -1.67795 -1.13897 0
M  V30 30256 C 2873.53 -0.415174 -1.8971 0
M  V30 30257 O 2872.8 0.586946 -1.85432 0
M  V30 30258 C 2873.09 -2.91109 -2.11961 0
M  V30 30259 C 2872.94 -4.2748 -1.39931 0
M  V30 30260 C 2874.26 -3.09966 -3.12424 0
M  V30 30261 H 2871.38 -0.610615 -0.412696 0
M  V30 30262 H 2874.02 -1.85239 -0.422692 0
M  V30 30263 H 2872.17 -2.76368 -2.73044 0
M  V30 30264 H 2873.84 -4.53983 -0.818359 0
M  V30 30265 H 2872.08 -4.28096 -0.701171 0
M  V30 30266 H 2872.75 -5.09845 -2.11572 0
M  V30 30267 H 2875.23 -3.23719 -2.61429 0
M  V30 30268 H 2874.11 -3.97731 -3.78287 0
M  V30 30269 H 2874.37 -2.24049 -3.81123 0
M  V30 30270 N 2873.43 0.650235 -1.43561 0
M  V30 30271 C 2874.65 1.43776 -1.48782 0
M  V30 30272 C 2875.07 1.88499 -0.106626 0
M  V30 30273 O 2874.43 1.59676 0.883738 0
M  V30 30274 C 2874.48 2.67077 -2.43623 0
M  V30 30275 O 2874.2 2.24224 -3.76371 0
M  V30 30276 C 2875.7 3.60404 -2.58116 0
M  V30 30277 H 2872.92 0.441584 -0.505217 0
M  V30 30278 H 2875.46 0.796908 -1.88334 0
M  V30 30279 H 2873.62 3.27296 -2.07258 0
M  V30 30280 H 2874.03 3.04023 -4.274 0
M  V30 30281 H 2875.51 4.43578 -3.28547 0
M  V30 30282 H 2875.98 4.0795 -1.62707 0
M  V30 30283 H 2876.59 3.06065 -2.95304 0
M  V30 30284 N 2874.9 1.30141 0.88888 0
M  V30 30285 C 2876.15 1.18504 1.63711 0
M  V30 30286 C 2876.47 -0.261365 1.9324 0
M  V30 30287 O 2875.74 -1.17687 1.5661 0
M  V30 30288 H 2874.32 0.43559 0.606853 0
M  V30 30289 H 2876.99 1.63215 1.06522 0
M  V30 30290 H 2876.08 1.74304 2.58891 0
M  V30 30291 N 2876.38 -1.1007 1.12794 0
M  V30 30292 C 2877.61 -1.86425 0.90887 0
M  V30 30293 C 2878.03 -1.80279 -0.536761 0
M  V30 30294 O 2877.39 -1.17546 -1.38031 0
M  V30 30295 C 2877.44 -3.32608 1.393 0
M  V30 30296 O 2876.54 -4.08387 0.573918 0
M  V30 30297 H 2875.88 -0.578326 0.326245 0
M  V30 30298 H 2878.41 -1.3904 1.50097 0
M  V30 30299 H 2878.42 -3.83457 1.39373 0
M  V30 30300 H 2877.1 -3.36397 2.44561 0
M  V30 30301 H 2875.68 -3.67358 0.640503 0
M  V30 30302 N 2877.86 -0.920419 -1.2793 0
M  V30 30303 C 2878.82 -0.41862 -2.25345 0
M  V30 30304 C 2879.82 0.458771 -1.54117 0
M  V30 30305 O 2881.01 0.260881 -1.72235 0
M  V30 30306 C 2878.15 0.399044 -3.38556 0
M  V30 30307 H 2879.34 -1.27922 -2.71249 0
M  V30 30308 H 2876.89 -0.700431 -1.39727 0
M  V30 30309 H 2877.63 1.27877 -2.98023 0
M  V30 30310 H 2877.41 -0.229932 -3.91425 0
M  V30 30311 H 2878.9 0.740745 -4.10978 0
M  V30 30312 N 2879.34 1.41929 -0.685124 0
M  V30 30313 C 2880.58 2.01689 -0.212007 0
M  V30 30314 C 2880.92 1.54096 1.18186 0
M  V30 30315 O 2880.19 0.747604 1.79558 0
M  V30 30316 C 2880.48 3.59174 -0.258083 0
M  V30 30317 C 2880.33 4.16919 -1.68814 0
M  V30 30318 C 2881.65 4.38387 0.387967 0
M  V30 30319 H 2878.77 0.732806 -0.0785116 0
M  V30 30320 H 2881.41 1.68815 -0.871867 0
M  V30 30321 H 2879.56 3.87311 0.303764 0
M  V30 30322 H 2881.23 3.99697 -2.30303 0
M  V30 30323 H 2879.47 3.72357 -2.2256 0
M  V30 30324 H 2880.14 5.26069 -1.67199 0
M  V30 30325 H 2882.62 4.16002 -0.0904163 0
M  V30 30326 H 2881.5 5.47936 0.325136 0
M  V30 30327 H 2881.76 4.17046 1.46713 0
M  V30 30328 N 2880.82 0.429152 1.51644 0
M  V30 30329 C 2882.06 -0.139767 2.01616 0
M  V30 30330 C 2882.39 -1.43925 1.3157 0
M  V30 30331 O 2881.66 -1.90715 0.447722 0
M  V30 30332 H 2880.24 -0.0546409 0.744999 0
M  V30 30333 H 2882.9 0.569984 1.86379 0
M  V30 30334 H 2881.99 -0.321555 3.10439 0
M  V30 30335 N 2882.29 -1.56783 0.160229 0
M  V30 30336 C 2883.53 -1.98436 -0.490144 0
M  V30 30337 C 2883.9 -1.04358 -1.61162 0
M  V30 30338 O 2885.1 -1.35107 -2.32378 0
M  V30 30339 C 2883.37 -3.43956 -0.971046 0
M  V30 30340 S 2884.93 -4.07635 -1.62416 0
M  V30 30341 H 2881.75 -0.693212 -0.158044 0
M  V30 30342 H 2884.35 -1.93829 0.25507 0
M  V30 30343 H 2883.05 -4.10146 -0.144251 0
M  V30 30344 H 2882.58 -3.52305 -1.75057 0
M  V30 30345 H 2884.6 -4.01773 -2.91192 0
M  V30 30346 N 2883.77 0.113531 -1.57191 0
M  V30 30347 C 2885.05 0.850968 -1.76119 0
M  V30 30348 C 2885.43 1.97812 -0.73712 0
M  V30 30349 O 2884.78 2.27258 0.237902 0
M  V30 30350 C 2884.99 1.3626 -3.21301 0
M  V30 30351 C 2886.34 1.81276 -3.83958 0
M  V30 30352 O 2887.36 1.45927 -3.24937 0
M  V30 30353 O 2886.22 2.46576 -4.87711 0
M  V30 30354 H 2883.31 0.404516 -0.721315 0
M  V30 30355 H 2885.86 0.0968458 -1.69423 0
M  V30 30356 H 2884.63 0.554167 -3.87356 0
M  V30 30357 H 2884.25 2.17928 -3.32556 0
M  V30 30358 N 2885.25 1.52854 0.383864 0
M  V30 30359 C 2886.66 1.60034 0.961562 0
M  V30 30360 C 2887.01 0.456366 1.90819 0
M  V30 30361 O 2886.14 -0.419836 2.12288 0
M  V30 30362 C 2886.73 2.9006 1.75073 0
M  V30 30363 C 2885.29 2.99636 2.27805 0
M  V30 30364 C 2884.44 2.55189 1.08507 0
M  V30 30365 H 2887.39 1.57858 0.163241 0
M  V30 30366 H 2887.41 2.76835 2.61041 0
M  V30 30367 H 2886.92 3.73301 1.0615 0
M  V30 30368 H 2885.02 2.20944 3.00024 0
M  V30 30369 H 2885.14 4.04374 2.5694 0
M  V30 30370 H 2883.5 2.0963 1.44663 0
M  V30 30371 H 2884.28 3.40829 0.41112 0
M  V30 30372 N 2886.73 -0.642612 1.43904 0
M  V30 30373 C 2888.01 -1.4004 1.36558 0
M  V30 30374 C 2888.39 -2.11092 0.0185959 0
M  V30 30375 O 2887.73 -2.05534 -0.998402 0
M  V30 30376 C 2887.94 -2.37633 2.556 0
M  V30 30377 C 2889.29 -3.01313 2.99158 0
M  V30 30378 O 2890.32 -2.4796 2.55723 0
M  V30 30379 O 2889.18 -3.98072 3.74434 0
M  V30 30380 H 2886.27 -0.626189 0.5402 0
M  V30 30381 H 2888.82 -0.66863 1.55973 0
M  V30 30382 H 2887.59 -1.84151 3.45259 0
M  V30 30383 H 2887.21 -3.18245 2.3834 0
M  V30 30384 N 2888.21 -1.30611 -0.881966 0
M  V30 30385 C 2889.14 -1.19823 -2.00411 0
M  V30 30386 C 2890.12 -0.0881836 -1.69871 0
M  V30 30387 O 2891.3 -0.270734 -1.92304 0
M  V30 30388 C 2888.43 -0.892389 -3.35639 0
M  V30 30389 C 2887.39 -1.9607 -3.80448 0
M  V30 30390 C 2886.71 -1.50779 -5.13001 0
M  V30 30391 C 2888.01 -3.3722 -3.98849 0
M  V30 30392 H 2889.71 -2.13703 -2.09694 0
M  V30 30393 H 2887.25 -1.02884 -1.00752 0
M  V30 30394 H 2889.21 -0.80357 -4.13667 0
M  V30 30395 H 2887.93 0.0820807 -3.26497 0
M  V30 30396 H 2886.59 -2.03921 -3.0465 0
M  V30 30397 H 2886.24 -0.521504 -5.00289 0
M  V30 30398 H 2885.94 -2.22238 -5.43952 0
M  V30 30399 H 2887.46 -1.43281 -5.93551 0
M  V30 30400 H 2888.88 -3.32111 -4.67306 0
M  V30 30401 H 2887.27 -4.06792 -4.41181 0
M  V30 30402 H 2888.34 -3.78889 -3.02608 0
M  V30 30403 N 2889.69 1.0947 -1.13376 0
M  V30 30404 C 2890.93 1.81637 -0.895222 0
M  V30 30405 C 2891.26 1.85693 0.578647 0
M  V30 30406 O 2890.52 1.32062 1.44423 0
M  V30 30407 C 2890.81 3.27648 -1.42765 0
M  V30 30408 C 2890.48 3.43725 -2.91828 0
M  V30 30409 C 2889.14 3.47821 -3.32527 0
M  V30 30410 C 2891.49 3.483 -3.87733 0
M  V30 30411 C 2888.82 3.54069 -4.67816 0
M  V30 30412 C 2891.17 3.56082 -5.22865 0
M  V30 30413 C 2889.84 3.58446 -5.63092 0
M  V30 30414 H 2889.11 0.664657 -0.327585 0
M  V30 30415 H 2891.76 1.28967 -1.41562 0
M  V30 30416 H 2890.06 3.82952 -0.827938 0
M  V30 30417 H 2891.76 3.82017 -1.21917 0
M  V30 30418 H 2888.35 3.41222 -2.59356 0
M  V30 30419 H 2892.53 3.44377 -3.57377 0
M  V30 30420 H 2887.79 3.54186 -4.98359 0
M  V30 30421 H 2891.96 3.58567 -5.96995 0
M  V30 30422 H 2889.59 3.6304 -6.67911 0
M  V30 30423 N 2891.16 0.92719 1.2744 0
M  V30 30424 C 2892.41 0.577685 1.95024 0
M  V30 30425 C 2892.76 -0.871391 1.71536 0
M  V30 30426 O 2892.06 -1.61332 1.03357 0
M  V30 30427 C 2892.25 0.839055 3.47411 0
M  V30 30428 C 2892.08 2.31199 3.85717 0
M  V30 30429 C 2890.85 2.9646 4.09194 0
M  V30 30430 C 2893.05 3.28946 3.95346 0
M  V30 30431 N 2891.03 4.3391 4.34275 0
M  V30 30432 C 2892.4 4.51606 4.24797 0
M  V30 30433 C 2894.46 3.24162 3.7792 0
M  V30 30434 C 2893.16 5.70081 4.38635 0
M  V30 30435 C 2895.19 4.41949 3.92983 0
M  V30 30436 C 2894.55 5.63386 4.22819 0
M  V30 30437 H 2890.65 0.261508 0.736979 0
M  V30 30438 H 2893.23 1.1937 1.53814 0
M  V30 30439 H 2891.4 0.252197 3.8758 0
M  V30 30440 H 2893.13 0.452229 4.02165 0
M  V30 30441 H 2889.89 2.47132 4.04008 0
M  V30 30442 H 2890.31 5.05016 4.50874 0
M  V30 30443 H 2894.95 2.31343 3.53893 0
M  V30 30444 H 2892.67 6.63366 4.61488 0
M  V30 30445 H 2896.26 4.39764 3.80919 0
M  V30 30446 H 2895.14 6.53009 4.34223 0
M  V30 30447 N 2892.64 -1.41564 0.692641 0
M  V30 30448 C 2893.87 -2.06123 0.229813 0
M  V30 30449 C 2894.29 -1.51772 -1.11117 0
M  V30 30450 O 2893.65 -0.643474 -1.69497 0
M  V30 30451 C 2893.7 -3.60074 0.194753 0
M  V30 30452 O 2892.8 -4.03935 -0.831295 0
M  V30 30453 H 2892.14 -0.654312 0.113014 0
M  V30 30454 H 2894.67 -1.81381 0.946677 0
M  V30 30455 H 2894.68 -4.07993 0.0246204 0
M  V30 30456 H 2893.36 -3.99002 1.17346 0
M  V30 30457 H 2891.93 -3.67527 -0.630754 0
M  V30 30458 N 2894.12 -0.437188 -1.51415 0
M  V30 30459 C 2895.07 0.374334 -2.27744 0
M  V30 30460 C 2896.04 1.01696 -1.31329 0
M  V30 30461 O 2897.22 1.03589 -1.60231 0
M  V30 30462 C 2894.36 1.46963 -3.12243 0
M  V30 30463 C 2893.47 0.845161 -4.23652 0
M  V30 30464 C 2892.61 1.9155 -4.95462 0
M  V30 30465 C 2891.65 1.26945 -5.98792 0
M  V30 30466 N 2890.79 2.28114 -6.64009 0
M  V30 30467 H 2895.63 -0.282944 -2.96654 0
M  V30 30468 H 2893.16 -0.151378 -1.46319 0
M  V30 30469 H 2895.12 2.11595 -3.5956 0
M  V30 30470 H 2893.75 2.09654 -2.45448 0
M  V30 30471 H 2892.8 0.0871391 -3.803 0
M  V30 30472 H 2894.11 0.333494 -4.97684 0
M  V30 30473 H 2893.27 2.63844 -5.46325 0
M  V30 30474 H 2892.01 2.46089 -4.2106 0
M  V30 30475 H 2891.01 0.531973 -5.4722 0
M  V30 30476 H 2892.24 0.73139 -6.7515 0
M  V30 30477 H 2890.18 2.81734 -5.9242 0
M  V30 30478 H 2890.1 1.81839 -7.33806 0
M  V30 30479 H 2891.37 2.99893 -7.19503 0
M  V30 30480 N 2895.6 1.56696 -0.168541 0
M  V30 30481 C 2896.85 1.95974 0.477198 0
M  V30 30482 C 2897.16 1.05707 1.64576 0
M  V30 30483 O 2898.37 1.34654 2.35755 0
M  V30 30484 C 2896.82 3.48456 0.900352 0
M  V30 30485 C 2896.43 4.47343 -0.242461 0
M  V30 30486 C 2898.17 3.96558 1.51467 0
M  V30 30487 C 2896.08 5.91061 0.200168 0
M  V30 30488 H 2895.01 0.731693 0.182048 0
M  V30 30489 H 2897.66 1.81701 -0.256329 0
M  V30 30490 H 2896.04 3.58138 1.68978 0
M  V30 30491 H 2897.22 4.49375 -1.01975 0
M  V30 30492 H 2895.53 4.09283 -0.766555 0
M  V30 30493 H 2898.13 5.01387 1.85783 0
M  V30 30494 H 2898.47 3.39336 2.41157 0
M  V30 30495 H 2899.01 3.89882 0.789733 0
M  V30 30496 H 2895.74 6.5215 -0.661889 0
M  V30 30497 H 2895.26 5.92343 0.942875 0
M  V30 30498 H 2896.94 6.43777 0.644975 0
M  V30 30499 N 2897.08 -0.105193 1.57249 0
M  V30 30500 C 2898.49 -0.660834 1.74613 0
M  V30 30501 C 2898.84 -1.79625 0.789262 0
M  V30 30502 O 2897.96 -2.16372 -0.034623 0
M  V30 30503 C 2898.56 -1.20553 3.16626 0
M  V30 30504 C 2897.12 -1.70734 3.3545 0
M  V30 30505 C 2896.26 -0.612716 2.70446 0
M  V30 30506 H 2899.21 0.120818 1.58239 0
M  V30 30507 H 2899.24 -2.07502 3.1894 0
M  V30 30508 H 2898.75 -0.378944 3.86246 0
M  V30 30509 H 2896.85 -2.55826 2.70895 0
M  V30 30510 H 2896.96 -1.80728 4.43705 0
M  V30 30511 H 2895.33 -1.04971 2.32063 0
M  V30 30512 H 2896.11 0.203127 3.42699 0
M  V30 30513 N 2898.55 -1.53055 -0.375752 0
M  V30 30514 C 2899.8 -1.68994 -1.12111 0
M  V30 30515 C 2900.13 -0.435272 -1.89259 0
M  V30 30516 O 2899.41 0.567245 -1.86045 0
M  V30 30517 C 2899.69 -2.93341 -2.08861 0
M  V30 30518 C 2899.54 -4.2894 -1.35389 0
M  V30 30519 C 2900.86 -3.13263 -3.09119 0
M  V30 30520 H 2897.98 -0.614958 -0.406197 0
M  V30 30521 H 2900.62 -1.85676 -0.403021 0
M  V30 30522 H 2898.77 -2.79249 -2.70097 0
M  V30 30523 H 2900.45 -4.54825 -0.770162 0
M  V30 30524 H 2898.69 -4.28815 -0.655726 0
M  V30 30525 H 2899.36 -5.1206 -2.06152 0
M  V30 30526 H 2901.84 -3.26473 -2.57981 0
M  V30 30527 H 2900.71 -4.01721 -3.74047 0
M  V30 30528 H 2900.97 -2.28079 -3.78725 0
M  V30 30529 N 2900.03 0.634971 -1.44242 0
M  V30 30530 C 2900.97 1.75982 -1.45278 0
M  V30 30531 C 2901.94 1.59578 -0.312053 0
M  V30 30532 O 2903.13 1.81513 -0.508441 0
M  V30 30533 C 2900.25 3.13509 -1.28178 0
M  V30 30534 C 2899.3 3.48572 -2.45764 0
M  V30 30535 S 2900.13 3.46485 -4.08299 0
M  V30 30536 C 2901.29 4.86639 -3.93616 0
M  V30 30537 H 2901.52 1.74836 -2.40457 0
M  V30 30538 H 2899.06 0.809244 -1.31494 0
M  V30 30539 H 2901.01 3.92873 -1.19 0
M  V30 30540 H 2899.67 3.12198 -0.345165 0
M  V30 30541 H 2898.87 4.48638 -2.29652 0
M  V30 30542 H 2898.47 2.76663 -2.51662 0
M  V30 30543 H 2900.76 5.75767 -3.57069 0
M  V30 30544 H 2901.7 5.07804 -4.93499 0
M  V30 30545 H 2902.11 4.61032 -3.25745 0
M  V30 30546 N 2901.51 1.31076 0.875027 0
M  V30 30547 C 2902.44 1.20885 1.99773 0
M  V30 30548 C 2903.42 0.0971911 1.69822 0
M  V30 30549 O 2904.61 0.280929 1.92157 0
M  V30 30550 C 2901.74 0.910176 3.35161 0
M  V30 30551 C 2900.69 1.98085 3.79403 0
M  V30 30552 C 2900.02 1.53497 5.12194 0
M  V30 30553 C 2901.32 3.3933 3.97055 0
M  V30 30554 H 2903.01 2.14812 2.08558 0
M  V30 30555 H 2900.56 1.03416 1.00205 0
M  V30 30556 H 2902.51 0.825496 4.13235 0
M  V30 30557 H 2901.23 -0.0647647 3.26536 0
M  V30 30558 H 2899.89 2.05534 3.03565 0
M  V30 30559 H 2899.54 0.548029 5.00006 0
M  V30 30560 H 2899.24 2.2512 5.42766 0
M  V30 30561 H 2900.76 1.46427 5.92783 0
M  V30 30562 H 2902.18 3.34584 4.65539 0
M  V30 30563 H 2900.58 4.09126 4.39017 0
M  V30 30564 H 2901.65 3.80488 3.00594 0
M  V30 30565 N 2902.99 -1.08867 1.13955 0
M  V30 30566 C 2903.94 -2.17753 0.817703 0
M  V30 30567 C 2904.93 -1.68186 -0.202414 0
M  V30 30568 O 2906.14 -1.79903 -0.0589843 0
M  V30 30569 H 2902.51 -0.710388 0.246684 0
M  V30 30570 H 2904.48 -2.42127 1.74405 0
M  V30 30571 C 2903.23 -3.46348 0.306361 0
M  V30 30572 H 2902.55 -3.84862 1.08266 0
M  V30 30573 H 2903.99 -4.23831 0.119658 0
M  V30 30574 C 2902.45 -3.22661 -0.969102 0
M  V30 30575 O 2902.98 -3.45821 -2.0438 0
M  V30 30576 N 2901.19 -2.76232 -0.902468 0
M  V30 30577 H 2900.74 -2.57585 -0.0277557 0
M  V30 30578 H 2900.69 -2.60761 -1.75644 0
M  V30 30579 N 2904.47 -0.933936 -1.26946 0
M  V30 30580 C 2905.71 -0.576518 -1.93703 0
M  V30 30581 C 2906.04 0.886115 -1.73704 0
M  V30 30582 O 2905.31 1.62882 -1.08841 0
M  V30 30583 H 2903.89 -0.210226 -0.716808 0
M  V30 30584 H 2906.55 -1.18769 -1.54532 0
M  V30 30585 H 2905.64 -0.788108 -3.01986 0
M  V30 30586 N 2905.94 1.41194 -0.700139 0
M  V30 30587 C 2906.89 2.27995 -0.0144499 0
M  V30 30588 C 2907.88 1.42444 0.748224 0
M  V30 30589 O 2909.07 1.65675 0.622966 0
M  V30 30590 C 2906.2 3.30802 0.91788 0
M  V30 30591 C 2905.29 4.2383 0.151212 0
M  V30 30592 N 2905.68 4.9848 -0.857408 0
M  V30 30593 C 2903.97 4.44326 0.38603 0
M  V30 30594 C 2904.68 5.66601 -1.31673 0
M  V30 30595 N 2903.65 5.39798 -0.641783 0
M  V30 30596 H 2907.45 2.83147 -0.787712 0
M  V30 30597 H 2904.97 1.53461 -0.531371 0
M  V30 30598 H 2906.96 3.91815 1.4243 0
M  V30 30599 H 2905.62 2.77211 1.69069 0
M  V30 30600 H 2906.64 5.02891 -1.23779 0
M  V30 30601 H 2903.31 4.01737 1.13637 0
M  V30 30602 H 2904.7 6.36439 -2.15395 0
M  V30 30603 N 2907.42 0.445212 1.51181 0
M  V30 30604 C 2908.35 -0.352645 2.30822 0
M  V30 30605 C 2909.33 -1.01393 1.36578 0
M  V30 30606 O 2910.52 -1.01606 1.65499 0
M  V30 30607 C 2907.65 -1.4497 3.15596 0
M  V30 30608 C 2906.6 -0.911479 4.18182 0
M  V30 30609 C 2905.93 -2.10488 4.91527 0
M  V30 30610 C 2907.23 0.0595098 5.22266 0
M  V30 30611 H 2908.92 0.311988 2.9777 0
M  V30 30612 H 2906.47 0.151487 1.43201 0
M  V30 30613 H 2908.42 -2.01514 3.70095 0
M  V30 30614 H 2907.15 -2.14274 2.46484 0
M  V30 30615 H 2905.8 -0.3682 3.64746 0
M  V30 30616 H 2905.45 -2.78429 4.18911 0
M  V30 30617 H 2905.15 -1.7511 5.60901 0
M  V30 30618 H 2906.68 -2.67571 5.48852 0
M  V30 30619 H 2908.09 -0.415884 5.7179 0
M  V30 30620 H 2906.49 0.326258 5.99212 0
M  V30 30621 H 2907.56 0.993714 4.74609 0
M  V30 30622 N 2908.9 -1.56605 0.176849 0
M  V30 30623 C 2910.15 -1.96224 -0.466799 0
M  V30 30624 C 2910.46 -1.06579 -1.64013 0
M  V30 30625 O 2911.67 -1.35902 -2.35038 0
M  V30 30626 C 2910.12 -3.48929 -0.881859 0
M  V30 30627 C 2909.73 -4.47209 0.266181 0
M  V30 30628 C 2911.48 -3.97356 -1.49361 0
M  V30 30629 C 2909.38 -5.91159 -0.16882 0
M  V30 30630 H 2908.31 -0.732648 -0.178165 0
M  V30 30631 H 2910.96 -1.81562 0.265961 0
M  V30 30632 H 2909.35 -3.59029 -1.67076 0
M  V30 30633 H 2910.52 -4.48828 1.04357 0
M  V30 30634 H 2908.84 -4.08871 0.78825 0
M  V30 30635 H 2911.43 -5.02365 -1.83121 0
M  V30 30636 H 2911.78 -3.4061 -2.39354 0
M  V30 30637 H 2912.31 -3.90295 -0.769046 0
M  V30 30638 H 2909.05 -6.5179 0.696465 0
M  V30 30639 H 2908.57 -5.92834 -0.911448 0
M  V30 30640 H 2910.25 -6.4411 -0.610825 0
M  V30 30641 N 2910.38 0.0968524 -1.57302 0
M  V30 30642 C 2911.34 1.10185 -2.00978 0
M  V30 30643 C 2912.34 1.33049 -0.903033 0
M  V30 30644 O 2913.53 1.29192 -1.16855 0
M  V30 30645 C 2910.66 2.45138 -2.36897 0
M  V30 30646 H 2911.86 0.725952 -2.90981 0
M  V30 30647 H 2909.41 0.341845 -1.52516 0
M  V30 30648 H 2910.14 2.87607 -1.49842 0
M  V30 30649 H 2909.93 2.29891 -3.17636 0
M  V30 30650 H 2911.42 3.17425 -2.71351 0
M  V30 30651 N 2911.86 1.53252 0.36763 0
M  V30 30652 C 2913.1 1.69335 1.11049 0
M  V30 30653 C 2913.43 0.444097 1.89362 0
M  V30 30654 O 2912.69 -0.57392 1.87095 0
M  V30 30655 C 2912.99 2.89328 2.09819 0
M  V30 30656 C 2912.65 4.25918 1.48002 0
M  V30 30657 C 2911.31 4.63062 1.30871 0
M  V30 30658 C 2913.67 5.10869 1.03259 0
M  V30 30659 C 2910.99 5.82795 0.675766 0
M  V30 30660 C 2913.35 6.31246 0.413659 0
M  V30 30661 C 2912.01 6.67104 0.229821 0
M  V30 30662 H 2911.28 0.619641 0.406357 0
M  V30 30663 H 2913.93 1.87434 0.392525 0
M  V30 30664 H 2912.23 2.65733 2.87912 0
M  V30 30665 H 2913.93 2.98965 2.67246 0
M  V30 30666 H 2910.52 3.9667 1.62329 0
M  V30 30667 H 2914.7 4.82724 1.15288 0
M  V30 30668 H 2909.96 6.0917 0.521726 0
M  V30 30669 H 2914.13 6.96375 0.0587544 0
M  V30 30670 H 2911.76 7.59746 -0.262696 0
M  V30 30671 N 2913.34 -0.627313 1.44577 0
M  V30 30672 C 2914.61 -1.38584 1.38036 0
M  V30 30673 C 2914.99 -2.1106 0.0409839 0
M  V30 30674 O 2914.34 -2.06581 -0.976546 0
M  V30 30675 C 2914.55 -2.34909 2.58106 0
M  V30 30676 C 2915.9 -2.98123 3.02337 0
M  V30 30677 O 2916.92 -2.45234 2.58339 0
M  V30 30678 O 2915.78 -3.94078 3.78635 0
M  V30 30679 H 2912.88 -0.620424 0.546811 0
M  V30 30680 H 2915.42 -0.652049 1.56673 0
M  V30 30681 H 2914.19 -1.80479 3.47193 0
M  V30 30682 H 2913.82 -3.15699 2.41702 0
M  V30 30683 N 2914.81 -1.31539 -0.868063 0
M  V30 30684 C 2916.04 -1.2412 -1.6516 0
M  V30 30685 C 2916.45 0.195525 -1.88187 0
M  V30 30686 O 2915.79 1.13863 -1.44156 0
M  V30 30687 C 2915.86 -1.91714 -3.04115 0
M  V30 30688 C 2915.52 -3.41055 -3.04188 0
M  V30 30689 C 2916.52 -4.36769 -2.82008 0
M  V30 30690 C 2914.2 -3.82777 -3.25249 0
M  V30 30691 C 2916.2 -5.7218 -2.80871 0
M  V30 30692 C 2913.88 -5.18301 -3.2374 0
M  V30 30693 C 2914.88 -6.12813 -3.01578 0
M  V30 30694 O 2914.57 -7.45858 -2.99917 0
M  V30 30695 H 2914.3 -0.430024 -0.521589 0
M  V30 30696 H 2916.86 -1.73991 -1.09162 0
M  V30 30697 H 2915.09 -1.36395 -3.61847 0
M  V30 30698 H 2916.77 -1.78185 -3.64698 0
M  V30 30699 H 2917.54 -4.05864 -2.65517 0
M  V30 30700 H 2913.42 -3.09644 -3.41529 0
M  V30 30701 H 2916.96 -6.45924 -2.63492 0
M  V30 30702 H 2912.86 -5.4884 -3.39771 0
M  V30 30703 H 2913.63 -7.55055 -3.15966 0
M  V30 30704 N 2916.29 1.08262 -1.1453 0
M  V30 30705 C 2917.52 1.84956 -0.938414 0
M  V30 30706 C 2917.94 1.8111 0.508012 0
M  V30 30707 O 2917.3 1.19727 1.36144 0
M  V30 30708 C 2917.35 3.30349 -1.44574 0
M  V30 30709 O 2916.45 4.07422 -0.638816 0
M  V30 30710 H 2915.79 0.573062 -0.335404 0
M  V30 30711 H 2918.32 1.36635 -1.5229 0
M  V30 30712 H 2918.33 3.81191 -1.45456 0
M  V30 30713 H 2917.01 3.32463 -2.49882 0
M  V30 30714 H 2915.58 3.66293 -0.698865 0
M  V30 30715 N 2917.77 0.940655 1.26449 0
M  V30 30716 C 2919.02 0.586782 1.93394 0
M  V30 30717 C 2919.34 -0.87689 1.74171 0
M  V30 30718 O 2918.61 -1.62302 1.09703 0
M  V30 30719 H 2917.19 0.214025 0.715683 0
M  V30 30720 H 2919.85 1.19586 1.539 0
M  V30 30721 H 2918.95 0.804112 3.01563 0
M  V30 30722 N 2919.25 -1.40821 0.707617 0
M  V30 30723 C 2920.48 -2.05048 0.252742 0
M  V30 30724 C 2920.89 -1.53394 -1.10755 0
M  V30 30725 O 2920.23 -0.682127 -1.70566 0
M  V30 30726 C 2920.29 -3.59203 0.146064 0
M  V30 30727 C 2919.95 -4.33708 1.44035 0
M  V30 30728 C 2920.95 -4.62191 2.38067 0
M  V30 30729 C 2918.64 -4.72763 1.69706 0
M  V30 30730 C 2920.63 -5.28703 3.56022 0
M  V30 30731 C 2918.32 -5.39009 2.87945 0
M  V30 30732 C 2919.32 -5.66908 3.80925 0
M  V30 30733 O 2919 -6.31788 4.97091 0
M  V30 30734 H 2918.74 -0.666523 0.112795 0
M  V30 30735 H 2921.29 -1.81362 0.964202 0
M  V30 30736 H 2919.52 -3.81677 -0.621271 0
M  V30 30737 H 2921.21 -4.0498 -0.273204 0
M  V30 30738 H 2921.97 -4.32489 2.19495 0
M  V30 30739 H 2917.85 -4.50421 0.981915 0
M  V30 30740 H 2921.4 -5.50396 4.28614 0
M  V30 30741 H 2917.29 -5.6813 3.06429 0
M  V30 30742 H 2918.06 -6.50284 4.97064 0
M  V30 30743 N 2920.73 -0.453223 -1.50943 0
M  V30 30744 C 2922 0.168599 -1.94872 0
M  V30 30745 C 2922.38 1.58637 -1.39274 0
M  V30 30746 O 2921.73 2.2085 -0.586311 0
M  V30 30747 C 2921.94 0.130156 -3.48757 0
M  V30 30748 C 2923.29 0.3279 -4.23332 0
M  V30 30749 O 2924.31 0.207557 -3.55595 0
M  V30 30750 O 2923.17 0.568981 -5.4353 0
M  V30 30751 H 2920.27 0.121379 -0.818044 0
M  V30 30752 H 2922.81 -0.512344 -1.61781 0
M  V30 30753 H 2921.58 -0.860413 -3.81723 0
M  V30 30754 H 2921.21 0.853329 -3.88335 0
M  V30 30755 N 2922.2 1.56509 -0.185151 0
M  V30 30756 C 2923.17 2.17402 0.725872 0
M  V30 30757 C 2924.17 1.12578 1.14817 0
M  V30 30758 O 2925.36 1.38017 1.06288 0
M  V30 30759 C 2922.49 2.76807 1.98975 0
M  V30 30760 H 2923.68 2.99262 0.195535 0
M  V30 30761 H 2921.23 1.56167 0.0644498 0
M  V30 30762 H 2921.97 1.98718 2.56284 0
M  V30 30763 H 2921.75 3.53534 1.69577 0
M  V30 30764 H 2923.24 3.23596 2.6396 0
M  V30 30765 N 2923.68 -0.0885089 1.57351 0
M  V30 30766 C 2924.91 -0.808017 1.91013 0
M  V30 30767 C 2925.33 -1.71164 0.780039 0
M  V30 30768 O 2924.69 -1.79307 -0.268051 0
M  V30 30769 C 2924.74 -1.59179 3.23565 0
M  V30 30770 O 2923.84 -2.70124 3.11619 0
M  V30 30771 H 2923.18 -0.221554 0.625947 0
M  V30 30772 H 2925.71 -0.0617594 2.04507 0
M  V30 30773 H 2925.72 -1.97461 3.57034 0
M  V30 30774 H 2924.4 -0.92867 4.05399 0
M  V30 30775 H 2922.97 -2.34822 2.89678 0
M  V30 30776 N 2925.16 -1.53445 -0.359498 0
M  V30 30777 C 2926.09 -1.83293 -1.44658 0
M  V30 30778 C 2927.07 -0.686857 -1.55616 0
M  V30 30779 O 2928.26 -0.93728 -1.70084 0
M  V30 30780 C 2925.39 -2.02827 -2.81919 0
M  V30 30781 C 2924.34 -3.18611 -2.85782 0
M  V30 30782 C 2923.67 -3.2345 -4.25775 0
M  V30 30783 C 2924.97 -4.5707 -2.52754 0
M  V30 30784 H 2926.66 -2.74331 -1.19929 0
M  V30 30785 H 2924.21 -1.32 -0.575494 0
M  V30 30786 H 2926.16 -2.22291 -3.58001 0
M  V30 30787 H 2924.88 -1.08505 -3.08049 0
M  V30 30788 H 2923.54 -2.98977 -2.12151 0
M  V30 30789 H 2923.19 -2.26753 -4.4899 0
M  V30 30790 H 2922.89 -4.01245 -4.29274 0
M  V30 30791 H 2924.41 -3.45105 -5.03721 0
M  V30 30792 H 2925.83 -4.76654 -3.18549 0
M  V30 30793 H 2924.22 -5.37151 -2.6756 0
M  V30 30794 H 2925.29 -4.61767 -1.47985 0
M  V30 30795 N 2926.64 0.619637 -1.44908 0
M  V30 30796 C 2927.86 1.4108 -1.52024 0
M  V30 30797 C 2928.29 1.87503 -0.149793 0
M  V30 30798 O 2927.65 1.59428 0.863275 0
M  V30 30799 C 2927.69 2.59951 -2.49916 0
M  V30 30800 O 2926.8 3.60177 -2.00863 0
M  V30 30801 H 2926.14 0.421675 -0.512919 0
M  V30 30802 H 2928.67 0.755249 -1.9015 0
M  V30 30803 H 2928.68 3.0735 -2.68329 0
M  V30 30804 H 2927.35 2.25509 -3.49454 0
M  V30 30805 H 2925.93 3.1951 -1.92271 0
M  V30 30806 N 2928.12 1.31997 0.861075 0
M  V30 30807 C 2929.53 1.19957 1.43063 0
M  V30 30808 C 2929.88 -0.190455 1.95273 0
M  V30 30809 O 2929 -1.08879 1.87014 0
M  V30 30810 C 2929.6 2.17164 2.60048 0
M  V30 30811 C 2928.16 2.09031 3.13022 0
M  V30 30812 C 2927.3 2.05892 1.85752 0
M  V30 30813 H 2930.26 1.43919 0.668809 0
M  V30 30814 H 2930.28 1.76643 3.37013 0
M  V30 30815 H 2929.79 3.18323 2.22018 0
M  V30 30816 H 2927.89 1.11098 3.55651 0
M  V30 30817 H 2928 2.98555 3.74702 0
M  V30 30818 H 2926.37 1.51036 2.05086 0
M  V30 30819 H 2927.15 3.08821 1.49948 0
M  V30 30820 N 2929.59 -1.07653 1.15103 0
M  V30 30821 C 2930.84 -1.80457 0.925375 0
M  V30 30822 C 2931.17 -1.86357 -0.546322 0
M  V30 30823 O 2930.45 -1.34506 -1.40494 0
M  V30 30824 C 2930.73 -3.25673 1.53652 0
M  V30 30825 C 2930.58 -3.27936 3.0786 0
M  V30 30826 C 2931.9 -4.22859 1.21976 0
M  V30 30827 H 2929.02 -0.655128 0.337603 0
M  V30 30828 H 2931.66 -1.25991 1.42219 0
M  V30 30829 H 2929.81 -3.72185 1.11402 0
M  V30 30830 H 2931.49 -2.89691 3.58994 0
M  V30 30831 H 2929.73 -2.66985 3.41909 0
M  V30 30832 H 2930.4 -4.30318 3.45732 0
M  V30 30833 H 2932.88 -3.84723 1.58516 0
M  V30 30834 H 2931.75 -5.22764 1.67359 0
M  V30 30835 H 2932.01 -4.4189 0.136285 0
M  V30 30836 N 2931.07 -0.947348 -1.25949 0
M  V30 30837 C 2932.32 -0.608638 -1.9408 0
M  V30 30838 C 2932.67 0.843991 -1.729 0
M  V30 30839 O 2931.97 1.59667 -1.05911 0
M  V30 30840 C 2932.16 -0.894219 -3.46032 0
M  V30 30841 C 2931.99 -2.37306 -3.8199 0
M  V30 30842 C 2930.76 -3.02932 -4.04426 0
M  V30 30843 C 2932.96 -3.35194 -3.90063 0
M  V30 30844 N 2930.94 -4.40765 -4.27317 0
M  V30 30845 C 2932.31 -4.58307 -4.17558 0
M  V30 30846 C 2934.37 -3.30133 -3.72715 0
M  V30 30847 C 2933.07 -5.76987 -4.2951 0
M  V30 30848 C 2935.09 -4.48145 -3.85902 0
M  V30 30849 C 2934.46 -5.70041 -4.13802 0
M  V30 30850 H 2930.56 -0.273199 -0.732725 0
M  V30 30851 H 2933.14 -1.21802 -1.51896 0
M  V30 30852 H 2931.31 -0.313826 -3.8713 0
M  V30 30853 H 2933.04 -0.516153 -4.01395 0
M  V30 30854 H 2929.8 -2.53528 -4.00026 0
M  V30 30855 H 2930.22 -5.12125 -4.42783 0
M  V30 30856 H 2934.86 -2.36944 -3.50168 0
M  V30 30857 H 2932.58 -6.70624 -4.50876 0
M  V30 30858 H 2936.17 -4.45768 -3.73874 0
M  V30 30859 H 2935.05 -6.59834 -4.23779 0
M  V30 30860 N 2932.55 1.40444 -0.715075 0
M  V30 30861 C 2933.8 2.00896 -0.254363 0
M  V30 30862 C 2934.13 1.56695 1.15225 0
M  V30 30863 O 2933.38 0.777817 1.79579 0
M  V30 30864 C 2933.68 3.56287 -0.281854 0
M  V30 30865 C 2933.35 4.20069 -1.63869 0
M  V30 30866 C 2932.01 4.37205 -2.01011 0
M  V30 30867 C 2934.36 4.5565 -2.53047 0
M  V30 30868 C 2931.69 4.87204 -3.26877 0
M  V30 30869 C 2934.04 5.07049 -3.78265 0
M  V30 30870 C 2932.7 5.22394 -4.15525 0
M  V30 30871 H 2931.97 0.735131 -0.0930782 0
M  V30 30872 H 2934.62 1.68062 -0.918006 0
M  V30 30873 H 2932.93 3.89027 0.465359 0
M  V30 30874 H 2934.62 4.00893 0.0924453 0
M  V30 30875 H 2931.21 4.07119 -1.33987 0
M  V30 30876 H 2935.4 4.42047 -2.25627 0
M  V30 30877 H 2930.65 4.9727 -3.55715 0
M  V30 30878 H 2934.83 5.33557 -4.47537 0
M  V30 30879 H 2932.45 5.609 -5.13124 0
M  V30 30880 N 2934.03 0.461222 1.507 0
M  V30 30881 C 2934.99 -0.326639 2.26861 0
M  V30 30882 C 2935.99 -0.929061 1.31244 0
M  V30 30883 O 2937.18 -0.799779 1.54755 0
M  V30 30884 C 2934.31 -1.46435 3.07847 0
M  V30 30885 H 2935.51 0.341148 2.97953 0
M  V30 30886 H 2933.06 0.215011 1.54814 0
M  V30 30887 H 2933.79 -2.16749 2.41227 0
M  V30 30888 H 2933.58 -1.03829 3.78103 0
M  V30 30889 H 2935.07 -2.02038 3.65473 0
M  V30 30890 N 2935.51 -1.56408 0.193449 0
M  V30 30891 C 2936.75 -1.99431 -0.447942 0
M  V30 30892 C 2937.11 -1.07753 -1.58913 0
M  V30 30893 O 2938.31 -1.40006 -2.2946 0
M  V30 30894 C 2936.58 -3.45938 -0.897869 0
M  V30 30895 S 2938.14 -4.10989 -1.53733 0
M  V30 30896 H 2934.96 -0.696409 -0.143304 0
M  V30 30897 H 2937.56 -1.93244 0.296127 0
M  V30 30898 H 2936.27 -4.1036 -0.0572206 0
M  V30 30899 H 2935.8 -3.55939 -1.67544 0
M  V30 30900 H 2937.81 -4.07859 -2.82605 0
M  V30 30901 N 2936.98 0.0801629 -1.57396 0
M  V30 30902 C 2937.91 1.09662 -2.06147 0
M  V30 30903 C 2938.9 1.40877 -0.953298 0
M  V30 30904 O 2940.08 1.50649 -1.2255 0
M  V30 30905 C 2937.21 2.4124 -2.49841 0
M  V30 30906 C 2936.16 2.24398 -3.64458 0
M  V30 30907 C 2935.49 3.61286 -3.94178 0
M  V30 30908 C 2936.79 1.67214 -4.9481 0
M  V30 30909 H 2938.48 0.690977 -2.91317 0
M  V30 30910 H 2936.03 0.330932 -1.40146 0
M  V30 30911 H 2937.98 3.12633 -2.82557 0
M  V30 30912 H 2936.71 2.83768 -1.61688 0
M  V30 30913 H 2935.37 1.55448 -3.32011 0
M  V30 30914 H 2935.01 4.01369 -3.0317 0
M  V30 30915 H 2934.71 3.50859 -4.71351 0
M  V30 30916 H 2936.24 4.34123 -4.29383 0
M  V30 30917 H 2937.65 2.28463 -5.25811 0
M  V30 30918 H 2936.05 1.67505 -5.76248 0
M  V30 30919 H 2937.12 0.632859 -4.80752 0
M  V30 30920 N 2938.46 1.53634 0.351355 0
M  V30 30921 C 2939.41 1.81074 1.43112 0
M  V30 30922 C 2940.38 0.655939 1.526 0
M  V30 30923 O 2941.56 0.89958 1.68262 0
M  V30 30924 C 2938.7 2.01908 2.7987 0
M  V30 30925 C 2937.82 3.29623 2.79236 0
M  V30 30926 C 2936.95 3.40567 4.07661 0
M  V30 30927 C 2935.99 4.62261 4.01225 0
M  V30 30928 N 2935.13 4.7028 5.21326 0
M  V30 30929 H 2939.97 2.73203 1.19012 0
M  V30 30930 H 2937.51 1.35325 0.576667 0
M  V30 30931 H 2939.46 2.11975 3.59336 0
M  V30 30932 H 2938.09 1.13099 3.02338 0
M  V30 30933 H 2937.15 3.28436 1.91921 0
M  V30 30934 H 2938.46 4.19177 2.70356 0
M  V30 30935 H 2937.61 3.50024 4.95548 0
M  V30 30936 H 2936.35 2.49055 4.19313 0
M  V30 30937 H 2935.36 4.52889 3.11724 0
M  V30 30938 H 2936.58 5.55129 3.91164 0
M  V30 30939 H 2934.53 3.81675 5.33536 0
M  V30 30940 H 2934.44 5.53759 5.14672 0
M  V30 30941 H 2935.71 4.84038 6.11005 0
M  V30 30942 N 2939.94 -0.611943 1.45234 0
M  V30 30943 C 2940.87 -1.73371 1.56413 0
M  V30 30944 C 2941.85 -1.64937 0.415925 0
M  V30 30945 O 2943.04 -1.83403 0.63851 0
M  V30 30946 C 2940.17 -3.11963 1.52632 0
M  V30 30947 C 2939.12 -3.35204 2.66125 0
M  V30 30948 C 2938.45 -4.74024 2.47398 0
M  V30 30949 C 2939.75 -3.25884 4.08163 0
M  V30 30950 H 2941.44 -1.64272 2.5031 0
M  V30 30951 H 2938.99 -0.788882 1.20468 0
M  V30 30952 H 2940.94 -3.90232 1.5905 0
M  V30 30953 H 2939.66 -3.21891 0.552621 0
M  V30 30954 H 2938.32 -2.59323 2.59128 0
M  V30 30955 H 2937.97 -4.80679 1.48177 0
M  V30 30956 H 2937.67 -4.9053 3.23503 0
M  V30 30957 H 2939.19 -5.54499 2.55663 0
M  V30 30958 H 2940.61 -3.94033 4.16427 0
M  V30 30959 H 2939.01 -3.53921 4.84623 0
M  V30 30960 H 2940.08 -2.23389 4.30378 0
M  V30 30961 N 2941.42 -1.32452 -0.854063 0
M  V30 30962 C 2942.35 -1.24048 -1.97824 0
M  V30 30963 C 2943.33 -0.124196 -1.69646 0
M  V30 30964 O 2944.51 -0.311464 -1.91686 0
M  V30 30965 C 2941.64 -0.963383 -3.33671 0
M  V30 30966 C 2940.6 -2.04096 -3.76203 0
M  V30 30967 C 2939.92 -1.61627 -5.09687 0
M  V30 30968 C 2941.22 -3.45604 -3.91606 0
M  V30 30969 H 2942.92 -2.18102 -2.05114 0
M  V30 30970 H 2940.46 -1.04998 -0.98547 0
M  V30 30971 H 2942.42 -0.891134 -4.1187 0
M  V30 30972 H 2941.14 0.0128074 -3.26597 0
M  V30 30973 H 2939.8 -2.10337 -3.00256 0
M  V30 30974 H 2939.45 -0.627506 -4.9907 0
M  V30 30975 H 2939.15 -2.33726 -5.39116 0
M  V30 30976 H 2940.67 -1.55839 -5.90378 0
M  V30 30977 H 2942.09 -3.41948 -4.60157 0
M  V30 30978 H 2940.48 -4.16058 -4.32453 0
M  V30 30979 H 2941.55 -3.85222 -2.94503 0
M  V30 30980 N 2942.9 1.07041 -1.15672 0
M  V30 30981 C 2943.83 2.16308 -0.879386 0
M  V30 30982 C 2944.81 1.69235 0.171281 0
M  V30 30983 O 2945.99 1.94184 0.0249834 0
M  V30 30984 C 2943.12 3.45309 -0.371368 0
M  V30 30985 C 2942.08 4.05849 -1.35907 0
M  V30 30986 C 2941.4 5.29968 -0.709771 0
M  V30 30987 C 2942.7 4.4551 -2.72614 0
M  V30 30988 H 2944.4 2.39765 -1.79313 0
M  V30 30989 H 2941.94 1.15232 -0.863578 0
M  V30 30990 H 2943.9 4.21077 -0.164872 0
M  V30 30991 H 2942.62 3.21447 0.577849 0
M  V30 30992 H 2941.28 3.32128 -1.55198 0
M  V30 30993 H 2940.93 5.024 0.245694 0
M  V30 30994 H 2940.63 5.71431 -1.36896 0
M  V30 30995 H 2942.15 6.0844 -0.513122 0
M  V30 30996 H 2943.57 5.12393 -2.5715 0
M  V30 30997 H 2941.96 4.97934 -3.34936 0
M  V30 30998 H 2943.03 3.56728 -3.2844 0
M  V30 30999 N 2944.38 0.954014 1.25445 0
M  V30 31000 C 2945.29 0.480304 2.29631 0
M  V30 31001 C 2946.3 -0.452041 1.68026 0
M  V30 31002 O 2947.48 -0.328437 1.98704 0
M  V30 31003 C 2944.54 -0.234913 3.45903 0
M  V30 31004 C 2943.6 0.735569 4.22951 0
M  V30 31005 C 2942.84 0.0543895 5.33672 0
M  V30 31006 O 2943.06 -1.16008 5.58479 0
M  V30 31007 O 2941.99 0.739614 5.97339 0
M  V30 31008 H 2945.82 1.34607 2.7224 0
M  V30 31009 H 2943.4 0.720442 1.30882 0
M  V30 31010 H 2945.29 -0.637268 4.16554 0
M  V30 31011 H 2943.96 -1.07586 3.05298 0
M  V30 31012 H 2942.87 1.18812 3.54732 0
M  V30 31013 H 2944.2 1.54452 4.67339 0
M  V30 31014 N 2945.85 -1.40063 0.722513 0
M  V30 31015 C 2946.8 -2.3068 0.0744144 0
M  V30 31016 C 2947.77 -1.48557 -0.742978 0
M  V30 31017 O 2948.96 -1.77277 -0.705505 0
M  V30 31018 C 2946.1 -3.34815 -0.836233 0
M  V30 31019 C 2945.21 -4.31999 -0.00757069 0
M  V30 31020 C 2944.34 -5.23202 -0.918336 0
M  V30 31021 C 2943.38 -6.12042 -0.0841763 0
M  V30 31022 N 2942.52 -6.95641 -0.950193 0
M  V30 31023 H 2947.36 -2.85536 0.852844 0
M  V30 31024 H 2944.9 -1.40606 0.432247 0
M  V30 31025 H 2946.85 -3.93767 -1.37853 0
M  V30 31026 H 2945.48 -2.81445 -1.58077 0
M  V30 31027 H 2944.54 -3.74771 0.651994 0
M  V30 31028 H 2945.85 -4.94704 0.637947 0
M  V30 31029 H 2945 -5.87119 -1.52892 0
M  V30 31030 H 2943.74 -4.60789 -1.59766 0
M  V30 31031 H 2942.75 -5.47149 0.539296 0
M  V30 31032 H 2943.97 -6.76517 0.591747 0
M  V30 31033 H 2941.92 -6.35809 -1.61504 0
M  V30 31034 H 2941.83 -7.55138 -0.360872 0
M  V30 31035 H 2943.1 -7.64 -1.54674 0
M  V30 31036 N 2947.33 -0.469207 -1.50453 0
M  V30 31037 C 2948.26 0.315879 -2.31354 0
M  V30 31038 C 2949.24 0.99207 -1.38174 0
M  V30 31039 O 2950.43 0.989604 -1.67094 0
M  V30 31040 C 2947.56 1.39931 -3.17862 0
M  V30 31041 C 2946.51 0.844835 -4.19579 0
M  V30 31042 C 2945.84 2.02642 -4.94814 0
M  V30 31043 C 2947.14 -0.14259 -5.22105 0
M  V30 31044 H 2948.83 -0.359322 -2.97236 0
M  V30 31045 H 2946.38 -0.174249 -1.42942 0
M  V30 31046 H 2948.33 1.95601 -3.73254 0
M  V30 31047 H 2947.05 2.10326 -2.49861 0
M  V30 31048 H 2945.71 0.310125 -3.65286 0
M  V30 31049 H 2945.36 2.7173 -4.23287 0
M  V30 31050 H 2945.06 1.66164 -5.63616 0
M  V30 31051 H 2946.59 2.58805 -5.53039 0
M  V30 31052 H 2948 0.324865 -5.72379 0
M  V30 31053 H 2946.4 -0.421546 -5.98618 0
M  V30 31054 H 2947.47 -1.06909 -4.72968 0
M  V30 31055 N 2948.81 1.56303 -0.201741 0
M  V30 31056 C 2950.06 1.97376 0.434412 0
M  V30 31057 C 2950.38 1.09001 1.6169 0
M  V30 31058 O 2949.65 0.162716 1.95223 0
M  V30 31059 H 2948.23 0.728891 0.163484 0
M  V30 31060 H 2950.89 1.9273 -0.290022 0
M  V30 31061 H 2949.99 3.02348 0.774082 0
M  V30 31062 N 2950.29 -0.0718147 1.57436 0
M  V30 31063 C 2951.52 -0.782762 1.91197 0
M  V30 31064 C 2951.93 -1.71643 0.795958 0
M  V30 31065 O 2951.27 -1.82131 -0.239572 0
M  V30 31066 C 2951.33 -1.63 3.20424 0
M  V30 31067 C 2950.99 -0.865704 4.48725 0
M  V30 31068 C 2951.99 -0.18496 5.19571 0
M  V30 31069 C 2949.68 -0.832884 4.95347 0
M  V30 31070 C 2951.67 0.518376 6.35289 0
M  V30 31071 C 2949.36 -0.125777 6.10971 0
M  V30 31072 C 2950.36 0.548653 6.80793 0
M  V30 31073 O 2950.04 1.24437 7.94211 0
M  V30 31074 H 2949.78 -0.22772 0.63649 0
M  V30 31075 H 2952.33 -0.0463826 2.05348 0
M  V30 31076 H 2950.56 -2.40918 3.02482 0
M  V30 31077 H 2952.25 -2.21962 3.39835 0
M  V30 31078 H 2953.01 -0.201622 4.84581 0
M  V30 31079 H 2948.89 -1.34729 4.40873 0
M  V30 31080 H 2952.44 1.04535 6.89723 0
M  V30 31081 H 2948.33 -0.107042 6.45411 0
M  V30 31082 H 2949.1 1.15364 8.10329 0
M  V30 31083 N 2951.77 -1.53818 -0.343203 0
M  V30 31084 C 2952.99 -1.75331 -1.10787 0
M  V30 31085 C 2953.42 -0.491324 -1.8157 0
M  V30 31086 O 2952.77 0.556059 -1.72562 0
M  V30 31087 C 2952.82 -2.93374 -2.09676 0
M  V30 31088 O 2951.93 -2.63546 -3.17202 0
M  V30 31089 H 2951.27 -0.581588 -0.320392 0
M  V30 31090 H 2953.8 -2.00781 -0.39349 0
M  V30 31091 H 2953.81 -3.20172 -2.52891 0
M  V30 31092 H 2952.48 -3.84902 -1.57554 0
M  V30 31093 H 2951.06 -2.47637 -2.78801 0
M  V30 31094 N 2953.24 0.604233 -1.45557 0
M  V30 31095 C 2954.19 1.70911 -1.50909 0
M  V30 31096 C 2955.18 1.5654 -0.372024 0
M  V30 31097 O 2956.37 1.6582 -0.619093 0
M  V30 31098 C 2953.5 3.0967 -1.48187 0
M  V30 31099 C 2952.58 3.29415 -2.67108 0
M  V30 31100 N 2952.98 3.19407 -3.9219 0
M  V30 31101 C 2951.27 3.60295 -2.62876 0
M  V30 31102 C 2951.97 3.40573 -4.71577 0
M  V30 31103 N 2950.95 3.64721 -4.03088 0
M  V30 31104 H 2954.75 1.61671 -2.45438 0
M  V30 31105 H 2952.27 0.807597 -1.40896 0
M  V30 31106 H 2954.26 3.88939 -1.50106 0
M  V30 31107 H 2952.92 3.20056 -0.547176 0
M  V30 31108 H 2953.93 2.97736 -4.23761 0
M  V30 31109 H 2950.61 3.77498 -1.7833 0
M  V30 31110 H 2952 3.38201 -5.80577 0
M  V30 31111 N 2954.72 1.32903 0.847027 0
M  V30 31112 C 2955.67 1.22477 1.95622 0
M  V30 31113 C 2956.64 0.105207 1.65766 0
M  V30 31114 O 2957.82 0.282075 1.88703 0
M  V30 31115 C 2954.96 0.9616 3.31432 0
M  V30 31116 C 2954.08 2.16667 3.73737 0
M  V30 31117 C 2953.21 1.83834 4.98376 0
M  V30 31118 C 2952.25 3.00618 5.33193 0
M  V30 31119 N 2951.39 2.67827 6.49009 0
M  V30 31120 H 2956.23 2.17348 2.03872 0
M  V30 31121 H 2953.76 1.0809 0.997745 0
M  V30 31122 H 2955.72 0.789484 4.09662 0
M  V30 31123 H 2954.35 0.0496505 3.22762 0
M  V30 31124 H 2953.4 2.44881 2.91097 0
M  V30 31125 H 2954.72 3.04 3.95456 0
M  V30 31126 H 2953.87 1.63218 5.84333 0
M  V30 31127 H 2952.61 0.937256 4.78609 0
M  V30 31128 H 2951.61 3.21857 4.45745 0
M  V30 31129 H 2952.84 3.9147 5.54913 0
M  V30 31130 H 2950.79 1.80269 6.30745 0
M  V30 31131 H 2950.7 3.4869 6.70784 0
M  V30 31132 H 2951.97 2.5066 7.38099 0
M  V30 31133 N 2956.2 -1.06426 1.16238 0
M  V30 31134 C 2957.11 -2.17388 0.882014 0
M  V30 31135 C 2958.13 -1.73393 -0.145228 0
M  V30 31136 O 2959.3 -2.01376 0.0310912 0
M  V30 31137 C 2956.37 -3.44549 0.385557 0
M  V30 31138 C 2955.43 -4.03061 1.47786 0
M  V30 31139 C 2954.66 -5.24152 1.005 0
M  V30 31140 O 2954.88 -5.70214 -0.145789 0
M  V30 31141 O 2953.82 -5.74582 1.79275 0
M  V30 31142 H 2957.64 -2.43879 1.80988 0
M  V30 31143 H 2955.23 -1.1594 0.942246 0
M  V30 31144 H 2957.11 -4.21241 0.11561 0
M  V30 31145 H 2955.79 -3.19588 -0.514313 0
M  V30 31146 H 2954.69 -3.27865 1.80153 0
M  V30 31147 H 2956.03 -4.32314 2.35298 0
M  V30 31148 N 2957.68 -0.960653 -1.24937 0
M  V30 31149 C 2958.91 -0.636079 -1.9688 0
M  V30 31150 C 2959.32 0.793063 -1.71336 0
M  V30 31151 O 2958.68 1.53124 -0.992944 0
M  V30 31152 C 2958.73 -0.892595 -3.50307 0
M  V30 31153 O 2958.45 -2.26555 -3.74973 0
M  V30 31154 C 2959.95 -0.581237 -4.39473 0
M  V30 31155 H 2957.17 -0.237942 -0.627395 0
M  V30 31156 H 2959.72 -1.28667 -1.5895 0
M  V30 31157 H 2957.87 -0.288325 -3.86326 0
M  V30 31158 H 2958.28 -2.34022 -4.69397 0
M  V30 31159 H 2959.76 -0.811221 -5.46007 0
M  V30 31160 H 2960.24 0.484353 -4.36521 0
M  V30 31161 H 2960.84 -1.1651 -4.0903 0
M  V30 31162 N 2959.16 1.39677 -0.729931 0
M  V30 31163 C 2960.1 2.32477 -0.0756998 0
M  V30 31164 C 2961.1 1.52796 0.731411 0
M  V30 31165 O 2962.3 1.68496 0.633166 0
M  V30 31166 H 2958.68 0.751979 -0.00567814 0
M  V30 31167 H 2960.65 2.85288 -0.874848 0
M  V30 31168 C 2959.4 3.37862 0.821253 0
M  V30 31169 H 2958.72 3.9925 0.209596 0
M  V30 31170 H 2960.16 4.05256 1.24672 0
M  V30 31171 C 2958.62 2.74499 1.95325 0
M  V30 31172 O 2959.15 2.61947 3.04543 0
M  V30 31173 N 2957.36 2.32663 1.74115 0
M  V30 31174 H 2956.9 2.43072 0.852865 0
M  V30 31175 H 2956.86 1.90608 2.50032 0
M  V30 31176 N 2960.63 0.47718 1.50202 0
M  V30 31177 C 2961.86 -0.0731064 2.06471 0
M  V30 31178 C 2962.27 -1.33516 1.34053 0
M  V30 31179 O 2961.62 -1.79175 0.405195 0
M  V30 31180 C 2961.68 -0.421059 3.57026 0
M  V30 31181 C 2961.34 0.739844 4.50972 0
M  V30 31182 C 2962.34 1.62362 4.93897 0
M  V30 31183 C 2960.02 0.931897 4.9358 0
M  V30 31184 C 2962.02 2.6838 5.78144 0
M  V30 31185 C 2959.7 1.99529 5.77608 0
M  V30 31186 C 2960.7 2.8696 6.19793 0
M  V30 31187 O 2960.39 3.91468 7.02145 0
M  V30 31188 H 2960.12 0.00649431 0.675969 0
M  V30 31189 H 2962.68 0.666764 1.94277 0
M  V30 31190 H 2960.91 -1.2142 3.67143 0
M  V30 31191 H 2962.6 -0.907143 3.95633 0
M  V30 31192 H 2963.36 1.48696 4.61643 0
M  V30 31193 H 2959.24 0.260819 4.60262 0
M  V30 31194 H 2962.78 3.36653 6.10991 0
M  V30 31195 H 2958.68 2.132 6.09275 0
M  V30 31196 H 2959.45 3.8853 7.20407 0
M  V30 31197 N 2962.11 -1.56194 0.210027 0
M  V30 31198 C 2963.36 -1.9717 -0.425072 0
M  V30 31199 C 2963.67 -1.10034 -1.61716 0
M  V30 31200 O 2964.88 -1.40857 -2.32102 0
M  V30 31201 C 2963.34 -3.50721 -0.807648 0
M  V30 31202 C 2962.94 -4.46543 0.36098 0
M  V30 31203 C 2964.69 -4.00434 -1.40899 0
M  V30 31204 C 2962.6 -5.91384 -0.043388 0
M  V30 31205 H 2961.53 -0.736262 -0.162585 0
M  V30 31206 H 2964.18 -1.80957 0.304414 0
M  V30 31207 H 2962.56 -3.62492 -1.59423 0
M  V30 31208 H 2963.73 -4.46513 1.13853 0
M  V30 31209 H 2962.05 -4.07107 0.8748 0
M  V30 31210 H 2964.64 -5.06136 -1.72424 0
M  V30 31211 H 2964.99 -3.45611 -2.32075 0
M  V30 31212 H 2965.52 -3.91839 -0.686085 0
M  V30 31213 H 2962.26 -6.50166 0.834563 0
M  V30 31214 H 2961.78 -5.94634 -0.785494 0
M  V30 31215 H 2963.46 -6.45261 -0.474062 0
M  V30 31216 N 2963.59 0.0634645 -1.57472 0
M  V30 31217 C 2964.87 0.794507 -1.78737 0
M  V30 31218 C 2965.25 1.95367 -0.79968 0
M  V30 31219 O 2964.6 2.279 0.165481 0
M  V30 31220 C 2964.81 1.2597 -3.25473 0
M  V30 31221 C 2966.15 1.68969 -3.89531 0
M  V30 31222 O 2967.18 1.35515 -3.29415 0
M  V30 31223 O 2966.04 2.30935 -4.95309 0
M  V30 31224 H 2963.13 0.381363 -0.733819 0
M  V30 31225 H 2965.68 0.042896 -1.69646 0
M  V30 31226 H 2964.45 0.430652 -3.88923 0
M  V30 31227 H 2964.07 2.07237 -3.39321 0
M  V30 31228 N 2965.07 1.53998 0.33504 0
M  V30 31229 C 2966.3 1.75347 1.09257 0
M  V30 31230 C 2966.71 0.496577 1.82567 0
M  V30 31231 O 2966.05 -0.541866 1.75526 0
M  V30 31232 C 2966.11 2.8852 2.14468 0
M  V30 31233 C 2965.78 4.2783 1.60657 0
M  V30 31234 C 2966.77 5.09096 1.05439 0
M  V30 31235 C 2964.46 4.7434 1.65247 0
M  V30 31236 C 2966.45 6.34977 0.55526 0
M  V30 31237 C 2964.14 6.00192 1.14946 0
M  V30 31238 C 2965.14 6.80344 0.601788 0
M  V30 31239 O 2964.82 8.0383 0.106304 0
M  V30 31240 H 2964.56 0.58924 0.331319 0
M  V30 31241 H 2967.11 2.01656 0.390385 0
M  V30 31242 H 2965.34 2.57755 2.88269 0
M  V30 31243 H 2967.03 2.97759 2.75852 0
M  V30 31244 H 2967.8 4.74322 1.01209 0
M  V30 31245 H 2963.67 4.12005 2.06815 0
M  V30 31246 H 2967.22 6.97484 0.127123 0
M  V30 31247 H 2963.12 6.34459 1.1888 0
M  V30 31248 H 2963.88 8.18197 0.2228 0
M  V30 31249 N 2966.55 -0.596505 1.45875 0
M  V30 31250 C 2967.48 -1.71702 1.58243 0
M  V30 31251 C 2968.46 -1.64486 0.433395 0
M  V30 31252 O 2969.64 -1.82716 0.657927 0
M  V30 31253 C 2966.77 -3.10326 1.55932 0
M  V30 31254 C 2965.73 -3.32362 2.69665 0
M  V30 31255 C 2965.05 -4.71373 2.52412 0
M  V30 31256 C 2966.35 -3.21536 4.11597 0
M  V30 31257 H 2968.05 -1.61608 2.52038 0
M  V30 31258 H 2965.59 -0.776061 1.21298 0
M  V30 31259 H 2967.55 -3.88523 1.6318 0
M  V30 31260 H 2966.27 -3.21287 0.586731 0
M  V30 31261 H 2964.93 -2.5656 2.61864 0
M  V30 31262 H 2964.58 -4.79081 1.53267 0
M  V30 31263 H 2964.28 -4.87071 3.28687 0
M  V30 31264 H 2965.8 -5.51756 2.6153 0
M  V30 31265 H 2967.21 -3.89594 4.20582 0
M  V30 31266 H 2965.61 -3.48761 4.8835 0
M  V30 31267 H 2966.68 -2.18812 4.32723 0
M  V30 31268 N 2968.02 -1.3335 -0.839967 0
M  V30 31269 C 2969.26 -1.26076 -1.60886 0
M  V30 31270 C 2969.63 0.171257 -1.91235 0
M  V30 31271 O 2970.83 0.367944 -2.6627 0
M  V30 31272 C 2969.1 -2.11047 -2.88434 0
M  V30 31273 S 2970.66 -2.20951 -3.79112 0
M  V30 31274 H 2967.48 -0.448555 -0.551652 0
M  V30 31275 H 2970.08 -1.6837 -0.993561 0
M  V30 31276 H 2968.78 -3.14126 -2.64108 0
M  V30 31277 H 2968.31 -1.69585 -3.54971 0
M  V30 31278 H 2970.33 -1.36977 -4.76919 0
M  V30 31279 N 2969.5 1.05808 -1.16801 0
M  V30 31280 C 2970.45 2.15508 -0.875149 0
M  V30 31281 C 2971.44 1.68664 0.157751 0
M  V30 31282 O 2972.65 1.79996 0.0112654 0
M  V30 31283 H 2969.03 0.703598 -0.265432 0
M  V30 31284 H 2971 2.37417 -1.80764 0
M  V30 31285 C 2969.75 3.45414 -0.398081 0
M  V30 31286 H 2969.07 3.81856 -1.18432 0
M  V30 31287 H 2970.51 4.23365 -0.231988 0
M  V30 31288 C 2968.97 3.25117 0.883213 0
M  V30 31289 O 2969.5 3.51118 1.95139 0
M  V30 31290 N 2967.7 2.78527 0.828912 0
M  V30 31291 H 2967.25 2.57568 -0.0405482 0
M  V30 31292 H 2967.21 2.65327 1.68669 0
M  V30 31293 N 2970.98 0.967265 1.24426 0
M  V30 31294 C 2972.21 0.646103 1.97079 0
M  V30 31295 C 2972.63 -0.777635 1.71273 0
M  V30 31296 O 2971.99 -1.52774 0.976206 0
M  V30 31297 C 2972.04 0.926328 3.48499 0
M  V30 31298 O 2971.14 0.0115378 4.12398 0
M  V30 31299 H 2970.48 0.244315 0.617419 0
M  V30 31300 H 2973.01 1.2973 1.58213 0
M  V30 31301 H 2973.02 0.857689 3.98883 0
M  V30 31302 H 2971.7 1.96393 3.6661 0
M  V30 31303 H 2970.27 0.133461 3.72661 0
M  V30 31304 N 2972.46 -1.39288 0.737328 0
M  V30 31305 C 2973.41 -2.27877 0.0748938 0
M  V30 31306 C 2974.39 -1.44378 -0.710195 0
M  V30 31307 O 2975.59 -1.67268 -0.578821 0
M  V30 31308 C 2972.71 -3.33119 -0.829851 0
M  V30 31309 C 2971.8 -4.24082 -0.0387874 0
M  V30 31310 N 2972.19 -4.96031 0.98927 0
M  V30 31311 C 2970.49 -4.45194 -0.268089 0
M  V30 31312 C 2971.19 -5.62911 1.46649 0
M  V30 31313 N 2970.17 -5.37907 0.784676 0
M  V30 31314 H 2973.97 -2.80959 0.862507 0
M  V30 31315 H 2971.48 -1.51998 0.571872 0
M  V30 31316 H 2973.48 -3.95454 -1.31992 0
M  V30 31317 H 2972.14 -2.81596 -1.6166 0
M  V30 31318 H 2973.15 -4.99432 1.37069 0
M  V30 31319 H 2969.83 -4.04609 -1.02946 0
M  V30 31320 H 2971.22 -6.30504 2.32193 0
M  V30 31321 N 2973.94 -0.485139 -1.49947 0
M  V30 31322 C 2974.89 0.320618 -2.25734 0
M  V30 31323 C 2975.87 0.94935 -1.29908 0
M  V30 31324 O 2977.06 0.859574 -1.54727 0
M  V30 31325 C 2974.19 1.39385 -3.1373 0
M  V30 31326 C 2973.28 0.772152 -4.17012 0
M  V30 31327 N 2973.67 -0.115871 -5.05667 0
M  V30 31328 C 2971.97 1.03453 -4.33836 0
M  V30 31329 C 2972.67 -0.470142 -5.79797 0
M  V30 31330 N 2971.64 0.158109 -5.4337 0
M  V30 31331 H 2975.45 -0.363241 -2.91647 0
M  V30 31332 H 2972.96 -0.300182 -1.59602 0
M  V30 31333 H 2974.96 1.9844 -3.66643 0
M  V30 31334 H 2973.62 2.07955 -2.49368 0
M  V30 31335 H 2974.63 -0.485647 -5.15618 0
M  V30 31336 H 2971.31 1.71417 -3.80687 0
M  V30 31337 H 2972.7 -1.1957 -6.61175 0
M  V30 31338 N 2975.42 1.56081 -0.218307 0
M  V30 31339 C 2976.35 2.23138 0.687883 0
M  V30 31340 C 2977.33 1.20202 1.20355 0
M  V30 31341 O 2978.51 1.48778 1.24815 0
M  V30 31342 C 2975.64 2.90877 1.89757 0
M  V30 31343 C 2974.6 4.00256 1.51588 0
M  V30 31344 C 2973.92 4.55276 2.80407 0
M  V30 31345 C 2975.22 5.17475 0.708313 0
M  V30 31346 H 2976.92 2.99123 0.128802 0
M  V30 31347 H 2974.46 1.43873 0.0605101 0
M  V30 31348 H 2976.41 3.36479 2.53693 0
M  V30 31349 H 2975.14 2.12334 2.48157 0
M  V30 31350 H 2973.8 3.55381 0.899995 0
M  V30 31351 H 2973.45 3.73467 3.36944 0
M  V30 31352 H 2973.15 5.29094 2.55603 0
M  V30 31353 H 2974.67 5.03593 3.45291 0
M  V30 31354 H 2976.08 5.59478 1.2513 0
M  V30 31355 H 2974.48 5.97505 0.557488 0
M  V30 31356 H 2975.55 4.84057 -0.285764 0
M  V30 31357 N 2976.89 -0.0551124 1.57504 0
M  V30 31358 C 2978.12 -0.762439 1.92017 0
M  V30 31359 C 2978.53 -1.70789 0.814118 0
M  V30 31360 O 2977.87 -1.82375 -0.220241 0
M  V30 31361 C 2977.94 -1.59592 3.22135 0
M  V30 31362 C 2977.6 -0.818062 4.49618 0
M  V30 31363 C 2978.6 -0.129842 5.19738 0
M  V30 31364 C 2976.28 -0.780299 4.96202 0
M  V30 31365 C 2978.28 0.585727 6.34703 0
M  V30 31366 C 2975.96 -0.0609682 6.1107 0
M  V30 31367 C 2976.96 0.620829 6.80173 0
M  V30 31368 O 2976.65 1.32854 7.92846 0
M  V30 31369 H 2976.38 -0.220956 0.63887 0
M  V30 31370 H 2978.94 -0.0246001 2.05385 0
M  V30 31371 H 2977.17 -2.37696 3.05021 0
M  V30 31372 H 2978.85 -2.18345 3.4217 0
M  V30 31373 H 2979.62 -0.150214 4.84767 0
M  V30 31374 H 2975.5 -1.30046 4.42277 0
M  V30 31375 H 2979.04 1.11845 6.88576 0
M  V30 31376 H 2974.94 -0.038581 6.45488 0
M  V30 31377 H 2975.71 1.23952 8.0906 0
M  V30 31378 N 2978.37 -1.54173 -0.326869 0
M  V30 31379 C 2979.79 -1.44809 -0.671008 0
M  V30 31380 C 2979.99 -0.618291 -1.9178 0
M  V30 31381 O 2979.04 -0.115795 -2.52234 0
M  V30 31382 C 2980.36 -2.88492 -0.848097 0
M  V30 31383 C 2981.9 -2.98373 -0.94565 0
M  V30 31384 C 2982.38 -4.43199 -1.15493 0
M  V30 31385 N 2983.87 -4.46797 -1.22175 0
M  V30 31386 C 2984.61 -5.56009 -1.4015 0
M  V30 31387 N 2984.1 -6.75195 -1.5519 0
M  V30 31388 N 2985.89 -5.4365 -1.42832 0
M  V30 31389 H 2978.05 -2.06607 0.492657 0
M  V30 31390 H 2980.31 -0.934641 0.15859 0
M  V30 31391 H 2980.01 -3.517 -0.00323787 0
M  V30 31392 H 2979.89 -3.34414 -1.74491 0
M  V30 31393 H 2982.28 -2.35295 -1.78102 0
M  V30 31394 H 2982.36 -2.55787 -0.0253766 0
M  V30 31395 H 2982 -5.06863 -0.324432 0
M  V30 31396 H 2981.93 -4.83391 -2.08903 0
M  V30 31397 H 2984.42 -3.60919 -1.12009 0
M  V30 31398 H 2984.73 -7.54187 -1.68588 0
M  V30 31399 H 2983.08 -6.78109 -1.52294 0
M  V30 31400 H 2986.27 -4.4949 -1.30675 0
M  V30 31401 H 2986.44 -6.28818 -1.56498 0
M  V30 31402 N 2979.85 0.58876 -1.4619 0
M  V30 31403 C 2981.13 1.34876 -1.41661 0
M  V30 31404 C 2981.51 2.10877 -0.0969284 0
M  V30 31405 O 2980.85 2.09098 0.921431 0
M  V30 31406 C 2981.06 2.27983 -2.64244 0
M  V30 31407 C 2982.41 2.90003 -3.10135 0
M  V30 31408 O 2983.44 2.38298 -2.6475 0
M  V30 31409 O 2982.3 3.83901 -3.8895 0
M  V30 31410 H 2979.39 0.605708 -0.563069 0
M  V30 31411 H 2981.94 0.610281 -1.58347 0
M  V30 31412 H 2980.71 1.71211 -3.51856 0
M  V30 31413 H 2980.33 3.0918 -2.49987 0
M  V30 31414 N 2981.33 1.33794 0.832883 0
M  V30 31415 C 2982.27 1.24545 1.94312 0
M  V30 31416 C 2983.24 0.122783 1.65646 0
M  V30 31417 O 2984.43 0.302073 1.88394 0
M  V30 31418 C 2981.57 0.996699 3.30394 0
M  V30 31419 C 2980.68 2.20619 3.71418 0
M  V30 31420 C 2979.82 1.89109 4.96398 0
M  V30 31421 C 2978.86 3.06256 5.29975 0
M  V30 31422 N 2977.99 2.74696 6.46132 0
M  V30 31423 H 2982.83 2.19499 2.01555 0
M  V30 31424 H 2980.37 1.09142 0.986224 0
M  V30 31425 H 2982.33 0.832889 4.08802 0
M  V30 31426 H 2980.96 0.0838809 3.22691 0
M  V30 31427 H 2980.01 2.47954 2.88484 0
M  V30 31428 H 2981.32 3.08177 3.9221 0
M  V30 31429 H 2980.48 1.69407 5.82569 0
M  V30 31430 H 2979.22 0.987966 4.77588 0
M  V30 31431 H 2978.22 3.26566 4.42306 0
M  V30 31432 H 2979.45 3.97333 5.5073 0
M  V30 31433 H 2977.39 1.86949 6.28797 0
M  V30 31434 H 2977.31 3.55785 6.67048 0
M  V30 31435 H 2978.58 2.58474 7.35399 0
M  V30 31436 N 2982.81 -1.05187 1.1736 0
M  V30 31437 C 2983.76 -2.1122 0.858482 0
M  V30 31438 C 2984.74 -1.60031 -0.166963 0
M  V30 31439 O 2985.93 -1.76964 0.0354767 0
M  V30 31440 C 2983.06 -3.41261 0.373609 0
M  V30 31441 C 2982.15 -3.99247 1.43048 0
M  V30 31442 N 2982.54 -4.31195 2.64394 0
M  V30 31443 C 2980.84 -4.26986 1.28835 0
M  V30 31444 C 2981.54 -4.7744 3.32304 0
M  V30 31445 N 2980.51 -4.77563 2.59682 0
M  V30 31446 H 2984.31 -2.33783 1.78109 0
M  V30 31447 H 2981.83 -1.22835 1.06232 0
M  V30 31448 H 2983.83 -4.16699 0.129404 0
M  V30 31449 H 2982.49 -3.20131 -0.542791 0
M  V30 31450 H 2983.5 -4.21193 3.01358 0
M  V30 31451 H 2980.17 -4.15242 0.433603 0
M  V30 31452 H 2981.56 -5.11272 4.35948 0
M  V30 31453 N 2984.28 -0.97385 -1.23911 0
M  V30 31454 C 2985.51 -0.655973 -1.9591 0
M  V30 31455 C 2985.92 0.779937 -1.72376 0
M  V30 31456 O 2985.26 1.53568 -1.0081 0
M  V30 31457 C 2985.33 -0.858385 -3.49102 0
M  V30 31458 C 2984.99 -2.27511 -3.96343 0
M  V30 31459 C 2985.99 -3.25331 -4.05532 0
M  V30 31460 C 2983.67 -2.60445 -4.29504 0
M  V30 31461 C 2985.67 -4.54168 -4.47225 0
M  V30 31462 C 2983.35 -3.89507 -4.7088 0
M  V30 31463 C 2984.35 -4.8618 -4.79706 0
M  V30 31464 O 2984.04 -6.12939 -5.20155 0
M  V30 31465 H 2983.77 -0.243255 -0.630716 0
M  V30 31466 H 2986.33 -1.30602 -1.58531 0
M  V30 31467 H 2984.56 -0.151165 -3.86404 0
M  V30 31468 H 2986.24 -0.538663 -4.0231 0
M  V30 31469 H 2987.01 -3.01217 -3.80123 0
M  V30 31470 H 2982.89 -1.85913 -4.2185 0
M  V30 31471 H 2986.43 -5.29626 -4.54029 0
M  V30 31472 H 2982.33 -4.13419 -4.95737 0
M  V30 31473 H 2983.1 -6.16595 -5.38287 0
M  V30 31474 N 2985.76 1.38895 -0.744705 0
M  V30 31475 C 2987.01 2.00311 -0.296919 0
M  V30 31476 C 2987.34 1.59104 1.11875 0
M  V30 31477 O 2986.59 0.815734 1.77888 0
M  V30 31478 C 2986.89 3.55609 -0.357364 0
M  V30 31479 C 2986.56 4.16498 -1.72743 0
M  V30 31480 C 2985.22 4.32843 -2.1024 0
M  V30 31481 C 2987.57 4.5018 -2.62655 0
M  V30 31482 C 2984.9 4.80161 -3.37138 0
M  V30 31483 C 2987.25 4.98911 -3.88935 0
M  V30 31484 C 2985.91 5.13463 -4.26512 0
M  V30 31485 H 2985.18 0.732991 -0.10865 0
M  V30 31486 H 2987.83 1.66077 -0.953448 0
M  V30 31487 H 2986.14 3.89926 0.382736 0
M  V30 31488 H 2987.83 4.00999 0.00738911 0
M  V30 31489 H 2984.42 4.04185 -1.42592 0
M  V30 31490 H 2988.61 4.37162 -2.34953 0
M  V30 31491 H 2983.86 4.89613 -3.66182 0
M  V30 31492 H 2988.04 5.23944 -4.58754 0
M  V30 31493 H 2985.66 5.49889 -5.24906 0
M  V30 31494 N 2987.24 0.493084 1.49688 0
M  V30 31495 C 2988.49 -0.0543162 2.02727 0
M  V30 31496 C 2988.82 -1.37373 1.37267 0
M  V30 31497 O 2988.09 -1.87811 0.505677 0
M  V30 31498 C 2988.38 -0.215162 3.59457 0
M  V30 31499 C 2988.23 1.12682 4.35457 0
M  V30 31500 C 2989.55 -0.959511 4.29513 0
M  V30 31501 H 2986.67 -0.0182657 0.736774 0
M  V30 31502 H 2989.31 0.642956 1.78791 0
M  V30 31503 H 2987.46 -0.809055 3.79982 0
M  V30 31504 H 2989.13 1.75899 4.26447 0
M  V30 31505 H 2987.38 1.71808 3.98327 0
M  V30 31506 H 2988.05 0.967673 5.43452 0
M  V30 31507 H 2990.52 -0.455904 4.13595 0
M  V30 31508 H 2989.4 -1.04088 5.3894 0
M  V30 31509 H 2989.66 -2.00137 3.94205 0
M  V30 31510 N 2988.72 -1.55963 0.226582 0
M  V30 31511 C 2990.13 -1.5908 -0.128705 0
M  V30 31512 C 2990.33 -1.24348 -1.58555 0
M  V30 31513 O 2989.39 -0.981109 -2.3266 0
M  V30 31514 C 2990.7 -3.0002 0.202128 0
M  V30 31515 C 2992.25 -3.12665 0.144773 0
M  V30 31516 C 2992.73 -4.5579 0.449352 0
M  V30 31517 N 2994.22 -4.61477 0.399107 0
M  V30 31518 C 2994.95 -5.70165 0.608206 0
M  V30 31519 N 2994.45 -6.87197 0.879348 0
M  V30 31520 N 2996.24 -5.59497 0.540298 0
M  V30 31521 H 2988.39 -1.76814 1.17689 0
M  V30 31522 H 2990.66 -0.822094 0.472087 0
M  V30 31523 H 2990.36 -3.30103 1.21347 0
M  V30 31524 H 2990.24 -3.74127 -0.480489 0
M  V30 31525 H 2992.62 -2.82375 -0.857211 0
M  V30 31526 H 2992.7 -2.40876 0.860941 0
M  V30 31527 H 2992.35 -4.86798 1.4488 0
M  V30 31528 H 2992.28 -5.25812 -0.288064 0
M  V30 31529 H 2994.77 -3.77384 0.197438 0
M  V30 31530 H 2995.08 -7.65947 1.02686 0
M  V30 31531 H 2993.43 -6.88929 0.916598 0
M  V30 31532 H 2996.62 -4.66945 0.328663 0
M  V30 31533 H 2996.79 -6.44135 0.706661 0
M  V30 31534 N 2990.2 0.0467589 -1.57531 0
M  V30 31535 C 2991.44 0.739623 -1.8808 0
M  V30 31536 C 2991.77 1.7683 -0.821967 0
M  V30 31537 O 2991.04 1.95351 0.146548 0
M  V30 31538 H 2989.62 0.276157 -0.694079 0
M  V30 31539 H 2992.28 0.0169048 -1.94893 0
M  V30 31540 H 2991.37 1.24026 -2.86398 0
M  V30 31541 N 2991.67 1.54344 0.318688 0
M  V30 31542 C 2992.92 1.72441 1.05397 0
M  V30 31543 C 2993.24 0.503528 1.88387 0
M  V30 31544 O 2992.51 -0.482426 1.89867 0
M  V30 31545 H 2991.09 0.635812 0.392113 0
M  V30 31546 H 2993.76 1.91659 0.353946 0
M  V30 31547 H 2992.85 2.60611 1.71721 0
M  V30 31548 N 2993.15 -0.580999 1.465 0
M  V30 31549 C 2994.09 -1.70469 1.51709 0
M  V30 31550 C 2995.06 -1.58309 0.371064 0
M  V30 31551 O 2996.25 -1.79501 0.575458 0
M  V30 31552 C 2993.37 -3.08536 1.39726 0
M  V30 31553 C 2992.42 -3.39211 2.58531 0
M  V30 31554 S 2993.25 -3.31093 4.20878 0
M  V30 31555 C 2994.41 -4.71694 4.11406 0
M  V30 31556 H 2994.64 -1.65792 2.4678 0
M  V30 31557 H 2992.18 -0.759884 1.34407 0
M  V30 31558 H 2994.13 -3.88186 1.33499 0
M  V30 31559 H 2992.79 -3.10702 0.460797 0
M  V30 31560 H 2991.99 -4.39805 2.46145 0
M  V30 31561 H 2991.59 -2.67132 2.61757 0
M  V30 31562 H 2993.88 -5.62118 3.78192 0
M  V30 31563 H 2994.82 -4.89138 5.12005 0
M  V30 31564 H 2995.23 -4.48625 3.42631 0
M  V30 31565 N 2994.63 -1.34234 -0.825776 0
M  V30 31566 C 2996.04 -1.23708 -1.39833 0
M  V30 31567 C 2996.39 0.138614 -1.9571 0
M  V30 31568 O 2995.52 1.03882 -1.89835 0
M  V30 31569 C 2996.11 -2.23983 -2.54199 0
M  V30 31570 C 2994.67 -2.17257 -3.0737 0
M  V30 31571 C 2993.82 -2.10744 -1.80228 0
M  V30 31572 H 2996.77 -1.45642 -0.630416 0
M  V30 31573 H 2996.79 -1.85516 -3.32211 0
M  V30 31574 H 2996.3 -3.24097 -2.13501 0
M  V30 31575 H 2994.4 -1.20489 -3.52581 0
M  V30 31576 H 2994.52 -3.08385 -3.66654 0
M  V30 31577 H 2992.88 -1.56421 -2.01009 0
M  V30 31578 H 2993.66 -3.12688 -1.41708 0
M  V30 31579 N 2996.11 1.04563 -1.17917 0
M  V30 31580 C 2997.33 1.81876 -0.996781 0
M  V30 31581 C 2997.76 1.82635 0.450136 0
M  V30 31582 O 2997.12 1.23998 1.32266 0
M  V30 31583 C 2997.16 3.25583 -1.55011 0
M  V30 31584 O 2996.27 4.05184 -0.768111 0
M  V30 31585 H 2995.61 0.562101 -0.353466 0
M  V30 31586 H 2998.14 1.31721 -1.56559 0
M  V30 31587 H 2998.15 3.76371 -1.57509 0
M  V30 31588 H 2996.82 3.24345 -2.60332 0
M  V30 31589 H 2995.4 3.63884 -0.815044 0
M  V30 31590 N 2997.59 0.980408 1.23393 0
M  V30 31591 C 2998.83 0.648012 1.91429 0
M  V30 31592 C 2999.16 -0.821035 1.76873 0
M  V30 31593 O 2998.43 -1.5873 1.14811 0
M  V30 31594 H 2997.01 0.236685 0.708512 0
M  V30 31595 H 2999.67 1.24422 1.50017 0
M  V30 31596 H 2998.76 0.899645 2.98852 0
M  V30 31597 N 2999.06 -1.38498 0.75206 0
M  V30 31598 C 3000.3 -2.01998 0.312444 0
M  V30 31599 C 3000.67 -1.58406 -1.08497 0
M  V30 31600 O 3001.87 -2.14225 -1.62361 0
M  V30 31601 C 3000.14 -3.5481 0.429486 0
M  V30 31602 S 3001.7 -4.38741 0.0722258 0
M  V30 31603 H 2998.52 -0.700574 0.121312 0
M  V30 31604 H 3001.12 -1.69028 0.982341 0
M  V30 31605 H 2999.82 -3.84025 1.4475 0
M  V30 31606 H 2999.35 -3.92555 -0.257647 0
M  V30 31607 H 3001.37 -4.82959 -1.13866 0
M  V30 31608 N 3000.54 -0.501015 -1.49424 0
M  V30 31609 C 3001.77 0.0424789 -2.07356 0
M  V30 31610 C 3002.19 1.3006 -1.35889 0
M  V30 31611 O 3001.55 1.76471 -0.415641 0
M  V30 31612 C 3001.6 0.279124 -3.59518 0
M  V30 31613 O 3000.7 1.35383 -3.89545 0
M  V30 31614 H 3000.04 -0.0262324 -0.663482 0
M  V30 31615 H 3002.57 -0.70064 -1.9223 0
M  V30 31616 H 3002.58 0.510628 -4.04792 0
M  V30 31617 H 3001.26 -0.640082 -4.10945 0
M  V30 31618 H 2999.84 1.10728 -3.56081 0
M  V30 31619 N 3002.02 1.5584 -0.234849 0
M  V30 31620 C 3003.27 1.98253 0.392448 0
M  V30 31621 C 3003.59 1.12406 1.59342 0
M  V30 31622 O 3002.86 0.204089 1.94834 0
M  V30 31623 H 3001.44 0.732195 0.147986 0
M  V30 31624 H 3004.1 1.92072 -0.330838 0
M  V30 31625 H 3003.2 3.03922 0.709776 0
M  V30 31626 N 3003.5 -0.038404 1.57553 0
M  V30 31627 C 3004.73 -0.743107 1.93095 0
M  V30 31628 C 3005.14 -1.6939 0.833817 0
M  V30 31629 O 3004.5 -1.81503 -0.1905 0
M  V30 31630 C 3004.55 -1.50821 3.28535 0
M  V30 31631 O 3004.27 -0.595589 4.34033 0
M  V30 31632 C 3005.77 -2.31091 3.78301 0
M  V30 31633 H 3002.99 -0.209399 0.63749 0
M  V30 31634 H 3005.54 0.00128748 2.045 0
M  V30 31635 H 3003.69 -2.20456 3.18556 0
M  V30 31636 H 3004.11 -1.13115 5.12157 0
M  V30 31637 H 3005.58 -2.80183 4.75607 0
M  V30 31638 H 3006.06 -3.12102 3.09013 0
M  V30 31639 H 3006.66 -1.66548 3.91334 0
M  V30 31640 N 3004.98 -1.54511 -0.310498 0
M  V30 31641 C 3006.2 -1.77642 -1.07043 0
M  V30 31642 C 3006.63 -0.529728 -1.80487 0
M  V30 31643 O 3005.99 0.519331 -1.73703 0
M  V30 31644 C 3006.03 -2.97756 -2.03406 0
M  V30 31645 O 3005.14 -2.70215 -3.1154 0
M  V30 31646 H 3004.48 -0.588254 -0.307983 0
M  V30 31647 H 3007.01 -2.0157 -0.350813 0
M  V30 31648 H 3007.02 -3.25464 -2.46043 0
M  V30 31649 H 3005.69 -3.88157 -1.49354 0
M  V30 31650 H 3004.27 -2.53495 -2.73486 0
M  V30 31651 N 3006.46 0.573222 -1.46806 0
M  V30 31652 C 3007.7 1.32733 -1.51871 0
M  V30 31653 C 3008.02 1.94781 -0.178799 0
M  V30 31654 O 3009.22 2.71288 -0.107319 0
M  V30 31655 C 3007.68 2.40611 -2.67646 0
M  V30 31656 C 3007.29 1.84825 -4.08098 0
M  V30 31657 C 3009.03 3.17305 -2.8199 0
M  V30 31658 C 3006.94 2.90388 -5.15198 0
M  V30 31659 H 3005.87 0.49902 -0.565239 0
M  V30 31660 H 3008.52 0.610665 -1.73041 0
M  V30 31661 H 3006.9 3.1512 -2.39824 0
M  V30 31662 H 3008.08 1.16795 -4.45753 0
M  V30 31663 H 3006.39 1.20768 -3.98502 0
M  V30 31664 H 3008.99 3.96105 -3.59173 0
M  V30 31665 H 3009.33 3.7049 -1.89849 0
M  V30 31666 H 3009.86 2.49904 -3.09504 0
M  V30 31667 H 3006.6 2.42077 -6.09162 0
M  V30 31668 H 3006.12 3.56877 -4.82077 0
M  V30 31669 H 3007.8 3.5417 -5.41454 0
M  V30 31670 N 3007.93 1.3467 0.818645 0
M  V30 31671 C 3009.18 1.27267 1.5751 0
M  V30 31672 C 3009.51 -0.156219 1.93872 0
M  V30 31673 O 3008.76 -1.11854 1.60584 0
M  V30 31674 C 3009.06 2.11309 2.88242 0
M  V30 31675 C 3008.73 3.60259 2.71153 0
M  V30 31676 C 3007.39 4.00863 2.662 0
M  V30 31677 C 3009.74 4.54823 2.5453 0
M  V30 31678 C 3007.07 5.34215 2.42551 0
M  V30 31679 C 3009.42 5.8836 2.32411 0
M  V30 31680 C 3008.09 6.28122 2.25873 0
M  V30 31681 H 3007.36 0.465702 0.57637 0
M  V30 31682 H 3010 1.66453 0.946871 0
M  V30 31683 H 3008.31 1.64965 3.55379 0
M  V30 31684 H 3010.01 2.02925 3.45865 0
M  V30 31685 H 3006.6 3.28032 2.7585 0
M  V30 31686 H 3010.78 4.24348 2.57376 0
M  V30 31687 H 3006.04 5.64037 2.3595 0
M  V30 31688 H 3010.21 6.61222 2.18536 0
M  V30 31689 H 3007.84 7.31387 2.07309 0
M  V30 31690 N 3009.41 -1.03936 1.1847 0
M  V30 31691 C 3010.36 -2.14089 0.909323 0
M  V30 31692 C 3011.35 -1.68894 -0.130898 0
M  V30 31693 O 3012.56 -1.79992 0.0173719 0
M  V30 31694 H 3008.93 -0.699286 0.276592 0
M  V30 31695 H 3010.91 -2.34512 1.84518 0
M  V30 31696 C 3009.65 -3.44737 0.452983 0
M  V30 31697 H 3008.98 -3.79923 1.24492 0
M  V30 31698 H 3010.42 -4.22942 0.299312 0
M  V30 31699 C 3008.88 -3.26481 -0.831378 0
M  V30 31700 O 3009.41 -3.54178 -1.89528 0
M  V30 31701 N 3007.61 -2.79811 -0.784496 0
M  V30 31702 H 3007.16 -2.57471 0.0815199 0
M  V30 31703 H 3007.12 -2.67976 -1.64426 0
M  V30 31704 N 3010.89 -0.986938 -1.22871 0
M  V30 31705 C 3012.11 -0.677375 -1.96026 0
M  V30 31706 C 3012.54 0.750289 -1.72488 0
M  V30 31707 O 3011.9 1.51202 -1.00039 0
M  V30 31708 C 3011.95 -0.981654 -3.46981 0
M  V30 31709 O 3011.05 -0.0771454 -4.12328 0
M  V30 31710 H 3010.39 -0.254107 -0.613454 0
M  V30 31711 H 3012.92 -1.3223 -1.56129 0
M  V30 31712 H 3012.93 -0.921039 -3.97468 0
M  V30 31713 H 3011.61 -2.022 -3.63439 0
M  V30 31714 H 3010.18 -0.192731 -3.72402 0
M  V30 31715 N 3012.37 1.38098 -0.759394 0
M  V30 31716 C 3013.3 2.28046 -0.0838762 0
M  V30 31717 C 3014.28 1.45681 0.722204 0
M  V30 31718 O 3015.46 1.75037 0.699598 0
M  V30 31719 C 3012.59 3.26856 0.887859 0
M  V30 31720 C 3011.64 4.26172 0.167299 0
M  V30 31721 S 3012.47 5.23312 -1.13601 0
M  V30 31722 C 3013.62 6.25676 -0.167495 0
M  V30 31723 H 3013.86 2.84991 -0.846614 0
M  V30 31724 H 3011.39 1.44187 -0.552231 0
M  V30 31725 H 3013.35 3.84296 1.44315 0
M  V30 31726 H 3012.01 2.68882 1.62361 0
M  V30 31727 H 3011.2 4.95836 0.90348 0
M  V30 31728 H 3010.8 3.72657 -0.316637 0
M  V30 31729 H 3013.1 6.74234 0.66448 0
M  V30 31730 H 3014.04 7.03196 -0.83196 0
M  V30 31731 H 3014.45 5.64087 0.21579 0
M  V30 31732 N 3013.85 0.508932 1.49156 0
M  V30 31733 C 3015.09 -0.03465 2.0167 0
M  V30 31734 C 3015.41 -1.37308 1.39305 0
M  V30 31735 O 3016.61 -2.00381 1.83193 0
M  V30 31736 C 3015.07 -0.112198 3.59725 0
M  V30 31737 C 3014.68 1.22007 4.31067 0
M  V30 31738 C 3016.42 -0.605724 4.20156 0
M  V30 31739 C 3014.33 1.10425 5.80999 0
M  V30 31740 H 3013.26 -0.0167222 0.753815 0
M  V30 31741 H 3015.91 0.649548 1.71619 0
M  V30 31742 H 3014.29 -0.861019 3.86526 0
M  V30 31743 H 3015.47 1.9828 4.15959 0
M  V30 31744 H 3013.78 1.64766 3.82415 0
M  V30 31745 H 3016.38 -0.710009 5.29965 0
M  V30 31746 H 3016.72 -1.60649 3.84054 0
M  V30 31747 H 3017.25 0.0867938 3.97705 0
M  V30 31748 H 3013.99 2.07952 6.2164 0
M  V30 31749 H 3013.51 0.382534 5.98579 0
M  V30 31750 H 3015.19 0.786229 6.42205 0
M  V30 31751 N 3015.32 -1.55714 0.243111 0
M  V30 31752 C 3016.27 -2.22611 -0.67431 0
M  V30 31753 C 3017.27 -1.21245 -1.18305 0
M  V30 31754 O 3018.47 -1.39267 -1.14038 0
M  V30 31755 H 3014.85 -0.714032 -0.235928 0
M  V30 31756 H 3016.82 -2.98273 -0.0868922 0
M  V30 31757 C 3015.57 -2.9364 -1.862 0
M  V30 31758 H 3014.89 -3.7141 -1.47969 0
M  V30 31759 H 3016.33 -3.43818 -2.48124 0
M  V30 31760 C 3014.79 -1.97303 -2.73081 0
M  V30 31761 O 3015.32 -1.50368 -3.72495 0
M  V30 31762 N 3013.52 -1.64486 -2.39568 0
M  V30 31763 H 3013.07 -2.02849 -1.58777 0
M  V30 31764 H 3013.03 -1.00293 -2.97974 0
M  V30 31765 N 3016.8 0.030048 -1.57571 0
M  V30 31766 C 3017.75 1.0494 -2.07582 0
M  V30 31767 C 3018.74 1.37503 -0.989408 0
M  V30 31768 O 3019.95 1.3642 -1.1743 0
M  V30 31769 H 3016.33 0.355944 -0.662426 0
M  V30 31770 H 3018.3 0.601796 -2.92269 0
M  V30 31771 C 3017.05 2.3421 -2.56984 0
M  V30 31772 H 3016.37 2.10015 -3.40197 0
M  V30 31773 H 3017.81 3.03883 -2.95687 0
M  V30 31774 C 3016.27 3.03107 -1.47064 0
M  V30 31775 O 3016.8 3.92898 -0.836319 0
M  V30 31776 N 3015 2.6442 -1.20543 0
M  V30 31777 H 3014.55 1.91487 -1.72309 0
M  V30 31778 H 3014.51 3.10835 -0.4721 0
M  V30 31779 N 3018.28 1.54674 0.3023 0
M  V30 31780 C 3019.53 1.73102 1.0353 0
M  V30 31781 C 3019.84 0.523207 1.88473 0
M  V30 31782 O 3021.05 0.589275 2.65028 0
M  V30 31783 C 3019.5 3.06256 1.89038 0
M  V30 31784 C 3019.11 4.34511 1.09105 0
M  V30 31785 C 3020.86 3.34043 2.61945 0
M  V30 31786 C 3018.76 5.58716 1.93882 0
M  V30 31787 H 3017.69 0.645152 0.390249 0
M  V30 31788 H 3020.34 1.81156 0.292369 0
M  V30 31789 H 3018.73 2.92163 2.67313 0
M  V30 31790 H 3019.9 4.59434 0.354515 0
M  V30 31791 H 3018.22 4.13649 0.47785 0
M  V30 31792 H 3020.81 4.24039 3.25722 0
M  V30 31793 H 3021.16 2.52861 3.30707 0
M  V30 31794 H 3021.69 3.491 1.90719 0
M  V30 31795 H 3018.43 6.42562 1.29592 0
M  V30 31796 H 3017.95 5.37981 2.6521 0
M  V30 31797 H 3019.63 5.95924 2.5196 0
M  V30 31798 N 3019.76 -0.565428 1.47108 0
M  V30 31799 C 3021.01 -1.31926 1.52572 0
M  V30 31800 C 3021.32 -1.94684 0.189127 0
M  V30 31801 O 3022.53 -2.71227 0.121705 0
M  V30 31802 C 3020.98 -2.39189 2.68918 0
M  V30 31803 C 3020.59 -1.82658 4.09072 0
M  V30 31804 C 3022.33 -3.15805 2.83668 0
M  V30 31805 C 3020.24 -2.87652 5.16731 0
M  V30 31806 H 3019.17 -0.496015 0.567877 0
M  V30 31807 H 3021.82 -0.601479 1.73362 0
M  V30 31808 H 3020.2 -3.13844 2.41491 0
M  V30 31809 H 3021.38 -1.1443 4.46366 0
M  V30 31810 H 3019.69 -1.18653 3.99137 0
M  V30 31811 H 3022.29 -3.94194 3.61268 0
M  V30 31812 H 3022.63 -3.69478 1.91811 0
M  V30 31813 H 3023.17 -2.48259 3.10825 0
M  V30 31814 H 3019.91 -2.38843 6.10438 0
M  V30 31815 H 3019.43 -3.54316 4.83963 0
M  V30 31816 H 3021.1 -3.51293 5.43325 0
M  V30 31817 N 3021.24 -1.35102 -0.811492 0
M  V30 31818 C 3022.49 -1.27438 -1.56341 0
M  V30 31819 C 3022.8 0.150662 -1.95019 0
M  V30 31820 O 3024 0.349539 -2.69241 0
M  V30 31821 C 3022.46 -2.23464 -2.8212 0
M  V30 31822 C 3022.07 -3.71287 -2.50699 0
M  V30 31823 C 3023.81 -2.24732 -3.60133 0
M  V30 31824 C 3021.72 -4.5915 -3.7274 0
M  V30 31825 H 3020.65 -0.473464 -0.586812 0
M  V30 31826 H 3023.3 -1.60337 -0.892437 0
M  V30 31827 H 3021.68 -1.83531 -3.50902 0
M  V30 31828 H 3022.86 -4.19826 -1.89955 0
M  V30 31829 H 3021.17 -3.72579 -1.85941 0
M  V30 31830 H 3023.77 -2.87594 -4.5077 0
M  V30 31831 H 3024.11 -1.24972 -3.97099 0
M  V30 31832 H 3024.64 -2.63169 -2.98307 0
M  V30 31833 H 3021.38 -5.5989 -3.40886 0
M  V30 31834 H 3020.9 -4.1534 -4.32727 0
M  V30 31835 H 3022.58 -4.74329 -4.40024 0
M  V30 31836 N 3022.71 1.03306 -1.19019 0
M  V30 31837 C 3024.13 1.28871 -0.941506 0
M  V30 31838 C 3024.33 1.97718 0.388553 0
M  V30 31839 O 3023.39 2.26248 1.12107 0
M  V30 31840 C 3024.7 2.13993 -2.11253 0
M  V30 31841 C 3026.25 2.27314 -2.15168 0
M  V30 31842 C 3026.72 3.15805 -3.31709 0
M  V30 31843 N 3028.21 3.23394 -3.31619 0
M  V30 31844 C 3028.95 3.92042 -4.18438 0
M  V30 31845 N 3028.44 4.62957 -5.15405 0
M  V30 31846 N 3030.24 3.88399 -4.06328 0
M  V30 31847 H 3022.39 0.570307 -2.046 0
M  V30 31848 H 3024.65 0.314216 -0.894412 0
M  V30 31849 H 3024.36 1.70722 -3.07485 0
M  V30 31850 H 3024.23 3.14694 -2.07961 0
M  V30 31851 H 3026.62 2.69818 -1.19509 0
M  V30 31852 H 3026.7 1.26178 -2.22515 0
M  V30 31853 H 3026.34 2.74011 -4.27645 0
M  V30 31854 H 3026.27 4.16991 -3.21599 0
M  V30 31855 H 3028.76 2.72884 -2.61425 0
M  V30 31856 H 3029.08 5.12958 -5.78009 0
M  V30 31857 H 3027.42 4.61836 -5.19357 0
M  V30 31858 H 3030.61 3.32135 -3.29855 0
M  V30 31859 H 3030.79 4.41627 -4.74204 0
M  V30 31860 N 3024.19 0.99344 1.22346 0
M  V30 31861 C 3025.42 0.688055 1.95124 0
M  V30 31862 C 3025.84 -0.747358 1.73378 0
M  V30 31863 O 3025.19 -1.50437 1.03319 0
M  V30 31864 C 3025.24 0.985158 3.47817 0
M  V30 31865 O 3024.96 2.36417 3.68834 0
M  V30 31866 C 3026.47 0.697551 4.37777 0
M  V30 31867 H 3023.69 0.254492 0.620866 0
M  V30 31868 H 3026.23 1.32836 1.55483 0
M  V30 31869 H 3024.38 0.390651 3.85425 0
M  V30 31870 H 3024.8 2.46385 4.63028 0
M  V30 31871 H 3026.27 0.955699 5.43664 0
M  V30 31872 H 3026.75 -0.368447 4.37652 0
M  V30 31873 H 3027.36 1.27313 4.05797 0
M  V30 31874 N 3025.67 -1.37693 0.766707 0
M  V30 31875 C 3026.6 -2.32927 0.163473 0
M  V30 31876 C 3027.58 -1.55528 -0.688834 0
M  V30 31877 O 3028.77 -1.83788 -0.627331 0
M  V30 31878 C 3025.9 -3.39747 -0.720356 0
M  V30 31879 C 3024.85 -4.27989 0.0302471 0
M  V30 31880 C 3024.18 -5.25778 -0.972696 0
M  V30 31881 C 3025.48 -5.08178 1.20632 0
M  V30 31882 H 3027.17 -2.83624 0.959038 0
M  V30 31883 H 3024.72 -1.36366 0.462625 0
M  V30 31884 H 3026.67 -4.05344 -1.15214 0
M  V30 31885 H 3025.39 -2.87563 -1.54839 0
M  V30 31886 H 3024.05 -3.63917 0.442749 0
M  V30 31887 H 3023.7 -4.69876 -1.79514 0
M  V30 31888 H 3023.4 -5.85677 -0.475043 0
M  V30 31889 H 3024.92 -5.94251 -1.40352 0
M  V30 31890 H 3026.34 -5.66942 0.85144 0
M  V30 31891 H 3024.74 -5.77377 1.63572 0
M  V30 31892 H 3025.81 -4.41147 2.01288 0
M  V30 31893 N 3027.15 -0.516835 -1.48884 0
M  V30 31894 C 3028.08 0.300071 -2.26219 0
M  V30 31895 C 3029.06 0.956473 -1.31493 0
M  V30 31896 O 3030.24 0.983459 -1.60811 0
M  V30 31897 C 3027.37 1.42387 -3.07317 0
M  V30 31898 C 3026.42 0.880222 -4.17318 0
M  V30 31899 S 3027.25 -0.241554 -5.34955 0
M  V30 31900 C 3028.41 0.885029 -6.19611 0
M  V30 31901 H 3028.64 -0.356269 -2.95158 0
M  V30 31902 H 3026.17 -0.302391 -1.5141 0
M  V30 31903 H 3028.13 2.06769 -3.54622 0
M  V30 31904 H 3026.79 2.05188 -2.37817 0
M  V30 31905 H 3025.98 1.72288 -4.73638 0
M  V30 31906 H 3025.59 0.313331 -3.72685 0
M  V30 31907 H 3027.88 1.7867 -6.53516 0
M  V30 31908 H 3028.82 0.360101 -7.07184 0
M  V30 31909 H 3029.23 1.15951 -5.52463 0
M  V30 31910 N 3028.63 1.55583 -0.251365 0
M  V30 31911 C 3029.56 2.24547 0.640397 0
M  V30 31912 C 3030.54 1.22728 1.17778 0
M  V30 31913 O 3031.72 1.51392 1.21631 0
M  V30 31914 C 3028.85 2.94837 1.83544 0
M  V30 31915 C 3027.81 4.03382 1.43063 0
M  V30 31916 C 3027.13 4.61121 2.70687 0
M  V30 31917 C 3028.43 5.18861 0.598389 0
M  V30 31918 H 3030.13 2.99329 0.0653245 0
M  V30 31919 H 3027.67 1.43969 0.0299789 0
M  V30 31920 H 3029.63 3.41784 2.46499 0
M  V30 31921 H 3028.35 2.1755 2.43597 0
M  V30 31922 H 3027.01 3.5721 0.824411 0
M  V30 31923 H 3026.66 3.8053 3.28947 0
M  V30 31924 H 3026.36 5.34397 2.44323 0
M  V30 31925 H 3027.88 5.10804 3.34532 0
M  V30 31926 H 3029.29 5.62006 1.13234 0
M  V30 31927 H 3027.69 5.98553 0.430623 0
M  V30 31928 H 3028.76 4.83342 -0.388375 0
M  V30 31929 N 3030.1 -0.0216912 1.57585 0
M  V30 31930 C 3031.05 -1.02001 2.07038 0
M  V30 31931 C 3032.02 -1.35471 0.961083 0
M  V30 31932 O 3033.21 -1.45682 1.23213 0
M  V30 31933 C 3030.35 -2.31359 2.5606 0
M  V30 31934 C 3029.46 -2.03982 3.80809 0
M  V30 31935 C 3028.59 -3.27265 4.18415 0
M  V30 31936 C 3027.63 -2.95476 5.3606 0
M  V30 31937 N 3026.77 -4.11232 5.69063 0
M  V30 31938 H 3031.61 -0.591345 2.92074 0
M  V30 31939 H 3029.15 -0.280359 1.44404 0
M  V30 31940 H 3031.11 -3.06952 2.82553 0
M  V30 31941 H 3029.74 -2.71934 1.7393 0
M  V30 31942 H 3028.79 -1.18853 3.61356 0
M  V30 31943 H 3030.1 -1.76538 4.66515 0
M  V30 31944 H 3029.25 -4.1122 4.46075 0
M  V30 31945 H 3027.99 -3.5783 3.31375 0
M  V30 31946 H 3027 -2.09924 5.08146 0
M  V30 31947 H 3028.22 -2.66182 6.24759 0
M  V30 31948 H 3026.17 -4.41734 4.84982 0
M  V30 31949 H 3026.09 -3.87236 6.49295 0
M  V30 31950 H 3027.35 -4.96039 6.01303 0
M  V30 31951 N 3031.58 -1.54832 -0.294093 0
M  V30 31952 C 3032.83 -1.74699 -1.02996 0
M  V30 31953 C 3033.16 -0.534982 -1.86686 0
M  V30 31954 O 3032.44 0.46783 -1.8879 0
M  V30 31955 C 3032.72 -3.04 -1.93018 0
M  V30 31956 C 3032.57 -4.35514 -1.12462 0
M  V30 31957 C 3033.89 -3.29208 -2.92079 0
M  V30 31958 H 3031.01 -0.635625 -0.373028 0
M  V30 31959 H 3033.65 -1.87552 -0.304032 0
M  V30 31960 H 3031.8 -2.93173 -2.54915 0
M  V30 31961 H 3033.48 -4.58268 -0.527986 0
M  V30 31962 H 3031.72 -4.31688 -0.427498 0
M  V30 31963 H 3032.39 -5.22268 -1.78719 0
M  V30 31964 H 3034.87 -3.39689 -2.40313 0
M  V30 31965 H 3033.74 -4.20984 -3.52227 0
M  V30 31966 H 3034 -2.47833 -3.66102 0
M  V30 31967 N 3033.06 0.557619 -1.47405 0
M  V30 31968 C 3034.29 1.33829 -1.57396 0
M  V30 31969 C 3034.7 1.87881 -0.223011 0
M  V30 31970 O 3034.04 1.65663 0.793825 0
M  V30 31971 C 3034.1 2.54523 -2.53886 0
M  V30 31972 C 3033.77 2.2176 -3.99589 0
M  V30 31973 C 3034.77 1.79079 -4.88085 0
M  V30 31974 C 3032.45 2.33132 -4.44921 0
M  V30 31975 C 3034.44 1.48198 -6.19932 0
M  V30 31976 C 3032.13 2.01864 -5.76797 0
M  V30 31977 C 3033.13 1.59464 -6.64124 0
M  V30 31978 O 3032.82 1.28593 -7.93548 0
M  V30 31979 H 3032.55 0.414281 -0.534179 0
M  V30 31980 H 3035.1 0.68237 -1.93734 0
M  V30 31981 H 3033.33 3.23005 -2.12614 0
M  V30 31982 H 3035.02 3.16598 -2.54009 0
M  V30 31983 H 3035.79 1.69786 -4.5431 0
M  V30 31984 H 3031.67 2.65093 -3.77156 0
M  V30 31985 H 3035.21 1.15031 -6.88051 0
M  V30 31986 H 3031.11 2.10788 -6.10114 0
M  V30 31987 H 3031.88 1.42226 -8.06048 0
M  V30 31988 N 3034.54 1.35531 0.804316 0
M  V30 31989 C 3035.49 1.28638 1.91627 0
M  V30 31990 C 3036.46 0.157891 1.65348 0
M  V30 31991 O 3037.64 0.341967 1.8771 0
M  V30 31992 C 3034.78 1.06656 3.28205 0
M  V30 31993 C 3033.89 2.28447 3.66655 0
M  V30 31994 C 3033.03 1.99596 4.92275 0
M  V30 31995 C 3032.07 3.17429 5.23359 0
M  V30 31996 N 3031.21 2.8834 6.4016 0
M  V30 31997 H 3036.05 2.23724 1.96854 0
M  V30 31998 H 3033.58 1.1121 0.962852 0
M  V30 31999 H 3035.54 0.919415 4.06943 0
M  V30 32000 H 3034.17 0.15231 3.2244 0
M  V30 32001 H 3033.22 2.54018 2.83159 0
M  V30 32002 H 3034.53 3.16427 3.85585 0
M  V30 32003 H 3033.69 1.81726 5.78844 0
M  V30 32004 H 3032.43 1.08905 4.75385 0
M  V30 32005 H 3031.43 3.35875 4.35279 0
M  V30 32006 H 3032.66 4.08926 5.42178 0
M  V30 32007 H 3030.6 2.00244 6.24691 0
M  V30 32008 H 3030.52 3.69854 6.59351 0
M  V30 32009 H 3031.79 2.74015 7.29751 0
M  V30 32010 N 3036.02 -1.02674 1.19565 0
M  V30 32011 C 3037.27 -1.75761 0.997624 0
M  V30 32012 C 3037.59 -1.89189 -0.472497 0
M  V30 32013 O 3036.86 -1.42703 -1.34211 0
M  V30 32014 H 3035.44 -0.651115 0.366139 0
M  V30 32015 H 3038.1 -1.23841 1.50497 0
M  V30 32016 H 3037.19 -2.76505 1.44746 0
M  V30 32017 N 3037.5 -0.999914 -1.21817 0
M  V30 32018 C 3038.74 -0.675142 -1.90065 0
M  V30 32019 C 3039.06 0.797018 -1.78625 0
M  V30 32020 O 3040.26 1.23367 -2.41853 0
M  V30 32021 C 3038.72 -1.15708 -3.40793 0
M  V30 32022 C 3038.33 -2.65496 -3.60854 0
M  V30 32023 C 3040.07 -0.906962 -4.14698 0
M  V30 32024 C 3037.98 -3.07257 -5.05319 0
M  V30 32025 H 3036.91 -0.248827 -0.711759 0
M  V30 32026 H 3039.56 -1.2104 -1.37918 0
M  V30 32027 H 3037.94 -0.549901 -3.92163 0
M  V30 32028 H 3039.12 -3.3162 -3.19945 0
M  V30 32029 H 3037.43 -2.88467 -3.00293 0
M  V30 32030 H 3040.03 -1.19459 -5.21185 0
M  V30 32031 H 3040.37 0.156849 -4.16004 0
M  V30 32032 H 3040.9 -1.47668 -3.69376 0
M  V30 32033 H 3037.64 -4.12843 -5.09157 0
M  V30 32034 H 3037.16 -2.45841 -5.47103 0
M  V30 32035 H 3038.84 -2.98951 -5.73792 0
M  V30 32036 N 3038.97 1.37284 -0.773999 0
M  V30 32037 C 3040.25 1.93811 -0.263977 0
M  V30 32038 C 3040.63 1.70745 1.24135 0
M  V30 32039 O 3039.98 1.05753 2.02555 0
M  V30 32040 C 3040.19 3.43085 -0.639813 0
M  V30 32041 C 3041.54 4.20183 -0.61087 0
M  V30 32042 O 3042.56 3.51457 -0.57934 0
M  V30 32043 O 3041.42 5.4274 -0.639958 0
M  V30 32044 H 3038.51 0.824714 -0.0614476 0
M  V30 32045 H 3041.06 1.46558 -0.855503 0
M  V30 32046 H 3039.83 3.53466 -1.67862 0
M  V30 32047 H 3039.45 3.97594 -0.0213526 0
M  V30 32048 N 3040.45 0.524724 1.48608 0
M  V30 32049 C 3041.38 -0.229796 2.32366 0
M  V30 32050 C 3042.36 -0.940104 1.41761 0
M  V30 32051 O 3043.55 -0.926906 1.70652 0
M  V30 32052 C 3040.68 -1.28038 3.22837 0
M  V30 32053 C 3039.63 -0.688529 4.22425 0
M  V30 32054 C 3038.96 -1.84137 5.01994 0
M  V30 32055 C 3040.26 0.336268 5.21216 0
M  V30 32056 H 3041.95 0.469391 2.95698 0
M  V30 32057 H 3039.5 0.227181 1.42197 0
M  V30 32058 H 3041.45 -1.81613 3.80256 0
M  V30 32059 H 3040.17 -2.00907 2.57495 0
M  V30 32060 H 3038.83 -0.174338 3.66185 0
M  V30 32061 H 3038.48 -2.55832 4.33081 0
M  V30 32062 H 3038.18 -1.45132 5.69395 0
M  V30 32063 H 3039.71 -2.38101 5.62263 0
M  V30 32064 H 3041.12 -0.112206 5.7319 0
M  V30 32065 H 3039.52 0.643429 5.96641 0
M  V30 32066 H 3040.59 1.2439 4.68674 0
M  V30 32067 N 3041.93 -1.55447 0.259613 0
M  V30 32068 C 3043.21 -1.912 -0.412561 0
M  V30 32069 C 3043.59 -1.18197 -1.74907 0
M  V30 32070 O 3042.93 -0.303643 -2.26474 0
M  V30 32071 C 3043.14 -3.44345 -0.568134 0
M  V30 32072 C 3044.49 -4.15837 -0.85818 0
M  V30 32073 O 3045.52 -3.50154 -0.653526 0
M  V30 32074 O 3044.38 -5.32044 -1.24865 0
M  V30 32075 H 3041.47 -0.796258 -0.223389 0
M  V30 32076 H 3044.02 -1.66944 0.30462 0
M  V30 32077 H 3042.79 -3.89518 0.373058 0
M  V30 32078 H 3042.41 -3.74504 -1.33537 0
M  V30 32079 N 3043.41 0.0133338 -1.57594 0
M  V30 32080 C 3044.34 1.03691 -2.04403 0
M  V30 32081 C 3045.35 1.31515 -0.959569 0
M  V30 32082 O 3046.54 1.28725 -1.23661 0
M  V30 32083 C 3043.64 2.37487 -2.41771 0
M  V30 32084 C 3042.81 2.28795 -3.72789 0
M  V30 32085 C 3041.87 3.45169 -3.97171 0
M  V30 32086 O 3040.9 3.23955 -4.68019 0
M  V30 32087 N 3042.1 4.67573 -3.44029 0
M  V30 32088 H 3044.87 0.637823 -2.92834 0
M  V30 32089 H 3042.43 0.200982 -1.60648 0
M  V30 32090 H 3044.42 3.14088 -2.55207 0
M  V30 32091 H 3042.99 2.69185 -1.58929 0
M  V30 32092 H 3042.21 1.3719 -3.69557 0
M  V30 32093 H 3043.5 2.20146 -4.58708 0
M  V30 32094 H 3042.9 4.87708 -2.86632 0
M  V30 32095 H 3041.45 5.41485 -3.62818 0
M  V30 32096 N 3044.89 1.54985 0.285878 0
M  V30 32097 C 3046.13 1.74984 1.01917 0
M  V30 32098 C 3046.46 0.543849 1.86742 0
M  V30 32099 O 3045.72 -0.473938 1.89874 0
M  V30 32100 C 3046.01 3.00043 1.94188 0
M  V30 32101 C 3045.68 4.33164 1.25217 0
M  V30 32102 C 3044.34 4.69348 1.06141 0
M  V30 32103 C 3046.69 5.15624 0.760336 0
M  V30 32104 C 3044.02 5.85558 0.365888 0
M  V30 32105 C 3046.37 6.32551 0.0784675 0
M  V30 32106 C 3045.04 6.67385 -0.124119 0
M  V30 32107 H 3044.31 0.64031 0.372939 0
M  V30 32108 H 3046.96 1.89251 0.292618 0
M  V30 32109 H 3045.26 2.80621 2.73421 0
M  V30 32110 H 3046.96 3.12711 2.51023 0
M  V30 32111 H 3043.55 4.04717 1.41074 0
M  V30 32112 H 3047.73 4.88156 0.89538 0
M  V30 32113 H 3042.99 6.11079 0.198085 0
M  V30 32114 H 3047.16 6.95708 -0.310462 0
M  V30 32115 H 3044.79 7.57285 -0.665051 0
M  V30 32116 N 3046.36 -0.549794 1.47699 0
M  V30 32117 C 3047.78 -0.876445 1.33381 0
M  V30 32118 C 3047.98 -1.98782 0.329872 0
M  V30 32119 O 3047.04 -2.51199 -0.255977 0
M  V30 32120 C 3048.35 -1.26267 2.72905 0
M  V30 32121 C 3049.9 -1.37368 2.81245 0
M  V30 32122 C 3050.37 -1.79344 4.21426 0
M  V30 32123 N 3051.86 -1.86481 4.24004 0
M  V30 32124 C 3052.6 -2.20304 5.2939 0
M  V30 32125 N 3052.09 -2.52688 6.45074 0
M  V30 32126 N 3053.89 -2.21141 5.16772 0
M  V30 32127 H 3046.04 0.183819 2.11603 0
M  V30 32128 H 3048.3 0.0195767 0.947798 0
M  V30 32129 H 3048.01 -0.519828 3.47837 0
M  V30 32130 H 3047.88 -2.21722 3.05155 0
M  V30 32131 H 3050.27 -2.10733 2.06581 0
M  V30 32132 H 3050.35 -0.400837 2.5264 0
M  V30 32133 H 3049.99 -1.06546 4.96599 0
M  V30 32134 H 3049.92 -2.77644 4.47461 0
M  V30 32135 H 3052.41 -1.63811 3.4055 0
M  V30 32136 H 3052.73 -2.77545 7.21241 0
M  V30 32137 H 3051.07 -2.50252 6.48382 0
M  V30 32138 H 3054.26 -1.95285 4.25419 0
M  V30 32139 H 3054.44 -2.4717 5.99008 0
M  V30 32140 N 3047.84 -1.35955 -0.797117 0
M  V30 32141 C 3048.78 -1.24008 -1.91565 0
M  V30 32142 C 3049.75 -0.125896 -1.62112 0
M  V30 32143 O 3050.94 -0.29567 -1.86167 0
M  V30 32144 C 3048.06 -0.911593 -3.26202 0
M  V30 32145 C 3047.11 -2.03915 -3.74594 0
M  V30 32146 S 3047.94 -3.65607 -3.9127 0
M  V30 32147 C 3049.1 -3.34855 -5.28794 0
M  V30 32148 H 3049.33 -2.18684 -2.01406 0
M  V30 32149 H 3046.87 -1.21281 -0.955521 0
M  V30 32150 H 3048.82 -0.728876 -4.03977 0
M  V30 32151 H 3047.48 0.0172607 -3.14095 0
M  V30 32152 H 3046.68 -1.76369 -4.72134 0
M  V30 32153 H 3046.28 -2.18069 -3.03845 0
M  V30 32154 H 3048.57 -2.8827 -6.13112 0
M  V30 32155 H 3049.51 -4.31629 -5.61339 0
M  V30 32156 H 3049.92 -2.7039 -4.95529 0
M  V30 32157 N 3049.32 1.02038 -1.20108 0
M  V30 32158 C 3050.57 1.74983 -1.00319 0
M  V30 32159 C 3050.88 1.89973 0.46578 0
M  V30 32160 O 3052.09 2.59973 0.782703 0
M  V30 32161 C 3050.54 3.14703 -1.74614 0
M  V30 32162 C 3050.15 3.07738 -3.25579 0
M  V30 32163 C 3051.9 3.91884 -1.63179 0
M  V30 32164 C 3049.8 4.42442 -3.92427 0
M  V30 32165 H 3048.73 0.655992 -0.371739 0
M  V30 32166 H 3051.38 1.14129 -1.4369 0
M  V30 32167 H 3049.77 3.76076 -1.24027 0
M  V30 32168 H 3050.94 2.55695 -3.83349 0
M  V30 32169 H 3049.26 2.44051 -3.37384 0
M  V30 32170 H 3051.85 4.91536 -2.10466 0
M  V30 32171 H 3052.2 4.12136 -0.587352 0
M  V30 32172 H 3052.73 3.37131 -2.11158 0
M  V30 32173 H 3049.47 4.27394 -4.97006 0
M  V30 32174 H 3048.99 4.94507 -3.39445 0
M  V30 32175 H 3050.67 5.11299 -3.96462 0
M  V30 32176 N 3050.8 1.00636 1.21285 0
M  V30 32177 C 3051.76 0.57286 2.21926 0
M  V30 32178 C 3052.76 -0.351514 1.56911 0
M  V30 32179 O 3053.95 -0.141612 1.73623 0
M  V30 32180 C 3051.08 -0.164872 3.40501 0
M  V30 32181 H 3052.28 1.46304 2.61792 0
M  V30 32182 H 3049.83 0.795022 1.3457 0
M  V30 32183 H 3050.56 -1.07043 3.06125 0
M  V30 32184 H 3050.35 0.49903 3.88911 0
M  V30 32185 H 3051.84 -0.455872 4.15104 0
M  V30 32186 N 3052.28 -1.36872 0.781268 0
M  V30 32187 C 3053.51 -2.0342 0.361078 0
M  V30 32188 C 3053.91 -1.5905 -1.02469 0
M  V30 32189 O 3053.26 -0.771581 -1.6671 0
M  V30 32190 C 3053.32 -3.57924 0.336265 0
M  V30 32191 C 3052.98 -4.25464 1.66822 0
M  V30 32192 C 3053.98 -4.48922 2.62232 0
M  V30 32193 C 3051.67 -4.63103 1.94528 0
M  V30 32194 C 3053.66 -5.09088 3.83547 0
M  V30 32195 C 3051.35 -5.22988 3.16112 0
M  V30 32196 C 3052.34 -5.45919 4.1044 0
M  V30 32197 O 3052.03 -6.0455 5.29882 0
M  V30 32198 H 3051.76 -0.659607 0.147968 0
M  V30 32199 H 3054.32 -1.75996 1.05898 0
M  V30 32200 H 3052.55 -3.84433 -0.418079 0
M  V30 32201 H 3054.24 -4.05858 -0.0581486 0
M  V30 32202 H 3055 -4.20246 2.42111 0
M  V30 32203 H 3050.88 -4.44583 1.21929 0
M  V30 32204 H 3054.43 -5.26902 4.57187 0
M  V30 32205 H 3050.32 -5.51088 3.36114 0
M  V30 32206 H 3051.09 -6.23022 5.30836 0
M  V30 32207 N 3053.75 -0.532597 -1.48328 0
M  V30 32208 C 3055 0.000545682 -2.021 0
M  V30 32209 C 3055.32 1.34519 -1.41172 0
M  V30 32210 O 3054.59 1.87178 -0.578038 0
M  V30 32211 H 3053.17 0.00318968 -0.746993 0
M  V30 32212 H 3055.84 -0.697023 -1.8201 0
M  V30 32213 H 3054.93 0.106936 -3.11917 0
M  V30 32214 N 3055.23 1.55307 -0.267853 0
M  V30 32215 C 3056.51 1.91416 0.402416 0
M  V30 32216 C 3056.89 1.19123 1.74278 0
M  V30 32217 O 3056.24 0.315649 2.26309 0
M  V30 32218 C 3056.45 3.44641 0.549865 0
M  V30 32219 C 3057.8 4.16286 0.836115 0
M  V30 32220 O 3058.82 3.50495 0.634948 0
M  V30 32221 O 3057.68 5.32699 1.22041 0
M  V30 32222 H 3054.77 0.797431 0.219163 0
M  V30 32223 H 3057.32 1.6678 -0.313469 0
M  V30 32224 H 3056.09 3.89314 -0.39371 0
M  V30 32225 H 3055.71 3.75207 1.3155 0
M  V30 32226 N 3056.71 -0.00497598 1.57599 0
M  V30 32227 C 3057.99 -0.727622 1.81563 0
M  V30 32228 C 3058.37 -1.92265 0.871638 0
M  V30 32229 O 3057.72 -2.28357 -0.0807831 0
M  V30 32230 C 3057.93 -1.13803 3.29924 0
M  V30 32231 C 3059.27 -1.54396 3.95534 0
M  V30 32232 O 3060.3 -1.23196 3.34217 0
M  V30 32233 O 3059.16 -2.12393 5.03539 0
M  V30 32234 H 3056.25 -0.353865 0.747468 0
M  V30 32235 H 3058.8 0.0200965 1.69688 0
M  V30 32236 H 3057.57 -0.286009 3.90253 0
M  V30 32237 H 3057.19 -1.94501 3.46778 0
M  V30 32238 N 3058.19 -1.55135 -0.277654 0
M  V30 32239 C 3059.43 -1.75782 -1.01137 0
M  V30 32240 C 3059.77 -0.554752 -1.86108 0
M  V30 32241 O 3059.04 0.44778 -1.89275 0
M  V30 32242 C 3059.33 -3.0603 -1.89783 0
M  V30 32243 C 3059.18 -4.36682 -1.07836 0
M  V30 32244 C 3060.5 -3.32287 -2.88571 0
M  V30 32245 H 3057.62 -0.639546 -0.366265 0
M  V30 32246 H 3060.26 -1.87864 -0.284122 0
M  V30 32247 H 3058.41 -2.95861 -2.51791 0
M  V30 32248 H 3060.08 -4.58803 -0.479351 0
M  V30 32249 H 3058.32 -4.32118 -0.381688 0
M  V30 32250 H 3058.99 -5.24134 -1.7317 0
M  V30 32251 H 3061.47 -3.42219 -2.36696 0
M  V30 32252 H 3060.35 -4.24696 -3.47742 0
M  V30 32253 H 3060.61 -2.51702 -3.63453 0
M  V30 32254 N 3059.67 0.541953 -1.47989 0
M  V30 32255 C 3060.92 1.29482 -1.54652 0
M  V30 32256 C 3061.23 1.94358 -0.220075 0
M  V30 32257 O 3062.43 2.70999 -0.164839 0
M  V30 32258 C 3060.89 2.3488 -2.72689 0
M  V30 32259 C 3060.5 1.76127 -4.11926 0
M  V30 32260 C 3062.24 3.11252 -2.88657 0
M  V30 32261 C 3060.15 2.79395 -5.21241 0
M  V30 32262 H 3059.08 0.486918 -0.575697 0
M  V30 32263 H 3061.73 0.573823 -1.74297 0
M  V30 32264 H 3060.11 3.09962 -2.46454 0
M  V30 32265 H 3061.29 1.07314 -4.4813 0
M  V30 32266 H 3059.6 1.12288 -4.00974 0
M  V30 32267 H 3062.2 3.88397 -3.67494 0
M  V30 32268 H 3062.54 3.6638 -1.97665 0
M  V30 32269 H 3063.07 2.43283 -3.14735 0
M  V30 32270 H 3059.81 2.29102 -6.1416 0
M  V30 32271 H 3059.33 3.46571 -4.89539 0
M  V30 32272 H 3061.01 3.42605 -5.48845 0
M  V30 32273 N 3061.15 1.36376 0.789896 0
M  V30 32274 C 3062.11 1.30513 1.88412 0
M  V30 32275 C 3063.11 0.212928 1.59384 0
M  V30 32276 O 3064.3 0.467681 1.67805 0
M  V30 32277 C 3061.43 1.02307 3.25186 0
M  V30 32278 H 3062.62 2.27826 1.95027 0
M  V30 32279 H 3060.18 1.21142 0.987643 0
M  V30 32280 H 3060.91 0.0545056 3.24254 0
M  V30 32281 H 3060.7 1.81345 3.47644 0
M  V30 32282 H 3062.19 1.00809 4.0525 0
M  V30 32283 N 3062.62 -1.014 1.20647 0
M  V30 32284 C 3063.85 -1.7917 1.04465 0
M  V30 32285 C 3064.27 -1.83764 -0.401556 0
M  V30 32286 O 3063.63 -1.27461 -1.28932 0
M  V30 32287 C 3063.68 -3.21358 1.63589 0
M  V30 32288 O 3062.78 -4.03005 0.875268 0
M  V30 32289 H 3062.12 -0.552532 0.368245 0
M  V30 32290 H 3064.65 -1.27523 1.59997 0
M  V30 32291 H 3064.66 -3.72062 1.67433 0
M  V30 32292 H 3063.34 -3.17329 2.6884 0
M  V30 32293 H 3061.92 -3.61595 0.911235 0
M  V30 32294 N 3064.1 -1.01278 -1.2075 0
M  V30 32295 C 3065.33 -0.717968 -1.93723 0
M  V30 32296 C 3065.74 0.724702 -1.7477 0
M  V30 32297 O 3065.08 1.50283 -1.05644 0
M  V30 32298 C 3065.14 -0.969015 -3.46194 0
M  V30 32299 C 3064.81 -2.40005 -3.88904 0
M  V30 32300 C 3065.81 -3.38068 -3.94976 0
M  V30 32301 C 3063.49 -2.73977 -4.21001 0
M  V30 32302 C 3065.48 -4.68166 -4.32549 0
M  V30 32303 C 3063.17 -4.0429 -4.5825 0
M  V30 32304 C 3064.17 -5.01196 -4.63996 0
M  V30 32305 O 3063.86 -6.29177 -5.00392 0
M  V30 32306 H 3063.59 -0.263197 -0.622658 0
M  V30 32307 H 3066.14 -1.3558 -1.54296 0
M  V30 32308 H 3064.37 -0.27402 -3.85728 0
M  V30 32309 H 3066.06 -0.666382 -4.00393 0
M  V30 32310 H 3066.83 -3.13157 -3.70348 0
M  V30 32311 H 3062.71 -1.9924 -4.15722 0
M  V30 32312 H 3066.25 -5.43803 -4.36949 0
M  V30 32313 H 3062.15 -4.28981 -4.82333 0
M  V30 32314 H 3062.92 -6.33408 -5.18398 0
M  V30 32315 N 3065.58 1.36456 -0.788516 0
M  V30 32316 C 3066.99 1.81827 -0.423774 0
M  V30 32317 C 3067.34 1.65601 1.05218 0
M  V30 32318 O 3066.47 1.17645 1.81628 0
M  V30 32319 C 3067.06 3.3011 -0.762412 0
M  V30 32320 C 3065.62 3.73694 -0.450511 0
M  V30 32321 C 3064.77 2.58737 -0.997527 0
M  V30 32322 H 3067.72 1.2469 -0.98174 0
M  V30 32323 H 3067.74 3.80463 -0.0531805 0
M  V30 32324 H 3067.25 3.41888 -1.83668 0
M  V30 32325 H 3065.35 3.67477 0.615764 0
M  V30 32326 H 3065.47 4.69168 -0.970491 0
M  V30 32327 H 3063.83 2.512 -0.420805 0
M  V30 32328 H 3064.61 2.733 -2.07754 0
M  V30 32329 N 3067.06 0.540456 1.48043 0
M  V30 32330 C 3068.3 0.0183734 2.03392 0
M  V30 32331 C 3068.66 -1.31002 1.40912 0
M  V30 32332 O 3067.95 -1.83554 0.549407 0
M  V30 32333 C 3068.15 -0.149945 3.57085 0
M  V30 32334 C 3067.97 1.16058 4.34466 0
M  V30 32335 C 3066.74 1.72332 4.75005 0
M  V30 32336 C 3068.94 2.07376 4.70637 0
M  V30 32337 N 3066.92 2.97564 5.36962 0
M  V30 32338 C 3068.3 3.17185 5.32723 0
M  V30 32339 C 3070.35 2.07575 4.52567 0
M  V30 32340 C 3069.05 4.27271 5.78647 0
M  V30 32341 C 3071.08 3.16662 4.99479 0
M  V30 32342 C 3070.44 4.2519 5.61599 0
M  V30 32343 H 3066.54 0.0484789 0.780496 0
M  V30 32344 H 3069.12 0.72405 1.80736 0
M  V30 32345 H 3067.3 -0.82472 3.79543 0
M  V30 32346 H 3069.03 -0.672579 3.99072 0
M  V30 32347 H 3065.78 1.26339 4.56438 0
M  V30 32348 H 3066.21 3.61351 5.72498 0
M  V30 32349 H 3070.85 1.24959 4.03912 0
M  V30 32350 H 3068.57 5.10658 6.26302 0
M  V30 32351 H 3072.15 3.17883 4.8728 0
M  V30 32352 H 3071.03 5.08208 5.97239 0
M  V30 32353 N 3068.54 -1.55163 0.276085 0
M  V30 32354 C 3069.95 -1.85382 -0.221483 0
M  V30 32355 C 3070.3 -1.1981 -1.5537 0
M  V30 32356 O 3069.42 -0.48678 -2.10854 0
M  V30 32357 C 3070.02 -3.36327 -0.408647 0
M  V30 32358 C 3068.58 -3.66667 -0.850447 0
M  V30 32359 C 3067.72 -2.77244 0.0557047 0
M  V30 32360 H 3070.67 -1.50689 0.497845 0
M  V30 32361 H 3070.7 -3.59484 -1.24705 0
M  V30 32362 H 3070.21 -3.84022 0.561119 0
M  V30 32363 H 3068.31 -3.24471 -1.83165 0
M  V30 32364 H 3068.42 -4.74147 -0.687097 0
M  V30 32365 H 3066.79 -2.50497 -0.460775 0
M  V30 32366 H 3067.57 -3.27754 1.02137 0
M  V30 32367 N 3070.01 -0.00338196 -1.576 0
M  V30 32368 C 3071.26 0.679967 -1.89893 0
M  V30 32369 C 3071.58 1.74749 -0.878762 0
M  V30 32370 O 3072.78 2.4857 -1.09203 0
M  V30 32371 C 3071.24 1.2606 -3.37101 0
M  V30 32372 C 3070.85 0.227728 -4.47421 0
M  V30 32373 C 3072.59 1.92195 -3.78499 0
M  V30 32374 C 3070.5 0.818547 -5.85708 0
M  V30 32375 H 3069.43 0.257733 -0.708583 0
M  V30 32376 H 3072.08 -0.0644795 -1.83387 0
M  V30 32377 H 3070.46 2.05583 -3.38455 0
M  V30 32378 H 3071.63 -0.543151 -4.57588 0
M  V30 32379 H 3069.95 -0.33337 -4.15063 0
M  V30 32380 H 3072.55 2.37309 -4.79154 0
M  V30 32381 H 3072.89 2.75394 -3.12192 0
M  V30 32382 H 3073.42 1.19401 -3.79458 0
M  V30 32383 H 3070.16 0.0252635 -6.55495 0
M  V30 32384 H 3069.68 1.55851 -5.79198 0
M  V30 32385 H 3071.36 1.31616 -6.33472 0
M  V30 32386 N 3071.49 1.5528 0.269423 0
M  V30 32387 C 3072.77 1.66774 1.02204 0
M  V30 32388 C 3073.15 0.536572 2.04167 0
M  V30 32389 O 3072.5 -0.462917 2.23762 0
M  V30 32390 C 3072.71 3.06143 1.67564 0
M  V30 32391 C 3074.05 3.64009 2.18593 0
M  V30 32392 O 3075.08 3.08799 1.77544 0
M  V30 32393 O 3073.94 4.60747 2.93895 0
M  V30 32394 H 3071.03 0.677471 0.474302 0
M  V30 32395 H 3073.58 1.67618 0.264997 0
M  V30 32396 H 3072.35 3.79917 0.936962 0
M  V30 32397 H 3071.97 3.09213 2.49946 0
M  V30 32398 N 3072.97 -0.534097 1.48274 0
M  V30 32399 C 3073.93 -1.62124 1.62013 0
M  V30 32400 C 3074.93 -1.53034 0.49368 0
M  V30 32401 O 3076.12 -1.56778 0.759364 0
M  V30 32402 C 3073.25 -3.01736 1.58645 0
M  V30 32403 H 3074.45 -1.51284 2.58946 0
M  V30 32404 H 3072 -0.755837 1.36809 0
M  V30 32405 H 3072.74 -3.18087 0.631741 0
M  V30 32406 H 3072.52 -3.09743 2.4042 0
M  V30 32407 H 3074.01 -3.80784 1.71445 0
M  V30 32408 N 3074.45 -1.36793 -0.782652 0
M  V30 32409 C 3075.67 -1.34735 -1.57674 0
M  V30 32410 C 3076.1 0.0674923 -1.87979 0
M  V30 32411 O 3075.46 1.04141 -1.48406 0
M  V30 32412 C 3075.5 -2.18262 -2.87044 0
M  V30 32413 O 3074.61 -1.57976 -3.80943 0
M  V30 32414 H 3073.95 -0.460855 -0.478026 0
M  V30 32415 H 3076.48 -1.80169 -0.969547 0
M  V30 32416 H 3076.49 -2.31085 -3.3625 0
M  V30 32417 H 3075.16 -3.21109 -2.64314 0
M  V30 32418 H 3073.74 -1.54132 -3.39555 0
M  V30 32419 N 3075.93 1.00759 -1.21184 0
M  V30 32420 C 3076.86 2.11342 -0.99281 0
M  V30 32421 C 3077.84 1.69905 0.081332 0
M  V30 32422 O 3079.02 1.94043 -0.0779844 0
M  V30 32423 C 3076.15 3.42855 -0.553887 0
M  V30 32424 C 3075.11 3.98074 -1.5723 0
M  V30 32425 C 3074.43 5.25461 -0.989698 0
M  V30 32426 C 3075.73 4.30433 -2.95846 0
M  V30 32427 H 3077.43 2.29923 -1.9177 0
M  V30 32428 H 3074.97 1.10492 -0.923446 0
M  V30 32429 H 3076.93 4.19611 -0.387844 0
M  V30 32430 H 3075.65 3.24059 0.406645 0
M  V30 32431 H 3074.31 3.23434 -1.72586 0
M  V30 32432 H 3073.96 5.02996 -0.0209627 0
M  V30 32433 H 3073.66 5.63371 -1.66993 0
M  V30 32434 H 3075.18 6.04865 -0.834921 0
M  V30 32435 H 3076.59 4.98042 -2.83949 0
M  V30 32436 H 3074.99 4.79479 -3.6086 0
M  V30 32437 H 3076.06 3.38817 -3.46888 0
M  V30 32438 N 3077.4 1.01917 1.20211 0
M  V30 32439 C 3078.33 0.612063 2.25335 0
M  V30 32440 C 3079.32 -0.374156 1.65934 0
M  V30 32441 O 3080.5 -0.259019 1.92465 0
M  V30 32442 C 3077.63 -0.047843 3.47267 0
M  V30 32443 C 3076.58 0.859631 4.19278 0
M  V30 32444 C 3075.91 0.0653594 5.3466 0
M  V30 32445 C 3077.21 2.16888 4.75139 0
M  V30 32446 H 3078.9 1.49084 2.59643 0
M  V30 32447 H 3076.45 0.718285 1.24807 0
M  V30 32448 H 3078.4 -0.344221 4.19992 0
M  V30 32449 H 3077.13 -0.96135 3.12131 0
M  V30 32450 H 3075.79 1.14005 3.48423 0
M  V30 32451 H 3075.43 -0.849877 4.95768 0
M  V30 32452 H 3075.13 0.669721 5.83771 0
M  V30 32453 H 3076.66 -0.224504 6.10187 0
M  V30 32454 H 3078.07 1.93469 5.39669 0
M  V30 32455 H 3076.47 2.72432 5.34697 0
M  V30 32456 H 3077.54 2.83015 3.93739 0
M  V30 32457 N 3078.88 -1.36036 0.795742 0
M  V30 32458 C 3079.85 -2.28287 0.204358 0
M  V30 32459 C 3080.85 -1.49106 -0.601991 0
M  V30 32460 O 3082.04 -1.6901 -0.42206 0
M  V30 32461 C 3079.17 -3.33288 -0.716373 0
M  V30 32462 H 3080.36 -2.82098 1.01786 0
M  V30 32463 H 3077.91 -1.45707 0.565613 0
M  V30 32464 H 3078.65 -2.84644 -1.55398 0
M  V30 32465 H 3078.43 -3.9185 -0.140028 0
M  V30 32466 H 3079.92 -4.02166 -1.12481 0
M  V30 32467 N 3080.36 -0.5483 -1.47755 0
M  V30 32468 C 3081.27 0.207732 -2.33678 0
M  V30 32469 C 3082.29 0.920817 -1.47638 0
M  V30 32470 O 3083.46 0.891699 -1.80584 0
M  V30 32471 C 3080.53 1.22997 -3.24149 0
M  V30 32472 C 3079.59 0.525275 -4.26074 0
M  V30 32473 C 3078.82 1.49881 -5.12222 0
M  V30 32474 O 3079.04 2.73296 -5.00665 0
M  V30 32475 O 3077.98 1.02818 -5.93053 0
M  V30 32476 H 3081.8 -0.496847 -2.99608 0
M  V30 32477 H 3079.39 -0.309008 -1.46169 0
M  V30 32478 H 3081.27 1.82027 -3.80058 0
M  V30 32479 H 3079.95 1.91663 -2.60858 0
M  V30 32480 H 3078.85 -0.105993 -3.7395 0
M  V30 32481 H 3080.19 -0.119773 -4.92054 0
M  V30 32482 N 3081.84 1.55014 -0.28431 0
M  V30 32483 C 3082.8 2.21578 0.586143 0
M  V30 32484 C 3083.8 1.19652 1.07425 0
M  V30 32485 O 3084.99 1.44497 0.972951 0
M  V30 32486 C 3082.12 2.889 1.80968 0
M  V30 32487 H 3083.32 2.999 0.00481982 0
M  V30 32488 H 3080.87 1.56261 -0.0349971 0
M  V30 32489 H 3081.6 2.14615 2.43127 0
M  V30 32490 H 3081.39 3.63602 1.4675 0
M  V30 32491 H 3082.88 3.39728 2.42847 0
M  V30 32492 N 3083.32 0.0117398 1.57596 0
M  V30 32493 C 3084.56 -0.669309 1.90695 0
M  V30 32494 C 3084.89 -1.73657 0.88703 0
M  V30 32495 O 3084.16 -1.9576 -0.0739435 0
M  V30 32496 H 3082.74 -0.250207 0.703851 0
M  V30 32497 H 3085.4 0.05544 1.94821 0
M  V30 32498 H 3084.49 -1.13311 2.90804 0
M  V30 32499 N 3084.79 -1.55421 -0.261185 0
M  V30 32500 C 3085.74 -1.89109 -1.32311 0
M  V30 32501 C 3086.71 -0.743794 -1.48516 0
M  V30 32502 O 3087.9 -0.996151 -1.62731 0
M  V30 32503 C 3085.04 -2.17881 -2.67622 0
M  V30 32504 C 3084.15 -3.45342 -2.59543 0
M  V30 32505 C 3083.28 -3.63755 -3.87112 0
M  V30 32506 C 3082.32 -4.84867 -3.73591 0
M  V30 32507 N 3081.46 -4.99875 -4.9302 0
M  V30 32508 H 3086.3 -2.79677 -1.02882 0
M  V30 32509 H 3083.84 -1.38457 -0.496787 0
M  V30 32510 H 3085.8 -2.32565 -3.46366 0
M  V30 32511 H 3084.43 -1.30534 -2.9523 0
M  V30 32512 H 3083.48 -3.39067 -1.72446 0
M  V30 32513 H 3084.79 -4.34226 -2.45457 0
M  V30 32514 H 3083.94 -3.7832 -4.74298 0
M  V30 32515 H 3082.68 -2.73078 -4.04079 0
M  V30 32516 H 3081.69 -4.70293 -2.84789 0
M  V30 32517 H 3082.91 -5.7699 -3.58133 0
M  V30 32518 H 3080.86 -4.12132 -5.10376 0
M  V30 32519 H 3080.78 -5.82824 -4.8151 0
M  V30 32520 H 3082.04 -5.18838 -5.81745 0
M  V30 32521 N 3086.27 0.526227 -1.48555 0
M  V30 32522 C 3087.55 1.28746 -1.47254 0
M  V30 32523 C 3087.93 2.10276 -0.186281 0
M  V30 32524 O 3087.28 2.12818 0.831916 0
M  V30 32525 C 3087.49 2.1657 -2.73675 0
M  V30 32526 C 3088.84 2.76588 -3.22156 0
M  V30 32527 O 3089.86 2.26855 -2.74618 0
M  V30 32528 O 3088.72 3.67059 -4.04883 0
M  V30 32529 H 3085.81 0.581282 -0.588252 0
M  V30 32530 H 3088.36 0.542572 -1.60793 0
M  V30 32531 H 3087.13 1.56133 -3.58801 0
M  V30 32532 H 3086.75 2.98299 -2.62876 0
M  V30 32533 N 3087.75 1.37206 0.775387 0
M  V30 32534 C 3088.98 1.35203 1.56217 0
M  V30 32535 C 3089.39 -0.0654227 1.89087 0
M  V30 32536 O 3088.73 -1.03662 1.51657 0
M  V30 32537 C 3088.79 2.12208 2.90186 0
M  V30 32538 C 3088.46 3.612 2.79971 0
M  V30 32539 C 3089.45 4.55159 2.5125 0
M  V30 32540 C 3087.14 4.04274 2.98107 0
M  V30 32541 C 3089.13 5.90169 2.40788 0
M  V30 32542 C 3086.82 5.39371 2.87266 0
M  V30 32543 C 3087.82 6.32132 2.58646 0
M  V30 32544 O 3087.51 7.64747 2.47824 0
M  V30 32545 H 3087.24 0.464933 0.490727 0
M  V30 32546 H 3089.79 1.81097 0.969169 0
M  V30 32547 H 3088.02 1.60998 3.51591 0
M  V30 32548 H 3089.71 2.02885 3.51557 0
M  V30 32549 H 3090.48 4.23191 2.36928 0
M  V30 32550 H 3086.36 3.32435 3.19387 0
M  V30 32551 H 3089.9 6.62541 2.1837 0
M  V30 32552 H 3085.8 5.70943 3.01156 0
M  V30 32553 H 3086.57 7.75027 2.63201 0
M  V30 32554 N 3089.23 -1.00115 1.21716 0
M  V30 32555 C 3090.48 -1.73605 1.03468 0
M  V30 32556 C 3090.8 -1.90149 -0.432261 0
M  V30 32557 O 3090.07 -1.45518 -1.31154 0
M  V30 32558 H 3088.65 -0.643202 0.379868 0
M  V30 32559 H 3091.31 -1.20621 1.5309 0
M  V30 32560 H 3090.41 -2.73373 1.50578 0
M  V30 32561 N 3090.71 -1.02553 -1.19669 0
M  V30 32562 C 3091.64 -0.624004 -2.25008 0
M  V30 32563 C 3092.62 0.365351 -1.6613 0
M  V30 32564 O 3093.8 0.248809 -1.926 0
M  V30 32565 C 3090.93 0.0294259 -3.47288 0
M  V30 32566 C 3089.89 -0.881854 -4.18817 0
M  V30 32567 C 3089.21 -0.0937128 -5.34618 0
M  V30 32568 C 3090.51 -2.19405 -4.73982 0
M  V30 32569 H 3092.21 -1.50459 -2.58849 0
M  V30 32570 H 3089.75 -0.724893 -1.24424 0
M  V30 32571 H 3091.71 0.321943 -4.20168 0
M  V30 32572 H 3090.43 0.944783 -3.12636 0
M  V30 32573 H 3089.09 -1.15851 -3.47813 0
M  V30 32574 H 3088.74 0.823574 -4.96212 0
M  V30 32575 H 3088.44 -0.70067 -5.83408 0
M  V30 32576 H 3089.96 0.192142 -6.10298 0
M  V30 32577 H 3091.38 -1.96329 -5.38635 0
M  V30 32578 H 3089.77 -2.75263 -5.33245 0
M  V30 32579 H 3090.84 -2.85099 -3.92233 0
M  V30 32580 N 3092.19 1.35612 -0.802945 0
M  V30 32581 C 3093.43 1.98124 -0.378122 0
M  V30 32582 C 3093.75 1.6442 1.0595 0
M  V30 32583 O 3094.95 2.20269 1.58725 0
M  V30 32584 C 3093.41 3.54429 -0.625139 0
M  V30 32585 C 3093.02 3.97046 -2.07506 0
M  V30 32586 C 3094.76 4.23669 -0.265493 0
M  V30 32587 C 3092.67 5.46182 -2.26802 0
M  V30 32588 H 3091.6 0.74133 -0.137646 0
M  V30 32589 H 3094.25 1.54728 -0.986489 0
M  V30 32590 H 3092.63 3.95964 0.0531279 0
M  V30 32591 H 3093.81 3.66673 -2.79084 0
M  V30 32592 H 3092.12 3.40684 -2.39423 0
M  V30 32593 H 3094.72 5.33292 -0.387763 0
M  V30 32594 H 3095.06 4.08776 0.787922 0
M  V30 32595 H 3095.59 3.87543 -0.897532 0
M  V30 32596 H 3092.33 5.66039 -3.30576 0
M  V30 32597 H 3091.85 5.78136 -1.59745 0
M  V30 32598 H 3093.53 6.12594 -2.08176 0
M  V30 32599 N 3093.66 0.556128 1.47462 0
M  V30 32600 C 3094.6 -0.239987 2.26935 0
M  V30 32601 C 3095.57 -0.921273 1.33983 0
M  V30 32602 O 3096.76 -0.940477 1.63362 0
M  V30 32603 C 3093.89 -1.34189 3.10984 0
M  V30 32604 C 3092.93 -0.769268 4.19505 0
M  V30 32605 S 3093.76 0.383303 5.34126 0
M  V30 32606 C 3094.92 -0.720439 6.2174 0
M  V30 32607 H 3095.15 0.434399 2.94109 0
M  V30 32608 H 3092.69 0.342429 1.50555 0
M  V30 32609 H 3094.64 -1.97294 3.5998 0
M  V30 32610 H 3093.31 -1.9881 2.43173 0
M  V30 32611 H 3092.5 -1.5967 4.78039 0
M  V30 32612 H 3092.1 -0.21441 3.73385 0
M  V30 32613 H 3094.39 -1.61281 6.58023 0
M  V30 32614 H 3095.34 -0.172478 7.0789 0
M  V30 32615 H 3095.74 -1.01262 5.55343 0
M  V30 32616 N 3095.14 -1.54861 0.292527 0
M  V30 32617 C 3096.37 -2.04378 -0.322078 0
M  V30 32618 C 3096.78 -1.17019 -1.48162 0
M  V30 32619 O 3096.14 -0.193982 -1.81466 0
M  V30 32620 C 3096.19 -3.52842 -0.786444 0
M  V30 32621 O 3095.91 -4.36878 0.326939 0
M  V30 32622 C 3097.41 -4.1832 -1.46708 0
M  V30 32623 H 3094.63 -0.667212 -0.0711956 0
M  V30 32624 H 3097.18 -1.99935 0.429692 0
M  V30 32625 H 3095.33 -3.57673 -1.48826 0
M  V30 32626 H 3095.75 -5.2449 -0.0330636 0
M  V30 32627 H 3097.22 -5.23751 -1.74324 0
M  V30 32628 H 3097.7 -3.67542 -2.40436 0
M  V30 32629 H 3098.3 -4.17541 -0.808662 0
M  V30 32630 N 3096.62 -0.0200973 -1.57587 0
M  V30 32631 C 3098.03 0.519987 -1.79313 0
M  V30 32632 C 3098.38 1.72785 -0.929506 0
M  V30 32633 O 3097.51 2.15963 -0.137427 0
M  V30 32634 C 3098.1 0.950115 -3.25205 0
M  V30 32635 C 3096.66 1.43537 -3.47957 0
M  V30 32636 C 3095.81 0.395868 -2.7446 0
M  V30 32637 H 3098.76 -0.246181 -1.56779 0
M  V30 32638 H 3098.78 1.81502 -3.34421 0
M  V30 32639 H 3098.29 0.0708148 -3.88035 0
M  V30 32640 H 3096.39 2.3349 -2.90367 0
M  V30 32641 H 3096.51 1.44897 -4.56664 0
M  V30 32642 H 3094.87 0.86198 -2.39671 0
M  V30 32643 H 3095.65 -0.47481 -3.40001 0
M  V30 32644 N 3098.1 1.55557 0.252939 0
M  V30 32645 C 3099.06 1.89013 1.29641 0
M  V30 32646 C 3100.06 0.766121 1.41376 0
M  V30 32647 O 3101.25 1.03416 1.40181 0
M  V30 32648 C 3098.38 2.11321 2.675 0
M  V30 32649 H 3099.58 2.8231 1.01197 0
M  V30 32650 H 3097.13 1.48356 0.491951 0
M  V30 32651 H 3097.86 1.20472 3.01093 0
M  V30 32652 H 3097.65 2.93177 2.60365 0
M  V30 32653 H 3099.14 2.38409 3.42857 0
M  V30 32654 N 3099.58 -0.518341 1.48832 0
M  V30 32655 C 3100.85 -1.27963 1.47935 0
M  V30 32656 C 3101.23 -2.10175 0.19743 0
M  V30 32657 O 3100.58 -2.13256 -0.820619 0
M  V30 32658 C 3100.79 -2.15116 2.7482 0
M  V30 32659 C 3102.14 -2.74875 3.23618 0
M  V30 32660 O 3103.16 -2.25395 2.75818 0
M  V30 32661 O 3102.02 -3.64906 4.06824 0
M  V30 32662 H 3099.12 -0.578154 0.591327 0
M  V30 32663 H 3101.66 -0.534037 1.61078 0
M  V30 32664 H 3100.43 -1.54228 3.59624 0
M  V30 32665 H 3100.06 -2.96901 2.64454 0
M  V30 32666 N 3101.05 -1.37615 -0.7681 0
M  V30 32667 C 3102 -1.33674 -1.88149 0
M  V30 32668 C 3102.97 -0.201674 -1.64871 0
M  V30 32669 O 3104.16 -0.391614 -1.86738 0
M  V30 32670 C 3101.3 -1.1532 -3.25262 0
M  V30 32671 C 3100.41 -2.38088 -3.60469 0
M  V30 32672 C 3099.54 -2.12578 -4.8681 0
M  V30 32673 C 3098.58 -3.31193 -5.14759 0
M  V30 32674 N 3097.72 -3.05211 -6.3229 0
M  V30 32675 H 3102.56 -2.28865 -1.90853 0
M  V30 32676 H 3100.1 -1.13723 -0.933028 0
M  V30 32677 H 3102.05 -1.02699 -4.04362 0
M  V30 32678 H 3100.68 -0.237745 -3.21923 0
M  V30 32679 H 3099.74 -2.61436 -2.76325 0
M  V30 32680 H 3101.05 -3.26539 -3.7706 0
M  V30 32681 H 3100.2 -1.97009 -5.73823 0
M  V30 32682 H 3098.94 -1.2147 -4.72331 0
M  V30 32683 H 3097.95 -3.47297 -4.26221 0
M  V30 32684 H 3099.17 -4.23157 -5.31145 0
M  V30 32685 H 3097.12 -2.16736 -6.19162 0
M  V30 32686 H 3097.03 -3.87206 -6.49313 0
M  V30 32687 H 3098.3 -2.93267 -7.22229 0
M  V30 32688 N 3102.53 0.994677 -1.22245 0
M  V30 32689 C 3103.78 1.73054 -1.04387 0
M  V30 32690 C 3104.1 1.90375 0.422171 0
M  V30 32691 O 3103.37 1.46211 1.30381 0
M  V30 32692 H 3101.95 0.641179 -0.383274 0
M  V30 32693 H 3104.61 1.19808 -1.53728 0
M  V30 32694 H 3103.71 2.7257 -1.52026 0
M  V30 32695 N 3104.01 1.03186 1.19123 0
M  V30 32696 C 3104.92 0.625369 2.26111 0
M  V30 32697 C 3105.94 -0.344268 1.7056 0
M  V30 32698 O 3107.11 -0.201404 2.0039 0
M  V30 32699 C 3104.18 -0.0144559 3.46697 0
M  V30 32700 C 3103.24 1.00306 4.17417 0
M  V30 32701 C 3102.47 0.393675 5.32246 0
M  V30 32702 O 3102.69 -0.802559 5.64726 0
M  V30 32703 O 3101.63 1.118 5.91426 0
M  V30 32704 H 3105.45 1.51648 2.63129 0
M  V30 32705 H 3103.04 0.80222 1.26035 0
M  V30 32706 H 3104.92 -0.371065 4.19763 0
M  V30 32707 H 3103.6 -0.879526 3.11522 0
M  V30 32708 H 3102.5 1.41131 3.46458 0
M  V30 32709 H 3103.84 1.8386 4.5657 0
M  V30 32710 N 3105.49 -1.35184 0.810125 0
M  V30 32711 C 3106.73 -2.00491 0.397837 0
M  V30 32712 C 3107.09 -1.62865 -1.01681 0
M  V30 32713 O 3108.29 -2.20918 -1.53129 0
M  V30 32714 C 3106.56 -3.52669 0.579586 0
M  V30 32715 S 3108.12 -4.38039 0.258246 0
M  V30 32716 H 3104.94 -0.694799 0.150917 0
M  V30 32717 H 3107.54 -1.64709 1.05315 0
M  V30 32718 H 3106.25 -3.77541 1.60908 0
M  V30 32719 H 3105.78 -3.93295 -0.0909195 0
M  V30 32720 H 3107.79 -4.87353 -0.932797 0
M  V30 32721 N 3106.97 -0.56394 -1.47165 0
M  V30 32722 C 3108.21 -0.0424066 -2.02456 0
M  V30 32723 C 3108.54 1.31013 -1.43756 0
M  V30 32724 O 3107.8 1.86742 -0.58532 0
M  V30 32725 C 3108.1 0.0931169 -3.57279 0
M  V30 32726 C 3107.76 -1.1894 -4.3493 0
M  V30 32727 C 3106.42 -1.54081 -4.55864 0
M  V30 32728 C 3108.78 -2.03897 -4.79662 0
M  V30 32729 C 3106.1 -2.74014 -5.18781 0
M  V30 32730 C 3108.46 -3.23039 -5.43902 0
M  V30 32731 C 3107.12 -3.58485 -5.63067 0
M  V30 32732 H 3106.39 -0.0155177 -0.740838 0
M  V30 32733 H 3109.04 -0.736807 -1.76758 0
M  V30 32734 H 3107.34 0.870529 -3.82007 0
M  V30 32735 H 3109.04 0.512106 -3.97717 0
M  V30 32736 H 3105.63 -0.905792 -4.18919 0
M  V30 32737 H 3109.81 -1.78054 -4.63261 0
M  V30 32738 H 3105.07 -3.01637 -5.31813 0
M  V30 32739 H 3109.24 -3.89151 -5.77524 0
M  V30 32740 H 3106.87 -4.51511 -6.1159 0
M  V30 32741 N 3108.44 1.54704 -0.300735 0
M  V30 32742 C 3109.39 2.24961 0.591225 0
M  V30 32743 C 3110.39 1.25552 1.13723 0
M  V30 32744 O 3111.59 1.43404 1.0879 0
M  V30 32745 H 3107.97 0.722296 0.209265 0
M  V30 32746 H 3109.94 2.9839 -0.0238699 0
M  V30 32747 C 3108.69 3.00349 1.75174 0
M  V30 32748 H 3108.01 3.76646 1.34082 0
M  V30 32749 H 3109.45 3.5279 2.35192 0
M  V30 32750 C 3107.91 2.07302 2.6557 0
M  V30 32751 O 3108.44 1.64089 3.66657 0
M  V30 32752 N 3106.65 1.73264 2.33298 0
M  V30 32753 H 3106.19 2.08602 1.51139 0
M  V30 32754 H 3106.15 1.11283 2.94047 0
M  V30 32755 N 3109.92 0.0284543 1.57574 0
M  V30 32756 C 3110.83 -0.969322 2.13638 0
M  V30 32757 C 3111.85 -1.3575 1.08848 0
M  V30 32758 O 3113.02 -1.43905 1.40902 0
M  V30 32759 C 3110.09 -2.23335 2.65183 0
M  V30 32760 C 3109.15 -1.90565 3.84686 0
M  V30 32761 C 3108.38 -3.10942 4.33763 0
M  V30 32762 O 3108.61 -4.23579 3.82017 0
M  V30 32763 O 3107.54 -2.93279 5.25615 0
M  V30 32764 H 3111.37 -0.522617 2.9917 0
M  V30 32765 H 3108.95 -0.192109 1.4816 0
M  V30 32766 H 3110.83 -2.97541 2.98408 0
M  V30 32767 H 3109.51 -2.67188 1.82735 0
M  V30 32768 H 3108.42 -1.13746 3.56388 0
M  V30 32769 H 3109.75 -1.51529 4.68294 0
M  V30 32770 N 3111.4 -1.55689 -0.244686 0
M  V30 32771 C 3112.65 -1.77887 -0.973855 0
M  V30 32772 C 3112.98 -0.594104 -1.84889 0
M  V30 32773 O 3112.25 0.407531 -1.90183 0
M  V30 32774 C 3112.54 -3.09987 -1.83249 0
M  V30 32775 C 3112.39 -4.38871 -0.985494 0
M  V30 32776 C 3113.71 -3.38334 -2.81458 0
M  V30 32777 H 3110.83 -0.647171 -0.352617 0
M  V30 32778 H 3113.47 -1.88424 -0.24421 0
M  V30 32779 H 3111.62 -3.01135 -2.45459 0
M  V30 32780 H 3113.29 -4.59716 -0.381924 0
M  V30 32781 H 3111.54 -4.3283 -0.289944 0
M  V30 32782 H 3112.21 -5.27689 -1.62013 0
M  V30 32783 H 3114.68 -3.47163 -2.29384 0
M  V30 32784 H 3113.56 -4.31977 -3.38655 0
M  V30 32785 H 3113.82 -2.59355 -3.58033 0
M  V30 32786 N 3112.88 0.510441 -1.49105 0
M  V30 32787 C 3114.11 1.28941 -1.61808 0
M  V30 32788 C 3114.52 1.86624 -0.285806 0
M  V30 32789 O 3113.88 1.67372 0.727521 0
M  V30 32790 C 3113.93 2.4264 -2.6797 0
M  V30 32791 O 3113.65 1.8733 -3.96029 0
M  V30 32792 C 3115.15 3.34161 -2.91292 0
M  V30 32793 H 3112.37 0.391419 -0.545006 0
M  V30 32794 H 3114.92 0.613771 -1.95072 0
M  V30 32795 H 3113.07 3.06051 -2.37511 0
M  V30 32796 H 3113.48 2.61901 -4.54431 0
M  V30 32797 H 3114.96 4.10243 -3.6933 0
M  V30 32798 H 3115.44 3.90584 -2.00849 0
M  V30 32799 H 3116.04 2.76525 -3.23132 0
M  V30 32800 N 3114.36 1.38021 0.760791 0
M  V30 32801 C 3115.6 1.35037 1.52107 0
M  V30 32802 C 3115.96 -0.0615171 1.92302 0
M  V30 32803 O 3115.25 -1.02258 1.6203 0
M  V30 32804 C 3115.44 2.23344 2.7902 0
M  V30 32805 C 3115.27 3.72978 2.51232 0
M  V30 32806 C 3114.04 4.42036 2.44811 0
M  V30 32807 C 3116.24 4.65582 2.18491 0
M  V30 32808 N 3114.22 5.77148 2.09222 0
M  V30 32809 C 3115.59 5.89152 1.93132 0
M  V30 32810 C 3117.65 4.53857 2.04739 0
M  V30 32811 C 3116.35 7.02311 1.55411 0
M  V30 32812 C 3118.38 5.66912 1.68418 0
M  V30 32813 C 3117.74 6.89539 1.43927 0
M  V30 32814 H 3113.84 0.54942 0.556473 0
M  V30 32815 H 3116.42 1.73343 0.886584 0
M  V30 32816 H 3114.59 1.87238 3.40289 0
M  V30 32817 H 3116.33 2.11539 3.45012 0
M  V30 32818 H 3113.08 3.95166 2.61038 0
M  V30 32819 H 3113.51 6.48581 1.94093 0
M  V30 32820 H 3118.15 3.5961 2.22351 0
M  V30 32821 H 3115.87 7.96482 1.36537 0
M  V30 32822 H 3119.45 5.59816 1.5842 0
M  V30 32823 H 3118.33 7.75537 1.1624 0
M  V30 32824 N 3115.83 -0.98818 1.22771 0
M  V30 32825 C 3117.06 -1.76379 1.08158 0
M  V30 32826 C 3117.48 -1.85188 -0.36754 0
M  V30 32827 O 3116.83 -1.32543 -1.25453 0
M  V30 32828 C 3116.89 -3.19459 1.69198 0
M  V30 32829 O 3116.61 -3.11119 3.08442 0
M  V30 32830 C 3118.11 -4.13448 1.59923 0
M  V30 32831 H 3115.33 -0.553771 0.378918 0
M  V30 32832 H 3117.87 -1.24203 1.62462 0
M  V30 32833 H 3116.03 -3.68688 1.18946 0
M  V30 32834 H 3116.44 -4.01134 3.37923 0
M  V30 32835 H 3117.91 -5.11577 2.07348 0
M  V30 32836 H 3118.39 -4.35659 0.556623 0
M  V30 32837 H 3119 -3.70119 2.09504 0
M  V30 32838 N 3117.31 -1.03816 -1.18575 0
M  V30 32839 C 3118.26 -0.620717 -2.24165 0
M  V30 32840 C 3119.25 0.351253 -1.65718 0
M  V30 32841 O 3120.46 0.218817 -1.78665 0
M  V30 32842 H 3116.84 -0.1825 -0.729519 0
M  V30 32843 H 3118.81 -1.52171 -2.56684 0
M  V30 32844 C 3117.56 0.00301219 -3.477 0
M  V30 32845 H 3116.88 -0.735944 -3.92968 0
M  V30 32846 H 3118.32 0.257914 -4.23215 0
M  V30 32847 C 3116.78 1.25234 -3.12759 0
M  V30 32848 O 3117.31 2.34338 -3.26265 0
M  V30 32849 N 3115.51 1.14466 -2.67106 0
M  V30 32850 H 3115.06 0.256828 -2.56317 0
M  V30 32851 H 3115.02 1.98148 -2.44099 0
M  V30 32852 N 3118.79 1.34753 -0.817283 0
M  V30 32853 C 3120.04 1.9875 -0.403279 0
M  V30 32854 C 3120.37 1.6466 1.0296 0
M  V30 32855 O 3119.64 0.915344 1.71615 0
M  V30 32856 C 3119.93 3.55079 -0.59925 0
M  V30 32857 C 3119.78 3.98931 -2.07784 0
M  V30 32858 C 3121.1 4.40089 -0.0316429 0
M  V30 32859 H 3118.22 0.721987 -0.148001 0
M  V30 32860 H 3120.86 1.59736 -1.0288 0
M  V30 32861 H 3119.01 3.88443 -0.0667799 0
M  V30 32862 H 3120.68 3.75927 -2.67352 0
M  V30 32863 H 3118.93 3.49448 -2.57037 0
M  V30 32864 H 3119.6 5.07737 -2.1658 0
M  V30 32865 H 3122.07 4.13246 -0.486512 0
M  V30 32866 H 3120.95 5.48541 -0.198604 0
M  V30 32867 H 3121.21 4.29132 1.06295 0
M  V30 32868 N 3120.27 0.571737 1.46864 0
M  V30 32869 C 3121.5 0.0584339 2.06817 0
M  V30 32870 C 3121.91 -1.24173 1.4222 0
M  V30 32871 O 3121.27 -1.74825 0.523686 0
M  V30 32872 C 3121.32 -0.125609 3.61282 0
M  V30 32873 O 3121.04 1.12308 4.2346 0
M  V30 32874 C 3122.54 -0.674527 4.38138 0
M  V30 32875 H 3119.76 0.0524497 0.668947 0
M  V30 32876 H 3122.31 0.789285 1.88655 0
M  V30 32877 H 3120.46 -0.80664 3.78909 0
M  V30 32878 H 3120.88 0.929959 5.1619 0
M  V30 32879 H 3122.35 -0.75253 5.46846 0
M  V30 32880 H 3122.83 -1.68908 4.05422 0
M  V30 32881 H 3123.43 -0.0287231 4.2529 0
M  V30 32882 N 3121.75 -1.54542 0.308935 0
M  V30 32883 C 3122.99 -2.00295 -0.298001 0
M  V30 32884 C 3123.32 -1.19727 -1.53283 0
M  V30 32885 O 3122.58 -0.263585 -1.93917 0
M  V30 32886 C 3122.88 -3.50647 -0.69146 0
M  V30 32887 C 3122.54 -4.48723 0.442533 0
M  V30 32888 C 3121.2 -4.75259 0.753823 0
M  V30 32889 C 3123.56 -5.0708 1.20497 0
M  V30 32890 C 3120.88 -5.57412 1.83053 0
M  V30 32891 C 3123.24 -5.90405 2.27166 0
M  V30 32892 C 3121.9 -6.15249 2.58893 0
M  V30 32893 H 3121.17 -0.732932 -0.109046 0
M  V30 32894 H 3123.82 -1.86617 0.42968 0
M  V30 32895 H 3122.12 -3.61976 -1.49935 0
M  V30 32896 H 3123.82 -3.83479 -1.17238 0
M  V30 32897 H 3120.41 -4.28179 0.189819 0
M  V30 32898 H 3124.59 -4.86574 0.977738 0
M  V30 32899 H 3119.85 -5.74896 2.08098 0
M  V30 32900 H 3124.02 -6.34647 2.86698 0
M  V30 32901 H 3121.65 -6.78696 3.42455 0
M  V30 32902 N 3123.23 -0.0368104 -1.57557 0
M  V30 32903 C 3124.16 0.940681 -2.13713 0
M  V30 32904 C 3125.14 1.33417 -1.05517 0
M  V30 32905 O 3126.32 1.41143 -1.33388 0
M  V30 32906 C 3123.45 2.22043 -2.67047 0
M  V30 32907 C 3122.41 1.96745 -3.80099 0
M  V30 32908 C 3121.73 3.31052 -4.19892 0
M  V30 32909 C 3123.03 1.30049 -5.0585 0
M  V30 32910 H 3124.73 0.472981 -2.9564 0
M  V30 32911 H 3122.27 0.226064 -1.42214 0
M  V30 32912 H 3124.22 2.90812 -3.04969 0
M  V30 32913 H 3122.95 2.70993 -1.82292 0
M  V30 32914 H 3121.61 1.30392 -3.42627 0
M  V30 32915 H 3121.26 3.77775 -3.32107 0
M  V30 32916 H 3120.96 3.14928 -4.96078 0
M  V30 32917 H 3122.48 4.01076 -4.60402 0
M  V30 32918 H 3123.89 1.8883 -5.41309 0
M  V30 32919 H 3122.29 1.24299 -5.87086 0
M  V30 32920 H 3123.36 0.274505 -4.84122 0
M  V30 32921 N 3124.7 1.55817 0.236426 0
M  V30 32922 C 3125.65 1.9119 1.29286 0
M  V30 32923 C 3126.62 0.767327 1.47314 0
M  V30 32924 O 3127.81 1.02191 1.61126 0
M  V30 32925 C 3124.95 2.22111 2.64122 0
M  V30 32926 C 3124.06 3.49428 2.54016 0
M  V30 32927 C 3123.19 3.69868 3.81276 0
M  V30 32928 C 3122.23 4.90749 3.6583 0
M  V30 32929 N 3121.37 5.07655 4.85005 0
M  V30 32930 H 3126.21 2.81279 0.984191 0
M  V30 32931 H 3123.75 1.3923 0.474697 0
M  V30 32932 H 3125.7 2.38046 3.42622 0
M  V30 32933 H 3124.33 1.35214 2.93116 0
M  V30 32934 H 3123.39 3.41768 1.6703 0
M  V30 32935 H 3124.7 4.38076 2.38518 0
M  V30 32936 H 3123.85 3.85818 4.68219 0
M  V30 32937 H 3122.59 2.79472 3.99683 0
M  V30 32938 H 3121.6 4.74764 2.77271 0
M  V30 32939 H 3122.82 5.82615 3.48908 0
M  V30 32940 H 3120.77 4.20199 5.03754 0
M  V30 32941 H 3120.68 5.90411 4.72177 0
M  V30 32942 H 3121.95 5.28027 5.73417 0
M  V30 32943 N 3126.18 -0.502526 1.49373 0
M  V30 32944 C 3127.6 -0.833567 1.36102 0
M  V30 32945 C 3127.8 -1.97631 0.392946 0
M  V30 32946 O 3126.85 -2.51886 -0.175931 0
M  V30 32947 C 3128.17 -1.17521 2.76784 0
M  V30 32948 C 3129.71 -1.28351 2.85473 0
M  V30 32949 C 3130.19 -1.65845 4.26918 0
M  V30 32950 N 3131.68 -1.72897 4.29722 0
M  V30 32951 C 3132.42 -2.0335 5.36131 0
M  V30 32952 N 3131.91 -2.32038 6.52787 0
M  V30 32953 N 3133.7 -2.04588 5.23546 0
M  V30 32954 H 3125.86 0.251046 2.10911 0
M  V30 32955 H 3128.12 0.0497203 0.946695 0
M  V30 32956 H 3127.82 -0.408903 3.49315 0
M  V30 32957 H 3127.7 -2.11901 3.12054 0
M  V30 32958 H 3130.09 -2.04054 2.1318 0
M  V30 32959 H 3130.17 -0.320259 2.53787 0
M  V30 32960 H 3129.81 -0.906934 4.99737 0
M  V30 32961 H 3129.74 -2.63268 4.56068 0
M  V30 32962 H 3132.23 -1.52894 3.45589 0
M  V30 32963 H 3132.54 -2.54458 7.29706 0
M  V30 32964 H 3130.89 -2.29497 6.56015 0
M  V30 32965 H 3134.08 -1.81652 4.31416 0
M  V30 32966 H 3134.25 -2.27988 6.06569 0
M  V30 32967 N 3127.66 -1.38422 -0.75346 0
M  V30 32968 C 3128.89 -1.37671 -1.54046 0
M  V30 32969 C 3129.3 0.0353324 -1.89167 0
M  V30 32970 O 3128.64 1.01236 -1.53287 0
M  V30 32971 C 3128.7 -2.16798 -2.86773 0
M  V30 32972 C 3128.37 -3.65608 -2.74189 0
M  V30 32973 C 3129.36 -4.59098 -2.43977 0
M  V30 32974 C 3127.05 -4.08965 -2.91638 0
M  V30 32975 C 3129.04 -5.93926 -2.31368 0
M  V30 32976 C 3126.73 -5.43873 -2.78649 0
M  V30 32977 C 3127.73 -6.36167 -2.48557 0
M  V30 32978 O 3127.42 -7.68593 -2.35626 0
M  V30 32979 H 3127.15 -0.472682 -0.483268 0
M  V30 32980 H 3129.7 -1.82616 -0.940235 0
M  V30 32981 H 3127.93 -1.66571 -3.48986 0
M  V30 32982 H 3129.62 -2.08453 -3.48285 0
M  V30 32983 H 3130.39 -4.26906 -2.30165 0
M  V30 32984 H 3126.27 -3.37474 -3.14057 0
M  V30 32985 H 3129.81 -6.65931 -2.07802 0
M  V30 32986 H 3125.71 -5.75662 -2.92034 0
M  V30 32987 H 3126.47 -7.79117 -2.50838 0
M  V30 32988 N 3129.14 0.981655 -1.23294 0
M  V30 32989 C 3130.38 1.72277 -1.06427 0
M  V30 32990 C 3130.71 1.90363 0.399021 0
M  V30 32991 O 3129.97 1.45226 1.31179 0
M  V30 32992 C 3130.27 3.12548 -1.73344 0
M  V30 32993 C 3129.93 3.14345 -3.23261 0
M  V30 32994 C 3128.59 3.14543 -3.64165 0
M  V30 32995 C 3130.95 3.09758 -4.19165 0
M  V30 32996 C 3128.27 3.07868 -4.99434 0
M  V30 32997 C 3130.63 3.04625 -5.54424 0
M  V30 32998 C 3129.29 3.03144 -5.94693 0
M  V30 32999 H 3128.56 0.630408 -0.389445 0
M  V30 33000 H 3131.21 1.14887 -1.5321 0
M  V30 33001 H 3129.51 3.73317 -1.18918 0
M  V30 33002 H 3131.21 3.68658 -1.57773 0
M  V30 33003 H 3127.8 3.14948 -2.90699 0
M  V30 33004 H 3131.98 3.08746 -3.88574 0
M  V30 33005 H 3127.24 3.05073 -5.29849 0
M  V30 33006 H 3131.41 3.00032 -6.28453 0
M  V30 33007 H 3129.04 2.97726 -6.99473 0
M  V30 33008 N 3130.62 1.04444 1.18022 0
M  V30 33009 C 3132.03 0.764374 1.40105 0
M  V30 33010 C 3132.23 -0.644482 1.90915 0
M  V30 33011 O 3131.29 -1.40809 2.09593 0
M  V30 33012 C 3132.6 1.81365 2.39848 0
M  V30 33013 C 3134.15 1.835 2.53568 0
M  V30 33014 C 3134.62 2.8743 3.56578 0
M  V30 33015 N 3136.11 2.86345 3.64089 0
M  V30 33016 C 3136.85 3.63412 4.4353 0
M  V30 33017 N 3136.35 4.50242 5.26549 0
M  V30 33018 N 3138.14 3.51885 4.3833 0
M  V30 33019 H 3130.29 1.95354 0.833692 0
M  V30 33020 H 3132.55 0.845482 0.428795 0
M  V30 33021 H 3132.26 2.82441 2.09571 0
M  V30 33022 H 3132.13 1.64896 3.39248 0
M  V30 33023 H 3134.52 0.830933 2.8316 0
M  V30 33024 H 3134.6 2.04046 1.54268 0
M  V30 33025 H 3134.24 3.88018 3.27726 0
M  V30 33026 H 3134.17 2.64138 4.55564 0
M  V30 33027 H 3136.67 2.23381 3.0481 0
M  V30 33028 H 3136.98 5.05748 5.84327 0
M  V30 33029 H 3135.32 4.54308 5.25956 0
M  V30 33030 H 3138.51 2.83451 3.72523 0
M  V30 33031 H 3138.69 4.12195 5 0
M  V30 33032 N 3132.09 -1.34317 0.824418 0
M  V30 33033 C 3133.06 -2.27802 0.252736 0
M  V30 33034 C 3134.06 -1.5035 -0.570228 0
M  V30 33035 O 3135.25 -1.69867 -0.386115 0
M  V30 33036 C 3132.38 -3.34733 -0.645516 0
M  V30 33037 H 3133.57 -2.79876 1.07747 0
M  V30 33038 H 3131.12 -1.44474 0.596393 0
M  V30 33039 H 3131.86 -2.87876 -1.49325 0
M  V30 33040 H 3131.64 -3.92059 -0.0568789 0
M  V30 33041 H 3133.13 -4.04462 -1.03925 0
M  V30 33042 N 3133.57 -0.579517 -1.46558 0
M  V30 33043 C 3134.85 0.00283698 -1.956 0
M  V30 33044 C 3135.23 1.46263 -1.52218 0
M  V30 33045 O 3134.58 2.15086 -0.771373 0
M  V30 33046 C 3134.79 -0.165886 -3.48606 0
M  V30 33047 C 3136.13 -0.0320553 -4.24588 0
M  V30 33048 O 3137.16 -0.0945586 -3.56074 0
M  V30 33049 O 3136.02 0.10629 -5.46397 0
M  V30 33050 H 3133.11 0.0516129 -0.825388 0
M  V30 33051 H 3135.66 -0.647611 -1.56857 0
M  V30 33052 H 3134.43 -1.18083 -3.73058 0
M  V30 33053 H 3134.05 0.521143 -3.9417 0
M  V30 33054 N 3135.05 1.54376 -0.317127 0
M  V30 33055 C 3135.96 2.27798 0.560827 0
M  V30 33056 C 3136.98 1.3191 1.13471 0
M  V30 33057 O 3138.15 1.64916 1.15606 0
M  V30 33058 C 3135.22 3.01663 1.70881 0
M  V30 33059 C 3134.28 4.13123 1.16738 0
M  V30 33060 C 3133.51 4.83457 2.26065 0
M  V30 33061 O 3133.73 4.53258 3.46284 0
M  V30 33062 O 3132.67 5.70507 1.91846 0
M  V30 33063 H 3136.49 3.0368 -0.0352464 0
M  V30 33064 H 3134.08 1.49169 -0.0830325 0
M  V30 33065 H 3135.96 3.47941 2.3773 0
M  V30 33066 H 3134.64 2.28662 2.29118 0
M  V30 33067 H 3133.54 3.71209 0.464159 0
M  V30 33068 H 3134.88 4.88149 0.630221 0
M  V30 33069 N 3136.53 0.0451655 1.57535 0
M  V30 33070 C 3137.46 -0.960336 2.08111 0
M  V30 33071 C 3138.47 -1.27863 1.00772 0
M  V30 33072 O 3139.66 -1.24047 1.28353 0
M  V30 33073 C 3136.76 -2.2835 2.50418 0
M  V30 33074 C 3135.94 -2.14802 3.81024 0
M  V30 33075 C 3134.99 -3.3019 4.09708 0
M  V30 33076 O 3134.02 -3.06362 4.7972 0
M  V30 33077 N 3135.22 -4.54482 3.61146 0
M  V30 33078 H 3137.99 -0.5287 2.95 0
M  V30 33079 H 3135.55 -0.14122 1.61283 0
M  V30 33080 H 3137.54 -3.044 2.66688 0
M  V30 33081 H 3136.11 -2.63101 1.6881 0
M  V30 33082 H 3135.33 -1.2338 3.74394 0
M  V30 33083 H 3136.62 -2.0297 4.66563 0
M  V30 33084 H 3136.02 -4.76733 3.04535 0
M  V30 33085 H 3134.57 -5.27647 3.82665 0
M  V30 33086 N 3138.01 -1.5594 -0.228159 0
M  V30 33087 C 3139.24 -1.82457 -0.969179 0
M  V30 33088 C 3139.64 -0.621164 -1.78713 0
M  V30 33089 O 3138.99 0.419662 -1.78842 0
M  V30 33090 C 3139.05 -3.02609 -1.94083 0
M  V30 33091 C 3138.71 -4.37881 -1.30803 0
M  V30 33092 C 3139.71 -5.1515 -0.701185 0
M  V30 33093 C 3137.4 -4.84597 -1.32178 0
M  V30 33094 C 3139.39 -6.37293 -0.116519 0
M  V30 33095 C 3137.08 -6.06685 -0.733269 0
M  V30 33096 C 3138.07 -6.82873 -0.131684 0
M  V30 33097 O 3137.76 -8.02652 0.44769 0
M  V30 33098 H 3137.49 -0.610664 -0.28994 0
M  V30 33099 H 3140.05 -2.03866 -0.250541 0
M  V30 33100 H 3138.28 -2.77001 -2.69828 0
M  V30 33101 H 3139.97 -3.16055 -2.54684 0
M  V30 33102 H 3140.73 -4.80168 -0.682938 0
M  V30 33103 H 3136.61 -4.25274 -1.77942 0
M  V30 33104 H 3140.16 -6.96703 0.353661 0
M  V30 33105 H 3136.05 -6.41141 -0.748906 0
M  V30 33106 H 3136.82 -8.17788 0.341368 0
M  V30 33107 N 3139.48 0.494597 -1.49638 0
M  V30 33108 C 3140.9 1.076 -1.52575 0
M  V30 33109 C 3141.25 1.93645 -0.315625 0
M  V30 33110 O 3140.37 2.0865 0.573929 0
M  V30 33111 C 3140.97 1.95812 -2.76483 0
M  V30 33112 C 3139.53 2.49104 -2.82178 0
M  V30 33113 C 3138.67 1.26875 -2.46572 0
M  V30 33114 H 3141.62 0.278224 -1.56242 0
M  V30 33115 H 3141.64 2.80584 -2.57008 0
M  V30 33116 H 3141.16 1.33161 -3.64541 0
M  V30 33117 H 3139.26 3.15376 -1.98416 0
M  V30 33118 H 3139.37 2.85818 -3.84506 0
M  V30 33119 H 3137.73 1.59603 -1.98491 0
M  V30 33120 H 3138.52 0.659222 -3.36911 0
M  V30 33121 N 3140.96 1.3882 0.746109 0
M  V30 33122 C 3142.21 1.35437 1.50542 0
M  V30 33123 C 3142.54 -0.0532327 1.94427 0
M  V30 33124 O 3141.79 -1.03185 1.66287 0
M  V30 33125 C 3142.09 2.26291 2.76635 0
M  V30 33126 C 3141.76 3.74126 2.51675 0
M  V30 33127 C 3140.42 4.1441 2.44577 0
M  V30 33128 C 3142.77 4.67676 2.30063 0
M  V30 33129 C 3140.1 5.46321 2.13892 0
M  V30 33130 C 3142.45 5.99853 2.00897 0
M  V30 33131 C 3141.12 6.39212 1.9226 0
M  V30 33132 H 3140.39 0.4956 0.550874 0
M  V30 33133 H 3143.03 1.71238 0.857307 0
M  V30 33134 H 3141.34 1.83571 3.46134 0
M  V30 33135 H 3143.03 2.20973 3.34622 0
M  V30 33136 H 3139.62 3.42193 2.58074 0
M  V30 33137 H 3143.81 4.37394 2.34521 0
M  V30 33138 H 3139.06 5.75751 2.05719 0
M  V30 33139 H 3143.24 6.71877 1.83179 0
M  V30 33140 H 3140.87 7.41348 1.68248 0
M  V30 33141 N 3142.44 -0.975103 1.23812 0
M  V30 33142 C 3143.37 -2.08636 1.04849 0
M  V30 33143 C 3144.35 -1.70061 -0.036256 0
M  V30 33144 O 3145.54 -1.93768 0.129404 0
M  V30 33145 C 3142.67 -3.41266 0.644594 0
M  V30 33146 C 3141.62 -3.93765 1.67728 0
M  V30 33147 C 3140.95 -5.22652 1.12867 0
M  V30 33148 C 3142.25 -4.22437 3.07155 0
M  V30 33149 H 3143.94 -2.24758 1.97799 0
M  V30 33150 H 3141.49 -1.08005 0.952416 0
M  V30 33151 H 3143.44 -4.18436 0.498961 0
M  V30 33152 H 3142.16 -3.25023 -0.320583 0
M  V30 33153 H 3140.82 -3.18745 1.811 0
M  V30 33154 H 3140.47 -5.02763 0.154316 0
M  V30 33155 H 3140.17 -5.58745 1.81872 0
M  V30 33156 H 3141.69 -6.02439 0.994997 0
M  V30 33157 H 3143.11 -4.90338 2.97054 0
M  V30 33158 H 3141.51 -4.69743 3.73445 0
M  V30 33159 H 3142.58 -3.29501 3.55749 0
M  V30 33160 N 3143.92 -1.05068 -1.17467 0
M  V30 33161 C 3145.16 -0.761146 -1.87975 0
M  V30 33162 C 3145.5 0.709963 -1.80757 0
M  V30 33163 O 3144.77 1.51904 -1.21472 0
M  V30 33164 C 3145.06 -1.24066 -3.38053 0
M  V30 33165 C 3144.91 -2.77461 -3.54027 0
M  V30 33166 C 3146.23 -0.838688 -4.32035 0
M  V30 33167 H 3143.35 -0.277975 -0.682568 0
M  V30 33168 H 3145.99 -1.30445 -1.38145 0
M  V30 33169 H 3144.14 -0.778455 -3.80621 0
M  V30 33170 H 3145.81 -3.31796 -3.20483 0
M  V30 33171 H 3144.05 -3.16798 -2.96347 0
M  V30 33172 H 3144.72 -3.06074 -4.59372 0
M  V30 33173 H 3147.2 -1.23658 -3.97301 0
M  V30 33174 H 3146.08 -1.20183 -5.35581 0
M  V30 33175 H 3146.34 0.257421 -4.4135 0
M  V30 33176 N 3145.4 1.33878 -0.831529 0
M  V30 33177 C 3146.35 2.2682 -0.231695 0
M  V30 33178 C 3147.33 1.48928 0.609049 0
M  V30 33179 O 3148.52 1.70858 0.462219 0
M  V30 33180 C 3145.65 3.38044 0.598401 0
M  V30 33181 C 3144.74 4.23342 -0.253446 0
M  V30 33182 N 3145.13 4.88038 -1.32862 0
M  V30 33183 C 3143.43 4.45983 -0.0392321 0
M  V30 33184 C 3144.13 5.51472 -1.85078 0
M  V30 33185 N 3143.1 5.31224 -1.15336 0
M  V30 33186 H 3146.91 2.7435 -1.054 0
M  V30 33187 H 3144.42 1.47697 -0.675221 0
M  V30 33188 H 3146.42 4.03607 1.04436 0
M  V30 33189 H 3145.08 2.92063 1.41877 0
M  V30 33190 H 3146.09 4.88803 -1.71148 0
M  V30 33191 H 3142.76 4.1074 0.748284 0
M  V30 33192 H 3144.15 6.13011 -2.75076 0
M  V30 33193 N 3146.87 0.587281 1.46249 0
M  V30 33194 C 3148.29 0.161951 1.85996 0
M  V30 33195 C 3148.64 -1.27614 1.49027 0
M  V30 33196 O 3147.76 -1.96461 0.907316 0
M  V30 33197 C 3148.36 0.287137 3.37581 0
M  V30 33198 C 3146.92 -0.083355 3.76308 0
M  V30 33199 C 3146.06 0.620979 2.70258 0
M  V30 33200 H 3149.01 0.795223 1.37339 0
M  V30 33201 H 3149.03 -0.486266 3.7738 0
M  V30 33202 H 3148.55 1.3339 3.64457 0
M  V30 33203 H 3146.65 -1.13007 3.55049 0
M  V30 33204 H 3146.76 0.296148 4.78184 0
M  V30 33205 H 3145.12 0.0607475 2.54628 0
M  V30 33206 H 3145.91 1.66948 2.99972 0
M  V30 33207 N 3148.35 -1.54206 0.325309 0
M  V30 33208 C 3149.6 -2.00897 -0.27715 0
M  V30 33209 C 3149.93 -1.2131 -1.51649 0
M  V30 33210 O 3149.21 -0.295859 -1.92237 0
M  V30 33211 C 3149.49 -3.54904 -0.609548 0
M  V30 33212 C 3149.34 -4.45215 0.64062 0
M  V30 33213 C 3150.66 -4.1634 -1.42649 0
M  V30 33214 H 3147.78 -0.730285 -0.0992594 0
M  V30 33215 H 3150.42 -1.84782 0.442234 0
M  V30 33216 H 3148.57 -3.68767 -1.22243 0
M  V30 33217 H 3150.24 -4.43219 1.27886 0
M  V30 33218 H 3148.49 -4.14819 1.26915 0
M  V30 33219 H 3149.16 -5.50801 0.363555 0
M  V30 33220 H 3151.63 -4.06063 -0.908422 0
M  V30 33221 H 3150.51 -5.24207 -1.62783 0
M  V30 33222 H 3150.77 -3.69778 -2.42315 0
M  V30 33223 N 3149.83 -0.0535194 -1.57509 0
M  V30 33224 C 3150.76 0.955517 -2.07232 0
M  V30 33225 C 3151.74 1.30249 -0.973336 0
M  V30 33226 O 3152.93 1.41496 -1.24543 0
M  V30 33227 C 3150.05 2.26885 -2.51477 0
M  V30 33228 C 3149.1 2.07476 -3.72634 0
M  V30 33229 S 3149.93 1.35095 -5.18179 0
M  V30 33230 C 3151.09 2.67747 -5.65741 0
M  V30 33231 H 3151.32 0.532356 -2.92495 0
M  V30 33232 H 3148.85 0.158804 -1.53581 0
M  V30 33233 H 3150.81 3.02376 -2.77631 0
M  V30 33234 H 3149.47 2.66329 -1.66516 0
M  V30 33235 H 3148.67 3.04626 -4.01521 0
M  V30 33236 H 3148.27 1.40124 -3.46758 0
M  V30 33237 H 3150.56 3.63908 -5.7147 0
M  V30 33238 H 3151.5 2.43494 -6.64918 0
M  V30 33239 H 3151.91 2.74114 -4.93479 0
M  V30 33240 N 3151.31 1.56059 0.219886 0
M  V30 33241 C 3152.72 1.69314 0.786736 0
M  V30 33242 C 3153.07 0.655815 1.84915 0
M  V30 33243 O 3152.2 -0.192734 2.1554 0
M  V30 33244 C 3152.79 3.06965 1.43381 0
M  V30 33245 C 3151.35 3.22069 1.94804 0
M  V30 33246 C 3150.5 2.65242 0.808816 0
M  V30 33247 H 3153.45 1.58699 -0.00479567 0
M  V30 33248 H 3153.47 3.02915 2.30267 0
M  V30 33249 H 3152.98 3.82441 0.660338 0
M  V30 33250 H 3151.08 2.51465 2.74948 0
M  V30 33251 H 3151.2 4.29303 2.12686 0
M  V30 33252 H 3149.56 2.23767 1.21658 0
M  V30 33253 H 3150.34 3.43266 0.0479854 0
M  V30 33254 N 3152.79 -0.486655 1.49898 0
M  V30 33255 C 3153.72 -1.60476 1.62243 0
M  V30 33256 C 3154.7 -1.55629 0.470992 0
M  V30 33257 O 3155.88 -1.75478 0.688449 0
M  V30 33258 C 3153.01 -2.99025 1.59065 0
M  V30 33259 C 3152.06 -3.22082 2.7958 0
M  V30 33260 S 3152.89 -3.03656 4.41082 0
M  V30 33261 C 3154.04 -4.44576 4.40572 0
M  V30 33262 H 3154.28 -1.49762 2.56824 0
M  V30 33263 H 3151.81 -0.672868 1.38967 0
M  V30 33264 H 3153.77 -3.7891 1.57916 0
M  V30 33265 H 3152.43 -3.07142 0.657459 0
M  V30 33266 H 3151.62 -4.23261 2.73617 0
M  V30 33267 H 3151.22 -2.49944 2.78215 0
M  V30 33268 H 3153.52 -5.36929 4.13175 0
M  V30 33269 H 3154.46 -4.55586 5.42076 0
M  V30 33270 H 3154.87 -4.25926 3.70469 0
M  V30 33271 N 3154.27 -1.39214 -0.738737 0
M  V30 33272 C 3155.21 -1.37635 -1.85271 0
M  V30 33273 C 3156.18 -0.236601 -1.64406 0
M  V30 33274 O 3157.37 -0.431136 -1.85865 0
M  V30 33275 C 3154.51 -1.22193 -3.22743 0
M  V30 33276 C 3153.62 -2.45681 -3.55338 0
M  V30 33277 C 3152.76 -2.22856 -4.82192 0
M  V30 33278 C 3151.79 -3.42038 -5.07619 0
M  V30 33279 N 3150.93 -3.18554 -6.25674 0
M  V30 33280 H 3155.77 -2.32862 -1.85955 0
M  V30 33281 H 3153.31 -1.15677 -0.908696 0
M  V30 33282 H 3155.27 -1.11253 -4.02093 0
M  V30 33283 H 3153.9 -0.305977 -3.21347 0
M  V30 33284 H 3152.95 -2.67238 -2.70717 0
M  V30 33285 H 3154.26 -3.34463 -3.70048 0
M  V30 33286 H 3153.41 -2.09136 -5.69515 0
M  V30 33287 H 3152.15 -1.31462 -4.69648 0
M  V30 33288 H 3151.16 -3.5626 -4.18759 0
M  V30 33289 H 3152.38 -4.34328 -5.2205 0
M  V30 33290 H 3150.33 -2.29821 -6.14425 0
M  V30 33291 H 3150.25 -4.00892 -6.40954 0
M  V30 33292 H 3151.51 -3.0852 -7.15846 0
M  V30 33293 N 3155.74 0.968523 -1.24328 0
M  V30 33294 C 3157.02 1.68667 -0.990489 0
M  V30 33295 C 3157.4 2.05395 0.487451 0
M  V30 33296 O 3156.75 1.75645 1.46155 0
M  V30 33297 C 3156.96 2.91928 -1.91257 0
M  V30 33298 C 3158.31 3.64186 -2.18297 0
M  V30 33299 O 3159.33 3.01984 -1.88903 0
M  V30 33300 O 3158.19 4.76156 -2.68212 0
M  V30 33301 H 3155.28 0.737332 -0.374527 0
M  V30 33302 H 3157.83 1.02269 -1.35422 0
M  V30 33303 H 3156.6 2.61473 -2.91114 0
M  V30 33304 H 3156.22 3.66061 -1.55194 0
M  V30 33305 N 3157.22 1.0569 1.16908 0
M  V30 33306 C 3158.47 0.765055 1.86627 0
M  V30 33307 C 3158.78 -0.710886 1.82224 0
M  V30 33308 O 3159.99 -1.11687 2.47464 0
M  V30 33309 C 3158.45 1.31836 3.34884 0
M  V30 33310 C 3158.05 2.82411 3.47776 0
M  V30 33311 C 3159.8 1.10379 4.09899 0
M  V30 33312 C 3157.7 3.31016 4.90084 0
M  V30 33313 H 3156.63 0.282503 0.699077 0
M  V30 33314 H 3159.29 1.27483 1.31986 0
M  V30 33315 H 3157.67 0.736381 3.89093 0
M  V30 33316 H 3158.84 3.46507 3.03759 0
M  V30 33317 H 3157.16 3.02466 2.86188 0
M  V30 33318 H 3159.75 1.44189 5.14892 0
M  V30 33319 H 3160.1 0.0418103 4.16279 0
M  V30 33320 H 3160.63 1.65123 3.6191 0
M  V30 33321 H 3157.37 4.36666 4.8888 0
M  V30 33322 H 3156.89 2.71664 5.34751 0
M  V30 33323 H 3158.57 3.25987 5.58875 0
M  V30 33324 N 3158.7 -1.33435 0.838617 0
M  V30 33325 C 3159.65 -2.26694 0.243721 0
M  V30 33326 C 3160.63 -1.49248 -0.601142 0
M  V30 33327 O 3161.83 -1.71101 -0.453151 0
M  V30 33328 C 3158.95 -3.38357 -0.580465 0
M  V30 33329 C 3158.04 -4.23202 0.275893 0
M  V30 33330 N 3158.43 -4.87327 1.35449 0
M  V30 33331 C 3156.73 -4.45956 0.0628831 0
M  V30 33332 C 3157.43 -5.50482 1.88 0
M  V30 33333 N 3156.41 -5.30604 1.18152 0
M  V30 33334 H 3160.21 -2.73787 1.06854 0
M  V30 33335 H 3157.72 -1.47337 0.683044 0
M  V30 33336 H 3159.72 -4.04155 -1.02294 0
M  V30 33337 H 3158.38 -2.92812 -1.40326 0
M  V30 33338 H 3159.39 -4.87889 1.73738 0
M  V30 33339 H 3156.07 -4.11131 -0.726491 0
M  V30 33340 H 3157.46 -6.11544 2.78323 0
M  V30 33341 N 3160.18 -0.595029 -1.45935 0
M  V30 33342 C 3161.09 0.133284 -2.34221 0
M  V30 33343 C 3162.1 0.873381 -1.50493 0
M  V30 33344 O 3163.28 0.833796 -1.8333 0
M  V30 33345 C 3160.34 1.12622 -3.27898 0
M  V30 33346 C 3159.41 0.389457 -4.2753 0
M  V30 33347 C 3158.64 1.3351 -5.16731 0
M  V30 33348 O 3158.86 2.57229 -5.09106 0
M  V30 33349 O 3157.8 0.838979 -5.96024 0
M  V30 33350 H 3161.62 -0.591913 -2.97876 0
M  V30 33351 H 3159.21 -0.355354 -1.45112 0
M  V30 33352 H 3161.09 1.69844 -3.85657 0
M  V30 33353 H 3159.76 1.83267 -2.66824 0
M  V30 33354 H 3158.67 -0.224908 -3.73423 0
M  V30 33355 H 3160 -0.276255 -4.91424 0
M  V30 33356 N 3161.66 1.54031 -0.333483 0
M  V30 33357 C 3162.88 2.05629 0.270481 0
M  V30 33358 C 3163.31 1.20746 1.44229 0
M  V30 33359 O 3162.66 0.218854 1.79974 0
M  V30 33360 C 3162.71 3.54261 0.673189 0
M  V30 33361 O 3161.82 3.72274 1.77442 0
M  V30 33362 H 3161.16 0.662337 0.0469637 0
M  V30 33363 H 3163.69 1.98774 -0.484774 0
M  V30 33364 H 3163.7 3.96711 0.953124 0
M  V30 33365 H 3162.37 4.15494 -0.18382 0
M  V30 33366 H 3160.95 3.41728 1.49253 0
M  V30 33367 N 3163.13 0.0618717 1.57479 0
M  V30 33368 C 3164.38 -0.609021 1.92286 0
M  V30 33369 C 3164.7 -1.71367 0.943013 0
M  V30 33370 O 3165.9 -2.44345 1.18353 0
M  V30 33371 C 3164.36 -1.13462 3.41547 0
M  V30 33372 C 3163.97 -0.0615139 4.47958 0
M  V30 33373 C 3165.71 -1.78015 3.85371 0
M  V30 33374 C 3163.62 -0.600601 5.88342 0
M  V30 33375 H 3162.55 -0.231257 0.71766 0
M  V30 33376 H 3165.2 0.132498 1.83021 0
M  V30 33377 H 3163.58 -1.9288 3.45852 0
M  V30 33378 H 3164.75 0.712607 4.55257 0
M  V30 33379 H 3163.07 0.487189 4.1354 0
M  V30 33380 H 3165.67 -2.19362 4.87631 0
M  V30 33381 H 3166.01 -2.63617 3.22198 0
M  V30 33382 H 3166.54 -1.05236 3.83628 0
M  V30 33383 H 3163.28 0.218037 6.55137 0
M  V30 33384 H 3162.8 -1.34247 5.84583 0
M  V30 33385 H 3164.48 -1.08014 6.3792 0
M  V30 33386 N 3164.61 -1.56173 -0.211607 0
M  V30 33387 C 3166.03 -1.49387 -0.561744 0
M  V30 33388 C 3166.23 -0.758845 -1.86665 0
M  V30 33389 O 3165.28 -0.302578 -2.50681 0
M  V30 33390 C 3166.6 -2.93988 -0.631764 0
M  V30 33391 C 3168.15 -3.04566 -0.721719 0
M  V30 33392 C 3168.62 -4.50545 -0.822996 0
M  V30 33393 N 3170.11 -4.54629 -0.886958 0
M  V30 33394 C 3170.85 -5.64873 -0.985205 0
M  V30 33395 N 3170.34 -6.84846 -1.04678 0
M  V30 33396 N 3172.14 -5.52747 -1.02111 0
M  V30 33397 H 3164.29 -2.02384 0.644556 0
M  V30 33398 H 3166.55 -0.920302 0.227483 0
M  V30 33399 H 3166.26 -3.50755 0.257653 0
M  V30 33400 H 3166.13 -3.46436 -1.49204 0
M  V30 33401 H 3168.52 -2.47858 -1.60157 0
M  V30 33402 H 3168.6 -2.55271 0.16443 0
M  V30 33403 H 3168.24 -5.07873 0.0524403 0
M  V30 33404 H 3168.17 -4.97555 -1.72471 0
M  V30 33405 H 3170.66 -3.68233 -0.849288 0
M  V30 33406 H 3170.98 -7.64615 -1.1218 0
M  V30 33407 H 3169.32 -6.87537 -1.01574 0
M  V30 33408 H 3172.51 -4.57945 -0.969733 0
M  V30 33409 H 3172.68 -6.38695 -1.09423 0
M  V30 33410 N 3166.09 0.478699 -1.50154 0
M  V30 33411 C 3167.34 1.23033 -1.6197 0
M  V30 33412 C 3167.69 1.89844 -0.312563 0
M  V30 33413 O 3166.98 1.78784 0.688963 0
M  V30 33414 C 3167.18 2.30412 -2.73212 0
M  V30 33415 C 3167.01 1.74135 -4.14617 0
M  V30 33416 C 3165.78 1.54444 -4.81119 0
M  V30 33417 C 3167.98 1.24057 -4.99113 0
M  V30 33418 N 3165.96 0.933292 -6.06764 0
M  V30 33419 C 3167.33 0.752178 -6.1542 0
M  V30 33420 C 3169.38 1.1284 -4.84945 0
M  V30 33421 C 3168.09 0.162681 -7.19116 0
M  V30 33422 C 3170.11 0.552852 -5.8881 0
M  V30 33423 C 3169.47 0.0747957 -7.0436 0
M  V30 33424 H 3165.57 0.439365 -0.646902 0
M  V30 33425 H 3168.16 0.533607 -1.87245 0
M  V30 33426 H 3166.33 2.9752 -2.49672 0
M  V30 33427 H 3168.06 2.97441 -2.74428 0
M  V30 33428 H 3164.82 1.79452 -4.38285 0
M  V30 33429 H 3165.24 0.646352 -6.73907 0
M  V30 33430 H 3169.88 1.48395 -3.95903 0
M  V30 33431 H 3167.6 -0.205085 -8.0784 0
M  V30 33432 H 3171.19 0.468531 -5.7991 0
M  V30 33433 H 3170.07 -0.363593 -7.83357 0
M  V30 33434 N 3167.57 1.39603 0.731343 0
M  V30 33435 C 3168.8 1.40308 1.52057 0
M  V30 33436 C 3169.21 -0.00144602 1.888 0
M  V30 33437 O 3168.57 -0.973688 1.54355 0
M  V30 33438 C 3168.62 2.27936 2.80584 0
M  V30 33439 O 3168.34 3.62919 2.454 0
M  V30 33440 C 3169.84 2.37063 3.74588 0
M  V30 33441 H 3167.06 0.479112 0.469779 0
M  V30 33442 H 3169.61 1.83464 0.903404 0
M  V30 33443 H 3167.76 1.88184 3.38623 0
M  V30 33444 H 3168.17 4.09296 3.27989 0
M  V30 33445 H 3169.65 3.02617 4.61657 0
M  V30 33446 H 3170.13 1.39089 4.16594 0
M  V30 33447 H 3170.73 2.773 3.22466 0
M  V30 33448 N 3169.05 -0.961916 1.2484 0
M  V30 33449 C 3169.99 -2.05744 1.04586 0
M  V30 33450 C 3170.96 -1.66045 -0.0426989 0
M  V30 33451 O 3172.15 -1.90465 0.11306 0
M  V30 33452 C 3169.29 -3.38673 0.662899 0
M  V30 33453 C 3168.4 -3.91533 1.82555 0
M  V30 33454 C 3167.54 -5.12756 1.38762 0
M  V30 33455 C 3166.58 -5.57826 2.51986 0
M  V30 33456 N 3165.71 -6.70265 2.0902 0
M  V30 33457 H 3170.55 -2.22401 1.98347 0
M  V30 33458 H 3168.09 -1.08996 0.987841 0
M  V30 33459 H 3170.05 -4.15062 0.421861 0
M  V30 33460 H 3168.68 -3.21923 -0.237719 0
M  V30 33461 H 3167.73 -3.11731 2.18009 0
M  V30 33462 H 3169.04 -4.20936 2.67609 0
M  V30 33463 H 3168.2 -5.96537 1.10581 0
M  V30 33464 H 3166.93 -4.8505 0.507703 0
M  V30 33465 H 3165.94 -4.72614 2.80921 0
M  V30 33466 H 3167.16 -5.87543 3.40544 0
M  V30 33467 H 3165.11 -6.44283 1.23434 0
M  V30 33468 H 3165.03 -6.99148 2.87626 0
M  V30 33469 H 3166.3 -7.57474 1.83995 0
M  V30 33470 N 3170.52 -1.06308 -1.16346 0
M  V30 33471 C 3171.8 -0.693342 -1.82899 0
M  V30 33472 C 3172.18 0.825276 -1.943 0
M  V30 33473 O 3171.53 1.73562 -1.48622 0
M  V30 33474 C 3171.74 -1.39546 -3.19888 0
M  V30 33475 C 3173.09 -1.54075 -3.95659 0
M  V30 33476 O 3174.11 -1.35537 -3.29406 0
M  V30 33477 O 3172.97 -1.84488 -5.14418 0
M  V30 33478 H 3170.06 -0.245459 -0.789733 0
M  V30 33479 H 3172.61 -1.16336 -1.23547 0
M  V30 33480 H 3171.38 -2.43098 -3.06625 0
M  V30 33481 H 3171.01 -0.915521 -3.86916 0
M  V30 33482 N 3172 1.32989 -0.845682 0
M  V30 33483 C 3173.41 1.79866 -0.500512 0
M  V30 33484 C 3173.76 1.69914 0.980997 0
M  V30 33485 O 3172.89 1.25242 1.76475 0
M  V30 33486 C 3173.48 3.26579 -0.901737 0
M  V30 33487 C 3172.04 3.71447 -0.608602 0
M  V30 33488 C 3171.19 2.54273 -1.10637 0
M  V30 33489 H 3174.14 1.20414 -1.03374 0
M  V30 33490 H 3174.16 3.79895 -0.2145 0
M  V30 33491 H 3173.67 3.3379 -1.98004 0
M  V30 33492 H 3171.78 3.69758 0.459351 0
M  V30 33493 H 3171.89 4.64629 -1.16861 0
M  V30 33494 H 3170.25 2.49189 -0.526969 0
M  V30 33495 H 3171.04 2.64243 -2.19159 0
M  V30 33496 N 3173.48 0.60276 1.45618 0
M  V30 33497 C 3174.43 -0.118903 2.30494 0
M  V30 33498 C 3175.4 -0.864698 1.41817 0
M  V30 33499 O 3176.58 -0.851394 1.70751 0
M  V30 33500 C 3173.72 -1.11351 3.26642 0
M  V30 33501 C 3172.84 -0.369085 4.3042 0
M  V30 33502 C 3171.97 -1.35298 5.13681 0
M  V30 33503 C 3171.01 -0.5961 6.0919 0
M  V30 33504 N 3170.15 -1.52904 6.85248 0
M  V30 33505 H 3174.99 0.610887 2.91671 0
M  V30 33506 H 3172.52 0.313057 1.4373 0
M  V30 33507 H 3174.48 -1.70324 3.80849 0
M  V30 33508 H 3173.11 -1.81077 2.67228 0
M  V30 33509 H 3172.16 0.336061 3.78913 0
M  V30 33510 H 3173.48 0.22169 4.98307 0
M  V30 33511 H 3172.63 -2.01492 5.72264 0
M  V30 33512 H 3171.37 -1.97769 4.45801 0
M  V30 33513 H 3170.37 0.079495 5.49743 0
M  V30 33514 H 3171.6 0.0234928 6.79096 0
M  V30 33515 H 3169.54 -2.14148 6.20062 0
M  V30 33516 H 3169.46 -0.991582 7.49469 0
M  V30 33517 H 3170.73 -2.1807 7.48375 0
M  V30 33518 N 3174.96 -1.53852 0.341647 0
M  V30 33519 C 3175.91 -2.26449 -0.531372 0
M  V30 33520 C 3176.9 -1.28523 -1.10354 0
M  V30 33521 O 3178.11 -1.46238 -1.0495 0
M  V30 33522 H 3174.48 -0.727591 -0.190041 0
M  V30 33523 H 3176.45 -2.98222 0.102974 0
M  V30 33524 C 3175.2 -3.04888 -1.67149 0
M  V30 33525 H 3174.52 -3.80068 -1.24049 0
M  V30 33526 H 3175.96 -3.58901 -2.25756 0
M  V30 33527 C 3174.42 -2.14271 -2.5998 0
M  V30 33528 O 3174.95 -1.73753 -3.62178 0
M  V30 33529 N 3173.16 -1.79389 -2.28622 0
M  V30 33530 H 3172.71 -2.12536 -1.45555 0
M  V30 33531 H 3172.66 -1.1904 -2.90993 0
M  V30 33532 N 3176.44 -0.0702223 -1.57443 0
M  V30 33533 C 3177.66 0.608323 -1.97755 0
M  V30 33534 C 3178.08 1.63244 -0.948525 0
M  V30 33535 O 3177.44 1.82384 0.0650139 0
M  V30 33536 C 3177.49 1.2783 -3.38145 0
M  V30 33537 O 3177.21 0.295178 -4.37104 0
M  V30 33538 C 3178.71 2.04482 -3.93322 0
M  V30 33539 H 3175.93 0.164986 -0.6504 0
M  V30 33540 H 3178.47 -0.14216 -2.04005 0
M  V30 33541 H 3176.63 1.97988 -3.32986 0
M  V30 33542 H 3177.04 0.775649 -5.18733 0
M  V30 33543 H 3178.52 2.46753 -4.93778 0
M  V30 33544 H 3178.99 2.90073 -3.29779 0
M  V30 33545 H 3179.6 1.39194 -4.01877 0
M  V30 33546 N 3177.91 1.56283 0.203321 0
M  V30 33547 C 3178.85 1.90404 1.27589 0
M  V30 33548 C 3179.86 0.793935 1.42129 0
M  V30 33549 O 3181.05 1.07232 1.42701 0
M  V30 33550 C 3178.15 2.11361 2.64915 0
M  V30 33551 C 3177.32 3.42471 2.72089 0
M  V30 33552 C 3176.38 3.52638 3.90554 0
M  V30 33553 O 3175.41 4.25528 3.78041 0
M  V30 33554 N 3176.61 2.8512 5.05655 0
M  V30 33555 H 3179.37 2.83003 0.986373 0
M  V30 33556 H 3176.93 1.57051 0.393282 0
M  V30 33557 H 3178.93 2.15459 3.42578 0
M  V30 33558 H 3177.5 1.253 2.86389 0
M  V30 33559 H 3176.72 3.50312 1.80763 0
M  V30 33560 H 3178 4.28806 2.73867 0
M  V30 33561 H 3177.4 2.25714 5.18719 0
M  V30 33562 H 3175.96 2.94857 5.81294 0
M  V30 33563 N 3179.39 -0.470729 1.50406 0
M  V30 33564 C 3180.67 -1.23192 1.51931 0
M  V30 33565 C 3181.05 -2.0944 0.264196 0
M  V30 33566 O 3180.4 -2.15759 -0.752357 0
M  V30 33567 C 3180.61 -2.06264 2.81525 0
M  V30 33568 C 3181.96 -2.6444 3.32199 0
M  V30 33569 O 3182.98 -2.16506 2.82849 0
M  V30 33570 O 3181.84 -3.51779 4.18227 0
M  V30 33571 H 3178.93 -0.559049 0.609421 0
M  V30 33572 H 3181.48 -0.482521 1.62696 0
M  V30 33573 H 3180.25 -1.42709 3.64349 0
M  V30 33574 H 3179.87 -2.88337 2.73766 0
M  V30 33575 N 3180.87 -1.39989 -0.72393 0
M  V30 33576 C 3181.82 -1.36076 -1.82941 0
M  V30 33577 C 3182.81 -0.23971 -1.59104 0
M  V30 33578 O 3184 -0.478146 -1.70419 0
M  V30 33579 C 3181.13 -1.21751 -3.20985 0
M  V30 33580 C 3180.21 -2.38602 -3.50613 0
M  V30 33581 N 3180.6 -3.64083 -3.51109 0
M  V30 33582 C 3178.9 -2.31801 -3.81031 0
M  V30 33583 C 3179.6 -4.4142 -3.78845 0
M  V30 33584 N 3178.58 -3.7115 -3.97176 0
M  V30 33585 H 3182.38 -2.31046 -1.81645 0
M  V30 33586 H 3179.89 -1.33643 -0.92268 0
M  V30 33587 H 3181.89 -1.17029 -4.00137 0
M  V30 33588 H 3180.55 -0.277401 -3.23513 0
M  V30 33589 H 3181.56 -3.97357 -3.32156 0
M  V30 33590 H 3178.24 -1.46112 -3.91098 0
M  V30 33591 H 3179.63 -5.50236 -3.85603 0
M  V30 33592 N 3182.35 0.955282 -1.25348 0
M  V30 33593 C 3183.6 1.70233 -1.10221 0
M  V30 33594 C 3183.93 1.90907 0.356091 0
M  V30 33595 O 3183.2 1.47956 1.26251 0
M  V30 33596 C 3183.49 3.08565 -1.85632 0
M  V30 33597 C 3183.34 2.95305 -3.39286 0
M  V30 33598 C 3184.66 4.08445 -1.63893 0
M  V30 33599 H 3181.78 0.617845 -0.401791 0
M  V30 33600 H 3184.42 1.11046 -1.54172 0
M  V30 33601 H 3182.57 3.59091 -1.48276 0
M  V30 33602 H 3184.24 2.5211 -3.86314 0
M  V30 33603 H 3182.48 2.31238 -3.67031 0
M  V30 33604 H 3183.16 3.93357 -3.87265 0
M  V30 33605 H 3185.63 3.66826 -1.96412 0
M  V30 33606 H 3184.51 5.03278 -2.19095 0
M  V30 33607 H 3184.77 4.38278 -0.580098 0
M  V30 33608 N 3183.83 1.06924 1.1578 0
M  V30 33609 C 3185.24 0.793921 1.38452 0
M  V30 33610 C 3185.44 -0.603841 1.92239 0
M  V30 33611 O 3184.5 -1.36331 2.12532 0
M  V30 33612 C 3185.81 1.86412 2.35947 0
M  V30 33613 C 3187.36 1.88837 2.49619 0
M  V30 33614 C 3187.84 2.94929 3.50401 0
M  V30 33615 N 3189.33 2.94004 3.57933 0
M  V30 33616 C 3190.06 3.72739 4.35722 0
M  V30 33617 N 3189.56 4.6131 5.1688 0
M  V30 33618 N 3191.35 3.61103 4.30768 0
M  V30 33619 H 3183.5 1.97079 0.792067 0
M  V30 33620 H 3185.76 0.854387 0.410764 0
M  V30 33621 H 3185.47 2.86823 2.03532 0
M  V30 33622 H 3185.34 1.72055 3.35674 0
M  V30 33623 H 3187.73 0.890808 2.81334 0
M  V30 33624 H 3187.81 2.07273 1.49906 0
M  V30 33625 H 3187.46 3.94882 3.19422 0
M  V30 33626 H 3187.39 2.73742 4.49859 0
M  V30 33627 H 3189.88 2.29796 3.00003 0
M  V30 33628 H 3190.19 5.18029 5.73468 0
M  V30 33629 H 3188.54 4.65362 5.16201 0
M  V30 33630 H 3191.73 2.91289 3.66427 0
M  V30 33631 H 3191.9 4.22708 4.91144 0
M  V30 33632 N 3185.31 -1.32538 0.852723 0
M  V30 33633 C 3186.53 -2.02046 0.468192 0
M  V30 33634 C 3186.96 -1.63675 -0.926939 0
M  V30 33635 O 3186.31 -0.836406 -1.60854 0
M  V30 33636 C 3186.36 -3.55359 0.612582 0
M  V30 33637 O 3185.47 -4.10865 -0.355434 0
M  V30 33638 H 3184.81 -0.636708 0.188412 0
M  V30 33639 H 3187.34 -1.69128 1.15138 0
M  V30 33640 H 3187.35 -4.04932 0.499386 0
M  V30 33641 H 3186.02 -3.8263 1.62995 0
M  V30 33642 H 3184.6 -3.72371 -0.198638 0
M  V30 33643 N 3186.78 -0.610474 -1.45296 0
M  V30 33644 C 3187.71 0.0939288 -2.33311 0
M  V30 33645 C 3188.69 0.855854 -1.47 0
M  V30 33646 O 3189.88 0.825834 -1.75766 0
M  V30 33647 C 3187.01 1.08998 -3.29753 0
M  V30 33648 C 3185.96 0.441071 -4.25721 0
M  V30 33649 C 3185.29 1.54557 -5.11875 0
M  V30 33650 C 3186.59 -0.63958 -5.18369 0
M  V30 33651 H 3188.28 -0.640993 -2.92458 0
M  V30 33652 H 3185.83 -0.3097 -1.4063 0
M  V30 33653 H 3187.78 1.59134 -3.90198 0
M  V30 33654 H 3186.51 1.85553 -2.68771 0
M  V30 33655 H 3185.17 -0.0394552 -3.66579 0
M  V30 33656 H 3184.81 2.30147 -4.4726 0
M  V30 33657 H 3184.51 1.11687 -5.76888 0
M  V30 33658 H 3186.04 2.04915 -5.75189 0
M  V30 33659 H 3187.45 -0.222171 -5.72869 0
M  V30 33660 H 3185.85 -0.990193 -5.91874 0
M  V30 33661 H 3186.92 -1.51503 -4.60624 0
M  V30 33662 N 3188.26 1.53669 -0.349801 0
M  V30 33663 C 3189.5 2.02926 0.245059 0
M  V30 33664 C 3189.87 1.23192 1.47268 0
M  V30 33665 O 3191.07 1.62378 2.14212 0
M  V30 33666 C 3189.34 3.53215 0.54533 0
M  V30 33667 S 3190.9 4.24368 1.11611 0
M  V30 33668 H 3187.71 0.707291 0.0725243 0
M  V30 33669 H 3190.32 1.89285 -0.489013 0
M  V30 33670 H 3189.02 4.08854 -0.355858 0
M  V30 33671 H 3188.55 3.70987 1.3089 0
M  V30 33672 H 3190.57 4.34218 2.40144 0
M  V30 33673 N 3189.74 0.0785709 1.57404 0
M  V30 33674 C 3190.67 -0.883688 2.16132 0
M  V30 33675 C 3191.65 -1.30573 1.09017 0
M  V30 33676 O 3192.84 -1.37557 1.37083 0
M  V30 33677 C 3189.97 -2.14885 2.7284 0
M  V30 33678 C 3188.92 -1.86599 3.85182 0
M  V30 33679 C 3188.25 -3.19803 4.28521 0
M  V30 33680 C 3189.55 -1.16592 5.0912 0
M  V30 33681 H 3191.24 -0.394431 2.9679 0
M  V30 33682 H 3188.79 -0.188279 1.42764 0
M  V30 33683 H 3190.74 -2.82624 3.12572 0
M  V30 33684 H 3189.46 -2.66065 1.89413 0
M  V30 33685 H 3188.12 -1.21262 3.45964 0
M  V30 33686 H 3187.77 -3.68837 3.42006 0
M  V30 33687 H 3187.47 -3.01665 5.04254 0
M  V30 33688 H 3188.99 -3.88728 4.70874 0
M  V30 33689 H 3190.41 -1.74412 5.46126 0
M  V30 33690 H 3188.8 -1.0869 5.90175 0
M  V30 33691 H 3189.87 -0.146052 4.8468 0
M  V30 33692 N 3191.22 -1.56389 -0.19503 0
M  V30 33693 C 3192.15 -1.97577 -1.24441 0
M  V30 33694 C 3193.13 -0.847743 -1.4747 0
M  V30 33695 O 3194.31 -1.11208 -1.59206 0
M  V30 33696 C 3191.44 -2.31533 -2.58862 0
M  V30 33697 C 3190.4 -3.47075 -2.50445 0
M  V30 33698 C 3189.72 -3.66707 -3.8914 0
M  V30 33699 C 3191.02 -4.81259 -2.02945 0
M  V30 33700 H 3192.72 -2.85486 -0.902128 0
M  V30 33701 H 3190.26 -1.37351 -0.432516 0
M  V30 33702 H 3192.22 -2.58942 -3.32456 0
M  V30 33703 H 3190.94 -1.40507 -2.94831 0
M  V30 33704 H 3189.6 -3.19757 -1.79307 0
M  V30 33705 H 3189.25 -2.73012 -4.22461 0
M  V30 33706 H 3188.95 -4.44436 -3.84383 0
M  V30 33707 H 3190.47 -3.96492 -4.64356 0
M  V30 33708 H 3191.89 -5.07699 -2.66297 0
M  V30 33709 H 3190.28 -5.62458 -2.0919 0
M  V30 33710 H 3191.35 -4.74838 -0.982674 0
M  V30 33711 N 3192.7 0.462746 -1.50653 0
M  V30 33712 C 3193.66 1.5421 -1.69564 0
M  V30 33713 C 3194.66 1.50504 -0.566132 0
M  V30 33714 O 3195.85 1.52976 -0.8333 0
M  V30 33715 C 3192.98 2.93823 -1.72861 0
M  V30 33716 H 3194.17 1.38757 -2.65869 0
M  V30 33717 H 3191.73 0.689703 -1.4026 0
M  V30 33718 H 3192.46 3.14711 -0.782785 0
M  V30 33719 H 3192.25 2.97919 -2.54925 0
M  V30 33720 H 3193.74 3.7217 -1.89417 0
M  V30 33721 N 3194.17 1.40371 0.716495 0
M  V30 33722 C 3195.42 1.39808 1.47734 0
M  V30 33723 C 3195.78 -0.000306619 1.924 0
M  V30 33724 O 3195.07 -0.970518 1.65201 0
M  V30 33725 C 3195.26 2.32108 2.71773 0
M  V30 33726 C 3195.09 3.80782 2.39238 0
M  V30 33727 C 3193.86 4.49601 2.30624 0
M  V30 33728 C 3196.06 4.72297 2.03568 0
M  V30 33729 N 3194.04 5.83512 1.90754 0
M  V30 33730 C 3195.41 5.94998 1.74291 0
M  V30 33731 C 3197.47 4.60141 1.90196 0
M  V30 33732 C 3196.17 7.06899 1.32988 0
M  V30 33733 C 3198.2 5.71983 1.50297 0
M  V30 33734 C 3197.56 6.93769 1.21917 0
M  V30 33735 H 3193.66 0.566846 0.538711 0
M  V30 33736 H 3196.24 1.76076 0.830987 0
M  V30 33737 H 3194.41 1.97969 3.3416 0
M  V30 33738 H 3196.14 2.22408 3.38108 0
M  V30 33739 H 3192.9 4.03271 2.48334 0
M  V30 33740 H 3193.32 6.54427 1.7336 0
M  V30 33741 H 3197.97 3.66502 2.10798 0
M  V30 33742 H 3195.68 8.00422 1.11129 0
M  V30 33743 H 3199.27 5.64573 1.4053 0
M  V30 33744 H 3198.15 7.78843 0.915077 0
M  V30 33745 N 3195.65 -0.948621 1.25853 0
M  V30 33746 C 3196.6 -2.03185 1.0344 0
M  V30 33747 C 3197.59 -1.60871 -0.0307349 0
M  V30 33748 O 3198.78 -1.76027 0.185327 0
M  V30 33749 C 3195.91 -3.36867 0.661485 0
M  V30 33750 C 3194.99 -3.85687 1.7637 0
M  V30 33751 N 3195.38 -4.07236 2.99987 0
M  V30 33752 C 3193.68 -4.14531 1.64559 0
M  V30 33753 C 3194.38 -4.47559 3.71572 0
M  V30 33754 N 3193.36 -4.53836 2.99222 0
M  V30 33755 H 3197.16 -2.17847 1.97281 0
M  V30 33756 H 3194.68 -1.1339 1.1626 0
M  V30 33757 H 3196.67 -4.14103 0.482093 0
M  V30 33758 H 3195.33 -3.23579 -0.269525 0
M  V30 33759 H 3196.34 -3.94137 3.3597 0
M  V30 33760 H 3193.02 -4.10073 0.783963 0
M  V30 33761 H 3194.41 -4.72485 4.7771 0
M  V30 33762 N 3197.13 -1.07536 -1.15212 0
M  V30 33763 C 3198.08 -0.691719 -2.22077 0
M  V30 33764 C 3199.07 0.298353 -1.66752 0
M  V30 33765 O 3200.28 0.161865 -1.79271 0
M  V30 33766 H 3196.65 -0.205617 -0.723344 0
M  V30 33767 H 3198.62 -1.6026 -2.51713 0
M  V30 33768 C 3197.37 -0.107607 -3.47533 0
M  V30 33769 H 3196.7 -0.860591 -3.90428 0
M  V30 33770 H 3198.14 0.123141 -4.23821 0
M  V30 33771 C 3196.6 1.15221 -3.16585 0
M  V30 33772 O 3197.13 2.23839 -3.33555 0
M  V30 33773 N 3195.33 1.0591 -2.70613 0
M  V30 33774 H 3194.88 0.175153 -2.57004 0
M  V30 33775 H 3194.84 1.90282 -2.5028 0
M  V30 33776 N 3198.61 1.32084 -0.85974 0
M  V30 33777 C 3199.86 1.96685 -0.464696 0
M  V30 33778 C 3200.18 1.68347 0.984091 0
M  V30 33779 O 3199.45 0.993391 1.68845 0
M  V30 33780 H 3198.03 0.727666 -0.168851 0
M  V30 33781 H 3200.69 1.61077 -1.09728 0
M  V30 33782 H 3199.79 3.06002 -0.613958 0
M  V30 33783 N 3200.09 0.618171 1.4497 0
M  V30 33784 C 3201 -0.0960045 2.34403 0
M  V30 33785 C 3202.01 -0.849328 1.51863 0
M  V30 33786 O 3203.19 -0.804524 1.84633 0
M  V30 33787 C 3200.25 -1.07392 3.29648 0
M  V30 33788 C 3199.31 -0.321391 4.28095 0
M  V30 33789 C 3198.55 -1.25272 5.1879 0
M  V30 33790 O 3198.77 -2.49097 5.13134 0
M  V30 33791 O 3197.7 -0.744051 5.97283 0
M  V30 33792 H 3201.53 0.639228 2.96897 0
M  V30 33793 H 3199.12 0.378395 1.44529 0
M  V30 33794 H 3201 -1.63687 3.8831 0
M  V30 33795 H 3199.67 -1.78999 2.69706 0
M  V30 33796 H 3198.58 0.284288 3.73018 0
M  V30 33797 H 3199.91 0.354402 4.90922 0
M  V30 33798 N 3201.56 -1.53481 0.357946 0
M  V30 33799 C 3202.51 -2.22259 -0.508411 0
M  V30 33800 C 3203.5 -1.21507 -1.05474 0
M  V30 33801 O 3204.69 -1.4699 -0.98605 0
M  V30 33802 C 3201.82 -3.00965 -1.65152 0
M  V30 33803 C 3200.91 -4.09086 -1.11844 0
M  V30 33804 N 3201.3 -5.04863 -0.307729 0
M  V30 33805 C 3199.59 -4.23656 -1.39398 0
M  V30 33806 C 3200.3 -5.81698 -0.0167397 0
M  V30 33807 N 3199.27 -5.40141 -0.612301 0
M  V30 33808 H 3203.07 -2.93663 0.117888 0
M  V30 33809 H 3200.59 -1.61554 0.165558 0
M  V30 33810 H 3202.58 -3.48749 -2.28429 0
M  V30 33811 H 3201.24 -2.3109 -2.28096 0
M  V30 33812 H 3202.26 -5.17873 0.0524223 0
M  V30 33813 H 3198.93 -3.65005 -2.02675 0
M  V30 33814 H 3200.32 -6.68863 0.638163 0
M  V30 33815 N 3203.04 -0.0869173 -1.5736 0
M  V30 33816 C 3203.95 0.889364 -2.17089 0
M  V30 33817 C 3204.97 1.31617 -1.13811 0
M  V30 33818 O 3206.14 1.38577 -1.46145 0
M  V30 33819 C 3203.21 2.1334 -2.73289 0
M  V30 33820 C 3202.27 1.76157 -3.91494 0
M  V30 33821 C 3201.5 2.94629 -4.45005 0
M  V30 33822 O 3201.73 4.09109 -3.97475 0
M  V30 33823 O 3200.66 2.73569 -5.36138 0
M  V30 33824 H 3204.49 0.411223 -3.00903 0
M  V30 33825 H 3202.07 0.136988 -1.48771 0
M  V30 33826 H 3203.95 2.86261 -3.09245 0
M  V30 33827 H 3202.63 2.60222 -1.92526 0
M  V30 33828 H 3201.54 1.00441 -3.60364 0
M  V30 33829 H 3202.87 1.34044 -4.73596 0
M  V30 33830 N 3204.52 1.5649 0.186734 0
M  V30 33831 C 3205.75 1.84962 0.920463 0
M  V30 33832 C 3206.16 0.668329 1.77003 0
M  V30 33833 O 3205.5 -0.372098 1.79892 0
M  V30 33834 C 3205.56 3.07648 1.85992 0
M  V30 33835 C 3205.23 4.41195 1.19148 0
M  V30 33836 C 3206.22 5.16828 0.564355 0
M  V30 33837 C 3203.91 4.87931 1.19283 0
M  V30 33838 C 3205.9 6.37378 -0.0524888 0
M  V30 33839 C 3203.59 6.08416 0.572159 0
M  V30 33840 C 3204.59 6.82982 -0.0494141 0
M  V30 33841 O 3204.28 8.01183 -0.660342 0
M  V30 33842 H 3204.01 0.618137 0.273648 0
M  V30 33843 H 3206.56 2.04459 0.196401 0
M  V30 33844 H 3204.79 2.84058 2.62389 0
M  V30 33845 H 3206.48 3.22696 2.46215 0
M  V30 33846 H 3207.25 4.8181 0.55539 0
M  V30 33847 H 3203.13 4.29842 1.66604 0
M  V30 33848 H 3206.67 6.9552 -0.538255 0
M  V30 33849 H 3202.57 6.42901 0.578656 0
M  V30 33850 H 3203.34 8.16595 -0.55807 0
M  V30 33851 N 3206 -0.45475 1.50897 0
M  V30 33852 C 3206.91 -1.57617 1.73764 0
M  V30 33853 C 3207.92 -1.62532 0.621234 0
M  V30 33854 O 3209.1 -1.80098 0.901481 0
M  V30 33855 C 3206.17 -2.93727 1.84188 0
M  V30 33856 C 3205.23 -2.99069 3.07987 0
M  V30 33857 C 3204.46 -4.28687 3.17904 0
M  V30 33858 O 3204.68 -5.20105 2.34194 0
M  V30 33859 O 3203.62 -4.39957 4.10757 0
M  V30 33860 H 3207.44 -1.4124 2.68858 0
M  V30 33861 H 3205.03 -0.63596 1.35188 0
M  V30 33862 H 3206.91 -3.74538 1.9313 0
M  V30 33863 H 3205.58 -3.10268 0.922797 0
M  V30 33864 H 3204.49 -2.17277 3.04535 0
M  V30 33865 H 3205.82 -2.87469 3.99528 0
M  V30 33866 N 3207.48 -1.40749 -0.709041 0
M  V30 33867 C 3208.39 -1.43864 -1.85311 0
M  V30 33868 C 3209.4 -0.330569 -1.70831 0
M  V30 33869 O 3210.58 -0.576185 -1.92982 0
M  V30 33870 C 3207.64 -1.30574 -3.21172 0
M  V30 33871 C 3206.7 -2.5158 -3.47859 0
M  V30 33872 C 3205.94 -2.38915 -4.77237 0
M  V30 33873 O 3206.16 -1.40646 -5.52788 0
M  V30 33874 O 3205.09 -3.28416 -5.04407 0
M  V30 33875 H 3208.92 -2.40357 -1.8564 0
M  V30 33876 H 3206.51 -1.22142 -0.860331 0
M  V30 33877 H 3208.39 -1.25395 -4.02311 0
M  V30 33878 H 3207.06 -0.371898 -3.21557 0
M  V30 33879 H 3205.97 -2.62336 -2.66703 0
M  V30 33880 H 3207.3 -3.43747 -3.52277 0
M  V30 33881 N 3208.96 0.941933 -1.26354 0
M  V30 33882 C 3210.2 1.68804 -1.11854 0
M  V30 33883 C 3210.53 1.91536 0.338257 0
M  V30 33884 O 3209.79 1.49326 1.26492 0
M  V30 33885 C 3210.08 3.06875 -1.832 0
M  V30 33886 C 3209.75 3.03902 -3.33098 0
M  V30 33887 C 3208.41 3.02798 -3.73988 0
M  V30 33888 C 3210.76 2.96266 -4.28808 0
M  V30 33889 C 3208.09 2.91823 -5.08976 0
M  V30 33890 C 3210.44 2.86832 -5.63835 0
M  V30 33891 C 3209.11 2.84071 -6.04037 0
M  V30 33892 H 3208.38 0.617699 -0.409303 0
M  V30 33893 H 3211.03 1.09955 -1.56787 0
M  V30 33894 H 3209.33 3.69345 -1.30734 0
M  V30 33895 H 3211.03 3.63452 -1.69422 0
M  V30 33896 H 3207.62 3.0554 -3.00571 0
M  V30 33897 H 3211.8 2.96227 -3.982 0
M  V30 33898 H 3207.06 2.88062 -5.39287 0
M  V30 33899 H 3211.23 2.79887 -6.37681 0
M  V30 33900 H 3208.86 2.75322 -7.08591 0
M  V30 33901 N 3210.43 1.08146 1.1464 0
M  V30 33902 C 3211.68 0.80447 1.84963 0
M  V30 33903 C 3212 -0.672074 1.83691 0
M  V30 33904 O 3213.2 -1.06413 2.49777 0
M  V30 33905 C 3211.66 1.3891 3.32012 0
M  V30 33906 C 3211.27 2.89724 3.41708 0
M  V30 33907 C 3213.01 1.19048 4.07465 0
M  V30 33908 C 3210.92 3.41337 4.82952 0
M  V30 33909 H 3209.85 0.297268 0.692927 0
M  V30 33910 H 3212.5 1.30254 1.29252 0
M  V30 33911 H 3210.88 0.818748 3.87444 0
M  V30 33912 H 3212.05 3.52872 2.96341 0
M  V30 33913 H 3210.37 3.08468 2.79708 0
M  V30 33914 H 3212.97 1.55078 5.11718 0
M  V30 33915 H 3213.31 0.1301 4.16097 0
M  V30 33916 H 3213.84 1.72763 3.58326 0
M  V30 33917 H 3210.58 4.46937 4.79507 0
M  V30 33918 H 3210.1 2.82946 5.28868 0
M  V30 33919 H 3211.78 3.37768 5.51835 0
M  V30 33920 N 3211.91 -1.31626 0.866732 0
M  V30 33921 C 3213.33 -1.4952 0.558214 0
M  V30 33922 C 3213.53 -1.79862 -0.908408 0
M  V30 33923 O 3212.58 -1.87534 -1.69077 0
M  V30 33924 C 3213.9 -2.63119 1.45563 0
M  V30 33925 C 3215.44 -2.77003 1.45733 0
M  V30 33926 C 3215.92 -3.93696 2.34024 0
M  V30 33927 N 3217.41 -4.00977 2.31886 0
M  V30 33928 C 3218.15 -4.90534 2.96924 0
M  V30 33929 N 3217.64 -5.85015 3.71119 0
M  V30 33930 N 3219.43 -4.83754 2.86249 0
M  V30 33931 H 3211.59 -1.102 1.81576 0
M  V30 33932 H 3213.85 -0.54423 0.77622 0
M  V30 33933 H 3213.55 -2.47464 2.49909 0
M  V30 33934 H 3213.43 -3.59184 1.15181 0
M  V30 33935 H 3215.82 -2.92075 0.42147 0
M  V30 33936 H 3215.9 -1.81615 1.80137 0
M  V30 33937 H 3215.54 -3.79383 3.37685 0
M  V30 33938 H 3215.47 -4.88385 1.96946 0
M  V30 33939 H 3217.96 -3.33378 1.77954 0
M  V30 33940 H 3218.27 -6.50073 4.17881 0
M  V30 33941 H 3216.62 -5.85004 3.75227 0
M  V30 33942 H 3219.81 -4.08917 2.27826 0
M  V30 33943 H 3219.98 -5.53344 3.37216 0
M  V30 33944 N 3213.39 -0.62585 -1.4464 0
M  V30 33945 C 3214.34 0.0822185 -2.30654 0
M  V30 33946 C 3215.31 0.842027 -1.43175 0
M  V30 33947 O 3216.49 0.824121 -1.72084 0
M  V30 33948 C 3213.63 1.0614 -3.28372 0
M  V30 33949 C 3212.74 0.300562 -4.30953 0
M  V30 33950 C 3211.88 1.27109 -5.15768 0
M  V30 33951 C 3210.92 0.499107 -6.10062 0
M  V30 33952 N 3210.06 1.41983 -6.87594 0
M  V30 33953 H 3214.9 -0.657213 -2.90663 0
M  V30 33954 H 3212.43 -0.335884 -1.43214 0
M  V30 33955 H 3214.39 1.64243 -3.8351 0
M  V30 33956 H 3213.02 1.76802 -2.70075 0
M  V30 33957 H 3212.07 -0.3963 -3.7833 0
M  V30 33958 H 3213.38 -0.300939 -4.97891 0
M  V30 33959 H 3212.54 1.92362 -5.75397 0
M  V30 33960 H 3211.28 1.90652 -4.48891 0
M  V30 33961 H 3210.28 -0.166944 -5.49546 0
M  V30 33962 H 3211.51 -0.131528 -6.78973 0
M  V30 33963 H 3209.45 2.04256 -6.2339 0
M  V30 33964 H 3209.37 0.872222 -7.50952 0
M  V30 33965 H 3210.64 2.06137 -7.5175 0
M  V30 33966 N 3214.87 1.53289 -0.36608 0
M  V30 33967 C 3216.12 2.00446 0.224579 0
M  V30 33968 C 3216.43 1.25743 1.49827 0
M  V30 33969 O 3217.64 1.6349 2.16756 0
M  V30 33970 C 3216.09 3.57066 0.450756 0
M  V30 33971 C 3215.7 4.40647 -0.808335 0
M  V30 33972 C 3217.44 4.12577 0.999043 0
M  V30 33973 C 3215.35 5.88821 -0.551715 0
M  V30 33974 H 3214.28 0.748883 0.0876982 0
M  V30 33975 H 3216.93 1.76977 -0.484898 0
M  V30 33976 H 3215.31 3.7669 1.2215 0
M  V30 33977 H 3216.49 4.32796 -1.58191 0
M  V30 33978 H 3214.8 3.96242 -1.27988 0
M  V30 33979 H 3217.4 5.20914 1.20636 0
M  V30 33980 H 3217.74 3.67203 1.96133 0
M  V30 33981 H 3218.28 3.96753 0.288448 0
M  V30 33982 H 3215.01 6.38473 -1.48434 0
M  V30 33983 H 3214.53 5.9952 0.183357 0
M  V30 33984 H 3216.21 6.46757 -0.177421 0
M  V30 33985 N 3216.35 0.0952613 1.57312 0
M  V30 33986 C 3217.76 -0.261388 1.57445 0
M  V30 33987 C 3217.96 -1.68406 1.10642 0
M  V30 33988 O 3217.02 -2.40054 0.782954 0
M  V30 33989 C 3218.33 -0.0496678 3.00659 0
M  V30 33990 C 3219.88 -0.117404 3.1278 0
M  V30 33991 C 3220.35 0.0663246 4.57952 0
M  V30 33992 N 3221.84 0.011496 4.63199 0
M  V30 33993 C 3222.58 0.1289 5.73255 0
M  V30 33994 N 3222.08 0.301147 6.92145 0
M  V30 33995 N 3223.87 0.0701587 5.62056 0
M  V30 33996 H 3216.02 1.02478 1.86043 0
M  V30 33997 H 3218.28 0.40163 0.858719 0
M  V30 33998 H 3217.99 0.932948 3.391 0
M  V30 33999 H 3217.86 -0.79191 3.68793 0
M  V30 34000 H 3220.25 -1.09052 2.74211 0
M  V30 34001 H 3220.33 0.656331 2.47237 0
M  V30 34002 H 3219.97 1.03631 4.97215 0
M  V30 34003 H 3219.9 -0.727106 5.21556 0
M  V30 34004 H 3222.4 -0.119087 3.77712 0
M  V30 34005 H 3222.71 0.38224 7.71854 0
M  V30 34006 H 3221.05 0.336817 6.94183 0
M  V30 34007 H 3224.24 -0.0632765 4.68057 0
M  V30 34008 H 3224.42 0.165105 6.4779 0
M  V30 34009 N 3217.82 -1.56587 -0.178432 0
M  V30 34010 C 3219.05 -1.86074 -0.916028 0
M  V30 34011 C 3219.47 -0.680785 -1.75348 0
M  V30 34012 O 3218.83 0.370248 -1.77479 0
M  V30 34013 C 3218.88 -3.13923 -1.77439 0
M  V30 34014 O 3217.98 -2.95646 -2.87519 0
M  V30 34015 H 3217.32 -0.612239 -0.257021 0
M  V30 34016 H 3219.85 -2.03818 -0.178719 0
M  V30 34017 H 3219.86 -3.45146 -2.17574 0
M  V30 34018 H 3218.54 -3.99419 -1.1592 0
M  V30 34019 H 3217.12 -2.75761 -2.51018 0
M  V30 34020 N 3219.3 0.446741 -1.51136 0
M  V30 34021 C 3220.55 1.19872 -1.6358 0
M  V30 34022 C 3220.88 1.91084 -0.346511 0
M  V30 34023 O 3220.16 1.83196 0.653414 0
M  V30 34024 C 3220.44 2.22318 -2.83279 0
M  V30 34025 C 3220.29 1.55251 -4.22158 0
M  V30 34026 C 3221.61 3.23396 -2.98502 0
M  V30 34027 H 3218.73 0.434441 -0.59534 0
M  V30 34028 H 3221.37 0.489198 -1.83594 0
M  V30 34029 H 3219.52 2.82829 -2.66345 0
M  V30 34030 H 3221.19 0.981492 -4.50738 0
M  V30 34031 H 3219.44 0.855047 -4.2529 0
M  V30 34032 H 3220.11 2.29814 -5.01886 0
M  V30 34033 H 3222.58 2.7293 -3.14084 0
M  V30 34034 H 3221.46 3.9238 -3.83835 0
M  V30 34035 H 3221.72 3.88952 -2.10164 0
M  V30 34036 N 3220.78 1.41123 0.701567 0
M  V30 34037 C 3222.19 1.35796 1.28127 0
M  V30 34038 C 3222.54 0.0381529 1.96163 0
M  V30 34039 O 3221.67 -0.863688 1.98417 0
M  V30 34040 C 3222.26 2.45959 2.33001 0
M  V30 34041 C 3220.82 2.44048 2.86561 0
M  V30 34042 C 3219.97 2.26115 1.60522 0
M  V30 34043 H 3222.92 1.50726 0.49673 0
M  V30 34044 H 3222.94 2.14673 3.14159 0
M  V30 34045 H 3222.45 3.42003 1.83454 0
M  V30 34046 H 3220.55 1.51743 3.40301 0
M  V30 34047 H 3220.67 3.40144 3.374 0
M  V30 34048 H 3219.03 1.73883 1.8611 0
M  V30 34049 H 3219.81 3.24177 1.1298 0
M  V30 34050 N 3222.26 -0.935219 1.26852 0
M  V30 34051 C 3223.5 -1.68458 1.12915 0
M  V30 34052 C 3223.84 -1.9145 -0.325674 0
M  V30 34053 O 3223.11 -1.49946 -1.23881 0
M  V30 34054 C 3223.39 -3.05573 1.90518 0
M  V30 34055 C 3223.25 -2.8987 3.43941 0
M  V30 34056 C 3224.57 -4.05786 1.7037 0
M  V30 34057 H 3221.69 -0.611375 0.41157 0
M  V30 34058 H 3224.33 -1.08579 1.55919 0
M  V30 34059 H 3222.48 -3.56687 1.5397 0
M  V30 34060 H 3224.15 -2.45932 3.90276 0
M  V30 34061 H 3222.39 -2.25369 3.70663 0
M  V30 34062 H 3223.06 -3.87146 3.93474 0
M  V30 34063 H 3225.54 -3.63655 2.02223 0
M  V30 34064 H 3224.42 -4.99728 2.27074 0
M  V30 34065 H 3224.68 -4.37299 0.649751 0
M  V30 34066 N 3223.74 -1.08752 -1.14065 0
M  V30 34067 C 3224.98 -0.817731 -1.84818 0
M  V30 34068 C 3225.31 0.658456 -1.83547 0
M  V30 34069 O 3224.58 1.47748 -1.28636 0
M  V30 34070 H 3223.16 -0.299514 -0.684325 0
M  V30 34071 H 3225.82 -1.37423 -1.38206 0
M  V30 34072 H 3224.91 -1.16506 -2.89539 0
M  V30 34073 N 3225.21 1.31165 -0.873701 0
M  V30 34074 C 3226.63 1.49222 -0.566135 0
M  V30 34075 C 3226.83 1.80341 0.898857 0
M  V30 34076 O 3225.89 1.88428 1.6808 0
M  V30 34077 C 3227.2 2.62344 -1.46957 0
M  V30 34078 C 3228.75 2.76227 -1.472 0
M  V30 34079 C 3229.22 3.9245 -2.36109 0
M  V30 34080 N 3230.71 3.99742 -2.3401 0
M  V30 34081 C 3231.45 4.88953 -2.99521 0
M  V30 34082 N 3230.94 5.83039 -3.74216 0
M  V30 34083 N 3232.74 4.82229 -2.88811 0
M  V30 34084 H 3224.89 1.09235 -1.82158 0
M  V30 34085 H 3227.15 0.540106 -0.779095 0
M  V30 34086 H 3226.86 2.46135 -2.51218 0
M  V30 34087 H 3226.73 3.58568 -1.17084 0
M  V30 34088 H 3229.12 2.91847 -0.436954 0
M  V30 34089 H 3229.2 1.80657 -1.81098 0
M  V30 34090 H 3228.84 3.77587 -3.39692 0
M  V30 34091 H 3228.77 4.87334 -1.99533 0
M  V30 34092 H 3231.26 3.3243 -1.79719 0
M  V30 34093 H 3231.58 6.47848 -4.21323 0
M  V30 34094 H 3229.92 5.83006 -3.78324 0
M  V30 34095 H 3233.11 4.07703 -2.29992 0
M  V30 34096 H 3233.29 5.51548 -3.40145 0
M  V30 34097 N 3226.69 0.633512 1.44307 0
M  V30 34098 C 3227.93 0.142295 2.03904 0
M  V30 34099 C 3228.3 -1.21373 1.4877 0
M  V30 34100 O 3229.5 -1.7972 1.99885 0
M  V30 34101 C 3227.77 0.131038 3.5716 0
M  V30 34102 S 3229.33 -0.29521 4.37806 0
M  V30 34103 H 3226.15 0.0622553 0.708269 0
M  V30 34104 H 3228.75 0.837436 1.76656 0
M  V30 34105 H 3227.45 1.12103 3.94792 0
M  V30 34106 H 3226.98 -0.585274 3.89022 0
M  V30 34107 H 3229 -1.53885 4.71735 0
M  V30 34108 N 3228.17 -1.53093 0.374204 0
M  V30 34109 C 3229.1 -2.28925 -0.459936 0
M  V30 34110 C 3230.08 -1.31699 -1.07653 0
M  V30 34111 O 3231.27 -1.60579 -1.09216 0
M  V30 34112 C 3228.4 -3.0849 -1.59535 0
M  V30 34113 C 3227.35 -4.13475 -1.10556 0
M  V30 34114 C 3226.68 -4.81173 -2.33188 0
M  V30 34115 C 3227.98 -5.21975 -0.184183 0
M  V30 34116 H 3229.67 -2.98901 0.172744 0
M  V30 34117 H 3227.22 -1.43752 0.0845209 0
M  V30 34118 H 3229.17 -3.60291 -2.18559 0
M  V30 34119 H 3227.89 -2.3622 -2.25539 0
M  V30 34120 H 3226.55 -3.62632 -0.537947 0
M  V30 34121 H 3226.2 -4.05466 -2.97668 0
M  V30 34122 H 3225.9 -5.52122 -2.01084 0
M  V30 34123 H 3227.42 -5.35773 -2.92883 0
M  V30 34124 H 3228.84 -5.69227 -0.682162 0
M  V30 34125 H 3227.24 -6.00082 0.0463801 0
M  V30 34126 H 3228.31 -4.78727 0.771236 0
M  V30 34127 N 3229.65 -0.103603 -1.57259 0
M  V30 34128 C 3230.88 0.56624 -1.99001 0
M  V30 34129 C 3231.29 1.61195 -0.982938 0
M  V30 34130 O 3230.65 1.82481 0.0263129 0
M  V30 34131 C 3230.7 1.20629 -3.4078 0
M  V30 34132 O 3230.42 0.202395 -4.37632 0
M  V30 34133 C 3231.92 1.96093 -3.97571 0
M  V30 34134 H 3229.14 0.151153 -0.653754 0
M  V30 34135 H 3231.69 -0.185401 -2.03658 0
M  V30 34136 H 3229.84 1.9088 -3.3711 0
M  V30 34137 H 3230.25 0.665444 -5.20262 0
M  V30 34138 H 3231.73 2.36224 -4.98901 0
M  V30 34139 H 3232.21 2.83013 -3.35858 0
M  V30 34140 H 3232.81 1.30638 -4.04739 0
M  V30 34141 N 3231.13 1.56679 0.170126 0
M  V30 34142 C 3232.06 1.99532 1.21282 0
M  V30 34143 C 3233.04 0.871097 1.46102 0
M  V30 34144 O 3234.22 1.13726 1.57417 0
M  V30 34145 C 3231.35 2.35622 2.55146 0
M  V30 34146 C 3230.31 3.51016 2.44892 0
M  V30 34147 C 3229.63 3.72852 3.83257 0
M  V30 34148 C 3230.93 4.84427 1.95263 0
M  V30 34149 H 3232.63 2.86885 0.856596 0
M  V30 34150 H 3230.17 1.38022 0.41061 0
M  V30 34151 H 3232.13 2.64199 3.28294 0
M  V30 34152 H 3230.85 1.4518 2.92558 0
M  V30 34153 H 3229.51 3.22569 1.74198 0
M  V30 34154 H 3229.16 2.79698 4.18064 0
M  V30 34155 H 3228.86 4.50495 3.77264 0
M  V30 34156 H 3230.38 4.0383 4.57989 0
M  V30 34157 H 3231.79 5.11872 2.58186 0
M  V30 34158 H 3230.19 5.65715 2.00215 0
M  V30 34159 H 3231.26 4.76342 0.907007 0
M  V30 34160 N 3232.6 -0.43872 1.5137 0
M  V30 34161 C 3234.02 -1.01863 1.56463 0
M  V30 34162 C 3234.37 -1.9234 0.387278 0
M  V30 34163 O 3233.49 -2.10637 -0.496094 0
M  V30 34164 C 3234.09 -1.85416 2.8356 0
M  V30 34165 C 3232.65 -2.38459 2.91229 0
M  V30 34166 C 3231.79 -1.17637 2.51111 0
M  V30 34167 H 3234.74 -0.220044 1.57167 0
M  V30 34168 H 3234.76 -2.70852 2.67244 0
M  V30 34169 H 3234.28 -1.19539 3.69232 0
M  V30 34170 H 3232.38 -3.07795 2.09984 0
M  V30 34171 H 3232.49 -2.71351 3.94849 0
M  V30 34172 H 3230.85 -1.52127 2.04278 0
M  V30 34173 H 3231.64 -0.533725 3.39126 0
M  V30 34174 N 3234.08 -1.41493 -0.694073 0
M  V30 34175 C 3235.05 -1.43182 -1.78974 0
M  V30 34176 C 3236.05 -0.322218 -1.57539 0
M  V30 34177 O 3237.24 -0.582167 -1.64184 0
M  V30 34178 C 3234.37 -1.24466 -3.17366 0
M  V30 34179 H 3235.56 -2.40719 -1.78869 0
M  V30 34180 H 3233.11 -1.27658 -0.901845 0
M  V30 34181 H 3233.85 -0.277748 -3.23108 0
M  V30 34182 H 3233.63 -2.04862 -3.34326 0
M  V30 34183 H 3235.12 -1.28486 -3.97343 0
M  V30 34184 N 3235.56 0.928479 -1.27346 0
M  V30 34185 C 3236.81 1.67608 -1.13638 0
M  V30 34186 C 3237.14 1.91884 0.317923 0
M  V30 34187 O 3236.39 1.50659 1.24901 0
M  V30 34188 C 3236.69 3.04915 -1.86445 0
M  V30 34189 C 3236.36 3.00352 -3.36303 0
M  V30 34190 C 3235.02 2.98815 -3.77178 0
M  V30 34191 C 3237.37 2.91701 -4.31926 0
M  V30 34192 C 3234.7 2.86408 -5.12042 0
M  V30 34193 C 3237.05 2.80836 -5.66846 0
M  V30 34194 C 3235.71 2.77648 -6.07015 0
M  V30 34195 H 3234.98 0.613323 -0.415832 0
M  V30 34196 H 3237.63 1.08285 -1.57945 0
M  V30 34197 H 3235.94 3.67938 -1.34644 0
M  V30 34198 H 3237.63 3.61634 -1.73267 0
M  V30 34199 H 3234.22 3.02335 -3.03795 0
M  V30 34200 H 3238.41 2.91987 -4.01319 0
M  V30 34201 H 3233.66 2.82326 -5.42312 0
M  V30 34202 H 3237.84 2.73107 -6.40613 0
M  V30 34203 H 3235.46 2.67791 -7.11472 0
M  V30 34204 N 3237.04 1.09355 1.13486 0
M  V30 34205 C 3238.26 0.851114 1.89132 0
M  V30 34206 C 3238.69 -0.591944 1.78543 0
M  V30 34207 O 3238.05 -1.41581 1.13246 0
M  V30 34208 C 3238.09 1.29007 3.36734 0
M  V30 34209 O 3237.2 0.448065 4.09959 0
M  V30 34210 H 3236.54 0.308306 0.588084 0
M  V30 34211 H 3239.07 1.4575 1.4359 0
M  V30 34212 H 3239.08 1.27515 3.87561 0
M  V30 34213 H 3237.75 2.34101 3.43758 0
M  V30 34214 H 3236.33 0.527235 3.69154 0
M  V30 34215 N 3238.52 -1.307 0.880644 0
M  V30 34216 C 3239.75 -2.00472 0.511717 0
M  V30 34217 C 3240.16 -1.66041 -0.898654 0
M  V30 34218 O 3239.52 -0.895246 -1.59033 0
M  V30 34219 C 3239.57 -3.55203 0.671786 0
M  V30 34220 O 3239.29 -3.88406 2.02663 0
M  V30 34221 C 3240.79 -4.42248 0.305278 0
M  V30 34222 H 3238.01 -0.641047 0.198242 0
M  V30 34223 H 3240.55 -1.66685 1.18475 0
M  V30 34224 H 3238.71 -3.87372 0.0461747 0
M  V30 34225 H 3239.12 -4.83113 2.04211 0
M  V30 34226 H 3240.6 -5.50011 0.468192 0
M  V30 34227 H 3241.07 -4.32638 -0.75638 0
M  V30 34228 H 3241.68 -4.15515 0.907032 0
M  V30 34229 N 3240 -0.641156 -1.43969 0
M  V30 34230 C 3240.93 0.044419 -2.33458 0
M  V30 34231 C 3241.91 0.824481 -1.48783 0
M  V30 34232 O 3243.09 0.788366 -1.77478 0
M  V30 34233 C 3240.22 1.01978 -3.3199 0
M  V30 34234 C 3239.18 0.35067 -4.26561 0
M  V30 34235 C 3238.5 1.43664 -5.15039 0
M  V30 34236 C 3239.8 -0.74939 -5.16896 0
M  V30 34237 H 3241.5 -0.702883 -2.91032 0
M  V30 34238 H 3239.04 -0.33946 -1.39942 0
M  V30 34239 H 3240.99 1.50822 -3.93485 0
M  V30 34240 H 3239.72 1.7981 -2.72646 0
M  V30 34241 H 3238.38 -0.117203 -3.66413 0
M  V30 34242 H 3238.03 2.20609 -4.52041 0
M  V30 34243 H 3237.73 0.994256 -5.79127 0
M  V30 34244 H 3239.25 1.92668 -5.79406 0
M  V30 34245 H 3240.66 -0.343635 -5.72269 0
M  V30 34246 H 3239.06 -1.11552 -5.89641 0
M  V30 34247 H 3240.13 -1.6124 -4.57307 0
M  V30 34248 N 3241.47 1.52892 -0.382318 0
M  V30 34249 C 3242.89 1.59568 -0.031969 0
M  V30 34250 C 3243.09 1.39667 1.45243 0
M  V30 34251 O 3242.15 1.21017 2.2161 0
M  V30 34252 C 3243.46 2.96465 -0.502898 0
M  V30 34253 C 3245.01 3.09623 -0.458554 0
M  V30 34254 C 3245.48 4.48958 -0.90556 0
M  V30 34255 N 3246.97 4.55122 -0.861291 0
M  V30 34256 C 3247.71 5.61155 -1.17866 0
M  V30 34257 N 3247.2 6.74866 -1.56615 0
M  V30 34258 N 3249 5.51224 -1.10037 0
M  V30 34259 H 3241.15 1.64078 -1.34878 0
M  V30 34260 H 3243.41 0.770436 -0.552388 0
M  V30 34261 H 3243.12 3.16222 -1.53937 0
M  V30 34262 H 3242.99 3.77063 0.101711 0
M  V30 34263 H 3245.38 2.89566 0.568817 0
M  V30 34264 H 3245.46 2.30994 -1.09888 0
M  V30 34265 H 3245.1 4.69755 -1.93113 0
M  V30 34266 H 3245.03 5.26042 -0.242319 0
M  V30 34267 H 3247.52 3.73484 -0.576054 0
M  V30 34268 H 3247.84 7.51733 -1.79214 0
M  V30 34269 H 3246.18 6.76215 -1.60495 0
M  V30 34270 H 3249.37 4.6127 -0.796704 0
M  V30 34271 H 3249.55 6.3376 -1.35102 0
M  V30 34272 N 3242.95 0.111941 1.57202 0
M  V30 34273 C 3244.37 -0.244674 1.57713 0
M  V30 34274 C 3244.57 -1.67223 1.12422 0
M  V30 34275 O 3243.62 -2.3921 0.808371 0
M  V30 34276 C 3244.94 -0.0177761 3.00695 0
M  V30 34277 C 3246.48 -0.0842231 3.12887 0
M  V30 34278 C 3246.96 0.114893 4.57856 0
M  V30 34279 N 3248.45 0.0606237 4.6316 0
M  V30 34280 C 3249.19 0.189694 5.73086 0
M  V30 34281 N 3248.68 0.374542 6.91787 0
M  V30 34282 N 3250.47 0.129768 5.6195 0
M  V30 34283 H 3242.63 1.04446 1.84945 0
M  V30 34284 H 3244.89 0.410715 0.854411 0
M  V30 34285 H 3244.59 0.968861 3.38092 0
M  V30 34286 H 3244.47 -0.75275 3.69613 0
M  V30 34287 H 3246.86 -1.06138 2.75352 0
M  V30 34288 H 3246.94 0.682517 2.46527 0
M  V30 34289 H 3246.58 1.08899 4.96088 0
M  V30 34290 H 3246.51 -0.671747 5.22298 0
M  V30 34291 H 3249 -0.0790192 3.77817 0
M  V30 34292 H 3249.31 0.464084 7.71405 0
M  V30 34293 H 3247.66 0.410425 6.93787 0
M  V30 34294 H 3250.85 -0.0136292 4.68098 0
M  V30 34295 H 3251.02 0.233802 6.47578 0
M  V30 34296 N 3244.43 -1.56767 -0.161814 0
M  V30 34297 C 3245.38 -1.97141 -1.20017 0
M  V30 34298 C 3246.35 -0.836738 -1.43485 0
M  V30 34299 O 3247.53 -1.09763 -1.56067 0
M  V30 34300 C 3244.67 -2.3446 -2.53224 0
M  V30 34301 C 3243.78 -3.61149 -2.37055 0
M  V30 34302 C 3242.92 -3.87638 -3.63195 0
M  V30 34303 C 3241.96 -5.07644 -3.41999 0
M  V30 34304 N 3241.1 -5.30218 -4.60232 0
M  V30 34305 H 3245.94 -2.85654 -0.848868 0
M  V30 34306 H 3243.47 -1.41336 -0.407728 0
M  V30 34307 H 3245.43 -2.54122 -3.30875 0
M  V30 34308 H 3244.06 -1.49045 -2.86331 0
M  V30 34309 H 3243.11 -3.49348 -1.50533 0
M  V30 34310 H 3244.42 -4.48957 -2.17345 0
M  V30 34311 H 3243.58 -4.07718 -4.49278 0
M  V30 34312 H 3242.32 -2.98223 -3.85894 0
M  V30 34313 H 3241.32 -4.87452 -2.54303 0
M  V30 34314 H 3242.55 -5.98598 -3.20713 0
M  V30 34315 H 3240.49 -4.43756 -4.83132 0
M  V30 34316 H 3240.41 -6.12266 -4.4347 0
M  V30 34317 H 3241.68 -5.54784 -5.47572 0
M  V30 34318 N 3245.91 0.430686 -1.51601 0
M  V30 34319 C 3247.15 1.17818 -1.65803 0
M  V30 34320 C 3247.51 1.88754 -0.372802 0
M  V30 34321 O 3246.8 1.80886 0.631736 0
M  V30 34322 C 3247 2.21604 -2.80404 0
M  V30 34323 C 3246.82 1.60856 -4.19947 0
M  V30 34324 C 3245.59 1.39059 -4.85789 0
M  V30 34325 C 3247.79 1.08116 -5.02808 0
M  V30 34326 N 3245.77 0.739782 -6.09426 0
M  V30 34327 C 3247.15 0.556006 -6.17502 0
M  V30 34328 C 3249.2 0.973549 -4.88289 0
M  V30 34329 C 3247.9 -0.0661822 -7.1927 0
M  V30 34330 C 3249.93 0.365246 -5.90271 0
M  V30 34331 C 3249.29 -0.149329 -7.04242 0
M  V30 34332 H 3245.39 0.418562 -0.660552 0
M  V30 34333 H 3247.97 0.473766 -1.88848 0
M  V30 34334 H 3246.15 2.89426 -2.59011 0
M  V30 34335 H 3247.88 2.8856 -2.83752 0
M  V30 34336 H 3244.63 1.65417 -4.43773 0
M  V30 34337 H 3245.06 0.431626 -6.75623 0
M  V30 34338 H 3249.7 1.35724 -4.00423 0
M  V30 34339 H 3247.42 -0.46199 -8.06778 0
M  V30 34340 H 3251 0.2838 -5.81107 0
M  V30 34341 H 3249.88 -0.612628 -7.81803 0
M  V30 34342 N 3247.39 1.4186 0.686559 0
M  V30 34343 C 3248.32 1.47196 1.81261 0
M  V30 34344 C 3249.3 0.329686 1.66874 0
M  V30 34345 O 3250.48 0.54238 1.86472 0
M  V30 34346 C 3247.61 1.36221 3.1947 0
M  V30 34347 C 3246.57 2.48353 3.48575 0
M  V30 34348 C 3245.89 2.22441 4.86235 0
M  V30 34349 C 3247.19 3.90684 3.46646 0
M  V30 34350 H 3248.89 2.41439 1.77053 0
M  V30 34351 H 3246.43 1.16208 0.850395 0
M  V30 34352 H 3248.38 1.38565 3.97967 0
M  V30 34353 H 3247.11 0.384668 3.24327 0
M  V30 34354 H 3245.77 2.45307 2.72433 0
M  V30 34355 H 3245.42 1.23008 4.87727 0
M  V30 34356 H 3245.12 2.97585 5.06672 0
M  V30 34357 H 3246.64 2.26514 5.6703 0
M  V30 34358 H 3248.05 3.95396 4.15132 0
M  V30 34359 H 3246.45 4.65585 3.78617 0
M  V30 34360 H 3247.52 4.18193 2.45444 0
M  V30 34361 N 3248.86 -0.921712 1.27837 0
M  V30 34362 C 3250.14 -1.64875 1.05241 0
M  V30 34363 C 3250.52 -2.07063 -0.410884 0
M  V30 34364 O 3249.87 -1.80948 -1.39535 0
M  V30 34365 C 3250.08 -2.84628 2.0196 0
M  V30 34366 C 3251.43 -3.55833 2.31664 0
M  V30 34367 O 3252.45 -2.94765 1.99981 0
M  V30 34368 O 3251.31 -4.65873 2.857 0
M  V30 34369 H 3248.4 -0.722923 0.401635 0
M  V30 34370 H 3250.95 -0.97172 1.39125 0
M  V30 34371 H 3249.72 -2.50489 3.00618 0
M  V30 34372 H 3249.34 -3.60049 1.68673 0
M  V30 34373 N 3250.34 -1.09956 -1.12905 0
M  V30 34374 C 3251.57 -0.861132 -1.88678 0
M  V30 34375 C 3251.99 0.582467 -1.78854 0
M  V30 34376 O 3251.35 1.40978 -1.13995 0
M  V30 34377 C 3251.4 -1.30791 -3.36045 0
M  V30 34378 O 3250.5 -0.4698 -4.09715 0
M  V30 34379 H 3249.84 -0.311421 -0.586441 0
M  V30 34380 H 3252.37 -1.46509 -1.42815 0
M  V30 34381 H 3252.38 -1.29569 -3.8688 0
M  V30 34382 H 3251.06 -2.35921 -3.42512 0
M  V30 34383 H 3249.63 -0.546805 -3.68869 0
M  V30 34384 N 3251.82 1.30231 -0.887563 0
M  V30 34385 C 3253.07 1.96042 -0.507313 0
M  V30 34386 C 3253.39 1.70054 0.944029 0
M  V30 34387 O 3252.65 0.999474 1.68253 0
M  V30 34388 C 3252.95 3.49827 -0.731827 0
M  V30 34389 C 3252.61 3.9587 -2.15865 0
M  V30 34390 C 3251.28 4.08153 -2.54882 0
M  V30 34391 C 3253.63 4.19844 -3.08838 0
M  V30 34392 C 3250.96 4.41771 -3.86076 0
M  V30 34393 C 3253.31 4.54932 -4.39567 0
M  V30 34394 C 3251.97 4.65424 -4.78474 0
M  V30 34395 H 3251.24 0.71737 -0.185639 0
M  V30 34396 H 3253.89 1.5505 -1.12391 0
M  V30 34397 H 3252.19 3.91787 -0.0322161 0
M  V30 34398 H 3253.89 3.98824 -0.417177 0
M  V30 34399 H 3250.48 3.86818 -1.8458 0
M  V30 34400 H 3254.67 4.09832 -2.79914 0
M  V30 34401 H 3249.92 4.48095 -4.15958 0
M  V30 34402 H 3254.1 4.72433 -5.11644 0
M  V30 34403 H 3251.72 4.91229 -5.80171 0
M  V30 34404 O 3253.34 0.788433 1.40947 0
M  V30 34405 H 3254.03 0.358244 1.90358 0
M  V30 END ATOM
M  V30 BEGIN BOND
M  V30 END BOND
M  V30 END CTAB
M  END
$$$$
