drugbank_target|P21408 Fe(3+)-binding periplasmic protein (DB04272)
 OpenBabel12092120293D

  0  0  0     0  0            999 V3000
M  V30 BEGIN CTAB
M  V30 COUNTS 5119 5172 0 0 0
M  V30 BEGIN ATOM
M  V30 1 H -0.908 1.98254 -0.117106 0
M  V30 2 N 0 1.576 0 0
M  V30 3 C 0.933 2.03868 1.02534 0
M  V30 4 C 1.911 0.928543 1.3348 0
M  V30 5 O 3.095 1.19667 1.45644 0
M  V30 6 C 0.222 2.43627 2.35294 0
M  V30 7 C -0.732 3.65373 2.2001 0
M  V30 8 S 0.101 5.13292 1.52614 0
M  V30 9 C 1.257 5.56322 2.86805 0
M  V30 10 H 1.49 2.90518 0.631377 0
M  V30 11 H -0.977 1.52953 0.210867 0
M  V30 12 H 0.981 2.67203 3.11629 0
M  V30 13 H -0.358 1.57376 2.7183 0
M  V30 14 H -1.165 3.90944 3.18086 0
M  V30 15 H -1.563 3.418 1.51819 0
M  V30 16 H 0.729 5.58782 3.83104 0
M  V30 17 H 1.672 6.56266 2.65933 0
M  V30 18 H 2.08 4.83886 2.90714 0
M  V30 19 N 1.4781 -0.272755 1.55222 0
M  V30 20 C 2.4251 -1.33716 1.88119 0
M  V30 21 C 3.3951 -1.49066 0.73271 0
M  V30 22 O 4.5801 -1.63469 0.984002 0
M  V30 23 C 1.7201 -2.69238 2.15882 0
M  V30 24 C 0.8331 -2.62108 3.43399 0
M  V30 25 C -0.0319 -3.89811 3.60861 0
M  V30 26 C -0.9929 -3.77193 4.8207 0
M  V30 27 N -1.8559 -4.9673 4.96189 0
M  V30 28 H 2.9841 -1.04962 2.78903 0
M  V30 29 H 0.5211 -0.507088 1.38083 0
M  V30 30 H 2.4791 -3.48089 2.29978 0
M  V30 31 H 1.1091 -2.96194 1.28331 0
M  V30 32 H 0.1611 -1.74967 3.37773 0
M  V30 33 H 1.4731 -2.48685 4.32386 0
M  V30 34 H 0.6271 -4.77103 3.74777 0
M  V30 35 H -0.6339 -4.06102 2.7006 0
M  V30 36 H -1.6289 -2.88284 4.68159 0
M  V30 37 H -0.4039 -3.62421 5.74307 0
M  V30 38 H -2.4579 -5.13431 4.08319 0
M  V30 39 H -2.5409 -4.85839 5.79221 0
M  V30 40 H -1.2729 -5.85594 5.1449 0
M  V30 41 N 2.9562 -1.48159 -0.537278 0
M  V30 42 C 3.8862 -1.65029 -1.6519 0
M  V30 43 C 4.8672 -0.499281 -1.62607 0
M  V30 44 O 6.0522 -0.730972 -1.79918 0
M  V30 45 C 3.1822 -1.68303 -3.03795 0
M  V30 46 C 2.1362 -2.8283 -3.21234 0
M  V30 47 C 1.4622 -2.71189 -4.60826 0
M  V30 48 C 2.7622 -4.24211 -3.04701 0
M  V30 49 H 4.4562 -2.58341 -1.51328 0
M  V30 50 H 2.0022 -1.24325 -0.726585 0
M  V30 51 H 3.9552 -1.78693 -3.81637 0
M  V30 52 H 2.6792 -0.715635 -3.18663 0
M  V30 53 H 1.3382 -2.71983 -2.45807 0
M  V30 54 H 0.9862 -1.72435 -4.7252 0
M  V30 55 H 0.6862 -3.48035 -4.7344 0
M  V30 56 H 2.2102 -2.83537 -5.40777 0
M  V30 57 H 3.6242 -4.3593 -3.72341 0
M  V30 58 H 2.0212 -5.01998 -3.28813 0
M  V30 59 H 3.0912 -4.41184 -2.01209 0
M  V30 60 N 4.4343 0.785586 -1.36625 0
M  V30 61 C 5.8503 1.08419 -1.17122 0
M  V30 62 C 6.0503 2.015 0.00208491 0
M  V30 63 O 5.1063 2.43551 0.666278 0
M  V30 64 C 6.4193 1.69498 -2.48377 0
M  V30 65 C 7.9673 1.81821 -2.54775 0
M  V30 66 C 8.4423 2.46315 -3.86126 0
M  V30 67 N 9.9333 2.53779 -3.87492 0
M  V30 68 C 10.6683 3.045 -4.85868 0
M  V30 69 N 10.1643 3.55499 -5.94637 0
M  V30 70 N 11.9573 3.03247 -4.73284 0
M  V30 71 H 4.1083 0.167264 -2.1174 0
M  V30 72 H 6.3713 0.13682 -0.938075 0
M  V30 73 H 6.0773 1.08571 -3.34522 0
M  V30 74 H 5.9513 2.6896 -2.64462 0
M  V30 75 H 8.3383 2.41884 -1.69045 0
M  V30 76 H 8.4193 0.811532 -2.42586 0
M  V30 77 H 8.0633 1.86895 -4.72263 0
M  V30 78 H 7.9933 3.47561 -3.95612 0
M  V30 79 H 10.4843 2.17672 -3.08913 0
M  V30 80 H 10.7973 3.92562 -6.65669 0
M  V30 81 H 9.1423 3.5364 -5.98301 0
M  V30 82 H 12.3333 2.62696 -3.87438 0
M  V30 83 H 12.5063 3.42467 -5.50109 0
M  V30 84 N 5.9124 1.20967 1.01018 0
M  V30 85 C 7.1614 1.01796 1.74128 0
M  V30 86 C 7.4744 -0.449691 1.90361 0
M  V30 87 O 8.6804 -0.76068 2.60626 0
M  V30 88 C 7.1364 1.7727 3.13215 0
M  V30 89 C 6.7444 3.28171 3.04972 0
M  V30 90 C 8.4884 1.66489 3.90489 0
M  V30 91 C 6.3954 3.96156 4.39107 0
M  V30 92 H 5.3254 0.377276 0.652824 0
M  V30 93 H 7.9764 1.44651 1.12909 0
M  V30 94 H 6.3584 1.27205 3.75013 0
M  V30 95 H 7.5324 3.85499 2.52443 0
M  V30 96 H 5.8474 3.39437 2.41188 0
M  V30 97 H 8.4444 2.14617 4.89738 0
M  V30 98 H 8.7874 0.6222 4.11624 0
M  V30 99 H 9.3204 2.14003 3.35332 0
M  V30 100 H 6.0594 5.00604 4.23174 0
M  V30 101 H 5.5794 3.43617 4.91617 0
M  V30 102 H 7.2584 4.00774 5.07926 0
M  V30 103 N 7.3905 -1.2043 1.01659 0
M  V30 104 C 8.6155 -1.94318 0.724942 0
M  V30 105 C 9.0405 -1.74266 -0.708034 0
M  V30 106 O 8.3985 -1.03694 -1.48719 0
M  V30 107 C 8.4465 -3.44486 1.06591 0
M  V30 108 O 7.5505 -4.12017 0.177599 0
M  V30 109 H 6.8915 -0.60708 0.26898 0
M  V30 110 H 9.4215 -1.52861 1.35995 0
M  V30 111 H 9.4315 -3.95106 1.01762 0
M  V30 112 H 8.1065 -3.58404 2.10997 0
M  V30 113 H 6.6835 -3.71821 0.283421 0
M  V30 114 N 8.8686 -0.792821 -1.36206 0
M  V30 115 C 10.0936 -0.377701 -2.03932 0
M  V30 116 C 10.5186 0.998947 -1.59382 0
M  V30 117 O 9.8766 1.64421 -0.763903 0
M  V30 118 C 9.9246 -0.453635 -3.57735 0
M  V30 119 O 9.0286 0.538151 -4.08874 0
M  V30 120 H 8.3696 -0.159855 -0.644471 0
M  V30 121 H 10.8996 -1.07488 -1.7409 0
M  V30 122 H 10.9096 -0.318464 -4.06755 0
M  V30 123 H 9.5846 -1.45784 -3.89512 0
M  V30 124 H 8.1616 0.364359 -3.71116 0
M  V30 125 N 10.3467 1.47872 -0.545128 0
M  V30 126 C 11.2767 2.32661 0.197793 0
M  V30 127 C 12.2577 1.43041 0.920504 0
M  V30 128 O 13.4427 1.71912 0.90333 0
M  V30 129 C 10.5727 3.24569 1.23582 0
M  V30 130 C 9.5267 4.23333 0.630323 0
M  V30 131 C 8.8527 5.0448 1.77211 0
M  V30 132 C 10.1527 5.20704 -0.407974 0
M  V30 133 H 11.8467 2.95024 -0.510045 0
M  V30 134 H 9.3927 1.4187 -0.246731 0
M  V30 135 H 11.3457 3.8272 1.76362 0
M  V30 136 H 10.0697 2.60236 1.97344 0
M  V30 137 H 8.7287 3.6639 0.123922 0
M  V30 138 H 8.3767 4.36561 2.49847 0
M  V30 139 H 8.0767 5.71339 1.37281 0
M  V30 140 H 9.6007 5.65487 2.3034 0
M  V30 141 H 11.0147 5.7329 0.033305 0
M  V30 142 H 9.4117 5.95699 -0.725486 0
M  V30 143 H 10.4817 4.66917 -1.30828 0
M  V30 144 N 11.8248 0.280983 1.55075 0
M  V30 145 C 13.0728 -0.333455 1.9933 0
M  V30 146 C 13.3938 -1.55937 1.17085 0
M  V30 147 O 12.6638 -1.94143 0.261805 0
M  V30 148 H 11.2438 -0.126197 0.736263 0
M  V30 149 H 13.9058 0.387678 1.91005 0
M  V30 150 H 13.0018 -0.619292 3.05894 0
M  V30 151 N 13.3029 -1.57598 0.00835791 0
M  V30 152 C 14.7139 -1.7892 -0.53333 0
M  V30 153 C 15.0649 -0.916609 -1.73473 0
M  V30 154 O 14.1899 -0.121336 -2.1606 0
M  V30 155 C 14.7849 -3.24488 -0.974313 0
M  V30 156 C 13.3439 -3.46878 -1.46125 0
M  V30 157 C 12.4909 -2.74157 -0.416302 0
M  V30 158 H 15.4419 -1.56958 0.234495 0
M  V30 159 H 15.4629 -3.3306 -1.83988 0
M  V30 160 H 14.9749 -3.87972 -0.099718 0
M  V30 161 H 13.0759 -2.8862 -2.35646 0
M  V30 162 H 13.1889 -4.55572 -1.48295 0
M  V30 163 H 11.5529 -2.39022 -0.87981 0
M  V30 164 H 12.3359 -3.40345 0.44947 0
M  V30 165 N 14.781 0.264519 -1.55364 0
M  V30 166 C 16.027 0.99646 -1.76631 0
M  V30 167 C 16.36 1.85632 -0.570478 0
M  V30 168 O 15.635 1.89647 0.43175 0
M  V30 169 C 15.918 1.87187 -3.07625 0
M  V30 170 C 15.771 1.04138 -4.37579 0
M  V30 171 C 17.09 2.85749 -3.34717 0
M  V30 172 H 14.209 0.360841 -0.642622 0
M  V30 173 H 16.851 0.268218 -1.88097 0
M  V30 174 H 15.001 2.49279 -2.9798 0
M  V30 175 H 16.673 0.440517 -4.59192 0
M  V30 176 H 14.916 0.345115 -4.32425 0
M  V30 177 H 15.587 1.68729 -5.2558 0
M  V30 178 H 18.063 2.33793 -3.4421 0
M  V30 179 H 16.939 3.44136 -4.27623 0
M  V30 180 H 17.2 3.61311 -2.54768 0
M  V30 181 N 16.2591 1.48442 0.529413 0
M  V30 182 C 17.2221 1.62524 1.61612 0
M  V30 183 C 18.2221 0.498509 1.52877 0
M  V30 184 O 19.4121 0.76431 1.56537 0
M  V30 185 C 16.5441 1.59597 3.01233 0
M  V30 186 H 17.7371 2.59423 1.50465 0
M  V30 187 H 15.2901 1.37047 0.751514 0
M  V30 188 H 16.0251 0.641781 3.17886 0
M  V30 189 H 15.8101 2.41397 3.08982 0
M  V30 190 H 17.3001 1.72646 3.80241 0
M  V30 191 N 17.7372 -0.778329 1.37039 0
M  V30 192 C 18.6672 -1.90546 1.34962 0
M  V30 193 C 19.6482 -1.68681 0.219274 0
M  V30 194 O 20.8332 -1.89634 0.418624 0
M  V30 195 C 17.9632 -3.27734 1.14925 0
M  V30 196 C 16.9172 -3.64147 2.24902 0
M  V30 197 C 16.2432 -4.99806 1.89996 0
M  V30 198 C 17.5432 -3.71579 3.67051 0
M  V30 199 H 19.2372 -1.92541 2.29277 0
M  V30 200 H 16.7832 -0.924948 1.10366 0
M  V30 201 H 18.7362 -4.06215 1.12104 0
M  V30 202 H 17.4602 -3.26154 0.170631 0
M  V30 203 H 16.1192 -2.8797 2.26868 0
M  V30 204 H 15.7672 -4.94759 0.906796 0
M  V30 205 H 15.4672 -5.25139 2.63634 0
M  V30 206 H 16.9912 -5.80694 1.88749 0
M  V30 207 H 18.4052 -4.40227 3.67251 0
M  V30 208 H 16.8022 -4.08405 4.39688 0
M  V30 209 H 17.8722 -2.72404 4.01154 0
M  V30 210 N 19.2153 -1.21501 -1.00376 0
M  V30 211 C 20.1453 -0.999478 -2.11028 0
M  V30 212 C 21.1263 0.0759671 -1.6993 0
M  V30 213 O 22.3113 -0.0841106 -1.94018 0
M  V30 214 C 19.4413 -0.564709 -3.42678 0
M  V30 215 C 18.3953 -1.58486 -3.97576 0
M  V30 216 C 17.7213 -1.00628 -5.25146 0
M  V30 217 C 19.0213 -2.97204 -4.29496 0
M  V30 218 H 20.7153 -1.92495 -2.29317 0
M  V30 219 H 18.2613 -0.92693 -1.102 0
M  V30 220 H 20.2143 -0.401091 -4.19487 0
M  V30 221 H 18.9383 0.396411 -3.24185 0
M  V30 222 H 17.5973 -1.73606 -3.22888 0
M  V30 223 H 17.2453 -0.0368439 -5.02987 0
M  V30 224 H 16.9453 -1.68771 -5.62841 0
M  V30 225 H 18.4693 -0.854015 -6.04598 0
M  V30 226 H 19.8833 -2.8552 -4.97143 0
M  V30 227 H 18.2803 -3.62372 -4.78338 0
M  V30 228 H 19.3503 -3.47956 -3.3772 0
M  V30 229 N 20.6934 1.19889 -1.02296 0
M  V30 230 C 21.6564 2.21116 -0.603351 0
M  V30 231 C 22.6564 1.5738 0.329884 0
M  V30 232 O 23.8464 1.73802 0.117702 0
M  V30 233 C 20.9784 3.40696 0.117992 0
M  V30 234 H 22.1714 2.59754 -1.49893 0
M  V30 235 H 19.7244 1.33463 -0.813468 0
M  V30 236 H 20.4594 3.07569 1.0282 0
M  V30 237 H 20.2444 3.88188 -0.552511 0
M  V30 238 H 21.7344 4.15692 0.398696 0
M  V30 239 N 22.1715 0.800033 1.35784 0
M  V30 240 C 23.3965 0.388511 2.03729 0
M  V30 241 C 23.8215 -0.990481 1.5991 0
M  V30 242 O 23.1795 -1.64013 0.772612 0
M  V30 243 C 23.2275 0.4726 3.5749 0
M  V30 244 O 22.3315 -0.51646 4.09153 0
M  V30 245 H 21.6725 0.163271 0.643614 0
M  V30 246 H 24.2025 1.0841 1.73518 0
M  V30 247 H 24.2125 0.34003 4.06581 0
M  V30 248 H 22.8875 1.47848 3.88734 0
M  V30 249 H 21.4645 -0.344673 3.71304 0
M  V30 250 N 23.6496 -1.47581 0.552962 0
M  V30 251 C 24.8746 -2.07378 0.0300593 0
M  V30 252 C 25.2996 -1.40355 -1.25229 0
M  V30 253 O 24.6576 -0.477099 -1.7491 0
M  V30 254 C 24.7056 -3.60274 -0.153231 0
M  V30 255 O 23.8096 -3.94041 -1.21678 0
M  V30 256 H 23.1506 -0.662158 0.0494182 0
M  V30 257 H 25.6806 -1.89662 0.767434 0
M  V30 258 H 25.6906 -4.0633 -0.368761 0
M  V30 259 H 24.3656 -4.08455 0.783397 0
M  V30 260 H 22.9426 -3.59735 -0.982079 0
M  V30 261 N 25.1277 -0.289203 -1.54924 0
M  V30 262 C 26.0607 0.633823 -2.19221 0
M  V30 263 C 27.0387 1.14174 -1.15772 0
M  V30 264 O 28.2227 1.21211 -1.44361 0
M  V30 265 C 25.3497 1.86592 -2.82668 0
M  V30 266 C 24.3957 1.49227 -3.99542 0
M  V30 267 S 25.2287 0.558312 -5.32582 0
M  V30 268 C 26.3847 1.79847 -5.99505 0
M  V30 269 H 26.6177 0.0875416 -2.97171 0
M  V30 270 H 24.1507 -0.0733899 -1.54225 0
M  V30 271 H 26.1087 2.57305 -3.19851 0
M  V30 272 H 24.7697 2.38335 -2.04585 0
M  V30 273 H 23.9627 2.40945 -4.42676 0
M  V30 274 H 23.5647 0.865193 -3.63855 0
M  V30 275 H 25.8567 2.7406 -6.19595 0
M  V30 276 H 26.7997 1.4099 -6.93922 0
M  V30 277 H 27.2077 1.96982 -5.29016 0
M  V30 278 N 26.6058 1.57591 -0.0167156 0
M  V30 279 C 27.5388 2.04944 1.00366 0
M  V30 280 C 28.5168 0.942648 1.32487 0
M  V30 281 O 29.7008 1.21205 1.44367 0
M  V30 282 C 26.8278 2.46109 2.32697 0
M  V30 283 C 25.8738 3.67686 2.16123 0
M  V30 284 S 26.7068 5.14882 1.47161 0
M  V30 285 C 27.8628 5.59332 2.80888 0
M  V30 286 H 28.0958 2.91172 0.600528 0
M  V30 287 H 25.6288 1.53168 0.194632 0
M  V30 288 H 27.5868 2.70493 3.08778 0
M  V30 289 H 26.2478 1.6025 2.70146 0
M  V30 290 H 25.4408 3.94296 3.13922 0
M  V30 291 H 25.0428 3.43391 1.48185 0
M  V30 292 H 27.3348 5.62814 3.77156 0
M  V30 293 H 28.2778 6.5905 2.58958 0
M  V30 294 H 28.6858 4.86942 2.85565 0
M  V30 295 N 28.0839 -0.256276 1.55502 0
M  V30 296 C 29.0139 -1.32102 1.92539 0
M  V30 297 C 29.9949 -1.50684 0.789194 0
M  V30 298 O 31.1799 -1.63449 1.04872 0
M  V30 299 C 28.3099 -2.67752 2.21192 0
M  V30 300 C 27.2639 -2.63878 3.36975 0
M  V30 301 C 26.5899 -4.03236 3.51147 0
M  V30 302 C 27.8899 -2.21682 4.72921 0
M  V30 303 H 29.5839 -1.01351 2.81724 0
M  V30 304 H 27.1299 -0.486105 1.35547 0
M  V30 305 H 29.0829 -3.42365 2.45691 0
M  V30 306 H 27.8069 -3.0012 1.28824 0
M  V30 307 H 26.4659 -1.91722 3.12471 0
M  V30 308 H 26.1139 -4.32854 2.56216 0
M  V30 309 H 25.8139 -4.01535 4.29003 0
M  V30 310 H 27.3379 -4.79563 3.77957 0
M  V30 311 H 28.7519 -2.86023 4.96854 0
M  V30 312 H 27.1489 -2.3111 5.53812 0
M  V30 313 H 28.2189 -1.16833 4.70615 0
M  V30 314 N 29.562 -1.4872 -0.521534 0
M  V30 315 C 30.525 -1.63379 -1.60748 0
M  V30 316 C 31.525 -0.50661 -1.52611 0
M  V30 317 O 32.715 -0.772601 -1.5613 0
M  V30 318 C 29.847 -1.61192 -3.00383 0
M  V30 319 H 31.04 -2.60217 -1.49087 0
M  V30 320 H 28.593 -1.37444 -0.744235 0
M  V30 321 H 29.328 -0.65863 -3.17541 0
M  V30 322 H 29.113 -2.43032 -3.07698 0
M  V30 323 H 30.603 -1.7466 -3.7932 0
M  V30 324 N 31.0401 0.771051 -1.3745 0
M  V30 325 C 32.2871 1.52963 -1.32697 0
M  V30 326 C 32.6151 1.94299 0.0883274 0
M  V30 327 O 31.8701 1.64397 1.0617 0
M  V30 328 C 32.1691 2.80676 -2.2126 0
M  V30 329 C 31.8351 2.58389 -3.69521 0
M  V30 330 C 30.4971 2.52019 -4.09927 0
M  V30 331 C 32.8491 2.38469 -4.63446 0
M  V30 332 C 30.1771 2.23721 -5.42371 0
M  V30 333 C 32.5291 2.11694 -5.96128 0
M  V30 334 C 31.1931 2.03769 -6.35637 0
M  V30 335 H 30.4631 0.559732 -0.485573 0
M  V30 336 H 33.1101 0.888083 -1.69662 0
M  V30 337 H 31.4151 3.49392 -1.77291 0
M  V30 338 H 33.1121 3.38557 -2.14895 0
M  V30 339 H 29.7021 2.6421 -3.37478 0
M  V30 340 H 33.8861 2.4238 -4.33089 0
M  V30 341 H 29.1421 2.16081 -5.71943 0
M  V30 342 H 33.3161 1.9528 -6.6846 0
M  V30 343 H 30.9431 1.81606 -7.38189 0
M  V30 344 N 32.5182 1.22032 0.997298 0
M  V30 345 C 33.7662 1.04016 1.73278 0
M  V30 346 C 34.0872 -0.426255 1.90284 0
M  V30 347 O 33.3572 -1.30694 1.45931 0
M  V30 348 H 31.9372 0.381897 0.642 0
M  V30 349 H 34.5992 1.5347 1.20137 0
M  V30 350 H 33.6952 1.51441 2.72896 0
M  V30 351 N 33.9963 -1.19345 1.0293 0
M  V30 352 C 34.9593 -2.20793 0.615069 0
M  V30 353 C 35.9593 -1.57553 -0.321533 0
M  V30 354 O 37.1493 -1.73862 -0.108483 0
M  V30 355 C 34.2813 -3.40754 -0.0999222 0
M  V30 356 H 35.4743 -2.58955 1.51269 0
M  V30 357 H 33.0273 -1.3303 0.820534 0
M  V30 358 H 33.7623 -3.0811 -1.01187 0
M  V30 359 H 33.5473 -3.87889 0.57309 0
M  V30 360 H 35.0373 -4.15898 -0.376645 0
M  V30 361 N 35.4744 -0.807222 -1.35358 0
M  V30 362 C 36.4064 -0.175717 -2.28525 0
M  V30 363 C 37.4194 0.625354 -1.5031 0
M  V30 364 O 38.6084 0.457611 -1.72535 0
M  V30 365 C 35.7084 0.773471 -3.29956 0
M  V30 366 C 34.8814 0.0186296 -4.37396 0
M  V30 367 C 33.9404 0.886395 -5.18681 0
M  V30 368 O 32.9664 0.337106 -5.68201 0
M  V30 369 N 34.1684 2.20839 -5.36852 0
M  V30 370 H 36.9334 -0.976091 -2.83359 0
M  V30 371 H 34.4944 -0.662737 -1.47714 0
M  V30 372 H 36.4864 1.35824 -3.81227 0
M  V30 373 H 35.0564 1.47465 -2.75632 0
M  V30 374 H 34.2764 -0.747349 -3.87051 0
M  V30 375 H 35.5644 -0.501577 -5.06322 0
M  V30 376 H 34.9624 2.67858 -4.98265 0
M  V30 377 H 33.5194 2.74237 -5.91301 0
M  V30 378 N 36.9525 1.47285 -0.560781 0
M  V30 379 C 37.9155 2.28535 0.174488 0
M  V30 380 C 38.9155 1.37153 0.839388 0
M  V30 381 O 40.1055 1.59748 0.694702 0
M  V30 382 C 37.2375 3.16934 1.25561 0
M  V30 383 H 38.4305 2.95012 -0.539262 0
M  V30 384 H 35.9835 1.53034 -0.317865 0
M  V30 385 H 36.7185 2.55157 2.00164 0
M  V30 386 H 36.5035 3.8419 0.783604 0
M  V30 387 H 37.9935 3.78143 1.77193 0
M  V30 388 N 38.4306 0.297415 1.54768 0
M  V30 389 C 39.3936 -0.567375 2.22066 0
M  V30 390 C 40.3936 -1.06409 1.20556 0
M  V30 391 O 41.5836 -0.960691 1.45315 0
M  V30 392 C 38.7156 -1.78517 2.90421 0
M  V30 393 H 39.9086 0.0205534 2.99893 0
M  V30 394 H 37.4616 0.0482163 1.56226 0
M  V30 395 H 38.1966 -2.41303 2.16664 0
M  V30 396 H 37.9816 -1.43669 3.64831 0
M  V30 397 H 39.4716 -2.39964 3.41771 0
M  V30 398 N 39.9087 -1.5758 0.0250728 0
M  V30 399 C 41.1337 -1.96337 -0.668317 0
M  V30 400 C 41.5587 -0.901314 -1.651 0
M  V30 401 O 40.9167 0.138187 -1.80773 0
M  V30 402 C 40.9647 -3.34191 -1.35457 0
M  V30 403 O 40.0687 -3.30269 -2.46974 0
M  V30 404 H 39.4097 -0.640281 -0.175887 0
M  V30 405 H 41.9397 -2.0442 0.0857224 0
M  V30 406 H 41.9497 -3.70331 -1.71228 0
M  V30 407 H 40.6247 -4.11036 -0.634218 0
M  V30 408 H 39.2017 -3.05841 -2.13344 0
M  V30 409 N 41.3868 0.248026 -1.55636 0
M  V30 410 C 42.3498 1.29044 -1.89421 0
M  V30 411 C 43.3498 1.41134 -0.770581 0
M  V30 412 O 44.5398 1.39854 -1.03858 0
M  V30 413 C 41.6718 2.66831 -2.12165 0
M  V30 414 H 42.8648 1.00305 -2.82629 0
M  V30 415 H 40.4178 0.487265 -1.48511 0
M  V30 416 H 41.1528 3.00711 -1.21422 0
M  V30 417 H 40.9378 2.59438 -2.93997 0
M  V30 418 H 42.4278 3.42103 -2.3949 0
M  V30 419 N 42.8649 1.48995 0.513639 0
M  V30 420 C 44.1419 1.48338 1.27495 0
M  V30 421 C 44.5219 0.204065 2.10111 0
M  V30 422 O 43.8699 -0.813881 2.13514 0
M  V30 423 C 44.0799 2.75498 2.14247 0
M  V30 424 C 45.4279 3.24484 2.73852 0
M  V30 425 O 46.4519 2.76528 2.24523 0
M  V30 426 O 45.3109 4.07974 3.6362 0
M  V30 427 H 42.4049 0.593149 0.576284 0
M  V30 428 H 44.9509 1.61246 0.528948 0
M  V30 429 H 43.7229 3.60109 1.53092 0
M  V30 430 H 43.3459 2.6539 2.96064 0
M  V30 431 N 44.343 -0.763751 1.37857 0
M  V30 432 C 45.275 -1.88664 1.30148 0
M  V30 433 C 46.288 -1.61365 0.215685 0
M  V30 434 O 47.477 -1.72134 0.472459 0
M  V30 435 C 44.577 -3.24075 0.991396 0
M  V30 436 C 43.75 -3.78958 2.18426 0
M  V30 437 C 42.809 -4.92862 1.8432 0
M  V30 438 O 41.835 -5.08027 2.56704 0
M  V30 439 N 43.037 -5.75071 0.792081 0
M  V30 440 H 45.802 -1.95791 2.26905 0
M  V30 441 H 43.363 -0.943226 1.31586 0
M  V30 442 H 45.355 -3.97804 0.743935 0
M  V30 443 H 43.925 -3.12399 0.112122 0
M  V30 444 H 43.145 -2.96913 2.59299 0
M  V30 445 H 44.433 -4.12357 2.98058 0
M  V30 446 H 43.831 -5.65375 0.191595 0
M  V30 447 H 42.388 -6.48991 0.60449 0
M  V30 448 N 45.8211 -1.22559 -0.990812 0
M  V30 449 C 47.0691 -1.04933 -1.72724 0
M  V30 450 C 47.3901 0.416158 -1.90508 0
M  V30 451 O 46.6601 1.29918 -1.46622 0
M  V30 452 H 45.2401 -0.385296 -0.639965 0
M  V30 453 H 47.9021 -1.54105 -1.19322 0
M  V30 454 H 46.9981 -1.52886 -2.72089 0
M  V30 455 N 47.2992 1.18797 -1.03562 0
M  V30 456 C 48.5482 1.87978 -0.731235 0
M  V30 457 C 48.8612 1.80911 0.743671 0
M  V30 458 O 50.0672 2.45407 1.16137 0
M  V30 459 C 48.5232 3.3721 -1.25768 0
M  V30 460 C 48.1312 3.52818 -2.76085 0
M  V30 461 C 49.8752 4.11825 -1.0296 0
M  V30 462 C 47.7822 4.9598 -3.22114 0
M  V30 463 H 46.7122 0.704063 -0.269835 0
M  V30 464 H 49.3632 1.34266 -1.25079 0
M  V30 465 H 47.7452 3.90359 -0.666011 0
M  V30 466 H 48.9192 3.09965 -3.40966 0
M  V30 467 H 47.2342 2.91602 -2.97249 0
M  V30 468 H 49.8312 5.17411 -1.34869 0
M  V30 469 H 50.1742 4.16287 0.0333546 0
M  V30 470 H 50.7072 3.64833 -1.58562 0
M  V30 471 H 47.4462 4.96684 -4.27768 0
M  V30 472 H 46.9662 5.39569 -2.61965 0
M  V30 473 H 48.6452 5.6467 -3.15844 0
M  V30 474 N 48.7773 0.814389 1.34928 0
M  V30 475 C 50.0233 0.399013 1.98836 0
M  V30 476 C 50.3563 -1.03314 1.64438 0
M  V30 477 O 49.6313 -1.71811 0.911659 0
M  V30 478 C 49.9143 0.591629 3.55207 0
M  V30 479 C 49.7673 2.06928 3.99376 0
M  V30 480 C 51.0863 0.022199 4.40094 0
M  V30 481 H 48.2053 0.146451 0.722303 0
M  V30 482 H 50.8473 1.02537 1.59957 0
M  V30 483 H 48.9973 0.0584441 3.88456 0
M  V30 484 H 50.6693 2.66544 3.76499 0
M  V30 485 H 48.9123 2.56287 3.49999 0
M  V30 486 H 49.5833 2.1549 5.08201 0
M  V30 487 H 52.0593 0.477643 4.13349 0
M  V30 488 H 50.9353 0.186832 5.48582 0
M  V30 489 H 51.1963 -1.07215 4.28902 0
M  V30 490 N 50.2554 -1.46986 0.568584 0
M  V30 491 C 51.5044 -2.01646 0.0465894 0
M  V30 492 C 51.8174 -1.44721 -1.31587 0
M  V30 493 O 53.0234 -1.91113 -1.92842 0
M  V30 494 C 51.4794 -3.59885 0.032752 0
M  V30 495 C 51.0874 -4.25804 1.39266 0
M  V30 496 C 52.8314 -4.22255 -0.436038 0
M  V30 497 C 50.7384 -5.76081 1.33732 0
M  V30 498 H 49.6684 -0.753876 0.013647 0
M  V30 499 H 52.3194 -1.68864 0.718131 0
M  V30 500 H 50.7014 -3.8968 -0.704669 0
M  V30 501 H 51.8754 -4.07637 2.1487 0
M  V30 502 H 50.1904 -3.7547 1.80032 0
M  V30 503 H 52.7874 -5.32394 -0.49602 0
M  V30 504 H 53.1304 -3.90212 -1.45053 0
M  V30 505 H 53.6634 -3.97033 0.246877 0
M  V30 506 H 50.4024 -6.12761 2.32817 0
M  V30 507 H 49.9224 -5.96553 0.623267 0
M  V30 508 H 51.6014 -6.38518 1.0442 0
M  V30 509 N 51.7335 -0.305618 -1.54608 0
M  V30 510 C 52.9635 0.304333 -2.04346 0
M  V30 511 C 53.3715 1.47715 -1.18224 0
M  V30 512 O 52.7145 1.82591 -0.201577 0
M  V30 513 C 52.7765 0.819031 -3.50046 0
M  V30 514 C 52.4405 -0.22912 -4.56425 0
M  V30 515 C 53.4375 -1.05914 -5.08997 0
M  V30 516 C 51.1225 -0.372148 -5.0092 0
M  V30 517 C 53.1165 -2.01809 -6.04609 0
M  V30 518 C 50.8035 -1.33454 -5.9635 0
M  V30 519 C 51.8015 -2.15599 -6.48079 0
M  V30 520 O 51.4895 -3.10205 -7.41639 0
M  V30 521 H 51.2215 0.0693996 -0.672428 0
M  V30 522 H 53.7755 -0.444548 -2.00532 0
M  V30 523 H 52.0055 1.61852 -3.51199 0
M  V30 524 H 53.6945 1.34537 -3.82955 0
M  V30 525 H 54.4605 -0.959538 -4.75413 0
M  V30 526 H 50.3395 0.257304 -4.60281 0
M  V30 527 H 53.8835 -2.65966 -6.44909 0
M  V30 528 H 49.7805 -1.43485 -6.29351 0
M  V30 529 H 50.5485 -3.05237 -7.59455 0
M  V30 530 N 53.2116 1.57565 -0.0334293 0
M  V30 531 C 54.1596 2.1164 0.96496 0
M  V30 532 C 55.1536 1.04398 1.33407 0
M  V30 533 O 56.3596 1.22828 1.3158 0
M  V30 534 H 52.7346 0.676222 0.32898 0
M  V30 535 H 54.7056 2.94455 0.483614 0
M  V30 536 C 53.4546 2.66207 2.23672 0
M  V30 537 H 52.7776 3.48378 1.96145 0
M  V30 538 H 54.2176 3.07685 2.9173 0
M  V30 539 C 52.6766 1.59151 2.96939 0
M  V30 540 O 53.2066 0.993858 3.89211 0
M  V30 541 N 51.4126 1.31093 2.59351 0
M  V30 542 H 50.9596 1.7988 1.84393 0
M  V30 543 H 50.9176 0.596889 3.08682 0
M  V30 544 N 54.6897 -0.239769 1.55765 0
M  V30 545 C 55.6527 -1.28038 1.90103 0
M  V30 546 C 56.6527 -1.40723 0.778055 0
M  V30 547 O 57.8427 -1.39301 1.04599 0
M  V30 548 C 54.9747 -2.65702 2.13577 0
M  V30 549 H 56.1677 -0.988048 2.83157 0
M  V30 550 H 53.7207 -0.479382 1.48767 0
M  V30 551 H 54.4557 -3.00063 1.23015 0
M  V30 552 H 54.2407 -2.57875 2.95369 0
M  V30 553 H 55.7307 -3.40828 2.41301 0
M  V30 554 N 56.1678 -1.49265 -0.50573 0
M  V30 555 C 57.0998 -1.617 -1.62437 0
M  V30 556 C 58.1128 -0.499924 -1.54934 0
M  V30 557 O 59.3018 -0.771785 -1.60953 0
M  V30 558 C 56.4018 -1.5533 -3.01207 0
M  V30 559 C 55.5748 -2.8249 -3.33943 0
M  V30 560 C 54.6338 -2.69238 -4.52103 0
M  V30 561 O 53.6598 -3.43167 -4.5412 0
M  V30 562 N 54.8618 -1.80468 -5.51735 0
M  V30 563 H 57.6268 -2.58177 -1.52199 0
M  V30 564 H 55.1878 -1.46294 -0.693511 0
M  V30 565 H 57.1798 -1.44125 -3.78167 0
M  V30 566 H 55.7498 -0.667297 -3.05395 0
M  V30 567 H 54.9698 -3.08081 -2.45926 0
M  V30 568 H 56.2578 -3.66802 -3.5261 0
M  V30 569 H 55.6558 -1.19653 -5.52901 0
M  V30 570 H 54.2128 -1.75188 -6.27816 0
M  V30 571 N 57.6459 0.756429 -1.3826 0
M  V30 572 C 58.5959 1.86069 -1.31766 0
M  V30 573 C 59.5799 1.59621 -0.202483 0
M  V30 574 O 60.7719 1.7149 -0.438211 0
M  V30 575 C 57.9009 3.23742 -1.1422 0
M  V30 576 C 56.9869 3.56091 -2.30348 0
M  V30 577 N 57.3779 3.59517 -3.55783 0
M  V30 578 C 55.6759 3.86341 -2.22838 0
M  V30 579 C 56.3769 3.89052 -4.32451 0
M  V30 580 N 55.3529 4.05736 -3.61772 0
M  V30 581 H 59.1549 1.86992 -2.26741 0
M  V30 582 H 56.6689 0.953643 -1.31451 0
M  V30 583 H 58.6659 4.02761 -1.07652 0
M  V30 584 H 57.3259 3.24073 -0.201763 0
M  V30 585 H 58.3369 3.41347 -3.89491 0
M  V30 586 H 55.0139 3.94404 -1.36937 0
M  V30 587 H 56.4039 3.98349 -5.4108 0
M  V30 588 N 59.124 1.23083 0.984299 0
M  V30 589 C 60.034 1.02515 2.11016 0
M  V30 590 C 61.05 -0.0291702 1.73976 0
M  V30 591 O 62.226 0.165434 2.00719 0
M  V30 592 C 59.291 0.614673 3.41208 0
M  V30 593 C 58.352 1.74359 3.92297 0
M  V30 594 C 57.585 1.35261 5.16275 0
M  V30 595 O 57.808 0.235136 5.69915 0
M  V30 596 O 56.742 2.17227 5.61334 0
M  V30 597 H 60.568 1.96862 2.31255 0
M  V30 598 H 58.153 1.01753 1.09392 0
M  V30 599 H 60.035 0.396518 4.1953 0
M  V30 600 H 58.71 -0.299851 3.22308 0
M  V30 601 H 57.617 2.01635 3.1511 0
M  V30 602 H 58.95 2.63629 4.15645 0
M  V30 603 N 60.6021 -1.18246 1.0419 0
M  V30 604 C 61.5501 -2.23968 0.627792 0
M  V30 605 C 62.5441 -1.65828 -0.346019 0
M  V30 606 O 63.7501 -1.78733 -0.213175 0
M  V30 607 H 60.1251 -0.728939 0.184802 0
M  V30 608 H 62.0961 -2.56202 1.52981 0
M  V30 609 C 60.8451 -3.47699 0.00796591 0
M  V30 610 H 60.1681 -3.92734 0.748347 0
M  V30 611 H 61.6081 -4.23294 -0.24455 0
M  V30 612 C 60.0671 -3.13153 -1.24246 0
M  V30 613 O 60.5971 -3.27003 -2.33307 0
M  V30 614 N 58.8031 -2.67467 -1.13622 0
M  V30 615 H 58.3501 -2.56396 -0.248734 0
M  V30 616 H 58.3081 -2.44724 -1.97377 0
M  V30 617 N 62.0802 -0.821533 -1.34494 0
M  V30 618 C 63.0102 -0.257138 -2.3208 0
M  V30 619 C 63.9912 0.625645 -1.58176 0
M  V30 620 O 65.1762 0.552811 -1.86166 0
M  V30 621 C 62.3062 0.582958 -3.42372 0
M  V30 622 C 61.2602 -0.202571 -4.2752 0
M  V30 623 C 60.5862 0.760179 -5.29269 0
M  V30 624 C 61.8862 -1.40998 -5.02908 0
M  V30 625 H 63.5802 -1.07247 -2.79532 0
M  V30 626 H 61.1262 -0.517163 -1.34393 0
M  V30 627 H 63.0792 0.987972 -4.09655 0
M  V30 628 H 61.8032 1.43133 -2.93565 0
M  V30 629 H 60.4622 -0.588936 -3.61838 0
M  V30 630 H 60.1102 1.60447 -4.76724 0
M  V30 631 H 59.8102 0.238809 -5.87115 0
M  V30 632 H 61.3342 1.16308 -5.9942 0
M  V30 633 H 62.7482 -1.07905 -5.63054 0
M  V30 634 H 61.1452 -1.86689 -5.70322 0
M  V30 635 H 62.2152 -2.1889 -4.32684 0
M  V30 636 N 63.5583 1.46682 -0.576371 0
M  V30 637 C 64.8043 2.02712 -0.0596221 0
M  V30 638 C 65.1373 1.44765 1.29448 0
M  V30 639 O 64.4123 0.610355 1.84675 0
M  V30 640 C 64.6953 3.60098 0.0129503 0
M  V30 641 C 64.5483 4.28441 -1.3696 0
M  V30 642 C 65.8673 4.34224 0.71678 0
M  V30 643 H 62.9863 0.736637 -0.0231407 0
M  V30 644 H 65.6283 1.74898 -0.742351 0
M  V30 645 H 63.7783 3.83926 0.594378 0
M  V30 646 H 65.4503 4.15896 -1.9957 0
M  V30 647 H 63.6933 3.8805 -1.93907 0
M  V30 648 H 64.3643 5.3716 -1.27135 0
M  V30 649 H 66.8403 4.15503 0.222908 0
M  V30 650 H 65.7163 5.43936 0.73657 0
M  V30 651 H 65.9773 4.04823 1.77682 0
M  V30 652 N 65.0364 0.313813 1.54444 0
M  V30 653 C 65.9834 -0.55655 2.23989 0
M  V30 654 C 66.9534 -1.11943 1.22711 0
M  V30 655 O 68.1384 -1.16158 1.51367 0
M  V30 656 C 65.2784 -1.71635 2.99392 0
M  V30 657 C 64.3914 -1.18364 4.15468 0
M  V30 658 C 63.5264 -2.30834 4.78424 0
M  V30 659 C 62.5654 -1.74762 5.86622 0
M  V30 660 N 61.7024 -2.80855 6.43479 0
M  V30 661 H 66.5424 0.0430893 2.97969 0
M  V30 662 H 64.0794 0.0330359 1.47063 0
M  V30 663 H 66.0374 -2.39868 3.41349 0
M  V30 664 H 64.6674 -2.28742 2.27765 0
M  V30 665 H 63.7194 -0.393163 3.78363 0
M  V30 666 H 65.0314 -0.733262 4.93381 0
M  V30 667 H 64.1854 -3.0699 5.23299 0
M  V30 668 H 62.9244 -2.79204 3.99871 0
M  V30 669 H 61.9294 -0.970995 5.41158 0
M  V30 670 H 63.1544 -1.2728 6.67066 0
M  V30 671 H 61.1004 -3.28535 5.67804 0
M  V30 672 H 61.0174 -2.40351 7.16776 0
M  V30 673 H 62.2854 -3.5687 6.93011 0
M  V30 674 N 66.5145 -1.57545 0.0417849 0
M  V30 675 C 67.7395 -1.97035 -0.647455 0
M  V30 676 C 68.1645 -0.918775 -1.64135 0
M  V30 677 O 67.5225 0.119006 -1.80909 0
M  V30 678 C 67.5705 -3.35609 -1.31905 0
M  V30 679 O 66.6745 -3.3287 -2.43457 0
M  V30 680 H 66.0155 -0.64211 -0.169086 0
M  V30 681 H 68.5455 -2.04318 0.107399 0
M  V30 682 H 68.5555 -3.72126 -1.67291 0
M  V30 683 H 67.2305 -4.11685 -0.590586 0
M  V30 684 H 65.8075 -3.08087 -2.10088 0
M  V30 685 N 67.9926 0.231505 -1.5589 0
M  V30 686 C 69.2386 0.954429 -1.79617 0
M  V30 687 C 69.5936 1.82367 -0.613199 0
M  V30 688 O 68.8866 1.87524 0.393094 0
M  V30 689 C 69.0806 1.83577 -3.0665 0
M  V30 690 C 68.9096 1.05334 -4.3719 0
M  V30 691 C 67.6796 0.75225 -4.99669 0
M  V30 692 C 69.8776 0.423444 -5.12554 0
M  V30 693 N 67.8596 -0.052627 -6.13877 0
M  V30 694 C 69.2306 -0.245287 -6.19515 0
M  V30 695 C 71.2856 0.335466 -4.96769 0
M  V30 696 C 69.9886 -0.993566 -7.12405 0
M  V30 697 C 72.0146 -0.399321 -5.9005 0
M  V30 698 C 71.3766 -1.05663 -6.9643 0
M  V30 699 H 67.4756 0.329846 -0.709031 0
M  V30 700 H 70.0596 0.226172 -1.93382 0
M  V30 701 H 68.2306 2.53592 -2.94186 0
M  V30 702 H 69.9626 2.49541 -3.18608 0
M  V30 703 H 66.7176 1.06783 -4.61405 0
M  V30 704 H 67.1416 -0.443609 -6.75545 0
M  V30 705 H 71.7836 0.829311 -4.14587 0
M  V30 706 H 69.5016 -1.49896 -7.94076 0
M  V30 707 H 73.0876 -0.468265 -5.79913 0
M  V30 708 H 71.9676 -1.61612 -7.67366 0
M  V30 709 N 69.4707 1.49531 0.497807 0
M  V30 710 C 70.7167 1.59415 1.25358 0
M  V30 711 C 71.0497 0.281422 1.9215 0
M  V30 712 O 70.3247 -0.715249 1.80871 0
M  V30 713 C 70.6077 2.75566 2.3181 0
M  V30 714 C 70.4607 4.16642 1.69498 0
M  V30 715 C 71.7797 2.87347 3.33346 0
M  V30 716 H 68.8987 0.580244 0.454408 0
M  V30 717 H 71.5407 1.81827 0.551262 0
M  V30 718 H 69.6907 2.56587 2.91711 0
M  V30 719 H 71.3627 4.47145 1.13399 0
M  V30 720 H 69.6057 4.22141 0.998978 0
M  V30 721 H 70.2767 4.93792 2.46725 0
M  V30 722 H 72.7527 3.04634 2.83438 0
M  V30 723 H 71.6287 3.70289 4.05188 0
M  V30 724 H 71.8897 1.96834 3.95865 0
M  V30 725 N 70.9488 -0.749086 1.3866 0
M  V30 726 C 72.2258 -1.4992 1.25632 0
M  V30 727 C 72.6058 -2.10633 -0.140317 0
M  V30 728 O 71.9538 -1.97437 -1.15025 0
M  V30 729 C 72.1638 -2.56195 2.36992 0
M  V30 730 C 73.5118 -3.22972 2.75634 0
M  V30 731 O 74.5358 -2.66502 2.36337 0
M  V30 732 O 73.3948 -4.25122 3.43415 0
M  V30 733 H 70.4888 -0.665067 0.491544 0
M  V30 734 H 73.0348 -0.784113 1.50498 0
M  V30 735 H 71.8068 -2.09612 3.30422 0
M  V30 736 H 71.4298 -3.35279 2.13714 0
M  V30 737 N 72.4269 -1.23603 -0.977757 0
M  V30 738 C 73.6749 -1.06759 -1.71601 0
M  V30 739 C 73.9959 0.395929 -1.90938 0
M  V30 740 O 73.2659 1.28356 -1.47992 0
M  V30 741 H 71.8459 -0.392062 -0.635843 0
M  V30 742 H 74.5079 -1.55362 -1.1768 0
M  V30 743 H 73.6039 -1.55763 -2.70452 0
M  V30 744 N 73.905 1.17692 -1.04816 0
M  V30 745 C 75.152 1.87859 -0.75599 0
M  V30 746 C 75.48 1.80812 0.716752 0
M  V30 747 O 74.735 1.20819 1.53952 0
M  V30 748 C 75.034 3.37462 -1.17703 0
M  V30 749 C 74.7 3.64713 -2.65133 0
M  V30 750 C 73.362 3.71859 -3.05408 0
M  V30 751 C 75.714 3.76492 -3.60421 0
M  V30 752 C 73.042 3.88271 -4.39843 0
M  V30 753 C 75.394 3.94421 -4.94585 0
M  V30 754 C 74.058 3.99806 -5.3452 0
M  V30 755 H 73.328 0.687425 -0.276636 0
M  V30 756 H 75.975 1.39255 -1.31455 0
M  V30 757 H 74.28 3.88097 -0.537395 0
M  V30 758 H 75.977 3.90109 -0.928218 0
M  V30 759 H 72.567 3.59772 -2.32942 0
M  V30 760 H 76.751 3.70295 -3.30447 0
M  V30 761 H 72.007 3.90687 -4.70291 0
M  V30 762 H 76.181 4.02477 -5.68318 0
M  V30 763 H 73.808 4.12276 -6.38696 0
M  V30 764 N 75.3831 0.828654 1.34056 0
M  V30 765 C 76.6111 0.43262 2.02326 0
M  V30 766 C 77.0261 -0.963147 1.62385 0
M  V30 767 O 76.3831 -1.62425 0.832121 0
M  V30 768 C 76.4341 0.53182 3.57567 0
M  V30 769 O 76.1551 1.87258 3.96063 0
M  V30 770 C 77.6561 0.131422 4.43105 0
M  V30 771 H 74.8761 0.172923 0.648335 0
M  V30 772 H 77.4201 1.1184 1.71208 0
M  V30 773 H 75.5751 -0.105938 3.87255 0
M  V30 774 H 75.9891 1.85087 4.90758 0
M  V30 775 H 77.4631 0.251904 5.51425 0
M  V30 776 H 77.9401 -0.925645 4.29335 0
M  V30 777 H 78.5461 0.743207 4.18756 0
M  V30 778 N 76.8612 -1.46375 0.584142 0
M  V30 779 C 77.8082 -2.30323 -0.148286 0
M  V30 780 C 78.7782 -1.40703 -0.882713 0
M  V30 781 O 79.9632 -1.69651 -0.873099 0
M  V30 782 C 77.1032 -3.25196 -1.15507 0
M  V30 783 C 76.2162 -4.29915 -0.423943 0
M  V30 784 C 75.3512 -5.11914 -1.41838 0
M  V30 785 C 74.3902 -6.08381 -0.673736 0
M  V30 786 N 73.5272 -6.83242 -1.6163 0
M  V30 787 H 78.3672 -2.92427 0.573644 0
M  V30 788 H 75.9042 -1.44118 0.294703 0
M  V30 789 H 77.8622 -3.78646 -1.75166 0
M  V30 790 H 76.4922 -2.64898 -1.8447 0
M  V30 791 H 75.5442 -3.7931 0.287714 0
M  V30 792 H 76.8562 -4.98549 0.158128 0
M  V30 793 H 76.0102 -5.69648 -2.08773 0
M  V30 794 H 74.7492 -4.43243 -2.03438 0
M  V30 795 H 73.7542 -5.49799 0.00938483 0
M  V30 796 H 74.9792 -6.79071 -0.0631082 0
M  V30 797 H 72.9252 -6.1728 -2.22038 0
M  V30 798 H 72.8422 -7.48144 -1.08707 0
M  V30 799 H 74.1102 -7.45534 -2.27596 0
M  V30 800 N 78.3393 -0.321999 -1.54275 0
M  V30 801 C 79.6163 0.335232 -1.92706 0
M  V30 802 C 79.9963 1.70006 -1.25145 0
M  V30 803 O 79.3443 2.25067 -0.394596 0
M  V30 804 C 79.5543 0.429008 -3.46353 0
M  V30 805 C 80.9023 0.690029 -4.18956 0
M  V30 806 O 81.9263 0.511992 -3.52501 0
M  V30 807 O 80.7853 1.03338 -5.36641 0
M  V30 808 H 77.8793 0.191143 -0.804608 0
M  V30 809 H 80.4253 -0.3716 -1.65581 0
M  V30 810 H 79.1973 -0.529611 -3.87699 0
M  V30 811 H 78.8203 1.18348 -3.79578 0
M  V30 812 N 79.8174 1.5752 -0.0501392 0
M  V30 813 C 81.0454 1.96963 0.633492 0
M  V30 814 C 81.4604 0.927631 1.6444 0
M  V30 815 O 80.8174 -0.0882665 1.82286 0
M  V30 816 C 80.8684 3.36487 1.32132 0
M  V30 817 O 80.5894 4.36693 0.350894 0
M  V30 818 C 82.0904 3.90682 2.09481 0
M  V30 819 H 79.3104 0.648244 0.173266 0
M  V30 820 H 81.8544 2.0417 -0.116134 0
M  V30 821 H 80.0094 3.30434 2.02218 0
M  V30 822 H 80.4234 5.17702 0.841735 0
M  V30 823 H 81.8974 4.90591 2.5303 0
M  V30 824 H 82.3744 3.26053 2.94255 0
M  V30 825 H 82.9804 4.00069 1.44307 0
M  V30 826 N 81.2955 -0.223234 1.56011 0
M  V30 827 C 82.5435 -0.946003 1.78592 0
M  V30 828 C 82.8645 -1.84936 0.618349 0
M  V30 829 O 82.1345 -1.92473 -0.364833 0
M  V30 830 H 80.7145 -0.352298 0.658707 0
M  V30 831 H 83.3765 -0.235494 1.93472 0
M  V30 832 H 82.4725 -1.55381 2.70672 0
M  V30 833 N 82.7736 -1.49793 -0.48987 0
M  V30 834 C 84.0226 -1.59085 -1.23995 0
M  V30 835 C 84.3356 -0.287907 -1.9347 0
M  V30 836 O 85.5416 -0.259506 -2.70257 0
M  V30 837 C 83.9976 -2.80736 -2.252 0
M  V30 838 C 83.6056 -4.17833 -1.61614 0
M  V30 839 C 85.3496 -2.99364 -3.00967 0
M  V30 840 C 83.2566 -5.30693 -2.60996 0
M  V30 841 H 82.1866 -0.592372 -0.466488 0
M  V30 842 H 84.8376 -1.76197 -0.51252 0
M  V30 843 H 83.2196 -2.57142 -3.01154 0
M  V30 844 H 84.3936 -4.51608 -0.915774 0
M  V30 845 H 82.7086 -4.04656 -0.981977 0
M  V30 846 H 85.3056 -3.80851 -3.75308 0
M  V30 847 H 85.6486 -2.10356 -3.59244 0
M  V30 848 H 86.1816 -3.2305 -2.32128 0
M  V30 849 H 82.9206 -6.21796 -2.07485 0
M  V30 850 H 82.4406 -5.01359 -3.2924 0
M  V30 851 H 84.1196 -5.6049 -3.23202 0
M  V30 852 N 84.2517 0.741722 -1.39055 0
M  V30 853 C 85.1987 1.85566 -1.37237 0
M  V30 854 C 86.1687 1.64457 -0.233072 0
M  V30 855 O 87.3537 1.85957 -0.427147 0
M  V30 856 C 84.4937 3.23004 -1.215 0
M  V30 857 C 83.6067 3.55864 -2.44918 0
M  V30 858 C 82.7417 4.82669 -2.21821 0
M  V30 859 C 81.7807 5.08351 -3.40948 0
M  V30 860 N 80.9177 6.26356 -3.17211 0
M  V30 861 H 85.7577 1.86455 -2.32462 0
M  V30 862 H 83.2947 0.911176 -1.15482 0
M  V30 863 H 85.2527 4.02331 -1.10389 0
M  V30 864 H 83.8827 3.21411 -0.29908 0
M  V30 865 H 82.9347 2.7129 -2.66657 0
M  V30 866 H 84.2467 3.70765 -3.33668 0
M  V30 867 H 83.4007 5.69962 -2.07914 0
M  V30 868 H 82.1397 4.69929 -1.30454 0
M  V30 869 H 81.1447 4.19522 -3.55361 0
M  V30 870 H 82.3697 5.22981 -4.33207 0
M  V30 871 H 80.3157 6.14917 -2.28502 0
M  V30 872 H 80.2327 6.41813 -3.99515 0
M  V30 873 H 81.5007 7.16506 -3.06984 0
M  V30 874 N 85.7298 1.2412 0.971189 0
M  V30 875 C 86.9758 1.08041 1.71625 0
M  V30 876 C 87.3088 -0.380407 1.90438 0
M  V30 877 O 86.5838 -1.28127 1.46334 0
M  V30 878 C 86.8668 1.81682 3.10908 0
M  V30 879 C 86.7198 3.35493 2.99608 0
M  V30 880 C 88.0388 1.58671 4.10501 0
M  V30 881 H 85.1578 0.39388 0.622919 0
M  V30 882 H 87.7998 1.52743 1.13003 0
M  V30 883 H 85.9498 1.43684 3.60953 0
M  V30 884 H 87.6218 3.83068 2.57015 0
M  V30 885 H 85.8648 3.64052 2.35899 0
M  V30 886 H 86.5358 3.82217 3.98264 0
M  V30 887 H 89.0118 1.91719 3.69301 0
M  V30 888 H 87.8878 2.1266 5.06031 0
M  V30 889 H 88.1488 0.524161 4.38982 0
M  V30 890 N 87.2079 -1.17134 1.05439 0
M  V30 891 C 88.4359 -1.91372 0.786414 0
M  V30 892 C 88.8509 -1.76955 -0.658202 0
M  V30 893 O 88.2079 -1.10838 -1.44987 0
M  V30 894 C 88.2589 -3.42356 1.1608 0
M  V30 895 O 87.9799 -3.56332 2.54871 0
M  V30 896 C 89.4809 -4.33663 0.919322 0
M  V30 897 H 86.7009 -0.607118 0.285743 0
M  V30 898 H 89.2449 -1.48525 1.40572 0
M  V30 899 H 87.3999 -3.82939 0.586191 0
M  V30 900 H 87.8139 -4.49896 2.69618 0
M  V30 901 H 89.2879 -5.38099 1.231 0
M  V30 902 H 89.7649 -4.38959 -0.145359 0
M  V30 903 H 90.3709 -3.98796 1.47789 0
M  V30 904 N 88.686 -0.835752 -1.33615 0
M  V30 905 C 89.616 -0.281739 -2.31794 0
M  V30 906 C 90.597 0.608833 -1.58831 0
M  V30 907 O 91.782 0.533035 -1.86741 0
M  V30 908 C 88.912 0.546612 -3.42971 0
M  V30 909 C 87.866 -0.247904 -4.27281 0
M  V30 910 C 87.192 0.704001 -5.30045 0
M  V30 911 C 88.492 -1.46324 -5.01385 0
M  V30 912 H 90.186 -1.10206 -2.78379 0
M  V30 913 H 87.732 -0.531388 -1.33837 0
M  V30 914 H 89.685 0.944467 -4.1068 0
M  V30 915 H 88.409 1.40011 -2.95067 0
M  V30 916 H 87.068 -0.627281 -3.61194 0
M  V30 917 H 86.716 1.55381 -4.78399 0
M  V30 918 H 86.416 0.176524 -5.87335 0
M  V30 919 H 87.94 1.09944 -6.0062 0
M  V30 920 H 89.354 -1.13871 -5.61877 0
M  V30 921 H 87.751 -1.92728 -5.6831 0
M  V30 922 H 88.821 -2.23467 -4.30338 0
M  V30 923 N 90.1641 1.46063 -0.591896 0
M  V30 924 C 91.5801 1.57561 -0.254288 0
M  V30 925 C 91.7801 1.58565 1.24336 0
M  V30 926 O 90.8361 1.50753 2.02558 0
M  V30 927 C 92.1491 2.86549 -0.911611 0
M  V30 928 C 93.6971 3.00197 -0.886059 0
M  V30 929 C 94.1721 4.31933 -1.5231 0
M  V30 930 N 95.6631 4.38654 -1.48786 0
M  V30 931 C 96.3981 5.39222 -1.95006 0
M  V30 932 N 95.8941 6.46414 -2.49241 0
M  V30 933 N 97.6871 5.3048 -1.85868 0
M  V30 934 H 89.8381 1.43655 -1.56451 0
M  V30 935 H 92.1011 0.68583 -0.654478 0
M  V30 936 H 91.8071 2.91651 -1.96551 0
M  V30 937 H 91.6811 3.74794 -0.425368 0
M  V30 938 H 94.0681 2.9467 0.159246 0
M  V30 939 H 94.1491 2.13403 -1.41041 0
M  V30 940 H 93.7931 4.38217 -2.56765 0
M  V30 941 H 93.7231 5.17516 -0.973891 0
M  V30 942 H 96.2141 3.61793 -1.09151 0
M  V30 943 H 96.5271 7.19376 -2.82344 0
M  V30 944 H 94.8721 6.47208 -2.53272 0
M  V30 945 H 98.0631 4.45643 -1.43248 0
M  V30 946 H 98.2361 6.08711 -2.22204 0
M  V30 947 N 91.6422 0.330177 1.54103 0
M  V30 948 C 92.5902 -0.548226 2.26047 0
M  V30 949 C 93.5842 -1.11309 1.27698 0
M  V30 950 O 94.7902 -1.06036 1.45452 0
M  V30 951 H 91.1652 -0.195456 0.726155 0
M  V30 952 H 93.1362 0.0807567 2.98291 0
M  V30 953 C 91.8852 -1.69415 3.03634 0
M  V30 954 H 91.2082 -1.26876 3.79134 0
M  V30 955 H 92.6482 -2.28423 3.5721 0
M  V30 956 C 91.1072 -2.61569 2.12328 0
M  V30 957 O 91.6372 -3.63462 1.7105 0
M  V30 958 N 89.8432 -2.29952 1.77681 0
M  V30 959 H 89.3902 -1.47134 2.11446 0
M  V30 960 H 89.3482 -2.91871 1.16869 0
M  V30 961 N 93.1203 -1.57491 0.0584922 0
M  V30 962 C 94.3683 -1.92597 -0.612436 0
M  V30 963 C 94.6893 -0.938162 -1.70949 0
M  V30 964 O 93.9593 0.0158301 -1.95894 0
M  V30 965 H 92.5393 -0.710964 -0.229214 0
M  V30 966 H 95.2013 -1.94571 0.113218 0
M  V30 967 H 94.2973 -2.94038 -1.04633 0
M  V30 968 N 94.5984 0.214957 -1.56127 0
M  V30 969 C 95.8464 0.936518 -1.79091 0
M  V30 970 C 96.1674 1.84606 -0.628148 0
M  V30 971 O 95.4374 1.92664 0.35462 0
M  V30 972 H 94.0174 0.3488 -0.660566 0
M  V30 973 H 96.6794 0.22523 -1.93594 0
M  V30 974 H 95.7754 1.53943 -2.71492 0
M  V30 975 N 96.0765 1.50051 0.48192 0
M  V30 976 C 97.3535 1.51009 1.2432 0
M  V30 977 C 97.7335 0.248587 2.09631 0
M  V30 978 O 97.0815 -0.768409 2.15192 0
M  V30 979 C 97.2915 2.79981 2.08355 0
M  V30 980 C 98.6395 3.3022 2.66908 0
M  V30 981 O 99.6635 2.81228 2.18607 0
M  V30 982 O 98.5225 4.15595 3.54884 0
M  V30 983 H 95.6165 0.605239 0.563573 0
M  V30 984 H 98.1625 1.62332 0.494627 0
M  V30 985 H 96.9345 3.63275 1.45419 0
M  V30 986 H 96.5575 2.7161 2.90368 0
M  V30 987 N 97.5546 -0.734337 1.39446 0
M  V30 988 C 98.7796 -1.52866 1.40167 0
M  V30 989 C 99.2046 -1.881 -0.00171513 0
M  V30 990 O 98.5626 -1.51957 -0.988879 0
M  V30 991 C 98.6106 -2.79235 2.28167 0
M  V30 992 O 97.7146 -3.75185 1.71201 0
M  V30 993 H 97.0556 -0.461618 0.477289 0
M  V30 994 H 99.5856 -0.905949 1.8345 0
M  V30 995 H 99.5956 -3.27963 2.42702 0
M  V30 996 H 98.2706 -2.52923 3.30156 0
M  V30 997 H 96.8476 -3.33958 1.65912 0
M  V30 998 N 99.0327 -1.24633 -0.964593 0
M  V30 999 C 99.9427 -1.05859 -2.09359 0
M  V30 1000 C 100.959 0.00148855 -1.74 0
M  V30 1001 O 102.135 -0.197346 -2.00431 0
M  V30 1002 C 99.1997 -0.668879 -3.40187 0
M  V30 1003 C 98.2607 -1.80578 -3.89474 0
M  V30 1004 C 97.4937 -1.43457 -5.14058 0
M  V30 1005 O 97.7167 -0.325775 -5.69469 0
M  V30 1006 O 96.6507 -2.2613 -5.57807 0
M  V30 1007 H 100.477 -2.00516 -2.28094 0
M  V30 1008 H 98.0617 -1.03481 -1.0776 0
M  V30 1009 H 99.9437 -0.463211 -4.18846 0
M  V30 1010 H 98.6187 0.248536 -3.22744 0
M  V30 1011 H 97.5257 -2.06623 -3.11862 0
M  V30 1012 H 98.8587 -2.70208 -4.11398 0
M  V30 1013 N 100.511 1.16574 -1.06058 0
M  V30 1014 C 101.441 2.23057 -0.690488 0
M  V30 1015 C 102.422 1.67141 0.315901 0
M  V30 1016 O 103.607 1.93253 0.191556 0
M  V30 1017 C 100.737 3.47222 -0.073625 0
M  V30 1018 C 99.6908 4.16016 -1.00573 0
M  V30 1019 C 99.0168 5.34104 -0.252289 0
M  V30 1020 C 100.317 4.67264 -2.33371 0
M  V30 1021 H 102.011 2.54271 -1.58072 0
M  V30 1022 H 99.5568 1.22218 -0.76149 0
M  V30 1023 H 101.51 4.20939 0.19714 0
M  V30 1024 H 100.234 3.15302 0.85161 0
M  V30 1025 H 98.8928 3.44223 -1.2612 0
M  V30 1026 H 98.5408 4.98437 0.675988 0
M  V30 1027 H 98.2408 5.81072 -0.873455 0
M  V30 1028 H 99.7648 6.10599 0.0109857 0
M  V30 1029 H 101.179 5.32573 -2.12223 0
M  V30 1030 H 99.5758 5.24843 -2.90963 0
M  V30 1031 H 100.646 3.83602 -2.96611 0
M  V30 1032 N 101.989 0.842826 1.3317 0
M  V30 1033 C 103.237 0.439577 1.97262 0
M  V30 1034 C 103.558 -1.00548 1.67078 0
M  V30 1035 O 102.828 -1.70098 0.971779 0
M  V30 1036 H 101.408 0.159558 0.72976 0
M  V30 1037 H 104.07 1.07665 1.62463 0
M  V30 1038 H 103.166 0.574886 3.0676 0
M  V30 1039 N 103.467 -1.45747 0.599634 0
M  V30 1040 C 104.415 -2.322 -0.136426 0
M  V30 1041 C 105.409 -1.45497 -0.867583 0
M  V30 1042 O 106.615 -1.62027 -0.78405 0
M  V30 1043 H 102.99 -0.749368 -0.0628588 0
M  V30 1044 H 104.961 -2.92072 0.611281 0
M  V30 1045 C 103.71 -3.28974 -1.12567 0
M  V30 1046 H 103.033 -3.9568 -0.572484 0
M  V30 1047 H 104.473 -3.92212 -1.61077 0
M  V30 1048 C 102.932 -2.55561 -2.19523 0
M  V30 1049 O 103.462 -2.33111 -3.27143 0
M  V30 1050 N 101.668 -2.15832 -1.94589 0
M  V30 1051 H 101.215 -2.3429 -1.07078 0
M  V30 1052 H 101.173 -1.67034 -2.66359 0
M  V30 1053 N 104.945 -0.338344 -1.53925 0
M  V30 1054 C 105.877 0.555117 -2.22376 0
M  V30 1055 C 106.89 1.06812 -1.22862 0
M  V30 1056 O 108.079 0.979163 -1.49247 0
M  V30 1057 C 105.179 1.77609 -2.88631 0
M  V30 1058 C 104.352 1.39927 -4.14414 0
M  V30 1059 C 103.411 2.47936 -4.64127 0
M  V30 1060 O 102.437 2.11461 -5.28463 0
M  V30 1061 N 103.639 3.79107 -4.39612 0
M  V30 1062 H 106.404 -0.0310778 -2.99684 0
M  V30 1063 H 103.965 -0.162226 -1.61085 0
M  V30 1064 H 105.957 2.49287 -3.18807 0
M  V30 1065 H 104.527 2.26978 -2.14941 0
M  V30 1066 H 103.747 0.513481 -3.90841 0
M  V30 1067 H 105.035 1.12341 -4.96243 0
M  V30 1068 H 104.433 4.11531 -3.88148 0
M  V30 1069 H 102.99 4.4697 -4.74406 0
M  V30 1070 N 106.423 1.57458 -0.0668435 0
M  V30 1071 C 107.353 2.15468 0.899764 0
M  V30 1072 C 108.334 1.08042 1.31381 0
M  V30 1073 O 109.519 1.36054 1.38574 0
M  V30 1074 C 106.649 2.71232 2.16911 0
M  V30 1075 C 105.603 3.83781 1.89463 0
M  V30 1076 C 104.929 4.26127 3.22986 0
M  V30 1077 C 106.229 5.08238 1.20381 0
M  V30 1078 H 107.923 2.96488 0.416529 0
M  V30 1079 H 105.469 1.4262 0.198908 0
M  V30 1080 H 107.422 3.10458 2.84945 0
M  V30 1081 H 106.146 1.87426 2.67468 0
M  V30 1082 H 104.805 3.45051 1.23836 0
M  V30 1083 H 104.453 3.39249 3.71374 0
M  V30 1084 H 104.153 5.01993 3.05413 0
M  V30 1085 H 105.677 4.67966 3.92225 0
M  V30 1086 H 107.091 5.44811 1.78475 0
M  V30 1087 H 105.488 5.89349 1.13083 0
M  V30 1088 H 106.558 4.84558 0.182153 0
M  V30 1089 N 107.901 -0.206675 1.56239 0
M  V30 1090 C 109.147 -0.930218 1.80208 0
M  V30 1091 C 109.48 -1.83387 0.638981 0
M  V30 1092 O 108.755 -1.91119 -0.361066 0
M  V30 1093 C 109.038 -1.75641 3.1436 0
M  V30 1094 C 108.891 -0.878257 4.41142 0
M  V30 1095 C 110.21 -2.73129 3.45092 0
M  V30 1096 H 107.329 -0.336742 0.655571 0
M  V30 1097 H 109.971 -0.198222 1.88963 0
M  V30 1098 H 108.121 -2.38048 3.07027 0
M  V30 1099 H 109.793 -0.269787 4.6051 0
M  V30 1100 H 108.036 -0.184385 4.33408 0
M  V30 1101 H 108.707 -1.49106 5.3148 0
M  V30 1102 H 111.183 -2.20856 3.52649 0
M  V30 1103 H 110.059 -3.28028 4.40101 0
M  V30 1104 H 110.32 -3.51606 2.68003 0
M  V30 1105 N 109.379 -1.50304 -0.473955 0
M  V30 1106 C 110.311 -1.65109 -1.58971 0
M  V30 1107 C 111.324 -0.532676 -1.53839 0
M  V30 1108 O 112.513 -0.805751 -1.59279 0
M  V30 1109 C 109.613 -1.61684 -2.97845 0
M  V30 1110 C 108.786 -2.8951 -3.27876 0
M  V30 1111 C 107.845 -2.78768 -4.4629 0
M  V30 1112 O 106.871 -3.52722 -4.46739 0
M  V30 1113 N 108.073 -1.9213 -5.47783 0
M  V30 1114 H 110.838 -2.61347 -1.46689 0
M  V30 1115 H 108.399 -1.47732 -0.662324 0
M  V30 1116 H 110.391 -1.52114 -3.75024 0
M  V30 1117 H 108.961 -0.731925 -3.03911 0
M  V30 1118 H 108.181 -3.13228 -2.39336 0
M  V30 1119 H 109.469 -3.74199 -3.4475 0
M  V30 1120 H 108.867 -1.31353 -5.50239 0
M  V30 1121 H 107.424 -1.88466 -6.23958 0
M  V30 1122 N 110.857 0.726932 -1.39834 0
M  V30 1123 C 111.767 1.87131 -1.41489 0
M  V30 1124 C 112.783 1.71239 -0.308757 0
M  V30 1125 O 113.959 1.93701 -0.551529 0
M  V30 1126 C 111.024 3.22811 -1.26468 0
M  V30 1127 C 110.085 3.51039 -2.47124 0
M  V30 1128 C 109.318 4.80245 -2.3281 0
M  V30 1129 O 109.541 5.54537 -1.33585 0
M  V30 1130 O 108.475 5.08554 -3.21957 0
M  V30 1131 H 112.301 1.8869 -2.3797 0
M  V30 1132 H 109.886 0.875837 -1.21035 0
M  V30 1133 H 111.768 4.03877 -1.20255 0
M  V30 1134 H 110.443 3.22005 -0.330862 0
M  V30 1135 H 109.35 2.70027 -2.58914 0
M  V30 1136 H 110.683 3.56632 -3.39227 0
M  V30 1137 N 112.336 1.25143 0.95797 0
M  V30 1138 C 113.584 1.09476 1.69881 0
M  V30 1139 C 113.905 -0.365502 1.91544 0
M  V30 1140 O 113.175 -1.25985 1.50015 0
M  V30 1141 H 111.755 0.402128 0.629525 0
M  V30 1142 H 114.417 1.57214 1.15194 0
M  V30 1143 H 113.513 1.60046 2.6794 0
M  V30 1144 N 113.814 -1.1601 1.06675 0
M  V30 1145 C 115.039 -1.91068 0.806706 0
M  V30 1146 C 115.464 -1.77112 -0.633485 0
M  V30 1147 O 114.822 -1.09908 -1.44187 0
M  V30 1148 C 114.87 -3.39655 1.21106 0
M  V30 1149 O 113.974 -4.10893 0.352189 0
M  V30 1150 H 113.315 -0.595125 0.294486 0
M  V30 1151 H 115.845 -1.46955 1.42356 0
M  V30 1152 H 115.855 -3.90434 1.18428 0
M  V30 1153 H 114.53 -3.49132 2.26008 0
M  V30 1154 H 113.107 -3.70285 0.440868 0
M  V30 1155 N 115.292 -0.849877 -1.32721 0
M  V30 1156 C 116.255 -0.296122 -2.27279 0
M  V30 1157 C 117.255 0.541458 -1.5141 0
M  V30 1158 O 118.445 0.353658 -1.70572 0
M  V30 1159 C 115.577 0.581579 -3.35902 0
M  V30 1160 H 116.77 -1.13064 -2.77771 0
M  V30 1161 H 114.323 -0.62383 -1.43311 0
M  V30 1162 H 115.058 1.43809 -2.9067 0
M  V30 1163 H 114.843 -0.0178814 -3.92096 0
M  V30 1164 H 116.333 0.961951 -4.0637 0
M  V30 1165 N 116.77 1.45427 -0.607355 0
M  V30 1166 C 117.995 2.07124 -0.107006 0
M  V30 1167 C 118.42 1.44906 1.19933 0
M  V30 1168 O 117.778 0.541687 1.73019 0
M  V30 1169 C 117.826 3.60595 0.0194119 0
M  V30 1170 O 116.93 3.98285 1.0697 0
M  V30 1171 H 116.271 0.659868 -0.0739597 0
M  V30 1172 H 118.801 1.86683 -0.837297 0
M  V30 1173 H 118.811 4.07419 0.2177 0
M  V30 1174 H 117.486 4.05266 -0.934453 0
M  V30 1175 H 116.063 3.63133 0.847889 0
M  V30 1176 N 118.248 0.346503 1.53744 0
M  V30 1177 C 119.659 -0.136779 1.86198 0
M  V30 1178 C 120.01 -1.49749 1.26766 0
M  V30 1179 O 119.135 -2.08417 0.582355 0
M  V30 1180 C 119.73 -0.254966 3.37839 0
M  V30 1181 C 118.289 -0.682482 3.70161 0
M  V30 1182 C 117.436 0.181981 2.76702 0
M  V30 1183 H 120.387 0.565994 1.48264 0
M  V30 1184 H 120.408 -1.08195 3.64793 0
M  V30 1185 H 119.92 0.735526 3.81066 0
M  V30 1186 H 118.021 -1.68189 3.3248 0
M  V30 1187 H 118.134 -0.470326 4.76786 0
M  V30 1188 H 116.498 -0.34615 2.52337 0
M  V30 1189 H 117.281 1.16966 3.2276 0
M  V30 1190 N 119.726 -1.57421 0.075193 0
M  V30 1191 C 120.689 -2.11791 -0.876203 0
M  V30 1192 C 121.689 -1.04268 -1.22412 0
M  V30 1193 O 122.879 -1.30242 -1.15684 0
M  V30 1194 C 120.011 -2.62207 -2.17854 0
M  V30 1195 H 121.204 -2.9716 -0.40444 0
M  V30 1196 H 118.757 -1.55333 -0.173557 0
M  V30 1197 H 119.492 -1.803 -2.6956 0
M  V30 1198 H 119.277 -3.40802 -1.93897 0
M  V30 1199 H 120.767 -3.04335 -2.85955 0
M  V30 1200 N 121.204 0.198386 -1.56346 0
M  V30 1201 C 122.481 0.944982 -1.71258 0
M  V30 1202 C 122.861 2.0151 -0.629048 0
M  V30 1203 O 122.209 2.25639 0.360473 0
M  V30 1204 C 122.419 1.5344 -3.1346 0
M  V30 1205 C 123.767 2.01778 -3.73591 0
M  V30 1206 O 124.791 1.63288 -3.16568 0
M  V30 1207 O 123.65 2.72594 -4.73661 0
M  V30 1208 H 120.744 0.442939 -0.69838 0
M  V30 1209 H 123.29 0.188342 -1.68652 0
M  V30 1210 H 122.062 0.762869 -3.83792 0
M  V30 1211 H 121.685 2.35596 -3.20282 0
M  V30 1212 N 122.682 1.50554 0.465978 0
M  V30 1213 C 123.928 1.62038 1.21949 0
M  V30 1214 C 124.261 0.322116 1.9151 0
M  V30 1215 O 123.536 -0.676723 1.82348 0
M  V30 1216 C 123.819 2.80421 2.25912 0
M  V30 1217 C 123.672 4.20144 1.60622 0
M  V30 1218 C 124.991 2.94354 3.27176 0
M  V30 1219 H 122.11 0.589752 0.441998 0
M  V30 1220 H 124.752 1.82956 0.51257 0
M  V30 1221 H 122.902 2.62717 2.86203 0
M  V30 1222 H 124.574 4.49449 1.03889 0
M  V30 1223 H 122.817 4.24165 0.909211 0
M  V30 1224 H 123.488 4.98914 2.36196 0
M  V30 1225 H 125.964 3.10578 2.76913 0
M  V30 1226 H 124.84 3.788 3.97242 0
M  V30 1227 H 125.101 2.05186 3.916 0
M  V30 1228 N 124.16 -0.719506 1.40217 0
M  V30 1229 C 125.407 -1.47933 1.38283 0
M  V30 1230 C 125.735 -1.94493 -0.0161536 0
M  V30 1231 O 124.99 -1.68224 -0.999956 0
M  V30 1232 C 125.289 -2.72271 2.31524 0
M  V30 1233 C 124.955 -2.44496 3.78857 0
M  V30 1234 C 123.617 -2.36631 4.18998 0
M  V30 1235 C 125.969 -2.21104 4.71977 0
M  V30 1236 C 123.297 -2.03437 5.503 0
M  V30 1237 C 125.649 -1.89423 6.03574 0
M  V30 1238 C 124.313 -1.80038 6.42762 0
M  V30 1239 H 123.583 -0.541325 0.506012 0
M  V30 1240 H 126.23 -0.824502 1.72842 0
M  V30 1241 H 124.535 -3.42572 1.90137 0
M  V30 1242 H 126.232 -3.30348 2.27313 0
M  V30 1243 H 122.822 -2.51503 3.47051 0
M  V30 1244 H 127.006 -2.26139 4.41786 0
M  V30 1245 H 122.262 -1.94705 5.79569 0
M  V30 1246 H 126.436 -1.70336 6.75247 0
M  V30 1247 H 124.063 -1.54083 7.44421 0
M  V30 1248 N 125.638 -1.25649 -0.95132 0
M  V30 1249 C 126.568 -1.08808 -2.06599 0
M  V30 1250 C 127.549 0.00382547 -1.701 0
M  V30 1251 O 128.734 -0.166325 -1.93486 0
M  V30 1252 C 125.864 -0.709542 -3.39975 0
M  V30 1253 C 124.818 -1.75206 -3.90496 0
M  V30 1254 C 124.144 -1.22811 -5.20405 0
M  V30 1255 C 125.444 -3.15153 -4.16504 0
M  V30 1256 H 127.138 -2.02048 -2.20946 0
M  V30 1257 H 124.684 -0.972835 -1.06169 0
M  V30 1258 H 126.637 -0.578649 -4.17408 0
M  V30 1259 H 125.361 0.258556 -3.25575 0
M  V30 1260 H 124.02 -1.87145 -3.15234 0
M  V30 1261 H 123.668 -0.250145 -5.02378 0
M  V30 1262 H 123.368 -1.92492 -5.55176 0
M  V30 1263 H 124.892 -1.10968 -6.00432 0
M  V30 1264 H 126.306 -3.06349 -4.84586 0
M  V30 1265 H 124.703 -3.82333 -4.62538 0
M  V30 1266 H 125.773 -3.61966 -3.22658 0
M  V30 1267 N 127.117 1.15442 -1.07289 0
M  V30 1268 C 128.345 1.90096 -0.81676 0
M  V30 1269 C 128.76 1.7798 0.629966 0
M  V30 1270 O 128.117 1.1313 1.43206 0
M  V30 1271 C 128.168 3.40466 -1.21512 0
M  V30 1272 O 127.889 3.52232 -2.60508 0
M  V30 1273 C 129.39 4.32145 -0.988198 0
M  V30 1274 H 126.61 0.602495 -0.295366 0
M  V30 1275 H 129.154 1.4627 -1.42918 0
M  V30 1276 H 127.309 3.81958 -0.647039 0
M  V30 1277 H 127.723 4.45549 -2.76742 0
M  V30 1278 H 129.197 5.36072 -1.31645 0
M  V30 1279 H 129.674 4.39135 0.0755063 0
M  V30 1280 H 130.28 3.96395 -1.54115 0
M  V30 1281 N 128.595 0.856903 1.32268 0
M  V30 1282 C 129.505 0.306131 2.32594 0
M  V30 1283 C 130.521 -0.577209 1.64147 0
M  V30 1284 O 131.697 -0.477043 1.95669 0
M  V30 1285 C 128.762 -0.494561 3.43154 0
M  V30 1286 C 127.823 0.415186 4.27288 0
M  V30 1287 C 127.056 -0.347387 5.32568 0
M  V30 1288 O 127.279 -1.57708 5.48165 0
M  V30 1289 O 126.213 0.287982 6.01211 0
M  V30 1290 H 130.039 1.13737 2.81598 0
M  V30 1291 H 127.624 0.619902 1.35932 0
M  V30 1292 H 129.506 -0.948944 4.10576 0
M  V30 1293 H 128.181 -1.30257 2.96336 0
M  V30 1294 H 127.088 0.917793 3.62667 0
M  V30 1295 H 128.421 1.18844 4.77637 0
M  V30 1296 N 130.073 -1.45103 0.615059 0
M  V30 1297 C 131.021 -2.32331 -0.111791 0
M  V30 1298 C 132.015 -1.46409 -0.852102 0
M  V30 1299 O 133.221 -1.62849 -0.766821 0
M  V30 1300 H 129.596 -0.749993 -0.0549072 0
M  V30 1301 H 131.567 -2.91407 0.642225 0
M  V30 1302 C 130.316 -3.3015 -1.09071 0
M  V30 1303 H 129.639 -3.96265 -0.530485 0
M  V30 1304 H 131.079 -3.93898 -1.56908 0
M  V30 1305 C 129.538 -2.57875 -2.168 0
M  V30 1306 O 130.068 -2.36567 -3.24652 0
M  V30 1307 N 128.274 -2.17884 -1.92289 0
M  V30 1308 H 127.821 -2.35413 -1.04587 0
M  V30 1309 H 127.779 -1.6985 -2.64572 0
M  V30 1310 N 131.551 -0.354651 -1.53558 0
M  V30 1311 C 132.776 0.242153 -2.05981 0
M  V30 1312 C 133.201 1.42553 -1.2272 0
M  V30 1313 O 132.559 1.79656 -0.243604 0
M  V30 1314 C 132.607 0.624367 -3.55154 0
M  V30 1315 O 131.711 1.72301 -3.74681 0
M  V30 1316 H 131.052 0.0378432 -0.662921 0
M  V30 1317 H 133.582 -0.512087 -1.98088 0
M  V30 1318 H 133.592 0.898433 -3.97985 0
M  V30 1319 H 132.267 -0.240989 -4.15201 0
M  V30 1320 H 130.844 1.44535 -3.4375 0
M  V30 1321 N 133.029 1.57378 -0.0835403 0
M  V30 1322 C 134.44 1.81261 0.447358 0
M  V30 1323 C 134.791 0.998331 1.68902 0
M  V30 1324 O 133.916 0.224282 2.15235 0
M  V30 1325 C 134.511 3.28767 0.818386 0
M  V30 1326 C 133.07 3.53455 1.29409 0
M  V30 1327 C 132.217 2.75831 0.285024 0
M  V30 1328 H 135.168 1.5566 -0.309115 0
M  V30 1329 H 135.189 3.41459 1.67887 0
M  V30 1330 H 134.701 3.88006 -0.0855019 0
M  V30 1331 H 132.802 2.99534 2.21608 0
M  V30 1332 H 132.915 4.62128 1.2639 0
M  V30 1333 H 131.279 2.42947 0.764767 0
M  V30 1334 H 132.062 3.37813 -0.611341 0
M  V30 1335 N 134.507 -0.190092 1.56449 0
M  V30 1336 C 135.47 -1.21925 1.9408 0
M  V30 1337 C 136.47 -1.38176 0.822431 0
M  V30 1338 O 137.66 -1.35903 1.08977 0
M  V30 1339 C 134.792 -2.58773 2.21922 0
M  V30 1340 H 135.985 -0.897464 2.86157 0
M  V30 1341 H 133.538 -0.43181 1.50217 0
M  V30 1342 H 134.273 -2.95998 1.32499 0
M  V30 1343 H 134.058 -2.48348 3.03424 0
M  V30 1344 H 135.548 -3.32978 2.52022 0
M  V30 1345 N 135.985 -1.50799 -0.457987 0
M  V30 1346 C 136.918 -1.65273 -1.57353 0
M  V30 1347 C 137.896 -0.500578 -1.54703 0
M  V30 1348 O 139.08 -0.721781 -1.74134 0
M  V30 1349 C 136.207 -1.64737 -2.95938 0
M  V30 1350 C 135.253 -2.8567 -3.16693 0
M  V30 1351 S 136.086 -4.46791 -2.95191 0
M  V30 1352 C 137.242 -4.48968 -4.36095 0
M  V30 1353 H 137.475 -2.59633 -1.44838 0
M  V30 1354 H 135.008 -1.40225 -0.64625 0
M  V30 1355 H 136.966 -1.65112 -3.7583 0
M  V30 1356 H 135.627 -0.715899 -3.05833 0
M  V30 1357 H 134.82 -2.81637 -4.17967 0
M  V30 1358 H 134.422 -2.8293 -2.44594 0
M  V30 1359 H 136.714 -4.23337 -5.28954 0
M  V30 1360 H 137.657 -5.50664 -4.45168 0
M  V30 1361 H 138.065 -3.78522 -4.18786 0
M  V30 1362 N 137.463 0.71206 -1.40597 0
M  V30 1363 C 138.709 1.47416 -1.39271 0
M  V30 1364 C 139.042 1.942 0.00388791 0
M  V30 1365 O 138.317 1.68403 0.973179 0
M  V30 1366 C 138.6 2.69774 -2.38525 0
M  V30 1367 C 138.453 2.28861 -3.87224 0
M  V30 1368 C 139.772 3.71939 -2.35264 0
M  V30 1369 H 136.891 0.534713 -0.5072 0
M  V30 1370 H 139.533 0.812375 -1.71757 0
M  V30 1371 H 137.683 3.26238 -2.10953 0
M  V30 1372 H 139.355 1.77852 -4.25636 0
M  V30 1373 H 137.598 1.60824 -4.02887 0
M  V30 1374 H 138.269 3.16584 -4.52193 0
M  V30 1375 H 140.745 3.25113 -2.59694 0
M  V30 1376 H 139.621 4.55186 -3.06753 0
M  V30 1377 H 139.882 4.20484 -1.36549 0
M  V30 1378 N 138.941 1.26152 0.944643 0
M  V30 1379 C 139.871 1.09902 2.06019 0
M  V30 1380 C 140.852 0.00519538 1.70099 0
M  V30 1381 O 142.037 0.176583 1.93396 0
M  V30 1382 C 139.167 0.727562 3.39594 0
M  V30 1383 C 138.121 1.77274 3.89561 0
M  V30 1384 C 137.447 1.25569 5.19747 0
M  V30 1385 C 138.747 3.17357 4.14827 0
M  V30 1386 H 140.441 2.03217 2.19871 0
M  V30 1387 H 137.987 0.978452 1.05652 0
M  V30 1388 H 139.94 0.600777 4.17095 0
M  V30 1389 H 138.664 -0.241287 3.25707 0
M  V30 1390 H 137.323 1.88814 3.14237 0
M  V30 1391 H 136.971 0.276783 5.02238 0
M  V30 1392 H 136.671 1.95433 5.54148 0
M  V30 1393 H 138.195 1.1415 5.99835 0
M  V30 1394 H 139.609 3.08914 4.82954 0
M  V30 1395 H 138.006 3.84781 4.60504 0
M  V30 1396 H 139.076 3.63673 3.20734 0
M  V30 1397 N 140.419 -1.14872 1.07899 0
M  V30 1398 C 141.665 -1.86064 0.806725 0
M  V30 1399 C 141.998 -1.82434 -0.665706 0
M  V30 1400 O 141.273 -1.25138 -1.48899 0
M  V30 1401 C 141.556 -3.34929 1.32267 0
M  V30 1402 C 141.409 -3.47161 2.86006 0
M  V30 1403 C 142.728 -4.29863 0.943717 0
M  V30 1404 H 139.847 -0.675591 0.294526 0
M  V30 1405 H 142.489 -1.34925 1.33773 0
M  V30 1406 H 140.639 -3.78611 0.870974 0
M  V30 1407 H 142.311 -3.12302 3.39507 0
M  V30 1408 H 140.554 -2.88539 3.23925 0
M  V30 1409 H 141.225 -4.51777 3.17177 0
M  V30 1410 H 143.701 -3.9417 1.33302 0
M  V30 1411 H 142.577 -5.32494 1.33198 0
M  V30 1412 H 142.838 -4.41846 -0.149796 0
M  V30 1413 N 141.898 -0.863906 -1.31812 0
M  V30 1414 C 143.175 -0.39275 -1.91616 0
M  V30 1415 C 143.555 1.12461 -1.7865 0
M  V30 1416 O 142.903 1.95045 -1.19037 0
M  V30 1417 C 143.113 -0.867385 -3.38049 0
M  V30 1418 C 144.461 -0.889966 -4.15168 0
M  V30 1419 O 145.485 -0.812635 -3.46806 0
M  V30 1420 O 144.344 -1.00079 -5.37258 0
M  V30 1421 H 141.438 -0.116358 -0.818773 0
M  V30 1422 H 143.984 -0.951418 -1.40521 0
M  V30 1423 H 142.756 -1.91081 -3.41473 0
M  V30 1424 H 142.379 -0.286687 -3.96565 0
M  V30 1425 N 143.376 1.44774 -0.622745 0
M  V30 1426 C 144.324 2.32387 0.0994683 0
M  V30 1427 C 145.318 1.46859 0.844326 0
M  V30 1428 O 146.524 1.63254 0.758174 0
M  V30 1429 H 142.899 0.750273 0.0509291 0
M  V30 1430 H 144.87 2.91062 -0.65767 0
M  V30 1431 C 143.619 3.30723 1.07319 0
M  V30 1432 H 142.942 3.96541 0.509462 0
M  V30 1433 H 144.382 3.94725 1.54817 0
M  V30 1434 C 142.841 2.59021 2.15429 0
M  V30 1435 O 143.371 2.38286 3.23393 0
M  V30 1436 N 141.577 2.189 1.91131 0
M  V30 1437 H 141.124 2.35964 1.03337 0
M  V30 1438 H 141.082 1.71251 2.63668 0
M  V30 1439 N 144.854 0.36279 1.53368 0
M  V30 1440 C 145.817 -0.472679 2.24273 0
M  V30 1441 C 146.817 -1.012 1.24961 0
M  V30 1442 O 148.007 -0.898194 1.49259 0
M  V30 1443 C 145.139 -1.66039 2.97731 0
M  V30 1444 H 146.332 0.14773 2.99536 0
M  V30 1445 H 143.885 0.114434 1.55881 0
M  V30 1446 H 144.62 -2.31896 2.26704 0
M  V30 1447 H 144.405 -1.28066 3.70596 0
M  V30 1448 H 145.895 -2.25252 3.51641 0
M  V30 1449 N 146.332 -1.57332 0.0918853 0
M  V30 1450 C 147.279 -2.13847 -0.868211 0
M  V30 1451 C 148.249 -1.05618 -1.28196 0
M  V30 1452 O 149.434 -1.33387 -1.36427 0
M  V30 1453 C 146.574 -2.72062 -2.12312 0
M  V30 1454 C 145.687 -3.94514 -1.7602 0
M  V30 1455 C 144.822 -4.40903 -2.96273 0
M  V30 1456 C 143.861 -5.55953 -2.56092 0
M  V30 1457 N 142.998 -5.97209 -3.69169 0
M  V30 1458 H 147.838 -2.95575 -0.379406 0
M  V30 1459 H 145.375 -1.46048 -0.175606 0
M  V30 1460 H 147.333 -3.03931 -2.858 0
M  V30 1461 H 145.963 -1.93068 -2.58698 0
M  V30 1462 H 145.015 -3.68979 -0.925135 0
M  V30 1463 H 146.327 -4.7802 -1.42472 0
M  V30 1464 H 145.481 -4.74539 -3.78018 0
M  V30 1465 H 144.22 -3.56291 -3.33029 0
M  V30 1466 H 143.225 -5.21948 -1.72773 0
M  V30 1467 H 144.45 -6.42311 -2.20484 0
M  V30 1468 H 142.396 -5.15543 -4.05649 0
M  V30 1469 H 142.313 -6.75504 -3.39456 0
M  V30 1470 H 143.581 -6.35475 -4.51434 0
M  V30 1471 N 147.81 0.181792 -1.56548 0
M  V30 1472 C 148.74 1.22765 -1.98623 0
M  V30 1473 C 149.721 1.46747 -0.860189 0
M  V30 1474 O 150.906 1.58259 -1.12551 0
M  V30 1475 C 148.036 2.56894 -2.33715 0
M  V30 1476 C 146.99 2.475 -3.49182 0
M  V30 1477 C 146.316 3.86023 -3.69986 0
M  V30 1478 C 147.616 1.98866 -4.82959 0
M  V30 1479 H 149.31 0.877942 -2.86239 0
M  V30 1480 H 146.856 0.42088 -1.37712 0
M  V30 1481 H 148.809 3.30253 -2.61746 0
M  V30 1482 H 147.533 2.93632 -1.42997 0
M  V30 1483 H 146.192 1.76596 -3.21262 0
M  V30 1484 H 145.84 4.20136 -2.76576 0
M  V30 1485 H 145.54 3.80609 -4.47672 0
M  V30 1486 H 147.064 4.60984 -4.00407 0
M  V30 1487 H 148.478 2.61992 -5.09934 0
M  V30 1488 H 146.875 2.04424 -5.64208 0
M  V30 1489 H 147.945 0.942465 -4.75653 0
M  V30 1490 N 149.288 1.51039 0.449983 0
M  V30 1491 C 150.535 1.63081 1.20045 0
M  V30 1492 C 150.863 0.341024 1.91487 0
M  V30 1493 O 150.118 -0.674276 1.83717 0
M  V30 1494 C 150.417 2.77556 2.25161 0
M  V30 1495 C 150.083 4.17289 1.70823 0
M  V30 1496 C 148.745 4.55305 1.55725 0
M  V30 1497 C 151.097 5.04536 1.3074 0
M  V30 1498 C 148.425 5.78287 0.989999 0
M  V30 1499 C 150.777 6.28085 0.754482 0
M  V30 1500 C 149.441 6.64885 0.590308 0
M  V30 1501 H 148.711 0.596755 0.439277 0
M  V30 1502 H 151.358 1.85037 0.49333 0
M  V30 1503 H 149.663 2.49771 3.01863 0
M  V30 1504 H 151.36 2.84073 2.83026 0
M  V30 1505 H 147.95 3.8731 1.83546 0
M  V30 1506 H 152.134 4.75782 1.41229 0
M  V30 1507 H 147.39 6.05456 0.850451 0
M  V30 1508 H 151.564 6.95038 0.435324 0
M  V30 1509 H 149.191 7.60055 0.14862 0
M  V30 1510 N 150.766 -0.704594 1.40972 0
M  V30 1511 C 151.729 -1.80035 1.41845 0
M  V30 1512 C 152.729 -1.57774 0.310474 0
M  V30 1513 O 153.919 -1.64613 0.56992 0
M  V30 1514 C 151.051 -3.18284 1.22098 0
M  V30 1515 H 152.244 -1.80658 2.3938 0
M  V30 1516 H 149.797 -0.911329 1.26982 0
M  V30 1517 H 150.532 -3.23306 0.253672 0
M  V30 1518 H 150.317 -3.35843 2.02366 0
M  V30 1519 H 151.807 -3.98289 1.25522 0
M  V30 1520 N 152.244 -1.26651 -0.937939 0
M  V30 1521 C 153.655 -1.1125 -1.49934 0
M  V30 1522 C 154.006 0.306077 -1.93798 0
M  V30 1523 O 153.131 1.19792 -1.80219 0
M  V30 1524 C 153.726 -2.01339 -2.72485 0
M  V30 1525 C 152.285 -1.90074 -3.24883 0
M  V30 1526 C 151.432 -1.94498 -1.97651 0
M  V30 1527 H 154.383 -1.39693 -0.753091 0
M  V30 1528 H 154.404 -1.56319 -3.46907 0
M  V30 1529 H 153.916 -3.04577 -2.40529 0
M  V30 1530 H 152.017 -0.897827 -3.61621 0
M  V30 1531 H 152.13 -2.75778 -3.9177 0
M  V30 1532 H 150.494 -1.38591 -2.13693 0
M  V30 1533 H 151.277 -2.99372 -1.68022 0
M  V30 1534 N 153.722 1.14298 -1.08507 0
M  V30 1535 C 154.652 2.21542 -0.737646 0
M  V30 1536 C 155.633 1.67773 0.280377 0
M  V30 1537 O 156.818 1.93616 0.150521 0
M  V30 1538 C 153.948 3.46988 -0.147259 0
M  V30 1539 C 152.902 4.13789 -1.09374 0
M  V30 1540 C 152.228 5.33449 -0.365524 0
M  V30 1541 C 153.528 4.62208 -2.4323 0
M  V30 1542 H 155.222 2.5086 -1.6343 0
M  V30 1543 H 152.768 1.20576 -0.787243 0
M  V30 1544 H 154.721 4.21262 0.107808 0
M  V30 1545 H 153.445 3.17037 0.784538 0
M  V30 1546 H 152.104 3.4147 -1.33393 0
M  V30 1547 H 151.752 4.99759 0.57011 0
M  V30 1548 H 151.452 5.79088 -0.996512 0
M  V30 1549 H 152.976 6.10485 -0.118534 0
M  V30 1550 H 154.39 5.27952 -2.23472 0
M  V30 1551 H 152.787 5.18553 -3.02031 0
M  V30 1552 H 153.857 3.77224 -3.04681 0
M  V30 1553 N 155.201 0.870884 1.31352 0
M  V30 1554 C 156.478 0.402907 1.91405 0
M  V30 1555 C 156.858 -1.11512 1.79244 0
M  V30 1556 O 156.206 -1.94411 1.2007 0
M  V30 1557 C 156.416 0.885301 3.37585 0
M  V30 1558 C 157.764 0.911971 4.14691 0
M  V30 1559 O 158.788 0.831016 3.46371 0
M  V30 1560 O 157.647 1.02927 5.3672 0
M  V30 1561 H 154.741 0.120698 0.818145 0
M  V30 1562 H 157.287 0.958857 1.40014 0
M  V30 1563 H 156.059 1.92889 3.40455 0
M  V30 1564 H 155.682 0.307714 3.96407 0
M  V30 1565 N 156.679 -1.44442 0.630414 0
M  V30 1566 C 157.642 -2.29107 -0.0652523 0
M  V30 1567 C 158.642 -1.41002 -0.772995 0
M  V30 1568 O 159.832 -1.62881 -0.617692 0
M  V30 1569 C 156.964 -3.22564 -1.10296 0
M  V30 1570 H 158.157 -2.92103 0.679401 0
M  V30 1571 H 155.71 -1.51343 0.390517 0
M  V30 1572 H 156.445 -2.64416 -1.87762 0
M  V30 1573 H 156.23 -3.87491 -0.59941 0
M  V30 1574 H 157.72 -3.86167 -1.5895 0
M  V30 1575 N 158.157 -0.370918 -1.53173 0
M  V30 1576 C 159.12 0.460778 -2.24521 0
M  V30 1577 C 160.12 1.00536 -1.25496 0
M  V30 1578 O 161.31 0.890266 -1.49733 0
M  V30 1579 C 158.442 1.64457 -2.98608 0
M  V30 1580 H 159.635 -0.163613 -2.99453 0
M  V30 1581 H 157.188 -0.122699 -1.55818 0
M  V30 1582 H 157.923 2.30691 -2.2793 0
M  V30 1583 H 157.708 1.26099 -3.7127 0
M  V30 1584 H 159.198 2.23384 -3.5283 0
M  V30 1585 N 159.635 1.57281 -0.100228 0
M  V30 1586 C 160.863 1.98879 0.570509 0
M  V30 1587 C 161.278 0.979476 1.61405 0
M  V30 1588 O 160.635 -0.0302288 1.82475 0
M  V30 1589 C 160.686 3.4052 1.2136 0
M  V30 1590 O 160.407 4.37588 0.211786 0
M  V30 1591 C 161.908 3.97149 1.96945 0
M  V30 1592 H 159.128 0.653428 0.152555 0
M  V30 1593 H 161.672 2.03697 -0.18103 0
M  V30 1594 H 159.827 3.367 1.91603 0
M  V30 1595 H 160.241 5.20118 0.676607 0
M  V30 1596 H 161.715 4.98393 2.37294 0
M  V30 1597 H 162.192 3.3525 2.83733 0
M  V30 1598 H 162.798 4.04458 1.31506 0
M  V30 1599 N 161.113 -0.173488 1.56642 0
M  V30 1600 C 162.043 -1.2171 1.99271 0
M  V30 1601 C 163.024 -1.46289 0.867959 0
M  V30 1602 O 164.209 -1.5766 1.13388 0
M  V30 1603 C 161.339 -2.55651 2.35074 0
M  V30 1604 C 160.293 -2.45645 3.50489 0
M  V30 1605 C 159.619 -3.84056 3.72028 0
M  V30 1606 C 160.919 -1.96302 4.84007 0
M  V30 1607 H 162.613 -0.86275 2.867 0
M  V30 1608 H 160.159 -0.413571 1.37933 0
M  V30 1609 H 162.112 -3.2886 2.63494 0
M  V30 1610 H 160.836 -2.92869 1.44552 0
M  V30 1611 H 159.495 -1.7489 3.22194 0
M  V30 1612 H 159.143 -4.18664 2.788 0
M  V30 1613 H 158.843 -3.7823 4.49684 0
M  V30 1614 H 160.367 -4.58854 4.02846 0
M  V30 1615 H 161.781 -2.59284 5.11317 0
M  V30 1616 H 160.178 -2.01429 5.65284 0
M  V30 1617 H 161.248 -0.917226 4.76146 0
M  V30 1618 N 162.591 -1.51276 -0.441967 0
M  V30 1619 C 163.554 -1.7167 -1.51862 0
M  V30 1620 C 164.554 -0.586793 -1.49711 0
M  V30 1621 O 165.744 -0.854276 -1.51815 0
M  V30 1622 C 162.876 -1.76889 -2.91416 0
M  V30 1623 H 164.069 -2.67754 -1.35084 0
M  V30 1624 H 161.622 -1.41196 -0.670333 0
M  V30 1625 H 162.357 -0.826026 -3.13604 0
M  V30 1626 H 162.142 -2.59001 -2.94382 0
M  V30 1627 H 163.632 -1.94522 -3.69528 0
M  V30 1628 N 164.069 0.697108 -1.41344 0
M  V30 1629 C 165.001 1.8224 -1.39001 0
M  V30 1630 C 166.014 1.60152 -0.292428 0
M  V30 1631 O 167.203 1.69684 -0.554048 0
M  V30 1632 C 164.303 3.18976 -1.14489 0
M  V30 1633 C 163.476 3.68105 -2.36258 0
M  V30 1634 C 162.535 4.83506 -2.07625 0
M  V30 1635 O 161.561 4.95201 -2.8065 0
M  V30 1636 N 162.763 5.70637 -1.06555 0
M  V30 1637 H 165.528 1.84742 -2.35988 0
M  V30 1638 H 163.089 0.87937 -1.35936 0
M  V30 1639 H 165.081 3.93801 -0.932885 0
M  V30 1640 H 163.651 3.11508 -0.261043 0
M  V30 1641 H 162.871 2.84204 -2.7317 0
M  V30 1642 H 164.159 3.97667 -3.17393 0
M  V30 1643 H 163.557 5.63817 -0.461125 0
M  V30 1644 H 162.114 6.45368 -0.913444 0
M  V30 1645 N 165.547 1.27147 0.931209 0
M  V30 1646 C 166.793 1.13446 1.68101 0
M  V30 1647 C 167.126 -0.319628 1.91552 0
M  V30 1648 O 166.401 -1.23407 1.50336 0
M  V30 1649 C 166.684 1.91482 3.0497 0
M  V30 1650 C 166.537 3.44855 2.88782 0
M  V30 1651 C 167.856 1.71651 4.05246 0
M  V30 1652 H 164.975 0.413498 0.610072 0
M  V30 1653 H 167.617 1.56261 1.08086 0
M  V30 1654 H 165.767 1.55095 3.56199 0
M  V30 1655 H 167.439 3.9105 2.44698 0
M  V30 1656 H 165.682 3.71373 2.24198 0
M  V30 1657 H 166.353 3.94694 3.85902 0
M  V30 1658 H 168.829 2.0337 3.63015 0
M  V30 1659 H 167.705 2.28651 4.99009 0
M  V30 1660 H 167.966 0.663555 4.37092 0
M  V30 1661 N 167.025 -1.13721 1.09112 0
M  V30 1662 C 167.935 -2.22638 0.73957 0
M  V30 1663 C 168.951 -1.72091 -0.257068 0
M  V30 1664 O 170.127 -2.01155 -0.0992154 0
M  V30 1665 C 167.192 -3.46322 0.16191 0
M  V30 1666 C 166.253 -4.11775 1.21408 0
M  V30 1667 C 165.486 -5.29555 0.663891 0
M  V30 1668 O 165.709 -5.68077 -0.514274 0
M  V30 1669 O 164.643 -5.84973 1.41738 0
M  V30 1670 H 168.469 -2.55074 1.64836 0
M  V30 1671 H 166.054 -1.21791 0.865289 0
M  V30 1672 H 167.936 -4.21107 -0.157073 0
M  V30 1673 H 166.611 -3.15593 -0.719932 0
M  V30 1674 H 165.518 -3.3883 1.58571 0
M  V30 1675 H 166.851 -4.46627 2.06845 0
M  V30 1676 N 168.503 -0.877838 -1.30888 0
M  V30 1677 C 169.914 -0.544193 -1.78593 0
M  V30 1678 C 170.265 0.939301 -1.72254 0
M  V30 1679 O 169.39 1.7337 -1.29505 0
M  V30 1680 C 169.985 -0.98105 -3.24285 0
M  V30 1681 C 168.544 -0.698935 -3.69854 0
M  V30 1682 C 167.691 -1.168 -2.51502 0
M  V30 1683 H 170.642 -1.06278 -1.17859 0
M  V30 1684 H 170.663 -0.307009 -3.79259 0
M  V30 1685 H 170.175 -2.06079 -3.28866 0
M  V30 1686 H 168.276 0.369112 -3.70767 0
M  V30 1687 H 168.389 -1.28148 -4.61644 0
M  V30 1688 H 166.753 -0.587535 -2.47831 0
M  V30 1689 H 167.536 -2.25533 -2.58824 0
M  V30 1690 N 169.982 1.44106 -0.638065 0
M  V30 1691 C 170.914 2.28976 0.101205 0
M  V30 1692 C 171.927 1.4167 0.802088 0
M  V30 1693 O 173.116 1.65755 0.662375 0
M  V30 1694 C 170.216 3.18217 1.16581 0
M  V30 1695 C 169.389 4.33978 0.546066 0
M  V30 1696 C 168.448 5.04202 1.50554 0
M  V30 1697 O 167.474 5.59986 1.01999 0
M  V30 1698 N 168.676 5.06296 2.8398 0
M  V30 1699 H 171.441 2.93064 -0.627186 0
M  V30 1700 H 169.002 1.54629 -0.479731 0
M  V30 1701 H 170.994 3.62061 1.80815 0
M  V30 1702 H 169.564 2.55833 1.79634 0
M  V30 1703 H 168.784 3.93239 -0.275046 0
M  V30 1704 H 170.072 5.08675 0.112793 0
M  V30 1705 H 169.47 4.62319 3.26002 0
M  V30 1706 H 168.027 5.53907 3.43556 0
M  V30 1707 N 171.46 0.379036 1.52974 0
M  V30 1708 C 172.69 -0.20649 2.05566 0
M  V30 1709 C 173.098 -1.41906 1.25137 0
M  V30 1710 O 172.441 -1.81421 0.288464 0
M  V30 1711 C 172.503 -0.651086 3.53555 0
M  V30 1712 C 172.167 0.446626 4.54812 0
M  V30 1713 C 173.164 1.30079 5.03364 0
M  V30 1714 C 170.849 0.610719 4.98573 0
M  V30 1715 C 172.843 2.30426 5.94292 0
M  V30 1716 C 170.53 1.61754 5.89304 0
M  V30 1717 C 171.528 2.46274 6.37054 0
M  V30 1718 O 171.216 3.45237 7.25994 0
M  V30 1719 H 170.948 -0.0372381 0.674974 0
M  V30 1720 H 173.502 0.539718 1.98182 0
M  V30 1721 H 171.732 -1.44911 3.58522 0
M  V30 1722 H 173.421 -1.16112 3.88938 0
M  V30 1723 H 174.187 1.18527 4.70294 0
M  V30 1724 H 170.066 -0.0374044 4.60985 0
M  V30 1725 H 173.61 2.96432 6.31485 0
M  V30 1726 H 169.507 1.73348 6.21788 0
M  V30 1727 H 170.275 3.41124 7.44027 0
M  V30 1728 N 172.938 -1.57226 0.108567 0
M  V30 1729 C 174.354 -1.5766 -0.248058 0
M  V30 1730 C 174.554 -1.12063 -1.67464 0
M  V30 1731 O 173.61 -0.803236 -2.39383 0
M  V30 1732 C 174.923 -3.0069 -0.0242287 0
M  V30 1733 C 176.471 -3.12868 -0.0909372 0
M  V30 1734 C 176.946 -4.57879 0.105067 0
M  V30 1735 N 178.437 -4.63172 0.0506846 0
M  V30 1736 C 179.172 -5.73126 0.177396 0
M  V30 1737 N 178.668 -6.91866 0.359696 0
M  V30 1738 N 180.461 -5.61977 0.117709 0
M  V30 1739 H 172.612 -1.85169 1.04049 0
M  V30 1740 H 174.875 -0.85529 0.40888 0
M  V30 1741 H 174.581 -3.38299 0.961604 0
M  V30 1742 H 174.455 -3.6945 -0.76068 0
M  V30 1743 H 176.842 -2.75124 -1.06729 0
M  V30 1744 H 176.923 -2.46672 0.677225 0
M  V30 1745 H 176.567 -4.96321 1.07834 0
M  V30 1746 H 176.497 -5.22153 -0.682954 0
M  V30 1747 H 178.988 -3.778 -0.0871266 0
M  V30 1748 H 179.301 -7.71503 0.447529 0
M  V30 1749 H 177.646 -6.93874 0.395536 0
M  V30 1750 H 180.837 -4.68094 -0.0236741 0
M  V30 1751 H 181.01 -6.47627 0.219905 0
M  V30 1752 N 174.416 0.165178 -1.56732 0
M  V30 1753 C 175.827 0.727046 -1.71962 0
M  V30 1754 C 176.178 1.82508 -0.720078 0
M  V30 1755 O 175.303 2.16082 0.117242 0
M  V30 1756 C 175.898 1.32559 -3.11791 0
M  V30 1757 C 174.457 1.83422 -3.28684 0
M  V30 1758 C 173.604 0.715567 -2.67908 0
M  V30 1759 H 176.555 -0.0602896 -1.58585 0
M  V30 1760 H 176.576 2.19533 -3.10782 0
M  V30 1761 H 176.088 0.526195 -3.84516 0
M  V30 1762 H 174.189 2.65986 -2.60926 0
M  V30 1763 H 174.302 1.97543 -4.36478 0
M  V30 1764 H 172.666 1.13758 -2.27884 0
M  V30 1765 H 173.449 -0.0720836 -3.43224 0
M  V30 1766 N 175.894 1.51508 0.433938 0
M  V30 1767 C 177.119 1.68443 1.21003 0
M  V30 1768 C 177.544 0.382636 1.84167 0
M  V30 1769 O 176.902 -0.65755 1.68956 0
M  V30 1770 C 176.95 2.80405 2.26727 0
M  V30 1771 O 176.054 2.44245 3.32292 0
M  V30 1772 H 175.395 0.561536 0.354363 0
M  V30 1773 H 177.925 1.9809 0.512024 0
M  V30 1774 H 177.935 3.0459 2.71457 0
M  V30 1775 H 176.61 3.74867 1.80132 0
M  V30 1776 H 175.187 2.30644 2.93015 0
M  V30 1777 N 177.372 -0.689602 1.41712 0
M  V30 1778 C 178.322 -1.79571 1.40493 0
M  V30 1779 C 179.306 -1.58473 0.278409 0
M  V30 1780 O 180.498 -1.69204 0.519532 0
M  V30 1781 C 177.627 -3.17923 1.29536 0
M  V30 1782 C 176.713 -3.44695 2.47075 0
M  V30 1783 N 177.104 -3.42132 3.72531 0
M  V30 1784 C 175.402 -3.75269 2.41017 0
M  V30 1785 C 176.103 -3.67976 4.50521 0
M  V30 1786 N 175.079 -3.88014 3.80718 0
M  V30 1787 H 178.881 -1.75961 2.35404 0
M  V30 1788 H 176.395 -0.889839 1.35851 0
M  V30 1789 H 178.392 -3.97167 1.26745 0
M  V30 1790 H 177.052 -3.22741 0.356153 0
M  V30 1791 H 178.063 -3.22375 4.05333 0
M  V30 1792 H 174.74 -3.87421 1.55599 0
M  V30 1793 H 176.13 -3.7208 5.59469 0
M  V30 1794 N 178.85 -1.27639 -0.924453 0
M  V30 1795 C 180.098 -1.13941 -1.66918 0
M  V30 1796 C 180.419 0.314589 -1.92446 0
M  V30 1797 O 179.689 1.21964 -1.53303 0
M  V30 1798 H 178.269 -0.418678 -0.618642 0
M  V30 1799 H 180.931 -1.60213 -1.10985 0
M  V30 1800 H 180.027 -1.67094 -2.63602 0
M  V30 1801 N 180.328 1.1314 -1.09713 0
M  V30 1802 C 181.744 1.36477 -0.827423 0
M  V30 1803 C 181.944 1.93654 0.556817 0
M  V30 1804 O 181 2.15791 1.31112 0
M  V30 1805 C 182.313 2.31334 -1.92106 0
M  V30 1806 C 183.861 2.44943 -1.94864 0
M  V30 1807 C 184.336 3.4311 -3.0338 0
M  V30 1808 N 185.827 3.50662 -3.02639 0
M  V30 1809 C 186.562 4.2651 -3.83246 0
M  V30 1810 N 186.058 5.05485 -4.73768 0
M  V30 1811 N 187.851 4.2184 -3.71493 0
M  V30 1812 H 180.002 0.743807 -1.9895 0
M  V30 1813 H 182.265 0.389823 -0.864143 0
M  V30 1814 H 181.971 1.96483 -2.91698 0
M  V30 1815 H 181.845 3.31381 -1.80184 0
M  V30 1816 H 184.232 2.79079 -0.959099 0
M  V30 1817 H 184.313 1.4481 -2.10864 0
M  V30 1818 H 183.957 3.09704 -4.02549 0
M  V30 1819 H 183.887 4.43055 -2.84622 0
M  V30 1820 H 186.378 2.94315 -2.37039 0
M  V30 1821 H 186.691 5.60675 -5.3185 0
M  V30 1822 H 185.036 5.04708 -4.77802 0
M  V30 1823 H 188.227 3.5922 -3.00131 0
M  V30 1824 H 188.4 4.80697 -4.3455 0
M  V30 1825 N 181.806 0.884767 1.30421 0
M  V30 1826 C 183.052 0.513218 1.96819 0
M  V30 1827 C 183.407 -0.927347 1.68577 0
M  V30 1828 O 182.7 -1.64644 0.979941 0
M  V30 1829 C 182.894 0.724318 3.49983 0
M  V30 1830 C 182.723 2.18385 3.93113 0
M  V30 1831 C 181.493 2.82839 4.18725 0
M  V30 1832 C 183.691 3.15763 4.05953 0
M  V30 1833 N 181.673 4.1939 4.48314 0
M  V30 1834 C 183.044 4.37387 4.39423 0
M  V30 1835 C 185.099 3.11555 3.88379 0
M  V30 1836 C 183.802 5.55343 4.5715 0
M  V30 1837 C 185.828 4.28782 4.07308 0
M  V30 1838 C 185.19 5.49172 4.41123 0
M  V30 1839 H 181.289 0.237123 0.745182 0
M  V30 1840 H 183.873 1.14246 1.57658 0
M  V30 1841 H 182.044 0.124565 3.882 0
M  V30 1842 H 183.776 0.31969 4.03435 0
M  V30 1843 H 180.531 2.33708 4.11919 0
M  V30 1844 H 180.955 4.89911 4.67243 0
M  V30 1845 H 185.597 2.19576 3.61312 0
M  V30 1846 H 183.315 6.47826 4.8306 0
M  V30 1847 H 186.901 4.26995 3.95179 0
M  V30 1848 H 185.781 6.38371 4.55469 0
M  V30 1849 N 183.284 -1.43765 0.645699 0
M  V30 1850 C 184.533 -2.01116 0.153412 0
M  V30 1851 C 184.846 -1.51493 -1.23731 0
M  V30 1852 O 186.052 -2.01067 -1.8244 0
M  V30 1853 C 184.508 -3.59206 0.223473 0
M  V30 1854 C 184.116 -4.17823 1.61642 0
M  V30 1855 C 185.86 -4.23972 -0.211597 0
M  V30 1856 C 183.767 -5.68183 1.64081 0
M  V30 1857 H 182.697 -0.752093 0.0535891 0
M  V30 1858 H 185.348 -1.6482 0.806633 0
M  V30 1859 H 183.73 -3.92867 -0.497118 0
M  V30 1860 H 184.904 -3.95674 2.36176 0
M  V30 1861 H 183.219 -3.65399 1.99681 0
M  V30 1862 H 185.816 -5.34275 -0.213112 0
M  V30 1863 H 186.159 -3.97352 -1.24165 0
M  V30 1864 H 186.692 -3.95166 0.456988 0
M  V30 1865 H 183.431 -5.99559 2.64971 0
M  V30 1866 H 182.951 -5.9241 0.938611 0
M  V30 1867 H 184.63 -6.32085 1.3812 0
M  V30 1868 N 184.763 -0.387143 -1.52771 0
M  V30 1869 C 186.011 0.195349 -2.01154 0
M  V30 1870 C 186.332 1.475 -1.27549 0
M  V30 1871 O 185.602 1.91878 -0.394924 0
M  V30 1872 H 184.182 0.075178 -0.743207 0
M  V30 1873 H 186.844 -0.518337 -1.87881 0
M  V30 1874 H 185.94 0.407096 -3.09434 0
M  V30 1875 N 186.241 1.57166 -0.116904 0
M  V30 1876 C 187.49 1.94298 0.541407 0
M  V30 1877 C 187.803 1.00236 1.67964 0
M  V30 1878 O 189.009 1.26826 2.40057 0
M  V30 1879 C 187.465 3.45306 1.01449 0
M  V30 1880 C 187.073 4.47899 -0.0951738 0
M  V30 1881 C 188.817 3.91361 1.6443 0
M  V30 1882 C 186.724 5.90083 0.394491 0
M  V30 1883 H 185.654 0.725308 0.206019 0
M  V30 1884 H 188.305 1.82446 -0.196419 0
M  V30 1885 H 186.687 3.52385 1.80667 0
M  V30 1886 H 187.861 4.52486 -0.871374 0
M  V30 1887 H 186.176 4.11583 -0.631505 0
M  V30 1888 H 188.773 4.95004 2.02176 0
M  V30 1889 H 189.116 3.3122 2.52189 0
M  V30 1890 H 189.649 3.87073 0.917559 0
M  V30 1891 H 186.388 6.53974 -0.447004 0
M  V30 1892 H 185.908 5.88921 1.13722 0
M  V30 1893 H 187.587 6.41307 0.856399 0
M  V30 1894 N 187.719 -0.156864 1.56817 0
M  V30 1895 C 188.682 -1.17781 1.96622 0
M  V30 1896 C 189.682 -1.36401 0.851555 0
M  V30 1897 O 190.872 -1.33561 1.11836 0
M  V30 1898 C 188.004 -2.54008 2.27361 0
M  V30 1899 H 189.197 -0.836564 2.87996 0
M  V30 1900 H 186.75 -0.39985 1.51099 0
M  V30 1901 H 187.485 -2.9312 1.38748 0
M  V30 1902 H 187.27 -2.41856 3.08623 0
M  V30 1903 H 188.76 -3.27558 2.59029 0
M  V30 1904 N 189.197 -1.51736 -0.425897 0
M  V30 1905 C 190.16 -1.73271 -1.50032 0
M  V30 1906 C 191.16 -0.602639 -1.4908 0
M  V30 1907 O 192.35 -0.87033 -1.509 0
M  V30 1908 C 189.482 -1.79969 -2.89523 0
M  V30 1909 H 190.675 -2.69172 -1.32237 0
M  V30 1910 H 188.228 -1.41899 -0.65532 0
M  V30 1911 H 188.963 -0.859241 -3.1271 0
M  V30 1912 H 188.748 -2.62109 -2.91619 0
M  V30 1913 H 190.238 -1.9843 -3.67444 0
M  V30 1914 N 190.675 0.682077 -1.42076 0
M  V30 1915 C 192.091 0.994324 -1.24841 0
M  V30 1916 C 192.291 2.0096 -0.147389 0
M  V30 1917 O 191.347 2.47822 0.483782 0
M  V30 1918 C 192.66 1.50607 -2.60265 0
M  V30 1919 C 194.208 1.62421 -2.6756 0
M  V30 1920 C 194.683 2.16994 -4.03333 0
M  V30 1921 N 196.174 2.24337 -4.0525 0
M  V30 1922 C 196.909 2.67621 -5.07116 0
M  V30 1923 N 196.405 3.1041 -6.19368 0
M  V30 1924 N 198.198 2.67305 -4.94474 0
M  V30 1925 H 190.349 0.00973908 -2.12398 0
M  V30 1926 H 192.612 0.0668593 -0.945639 0
M  V30 1927 H 192.318 0.834583 -3.41654 0
M  V30 1928 H 192.192 2.48602 -2.83684 0
M  V30 1929 H 194.579 2.28678 -1.86521 0
M  V30 1930 H 194.66 0.629352 -2.47937 0
M  V30 1931 H 194.304 1.51349 -4.84826 0
M  V30 1932 H 194.234 3.17258 -4.20304 0
M  V30 1933 H 196.725 1.94158 -3.24209 0
M  V30 1934 H 197.038 3.42103 -6.92954 0
M  V30 1935 H 195.383 3.08286 -6.22884 0
M  V30 1936 H 198.574 2.33233 -4.05857 0
M  V30 1937 H 198.747 3.00718 -5.73997 0
M  V30 1938 N 192.153 1.28127 0.917671 0
M  V30 1939 C 193.378 1.18007 1.70555 0
M  V30 1940 C 193.803 -0.258257 1.86319 0
M  V30 1941 O 193.161 -1.1869 1.37049 0
M  V30 1942 C 193.209 1.87948 3.07746 0
M  V30 1943 O 192.313 1.18427 3.9503 0
M  V30 1944 H 191.654 0.409867 0.522403 0
M  V30 1945 H 194.184 1.69379 1.1477 0
M  V30 1946 H 194.194 1.95701 3.58001 0
M  V30 1947 H 192.869 2.92573 2.95591 0
M  V30 1948 H 191.446 1.18811 3.53466 0
M  V30 1949 N 193.631 -1.12557 1.10312 0
M  V30 1950 C 194.859 -1.87864 0.866873 0
M  V30 1951 C 195.274 -1.79588 -0.582557 0
M  V30 1952 O 194.631 -1.16887 -1.40156 0
M  V30 1953 C 194.682 -3.37125 1.30496 0
M  V30 1954 O 194.403 -3.45201 2.69755 0
M  V30 1955 C 195.904 -4.29373 1.10243 0
M  V30 1956 H 193.124 -0.594452 0.311236 0
M  V30 1957 H 195.668 -1.42429 1.46745 0
M  V30 1958 H 193.823 -3.80109 0.748081 0
M  V30 1959 H 194.237 -4.38056 2.88457 0
M  V30 1960 H 195.711 -5.32394 1.45811 0
M  V30 1961 H 196.188 -4.39181 0.0409492 0
M  V30 1962 H 196.794 -3.92169 1.64571 0
M  V30 1963 N 195.109 -0.891671 -1.2995 0
M  V30 1964 C 196.355 -0.514261 -1.96171 0
M  V30 1965 C 196.688 0.935506 -1.70182 0
M  V30 1966 O 195.963 1.66204 -1.01028 0
M  V30 1967 C 196.246 -0.797719 -3.51153 0
M  V30 1968 C 196.099 -2.2986 -3.86632 0
M  V30 1969 C 197.418 -0.278749 -4.39216 0
M  V30 1970 H 194.537 -0.188314 -0.712535 0
M  V30 1971 H 197.179 -1.11689 -1.53706 0
M  V30 1972 H 195.329 -0.284826 -3.87455 0
M  V30 1973 H 197.001 -2.88042 -3.60319 0
M  V30 1974 H 195.244 -2.76257 -3.34462 0
M  V30 1975 H 195.915 -2.44753 -4.94773 0
M  V30 1976 H 198.391 -0.717825 -4.09862 0
M  V30 1977 H 197.267 -0.506353 -5.46559 0
M  V30 1978 H 197.528 0.820266 -4.34424 0
M  V30 1979 N 196.587 1.43421 -0.653314 0
M  V30 1980 C 197.834 2.01812 -0.166745 0
M  V30 1981 C 198.162 1.51535 1.21931 0
M  V30 1982 O 197.417 0.698975 1.82792 0
M  V30 1983 C 197.716 3.57176 -0.126623 0
M  V30 1984 C 197.382 4.26798 -1.45444 0
M  V30 1985 C 196.044 4.45534 -1.81805 0
M  V30 1986 C 198.396 4.66225 -2.32989 0
M  V30 1987 C 195.724 5.00961 -3.05377 0
M  V30 1988 C 198.076 5.23021 -3.55853 0
M  V30 1989 C 196.74 5.39973 -3.9241 0
M  V30 1990 H 196.01 0.738484 -0.0610162 0
M  V30 1991 H 198.657 1.71896 -0.84404 0
M  V30 1992 H 196.962 3.86634 0.634123 0
M  V30 1993 H 198.659 4.00112 0.266723 0
M  V30 1994 H 195.249 4.12561 -1.16153 0
M  V30 1995 H 199.433 4.51443 -2.06187 0
M  V30 1996 H 194.689 5.12271 -3.3375 0
M  V30 1997 H 198.863 5.52518 -4.23907 0
M  V30 1998 H 196.49 5.82687 -4.88242 0
M  V30 1999 N 198.065 0.39524 1.52563 0
M  V30 2000 C 199.311 -0.185318 2.01952 0
M  V30 2001 C 199.644 -1.45964 1.28095 0
M  V30 2002 O 198.919 -1.90689 0.38315 0
M  V30 2003 C 199.202 -0.447193 3.57312 0
M  V30 2004 C 199.055 0.842828 4.41833 0
M  V30 2005 C 200.374 -1.23529 4.22408 0
M  V30 2006 H 197.493 -0.0658788 0.73405 0
M  V30 2007 H 200.135 0.525975 1.82575 0
M  V30 2008 H 198.285 -1.05312 3.73954 0
M  V30 2009 H 199.957 1.4795 4.36931 0
M  V30 2010 H 198.2 1.45686 4.08605 0
M  V30 2011 H 198.871 0.614165 5.48573 0
M  V30 2012 H 201.347 -0.722445 4.0978 0
M  V30 2013 H 200.223 -1.38727 5.3108 0
M  V30 2014 H 200.484 -2.25213 3.80436 0
M  V30 2015 N 199.544 -1.57102 0.125237 0
M  V30 2016 C 200.774 -1.99472 -0.538015 0
M  V30 2017 C 201.182 -1.00395 -1.60366 0
M  V30 2018 O 200.525 0.0103875 -1.83697 0
M  V30 2019 C 200.587 -3.38262 -1.21734 0
M  V30 2020 C 200.251 -4.56021 -0.298897 0
M  V30 2021 C 201.248 -5.17817 0.464943 0
M  V30 2022 C 198.933 -5.01869 -0.208149 0
M  V30 2023 C 200.927 -6.23852 1.3072 0
M  V30 2024 C 198.614 -6.07763 0.637736 0
M  V30 2025 C 199.612 -6.68622 1.39403 0
M  V30 2026 O 199.3 -7.7247 2.22586 0
M  V30 2027 H 199.032 -0.659934 -0.146501 0
M  V30 2028 H 201.586 -2.04321 0.210267 0
M  V30 2029 H 199.816 -3.30185 -2.01282 0
M  V30 2030 H 201.505 -3.6488 -1.77813 0
M  V30 2031 H 202.271 -4.83308 0.404741 0
M  V30 2032 H 198.15 -4.54241 -0.786522 0
M  V30 2033 H 201.694 -6.71284 1.898 0
M  V30 2034 H 197.591 -6.41701 0.699309 0
M  V30 2035 H 198.359 -7.89595 2.15596 0
M  V30 2036 N 201.022 0.148545 -1.56898 0
M  V30 2037 C 201.97 1.20265 -1.99096 0
M  V30 2038 C 202.964 1.44559 -0.883123 0
M  V30 2039 O 204.17 1.4487 -1.0683 0
M  V30 2040 H 200.545 0.404786 -0.63376 0
M  V30 2041 H 202.516 0.82004 -2.86911 0
M  V30 2042 C 201.265 2.52886 -2.3863 0
M  V30 2043 H 200.588 2.35021 -3.23427 0
M  V30 2044 H 202.028 3.25274 -2.7198 0
M  V30 2045 C 200.487 3.13315 -1.23837 0
M  V30 2046 O 201.017 3.98077 -0.538268 0
M  V30 2047 N 199.223 2.72742 -1.00301 0
M  V30 2048 H 198.77 2.03912 -1.5741 0
M  V30 2049 H 198.728 3.13507 -0.236838 0
M  V30 2050 N 202.5 1.5196 0.417844 0
M  V30 2051 C 203.911 1.57851 0.997 0
M  V30 2052 C 204.262 0.413714 1.91789 0
M  V30 2053 O 203.387 -0.467057 2.113 0
M  V30 2054 C 203.982 2.86085 1.81496 0
M  V30 2055 C 202.541 2.94483 2.34428 0
M  V30 2056 C 201.688 2.52707 1.14169 0
M  V30 2057 H 204.639 1.57455 0.198392 0
M  V30 2058 H 204.66 2.70947 2.67148 0
M  V30 2059 H 204.172 3.70842 1.14446 0
M  V30 2060 H 202.273 2.142 3.04875 0
M  V30 2061 H 202.386 3.98546 2.65891 0
M  V30 2062 H 200.75 2.06353 1.49301 0
M  V30 2063 H 201.533 3.39828 0.486999 0
M  V30 2064 N 203.978 -0.674533 1.42435 0
M  V30 2065 C 204.941 -1.76986 1.45632 0
M  V30 2066 C 205.941 -1.5708 0.343871 0
M  V30 2067 O 207.131 -1.63367 0.604709 0
M  V30 2068 C 204.263 -3.15623 1.28822 0
M  V30 2069 H 205.456 -1.75539 2.43158 0
M  V30 2070 H 203.009 -0.884189 1.28887 0
M  V30 2071 H 203.744 -3.22696 0.322193 0
M  V30 2072 H 203.529 -3.31475 2.09444 0
M  V30 2073 H 205.019 -3.95537 1.33942 0
M  V30 2074 N 205.456 -1.28612 -0.910864 0
M  V30 2075 C 206.403 -1.12786 -2.01365 0
M  V30 2076 C 207.373 -0.024201 -1.66082 0
M  V30 2077 O 208.558 -0.189667 -1.89855 0
M  V30 2078 C 205.698 -0.798743 -3.35729 0
M  V30 2079 C 204.811 -1.98173 -3.83864 0
M  V30 2080 C 203.946 -1.59298 -5.06752 0
M  V30 2081 C 202.985 -2.74245 -5.47226 0
M  V30 2082 N 202.122 -2.35842 -6.61304 0
M  V30 2083 H 206.962 -2.07142 -2.14234 0
M  V30 2084 H 204.499 -1.03093 -1.0493 0
M  V30 2085 H 206.457 -0.588662 -4.13026 0
M  V30 2086 H 205.087 0.10789 -3.2262 0
M  V30 2087 H 204.139 -2.30386 -3.02699 0
M  V30 2088 H 205.451 -2.84343 -4.09818 0
M  V30 2089 H 204.605 -1.34513 -5.916 0
M  V30 2090 H 203.344 -0.702618 -4.82612 0
M  V30 2091 H 202.349 -2.99725 -4.60918 0
M  V30 2092 H 203.574 -3.63928 -5.73353 0
M  V30 2093 H 201.52 -1.49279 -6.38789 0
M  V30 2094 H 201.437 -3.15546 -6.86998 0
M  V30 2095 H 202.705 -2.14348 -7.4945 0
M  V30 2096 N 206.934 1.1197 -1.10907 0
M  V30 2097 C 207.864 2.19928 -0.784473 0
M  V30 2098 C 208.845 1.6833 0.244726 0
M  V30 2099 O 210.03 1.93892 0.109418 0
M  V30 2100 C 207.16 3.46597 -0.220827 0
M  V30 2101 C 206.114 4.11376 -1.18127 0
M  V30 2102 C 205.44 5.32554 -0.478594 0
M  V30 2103 C 206.74 4.56945 -2.52979 0
M  V30 2104 H 208.434 2.47337 -1.68715 0
M  V30 2105 H 205.98 1.18879 -0.812642 0
M  V30 2106 H 207.933 4.21396 0.0184278 0
M  V30 2107 H 206.657 3.1863 0.717113 0
M  V30 2108 H 205.316 3.38564 -1.40606 0
M  V30 2109 H 204.964 5.00856 0.463976 0
M  V30 2110 H 204.664 5.76844 -1.11912 0
M  V30 2111 H 206.188 6.10096 -0.248 0
M  V30 2112 H 207.602 5.23093 -2.3462 0
M  V30 2113 H 205.999 5.1203 -3.12962 0
M  V30 2114 H 207.069 3.70676 -3.12614 0
M  V30 2115 N 208.412 0.89855 1.29475 0
M  V30 2116 C 209.637 0.538561 2.00285 0
M  V30 2117 C 210.062 -0.869135 1.66816 0
M  V30 2118 O 209.42 -1.57831 0.892145 0
M  V30 2119 C 209.468 0.736475 3.52999 0
M  V30 2120 O 208.572 -0.211537 4.11857 0
M  V30 2121 H 207.913 0.210563 0.62973 0
M  V30 2122 H 210.443 1.20982 1.64998 0
M  V30 2123 H 210.453 0.640685 4.02938 0
M  V30 2124 H 209.128 1.76276 3.76696 0
M  V30 2125 H 207.705 -0.0682991 3.72837 0
M  V30 2126 N 209.89 -1.43072 0.660911 0
M  V30 2127 C 211.167 -1.95307 0.107017 0
M  V30 2128 C 211.547 -1.60192 -1.37484 0
M  V30 2129 O 210.895 -0.890949 -2.10415 0
M  V30 2130 C 211.105 -3.47124 0.361402 0
M  V30 2131 C 212.453 -4.23738 0.270455 0
M  V30 2132 O 213.477 -3.54981 0.294382 0
M  V30 2133 O 212.336 -5.46131 0.200737 0
M  V30 2134 H 209.43 -0.826984 -0.00517729 0
M  V30 2135 H 211.976 -1.52972 0.734681 0
M  V30 2136 H 210.748 -3.65837 1.38848 0
M  V30 2137 H 210.371 -3.96475 -0.298953 0
M  V30 2138 N 211.368 -0.403325 -1.52352 0
M  V30 2139 C 212.331 0.413051 -2.25447 0
M  V30 2140 C 213.331 0.978513 -1.276 0
M  V30 2141 O 214.521 0.858305 -1.51587 0
M  V30 2142 C 211.653 1.58087 -3.02029 0
M  V30 2143 H 212.846 -0.227094 -2.99039 0
M  V30 2144 H 210.399 -0.155722 -1.55522 0
M  V30 2145 H 211.134 2.25804 -2.32772 0
M  V30 2146 H 210.919 1.18195 -3.73861 0
M  V30 2147 H 212.409 2.1585 -3.57489 0
M  V30 2148 N 212.846 1.57033 -0.133567 0
M  V30 2149 C 213.778 2.13176 0.841944 0
M  V30 2150 C 214.791 1.07794 1.22001 0
M  V30 2151 O 215.98 1.35117 1.16643 0
M  V30 2152 C 213.08 2.62847 2.13926 0
M  V30 2153 C 212.253 3.92486 1.93064 0
M  V30 2154 C 211.312 4.27605 3.0666 0
M  V30 2155 O 210.338 4.96168 2.78937 0
M  V30 2156 N 211.54 3.861 4.33483 0
M  V30 2157 H 214.305 2.97503 0.362192 0
M  V30 2158 H 211.866 1.61821 0.05042 0
M  V30 2159 H 213.858 2.83363 2.88942 0
M  V30 2160 H 212.428 1.83319 2.53205 0
M  V30 2161 H 211.648 3.80732 1.02159 0
M  V30 2162 H 212.936 4.77225 1.76447 0
M  V30 2163 H 212.334 3.30828 4.58878 0
M  V30 2164 H 210.891 4.11694 5.05323 0
M  V30 2165 N 214.325 -0.140222 1.56975 0
M  V30 2166 C 215.255 -1.17456 2.01808 0
M  V30 2167 C 216.236 -1.44415 0.898794 0
M  V30 2168 O 217.421 -1.5522 1.16707 0
M  V30 2169 C 214.551 -2.50607 2.40444 0
M  V30 2170 C 213.505 -2.38155 3.55621 0
M  V30 2171 C 212.831 -3.76078 3.80091 0
M  V30 2172 C 214.131 -1.85991 4.88062 0
M  V30 2173 H 215.825 -0.801743 2.88466 0
M  V30 2174 H 213.371 -0.38422 1.38779 0
M  V30 2175 H 215.324 -3.23197 2.7041 0
M  V30 2176 H 214.048 -2.89737 1.50732 0
M  V30 2177 H 212.707 -1.68016 3.25832 0
M  V30 2178 H 212.355 -4.12656 2.87618 0
M  V30 2179 H 212.055 -3.68606 4.57606 0
M  V30 2180 H 213.579 -4.50206 4.12488 0
M  V30 2181 H 214.993 -2.4838 5.16701 0
M  V30 2182 H 213.39 -1.89393 5.6943 0
M  V30 2183 H 214.46 -0.816023 4.77984 0
M  V30 2184 N 215.803 -1.52179 -0.40978 0
M  V30 2185 C 217.214 -1.58377 -0.988615 0
M  V30 2186 C 217.565 -0.423879 -1.91566 0
M  V30 2187 O 216.69 0.455844 -2.11544 0
M  V30 2188 C 217.285 -2.87044 -1.79976 0
M  V30 2189 C 215.844 -2.95722 -2.32863 0
M  V30 2190 C 214.991 -2.53309 -1.12828 0
M  V30 2191 H 217.942 -1.57558 -0.190039 0
M  V30 2192 H 217.963 -2.7236 -2.65707 0
M  V30 2193 H 217.475 -3.71444 -1.12478 0
M  V30 2194 H 215.576 -2.15814 -3.03735 0
M  V30 2195 H 215.689 -3.99951 -2.63773 0
M  V30 2196 H 214.053 -2.07142 -1.48204 0
M  V30 2197 H 214.836 -3.40082 -0.46897 0
M  V30 2198 N 217.281 0.66697 -1.42791 0
M  V30 2199 C 218.228 1.7803 -1.4688 0
M  V30 2200 C 219.198 1.6299 -0.319919 0
M  V30 2201 O 220.383 1.83432 -0.525118 0
M  V30 2202 C 217.523 3.1611 -1.38451 0
M  V30 2203 C 216.636 3.42381 -2.63437 0
M  V30 2204 C 215.771 4.70232 -2.47094 0
M  V30 2205 C 214.81 4.89564 -3.67415 0
M  V30 2206 N 213.947 6.08661 -3.49966 0
M  V30 2207 H 218.787 1.7387 -2.42019 0
M  V30 2208 H 216.324 0.84868 -1.20149 0
M  V30 2209 H 218.282 3.95914 -1.31561 0
M  V30 2210 H 216.912 3.19374 -0.469033 0
M  V30 2211 H 215.964 2.56774 -2.80662 0
M  V30 2212 H 217.276 3.52557 -3.52853 0
M  V30 2213 H 216.43 5.5814 -2.37834 0
M  V30 2214 H 215.169 4.62353 -1.5518 0
M  V30 2215 H 214.174 4.00096 -3.77099 0
M  V30 2216 H 215.399 4.99282 -4.6032 0
M  V30 2217 H 213.345 6.0194 -2.60776 0
M  V30 2218 H 213.262 6.19733 -4.32975 0
M  V30 2219 H 214.53 6.99226 -3.44532 0
M  V30 2220 N 218.759 1.29093 0.90403 0
M  V30 2221 C 219.984 1.19809 1.69294 0
M  V30 2222 C 220.409 -0.238481 1.86582 0
M  V30 2223 O 219.767 -1.1723 1.383 0
M  V30 2224 C 219.815 1.91202 3.05736 0
M  V30 2225 O 218.919 1.22611 3.93752 0
M  V30 2226 H 218.26 0.415385 0.518027 0
M  V30 2227 H 220.79 1.70586 1.12967 0
M  V30 2228 H 220.8 1.99487 3.55906 0
M  V30 2229 H 219.475 2.95692 2.92471 0
M  V30 2230 H 218.052 1.22554 3.52186 0
M  V30 2231 N 220.237 -1.11381 1.11499 0
M  V30 2232 C 221.167 -2.19509 0.796125 0
M  V30 2233 C 222.148 -1.68458 -0.235796 0
M  V30 2234 O 223.333 -1.93947 -0.0991344 0
M  V30 2235 C 220.463 -3.46475 0.239205 0
M  V30 2236 C 219.417 -4.10744 1.20307 0
M  V30 2237 C 218.743 -5.32293 0.50683 0
M  V30 2238 C 220.043 -4.55597 2.55399 0
M  V30 2239 H 221.737 -2.46439 1.70024 0
M  V30 2240 H 219.283 -1.18446 0.818935 0
M  V30 2241 H 221.236 -4.214 0.00392006 0
M  V30 2242 H 219.96 -3.19006 -0.700206 0
M  V30 2243 H 218.619 -3.37813 1.42399 0
M  V30 2244 H 218.267 -5.01095 -0.437408 0
M  V30 2245 H 217.967 -5.76243 1.1497 0
M  V30 2246 H 219.491 -6.09956 0.280351 0
M  V30 2247 H 220.905 -5.21841 2.37391 0
M  V30 2248 H 219.302 -5.10363 3.15673 0
M  V30 2249 H 220.372 -3.69013 3.14575 0
M  V30 2250 N 221.715 -0.905404 -1.28997 0
M  V30 2251 C 222.645 -0.404212 -2.29975 0
M  V30 2252 C 223.626 0.523784 -1.61835 0
M  V30 2253 O 224.811 0.433298 -1.89304 0
M  V30 2254 C 221.941 0.364042 -3.45387 0
M  V30 2255 C 220.895 -0.474048 -4.25367 0
M  V30 2256 C 220.221 0.422045 -5.33032 0
M  V30 2257 C 221.521 -1.72696 -4.92923 0
M  V30 2258 H 223.215 -1.24807 -2.72146 0
M  V30 2259 H 220.761 -0.601585 -1.30832 0
M  V30 2260 H 222.714 0.725447 -4.15109 0
M  V30 2261 H 221.438 1.24174 -3.02074 0
M  V30 2262 H 220.097 -0.81786 -3.57361 0
M  V30 2263 H 219.745 1.29804 -4.85963 0
M  V30 2264 H 219.445 -0.135057 -5.87445 0
M  V30 2265 H 220.969 0.779517 -6.05604 0
M  V30 2266 H 222.383 -1.43495 -5.55051 0
M  V30 2267 H 220.78 -2.22582 -5.57295 0
M  V30 2268 H 221.85 -2.45964 -4.17887 0
M  V30 2269 N 223.193 1.4272 -0.668489 0
M  V30 2270 C 224.47 1.95248 -0.117373 0
M  V30 2271 C 224.85 1.60919 1.36632 0
M  V30 2272 O 224.198 0.902095 2.09939 0
M  V30 2273 C 224.408 3.46927 -0.379806 0
M  V30 2274 C 225.756 4.23588 -0.292923 0
M  V30 2275 O 226.78 3.5482 -0.313204 0
M  V30 2276 O 225.639 5.46017 -0.229697 0
M  V30 2277 H 222.733 0.827 0.00079152 0
M  V30 2278 H 225.279 1.52581 -0.742783 0
M  V30 2279 H 224.051 3.65096 -1.40786 0
M  V30 2280 H 223.674 3.96627 0.277923 0
M  V30 2281 N 224.671 0.411399 1.52136 0
M  V30 2282 C 225.601 -0.404015 2.29978 0
M  V30 2283 C 226.582 -1.04412 1.34284 0
M  V30 2284 O 227.767 -1.0527 1.63192 0
M  V30 2285 C 224.897 -1.5197 3.12286 0
M  V30 2286 C 223.851 -1.00448 4.16046 0
M  V30 2287 C 223.177 -2.21393 4.86712 0
M  V30 2288 C 224.477 -0.0569336 5.22269 0
M  V30 2289 H 226.171 0.245529 2.98392 0
M  V30 2290 H 223.717 0.119525 1.43503 0
M  V30 2291 H 225.67 -2.09715 3.6551 0
M  V30 2292 H 224.394 -2.19716 2.41646 0
M  V30 2293 H 223.053 -0.449421 3.63835 0
M  V30 2294 H 222.701 -2.87699 4.12599 0
M  V30 2295 H 222.401 -1.87571 5.56858 0
M  V30 2296 H 223.925 -2.7974 5.4275 0
M  V30 2297 H 225.339 -0.54325 5.7072 0
M  V30 2298 H 223.736 0.192594 5.99791 0
M  V30 2299 H 224.806 0.887663 4.76706 0
M  V30 2300 N 226.149 -1.5696 0.141893 0
M  V30 2301 C 227.112 -2.15316 -0.785587 0
M  V30 2302 C 228.112 -1.09366 -1.1788 0
M  V30 2303 O 229.302 -1.35031 -1.10056 0
M  V30 2304 C 226.434 -2.71211 -2.06537 0
M  V30 2305 H 227.627 -2.98608 -0.278041 0
M  V30 2306 H 225.18 -1.5593 -0.107519 0
M  V30 2307 H 225.915 -1.91571 -2.6167 0
M  V30 2308 H 225.7 -3.4872 -1.79268 0
M  V30 2309 H 227.19 -3.16189 -2.72789 0
M  V30 2310 N 227.627 0.131896 -1.57047 0
M  V30 2311 C 228.574 1.16236 -1.99393 0
M  V30 2312 C 229.544 1.41863 -0.863943 0
M  V30 2313 O 230.729 1.53946 -1.12718 0
M  V30 2314 C 227.869 2.48708 -2.39245 0
M  V30 2315 C 226.982 2.30127 -3.65603 0
M  V30 2316 C 226.117 3.55738 -3.94492 0
M  V30 2317 C 225.156 3.32259 -5.14073 0
M  V30 2318 N 224.293 4.50039 -5.38896 0
M  V30 2319 H 229.133 0.794251 -2.87221 0
M  V30 2320 H 226.67 0.380707 -1.42088 0
M  V30 2321 H 228.628 3.25969 -2.60384 0
M  V30 2322 H 227.258 2.83437 -1.54478 0
M  V30 2323 H 226.31 1.43845 -3.52154 0
M  V30 2324 H 227.622 2.08746 -4.5302 0
M  V30 2325 H 226.776 4.41423 -4.1621 0
M  V30 2326 H 225.515 3.80138 -3.05526 0
M  V30 2327 H 224.52 2.44963 -4.92212 0
M  V30 2328 H 225.745 3.09242 -6.04604 0
M  V30 2329 H 223.691 4.74584 -4.52886 0
M  V30 2330 H 223.608 4.31716 -6.2061 0
M  V30 2331 H 224.876 5.36895 -5.65123 0
M  V30 2332 N 229.106 1.52395 0.401703 0
M  V30 2333 C 230.517 1.58899 0.980202 0
M  V30 2334 C 230.868 0.434032 1.91339 0
M  V30 2335 O 229.993 -0.444619 2.11783 0
M  V30 2336 C 230.588 2.87994 1.78451 0
M  V30 2337 C 229.147 2.96953 2.31292 0
M  V30 2338 C 228.294 2.53903 1.11483 0
M  V30 2339 H 231.245 1.57657 0.18168 0
M  V30 2340 H 231.266 2.73765 2.64259 0
M  V30 2341 H 230.778 3.72035 1.10506 0
M  V30 2342 H 228.879 2.17422 3.02586 0
M  V30 2343 H 228.992 4.01344 2.61649 0
M  V30 2344 H 227.356 2.07925 1.47104 0
M  V30 2345 H 228.139 3.40326 0.450928 0
M  V30 2346 N 230.584 -0.659388 1.43143 0
M  V30 2347 C 231.494 -1.80167 1.50256 0
M  V30 2348 C 232.51 -1.69571 0.390106 0
M  V30 2349 O 233.686 -1.90849 0.643319 0
M  V30 2350 C 230.751 -3.16409 1.41725 0
M  V30 2351 C 229.812 -3.38848 2.63591 0
M  V30 2352 C 229.045 -4.68591 2.55458 0
M  V30 2353 O 229.268 -5.47532 1.59891 0
M  V30 2354 O 228.202 -4.92614 3.45854 0
M  V30 2355 H 232.028 -1.77121 2.46702 0
M  V30 2356 H 229.613 -0.817092 1.25076 0
M  V30 2357 H 231.495 -3.9768 1.39387 0
M  V30 2358 H 230.17 -3.20059 0.484118 0
M  V30 2359 H 229.077 -2.57366 2.71502 0
M  V30 2360 H 230.41 -3.4004 3.55856 0
M  V30 2361 N 232.062 -1.29571 -0.897171 0
M  V30 2362 C 233.308 -1.18873 -1.65048 0
M  V30 2363 C 233.663 0.256707 -1.9068 0
M  V30 2364 O 232.956 1.18202 -1.50794 0
M  V30 2365 C 233.15 -1.9382 -3.00281 0
M  V30 2366 C 232.979 -3.45503 -2.8785 0
M  V30 2367 C 231.749 -4.14856 -2.88483 0
M  V30 2368 C 233.947 -4.40956 -2.64693 0
M  V30 2369 N 231.929 -5.52886 -2.66815 0
M  V30 2370 C 233.3 -5.66464 -2.5203 0
M  V30 2371 C 235.355 -4.3069 -2.49821 0
M  V30 2372 C 234.058 -6.82871 -2.26008 0
M  V30 2373 C 236.084 -5.46852 -2.25182 0
M  V30 2374 C 235.446 -6.71333 -2.13286 0
M  V30 2375 H 231.545 -0.489998 -0.609447 0
M  V30 2376 H 234.129 -1.63431 -1.05822 0
M  V30 2377 H 232.3 -1.51671 -3.57562 0
M  V30 2378 H 234.032 -1.75366 -3.64731 0
M  V30 2379 H 230.787 -3.66579 -2.99861 0
M  V30 2380 H 231.211 -6.25487 -2.59027 0
M  V30 2381 H 235.853 -3.35141 -2.5776 0
M  V30 2382 H 233.571 -7.78473 -2.16806 0
M  V30 2383 H 237.157 -5.40809 -2.14515 0
M  V30 2384 H 236.037 -7.59701 -1.94485 0
M  V30 2385 N 233.54 1.10788 -1.12088 0
M  V30 2386 C 234.487 2.17025 -0.785407 0
M  V30 2387 C 235.457 1.64265 0.246191 0
M  V30 2388 O 236.642 1.90412 0.121584 0
M  V30 2389 C 233.782 3.44249 -0.242177 0
M  V30 2390 C 232.895 4.1098 -1.33115 0
M  V30 2391 C 232.03 5.25911 -0.747741 0
M  V30 2392 C 231.069 5.84538 -1.81609 0
M  V30 2393 N 230.206 6.90853 -1.25167 0
M  V30 2394 H 235.046 2.45066 -1.69548 0
M  V30 2395 H 232.583 1.20297 -0.846582 0
M  V30 2396 H 234.541 4.17101 0.0908026 0
M  V30 2397 H 233.171 3.16571 0.631072 0
M  V30 2398 H 232.223 3.36133 -1.78097 0
M  V30 2399 H 233.535 4.50601 -2.13917 0
M  V30 2400 H 232.689 6.056 -0.365216 0
M  V30 2401 H 231.428 4.87614 0.0915188 0
M  V30 2402 H 230.433 5.03522 -2.20785 0
M  V30 2403 H 231.658 6.249 -2.6585 0
M  V30 2404 H 229.604 6.54562 -0.434174 0
M  V30 2405 H 229.521 7.29166 -1.99633 0
M  V30 2406 H 230.789 7.7433 -0.896259 0
M  V30 2407 N 235.018 0.912232 1.28515 0
M  V30 2408 C 236.266 0.543523 1.94654 0
M  V30 2409 C 236.587 -0.9155 1.72173 0
M  V30 2410 O 235.857 -1.64708 1.06058 0
M  V30 2411 H 234.437 0.198017 0.720277 0
M  V30 2412 H 237.099 1.16126 1.56527 0
M  V30 2413 H 236.195 0.736684 3.03281 0
M  V30 2414 N 236.496 -1.42363 0.676048 0
M  V30 2415 C 237.912 -1.55811 0.345718 0
M  V30 2416 C 238.112 -1.65544 -1.14879 0
M  V30 2417 O 237.168 -1.62306 -1.93424 0
M  V30 2418 C 238.481 -2.80746 1.07713 0
M  V30 2419 C 240.029 -2.9452 1.05958 0
M  V30 2420 C 240.504 -4.22318 1.77233 0
M  V30 2421 N 241.995 -4.29233 1.74108 0
M  V30 2422 C 242.73 -5.26935 2.26113 0
M  V30 2423 N 242.226 -6.30783 2.86505 0
M  V30 2424 N 244.019 -5.18741 2.1648 0
M  V30 2425 H 236.17 -1.34289 1.6456 0
M  V30 2426 H 238.433 -0.646506 0.69335 0
M  V30 2427 H 238.139 -2.79696 2.13221 0
M  V30 2428 H 238.013 -3.71676 0.64316 0
M  V30 2429 H 240.4 -2.95097 0.0128255 0
M  V30 2430 H 240.481 -2.04817 1.53244 0
M  V30 2431 H 240.125 -4.22502 2.81877 0
M  V30 2432 H 240.055 -5.10958 1.27396 0
M  V30 2433 H 242.546 -3.54814 1.30059 0
M  V30 2434 H 242.859 -7.01691 3.23805 0
M  V30 2435 H 241.204 -6.31341 2.90575 0
M  V30 2436 H 244.395 -4.36533 1.68987 0
M  V30 2437 H 244.568 -5.94721 2.57316 0
M  V30 2438 N 237.974 -0.419461 -1.51915 0
M  V30 2439 C 239.22 0.145505 -2.02879 0
M  V30 2440 C 239.575 1.41926 -1.29903 0
M  V30 2441 O 238.868 1.87383 -0.399782 0
M  V30 2442 C 239.062 0.437067 -3.54717 0
M  V30 2443 C 238.891 -0.806877 -4.42402 0
M  V30 2444 C 237.661 -1.33514 -4.87342 0
M  V30 2445 C 239.859 -1.68796 -4.85811 0
M  V30 2446 N 237.841 -2.53349 -5.59185 0
M  V30 2447 C 239.212 -2.73247 -5.56539 0
M  V30 2448 C 241.267 -1.70449 -4.67816 0
M  V30 2449 C 239.97 -3.79276 -6.11181 0
M  V30 2450 C 241.996 -2.75403 -5.23361 0
M  V30 2451 C 241.358 -3.78575 -5.9402 0
M  V30 2452 H 237.457 0.0145424 -0.781865 0
M  V30 2453 H 240.041 -0.576126 -1.85981 0
M  V30 2454 H 238.212 1.12774 -3.71667 0
M  V30 2455 H 239.944 0.99182 -3.92358 0
M  V30 2456 H 236.699 -0.891657 -4.65131 0
M  V30 2457 H 237.123 -3.14066 -5.99743 0
M  V30 2458 H 241.765 -0.920209 -4.12664 0
M  V30 2459 H 239.483 -4.58554 -6.65397 0
M  V30 2460 H 243.069 -2.77603 -5.113 0
M  V30 2461 H 241.949 -4.58453 -6.36231 0
M  V30 2462 N 239.452 1.56882 -0.150215 0
M  V30 2463 C 240.415 2.1573 0.774157 0
M  V30 2464 C 241.415 1.0999 1.17298 0
M  V30 2465 O 242.605 1.35613 1.09338 0
M  V30 2466 C 239.737 2.72302 2.05096 0
M  V30 2467 H 240.93 2.98752 0.262201 0
M  V30 2468 H 238.483 1.55985 0.099248 0
M  V30 2469 H 239.218 1.92956 2.6065 0
M  V30 2470 H 239.003 3.49665 1.77416 0
M  V30 2471 H 240.493 3.17632 2.71109 0
M  V30 2472 N 240.93 -0.123565 1.57115 0
M  V30 2473 C 241.893 -1.13583 1.99076 0
M  V30 2474 C 242.893 -1.34564 0.880296 0
M  V30 2475 O 244.083 -1.31158 1.14644 0
M  V30 2476 C 241.215 -2.49128 2.32698 0
M  V30 2477 H 242.408 -0.775287 2.89706 0
M  V30 2478 H 239.961 -0.36771 1.51913 0
M  V30 2479 H 240.696 -2.90111 1.44934 0
M  V30 2480 H 240.481 -2.35255 3.13684 0
M  V30 2481 H 241.971 -3.2199 2.65918 0
M  V30 2482 N 242.408 -1.52605 -0.393616 0
M  V30 2483 C 243.633 -1.71592 -1.16495 0
M  V30 2484 C 244.058 -0.43133 -1.83088 0
M  V30 2485 O 243.416 0.612523 -1.7064 0
M  V30 2486 C 243.464 -2.86318 -2.19213 0
M  V30 2487 O 242.568 -2.52969 -3.257 0
M  V30 2488 H 241.909 -0.570734 -0.33935 0
M  V30 2489 H 244.439 -1.99377 -0.459324 0
M  V30 2490 H 244.449 -3.1168 -2.63286 0
M  V30 2491 H 243.124 -3.79511 -1.7013 0
M  V30 2492 H 241.701 -2.38332 -2.86797 0
M  V30 2493 N 243.887 0.651787 -1.4349 0
M  V30 2494 C 245.298 1.233 -1.40193 0
M  V30 2495 C 245.649 1.9591 -0.106727 0
M  V30 2496 O 244.774 2.01316 0.793773 0
M  V30 2497 C 245.369 2.24257 -2.53957 0
M  V30 2498 C 243.928 2.77852 -2.5392 0
M  V30 2499 C 243.075 1.52517 -2.3159 0
M  V30 2500 H 246.026 0.443717 -1.52371 0
M  V30 2501 H 246.047 3.0646 -2.25528 0
M  V30 2502 H 245.559 1.71382 -3.4821 0
M  V30 2503 H 243.66 3.34786 -1.63551 0
M  V30 2504 H 243.773 3.25299 -3.51735 0
M  V30 2505 H 242.137 1.79915 -1.80285 0
M  V30 2506 H 242.92 1.01574 -3.27929 0
M  V30 2507 N 245.365 1.30045 0.890287 0
M  V30 2508 C 246.59 1.21598 1.68014 0
M  V30 2509 C 247.015 -0.218678 1.86825 0
M  V30 2510 O 246.373 -1.15756 1.39536 0
M  V30 2511 C 246.421 1.94434 3.03691 0
M  V30 2512 O 245.525 1.2678 3.92429 0
M  V30 2513 H 244.866 0.420856 0.513592 0
M  V30 2514 H 247.396 1.71775 1.11151 0
M  V30 2515 H 247.406 2.03251 3.5377 0
M  V30 2516 H 246.081 2.98777 2.89318 0
M  V30 2517 H 244.658 1.26282 3.50866 0
M  V30 2518 N 246.843 -1.10192 1.12674 0
M  V30 2519 C 248.091 -1.81845 0.881861 0
M  V30 2520 C 248.412 -1.85737 -0.593867 0
M  V30 2521 O 247.682 -1.33724 -1.4316 0
M  V30 2522 H 246.262 -0.673432 0.323261 0
M  V30 2523 H 248.924 -1.33316 1.42172 0
M  V30 2524 H 248.02 -2.85288 1.2656 0
M  V30 2525 N 248.321 -0.919034 -1.28029 0
M  V30 2526 C 249.284 -0.416182 -2.2539 0
M  V30 2527 C 250.284 0.460438 -1.54067 0
M  V30 2528 O 251.474 0.262744 -1.72207 0
M  V30 2529 C 248.606 0.402707 -3.38513 0
M  V30 2530 H 249.799 -1.27629 -2.71387 0
M  V30 2531 H 247.352 -0.698919 -1.39803 0
M  V30 2532 H 248.087 1.282 -2.97885 0
M  V30 2533 H 247.872 -0.225698 -3.9145 0
M  V30 2534 H 249.362 0.745191 -4.10897 0
M  V30 2535 N 249.799 1.42003 -0.683588 0
M  V30 2536 C 251.076 1.95112 -0.138075 0
M  V30 2537 C 251.456 1.62359 1.34918 0
M  V30 2538 O 250.804 0.924311 2.08971 0
M  V30 2539 C 251.014 3.46505 -0.416581 0
M  V30 2540 C 252.362 4.23254 -0.337834 0
M  V30 2541 O 253.386 3.54468 -0.35082 0
M  V30 2542 O 252.245 5.45743 -0.287596 0
M  V30 2543 H 249.339 0.826961 -0.00797996 0
M  V30 2544 H 251.885 1.51784 -0.758924 0
M  V30 2545 H 250.657 3.63582 -1.4465 0
M  V30 2546 H 250.28 3.969 0.235839 0
M  V30 2547 N 251.277 0.427512 1.51691 0
M  V30 2548 C 252.524 -0.142229 2.02 0
M  V30 2549 C 252.852 -1.43566 1.31221 0
M  V30 2550 O 252.107 -1.91298 0.412744 0
M  V30 2551 C 252.406 -0.418249 3.54944 0
M  V30 2552 C 252.072 0.788187 4.43958 0
M  V30 2553 C 250.734 1.11906 4.68007 0
M  V30 2554 C 253.086 1.59347 4.96244 0
M  V30 2555 C 250.414 2.25608 5.41588 0
M  V30 2556 C 252.766 2.7214 5.71072 0
M  V30 2557 C 251.43 3.05692 5.93387 0
M  V30 2558 H 250.7 -0.0520451 0.73917 0
M  V30 2559 H 253.347 0.572697 1.82736 0
M  V30 2560 H 251.652 -1.21496 3.72486 0
M  V30 2561 H 253.349 -0.872339 3.91397 0
M  V30 2562 H 249.939 0.520344 4.2543 0
M  V30 2563 H 254.123 1.35106 4.77556 0
M  V30 2564 H 249.379 2.51929 5.57083 0
M  V30 2565 H 253.553 3.34914 6.10578 0
M  V30 2566 H 251.18 3.9391 6.50184 0
M  V30 2567 N 252.755 -1.56801 0.158532 0
M  V30 2568 C 253.687 -2.14488 -0.807923 0
M  V30 2569 C 254.7 -1.09721 -1.20271 0
M  V30 2570 O 255.889 -1.36956 -1.14478 0
M  V30 2571 C 252.989 -2.66217 -2.09718 0
M  V30 2572 C 252.162 -3.95507 -1.86796 0
M  V30 2573 C 251.221 -4.3243 -2.99818 0
M  V30 2574 O 250.247 -5.00543 -2.71008 0
M  V30 2575 N 251.449 -3.92947 -4.27285 0
M  V30 2576 H 254.214 -2.98042 -0.314816 0
M  V30 2577 H 251.775 -1.61881 -0.0246692 0
M  V30 2578 H 253.767 -2.87924 -2.84398 0
M  V30 2579 H 252.337 -1.87324 -2.50257 0
M  V30 2580 H 251.557 -3.82309 -0.96089 0
M  V30 2581 H 252.845 -4.79972 -1.68833 0
M  V30 2582 H 252.243 -3.38087 -4.53557 0
M  V30 2583 H 250.8 -4.19681 -4.9871 0
M  V30 2584 N 254.233 0.115231 -1.57178 0
M  V30 2585 C 255.196 1.12526 -1.99676 0
M  V30 2586 C 256.196 1.34095 -0.88742 0
M  V30 2587 O 257.386 1.30548 -1.15337 0
M  V30 2588 C 254.518 2.4789 -2.34015 0
M  V30 2589 H 255.711 0.759912 -2.90113 0
M  V30 2590 H 253.264 0.359648 -1.52106 0
M  V30 2591 H 253.999 2.89339 -1.4647 0
M  V30 2592 H 253.784 2.33588 -3.14927 0
M  V30 2593 H 255.274 3.20575 -2.67622 0
M  V30 2594 N 255.711 1.52812 0.385517 0
M  V30 2595 C 256.96 1.67249 1.12741 0
M  V30 2596 C 257.273 0.4205 1.91027 0
M  V30 2597 O 258.479 0.445064 2.67827 0
M  V30 2598 C 256.935 2.95583 2.05326 0
M  V30 2599 C 256.543 4.27974 1.32447 0
M  V30 2600 C 258.287 3.19386 2.7963 0
M  V30 2601 C 256.194 5.47412 2.23818 0
M  V30 2602 H 255.124 0.6231 0.424573 0
M  V30 2603 H 257.775 1.79309 0.389924 0
M  V30 2604 H 256.157 2.77277 2.82725 0
M  V30 2605 H 257.331 4.56844 0.602495 0
M  V30 2606 H 255.646 4.10459 0.700885 0
M  V30 2607 H 258.243 4.05801 3.48181 0
M  V30 2608 H 258.586 2.34604 3.43899 0
M  V30 2609 H 259.119 3.38274 2.09322 0
M  V30 2610 H 255.858 6.34612 1.64157 0
M  V30 2611 H 255.378 5.22849 2.93921 0
M  V30 2612 H 257.057 5.81423 2.83824 0
M  V30 2613 N 257.189 -0.644168 1.43834 0
M  V30 2614 C 258.435 -1.40603 1.46146 0
M  V30 2615 C 258.768 -1.93997 0.0887717 0
M  V30 2616 O 258.043 -1.72854 -0.891724 0
M  V30 2617 C 258.326 -2.58086 2.51124 0
M  V30 2618 C 258.179 -2.10126 3.97702 0
M  V30 2619 C 259.498 -3.60291 2.52742 0
M  V30 2620 H 256.617 -0.509905 0.532134 0
M  V30 2621 H 259.259 -0.729502 1.75437 0
M  V30 2622 H 257.409 -3.15801 2.26278 0
M  V30 2623 H 259.081 -1.57342 4.33637 0
M  V30 2624 H 257.324 -1.41419 4.10101 0
M  V30 2625 H 257.995 -2.94649 4.66783 0
M  V30 2626 H 260.471 -3.12352 2.7491 0
M  V30 2627 H 259.347 -4.40032 3.28121 0
M  V30 2628 H 259.608 -4.1349 1.56455 0
M  V30 2629 N 258.668 -1.30515 -0.883378 0
M  V30 2630 C 259.893 -1.22487 -1.67367 0
M  V30 2631 C 260.318 0.208767 -1.86938 0
M  V30 2632 O 259.676 1.15015 -1.40148 0
M  V30 2633 C 259.724 -1.96041 -3.02655 0
M  V30 2634 O 258.828 -1.28859 -3.91751 0
M  V30 2635 H 258.169 -0.423573 -0.511353 0
M  V30 2636 H 260.699 -1.72362 -1.10239 0
M  V30 2637 H 260.709 -2.05124 -3.52687 0
M  V30 2638 H 259.384 -3.00307 -2.8773 0
M  V30 2639 H 257.961 -1.28141 -3.50192 0
M  V30 2640 N 260.146 1.09593 -1.13257 0
M  V30 2641 C 261.109 2.14359 -0.811358 0
M  V30 2642 C 262.109 1.59808 0.178377 0
M  V30 2643 O 263.299 1.74132 -0.0484911 0
M  V30 2644 C 260.431 3.40269 -0.207276 0
M  V30 2645 H 261.624 2.44284 -1.73969 0
M  V30 2646 H 259.177 1.25102 -0.936973 0
M  V30 2647 H 259.912 3.15969 0.73036 0
M  V30 2648 H 259.697 3.81154 -0.919992 0
M  V30 2649 H 261.187 4.176 0.000667944 0
M  V30 2650 N 261.624 0.925811 1.2754 0
M  V30 2651 C 262.554 0.440748 2.29303 0
M  V30 2652 C 263.535 -0.497971 1.62648 0
M  V30 2653 O 264.72 -0.403126 1.8997 0
M  V30 2654 C 261.85 -0.309048 3.45922 0
M  V30 2655 C 260.804 0.54166 4.24559 0
M  V30 2656 C 260.13 -0.337191 5.33636 0
M  V30 2657 C 261.43 1.80516 4.90114 0
M  V30 2658 H 263.124 1.29121 2.70126 0
M  V30 2659 H 260.67 0.622323 1.29858 0
M  V30 2660 H 262.623 -0.659315 4.1621 0
M  V30 2661 H 261.347 -1.19352 3.04011 0
M  V30 2662 H 260.006 0.874609 3.56014 0
M  V30 2663 H 259.654 -1.22056 4.87966 0
M  V30 2664 H 259.354 0.228497 5.87156 0
M  V30 2665 H 260.878 -0.683072 6.06767 0
M  V30 2666 H 262.292 1.52307 5.52698 0
M  V30 2667 H 260.689 2.3142 5.53683 0
M  V30 2668 H 261.759 2.52581 4.13921 0
M  V30 2669 N 263.102 -1.41638 0.69111 0
M  V30 2670 C 264.032 -2.3347 0.037248 0
M  V30 2671 C 265.013 -1.51575 -0.771947 0
M  V30 2672 O 266.198 -1.80126 -0.72582 0
M  V30 2673 C 263.328 -3.35354 -0.903064 0
M  V30 2674 C 262.282 -4.27526 -0.201288 0
M  V30 2675 C 261.608 -5.19747 -1.25565 0
M  V30 2676 C 262.908 -5.13959 0.929689 0
M  V30 2677 H 264.602 -2.88397 0.804227 0
M  V30 2678 H 262.148 -1.38669 0.388189 0
M  V30 2679 H 264.101 -3.98519 -1.36969 0
M  V30 2680 H 262.825 -2.78767 -1.70166 0
M  V30 2681 H 261.484 -3.65779 0.245265 0
M  V30 2682 H 261.132 -4.59479 -2.04666 0
M  V30 2683 H 260.832 -5.8225 -0.791128 0
M  V30 2684 H 262.356 -5.85789 -1.72288 0
M  V30 2685 H 263.77 -5.70718 0.543546 0
M  V30 2686 H 262.167 -5.85379 1.32103 0
M  V30 2687 H 263.237 -4.51389 1.77133 0
M  V30 2688 N 264.58 -0.43555 -1.51462 0
M  V30 2689 C 265.49 0.383001 -2.31453 0
M  V30 2690 C 266.506 1.02931 -1.4029 0
M  V30 2691 O 267.682 1.02507 -1.73362 0
M  V30 2692 C 264.747 1.47043 -3.13973 0
M  V30 2693 C 263.808 0.844433 -4.20913 0
M  V30 2694 C 263.041 1.88004 -4.9949 0
M  V30 2695 O 263.264 3.10199 -4.78678 0
M  V30 2696 O 262.198 1.47157 -5.83634 0
M  V30 2697 H 266.024 -0.269964 -3.02498 0
M  V30 2698 H 263.609 -0.19813 -1.4808 0
M  V30 2699 H 265.491 2.10113 -3.65281 0
M  V30 2700 H 264.166 2.10751 -2.45695 0
M  V30 2701 H 263.073 0.175729 -3.73687 0
M  V30 2702 H 264.406 0.250869 -4.9156 0
M  V30 2703 N 266.058 1.56714 -0.166846 0
M  V30 2704 C 266.988 2.20754 0.760913 0
M  V30 2705 C 267.969 1.16178 1.24244 0
M  V30 2706 O 269.154 1.44592 1.29641 0
M  V30 2707 C 266.284 2.84478 1.99223 0
M  V30 2708 C 265.238 3.95053 1.64672 0
M  V30 2709 C 264.564 4.45805 2.95232 0
M  V30 2710 C 265.864 5.14865 0.878155 0
M  V30 2711 H 267.558 2.98537 0.22713 0
M  V30 2712 H 265.104 1.43596 0.107805 0
M  V30 2713 H 267.057 3.27951 2.64624 0
M  V30 2714 H 265.781 2.04056 2.55007 0
M  V30 2715 H 264.44 3.52228 1.01641 0
M  V30 2716 H 264.088 3.62181 3.49047 0
M  V30 2717 H 263.788 5.204 2.7287 0
M  V30 2718 H 265.312 4.91962 3.6167 0
M  V30 2719 H 266.726 5.55059 1.43466 0
M  V30 2720 H 265.123 5.95348 0.753738 0
M  V30 2721 H 266.193 4.84735 -0.126377 0
M  V30 2722 N 267.536 -0.106894 1.57237 0
M  V30 2723 C 268.483 -1.13049 2.01217 0
M  V30 2724 C 269.453 -1.40471 0.886403 0
M  V30 2725 O 270.638 -1.52133 1.15153 0
M  V30 2726 C 267.778 -2.4487 2.43172 0
M  V30 2727 C 266.891 -2.24281 3.69218 0
M  V30 2728 C 266.026 -3.49417 4.00101 0
M  V30 2729 C 265.065 -3.24038 5.19294 0
M  V30 2730 N 264.202 -4.41409 5.45988 0
M  V30 2731 H 269.042 -0.748456 2.88448 0
M  V30 2732 H 266.579 -0.358054 1.42676 0
M  V30 2733 H 268.537 -3.21786 2.65537 0
M  V30 2734 H 267.167 -2.80944 1.58967 0
M  V30 2735 H 266.219 -1.38224 3.54398 0
M  V30 2736 H 267.531 -2.01512 4.56283 0
M  V30 2737 H 266.685 -4.34746 4.2318 0
M  V30 2738 H 265.424 -3.75229 3.11535 0
M  V30 2739 H 264.429 -2.37102 4.96047 0
M  V30 2740 H 265.654 -2.99584 6.09447 0
M  V30 2741 H 263.6 -4.67319 4.60379 0
M  V30 2742 H 263.517 -4.21788 6.274 0
M  V30 2743 H 264.785 -5.27836 5.73593 0
M  V30 2744 N 269.014 -1.53014 -0.377408 0
M  V30 2745 C 270.262 -1.6829 -1.11906 0
M  V30 2746 C 270.583 -0.431206 -1.90173 0
M  V30 2747 O 269.853 0.554595 -1.87886 0
M  V30 2748 H 268.433 -0.620371 -0.416112 0
M  V30 2749 H 271.095 -1.90167 -0.426893 0
M  V30 2750 H 270.191 -2.53862 -1.8155 0
M  V30 2751 N 270.492 0.636531 -1.44174 0
M  V30 2752 C 271.402 1.77754 -1.53103 0
M  V30 2753 C 272.418 1.68928 -0.417034 0
M  V30 2754 O 273.594 1.89801 -0.6736 0
M  V30 2755 C 270.659 3.14115 -1.46741 0
M  V30 2756 C 269.72 3.34612 -2.68948 0
M  V30 2757 C 268.953 4.64467 -2.6288 0
M  V30 2758 O 269.176 5.44919 -1.68581 0
M  V30 2759 O 268.11 4.87049 -3.53648 0
M  V30 2760 H 271.936 1.73174 -2.49489 0
M  V30 2761 H 269.521 0.79709 -1.2636 0
M  V30 2762 H 271.403 3.95412 -1.45696 0
M  V30 2763 H 270.078 3.19249 -0.534975 0
M  V30 2764 H 268.985 2.53014 -2.75562 0
M  V30 2765 H 270.318 3.34336 -3.61221 0
M  V30 2766 N 271.97 1.30982 0.876444 0
M  V30 2767 C 272.917 1.18085 1.98304 0
M  V30 2768 C 273.887 0.0682263 1.6596 0
M  V30 2769 O 275.072 0.239937 1.89285 0
M  V30 2770 C 272.212 0.887475 3.33493 0
M  V30 2771 C 271.325 2.08281 3.78475 0
M  V30 2772 C 270.46 1.72678 5.0235 0
M  V30 2773 C 269.499 2.88657 5.39762 0
M  V30 2774 N 268.636 2.53292 6.54819 0
M  V30 2775 H 273.476 2.1275 2.08666 0
M  V30 2776 H 271.013 1.05839 1.02159 0
M  V30 2777 H 272.971 0.697961 4.1132 0
M  V30 2778 H 271.601 -0.022315 3.22792 0
M  V30 2779 H 270.653 2.3833 2.96484 0
M  V30 2780 H 271.965 2.95108 4.02135 0
M  V30 2781 H 271.119 1.50151 5.87826 0
M  V30 2782 H 269.858 0.830327 4.8058 0
M  V30 2783 H 268.863 3.1184 4.52809 0
M  V30 2784 H 270.088 3.79002 5.63502 0
M  V30 2785 H 268.034 1.66163 6.34607 0
M  V30 2786 H 267.951 3.3365 6.7839 0
M  V30 2787 H 269.219 2.34143 7.43503 0
M  V30 2788 N 273.449 -1.08991 1.13837 0
M  V30 2789 C 274.412 -2.13925 0.822715 0
M  V30 2790 C 275.412 -1.599 -0.1699 0
M  V30 2791 O 276.602 -1.74104 0.0577251 0
M  V30 2792 C 273.734 -3.40155 0.225318 0
M  V30 2793 H 274.927 -2.43358 1.75262 0
M  V30 2794 H 272.48 -1.24603 0.943594 0
M  V30 2795 H 273.215 -3.16352 -0.713594 0
M  V30 2796 H 273 -3.80661 0.940193 0
M  V30 2797 H 274.49 -4.17594 0.0214784 0
M  V30 2798 N 274.927 -0.932562 -1.27047 0
M  V30 2799 C 276.155 -0.592031 -1.98249 0
M  V30 2800 C 276.57 0.831062 -1.69525 0
M  V30 2801 O 275.927 1.55299 -0.958561 0
M  V30 2802 C 275.978 -0.814279 -3.5221 0
M  V30 2803 O 275.699 -2.18139 -3.7993 0
M  V30 2804 C 277.2 -0.483121 -4.4066 0
M  V30 2805 H 274.42 -0.223896 -0.632544 0
M  V30 2806 H 276.964 -1.25091 -1.61779 0
M  V30 2807 H 275.119 -0.20213 -3.86872 0
M  V30 2808 H 275.533 -2.235 -4.74498 0
M  V30 2809 H 277.007 -0.689298 -5.47679 0
M  V30 2810 H 277.484 0.581546 -4.35333 0
M  V30 2811 H 278.09 -1.07362 -4.11526 0
M  V30 2812 N 276.405 1.4127 -0.698611 0
M  V30 2813 C 277.335 2.33447 -0.049629 0
M  V30 2814 C 278.316 1.51982 0.763898 0
M  V30 2815 O 279.501 1.80509 0.716257 0
M  V30 2816 C 276.631 3.35828 0.885267 0
M  V30 2817 C 275.585 4.27627 0.178613 0
M  V30 2818 C 274.911 5.20406 1.22807 0
M  V30 2819 C 276.211 5.13459 -0.956933 0
M  V30 2820 H 277.905 2.87966 -0.81951 0
M  V30 2821 H 275.451 1.38461 -0.395538 0
M  V30 2822 H 277.404 3.9924 1.34854 0
M  V30 2823 H 276.128 2.79666 1.68685 0
M  V30 2824 H 274.787 3.65643 -0.26466 0
M  V30 2825 H 274.435 4.60558 2.02226 0
M  V30 2826 H 274.135 5.82661 0.760239 0
M  V30 2827 H 275.659 5.86695 1.69179 0
M  V30 2828 H 277.073 5.70421 -0.573805 0
M  V30 2829 H 275.47 5.8467 -1.35205 0
M  V30 2830 H 276.54 4.50443 -1.79524 0
M  V30 2831 N 277.883 0.443576 1.51229 0
M  V30 2832 C 278.846 -0.353132 2.26463 0
M  V30 2833 C 279.846 -0.944338 1.3015 0
M  V30 2834 O 281.036 -0.817813 1.5381 0
M  V30 2835 C 278.168 -1.50023 3.06114 0
M  V30 2836 H 279.361 0.3063 2.98332 0
M  V30 2837 H 276.914 0.196902 1.55055 0
M  V30 2838 H 277.649 -2.19553 2.38677 0
M  V30 2839 H 277.434 -1.08241 3.76864 0
M  V30 2840 H 278.924 -2.06296 3.63087 0
M  V30 2841 N 279.361 -1.56624 0.175154 0
M  V30 2842 C 280.607 -1.98061 -0.462976 0
M  V30 2843 C 280.962 -1.05949 -1.60601 0
M  V30 2844 O 280.255 -0.0999027 -1.91339 0
M  V30 2845 C 280.449 -3.43419 -0.989864 0
M  V30 2846 C 280.278 -4.49587 0.100583 0
M  V30 2847 C 279.048 -5.02281 0.551539 0
M  V30 2848 C 281.246 -5.06322 0.902369 0
M  V30 2849 N 279.228 -5.92088 1.62189 0
M  V30 2850 C 280.599 -5.92607 1.82256 0
M  V30 2851 C 282.654 -4.88811 0.947019 0
M  V30 2852 C 281.357 -6.63254 2.78364 0
M  V30 2853 C 283.383 -5.60182 1.89606 0
M  V30 2854 C 282.745 -6.46197 2.80372 0
M  V30 2855 H 278.844 -0.769833 -0.137409 0
M  V30 2856 H 281.428 -1.9273 0.276256 0
M  V30 2857 H 279.599 -3.49288 -1.6986 0
M  V30 2858 H 281.331 -3.7186 -1.59694 0
M  V30 2859 H 278.086 -4.73367 0.148537 0
M  V30 2860 H 278.51 -6.41696 2.15767 0
M  V30 2861 H 283.152 -4.22004 0.259304 0
M  V30 2862 H 280.87 -7.29271 3.48122 0
M  V30 2863 H 284.456 -5.48617 1.93676 0
M  V30 2864 H 283.336 -7.00453 3.52612 0
M  V30 2865 N 280.839 0.0985539 -1.57292 0
M  V30 2866 C 281.769 1.12064 -2.04851 0
M  V30 2867 C 282.75 1.41981 -0.936767 0
M  V30 2868 O 283.935 1.52071 -1.20781 0
M  V30 2869 C 281.065 2.44144 -2.47004 0
M  V30 2870 C 280.019 2.28643 -3.6181 0
M  V30 2871 C 279.345 3.65869 -3.89929 0
M  V30 2872 C 280.645 1.72986 -4.92822 0
M  V30 2873 H 282.339 0.724979 -2.9049 0
M  V30 2874 H 279.885 0.34729 -1.39749 0
M  V30 2875 H 281.838 3.15914 -2.78884 0
M  V30 2876 H 280.562 2.85639 -1.5836 0
M  V30 2877 H 279.221 1.59318 -3.30172 0
M  V30 2878 H 278.869 4.04885 -2.98458 0
M  V30 2879 H 278.569 3.56344 -4.67218 0
M  V30 2880 H 280.093 4.39112 -4.2428 0
M  V30 2881 H 281.507 2.34593 -5.23105 0
M  V30 2882 H 279.904 1.74229 -5.74251 0
M  V30 2883 H 280.974 0.689007 -4.7998 0
M  V30 2884 N 282.317 1.53212 0.369288 0
M  V30 2885 C 283.264 1.79388 1.45219 0
M  V30 2886 C 284.234 0.638059 1.53356 0
M  V30 2887 O 285.419 0.879852 1.69302 0
M  V30 2888 C 282.559 1.98623 2.82211 0
M  V30 2889 C 281.672 3.26337 2.8307 0
M  V30 2890 C 280.807 3.35779 4.11614 0
M  V30 2891 C 279.846 4.5754 4.06601 0
M  V30 2892 N 278.983 4.64155 5.26787 0
M  V30 2893 H 283.823 2.71794 1.22198 0
M  V30 2894 H 281.36 1.34642 0.592444 0
M  V30 2895 H 283.318 2.07761 3.61789 0
M  V30 2896 H 281.948 1.09558 3.03639 0
M  V30 2897 H 281 3.26171 1.95747 0
M  V30 2898 H 282.312 4.15988 2.75237 0
M  V30 2899 H 281.466 3.44208 4.99606 0
M  V30 2900 H 280.205 2.44137 4.22195 0
M  V30 2901 H 279.21 4.49215 3.16996 0
M  V30 2902 H 280.435 5.50519 3.97625 0
M  V30 2903 H 278.381 3.75413 5.3796 0
M  V30 2904 H 278.298 5.47706 5.21109 0
M  V30 2905 H 279.566 4.76863 6.16621 0
M  V30 2906 N 283.795 -0.628877 1.44509 0
M  V30 2907 C 284.758 -1.72263 1.51188 0
M  V30 2908 C 285.758 -1.55907 0.39367 0
M  V30 2909 O 286.948 -1.61361 0.656377 0
M  V30 2910 C 284.08 -3.11365 1.38798 0
M  V30 2911 H 285.273 -1.67714 2.4862 0
M  V30 2912 H 282.826 -0.842737 1.31634 0
M  V30 2913 H 283.561 -3.21507 0.424693 0
M  V30 2914 H 283.346 -3.24644 2.19884 0
M  V30 2915 H 284.836 -3.91075 1.46458 0
M  V30 2916 N 285.273 -1.31445 -0.869486 0
M  V30 2917 C 286.206 -1.13465 -1.97992 0
M  V30 2918 C 287.184 -0.0380291 -1.62556 0
M  V30 2919 O 288.368 -0.194544 -1.87493 0
M  V30 2920 C 285.495 -0.733822 -3.30655 0
M  V30 2921 C 284.541 -1.83356 -3.85075 0
M  V30 2922 S 285.374 -3.43909 -4.10472 0
M  V30 2923 C 286.53 -3.05763 -5.46132 0
M  V30 2924 H 286.763 -2.07471 -2.1294 0
M  V30 2925 H 284.296 -1.15936 -1.01972 0
M  V30 2926 H 286.254 -0.509306 -4.07328 0
M  V30 2927 H 284.915 0.187123 -3.13542 0
M  V30 2928 H 284.108 -1.50574 -4.80982 0
M  V30 2929 H 283.71 -2.01315 -3.15195 0
M  V30 2930 H 286.002 -2.54686 -6.27807 0
M  V30 2931 H 286.945 -4.00635 -5.83864 0
M  V30 2932 H 287.353 -2.43192 -5.09429 0
M  V30 2933 N 286.751 1.08385 -1.14413 0
M  V30 2934 C 287.698 2.15311 -0.831265 0
M  V30 2935 C 288.668 1.64751 0.211292 0
M  V30 2936 O 289.853 1.90627 0.0811674 0
M  V30 2937 C 286.993 3.43658 -0.315143 0
M  V30 2938 C 286.106 4.08064 -1.41802 0
M  V30 2939 C 285.241 5.24207 -0.859126 0
M  V30 2940 C 284.28 5.80554 -1.93967 0
M  V30 2941 N 283.417 6.88042 -1.39793 0
M  V30 2942 H 288.257 2.41415 -1.74708 0
M  V30 2943 H 285.794 1.18474 -0.871909 0
M  V30 2944 H 287.752 4.172 0.00230884 0
M  V30 2945 H 286.382 3.17839 0.56378 0
M  V30 2946 H 285.434 3.3228 -1.85187 0
M  V30 2947 H 286.746 4.45962 -2.23427 0
M  V30 2948 H 285.9 6.04689 -0.49359 0
M  V30 2949 H 284.639 4.87699 -0.011932 0
M  V30 2950 H 283.644 4.98725 -2.31415 0
M  V30 2951 H 284.869 6.19121 -2.79046 0
M  V30 2952 H 282.815 6.53493 -0.572919 0
M  V30 2953 H 282.732 7.24767 -2.15054 0
M  V30 2954 H 284 7.72255 -1.0603 0
M  V30 2955 N 288.23 0.939286 1.26551 0
M  V30 2956 C 289.458 0.602536 1.97932 0
M  V30 2957 C 289.873 -0.82206 1.69964 0
M  V30 2958 O 289.23 -1.54789 0.966784 0
M  V30 2959 C 289.281 0.832946 3.51773 0
M  V30 2960 O 289.002 2.20151 3.78768 0
M  V30 2961 C 290.503 0.506483 4.40397 0
M  V30 2962 H 287.723 0.227248 0.631347 0
M  V30 2963 H 290.267 1.25948 1.61113 0
M  V30 2964 H 288.422 0.222644 3.8676 0
M  V30 2965 H 288.836 2.26013 4.73306 0
M  V30 2966 H 290.31 0.718333 5.47306 0
M  V30 2967 H 290.787 -0.558451 4.35635 0
M  V30 2968 H 291.393 1.09543 4.10951 0
M  V30 2969 N 289.708 -1.40897 0.706093 0
M  V30 2970 C 290.656 -2.32572 0.0361893 0
M  V30 2971 C 291.65 -1.51532 -0.757266 0
M  V30 2972 O 292.856 -1.67396 -0.661703 0
M  V30 2973 H 289.231 -0.751966 -0.00709935 0
M  V30 2974 H 291.202 -2.86733 0.826249 0
M  V30 2975 C 289.951 -3.36418 -0.87854 0
M  V30 2976 H 289.274 -3.98836 -0.277401 0
M  V30 2977 H 290.714 -4.0308 -1.3154 0
M  V30 2978 C 289.173 -2.71141 -1.99961 0
M  V30 2979 O 289.703 -2.56735 -3.0895 0
M  V30 2980 N 287.909 -2.29671 -1.78043 0
M  V30 2981 H 287.456 -2.41588 -0.894042 0
M  V30 2982 H 287.414 -1.86332 -2.53235 0
M  V30 2983 N 291.186 -0.45159 -1.50991 0
M  V30 2984 C 292.433 0.110074 -2.02201 0
M  V30 2985 C 292.761 1.4146 -1.33489 0
M  V30 2986 O 292.016 1.90617 -0.443125 0
M  V30 2987 C 292.315 0.361728 -3.55565 0
M  V30 2988 C 291.981 -0.858717 -4.42648 0
M  V30 2989 C 290.643 -1.19338 -4.66167 0
M  V30 2990 C 292.995 -1.67221 -4.93646 0
M  V30 2991 C 290.323 -2.34195 -5.37931 0
M  V30 2992 C 292.675 -2.8119 -5.6667 0
M  V30 2993 C 291.339 -3.15094 -5.88449 0
M  V30 2994 H 290.609 0.040279 -0.739904 0
M  V30 2995 H 293.256 -0.601696 -1.81802 0
M  V30 2996 H 291.561 1.15554 -3.74372 0
M  V30 2997 H 293.258 0.80996 -3.92735 0
M  V30 2998 H 289.848 -0.58796 -4.24548 0
M  V30 2999 H 294.032 -1.42686 -4.75347 0
M  V30 3000 H 289.288 -2.6076 -5.53005 0
M  V30 3001 H 293.462 -3.44585 -6.05173 0
M  V30 3002 H 291.089 -4.04204 -6.43835 0
M  V30 3003 N 292.664 1.56529 -0.183458 0
M  V30 3004 C 293.892 2.01623 0.464285 0
M  V30 3005 C 294.307 1.06366 1.55986 0
M  V30 3006 O 293.664 0.0665398 1.82379 0
M  V30 3007 C 293.715 3.46475 1.03139 0
M  V30 3008 O 293.436 4.38095 -0.0204675 0
M  V30 3009 C 294.937 4.0703 1.75617 0
M  V30 3010 H 292.157 0.660596 0.117704 0
M  V30 3011 H 294.701 2.02451 -0.288751 0
M  V30 3012 H 292.856 3.46383 1.73486 0
M  V30 3013 H 293.27 5.22973 0.399952 0
M  V30 3014 H 294.744 5.10271 2.10542 0
M  V30 3015 H 295.221 3.49819 2.65563 0
M  V30 3016 H 295.827 4.1086 1.09882 0
M  V30 3017 N 294.142 -0.090211 1.57342 0
M  V30 3018 C 295.105 -1.09335 2.01441 0
M  V30 3019 C 296.105 -1.32666 0.908641 0
M  V30 3020 O 297.295 -1.28697 1.174 0
M  V30 3021 C 294.427 -2.44136 2.3793 0
M  V30 3022 H 295.62 -0.713662 2.91285 0
M  V30 3023 H 293.173 -0.335404 1.52659 0
M  V30 3024 H 293.908 -2.86972 1.51055 0
M  V30 3025 H 293.693 -2.28548 3.18603 0
M  V30 3026 H 295.183 -3.16277 2.72688 0
M  V30 3027 N 295.62 -1.53406 -0.361157 0
M  V30 3028 C 296.85 -1.73465 -1.1222 0
M  V30 3029 C 297.258 -0.465486 -1.83384 0
M  V30 3030 O 296.601 0.571611 -1.7458 0
M  V30 3031 C 296.663 -2.84834 -2.19339 0
M  V30 3032 C 296.327 -4.25038 -1.67903 0
M  V30 3033 C 297.324 -5.07231 -1.14074 0
M  V30 3034 C 295.009 -4.71464 -1.73282 0
M  V30 3035 C 297.003 -6.33942 -0.663068 0
M  V30 3036 C 294.69 -5.98153 -1.25127 0
M  V30 3037 C 295.688 -6.79223 -0.717296 0
M  V30 3038 O 295.376 -8.03533 -0.242865 0
M  V30 3039 H 295.108 -0.583526 -0.341283 0
M  V30 3040 H 297.662 -2.00964 -0.424591 0
M  V30 3041 H 295.892 -2.5282 -2.92607 0
M  V30 3042 H 297.581 -2.9303 -2.80871 0
M  V30 3043 H 298.347 -4.72534 -1.09254 0
M  V30 3044 H 294.226 -4.08432 -2.13786 0
M  V30 3045 H 297.77 -6.97167 -0.245612 0
M  V30 3046 H 293.667 -6.32347 -1.29642 0
M  V30 3047 H 294.435 -8.177 -0.361786 0
M  V30 3048 N 297.098 0.621204 -1.44841 0
M  V30 3049 C 298.045 1.73267 -1.5247 0
M  V30 3050 C 299.015 1.6189 -0.371611 0
M  V30 3051 O 300.2 1.81668 -0.58321 0
M  V30 3052 C 297.34 3.11545 -1.48438 0
M  V30 3053 C 296.453 3.33827 -2.74196 0
M  V30 3054 C 295.588 4.62133 -2.61929 0
M  V30 3055 C 294.627 4.77627 -3.82804 0
M  V30 3056 N 293.764 5.97219 -3.69153 0
M  V30 3057 H 298.604 1.66082 -2.47428 0
M  V30 3058 H 296.141 0.810026 -1.22788 0
M  V30 3059 H 298.099 3.91528 -1.4409 0
M  V30 3060 H 296.729 3.1772 -0.570402 0
M  V30 3061 H 295.781 2.47715 -2.88689 0
M  V30 3062 H 297.093 3.41153 -3.6389 0
M  V30 3063 H 296.247 5.50291 -2.5547 0
M  V30 3064 H 294.986 4.57182 -1.69811 0
M  V30 3065 H 293.991 3.87896 -3.89637 0
M  V30 3066 H 295.216 4.84385 -4.75971 0
M  V30 3067 H 293.162 5.93339 -2.79794 0
M  V30 3068 H 293.079 6.05644 -4.52472 0
M  V30 3069 H 294.347 6.87912 -3.66603 0
M  V30 3070 N 298.576 1.31904 0.862503 0
M  V30 3071 C 299.824 1.21776 1.61292 0
M  V30 3072 C 300.145 -0.222413 1.93727 0
M  V30 3073 O 299.415 -1.1451 1.58947 0
M  V30 3074 H 297.995 0.447717 0.597962 0
M  V30 3075 H 300.657 1.65326 1.03215 0
M  V30 3076 H 299.753 1.7948 2.5533 0
M  V30 3077 N 300.054 -1.07777 1.14986 0
M  V30 3078 C 301.002 -2.16964 0.838406 0
M  V30 3079 C 301.996 -1.68372 -0.186386 0
M  V30 3080 O 303.202 -1.79951 -0.0418465 0
M  V30 3081 H 299.577 -0.708006 0.253439 0
M  V30 3082 H 301.548 -2.40454 1.76704 0
M  V30 3083 C 300.297 -3.4604 0.339335 0
M  V30 3084 H 299.62 -3.83813 1.11927 0
M  V30 3085 H 301.06 -4.23698 0.160021 0
M  V30 3086 C 299.519 -3.23569 -0.938325 0
M  V30 3087 O 300.049 -3.47752 -2.01077 0
M  V30 3088 N 298.255 -2.77079 -0.876117 0
M  V30 3089 H 297.802 -2.576 -0.00322037 0
M  V30 3090 H 297.76 -2.62422 -1.73153 0
M  V30 3091 N 301.532 -0.945985 -1.26051 0
M  V30 3092 C 302.757 -0.612525 -1.98149 0
M  V30 3093 C 303.182 0.806623 -1.69927 0
M  V30 3094 O 302.54 1.54411 -0.950108 0
M  V30 3095 C 302.588 -0.866981 -3.50023 0
M  V30 3096 O 301.692 0.0585333 -4.12358 0
M  V30 3097 H 301.033 -0.23379 -0.621481 0
M  V30 3098 H 303.563 -1.27023 -1.60395 0
M  V30 3099 H 303.573 -0.789792 -4.00283 0
M  V30 3100 H 302.248 -1.90135 -3.69894 0
M  V30 3101 H 300.825 -0.0701241 -3.72834 0
M  V30 3102 N 303.011 1.40521 -0.713556 0
M  V30 3103 C 304.239 2.05237 -0.261775 0
M  V30 3104 C 304.654 1.53755 1.09567 0
M  V30 3105 O 304.011 0.693268 1.6882 0
M  V30 3106 C 304.062 3.60763 -0.230706 0
M  V30 3107 O 303.783 4.10345 -1.53455 0
M  V30 3108 C 305.284 4.42651 0.239874 0
M  V30 3109 H 302.504 0.660533 -0.118057 0
M  V30 3110 H 305.048 1.79967 -0.971192 0
M  V30 3111 H 303.203 3.8501 0.429661 0
M  V30 3112 H 303.617 5.04526 -1.43366 0
M  V30 3113 H 305.091 5.51599 0.210468 0
M  V30 3114 H 305.568 4.20082 1.28171 0
M  V30 3115 H 306.174 4.23507 -0.390142 0
M  V30 3116 N 304.489 0.459591 1.5075 0
M  V30 3117 C 305.735 -0.0994966 2.02556 0
M  V30 3118 C 306.068 -1.40399 1.3417 0
M  V30 3119 O 305.343 -1.88892 0.463683 0
M  V30 3120 C 305.626 -0.295242 3.58888 0
M  V30 3121 C 305.479 1.02947 4.37861 0
M  V30 3122 C 306.798 -1.05502 4.27267 0
M  V30 3123 H 303.917 -0.034686 0.736183 0
M  V30 3124 H 306.559 0.602938 1.8018 0
M  V30 3125 H 304.709 -0.893563 3.78084 0
M  V30 3126 H 306.381 1.66348 4.30263 0
M  V30 3127 H 304.624 1.62885 4.02058 0
M  V30 3128 H 305.295 0.846281 5.45474 0
M  V30 3129 H 307.771 -0.547993 4.12476 0
M  V30 3130 H 306.647 -1.16077 5.36486 0
M  V30 3131 H 306.908 -2.08875 3.89645 0
M  V30 3132 N 305.967 -1.56429 0.191757 0
M  V30 3133 C 306.9 -2.14829 -0.76967 0
M  V30 3134 C 307.878 -1.08405 -1.2119 0
M  V30 3135 O 309.062 -1.36498 -1.30002 0
M  V30 3136 C 306.189 -2.70446 -2.03903 0
M  V30 3137 C 305.235 -3.89428 -1.7392 0
M  V30 3138 S 306.068 -5.28048 -0.890265 0
M  V30 3139 C 307.224 -5.87085 -2.16984 0
M  V30 3140 H 307.457 -2.96042 -0.273204 0
M  V30 3141 H 304.99 -1.54383 -0.0231975 0
M  V30 3142 H 306.948 -3.03134 -2.76803 0
M  V30 3143 H 305.609 -1.89281 -2.50662 0
M  V30 3144 H 304.802 -4.26742 -2.68155 0
M  V30 3145 H 304.404 -3.57732 -1.09103 0
M  V30 3146 H 306.696 -6.01244 -3.12269 0
M  V30 3147 H 307.639 -6.83747 -1.84108 0
M  V30 3148 H 308.047 -5.15663 -2.29678 0
M  V30 3149 N 307.445 0.0818655 -1.57387 0
M  V30 3150 C 308.392 1.09834 -2.0299 0
M  V30 3151 C 309.362 1.39043 -0.908639 0
M  V30 3152 O 310.547 1.50282 -1.17559 0
M  V30 3153 C 307.687 2.40971 -2.47037 0
M  V30 3154 C 306.8 2.18379 -3.7274 0
M  V30 3155 C 305.935 3.43008 -4.0561 0
M  V30 3156 C 304.974 3.15736 -5.24383 0
M  V30 3157 N 304.111 4.32667 -5.52941 0
M  V30 3158 H 308.951 0.702472 -2.89602 0
M  V30 3159 H 306.488 0.33531 -1.43227 0
M  V30 3160 H 308.446 3.1752 -2.70623 0
M  V30 3161 H 307.076 2.78379 -1.63417 0
M  V30 3162 H 306.128 1.32569 -3.56552 0
M  V30 3163 H 307.44 1.94227 -4.59431 0
M  V30 3164 H 306.594 4.27958 -4.30043 0
M  V30 3165 H 305.333 3.70225 -3.17466 0
M  V30 3166 H 304.338 2.2918 -4.99757 0
M  V30 3167 H 305.563 2.8985 -6.14136 0
M  V30 3168 H 303.509 4.59935 -4.67756 0
M  V30 3169 H 303.426 4.11753 -6.34031 0
M  V30 3170 H 304.694 5.18644 -5.81918 0
M  V30 3171 N 308.923 1.53595 0.353017 0
M  V30 3172 C 309.886 1.80232 1.41594 0
M  V30 3173 C 310.886 0.673081 1.46035 0
M  V30 3174 O 312.076 0.941335 1.46576 0
M  V30 3175 C 309.208 1.93578 2.80607 0
M  V30 3176 H 310.401 2.75174 1.19244 0
M  V30 3177 H 307.954 1.44864 0.586872 0
M  V30 3178 H 308.689 1.00746 3.08254 0
M  V30 3179 H 308.474 2.75724 2.78781 0
M  V30 3180 H 309.964 2.15735 3.57558 0
M  V30 3181 N 310.401 -0.613514 1.45168 0
M  V30 3182 C 311.647 -1.37471 1.49096 0
M  V30 3183 C 311.98 -1.93765 0.129901 0
M  V30 3184 O 311.255 -1.74707 -0.854858 0
M  V30 3185 C 311.538 -2.52701 2.56542 0
M  V30 3186 C 311.391 -2.01643 4.0207 0
M  V30 3187 C 312.71 -3.54849 2.60327 0
M  V30 3188 H 309.829 -0.498502 0.54283 0
M  V30 3189 H 312.471 -0.692125 1.76945 0
M  V30 3190 H 310.621 -3.10931 2.32926 0
M  V30 3191 H 312.293 -1.48108 4.36877 0
M  V30 3192 H 310.536 -1.32688 4.13009 0
M  V30 3193 H 311.207 -2.84681 4.72928 0
M  V30 3194 H 313.683 -3.0645 2.81474 0
M  V30 3195 H 312.559 -4.32973 3.37381 0
M  V30 3196 H 312.82 -4.10079 1.6519 0
M  V30 3197 N 311.879 -1.3236 -0.855495 0
M  V30 3198 C 312.827 -1.2118 -1.9854 0
M  V30 3199 C 313.821 -0.116788 -1.68997 0
M  V30 3200 O 315.027 -0.279657 -1.77814 0
M  V30 3201 H 311.402 -0.375608 -0.651477 0
M  V30 3202 H 313.373 -2.16743 -2.05098 0
M  V30 3203 C 312.122 -0.950849 -3.34446 0
M  V30 3204 H 311.445 -1.78563 -3.57708 0
M  V30 3205 H 312.885 -0.912863 -4.14057 0
M  V30 3206 C 311.344 0.346404 -3.35114 0
M  V30 3207 O 311.874 1.35855 -3.7803 0
M  V30 3208 N 310.08 0.36808 -2.88259 0
M  V30 3209 H 309.627 -0.456102 -2.5353 0
M  V30 3210 H 309.585 1.23591 -2.89089 0
M  V30 3211 N 313.357 1.07166 -1.15556 0
M  V30 3212 C 314.32 2.12589 -0.856644 0
M  V30 3213 C 315.32 1.6015 0.14444 0
M  V30 3214 O 316.51 1.7399 -0.0854163 0
M  V30 3215 C 313.642 3.39753 -0.279405 0
M  V30 3216 H 314.835 2.40539 -1.79112 0
M  V30 3217 H 312.388 1.23086 -0.963298 0
M  V30 3218 H 313.123 3.17447 0.663174 0
M  V30 3219 H 312.908 3.79117 -1.00063 0
M  V30 3220 H 314.398 4.17507 -0.0879113 0
M  V30 3221 N 314.835 0.952656 1.25548 0
M  V30 3222 C 316.083 0.605176 1.92826 0
M  V30 3223 C 316.404 -0.860261 1.74999 0
M  V30 3224 O 315.674 -1.6125 1.11244 0
M  V30 3225 H 314.254 0.220832 0.713612 0
M  V30 3226 H 316.916 1.21047 1.52754 0
M  V30 3227 H 316.012 0.832798 3.00784 0
M  V30 3228 N 316.313 -1.40141 0.720998 0
M  V30 3229 C 317.245 -2.29177 0.0324669 0
M  V30 3230 C 318.258 -1.46105 -0.718126 0
M  V30 3231 O 319.447 -1.69335 -0.564608 0
M  V30 3232 C 316.547 -3.24473 -0.978292 0
M  V30 3233 C 315.72 -4.36423 -0.292115 0
M  V30 3234 C 314.779 -5.12122 -1.20901 0
M  V30 3235 O 313.805 -5.64981 -0.691766 0
M  V30 3236 N 315.007 -5.21992 -2.53978 0
M  V30 3237 H 317.772 -2.88909 0.796984 0
M  V30 3238 H 315.333 -1.51569 0.569068 0
M  V30 3239 H 317.325 -3.71987 -1.59398 0
M  V30 3240 H 315.895 -2.65871 -1.64413 0
M  V30 3241 H 315.115 -3.90967 0.503847 0
M  V30 3242 H 316.403 -5.08467 0.183971 0
M  V30 3243 H 315.801 -4.8054 -2.98493 0
M  V30 3244 H 314.358 -5.72995 -3.10677 0
M  V30 3245 N 317.792 -0.46758 -1.50504 0
M  V30 3246 C 319.038 0.0887532 -2.02606 0
M  V30 3247 C 319.371 1.39686 -1.34913 0
M  V30 3248 O 318.646 1.88644 -0.473694 0
M  V30 3249 C 318.929 0.276206 -3.59039 0
M  V30 3250 C 318.782 -1.05267 -4.37309 0
M  V30 3251 C 320.101 1.03235 -4.27821 0
M  V30 3252 H 317.22 0.0307814 -0.736357 0
M  V30 3253 H 319.862 -0.612485 -1.79857 0
M  V30 3254 H 318.012 0.8735 -3.78553 0
M  V30 3255 H 319.684 -1.68628 -4.29374 0
M  V30 3256 H 317.927 -1.65015 -4.01189 0
M  V30 3257 H 318.598 -0.875197 -5.45018 0
M  V30 3258 H 321.074 0.526111 -4.12761 0
M  V30 3259 H 319.95 1.1323 -5.37094 0
M  V30 3260 H 320.211 2.06806 -3.90748 0
M  V30 3261 N 319.27 1.56325 -0.20005 0
M  V30 3262 C 320.547 1.89484 0.48529 0
M  V30 3263 C 320.927 1.1143 1.79294 0
M  V30 3264 O 320.275 0.216919 2.27468 0
M  V30 3265 C 320.485 3.41923 0.699243 0
M  V30 3266 C 321.833 4.12256 1.01638 0
M  V30 3267 O 322.857 3.47402 0.786792 0
M  V30 3268 O 321.716 5.26887 1.45095 0
M  V30 3269 H 318.81 0.787144 0.253639 0
M  V30 3270 H 321.356 1.67985 -0.240633 0
M  V30 3271 H 320.128 3.90658 -0.224008 0
M  V30 3272 H 319.751 3.69131 1.47744 0
M  V30 3273 N 320.748 -0.0735177 1.57428 0
M  V30 3274 C 321.973 -0.789787 1.91774 0
M  V30 3275 C 322.398 -1.70413 0.796306 0
M  V30 3276 O 321.756 -1.79555 -0.250961 0
M  V30 3277 C 321.804 -1.5609 3.25067 0
M  V30 3278 O 320.908 -2.67144 3.14178 0
M  V30 3279 H 320.249 -0.215582 0.628029 0
M  V30 3280 H 322.779 -0.0422781 2.04556 0
M  V30 3281 H 322.789 -1.94052 3.58898 0
M  V30 3282 H 321.464 -0.890015 4.06265 0
M  V30 3283 H 320.041 -2.32052 2.91901 0
M  V30 3284 N 322.226 -1.5378 -0.344866 0
M  V30 3285 C 323.474 -1.70625 -1.08311 0
M  V30 3286 C 323.795 -0.471447 -1.89215 0
M  V30 3287 O 323.065 0.514616 -1.8902 0
M  V30 3288 H 321.645 -0.629058 -0.402859 0
M  V30 3289 H 324.307 -1.9103 -0.386459 0
M  V30 3290 H 323.403 -2.57656 -1.76124 0
M  V30 3291 N 323.704 0.605807 -1.45491 0
M  V30 3292 C 324.95 1.36679 -1.49823 0
M  V30 3293 C 325.283 1.93693 -0.140175 0
M  V30 3294 O 324.558 1.75158 0.845581 0
M  V30 3295 C 324.841 2.51337 -2.57879 0
M  V30 3296 C 324.694 1.99508 -4.03134 0
M  V30 3297 C 326.013 3.53463 -2.62205 0
M  V30 3298 H 323.132 0.495617 -0.545466 0
M  V30 3299 H 325.774 0.682732 -1.7731 0
M  V30 3300 H 323.924 3.09691 -2.34571 0
M  V30 3301 H 325.596 1.45789 -4.37656 0
M  V30 3302 H 323.839 1.30496 -4.13707 0
M  V30 3303 H 324.51 2.82169 -4.74431 0
M  V30 3304 H 326.986 3.04953 -2.83095 0
M  V30 3305 H 325.862 4.31178 -3.39672 0
M  V30 3306 H 326.123 4.09197 -1.67363 0
M  V30 3307 N 325.182 1.32811 0.848464 0
M  V30 3308 C 326.431 1.23075 1.59798 0
M  V30 3309 C 326.744 -0.204419 1.94529 0
M  V30 3310 O 327.95 -0.423701 2.68173 0
M  V30 3311 C 326.406 2.15594 2.88179 0
M  V30 3312 C 326.014 3.64228 2.60849 0
M  V30 3313 C 327.758 2.14709 3.66197 0
M  V30 3314 C 325.665 4.48689 3.85269 0
M  V30 3315 H 324.595 0.457091 0.599653 0
M  V30 3316 H 327.246 1.57813 0.936342 0
M  V30 3317 H 325.628 1.73778 3.55833 0
M  V30 3318 H 326.802 4.14424 2.01467 0
M  V30 3319 H 325.117 3.67306 1.96151 0
M  V30 3320 H 327.714 2.75046 4.58534 0
M  V30 3321 H 328.057 1.13966 4.00397 0
M  V30 3322 H 328.59 2.54837 3.05455 0
M  V30 3323 H 325.329 5.5027 3.56207 0
M  V30 3324 H 324.849 4.03241 4.44024 0
M  V30 3325 H 326.528 4.62006 4.52946 0
M  V30 3326 N 326.66 -1.06551 1.16123 0
M  V30 3327 C 327.89 -1.8274 0.963838 0
M  V30 3328 C 328.298 -1.82712 -0.491228 0
M  V30 3329 O 327.641 -1.24294 -1.35265 0
M  V30 3330 C 327.703 -3.3065 1.41106 0
M  V30 3331 C 327.367 -3.54384 2.88549 0
M  V30 3332 C 328.364 -3.4765 3.86569 0
M  V30 3333 C 326.049 -3.81789 3.26408 0
M  V30 3334 C 328.043 -3.67982 5.2045 0
M  V30 3335 C 325.73 -4.01772 4.60459 0
M  V30 3336 C 326.728 -3.94866 5.57288 0
M  V30 3337 O 326.416 -4.14306 6.88916 0
M  V30 3338 H 326.148 -0.583136 0.341948 0
M  V30 3339 H 328.702 -1.35351 1.54497 0
M  V30 3340 H 326.932 -3.78887 0.773394 0
M  V30 3341 H 328.621 -3.88324 1.1815 0
M  V30 3342 H 329.387 -3.2647 3.58667 0
M  V30 3343 H 325.266 -3.86276 2.51619 0
M  V30 3344 H 328.81 -3.62507 5.96015 0
M  V30 3345 H 324.707 -4.2244 4.88072 0
M  V30 3346 H 325.475 -4.31609 6.95454 0
M  V30 3347 N 328.138 -0.959301 -1.25041 0
M  V30 3348 C 329.088 -0.453888 -2.23436 0
M  V30 3349 C 330.072 0.459461 -1.542 0
M  V30 3350 O 331.264 0.291752 -1.74579 0
M  V30 3351 C 328.393 0.262667 -3.42294 0
M  V30 3352 C 327.479 -0.669022 -4.1879 0
M  V30 3353 N 327.87 -1.80267 -4.72586 0
M  V30 3354 C 326.168 -0.47814 -4.4343 0
M  V30 3355 C 326.869 -2.38475 -5.3057 0
M  V30 3356 N 325.845 -1.67078 -5.17287 0
M  V30 3357 H 329.647 -1.319 -2.6264 0
M  V30 3358 H 327.161 -0.817358 -1.40332 0
M  V30 3359 H 329.158 0.641911 -4.11929 0
M  V30 3360 H 327.818 1.12432 -3.04613 0
M  V30 3361 H 328.829 -2.18442 -4.69578 0
M  V30 3362 H 325.506 0.340249 -4.16111 0
M  V30 3363 H 326.896 -3.34094 -5.8295 0
M  V30 3364 N 329.616 1.39756 -0.72842 0
M  V30 3365 C 330.846 2.04651 -0.283117 0
M  V30 3366 C 331.254 1.5502 1.08469 0
M  V30 3367 O 330.597 0.707343 1.69536 0
M  V30 3368 C 330.659 3.58947 -0.199309 0
M  V30 3369 C 330.323 4.31525 -1.5045 0
M  V30 3370 C 331.32 4.5861 -2.44894 0
M  V30 3371 C 329.005 4.70195 -1.76698 0
M  V30 3372 C 330.999 5.23366 -3.63822 0
M  V30 3373 C 328.686 5.3468 -2.95906 0
M  V30 3374 C 329.684 5.61198 -3.89289 0
M  V30 3375 O 329.372 6.24347 -5.06404 0
M  V30 3376 H 329.104 0.664777 -0.122666 0
M  V30 3377 H 331.658 1.79913 -0.990987 0
M  V30 3378 H 329.888 3.82556 0.56461 0
M  V30 3379 H 331.577 4.0534 0.213125 0
M  V30 3380 H 332.343 4.29187 -2.25883 0
M  V30 3381 H 328.222 4.48916 -1.04859 0
M  V30 3382 H 331.766 5.4398 -4.36728 0
M  V30 3383 H 327.663 5.63524 -3.14819 0
M  V30 3384 H 328.431 6.42842 -5.06652 0
M  V30 3385 N 331.094 0.475555 1.50254 0
M  V30 3386 C 332.324 -0.0753399 2.06463 0
M  V30 3387 C 332.732 -1.33661 1.33908 0
M  V30 3388 O 332.075 -1.79219 0.403257 0
M  V30 3389 C 332.137 -0.424921 3.5698 0
M  V30 3390 C 331.801 0.734965 4.51051 0
M  V30 3391 C 332.798 1.61827 4.94073 0
M  V30 3392 C 330.483 0.926557 4.9368 0
M  V30 3393 C 332.477 2.67754 5.78434 0
M  V30 3394 C 330.164 1.98904 5.77824 0
M  V30 3395 C 331.162 2.8629 6.20103 0
M  V30 3396 O 330.85 3.90708 7.02568 0
M  V30 3397 H 330.582 0.00576308 0.675975 0
M  V30 3398 H 333.136 0.664662 1.94349 0
M  V30 3399 H 331.366 -1.21817 3.67012 0
M  V30 3400 H 333.055 -0.911422 3.95535 0
M  V30 3401 H 333.821 1.48196 4.61804 0
M  V30 3402 H 329.7 0.25584 4.6029 0
M  V30 3403 H 333.244 3.35992 6.11355 0
M  V30 3404 H 329.141 2.12541 6.09505 0
M  V30 3405 H 329.909 3.87751 7.20827 0
M  V30 3406 N 332.573 -1.56217 0.208337 0
M  V30 3407 C 333.984 -1.84243 -0.301904 0
M  V30 3408 C 334.335 -1.12939 -1.60434 0
M  V30 3409 O 333.46 -0.39461 -2.12772 0
M  V30 3410 C 334.055 -3.34231 -0.554543 0
M  V30 3411 C 332.614 -3.62621 -1.00912 0
M  V30 3412 C 331.761 -2.77224 -0.064933 0
M  V30 3413 H 334.712 -1.52712 0.431833 0
M  V30 3414 H 334.733 -3.5372 -1.40223 0
M  V30 3415 H 334.245 -3.86099 0.393561 0
M  V30 3416 H 332.346 -3.16197 -1.97104 0
M  V30 3417 H 332.459 -4.7071 -0.892674 0
M  V30 3418 H 330.823 -2.48256 -0.56929 0
M  V30 3419 H 331.606 -3.31887 0.877851 0
M  V30 3420 N 334.051 0.0651679 -1.57465 0
M  V30 3421 C 335.298 0.763063 -1.87573 0
M  V30 3422 C 335.626 1.77242 -0.800961 0
M  V30 3423 O 334.881 1.94651 0.202316 0
M  V30 3424 C 335.18 1.50081 -3.24362 0
M  V30 3425 C 334.846 0.630816 -4.46466 0
M  V30 3426 C 333.508 0.391082 -4.79608 0
M  V30 3427 C 335.86 0.0279465 -5.21193 0
M  V30 3428 C 333.188 -0.460894 -5.84887 0
M  V30 3429 C 335.54 -0.811522 -6.27373 0
M  V30 3430 C 334.204 -1.06106 -6.59013 0
M  V30 3431 H 333.474 0.279224 -0.686378 0
M  V30 3432 H 336.121 0.0236726 -1.91485 0
M  V30 3433 H 334.426 2.31258 -3.16271 0
M  V30 3434 H 336.123 2.04571 -3.44894 0
M  V30 3435 H 332.713 0.8278 -4.2053 0
M  V30 3436 H 336.897 0.200262 -4.95896 0
M  V30 3437 H 332.153 -0.662907 -6.07796 0
M  V30 3438 H 336.327 -1.28537 -6.84435 0
M  V30 3439 H 333.954 -1.723 -7.40417 0
M  V30 3440 N 335.529 1.53961 0.336706 0
M  V30 3441 C 336.775 1.7179 1.07777 0
M  V30 3442 C 337.108 0.483263 1.88091 0
M  V30 3443 O 336.383 -0.519747 1.87427 0
M  V30 3444 C 336.666 2.98558 2.01334 0
M  V30 3445 C 336.519 4.32245 1.24437 0
M  V30 3446 C 337.838 3.21023 3.01052 0
M  V30 3447 H 334.957 0.625089 0.390426 0
M  V30 3448 H 337.599 1.86641 0.35567 0
M  V30 3449 H 335.749 2.86028 2.62908 0
M  V30 3450 H 337.421 4.56637 0.654243 0
M  V30 3451 H 335.664 4.30344 0.546458 0
M  V30 3452 H 336.335 5.17137 1.93063 0
M  V30 3453 H 338.811 3.32929 2.49595 0
M  V30 3454 H 337.687 4.11104 3.6371 0
M  V30 3455 H 337.948 2.37637 3.72802 0
M  V30 3456 N 337.007 -0.598083 1.45811 0
M  V30 3457 C 338.284 -1.35777 1.40797 0
M  V30 3458 C 338.664 -2.10935 0.083462 0
M  V30 3459 O 338.012 -2.08505 -0.934763 0
M  V30 3460 C 338.222 -2.29666 2.62783 0
M  V30 3461 C 339.57 -2.91977 3.08277 0
M  V30 3462 O 340.594 -2.39984 2.63223 0
M  V30 3463 O 339.453 -3.86376 3.86491 0
M  V30 3464 H 336.547 -0.609291 0.55919 0
M  V30 3465 H 339.093 -0.620379 1.57954 0
M  V30 3466 H 337.865 -1.73454 3.50756 0
M  V30 3467 H 337.488 -3.1077 2.48008 0
M  V30 3468 N 338.485 -1.33259 -0.841409 0
M  V30 3469 C 339.733 -1.24326 -1.59334 0
M  V30 3470 C 340.054 0.191564 -1.94057 0
M  V30 3471 O 339.324 1.11967 -1.60749 0
M  V30 3472 H 337.904 -0.457174 -0.590763 0
M  V30 3473 H 340.566 -1.66947 -1.00571 0
M  V30 3474 H 339.662 -1.8352 -2.52442 0
M  V30 3475 N 339.963 1.05934 -1.16686 0
M  V30 3476 C 340.926 2.11669 -0.879144 0
M  V30 3477 C 341.926 1.60294 0.127445 0
M  V30 3478 O 343.116 1.7389 -0.103865 0
M  V30 3479 C 340.248 3.39438 -0.315425 0
M  V30 3480 H 341.441 2.38626 -1.81653 0
M  V30 3481 H 338.994 1.22058 -0.976299 0
M  V30 3482 H 339.729 3.18132 0.629468 0
M  V30 3483 H 339.514 3.78034 -1.04079 0
M  V30 3484 H 341.004 4.17391 -0.132189 0
M  V30 3485 N 341.441 0.965919 1.2453 0
M  V30 3486 C 342.388 0.49402 2.25451 0
M  V30 3487 C 343.358 -0.45948 1.59618 0
M  V30 3488 O 344.543 -0.370238 1.87173 0
M  V30 3489 C 341.683 -0.211359 3.44452 0
M  V30 3490 C 340.796 0.7807 4.24887 0
M  V30 3491 C 339.931 0.0516105 5.31175 0
M  V30 3492 C 338.97 1.03385 6.03306 0
M  V30 3493 N 338.107 0.334887 7.01301 0
M  V30 3494 H 342.947 1.35946 2.65184 0
M  V30 3495 H 340.484 0.681515 1.3036 0
M  V30 3496 H 342.442 -0.637 4.12308 0
M  V30 3497 H 341.072 -1.04077 3.05562 0
M  V30 3498 H 340.124 1.32479 3.56586 0
M  V30 3499 H 341.436 1.52978 4.74762 0
M  V30 3500 H 340.59 -0.432114 6.05159 0
M  V30 3501 H 339.329 -0.730179 4.82203 0
M  V30 3502 H 338.334 1.52847 5.28127 0
M  V30 3503 H 339.559 1.81606 6.54367 0
M  V30 3504 H 337.505 -0.427959 6.54603 0
M  V30 3505 H 337.422 1.02287 7.49048 0
M  V30 3506 H 338.69 -0.126928 7.79397 0
M  V30 3507 N 342.919 -1.39368 0.735821 0
M  V30 3508 C 344.147 -2.04795 0.294393 0
M  V30 3509 C 344.562 -1.55478 -1.07107 0
M  V30 3510 O 343.919 -0.720038 -1.67695 0
M  V30 3511 C 343.97 -3.6035 0.288071 0
M  V30 3512 O 343.691 -4.07852 1.59963 0
M  V30 3513 C 345.192 -4.42976 -0.169422 0
M  V30 3514 H 342.412 -0.658571 0.128551 0
M  V30 3515 H 344.956 -1.78399 0.999701 0
M  V30 3516 H 343.111 -3.85645 -0.368355 0
M  V30 3517 H 343.525 -5.02181 1.51375 0
M  V30 3518 H 344.999 -5.51864 -0.122687 0
M  V30 3519 H 345.476 -4.22068 -1.21472 0
M  V30 3520 H 346.082 -4.22832 0.457469 0
M  V30 3521 N 344.397 -0.483516 -1.5 0
M  V30 3522 C 345.645 0.067027 -2.01989 0
M  V30 3523 C 345.966 1.3909 -1.36671 0
M  V30 3524 O 345.236 1.88978 -0.516152 0
M  V30 3525 H 343.816 0.0277606 -0.746484 0
M  V30 3526 H 346.478 -0.636773 -1.84204 0
M  V30 3527 H 345.574 0.209484 -3.11396 0
M  V30 3528 N 345.875 1.56104 -0.216619 0
M  V30 3529 C 346.785 2.23694 0.706982 0
M  V30 3530 C 347.801 1.24295 1.21765 0
M  V30 3531 O 348.977 1.57094 1.2603 0
M  V30 3532 C 346.042 2.8998 1.90033 0
M  V30 3533 C 345.103 4.04708 1.43213 0
M  V30 3534 C 344.336 4.67824 2.56859 0
M  V30 3535 O 344.559 4.29913 3.74874 0
M  V30 3536 O 343.493 5.56905 2.28343 0
M  V30 3537 H 347.319 3.03272 0.161235 0
M  V30 3538 H 344.904 1.49394 0.0136177 0
M  V30 3539 H 346.786 3.31837 2.59735 0
M  V30 3540 H 345.461 2.13365 2.43428 0
M  V30 3541 H 344.368 3.6743 0.70327 0
M  V30 3542 H 345.701 4.83051 0.944615 0
M  V30 3543 N 347.353 -0.0568162 1.57498 0
M  V30 3544 C 348.301 -1.08452 2.05769 0
M  V30 3545 C 349.295 -1.39164 0.965903 0
M  V30 3546 O 350.501 -1.38395 1.15095 0
M  V30 3547 H 346.876 -0.367148 0.656282 0
M  V30 3548 H 348.847 -0.651368 2.91204 0
M  V30 3549 C 347.596 -2.38543 2.52968 0
M  V30 3550 H 346.919 -2.15765 3.36579 0
M  V30 3551 H 348.359 -3.08863 2.90481 0
M  V30 3552 C 346.818 -3.05562 1.41893 0
M  V30 3553 O 347.348 -3.94262 0.769442 0
M  V30 3554 N 345.554 -2.6643 1.16032 0
M  V30 3555 H 345.101 -1.94387 1.6903 0
M  V30 3556 H 345.059 -3.11593 0.419219 0
M  V30 3557 N 348.832 -1.54138 -0.328536 0
M  V30 3558 C 350.057 -1.76378 -1.09112 0
M  V30 3559 C 350.482 -0.508596 -1.81094 0
M  V30 3560 O 349.84 0.539598 -1.73084 0
M  V30 3561 C 349.888 -2.95358 -2.06872 0
M  V30 3562 O 348.992 -2.66556 -3.14677 0
M  V30 3563 H 348.333 -0.584614 -0.314838 0
M  V30 3564 H 350.863 -2.01146 -0.374348 0
M  V30 3565 H 350.873 -3.22566 -2.4983 0
M  V30 3566 H 349.548 -3.86385 -1.5388 0
M  V30 3567 H 348.125 -2.50282 -2.7643 0
M  V30 3568 N 350.31 0.590341 -1.46126 0
M  V30 3569 C 351.258 1.72105 -1.5647 0
M  V30 3570 C 352.252 1.63756 -0.433612 0
M  V30 3571 O 353.458 1.69342 -0.610194 0
M  V30 3572 H 349.833 0.568889 -0.491802 0
M  V30 3573 H 351.804 1.6051 -2.51553 0
M  V30 3574 C 350.553 3.10493 -1.56491 0
M  V30 3575 H 349.876 3.17583 -2.4286 0
M  V30 3576 H 351.316 3.8939 -1.67785 0
M  V30 3577 C 349.775 3.3563 -0.292231 0
M  V30 3578 O 350.305 3.96875 0.620739 0
M  V30 3579 N 348.511 2.90026 -0.182523 0
M  V30 3580 H 348.058 2.40367 -0.926356 0
M  V30 3581 H 348.016 3.07218 0.668152 0
M  V30 3582 N 351.788 1.33704 0.83433 0
M  V30 3583 C 352.736 1.24323 1.96587 0
M  V30 3584 C 353.73 0.143659 1.6879 0
M  V30 3585 O 354.936 0.30791 1.77347 0
M  V30 3586 H 351.311 0.385925 0.645419 0
M  V30 3587 H 353.282 2.19978 2.01624 0
M  V30 3588 C 352.031 1.00394 3.32891 0
M  V30 3589 H 351.354 1.84231 3.54822 0
M  V30 3590 H 352.794 0.97862 4.12552 0
M  V30 3591 C 351.253 -0.293047 3.35623 0
M  V30 3592 O 351.783 -1.29823 3.80143 0
M  V30 3593 N 349.989 -0.322174 2.88809 0
M  V30 3594 H 349.536 0.496379 2.52772 0
M  V30 3595 H 349.494 -1.18977 2.91019 0
M  V30 3596 N 353.266 -1.05314 1.17247 0
M  V30 3597 C 354.515 -1.77685 0.954521 0
M  V30 3598 C 354.828 -1.88616 -0.518025 0
M  V30 3599 O 356.034 -2.57714 -0.854144 0
M  V30 3600 C 354.49 -3.19402 1.65863 0
M  V30 3601 C 354.098 -3.16605 3.16963 0
M  V30 3602 C 355.842 -3.96237 1.52303 0
M  V30 3603 C 353.749 -4.53103 3.80068 0
M  V30 3604 H 352.679 -0.666 0.353496 0
M  V30 3605 H 355.33 -1.1805 1.40486 0
M  V30 3606 H 353.712 -3.79355 1.13602 0
M  V30 3607 H 354.886 -2.66176 3.76148 0
M  V30 3608 H 353.201 -2.53268 3.30521 0
M  V30 3609 H 355.798 -4.97157 1.96822 0
M  V30 3610 H 356.141 -4.136 0.473401 0
M  V30 3611 H 356.674 -3.42829 2.01775 0
M  V30 3612 H 353.413 -4.40946 4.85023 0
M  V30 3613 H 352.933 -5.03686 3.2567 0
M  V30 3614 H 354.612 -5.22045 3.82202 0
M  V30 3615 N 354.744 -0.972509 -1.24016 0
M  V30 3616 C 355.691 -0.505969 -2.25186 0
M  V30 3617 C 356.661 0.451009 -1.5986 0
M  V30 3618 O 357.846 0.360307 -1.87367 0
M  V30 3619 C 354.986 0.193089 -3.44559 0
M  V30 3620 C 354.099 -0.803222 -4.24467 0
M  V30 3621 C 353.234 -0.0797793 -5.3114 0
M  V30 3622 C 352.273 -1.06583 -6.02749 0
M  V30 3623 N 351.41 -0.372074 -7.01113 0
M  V30 3624 H 356.25 -1.37351 -2.64459 0
M  V30 3625 H 353.787 -0.688419 -1.29997 0
M  V30 3626 H 355.745 0.615125 -4.1264 0
M  V30 3627 H 354.375 1.02455 -3.06109 0
M  V30 3628 H 353.427 -1.34368 -3.55878 0
M  V30 3629 H 354.739 -1.55494 -4.73944 0
M  V30 3630 H 353.893 0.400015 -6.0538 0
M  V30 3631 H 352.632 0.704597 -4.82583 0
M  V30 3632 H 351.637 -1.55645 -5.27309 0
M  V30 3633 H 352.862 -1.85074 -6.53395 0
M  V30 3634 H 350.808 0.393238 -6.5482 0
M  V30 3635 H 350.725 -1.06258 -7.48495 0
M  V30 3636 H 351.993 0.0855932 -7.79453 0
M  V30 3637 N 356.222 1.38976 -0.743202 0
M  V30 3638 C 357.152 2.33171 -0.123873 0
M  V30 3639 C 358.133 1.54336 0.71516 0
M  V30 3640 O 359.318 1.82696 0.658467 0
M  V30 3641 C 356.448 3.38474 0.777978 0
M  V30 3642 C 355.402 4.27979 0.0424758 0
M  V30 3643 C 354.728 5.2405 1.06189 0
M  V30 3644 C 356.028 5.10155 -1.1198 0
M  V30 3645 H 357.722 2.85213 -0.910709 0
M  V30 3646 H 355.268 1.37133 -0.439388 0
M  V30 3647 H 357.221 4.03328 1.22084 0
M  V30 3648 H 355.945 2.84891 1.59702 0
M  V30 3649 H 354.604 3.64616 -0.380853 0
M  V30 3650 H 354.252 4.66758 1.87472 0
M  V30 3651 H 353.952 5.84785 0.574485 0
M  V30 3652 H 355.476 5.9178 1.50428 0
M  V30 3653 H 356.89 5.68307 -0.75499 0
M  V30 3654 H 355.287 5.80073 -1.53738 0
M  V30 3655 H 356.357 4.44504 -1.93764 0
M  V30 3656 N 357.7 0.491464 1.49741 0
M  V30 3657 C 358.93 -0.0534375 2.06531 0
M  V30 3658 C 359.338 -1.32233 1.35318 0
M  V30 3659 O 358.681 -1.78781 0.422243 0
M  V30 3660 C 358.743 -0.387034 3.57411 0
M  V30 3661 C 358.407 0.782764 4.50246 0
M  V30 3662 C 359.404 1.67059 4.92329 0
M  V30 3663 C 357.089 0.978866 4.9267 0
M  V30 3664 C 359.083 2.73874 5.75562 0
M  V30 3665 C 356.77 2.05022 5.75682 0
M  V30 3666 C 357.768 2.92851 6.17031 0
M  V30 3667 O 357.456 3.98138 6.98385 0
M  V30 3668 H 357.188 0.0129324 0.675876 0
M  V30 3669 H 359.742 0.685238 1.93633 0
M  V30 3670 H 357.972 -1.17918 3.68283 0
M  V30 3671 H 359.661 -0.869419 3.96479 0
M  V30 3672 H 360.427 1.53086 4.60206 0
M  V30 3673 H 356.306 0.304646 4.59992 0
M  V30 3674 H 359.85 3.42458 6.07757 0
M  V30 3675 H 355.747 2.18993 6.07217 0
M  V30 3676 H 356.515 3.95374 7.16674 0
M  V30 3677 N 359.178 -1.55987 0.224894 0
M  V30 3678 C 360.408 -2.02489 -0.41007 0
M  V30 3679 C 360.816 -1.10391 -1.53657 0
M  V30 3680 O 360.159 -0.106458 -1.83391 0
M  V30 3681 C 360.221 -3.45319 -0.999757 0
M  V30 3682 C 359.885 -4.56999 -0.00827976 0
M  V30 3683 C 360.882 -5.13812 0.793314 0
M  V30 3684 C 358.567 -5.02176 0.111442 0
M  V30 3685 C 360.561 -6.14276 1.7013 0
M  V30 3686 C 358.248 -6.02477 1.02296 0
M  V30 3687 C 359.246 -6.58403 1.81643 0
M  V30 3688 O 358.934 -7.56751 2.71262 0
M  V30 3689 H 358.666 -0.667915 -0.104235 0
M  V30 3690 H 361.22 -2.0257 0.339782 0
M  V30 3691 H 359.45 -3.42318 -1.79876 0
M  V30 3692 H 361.139 -3.7545 -1.54248 0
M  V30 3693 H 361.905 -4.79756 0.711288 0
M  V30 3694 H 357.784 -4.58323 -0.49605 0
M  V30 3695 H 361.328 -6.57854 2.32107 0
M  V30 3696 H 357.225 -6.35954 1.10599 0
M  V30 3697 H 357.993 -7.74286 2.65375 0
M  V30 3698 N 360.656 0.0484629 -1.57525 0
M  V30 3699 C 361.903 0.743125 -1.88372 0
M  V30 3700 C 362.231 1.76383 -0.819715 0
M  V30 3701 O 361.486 1.94855 0.181659 0
M  V30 3702 C 361.785 1.46632 -3.25935 0
M  V30 3703 C 361.451 0.583427 -4.4711 0
M  V30 3704 C 360.113 0.340191 -4.79996 0
M  V30 3705 C 362.465 -0.0273345 -5.21193 0
M  V30 3706 C 359.793 -0.522903 -5.84365 0
M  V30 3707 C 362.145 -0.878017 -6.26477 0
M  V30 3708 C 360.809 -1.1309 -6.5785 0
M  V30 3709 H 360.079 0.271929 -0.689301 0
M  V30 3710 H 362.726 0.00336166 -1.915 0
M  V30 3711 H 361.031 2.2789 -3.18706 0
M  V30 3712 H 362.728 2.00902 -3.47044 0
M  V30 3713 H 359.318 0.783151 -4.21384 0
M  V30 3714 H 363.502 0.147654 -4.9608 0
M  V30 3715 H 358.758 -0.727335 -6.07058 0
M  V30 3716 H 362.932 -1.35789 -6.83033 0
M  V30 3717 H 360.559 -1.80144 -7.38547 0
M  V30 3718 N 362.134 1.5431 0.320358 0
M  V30 3719 C 363.081 1.83918 1.39438 0
M  V30 3720 C 364.051 0.686525 1.51248 0
M  V30 3721 O 365.236 0.933269 1.66417 0
M  V30 3722 C 362.376 2.075 2.75749 0
M  V30 3723 C 361.489 3.35177 2.72544 0
M  V30 3724 C 360.624 3.48704 4.00723 0
M  V30 3725 C 359.663 4.70244 3.91838 0
M  V30 3726 N 358.8 4.80679 5.11754 0
M  V30 3727 H 363.64 2.75544 1.13489 0
M  V30 3728 H 361.177 1.36459 0.549309 0
M  V30 3729 H 363.135 2.19166 3.54996 0
M  V30 3730 H 361.765 1.19163 3 0
M  V30 3731 H 360.817 3.32233 1.85271 0
M  V30 3732 H 362.129 4.24534 2.61863 0
M  V30 3733 H 361.283 3.59928 4.88402 0
M  V30 3734 H 360.022 2.57445 4.14214 0
M  V30 3735 H 359.027 4.59072 3.02544 0
M  V30 3736 H 360.252 5.6289 3.7991 0
M  V30 3737 H 358.198 3.92337 5.25745 0
M  V30 3738 H 358.115 5.64007 5.0342 0
M  V30 3739 H 359.383 4.96239 6.01138 0
M  V30 3740 N 363.613 -0.582584 1.46437 0
M  V30 3741 C 364.563 -1.68654 1.53426 0
M  V30 3742 C 365.547 -1.55971 0.395194 0
M  V30 3743 O 366.739 -1.64884 0.643612 0
M  V30 3744 C 363.868 -3.07439 1.52762 0
M  V30 3745 C 362.954 -3.25418 2.71963 0
M  V30 3746 N 363.345 -3.13556 3.96883 0
M  V30 3747 C 361.643 -3.56357 2.68189 0
M  V30 3748 C 362.344 -3.33543 4.76575 0
M  V30 3749 N 361.32 -3.58704 4.08451 0
M  V30 3750 H 365.122 -1.58014 2.47808 0
M  V30 3751 H 362.636 -0.786617 1.42078 0
M  V30 3752 H 364.633 -3.86671 1.55857 0
M  V30 3753 H 363.293 -3.1921 0.594573 0
M  V30 3754 H 364.304 -2.9142 4.28129 0
M  V30 3755 H 360.981 -3.74812 1.83908 0
M  V30 3756 H 362.371 -3.29555 5.85528 0
M  V30 3757 N 365.091 -1.34144 -0.827227 0
M  V30 3758 C 366.023 -1.21206 -1.9453 0
M  V30 3759 C 367.036 -0.140176 -1.62195 0
M  V30 3760 O 368.225 -0.391647 -1.7415 0
M  V30 3761 C 365.325 -0.839141 -3.28347 0
M  V30 3762 C 364.498 -2.0051 -3.88734 0
M  V30 3763 C 363.557 -1.61128 -5.00923 0
M  V30 3764 O 362.583 -2.32726 -5.19449 0
M  V30 3765 N 363.785 -0.522958 -5.7814 0
M  V30 3766 H 366.55 -2.17525 -2.06162 0
M  V30 3767 H 364.111 -1.27043 -1.00358 0
M  V30 3768 H 366.103 -0.557556 -4.00841 0
M  V30 3769 H 364.673 0.0337293 -3.12582 0
M  V30 3770 H 363.893 -2.45166 -3.08686 0
M  V30 3771 H 365.181 -2.78498 -4.25812 0
M  V30 3772 H 364.579 0.0723518 -5.65654 0
M  V30 3773 H 363.136 -0.301089 -6.51104 0
M  V30 3774 N 366.569 1.04691 -1.17803 0
M  V30 3775 C 367.846 1.7472 -0.879328 0
M  V30 3776 C 368.226 2.01812 0.619271 0
M  V30 3777 O 367.574 1.65824 1.57209 0
M  V30 3778 C 367.784 3.03686 -1.71976 0
M  V30 3779 C 369.132 3.77542 -1.94286 0
M  V30 3780 O 370.156 3.13569 -1.68976 0
M  V30 3781 O 369.015 4.92506 -2.36855 0
M  V30 3782 H 366.109 0.760011 -0.326056 0
M  V30 3783 H 368.655 1.10813 -1.28525 0
M  V30 3784 H 367.427 2.79754 -2.73594 0
M  V30 3785 H 367.05 3.75332 -1.31194 0
M  V30 3786 N 368.047 0.979072 1.23499 0
M  V30 3787 C 369.458 0.684391 1.73704 0
M  V30 3788 C 369.809 -0.799448 1.79174 0
M  V30 3789 O 368.934 -1.62531 1.42873 0
M  V30 3790 C 369.529 1.23564 3.15464 0
M  V30 3791 C 368.088 0.99063 3.6313 0
M  V30 3792 C 367.235 1.36416 2.41425 0
M  V30 3793 H 370.186 1.15307 1.09041 0
M  V30 3794 H 370.207 0.607417 3.7562 0
M  V30 3795 H 369.719 2.31561 3.1145 0
M  V30 3796 H 367.82 -0.0733136 3.72528 0
M  V30 3797 H 367.933 1.64427 4.5 0
M  V30 3798 H 366.297 0.782616 2.42378 0
M  V30 3799 H 367.08 2.45387 2.40083 0
M  V30 3800 N 369.525 -1.3858 0.750561 0
M  V30 3801 C 370.773 -1.99789 0.30477 0
M  V30 3802 C 371.094 -1.59874 -1.11649 0
M  V30 3803 O 370.364 -0.85417 -1.76297 0
M  V30 3804 H 368.944 -0.738902 0.109694 0
M  V30 3805 H 371.606 -1.69391 0.963983 0
M  V30 3806 H 370.702 -3.09952 0.365499 0
M  V30 3807 N 371.003 -0.499398 -1.49478 0
M  V30 3808 C 371.966 0.268838 -2.27618 0
M  V30 3809 C 372.966 0.895383 -1.33565 0
M  V30 3810 O 374.156 0.760164 -1.56739 0
M  V30 3811 C 371.288 1.38559 -3.11471 0
M  V30 3812 H 372.481 -0.416812 -2.96989 0
M  V30 3813 H 370.034 -0.254313 -1.54217 0
M  V30 3814 H 370.769 2.10544 -2.46661 0
M  V30 3815 H 370.554 0.941797 -3.80621 0
M  V30 3816 H 372.044 1.92678 -3.70493 0
M  V30 3817 N 372.481 1.55866 -0.233164 0
M  V30 3818 C 373.728 1.98603 0.395374 0
M  V30 3819 C 374.056 1.12105 1.58942 0
M  V30 3820 O 373.311 0.168656 1.94972 0
M  V30 3821 C 373.61 3.46856 0.861724 0
M  V30 3822 C 373.276 4.50348 -0.223066 0
M  V30 3823 C 371.938 4.78371 -0.521038 0
M  V30 3824 C 374.29 5.12355 -0.956124 0
M  V30 3825 C 371.618 5.6568 -1.55638 0
M  V30 3826 C 373.97 6.00786 -1.98089 0
M  V30 3827 C 372.634 6.27148 -2.28565 0
M  V30 3828 H 371.904 0.726739 0.144677 0
M  V30 3829 H 374.551 1.88491 -0.338114 0
M  V30 3830 H 372.856 3.5423 1.67418 0
M  V30 3831 H 374.553 3.77302 1.35809 0
M  V30 3832 H 371.143 4.28596 0.0193234 0
M  V30 3833 H 375.327 4.90765 -0.739166 0
M  V30 3834 H 370.583 5.84365 -1.798 0
M  V30 3835 H 374.757 6.4788 -2.55391 0
M  V30 3836 H 372.384 6.94597 -3.08932 0
M  V30 3837 N 373.959 -0.0401083 1.57549 0
M  V30 3838 C 375.205 -0.734211 1.89043 0
M  V30 3839 C 375.538 -1.75591 0.829535 0
M  V30 3840 O 374.813 -1.93868 -0.156706 0
M  V30 3841 C 375.096 -1.41374 3.31188 0
M  V30 3842 C 374.949 -0.406299 4.47961 0
M  V30 3843 C 376.268 -2.35061 3.72068 0
M  V30 3844 H 373.387 -0.265447 0.687537 0
M  V30 3845 H 376.029 0.00294087 1.9 0
M  V30 3846 H 374.179 -2.04206 3.30503 0
M  V30 3847 H 375.851 0.219255 4.60779 0
M  V30 3848 H 374.094 0.275485 4.32924 0
M  V30 3849 H 374.765 -0.920022 5.44279 0
M  V30 3850 H 377.241 -1.82282 3.74049 0
M  V30 3851 H 376.117 -2.79593 4.72355 0
M  V30 3852 H 376.378 -3.21258 3.0372 0
M  V30 3853 N 375.437 -1.54477 -0.31217 0
M  V30 3854 C 376.662 -1.77526 -1.07235 0
M  V30 3855 C 377.087 -0.527775 -1.80544 0
M  V30 3856 O 376.445 0.52121 -1.73646 0
M  V30 3857 C 376.493 -2.97535 -2.03728 0
M  V30 3858 O 375.597 -2.69878 -3.11833 0
M  V30 3859 H 374.938 -0.58792 -0.30862 0
M  V30 3860 H 377.468 -2.01532 -0.352993 0
M  V30 3861 H 377.478 -3.25198 -2.46395 0
M  V30 3862 H 376.153 -3.87996 -1.49774 0
M  V30 3863 H 374.73 -2.53199 -2.7376 0
M  V30 3864 N 376.915 0.57481 -1.46744 0
M  V30 3865 C 378.164 1.32898 -1.51727 0
M  V30 3866 C 378.477 1.948 -0.176692 0
M  V30 3867 O 379.683 2.71299 -0.104385 0
M  V30 3868 C 378.139 2.40901 -2.67385 0
M  V30 3869 C 377.747 1.85266 -4.07898 0
M  V30 3870 C 379.491 3.17609 -2.81646 0
M  V30 3871 C 377.398 2.90945 -5.14883 0
M  V30 3872 H 376.328 0.499631 -0.564699 0
M  V30 3873 H 378.979 0.612536 -1.72975 0
M  V30 3874 H 377.361 3.15379 -2.39483 0
M  V30 3875 H 378.535 1.17278 -4.45626 0
M  V30 3876 H 376.85 1.21199 -3.98371 0
M  V30 3877 H 379.447 3.96493 -3.58744 0
M  V30 3878 H 379.79 3.70696 -1.89448 0
M  V30 3879 H 380.323 2.50239 -3.09233 0
M  V30 3880 H 377.062 2.42736 -6.089 0
M  V30 3881 H 376.582 3.57398 -4.81691 0
M  V30 3882 H 378.261 3.54755 -5.41071 0
M  V30 3883 N 378.394 1.34581 0.820102 0
M  V30 3884 C 379.619 1.30333 1.61332 0
M  V30 3885 C 380.044 -0.119339 1.87721 0
M  V30 3886 O 379.402 -1.08197 1.45475 0
M  V30 3887 C 379.45 2.10258 2.92957 0
M  V30 3888 O 378.554 1.47404 3.85157 0
M  V30 3889 H 377.895 0.447488 0.490561 0
M  V30 3890 H 380.425 1.77425 1.01889 0
M  V30 3891 H 380.435 2.21718 3.42498 0
M  V30 3892 H 379.11 3.13693 2.73074 0
M  V30 3893 H 377.687 1.44703 3.43679 0
M  V30 3894 N 379.872 -1.04064 1.18357 0
M  V30 3895 C 381.12 -1.76915 0.977013 0
M  V30 3896 C 381.441 -1.88624 -0.494577 0
M  V30 3897 O 380.711 -1.41125 -1.3587 0
M  V30 3898 H 379.291 -0.65535 0.358504 0
M  V30 3899 H 381.953 -1.25592 1.49039 0
M  V30 3900 H 381.049 -2.78178 1.41504 0
M  V30 3901 N 381.35 -0.985608 -1.22978 0
M  V30 3902 C 382.598 -0.656087 -1.91154 0
M  V30 3903 C 382.919 0.813561 -1.77218 0
M  V30 3904 O 382.189 1.58244 -1.1548 0
M  V30 3905 H 380.769 -0.239674 -0.707506 0
M  V30 3906 H 383.431 -1.25054 -1.49491 0
M  V30 3907 H 382.527 -0.912253 -2.9847 0
M  V30 3908 N 382.828 1.3818 -0.7579 0
M  V30 3909 C 384.076 1.99624 -0.315361 0
M  V30 3910 C 384.397 1.60464 1.10799 0
M  V30 3911 O 383.667 0.863507 1.75842 0
M  V30 3912 H 382.247 0.73831 -0.113611 0
M  V30 3913 H 384.909 1.68878 -0.972952 0
M  V30 3914 H 384.005 3.09754 -0.381931 0
M  V30 3915 N 384.306 0.507319 1.49211 0
M  V30 3916 C 385.552 -0.0350047 2.0277 0
M  V30 3917 C 385.885 -1.3606 1.38569 0
M  V30 3918 O 385.16 -1.87321 0.523542 0
M  V30 3919 C 385.443 -0.180916 3.59645 0
M  V30 3920 C 385.296 1.16825 4.34364 0
M  V30 3921 C 386.615 -0.918558 4.30407 0
M  V30 3922 H 383.734 -0.0112473 0.736914 0
M  V30 3923 H 386.376 0.659956 1.7817 0
M  V30 3924 H 384.526 -0.772826 3.80736 0
M  V30 3925 H 386.198 1.79952 4.24753 0
M  V30 3926 H 384.441 1.75594 3.96673 0
M  V30 3927 H 385.112 1.01939 5.42506 0
M  V30 3928 H 387.588 -0.41649 4.1401 0
M  V30 3929 H 386.464 -0.989505 5.39907 0
M  V30 3930 H 386.725 -1.96373 3.96093 0
M  V30 3931 N 385.784 -1.5574 0.241426 0
M  V30 3932 C 386.714 -2.24133 -0.654722 0
M  V30 3933 C 387.695 -1.21974 -1.1856 0
M  V30 3934 O 388.88 -1.50612 -1.22595 0
M  V30 3935 C 386.01 -2.93659 -1.85423 0
M  V30 3936 C 384.964 -4.0246 -1.45636 0
M  V30 3937 C 384.29 -4.59383 -2.73626 0
M  V30 3938 C 385.59 -5.18468 -0.631506 0
M  V30 3939 H 387.284 -2.99281 -0.0844353 0
M  V30 3940 H 384.83 -1.43947 -0.0391707 0
M  V30 3941 H 386.783 -3.40203 -2.48676 0
M  V30 3942 H 385.507 -2.15991 -2.44981 0
M  V30 3943 H 384.166 -3.56676 -0.847202 0
M  V30 3944 H 383.814 -3.78422 -3.3137 0
M  V30 3945 H 383.514 -5.32826 -2.4773 0
M  V30 3946 H 385.038 -5.08658 -3.37786 0
M  V30 3947 H 386.452 -5.61272 -1.1682 0
M  V30 3948 H 384.849 -5.98266 -0.468831 0
M  V30 3949 H 385.919 -4.8358 0.357506 0
M  V30 3950 N 387.262 0.0317525 -1.57568 0
M  V30 3951 C 388.225 1.01783 -2.0536 0
M  V30 3952 C 389.225 1.29203 -0.957253 0
M  V30 3953 O 390.415 1.24251 -1.22095 0
M  V30 3954 C 387.547 2.35137 -2.46827 0
M  V30 3955 H 388.74 0.605062 -2.93733 0
M  V30 3956 H 386.293 0.278514 -1.53799 0
M  V30 3957 H 387.028 2.81168 -1.61602 0
M  V30 3958 H 386.813 2.16566 -3.26866 0
M  V30 3959 H 388.303 3.05938 -2.84239 0
M  V30 3960 N 388.74 1.54641 0.303973 0
M  V30 3961 C 389.965 1.78092 1.06292 0
M  V30 3962 C 390.39 0.537342 1.80262 0
M  V30 3963 O 389.748 -0.511993 1.7392 0
M  V30 3964 C 389.796 2.98612 2.02147 0
M  V30 3965 O 388.9 2.71528 3.10397 0
M  V30 3966 H 388.241 0.589548 0.305497 0
M  V30 3967 H 390.771 2.01716 0.3423 0
M  V30 3968 H 390.781 3.265 2.44667 0
M  V30 3969 H 389.456 3.88785 1.47714 0
M  V30 3970 H 388.033 2.54648 2.72413 0
M  V30 3971 N 390.218 -0.567019 1.47046 0
M  V30 3972 C 391.443 -1.3551 1.57009 0
M  V30 3973 C 391.868 -1.86841 0.217259 0
M  V30 3974 O 391.226 -1.62435 -0.805268 0
M  V30 3975 C 391.274 -2.50777 2.5912 0
M  V30 3976 O 390.378 -3.52706 2.13711 0
M  V30 3977 H 389.719 -0.402919 0.52778 0
M  V30 3978 H 392.249 -0.686241 1.92748 0
M  V30 3979 H 392.259 -2.97481 2.79229 0
M  V30 3980 H 390.934 -2.12771 3.57353 0
M  V30 3981 H 389.511 -3.12374 2.03659 0
M  V30 3982 N 391.696 -1.35014 -0.812953 0
M  V30 3983 C 392.643 -1.27412 -1.92444 0
M  V30 3984 C 393.613 -0.14733 -1.65445 0
M  V30 3985 O 394.798 -0.329974 -1.87925 0
M  V30 3986 C 391.938 -1.04558 -3.28879 0
M  V30 3987 C 391.051 -2.26101 -3.68106 0
M  V30 3988 C 390.186 -1.96449 -4.9354 0
M  V30 3989 C 389.225 -3.14081 -5.25376 0
M  V30 3990 N 388.362 -2.84246 -6.41988 0
M  V30 3991 H 393.202 -2.22463 -1.98278 0
M  V30 3992 H 390.739 -1.10593 -0.969933 0
M  V30 3993 H 392.697 -0.893413 -4.07522 0
M  V30 3994 H 391.327 -0.131719 -3.22531 0
M  V30 3995 H 390.379 -2.52204 -2.84775 0
M  V30 3996 H 391.691 -3.13959 -3.87597 0
M  V30 3997 H 390.845 -1.78026 -5.79993 0
M  V30 3998 H 389.584 -1.05867 -4.76071 0
M  V30 3999 H 388.589 -3.33089 -4.37415 0
M  V30 4000 H 389.814 -4.05455 -5.44778 0
M  V30 4001 H 387.76 -1.96252 -6.25956 0
M  V30 4002 H 387.677 -3.65637 -6.61699 0
M  V30 4003 H 388.945 -2.6935 -7.31485 0
M  V30 4004 N 393.175 1.03435 -1.18907 0
M  V30 4005 C 394.125 2.09924 -0.889706 0
M  V30 4006 C 395.109 1.60261 0.143216 0
M  V30 4007 O 396.301 1.76892 -0.0617122 0
M  V30 4008 C 393.43 3.40669 -0.424168 0
M  V30 4009 C 392.516 3.97082 -1.48952 0
M  V30 4010 N 392.907 4.27227 -2.70759 0
M  V30 4011 C 391.205 4.25029 -1.35152 0
M  V30 4012 C 391.906 4.7246 -3.39347 0
M  V30 4013 N 390.882 4.7366 -2.66735 0
M  V30 4014 H 394.684 2.31116 -1.81555 0
M  V30 4015 H 392.198 1.21246 -1.08042 0
M  V30 4016 H 394.195 4.16461 -0.191176 0
M  V30 4017 H 392.855 3.20901 0.495263 0
M  V30 4018 H 393.866 4.16678 -3.0757 0
M  V30 4019 H 390.543 4.14554 -0.495126 0
M  V30 4020 H 391.933 5.04751 -4.43481 0
M  V30 4021 N 394.653 0.992116 1.22453 0
M  V30 4022 C 395.585 0.500024 2.23679 0
M  V30 4023 C 396.598 -0.404463 1.57696 0
M  V30 4024 O 397.787 -0.206722 1.77299 0
M  V30 4025 C 394.887 -0.294711 3.37616 0
M  V30 4026 C 394.06 0.605723 4.33186 0
M  V30 4027 C 393.119 -0.13717 5.26021 0
M  V30 4028 O 392.145 0.477164 5.67196 0
M  V30 4029 N 393.347 -1.4197 5.62872 0
M  V30 4030 H 396.112 1.37045 2.66531 0
M  V30 4031 H 393.673 0.866741 1.36745 0
M  V30 4032 H 395.665 -0.800329 3.96707 0
M  V30 4033 H 394.235 -1.06623 2.93854 0
M  V30 4034 H 393.455 1.29202 3.72425 0
M  V30 4035 H 394.743 1.21896 4.93983 0
M  V30 4036 H 394.141 -1.94015 5.31389 0
M  V30 4037 H 392.698 -1.87052 6.24383 0
M  V30 4038 N 396.131 -1.37776 0.765217 0
M  V30 4039 C 397.063 -2.28958 0.105361 0
M  V30 4040 C 398.076 -1.48316 -0.67128 0
M  V30 4041 O 399.265 -1.71046 -0.51045 0
M  V30 4042 C 396.365 -3.27421 -0.874569 0
M  V30 4043 C 395.538 -4.37132 -0.153123 0
M  V30 4044 C 394.597 -5.1571 -1.04547 0
M  V30 4045 O 393.623 -5.66896 -0.511672 0
M  V30 4046 N 394.825 -5.29808 -2.37243 0
M  V30 4047 H 397.59 -2.86227 0.888495 0
M  V30 4048 H 395.151 -1.49682 0.617 0
M  V30 4049 H 397.143 -3.7687 -1.47483 0
M  V30 4050 H 395.713 -2.70967 -1.55871 0
M  V30 4051 H 394.933 -3.89166 0.627975 0
M  V30 4052 H 396.221 -5.07625 0.345643 0
M  V30 4053 H 395.619 -4.89793 -2.83054 0
M  V30 4054 H 394.176 -5.82589 -2.9229 0
M  V30 4055 N 397.609 -0.515225 -1.4894 0
M  V30 4056 C 398.541 0.292481 -2.27326 0
M  V30 4057 C 399.554 0.917838 -1.3446 0
M  V30 4058 O 400.743 0.798772 -1.5963 0
M  V30 4059 C 397.843 1.42803 -3.07344 0
M  V30 4060 C 397.016 0.907347 -4.27885 0
M  V30 4061 C 396.075 1.92222 -4.89834 0
M  V30 4062 O 395.101 1.48506 -5.49486 0
M  V30 4063 N 396.303 3.25355 -4.80754 0
M  V30 4064 H 399.068 -0.379721 -2.97285 0
M  V30 4065 H 396.629 -0.348638 -1.58102 0
M  V30 4066 H 398.621 2.10481 -3.45658 0
M  V30 4067 H 397.191 2.00414 -2.39902 0
M  V30 4068 H 396.411 0.0550218 -3.94162 0
M  V30 4069 H 397.699 0.538108 -5.05946 0
M  V30 4070 H 397.097 3.6355 -4.33414 0
M  V30 4071 H 395.654 3.88707 -5.23211 0
M  V30 4072 N 399.087 1.5561 -0.249682 0
M  V30 4073 C 400.05 2.20217 0.635394 0
M  V30 4074 C 401.05 1.17227 1.10066 0
M  V30 4075 O 402.24 1.42292 1.00492 0
M  V30 4076 C 399.372 2.84794 1.87363 0
M  V30 4077 H 400.565 2.99814 0.0716752 0
M  V30 4078 H 398.118 1.563 -0.000153234 0
M  V30 4079 H 398.853 2.09142 2.47851 0
M  V30 4080 H 398.638 3.60241 1.5482 0
M  V30 4081 H 400.128 3.3423 2.5036 0
M  V30 4082 N 400.565 -0.0233959 1.57583 0
M  V30 4083 C 401.497 -1.04994 2.03737 0
M  V30 4084 C 402.51 -1.32125 0.951152 0
M  V30 4085 O 403.699 -1.29512 1.22837 0
M  V30 4086 C 400.799 -2.39026 2.40249 0
M  V30 4087 C 399.972 -2.31171 3.7132 0
M  V30 4088 C 399.031 -3.47698 3.94959 0
M  V30 4089 O 398.057 -3.26937 4.65941 0
M  V30 4090 N 399.259 -4.6976 3.41037 0
M  V30 4091 H 402.024 -0.656507 2.92421 0
M  V30 4092 H 399.585 -0.211235 1.60516 0
M  V30 4093 H 401.577 -3.15712 2.53196 0
M  V30 4094 H 400.147 -2.70194 1.57207 0
M  V30 4095 H 399.367 -1.39547 3.68674 0
M  V30 4096 H 400.655 -2.23071 4.57293 0
M  V30 4097 H 400.053 -4.89528 2.83512 0
M  V30 4098 H 398.61 -5.43791 3.59353 0
M  V30 4099 N 402.043 -1.548 -0.295768 0
M  V30 4100 C 403.006 -1.85363 -1.34808 0
M  V30 4101 C 404.006 -0.726817 -1.43436 0
M  V30 4102 O 405.196 -0.995088 -1.42981 0
M  V30 4103 C 402.328 -2.03859 -2.73229 0
M  V30 4104 H 403.521 -2.7941 -1.08949 0
M  V30 4105 H 401.074 -1.46942 -0.532702 0
M  V30 4106 H 401.809 -1.12117 -3.04303 0
M  V30 4107 H 401.594 -2.8588 -2.68356 0
M  V30 4108 H 403.084 -2.28857 -3.49305 0
M  V30 4109 N 403.521 0.559213 -1.47345 0
M  V30 4110 C 404.768 1.31648 -1.53867 0
M  V30 4111 C 405.096 1.93468 -0.200104 0
M  V30 4112 O 404.351 1.78295 0.806799 0
M  V30 4113 C 404.65 2.44853 -2.6035 0
M  V30 4114 C 404.316 2.00876 -4.03683 0
M  V30 4115 C 402.978 1.88599 -4.42701 0
M  V30 4116 C 405.33 1.67279 -4.93626 0
M  V30 4117 C 402.658 1.41017 -5.69501 0
M  V30 4118 C 405.01 1.21169 -6.20887 0
M  V30 4119 C 403.674 1.07487 -6.58789 0
M  V30 4120 H 402.944 0.481734 -0.56304 0
M  V30 4121 H 405.591 0.627301 -1.80934 0
M  V30 4122 H 403.896 3.19318 -2.27032 0
M  V30 4123 H 405.593 3.03039 -2.62619 0
M  V30 4124 H 402.183 2.11374 -3.72853 0
M  V30 4125 H 406.367 1.75638 -4.64182 0
M  V30 4126 H 401.623 1.29086 -5.97618 0
M  V30 4127 H 405.797 0.942345 -6.89995 0
M  V30 4128 H 403.424 0.703946 -7.56934 0
M  V30 4129 N 404.999 1.35443 0.805782 0
M  V30 4130 C 406.248 1.28097 1.55801 0
M  V30 4131 C 406.561 -0.142428 1.95081 0
M  V30 4132 O 407.767 -0.33817 2.69386 0
M  V30 4133 C 406.223 2.24653 2.81174 0
M  V30 4134 C 405.831 3.72342 2.49129 0
M  V30 4135 C 407.575 2.2625 3.59181 0
M  V30 4136 C 405.482 4.60719 3.70799 0
M  V30 4137 H 404.412 0.475937 0.584808 0
M  V30 4138 H 407.063 1.60712 0.885661 0
M  V30 4139 H 405.445 1.85011 3.50124 0
M  V30 4140 H 406.619 4.20624 1.88181 0
M  V30 4141 H 404.934 3.73361 1.84366 0
M  V30 4142 H 407.531 2.89495 4.49552 0
M  V30 4143 H 407.874 1.26647 3.96568 0
M  V30 4144 H 408.407 2.64426 2.97193 0
M  V30 4145 H 405.146 5.61324 3.3852 0
M  V30 4146 H 404.666 4.17163 4.3097 0
M  V30 4147 H 406.345 4.76182 4.38018 0
M  V30 4148 N 406.477 -1.02803 1.19454 0
M  V30 4149 C 407.424 -2.11099 0.933046 0
M  V30 4150 C 408.394 -1.65571 -0.132447 0
M  V30 4151 O 409.579 -1.90797 0.00987576 0
M  V30 4152 C 406.719 -3.41763 0.478747 0
M  V30 4153 C 405.832 -4.00833 1.6111 0
M  V30 4154 C 404.967 -5.19511 1.10825 0
M  V30 4155 C 404.006 -5.70639 2.21445 0
M  V30 4156 N 403.143 -6.80589 1.72461 0
M  V30 4157 H 407.983 -2.32804 1.86028 0
M  V30 4158 H 405.52 -1.14179 0.927441 0
M  V30 4159 H 407.478 -4.16736 0.196745 0
M  V30 4160 H 406.108 -3.20166 -0.411493 0
M  V30 4161 H 405.16 -3.23066 2.00829 0
M  V30 4162 H 406.472 -4.34794 2.4445 0
M  V30 4163 H 405.626 -6.01645 0.781533 0
M  V30 4164 H 404.365 -4.87086 0.244606 0
M  V30 4165 H 403.37 -4.87116 2.54947 0
M  V30 4166 H 404.595 -6.05102 3.08267 0
M  V30 4167 H 402.541 -6.50016 0.884056 0
M  V30 4168 H 402.458 -7.13681 2.49389 0
M  V30 4169 H 403.726 -7.66317 1.42755 0
M  V30 4170 N 407.956 -0.998596 -1.21925 0
M  V30 4171 C 409.202 -0.688337 -1.91399 0
M  V30 4172 C 409.557 0.771805 -1.76241 0
M  V30 4173 O 408.85 1.55153 -1.1242 0
M  V30 4174 C 409.044 -1.03648 -3.42041 0
M  V30 4175 C 408.873 -2.52892 -3.71855 0
M  V30 4176 C 407.643 -3.19389 -3.91559 0
M  V30 4177 C 409.841 -3.5103 -3.75875 0
M  V30 4178 N 407.823 -4.5805 -4.08734 0
M  V30 4179 C 409.194 -4.75174 -3.98259 0
M  V30 4180 C 411.249 -3.45257 -3.58751 0
M  V30 4181 C 409.952 -5.94247 -4.05294 0
M  V30 4182 C 411.978 -4.63712 -3.67049 0
M  V30 4183 C 411.34 -5.86658 -3.89887 0
M  V30 4184 H 407.439 -0.303251 -0.720807 0
M  V30 4185 H 410.023 -1.27977 -1.46731 0
M  V30 4186 H 408.194 -0.473569 -3.85502 0
M  V30 4187 H 409.926 -0.681619 -3.98919 0
M  V30 4188 H 406.681 -2.69846 -3.89205 0
M  V30 4189 H 407.105 -5.29989 -4.21237 0
M  V30 4190 H 411.747 -2.51215 -3.40075 0
M  V30 4191 H 409.465 -6.88687 -4.22772 0
M  V30 4192 H 413.051 -4.6084 -3.5513 0
M  V30 4193 H 411.931 -6.76786 -3.96144 0
M  V30 4194 N 409.434 1.37368 -0.772513 0
M  V30 4195 C 410.683 1.98918 -0.333861 0
M  V30 4196 C 410.996 1.62017 1.09589 0
M  V30 4197 O 412.202 2.16676 1.63596 0
M  V30 4198 C 410.658 3.55735 -0.545971 0
M  V30 4199 C 410.266 4.01573 -1.98603 0
M  V30 4200 C 412.01 4.24156 -0.170979 0
M  V30 4201 C 409.917 5.51102 -2.1457 0
M  V30 4202 H 408.847 0.744214 -0.121085 0
M  V30 4203 H 411.498 1.56888 -0.95175 0
M  V30 4204 H 409.88 3.95748 0.141387 0
M  V30 4205 H 411.054 3.72803 -2.7084 0
M  V30 4206 H 409.369 3.45937 -2.31769 0
M  V30 4207 H 411.966 5.34024 -0.26878 0
M  V30 4208 H 412.309 4.06917 0.878855 0
M  V30 4209 H 412.842 3.89447 -0.810914 0
M  V30 4210 H 409.581 5.73268 -3.17875 0
M  V30 4211 H 409.101 5.81554 -1.46817 0
M  V30 4212 H 410.78 6.17083 -1.94468 0
M  V30 4213 N 410.912 0.523116 1.48665 0
M  V30 4214 C 412.14 -0.0096312 2.06898 0
M  V30 4215 C 412.555 -1.28784 1.38059 0
M  V30 4216 O 411.912 -1.76453 0.465893 0
M  V30 4217 C 411.963 -0.244386 3.60673 0
M  V30 4218 O 411.684 0.983172 4.26925 0
M  V30 4219 C 413.185 -0.818289 4.35682 0
M  V30 4220 H 410.405 0.0304161 0.67031 0
M  V30 4221 H 412.949 0.726799 1.91149 0
M  V30 4222 H 411.104 -0.930847 3.76051 0
M  V30 4223 H 411.518 0.759653 5.1897 0
M  V30 4224 H 412.992 -0.93201 5.44075 0
M  V30 4225 H 413.469 -1.82153 3.99646 0
M  V30 4226 H 414.075 -0.168609 4.24966 0
M  V30 4227 N 412.39 -1.55475 0.257931 0
M  V30 4228 C 413.638 -1.98813 -0.363009 0
M  V30 4229 C 413.959 -1.14757 -1.57657 0
M  V30 4230 O 413.229 -0.232956 -1.9451 0
M  V30 4231 H 411.809 -0.734308 -0.137113 0
M  V30 4232 H 414.471 -1.9156 0.359281 0
M  V30 4233 H 413.567 -3.04941 -0.664634 0
M  V30 4234 N 413.868 0.0150385 -1.57593 0
M  V30 4235 C 414.815 1.01126 -2.07466 0
M  V30 4236 C 415.785 1.35064 -0.966794 0
M  V30 4237 O 416.97 1.4516 -1.23827 0
M  V30 4238 C 414.11 2.30276 -2.57035 0
M  V30 4239 C 413.223 2.02373 -3.81666 0
M  V30 4240 C 412.358 3.25496 -4.19793 0
M  V30 4241 C 411.397 2.93211 -5.37303 0
M  V30 4242 N 410.534 4.08826 -5.70794 0
M  V30 4243 H 415.374 0.57901 -2.92321 0
M  V30 4244 H 412.911 0.27426 -1.44521 0
M  V30 4245 H 414.869 3.05757 -2.83846 0
M  V30 4246 H 413.499 2.71197 -1.75077 0
M  V30 4247 H 412.551 1.17327 -3.61854 0
M  V30 4248 H 413.863 1.74567 -4.67256 0
M  V30 4249 H 413.017 4.09333 -4.47807 0
M  V30 4250 H 411.756 3.56428 -3.32882 0
M  V30 4251 H 410.761 2.07777 -5.09027 0
M  V30 4252 H 411.986 2.63542 -6.25877 0
M  V30 4253 H 409.932 4.39682 -4.86842 0
M  V30 4254 H 409.849 3.84491 -6.50924 0
M  V30 4255 H 411.117 4.93496 -6.03392 0
M  V30 4256 N 415.346 1.54954 0.287554 0
M  V30 4257 C 416.278 1.83224 1.37701 0
M  V30 4258 C 417.291 0.715898 1.46215 0
M  V30 4259 O 418.48 0.993565 1.48292 0
M  V30 4260 C 415.58 1.96723 2.75959 0
M  V30 4261 C 414.753 3.27253 2.90215 0
M  V30 4262 C 413.812 3.30998 4.09056 0
M  V30 4263 O 412.838 4.04457 4.00503 0
M  V30 4264 N 414.04 2.57353 5.20336 0
M  V30 4265 H 416.805 2.77254 1.138 0
M  V30 4266 H 414.366 1.54694 0.477652 0
M  V30 4267 H 416.358 1.96615 3.5373 0
M  V30 4268 H 414.928 1.09626 2.92747 0
M  V30 4269 H 414.148 3.40022 1.99447 0
M  V30 4270 H 415.436 4.13365 2.96659 0
M  V30 4271 H 414.834 1.97327 5.30169 0
M  V30 4272 H 413.391 2.62984 5.96391 0
M  V30 4273 N 416.824 -0.551391 1.4764 0
M  V30 4274 C 418.072 -1.30572 1.54258 0
M  V30 4275 C 418.393 -1.93877 0.208963 0
M  V30 4276 O 417.663 -1.80234 -0.767619 0
M  V30 4277 H 416.243 -0.484894 0.568231 0
M  V30 4278 H 418.905 -0.643402 1.83974 0
M  V30 4279 H 418.001 -2.09621 2.31226 0
M  V30 4280 N 418.302 -1.35869 -0.798587 0
M  V30 4281 C 419.234 -1.25305 -1.91915 0
M  V30 4282 C 420.247 -0.174548 -1.61862 0
M  V30 4283 O 421.436 -0.428499 -1.73281 0
M  V30 4284 C 418.536 -0.9086 -3.26493 0
M  V30 4285 C 417.709 -2.08711 -3.84394 0
M  V30 4286 C 416.768 -1.71717 -4.97393 0
M  V30 4287 O 415.794 -2.43692 -5.14396 0
M  V30 4288 N 416.996 -0.645473 -5.769 0
M  V30 4289 H 419.761 -2.21849 -2.01502 0
M  V30 4290 H 417.322 -1.29143 -0.976408 0
M  V30 4291 H 419.314 -0.642455 -3.99568 0
M  V30 4292 H 417.884 -0.0325815 -3.12583 0
M  V30 4293 H 417.104 -2.51659 -3.03416 0
M  V30 4294 H 418.392 -2.87468 -4.19809 0
M  V30 4295 H 417.79 -0.047648 -5.6568 0
M  V30 4296 H 416.347 -0.43913 -6.50319 0
M  V30 4297 N 419.78 1.02168 -1.19998 0
M  V30 4298 C 420.69 2.14069 -0.959774 0
M  V30 4299 C 421.706 1.73804 0.082655 0
M  V30 4300 O 422.882 2.01133 -0.103633 0
M  V30 4301 C 419.947 3.42936 -0.509459 0
M  V30 4302 C 419.008 3.97474 -1.62213 0
M  V30 4303 C 418.241 5.2019 -1.19321 0
M  V30 4304 O 418.464 5.70369 -0.0597726 0
M  V30 4305 O 417.398 5.67749 -1.99863 0
M  V30 4306 H 421.224 2.37199 -1.89658 0
M  V30 4307 H 418.809 1.12469 -0.983411 0
M  V30 4308 H 420.691 4.20551 -0.267322 0
M  V30 4309 H 419.366 3.21234 0.398821 0
M  V30 4310 H 418.273 3.21161 -1.9185 0
M  V30 4311 H 419.606 4.23555 -2.50723 0
M  V30 4312 N 421.258 1.00505 1.21394 0
M  V30 4313 C 422.507 0.683159 1.89778 0
M  V30 4314 C 422.82 -0.789471 1.7896 0
M  V30 4315 O 424.026 -1.22344 2.42372 0
M  V30 4316 C 422.482 1.17146 3.40301 0
M  V30 4317 C 422.09 2.67017 3.5973 0
M  V30 4318 C 423.834 0.924461 4.14311 0
M  V30 4319 C 421.741 3.09387 5.04017 0
M  V30 4320 H 420.671 0.25183 0.710702 0
M  V30 4321 H 423.322 1.21622 1.37406 0
M  V30 4322 H 421.704 0.566451 3.91928 0
M  V30 4323 H 422.878 3.32968 3.18542 0
M  V30 4324 H 421.193 2.89732 2.99073 0
M  V30 4325 H 423.79 1.21658 5.20676 0
M  V30 4326 H 424.133 -0.139286 4.16067 0
M  V30 4327 H 424.666 1.49226 3.6875 0
M  V30 4328 H 421.405 4.14989 5.07409 0
M  V30 4329 H 420.925 2.48149 5.46061 0
M  V30 4330 H 422.604 3.01371 5.72525 0
M  V30 4331 N 422.737 -1.36956 0.779787 0
M  V30 4332 C 423.667 -2.32761 0.185651 0
M  V30 4333 C 424.648 -1.56177 -0.673989 0
M  V30 4334 O 425.833 -1.84378 -0.609797 0
M  V30 4335 C 422.963 -3.40418 -0.687964 0
M  V30 4336 C 421.917 -4.27941 0.0710102 0
M  V30 4337 C 421.243 -5.26681 -0.922573 0
M  V30 4338 C 422.543 -5.07006 1.25467 0
M  V30 4339 H 424.237 -2.82698 0.986008 0
M  V30 4340 H 421.783 -1.3592 0.475592 0
M  V30 4341 H 423.736 -4.06423 -1.11348 0
M  V30 4342 H 422.46 -2.89025 -1.52093 0
M  V30 4343 H 421.119 -3.63478 0.47739 0
M  V30 4344 H 420.767 -4.71565 -1.7503 0
M  V30 4345 H 420.467 -5.86103 -0.419237 0
M  V30 4346 H 421.991 -5.9556 -1.34686 0
M  V30 4347 H 423.405 -5.66105 0.905401 0
M  V30 4348 H 421.802 -5.75793 1.69063 0
M  V30 4349 H 422.872 -4.3921 2.05481 0
M  V30 4350 N 424.215 -0.530993 -1.48385 0
M  V30 4351 C 425.631 -0.188919 -1.58478 0
M  V30 4352 C 425.831 1.30786 -1.53288 0
M  V30 4353 O 424.887 2.08619 -1.42248 0
M  V30 4354 C 426.2 -0.792343 -2.90073 0
M  V30 4355 C 427.748 -0.76117 -3.03604 0
M  V30 4356 C 428.223 -1.34319 -4.37861 0
M  V30 4357 N 429.714 -1.3052 -4.44431 0
M  V30 4358 C 430.449 -1.72543 -5.46824 0
M  V30 4359 N 429.945 -2.22299 -6.56167 0
M  V30 4360 N 431.738 -1.63773 -5.37712 0
M  V30 4361 H 423.889 -1.50377 -1.50002 0
M  V30 4362 H 426.152 -0.625559 -0.712306 0
M  V30 4363 H 425.858 -1.84323 -2.99529 0
M  V30 4364 H 425.732 -0.270026 -3.76232 0
M  V30 4365 H 428.119 0.280957 -2.93759 0
M  V30 4366 H 428.2 -1.32097 -2.19053 0
M  V30 4367 H 427.844 -2.38425 -4.4846 0
M  V30 4368 H 427.774 -0.759064 -5.21101 0
M  V30 4369 H 430.265 -0.940973 -3.65997 0
M  V30 4370 H 430.578 -2.52356 -7.30436 0
M  V30 4371 H 428.923 -2.26293 -6.57127 0
M  V30 4372 H 432.114 -1.24698 -4.51185 0
M  V30 4373 H 432.287 -1.96844 -6.17379 0
M  V30 4374 N 425.693 1.55336 -0.266172 0
M  V30 4375 C 426.921 2.03801 0.356756 0
M  V30 4376 C 427.336 1.14485 1.50129 0
M  V30 4377 O 426.693 0.163121 1.8177 0
M  V30 4378 C 426.744 3.51455 0.846281 0
M  V30 4379 O 426.465 4.37371 -0.252663 0
M  V30 4380 C 427.966 4.15767 1.53794 0
M  V30 4381 H 425.186 0.665906 0.0825218 0
M  V30 4382 H 427.73 2.00636 -0.39566 0
M  V30 4383 H 425.885 3.55092 1.54881 0
M  V30 4384 H 426.299 5.24358 0.122173 0
M  V30 4385 H 427.773 5.20714 1.83198 0
M  V30 4386 H 428.25 3.63404 2.46646 0
M  V30 4387 H 428.856 4.16107 0.879488 0
M  V30 4388 N 427.171 -0.0066808 1.57599 0
M  V30 4389 C 428.119 -1.01851 2.09115 0
M  V30 4390 C 429.113 -1.36021 1.00969 0
M  V30 4391 O 430.319 -1.34663 1.19439 0
M  V30 4392 H 426.694 -0.346083 0.667631 0
M  V30 4393 H 428.665 -0.558394 2.93129 0
M  V30 4394 C 427.414 -2.30374 2.60429 0
M  V30 4395 H 426.737 -2.04947 3.43273 0
M  V30 4396 H 428.177 -2.99466 3.00161 0
M  V30 4397 C 426.636 -3.00893 1.51542 0
M  V30 4398 O 427.166 -3.91614 0.894484 0
M  V30 4399 N 425.372 -2.62603 1.2445 0
M  V30 4400 H 424.919 -1.88911 1.75129 0
M  V30 4401 H 424.877 -3.10101 0.518137 0
M  V30 4402 N 428.649 -1.55105 -0.279332 0
M  V30 4403 C 429.597 -1.88333 -1.36505 0
M  V30 4404 C 430.591 -0.759043 -1.51443 0
M  V30 4405 O 431.797 -0.943312 -1.53302 0
M  V30 4406 H 428.172 -0.59766 -0.456406 0
M  V30 4407 H 430.143 -2.79041 -1.05728 0
M  V30 4408 C 428.892 -2.16628 -2.7197 0
M  V30 4409 H 428.215 -3.02624 -2.61264 0
M  V30 4410 H 429.655 -2.43803 -3.46895 0
M  V30 4411 C 428.114 -0.971807 -3.22579 0
M  V30 4412 O 428.644 -0.203228 -4.01186 0
M  V30 4413 N 426.85 -0.771238 -2.80179 0
M  V30 4414 H 426.397 -1.39792 -2.1637 0
M  V30 4415 H 426.355 0.0263667 -3.14389 0
M  V30 4416 N 430.127 0.543554 -1.4793 0
M  V30 4417 C 431.09 1.63156 -1.60975 0
M  V30 4418 C 432.09 1.53346 -0.483899 0
M  V30 4419 O 433.28 1.5726 -0.749339 0
M  V30 4420 C 430.412 3.02743 -1.56716 0
M  V30 4421 H 431.605 1.52934 -2.57975 0
M  V30 4422 H 429.158 0.764557 -1.36324 0
M  V30 4423 H 429.893 3.18484 -0.611418 0
M  V30 4424 H 429.678 3.11272 -2.38438 0
M  V30 4425 H 431.168 3.81871 -1.6901 0
M  V30 4426 N 431.605 1.3629 0.791371 0
M  V30 4427 C 432.852 1.30412 1.54916 0
M  V30 4428 C 433.18 -0.117162 1.94147 0
M  V30 4429 O 432.435 -1.08599 1.62803 0
M  V30 4430 C 432.734 2.17068 2.8393 0
M  V30 4431 C 432.4 3.65645 2.63846 0
M  V30 4432 C 431.062 4.0614 2.58077 0
M  V30 4433 C 433.414 4.59855 2.45322 0
M  V30 4434 C 430.742 5.3899 2.31748 0
M  V30 4435 C 433.094 5.9292 2.2052 0
M  V30 4436 C 431.758 6.32542 2.13183 0
M  V30 4437 H 431.028 0.47721 0.566879 0
M  V30 4438 H 433.675 1.68325 0.913172 0
M  V30 4439 H 431.98 1.72085 3.51986 0
M  V30 4440 H 433.677 2.09846 3.4171 0
M  V30 4441 H 430.267 3.33518 2.69191 0
M  V30 4442 H 434.451 4.29443 2.48782 0
M  V30 4443 H 429.707 5.68672 2.24548 0
M  V30 4444 H 433.881 6.65487 2.05182 0
M  V30 4445 H 431.508 7.35412 1.92544 0
M  V30 4446 N 433.083 -1.0153 1.20538 0
M  V30 4447 C 433.993 -2.13557 0.971113 0
M  V30 4448 C 435.009 -1.73845 -0.0734366 0
M  V30 4449 O 436.185 -2.01075 0.114299 0
M  V30 4450 C 433.25 -3.42661 0.527639 0
M  V30 4451 C 432.311 -3.96608 1.64319 0
M  V30 4452 C 431.544 -5.1955 1.22078 0
M  V30 4453 O 431.767 -5.70329 0.0900198 0
M  V30 4454 O 430.701 -5.66681 2.02871 0
M  V30 4455 H 434.527 -2.3619 1.90913 0
M  V30 4456 H 432.112 -1.11946 0.989362 0
M  V30 4457 H 433.994 -4.20404 0.289621 0
M  V30 4458 H 432.669 -3.21441 -0.381779 0
M  V30 4459 H 431.576 -3.20139 1.93551 0
M  V30 4460 H 432.909 -4.22219 2.52966 0
M  V30 4461 N 434.561 -1.01147 -1.20859 0
M  V30 4462 C 435.791 -0.715872 -1.93801 0
M  V30 4463 C 436.199 0.726592 -1.74692 0
M  V30 4464 O 435.542 1.50397 -1.05482 0
M  V30 4465 C 435.604 -0.965269 -3.46299 0
M  V30 4466 C 435.268 -2.39584 -3.89164 0
M  V30 4467 C 436.265 -3.3764 -3.95342 0
M  V30 4468 C 433.95 -2.73522 -4.21297 0
M  V30 4469 C 435.944 -4.67698 -4.33056 0
M  V30 4470 C 433.631 -4.03794 -4.58687 0
M  V30 4471 C 434.629 -5.00693 -4.64538 0
M  V30 4472 O 434.317 -6.28635 -5.01072 0
M  V30 4473 H 434.049 -0.262524 -0.622942 0
M  V30 4474 H 436.603 -1.35413 -1.54443 0
M  V30 4475 H 434.833 -0.269847 -3.85757 0
M  V30 4476 H 436.522 -0.662051 -4.00464 0
M  V30 4477 H 437.288 -3.12757 -3.70686 0
M  V30 4478 H 433.167 -1.9879 -4.15937 0
M  V30 4479 H 436.711 -5.4333 -4.37537 0
M  V30 4480 H 432.608 -4.28459 -4.82797 0
M  V30 4481 H 433.376 -6.32847 -5.19083 0
M  V30 4482 N 436.039 1.36541 -0.78704 0
M  V30 4483 C 437.002 2.28413 -0.189778 0
M  V30 4484 C 438.002 1.48719 0.611499 0
M  V30 4485 O 439.192 1.68737 0.432842 0
M  V30 4486 C 436.324 3.32824 0.737638 0
M  V30 4487 H 437.517 2.82743 -0.999831 0
M  V30 4488 H 435.07 1.46065 -0.556298 0
M  V30 4489 H 435.805 2.83646 1.57212 0
M  V30 4490 H 435.59 3.91752 0.165044 0
M  V30 4491 H 437.08 4.0144 1.15047 0
M  V30 4492 N 437.518 0.538854 1.48102 0
M  V30 4493 C 438.764 0.00801365 2.02798 0
M  V30 4494 C 439.097 -1.3309 1.41424 0
M  V30 4495 O 438.372 -1.86169 0.563158 0
M  V30 4496 C 438.655 -0.104589 3.59948 0
M  V30 4497 C 438.508 1.26012 4.31788 0
M  V30 4498 C 439.827 -0.827055 4.32259 0
M  V30 4499 H 436.946 0.00438624 0.736987 0
M  V30 4500 H 439.588 0.6976 1.7673 0
M  V30 4501 H 437.738 -0.691893 3.82289 0
M  V30 4502 H 439.41 1.88922 4.2084 0
M  V30 4503 H 437.653 1.83968 3.92859 0
M  V30 4504 H 438.324 1.13424 5.40221 0
M  V30 4505 H 440.8 -0.328578 4.14801 0
M  V30 4506 H 439.676 -0.87476 5.41885 0
M  V30 4507 H 439.937 -1.87927 4.0017 0
M  V30 4508 N 438.996 -1.55193 0.274407 0
M  V30 4509 C 440.244 -1.99187 -0.341902 0
M  V30 4510 C 440.565 -1.16422 -1.56431 0
M  V30 4511 O 439.835 -0.253573 -1.94252 0
M  V30 4512 H 438.415 -0.735721 -0.129317 0
M  V30 4513 H 441.077 -1.91168 0.379578 0
M  V30 4514 H 440.173 -3.05629 -0.632253 0
M  V30 4515 N 440.474 -0.00167713 -1.576 0
M  V30 4516 C 441.72 0.683832 -1.90923 0
M  V30 4517 C 442.053 1.7333 -0.875799 0
M  V30 4518 O 441.328 1.94215 0.10525 0
M  V30 4519 C 441.611 1.32543 -3.3482 0
M  V30 4520 C 441.464 0.287387 -4.48881 0
M  V30 4521 C 442.783 2.25114 -3.78169 0
M  V30 4522 H 439.902 0.247125 -0.694333 0
M  V30 4523 H 442.544 -0.0533149 -1.89925 0
M  V30 4524 H 440.694 1.95372 -3.35801 0
M  V30 4525 H 442.366 -0.341346 -4.60035 0
M  V30 4526 H 440.609 -0.39017 -4.32042 0
M  V30 4527 H 441.28 0.775393 -5.46527 0
M  V30 4528 H 443.756 1.723 -3.7875 0
M  V30 4529 H 442.632 2.66971 -4.79602 0
M  V30 4530 H 442.893 3.13092 -3.12131 0
M  V30 4531 N 441.952 1.55251 0.271103 0
M  V30 4532 C 443.2 1.75599 1.00047 0
M  V30 4533 C 443.521 0.561188 1.8675 0
M  V30 4534 O 442.791 -0.423846 1.9126 0
M  V30 4535 H 441.371 0.647562 0.372387 0
M  V30 4536 H 444.033 1.92656 0.294876 0
M  V30 4537 H 443.129 2.65766 1.6363 0
M  V30 4538 N 443.43 -0.535701 1.48216 0
M  V30 4539 C 444.393 -1.623 1.61838 0
M  V30 4540 C 445.393 -1.53087 0.492024 0
M  V30 4541 O 446.583 -1.5686 0.757668 0
M  V30 4542 C 443.715 -3.01907 1.58319 0
M  V30 4543 H 444.908 -1.51564 2.58783 0
M  V30 4544 H 442.461 -0.757317 1.36727 0
M  V30 4545 H 443.196 -3.18155 0.628299 0
M  V30 4546 H 442.981 -3.10003 2.40085 0
M  V30 4547 H 444.471 -3.80969 1.71033 0
M  V30 4548 N 444.908 -1.36708 -0.784132 0
M  V30 4549 C 445.871 -1.31307 -1.87859 0
M  V30 4550 C 446.871 -0.219654 -1.59293 0
M  V30 4551 O 448.061 -0.47476 -1.67606 0
M  V30 4552 C 445.193 -1.03679 -3.24751 0
M  V30 4553 H 446.386 -2.28647 -1.94064 0
M  V30 4554 H 443.939 -1.21558 -0.98252 0
M  V30 4555 H 444.674 -0.0681936 -3.24228 0
M  V30 4556 H 444.459 -1.82811 -3.46876 0
M  V30 4557 H 445.949 -1.02518 -4.04821 0
M  V30 4558 N 446.386 1.0089 -1.21074 0
M  V30 4559 C 447.611 1.78727 -1.05221 0
M  V30 4560 C 448.036 1.83932 0.393795 0
M  V30 4561 O 447.394 1.28004 1.28393 0
M  V30 4562 C 447.442 3.20665 -1.64944 0
M  V30 4563 O 446.546 4.02632 -0.892273 0
M  V30 4564 H 445.887 0.550973 -0.370574 0
M  V30 4565 H 448.417 1.26847 -1.60534 0
M  V30 4566 H 448.427 3.71352 -1.69002 0
M  V30 4567 H 447.102 3.16191 -2.70177 0
M  V30 4568 H 445.679 3.61207 -0.926492 0
M  V30 4569 N 447.864 1.01787 1.20321 0
M  V30 4570 C 448.812 0.58254 2.25187 0
M  V30 4571 C 449.806 -0.379359 1.65098 0
M  V30 4572 O 451.012 -0.249142 1.78267 0
M  V30 4573 H 447.387 0.170078 0.732514 0
M  V30 4574 H 449.358 1.47788 2.59232 0
M  V30 4575 C 448.107 -0.0620885 3.47645 0
M  V30 4576 H 447.43 0.669069 3.94162 0
M  V30 4577 H 448.87 -0.329784 4.22716 0
M  V30 4578 C 447.329 -1.3053 3.10586 0
M  V30 4579 O 447.859 -2.39848 3.22236 0
M  V30 4580 N 446.065 -1.18988 2.65123 0
M  V30 4581 H 445.612 -0.300341 2.55843 0
M  V30 4582 H 445.57 -2.02267 2.40698 0
M  V30 4583 N 449.342 -1.36122 0.79427 0
M  V30 4584 C 450.753 -1.81646 0.431446 0
M  V30 4585 C 451.104 -1.66043 -1.04518 0
M  V30 4586 O 450.229 -1.1841 -1.8113 0
M  V30 4587 C 450.824 -3.29785 0.776341 0
M  V30 4588 C 449.383 -3.73501 0.466282 0
M  V30 4589 C 448.53 -2.58313 1.00844 0
M  V30 4590 H 451.481 -1.24274 0.986995 0
M  V30 4591 H 451.502 -3.80437 0.0692413 0
M  V30 4592 H 451.014 -3.4111 1.8511 0
M  V30 4593 H 449.115 -3.67733 -0.600245 0
M  V30 4594 H 449.228 -4.68754 0.990288 0
M  V30 4595 H 447.592 -2.5102 0.431406 0
M  V30 4596 H 448.375 -2.72421 2.08906 0
M  V30 4597 N 450.82 -0.546701 -1.47814 0
M  V30 4598 C 451.767 0.206854 -2.29871 0
M  V30 4599 C 452.737 0.918235 -1.38411 0
M  V30 4600 O 453.922 0.915991 -1.67375 0
M  V30 4601 C 451.062 1.23746 -3.22151 0
M  V30 4602 C 450.175 0.533216 -4.28697 0
M  V30 4603 C 449.31 1.5482 -5.08138 0
M  V30 4604 C 448.349 0.828347 -6.06469 0
M  V30 4605 N 447.486 1.78966 -6.78908 0
M  V30 4606 H 452.326 -0.499037 -2.93792 0
M  V30 4607 H 449.863 -0.25793 -1.44821 0
M  V30 4608 H 451.821 1.84746 -3.74065 0
M  V30 4609 H 450.451 1.91151 -2.60117 0
M  V30 4610 H 449.503 -0.191089 -3.7992 0
M  V30 4611 H 450.815 -0.0311987 -4.9879 0
M  V30 4612 H 449.969 2.23202 -5.6415 0
M  V30 4613 H 448.708 2.14652 -4.37922 0
M  V30 4614 H 447.713 0.130539 -5.49645 0
M  V30 4615 H 448.938 0.235907 -6.7869 0
M  V30 4616 H 446.884 2.37675 -6.1143 0
M  V30 4617 H 446.801 1.27712 -7.45135 0
M  V30 4618 H 448.069 2.46496 -7.395 0
M  V30 4619 N 452.299 1.55045 -0.282633 0
M  V30 4620 C 453.229 2.2579 0.595066 0
M  V30 4621 C 454.21 1.25074 1.15284 0
M  V30 4622 O 455.395 1.5381 1.18559 0
M  V30 4623 C 452.525 2.98472 1.77572 0
M  V30 4624 C 451.479 4.0618 1.34914 0
M  V30 4625 C 450.805 4.66477 2.6135 0
M  V30 4626 C 452.105 5.1996 0.493821 0
M  V30 4627 H 453.799 2.994 0.00505653 0
M  V30 4628 H 451.345 1.44 0.000992001 0
M  V30 4629 H 453.298 3.46677 2.39568 0
M  V30 4630 H 452.022 2.2241 2.39168 0
M  V30 4631 H 450.681 3.58797 0.752338 0
M  V30 4632 H 450.329 3.87074 3.2122 0
M  V30 4633 H 450.029 5.39207 2.33516 0
M  V30 4634 H 451.553 5.17435 3.24181 0
M  V30 4635 H 452.967 5.64172 1.01898 0
M  V30 4636 H 451.364 5.99299 0.310047 0
M  V30 4637 H 452.434 4.82462 -0.485593 0
M  V30 4638 N 453.777 0.010035 1.57597 0
M  V30 4639 C 455.023 -0.673697 1.91283 0
M  V30 4640 C 455.356 -1.72863 0.884979 0
M  V30 4641 O 454.631 -1.94268 -0.0949487 0
M  V30 4642 C 454.914 -1.30766 3.35518 0
M  V30 4643 C 454.767 -0.263578 4.49027 0
M  V30 4644 C 456.086 -2.23105 3.79358 0
M  V30 4645 H 453.205 -0.243439 0.695634 0
M  V30 4646 H 455.847 0.0633864 1.89894 0
M  V30 4647 H 453.997 -1.93588 3.36832 0
M  V30 4648 H 455.669 0.365738 4.59848 0
M  V30 4649 H 453.912 0.413077 4.31829 0
M  V30 4650 H 454.583 -0.746398 5.4693 0
M  V30 4651 H 457.059 -1.70289 3.79659 0
M  V30 4652 H 455.935 -2.64424 4.81011 0
M  V30 4653 H 456.196 -3.11433 3.13787 0
M  V30 4654 N 455.255 -1.55392 -0.262866 0
M  V30 4655 C 456.666 -1.67079 -0.833158 0
M  V30 4656 C 457.017 -0.604539 -1.86654 0
M  V30 4657 O 456.142 0.252138 -2.14926 0
M  V30 4658 C 456.737 -3.02891 -1.51797 0
M  V30 4659 C 455.296 -3.16571 -2.03617 0
M  V30 4660 C 454.443 -2.62909 -0.881701 0
M  V30 4661 H 457.394 -1.58652 -0.0389986 0
M  V30 4662 H 457.415 -2.96445 -2.38538 0
M  V30 4663 H 456.927 -3.80473 -0.765619 0
M  V30 4664 H 455.028 -2.43782 -2.81782 0
M  V30 4665 H 455.141 -4.23271 -2.24452 0
M  V30 4666 H 453.505 -2.20324 -1.27786 0
M  V30 4667 H 454.288 -3.43003 -0.14269 0
M  V30 4668 N 456.733 0.527833 -1.48498 0
M  V30 4669 C 457.663 1.64136 -1.66077 0
M  V30 4670 C 458.644 1.62286 -0.509625 0
M  V30 4671 O 459.829 1.79449 -0.742413 0
M  V30 4672 C 456.959 3.02717 -1.70234 0
M  V30 4673 C 455.913 3.19426 -2.8487 0
M  V30 4674 C 455.239 4.5909 -2.74118 0
M  V30 4675 C 456.539 3.01993 -4.26142 0
M  V30 4676 H 458.233 1.4968 -2.593 0
M  V30 4677 H 455.779 0.718654 -1.24785 0
M  V30 4678 H 457.732 3.80491 -1.8112 0
M  V30 4679 H 456.456 3.18201 -0.735911 0
M  V30 4680 H 455.115 2.4407 -2.73542 0
M  V30 4681 H 454.763 4.71413 -1.7544 0
M  V30 4682 H 454.463 4.71214 -3.51042 0
M  V30 4683 H 455.987 5.3896 -2.86974 0
M  V30 4684 H 457.401 3.69558 -4.38292 0
M  V30 4685 H 455.798 3.2561 -5.04082 0
M  V30 4686 H 456.868 1.98396 -4.42456 0
M  V30 4687 N 458.211 1.37122 0.776871 0
M  V30 4688 C 459.158 1.3247 1.88998 0
M  V30 4689 C 460.128 0.191143 1.64997 0
M  V30 4690 O 461.313 0.379683 1.86984 0
M  V30 4691 C 458.453 1.13241 3.25992 0
M  V30 4692 C 457.566 2.35782 3.61982 0
M  V30 4693 C 456.701 2.09465 4.88158 0
M  V30 4694 C 455.74 3.279 5.16864 0
M  V30 4695 N 454.877 3.01167 6.34226 0
M  V30 4696 H 459.717 2.27642 1.9231 0
M  V30 4697 H 457.254 1.13125 0.94027 0
M  V30 4698 H 459.212 1.00115 4.0501 0
M  V30 4699 H 457.842 0.217186 3.22069 0
M  V30 4700 H 456.894 2.59666 2.77989 0
M  V30 4701 H 458.206 3.24125 3.79137 0
M  V30 4702 H 457.36 1.93341 5.75069 0
M  V30 4703 H 456.099 1.18452 4.73097 0
M  V30 4704 H 455.104 3.44569 4.2843 0
M  V30 4705 H 456.329 4.19757 5.33836 0
M  V30 4706 H 454.275 2.12779 6.20533 0
M  V30 4707 H 454.192 3.83052 6.51772 0
M  V30 4708 H 455.46 2.88649 7.24087 0
M  V30 4709 N 459.689 -1.00246 1.21608 0
M  V30 4710 C 460.966 -1.71336 0.943568 0
M  V30 4711 C 461.346 -2.03972 -0.543943 0
M  V30 4712 O 460.694 -1.71545 -1.50946 0
M  V30 4713 C 460.904 -2.97094 1.83128 0
M  V30 4714 C 462.252 -3.70071 2.08165 0
M  V30 4715 O 463.276 -3.07081 1.80498 0
M  V30 4716 O 462.135 -4.83376 2.54971 0
M  V30 4717 H 459.229 -0.747386 0.354039 0
M  V30 4718 H 461.775 -1.05967 1.32549 0
M  V30 4719 H 460.547 -2.69407 2.83788 0
M  V30 4720 H 460.17 -3.70204 1.45034 0
M  V30 4721 N 461.167 -1.02423 -1.1978 0
M  V30 4722 C 462.097 -0.62157 -2.25075 0
M  V30 4723 C 463.078 0.367148 -1.6609 0
M  V30 4724 O 464.263 0.250892 -1.92573 0
M  V30 4725 C 461.393 0.0331826 -3.47284 0
M  V30 4726 C 460.347 -0.877323 -4.18912 0
M  V30 4727 C 459.673 -0.0879296 -5.34628 0
M  V30 4728 C 460.973 -2.18892 -4.74219 0
M  V30 4729 H 462.667 -1.50179 -2.59011 0
M  V30 4730 H 460.213 -0.723547 -1.24502 0
M  V30 4731 H 462.166 0.326488 -4.20133 0
M  V30 4732 H 460.89 0.948164 -3.12534 0
M  V30 4733 H 459.549 -1.15475 -3.47938 0
M  V30 4734 H 459.197 0.828941 -4.96123 0
M  V30 4735 H 458.897 -0.694359 -5.83483 0
M  V30 4736 H 460.421 0.198743 -6.10276 0
M  V30 4737 H 461.835 -1.95746 -5.38847 0
M  V30 4738 H 460.232 -2.74686 -5.33542 0
M  V30 4739 H 461.302 -2.84674 -3.92541 0
M  V30 4740 N 462.645 1.35699 -0.801477 0
M  V30 4741 C 463.922 1.9324 -0.302937 0
M  V30 4742 C 464.302 1.73209 1.20672 0
M  V30 4743 O 463.65 1.09809 2.00385 0
M  V30 4744 C 463.86 3.41728 -0.708747 0
M  V30 4745 C 465.208 4.18868 -0.695328 0
M  V30 4746 O 466.232 3.5022 -0.649971 0
M  V30 4747 O 465.091 5.41342 -0.749081 0
M  V30 4748 H 462.185 0.82331 -0.0780367 0
M  V30 4749 H 464.731 1.44806 -0.884832 0
M  V30 4750 H 463.503 3.50015 -1.74944 0
M  V30 4751 H 463.126 3.97471 -0.101384 0
M  V30 4752 N 464.123 0.554532 1.47522 0
M  V30 4753 C 465.086 -0.184174 2.28459 0
M  V30 4754 C 466.086 -0.845195 1.36796 0
M  V30 4755 O 467.276 -0.701467 1.59452 0
M  V30 4756 C 464.408 -1.26903 3.16399 0
M  V30 4757 H 465.601 0.526751 2.95238 0
M  V30 4758 H 463.154 0.311375 1.53167 0
M  V30 4759 H 463.889 -2.01244 2.54306 0
M  V30 4760 H 463.674 -0.799883 3.83854 0
M  V30 4761 H 465.164 -1.78794 3.77389 0
M  V30 4762 N 465.601 -1.54893 0.290851 0
M  V30 4763 C 467.012 -1.85584 -0.203816 0
M  V30 4764 C 467.363 -1.21285 -1.54222 0
M  V30 4765 O 466.488 -0.506841 -2.10381 0
M  V30 4766 C 467.083 -3.367 -0.376595 0
M  V30 4767 C 465.642 -3.6746 -0.815485 0
M  V30 4768 C 464.789 -2.77178 0.0821087 0
M  V30 4769 H 467.74 -1.50208 0.512175 0
M  V30 4770 H 467.761 -3.60656 -1.21275 0
M  V30 4771 H 467.273 -3.8347 0.59767 0
M  V30 4772 H 465.374 -3.26201 -1.80066 0
M  V30 4773 H 465.487 -4.7478 -0.641905 0
M  V30 4774 H 463.851 -2.50925 -0.436895 0
M  V30 4775 H 464.634 -3.26767 1.05254 0
M  V30 4776 N 467.08 -0.0183926 -1.57589 0
M  V30 4777 C 468.027 0.967022 -2.09565 0
M  V30 4778 C 468.997 1.32983 -0.995225 0
M  V30 4779 O 470.182 1.42501 -1.26878 0
M  V30 4780 C 467.322 2.24772 -2.61861 0
M  V30 4781 C 466.435 1.94232 -3.85873 0
M  V30 4782 C 465.57 3.16518 -4.26603 0
M  V30 4783 C 464.609 2.81748 -5.43401 0
M  V30 4784 N 463.746 3.96626 -5.79338 0
M  V30 4785 H 468.586 0.516874 -2.93483 0
M  V30 4786 H 466.123 0.243544 -1.4507 0
M  V30 4787 H 468.081 2.99667 -2.90268 0
M  V30 4788 H 466.711 2.67423 -1.8079 0
M  V30 4789 H 465.763 1.09625 -3.64262 0
M  V30 4790 H 467.075 1.64616 -4.70853 0
M  V30 4791 H 466.229 3.99743 -4.56389 0
M  V30 4792 H 464.968 3.49286 -3.40368 0
M  V30 4793 H 463.973 1.96933 -5.1332 0
M  V30 4794 H 465.198 2.50207 -6.31327 0
M  V30 4795 H 463.144 4.29257 -4.96059 0
M  V30 4796 H 463.061 3.70598 -6.58933 0
M  V30 4797 H 464.329 4.80586 -6.13724 0
M  V30 4798 N 468.558 1.5553 0.254621 0
M  V30 4799 C 469.804 1.77262 0.985193 0
M  V30 4800 C 470.137 0.582286 1.85265 0
M  V30 4801 O 469.412 -0.419666 1.89919 0
M  V30 4802 C 469.695 3.0881 1.85225 0
M  V30 4803 C 469.548 4.38233 1.0135 0
M  V30 4804 C 470.867 3.3653 2.83612 0
M  V30 4805 H 467.986 0.644906 0.356742 0
M  V30 4806 H 470.628 1.88264 0.256236 0
M  V30 4807 H 468.778 2.99562 2.47376 0
M  V30 4808 H 470.45 4.59463 0.411269 0
M  V30 4809 H 468.693 4.32636 0.317574 0
M  V30 4810 H 469.364 5.26644 1.65379 0
M  V30 4811 H 471.84 3.45691 2.31596 0
M  V30 4812 H 470.716 4.29805 3.41407 0
M  V30 4813 H 470.977 2.57064 3.59681 0
M  V30 4814 N 470.036 -0.519951 1.48776 0
M  V30 4815 C 471.313 -1.28123 1.47797 0
M  V30 4816 C 471.693 -2.10196 0.195157 0
M  V30 4817 O 471.041 -2.13167 -0.822925 0
M  V30 4818 C 471.251 -2.15413 2.74587 0
M  V30 4819 C 472.599 -2.75225 3.23321 0
M  V30 4820 O 473.623 -2.25694 2.75574 0
M  V30 4821 O 472.482 -3.65346 4.06429 0
M  V30 4822 H 469.576 -0.578793 0.590701 0
M  V30 4823 H 472.122 -0.535779 1.6102 0
M  V30 4824 H 470.894 -1.54617 3.59457 0
M  V30 4825 H 470.517 -2.97186 2.64132 0
M  V30 4826 N 471.514 -1.37532 -0.769588 0
M  V30 4827 C 472.477 -1.33292 -1.86456 0
M  V30 4828 C 473.477 -0.236537 -1.59051 0
M  V30 4829 O 474.667 -0.492511 -1.67093 0
M  V30 4830 C 471.799 -1.07118 -3.23633 0
M  V30 4831 H 472.992 -2.30692 -1.91628 0
M  V30 4832 H 470.545 -1.22593 -0.969572 0
M  V30 4833 H 471.28 -0.102578 -3.24138 0
M  V30 4834 H 471.065 -1.86479 -3.44917 0
M  V30 4835 H 472.555 -1.06806 -4.03711 0
M  V30 4836 N 472.992 0.995999 -1.22138 0
M  V30 4837 C 473.955 2.06711 -0.990109 0
M  V30 4838 C 474.955 1.60744 0.0422978 0
M  V30 4839 O 476.145 1.73095 -0.195895 0
M  V30 4840 C 473.277 3.37288 -0.49491 0
M  V30 4841 H 474.47 2.28661 -1.94047 0
M  V30 4842 H 472.023 1.16711 -1.03963 0
M  V30 4843 H 472.758 3.21022 0.459948 0
M  V30 4844 H 472.543 3.71986 -1.23971 0
M  V30 4845 H 474.033 4.16103 -0.353253 0
M  V30 4846 N 474.47 1.03057 1.19235 0
M  V30 4847 C 475.402 0.570932 2.21975 0
M  V30 4848 C 476.415 -0.354088 1.58903 0
M  V30 4849 O 477.604 -0.150211 1.77867 0
M  V30 4850 C 474.704 -0.187152 3.38383 0
M  V30 4851 C 473.877 0.743231 4.31039 0
M  V30 4852 C 472.936 0.0302493 5.26191 0
M  V30 4853 O 471.962 0.657371 5.65391 0
M  V30 4854 N 473.164 -1.23991 5.67104 0
M  V30 4855 H 475.929 1.45456 2.62036 0
M  V30 4856 H 473.49 0.909807 1.33918 0
M  V30 4857 H 475.482 -0.673715 3.99053 0
M  V30 4858 H 474.052 -0.972205 2.97098 0
M  V30 4859 H 473.272 1.40985 3.68126 0
M  V30 4860 H 474.56 1.3755 4.89854 0
M  V30 4861 H 473.958 -1.77011 5.37293 0
M  V30 4862 H 472.515 -1.67093 6.30018 0
M  V30 4863 N 475.948 -1.35272 0.808662 0
M  V30 4864 C 476.878 -2.32315 0.234981 0
M  V30 4865 C 477.859 -1.57572 -0.64071 0
M  V30 4866 O 479.044 -1.8563 -0.570551 0
M  V30 4867 C 476.174 -3.41801 -0.615601 0
M  V30 4868 C 475.128 -4.27694 0.161767 0
M  V30 4869 C 474.454 -5.28519 -0.810649 0
M  V30 4870 C 475.754 -5.04231 1.36193 0
M  V30 4871 H 477.448 -2.80543 1.04575 0
M  V30 4872 H 474.994 -1.3488 0.504315 0
M  V30 4873 H 476.947 -4.08693 -1.02702 0
M  V30 4874 H 475.671 -2.92186 -1.45928 0
M  V30 4875 H 474.33 -3.62384 0.554382 0
M  V30 4876 H 473.978 -4.75171 -1.64988 0
M  V30 4877 H 473.678 -5.8686 -0.294822 0
M  V30 4878 H 475.202 -5.98283 -1.22023 0
M  V30 4879 H 476.616 -5.64058 1.02528 0
M  V30 4880 H 475.013 -5.72077 1.81239 0
M  V30 4881 H 476.083 -4.34753 2.14751 0
M  V30 4882 N 477.426 -0.562348 -1.47226 0
M  V30 4883 C 478.374 0.195476 -2.31777 0
M  V30 4884 C 479.368 0.90433 -1.43242 0
M  V30 4885 O 480.574 0.825031 -1.59979 0
M  V30 4886 H 476.949 0.0819095 -0.747526 0
M  V30 4887 H 478.92 -0.536753 -2.93533 0
M  V30 4888 C 477.669 1.20902 -3.26003 0
M  V30 4889 H 476.992 0.672997 -3.94095 0
M  V30 4890 H 478.432 1.71006 -3.87986 0
M  V30 4891 C 476.891 2.25955 -2.49891 0
M  V30 4892 O 477.421 3.32969 -2.2471 0
M  V30 4893 N 475.627 2.00019 -2.1081 0
M  V30 4894 H 475.174 1.13006 -2.31489 0
M  V30 4895 H 475.132 2.70523 -1.60201 0
M  V30 4896 N 478.904 1.54736 -0.299062 0
M  V30 4897 C 480.129 2.04975 0.316254 0
M  V30 4898 C 480.554 1.17501 1.46885 0
M  V30 4899 O 479.912 0.178678 1.80417 0
M  V30 4900 C 479.96 3.52672 0.751997 0
M  V30 4901 O 479.064 3.68226 1.85697 0
M  V30 4902 H 478.405 0.661126 0.0617175 0
M  V30 4903 H 480.935 1.99805 -0.440341 0
M  V30 4904 H 480.945 3.94488 1.04133 0
M  V30 4905 H 479.62 4.158 -0.0911482 0
M  V30 4906 H 478.197 3.38316 1.56834 0
M  V30 4907 N 480.382 0.0267497 1.57577 0
M  V30 4908 C 481.329 -0.955894 2.10075 0
M  V30 4909 C 482.299 -1.32453 1.00226 0
M  V30 4910 O 483.484 -1.41826 1.27632 0
M  V30 4911 C 480.624 -2.2338 2.6305 0
M  V30 4912 C 479.737 -1.92183 3.86898 0
M  V30 4913 C 478.872 -3.14251 4.28275 0
M  V30 4914 C 477.911 -2.78862 5.44888 0
M  V30 4915 N 477.048 -3.93548 5.81433 0
M  V30 4916 H 481.888 -0.501303 2.93753 0
M  V30 4917 H 479.425 -0.235847 1.45197 0
M  V30 4918 H 481.383 -2.98124 2.91853 0
M  V30 4919 H 480.013 -2.6646 1.82205 0
M  V30 4920 H 479.065 -1.07692 3.64838 0
M  V30 4921 H 480.377 -1.62117 4.7172 0
M  V30 4922 H 479.531 -3.97317 4.58502 0
M  V30 4923 H 478.27 -3.47476 3.42215 0
M  V30 4924 H 477.275 -1.94208 5.14357 0
M  V30 4925 H 478.5 -2.46855 6.32645 0
M  V30 4926 H 476.446 -4.2662 4.98328 0
M  V30 4927 H 476.363 -3.67098 6.6089 0
M  V30 4928 H 477.631 -4.77325 6.16264 0
M  V30 4929 N 481.861 -1.55662 -0.24637 0
M  V30 4930 C 482.808 -1.90361 -1.30504 0
M  V30 4931 C 483.778 -0.757905 -1.47801 0
M  V30 4932 O 484.963 -1.01161 -1.61775 0
M  V30 4933 C 482.103 -2.2042 -2.65535 0
M  V30 4934 C 481.216 -3.47799 -2.56242 0
M  V30 4935 C 480.351 -3.67426 -3.8363 0
M  V30 4936 C 479.39 -4.88403 -3.68956 0
M  V30 4937 N 478.527 -5.04548 -4.88237 0
M  V30 4938 H 483.367 -2.80645 -1.00213 0
M  V30 4939 H 480.904 -1.38924 -0.483577 0
M  V30 4940 H 482.862 -2.35853 -3.44135 0
M  V30 4941 H 481.492 -1.3334 -2.93973 0
M  V30 4942 H 480.544 -3.40694 -1.69208 0
M  V30 4943 H 481.856 -4.36544 -2.4131 0
M  V30 4944 H 481.01 -3.82821 -4.70673 0
M  V30 4945 H 479.749 -2.76914 -4.01459 0
M  V30 4946 H 478.754 -4.72984 -2.80296 0
M  V30 4947 H 479.979 -5.80375 -3.52621 0
M  V30 4948 H 477.925 -4.16974 -5.06427 0
M  V30 4949 H 477.842 -5.87384 -4.75937 0
M  V30 4950 H 479.11 -5.24355 -5.76777 0
M  V30 4951 N 483.339 0.512053 -1.4905 0
M  V30 4952 C 484.585 1.26874 -1.58212 0
M  V30 4953 C 484.918 1.9241 -0.263073 0
M  V30 4954 O 484.193 1.80181 0.732476 0
M  V30 4955 C 484.476 2.34428 -2.73341 0
M  V30 4956 C 484.329 1.73466 -4.15006 0
M  V30 4957 C 485.648 3.36073 -2.84154 0
M  V30 4958 H 482.767 0.459924 -0.575881 0
M  V30 4959 H 485.409 0.568587 -1.81293 0
M  V30 4960 H 483.559 2.94146 -2.53792 0
M  V30 4961 H 485.231 1.17661 -4.46042 0
M  V30 4962 H 483.474 1.03921 -4.21168 0
M  V30 4963 H 484.145 2.51426 -4.91415 0
M  V30 4964 H 486.621 2.86332 -3.01916 0
M  V30 4965 H 485.497 4.08703 -3.66406 0
M  V30 4966 H 485.758 3.97725 -1.93048 0
M  V30 4967 N 484.817 1.37938 0.762283 0
M  V30 4968 C 486.063 1.33866 1.52341 0
M  V30 4969 C 486.396 -0.0738961 1.94059 0
M  V30 4970 O 485.671 -1.03326 1.64785 0
M  V30 4971 C 485.954 2.28644 2.78197 0
M  V30 4972 C 485.807 3.78722 2.42672 0
M  V30 4973 C 487.126 2.21702 3.80179 0
M  V30 4974 H 484.245 0.487593 0.55265 0
M  V30 4975 H 486.887 1.68717 0.873767 0
M  V30 4976 H 485.037 1.99055 3.33631 0
M  V30 4977 H 486.709 4.18948 1.93081 0
M  V30 4978 H 484.952 3.96827 1.75244 0
M  V30 4979 H 485.623 4.40486 3.3268 0
M  V30 4980 H 488.099 2.47805 3.34263 0
M  V30 4981 H 486.975 2.90143 4.65949 0
M  V30 4982 H 487.236 1.21301 4.25133 0
M  V30 4983 N 486.295 -0.989507 1.22664 0
M  V30 4984 C 487.205 -2.11449 1.01619 0
M  V30 4985 C 488.221 -1.73962 -0.036545 0
M  V30 4986 O 489.397 -2.00788 0.156924 0
M  V30 4987 C 486.462 -3.41465 0.600204 0
M  V30 4988 C 485.523 -3.93033 1.72695 0
M  V30 4989 C 484.756 -5.16844 1.33071 0
M  V30 4990 O 484.979 -5.7001 0.210975 0
M  V30 4991 O 483.913 -5.6225 2.14845 0
M  V30 4992 H 487.739 -2.32088 1.9588 0
M  V30 4993 H 485.324 -1.09823 1.01289 0
M  V30 4994 H 487.206 -4.19695 0.37873 0
M  V30 4995 H 485.881 -3.22178 -0.313511 0
M  V30 4996 H 484.788 -3.15961 2.00298 0
M  V30 4997 H 486.121 -4.16758 2.61865 0
M  V30 4998 N 487.773 -1.03688 -1.18687 0
M  V30 4999 C 488.703 -0.645407 -2.24403 0
M  V30 5000 C 489.684 0.349511 -1.66471 0
M  V30 5001 O 490.869 0.230453 -1.92828 0
M  V30 5002 C 487.999 -0.00365337 -3.473 0
M  V30 5003 C 486.953 -0.921705 -4.17958 0
M  V30 5004 C 486.279 -0.144629 -5.34504 0
M  V30 5005 C 487.579 -2.23909 -4.71871 0
M  V30 5006 H 489.273 -1.52917 -2.57404 0
M  V30 5007 H 486.819 -0.736711 -1.23728 0
M  V30 5008 H 488.772 0.281908 -4.20456 0
M  V30 5009 H 487.496 0.914963 -3.13522 0
M  V30 5010 H 486.155 -1.19159 -3.46694 0
M  V30 5011 H 485.803 0.776274 -4.96974 0
M  V30 5012 H 485.503 -0.756206 -5.82714 0
M  V30 5013 H 487.027 0.134004 -6.10453 0
M  V30 5014 H 488.441 -2.0145 -5.36741 0
M  V30 5015 H 486.838 -2.8033 -5.30599 0
M  V30 5016 H 487.908 -2.88822 -3.895 0
M  V30 5017 N 489.251 1.34841 -0.815825 0
M  V30 5018 C 490.184 2.27504 -0.178062 0
M  V30 5019 C 491.162 1.48542 0.661373 0
M  V30 5020 O 492.346 1.77779 0.626653 0
M  V30 5021 C 489.473 3.30246 0.752002 0
M  V30 5022 C 488.519 4.26499 -0.00899172 0
M  V30 5023 S 489.352 5.18169 -1.35134 0
M  V30 5024 C 490.508 6.24449 -0.42596 0
M  V30 5025 H 490.741 2.81248 -0.963684 0
M  V30 5026 H 488.274 1.41781 -0.611355 0
M  V30 5027 H 490.232 3.89933 1.28308 0
M  V30 5028 H 488.893 2.75363 1.51109 0
M  V30 5029 H 488.086 4.99146 0.697766 0
M  V30 5030 H 487.688 3.7103 -0.470396 0
M  V30 5031 H 489.98 6.76404 0.385234 0
M  V30 5032 H 490.923 6.99156 -1.1219 0
M  V30 5033 H 491.331 5.64497 -0.0175461 0
M  V30 5034 N 490.729 0.570148 1.46925 0
M  V30 5035 C 491.957 0.0561966 2.06824 0
M  V30 5036 C 492.372 -1.24326 1.42086 0
M  V30 5037 O 491.729 -1.74882 0.521794 0
M  V30 5038 C 491.78 -0.129517 3.61268 0
M  V30 5039 O 491.501 1.1185 4.23581 0
M  V30 5040 C 493.002 -0.679266 4.38065 0
M  V30 5041 H 490.222 0.0517261 0.669003 0
M  V30 5042 H 492.766 0.787243 1.8874 0
M  V30 5043 H 490.921 -0.810739 3.78822 0
M  V30 5044 H 491.335 0.924375 5.1629 0
M  V30 5045 H 492.809 -0.758445 5.46765 0
M  V30 5046 H 493.286 -1.69346 4.05239 0
M  V30 5047 H 493.892 -0.0333237 4.25287 0
M  V30 5048 N 492.207 -1.54576 0.307264 0
M  V30 5049 C 493.117 -2.27435 -0.57536 0
M  V30 5050 C 494.133 -1.31183 -1.14311 0
M  V30 5051 O 495.309 -1.64175 -1.16656 0
M  V30 5052 C 492.374 -3.00566 -1.72803 0
M  V30 5053 C 491.435 -4.12369 -1.19373 0
M  V30 5054 C 490.668 -4.82003 -2.29147 0
M  V30 5055 O 490.891 -4.51038 -3.49171 0
M  V30 5056 O 489.825 -5.69271 -1.95485 0
M  V30 5057 H 493.651 -3.03696 0.0158558 0
M  V30 5058 H 491.236 -1.49219 0.0735064 0
M  V30 5059 H 493.118 -3.46416 -2.39946 0
M  V30 5060 H 491.793 -2.27195 -2.30574 0
M  V30 5061 H 490.7 -3.70905 -0.487851 0
M  V30 5062 H 492.033 -4.87736 -0.661376 0
M  V30 5063 N 493.685 -0.035106 -1.57561 0
M  V30 5064 C 494.648 0.929819 -2.09492 0
M  V30 5065 C 495.648 1.25026 -1.01119 0
M  V30 5066 O 496.838 1.18961 -1.27255 0
M  V30 5067 C 493.97 2.24457 -2.56577 0
M  V30 5068 H 495.163 0.479935 -2.96035 0
M  V30 5069 H 492.716 0.213033 -1.54841 0
M  V30 5070 H 493.451 2.74061 -1.73382 0
M  V30 5071 H 493.236 2.02508 -3.35757 0
M  V30 5072 H 494.726 2.93607 -2.96959 0
M  V30 5073 N 495.163 1.55791 0.238111 0
M  V30 5074 C 496.411 1.77681 0.963001 0
M  V30 5075 C 496.732 0.600674 1.85518 0
M  V30 5076 O 496.002 -0.383182 1.92116 0
M  V30 5077 H 494.582 0.655315 0.358568 0
M  V30 5078 H 497.244 1.93239 0.253945 0
M  V30 5079 H 496.34 2.69177 1.57956 0
M  V30 5080 N 496.642 -0.504142 1.49319 0
M  V30 5081 C 497.572 -1.61473 1.68667 0
M  V30 5082 C 498.553 -1.61455 0.535378 0
M  V30 5083 O 499.738 -1.78245 0.770868 0
M  V30 5084 C 496.868 -2.99971 1.75028 0
M  V30 5085 C 495.822 -3.14854 2.89916 0
M  V30 5086 C 495.148 -4.54671 2.81387 0
M  V30 5087 C 496.448 -2.95176 4.30893 0
M  V30 5088 H 498.142 -1.45535 2.61648 0
M  V30 5089 H 495.688 -0.698711 1.25913 0
M  V30 5090 H 497.641 -3.77562 1.8715 0
M  V30 5091 H 496.365 -3.1699 0.786441 0
M  V30 5092 H 495.024 -2.39687 2.77391 0
M  V30 5093 H 494.672 -4.68562 1.82917 0
M  V30 5094 H 494.372 -4.6557 3.58494 0
M  V30 5095 H 495.896 -5.34327 2.95512 0
M  V30 5096 H 497.31 -3.62538 4.44116 0
M  V30 5097 H 495.707 -3.17549 5.09198 0
M  V30 5098 H 496.777 -1.91332 4.45556 0
M  V30 5099 N 498.12 -1.38341 -0.754957 0
M  V30 5100 C 499.05 -1.38176 -1.88227 0
M  V30 5101 C 500.031 -0.247873 -1.68284 0
M  V30 5102 O 501.216 -0.45075 -1.88896 0
M  V30 5103 C 498.346 -1.20471 -3.25736 0
M  V30 5104 C 497.3 -2.3105 -3.60278 0
M  V30 5105 C 496.626 -1.98452 -4.96509 0
M  V30 5106 C 497.926 -3.73305 -3.65295 0
M  V30 5107 H 499.62 -2.32512 -1.88622 0
M  V30 5108 H 497.166 -1.1192 -0.906082 0
M  V30 5109 H 499.119 -1.18982 -4.04254 0
M  V30 5110 H 497.843 -0.225965 -3.25817 0
M  V30 5111 H 496.502 -2.31723 -2.84078 0
M  V30 5112 H 496.15 -0.990641 -4.93148 0
M  V30 5113 H 495.85 -2.7251 -5.20588 0
M  V30 5114 H 497.374 -1.98578 -5.77407 0
M  V30 5115 H 498.788 -3.7467 -4.3393 0
M  V30 5116 H 497.185 -4.46557 -4.00883 0
M  V30 5117 H 498.255 -4.05719 -2.65556 0
M  V30 5118 O 499.637 0.895511 -1.34398 0
M  V30 5119 H 500.328 1.53136 -1.18614 0
M  V30 END ATOM
M  V30 BEGIN BOND
M  V30 END BOND
M  V30 END CTAB
M  END
$$$$
