drugbank_target|P21453 Sphingosine 1-phosphate receptor 1 (DB08868; DB09105; DB12371; DB12612)
 OpenBabel12092121043D

  0  0  0     0  0            999 V3000
M  V30 BEGIN CTAB
M  V30 COUNTS 6156 6219 0 0 0
M  V30 BEGIN ATOM
M  V30 1 H -0.908 1.98254 -0.117106 0
M  V30 2 N 0 1.576 0 0
M  V30 3 C 0.933 2.03868 1.02534 0
M  V30 4 C 1.911 0.928543 1.3348 0
M  V30 5 O 3.095 1.19667 1.45644 0
M  V30 6 C 0.222 2.43627 2.35294 0
M  V30 7 C -0.732 3.65373 2.2001 0
M  V30 8 S 0.101 5.13292 1.52614 0
M  V30 9 C 1.257 5.56322 2.86805 0
M  V30 10 H 1.49 2.90518 0.631377 0
M  V30 11 H -0.977 1.52953 0.210867 0
M  V30 12 H 0.981 2.67203 3.11629 0
M  V30 13 H -0.358 1.57376 2.7183 0
M  V30 14 H -1.165 3.90944 3.18086 0
M  V30 15 H -1.563 3.418 1.51819 0
M  V30 16 H 0.729 5.58782 3.83104 0
M  V30 17 H 1.672 6.56266 2.65933 0
M  V30 18 H 2.08 4.83886 2.90714 0
M  V30 19 N 1.4781 -0.272755 1.55222 0
M  V30 20 C 2.7261 -1.00234 1.75492 0
M  V30 21 C 3.0471 -1.8681 0.5592 0
M  V30 22 O 2.3171 -1.91215 -0.425882 0
M  V30 23 H 0.8971 -0.373076 0.647166 0
M  V30 24 H 3.5591 -0.296926 1.92625 0
M  V30 25 H 2.6551 -1.63913 2.65592 0
M  V30 26 N 2.9562 -1.48159 -0.537278 0
M  V30 27 C 4.3672 -1.49429 -1.11928 0
M  V30 28 C 4.7182 -0.26 -1.9447 0
M  V30 29 O 3.8432 0.633489 -2.0692 0
M  V30 30 C 4.4382 -2.70758 -2.03656 0
M  V30 31 C 2.9972 -2.74923 -2.57088 0
M  V30 32 C 2.1442 -2.42835 -1.3389 0
M  V30 33 H 5.0952 -1.55381 -0.322886 0
M  V30 34 H 5.1162 -2.48861 -2.87834 0
M  V30 35 H 4.6282 -3.60575 -1.43553 0
M  V30 36 H 2.7292 -1.89296 -3.20933 0
M  V30 37 H 2.8422 -3.76157 -2.9672 0
M  V30 38 H 1.2062 -1.93836 -1.65226 0
M  V30 39 H 1.9892 -3.34884 -0.755504 0
M  V30 40 N 4.4343 0.785586 -1.36625 0
M  V30 41 C 5.6623 1.57448 -1.3423 0
M  V30 42 C 6.0773 1.88649 0.0755653 0
M  V30 43 O 5.4343 1.50414 1.03354 0
M  V30 44 C 5.4853 2.89316 -2.16745 0
M  V30 45 O 5.2063 2.59459 -3.53005 0
M  V30 46 C 6.7073 3.83606 -2.22174 0
M  V30 47 H 3.9273 0.488226 -0.4603 0
M  V30 48 H 6.4713 0.974733 -1.79775 0
M  V30 49 H 4.6263 3.4575 -1.74745 0
M  V30 50 H 5.0403 3.43804 -3.96105 0
M  V30 51 H 6.5143 4.73181 -2.8426 0
M  V30 52 H 6.9913 4.21734 -1.22627 0
M  V30 53 H 7.5973 3.33104 -2.64427 0
M  V30 54 N 5.9124 1.20967 1.01018 0
M  V30 55 C 7.1374 1.0503 1.78839 0
M  V30 56 C 7.5624 -0.395752 1.8389 0
M  V30 57 O 6.9204 -1.28529 1.27867 0
M  V30 58 C 6.9684 1.64602 3.2084 0
M  V30 59 O 6.0724 0.887988 4.02726 0
M  V30 60 H 5.4134 0.369987 0.551367 0
M  V30 61 H 7.9434 1.60399 1.27018 0
M  V30 62 H 7.9534 1.68607 3.71532 0
M  V30 63 H 6.6284 2.69841 3.16479 0
M  V30 64 H 5.2054 0.922648 3.61305 0
M  V30 65 N 7.3905 -1.2043 1.01659 0
M  V30 66 C 8.6365 -1.90079 0.706963 0
M  V30 67 C 8.9695 -1.78648 -0.761474 0
M  V30 68 O 8.2445 -1.17069 -1.55323 0
M  V30 69 C 8.5275 -3.41469 1.14327 0
M  V30 70 C 8.3805 -3.61833 2.67201 0
M  V30 71 C 9.6995 -4.34261 0.714529 0
M  V30 72 H 6.8185 -0.690254 0.2583 0
M  V30 73 H 9.4605 -1.41826 1.26433 0
M  V30 74 H 7.6105 -3.82696 0.669056 0
M  V30 75 H 9.2825 -3.2986 3.22475 0
M  V30 76 H 7.5255 -3.05304 3.08175 0
M  V30 77 H 8.1965 -4.67955 2.92783 0
M  V30 78 H 10.6725 -4.00682 1.12221 0
M  V30 79 H 9.5485 -5.38806 1.04784 0
M  V30 80 H 9.8095 -4.40431 -0.383799 0
M  V30 81 N 8.8686 -0.792821 -1.36206 0
M  V30 82 C 10.2796 -0.429513 -1.81692 0
M  V30 83 C 10.6306 1.04695 -1.65932 0
M  V30 84 O 9.7556 1.81256 -1.18218 0
M  V30 85 C 10.3506 -0.772831 -3.29868 0
M  V30 86 C 8.9096 -0.462307 -3.7355 0
M  V30 87 C 8.0566 -1.00569 -2.5842 0
M  V30 88 H 11.0076 -0.985672 -1.24379 0
M  V30 89 H 11.0286 -0.0651928 -3.80444 0
M  V30 90 H 10.5406 -1.84747 -3.41307 0
M  V30 91 H 8.6416 0.604158 -3.67669 0
M  V30 92 H 8.7546 -0.985299 -4.68859 0
M  V30 93 H 7.1186 -0.428734 -2.51066 0
M  V30 94 H 7.9016 -2.08616 -2.72643 0
M  V30 95 N 10.3467 1.47872 -0.545128 0
M  V30 96 C 11.2767 2.32661 0.197793 0
M  V30 97 C 12.2577 1.43041 0.920504 0
M  V30 98 O 13.4427 1.71912 0.90333 0
M  V30 99 C 10.5727 3.24569 1.23582 0
M  V30 100 C 9.5267 4.23333 0.630323 0
M  V30 101 C 8.8527 5.0448 1.77211 0
M  V30 102 C 10.1527 5.20704 -0.407974 0
M  V30 103 H 11.8467 2.95024 -0.510045 0
M  V30 104 H 9.3927 1.4187 -0.246731 0
M  V30 105 H 11.3457 3.8272 1.76362 0
M  V30 106 H 10.0697 2.60236 1.97344 0
M  V30 107 H 8.7287 3.6639 0.123922 0
M  V30 108 H 8.3767 4.36561 2.49847 0
M  V30 109 H 8.0767 5.71339 1.37281 0
M  V30 110 H 9.6007 5.65487 2.3034 0
M  V30 111 H 11.0147 5.7329 0.033305 0
M  V30 112 H 9.4117 5.95699 -0.725486 0
M  V30 113 H 10.4817 4.66917 -1.30828 0
M  V30 114 N 11.8248 0.280983 1.55075 0
M  V30 115 C 13.0708 -0.33461 2.00021 0
M  V30 116 C 13.4038 -1.55063 1.16915 0
M  V30 117 O 12.6788 -1.93006 0.240646 0
M  V30 118 C 12.9618 -0.711007 3.53011 0
M  V30 119 C 12.8148 0.512766 4.46868 0
M  V30 120 C 14.1338 -1.54522 4.12081 0
M  V30 121 H 11.2528 -0.120147 0.727141 0
M  V30 122 H 13.8948 0.389097 1.85973 0
M  V30 123 H 12.0448 -1.32761 3.65112 0
M  V30 124 H 13.7168 1.15131 4.46702 0
M  V30 125 H 11.9598 1.14975 4.18286 0
M  V30 126 H 12.6308 0.205556 5.51617 0
M  V30 127 H 15.1068 -1.02442 4.03293 0
M  V30 128 H 13.9828 -1.77739 5.19327 0
M  V30 129 H 14.2438 -2.52813 3.62682 0
M  V30 130 N 13.3029 -1.57598 0.00835791 0
M  V30 131 C 14.2499 -2.08945 -0.980346 0
M  V30 132 C 15.2199 -0.986738 -1.33614 0
M  V30 133 O 16.4049 -1.25968 -1.43306 0
M  V30 134 C 13.5449 -2.60425 -2.26435 0
M  V30 135 C 12.6579 -3.84628 -1.96685 0
M  V30 136 C 11.7929 -4.24579 -3.19228 0
M  V30 137 C 10.8319 -5.41596 -2.85202 0
M  V30 138 N 9.9689 -5.768 -4.00307 0
M  V30 139 H 14.8089 -2.93148 -0.535551 0
M  V30 140 H 12.3459 -1.44912 -0.252776 0
M  V30 141 H 14.3039 -2.88354 -3.01509 0
M  V30 142 H 12.9339 -1.79083 -2.68568 0
M  V30 143 H 11.9859 -3.63556 -1.11942 0
M  V30 144 H 13.2979 -4.69796 -1.67611 0
M  V30 145 H 12.4519 -4.53834 -4.02641 0
M  V30 146 H 11.1909 -3.38137 -3.51447 0
M  V30 147 H 10.1959 -5.12056 -2.00198 0
M  V30 148 H 11.4209 -6.29721 -2.54222 0
M  V30 149 H 9.3669 -4.93316 -4.32407 0
M  V30 150 H 9.2839 -6.5656 -3.74786 0
M  V30 151 H 10.5519 -6.10652 -4.84484 0
M  V30 152 N 14.781 0.264519 -1.55364 0
M  V30 153 C 15.744 1.31046 -1.88042 0
M  V30 154 C 16.744 1.41943 -0.755569 0
M  V30 155 O 17.934 1.40947 -1.02369 0
M  V30 156 C 15.066 2.69067 -2.09323 0
M  V30 157 H 16.259 1.03297 -2.81549 0
M  V30 158 H 13.812 0.502989 -1.47986 0
M  V30 159 H 14.547 3.01982 -1.18226 0
M  V30 160 H 14.332 2.62542 -2.91229 0
M  V30 161 H 15.822 3.44623 -2.35848 0
M  V30 162 N 16.2591 1.48442 0.529413 0
M  V30 163 C 17.2091 1.59407 1.63014 0
M  V30 164 C 18.1931 0.451166 1.54445 0
M  V30 165 O 19.3851 0.702635 1.62456 0
M  V30 166 C 16.5141 1.63746 3.01732 0
M  V30 167 C 15.6001 2.83518 3.15402 0
M  V30 168 N 15.9911 4.07929 2.99045 0
M  V30 169 C 14.2891 2.80862 3.46457 0
M  V30 170 C 14.9901 4.8829 3.16146 0
M  V30 171 N 13.9661 4.21117 3.43746 0
M  V30 172 H 17.7681 2.53343 1.48978 0
M  V30 173 H 15.2821 1.44821 0.734885 0
M  V30 174 H 17.2791 1.69695 3.80801 0
M  V30 175 H 15.9391 0.709264 3.16859 0
M  V30 176 H 16.9501 4.38357 2.75796 0
M  V30 177 H 13.6271 1.97301 3.67938 0
M  V30 178 H 15.0171 5.97028 3.08232 0
M  V30 179 N 17.7372 -0.778329 1.37039 0
M  V30 180 C 19.1532 -1.07796 1.17695 0
M  V30 181 C 19.3532 -2.01498 0.00860115 0
M  V30 182 O 18.4092 -2.43901 -0.653352 0
M  V30 183 C 19.7222 -1.68178 2.49272 0
M  V30 184 C 21.2702 -1.80467 2.55735 0
M  V30 185 C 21.7452 -2.44263 3.87427 0
M  V30 186 N 23.2362 -2.51721 3.88833 0
M  V30 187 C 23.9712 -3.01919 4.87476 0
M  V30 188 N 23.4672 -3.5234 5.96513 0
M  V30 189 N 25.2602 -3.00733 4.74885 0
M  V30 190 H 17.4112 -0.156032 2.11826 0
M  V30 191 H 19.6742 -0.131844 0.938787 0
M  V30 192 H 19.3802 -1.06796 3.35093 0
M  V30 193 H 19.2542 -2.67554 2.65885 0
M  V30 194 H 21.6412 -2.40984 1.70325 0
M  V30 195 H 21.7222 -0.798656 2.43013 0
M  V30 196 H 21.3662 -1.84388 4.73248 0
M  V30 197 H 21.2962 -3.45458 3.9745 0
M  V30 198 H 23.7872 -2.1603 3.10063 0
M  V30 199 H 24.1002 -3.89027 6.67741 0
M  V30 200 H 22.4452 -3.50462 6.00168 0
M  V30 201 H 25.6362 -2.60638 3.88826 0
M  V30 202 H 25.8092 -3.39545 5.51918 0
M  V30 203 N 19.2153 -1.21501 -1.00376 0
M  V30 204 C 20.4403 -1.05977 -1.78279 0
M  V30 205 C 20.8653 0.385994 -1.84097 0
M  V30 206 O 20.2233 1.27849 -1.28547 0
M  V30 207 C 20.2713 -1.66302 -3.19963 0
M  V30 208 O 19.3753 -0.909333 -4.0225 0
M  V30 209 H 18.7163 -0.372906 -0.549397 0
M  V30 210 H 21.2463 -1.6107 -1.26165 0
M  V30 211 H 21.2563 -1.70574 -3.70632 0
M  V30 212 H 19.9313 -2.71515 -3.15043 0
M  V30 213 H 18.5083 -0.941795 -3.60811 0
M  V30 214 N 20.6934 1.19889 -1.02296 0
M  V30 215 C 21.9184 1.9393 -0.735237 0
M  V30 216 C 22.3434 1.74639 0.698782 0
M  V30 217 O 21.7014 1.04481 1.48167 0
M  V30 218 C 21.7494 3.43916 -1.08417 0
M  V30 219 O 20.8534 4.11917 -0.199446 0
M  V30 220 H 20.1944 0.605645 -0.272196 0
M  V30 221 H 22.7244 1.52137 -1.36804 0
M  V30 222 H 22.7344 3.9456 -1.03856 0
M  V30 223 H 21.4094 3.5728 -2.12894 0
M  V30 224 H 19.9864 3.71666 -0.303136 0
M  V30 225 N 22.1715 0.800033 1.35784 0
M  V30 226 C 23.4175 0.377901 1.99248 0
M  V30 227 C 23.7505 -1.05052 1.63333 0
M  V30 228 O 23.0255 -1.72768 0.893385 0
M  V30 229 C 23.3085 0.553922 3.55814 0
M  V30 230 C 23.1615 2.0268 4.01548 0
M  V30 231 C 24.4805 -0.0244802 4.40093 0
M  V30 232 H 21.5995 0.138782 0.723815 0
M  V30 233 H 24.2415 1.00835 1.61035 0
M  V30 234 H 22.3915 0.0172398 3.88496 0
M  V30 235 H 24.0635 2.62536 3.79305 0
M  V30 236 H 22.3065 2.5256 3.52698 0
M  V30 237 H 22.9775 2.10087 5.10458 0
M  V30 238 H 25.4535 0.433775 4.13833 0
M  V30 239 H 24.3295 0.128637 5.48749 0
M  V30 240 H 24.5905 -1.11758 4.27741 0
M  V30 241 N 23.6496 -1.47581 0.552962 0
M  V30 242 C 24.8746 -2.07378 0.0300593 0
M  V30 243 C 25.2996 -1.40355 -1.25229 0
M  V30 244 O 24.6576 -0.477099 -1.7491 0
M  V30 245 C 24.7056 -3.60274 -0.153231 0
M  V30 246 O 23.8096 -3.94041 -1.21678 0
M  V30 247 H 23.1506 -0.662158 0.0494182 0
M  V30 248 H 25.6806 -1.89662 0.767434 0
M  V30 249 H 25.6906 -4.0633 -0.368761 0
M  V30 250 H 24.3656 -4.08455 0.783397 0
M  V30 251 H 22.9426 -3.59735 -0.982079 0
M  V30 252 N 25.1277 -0.289203 -1.54924 0
M  V30 253 C 26.4047 0.376032 -1.91951 0
M  V30 254 C 26.7847 1.72622 -1.21511 0
M  V30 255 O 26.1327 2.25853 -0.346767 0
M  V30 256 C 26.3427 0.502378 -3.45365 0
M  V30 257 C 27.6907 0.778741 -4.17398 0
M  V30 258 O 28.7147 0.586647 -3.51336 0
M  V30 259 O 27.5737 1.14698 -5.34328 0
M  V30 260 H 24.6677 0.208167 -0.800372 0
M  V30 261 H 27.2137 -0.336394 -1.66332 0
M  V30 262 H 25.9857 -0.447255 -3.88736 0
M  V30 263 H 25.6087 1.26373 -3.76982 0
M  V30 264 N 26.6058 1.57591 -0.0167156 0
M  V30 265 C 27.8358 1.95292 0.674149 0
M  V30 266 C 28.2438 0.891097 1.66901 0
M  V30 267 O 27.5868 -0.136908 1.83189 0
M  V30 268 C 27.6488 3.29072 1.44747 0
M  V30 269 C 27.3128 4.52879 0.612331 0
M  V30 270 C 28.3098 5.1979 -0.107126 0
M  V30 271 C 25.9948 4.99242 0.553381 0
M  V30 272 C 27.9888 6.31375 -0.874339 0
M  V30 273 C 25.6758 6.10713 -0.217546 0
M  V30 274 C 26.6738 6.76637 -0.930123 0
M  V30 275 O 26.3618 7.85969 -1.68844 0
M  V30 276 H 26.0938 0.648275 0.191615 0
M  V30 277 H 28.6478 2.05284 -0.0690148 0
M  V30 278 H 26.8778 3.15535 2.2355 0
M  V30 279 H 28.5668 3.51764 2.02526 0
M  V30 280 H 29.3328 4.84948 -0.0708392 0
M  V30 281 H 25.2118 4.47744 1.09757 0
M  V30 282 H 28.7558 6.82764 -1.43106 0
M  V30 283 H 24.6528 6.44994 -0.255593 0
M  V30 284 H 25.4208 8.02571 -1.6069 0
M  V30 285 N 28.0839 -0.256276 1.55502 0
M  V30 286 C 29.3299 -0.987079 1.77157 0
M  V30 287 C 29.6629 -1.85327 0.580315 0
M  V30 288 O 28.9379 -1.89874 -0.421686 0
M  V30 289 C 29.2209 -1.85553 3.08613 0
M  V30 290 C 29.0739 -1.01816 4.38125 0
M  V30 291 C 30.3929 -2.8397 3.36228 0
M  V30 292 H 27.5119 -0.357428 0.644526 0
M  V30 293 H 30.1539 -0.258239 1.88237 0
M  V30 294 H 28.3039 -2.47695 2.99298 0
M  V30 295 H 29.9759 -0.416159 4.59419 0
M  V30 296 H 28.2189 -0.322178 4.32602 0
M  V30 297 H 28.8899 -1.65939 5.26468 0
M  V30 298 H 31.3659 -2.31964 3.45445 0
M  V30 299 H 30.2419 -3.41864 4.29442 0
M  V30 300 H 30.5029 -3.59955 2.56681 0
M  V30 301 N 29.562 -1.4872 -0.521534 0
M  V30 302 C 30.51 -1.64328 -1.64618 0
M  V30 303 C 31.504 -0.50953 -1.61555 0
M  V30 304 O 32.71 -0.688525 -1.66311 0
M  V30 305 H 29.085 -0.517805 -0.545328 0
M  V30 306 H 31.056 -2.58767 -1.48601 0
M  V30 307 C 29.805 -1.70805 -3.02855 0
M  V30 308 H 29.128 -2.5741 -3.05909 0
M  V30 309 H 30.568 -1.85766 -3.81139 0
M  V30 310 C 29.027 -0.448479 -3.33902 0
M  V30 311 O 29.557 0.434928 -3.99339 0
M  V30 312 N 27.763 -0.317616 -2.88859 0
M  V30 313 H 27.31 -1.03748 -2.35784 0
M  V30 314 H 27.268 0.524113 -3.10001 0
M  V30 315 N 31.0401 0.771051 -1.3745 0
M  V30 316 C 32.2701 1.55789 -1.35696 0
M  V30 317 C 32.6781 1.89107 0.0594523 0
M  V30 318 O 32.0211 1.51984 1.03183 0
M  V30 319 C 32.0831 2.89515 -2.13123 0
M  V30 320 C 31.7471 2.78829 -3.62082 0
M  V30 321 C 32.7441 2.49812 -4.5595 0
M  V30 322 C 30.4291 2.9683 -4.05213 0
M  V30 323 C 32.4231 2.38923 -5.90927 0
M  V30 324 C 30.1101 2.85562 -5.40276 0
M  V30 325 C 31.1081 2.56649 -6.32946 0
M  V30 326 O 30.7961 2.45408 -7.65526 0
M  V30 327 H 30.5281 0.489257 -0.466481 0
M  V30 328 H 33.0821 0.963446 -1.81403 0
M  V30 329 H 31.3121 3.51081 -1.62107 0
M  V30 330 H 33.0011 3.50915 -2.03994 0
M  V30 331 H 33.7671 2.3559 -4.23937 0
M  V30 332 H 29.6461 3.18335 -3.33442 0
M  V30 333 H 33.1901 2.16277 -6.63227 0
M  V30 334 H 29.0871 2.99351 -5.71891 0
M  V30 335 H 29.8551 2.60753 -7.75855 0
M  V30 336 N 32.5182 1.22032 0.997298 0
M  V30 337 C 33.7952 0.950823 1.70935 0
M  V30 338 C 34.1752 -0.535292 2.042 0
M  V30 339 O 33.5232 -1.50217 1.72183 0
M  V30 340 C 33.7332 1.84386 2.96315 0
M  V30 341 C 35.0812 2.09732 3.69185 0
M  V30 342 O 36.1052 1.81798 3.06314 0
M  V30 343 O 34.9642 2.57018 4.82291 0
M  V30 344 H 32.0582 0.357204 0.745878 0
M  V30 345 H 34.6042 1.32997 1.05404 0
M  V30 346 H 33.3762 2.84928 2.68201 0
M  V30 347 H 32.9992 1.46602 3.69586 0
M  V30 348 N 33.9963 -1.19345 1.0293 0
M  V30 349 C 35.2453 -1.88363 0.721256 0
M  V30 350 C 35.5583 -1.80514 -0.753254 0
M  V30 351 O 36.7643 -2.44788 -1.17436 0
M  V30 352 C 35.2203 -3.37872 1.23978 0
M  V30 353 C 34.8283 -3.54278 2.74211 0
M  V30 354 C 36.5723 -4.12365 1.00775 0
M  V30 355 C 34.4793 -4.97682 3.19479 0
M  V30 356 H 33.4093 -0.705484 0.266098 0
M  V30 357 H 36.0603 -1.34928 1.24365 0
M  V30 358 H 34.4423 -3.90707 0.6453 0
M  V30 359 H 35.6163 -3.11769 3.39318 0
M  V30 360 H 33.9313 -2.93174 2.95699 0
M  V30 361 H 36.5283 -5.18119 1.32123 0
M  V30 362 H 36.8713 -4.16263 -0.0554308 0
M  V30 363 H 37.4043 -3.65668 1.56625 0
M  V30 364 H 34.1433 -4.98945 4.25128 0
M  V30 365 H 33.6633 -5.4095 2.591 0
M  V30 366 H 35.3423 -5.66337 3.12845 0
M  V30 367 N 35.4744 -0.807222 -1.35358 0
M  V30 368 C 36.7234 -0.384376 -1.98004 0
M  V30 369 C 37.0364 1.0543 -1.64754 0
M  V30 370 O 38.2424 1.58029 -2.20769 0
M  V30 371 C 36.6984 -0.636326 -3.5423 0
M  V30 372 C 36.3064 -2.08759 -3.96388 0
M  V30 373 C 38.0504 -0.278869 -4.23583 0
M  V30 374 C 35.9574 -2.28525 -5.45463 0
M  V30 375 H 34.8874 -0.139986 -0.740891 0
M  V30 376 H 37.5384 -0.991369 -1.54415 0
M  V30 377 H 35.9204 0.0406256 -3.95979 0
M  V30 378 H 37.0944 -2.8024 -3.6579 0
M  V30 379 H 35.4094 -2.40497 -3.39926 0
M  V30 380 H 38.0064 -0.404599 -5.33167 0
M  V30 381 H 38.3494 0.775012 -4.09022 0
M  V30 382 H 38.8824 -0.909764 -3.87257 0
M  V30 383 H 35.6214 -3.32361 -5.64992 0
M  V30 384 H 35.1414 -1.61569 -5.77629 0
M  V30 385 H 36.8204 -2.10109 -6.11934 0
M  V30 386 N 36.9525 1.47285 -0.560781 0
M  V30 387 C 38.1985 2.02764 -0.0381184 0
M  V30 388 C 38.5315 1.43384 1.30976 0
M  V30 389 O 37.8065 0.590733 1.85312 0
M  V30 390 C 38.0895 3.60064 0.0511427 0
M  V30 391 C 37.9425 4.2987 -1.32408 0
M  V30 392 C 39.2615 4.33439 0.762795 0
M  V30 393 H 36.3805 0.736841 -0.0153264 0
M  V30 394 H 39.0225 1.75675 -0.723759 0
M  V30 395 H 37.1725 3.83274 0.635065 0
M  V30 396 H 38.8445 4.17989 -1.95148 0
M  V30 397 H 37.0875 3.90085 -1.8978 0
M  V30 398 H 37.7585 5.38478 -1.21431 0
M  V30 399 H 40.2345 4.15243 0.266965 0
M  V30 400 H 39.1105 5.43124 0.794221 0
M  V30 401 H 39.3715 4.02915 1.81966 0
M  V30 402 N 38.4306 0.297415 1.54768 0
M  V30 403 C 39.8466 -0.0560823 1.59501 0
M  V30 404 C 40.0466 -1.52725 1.31444 0
M  V30 405 O 39.1026 -2.27947 1.08611 0
M  V30 406 C 40.4156 0.338631 2.98787 0
M  V30 407 C 41.9636 0.287097 3.11681 0
M  V30 408 C 42.4386 0.656579 4.53269 0
M  V30 409 N 43.9296 0.608977 4.59179 0
M  V30 410 C 44.6646 0.867385 5.66802 0
M  V30 411 N 44.1606 1.19157 6.82476 0
M  V30 412 N 45.9536 0.794687 5.56454 0
M  V30 413 H 38.1046 1.25624 1.71267 0
M  V30 414 H 40.3676 0.509057 0.799728 0
M  V30 415 H 40.0736 1.36263 3.2423 0
M  V30 416 H 39.9476 -0.309508 3.75928 0
M  V30 417 H 42.3346 -0.727649 2.85988 0
M  V30 418 H 42.4156 0.969809 2.36703 0
M  V30 419 H 42.0596 1.66912 4.7969 0
M  V30 420 H 41.9896 -0.0481649 5.26578 0
M  V30 421 H 44.4806 0.369198 3.76092 0
M  V30 422 H 44.7936 1.37482 7.60473 0
M  V30 423 H 43.1386 1.22958 6.84037 0
M  V30 424 H 46.3296 0.541098 4.64962 0
M  V30 425 H 46.5026 0.999445 6.40246 0
M  V30 426 N 39.9087 -1.5758 0.0250728 0
M  V30 427 C 40.8587 -2.06468 -0.967201 0
M  V30 428 C 41.8427 -0.964376 -1.28797 0
M  V30 429 O 43.0347 -1.22797 -1.27475 0
M  V30 430 C 40.1637 -2.59203 -2.25097 0
M  V30 431 C 39.2497 -3.76157 -1.95874 0
M  V30 432 N 39.6407 -4.86919 -1.36905 0
M  V30 433 C 37.9387 -3.84566 -2.25887 0
M  V30 434 C 38.6397 -5.68172 -1.24724 0
M  V30 435 N 37.6157 -5.14953 -1.74138 0
M  V30 436 H 41.4177 -2.89508 -0.506176 0
M  V30 437 H 38.9317 -1.61399 -0.18004 0
M  V30 438 H 40.9287 -2.92517 -2.97052 0
M  V30 439 H 39.5887 -1.77592 -2.71829 0
M  V30 440 H 40.5997 -5.07256 -1.04459 0
M  V30 441 H 37.2767 -3.13854 -2.75321 0
M  V30 442 H 38.6667 -6.67221 -0.791605 0
M  V30 443 N 41.3868 0.248026 -1.55636 0
M  V30 444 C 42.6168 0.992367 -1.81206 0
M  V30 445 C 43.0248 1.7949 -0.598324 0
M  V30 446 O 42.3678 1.78292 0.442434 0
M  V30 447 C 42.4298 1.97926 -3.00109 0
M  V30 448 C 42.0938 1.36377 -4.36177 0
M  V30 449 C 43.0908 0.76682 -5.14214 0
M  V30 450 C 40.7758 1.38347 -4.82872 0
M  V30 451 C 42.7698 0.197778 -6.37093 0
M  V30 452 C 40.4568 0.810574 -6.057 0
M  V30 453 C 41.4548 0.218754 -6.8265 0
M  V30 454 O 41.1428 -0.345298 -8.03158 0
M  V30 455 H 40.8748 0.297704 -0.606917 0
M  V30 456 H 43.4288 0.276517 -2.0353 0
M  V30 457 H 41.6588 2.73339 -2.73538 0
M  V30 458 H 43.3478 2.58694 -3.12781 0
M  V30 459 H 44.1138 0.744114 -4.79258 0
M  V30 460 H 39.9928 1.8335 -4.2297 0
M  V30 461 H 43.5368 -0.264788 -6.97097 0
M  V30 462 H 39.4338 0.830604 -6.40134 0
M  V30 463 H 40.2018 -0.237055 -8.18157 0
M  V30 464 N 42.8649 1.48995 0.513639 0
M  V30 465 C 43.8129 1.65199 1.63744 0
M  V30 466 C 44.8069 0.51809 1.61283 0
M  V30 467 O 46.0129 0.697335 1.65943 0
M  V30 468 H 42.3879 0.52069 0.542574 0
M  V30 469 H 44.3589 2.59552 1.47226 0
M  V30 470 C 43.1079 1.72409 3.01945 0
M  V30 471 H 42.4309 2.59029 3.04539 0
M  V30 472 H 43.8709 1.87785 3.80148 0
M  V30 473 C 42.3299 0.46618 3.33659 0
M  V30 474 O 42.8599 -0.413744 3.99564 0
M  V30 475 N 41.0659 0.332931 2.88687 0
M  V30 476 H 40.6129 1.04996 2.35231 0
M  V30 477 H 40.5709 -0.507665 3.10274 0
M  V30 478 N 44.343 -0.763751 1.37857 0
M  V30 479 C 45.573 -1.55067 1.3652 0
M  V30 480 C 45.981 -1.89135 -0.0494227 0
M  V30 481 O 45.324 -1.52529 -1.02375 0
M  V30 482 C 45.386 -2.8838 2.14656 0
M  V30 483 C 45.05 -2.76905 3.63555 0
M  V30 484 C 46.047 -2.4739 4.57268 0
M  V30 485 C 43.732 -2.94676 4.06781 0
M  V30 486 C 45.726 -2.35786 5.92186 0
M  V30 487 C 43.413 -2.82692 5.41782 0
M  V30 488 C 44.411 -2.53289 6.34298 0
M  V30 489 O 44.099 -2.41345 7.66817 0
M  V30 490 H 43.831 -0.486776 0.469069 0
M  V30 491 H 46.385 -0.953812 1.81911 0
M  V30 492 H 44.615 -3.50217 1.63967 0
M  V30 493 H 46.304 -3.49828 2.05852 0
M  V30 494 H 47.07 -2.33339 4.2518 0
M  V30 495 H 42.949 -3.16563 3.35126 0
M  V30 496 H 46.493 -2.12757 6.64365 0
M  V30 497 H 42.39 -2.96314 5.7347 0
M  V30 498 H 43.158 -2.56634 7.77226 0
M  V30 499 N 45.8211 -1.22559 -0.990812 0
M  V30 500 C 47.0491 -1.07779 -1.76611 0
M  V30 501 C 47.4641 0.371513 -1.85109 0
M  V30 502 O 46.8211 1.25737 -1.32274 0
M  V30 503 C 46.8721 -1.68512 -3.19822 0
M  V30 504 O 46.5931 -3.07774 -3.1178 0
M  V30 505 C 48.0941 -1.59035 -4.13791 0
M  V30 506 H 45.3141 -0.377729 -0.554583 0
M  V30 507 H 47.8581 -1.62195 -1.24551 0
M  V30 508 H 46.0131 -1.18154 -3.68942 0
M  V30 509 H 46.4271 -3.37062 -4.01858 0
M  V30 510 H 47.9011 -2.0625 -5.1202 0
M  V30 511 H 48.3781 -0.547273 -4.35777 0
M  V30 512 H 48.9841 -2.08709 -3.70568 0
M  V30 513 N 47.2992 1.18797 -1.03562 0
M  V30 514 C 48.5472 1.88278 -0.734569 0
M  V30 515 C 48.8682 1.8043 0.739586 0
M  V30 516 O 48.1382 1.21925 1.53333 0
M  V30 517 H 46.7182 0.696991 -0.268725 0
M  V30 518 H 49.3802 1.44192 -1.31129 0
M  V30 519 H 48.4762 2.94443 -1.03489 0
M  V30 520 N 48.7773 0.814389 1.34928 0
M  V30 521 C 49.7243 0.22822 2.29669 0
M  V30 522 C 50.6943 -0.642164 1.53184 0
M  V30 523 O 51.8793 -0.585605 1.81591 0
M  V30 524 C 49.0193 -0.61089 3.3965 0
M  V30 525 C 48.1323 0.280792 4.31086 0
M  V30 526 C 47.2673 -0.567067 5.28165 0
M  V30 527 C 46.3063 0.324531 6.11239 0
M  V30 528 N 45.4433 -0.483756 7.00431 0
M  V30 529 H 50.2833 1.04153 2.79206 0
M  V30 530 H 47.8203 0.525133 1.37407 0
M  V30 531 H 49.7783 -1.11263 4.0209 0
M  V30 532 H 48.4083 -1.38939 2.91369 0
M  V30 533 H 47.4603 0.900688 3.69583 0
M  V30 534 H 48.7723 0.966723 4.89342 0
M  V30 535 H 47.9263 -1.13363 5.96015 0
M  V30 536 H 46.6653 -1.28654 4.70425 0
M  V30 537 H 45.6703 0.903298 5.42329 0
M  V30 538 H 46.8953 1.04198 6.71059 0
M  V30 539 H 44.8413 -1.18706 6.45171 0
M  V30 540 H 44.7583 0.143965 7.55863 0
M  V30 541 H 46.0263 -1.03334 7.7262 0
M  V30 542 N 50.2554 -1.46986 0.568584 0
M  V30 543 C 51.1854 -2.32946 -0.160753 0
M  V30 544 C 52.1664 -1.44487 -0.897631 0
M  V30 545 O 53.3514 -1.73327 -0.875867 0
M  V30 546 C 50.4814 -3.26494 -1.18403 0
M  V30 547 C 49.4354 -4.24282 -0.562895 0
M  V30 548 C 48.7614 -5.07236 -1.69163 0
M  V30 549 C 50.0614 -5.19989 0.490761 0
M  V30 550 H 51.7554 -2.94175 0.556916 0
M  V30 551 H 49.3014 -1.4146 0.26927 0
M  V30 552 H 51.2544 -3.85477 -1.70251 0
M  V30 553 H 49.9784 -2.63343 -1.93179 0
M  V30 554 H 48.6374 -3.66541 -0.0656164 0
M  V30 555 H 48.2854 -4.4048 -2.42871 0
M  V30 556 H 47.9854 -5.7345 -1.28174 0
M  V30 557 H 49.5094 -5.6908 -2.21314 0
M  V30 558 H 50.9234 -5.73271 0.0579047 0
M  V30 559 H 49.3204 -5.94469 0.820165 0
M  V30 560 H 50.3904 -4.64777 1.3824 0
M  V30 561 N 51.7335 -0.305618 -1.54608 0
M  V30 562 C 52.6815 0.584119 -2.25146 0
M  V30 563 C 53.6755 1.13326 -1.25911 0
M  V30 564 O 54.8815 1.08337 -1.43747 0
M  V30 565 H 51.2565 0.206983 -0.722954 0
M  V30 566 H 53.2275 -0.033291 -2.98381 0
M  V30 567 C 51.9765 1.74225 -3.009 0
M  V30 568 H 51.2995 1.32892 -3.77067 0
M  V30 569 H 52.7395 2.34077 -3.53531 0
M  V30 570 C 51.1985 2.64914 -2.0814 0
M  V30 571 O 51.7285 3.66137 -1.65246 0
M  V30 572 N 49.9345 2.3275 -1.74 0
M  V30 573 H 49.4815 1.50479 -2.09078 0
M  V30 574 H 49.4395 2.93694 -1.12211 0
M  V30 575 N 53.2116 1.57565 -0.0334293 0
M  V30 576 C 54.4606 1.91155 0.643639 0
M  V30 577 C 54.7736 0.91192 1.73042 0
M  V30 578 O 55.9796 1.13923 2.46442 0
M  V30 579 C 54.4356 3.39443 1.1961 0
M  V30 580 C 54.0436 4.47774 0.142381 0
M  V30 581 C 55.7876 3.82094 1.84944 0
M  V30 582 C 53.6946 5.87162 0.706727 0
M  V30 583 H 52.6246 0.713368 0.244176 0
M  V30 584 H 55.2756 1.8323 -0.0994323 0
M  V30 585 H 53.6576 3.42313 1.99092 0
M  V30 586 H 54.8316 4.56469 -0.630296 0
M  V30 587 H 53.1466 4.14352 -0.412446 0
M  V30 588 H 55.7436 4.83591 2.2813 0
M  V30 589 H 56.0866 3.17386 2.69392 0
M  V30 590 H 56.6196 3.81665 1.12145 0
M  V30 591 H 53.3586 6.55424 -0.0997178 0
M  V30 592 H 52.8786 5.82064 1.44779 0
M  V30 593 H 54.5576 6.35866 1.19514 0
M  V30 594 N 54.6897 -0.239769 1.55765 0
M  V30 595 C 55.9147 -0.988373 1.82335 0
M  V30 596 C 56.3397 -1.77886 0.611421 0
M  V30 597 O 55.6977 -1.75889 -0.439639 0
M  V30 598 C 55.7457 -1.89627 3.06715 0
M  V30 599 O 54.8497 -2.98904 2.84131 0
M  V30 600 H 54.1907 -0.280858 0.601677 0
M  V30 601 H 56.7207 -0.258597 2.02959 0
M  V30 602 H 56.7307 -2.30957 3.36338 0
M  V30 603 H 55.4057 -1.31511 3.9456 0
M  V30 604 H 53.9827 -2.61651 2.65694 0
M  V30 605 N 56.1678 -1.49265 -0.50573 0
M  V30 606 C 57.1308 -1.65075 -1.59006 0
M  V30 607 C 58.1308 -0.522768 -1.52065 0
M  V30 608 O 59.3208 -0.789117 -1.55302 0
M  V30 609 C 56.4528 -1.64369 -2.98656 0
M  V30 610 H 57.6458 -2.61784 -1.46319 0
M  V30 611 H 55.1988 -1.38226 -0.729616 0
M  V30 612 H 55.9338 -0.692272 -3.16825 0
M  V30 613 H 55.7188 -2.46282 -3.05103 0
M  V30 614 H 57.2088 -1.78674 -3.77446 0
M  V30 615 N 57.6459 0.756429 -1.3826 0
M  V30 616 C 58.9229 1.50584 -1.24835 0
M  V30 617 C 59.3029 2.10556 0.151485 0
M  V30 618 O 58.6509 1.96825 1.1607 0
M  V30 619 C 58.8609 2.57448 -2.3563 0
M  V30 620 C 60.2089 3.24429 -2.73917 0
M  V30 621 O 61.2329 2.67751 -2.34921 0
M  V30 622 O 60.0919 4.26937 -3.41156 0
M  V30 623 H 57.1859 0.667664 -0.48801 0
M  V30 624 H 59.7319 0.792083 -1.5008 0
M  V30 625 H 58.5039 2.11362 -3.29305 0
M  V30 626 H 58.1269 3.36408 -2.11933 0
M  V30 627 N 59.124 1.23083 0.984299 0
M  V30 628 C 60.071 1.00854 2.07598 0
M  V30 629 C 61.041 -0.0726709 1.65941 0
M  V30 630 O 62.226 0.0786535 1.90638 0
M  V30 631 C 59.366 0.601645 3.39815 0
M  V30 632 C 58.479 1.75456 3.94765 0
M  V30 633 C 57.614 1.29482 5.15177 0
M  V30 634 C 56.653 2.41873 5.62284 0
M  V30 635 N 55.79 1.96885 6.73929 0
M  V30 636 H 60.63 1.943 2.25946 0
M  V30 637 H 58.167 0.968001 1.10762 0
M  V30 638 H 60.125 0.346854 4.15756 0
M  V30 639 H 58.755 -0.295803 3.21442 0
M  V30 640 H 57.807 2.12346 3.15616 0
M  V30 641 H 59.119 2.59965 4.25699 0
M  V30 642 H 58.273 0.997923 5.98437 0
M  V30 643 H 57.012 0.420046 4.85888 0
M  V30 644 H 56.017 2.72342 4.77608 0
M  V30 645 H 57.242 3.29881 5.93595 0
M  V30 646 H 55.188 1.11782 6.46406 0
M  V30 647 H 55.105 2.74956 7.04227 0
M  V30 648 H 56.373 1.70289 7.60672 0
M  V30 649 N 60.6021 -1.18246 1.0419 0
M  V30 650 C 61.5121 -2.25574 0.644476 0
M  V30 651 C 62.5281 -1.70845 -0.329826 0
M  V30 652 O 63.7041 -2.00554 -0.184443 0
M  V30 653 C 60.7691 -3.46697 0.014877 0
M  V30 654 C 59.8301 -4.16554 1.03834 0
M  V30 655 C 59.0631 -5.31894 0.438692 0
M  V30 656 O 59.2861 -5.65385 -0.754752 0
M  V30 657 O 58.2201 -5.90459 1.168 0
M  V30 658 H 62.0461 -2.61836 1.53869 0
M  V30 659 H 59.6311 -1.25352 0.812854 0
M  V30 660 H 61.5131 -4.20062 -0.335538 0
M  V30 661 H 60.1881 -3.12255 -0.853138 0
M  V30 662 H 59.0951 -3.45251 1.44057 0
M  V30 663 H 60.4281 -4.54998 1.87716 0
M  V30 664 N 62.0802 -0.821533 -1.34494 0
M  V30 665 C 63.0282 -0.230702 -2.31453 0
M  V30 666 C 64.0222 0.627793 -1.57338 0
M  V30 667 O 65.2282 0.519288 -1.72347 0
M  V30 668 H 61.6032 -0.0558577 -0.749923 0
M  V30 669 H 63.5742 -1.06332 -2.78812 0
M  V30 670 C 62.3232 0.59391 -3.4259 0
M  V30 671 H 61.6462 -0.0573588 -3.99759 0
M  V30 672 H 63.0862 0.973446 -4.12674 0
M  V30 673 C 61.5452 1.76568 -2.86924 0
M  V30 674 O 62.0752 2.8638 -2.81691 0
M  V30 675 N 60.2812 1.58198 -2.43766 0
M  V30 676 H 59.8282 0.68872 -2.48222 0
M  V30 677 H 59.7862 2.36752 -2.06871 0
M  V30 678 N 63.5583 1.46682 -0.576371 0
M  V30 679 C 64.7833 2.07304 -0.0630475 0
M  V30 680 C 65.2083 1.42329 1.2298 0
M  V30 681 O 64.5663 0.504865 1.74129 0
M  V30 682 C 64.6143 3.60472 0.095895 0
M  V30 683 O 63.7183 3.95927 1.15394 0
M  V30 684 H 63.0593 0.661288 -0.0599463 0
M  V30 685 H 65.5893 1.88417 -0.797511 0
M  V30 686 H 65.5993 4.06865 0.304071 0
M  V30 687 H 64.2743 4.07157 -0.84828 0
M  V30 688 H 62.8513 3.61252 0.924724 0
M  V30 689 N 65.0364 0.313813 1.54444 0
M  V30 690 C 66.2854 -0.292519 1.99568 0
M  V30 691 C 66.5984 -1.54011 1.20582 0
M  V30 692 O 67.8044 -2.22183 1.56035 0
M  V30 693 C 66.2604 -0.571752 3.55329 0
M  V30 694 C 65.8684 0.658229 4.43138 0
M  V30 695 C 67.6124 -1.13857 4.08946 0
M  V30 696 C 65.5194 0.351439 5.90355 0
M  V30 697 H 64.4494 -0.113079 0.745472 0
M  V30 698 H 67.1004 0.424518 1.78522 0
M  V30 699 H 65.4824 -1.34872 3.72325 0
M  V30 700 H 66.6564 1.43403 4.37918 0
M  V30 701 H 64.9714 1.14458 4.0036 0
M  V30 702 H 67.5684 -1.38257 5.16516 0
M  V30 703 H 67.9114 -2.08489 3.6033 0
M  V30 704 H 68.4444 -0.423015 3.95544 0
M  V30 705 H 65.1834 1.26667 6.43145 0
M  V30 706 H 64.7034 -0.386842 5.98551 0
M  V30 707 H 66.3824 -0.0423134 6.46986 0
M  V30 708 N 66.5145 -1.57545 0.0417849 0
M  V30 709 C 67.4615 -2.10977 -0.935805 0
M  V30 710 C 68.4315 -1.01486 -1.31491 0
M  V30 711 O 69.6165 -1.2898 -1.40602 0
M  V30 712 C 66.7565 -2.65169 -2.2086 0
M  V30 713 C 65.8695 -3.88714 -1.88482 0
M  V30 714 C 65.0045 -4.31254 -3.1015 0
M  V30 715 C 64.0435 -5.47524 -2.7365 0
M  V30 716 N 63.1805 -5.85162 -3.87982 0
M  V30 717 H 68.0205 -2.94218 -0.473249 0
M  V30 718 H 65.5575 -1.45415 -0.221981 0
M  V30 719 H 67.5155 -2.94685 -2.95325 0
M  V30 720 H 66.1455 -1.8474 -2.64709 0
M  V30 721 H 65.1975 -3.65849 -1.04205 0
M  V30 722 H 66.5095 -4.73245 -1.57608 0
M  V30 723 H 65.6635 -4.62273 -3.92923 0
M  V30 724 H 64.4025 -3.45516 -3.44195 0
M  V30 725 H 63.4075 -5.16187 -1.89291 0
M  V30 726 H 64.6325 -6.34971 -2.40807 0
M  V30 727 H 62.5785 -5.02377 -4.21846 0
M  V30 728 H 62.4955 -6.64362 -3.60775 0
M  V30 729 H 63.7635 -6.20791 -4.71422 0
M  V30 730 N 67.9926 0.231505 -1.5589 0
M  V30 731 C 68.9226 1.29022 -1.94617 0
M  V30 732 C 69.9036 1.4941 -0.813067 0
M  V30 733 O 71.0886 1.6176 -1.07459 0
M  V30 734 C 68.2186 2.64199 -2.25424 0
M  V30 735 C 67.1726 2.58484 -3.41131 0
M  V30 736 C 66.4986 3.97599 -3.57518 0
M  V30 737 C 67.7986 2.1413 -4.76388 0
M  V30 738 H 69.4926 0.968563 -2.83301 0
M  V30 739 H 67.0386 0.464479 -1.36303 0
M  V30 740 H 68.9916 3.38413 -2.51107 0
M  V30 741 H 67.7156 2.98032 -1.33583 0
M  V30 742 H 66.3746 1.86727 -3.15481 0
M  V30 743 H 66.0226 4.28723 -2.6307 0
M  V30 744 H 65.7226 3.94659 -4.35337 0
M  V30 745 H 67.2466 4.7349 -3.85538 0
M  V30 746 H 68.6606 2.78083 -5.01341 0
M  V30 747 H 67.0576 2.2227 -5.57419 0
M  V30 748 H 68.1276 1.09331 -4.72414 0
M  V30 749 N 69.4707 1.49531 0.497807 0
M  V30 750 C 70.6987 1.62893 1.27567 0
M  V30 751 C 71.1137 0.301585 1.86376 0
M  V30 752 O 70.4707 -0.713335 1.67982 0
M  V30 753 C 70.5217 2.70013 2.40364 0
M  V30 754 O 70.2427 3.976 1.83972 0
M  V30 755 C 71.7437 2.94109 3.31685 0
M  V30 756 H 68.9637 0.548298 0.386794 0
M  V30 757 H 71.5077 1.95584 0.597245 0
M  V30 758 H 69.6627 2.40092 3.04031 0
M  V30 759 H 70.0767 4.56631 2.58047 0
M  V30 760 H 71.5507 3.72788 4.07104 0
M  V30 761 H 72.0277 2.04147 3.88871 0
M  V30 762 H 72.6337 3.2546 2.73781 0
M  V30 763 N 70.9488 -0.749086 1.3866 0
M  V30 764 C 72.1738 -1.54344 1.38538 0
M  V30 765 C 72.5988 -1.88088 -0.0216655 0
M  V30 766 O 71.9568 -1.50899 -1.00494 0
M  V30 767 C 72.0048 -2.8164 2.25192 0
M  V30 768 O 71.1088 -3.7698 1.67212 0
M  V30 769 H 70.4498 -0.466654 0.472367 0
M  V30 770 H 72.9798 -0.925355 1.82478 0
M  V30 771 H 72.9898 -3.30519 2.3921 0
M  V30 772 H 71.6648 -2.56411 3.27454 0
M  V30 773 H 70.2418 -3.35699 1.6236 0
M  V30 774 N 72.4269 -1.23603 -0.977757 0
M  V30 775 C 73.6729 -1.07129 -1.72195 0
M  V30 776 C 74.0059 0.390501 -1.90233 0
M  V30 777 O 73.2809 1.28902 -1.45653 0
M  V30 778 C 73.5639 -1.80031 -3.11867 0
M  V30 779 C 73.4169 -3.33899 -3.01383 0
M  V30 780 C 74.7359 -1.56492 -4.11337 0
M  V30 781 H 71.8549 -0.390571 -0.624999 0
M  V30 782 H 74.4969 -1.52142 -1.13811 0
M  V30 783 H 72.6469 -1.41768 -3.6171 0
M  V30 784 H 74.3189 -3.81699 -2.59043 0
M  V30 785 H 72.5619 -3.62796 -2.37827 0
M  V30 786 H 73.2329 -3.801 -4.00285 0
M  V30 787 H 75.7089 -1.89757 -3.70313 0
M  V30 788 H 74.5849 -2.09973 -5.07151 0
M  V30 789 H 74.8459 -0.500874 -4.39254 0
M  V30 790 N 73.905 1.17692 -1.04816 0
M  V30 791 C 75.151 1.88137 -0.75711 0
M  V30 792 C 75.484 1.80604 0.713841 0
M  V30 793 O 74.759 1.21146 1.52164 0
M  V30 794 C 75.042 3.38318 -1.2334 0
M  V30 795 C 74.895 3.54622 -2.76701 0
M  V30 796 C 76.214 4.32214 -0.829415 0
M  V30 797 H 73.333 0.683163 -0.27651 0
M  V30 798 H 75.975 1.38424 -1.30149 0
M  V30 799 H 74.125 3.80787 -0.770286 0
M  V30 800 H 75.797 3.21194 -3.31107 0
M  V30 801 H 74.04 2.97026 -3.16161 0
M  V30 802 H 74.711 4.60028 -3.05088 0
M  V30 803 H 77.187 3.97565 -1.22805 0
M  V30 804 H 76.063 5.35838 -1.19033 0
M  V30 805 H 76.324 4.41294 0.266891 0
M  V30 806 N 75.3831 0.828654 1.34056 0
M  V30 807 C 76.6301 0.419458 1.98108 0
M  V30 808 C 76.9581 -1.01886 1.65679 0
M  V30 809 O 76.2131 -1.72539 0.923512 0
M  V30 810 C 76.5121 0.575226 3.52741 0
M  V30 811 C 76.1781 1.98012 4.05095 0
M  V30 812 C 74.8401 2.36442 4.19104 0
M  V30 813 C 77.1921 2.89824 4.33188 0
M  V30 814 C 74.5201 3.66009 4.58535 0
M  V30 815 C 76.8721 4.1886 4.74066 0
M  V30 816 C 75.5361 4.5726 4.86281 0
M  V30 817 H 74.8061 0.153491 0.724929 0
M  V30 818 H 77.4531 1.05371 1.59904 0
M  V30 819 H 75.7581 -0.142385 3.91541 0
M  V30 820 H 77.4551 0.239057 4.00287 0
M  V30 821 H 74.0451 1.67162 3.94658 0
M  V30 822 H 78.2291 2.61375 4.21897 0
M  V30 823 H 73.4851 3.95579 4.66184 0
M  V30 824 H 77.6591 4.90086 4.94761 0
M  V30 825 H 75.2861 5.57707 5.16592 0
M  V30 826 N 76.8612 -1.46375 0.584142 0
M  V30 827 C 78.1102 -2.01585 0.0679741 0
M  V30 828 C 78.4232 -1.46109 -1.30045 0
M  V30 829 O 79.6292 -1.93148 -1.90804 0
M  V30 830 C 78.0852 -3.5983 0.0709207 0
M  V30 831 C 77.6932 -4.24303 1.43775 0
M  V30 832 C 79.4372 -4.22693 -0.391228 0
M  V30 833 C 77.3442 -5.74631 1.39834 0
M  V30 834 H 76.2742 -0.753689 0.0216421 0
M  V30 835 H 78.9252 -1.68093 0.736001 0
M  V30 836 H 77.3072 -3.90405 -0.663299 0
M  V30 837 H 78.4812 -4.05335 2.19181 0
M  V30 838 H 76.7962 -3.73539 1.84004 0
M  V30 839 H 79.3932 -5.3289 -0.439524 0
M  V30 840 H 79.7362 -3.91728 -1.40906 0
M  V30 841 H 80.2692 -3.96749 0.288974 0
M  V30 842 H 77.0082 -6.10258 2.39303 0
M  V30 843 H 76.5282 -5.95858 0.686505 0
M  V30 844 H 78.2072 -6.37375 1.11187 0
M  V30 845 N 78.3393 -0.321999 -1.54275 0
M  V30 846 C 79.2693 0.537411 -2.27231 0
M  V30 847 C 80.2503 1.12064 -1.27968 0
M  V30 848 O 81.4353 1.14606 -1.56777 0
M  V30 849 C 78.5653 1.69919 -3.02894 0
M  V30 850 C 77.5193 1.24534 -4.09482 0
M  V30 851 C 76.8453 2.49394 -4.72977 0
M  V30 852 C 78.1453 0.361335 -5.21049 0
M  V30 853 H 79.8393 -0.0711406 -2.99315 0
M  V30 854 H 77.3853 -0.0356555 -1.43956 0
M  V30 855 H 79.3383 2.30668 -3.52662 0
M  V30 856 H 78.0623 2.33431 -2.28424 0
M  V30 857 H 76.7213 0.660782 -3.60596 0
M  V30 858 H 76.3693 3.11265 -3.95124 0
M  V30 859 H 76.0693 2.19718 -5.44975 0
M  V30 860 H 77.5933 3.10908 -5.25517 0
M  V30 861 H 79.0073 0.875072 -5.66582 0
M  V30 862 H 77.4043 0.157428 -5.99893 0
M  V30 863 H 78.4743 -0.60822 -4.8107 0
M  V30 864 N 79.8174 1.5752 -0.0501392 0
M  V30 865 C 81.0664 1.91827 0.623328 0
M  V30 866 C 81.3794 0.930222 1.72065 0
M  V30 867 O 82.5854 1.1653 2.4522 0
M  V30 868 C 81.0414 3.40692 1.16003 0
M  V30 869 C 80.6494 4.479 0.0948811 0
M  V30 870 C 82.3934 3.84034 1.80881 0
M  V30 871 C 80.3004 5.87879 0.644411 0
M  V30 872 H 79.2304 0.715918 0.236596 0
M  V30 873 H 81.8814 1.83115 -0.118861 0
M  V30 874 H 80.2634 3.44405 1.9545 0
M  V30 875 H 81.4374 4.55775 -0.678675 0
M  V30 876 H 79.7524 4.13892 -0.45637 0
M  V30 877 H 82.3494 4.85984 2.22988 0
M  V30 878 H 82.6924 3.20225 2.6601 0
M  V30 879 H 83.2254 3.82833 1.0809 0
M  V30 880 H 79.9644 6.55282 -0.169229 0
M  V30 881 H 79.4844 5.83567 1.38598 0
M  V30 882 H 81.1634 6.37098 1.12763 0
M  V30 883 N 81.2955 -0.223234 1.56011 0
M  V30 884 C 82.5355 -0.954962 1.8072 0
M  V30 885 C 82.8995 -1.81598 0.623384 0
M  V30 886 O 84.1005 -2.58132 0.749745 0
M  V30 887 C 82.3715 -1.77313 3.10314 0
M  V30 888 S 83.9305 -2.56073 3.56332 0
M  V30 889 H 80.7485 -0.320812 0.634508 0
M  V30 890 H 83.3505 -0.220686 1.9425 0
M  V30 891 H 82.0545 -1.13071 3.94516 0
M  V30 892 H 81.5855 -2.54974 2.99586 0
M  V30 893 H 83.6005 -3.79619 3.19536 0
M  V30 894 N 82.7736 -1.49793 -0.48987 0
M  V30 895 C 84.0136 -1.61466 -1.25332 0
M  V30 896 C 84.3776 -0.299688 -1.89647 0
M  V30 897 O 85.5786 -0.291687 -2.67213 0
M  V30 898 C 83.8496 -2.74944 -2.28343 0
M  V30 899 S 85.4086 -3.06637 -3.13878 0
M  V30 900 H 82.2266 -0.569411 -0.425784 0
M  V30 901 H 84.8286 -1.875 -0.553541 0
M  V30 902 H 83.5326 -3.68994 -1.79643 0
M  V30 903 H 83.0636 -2.50938 -3.02975 0
M  V30 904 H 85.0786 -2.49015 -4.29192 0
M  V30 905 N 84.2517 0.741722 -1.39055 0
M  V30 906 C 85.4987 1.50114 -1.35912 0
M  V30 907 C 85.8267 1.94443 0.0470937 0
M  V30 908 O 85.0817 1.66612 1.02659 0
M  V30 909 C 85.3807 2.7592 -2.27163 0
M  V30 910 C 85.0467 2.50493 -3.74919 0
M  V30 911 C 83.7087 2.43267 -4.1518 0
M  V30 912 C 86.0607 2.28585 -4.684 0
M  V30 913 C 83.3887 2.12166 -5.46994 0
M  V30 914 C 85.7407 1.99002 -6.00484 0
M  V30 915 C 84.4047 1.90241 -6.39816 0
M  V30 916 H 83.6747 0.549306 -0.497336 0
M  V30 917 H 86.3217 0.851896 -1.71508 0
M  V30 918 H 84.6267 3.45553 -1.84663 0
M  V30 919 H 86.3237 3.33923 -2.22028 0
M  V30 920 H 82.9137 2.56992 -3.43006 0
M  V30 921 H 87.0977 2.33139 -4.38132 0
M  V30 922 H 82.3537 2.03901 -5.76398 0
M  V30 923 H 86.5277 1.81057 -6.72452 0
M  V30 924 H 84.1547 1.65907 -7.41875 0
M  V30 925 N 85.7298 1.2412 0.971189 0
M  V30 926 C 86.9788 1.07284 1.70801 0
M  V30 927 C 87.2918 -0.388902 1.91695 0
M  V30 928 O 88.4978 -0.677379 2.62914 0
M  V30 929 C 86.9538 1.87145 3.07416 0
M  V30 930 C 86.5618 3.37707 2.94377 0
M  V30 931 C 88.3058 1.78828 3.84995 0
M  V30 932 C 86.2128 4.09925 4.26281 0
M  V30 933 H 85.1428 0.397854 0.64049 0
M  V30 934 H 87.7938 1.4817 1.0825 0
M  V30 935 H 86.1758 1.39071 3.70777 0
M  V30 936 H 87.3498 3.93335 2.4005 0
M  V30 937 H 85.6648 3.46938 2.30267 0
M  V30 938 H 88.2618 2.30089 4.82662 0
M  V30 939 H 88.6048 0.75284 4.09436 0
M  V30 940 H 89.1378 2.24563 3.28354 0
M  V30 941 H 85.8768 5.13813 4.07033 0
M  V30 942 H 85.3968 3.59083 4.80437 0
M  V30 943 H 87.0758 4.1673 4.94919 0
M  V30 944 N 87.2079 -1.17134 1.05439 0
M  V30 945 C 88.4569 -1.86791 0.761049 0
M  V30 946 C 88.7699 -1.82072 -0.714795 0
M  V30 947 O 89.9759 -2.47223 -1.12218 0
M  V30 948 C 88.4319 -3.35166 1.31117 0
M  V30 949 C 88.0399 -3.48381 2.81664 0
M  V30 950 C 89.7839 -4.10134 1.09499 0
M  V30 951 C 87.6909 -4.90793 3.29964 0
M  V30 952 H 86.6209 -0.699681 0.281002 0
M  V30 953 H 89.2719 -1.3226 1.27199 0
M  V30 954 H 87.6539 -3.8925 0.72803 0
M  V30 955 H 88.8279 -3.04502 3.45855 0
M  V30 956 H 87.1429 -2.86836 3.01851 0
M  V30 957 H 89.7399 -5.152 1.43084 0
M  V30 958 H 90.0829 -4.16287 0.0328772 0
M  V30 959 H 90.6159 -3.62264 1.64346 0
M  V30 960 H 87.3549 -4.89816 4.35616 0
M  V30 961 H 86.8749 -5.35333 2.70516 0
M  V30 962 H 88.5539 -5.59573 3.24787 0
M  V30 963 N 88.686 -0.835752 -1.33615 0
M  V30 964 C 89.616 -0.281739 -2.31794 0
M  V30 965 C 90.597 0.608833 -1.58831 0
M  V30 966 O 91.782 0.533035 -1.86741 0
M  V30 967 C 88.912 0.546612 -3.42971 0
M  V30 968 C 87.866 -0.247904 -4.27281 0
M  V30 969 C 87.192 0.704001 -5.30045 0
M  V30 970 C 88.492 -1.46324 -5.01385 0
M  V30 971 H 90.186 -1.10206 -2.78379 0
M  V30 972 H 87.732 -0.531388 -1.33837 0
M  V30 973 H 89.685 0.944467 -4.1068 0
M  V30 974 H 88.409 1.40011 -2.95067 0
M  V30 975 H 87.068 -0.627281 -3.61194 0
M  V30 976 H 86.716 1.55381 -4.78399 0
M  V30 977 H 86.416 0.176524 -5.87335 0
M  V30 978 H 87.94 1.09944 -6.0062 0
M  V30 979 H 89.354 -1.13871 -5.61877 0
M  V30 980 H 87.751 -1.92728 -5.6831 0
M  V30 981 H 88.821 -2.23467 -4.30338 0
M  V30 982 N 90.1641 1.46063 -0.591896 0
M  V30 983 C 91.0741 2.34192 0.13831 0
M  V30 984 C 92.0901 1.50305 0.876608 0
M  V30 985 O 93.2661 1.8315 0.837728 0
M  V30 986 C 90.3311 3.27656 1.13326 0
M  V30 987 C 89.3921 4.27445 0.39863 0
M  V30 988 C 88.6251 5.16443 1.34618 0
M  V30 989 O 88.8481 5.08553 2.58321 0
M  V30 990 O 87.7821 5.95843 0.851768 0
M  V30 991 H 91.6081 2.98002 -0.58552 0
M  V30 992 H 89.1931 1.45188 -0.352239 0
M  V30 993 H 91.0751 3.85291 1.70671 0
M  V30 994 H 89.7501 2.6643 1.83839 0
M  V30 995 H 88.6571 3.73471 -0.216895 0
M  V30 996 H 89.9901 4.91482 -0.265709 0
M  V30 997 N 91.6422 0.330177 1.54103 0
M  V30 998 C 92.5902 -0.548226 2.26047 0
M  V30 999 C 93.5842 -1.11309 1.27698 0
M  V30 1000 O 94.7902 -1.06036 1.45452 0
M  V30 1001 H 91.1652 -0.195456 0.726155 0
M  V30 1002 H 93.1362 0.0807567 2.98291 0
M  V30 1003 C 91.8852 -1.69415 3.03634 0
M  V30 1004 H 91.2082 -1.26876 3.79134 0
M  V30 1005 H 92.6482 -2.28423 3.5721 0
M  V30 1006 C 91.1072 -2.61569 2.12328 0
M  V30 1007 O 91.6372 -3.63462 1.7105 0
M  V30 1008 N 89.8432 -2.29952 1.77681 0
M  V30 1009 H 89.3902 -1.47134 2.11446 0
M  V30 1010 H 89.3482 -2.91871 1.16869 0
M  V30 1011 N 93.1203 -1.57491 0.0584922 0
M  V30 1012 C 94.3693 -1.92155 -0.613146 0
M  V30 1013 C 94.6823 -0.939334 -1.71569 0
M  V30 1014 O 95.8883 -1.17829 -2.44599 0
M  V30 1015 C 94.3443 -3.41303 -1.14195 0
M  V30 1016 C 93.9523 -4.47944 -0.0711265 0
M  V30 1017 C 95.6963 -3.84988 -1.78841 0
M  V30 1018 C 93.6033 -5.88212 -0.613225 0
M  V30 1019 H 92.5333 -0.717162 -0.232796 0
M  V30 1020 H 95.1843 -1.83049 0.12857 0
M  V30 1021 H 93.5663 -3.45437 -1.93621 0
M  V30 1022 H 94.7403 -4.55408 0.702836 0
M  V30 1023 H 93.0553 -4.13644 0.478313 0
M  V30 1024 H 95.6523 -4.87159 -2.20408 0
M  V30 1025 H 95.9953 -3.21632 -2.64308 0
M  V30 1026 H 96.5283 -3.83401 -1.06059 0
M  V30 1027 H 93.2673 -6.55183 0.203978 0
M  V30 1028 H 92.7873 -5.84294 -1.35501 0
M  V30 1029 H 94.4663 -6.37687 -1.09383 0
M  V30 1030 N 94.5984 0.214957 -1.56127 0
M  V30 1031 C 95.8454 0.938372 -1.79446 0
M  V30 1032 C 96.1734 1.8407 -0.628378 0
M  V30 1033 O 95.4284 1.91837 0.386925 0
M  V30 1034 C 95.7274 1.80314 -3.0858 0
M  V30 1035 C 95.3934 1.05349 -4.3842 0
M  V30 1036 C 94.0554 0.846435 -4.73697 0
M  V30 1037 C 96.4074 0.524588 -5.18553 0
M  V30 1038 C 93.7354 0.098683 -5.86617 0
M  V30 1039 C 96.0874 -0.209853 -6.32252 0
M  V30 1040 C 94.7514 -0.428102 -6.66126 0
M  V30 1041 H 94.0214 0.343375 -0.656639 0
M  V30 1042 H 96.6684 0.206077 -1.90388 0
M  V30 1043 H 94.9734 2.6035 -2.92789 0
M  V30 1044 H 96.6704 2.36513 -3.23825 0
M  V30 1045 H 93.2604 1.22486 -4.10725 0
M  V30 1046 H 97.4444 0.672008 -4.91729 0
M  V30 1047 H 92.7004 -0.0805753 -6.11347 0
M  V30 1048 H 96.8744 -0.627157 -6.9357 0
M  V30 1049 H 94.5014 -1.00944 -7.53468 0
M  V30 1050 N 96.0765 1.50051 0.48192 0
M  V30 1051 C 97.3225 1.60736 1.2366 0
M  V30 1052 C 97.6555 0.301786 1.91841 0
M  V30 1053 O 96.9305 -0.696025 1.8162 0
M  V30 1054 C 97.2135 2.78009 2.28874 0
M  V30 1055 C 97.0665 4.18416 1.65069 0
M  V30 1056 C 98.3855 2.90867 3.30279 0
M  V30 1057 H 95.5045 0.585031 0.448228 0
M  V30 1058 H 98.1465 1.82402 0.531946 0
M  V30 1059 H 96.2965 2.59667 2.88973 0
M  V30 1060 H 97.9685 4.48322 1.0865 0
M  V30 1061 H 96.2115 4.23177 0.954148 0
M  V30 1062 H 96.8825 4.96381 2.41474 0
M  V30 1063 H 99.3585 3.07623 2.80191 0
M  V30 1064 H 98.2345 3.74566 4.01238 0
M  V30 1065 H 98.4955 2.01021 3.93755 0
M  V30 1066 N 97.5546 -0.734337 1.39446 0
M  V30 1067 C 98.4846 -1.86155 1.40955 0
M  V30 1068 C 99.4656 -1.67898 0.272827 0
M  V30 1069 O 100.651 -1.88207 0.478743 0
M  V30 1070 C 97.7806 -3.23912 1.25294 0
M  V30 1071 C 96.7346 -3.56808 2.36373 0
M  V30 1072 C 96.0606 -4.93508 2.058 0
M  V30 1073 C 97.3606 -3.59713 3.78687 0
M  V30 1074 H 99.0546 -1.8515 2.35287 0
M  V30 1075 H 96.6006 -0.889367 1.13253 0
M  V30 1076 H 98.5536 -4.02443 1.2497 0
M  V30 1077 H 97.2776 -3.25446 0.274308 0
M  V30 1078 H 95.9366 -2.80606 2.35914 0
M  V30 1079 H 95.5846 -4.91623 1.06374 0
M  V30 1080 H 95.2846 -5.16486 2.80208 0
M  V30 1081 H 96.8086 -5.74396 2.07128 0
M  V30 1082 H 98.2226 -4.2832 3.81071 0
M  V30 1083 H 96.6196 -3.94209 4.52459 0
M  V30 1084 H 97.6896 -2.59504 4.09617 0
M  V30 1085 N 99.0327 -1.24633 -0.964593 0
M  V30 1086 C 99.9627 -1.06611 -2.07741 0
M  V30 1087 C 100.944 0.0218666 -1.70086 0
M  V30 1088 O 102.129 -0.145793 -1.93652 0
M  V30 1089 C 99.2587 -0.673444 -3.40708 0
M  V30 1090 C 98.2127 -1.71054 -3.92332 0
M  V30 1091 C 97.5387 -1.17285 -5.21678 0
M  V30 1092 C 98.8387 -3.10718 -4.19824 0
M  V30 1093 H 100.533 -1.99693 -2.23076 0
M  V30 1094 H 98.0787 -0.96152 -1.07195 0
M  V30 1095 H 100.032 -0.534345 -4.17998 0
M  V30 1096 H 98.7557 0.293073 -3.25282 0
M  V30 1097 H 97.4147 -1.83791 -3.17201 0
M  V30 1098 H 97.0627 -0.196847 -5.02615 0
M  V30 1099 H 96.7627 -1.86592 -5.57187 0
M  V30 1100 H 98.2867 -1.04593 -6.01575 0
M  V30 1101 H 99.7007 -3.01192 -4.87808 0
M  V30 1102 H 98.0977 -3.77406 -4.66567 0
M  V30 1103 H 99.1677 -3.58524 -3.26479 0
M  V30 1104 N 100.511 1.16574 -1.06058 0
M  V30 1105 C 101.739 1.90952 -0.796552 0
M  V30 1106 C 102.154 1.77302 0.648808 0
M  V30 1107 O 101.511 1.11605 1.44397 0
M  V30 1108 C 101.562 3.41736 -1.17894 0
M  V30 1109 O 101.283 3.54975 -2.56758 0
M  V30 1110 C 102.784 4.33169 -0.942308 0
M  V30 1111 H 100.004 0.605594 -0.288959 0
M  V30 1112 H 102.548 1.47777 -1.41358 0
M  V30 1113 H 100.703 3.82623 -0.606491 0
M  V30 1114 H 101.117 4.4846 -2.72 0
M  V30 1115 H 102.591 5.37439 -1.25952 0
M  V30 1116 H 103.068 4.3903 0.122078 0
M  V30 1117 H 103.674 3.98007 -1.49902 0
M  V30 1118 N 101.989 0.842826 1.3317 0
M  V30 1119 C 103.238 0.436738 1.96915 0
M  V30 1120 C 103.551 -1.01025 1.67491 0
M  V30 1121 O 104.757 -1.5212 2.24881 0
M  V30 1122 C 103.213 0.730021 3.52418 0
M  V30 1123 C 102.821 2.19195 3.90714 0
M  V30 1124 C 104.565 0.391076 4.22695 0
M  V30 1125 C 102.472 2.42907 5.39212 0
M  V30 1126 H 101.402 0.15958 0.736919 0
M  V30 1127 H 104.053 1.03196 1.51733 0
M  V30 1128 H 102.435 0.0643755 3.95948 0
M  V30 1129 H 103.609 2.8984 3.58231 0
M  V30 1130 H 101.924 2.49425 3.33431 0
M  V30 1131 H 104.521 0.545817 5.31907 0
M  V30 1132 H 104.864 -0.666294 4.10933 0
M  V30 1133 H 105.397 1.01212 3.84709 0
M  V30 1134 H 102.136 3.47224 5.55982 0
M  V30 1135 H 101.656 1.76827 5.73142 0
M  V30 1136 H 103.335 2.2626 6.06148 0
M  V30 1137 N 103.467 -1.45747 0.599634 0
M  V30 1138 C 104.713 -2.03153 0.100263 0
M  V30 1139 C 105.068 -1.46073 -1.25221 0
M  V30 1140 O 104.361 -0.622878 -1.81193 0
M  V30 1141 C 104.555 -3.57399 -0.00602758 0
M  V30 1142 C 104.384 -4.2944 1.3346 0
M  V30 1143 C 103.154 -4.6768 1.91321 0
M  V30 1144 C 105.352 -4.61905 2.2616 0
M  V30 1145 N 103.334 -5.24544 3.18946 0
M  V30 1146 C 104.705 -5.19518 3.3838 0
M  V30 1147 C 106.76 -4.43841 2.25631 0
M  V30 1148 C 105.463 -5.60972 4.50226 0
M  V30 1149 C 107.489 -4.86322 3.36518 0
M  V30 1150 C 106.851 -5.44021 4.4746 0
M  V30 1151 H 102.95 -0.777911 0.0798696 0
M  V30 1152 H 105.534 -1.77674 0.796244 0
M  V30 1153 H 103.705 -3.82556 -0.671212 0
M  V30 1154 H 105.437 -4.01457 -0.51133 0
M  V30 1155 H 102.192 -4.5098 1.44617 0
M  V30 1156 H 102.616 -5.57483 3.84112 0
M  V30 1157 H 107.258 -3.98552 1.41123 0
M  V30 1158 H 104.976 -6.0523 5.35464 0
M  V30 1159 H 108.562 -4.74084 3.37247 0
M  V30 1160 H 107.442 -5.76289 5.31846 0
M  V30 1161 N 104.945 -0.338344 -1.53925 0
M  V30 1162 C 105.892 0.520845 -2.24846 0
M  V30 1163 C 106.862 1.09976 -1.24477 0
M  V30 1164 O 108.047 1.13735 -1.53196 0
M  V30 1165 C 105.187 1.6685 -3.02084 0
M  V30 1166 C 104.3 1.11739 -4.17299 0
M  V30 1167 C 103.435 2.23193 -4.82036 0
M  V30 1168 C 102.474 1.65407 -5.89328 0
M  V30 1169 N 101.611 2.70582 -6.47866 0
M  V30 1170 H 106.451 -0.0904881 -2.97863 0
M  V30 1171 H 103.988 -0.0564282 -1.46992 0
M  V30 1172 H 105.946 2.34407 -3.45122 0
M  V30 1173 H 104.576 2.2509 -2.31375 0
M  V30 1174 H 103.628 0.332919 -3.7894 0
M  V30 1175 H 104.94 0.654677 -4.94485 0
M  V30 1176 H 104.094 2.98626 -5.28117 0
M  V30 1177 H 102.833 2.72807 -4.04262 0
M  V30 1178 H 101.838 0.884779 -5.42634 0
M  V30 1179 H 103.063 1.16652 -6.69006 0
M  V30 1180 H 101.009 3.1946 -5.72959 0
M  V30 1181 H 100.926 2.28917 -7.20509 0
M  V30 1182 H 102.194 3.45799 -6.98601 0
M  V30 1183 N 106.423 1.57458 -0.0668435 0
M  V30 1184 C 107.651 1.97624 0.612565 0
M  V30 1185 C 108.066 0.94502 1.63447 0
M  V30 1186 O 107.423 -0.0689276 1.8237 0
M  V30 1187 C 107.474 3.37869 1.28555 0
M  V30 1188 O 107.195 4.3704 0.304557 0
M  V30 1189 C 108.696 3.92882 2.05325 0
M  V30 1190 H 105.916 0.650045 0.166381 0
M  V30 1191 H 108.46 2.04035 -0.137782 0
M  V30 1192 H 106.615 3.3256 1.98702 0
M  V30 1193 H 107.029 5.18565 0.786779 0
M  V30 1194 H 108.503 4.93247 2.47812 0
M  V30 1195 H 108.98 3.29156 2.9078 0
M  V30 1196 H 109.586 4.01577 1.40056 0
M  V30 1197 N 107.901 -0.206675 1.56239 0
M  V30 1198 C 108.848 -1.25617 1.93621 0
M  V30 1199 C 109.818 -1.45824 0.795274 0
M  V30 1200 O 111.003 -1.59148 1.05245 0
M  V30 1201 C 108.143 -2.59839 2.27107 0
M  V30 1202 C 107.256 -2.47308 3.54207 0
M  V30 1203 C 106.391 -3.74155 3.7707 0
M  V30 1204 C 105.43 -3.56407 4.97635 0
M  V30 1205 N 104.567 -4.75238 5.1681 0
M  V30 1206 H 109.407 -0.930383 2.83104 0
M  V30 1207 H 106.944 -0.448065 1.4011 0
M  V30 1208 H 108.902 -3.38021 2.44535 0
M  V30 1209 H 107.532 -2.90485 1.40778 0
M  V30 1210 H 106.584 -1.60483 3.4489 0
M  V30 1211 H 107.896 -2.30122 4.42544 0
M  V30 1212 H 107.05 -4.60778 3.94675 0
M  V30 1213 H 105.789 -3.94282 2.87042 0
M  V30 1214 H 104.794 -2.68168 4.79964 0
M  V30 1215 H 106.019 -3.37736 5.89161 0
M  V30 1216 H 103.965 -4.95651 4.29728 0
M  V30 1217 H 103.882 -4.60835 5.99306 0
M  V30 1218 H 105.15 -5.63246 5.38864 0
M  V30 1219 N 109.379 -1.50304 -0.473955 0
M  V30 1220 C 110.326 -1.68959 -1.57231 0
M  V30 1221 C 111.296 -0.530899 -1.57387 0
M  V30 1222 O 112.481 -0.761133 -1.74961 0
M  V30 1223 C 109.621 -1.7871 -2.95223 0
M  V30 1224 C 108.734 -3.06061 -3.04878 0
M  V30 1225 C 107.869 -3.06626 -4.33767 0
M  V30 1226 C 106.908 -4.28443 -4.37154 0
M  V30 1227 N 106.045 -4.26763 -5.5751 0
M  V30 1228 H 110.885 -2.6273 -1.40631 0
M  V30 1229 H 108.422 -1.30241 -0.683789 0
M  V30 1230 H 110.38 -1.82344 -3.75242 0
M  V30 1231 H 109.01 -0.883806 -3.10465 0
M  V30 1232 H 108.062 -3.11911 -2.17751 0
M  V30 1233 H 109.374 -3.96039 -3.0324 0
M  V30 1234 H 108.528 -3.08973 -5.22131 0
M  V30 1235 H 107.267 -2.14473 -4.3801 0
M  V30 1236 H 106.272 -4.2631 -3.47188 0
M  V30 1237 H 107.497 -5.2182 -4.34605 0
M  V30 1238 H 105.443 -3.37462 -5.62544 0
M  V30 1239 H 105.36 -5.10507 -5.57601 0
M  V30 1240 H 106.628 -4.33253 -6.48006 0
M  V30 1241 N 110.857 0.726932 -1.39834 0
M  V30 1242 C 112.104 1.48664 -1.37496 0
M  V30 1243 C 112.432 1.94482 0.0264678 0
M  V30 1244 O 111.687 1.67692 1.00886 0
M  V30 1245 C 111.986 2.73495 -2.30077 0
M  V30 1246 C 111.652 2.46502 -3.77555 0
M  V30 1247 C 110.314 2.3885 -4.17737 0
M  V30 1248 C 112.666 2.23604 -4.70798 0
M  V30 1249 C 109.994 2.06352 -5.49214 0
M  V30 1250 C 112.346 1.92622 -6.02561 0
M  V30 1251 C 111.01 1.83444 -6.41798 0
M  V30 1252 H 110.28 0.544001 -0.503135 0
M  V30 1253 H 112.927 0.833657 -1.72402 0
M  V30 1254 H 111.232 3.43575 -1.88317 0
M  V30 1255 H 112.929 3.31549 -2.25558 0
M  V30 1256 H 109.519 2.5334 -3.45712 0
M  V30 1257 H 113.703 2.28479 -4.40581 0
M  V30 1258 H 108.959 1.97776 -5.78528 0
M  V30 1259 H 113.133 1.73914 -6.74334 0
M  V30 1260 H 110.76 1.58029 -7.43593 0
M  V30 1261 N 112.336 1.25143 0.95797 0
M  V30 1262 C 113.286 1.01924 2.0395 0
M  V30 1263 C 114.27 -0.0427175 1.60843 0
M  V30 1264 O 115.462 0.17221 1.7616 0
M  V30 1265 C 112.591 0.636373 3.3735 0
M  V30 1266 C 111.677 1.73492 3.8699 0
M  V30 1267 N 112.068 2.96945 4.0946 0
M  V30 1268 C 110.366 1.61467 4.15746 0
M  V30 1269 C 111.067 3.68228 4.50315 0
M  V30 1270 N 110.043 2.95833 4.56053 0
M  V30 1271 H 113.845 1.95653 2.19311 0
M  V30 1272 H 111.359 1.15413 1.14253 0
M  V30 1273 H 113.356 0.451233 4.14451 0
M  V30 1274 H 112.016 -0.293621 3.2337 0
M  V30 1275 H 113.027 3.33025 3.96629 0
M  V30 1276 H 109.704 0.753394 4.10646 0
M  V30 1277 H 111.094 4.74178 4.76031 0
M  V30 1278 N 113.814 -1.1601 1.06675 0
M  V30 1279 C 115.23 -1.38622 0.790948 0
M  V30 1280 C 115.43 -1.92109 -0.607965 0
M  V30 1281 O 114.486 -2.12239 -1.36787 0
M  V30 1282 C 115.799 -2.36347 1.85905 0
M  V30 1283 C 117.347 -2.50023 1.88301 0
M  V30 1284 C 117.822 -3.51033 2.94176 0
M  V30 1285 N 119.313 -3.58563 2.93235 0
M  V30 1286 C 120.048 -4.36521 3.71803 0
M  V30 1287 N 119.544 -5.17869 4.602 0
M  V30 1288 N 121.337 -4.31541 3.60178 0
M  V30 1289 H 113.488 -0.796294 1.96908 0
M  V30 1290 H 115.751 -0.412597 0.853503 0
M  V30 1291 H 115.457 -2.04147 2.86386 0
M  V30 1292 H 115.331 -3.36042 1.71334 0
M  V30 1293 H 117.718 -2.81524 0.884769 0
M  V30 1294 H 117.799 -1.5035 2.06951 0
M  V30 1295 H 117.443 -3.20268 3.94196 0
M  V30 1296 H 117.373 -4.50445 2.72776 0
M  V30 1297 H 119.864 -3.00496 2.29152 0
M  V30 1298 H 120.177 -5.74578 5.16797 0
M  V30 1299 H 118.522 -5.17199 4.64253 0
M  V30 1300 H 121.713 -3.67051 2.90502 0
M  V30 1301 H 121.886 -4.9205 4.21653 0
M  V30 1302 N 115.292 -0.849877 -1.32721 0
M  V30 1303 C 116.703 -0.506188 -1.79707 0
M  V30 1304 C 117.054 0.975627 -1.70223 0
M  V30 1305 O 116.179 1.76078 -1.25799 0
M  V30 1306 C 116.774 -0.912044 -3.26293 0
M  V30 1307 C 115.333 -0.620326 -3.71253 0
M  V30 1308 C 114.48 -1.11439 -2.53922 0
M  V30 1309 H 117.431 -1.03754 -1.20087 0
M  V30 1310 H 117.452 -0.226493 -3.79825 0
M  V30 1311 H 116.964 -1.99057 -3.33164 0
M  V30 1312 H 115.065 0.447674 -3.69901 0
M  V30 1313 H 115.178 -1.18327 -4.64258 0
M  V30 1314 H 113.542 -0.534834 -2.49021 0
M  V30 1315 H 114.325 -2.19992 -2.6355 0
M  V30 1316 N 116.77 1.45427 -0.607355 0
M  V30 1317 C 117.703 2.27635 0.160482 0
M  V30 1318 C 118.681 1.37122 0.873857 0
M  V30 1319 O 119.865 1.66551 0.882775 0
M  V30 1320 C 116.992 3.15486 1.23231 0
M  V30 1321 C 116.038 4.21939 0.622097 0
M  V30 1322 S 116.871 5.32459 -0.569852 0
M  V30 1323 C 118.027 6.23879 0.502577 0
M  V30 1324 H 118.26 2.9241 -0.536983 0
M  V30 1325 H 115.793 1.49265 -0.394868 0
M  V30 1326 H 117.751 3.66659 1.84585 0
M  V30 1327 H 116.412 2.49977 1.90185 0
M  V30 1328 H 115.605 4.8333 1.42856 0
M  V30 1329 H 115.207 3.73906 0.0837063 0
M  V30 1330 H 117.499 6.63261 1.38171 0
M  V30 1331 H 118.442 7.0806 -0.0751759 0
M  V30 1332 H 118.85 5.58545 0.8178 0
M  V30 1333 N 118.248 0.346503 1.53744 0
M  V30 1334 C 119.478 -0.250047 2.05081 0
M  V30 1335 C 119.886 -1.44529 1.22098 0
M  V30 1336 O 119.229 -1.81992 0.249917 0
M  V30 1337 C 119.291 -0.725934 3.52094 0
M  V30 1338 C 118.955 0.350053 4.55657 0
M  V30 1339 C 119.952 1.19372 5.0601 0
M  V30 1340 C 117.637 0.504827 4.99757 0
M  V30 1341 C 119.631 2.17768 5.99046 0
M  V30 1342 C 117.318 1.49218 5.92602 0
M  V30 1343 C 118.316 2.32706 6.42135 0
M  V30 1344 O 118.004 3.2976 7.33153 0
M  V30 1345 H 117.736 -0.0515469 0.674032 0
M  V30 1346 H 120.29 0.497559 1.99282 0
M  V30 1347 H 118.52 -1.52483 3.55367 0
M  V30 1348 H 120.209 -1.24336 3.86388 0
M  V30 1349 H 120.975 1.08525 4.72702 0
M  V30 1350 H 116.854 -0.135178 4.60802 0
M  V30 1351 H 120.398 2.82971 6.37631 0
M  V30 1352 H 116.295 1.6012 6.25325 0
M  V30 1353 H 117.063 3.25265 7.51096 0
M  V30 1354 N 119.726 -1.57421 0.075193 0
M  V30 1355 C 120.956 -1.97659 -0.601203 0
M  V30 1356 C 121.364 -0.952427 -1.63479 0
M  V30 1357 O 120.707 0.0688241 -1.83571 0
M  V30 1358 C 120.769 -3.34218 -1.32434 0
M  V30 1359 C 120.433 -4.5484 -0.443826 0
M  V30 1360 C 121.43 -5.19034 0.299969 0
M  V30 1361 C 119.115 -5.00952 -0.367709 0
M  V30 1362 C 121.109 -6.27695 1.10807 0
M  V30 1363 C 118.796 -6.09484 0.444058 0
M  V30 1364 C 119.794 -6.72719 1.18061 0
M  V30 1365 O 119.482 -7.79161 1.97898 0
M  V30 1366 H 119.214 -0.65494 -0.167422 0
M  V30 1367 H 121.768 -2.04886 0.145157 0
M  V30 1368 H 119.998 -3.23615 -2.11685 0
M  V30 1369 H 121.687 -3.59038 -1.89331 0
M  V30 1370 H 122.453 -4.84351 0.250776 0
M  V30 1371 H 118.332 -4.51509 -0.930638 0
M  V30 1372 H 121.876 -6.76982 1.68347 0
M  V30 1373 H 117.773 -6.43601 0.494803 0
M  V30 1374 H 118.541 -7.96055 1.90367 0
M  V30 1375 N 121.204 0.198386 -1.56346 0
M  V30 1376 C 122.451 0.919286 -1.80431 0
M  V30 1377 C 122.779 1.83393 -0.647866 0
M  V30 1378 O 122.034 1.92236 0.366556 0
M  V30 1379 C 122.333 1.77031 -3.10475 0
M  V30 1380 C 121.999 1.00693 -4.39513 0
M  V30 1381 C 120.661 0.796145 -4.74568 0
M  V30 1382 C 123.013 0.469559 -5.19081 0
M  V30 1383 C 120.341 0.0364588 -5.86689 0
M  V30 1384 C 122.693 -0.2769 -6.31994 0
M  V30 1385 C 121.357 -0.49873 -6.65634 0
M  V30 1386 H 120.627 0.336391 -0.660244 0
M  V30 1387 H 123.274 0.185872 -1.90596 0
M  V30 1388 H 121.579 2.5723 -2.95533 0
M  V30 1389 H 123.276 2.33065 -3.26315 0
M  V30 1390 H 119.866 1.18122 -4.12001 0
M  V30 1391 H 124.05 0.619816 -4.92414 0
M  V30 1392 H 119.306 -0.145412 -6.11227 0
M  V30 1393 H 123.48 -0.700684 -6.92866 0
M  V30 1394 H 121.107 -1.0893 -7.52355 0
M  V30 1395 N 122.682 1.50554 0.465978 0
M  V30 1396 C 123.931 1.61038 1.21448 0
M  V30 1397 C 124.244 0.31865 1.92987 0
M  V30 1398 O 125.45 0.302469 2.6981 0
M  V30 1399 C 123.906 2.84283 2.20706 0
M  V30 1400 C 123.514 4.20352 1.54946 0
M  V30 1401 C 125.258 3.04115 2.96166 0
M  V30 1402 C 123.165 5.34778 2.5252 0
M  V30 1403 H 122.095 0.599718 0.457005 0
M  V30 1404 H 124.746 1.7699 0.484424 0
M  V30 1405 H 123.128 2.61901 2.97025 0
M  V30 1406 H 124.302 4.53008 0.843811 0
M  V30 1407 H 122.617 4.06167 0.917475 0
M  V30 1408 H 125.214 3.86774 3.69202 0
M  V30 1409 H 125.557 2.16045 3.55852 0
M  V30 1410 H 126.09 3.26702 2.26959 0
M  V30 1411 H 122.829 6.25018 1.97566 0
M  V30 1412 H 122.349 5.06534 3.21222 0
M  V30 1413 H 124.028 5.65561 3.14245 0
M  V30 1414 N 124.16 -0.719506 1.40217 0
M  V30 1415 C 125.408 -1.47641 1.3801 0
M  V30 1416 C 125.729 -1.94992 -0.018145 0
M  V30 1417 O 124.999 -1.70073 -0.972207 0
M  V30 1418 H 123.579 -0.547744 0.507923 0
M  V30 1419 H 126.241 -0.853187 1.75233 0
M  V30 1420 H 125.337 -2.35112 2.05253 0
M  V30 1421 N 125.638 -1.25649 -0.95132 0
M  V30 1422 C 126.586 -1.06118 -2.06982 0
M  V30 1423 C 127.58 0.00889169 -1.69398 0
M  V30 1424 O 128.786 -0.146988 -1.79399 0
M  V30 1425 H 125.161 -0.326248 -0.677544 0
M  V30 1426 H 127.132 -2.00932 -2.2061 0
M  V30 1427 C 125.881 -0.700145 -3.40578 0
M  V30 1428 H 125.204 -1.51537 -3.69968 0
M  V30 1429 H 126.644 -0.603211 -4.19687 0
M  V30 1430 C 125.103 0.59403 -3.31622 0
M  V30 1431 O 125.633 1.63522 -3.66911 0
M  V30 1432 N 123.839 0.58089 -2.84735 0
M  V30 1433 H 123.386 -0.266783 -2.56215 0
M  V30 1434 H 123.344 1.44695 -2.79125 0
M  V30 1435 N 127.117 1.15442 -1.07289 0
M  V30 1436 C 128.047 2.22312 -0.714107 0
M  V30 1437 C 129.028 1.67467 0.298155 0
M  V30 1438 O 130.213 1.93445 0.171048 0
M  V30 1439 C 127.343 3.47124 -0.110448 0
M  V30 1440 C 126.297 4.14926 -1.04979 0
M  V30 1441 C 125.623 5.33807 -0.308924 0
M  V30 1442 C 126.923 4.64762 -2.38314 0
M  V30 1443 H 128.617 2.5258 -1.6076 0
M  V30 1444 H 126.163 1.21404 -0.77441 0
M  V30 1445 H 128.116 4.21124 0.152482 0
M  V30 1446 H 126.84 3.16187 0.81812 0
M  V30 1447 H 125.499 3.42866 -1.29764 0
M  V30 1448 H 125.147 4.99126 0.623084 0
M  V30 1449 H 124.847 5.80113 -0.935036 0
M  V30 1450 H 126.371 6.10576 -0.0537771 0
M  V30 1451 H 127.785 5.30292 -2.1786 0
M  V30 1452 H 126.182 5.21728 -2.96514 0
M  V30 1453 H 127.252 3.80434 -3.00663 0
M  V30 1454 N 128.595 0.856903 1.32268 0
M  V30 1455 C 129.558 0.308171 2.27119 0
M  V30 1456 C 130.558 -0.533421 1.51695 0
M  V30 1457 O 131.748 -0.344607 1.70757 0
M  V30 1458 C 128.88 -0.563757 3.36206 0
M  V30 1459 H 130.073 1.14535 2.77167 0
M  V30 1460 H 127.626 0.631421 1.42978 0
M  V30 1461 H 128.361 -1.42266 2.91429 0
M  V30 1462 H 128.146 0.0386749 3.92081 0
M  V30 1463 H 129.636 -0.940386 4.06874 0
M  V30 1464 N 130.073 -1.45103 0.615059 0
M  V30 1465 C 131.003 -2.33339 -0.0865619 0
M  V30 1466 C 131.984 -1.4727 -0.851209 0
M  V30 1467 O 133.169 -1.76026 -0.820281 0
M  V30 1468 C 130.299 -3.30095 -1.07956 0
M  V30 1469 C 129.253 -4.25858 -0.427628 0
M  V30 1470 C 128.579 -5.12361 -1.5294 0
M  V30 1471 C 129.879 -5.18165 0.655944 0
M  V30 1472 H 131.573 -2.92254 0.650224 0
M  V30 1473 H 129.119 -1.40532 0.314138 0
M  V30 1474 H 131.072 -3.90698 -1.57901 0
M  V30 1475 H 129.796 -2.69355 -1.84703 0
M  V30 1476 H 128.455 -3.66564 0.0510292 0
M  V30 1477 H 128.103 -4.47984 -2.28734 0
M  V30 1478 H 127.803 -5.77238 -1.09865 0
M  V30 1479 H 129.327 -5.75833 -2.03098 0
M  V30 1480 H 130.741 -5.72796 0.240257 0
M  V30 1481 H 129.138 -5.91559 1.00888 0
M  V30 1482 H 130.208 -4.60144 1.52957 0
M  V30 1483 N 131.551 -0.354651 -1.53558 0
M  V30 1484 C 132.776 0.242153 -2.05981 0
M  V30 1485 C 133.201 1.42553 -1.2272 0
M  V30 1486 O 132.559 1.79656 -0.243604 0
M  V30 1487 C 132.607 0.624367 -3.55154 0
M  V30 1488 O 131.711 1.72301 -3.74681 0
M  V30 1489 H 131.052 0.0378432 -0.662921 0
M  V30 1490 H 133.582 -0.512087 -1.98088 0
M  V30 1491 H 133.592 0.898433 -3.97985 0
M  V30 1492 H 132.267 -0.240989 -4.15201 0
M  V30 1493 H 130.844 1.44535 -3.4375 0
M  V30 1494 N 133.029 1.57378 -0.0835403 0
M  V30 1495 C 134.306 1.85363 0.624507 0
M  V30 1496 C 134.686 0.978239 1.87066 0
M  V30 1497 O 134.034 0.0475908 2.2845 0
M  V30 1498 C 134.244 3.35795 0.950947 0
M  V30 1499 C 135.592 4.03581 1.31939 0
M  V30 1500 O 136.616 3.40609 1.04232 0
M  V30 1501 O 135.475 5.14672 1.83779 0
M  V30 1502 H 132.569 0.766162 0.311329 0
M  V30 1503 H 135.115 1.69307 -0.115362 0
M  V30 1504 H 133.887 3.91244 0.0663899 0
M  V30 1505 H 133.51 3.57154 1.74719 0
M  V30 1506 N 134.507 -0.190092 1.56449 0
M  V30 1507 C 135.437 -1.23816 1.97969 0
M  V30 1508 C 136.418 -1.47201 0.852395 0
M  V30 1509 O 137.603 -1.58854 1.1171 0
M  V30 1510 C 134.733 -2.5813 2.3235 0
M  V30 1511 C 133.687 -2.49348 3.47864 0
M  V30 1512 C 133.013 -3.8798 3.67934 0
M  V30 1513 C 134.313 -2.01424 4.81898 0
M  V30 1514 H 136.007 -0.89311 2.85769 0
M  V30 1515 H 133.553 -0.428177 1.37487 0
M  V30 1516 H 135.506 -3.31637 2.59991 0
M  V30 1517 H 134.23 -2.94386 1.41438 0
M  V30 1518 H 132.889 -1.78297 3.20321 0
M  V30 1519 H 132.537 -4.21597 2.74344 0
M  V30 1520 H 132.237 -3.82978 4.45648 0
M  V30 1521 H 133.761 -4.63101 3.97957 0
M  V30 1522 H 135.175 -2.64693 5.08538 0
M  V30 1523 H 133.572 -2.07413 5.63116 0
M  V30 1524 H 134.642 -0.967677 4.75146 0
M  V30 1525 N 135.985 -1.50799 -0.457987 0
M  V30 1526 C 136.915 -1.73553 -1.5621 0
M  V30 1527 C 137.896 -0.584774 -1.59732 0
M  V30 1528 O 139.081 -0.825314 -1.7579 0
M  V30 1529 C 136.211 -1.84169 -2.94447 0
M  V30 1530 C 135.165 -2.99461 -3.0579 0
M  V30 1531 C 134.491 -2.95235 -4.45803 0
M  V30 1532 C 135.791 -4.39766 -2.81786 0
M  V30 1533 H 137.485 -2.66 -1.37421 0
M  V30 1534 H 135.031 -1.28002 -0.659662 0
M  V30 1535 H 136.984 -1.98672 -3.71628 0
M  V30 1536 H 135.708 -0.883545 -3.14422 0
M  V30 1537 H 134.367 -2.8463 -2.31044 0
M  V30 1538 H 134.015 -1.97239 -4.62715 0
M  V30 1539 H 133.715 -3.72642 -4.54326 0
M  V30 1540 H 135.239 -3.11803 -5.24987 0
M  V30 1541 H 136.653 -4.55054 -3.4871 0
M  V30 1542 H 135.05 -5.18722 -3.0174 0
M  V30 1543 H 136.12 -4.51229 -1.7754 0
M  V30 1544 N 137.463 0.71206 -1.40597 0
M  V30 1545 C 138.426 1.80785 -1.40888 0
M  V30 1546 C 139.426 1.57937 -0.302103 0
M  V30 1547 O 140.616 1.64913 -0.561182 0
M  V30 1548 C 137.748 3.18927 -1.20409 0
M  V30 1549 H 138.941 1.81924 -2.38419 0
M  V30 1550 H 136.494 0.91805 -1.26497 0
M  V30 1551 H 137.229 3.23436 -0.236522 0
M  V30 1552 H 137.014 3.36911 -2.00582 0
M  V30 1553 H 138.504 3.98949 -1.23408 0
M  V30 1554 N 138.941 1.26152 0.944643 0
M  V30 1555 C 140.189 1.11271 1.6871 0
M  V30 1556 C 140.51 -0.345166 1.91921 0
M  V30 1557 O 139.78 -1.24387 1.51343 0
M  V30 1558 H 138.36 0.408783 0.625224 0
M  V30 1559 H 141.022 1.58427 1.1352 0
M  V30 1560 H 140.118 1.62879 2.66227 0
M  V30 1561 N 140.419 -1.14872 1.07899 0
M  V30 1562 C 141.665 -1.86064 0.806725 0
M  V30 1563 C 141.998 -1.82434 -0.665706 0
M  V30 1564 O 141.273 -1.25138 -1.48899 0
M  V30 1565 C 141.556 -3.34929 1.32267 0
M  V30 1566 C 141.409 -3.47161 2.86006 0
M  V30 1567 C 142.728 -4.29863 0.943717 0
M  V30 1568 H 139.847 -0.675591 0.294526 0
M  V30 1569 H 142.489 -1.34925 1.33773 0
M  V30 1570 H 140.639 -3.78611 0.870974 0
M  V30 1571 H 142.311 -3.12302 3.39507 0
M  V30 1572 H 140.554 -2.88539 3.23925 0
M  V30 1573 H 141.225 -4.51777 3.17177 0
M  V30 1574 H 143.701 -3.9417 1.33302 0
M  V30 1575 H 142.577 -5.32494 1.33198 0
M  V30 1576 H 142.838 -4.41846 -0.149796 0
M  V30 1577 N 141.898 -0.863906 -1.31812 0
M  V30 1578 C 142.861 -0.320212 -2.26952 0
M  V30 1579 C 143.861 0.525369 -1.51975 0
M  V30 1580 O 145.051 0.335547 -1.70938 0
M  V30 1581 C 142.183 0.545919 -3.365 0
M  V30 1582 H 143.376 -1.16004 -2.76556 0
M  V30 1583 H 140.929 -0.638995 -1.42641 0
M  V30 1584 H 141.664 1.40718 -2.92179 0
M  V30 1585 H 141.449 -0.0594674 -3.92055 0
M  V30 1586 H 142.939 0.918796 -4.07367 0
M  V30 1587 N 143.376 1.44774 -0.622745 0
M  V30 1588 C 144.606 2.06187 -0.130532 0
M  V30 1589 C 145.014 1.46547 1.19669 0
M  V30 1590 O 144.357 0.579636 1.74316 0
M  V30 1591 C 144.419 3.59437 0.0674983 0
M  V30 1592 C 144.083 4.41496 -1.18026 0
M  V30 1593 C 145.08 4.75512 -2.102 0
M  V30 1594 C 142.765 4.82007 -1.41333 0
M  V30 1595 C 144.759 5.48912 -3.23998 0
M  V30 1596 C 142.446 5.55157 -2.55429 0
M  V30 1597 C 143.444 5.88528 -3.46589 0
M  V30 1598 O 143.132 6.60191 -4.58697 0
M  V30 1599 H 142.864 0.672045 -0.0730162 0
M  V30 1600 H 145.418 1.86768 -0.854802 0
M  V30 1601 H 143.648 3.77314 0.846825 0
M  V30 1602 H 145.337 4.02642 0.513209 0
M  V30 1603 H 146.103 4.4476 -1.93425 0
M  V30 1604 H 141.982 4.55457 -0.712709 0
M  V30 1605 H 145.526 5.74877 -3.95174 0
M  V30 1606 H 141.423 5.85324 -2.72151 0
M  V30 1607 H 142.191 6.78654 -4.57571 0
M  V30 1608 N 144.854 0.36279 1.53368 0
M  V30 1609 C 146.082 -0.228613 2.05633 0
M  V30 1610 C 146.497 -1.42676 1.23649 0
M  V30 1611 O 145.854 -1.80394 0.27647 0
M  V30 1612 C 145.905 -0.624845 3.56059 0
M  V30 1613 O 145.626 0.525675 4.34935 0
M  V30 1614 C 147.127 -1.27493 4.24571 0
M  V30 1615 H 144.347 -0.0407183 0.669763 0
M  V30 1616 H 146.891 0.520352 1.97769 0
M  V30 1617 H 145.046 -1.32373 3.64083 0
M  V30 1618 H 145.46 0.205969 5.24095 0
M  V30 1619 H 146.934 -1.50277 5.31151 0
M  V30 1620 H 147.411 -2.23439 3.78116 0
M  V30 1621 H 148.017 -0.617558 4.20792 0
M  V30 1622 N 146.332 -1.57332 0.0918853 0
M  V30 1623 C 147.295 -2.12708 -0.85369 0
M  V30 1624 C 148.295 -1.05561 -1.213 0
M  V30 1625 O 149.485 -1.31461 -1.14296 0
M  V30 1626 C 146.617 -2.64503 -2.15061 0
M  V30 1627 H 147.81 -2.97573 -0.3729 0
M  V30 1628 H 145.363 -1.55509 -0.157072 0
M  V30 1629 H 146.098 -1.83149 -2.67632 0
M  V30 1630 H 145.883 -3.4284 -1.90272 0
M  V30 1631 H 147.373 -3.07351 -2.82711 0
M  V30 1632 N 147.81 0.181792 -1.56548 0
M  V30 1633 C 148.758 1.24461 -1.965 0
M  V30 1634 C 149.752 1.464 -0.852261 0
M  V30 1635 O 150.958 1.47103 -1.03733 0
M  V30 1636 H 147.333 0.418138 -0.625031 0
M  V30 1637 H 149.304 0.880714 -2.85107 0
M  V30 1638 C 148.053 2.57891 -2.33212 0
M  V30 1639 H 147.376 2.41829 -3.18369 0
M  V30 1640 H 148.816 3.3097 -2.65019 0
M  V30 1641 C 147.275 3.15871 -1.17163 0
M  V30 1642 O 147.805 3.9913 -0.453708 0
M  V30 1643 N 146.011 2.74808 -0.944936 0
M  V30 1644 H 145.558 2.07205 -1.53049 0
M  V30 1645 H 145.516 3.13939 -0.170286 0
M  V30 1646 N 149.288 1.51039 0.449983 0
M  V30 1647 C 150.218 1.74379 1.55288 0
M  V30 1648 C 151.199 0.593236 1.5942 0
M  V30 1649 O 152.384 0.834625 1.7535 0
M  V30 1650 C 149.514 1.85728 2.93466 0
M  V30 1651 C 148.468 3.01078 3.04197 0
M  V30 1652 C 147.794 2.97595 4.44231 0
M  V30 1653 C 149.094 4.41254 2.7945 0
M  V30 1654 H 150.788 2.66725 1.36008 0
M  V30 1655 H 148.334 1.2835 0.652864 0
M  V30 1656 H 150.287 2.0064 3.70569 0
M  V30 1657 H 149.011 0.900207 3.13949 0
M  V30 1658 H 147.67 2.85851 2.29531 0
M  V30 1659 H 147.318 1.99691 4.61663 0
M  V30 1660 H 147.018 3.75046 4.52343 0
M  V30 1661 H 148.542 3.14583 5.23326 0
M  V30 1662 H 149.956 4.56897 3.46292 0
M  V30 1663 H 148.353 5.20315 2.98985 0
M  V30 1664 H 149.423 4.52164 1.75144 0
M  V30 1665 N 150.766 -0.704594 1.40972 0
M  V30 1666 C 151.696 -1.83124 1.44872 0
M  V30 1667 C 152.677 -1.67281 0.30838 0
M  V30 1668 O 153.862 -1.87149 0.518556 0
M  V30 1669 C 150.992 -3.21181 1.32136 0
M  V30 1670 C 149.946 -3.51714 2.43888 0
M  V30 1671 C 149.272 -4.89032 2.16222 0
M  V30 1672 C 150.572 -3.516 3.86232 0
M  V30 1673 H 152.266 -1.80117 2.39161 0
M  V30 1674 H 149.812 -0.865145 1.15114 0
M  V30 1675 H 151.765 -3.99702 1.33479 0
M  V30 1676 H 150.489 -3.24791 0.343279 0
M  V30 1677 H 149.148 -2.75539 2.41813 0
M  V30 1678 H 148.796 -4.89256 1.16778 0
M  V30 1679 H 148.496 -5.10426 2.911 0
M  V30 1680 H 150.02 -5.69873 2.19265 0
M  V30 1681 H 151.434 -4.2014 3.9007 0
M  V30 1682 H 149.831 -3.84523 4.60719 0
M  V30 1683 H 150.901 -2.50757 4.15029 0
M  V30 1684 N 152.244 -1.26651 -0.937939 0
M  V30 1685 C 153.174 -1.10993 -2.05433 0
M  V30 1686 C 154.155 -0.0142161 -1.70094 0
M  V30 1687 O 155.34 -0.186837 -1.93299 0
M  V30 1688 C 152.47 -0.745561 -3.39203 0
M  V30 1689 C 151.424 -1.79337 -3.88616 0
M  V30 1690 C 150.75 -1.28324 -5.19073 0
M  V30 1691 C 152.05 -3.19553 -4.13138 0
M  V30 1692 H 153.744 -2.0438 -2.1879 0
M  V30 1693 H 151.29 -0.984041 -1.05131 0
M  V30 1694 H 153.243 -0.622888 -4.16771 0
M  V30 1695 H 151.967 0.22401 -3.25831 0
M  V30 1696 H 150.626 -1.90477 -3.13231 0
M  V30 1697 H 150.274 -0.303414 -5.02084 0
M  V30 1698 H 149.974 -1.98369 -5.53103 0
M  V30 1699 H 151.498 -1.1733 -5.99221 0
M  V30 1700 H 152.912 -3.11471 -4.81309 0
M  V30 1701 H 151.309 -3.87218 -4.58457 0
M  V30 1702 H 152.379 -3.65368 -3.18801 0
M  V30 1703 N 153.722 1.14298 -1.08507 0
M  V30 1704 C 154.947 1.8976 -0.837001 0
M  V30 1705 C 155.372 1.78097 0.605228 0
M  V30 1706 O 154.73 1.12188 1.4242 0
M  V30 1707 C 154.778 3.37685 -1.26495 0
M  V30 1708 O 153.882 4.10281 -0.417514 0
M  V30 1709 H 153.223 0.590365 -0.303917 0
M  V30 1710 H 155.753 1.44672 -1.44676 0
M  V30 1711 H 155.763 3.88501 -1.24625 0
M  V30 1712 H 154.438 3.45492 -2.31534 0
M  V30 1713 H 153.015 3.69536 -0.499722 0
M  V30 1714 N 155.201 0.870884 1.31352 0
M  V30 1715 C 156.449 0.48132 1.96285 0
M  V30 1716 C 156.77 -0.969813 1.69173 0
M  V30 1717 O 156.04 -1.67998 1.00764 0
M  V30 1718 H 154.62 0.175002 0.726212 0
M  V30 1719 H 157.282 1.11087 1.60143 0
M  V30 1720 H 156.378 0.639825 3.05471 0
M  V30 1721 N 156.679 -1.44442 0.630414 0
M  V30 1722 C 157.642 -2.29107 -0.0652523 0
M  V30 1723 C 158.642 -1.41002 -0.772995 0
M  V30 1724 O 159.832 -1.62881 -0.617692 0
M  V30 1725 C 156.964 -3.22564 -1.10296 0
M  V30 1726 H 158.157 -2.92103 0.679401 0
M  V30 1727 H 155.71 -1.51343 0.390517 0
M  V30 1728 H 156.445 -2.64416 -1.87762 0
M  V30 1729 H 156.23 -3.87491 -0.59941 0
M  V30 1730 H 157.72 -3.86167 -1.5895 0
M  V30 1731 N 158.157 -0.370918 -1.53173 0
M  V30 1732 C 159.385 0.217704 -2.05751 0
M  V30 1733 C 159.8 1.42018 -1.24404 0
M  V30 1734 O 159.157 1.80245 -0.286033 0
M  V30 1735 C 159.208 0.605954 -3.56385 0
M  V30 1736 O 158.929 -0.548734 -4.3465 0
M  V30 1737 C 160.43 1.2524 -4.25241 0
M  V30 1738 H 157.65 0.0371659 -0.66997 0
M  V30 1739 H 160.194 -0.530832 -1.9749 0
M  V30 1740 H 158.349 1.3044 -3.6478 0
M  V30 1741 H 158.763 -0.23376 -5.23979 0
M  V30 1742 H 160.237 1.47458 -5.3194 0
M  V30 1743 H 160.714 2.2143 -3.79296 0
M  V30 1744 H 161.32 0.595233 -4.21114 0
M  V30 1745 N 159.635 1.57281 -0.100228 0
M  V30 1746 C 160.863 1.98879 0.570509 0
M  V30 1747 C 161.278 0.979476 1.61405 0
M  V30 1748 O 160.635 -0.0302288 1.82475 0
M  V30 1749 C 160.686 3.4052 1.2136 0
M  V30 1750 O 160.407 4.37588 0.211786 0
M  V30 1751 C 161.908 3.97149 1.96945 0
M  V30 1752 H 159.128 0.653428 0.152555 0
M  V30 1753 H 161.672 2.03697 -0.18103 0
M  V30 1754 H 159.827 3.367 1.91603 0
M  V30 1755 H 160.241 5.20118 0.676607 0
M  V30 1756 H 161.715 4.98393 2.37294 0
M  V30 1757 H 162.192 3.3525 2.83733 0
M  V30 1758 H 162.798 4.04458 1.31506 0
M  V30 1759 N 161.113 -0.173488 1.56642 0
M  V30 1760 C 162.343 -0.904781 1.85734 0
M  V30 1761 C 162.751 -1.76431 0.68328 0
M  V30 1762 O 162.094 -1.802 -0.356865 0
M  V30 1763 C 162.156 -1.83382 3.09211 0
M  V30 1764 C 161.82 -1.15411 4.42187 0
M  V30 1765 C 162.817 -0.520609 5.17287 0
M  V30 1766 C 160.502 -1.15151 4.88923 0
M  V30 1767 C 162.496 0.106412 6.37311 0
M  V30 1768 C 160.183 -0.520664 6.08878 0
M  V30 1769 C 161.181 0.107196 6.82916 0
M  V30 1770 O 160.869 0.728102 8.00596 0
M  V30 1771 H 160.601 -0.268408 0.62043 0
M  V30 1772 H 163.155 -0.179096 2.04618 0
M  V30 1773 H 161.385 -2.59976 2.86268 0
M  V30 1774 H 163.074 -2.43476 3.24768 0
M  V30 1775 H 163.84 -0.514606 4.82262 0
M  V30 1776 H 159.719 -1.62961 4.31236 0
M  V30 1777 H 163.263 0.597081 6.9504 0
M  V30 1778 H 159.16 -0.524242 6.43368 0
M  V30 1779 H 159.928 0.627138 8.16094 0
M  V30 1780 N 162.591 -1.51276 -0.441967 0
M  V30 1781 C 163.538 -1.72256 -1.53612 0
M  V30 1782 C 164.508 -0.564164 -1.56225 0
M  V30 1783 O 165.693 -0.798074 -1.73307 0
M  V30 1784 C 162.833 -1.84932 -2.91366 0
M  V30 1785 C 161.946 -3.12459 -2.98317 0
M  V30 1786 C 161.081 -3.15758 -4.27166 0
M  V30 1787 C 160.12 -4.37619 -4.27967 0
M  V30 1788 N 159.257 -4.38493 -5.48333 0
M  V30 1789 H 164.097 -2.65654 -1.35026 0
M  V30 1790 H 161.634 -1.31662 -0.656009 0
M  V30 1791 H 163.592 -1.90263 -3.7129 0
M  V30 1792 H 162.222 -0.949461 -3.08521 0
M  V30 1793 H 161.274 -3.1646 -2.11086 0
M  V30 1794 H 162.586 -4.02382 -2.94771 0
M  V30 1795 H 161.74 -3.19979 -5.15459 0
M  V30 1796 H 160.479 -2.23715 -4.33362 0
M  V30 1797 H 159.484 -4.33579 -3.38067 0
M  V30 1798 H 160.709 -5.30921 -4.23438 0
M  V30 1799 H 158.655 -3.49318 -5.55259 0
M  V30 1800 H 158.572 -5.22219 -5.46647 0
M  V30 1801 H 159.84 -4.469 -6.38671 0
M  V30 1802 N 164.069 0.697108 -1.41344 0
M  V30 1803 C 164.999 1.82353 -1.45841 0
M  V30 1804 C 165.98 1.67115 -0.317247 0
M  V30 1805 O 167.165 1.86871 -0.528474 0
M  V30 1806 C 164.295 3.20476 -1.33838 0
M  V30 1807 C 163.249 3.50415 -2.4575 0
M  V30 1808 C 162.575 4.87878 -2.18813 0
M  V30 1809 C 163.875 3.49546 -3.88091 0
M  V30 1810 H 165.569 1.78846 -2.40113 0
M  V30 1811 H 163.115 0.859028 -1.15571 0
M  V30 1812 H 165.068 3.98988 -1.35596 0
M  V30 1813 H 163.792 3.24604 -0.360498 0
M  V30 1814 H 162.451 2.74253 -2.43271 0
M  V30 1815 H 162.099 4.8863 -1.19371 0
M  V30 1816 H 161.799 5.08875 -2.93803 0
M  V30 1817 H 163.323 5.68702 -2.22284 0
M  V30 1818 H 164.737 4.18066 -3.92293 0
M  V30 1819 H 163.134 3.82075 -4.62751 0
M  V30 1820 H 164.204 2.48552 -4.16353 0
M  V30 1821 N 165.547 1.27147 0.931209 0
M  V30 1822 C 166.775 1.16082 1.71267 0
M  V30 1823 C 167.19 -0.282772 1.8667 0
M  V30 1824 O 166.547 -1.19283 1.38122 0
M  V30 1825 C 166.598 1.8358 3.11417 0
M  V30 1826 O 166.319 3.22299 2.96741 0
M  V30 1827 C 167.82 1.78597 4.05732 0
M  V30 1828 H 165.04 0.403758 0.535929 0
M  V30 1829 H 167.584 1.67953 1.16671 0
M  V30 1830 H 165.739 1.35623 3.62885 0
M  V30 1831 H 166.153 3.55851 3.85319 0
M  V30 1832 H 167.627 2.30444 5.01597 0
M  V30 1833 H 168.104 0.754564 4.3267 0
M  V30 1834 H 168.71 2.26152 3.60188 0
M  V30 1835 N 167.025 -1.13721 1.09112 0
M  V30 1836 C 168.436 -1.6648 0.845068 0
M  V30 1837 C 168.787 -1.85911 -0.62701 0
M  V30 1838 O 167.912 -1.57556 -1.48341 0
M  V30 1839 C 168.507 -3.02413 1.52748 0
M  V30 1840 C 167.066 -3.52176 1.32849 0
M  V30 1841 C 166.213 -2.27492 1.58564 0
M  V30 1842 H 169.164 -0.976872 1.25072 0
M  V30 1843 H 169.185 -3.68223 0.958752 0
M  V30 1844 H 168.697 -2.88238 2.59885 0
M  V30 1845 H 166.798 -3.7156 0.278137 0
M  V30 1846 H 166.911 -4.32499 2.0611 0
M  V30 1847 H 165.275 -2.33923 1.00758 0
M  V30 1848 H 166.058 -2.15886 2.66924 0
M  V30 1849 N 168.503 -0.877838 -1.30888 0
M  V30 1850 C 169.466 -0.344265 -2.266 0
M  V30 1851 C 170.466 0.50922 -1.52524 0
M  V30 1852 O 171.656 0.317398 -1.71284 0
M  V30 1853 C 168.788 0.510198 -3.37061 0
M  V30 1854 H 169.981 -1.1893 -2.7531 0
M  V30 1855 H 167.534 -0.654088 -1.41956 0
M  V30 1856 H 168.269 1.37612 -2.93655 0
M  V30 1857 H 168.054 -0.101047 -3.9197 0
M  V30 1858 H 169.544 0.875537 -4.08319 0
M  V30 1859 N 169.982 1.44106 -0.638065 0
M  V30 1860 C 170.914 2.28976 0.101205 0
M  V30 1861 C 171.927 1.4167 0.802088 0
M  V30 1862 O 173.116 1.65755 0.662375 0
M  V30 1863 C 170.216 3.18217 1.16581 0
M  V30 1864 C 169.389 4.33978 0.546066 0
M  V30 1865 C 168.448 5.04202 1.50554 0
M  V30 1866 O 167.474 5.59986 1.01999 0
M  V30 1867 N 168.676 5.06296 2.8398 0
M  V30 1868 H 171.441 2.93064 -0.627186 0
M  V30 1869 H 169.002 1.54629 -0.479731 0
M  V30 1870 H 170.994 3.62061 1.80815 0
M  V30 1871 H 169.564 2.55833 1.79634 0
M  V30 1872 H 168.784 3.93239 -0.275046 0
M  V30 1873 H 170.072 5.08675 0.112793 0
M  V30 1874 H 169.47 4.62319 3.26002 0
M  V30 1875 H 168.027 5.53907 3.43556 0
M  V30 1876 N 171.46 0.379036 1.52974 0
M  V30 1877 C 172.706 -0.199244 2.02422 0
M  V30 1878 C 173.061 -1.4532 1.26095 0
M  V30 1879 O 172.354 -1.88377 0.34996 0
M  V30 1880 C 172.548 -0.53096 3.53434 0
M  V30 1881 C 172.377 0.689298 4.44386 0
M  V30 1882 C 171.147 1.20546 4.9071 0
M  V30 1883 C 173.345 1.55856 4.90116 0
M  V30 1884 N 171.327 2.38434 5.65705 0
M  V30 1885 C 172.698 2.58396 5.63588 0
M  V30 1886 C 174.753 1.57986 4.7217 0
M  V30 1887 C 173.456 3.62939 6.21022 0
M  V30 1888 C 175.482 2.6143 5.30479 0
M  V30 1889 C 174.844 3.62693 6.03849 0
M  V30 1890 H 170.943 -0.0352671 0.781204 0
M  V30 1891 H 173.527 0.526614 1.87443 0
M  V30 1892 H 171.698 -1.22588 3.68547 0
M  V30 1893 H 173.43 -1.0955 3.89591 0
M  V30 1894 H 170.185 0.768022 4.67331 0
M  V30 1895 H 170.609 2.98055 6.07859 0
M  V30 1896 H 175.251 0.810475 4.14959 0
M  V30 1897 H 172.969 4.40751 6.77321 0
M  V30 1898 H 176.555 2.63949 5.18481 0
M  V30 1899 H 175.435 4.41424 6.48163 0
M  V30 1900 N 172.938 -1.57226 0.108567 0
M  V30 1901 C 174.185 -1.94833 -0.551943 0
M  V30 1902 C 174.513 -0.991204 -1.67348 0
M  V30 1903 O 173.768 -0.0131878 -1.95696 0
M  V30 1904 C 174.067 -3.38911 -1.13463 0
M  V30 1905 C 173.733 -4.50696 -0.135509 0
M  V30 1906 C 172.395 -4.80998 0.139252 0
M  V30 1907 C 174.747 -5.18333 0.545957 0
M  V30 1908 C 172.075 -5.76259 1.10194 0
M  V30 1909 C 174.427 -6.14627 1.49721 0
M  V30 1910 C 173.091 -6.43327 1.78006 0
M  V30 1911 H 172.361 -0.712944 -0.20197 0
M  V30 1912 H 175.008 -1.90582 0.18726 0
M  V30 1913 H 173.313 -3.39805 -1.95037 0
M  V30 1914 H 175.01 -3.65317 -1.65362 0
M  V30 1915 H 171.6 -4.27087 -0.359846 0
M  V30 1916 H 175.784 -4.95087 0.346842 0
M  V30 1917 H 171.04 -5.96804 1.32795 0
M  V30 1918 H 175.214 -6.66126 2.03099 0
M  V30 1919 H 172.841 -7.1695 2.52759 0
M  V30 1920 N 174.416 0.165178 -1.56732 0
M  V30 1921 C 175.346 1.20651 -1.99914 0
M  V30 1922 C 176.327 1.45827 -0.875705 0
M  V30 1923 O 177.512 1.57057 -1.14223 0
M  V30 1924 C 174.642 2.54401 -2.36427 0
M  V30 1925 C 173.596 2.43782 -3.51787 0
M  V30 1926 C 172.922 3.82078 -3.7406 0
M  V30 1927 C 174.222 1.93732 -4.85041 0
M  V30 1928 H 175.916 0.847534 -2.87154 0
M  V30 1929 H 173.462 0.40625 -1.38151 0
M  V30 1930 H 175.415 3.27458 -2.65234 0
M  V30 1931 H 174.139 2.92098 -1.46103 0
M  V30 1932 H 172.798 1.73178 -3.23117 0
M  V30 1933 H 172.446 4.17179 -2.81017 0
M  V30 1934 H 172.146 3.7584 -4.51684 0
M  V30 1935 H 173.67 4.56712 -4.05274 0
M  V30 1936 H 175.084 2.56569 -5.12684 0
M  V30 1937 H 173.481 1.98428 -5.66345 0
M  V30 1938 H 174.551 0.891962 -4.76626 0
M  V30 1939 N 175.894 1.51508 0.433938 0
M  V30 1940 C 177.31 1.39759 0.770682 0
M  V30 1941 C 177.51 0.482594 1.95636 0
M  V30 1942 O 176.566 -0.0609691 2.52426 0
M  V30 1943 C 177.879 2.81851 1.04787 0
M  V30 1944 C 179.427 2.91025 1.1521 0
M  V30 1945 C 179.902 4.34032 1.46219 0
M  V30 1946 N 181.393 4.37154 1.53136 0
M  V30 1947 C 182.128 5.4484 1.78709 0
M  V30 1948 N 181.624 6.62682 2.02051 0
M  V30 1949 N 183.417 5.32324 1.80519 0
M  V30 1950 H 175.568 2.09548 -0.346892 0
M  V30 1951 H 177.831 0.943446 -0.0928074 0
M  V30 1952 H 177.537 3.50815 0.249304 0
M  V30 1953 H 177.411 3.21386 1.97461 0
M  V30 1954 H 179.798 2.22257 1.94128 0
M  V30 1955 H 179.879 2.54983 0.204281 0
M  V30 1956 H 179.523 5.03351 0.678274 0
M  V30 1957 H 179.453 4.6759 2.42212 0
M  V30 1958 H 181.944 3.52197 1.36987 0
M  V30 1959 H 182.257 7.40543 2.20943 0
M  V30 1960 H 180.602 6.65791 1.99366 0
M  V30 1961 H 183.793 4.39246 1.61805 0
M  V30 1962 H 183.966 6.16328 2.00111 0
M  V30 1963 N 177.372 -0.689602 1.41712 0
M  V30 1964 C 178.282 -1.83314 1.46401 0
M  V30 1965 C 179.298 -1.7036 0.35405 0
M  V30 1966 O 180.474 -1.92171 0.602692 0
M  V30 1967 C 177.539 -3.19344 1.34982 0
M  V30 1968 C 176.6 -3.44363 2.56344 0
M  V30 1969 C 175.833 -4.73904 2.45461 0
M  V30 1970 O 176.056 -5.508 1.48241 0
M  V30 1971 O 174.99 -4.99839 3.35328 0
M  V30 1972 H 178.816 -1.82314 2.42889 0
M  V30 1973 H 176.401 -0.843438 1.23315 0
M  V30 1974 H 178.283 -4.00547 1.3092 0
M  V30 1975 H 176.958 -3.21014 0.41612 0
M  V30 1976 H 175.865 -2.63067 2.65982 0
M  V30 1977 H 177.198 -3.47512 3.48563 0
M  V30 1978 N 178.85 -1.27639 -0.924453 0
M  V30 1979 C 180.098 -1.13941 -1.66918 0
M  V30 1980 C 180.419 0.314589 -1.92446 0
M  V30 1981 O 179.689 1.21964 -1.53303 0
M  V30 1982 H 178.269 -0.418678 -0.618642 0
M  V30 1983 H 180.931 -1.60213 -1.10985 0
M  V30 1984 H 180.027 -1.67094 -2.63602 0
M  V30 1985 N 180.328 1.1314 -1.09713 0
M  V30 1986 C 181.553 1.88862 -0.857081 0
M  V30 1987 C 181.978 1.78729 0.586304 0
M  V30 1988 O 181.336 1.13692 1.41222 0
M  V30 1989 C 181.384 3.36325 -1.30069 0
M  V30 1990 O 180.488 4.09815 -0.461007 0
M  V30 1991 H 179.829 0.587108 -0.310162 0
M  V30 1992 H 182.359 1.43129 -1.46203 0
M  V30 1993 H 182.369 3.87157 -1.28738 0
M  V30 1994 H 181.044 3.43017 -2.35185 0
M  V30 1995 H 179.621 3.68986 -0.538888 0
M  V30 1996 N 181.806 0.884767 1.30421 0
M  V30 1997 C 182.739 0.295999 2.26272 0
M  V30 1998 C 183.717 -0.58332 1.51777 0
M  V30 1999 O 184.901 -0.53346 1.80794 0
M  V30 2000 C 182.028 -0.57944 3.33707 0
M  V30 2001 C 181.074 0.230525 4.25877 0
M  V30 2002 S 181.907 1.61867 5.1045 0
M  V30 2003 C 183.063 0.749756 6.21393 0
M  V30 2004 H 183.296 1.10848 2.75862 0
M  V30 2005 H 180.829 0.684178 1.38414 0
M  V30 2006 H 182.787 -1.07879 3.96071 0
M  V30 2007 H 181.448 -1.36601 2.82841 0
M  V30 2008 H 180.641 -0.437542 5.02097 0
M  V30 2009 H 180.243 0.662493 3.68086 0
M  V30 2010 H 182.535 -0.0333547 6.77492 0
M  V30 2011 H 183.478 1.48356 6.92384 0
M  V30 2012 H 183.886 0.310751 5.63644 0
M  V30 2013 N 183.284 -1.43765 0.645699 0
M  V30 2014 C 184.531 -2.01898 0.15604 0
M  V30 2015 C 184.859 -1.50887 -1.22733 0
M  V30 2016 O 184.114 -0.689271 -1.8316 0
M  V30 2017 C 184.413 -3.57238 0.107679 0
M  V30 2018 C 184.079 -4.27564 1.43178 0
M  V30 2019 C 182.741 -4.46492 1.7944 0
M  V30 2020 C 185.093 -4.67454 2.30513 0
M  V30 2021 C 182.421 -5.02573 3.02716 0
M  V30 2022 C 184.773 -5.24901 3.53074 0
M  V30 2023 C 183.437 -5.42046 3.89541 0
M  V30 2024 H 182.707 -0.738797 0.057099 0
M  V30 2025 H 185.354 -1.72341 0.834912 0
M  V30 2026 H 183.659 -3.86293 -0.654618 0
M  V30 2027 H 185.356 -3.99965 -0.287938 0
M  V30 2028 H 181.946 -4.13171 1.13963 0
M  V30 2029 H 186.13 -4.5253 2.0379 0
M  V30 2030 H 181.386 -5.14033 3.31028 0
M  V30 2031 H 185.56 -5.54758 4.20971 0
M  V30 2032 H 183.187 -5.85268 4.85145 0
M  V30 2033 N 184.763 -0.387143 -1.52771 0
M  V30 2034 C 186.009 0.196025 -2.0185 0
M  V30 2035 C 186.342 1.46641 -1.27319 0
M  V30 2036 O 185.617 1.90889 -0.373032 0
M  V30 2037 C 185.9 0.466136 -3.5707 0
M  V30 2038 C 185.753 -0.819385 -4.42274 0
M  V30 2039 C 187.072 1.25768 -4.21747 0
M  V30 2040 H 184.191 0.0697708 -0.73369 0
M  V30 2041 H 186.833 -0.516286 -1.82851 0
M  V30 2042 H 184.983 1.07293 -3.7339 0
M  V30 2043 H 186.655 -1.4563 -4.37709 0
M  V30 2044 H 184.898 -1.43517 -4.09372 0
M  V30 2045 H 185.569 -0.585065 -5.48891 0
M  V30 2046 H 188.045 0.744167 -4.09391 0
M  V30 2047 H 186.921 1.41541 -5.30337 0
M  V30 2048 H 187.182 2.27228 -3.79236 0
M  V30 2049 N 186.241 1.57166 -0.116904 0
M  V30 2050 C 187.204 2.14039 0.819742 0
M  V30 2051 C 188.204 1.07477 1.19605 0
M  V30 2052 O 189.394 1.33263 1.1219 0
M  V30 2053 C 186.526 2.67891 2.10826 0
M  V30 2054 H 187.719 2.98128 0.325511 0
M  V30 2055 H 185.272 1.55739 0.132312 0
M  V30 2056 H 186.007 1.87384 2.64685 0
M  V30 2057 H 185.792 3.45823 1.84793 0
M  V30 2058 H 187.282 3.11809 2.77785 0
M  V30 2059 N 187.719 -0.156864 1.56817 0
M  V30 2060 C 188.649 -1.19589 2.00551 0
M  V30 2061 C 189.63 -1.4536 0.883426 0
M  V30 2062 O 190.815 -1.56449 1.15054 0
M  V30 2063 C 187.945 -2.53143 2.37773 0
M  V30 2064 C 186.899 -2.41913 3.53075 0
M  V30 2065 C 186.225 -3.80088 3.76081 0
M  V30 2066 C 187.525 -1.91157 4.86062 0
M  V30 2067 H 189.219 -0.832293 2.87599 0
M  V30 2068 H 186.765 -0.398918 1.38364 0
M  V30 2069 H 188.718 -3.26047 2.66967 0
M  V30 2070 H 187.442 -2.91319 1.4765 0
M  V30 2071 H 186.101 -1.71462 3.24031 0
M  V30 2072 H 185.749 -4.15683 2.83225 0
M  V30 2073 H 185.449 -3.73439 4.53671 0
M  V30 2074 H 186.973 -4.54556 4.0769 0
M  V30 2075 H 188.387 -2.53846 5.14038 0
M  V30 2076 H 186.784 -1.95422 5.67389 0
M  V30 2077 H 187.854 -0.866673 4.77092 0
M  V30 2078 N 189.197 -1.51736 -0.425897 0
M  V30 2079 C 190.422 -1.69082 -1.20108 0
M  V30 2080 C 190.847 -0.392398 -1.83962 0
M  V30 2081 O 190.205 0.64858 -1.69302 0
M  V30 2082 C 190.253 -2.81604 -2.25237 0
M  V30 2083 O 189.357 -2.46004 -3.30992 0
M  V30 2084 H 188.698 -0.563408 -0.35138 0
M  V30 2085 H 191.228 -1.98358 -0.501512 0
M  V30 2086 H 191.238 -3.06025 -2.69838 0
M  V30 2087 H 189.913 -3.75817 -1.78142 0
M  V30 2088 H 188.49 -2.32195 -2.91787 0
M  V30 2089 N 190.675 0.682077 -1.42076 0
M  V30 2090 C 191.638 1.77756 -1.44691 0
M  V30 2091 C 192.638 1.5726 -0.335535 0
M  V30 2092 O 193.828 1.63686 -0.596037 0
M  V30 2093 C 190.96 3.16301 -1.27146 0
M  V30 2094 H 192.153 1.76826 -2.42224 0
M  V30 2095 H 189.706 0.891012 -1.28416 0
M  V30 2096 H 190.441 3.22862 -0.305075 0
M  V30 2097 H 190.226 3.32581 -2.07683 0
M  V30 2098 H 191.716 3.96241 -1.31843 0
M  V30 2099 N 192.153 1.28127 0.917671 0
M  V30 2100 C 193.378 1.18007 1.70555 0
M  V30 2101 C 193.803 -0.258257 1.86319 0
M  V30 2102 O 193.161 -1.1869 1.37049 0
M  V30 2103 C 193.209 1.87948 3.07746 0
M  V30 2104 O 192.313 1.18427 3.9503 0
M  V30 2105 H 191.654 0.409867 0.522403 0
M  V30 2106 H 194.184 1.69379 1.1477 0
M  V30 2107 H 194.194 1.95701 3.58001 0
M  V30 2108 H 192.869 2.92573 2.95591 0
M  V30 2109 H 191.446 1.18811 3.53466 0
M  V30 2110 N 193.631 -1.12557 1.10312 0
M  V30 2111 C 194.877 -1.84311 0.846011 0
M  V30 2112 C 195.21 -1.83805 -0.626859 0
M  V30 2113 O 194.485 -1.28268 -1.46211 0
M  V30 2114 C 194.768 -3.32048 1.39341 0
M  V30 2115 C 194.621 -3.41016 2.93305 0
M  V30 2116 C 195.94 -4.27764 1.03468 0
M  V30 2117 H 193.059 -0.669192 0.30879 0
M  V30 2118 H 195.701 -1.32057 1.36605 0
M  V30 2119 H 193.851 -3.76678 0.951087 0
M  V30 2120 H 195.523 -3.05031 3.46055 0
M  V30 2121 H 193.766 -2.81603 3.29973 0
M  V30 2122 H 194.437 -4.44948 3.26689 0
M  V30 2123 H 196.913 -3.91253 1.41633 0
M  V30 2124 H 195.789 -5.29549 1.44463 0
M  V30 2125 H 196.05 -4.42064 -0.0560404 0
M  V30 2126 N 195.109 -0.891671 -1.2995 0
M  V30 2127 C 196.356 -0.513501 -1.95881 0
M  V30 2128 C 196.684 0.938655 -1.70351 0
M  V30 2129 O 195.939 1.67936 -1.00478 0
M  V30 2130 C 196.238 -0.742868 -3.49594 0
M  V30 2131 C 195.904 -2.17114 -3.95186 0
M  V30 2132 C 194.566 -2.56169 -4.07346 0
M  V30 2133 C 196.918 -3.10162 -4.18866 0
M  V30 2134 C 194.246 -3.87469 -4.4055 0
M  V30 2135 C 196.598 -4.41001 -4.53542 0
M  V30 2136 C 195.262 -4.79941 -4.63911 0
M  V30 2137 H 194.532 -0.187903 -0.71678 0
M  V30 2138 H 197.179 -1.1288 -1.54694 0
M  V30 2139 H 195.484 -0.044586 -3.91775 0
M  V30 2140 H 197.181 -0.429767 -3.9869 0
M  V30 2141 H 193.771 -1.85801 -3.86233 0
M  V30 2142 H 197.955 -2.81206 -4.08946 0
M  V30 2143 H 193.211 -4.17371 -4.46779 0
M  V30 2144 H 197.385 -5.13133 -4.70815 0
M  V30 2145 H 195.012 -5.81719 -4.89395 0
M  V30 2146 N 196.587 1.43421 -0.653314 0
M  V30 2147 C 197.812 2.06678 -0.172846 0
M  V30 2148 C 198.237 1.48648 1.15262 0
M  V30 2149 O 197.595 0.596457 1.71208 0
M  V30 2150 C 197.643 3.60474 -0.0953184 0
M  V30 2151 O 196.747 4.01487 0.942442 0
M  V30 2152 H 196.088 0.657181 -0.0949155 0
M  V30 2153 H 198.618 1.83925 -0.896265 0
M  V30 2154 H 198.628 4.07905 0.0879728 0
M  V30 2155 H 197.303 4.02088 -1.06291 0
M  V30 2156 H 195.88 3.65646 0.731932 0
M  V30 2157 N 198.065 0.39524 1.52563 0
M  V30 2158 C 198.995 -0.428384 2.29537 0
M  V30 2159 C 199.976 -1.05831 1.33169 0
M  V30 2160 O 201.161 -1.06995 1.62067 0
M  V30 2161 C 198.291 -1.55274 3.10656 0
M  V30 2162 C 197.245 -1.04855 4.14957 0
M  V30 2163 C 196.571 -2.26543 4.84337 0
M  V30 2164 C 197.871 -0.112324 5.22179 0
M  V30 2165 H 199.565 0.213867 2.98635 0
M  V30 2166 H 197.111 0.104298 1.43622 0
M  V30 2167 H 199.064 -2.1358 3.63265 0
M  V30 2168 H 197.788 -2.22266 2.39302 0
M  V30 2169 H 196.447 -0.487985 3.63338 0
M  V30 2170 H 196.095 -2.92059 4.09525 0
M  V30 2171 H 195.795 -1.93466 5.54837 0
M  V30 2172 H 197.319 -2.85481 5.39753 0
M  V30 2173 H 198.733 -0.603752 5.70112 0
M  V30 2174 H 197.13 0.128968 5.99961 0
M  V30 2175 H 198.2 0.837052 4.77621 0
M  V30 2176 N 199.544 -1.57102 0.125237 0
M  V30 2177 C 200.474 -2.18659 -0.819174 0
M  V30 2178 C 201.455 -1.12843 -1.27281 0
M  V30 2179 O 202.64 -1.41104 -1.33429 0
M  V30 2180 C 199.77 -2.79096 -2.06695 0
M  V30 2181 C 198.724 -3.90548 -1.75088 0
M  V30 2182 C 198.05 -4.37821 -3.06948 0
M  V30 2183 C 199.35 -5.12356 -1.01435 0
M  V30 2184 H 201.044 -2.9783 -0.306202 0
M  V30 2185 H 198.59 -1.4326 -0.145839 0
M  V30 2186 H 200.543 -3.2082 -2.73226 0
M  V30 2187 H 199.267 -1.97223 -2.60328 0
M  V30 2188 H 197.926 -3.49409 -1.10944 0
M  V30 2189 H 197.574 -3.52799 -3.58527 0
M  V30 2190 H 197.274 -5.12982 -2.86571 0
M  V30 2191 H 198.798 -4.822 -3.74587 0
M  V30 2192 H 200.212 -5.5106 -1.58132 0
M  V30 2193 H 198.609 -5.9314 -0.911319 0
M  V30 2194 H 199.679 -4.849 -0.00218681 0
M  V30 2195 N 201.022 0.148545 -1.56898 0
M  V30 2196 C 201.985 1.16736 -1.97244 0
M  V30 2197 C 202.985 1.35947 -0.858777 0
M  V30 2198 O 204.175 1.32966 -1.12542 0
M  V30 2199 C 201.307 2.52798 -2.28705 0
M  V30 2200 H 202.5 0.821279 -2.88435 0
M  V30 2201 H 200.053 0.391831 -1.51309 0
M  V30 2202 H 200.788 2.92381 -1.403 0
M  V30 2203 H 200.573 2.40216 -3.09901 0
M  V30 2204 H 202.063 3.26179 -2.60762 0
M  V30 2205 N 202.5 1.5196 0.417844 0
M  V30 2206 C 203.749 1.6482 1.16264 0
M  V30 2207 C 204.062 0.379886 1.91876 0
M  V30 2208 O 205.268 0.388154 2.68711 0
M  V30 2209 C 203.724 2.91161 2.1155 0
M  V30 2210 C 203.332 4.25068 1.41495 0
M  V30 2211 C 205.076 3.13383 2.86341 0
M  V30 2212 C 202.983 5.42541 2.35379 0
M  V30 2213 H 201.913 0.613954 0.437694 0
M  V30 2214 H 204.564 1.78442 0.427871 0
M  V30 2215 H 202.946 2.71218 2.88543 0
M  V30 2216 H 204.12 4.55463 0.699263 0
M  V30 2217 H 202.435 4.0888 0.787792 0
M  V30 2218 H 205.032 3.98324 3.5671 0
M  V30 2219 H 205.375 2.27256 3.48798 0
M  V30 2220 H 205.908 3.33757 2.1645 0
M  V30 2221 H 202.647 6.30987 1.77582 0
M  V30 2222 H 202.167 5.16497 3.04945 0
M  V30 2223 H 203.846 5.75272 2.96093 0
M  V30 2224 N 203.978 -0.674533 1.42435 0
M  V30 2225 C 204.941 -1.76986 1.45632 0
M  V30 2226 C 205.941 -1.5708 0.343871 0
M  V30 2227 O 207.131 -1.63367 0.604709 0
M  V30 2228 C 204.263 -3.15623 1.28822 0
M  V30 2229 H 205.456 -1.75539 2.43158 0
M  V30 2230 H 203.009 -0.884189 1.28887 0
M  V30 2231 H 203.744 -3.22696 0.322193 0
M  V30 2232 H 203.529 -3.31475 2.09444 0
M  V30 2233 H 205.019 -3.95537 1.33942 0
M  V30 2234 N 205.456 -1.28612 -0.910864 0
M  V30 2235 C 206.705 -1.15311 -1.65488 0
M  V30 2236 C 207.018 0.296999 -1.93332 0
M  V30 2237 O 208.224 0.551168 -2.65847 0
M  V30 2238 C 206.68 -2.01599 -2.98137 0
M  V30 2239 C 206.288 -3.51367 -2.7793 0
M  V30 2240 C 208.032 -1.96993 -3.76024 0
M  V30 2241 C 205.939 -4.29797 -4.06237 0
M  V30 2242 H 204.869 -0.42796 -0.620779 0
M  V30 2243 H 207.52 -1.53166 -1.01057 0
M  V30 2244 H 205.902 -1.56603 -3.63719 0
M  V30 2245 H 207.076 -4.0434 -2.21011 0
M  V30 2246 H 205.391 -3.57529 -2.13452 0
M  V30 2247 H 207.988 -2.52856 -4.71135 0
M  V30 2248 H 208.331 -0.94733 -4.05378 0
M  V30 2249 H 208.864 -2.39973 -3.17266 0
M  V30 2250 H 205.603 -5.32648 -3.82055 0
M  V30 2251 H 205.123 -3.81596 -4.62757 0
M  V30 2252 H 206.802 -4.39869 -4.74473 0
M  V30 2253 N 206.934 1.1197 -1.10907 0
M  V30 2254 C 207.844 2.21433 -0.774896 0
M  V30 2255 C 208.86 1.72478 0.229657 0
M  V30 2256 O 210.036 2.01288 0.0672008 0
M  V30 2257 C 207.101 3.4602 -0.216986 0
M  V30 2258 C 206.162 4.09791 -1.27944 0
M  V30 2259 C 205.395 5.28431 -0.748055 0
M  V30 2260 O 205.618 5.68823 0.423833 0
M  V30 2261 O 204.552 5.82644 -1.51027 0
M  V30 2262 H 208.378 2.5242 -1.68873 0
M  V30 2263 H 205.963 1.20399 -0.884555 0
M  V30 2264 H 207.845 4.21304 0.090059 0
M  V30 2265 H 206.52 3.16698 0.669633 0
M  V30 2266 H 205.427 3.36265 -1.63941 0
M  V30 2267 H 206.76 4.4328 -2.13925 0
M  V30 2268 N 208.412 0.89855 1.29475 0
M  V30 2269 C 209.828 0.594483 1.48115 0
M  V30 2270 C 210.028 -0.86431 1.82022 0
M  V30 2271 O 209.084 -1.64457 1.91599 0
M  V30 2272 C 210.397 1.51932 2.59494 0
M  V30 2273 C 211.945 1.5244 2.7337 0
M  V30 2274 C 212.42 2.43548 3.87877 0
M  V30 2275 N 213.911 2.41589 3.95208 0
M  V30 2276 C 214.646 3.08789 4.83153 0
M  V30 2277 N 214.142 3.85265 5.75798 0
M  V30 2278 N 215.935 2.97952 4.76635 0
M  V30 2279 H 208.086 1.84207 1.05742 0
M  V30 2280 H 210.349 0.789251 0.525154 0
M  V30 2281 H 210.055 2.55865 2.41301 0
M  V30 2282 H 209.929 1.23899 3.56271 0
M  V30 2283 H 212.316 0.492518 2.90961 0
M  V30 2284 H 212.397 1.8451 1.77172 0
M  V30 2285 H 212.041 3.46829 3.71041 0
M  V30 2286 H 211.971 2.08788 4.83441 0
M  V30 2287 H 214.462 1.86025 3.28943 0
M  V30 2288 H 214.775 4.33598 6.39697 0
M  V30 2289 H 213.12 3.89371 5.75687 0
M  V30 2290 H 216.311 2.37723 4.03244 0
M  V30 2291 H 216.484 3.50599 5.44962 0
M  V30 2292 N 209.89 -1.43072 0.660911 0
M  V30 2293 C 211.12 -2.05769 0.185153 0
M  V30 2294 C 211.528 -1.49668 -1.15742 0
M  V30 2295 O 210.871 -0.625649 -1.72717 0
M  V30 2296 C 210.933 -3.59489 0.0278237 0
M  V30 2297 C 210.597 -4.38212 1.2969 0
M  V30 2298 C 211.594 -4.69772 2.22734 0
M  V30 2299 C 209.279 -4.7809 1.54063 0
M  V30 2300 C 211.273 -5.40129 3.38437 0
M  V30 2301 C 208.96 -5.4819 2.70058 0
M  V30 2302 C 209.958 -5.79132 3.62071 0
M  V30 2303 O 209.646 -6.47798 4.76039 0
M  V30 2304 H 209.378 -0.669873 0.0908086 0
M  V30 2305 H 211.932 -1.84436 0.90402 0
M  V30 2306 H 210.162 -3.79426 -0.746489 0
M  V30 2307 H 211.851 -4.03862 -0.406275 0
M  V30 2308 H 212.617 -4.39476 2.05149 0
M  V30 2309 H 208.496 -4.53408 0.833215 0
M  V30 2310 H 212.04 -5.64198 4.10277 0
M  V30 2311 H 207.937 -5.77902 2.87574 0
M  V30 2312 H 208.705 -6.66283 4.75404 0
M  V30 2313 N 211.368 -0.403325 -1.52352 0
M  V30 2314 C 212.617 0.175668 -2.00934 0
M  V30 2315 C 212.93 1.46718 -1.29356 0
M  V30 2316 O 214.136 2.12708 -1.68724 0
M  V30 2317 C 212.592 0.363612 -3.58058 0
M  V30 2318 C 212.2 -0.915472 -4.38547 0
M  V30 2319 C 213.944 0.89821 -4.14888 0
M  V30 2320 C 211.851 -0.695035 -5.87302 0
M  V30 2321 H 210.781 0.0694234 -0.750797 0
M  V30 2322 H 213.432 -0.527879 -1.75743 0
M  V30 2323 H 211.814 1.12935 -3.79555 0
M  V30 2324 H 212.988 -1.68691 -4.28812 0
M  V30 2325 H 211.303 -1.37606 -3.93006 0
M  V30 2326 H 213.9 1.07907 -5.23699 0
M  V30 2327 H 214.243 1.87126 -3.71873 0
M  V30 2328 H 214.776 0.191681 -3.97338 0
M  V30 2329 H 211.515 -1.63948 -6.34666 0
M  V30 2330 H 211.035 0.0372116 -5.99788 0
M  V30 2331 H 212.714 -0.33497 -6.46132 0
M  V30 2332 N 212.846 1.57033 -0.133567 0
M  V30 2333 C 214.074 2.00044 0.528195 0
M  V30 2334 C 214.489 1.01349 1.59291 0
M  V30 2335 O 213.846 0.00848369 1.82498 0
M  V30 2336 C 213.897 3.43018 1.1411 0
M  V30 2337 O 213.618 4.37939 0.11892 0
M  V30 2338 C 215.119 4.01237 1.88477 0
M  V30 2339 H 212.339 0.656517 0.138661 0
M  V30 2340 H 214.883 2.03267 -0.224196 0
M  V30 2341 H 213.038 3.40688 1.84418 0
M  V30 2342 H 213.452 5.21436 0.56613 0
M  V30 2343 H 214.926 5.03314 2.26669 0
M  V30 2344 H 215.403 3.41193 2.76558 0
M  V30 2345 H 216.009 4.07156 1.22898 0
M  V30 2346 N 214.325 -0.140222 1.56975 0
M  V30 2347 C 215.258 -1.20266 1.93936 0
M  V30 2348 C 216.236 -1.41212 0.806099 0
M  V30 2349 O 217.42 -1.55713 1.06234 0
M  V30 2350 C 214.547 -2.56037 2.21726 0
M  V30 2351 C 213.593 -2.51646 3.44349 0
M  V30 2352 S 214.426 -1.97678 4.97678 0
M  V30 2353 C 215.582 -3.35165 5.28597 0
M  V30 2354 H 215.815 -0.887358 2.83749 0
M  V30 2355 H 213.348 -0.346119 1.50471 0
M  V30 2356 H 215.306 -3.34167 2.38416 0
M  V30 2357 H 213.967 -2.84755 1.32566 0
M  V30 2358 H 213.16 -3.51608 3.61092 0
M  V30 2359 H 212.762 -1.81628 3.26936 0
M  V30 2360 H 215.054 -4.31302 5.2248 0
M  V30 2361 H 215.997 -3.23269 6.30002 0
M  V30 2362 H 216.405 -3.32614 4.56101 0
M  V30 2363 N 215.803 -1.52179 -0.40978 0
M  V30 2364 C 216.733 -1.78435 -1.5061 0
M  V30 2365 C 217.714 -0.635295 -1.57791 0
M  V30 2366 O 218.899 -0.880823 -1.73076 0
M  V30 2367 C 216.029 -1.93444 -2.88439 0
M  V30 2368 C 214.983 -3.09038 -2.96108 0
M  V30 2369 C 214.309 -3.09268 -4.36185 0
M  V30 2370 C 215.609 -4.48508 -2.67652 0
M  V30 2371 H 217.303 -2.70237 -1.28889 0
M  V30 2372 H 214.849 -1.30036 -0.618605 0
M  V30 2373 H 216.802 -2.10394 -3.65119 0
M  V30 2374 H 215.526 -0.983129 -3.11452 0
M  V30 2375 H 214.185 -2.91837 -2.21872 0
M  V30 2376 H 213.833 -2.11861 -4.56206 0
M  V30 2377 H 213.533 -3.86907 -4.42241 0
M  V30 2378 H 215.057 -3.28348 -5.14801 0
M  V30 2379 H 216.471 -4.65918 -3.34056 0
M  V30 2380 H 214.868 -5.28059 -2.85085 0
M  V30 2381 H 215.938 -4.56649 -1.63095 0
M  V30 2382 N 217.281 0.66697 -1.42791 0
M  V30 2383 C 218.228 1.7803 -1.4688 0
M  V30 2384 C 219.198 1.6299 -0.319919 0
M  V30 2385 O 220.383 1.83432 -0.525118 0
M  V30 2386 C 217.523 3.1611 -1.38451 0
M  V30 2387 C 216.636 3.42381 -2.63437 0
M  V30 2388 C 215.771 4.70232 -2.47094 0
M  V30 2389 C 214.81 4.89564 -3.67415 0
M  V30 2390 N 213.947 6.08661 -3.49966 0
M  V30 2391 H 218.787 1.7387 -2.42019 0
M  V30 2392 H 216.324 0.84868 -1.20149 0
M  V30 2393 H 218.282 3.95914 -1.31561 0
M  V30 2394 H 216.912 3.19374 -0.469033 0
M  V30 2395 H 215.964 2.56774 -2.80662 0
M  V30 2396 H 217.276 3.52557 -3.52853 0
M  V30 2397 H 216.43 5.5814 -2.37834 0
M  V30 2398 H 215.169 4.62353 -1.5518 0
M  V30 2399 H 214.174 4.00096 -3.77099 0
M  V30 2400 H 215.399 4.99282 -4.6032 0
M  V30 2401 H 213.345 6.0194 -2.60776 0
M  V30 2402 H 213.262 6.19733 -4.32975 0
M  V30 2403 H 214.53 6.99226 -3.44532 0
M  V30 2404 N 218.759 1.29093 0.90403 0
M  V30 2405 C 219.692 1.08176 2.00931 0
M  V30 2406 C 220.67 -0.005083 1.62599 0
M  V30 2407 O 221.854 0.144765 1.87943 0
M  V30 2408 C 218.981 0.645897 3.32484 0
M  V30 2409 C 218.027 1.73081 3.89801 0
M  V30 2410 S 218.86 3.32905 4.19446 0
M  V30 2411 C 220.016 2.91176 5.54046 0
M  V30 2412 H 220.249 2.01752 2.18365 0
M  V30 2413 H 217.782 1.13191 1.0501 0
M  V30 2414 H 219.74 0.401131 4.08535 0
M  V30 2415 H 218.401 -0.270188 3.12936 0
M  V30 2416 H 217.594 1.37768 4.84805 0
M  V30 2417 H 217.196 1.92888 3.20422 0
M  V30 2418 H 219.488 2.37952 6.34338 0
M  V30 2419 H 220.431 3.85014 5.94281 0
M  V30 2420 H 220.839 2.296 5.15698 0
M  V30 2421 N 220.237 -1.11381 1.11499 0
M  V30 2422 C 221.184 -2.17439 0.773887 0
M  V30 2423 C 222.154 -1.64132 -0.254899 0
M  V30 2424 O 223.339 -1.90345 -0.13168 0
M  V30 2425 C 220.479 -3.44373 0.223917 0
M  V30 2426 C 219.592 -4.1168 1.30934 0
M  V30 2427 C 218.727 -5.263 0.71984 0
M  V30 2428 C 217.766 -5.85493 1.78507 0
M  V30 2429 N 216.903 -6.91507 1.21502 0
M  V30 2430 H 221.743 -2.45962 1.68246 0
M  V30 2431 H 219.28 -1.20744 0.840191 0
M  V30 2432 H 221.238 -4.17047 -0.112921 0
M  V30 2433 H 219.868 -3.16232 -0.647851 0
M  V30 2434 H 218.92 -3.37073 1.76312 0
M  V30 2435 H 220.232 -4.51729 2.11524 0
M  V30 2436 H 219.386 -6.05785 0.333094 0
M  V30 2437 H 218.125 -4.87559 -0.117377 0
M  V30 2438 H 217.13 -5.04686 2.18111 0
M  V30 2439 H 218.355 -6.26301 2.62533 0
M  V30 2440 H 216.301 -6.54783 0.399455 0
M  V30 2441 H 216.218 -7.30214 1.95763 0
M  V30 2442 H 217.486 -7.74795 0.855181 0
M  V30 2443 N 221.715 -0.905404 -1.28997 0
M  V30 2444 C 222.645 -0.404212 -2.29975 0
M  V30 2445 C 223.626 0.523784 -1.61835 0
M  V30 2446 O 224.811 0.433298 -1.89304 0
M  V30 2447 C 221.941 0.364042 -3.45387 0
M  V30 2448 C 220.895 -0.474048 -4.25367 0
M  V30 2449 C 220.221 0.422045 -5.33032 0
M  V30 2450 C 221.521 -1.72696 -4.92923 0
M  V30 2451 H 223.215 -1.24807 -2.72146 0
M  V30 2452 H 220.761 -0.601585 -1.30832 0
M  V30 2453 H 222.714 0.725447 -4.15109 0
M  V30 2454 H 221.438 1.24174 -3.02074 0
M  V30 2455 H 220.097 -0.81786 -3.57361 0
M  V30 2456 H 219.745 1.29804 -4.85963 0
M  V30 2457 H 219.445 -0.135057 -5.87445 0
M  V30 2458 H 220.969 0.779517 -6.05604 0
M  V30 2459 H 222.383 -1.43495 -5.55051 0
M  V30 2460 H 220.78 -2.22582 -5.57295 0
M  V30 2461 H 221.85 -2.45964 -4.17887 0
M  V30 2462 N 223.193 1.4272 -0.668489 0
M  V30 2463 C 224.143 2.27971 0.0363806 0
M  V30 2464 C 225.127 1.40741 0.779794 0
M  V30 2465 O 226.319 1.64245 0.659745 0
M  V30 2466 C 223.448 3.28673 0.991398 0
M  V30 2467 C 222.534 4.23388 0.245658 0
M  V30 2468 N 222.925 5.00267 -0.746069 0
M  V30 2469 C 221.223 4.43355 0.484988 0
M  V30 2470 C 221.924 5.69396 -1.19009 0
M  V30 2471 N 220.9 5.41095 -0.521287 0
M  V30 2472 H 224.702 2.84833 -0.724394 0
M  V30 2473 H 222.216 1.54607 -0.497028 0
M  V30 2474 H 224.213 3.88543 1.51129 0
M  V30 2475 H 222.873 2.73373 1.75207 0
M  V30 2476 H 223.884 5.05525 -1.12537 0
M  V30 2477 H 220.561 3.99104 1.22565 0
M  V30 2478 H 221.951 6.41083 -2.01153 0
M  V30 2479 N 224.671 0.411399 1.52136 0
M  V30 2480 C 225.619 -0.427633 2.28635 0
M  V30 2481 C 226.613 -1.04383 1.33419 0
M  V30 2482 O 227.819 -0.981772 1.50868 0
M  V30 2483 H 224.194 -0.156689 0.735495 0
M  V30 2484 H 226.165 0.238761 2.97443 0
M  V30 2485 C 224.914 -1.53082 3.12188 0
M  V30 2486 H 224.237 -1.06601 3.85326 0
M  V30 2487 H 225.677 -2.09167 3.68816 0
M  V30 2488 C 224.136 -2.49946 2.25895 0
M  V30 2489 O 224.666 -3.53884 1.90076 0
M  V30 2490 N 222.872 -2.2021 1.8962 0
M  V30 2491 H 222.419 -1.35719 2.18948 0
M  V30 2492 H 222.377 -2.85266 1.32176 0
M  V30 2493 N 226.149 -1.5696 0.141893 0
M  V30 2494 C 227.397 -1.95573 -0.509484 0
M  V30 2495 C 227.718 -1.02746 -1.65736 0
M  V30 2496 O 226.988 -0.0880311 -1.95702 0
M  V30 2497 H 225.568 -0.722115 -0.191205 0
M  V30 2498 H 228.23 -1.93697 0.216196 0
M  V30 2499 H 227.326 -2.99171 -0.889 0
M  V30 2500 N 227.627 0.131896 -1.57047 0
M  V30 2501 C 228.852 0.860418 -1.8871 0
M  V30 2502 C 229.277 1.73251 -0.73251 0
M  V30 2503 O 228.635 1.785 0.317429 0
M  V30 2504 C 228.683 1.68047 -3.19049 0
M  V30 2505 O 227.787 2.7862 -3.04047 0
M  V30 2506 H 227.128 0.238743 -0.619595 0
M  V30 2507 H 229.658 0.118169 -2.04258 0
M  V30 2508 H 229.668 2.07238 -3.51449 0
M  V30 2509 H 228.343 1.04018 -4.02682 0
M  V30 2510 H 226.92 2.42726 -2.83088 0
M  V30 2511 N 229.106 1.52395 0.401703 0
M  V30 2512 C 230.054 1.7689 1.51039 0
M  V30 2513 C 231.048 0.636298 1.56996 0
M  V30 2514 O 232.254 0.818507 1.60314 0
M  V30 2515 H 228.629 0.559502 0.502456 0
M  V30 2516 H 230.6 2.69757 1.27568 0
M  V30 2517 C 229.349 1.94331 2.88324 0
M  V30 2518 H 228.672 2.80905 2.84486 0
M  V30 2519 H 230.112 2.15466 3.65172 0
M  V30 2520 C 228.571 0.712396 3.29282 0
M  V30 2521 O 229.101 -0.116218 4.01532 0
M  V30 2522 N 227.307 0.546154 2.85422 0
M  V30 2523 H 226.854 1.22156 2.26794 0
M  V30 2524 H 226.812 -0.276113 3.13185 0
M  V30 2525 N 230.584 -0.659388 1.43143 0
M  V30 2526 C 231.532 -1.79374 1.4808 0
M  V30 2527 C 232.526 -1.65639 0.354988 0
M  V30 2528 O 233.732 -1.7206 0.528704 0
M  V30 2529 H 230.107 -0.591705 0.4641 0
M  V30 2530 H 232.078 -1.72329 2.43609 0
M  V30 2531 C 230.827 -3.17606 1.41499 0
M  V30 2532 H 230.15 -3.28809 2.27431 0
M  V30 2533 H 231.59 -3.96951 1.49015 0
M  V30 2534 C 230.049 -3.36642 0.131765 0
M  V30 2535 O 230.579 -3.93461 -0.809386 0
M  V30 2536 N 228.785 -2.90567 0.0439396 0
M  V30 2537 H 228.332 -2.44513 0.810619 0
M  V30 2538 H 228.29 -3.03681 -0.813969 0
M  V30 2539 N 232.062 -1.29571 -0.897171 0
M  V30 2540 C 233.309 -1.17689 -1.6479 0
M  V30 2541 C 233.637 0.27107 -1.92602 0
M  V30 2542 O 232.892 1.21193 -1.53658 0
M  V30 2543 C 233.191 -1.9382 -3.00281 0
M  V30 2544 C 232.857 -3.43522 -2.92068 0
M  V30 2545 C 231.519 -3.84348 -2.89535 0
M  V30 2546 C 233.871 -4.38906 -2.81089 0
M  V30 2547 C 231.199 -5.18869 -2.73846 0
M  V30 2548 C 233.551 -5.73521 -2.66939 0
M  V30 2549 C 232.215 -6.13601 -2.62774 0
M  V30 2550 H 231.485 -0.430654 -0.603008 0
M  V30 2551 H 234.132 -1.60536 -1.04404 0
M  V30 2552 H 232.437 -1.4357 -3.64547 0
M  V30 2553 H 234.134 -1.82028 -3.57305 0
M  V30 2554 H 230.724 -3.11072 -2.94842 0
M  V30 2555 H 234.908 -4.08315 -2.82121 0
M  V30 2556 H 230.164 -5.4903 -2.69027 0
M  V30 2557 H 234.338 -6.47078 -2.57416 0
M  V30 2558 H 231.965 -7.17786 -2.50375 0
M  V30 2559 N 233.54 1.10788 -1.12088 0
M  V30 2560 C 234.956 1.34691 -0.856186 0
M  V30 2561 C 235.156 1.94791 0.515615 0
M  V30 2562 O 234.212 2.18524 1.26505 0
M  V30 2563 C 235.525 2.27208 -1.9697 0
M  V30 2564 C 237.073 2.40755 -2.00016 0
M  V30 2565 C 237.548 3.36598 -3.1059 0
M  V30 2566 N 239.039 3.44164 -3.10008 0
M  V30 2567 C 239.774 4.18284 -3.92206 0
M  V30 2568 N 239.27 4.95322 -4.84384 0
M  V30 2569 N 241.063 4.13865 -3.80357 0
M  V30 2570 H 233.214 0.70144 -2.00483 0
M  V30 2571 H 235.477 0.371405 -0.872217 0
M  V30 2572 H 235.183 1.90251 -2.958 0
M  V30 2573 H 235.057 3.27485 -1.87172 0
M  V30 2574 H 237.444 2.76982 -1.01808 0
M  V30 2575 H 237.525 1.40305 -2.13888 0
M  V30 2576 H 237.169 3.01096 -4.09028 0
M  V30 2577 H 237.099 4.36918 -2.93956 0
M  V30 2578 H 239.59 2.8922 -2.43228 0
M  V30 2579 H 239.903 5.49267 -5.43623 0
M  V30 2580 H 238.248 4.94459 -4.884 0
M  V30 2581 H 241.439 3.52773 -3.07683 0
M  V30 2582 H 241.612 4.71372 -4.44649 0
M  V30 2583 N 235.018 0.912232 1.28515 0
M  V30 2584 C 235.948 0.416403 2.29757 0
M  V30 2585 C 236.929 -0.515194 1.6211 0
M  V30 2586 O 238.114 -0.423253 1.89532 0
M  V30 2587 C 235.244 -0.34572 3.45575 0
M  V30 2588 C 234.198 0.496599 4.25109 0
M  V30 2589 C 233.524 -0.393771 5.33248 0
M  V30 2590 C 234.824 1.75307 4.92001 0
M  V30 2591 H 236.518 1.26249 2.7148 0
M  V30 2592 H 234.064 0.608515 1.30511 0
M  V30 2593 H 236.017 -0.703422 4.15488 0
M  V30 2594 H 234.741 -1.2257 3.02728 0
M  V30 2595 H 233.4 0.8368 3.56922 0
M  V30 2596 H 233.048 -1.27225 4.86644 0
M  V30 2597 H 232.748 0.166209 5.87365 0
M  V30 2598 H 234.272 -0.747389 6.06009 0
M  V30 2599 H 235.686 1.46437 5.54283 0
M  V30 2600 H 234.083 2.25534 5.56106 0
M  V30 2601 H 235.153 2.48176 4.16577 0
M  V30 2602 N 236.496 -1.42363 0.676048 0
M  V30 2603 C 237.743 -2.01522 0.19883 0
M  V30 2604 C 238.071 -1.53456 -1.19505 0
M  V30 2605 O 237.326 -0.727967 -1.81657 0
M  V30 2606 C 237.625 -3.56929 0.183431 0
M  V30 2607 C 237.291 -4.24431 1.52215 0
M  V30 2608 C 235.953 -4.42585 1.8887 0
M  V30 2609 C 238.305 -4.62459 2.40377 0
M  V30 2610 C 235.633 -4.96039 3.13309 0
M  V30 2611 C 237.985 -5.17294 3.64129 0
M  V30 2612 C 236.649 -5.33661 4.00951 0
M  V30 2613 H 235.919 -0.737419 0.0727571 0
M  V30 2614 H 238.566 -1.70531 0.871281 0
M  V30 2615 H 236.871 -3.87594 -0.572532 0
M  V30 2616 H 238.568 -4.00486 -0.203035 0
M  V30 2617 H 235.158 -4.10661 1.22701 0
M  V30 2618 H 239.342 -4.48105 2.13343 0
M  V30 2619 H 234.598 -5.06896 3.41857 0
M  V30 2620 H 238.772 -5.45704 4.32644 0
M  V30 2621 H 236.399 -5.74845 4.9745 0
M  V30 2622 N 237.974 -0.419461 -1.51915 0
M  V30 2623 C 238.904 0.391813 -2.30189 0
M  V30 2624 C 239.885 1.03699 -1.34836 0
M  V30 2625 O 241.07 1.04403 -1.63748 0
M  V30 2626 C 238.2 1.50312 -3.13087 0
M  V30 2627 C 237.154 0.9824 -4.16573 0
M  V30 2628 C 236.48 2.18809 -4.8788 0
M  V30 2629 C 237.78 0.0292356 -5.22292 0
M  V30 2630 H 239.474 -0.26135 -2.98257 0
M  V30 2631 H 237.02 -0.127134 -1.43438 0
M  V30 2632 H 238.973 2.07773 -3.66617 0
M  V30 2633 H 237.697 2.18431 -2.42807 0
M  V30 2634 H 236.356 0.430119 -3.64068 0
M  V30 2635 H 236.004 2.85507 -4.14119 0
M  V30 2636 H 235.704 1.84615 -5.57845 0
M  V30 2637 H 237.228 2.76858 -5.44226 0
M  V30 2638 H 238.642 0.512976 -5.71 0
M  V30 2639 H 237.039 -0.2244 -5.9968 0
M  V30 2640 H 238.109 -0.912931 -4.76228 0
M  V30 2641 N 239.452 1.56882 -0.150215 0
M  V30 2642 C 240.382 2.19935 0.784284 0
M  V30 2643 C 241.363 1.14854 1.25469 0
M  V30 2644 O 242.548 1.43209 1.31168 0
M  V30 2645 C 239.678 2.82349 2.02229 0
M  V30 2646 C 238.632 3.93285 1.68853 0
M  V30 2647 C 237.958 4.42649 2.99944 0
M  V30 2648 C 239.258 5.13904 0.932714 0
M  V30 2649 H 240.952 2.9828 0.258781 0
M  V30 2650 H 238.498 1.43473 0.123029 0
M  V30 2651 H 240.451 3.25126 2.68088 0
M  V30 2652 H 239.175 2.0134 2.57157 0
M  V30 2653 H 237.834 3.5113 1.05371 0
M  V30 2654 H 237.482 3.58458 3.52869 0
M  V30 2655 H 237.182 5.17476 2.78374 0
M  V30 2656 H 238.706 4.88099 3.66868 0
M  V30 2657 H 240.12 5.53506 1.49345 0
M  V30 2658 H 238.517 5.94515 0.81684 0
M  V30 2659 H 239.587 4.84842 -0.0749568 0
M  V30 2660 N 240.93 -0.123565 1.57115 0
M  V30 2661 C 242.179 -0.830704 1.83799 0
M  V30 2662 C 242.492 -1.81259 0.735158 0
M  V30 2663 O 243.698 -2.56558 0.888278 0
M  V30 2664 C 242.154 -1.52802 3.25852 0
M  V30 2665 C 241.762 -0.587356 4.44133 0
M  V30 2666 C 243.506 -2.22056 3.61789 0
M  V30 2667 C 241.413 -1.28764 5.77212 0
M  V30 2668 H 240.343 -0.313967 0.685522 0
M  V30 2669 H 242.994 -0.0834359 1.8331 0
M  V30 2670 H 241.376 -2.32175 3.20797 0
M  V30 2671 H 242.55 0.172829 4.60476 0
M  V30 2672 H 240.865 -0.00201892 4.164 0
M  V30 2673 H 243.462 -2.75131 4.58483 0
M  V30 2674 H 243.805 -2.99644 2.88997 0
M  V30 2675 H 244.338 -1.49576 3.68608 0
M  V30 2676 H 241.077 -0.55314 6.53162 0
M  V30 2677 H 240.597 -2.01995 5.64764 0
M  V30 2678 H 242.276 -1.8221 6.20813 0
M  V30 2679 N 242.408 -1.52605 -0.393616 0
M  V30 2680 C 243.633 -1.71592 -1.16495 0
M  V30 2681 C 244.058 -0.43133 -1.83088 0
M  V30 2682 O 243.416 0.612523 -1.7064 0
M  V30 2683 C 243.464 -2.86318 -2.19213 0
M  V30 2684 O 242.568 -2.52969 -3.257 0
M  V30 2685 H 241.909 -0.570734 -0.33935 0
M  V30 2686 H 244.439 -1.99377 -0.459324 0
M  V30 2687 H 244.449 -3.1168 -2.63286 0
M  V30 2688 H 243.124 -3.79511 -1.7013 0
M  V30 2689 H 241.701 -2.38332 -2.86797 0
M  V30 2690 N 243.887 0.651787 -1.4349 0
M  V30 2691 C 244.85 1.74647 -1.48429 0
M  V30 2692 C 245.85 1.56513 -0.368817 0
M  V30 2693 O 247.04 1.62385 -0.630623 0
M  V30 2694 C 244.172 3.13533 -1.33827 0
M  V30 2695 H 245.365 1.71649 -2.4592 0
M  V30 2696 H 242.918 0.863573 -1.30277 0
M  V30 2697 H 243.653 3.22142 -0.37349 0
M  V30 2698 H 243.438 3.28101 -2.14691 0
M  V30 2699 H 244.928 3.93356 -1.40218 0
M  V30 2700 N 245.365 1.30045 0.890287 0
M  V30 2701 C 246.605 1.19839 1.65584 0
M  V30 2702 C 246.969 -0.244175 1.90441 0
M  V30 2703 O 248.17 -0.469378 2.6467 0
M  V30 2704 C 246.441 1.99876 2.96284 0
M  V30 2705 S 248 2.06309 3.87275 0
M  V30 2706 H 244.818 0.427157 0.568382 0
M  V30 2707 H 247.42 1.64453 1.05715 0
M  V30 2708 H 246.124 3.03809 2.75913 0
M  V30 2709 H 245.655 1.55903 3.61189 0
M  V30 2710 H 247.67 1.18661 4.81803 0
M  V30 2711 N 246.843 -1.10192 1.12674 0
M  V30 2712 C 248.089 -1.82658 0.894847 0
M  V30 2713 C 248.444 -1.83666 -0.573107 0
M  V30 2714 O 247.737 -1.28816 -1.41835 0
M  V30 2715 C 247.931 -3.28552 1.4067 0
M  V30 2716 C 247.76 -3.41756 2.92289 0
M  V30 2717 C 246.53 -3.54021 3.60551 0
M  V30 2718 C 248.728 -3.34949 3.90274 0
M  V30 2719 N 246.71 -3.55827 5.0026 0
M  V30 2720 C 248.081 -3.43531 5.16127 0
M  V30 2721 C 250.136 -3.18565 3.8265 0
M  V30 2722 C 248.839 -3.37416 6.3525 0
M  V30 2723 C 250.865 -3.13772 5.01299 0
M  V30 2724 C 250.227 -3.22938 6.26012 0
M  V30 2725 H 246.326 -0.683044 0.380756 0
M  V30 2726 H 248.91 -1.31752 1.43351 0
M  V30 2727 H 247.081 -3.77946 0.895055 0
M  V30 2728 H 248.813 -3.88991 1.11661 0
M  V30 2729 H 245.568 -3.57135 3.1105 0
M  V30 2730 H 245.992 -3.60335 5.73138 0
M  V30 2731 H 250.634 -3.10354 2.87124 0
M  V30 2732 H 248.352 -3.44391 7.3104 0
M  V30 2733 H 251.938 -3.02242 4.97133 0
M  V30 2734 H 250.818 -3.19235 7.16281 0
M  V30 2735 N 248.321 -0.919034 -1.28029 0
M  V30 2736 C 249.567 -0.555757 -1.95036 0
M  V30 2737 C 249.9 0.899198 -1.72128 0
M  V30 2738 O 249.175 1.64023 -1.04531 0
M  V30 2739 C 249.458 -0.872024 -3.49382 0
M  V30 2740 C 249.311 -2.3801 -3.81669 0
M  V30 2741 C 250.63 -0.37185 -4.38526 0
M  V30 2742 H 247.749 -0.203386 -0.708381 0
M  V30 2743 H 250.391 -1.14924 -1.51303 0
M  V30 2744 H 248.541 -0.366946 -3.86763 0
M  V30 2745 H 250.213 -2.9562 -3.54128 0
M  V30 2746 H 248.456 -2.83289 -3.28526 0
M  V30 2747 H 249.127 -2.55192 -4.8947 0
M  V30 2748 H 251.603 -0.804602 -4.08247 0
M  V30 2749 H 250.479 -0.622173 -5.45362 0
M  V30 2750 H 250.74 0.727934 -4.36066 0
M  V30 2751 N 249.799 1.42003 -0.683588 0
M  V30 2752 C 251.048 2.00638 -0.206681 0
M  V30 2753 C 251.361 1.5472 1.19671 0
M  V30 2754 O 252.567 2.05833 1.77045 0
M  V30 2755 C 251.023 3.58487 -0.318632 0
M  V30 2756 C 250.631 4.1339 -1.72663 0
M  V30 2757 C 252.375 4.24384 0.0991141 0
M  V30 2758 C 250.282 5.63633 -1.79087 0
M  V30 2759 H 249.212 0.750408 -0.0735107 0
M  V30 2760 H 251.863 1.62624 -0.850048 0
M  V30 2761 H 250.245 3.94047 0.392781 0
M  V30 2762 H 251.419 3.89273 -2.46583 0
M  V30 2763 H 249.734 3.59976 -2.09299 0
M  V30 2764 H 252.331 5.34652 0.0713833 0
M  V30 2765 H 252.674 4.00505 1.13586 0
M  V30 2766 H 253.207 3.93816 -0.561599 0
M  V30 2767 H 249.946 5.92323 -2.80774 0
M  V30 2768 H 249.466 5.89714 -1.09535 0
M  V30 2769 H 251.145 6.28201 -1.5483 0
M  V30 2770 N 251.277 0.427512 1.51691 0
M  V30 2771 C 252.502 -0.143601 2.06902 0
M  V30 2772 C 252.927 -1.36536 1.29382 0
M  V30 2773 O 252.285 -1.78289 0.329043 0
M  V30 2774 C 252.333 -0.454207 3.57728 0
M  V30 2775 O 251.437 -1.54228 3.82475 0
M  V30 2776 H 250.778 -0.00617128 0.663971 0
M  V30 2777 H 253.308 0.606014 1.95419 0
M  V30 2778 H 253.318 -0.707525 4.01818 0
M  V30 2779 H 251.993 0.438812 4.13579 0
M  V30 2780 H 250.57 -1.2797 3.50254 0
M  V30 2781 N 252.755 -1.56801 0.158532 0
M  V30 2782 C 253.685 -2.20347 -0.772609 0
M  V30 2783 C 254.666 -1.15518 -1.24859 0
M  V30 2784 O 255.851 -1.43902 -1.30406 0
M  V30 2785 C 252.981 -2.83417 -2.00729 0
M  V30 2786 C 251.935 -3.94174 -1.66765 0
M  V30 2787 C 251.261 -4.44233 -2.97592 0
M  V30 2788 C 252.561 -5.14392 -0.905447 0
M  V30 2789 H 254.255 -2.98413 -0.242959 0
M  V30 2790 H 251.801 -1.43537 -0.115419 0
M  V30 2791 H 253.754 -3.26543 -2.6636 0
M  V30 2792 H 252.478 -2.02701 -2.56086 0
M  V30 2793 H 251.137 -3.51684 -1.03508 0
M  V30 2794 H 250.785 -3.60325 -3.50963 0
M  V30 2795 H 250.485 -5.18945 -2.75626 0
M  V30 2796 H 252.009 -4.90037 -3.64274 0
M  V30 2797 H 253.423 -5.5429 -1.46408 0
M  V30 2798 H 251.82 -5.9494 -0.7853 0
M  V30 2799 H 252.89 -4.84795 0.100668 0
M  V30 2800 N 254.233 0.115231 -1.57178 0
M  V30 2801 C 255.482 0.820945 -1.84237 0
M  V30 2802 C 255.795 1.80866 -0.744761 0
M  V30 2803 O 257.001 2.56083 -0.901871 0
M  V30 2804 C 255.457 1.51072 -3.26658 0
M  V30 2805 C 255.065 0.563795 -4.44438 0
M  V30 2806 C 256.809 2.20134 -3.62962 0
M  V30 2807 C 254.716 1.25701 -5.77887 0
M  V30 2808 H 253.646 0.310328 -0.687177 0
M  V30 2809 H 256.297 0.0737134 -1.83352 0
M  V30 2810 H 254.679 2.30471 -3.22024 0
M  V30 2811 H 255.853 -0.197247 -4.60378 0
M  V30 2812 H 254.168 -0.0200638 -4.16395 0
M  V30 2813 H 256.765 2.72696 -4.59936 0
M  V30 2814 H 257.108 2.98107 -2.90582 0
M  V30 2815 H 257.641 1.47619 -3.69396 0
M  V30 2816 H 254.38 0.518493 -6.53446 0
M  V30 2817 H 253.9 1.98997 -5.65827 0
M  V30 2818 H 255.579 1.78915 -6.2177 0
M  V30 2819 N 255.711 1.52812 0.385517 0
M  V30 2820 C 256.641 1.80808 1.47752 0
M  V30 2821 C 257.622 0.660318 1.5676 0
M  V30 2822 O 258.807 0.908246 1.71652 0
M  V30 2823 C 255.937 1.98008 2.85324 0
M  V30 2824 C 254.891 3.13709 2.91154 0
M  V30 2825 C 254.217 3.16169 4.31209 0
M  V30 2826 C 255.517 4.52709 2.60483 0
M  V30 2827 H 257.211 2.72253 1.24573 0
M  V30 2828 H 254.757 1.31003 0.597839 0
M  V30 2829 H 256.71 2.16176 3.61726 0
M  V30 2830 H 255.434 1.03255 3.09848 0
M  V30 2831 H 254.093 2.95329 2.17201 0
M  V30 2832 H 253.741 2.19092 4.52778 0
M  V30 2833 H 253.441 3.93894 4.36029 0
M  V30 2834 H 254.965 3.36496 5.09512 0
M  V30 2835 H 256.379 4.71173 3.26602 0
M  V30 2836 H 254.776 5.32528 2.76648 0
M  V30 2837 H 255.846 4.59186 1.55809 0
M  V30 2838 N 257.189 -0.644168 1.43834 0
M  V30 2839 C 258.437 -1.40117 1.45642 0
M  V30 2840 C 258.758 -1.94814 0.0852413 0
M  V30 2841 O 258.028 -1.74988 -0.880688 0
M  V30 2842 H 256.608 -0.52005 0.536243 0
M  V30 2843 H 259.27 -0.7591 1.7951 0
M  V30 2844 H 258.366 -2.23902 2.17427 0
M  V30 2845 N 258.668 -1.30515 -0.883378 0
M  V30 2846 C 259.916 -1.19194 -1.63209 0
M  V30 2847 C 260.237 0.253205 -1.93349 0
M  V30 2848 O 259.507 1.17025 -1.57105 0
M  V30 2849 H 258.087 -0.438148 -0.605009 0
M  V30 2850 H 260.749 -1.63663 -1.05832 0
M  V30 2851 H 259.845 -1.75396 -2.58153 0
M  V30 2852 N 260.146 1.09593 -1.13257 0
M  V30 2853 C 261.076 2.18214 -0.830946 0
M  V30 2854 C 262.057 1.68812 0.208966 0
M  V30 2855 O 263.242 1.9408 0.0682666 0
M  V30 2856 C 260.372 3.46051 -0.294296 0
M  V30 2857 C 259.326 4.08778 -1.26826 0
M  V30 2858 C 258.652 5.31419 -0.591449 0
M  V30 2859 C 259.952 4.51476 -2.62615 0
M  V30 2860 H 261.646 2.43703 -1.73923 0
M  V30 2861 H 259.192 1.17128 -0.837675 0
M  V30 2862 H 261.145 4.2134 -0.0709606 0
M  V30 2863 H 259.869 3.20079 0.649366 0
M  V30 2864 H 258.528 3.35505 -1.47756 0
M  V30 2865 H 258.176 5.01727 0.357633 0
M  V30 2866 H 257.876 5.74341 -1.24123 0
M  V30 2867 H 259.4 6.09433 -0.377355 0
M  V30 2868 H 260.814 5.17999 -2.45663 0
M  V30 2869 H 259.211 5.05277 -3.23752 0
M  V30 2870 H 260.281 3.63962 -3.20406 0
M  V30 2871 N 261.624 0.925811 1.2754 0
M  V30 2872 C 263.035 0.610102 1.7645 0
M  V30 2873 C 263.386 -0.874723 1.75622 0
M  V30 2874 O 262.511 -1.68444 1.35851 0
M  V30 2875 C 263.106 1.10073 3.20421 0
M  V30 2876 C 261.665 0.835723 3.67005 0
M  V30 2877 C 260.812 1.26054 2.46993 0
M  V30 2878 H 263.763 1.10579 1.13833 0
M  V30 2879 H 263.784 0.447557 3.77859 0
M  V30 2880 H 263.296 2.18143 3.20991 0
M  V30 2881 H 261.397 -0.231249 3.71882 0
M  V30 2882 H 261.51 1.45193 4.56569 0
M  V30 2883 H 259.874 0.679111 2.45479 0
M  V30 2884 H 260.657 2.34984 2.50275 0
M  V30 2885 N 263.102 -1.41638 0.69111 0
M  V30 2886 C 264.351 -2.00526 0.217318 0
M  V30 2887 C 264.664 -1.55353 -1.18848 0
M  V30 2888 O 265.87 -2.06769 -1.75951 0
M  V30 2889 C 264.326 -3.58313 0.337639 0
M  V30 2890 C 263.934 -4.12469 1.74852 0
M  V30 2891 C 265.678 -4.24431 -0.0766066 0
M  V30 2892 C 263.585 -5.62675 1.82074 0
M  V30 2893 H 262.515 -0.750008 0.0774893 0
M  V30 2894 H 265.166 -1.6217 0.858661 0
M  V30 2895 H 263.548 -3.9425 -0.371879 0
M  V30 2896 H 264.722 -3.8796 2.48644 0
M  V30 2897 H 263.037 -3.58861 2.11205 0
M  V30 2898 H 265.634 -5.34683 -0.0430284 0
M  V30 2899 H 265.977 -4.01101 -1.1146 0
M  V30 2900 H 266.51 -3.93512 0.582476 0
M  V30 2901 H 263.249 -5.90826 2.83911 0
M  V30 2902 H 262.769 -5.89124 1.12661 0
M  V30 2903 H 264.448 -6.27371 1.58159 0
M  V30 2904 N 264.58 -0.43555 -1.51462 0
M  V30 2905 C 265.513 0.421989 -2.24264 0
M  V30 2906 C 266.491 1.02619 -1.26127 0
M  V30 2907 O 267.675 1.069 -1.55257 0
M  V30 2908 C 264.802 1.588 -2.99166 0
M  V30 2909 C 263.848 1.10465 -4.11946 0
M  V30 2910 S 264.681 0.048146 -5.35478 0
M  V30 2911 C 265.837 1.21887 -6.13917 0
M  V30 2912 H 266.07 -0.196102 -2.96653 0
M  V30 2913 H 263.603 -0.220054 -1.52824 0
M  V30 2914 H 265.561 2.25647 -3.42919 0
M  V30 2915 H 264.222 2.1775 -2.26371 0
M  V30 2916 H 263.415 1.97654 -4.63626 0
M  V30 2917 H 263.017 0.51445 -3.70445 0
M  V30 2918 H 265.309 2.13756 -6.42895 0
M  V30 2919 H 266.252 0.742076 -7.04201 0
M  V30 2920 H 266.66 1.45663 -5.45383 0
M  V30 2921 N 266.058 1.56714 -0.166846 0
M  V30 2922 C 267.306 1.96358 0.478305 0
M  V30 2923 C 267.627 1.0537 1.6408 0
M  V30 2924 O 266.897 0.119154 1.95537 0
M  V30 2925 H 265.477 0.725065 0.179692 0
M  V30 2926 H 268.139 1.93329 -0.246985 0
M  V30 2927 H 267.235 3.00547 0.841292 0
M  V30 2928 N 267.536 -0.106894 1.57237 0
M  V30 2929 C 268.782 -0.808678 1.86633 0
M  V30 2930 C 269.137 -1.76917 0.756178 0
M  V30 2931 O 268.43 -1.90055 -0.242834 0
M  V30 2932 C 268.624 -1.58628 3.20268 0
M  V30 2933 C 268.453 -0.702592 4.44178 0
M  V30 2934 C 267.223 -0.352808 5.04067 0
M  V30 2935 C 269.421 -0.0148031 5.14298 0
M  V30 2936 N 267.403 0.540279 6.11518 0
M  V30 2937 C 268.774 0.736809 6.15606 0
M  V30 2938 C 270.829 0.0603524 4.97863 0
M  V30 2939 C 269.532 1.55654 7.02257 0
M  V30 2940 C 271.558 0.866942 5.85011 0
M  V30 2941 C 270.92 1.60671 6.85831 0
M  V30 2942 H 267.019 -0.27246 0.733001 0
M  V30 2943 H 269.603 -0.0717858 1.94568 0
M  V30 2944 H 267.774 -2.29413 3.13408 0
M  V30 2945 H 269.506 -2.23434 3.3743 0
M  V30 2946 H 266.261 -0.697802 4.68431 0
M  V30 2947 H 266.685 0.979029 6.69884 0
M  V30 2948 H 271.327 -0.497236 4.19866 0
M  V30 2949 H 269.045 2.12524 7.79653 0
M  V30 2950 H 272.631 0.927612 5.74358 0
M  V30 2951 H 271.511 2.2208 7.52097 0
M  V30 2952 N 269.014 -1.53014 -0.377408 0
M  V30 2953 C 269.962 -1.7927 -1.48206 0
M  V30 2954 C 270.956 -0.661195 -1.55963 0
M  V30 2955 O 272.162 -0.843908 -1.58991 0
M  V30 2956 H 268.537 -0.567425 -0.493491 0
M  V30 2957 H 270.508 -2.71753 -1.2326 0
M  V30 2958 C 269.257 -1.98894 -2.85196 0
M  V30 2959 H 268.58 -2.85395 -2.79981 0
M  V30 2960 H 270.02 -2.21249 -3.61698 0
M  V30 2961 C 268.479 -0.764691 -3.28107 0
M  V30 2962 O 269.009 0.0523226 -4.01666 0
M  V30 2963 N 267.215 -0.591493 -2.84517 0
M  V30 2964 H 266.762 -1.25749 -2.24822 0
M  V30 2965 H 266.72 0.226253 -3.13585 0
M  V30 2966 N 270.492 0.636531 -1.44174 0
M  V30 2967 C 271.732 1.40781 -1.48189 0
M  V30 2968 C 272.096 1.91688 -0.10944 0
M  V30 2969 O 273.297 2.68789 -0.0242741 0
M  V30 2970 C 271.568 2.54575 -2.50851 0
M  V30 2971 S 273.127 3.4284 -2.73873 0
M  V30 2972 H 269.945 0.480345 -0.524204 0
M  V30 2973 H 272.547 0.737416 -1.81059 0
M  V30 2974 H 271.251 2.15478 -3.49281 0
M  V30 2975 H 270.782 3.26447 -2.19536 0
M  V30 2976 H 272.797 4.51846 -2.05059 0
M  V30 2977 N 271.97 1.30982 0.876444 0
M  V30 2978 C 273.219 1.19658 1.62373 0
M  V30 2979 C 273.532 -0.245636 1.94052 0
M  V30 2980 O 274.738 -0.48049 2.67214 0
M  V30 2981 C 273.194 2.09433 2.92687 0
M  V30 2982 C 272.802 3.58613 2.68516 0
M  V30 2983 C 274.546 2.06893 3.70669 0
M  V30 2984 C 272.453 4.40416 3.94699 0
M  V30 2985 H 271.383 0.444268 0.609214 0
M  V30 2986 H 274.034 1.55791 0.969605 0
M  V30 2987 H 272.416 1.66191 3.59439 0
M  V30 2988 H 273.59 4.10058 2.10212 0
M  V30 2989 H 271.905 3.63063 2.03898 0
M  V30 2990 H 274.502 2.65258 4.64265 0
M  V30 2991 H 274.845 1.05448 4.02724 0
M  V30 2992 H 275.378 2.48301 3.10792 0
M  V30 2993 H 272.117 5.42591 3.67798 0
M  V30 2994 H 271.637 3.93731 4.52477 0
M  V30 2995 H 273.316 4.52294 4.62644 0
M  V30 2996 N 273.449 -1.08991 1.13837 0
M  V30 2997 C 274.674 -1.85551 0.926585 0
M  V30 2998 C 275.099 -1.80782 -0.519566 0
M  V30 2999 O 274.457 -1.18855 -1.36906 0
M  V30 3000 C 274.505 -3.31266 1.42462 0
M  V30 3001 O 273.609 -4.07822 0.612789 0
M  V30 3002 H 272.95 -0.575192 0.331738 0
M  V30 3003 H 275.48 -1.37604 1.51414 0
M  V30 3004 H 275.49 -3.82112 1.43019 0
M  V30 3005 H 274.165 -3.34052 2.47754 0
M  V30 3006 H 272.742 -3.66731 0.675463 0
M  V30 3007 N 274.927 -0.932562 -1.27047 0
M  V30 3008 C 275.89 -0.440064 -2.24936 0
M  V30 3009 C 276.89 0.444071 -1.54547 0
M  V30 3010 O 278.08 0.244465 -1.72476 0
M  V30 3011 C 275.212 0.36678 -3.38921 0
M  V30 3012 H 276.405 -1.305 -2.70018 0
M  V30 3013 H 273.958 -0.713707 -1.39054 0
M  V30 3014 H 274.693 1.25033 -2.99228 0
M  V30 3015 H 274.478 -0.267204 -3.91188 0
M  V30 3016 H 275.968 0.701567 -4.11665 0
M  V30 3017 N 276.405 1.4127 -0.698611 0
M  V30 3018 C 277.335 2.33447 -0.049629 0
M  V30 3019 C 278.316 1.51982 0.763898 0
M  V30 3020 O 279.501 1.80509 0.716257 0
M  V30 3021 C 276.631 3.35828 0.885267 0
M  V30 3022 C 275.585 4.27627 0.178613 0
M  V30 3023 C 274.911 5.20406 1.22807 0
M  V30 3024 C 276.211 5.13459 -0.956933 0
M  V30 3025 H 277.905 2.87966 -0.81951 0
M  V30 3026 H 275.451 1.38461 -0.395538 0
M  V30 3027 H 277.404 3.9924 1.34854 0
M  V30 3028 H 276.128 2.79666 1.68685 0
M  V30 3029 H 274.787 3.65643 -0.26466 0
M  V30 3030 H 274.435 4.60558 2.02226 0
M  V30 3031 H 274.135 5.82661 0.760239 0
M  V30 3032 H 275.659 5.86695 1.69179 0
M  V30 3033 H 277.073 5.70421 -0.573805 0
M  V30 3034 H 275.47 5.8467 -1.35205 0
M  V30 3035 H 276.54 4.50443 -1.79524 0
M  V30 3036 N 277.883 0.443576 1.51229 0
M  V30 3037 C 279.108 -0.121648 2.07043 0
M  V30 3038 C 279.533 -1.35156 1.30823 0
M  V30 3039 O 278.891 -1.7793 0.347934 0
M  V30 3040 C 278.939 -0.41624 3.5819 0
M  V30 3041 O 278.043 -1.50163 3.8409 0
M  V30 3042 H 277.384 0.000871367 0.663999 0
M  V30 3043 H 279.914 0.626706 1.94765 0
M  V30 3044 H 279.924 -0.664867 4.02546 0
M  V30 3045 H 278.599 0.482653 4.1309 0
M  V30 3046 H 277.176 -1.24248 3.51592 0
M  V30 3047 N 279.361 -1.56624 0.175154 0
M  V30 3048 C 280.586 -2.01813 -0.478137 0
M  V30 3049 C 281.011 -1.05457 -1.55757 0
M  V30 3050 O 280.369 -0.0347439 -1.81267 0
M  V30 3051 C 280.417 -3.45581 -1.02987 0
M  V30 3052 O 279.521 -3.52305 -2.14371 0
M  V30 3053 H 278.862 -0.65413 -0.114059 0
M  V30 3054 H 281.392 -2.02673 0.280173 0
M  V30 3055 H 281.402 -3.84965 -1.35151 0
M  V30 3056 H 280.077 -4.1521 -0.239556 0
M  V30 3057 H 278.654 -3.24783 -1.83222 0
M  V30 3058 N 280.839 0.0985539 -1.57292 0
M  V30 3059 C 282.079 0.808332 -1.87737 0
M  V30 3060 C 282.443 1.7607 -0.76572 0
M  V30 3061 O 283.644 2.51358 -0.952499 0
M  V30 3062 C 281.915 1.52093 -3.23423 0
M  V30 3063 S 283.474 2.26947 -3.75554 0
M  V30 3064 H 280.292 0.269377 -0.657995 0
M  V30 3065 H 282.894 0.0656269 -1.9539 0
M  V30 3066 H 281.598 0.81363 -4.02254 0
M  V30 3067 H 281.129 2.30361 -3.189 0
M  V30 3068 H 283.144 3.53027 -3.48692 0
M  V30 3069 N 282.317 1.53212 0.369288 0
M  V30 3070 C 283.542 1.73423 1.1375 0
M  V30 3071 C 283.967 0.460404 1.82378 0
M  V30 3072 O 283.325 -0.585298 1.71592 0
M  V30 3073 C 283.373 2.89769 2.1463 0
M  V30 3074 O 282.477 2.58119 3.21634 0
M  V30 3075 H 281.818 0.576061 0.330227 0
M  V30 3076 H 284.348 2.00083 0.427547 0
M  V30 3077 H 284.358 3.15829 2.58294 0
M  V30 3078 H 283.033 3.8217 1.64071 0
M  V30 3079 H 281.61 2.42864 2.82969 0
M  V30 3080 N 283.795 -0.628877 1.44509 0
M  V30 3081 C 285.023 -1.41554 1.50897 0
M  V30 3082 C 285.438 -1.8832 0.134564 0
M  V30 3083 O 284.795 -1.60969 -0.859965 0
M  V30 3084 C 284.846 -2.63435 2.47556 0
M  V30 3085 O 284.567 -2.18619 3.79654 0
M  V30 3086 C 286.068 -3.56537 2.63431 0
M  V30 3087 H 283.288 -0.434044 0.511709 0
M  V30 3088 H 285.832 -0.768895 1.89495 0
M  V30 3089 H 283.987 -3.24187 2.12089 0
M  V30 3090 H 284.401 -2.97652 4.31861 0
M  V30 3091 H 285.875 -4.38657 3.35088 0
M  V30 3092 H 286.352 -4.05493 1.68738 0
M  V30 3093 H 286.958 -3.01653 2.9981 0
M  V30 3094 N 285.273 -1.31445 -0.869486 0
M  V30 3095 C 286.519 -1.21337 -1.62496 0
M  V30 3096 C 286.852 0.227872 -1.92858 0
M  V30 3097 O 286.127 1.16094 -1.56053 0
M  V30 3098 C 286.41 -2.05814 -2.95487 0
M  V30 3099 C 286.263 -3.5824 -2.72 0
M  V30 3100 C 287.582 -1.9079 -3.96594 0
M  V30 3101 H 284.701 -0.442135 -0.589649 0
M  V30 3102 H 287.343 -1.6124 -1.00507 0
M  V30 3103 H 285.493 -1.71913 -3.48394 0
M  V30 3104 H 287.165 -4.0228 -2.25762 0
M  V30 3105 H 285.408 -3.81647 -2.06224 0
M  V30 3106 H 286.079 -4.12657 -3.66631 0
M  V30 3107 H 288.555 -2.20459 -3.52898 0
M  V30 3108 H 287.431 -2.52199 -4.87531 0
M  V30 3109 H 287.692 -0.871341 -4.33428 0
M  V30 3110 N 286.751 1.08385 -1.14413 0
M  V30 3111 C 287.681 2.17321 -0.854044 0
M  V30 3112 C 288.662 1.69024 0.191049 0
M  V30 3113 O 289.847 1.94141 0.0476779 0
M  V30 3114 C 286.977 3.45719 -0.330983 0
M  V30 3115 C 285.931 4.07409 -1.31155 0
M  V30 3116 C 285.257 5.30762 -0.64778 0
M  V30 3117 C 286.557 4.48665 -2.67388 0
M  V30 3118 H 288.251 2.41845 -1.76498 0
M  V30 3119 H 285.797 1.16233 -0.850051 0
M  V30 3120 H 287.75 4.21241 -0.115645 0
M  V30 3121 H 286.474 3.2075 0.615381 0
M  V30 3122 H 285.133 3.33919 -1.51306 0
M  V30 3123 H 284.781 5.02078 0.304398 0
M  V30 3124 H 284.481 5.72992 -1.30207 0
M  V30 3125 H 286.005 6.08998 -0.441972 0
M  V30 3126 H 287.419 5.15364 -2.51143 0
M  V30 3127 H 285.816 5.01814 -3.29093 0
M  V30 3128 H 286.886 3.60543 -3.24248 0
M  V30 3129 N 288.23 0.939286 1.26551 0
M  V30 3130 C 289.641 0.628782 1.75793 0
M  V30 3131 C 289.992 -0.856046 1.7654 0
M  V30 3132 O 289.117 -1.66994 1.3763 0
M  V30 3133 C 289.712 1.13465 3.19235 0
M  V30 3134 C 288.271 0.874601 3.66098 0
M  V30 3135 C 287.418 1.28667 2.45642 0
M  V30 3136 H 290.369 1.1178 1.12654 0
M  V30 3137 H 290.39 0.487609 3.77363 0
M  V30 3138 H 289.902 2.21535 3.1866 0
M  V30 3139 H 288.003 -0.191793 3.72106 0
M  V30 3140 H 288.116 1.50028 4.55004 0
M  V30 3141 H 286.48 0.705109 2.44745 0
M  V30 3142 H 287.263 2.37625 2.47769 0
M  V30 3143 N 289.708 -1.40897 0.706093 0
M  V30 3144 C 290.638 -2.33418 0.0620085 0
M  V30 3145 C 291.619 -1.52385 -0.755827 0
M  V30 3146 O 292.804 -1.80886 -0.706674 0
M  V30 3147 C 289.934 -3.36293 -0.867445 0
M  V30 3148 C 288.888 -4.27716 -0.155932 0
M  V30 3149 C 288.214 -5.2105 -1.20046 0
M  V30 3150 C 289.514 -5.12944 0.984149 0
M  V30 3151 H 291.208 -2.87527 0.83477 0
M  V30 3152 H 288.754 -1.38249 0.402875 0
M  V30 3153 H 290.707 -3.99949 -1.32735 0
M  V30 3154 H 289.431 -2.80556 -1.67199 0
M  V30 3155 H 288.09 -3.65498 0.284047 0
M  V30 3156 H 287.738 -4.61624 -1.99781 0
M  V30 3157 H 287.438 -5.83056 -0.729328 0
M  V30 3158 H 288.962 -5.87584 -1.66066 0
M  V30 3159 H 290.376 -5.70109 0.604048 0
M  V30 3160 H 288.773 -5.83945 1.38304 0
M  V30 3161 H 289.843 -4.49485 1.81911 0
M  V30 3162 N 291.186 -0.45159 -1.50991 0
M  V30 3163 C 292.416 0.108177 -2.06317 0
M  V30 3164 C 292.824 1.35774 -1.31765 0
M  V30 3165 O 292.167 1.79838 -0.374694 0
M  V30 3166 C 292.229 0.481659 -3.56259 0
M  V30 3167 C 291.893 -0.663114 -4.52163 0
M  V30 3168 C 292.89 -1.53947 -4.96585 0
M  V30 3169 C 290.575 -0.8479 -4.95092 0
M  V30 3170 C 292.569 -2.58518 -5.82621 0
M  V30 3171 C 290.256 -1.89686 -5.80915 0
M  V30 3172 C 291.254 -2.76388 -6.24579 0
M  V30 3173 O 290.942 -3.79482 -7.08695 0
M  V30 3174 H 290.674 0.00499183 -0.675982 0
M  V30 3175 H 293.228 -0.633659 -1.95381 0
M  V30 3176 H 291.458 1.27641 -3.65027 0
M  V30 3177 H 293.147 0.974233 -3.94035 0
M  V30 3178 H 293.913 -1.4083 -4.64103 0
M  V30 3179 H 289.792 -0.18258 -4.60638 0
M  V30 3180 H 293.336 -3.26224 -6.16623 0
M  V30 3181 H 289.233 -2.02817 -6.12809 0
M  V30 3182 H 290.001 -3.76234 -7.26905 0
M  V30 3183 N 292.664 1.56529 -0.183458 0
M  V30 3184 C 293.614 2.1515 0.754605 0
M  V30 3185 C 294.598 1.08904 1.18443 0
M  V30 3186 O 295.79 1.34997 1.14476 0
M  V30 3187 C 292.919 2.80531 1.97881 0
M  V30 3188 C 292.005 3.93952 1.57043 0
M  V30 3189 N 292.396 4.98221 0.87231 0
M  V30 3190 C 290.694 4.05338 1.86057 0
M  V30 3191 C 291.395 5.77836 0.669377 0
M  V30 3192 N 290.371 5.29858 1.21454 0
M  V30 3193 H 294.173 2.93132 0.212387 0
M  V30 3194 H 291.687 1.62391 0.0167725 0
M  V30 3195 H 293.684 3.20914 2.6612 0
M  V30 3196 H 292.344 2.04035 2.52586 0
M  V30 3197 H 293.355 5.15191 0.529033 0
M  V30 3198 H 290.032 3.39957 2.42354 0
M  V30 3199 H 291.422 6.71799 0.116422 0
M  V30 3200 N 294.142 -0.090211 1.57342 0
M  V30 3201 C 295.089 -1.10909 2.02405 0
M  V30 3202 C 296.059 -1.39523 0.901252 0
M  V30 3203 O 297.244 -1.50903 1.1676 0
M  V30 3204 C 294.384 -2.42277 2.45755 0
M  V30 3205 C 293.497 -2.20352 3.71576 0
M  V30 3206 C 292.632 -3.45154 4.03785 0
M  V30 3207 C 291.671 -3.18512 5.22701 0
M  V30 3208 N 290.808 -4.35593 5.50639 0
M  V30 3209 H 295.648 -0.71782 2.89225 0
M  V30 3210 H 293.185 -0.342901 1.43048 0
M  V30 3211 H 295.143 -3.18951 2.68935 0
M  V30 3212 H 293.773 -2.79242 1.61938 0
M  V30 3213 H 292.825 -1.34458 3.55844 0
M  V30 3214 H 294.137 -1.96661 4.58395 0
M  V30 3215 H 293.291 -4.30233 4.27767 0
M  V30 3216 H 292.03 -3.71904 3.15498 0
M  V30 3217 H 291.035 -2.31827 4.98534 0
M  V30 3218 H 292.26 -2.93103 6.12591 0
M  V30 3219 H 290.206 -4.6241 4.6531 0
M  V30 3220 H 290.123 -4.1511 6.31838 0
M  V30 3221 H 291.391 -5.21723 5.7916 0
M  V30 3222 N 295.62 -1.53406 -0.361157 0
M  V30 3223 C 296.57 -1.76536 -1.44287 0
M  V30 3224 C 297.554 -0.620019 -1.48474 0
M  V30 3225 O 298.746 -0.878834 -1.53641 0
M  V30 3226 C 295.875 -1.96266 -2.81664 0
M  V30 3227 C 294.961 -3.16815 -2.81938 0
M  V30 3228 N 295.352 -4.38637 -2.51855 0
M  V30 3229 C 293.65 -3.17627 -3.13096 0
M  V30 3230 C 294.351 -5.20401 -2.59919 0
M  V30 3231 N 293.327 -4.56712 -2.94814 0
M  V30 3232 H 297.129 -2.68331 -1.19899 0
M  V30 3233 H 294.643 -1.52091 -0.56938 0
M  V30 3234 H 296.64 -2.10966 -3.59582 0
M  V30 3235 H 295.3 -1.05702 -3.07013 0
M  V30 3236 H 296.311 -4.66293 -2.25369 0
M  V30 3237 H 292.988 -2.36971 -3.43731 0
M  V30 3238 H 294.378 -6.27586 -2.39969 0
M  V30 3239 N 297.098 0.621204 -1.44841 0
M  V30 3240 C 298.328 1.40548 -1.51426 0
M  V30 3241 C 298.736 1.88673 -0.141083 0
M  V30 3242 O 298.079 1.62053 0.865128 0
M  V30 3243 C 298.141 2.65325 -2.42576 0
M  V30 3244 C 297.805 2.3893 -3.89566 0
M  V30 3245 C 298.802 2.00138 -4.79834 0
M  V30 3246 C 296.487 2.52263 -4.3436 0
M  V30 3247 C 298.481 1.75021 -6.129 0
M  V30 3248 C 296.168 2.2676 -5.67471 0
M  V30 3249 C 297.166 1.88199 -6.56559 0
M  V30 3250 O 296.854 1.62986 -7.87204 0
M  V30 3251 H 296.586 0.437122 -0.515655 0
M  V30 3252 H 299.14 0.765987 -1.90583 0
M  V30 3253 H 297.37 3.31947 -1.98364 0
M  V30 3254 H 299.059 3.27347 -2.39998 0
M  V30 3255 H 299.825 1.89386 -4.46495 0
M  V30 3256 H 295.704 2.81246 -3.65269 0
M  V30 3257 H 299.248 1.44848 -6.82396 0
M  V30 3258 H 295.145 2.37125 -6.00368 0
M  V30 3259 H 295.913 1.7715 -7.991 0
M  V30 3260 N 298.576 1.31904 0.862503 0
M  V30 3261 C 299.825 1.21373 1.61094 0
M  V30 3262 C 300.138 -0.22504 1.94301 0
M  V30 3263 O 301.344 -0.452121 2.67709 0
M  V30 3264 C 299.8 2.12525 2.9045 0
M  V30 3265 C 299.408 3.61441 2.64697 0
M  V30 3266 C 301.152 2.10813 3.68454 0
M  V30 3267 C 299.059 4.44578 3.90006 0
M  V30 3268 H 297.989 0.450705 0.604468 0
M  V30 3269 H 300.64 1.56811 0.953027 0
M  V30 3270 H 299.022 1.69994 3.57656 0
M  V30 3271 H 300.196 4.12264 2.05851 0
M  V30 3272 H 298.511 3.65205 2.00036 0
M  V30 3273 H 301.108 2.70167 4.61426 0
M  V30 3274 H 301.451 1.09713 4.01583 0
M  V30 3275 H 301.984 2.51583 3.08141 0
M  V30 3276 H 298.723 5.46461 3.62023 0
M  V30 3277 H 298.243 3.98508 4.48276 0
M  V30 3278 H 299.922 4.57176 4.5782 0
M  V30 3279 N 300.054 -1.07777 1.14986 0
M  V30 3280 C 300.984 -2.16865 0.865557 0
M  V30 3281 C 301.965 -1.69123 -0.182083 0
M  V30 3282 O 303.15 -1.94164 -0.0373815 0
M  V30 3283 C 300.28 -3.45539 0.349313 0
M  V30 3284 C 299.234 -4.06708 1.33313 0
M  V30 3285 C 298.56 -5.30411 0.675918 0
M  V30 3286 C 299.86 -4.47241 2.69764 0
M  V30 3287 H 301.554 -2.40905 1.77778 0
M  V30 3288 H 299.1 -1.15781 0.856203 0
M  V30 3289 H 301.053 -4.21174 0.137983 0
M  V30 3290 H 299.777 -3.21072 -0.598362 0
M  V30 3291 H 298.436 -3.33112 1.53075 0
M  V30 3292 H 298.084 -5.02232 -0.277767 0
M  V30 3293 H 297.784 -5.72293 1.33244 0
M  V30 3294 H 299.308 -6.08755 0.474262 0
M  V30 3295 H 300.722 -5.14025 2.53873 0
M  V30 3296 H 299.119 -5.00062 3.3175 0
M  V30 3297 H 300.189 -3.58818 3.26156 0
M  V30 3298 N 301.532 -0.945985 -1.26051 0
M  V30 3299 C 302.779 -0.596118 -1.93527 0
M  V30 3300 C 303.107 0.865559 -1.74179 0
M  V30 3301 O 302.362 1.63524 -1.0751 0
M  V30 3302 C 302.661 -0.890475 -3.46129 0
M  V30 3303 C 302.327 -2.3368 -3.85622 0
M  V30 3304 C 300.989 -2.73216 -3.96114 0
M  V30 3305 C 303.341 -3.27648 -4.05334 0
M  V30 3306 C 300.669 -4.05806 -4.2372 0
M  V30 3307 C 303.021 -4.59841 -4.3443 0
M  V30 3308 C 301.685 -4.99185 -4.43137 0
M  V30 3309 H 300.955 -0.218135 -0.708165 0
M  V30 3310 H 303.602 -1.1934 -1.49768 0
M  V30 3311 H 301.907 -0.210711 -3.91233 0
M  V30 3312 H 303.604 -0.598478 -3.96509 0
M  V30 3313 H 300.194 -2.02015 -3.78005 0
M  V30 3314 H 304.378 -2.98298 -3.96651 0
M  V30 3315 H 299.634 -4.35945 -4.28675 0
M  V30 3316 H 303.808 -5.32641 -4.48628 0
M  V30 3317 H 301.435 -6.01952 -4.64282 0
M  V30 3318 N 303.011 1.40521 -0.713556 0
M  V30 3319 C 304.251 2.02783 -0.256584 0
M  V30 3320 C 304.615 1.55352 1.12827 0
M  V30 3321 O 305.816 2.09663 1.68211 0
M  V30 3322 C 304.087 3.5586 -0.331414 0
M  V30 3323 S 305.646 4.38773 0.0488703 0
M  V30 3324 H 302.464 0.703655 -0.101934 0
M  V30 3325 H 305.066 1.71674 -0.935325 0
M  V30 3326 H 303.77 3.87874 -1.34098 0
M  V30 3327 H 303.301 3.91695 0.365873 0
M  V30 3328 H 305.316 4.79633 1.2715 0
M  V30 3329 N 304.489 0.459591 1.5075 0
M  V30 3330 C 305.717 -0.0973749 2.06671 0
M  V30 3331 C 306.132 -1.34524 1.32472 0
M  V30 3332 O 305.489 -1.7827 0.390634 0
M  V30 3333 C 305.54 -0.39714 3.59312 0
M  V30 3334 O 305.261 0.801214 4.30711 0
M  V30 3335 C 306.762 -1.00234 4.31819 0
M  V30 3336 H 303.982 0.00195854 0.670997 0
M  V30 3337 H 306.526 0.645072 1.94059 0
M  V30 3338 H 304.681 -1.08951 3.71764 0
M  V30 3339 H 305.095 0.538857 5.21725 0
M  V30 3340 H 306.569 -1.16193 5.39632 0
M  V30 3341 H 307.046 -1.98939 3.91561 0
M  V30 3342 H 307.652 -0.348699 4.23868 0
M  V30 3343 N 305.967 -1.56429 0.191757 0
M  V30 3344 C 307.195 -2.01867 -0.453586 0
M  V30 3345 C 307.61 -1.07191 -1.5542 0
M  V30 3346 O 306.967 -0.0762108 -1.82341 0
M  V30 3347 C 307.018 -3.47017 -1.013 0
M  V30 3348 O 306.739 -4.38078 0.0437005 0
M  V30 3349 C 308.24 -4.07956 -1.73456 0
M  V30 3350 H 305.46 -0.661211 -0.114199 0
M  V30 3351 H 308.004 -2.02295 0.299483 0
M  V30 3352 H 306.159 -3.47298 -1.71647 0
M  V30 3353 H 306.573 -5.23178 -0.372212 0
M  V30 3354 H 308.047 -5.1138 -2.07833 0
M  V30 3355 H 308.524 -3.51222 -2.63704 0
M  V30 3356 H 309.13 -4.11437 -1.07702 0
M  V30 3357 N 307.445 0.0818655 -1.57387 0
M  V30 3358 C 308.691 0.784074 -1.8703 0
M  V30 3359 C 309.024 1.77729 -0.782689 0
M  V30 3360 O 308.299 1.93384 0.208051 0
M  V30 3361 C 308.582 1.50105 -3.27323 0
M  V30 3362 C 308.435 0.524925 -4.46727 0
M  V30 3363 C 309.754 2.44843 -3.65705 0
M  V30 3364 H 306.873 0.283582 -0.680257 0
M  V30 3365 H 309.515 0.0474352 -1.89941 0
M  V30 3366 H 307.665 2.12897 -3.24972 0
M  V30 3367 H 309.337 -0.0970111 -4.61198 0
M  V30 3368 H 307.58 -0.160606 -4.33503 0
M  V30 3369 H 308.251 1.064 -5.41648 0
M  V30 3370 H 310.727 1.92135 -3.69085 0
M  V30 3371 H 309.603 2.92018 -4.64776 0
M  V30 3372 H 309.864 3.29197 -2.95096 0
M  V30 3373 N 308.923 1.53595 0.353017 0
M  V30 3374 C 310.17 1.70385 1.09431 0
M  V30 3375 C 310.498 0.462113 1.88931 0
M  V30 3376 O 309.753 -0.556074 1.87633 0
M  V30 3377 C 310.052 2.91313 2.07054 0
M  V30 3378 C 309.718 4.27308 1.43939 0
M  V30 3379 C 308.38 4.64287 1.26454 0
M  V30 3380 C 310.732 5.11829 0.983883 0
M  V30 3381 C 308.06 5.83412 0.620226 0
M  V30 3382 C 310.412 6.31611 0.353516 0
M  V30 3383 C 309.076 6.67293 0.166272 0
M  V30 3384 H 308.346 0.623484 0.400436 0
M  V30 3385 H 310.993 1.87799 0.374655 0
M  V30 3386 H 309.298 2.68463 2.85368 0
M  V30 3387 H 310.995 3.01497 2.64387 0
M  V30 3388 H 307.585 3.98198 1.58543 0
M  V30 3389 H 311.769 4.838 1.10685 0
M  V30 3390 H 307.025 6.09639 0.463681 0
M  V30 3391 H 311.199 6.964 -0.00757555 0
M  V30 3392 H 308.826 7.59461 -0.335047 0
M  V30 3393 N 310.401 -0.613514 1.45168 0
M  V30 3394 C 311.629 -1.39946 1.5239 0
M  V30 3395 C 312.044 -1.88167 0.154531 0
M  V30 3396 O 311.401 -1.61872 -0.842843 0
M  V30 3397 C 311.452 -2.60795 2.50337 0
M  V30 3398 O 311.173 -2.1458 3.81952 0
M  V30 3399 C 312.674 -3.53723 2.67198 0
M  V30 3400 H 309.894 -0.428593 0.516284 0
M  V30 3401 H 312.438 -0.748753 1.903 0
M  V30 3402 H 310.593 -3.21919 2.15515 0
M  V30 3403 H 311.007 -2.93055 4.34993 0
M  V30 3404 H 312.481 -4.35079 3.39721 0
M  V30 3405 H 312.958 -4.0368 1.73029 0
M  V30 3406 H 313.564 -2.98456 3.02992 0
M  V30 3407 N 311.879 -1.3236 -0.855495 0
M  V30 3408 C 312.809 -1.23833 -1.97958 0
M  V30 3409 C 313.79 -0.122361 -1.69659 0
M  V30 3410 O 314.975 -0.30939 -1.9172 0
M  V30 3411 C 312.105 -0.959772 -3.33775 0
M  V30 3412 C 311.059 -2.03689 -3.76424 0
M  V30 3413 C 310.385 -1.61075 -5.09862 0
M  V30 3414 C 311.685 -3.4518 -3.9198 0
M  V30 3415 H 313.379 -2.1788 -2.0535 0
M  V30 3416 H 310.925 -1.04891 -0.986605 0
M  V30 3417 H 312.878 -0.886678 -4.11966 0
M  V30 3418 H 311.602 0.0163404 -3.26596 0
M  V30 3419 H 310.261 -2.10012 -3.00484 0
M  V30 3420 H 309.909 -0.622107 -4.99138 0
M  V30 3421 H 309.609 -2.33143 -5.39368 0
M  V30 3422 H 311.133 -1.55201 -5.90546 0
M  V30 3423 H 312.547 -3.4145 -4.60526 0
M  V30 3424 H 310.944 -4.1559 -4.32903 0
M  V30 3425 H 312.014 -3.84903 -2.94919 0
M  V30 3426 N 313.357 1.07166 -1.15556 0
M  V30 3427 C 314.287 2.16403 -0.877046 0
M  V30 3428 C 315.268 1.69217 0.173111 0
M  V30 3429 O 316.453 1.94181 0.027084 0
M  V30 3430 C 313.583 3.45349 -0.367632 0
M  V30 3431 C 312.537 4.05995 -1.35468 0
M  V30 3432 C 311.863 5.30045 -0.704038 0
M  V30 3433 C 313.163 4.45804 -2.72132 0
M  V30 3434 H 314.857 2.39959 -1.79053 0
M  V30 3435 H 312.403 1.15325 -0.862331 0
M  V30 3436 H 314.356 4.21095 -0.160317 0
M  V30 3437 H 313.08 3.21385 0.581326 0
M  V30 3438 H 311.739 3.32296 -1.54839 0
M  V30 3439 H 311.387 5.02373 0.251128 0
M  V30 3440 H 311.087 5.71579 -1.36277 0
M  V30 3441 H 312.611 6.08495 -0.50654 0
M  V30 3442 H 314.025 5.12671 -2.56595 0
M  V30 3443 H 312.422 4.98296 -3.34397 0
M  V30 3444 H 313.492 3.57083 -3.28054 0
M  V30 3445 N 314.835 0.952656 1.25548 0
M  V30 3446 C 315.765 0.489287 2.28316 0
M  V30 3447 C 316.746 -0.463359 1.63667 0
M  V30 3448 O 317.931 -0.36274 1.90782 0
M  V30 3449 C 315.061 -0.235603 3.465 0
M  V30 3450 C 314.015 0.631593 4.23314 0
M  V30 3451 C 313.341 -0.223923 5.34231 0
M  V30 3452 C 314.641 1.90871 4.86174 0
M  V30 3453 H 316.335 1.34822 2.67326 0
M  V30 3454 H 313.881 0.649728 1.28509 0
M  V30 3455 H 315.834 -0.570882 4.17515 0
M  V30 3456 H 314.558 -1.12877 3.06474 0
M  V30 3457 H 313.217 0.949929 3.54079 0
M  V30 3458 H 312.865 -1.11678 4.90446 0
M  V30 3459 H 312.565 0.35299 5.86539 0
M  V30 3460 H 314.089 -0.554214 6.0808 0
M  V30 3461 H 315.503 1.63997 5.49343 0
M  V30 3462 H 313.9 2.43112 5.4865 0
M  V30 3463 H 314.97 2.61304 4.08471 0
M  V30 3464 N 316.313 -1.40141 0.720998 0
M  V30 3465 C 317.243 -2.33339 0.0867621 0
M  V30 3466 C 318.224 -1.53178 -0.739622 0
M  V30 3467 O 319.409 -1.81625 -0.687449 0
M  V30 3468 C 316.539 -3.37194 -0.831728 0
M  V30 3469 C 315.493 -4.27857 -0.110558 0
M  V30 3470 C 314.819 -5.22294 -1.14513 0
M  V30 3471 C 316.119 -5.11872 1.0385 0
M  V30 3472 H 317.813 -2.86626 0.865219 0
M  V30 3473 H 315.359 -1.37814 0.417516 0
M  V30 3474 H 317.312 -4.01335 -1.28485 0
M  V30 3475 H 316.036 -2.82314 -1.64214 0
M  V30 3476 H 314.695 -3.65176 0.322797 0
M  V30 3477 H 314.343 -4.63717 -1.94874 0
M  V30 3478 H 314.043 -5.83797 -0.667446 0
M  V30 3479 H 315.567 -5.89312 -1.59824 0
M  V30 3480 H 316.981 -5.69436 0.664482 0
M  V30 3481 H 315.378 -5.82445 1.4449 0
M  V30 3482 H 316.448 -4.4753 1.86668 0
M  V30 3483 N 317.792 -0.46758 -1.50504 0
M  V30 3484 C 319.017 0.0886943 -2.0721 0
M  V30 3485 C 319.442 1.33057 -1.32956 0
M  V30 3486 O 318.8 1.77354 -0.376197 0
M  V30 3487 C 318.848 0.359202 -3.58806 0
M  V30 3488 O 317.952 1.44034 -3.8643 0
M  V30 3489 H 317.293 -0.0114349 -0.663902 0
M  V30 3490 H 319.823 -0.657613 -1.93744 0
M  V30 3491 H 319.833 0.600742 -4.03553 0
M  V30 3492 H 318.508 -0.548311 -4.1227 0
M  V30 3493 H 317.085 1.18638 -3.53524 0
M  V30 3494 N 319.27 1.56325 -0.20005 0
M  V30 3495 C 320.519 1.96895 0.437652 0
M  V30 3496 C 320.832 1.08999 1.62415 0
M  V30 3497 O 322.038 1.39372 2.32997 0
M  V30 3498 C 320.494 3.50198 0.830025 0
M  V30 3499 C 320.102 4.46765 -0.332461 0
M  V30 3500 C 321.846 3.99526 1.43453 0
M  V30 3501 C 319.753 5.91344 0.0811468 0
M  V30 3502 H 318.683 0.735209 0.167282 0
M  V30 3503 H 321.334 1.81148 -0.292853 0
M  V30 3504 H 319.716 3.61467 1.61734 0
M  V30 3505 H 320.89 4.47231 -1.11 0
M  V30 3506 H 319.205 4.07657 -0.848789 0
M  V30 3507 H 321.802 5.05025 1.75652 0
M  V30 3508 H 322.145 3.44122 2.34277 0
M  V30 3509 H 322.678 3.91393 0.71109 0
M  V30 3510 H 319.417 6.50685 -0.793033 0
M  V30 3511 H 318.937 5.94121 0.823445 0
M  V30 3512 H 320.616 6.44945 0.515252 0
M  V30 3513 N 320.748 -0.0735177 1.57428 0
M  V30 3514 C 321.994 -0.774145 1.87443 0
M  V30 3515 C 322.327 -1.77311 0.792103 0
M  V30 3516 O 321.602 -1.93492 -0.197793 0
M  V30 3517 C 321.885 -1.48367 3.28115 0
M  V30 3518 C 321.738 -0.501227 4.46999 0
M  V30 3519 C 323.057 -2.429 3.66998 0
M  V30 3520 H 320.176 -0.279971 0.681752 0
M  V30 3521 H 322.818 -0.0373616 1.89963 0
M  V30 3522 H 320.968 -2.11171 3.26097 0
M  V30 3523 H 322.64 0.121468 4.6114 0
M  V30 3524 H 320.883 0.183593 4.33411 0
M  V30 3525 H 321.554 -1.03526 5.42205 0
M  V30 3526 H 324.03 -1.90175 3.70098 0
M  V30 3527 H 322.906 -2.89549 4.66318 0
M  V30 3528 H 323.167 -3.27628 2.96837 0
M  V30 3529 N 322.226 -1.5378 -0.344866 0
M  V30 3530 C 323.475 -1.7018 -1.08267 0
M  V30 3531 C 323.788 -0.471 -1.89845 0
M  V30 3532 O 324.994 -0.515917 -2.66553 0
M  V30 3533 C 323.45 -3.00923 -1.97417 0
M  V30 3534 C 323.058 -4.31335 -1.21053 0
M  V30 3535 C 324.802 -3.26688 -2.71063 0
M  V30 3536 C 322.709 -5.53153 -2.09225 0
M  V30 3537 H 321.639 -0.634138 -0.407903 0
M  V30 3538 H 324.29 -1.8028 -0.342246 0
M  V30 3539 H 322.672 -2.84676 -2.75274 0
M  V30 3540 H 323.846 -4.58281 -0.481159 0
M  V30 3541 H 322.161 -4.12173 -0.591813 0
M  V30 3542 H 324.758 -4.1489 -3.37299 0
M  V30 3543 H 325.101 -2.43639 -3.37558 0
M  V30 3544 H 325.634 -3.43705 -2.0028 0
M  V30 3545 H 322.373 -6.38741 -1.47274 0
M  V30 3546 H 321.893 -5.30458 -2.79955 0
M  V30 3547 H 323.572 -5.88744 -2.68308 0
M  V30 3548 N 323.704 0.605807 -1.45491 0
M  V30 3549 C 324.634 1.72709 -1.57143 0
M  V30 3550 C 325.615 1.6476 -0.422884 0
M  V30 3551 O 326.8 1.83132 -0.646247 0
M  V30 3552 C 323.93 3.11316 -1.53948 0
M  V30 3553 C 322.884 3.34077 -2.67537 0
M  V30 3554 C 322.21 4.72975 -2.49397 0
M  V30 3555 C 323.51 3.24158 -4.09535 0
M  V30 3556 H 325.204 1.63214 -2.51001 0
M  V30 3557 H 322.75 0.78379 -1.208 0
M  V30 3558 H 324.703 3.89557 -1.60696 0
M  V30 3559 H 323.427 3.21655 -0.566205 0
M  V30 3560 H 322.086 2.58227 -2.6022 0
M  V30 3561 H 321.734 4.8005 -1.50205 0
M  V30 3562 H 321.434 4.8916 -3.25571 0
M  V30 3563 H 322.958 5.53414 -2.58002 0
M  V30 3564 H 324.372 3.92271 -4.18086 0
M  V30 3565 H 322.769 3.51872 -4.86113 0
M  V30 3566 H 323.839 2.2157 -4.31317 0
M  V30 3567 N 325.182 1.32811 0.848464 0
M  V30 3568 C 326.412 1.26556 1.63301 0
M  V30 3569 C 326.82 -0.1676 1.88456 0
M  V30 3570 O 326.163 -1.11713 1.45828 0
M  V30 3571 C 326.225 1.96202 3.01239 0
M  V30 3572 C 325.889 3.45528 2.99098 0
M  V30 3573 C 326.886 4.40903 2.75501 0
M  V30 3574 C 324.571 3.87558 3.19537 0
M  V30 3575 C 326.565 5.76282 2.72356 0
M  V30 3576 C 324.252 5.23044 3.16019 0
M  V30 3577 C 325.25 6.17217 2.92458 0
M  V30 3578 O 324.938 7.50223 2.88825 0
M  V30 3579 H 324.67 0.43771 0.515156 0
M  V30 3580 H 327.224 1.7559 1.0657 0
M  V30 3581 H 325.454 1.41746 3.59785 0
M  V30 3582 H 327.143 1.83573 3.62016 0
M  V30 3583 H 327.909 4.09756 2.5947 0
M  V30 3584 H 323.788 3.14674 3.369 0
M  V30 3585 H 327.332 6.4976 2.53886 0
M  V30 3586 H 323.229 5.53818 3.31596 0
M  V30 3587 H 323.997 7.59657 3.04735 0
M  V30 3588 N 326.66 -1.06551 1.16123 0
M  V30 3589 C 327.9 -1.80889 0.951766 0
M  V30 3590 C 328.264 -1.85062 -0.511465 0
M  V30 3591 O 329.465 -2.55353 -0.83954 0
M  V30 3592 C 327.736 -3.21609 1.55893 0
M  V30 3593 S 329.295 -4.12593 1.49373 0
M  V30 3594 H 326.113 -0.623156 0.342341 0
M  V30 3595 H 328.715 -1.27943 1.47821 0
M  V30 3596 H 327.419 -3.16165 2.61664 0
M  V30 3597 H 326.95 -3.79631 1.0317 0
M  V30 3598 H 328.965 -4.93753 0.492196 0
M  V30 3599 N 328.138 -0.959301 -1.25041 0
M  V30 3600 C 329.554 -0.664474 -1.4511 0
M  V30 3601 C 329.754 0.776481 -1.85938 0
M  V30 3602 O 328.81 1.55128 -1.99227 0
M  V30 3603 C 330.123 -1.64139 -2.5195 0
M  V30 3604 C 331.671 -1.65309 -2.65786 0
M  V30 3605 C 332.146 -2.61777 -3.75815 0
M  V30 3606 N 333.637 -2.60169 -3.83231 0
M  V30 3607 C 334.372 -3.31489 -4.6787 0
M  V30 3608 N 333.868 -4.12298 -5.56761 0
M  V30 3609 N 335.661 -3.20354 -4.61876 0
M  V30 3610 H 327.812 -1.89043 -0.968332 0
M  V30 3611 H 330.075 -0.813408 -0.4869 0
M  V30 3612 H 329.781 -2.67086 -2.28819 0
M  V30 3613 H 329.655 -1.40756 -3.49954 0
M  V30 3614 H 332.042 -0.630778 -2.8828 0
M  V30 3615 H 332.123 -1.92753 -1.68167 0
M  V30 3616 H 331.767 -3.64137 -3.54071 0
M  V30 3617 H 331.697 -2.31616 -4.72929 0
M  V30 3618 H 334.188 -2.01507 -3.19692 0
M  V30 3619 H 334.501 -4.63625 -6.18281 0
M  V30 3620 H 332.846 -4.16395 -5.56454 0
M  V30 3621 H 336.037 -2.56692 -3.91442 0
M  V30 3622 H 336.21 -3.76201 -5.27614 0
M  V30 3623 N 329.616 1.39756 -0.72842 0
M  V30 3624 C 330.865 1.99879 -0.270407 0
M  V30 3625 C 331.178 1.58449 1.14688 0
M  V30 3626 O 332.384 2.11362 1.70407 0
M  V30 3627 C 330.84 3.57292 -0.43252 0
M  V30 3628 C 330.448 4.07688 -1.85727 0
M  V30 3629 C 332.192 4.24485 -0.0359507 0
M  V30 3630 C 330.099 5.5765 -1.96928 0
M  V30 3631 H 329.029 0.747689 -0.0973472 0
M  V30 3632 H 331.68 1.59837 -0.901355 0
M  V30 3633 H 330.062 3.95097 0.267219 0
M  V30 3634 H 331.236 3.81231 -2.58843 0
M  V30 3635 H 329.551 3.53135 -2.20646 0
M  V30 3636 H 332.148 5.34609 -0.0987484 0
M  V30 3637 H 332.491 4.03915 1.00787 0
M  V30 3638 H 333.024 3.9183 -0.686604 0
M  V30 3639 H 329.763 5.8309 -2.99476 0
M  V30 3640 H 329.283 5.8593 -1.28241 0
M  V30 3641 H 330.962 6.22957 -1.74737 0
M  V30 3642 N 331.094 0.475555 1.50254 0
M  V30 3643 C 332.324 -0.0753399 2.06463 0
M  V30 3644 C 332.732 -1.33661 1.33908 0
M  V30 3645 O 332.075 -1.79219 0.403257 0
M  V30 3646 C 332.137 -0.424921 3.5698 0
M  V30 3647 C 331.801 0.734965 4.51051 0
M  V30 3648 C 332.798 1.61827 4.94073 0
M  V30 3649 C 330.483 0.926557 4.9368 0
M  V30 3650 C 332.477 2.67754 5.78434 0
M  V30 3651 C 330.164 1.98904 5.77824 0
M  V30 3652 C 331.162 2.8629 6.20103 0
M  V30 3653 O 330.85 3.90708 7.02568 0
M  V30 3654 H 330.582 0.00576308 0.675975 0
M  V30 3655 H 333.136 0.664662 1.94349 0
M  V30 3656 H 331.366 -1.21817 3.67012 0
M  V30 3657 H 333.055 -0.911422 3.95535 0
M  V30 3658 H 333.821 1.48196 4.61804 0
M  V30 3659 H 329.7 0.25584 4.6029 0
M  V30 3660 H 333.244 3.35992 6.11355 0
M  V30 3661 H 329.141 2.12541 6.09505 0
M  V30 3662 H 329.909 3.87751 7.20827 0
M  V30 3663 N 332.573 -1.56217 0.208337 0
M  V30 3664 C 333.798 -2.02782 -0.435222 0
M  V30 3665 C 334.223 -1.08738 -1.53485 0
M  V30 3666 O 333.581 -0.0731855 -1.81152 0
M  V30 3667 C 333.629 -3.47687 -0.956335 0
M  V30 3668 O 332.733 -3.56773 -2.06849 0
M  V30 3669 H 332.074 -0.656403 -0.100158 0
M  V30 3670 H 334.604 -2.02033 0.3231 0
M  V30 3671 H 334.614 -3.87745 -1.26955 0
M  V30 3672 H 333.289 -4.15624 -0.15143 0
M  V30 3673 H 331.866 -3.28597 -1.76292 0
M  V30 3674 N 334.051 0.0651679 -1.57465 0
M  V30 3675 C 334.981 1.07693 -2.07182 0
M  V30 3676 C 335.962 1.39962 -0.966673 0
M  V30 3677 O 337.147 1.49475 -1.2398 0
M  V30 3678 C 334.277 2.3885 -2.52127 0
M  V30 3679 C 333.231 2.20917 -3.66579 0
M  V30 3680 C 332.557 3.57515 -3.97601 0
M  V30 3681 C 333.857 1.62493 -4.9638 0
M  V30 3682 H 335.551 0.663199 -2.91962 0
M  V30 3683 H 333.097 0.317569 -1.40455 0
M  V30 3684 H 335.05 3.09928 -2.85522 0
M  V30 3685 H 333.774 2.82215 -1.64384 0
M  V30 3686 H 332.433 1.52279 -3.33477 0
M  V30 3687 H 332.081 3.98463 -3.06979 0
M  V30 3688 H 331.781 3.46353 -4.74672 0
M  V30 3689 H 333.305 4.30013 -4.33499 0
M  V30 3690 H 334.719 2.23445 -5.27963 0
M  V30 3691 H 333.116 1.62009 -5.77818 0
M  V30 3692 H 334.186 0.587041 -4.81333 0
M  V30 3693 N 335.529 1.53961 0.336706 0
M  V30 3694 C 336.775 1.7179 1.07777 0
M  V30 3695 C 337.108 0.483263 1.88091 0
M  V30 3696 O 336.383 -0.519747 1.87427 0
M  V30 3697 C 336.666 2.98558 2.01334 0
M  V30 3698 C 336.519 4.32245 1.24437 0
M  V30 3699 C 337.838 3.21023 3.01052 0
M  V30 3700 H 334.957 0.625089 0.390426 0
M  V30 3701 H 337.599 1.86641 0.35567 0
M  V30 3702 H 335.749 2.86028 2.62908 0
M  V30 3703 H 337.421 4.56637 0.654243 0
M  V30 3704 H 335.664 4.30344 0.546458 0
M  V30 3705 H 336.335 5.17137 1.93063 0
M  V30 3706 H 338.811 3.32929 2.49595 0
M  V30 3707 H 337.687 4.11104 3.6371 0
M  V30 3708 H 337.948 2.37637 3.72802 0
M  V30 3709 N 337.007 -0.598083 1.45811 0
M  V30 3710 C 338.423 -0.919847 1.30426 0
M  V30 3711 C 338.623 -1.99759 0.264303 0
M  V30 3712 O 337.679 -2.50221 -0.338472 0
M  V30 3713 C 338.992 -1.35176 2.68603 0
M  V30 3714 C 340.54 -1.46546 2.76574 0
M  V30 3715 C 341.015 -1.9311 4.15298 0
M  V30 3716 N 342.506 -2.00328 4.1764 0
M  V30 3717 C 343.241 -2.37599 5.21856 0
M  V30 3718 N 342.737 -2.73771 6.36413 0
M  V30 3719 N 344.53 -2.38021 5.09218 0
M  V30 3720 H 336.681 0.114111 2.12093 0
M  V30 3721 H 338.944 -0.0116121 0.947929 0
M  V30 3722 H 338.65 -0.633969 3.45939 0
M  V30 3723 H 338.524 -2.3164 2.97696 0
M  V30 3724 H 340.911 -2.17415 1.99537 0
M  V30 3725 H 340.992 -0.483727 2.51185 0
M  V30 3726 H 340.636 -1.22824 4.92825 0
M  V30 3727 H 340.566 -2.92213 4.38086 0
M  V30 3728 H 343.057 -1.74925 3.34977 0
M  V30 3729 H 343.37 -3.0112 7.11721 0
M  V30 3730 H 341.715 -2.71445 6.39799 0
M  V30 3731 H 344.906 -2.09174 4.18765 0
M  V30 3732 H 345.079 -2.66741 5.90554 0
M  V30 3733 N 338.485 -1.33259 -0.841409 0
M  V30 3734 C 339.713 -1.27605 -1.62864 0
M  V30 3735 C 340.128 0.153507 -1.88175 0
M  V30 3736 O 339.485 1.09485 -1.46011 0
M  V30 3737 C 339.536 -2.04596 -2.98031 0
M  V30 3738 O 339.257 -3.41975 -2.73834 0
M  V30 3739 C 340.758 -2.06122 -3.92465 0
M  V30 3740 H 337.978 -0.439718 -0.506842 0
M  V30 3741 H 340.522 -1.75591 -1.04824 0
M  V30 3742 H 338.677 -1.60299 -3.5268 0
M  V30 3743 H 339.091 -3.81549 -3.59889 0
M  V30 3744 H 340.565 -2.64451 -4.84531 0
M  V30 3745 H 341.042 -1.05083 -4.26444 0
M  V30 3746 H 341.648 -2.50427 -3.43753 0
M  V30 3747 N 339.963 1.05934 -1.16686 0
M  V30 3748 C 341.379 1.30938 -0.912542 0
M  V30 3749 C 341.579 1.96803 0.432533 0
M  V30 3750 O 340.635 2.23693 1.17123 0
M  V30 3751 C 341.948 2.18649 -2.06429 0
M  V30 3752 C 343.496 2.32055 -2.10047 0
M  V30 3753 C 343.971 3.23122 -3.24586 0
M  V30 3754 N 345.462 3.30706 -3.24327 0
M  V30 3755 C 346.197 4.01273 -4.09594 0
M  V30 3756 N 345.693 4.74332 -5.04956 0
M  V30 3757 N 347.486 3.97361 -3.97569 0
M  V30 3758 H 339.637 0.615777 -2.03278 0
M  V30 3759 H 341.9 0.334077 -0.887185 0
M  V30 3760 H 341.606 1.77534 -3.03603 0
M  V30 3761 H 341.48 3.19252 -2.00894 0
M  V30 3762 H 343.867 2.72415 -1.13464 0
M  V30 3763 H 343.948 1.31107 -2.19647 0
M  V30 3764 H 343.592 2.83477 -4.2143 0
M  V30 3765 H 343.522 4.24057 -3.12223 0
M  V30 3766 H 346.013 2.78644 -2.55276 0
M  V30 3767 H 346.326 5.25716 -5.6643 0
M  V30 3768 H 344.671 4.733 -5.08933 0
M  V30 3769 H 347.862 3.39405 -3.22369 0
M  V30 3770 H 348.035 4.52089 -4.64241 0
M  V30 3771 N 341.441 0.965919 1.2453 0
M  V30 3772 C 342.666 0.643971 1.97149 0
M  V30 3773 C 343.091 -0.779487 1.71189 0
M  V30 3774 O 342.449 -1.5288 0.974553 0
M  V30 3775 C 342.497 0.922557 3.48599 0
M  V30 3776 O 341.601 0.00707672 4.12399 0
M  V30 3777 H 340.942 0.243647 0.617683 0
M  V30 3778 H 343.472 1.29558 1.58353 0
M  V30 3779 H 343.482 0.853373 3.98976 0
M  V30 3780 H 342.157 1.95996 3.66822 0
M  V30 3781 H 340.734 0.12943 3.72675 0
M  V30 3782 N 342.919 -1.39368 0.735821 0
M  V30 3783 C 344.335 -1.54204 0.411492 0
M  V30 3784 C 344.535 -1.70268 -1.07755 0
M  V30 3785 O 343.591 -1.70364 -1.86366 0
M  V30 3786 C 344.904 -2.75925 1.19523 0
M  V30 3787 C 346.452 -2.89761 1.18354 0
M  V30 3788 C 346.927 -4.14421 1.94986 0
M  V30 3789 N 348.418 -4.21462 1.92156 0
M  V30 3790 C 349.153 -5.16871 2.48258 0
M  V30 3791 N 348.649 -6.18063 3.13001 0
M  V30 3792 N 350.442 -5.09093 2.38287 0
M  V30 3793 H 342.593 -1.27189 1.70108 0
M  V30 3794 H 344.856 -0.616517 0.720147 0
M  V30 3795 H 344.562 -2.70401 2.24892 0
M  V30 3796 H 344.436 -3.68614 0.800222 0
M  V30 3797 H 346.823 -2.94777 0.137975 0
M  V30 3798 H 346.904 -1.98133 1.61793 0
M  V30 3799 H 346.548 -4.10166 2.99543 0
M  V30 3800 H 346.478 -5.05095 1.48953 0
M  V30 3801 H 348.969 -3.48979 1.44991 0
M  V30 3802 H 349.282 -6.87326 3.53275 0
M  V30 3803 H 347.627 -6.18448 3.17091 0
M  V30 3804 H 350.818 -4.28973 1.8735 0
M  V30 3805 H 350.991 -5.83272 2.82308 0
M  V30 3806 N 344.397 -0.483516 -1.5 0
M  V30 3807 C 345.813 -0.138404 -1.58999 0
M  V30 3808 C 346.013 1.35597 -1.4905 0
M  V30 3809 O 345.069 2.13039 -1.35539 0
M  V30 3810 C 346.382 -0.699658 -2.92447 0
M  V30 3811 C 347.93 -0.664195 -3.05872 0
M  V30 3812 C 348.405 -1.20321 -4.41913 0
M  V30 3813 N 349.896 -1.16315 -4.48358 0
M  V30 3814 C 350.631 -1.55058 -5.52037 0
M  V30 3815 N 350.127 -2.01311 -6.62907 0
M  V30 3816 N 351.92 -1.46584 -5.42651 0
M  V30 3817 H 344.071 -1.45529 -1.5471 0
M  V30 3818 H 346.334 -0.60258 -0.731848 0
M  V30 3819 H 346.04 -1.747 -3.05242 0
M  V30 3820 H 345.914 -0.150194 -3.76901 0
M  V30 3821 H 348.301 0.374272 -2.92717 0
M  V30 3822 H 348.382 -1.25061 -2.23144 0
M  V30 3823 H 348.026 -2.24037 -4.55818 0
M  V30 3824 H 347.956 -0.592896 -5.23252 0
M  V30 3825 H 350.447 -0.824058 -3.68806 0
M  V30 3826 H 350.76 -2.2899 -7.38095 0
M  V30 3827 H 349.105 -2.05273 -6.63994 0
M  V30 3828 H 352.296 -1.10281 -4.54924 0
M  V30 3829 H 352.469 -1.77103 -6.23329 0
M  V30 3830 N 345.875 1.56104 -0.216619 0
M  V30 3831 C 346.805 2.23063 0.690296 0
M  V30 3832 C 347.786 1.20072 1.20485 0
M  V30 3833 O 348.971 1.48643 1.24976 0
M  V30 3834 C 346.101 2.90672 1.90072 0
M  V30 3835 C 345.055 4.00092 1.5202 0
M  V30 3836 C 344.381 4.54972 2.80899 0
M  V30 3837 C 345.681 5.17398 0.71391 0
M  V30 3838 H 347.375 2.99109 0.132038 0
M  V30 3839 H 344.921 1.43866 0.0620664 0
M  V30 3840 H 346.874 3.36204 2.54057 0
M  V30 3841 H 345.598 2.12066 2.48386 0
M  V30 3842 H 344.257 3.55283 0.903839 0
M  V30 3843 H 343.905 3.73102 3.37348 0
M  V30 3844 H 343.605 5.28817 2.56176 0
M  V30 3845 H 345.129 5.0322 3.45836 0
M  V30 3846 H 346.543 5.59342 1.25735 0
M  V30 3847 H 344.94 5.97444 0.563951 0
M  V30 3848 H 346.01 4.84088 -0.280527 0
M  V30 3849 N 347.353 -0.0568162 1.57498 0
M  V30 3850 C 348.581 -0.765626 1.92213 0
M  V30 3851 C 348.996 -1.70353 0.813961 0
M  V30 3852 O 348.353 -1.81268 -0.211701 0
M  V30 3853 C 348.404 -1.5465 3.2675 0
M  V30 3854 O 348.125 -0.646278 4.33307 0
M  V30 3855 C 349.626 -2.35497 3.75574 0
M  V30 3856 H 346.846 -0.216835 0.634999 0
M  V30 3857 H 349.39 -0.0226146 2.04487 0
M  V30 3858 H 347.545 -2.24165 3.15957 0
M  V30 3859 H 347.959 -1.19093 5.108 0
M  V30 3860 H 349.433 -2.85722 4.72299 0
M  V30 3861 H 349.91 -3.15692 3.05344 0
M  V30 3862 H 350.516 -1.7111 3.8936 0
M  V30 3863 N 348.832 -1.54138 -0.328536 0
M  V30 3864 C 350.079 -1.72105 -1.06706 0
M  V30 3865 C 350.407 -0.492111 -1.88171 0
M  V30 3866 O 349.662 0.526153 -1.88494 0
M  V30 3867 C 349.961 -2.9457 -2.02393 0
M  V30 3868 C 349.627 -4.29544 -1.37122 0
M  V30 3869 C 348.289 -4.6624 -1.19052 0
M  V30 3870 C 350.641 -5.1333 -0.902331 0
M  V30 3871 C 347.969 -5.84325 -0.527331 0
M  V30 3872 C 350.321 -6.32094 -0.252988 0
M  V30 3873 C 348.985 -6.67473 -0.0600901 0
M  V30 3874 H 348.255 -0.629775 -0.390466 0
M  V30 3875 H 350.902 -1.88372 -0.34473 0
M  V30 3876 H 349.207 -2.72969 -2.81061 0
M  V30 3877 H 350.904 -3.05665 -2.59557 0
M  V30 3878 H 347.494 -4.0067 -1.52188 0
M  V30 3879 H 351.678 -4.855 -1.02974 0
M  V30 3880 H 346.934 -6.103 -0.366634 0
M  V30 3881 H 351.108 -6.96299 0.118366 0
M  V30 3882 H 348.735 -7.58832 0.455828 0
M  V30 3883 N 350.31 0.590341 -1.46126 0
M  V30 3884 C 351.726 0.912917 -1.30912 0
M  V30 3885 C 351.926 1.99616 -0.274893 0
M  V30 3886 O 350.982 2.50397 0.325197 0
M  V30 3887 C 352.295 1.3375 -2.69317 0
M  V30 3888 C 353.843 1.45077 -2.77348 0
M  V30 3889 C 354.318 1.90904 -4.16317 0
M  V30 3890 N 355.809 1.9811 -4.18696 0
M  V30 3891 C 356.544 2.34828 -5.23109 0
M  V30 3892 N 356.04 2.70393 -6.37856 0
M  V30 3893 N 357.833 2.35317 -5.10473 0
M  V30 3894 H 349.984 -0.125358 -2.1203 0
M  V30 3895 H 352.247 0.00658481 -0.947977 0
M  V30 3896 H 351.953 0.615614 -3.4627 0
M  V30 3897 H 351.827 2.30058 -2.9892 0
M  V30 3898 H 354.214 2.16353 -2.00687 0
M  V30 3899 H 354.295 0.4704 -2.51438 0
M  V30 3900 H 353.939 1.20209 -4.9347 0
M  V30 3901 H 353.869 2.89886 -4.39629 0
M  V30 3902 H 356.36 1.73146 -3.359 0
M  V30 3903 H 356.673 2.97341 -7.13308 0
M  V30 3904 H 355.018 2.68048 -6.41229 0
M  V30 3905 H 358.209 2.0695 -4.19868 0
M  V30 3906 H 358.382 2.63605 -5.9196 0
M  V30 3907 N 351.788 1.33704 0.83433 0
M  V30 3908 C 352.735 1.24335 1.94447 0
M  V30 3909 C 353.705 0.120991 1.65659 0
M  V30 3910 O 354.89 0.300035 1.88426 0
M  V30 3911 C 352.03 0.993124 3.30501 0
M  V30 3912 C 351.143 2.20217 3.71657 0
M  V30 3913 C 350.278 1.88572 4.96602 0
M  V30 3914 C 349.317 3.05683 5.30306 0
M  V30 3915 N 348.454 2.73997 6.46429 0
M  V30 3916 H 353.294 2.1928 2.01792 0
M  V30 3917 H 350.831 1.09035 0.987404 0
M  V30 3918 H 352.789 0.828467 4.08892 0
M  V30 3919 H 351.419 0.0803902 3.227 0
M  V30 3920 H 350.471 2.47642 2.88752 0
M  V30 3921 H 351.783 3.07752 3.92543 0
M  V30 3922 H 350.937 1.68776 5.82752 0
M  V30 3923 H 349.676 0.982799 4.77695 0
M  V30 3924 H 348.681 3.26088 4.42659 0
M  V30 3925 H 349.906 3.96737 5.51159 0
M  V30 3926 H 347.852 1.86268 6.28999 0
M  V30 3927 H 347.769 3.55064 6.67432 0
M  V30 3928 H 349.037 2.57679 7.35678 0
M  V30 3929 N 353.266 -1.05314 1.17247 0
M  V30 3930 C 354.214 -2.15137 0.884238 0
M  V30 3931 C 355.208 -1.68729 -0.15063 0
M  V30 3932 O 356.414 -1.8 -0.00366673 0
M  V30 3933 H 352.789 -0.702471 0.2684 0
M  V30 3934 H 354.76 -2.36652 1.81764 0
M  V30 3935 C 353.509 -3.45243 0.412659 0
M  V30 3936 H 352.832 -3.81352 1.20043 0
M  V30 3937 H 354.272 -4.23263 0.249858 0
M  V30 3938 C 352.731 -3.25487 -0.86948 0
M  V30 3939 O 353.261 -3.51938 -1.93655 0
M  V30 3940 N 351.467 -2.78875 -0.817147 0
M  V30 3941 H 351.014 -2.57549 0.0514211 0
M  V30 3942 H 350.972 -2.66036 -1.67547 0
M  V30 3943 N 354.744 -0.972509 -1.24016 0
M  V30 3944 C 355.993 -0.632603 -1.91523 0
M  V30 3945 C 356.306 0.836641 -1.76804 0
M  V30 3946 O 357.512 1.28728 -2.39043 0
M  V30 3947 C 355.968 -1.08082 -3.43287 0
M  V30 3948 C 355.576 -2.57386 -3.66683 0
M  V30 3949 C 357.32 -0.814288 -4.16617 0
M  V30 3950 C 355.227 -2.95915 -5.12043 0
M  V30 3951 H 354.157 -0.232898 -0.717129 0
M  V30 3952 H 356.808 -1.17936 -1.40582 0
M  V30 3953 H 355.19 -0.462339 -3.93292 0
M  V30 3954 H 356.364 -3.24405 -3.27258 0
M  V30 3955 H 354.679 -2.81701 -3.06649 0
M  V30 3956 H 357.276 -1.0781 -5.23718 0
M  V30 3957 H 357.619 0.24955 -4.15551 0
M  V30 3958 H 358.152 -1.39397 -3.72577 0
M  V30 3959 H 354.891 -4.0139 -5.18234 0
M  V30 3960 H 354.411 -2.33584 -5.52448 0
M  V30 3961 H 356.09 -2.86086 -5.80314 0
M  V30 3962 N 356.222 1.38976 -0.743202 0
M  V30 3963 C 357.447 2.05161 -0.303936 0
M  V30 3964 C 357.872 1.55677 1.05576 0
M  V30 3965 O 357.23 0.704131 1.67068 0
M  V30 3966 C 357.278 3.59138 -0.324373 0
M  V30 3967 O 356.382 4.06668 0.685204 0
M  V30 3968 H 355.723 0.649815 -0.136518 0
M  V30 3969 H 358.253 1.77852 -1.01142 0
M  V30 3970 H 358.263 4.07639 -0.171618 0
M  V30 3971 H 356.938 3.94515 -1.31647 0
M  V30 3972 H 355.515 3.69561 0.497913 0
M  V30 3973 N 357.7 0.491464 1.49741 0
M  V30 3974 C 358.647 -0.292027 2.28945 0
M  V30 3975 C 359.617 -0.968973 1.34908 0
M  V30 3976 O 360.802 -0.97748 1.6386 0
M  V30 3977 C 357.942 -1.35617 3.17336 0
M  V30 3978 C 357.055 -0.691957 4.26422 0
M  V30 3979 C 356.19 -1.73572 5.02042 0
M  V30 3980 C 355.229 -1.05286 6.02977 0
M  V30 3981 N 354.366 -2.0404 6.71798 0
M  V30 3982 H 359.206 0.389654 2.95442 0
M  V30 3983 H 356.743 0.204003 1.45679 0
M  V30 3984 H 358.701 -1.98502 3.66951 0
M  V30 3985 H 357.331 -2.00674 2.52844 0
M  V30 3986 H 356.383 0.0499523 3.80367 0
M  V30 3987 H 357.695 -0.153946 4.98562 0
M  V30 3988 H 356.849 -2.43987 5.55478 0
M  V30 3989 H 355.588 -2.30757 4.29654 0
M  V30 3990 H 354.593 -0.334446 5.48782 0
M  V30 3991 H 355.818 -0.487636 6.77347 0
M  V30 3992 H 353.764 -2.60205 6.02187 0
M  V30 3993 H 353.681 -1.55279 7.39881 0
M  V30 3994 H 354.949 -2.73772 7.29842 0
M  V30 3995 N 359.178 -1.55987 0.224894 0
M  V30 3996 C 360.141 -2.19178 -0.670348 0
M  V30 3997 C 361.141 -1.15461 -1.11917 0
M  V30 3998 O 362.331 -1.40675 -1.02743 0
M  V30 3999 C 359.463 -2.81777 -1.9187 0
M  V30 4000 H 360.656 -2.99662 -0.119364 0
M  V30 4001 H 358.209 -1.5628 -0.0247128 0
M  V30 4002 H 358.944 -2.05172 -2.51147 0
M  V30 4003 H 358.729 -3.57732 -1.60531 0
M  V30 4004 H 360.219 -3.30205 -2.55645 0
M  V30 4005 N 360.656 0.0484629 -1.57525 0
M  V30 4006 C 361.881 0.759177 -1.93006 0
M  V30 4007 C 362.306 1.69125 -0.823317 0
M  V30 4008 O 361.664 1.79931 0.222364 0
M  V30 4009 C 361.712 1.50899 -3.27509 0
M  V30 4010 O 360.816 2.62112 -3.18388 0
M  V30 4011 H 360.157 0.205564 -0.631379 0
M  V30 4012 H 362.687 0.00972959 -2.04598 0
M  V30 4013 H 362.697 1.88317 -3.6194 0
M  V30 4014 H 361.372 0.825269 -4.0763 0
M  V30 4015 H 359.949 2.27379 -2.95556 0
M  V30 4016 N 362.134 1.5431 0.320358 0
M  V30 4017 C 363.55 1.45091 0.664889 0
M  V30 4018 C 363.75 0.626382 1.91517 0
M  V30 4019 O 362.806 0.126443 2.52183 0
M  V30 4020 C 364.119 2.88848 0.83591 0
M  V30 4021 C 365.667 2.9877 0.933046 0
M  V30 4022 C 366.142 4.43683 1.13621 0
M  V30 4023 N 367.633 4.47309 1.20287 0
M  V30 4024 C 368.368 5.56595 1.37801 0
M  V30 4025 N 367.864 6.75844 1.52338 0
M  V30 4026 N 369.657 5.44248 1.40535 0
M  V30 4027 H 361.808 2.06398 -0.501374 0
M  V30 4028 H 364.071 0.933963 -0.162534 0
M  V30 4029 H 363.777 3.51698 -0.0116092 0
M  V30 4030 H 363.651 3.35148 1.73078 0
M  V30 4031 H 366.038 2.36045 1.77107 0
M  V30 4032 H 366.119 2.55796 0.0145782 0
M  V30 4033 H 365.763 5.06995 0.303032 0
M  V30 4034 H 365.693 4.84269 2.0686 0
M  V30 4035 H 368.184 3.61388 1.10485 0
M  V30 4036 H 368.497 7.54892 1.65403 0
M  V30 4037 H 366.842 6.78746 1.4943 0
M  V30 4038 H 370.033 4.50038 1.28777 0
M  V30 4039 H 370.206 6.29473 1.53842 0
M  V30 4040 N 363.613 -0.582584 1.46437 0
M  V30 4041 C 364.838 -1.37168 1.55563 0
M  V30 4042 C 365.263 -1.87061 0.19743 0
M  V30 4043 O 364.621 -1.61572 -0.822451 0
M  V30 4044 C 364.669 -2.53511 2.56446 0
M  V30 4045 O 363.773 -3.54953 2.09958 0
M  V30 4046 H 363.114 -0.408494 0.523477 0
M  V30 4047 H 365.644 -0.706646 1.9201 0
M  V30 4048 H 365.654 -3.00426 2.76058 0
M  V30 4049 H 364.329 -2.16549 3.55076 0
M  V30 4050 H 362.906 -3.14516 2.00334 0
M  V30 4051 N 365.091 -1.34144 -0.827227 0
M  V30 4052 C 366.316 -1.29476 -1.62021 0
M  V30 4053 C 366.741 0.129292 -1.87655 0
M  V30 4054 O 366.099 1.08967 -1.449 0
M  V30 4055 C 366.147 -2.08702 -2.94068 0
M  V30 4056 O 365.251 -1.45359 -3.85933 0
M  V30 4057 H 364.592 -0.444881 -0.492927 0
M  V30 4058 H 367.122 -1.76882 -1.02829 0
M  V30 4059 H 367.132 -2.19898 -3.43669 0
M  V30 4060 H 365.807 -3.12241 -2.74734 0
M  V30 4061 H 364.384 -1.42879 -3.44442 0
M  V30 4062 N 366.569 1.04691 -1.17803 0
M  V30 4063 C 367.479 2.16057 -0.914151 0
M  V30 4064 C 368.495 1.73589 0.119503 0
M  V30 4065 O 369.671 2.01308 -0.0609468 0
M  V30 4066 C 366.736 3.4394 -0.436603 0
M  V30 4067 C 365.797 4.00825 -1.53746 0
M  V30 4068 C 365.03 5.22604 -1.0826 0
M  V30 4069 O 365.253 5.70367 0.0612244 0
M  V30 4070 O 364.187 5.7186 -1.87775 0
M  V30 4071 H 368.013 2.41169 -1.84584 0
M  V30 4072 H 365.598 1.1453 -0.959334 0
M  V30 4073 H 367.48 4.21024 -0.178057 0
M  V30 4074 H 366.155 3.20316 0.466869 0
M  V30 4075 H 365.062 3.25158 -1.84995 0
M  V30 4076 H 366.395 4.28778 -2.41683 0
M  V30 4077 N 368.047 0.979072 1.23499 0
M  V30 4078 C 368.994 0.517904 2.24914 0
M  V30 4079 C 369.964 -0.442525 1.60097 0
M  V30 4080 O 371.149 -0.350365 1.87556 0
M  V30 4081 C 368.289 -0.174813 3.44657 0
M  V30 4082 C 367.402 0.825721 4.24035 0
M  V30 4083 C 366.537 0.107946 5.3109 0
M  V30 4084 C 365.576 1.09778 6.02175 0
M  V30 4085 N 364.713 0.40925 7.00906 0
M  V30 4086 H 369.553 1.38751 2.63727 0
M  V30 4087 H 367.09 0.695303 1.2963 0
M  V30 4088 H 369.048 -0.593233 4.12961 0
M  V30 4089 H 367.678 -1.0083 3.06648 0
M  V30 4090 H 366.73 1.36253 3.55161 0
M  V30 4091 H 368.042 1.58005 4.73113 0
M  V30 4092 H 367.196 -0.367904 6.05583 0
M  V30 4093 H 365.935 -0.678994 4.8295 0
M  V30 4094 H 364.94 1.5844 5.26476 0
M  V30 4095 H 366.165 1.88536 6.52404 0
M  V30 4096 H 364.111 -0.358506 6.5502 0
M  V30 4097 H 364.028 1.10226 7.47921 0
M  V30 4098 H 365.296 -0.0442557 7.79487 0
M  V30 4099 N 369.525 -1.3858 0.750561 0
M  V30 4100 C 370.75 -2.04997 0.314812 0
M  V30 4101 C 371.175 -1.56235 -1.04749 0
M  V30 4102 O 370.533 -0.712981 -1.66692 0
M  V30 4103 C 370.581 -3.58961 0.343415 0
M  V30 4104 O 369.685 -4.07025 -0.663628 0
M  V30 4105 H 369.026 -0.649081 0.139962 0
M  V30 4106 H 371.556 -1.77313 1.02084 0
M  V30 4107 H 371.566 -4.07542 0.193233 0
M  V30 4108 H 370.241 -3.93811 1.33738 0
M  V30 4109 H 368.818 -3.6982 -0.478307 0
M  V30 4110 N 371.003 -0.499398 -1.49478 0
M  V30 4111 C 371.933 0.269244 -2.31943 0
M  V30 4112 C 372.914 0.964054 -1.40143 0
M  V30 4113 O 374.099 0.955767 -1.69052 0
M  V30 4114 C 371.229 1.33504 -3.20615 0
M  V30 4115 C 370.183 0.760202 -4.21195 0
M  V30 4116 C 369.509 1.9264 -4.98792 0
M  V30 4117 C 370.809 -0.247661 -5.21712 0
M  V30 4118 H 372.503 -0.419082 -2.96452 0
M  V30 4119 H 370.049 -0.202988 -1.42562 0
M  V30 4120 H 372.002 1.88048 -3.77115 0
M  V30 4121 H 370.726 2.05253 -2.54045 0
M  V30 4122 H 369.385 0.23653 -3.65836 0
M  V30 4123 H 369.033 2.63154 -4.28671 0
M  V30 4124 H 368.733 1.54785 -5.66847 0
M  V30 4125 H 370.257 2.4762 -5.58137 0
M  V30 4126 H 371.671 0.209579 -5.72917 0
M  V30 4127 H 370.068 -0.541962 -5.97648 0
M  V30 4128 H 371.138 -1.16409 -4.7072 0
M  V30 4129 N 372.481 1.55866 -0.233164 0
M  V30 4130 C 373.444 2.1953 0.658715 0
M  V30 4131 C 374.444 1.16053 1.11303 0
M  V30 4132 O 375.634 1.41218 1.01996 0
M  V30 4133 C 372.766 2.82791 1.90373 0
M  V30 4134 H 373.959 2.99721 0.10347 0
M  V30 4135 H 371.512 1.56291 0.0164245 0
M  V30 4136 H 372.247 2.06501 2.50056 0
M  V30 4137 H 372.032 3.58578 1.58632 0
M  V30 4138 H 373.522 3.31556 2.53891 0
M  V30 4139 N 373.959 -0.0401083 1.57549 0
M  V30 4140 C 374.889 -1.04384 2.08869 0
M  V30 4141 C 375.87 -1.38407 0.988817 0
M  V30 4142 O 377.055 -1.47483 1.26342 0
M  V30 4143 C 374.185 -2.34808 2.55895 0
M  V30 4144 C 373.139 -2.15057 3.70047 0
M  V30 4145 C 372.465 -3.51145 4.03239 0
M  V30 4146 C 373.765 -1.54576 4.98902 0
M  V30 4147 H 375.459 -0.616666 2.92981 0
M  V30 4148 H 373.005 -0.295184 1.40942 0
M  V30 4149 H 374.958 -3.05346 2.90417 0
M  V30 4150 H 373.682 -2.79565 1.68853 0
M  V30 4151 H 372.341 -1.46954 3.35857 0
M  V30 4152 H 371.989 -3.93529 3.13279 0
M  V30 4153 H 371.689 -3.38758 4.80122 0
M  V30 4154 H 373.213 -4.23062 4.40285 0
M  V30 4155 H 374.627 -2.15017 5.31451 0
M  V30 4156 H 373.024 -1.52796 5.80322 0
M  V30 4157 H 374.094 -0.51039 4.82206 0
M  V30 4158 N 375.437 -1.54477 -0.31217 0
M  V30 4159 C 376.367 -1.87652 -1.38957 0
M  V30 4160 C 377.348 -0.734358 -1.53431 0
M  V30 4161 O 378.533 -0.98911 -1.67123 0
M  V30 4162 C 375.663 -2.11396 -2.75552 0
M  V30 4163 C 374.617 -3.27243 -2.75855 0
M  V30 4164 C 373.943 -3.36382 -4.15633 0
M  V30 4165 C 375.243 -4.64622 -2.38587 0
M  V30 4166 H 376.937 -2.77887 -1.11442 0
M  V30 4167 H 374.483 -1.33707 -0.534655 0
M  V30 4168 H 376.436 -2.33189 -3.51 0
M  V30 4169 H 375.16 -1.17921 -3.04569 0
M  V30 4170 H 373.819 -3.05356 -2.02863 0
M  V30 4171 H 373.467 -2.40445 -4.41809 0
M  V30 4172 H 373.167 -4.14249 -4.1674 0
M  V30 4173 H 374.691 -3.60422 -4.92877 0
M  V30 4174 H 376.105 -4.86219 -3.03749 0
M  V30 4175 H 374.502 -5.45121 -2.50925 0
M  V30 4176 H 375.572 -4.66097 -1.33723 0
M  V30 4177 N 376.915 0.57481 -1.46744 0
M  V30 4178 C 377.862 1.68329 -1.57905 0
M  V30 4179 C 378.832 1.60625 -0.422927 0
M  V30 4180 O 380.017 1.79721 -0.640711 0
M  V30 4181 C 377.157 3.06665 -1.58274 0
M  V30 4182 C 376.27 3.24935 -2.84678 0
M  V30 4183 C 375.405 4.53566 -2.76499 0
M  V30 4184 C 374.444 4.65207 -3.97806 0
M  V30 4185 N 373.581 5.85172 -3.87967 0
M  V30 4186 H 378.421 1.58127 -2.52587 0
M  V30 4187 H 375.958 0.770552 -1.25303 0
M  V30 4188 H 377.916 3.86745 -1.56473 0
M  V30 4189 H 376.546 3.15745 -0.671194 0
M  V30 4190 H 375.598 2.38405 -2.96424 0
M  V30 4191 H 376.91 3.29403 -3.7456 0
M  V30 4192 H 376.064 5.41885 -2.72848 0
M  V30 4193 H 374.803 4.51548 -1.8427 0
M  V30 4194 H 373.808 3.75304 -4.0178 0
M  V30 4195 H 375.033 4.68997 -4.9114 0
M  V30 4196 H 372.979 5.84137 -2.98529 0
M  V30 4197 H 372.896 5.90943 -4.71511 0
M  V30 4198 H 374.164 6.759 -3.88303 0
M  V30 4199 N 378.394 1.34581 0.820102 0
M  V30 4200 C 379.622 1.3018 1.60813 0
M  V30 4201 C 380.037 -0.123551 1.88395 0
M  V30 4202 O 379.394 -1.07148 1.47735 0
M  V30 4203 C 379.445 2.09312 2.94739 0
M  V30 4204 O 379.166 3.46288 2.68358 0
M  V30 4205 C 380.667 2.1234 3.89136 0
M  V30 4206 H 377.887 0.447726 0.499782 0
M  V30 4207 H 380.431 1.77237 1.02017 0
M  V30 4208 H 378.586 1.65889 3.50085 0
M  V30 4209 H 379 3.87227 3.53774 0
M  V30 4210 H 380.474 2.72126 4.80262 0
M  V30 4211 H 380.951 1.11854 4.24718 0
M  V30 4212 H 381.557 2.55864 3.39726 0
M  V30 4213 N 379.872 -1.04064 1.18357 0
M  V30 4214 C 381.118 -1.77528 0.980397 0
M  V30 4215 C 381.451 -1.87948 -0.48879 0
M  V30 4216 O 380.726 -1.3876 -1.36293 0
M  V30 4217 C 381.009 -3.20797 1.63588 0
M  V30 4218 C 380.862 -3.1832 3.17793 0
M  V30 4219 C 382.181 -4.18911 1.34914 0
M  V30 4220 H 379.3 -0.644443 0.357578 0
M  V30 4221 H 381.942 -1.2156 1.46024 0
M  V30 4222 H 380.092 -3.68586 1.22788 0
M  V30 4223 H 381.764 -2.78521 3.67728 0
M  V30 4224 H 380.007 -2.56351 3.49952 0
M  V30 4225 H 380.678 -4.19489 3.58794 0
M  V30 4226 H 383.154 -3.7967 1.70265 0
M  V30 4227 H 382.03 -5.17374 1.83346 0
M  V30 4228 H 382.291 -4.41262 0.272027 0
M  V30 4229 N 381.35 -0.985608 -1.22978 0
M  V30 4230 C 382.599 -0.652881 -1.90841 0
M  V30 4231 C 382.912 0.817842 -1.77681 0
M  V30 4232 O 384.118 1.26185 -2.40395 0
M  V30 4233 C 382.574 -1.11717 -3.42122 0
M  V30 4234 C 382.182 -2.6126 -3.63933 0
M  V30 4235 C 383.926 -0.85843 -4.1573 0
M  V30 4236 C 381.833 -3.0133 -5.08876 0
M  V30 4237 H 380.763 -0.240491 -0.714619 0
M  V30 4238 H 383.414 -1.1942 -1.39324 0
M  V30 4239 H 381.796 -0.504027 -3.92779 0
M  V30 4240 H 382.97 -3.27858 -3.23799 0
M  V30 4241 H 381.285 -2.84937 -3.03644 0
M  V30 4242 H 383.882 -1.13359 -5.22546 0
M  V30 4243 H 384.225 0.205461 -4.15793 0
M  V30 4244 H 384.758 -1.43341 -3.71077 0
M  V30 4245 H 381.497 -4.06864 -5.13947 0
M  V30 4246 H 381.017 -2.3943 -5.49939 0
M  V30 4247 H 382.696 -2.92224 -5.77247 0
M  V30 4248 N 382.828 1.3818 -0.7579 0
M  V30 4249 C 384.077 1.99261 -0.312744 0
M  V30 4250 C 384.39 1.60846 1.11301 0
M  V30 4251 O 385.596 2.14929 1.65885 0
M  V30 4252 C 384.052 3.56294 -0.50821 0
M  V30 4253 C 383.66 4.03657 -1.94333 0
M  V30 4254 C 385.404 4.24313 -0.125982 0
M  V30 4255 C 383.311 5.53347 -2.08712 0
M  V30 4256 H 382.241 0.745456 -0.113185 0
M  V30 4257 H 384.892 1.57889 -0.935056 0
M  V30 4258 H 383.274 3.95575 0.183353 0
M  V30 4259 H 384.448 3.75655 -2.66871 0
M  V30 4260 H 382.763 3.48376 -2.28086 0
M  V30 4261 H 385.36 5.34279 -0.212125 0
M  V30 4262 H 385.703 4.05962 0.921964 0
M  V30 4263 H 386.236 3.90285 -0.769563 0
M  V30 4264 H 382.975 5.76607 -3.11777 0
M  V30 4265 H 382.495 5.83078 -1.4064 0
M  V30 4266 H 384.174 6.19111 -1.87912 0
M  V30 4267 N 384.306 0.507319 1.49211 0
M  V30 4268 C 385.552 -0.0350047 2.0277 0
M  V30 4269 C 385.885 -1.3606 1.38569 0
M  V30 4270 O 385.16 -1.87321 0.523542 0
M  V30 4271 C 385.443 -0.180916 3.59645 0
M  V30 4272 C 385.296 1.16825 4.34364 0
M  V30 4273 C 386.615 -0.918558 4.30407 0
M  V30 4274 H 383.734 -0.0112473 0.736914 0
M  V30 4275 H 386.376 0.659956 1.7817 0
M  V30 4276 H 384.526 -0.772826 3.80736 0
M  V30 4277 H 386.198 1.79952 4.24753 0
M  V30 4278 H 384.441 1.75594 3.96673 0
M  V30 4279 H 385.112 1.01939 5.42506 0
M  V30 4280 H 387.588 -0.41649 4.1401 0
M  V30 4281 H 386.464 -0.989505 5.39907 0
M  V30 4282 H 386.725 -1.96373 3.96093 0
M  V30 4283 N 385.784 -1.5574 0.241426 0
M  V30 4284 C 386.714 -2.24133 -0.654722 0
M  V30 4285 C 387.695 -1.21974 -1.1856 0
M  V30 4286 O 388.88 -1.50612 -1.22595 0
M  V30 4287 C 386.01 -2.93659 -1.85423 0
M  V30 4288 C 384.964 -4.0246 -1.45636 0
M  V30 4289 C 384.29 -4.59383 -2.73626 0
M  V30 4290 C 385.59 -5.18468 -0.631506 0
M  V30 4291 H 387.284 -2.99281 -0.0844353 0
M  V30 4292 H 384.83 -1.43947 -0.0391707 0
M  V30 4293 H 386.783 -3.40203 -2.48676 0
M  V30 4294 H 385.507 -2.15991 -2.44981 0
M  V30 4295 H 384.166 -3.56676 -0.847202 0
M  V30 4296 H 383.814 -3.78422 -3.3137 0
M  V30 4297 H 383.514 -5.32826 -2.4773 0
M  V30 4298 H 385.038 -5.08658 -3.37786 0
M  V30 4299 H 386.452 -5.61272 -1.1682 0
M  V30 4300 H 384.849 -5.98266 -0.468831 0
M  V30 4301 H 385.919 -4.8358 0.357506 0
M  V30 4302 N 387.262 0.0317525 -1.57568 0
M  V30 4303 C 388.487 0.738664 -1.938 0
M  V30 4304 C 388.912 1.68242 -0.841208 0
M  V30 4305 O 388.27 1.80157 0.203267 0
M  V30 4306 C 388.318 1.47417 -3.29091 0
M  V30 4307 O 387.422 2.5872 -3.2115 0
M  V30 4308 H 386.763 0.198856 -0.633524 0
M  V30 4309 H 389.293 -0.0119713 -2.04596 0
M  V30 4310 H 389.303 1.84468 -3.63917 0
M  V30 4311 H 387.978 0.781988 -4.08482 0
M  V30 4312 H 386.555 2.24231 -2.97951 0
M  V30 4313 N 388.74 1.54641 0.303973 0
M  V30 4314 C 389.986 1.74038 1.04109 0
M  V30 4315 C 390.319 0.523051 1.87024 0
M  V30 4316 O 389.594 -0.479874 1.88487 0
M  V30 4317 C 389.877 3.02761 1.94955 0
M  V30 4318 C 389.73 4.34787 1.1524 0
M  V30 4319 C 391.049 3.27336 2.94175 0
M  V30 4320 H 388.168 0.63323 0.377079 0
M  V30 4321 H 390.81 1.87354 0.316001 0
M  V30 4322 H 388.96 2.9154 2.56782 0
M  V30 4323 H 390.632 4.57922 0.557236 0
M  V30 4324 H 388.875 4.31407 0.455053 0
M  V30 4325 H 389.546 5.21116 1.8205 0
M  V30 4326 H 392.022 3.38148 2.42477 0
M  V30 4327 H 390.898 4.18726 3.54908 0
M  V30 4328 H 391.159 2.45491 3.67677 0
M  V30 4329 N 390.218 -0.567019 1.47046 0
M  V30 4330 C 391.465 -1.32462 1.53167 0
M  V30 4331 C 391.793 -1.93571 0.189841 0
M  V30 4332 O 391.048 -1.77865 -0.816243 0
M  V30 4333 C 391.347 -2.4623 2.59047 0
M  V30 4334 C 391.013 -2.03014 4.02612 0
M  V30 4335 C 389.675 -1.90944 4.41694 0
M  V30 4336 C 392.027 -1.69895 4.92732 0
M  V30 4337 C 389.355 -1.44035 5.68745 0
M  V30 4338 C 391.707 -1.2446 6.20236 0
M  V30 4339 C 390.371 -1.10979 6.5821 0
M  V30 4340 H 389.641 -0.484713 0.560477 0
M  V30 4341 H 392.288 -0.636888 1.80599 0
M  V30 4342 H 390.593 -3.20517 2.25335 0
M  V30 4343 H 392.29 -3.04427 2.61008 0
M  V30 4344 H 388.88 -2.13348 3.71726 0
M  V30 4345 H 393.064 -1.78098 4.63244 0
M  V30 4346 H 388.32 -1.32254 5.96925 0
M  V30 4347 H 392.494 -0.978924 6.89485 0
M  V30 4348 H 390.121 -0.744078 7.5655 0
M  V30 4349 N 391.696 -1.35014 -0.812953 0
M  V30 4350 C 392.945 -1.27269 -1.56479 0
M  V30 4351 C 393.258 0.152771 -1.95002 0
M  V30 4352 O 394.464 0.352451 -2.69203 0
M  V30 4353 C 392.92 -2.23159 -2.82362 0
M  V30 4354 C 392.528 -3.71016 -2.511 0
M  V30 4355 C 394.272 -2.24342 -3.60376 0
M  V30 4356 C 392.179 -4.58746 -3.73237 0
M  V30 4357 H 391.109 -0.472829 -0.587324 0
M  V30 4358 H 393.76 -1.6024 -0.894171 0
M  V30 4359 H 392.142 -1.83151 -3.51101 0
M  V30 4360 H 393.316 -4.1962 -1.90409 0
M  V30 4361 H 391.631 -3.72378 -1.86343 0
M  V30 4362 H 394.228 -2.87107 -4.51081 0
M  V30 4363 H 394.571 -1.24542 -3.97234 0
M  V30 4364 H 395.104 -2.62846 -2.98591 0
M  V30 4365 H 391.843 -5.59521 -3.41492 0
M  V30 4366 H 391.363 -4.14871 -4.33176 0
M  V30 4367 H 393.042 -4.73852 -4.40537 0
M  V30 4368 N 393.175 1.03435 -1.18907 0
M  V30 4369 C 394.138 2.09756 -0.923844 0
M  V30 4370 C 395.138 1.60528 0.093416 0
M  V30 4371 O 396.328 1.73631 -0.140727 0
M  V30 4372 C 393.46 3.38692 -0.387354 0
M  V30 4373 H 394.653 2.34719 -1.86674 0
M  V30 4374 H 392.206 1.19959 -1.00197 0
M  V30 4375 H 392.941 3.19396 0.561845 0
M  V30 4376 H 392.726 3.75742 -1.12074 0
M  V30 4377 H 394.216 4.17016 -0.220694 0
M  V30 4378 N 394.653 0.992116 1.22453 0
M  V30 4379 C 395.893 0.675727 1.92907 0
M  V30 4380 C 396.257 -0.777762 1.75542 0
M  V30 4381 O 397.458 -1.20553 2.40251 0
M  V30 4382 C 395.729 1.0696 3.4102 0
M  V30 4383 S 397.288 0.871456 4.30059 0
M  V30 4384 H 394.106 0.247089 0.666684 0
M  V30 4385 H 396.708 1.27423 1.48269 0
M  V30 4386 H 395.412 2.12383 3.51172 0
M  V30 4387 H 394.943 0.462858 3.90668 0
M  V30 4388 H 396.958 -0.238436 4.95627 0
M  V30 4389 N 396.131 -1.37776 0.765217 0
M  V30 4390 C 397.377 -2.00604 0.336066 0
M  V30 4391 C 397.732 -1.59657 -1.07366 0
M  V30 4392 O 397.025 -0.829565 -1.7271 0
M  V30 4393 C 397.219 -3.5504 0.410053 0
M  V30 4394 C 397.048 -4.10985 1.82542 0
M  V30 4395 C 395.818 -4.42229 2.44461 0
M  V30 4396 C 398.016 -4.32438 2.78392 0
M  V30 4397 N 395.998 -4.8385 3.77839 0
M  V30 4398 C 397.369 -4.76596 3.96556 0
M  V30 4399 C 399.424 -4.14559 2.75764 0
M  V30 4400 C 398.127 -5.04748 5.12466 0
M  V30 4401 C 400.153 -4.43843 3.90842 0
M  V30 4402 C 399.515 -4.88235 5.07746 0
M  V30 4403 H 395.614 -0.763325 0.169881 0
M  V30 4404 H 398.198 -1.67197 0.997656 0
M  V30 4405 H 396.369 -3.87769 -0.221325 0
M  V30 4406 H 398.101 -4.0468 -0.0405285 0
M  V30 4407 H 394.856 -4.31079 1.96131 0
M  V30 4408 H 395.28 -5.08979 4.46396 0
M  V30 4409 H 399.922 -3.79415 1.86558 0
M  V30 4410 H 397.64 -5.38783 6.02277 0
M  V30 4411 H 401.226 -4.31603 3.90141 0
M  V30 4412 H 400.106 -5.10461 5.95315 0
M  V30 4413 N 397.609 -0.515225 -1.4894 0
M  V30 4414 C 398.572 0.244681 -2.2789 0
M  V30 4415 C 399.572 0.881166 -1.34507 0
M  V30 4416 O 400.762 0.743497 -1.57537 0
M  V30 4417 C 397.894 1.35247 -3.12923 0
M  V30 4418 H 399.087 -0.448289 -2.96531 0
M  V30 4419 H 396.64 -0.270656 -1.53939 0
M  V30 4420 H 397.375 2.07916 -2.48881 0
M  V30 4421 H 397.16 0.901374 -3.81599 0
M  V30 4422 H 398.65 1.88737 -3.72516 0
M  V30 4423 N 399.087 1.5561 -0.249682 0
M  V30 4424 C 400.498 1.84979 0.252949 0
M  V30 4425 C 400.849 1.17153 1.57384 0
M  V30 4426 O 399.974 0.450884 2.11651 0
M  V30 4427 C 400.569 3.35584 0.465732 0
M  V30 4428 C 399.128 3.65169 0.912624 0
M  V30 4429 C 398.275 2.77299 -0.00859085 0
M  V30 4430 H 401.226 1.51513 -0.47217 0
M  V30 4431 H 401.247 3.57313 1.30795 0
M  V30 4432 H 400.759 3.8492 -0.49579 0
M  V30 4433 H 398.86 3.21312 1.88652 0
M  V30 4434 H 398.973 4.72912 0.767559 0
M  V30 4435 H 397.337 2.49678 0.50327 0
M  V30 4436 H 398.12 3.29442 -0.965537 0
M  V30 4437 N 400.565 -0.0233959 1.57583 0
M  V30 4438 C 401.495 -1.02162 2.09965 0
M  V30 4439 C 402.476 -1.3735 1.00344 0
M  V30 4440 O 403.661 -1.46135 1.27899 0
M  V30 4441 C 400.791 -2.32081 2.58371 0
M  V30 4442 C 399.745 -2.1112 3.72307 0
M  V30 4443 C 399.071 -3.46848 4.06941 0
M  V30 4444 C 400.371 -1.49276 5.00514 0
M  V30 4445 H 402.065 -0.585557 2.93618 0
M  V30 4446 H 399.611 -0.280218 1.41247 0
M  V30 4447 H 401.564 -3.02249 2.93639 0
M  V30 4448 H 400.288 -2.77758 1.71808 0
M  V30 4449 H 398.947 -1.43384 3.37397 0
M  V30 4450 H 398.595 -3.90184 3.17436 0
M  V30 4451 H 398.295 -3.33646 4.83688 0
M  V30 4452 H 399.819 -4.18369 4.44747 0
M  V30 4453 H 401.233 -2.09368 5.33702 0
M  V30 4454 H 399.63 -1.46632 5.8191 0
M  V30 4455 H 400.7 -0.459217 4.82721 0
M  V30 4456 N 402.043 -1.548 -0.295768 0
M  V30 4457 C 403.29 -1.74329 -1.03032 0
M  V30 4458 C 403.618 -0.531915 -1.87085 0
M  V30 4459 O 402.873 0.486052 -1.89568 0
M  V30 4460 C 403.172 -2.98797 -1.961 0
M  V30 4461 C 402.838 -4.32356 -1.2798 0
M  V30 4462 C 401.5 -4.68661 -1.09135 0
M  V30 4463 C 403.852 -5.15128 -0.793243 0
M  V30 4464 C 401.18 -5.85312 -0.403269 0
M  V30 4465 C 403.532 -6.32488 -0.118854 0
M  V30 4466 C 402.196 -6.6745 0.0815043 0
M  V30 4467 H 401.466 -0.637916 -0.37702 0
M  V30 4468 H 404.113 -1.8906 -0.304696 0
M  V30 4469 H 402.418 -2.78869 -2.75207 0
M  V30 4470 H 404.115 -3.11102 -2.53015 0
M  V30 4471 H 400.705 -4.03808 -1.43655 0
M  V30 4472 H 404.889 -4.87575 -0.92653 0
M  V30 4473 H 400.145 -6.1094 -0.237098 0
M  V30 4474 H 404.319 -6.95892 0.266035 0
M  V30 4475 H 401.946 -7.57695 0.616685 0
M  V30 4476 N 403.521 0.559213 -1.47345 0
M  V30 4477 C 404.77 1.31281 -1.53128 0
M  V30 4478 C 405.083 1.94602 -0.197344 0
M  V30 4479 O 406.289 2.71173 -0.133154 0
M  V30 4480 C 404.745 2.38051 -2.69925 0
M  V30 4481 C 404.353 1.8093 -4.0984 0
M  V30 4482 C 406.097 3.14604 -2.84999 0
M  V30 4483 C 404.004 2.85468 -5.1794 0
M  V30 4484 H 402.934 0.493614 -0.569966 0
M  V30 4485 H 405.585 0.594155 -1.73615 0
M  V30 4486 H 403.967 3.12822 -2.42814 0
M  V30 4487 H 405.141 1.12544 -4.46845 0
M  V30 4488 H 403.456 1.16967 -3.99634 0
M  V30 4489 H 406.053 3.92666 -3.62929 0
M  V30 4490 H 406.396 3.68665 -1.93369 0
M  V30 4491 H 406.929 2.46945 -3.1187 0
M  V30 4492 H 403.668 2.36264 -6.1144 0
M  V30 4493 H 403.188 3.52269 -4.85455 0
M  V30 4494 H 404.867 3.48996 -5.44803 0
M  V30 4495 N 404.999 1.35443 0.805782 0
M  V30 4496 C 405.929 1.31095 1.93226 0
M  V30 4497 C 406.91 0.185244 1.69088 0
M  V30 4498 O 408.095 0.380332 1.90439 0
M  V30 4499 C 405.225 1.08299 3.29983 0
M  V30 4500 C 404.179 2.17519 3.68605 0
M  V30 4501 C 403.505 1.79887 5.03532 0
M  V30 4502 C 404.805 3.5949 3.78898 0
M  V30 4503 H 406.499 2.25352 1.97122 0
M  V30 4504 H 404.045 1.0848 0.946996 0
M  V30 4505 H 405.998 1.03897 4.08391 0
M  V30 4506 H 404.722 0.104885 3.26432 0
M  V30 4507 H 403.381 2.2102 2.92482 0
M  V30 4508 H 403.029 0.80693 4.96485 0
M  V30 4509 H 402.729 2.53001 5.30344 0
M  V30 4510 H 404.253 1.77011 5.84379 0
M  V30 4511 H 405.667 3.58307 4.47536 0
M  V30 4512 H 404.064 4.31371 4.1718 0
M  V30 4513 H 405.134 3.95584 2.80431 0
M  V30 4514 N 406.477 -1.02803 1.19454 0
M  V30 4515 C 407.407 -2.12999 0.956758 0
M  V30 4516 C 408.388 -1.69743 -0.110188 0
M  V30 4517 O 409.573 -1.94148 0.0450038 0
M  V30 4518 C 406.703 -3.43746 0.495553 0
M  V30 4519 C 405.657 -4.00688 1.50443 0
M  V30 4520 C 404.983 -5.27067 0.900275 0
M  V30 4521 C 406.283 -4.35397 2.8849 0
M  V30 4522 H 407.977 -2.33148 1.87836 0
M  V30 4523 H 405.523 -1.12045 0.904539 0
M  V30 4524 H 407.476 -4.2021 0.316493 0
M  V30 4525 H 406.2 -3.23321 -0.461646 0
M  V30 4526 H 404.859 -3.2632 1.67065 0
M  V30 4527 H 404.507 -5.02959 -0.064503 0
M  V30 4528 H 404.207 -5.66127 1.57397 0
M  V30 4529 H 405.731 -6.06196 0.73203 0
M  V30 4530 H 407.145 -5.02795 2.75446 0
M  V30 4531 H 405.542 -4.85541 3.52661 0
M  V30 4532 H 406.612 -3.44662 3.41081 0
M  V30 4533 N 407.956 -0.998596 -1.21925 0
M  V30 4534 C 408.886 -0.573688 -2.26343 0
M  V30 4535 C 409.867 0.402296 -1.65274 0
M  V30 4536 O 411.052 0.291683 -1.91997 0
M  V30 4537 C 408.182 0.106839 -3.47136 0
M  V30 4538 C 407.136 -0.788269 -4.20678 0
M  V30 4539 C 406.462 0.0254927 -5.34694 0
M  V30 4540 C 407.762 -2.08784 -4.78755 0
M  V30 4541 H 409.456 -1.44651 -2.62138 0
M  V30 4542 H 407.002 -0.696975 -1.26009 0
M  V30 4543 H 408.955 0.415531 -4.19346 0
M  V30 4544 H 407.679 1.01424 -3.10452 0
M  V30 4545 H 406.338 -1.08069 -3.50309 0
M  V30 4546 H 405.986 0.933989 -4.94253 0
M  V30 4547 H 405.686 -0.570437 -5.84825 0
M  V30 4548 H 407.21 0.328147 -6.09718 0
M  V30 4549 H 408.624 -1.84272 -5.42878 0
M  V30 4550 H 407.021 -2.63307 -5.39249 0
M  V30 4551 H 408.091 -2.76284 -3.98491 0
M  V30 4552 N 409.434 1.37368 -0.772513 0
M  V30 4553 C 410.364 2.32856 -0.173304 0
M  V30 4554 C 411.345 1.55818 0.682262 0
M  V30 4555 O 412.53 1.84052 0.619566 0
M  V30 4556 C 409.66 3.40048 0.706007 0
M  V30 4557 C 408.614 4.27973 -0.0483144 0
M  V30 4558 C 407.94 5.26184 0.950491 0
M  V30 4559 C 409.24 5.07665 -1.22776 0
M  V30 4560 H 410.934 2.83217 -0.971002 0
M  V30 4561 H 408.48 1.3617 -0.468377 0
M  V30 4562 H 410.433 4.05827 1.13501 0
M  V30 4563 H 409.157 2.88214 1.53623 0
M  V30 4564 H 407.816 3.63726 -0.458107 0
M  V30 4565 H 407.464 4.7063 1.77529 0
M  V30 4566 H 407.164 5.85872 0.450314 0
M  V30 4567 H 408.688 5.94838 1.37842 0
M  V30 4568 H 410.102 5.66578 -0.875366 0
M  V30 4569 H 408.499 5.76681 -1.66007 0
M  V30 4570 H 409.569 4.40294 -2.03149 0
M  V30 4571 N 410.912 0.523116 1.48665 0
M  V30 4572 C 412.189 -0.0775449 1.95446 0
M  V30 4573 C 412.569 -1.5197 1.4652 0
M  V30 4574 O 411.917 -2.17876 0.688657 0
M  V30 4575 C 412.127 0.0326135 3.48985 0
M  V30 4576 C 413.475 -0.130141 4.24401 0
M  V30 4577 O 414.499 -0.0415142 3.56176 0
M  V30 4578 O 413.358 -0.31491 5.45592 0
M  V30 4579 H 410.452 -0.0831012 0.822814 0
M  V30 4580 H 412.998 0.587227 1.59216 0
M  V30 4581 H 411.77 1.03748 3.77296 0
M  V30 4582 H 411.393 -0.671317 3.91892 0
M  V30 4583 N 412.39 -1.55475 0.257931 0
M  V30 4584 C 413.636 -1.99502 -0.364266 0
M  V30 4585 C 413.969 -1.146 -1.56782 0
M  V30 4586 O 413.244 -0.211968 -1.93342 0
M  V30 4587 C 413.527 -3.51917 -0.763333 0
M  V30 4588 C 413.38 -4.4758 0.446371 0
M  V30 4589 C 414.699 -4.09742 -1.60623 0
M  V30 4590 H 411.818 -0.725277 -0.130929 0
M  V30 4591 H 414.46 -1.8653 0.361446 0
M  V30 4592 H 412.61 -3.63101 -1.38166 0
M  V30 4593 H 414.282 -4.48362 1.08487 0
M  V30 4594 H 412.525 -4.19947 1.08753 0
M  V30 4595 H 413.196 -5.51862 0.123645 0
M  V30 4596 H 415.672 -4.01727 -1.08418 0
M  V30 4597 H 414.548 -5.16631 -1.85429 0
M  V30 4598 H 414.809 -3.58889 -2.58169 0
M  V30 4599 N 413.868 0.0150385 -1.57593 0
M  V30 4600 C 415.116 0.701613 -1.8953 0
M  V30 4601 C 415.437 1.75139 -0.857396 0
M  V30 4602 O 414.707 1.95607 0.107194 0
M  V30 4603 H 413.287 0.26213 -0.699498 0
M  V30 4604 H 415.949 -0.0223304 -1.94887 0
M  V30 4605 H 415.045 1.18236 -2.88837 0
M  V30 4606 N 415.346 1.54954 0.287554 0
M  V30 4607 C 416.586 1.76617 1.02887 0
M  V30 4608 C 416.95 0.547759 1.84021 0
M  V30 4609 O 418.151 0.642365 2.61012 0
M  V30 4610 C 416.422 3.02717 1.89993 0
M  V30 4611 S 417.981 3.45438 2.70588 0
M  V30 4612 H 414.799 0.6207 0.346775 0
M  V30 4613 H 417.401 1.93172 0.30082 0
M  V30 4614 H 416.105 3.89503 1.29287 0
M  V30 4615 H 415.636 2.88787 2.67144 0
M  V30 4616 H 417.651 3.03566 3.92508 0
M  V30 4617 N 416.824 -0.551391 1.4764 0
M  V30 4618 C 417.771 -1.65796 1.60563 0
M  V30 4619 C 418.741 -1.59932 0.448428 0
M  V30 4620 O 419.926 -1.78679 0.669222 0
M  V30 4621 C 417.066 -3.04108 1.63133 0
M  V30 4622 C 416.179 -3.20365 2.89811 0
M  V30 4623 C 415.314 -4.49109 2.8368 0
M  V30 4624 C 414.353 -4.58819 4.05156 0
M  V30 4625 N 413.49 -5.78926 3.97227 0
M  V30 4626 H 418.33 -1.54088 2.5507 0
M  V30 4627 H 415.867 -0.75052 1.26513 0
M  V30 4628 H 417.825 -3.84207 1.62606 0
M  V30 4629 H 416.455 -3.14637 0.721341 0
M  V30 4630 H 415.507 -2.33659 3.00179 0
M  V30 4631 H 416.819 -3.23402 3.79753 0
M  V30 4632 H 415.973 -5.37475 2.81434 0
M  V30 4633 H 414.712 -4.4856 1.91431 0
M  V30 4634 H 413.717 -3.68864 4.077 0
M  V30 4635 H 414.942 -4.61124 4.98539 0
M  V30 4636 H 412.888 -5.79314 3.07785 0
M  V30 4637 H 412.805 -5.83367 4.80853 0
M  V30 4638 H 414.073 -6.69637 3.99007 0
M  V30 4639 N 418.302 -1.35869 -0.798587 0
M  V30 4640 C 419.548 -1.2978 -1.55836 0
M  V30 4641 C 419.881 0.125322 -1.93795 0
M  V30 4642 O 419.156 1.07658 -1.61987 0
M  V30 4643 C 419.439 -2.21188 -2.84162 0
M  V30 4644 C 419.292 -3.72155 -2.52628 0
M  V30 4645 C 420.611 -2.11545 -3.85923 0
M  V30 4646 H 417.73 -0.472769 -0.565383 0
M  V30 4647 H 420.372 -1.66341 -0.918192 0
M  V30 4648 H 418.522 -1.90139 -3.38791 0
M  V30 4649 H 420.194 -4.13682 -2.04121 0
M  V30 4650 H 418.437 -3.92042 -1.85704 0
M  V30 4651 H 419.108 -4.31511 -3.44242 0
M  V30 4652 H 421.584 -2.38855 -3.40716 0
M  V30 4653 H 420.46 -2.77688 -4.73477 0
M  V30 4654 H 420.721 -1.09987 -4.282 0
M  V30 4655 N 419.78 1.02168 -1.19998 0
M  V30 4656 C 420.727 2.10601 -0.944228 0
M  V30 4657 C 421.697 1.65639 0.123664 0
M  V30 4658 O 422.882 1.9079 -0.0199941 0
M  V30 4659 C 420.022 3.41504 -0.496865 0
M  V30 4660 C 419.135 3.99973 -1.63234 0
M  V30 4661 C 418.27 5.18915 -1.13579 0
M  V30 4662 C 417.309 5.69456 -2.24468 0
M  V30 4663 N 416.446 6.79665 -1.76068 0
M  V30 4664 H 421.286 2.31814 -1.8726 0
M  V30 4665 H 418.823 1.13686 -0.933483 0
M  V30 4666 H 420.781 4.16626 -0.218843 0
M  V30 4667 H 419.411 3.2038 0.394508 0
M  V30 4668 H 418.463 3.21997 -2.0254 0
M  V30 4669 H 419.775 4.33492 -2.46752 0
M  V30 4670 H 418.929 6.01222 -0.813429 0
M  V30 4671 H 417.668 4.8695 -0.270434 0
M  V30 4672 H 416.673 4.85757 -2.57526 0
M  V30 4673 H 417.898 6.03459 -3.11472 0
M  V30 4674 H 415.844 6.49538 -0.918516 0
M  V30 4675 H 415.761 7.12349 -2.5317 0
M  V30 4676 H 417.029 7.65549 -1.46817 0
M  V30 4677 N 421.258 1.00505 1.21394 0
M  V30 4678 C 422.486 0.706609 1.9446 0
M  V30 4679 C 422.901 -0.73081 1.74082 0
M  V30 4680 O 422.258 -1.49446 1.04747 0
M  V30 4681 C 422.309 1.01824 3.46863 0
M  V30 4682 O 422.03 2.39919 3.66566 0
M  V30 4683 C 423.531 0.739216 4.37093 0
M  V30 4684 H 420.751 0.260394 0.618414 0
M  V30 4685 H 423.295 1.34311 1.54211 0
M  V30 4686 H 421.45 0.427343 3.85036 0
M  V30 4687 H 421.864 2.50784 4.6066 0
M  V30 4688 H 423.338 1.00744 5.42729 0
M  V30 4689 H 423.815 -0.326746 4.37983 0
M  V30 4690 H 424.421 1.31173 4.04566 0
M  V30 4691 N 422.737 -1.36956 0.779787 0
M  V30 4692 C 423.977 -2.01328 0.353043 0
M  V30 4693 C 424.341 -1.60558 -1.05286 0
M  V30 4694 O 425.542 -2.1745 -1.58016 0
M  V30 4695 C 423.813 -3.53874 0.500822 0
M  V30 4696 S 425.372 -4.38506 0.16053 0
M  V30 4697 H 422.19 -0.69799 0.13539 0
M  V30 4698 H 424.792 -1.67016 1.01617 0
M  V30 4699 H 423.496 -3.81034 1.52451 0
M  V30 4700 H 423.027 -3.92994 -0.178574 0
M  V30 4701 H 425.042 -4.85153 -1.04121 0
M  V30 4702 N 424.215 -0.530993 -1.48385 0
M  V30 4703 C 425.492 0.0671788 -1.95485 0
M  V30 4704 C 425.872 1.51191 -1.47324 0
M  V30 4705 O 425.22 2.17507 -0.700202 0
M  V30 4706 C 425.43 -0.0511206 -3.48963 0
M  V30 4707 C 426.778 0.107632 -4.24464 0
M  V30 4708 O 427.802 0.0226248 -3.56193 0
M  V30 4709 O 426.661 0.285972 -5.45751 0
M  V30 4710 H 423.755 0.0787365 -0.823243 0
M  V30 4711 H 426.301 -0.595662 -1.58902 0
M  V30 4712 H 425.073 -1.05747 -3.7674 0
M  V30 4713 H 424.696 0.650525 -3.92242 0
M  V30 4714 N 425.693 1.55336 -0.266172 0
M  V30 4715 C 426.942 1.98574 0.353749 0
M  V30 4716 C 427.255 1.15789 1.57646 0
M  V30 4717 O 428.461 1.49129 2.26876 0
M  V30 4718 C 426.917 3.53403 0.680747 0
M  V30 4719 C 426.525 4.44953 -0.52165 0
M  V30 4720 C 428.269 4.05251 1.26379 0
M  V30 4721 C 426.176 5.91156 -0.169736 0
M  V30 4722 H 425.106 0.741643 0.135949 0
M  V30 4723 H 427.757 1.79743 -0.369421 0
M  V30 4724 H 426.139 3.68001 1.46257 0
M  V30 4725 H 427.313 4.42121 -1.29869 0
M  V30 4726 H 425.628 4.03691 -1.02093 0
M  V30 4727 H 428.225 5.12021 1.54074 0
M  V30 4728 H 428.568 3.53749 2.19471 0
M  V30 4729 H 429.101 3.94057 0.544447 0
M  V30 4730 H 425.84 6.46736 -1.0683 0
M  V30 4731 H 425.36 5.97079 0.570717 0
M  V30 4732 H 427.039 6.4655 0.241245 0
M  V30 4733 N 427.171 -0.0066808 1.57599 0
M  V30 4734 C 428.101 -0.999296 2.11036 0
M  V30 4735 C 429.082 -1.36278 1.01795 0
M  V30 4736 O 430.267 -1.4477 1.29442 0
M  V30 4737 C 427.397 -2.29328 2.60818 0
M  V30 4738 C 426.351 -2.07159 3.74525 0
M  V30 4739 C 425.677 -3.42512 4.10596 0
M  V30 4740 C 426.977 -1.43959 5.02069 0
M  V30 4741 H 428.671 -0.554382 2.94223 0
M  V30 4742 H 426.217 -0.265221 1.41536 0
M  V30 4743 H 428.17 -2.99117 2.96828 0
M  V30 4744 H 426.894 -2.7592 1.74745 0
M  V30 4745 H 425.553 -1.39797 3.38899 0
M  V30 4746 H 425.201 -3.86795 3.21556 0
M  V30 4747 H 424.901 -3.28498 4.87199 0
M  V30 4748 H 426.425 -4.13628 4.4916 0
M  V30 4749 H 427.839 -2.03696 5.35893 0
M  V30 4750 H 426.236 -1.40452 5.83432 0
M  V30 4751 H 427.306 -0.407992 4.83181 0
M  V30 4752 N 428.649 -1.55105 -0.279332 0
M  V30 4753 C 429.896 -1.75412 -1.01177 0
M  V30 4754 C 430.224 -0.551728 -1.86511 0
M  V30 4755 O 429.479 0.465919 -1.90073 0
M  V30 4756 C 429.778 -3.0086 -1.92919 0
M  V30 4757 C 429.444 -4.33689 -1.23387 0
M  V30 4758 C 428.106 -4.69792 -1.04159 0
M  V30 4759 C 430.458 -5.15941 -0.738562 0
M  V30 4760 C 427.786 -5.85707 -0.341166 0
M  V30 4761 C 430.138 -6.32579 -0.0517636 0
M  V30 4762 C 428.802 -6.67326 0.152292 0
M  V30 4763 H 428.072 -0.641879 -0.370233 0
M  V30 4764 H 430.719 -1.89373 -0.284627 0
M  V30 4765 H 429.024 -2.81773 -2.72234 0
M  V30 4766 H 430.721 -3.13768 -2.49701 0
M  V30 4767 H 427.311 -4.05309 -1.39364 0
M  V30 4768 H 431.495 -4.8853 -0.874764 0
M  V30 4769 H 426.751 -6.11157 -0.172287 0
M  V30 4770 H 430.925 -6.9557 0.339828 0
M  V30 4771 H 428.552 -7.56998 0.697014 0
M  V30 4772 N 430.127 0.543554 -1.4793 0
M  V30 4773 C 431.543 0.870806 -1.3375 0
M  V30 4774 C 431.743 1.9864 -0.338261 0
M  V30 4775 O 430.799 2.51305 0.245371 0
M  V30 4776 C 432.112 1.25114 -2.73435 0
M  V30 4777 C 433.66 1.3618 -2.81823 0
M  V30 4778 C 434.135 1.77563 -4.22179 0
M  V30 4779 N 435.626 1.8469 -4.24787 0
M  V30 4780 C 436.361 2.18067 -5.30315 0
M  V30 4781 N 435.857 2.49963 -6.46135 0
M  V30 4782 N 437.65 2.18958 -5.17701 0
M  V30 4783 H 429.801 -0.19275 -2.11524 0
M  V30 4784 H 432.064 -0.0235777 -0.947707 0
M  V30 4785 H 431.77 0.50514 -3.48053 0
M  V30 4786 H 431.644 2.20431 -3.06088 0
M  V30 4787 H 434.031 2.09859 -2.07468 0
M  V30 4788 H 434.112 0.390169 -2.52807 0
M  V30 4789 H 433.756 1.04449 -4.97044 0
M  V30 4790 H 433.686 2.75753 -4.48629 0
M  V30 4791 H 436.177 1.62372 -3.41239 0
M  V30 4792 H 436.49 2.74497 -7.22406 0
M  V30 4793 H 434.835 2.47513 -6.49432 0
M  V30 4794 H 438.026 1.93488 -4.2624 0
M  V30 4795 H 438.199 2.44639 -6.00047 0
M  V30 4796 N 431.605 1.3629 0.791371 0
M  V30 4797 C 432.568 1.30309 1.88553 0
M  V30 4798 C 433.568 0.211204 1.59407 0
M  V30 4799 O 434.758 0.465865 1.67855 0
M  V30 4800 C 431.89 1.01956 3.25297 0
M  V30 4801 H 433.083 2.27614 1.95273 0
M  V30 4802 H 430.636 1.21035 0.988953 0
M  V30 4803 H 431.371 0.050998 3.2426 0
M  V30 4804 H 431.156 1.80968 3.4784 0
M  V30 4805 H 432.646 1.0037 4.05359 0
M  V30 4806 N 433.083 -1.0153 1.20538 0
M  V30 4807 C 433.993 -2.13557 0.971113 0
M  V30 4808 C 435.009 -1.73845 -0.0734366 0
M  V30 4809 O 436.185 -2.01075 0.114299 0
M  V30 4810 C 433.25 -3.42661 0.527639 0
M  V30 4811 C 432.311 -3.96608 1.64319 0
M  V30 4812 C 431.544 -5.1955 1.22078 0
M  V30 4813 O 431.767 -5.70329 0.0900198 0
M  V30 4814 O 430.701 -5.66681 2.02871 0
M  V30 4815 H 434.527 -2.3619 1.90913 0
M  V30 4816 H 432.112 -1.11946 0.989362 0
M  V30 4817 H 433.994 -4.20404 0.289621 0
M  V30 4818 H 432.669 -3.21441 -0.381779 0
M  V30 4819 H 431.576 -3.20139 1.93551 0
M  V30 4820 H 432.909 -4.22219 2.52966 0
M  V30 4821 N 434.561 -1.01147 -1.20859 0
M  V30 4822 C 435.791 -0.715872 -1.93801 0
M  V30 4823 C 436.199 0.726592 -1.74692 0
M  V30 4824 O 435.542 1.50397 -1.05482 0
M  V30 4825 C 435.604 -0.965269 -3.46299 0
M  V30 4826 C 435.268 -2.39584 -3.89164 0
M  V30 4827 C 436.265 -3.3764 -3.95342 0
M  V30 4828 C 433.95 -2.73522 -4.21297 0
M  V30 4829 C 435.944 -4.67698 -4.33056 0
M  V30 4830 C 433.631 -4.03794 -4.58687 0
M  V30 4831 C 434.629 -5.00693 -4.64538 0
M  V30 4832 O 434.317 -6.28635 -5.01072 0
M  V30 4833 H 434.049 -0.262524 -0.622942 0
M  V30 4834 H 436.603 -1.35413 -1.54443 0
M  V30 4835 H 434.833 -0.269847 -3.85757 0
M  V30 4836 H 436.522 -0.662051 -4.00464 0
M  V30 4837 H 437.288 -3.12757 -3.70686 0
M  V30 4838 H 433.167 -1.9879 -4.15937 0
M  V30 4839 H 436.711 -5.4333 -4.37537 0
M  V30 4840 H 432.608 -4.28459 -4.82797 0
M  V30 4841 H 433.376 -6.32847 -5.19083 0
M  V30 4842 N 436.039 1.36541 -0.78704 0
M  V30 4843 C 437.286 1.99304 -0.358341 0
M  V30 4844 C 437.614 1.62467 1.06933 0
M  V30 4845 O 436.869 0.870019 1.75297 0
M  V30 4846 C 437.168 3.54343 -0.466485 0
M  V30 4847 C 436.834 4.10993 -1.85461 0
M  V30 4848 C 435.496 4.26177 -2.23443 0
M  V30 4849 C 437.848 4.41895 -2.76366 0
M  V30 4850 C 435.176 4.69573 -3.51736 0
M  V30 4851 C 437.528 4.86722 -4.04084 0
M  V30 4852 C 436.192 5.00112 -4.42091 0
M  V30 4853 H 435.462 0.729306 -0.131126 0
M  V30 4854 H 438.109 1.63068 -1.00404 0
M  V30 4855 H 436.414 3.90918 0.262719 0
M  V30 4856 H 438.111 4.00833 -0.115854 0
M  V30 4857 H 434.701 3.99612 -1.54946 0
M  V30 4858 H 438.885 4.29735 -2.48277 0
M  V30 4859 H 434.141 4.78127 -3.81057 0
M  V30 4860 H 438.315 5.09598 -4.7464 0
M  V30 4861 H 435.942 5.33498 -5.41557 0
M  V30 4862 N 437.518 0.538854 1.48102 0
M  V30 4863 C 438.448 -0.207654 2.32575 0
M  V30 4864 C 439.429 -0.926559 1.4265 0
M  V30 4865 O 440.614 -0.91061 1.71527 0
M  V30 4866 C 437.744 -1.24957 3.24042 0
M  V30 4867 C 436.698 -0.648263 4.23062 0
M  V30 4868 C 436.024 -1.79348 5.03725 0
M  V30 4869 C 437.324 0.385897 5.20872 0
M  V30 4870 H 439.018 0.497534 2.95237 0
M  V30 4871 H 436.564 0.240715 1.41974 0
M  V30 4872 H 438.517 -1.77983 3.81969 0
M  V30 4873 H 437.241 -1.98446 2.59397 0
M  V30 4874 H 435.9 -0.139452 3.66335 0
M  V30 4875 H 435.548 -2.51696 4.35498 0
M  V30 4876 H 435.248 -1.39702 5.70751 0
M  V30 4877 H 436.772 -2.32735 5.64506 0
M  V30 4878 H 438.186 -0.057607 5.73271 0
M  V30 4879 H 436.583 0.700227 5.96001 0
M  V30 4880 H 437.653 1.28848 4.67468 0
M  V30 4881 N 438.996 -1.55193 0.274407 0
M  V30 4882 C 440.242 -1.99877 -0.343086 0
M  V30 4883 C 440.575 -1.16256 -1.55558 0
M  V30 4884 O 439.85 -0.232462 -1.93106 0
M  V30 4885 C 440.133 -3.52706 -0.725965 0
M  V30 4886 C 439.986 -4.47081 0.493818 0
M  V30 4887 C 441.305 -4.11422 -1.56268 0
M  V30 4888 H 438.424 -0.726625 -0.123229 0
M  V30 4889 H 441.066 -1.86136 0.38121 0
M  V30 4890 H 439.216 -3.64546 -1.34307 0
M  V30 4891 H 440.888 -4.47186 1.13237 0
M  V30 4892 H 439.131 -4.1877 1.13201 0
M  V30 4893 H 439.802 -5.51699 0.18217 0
M  V30 4894 H 442.278 -4.02855 -1.04151 0
M  V30 4895 H 441.154 -5.18568 -1.79939 0
M  V30 4896 H 441.415 -3.61607 -2.54348 0
M  V30 4897 N 440.474 -0.00167713 -1.576 0
M  V30 4898 C 441.404 0.988091 -2.11563 0
M  V30 4899 C 442.385 1.35736 -1.02517 0
M  V30 4900 O 443.57 1.44082 -1.30208 0
M  V30 4901 C 440.7 2.27941 -2.62031 0
M  V30 4902 C 439.654 2.0517 -3.75619 0
M  V30 4903 C 438.98 3.4033 -4.12407 0
M  V30 4904 C 440.28 1.41294 -5.02825 0
M  V30 4905 H 441.974 0.538771 -2.94513 0
M  V30 4906 H 439.52 0.257712 -1.41675 0
M  V30 4907 H 441.473 2.97539 -2.9841 0
M  V30 4908 H 440.197 2.74989 -1.76205 0
M  V30 4909 H 438.856 1.37998 -3.39635 0
M  V30 4910 H 438.504 3.85085 -3.23603 0
M  V30 4911 H 438.204 3.25909 -4.88935 0
M  V30 4912 H 439.728 4.1124 -4.51347 0
M  V30 4913 H 441.142 2.00851 -5.36965 0
M  V30 4914 H 439.539 1.37356 -5.84169 0
M  V30 4915 H 440.609 0.382362 -4.8339 0
M  V30 4916 N 441.952 1.55251 0.271103 0
M  V30 4917 C 442.915 1.87484 1.31842 0
M  V30 4918 C 443.915 0.749545 1.42262 0
M  V30 4919 O 445.105 1.01771 1.4138 0
M  V30 4920 C 442.237 2.0818 2.69951 0
M  V30 4921 H 443.43 2.81108 1.0449 0
M  V30 4922 H 440.983 1.47771 0.509258 0
M  V30 4923 H 441.718 1.16944 3.02481 0
M  V30 4924 H 441.503 2.90114 2.63774 0
M  V30 4925 H 442.993 2.34385 3.4562 0
M  V30 4926 N 443.43 -0.535701 1.48216 0
M  V30 4927 C 444.676 -1.29375 1.56173 0
M  V30 4928 C 445.009 -1.92804 0.232429 0
M  V30 4929 O 444.284 -1.78992 -0.761048 0
M  V30 4930 C 444.567 -2.38747 2.69577 0
M  V30 4931 C 444.42 -1.80046 4.12193 0
M  V30 4932 C 445.739 -3.40551 2.78771 0
M  V30 4933 H 442.858 -0.469027 0.568491 0
M  V30 4934 H 445.5 -0.597358 1.80365 0
M  V30 4935 H 443.65 -2.98147 2.4908 0
M  V30 4936 H 445.322 -1.24742 4.44114 0
M  V30 4937 H 443.565 -1.10609 4.19462 0
M  V30 4938 H 444.236 -2.59212 4.87353 0
M  V30 4939 H 446.712 -2.91099 2.97322 0
M  V30 4940 H 445.588 -4.1448 3.59857 0
M  V30 4941 H 445.849 -4.00746 1.86696 0
M  V30 4942 N 444.908 -1.36708 -0.784132 0
M  V30 4943 C 445.838 -1.34153 -1.91116 0
M  V30 4944 C 446.819 -0.212121 -1.68772 0
M  V30 4945 O 448.004 -0.410581 -1.8981 0
M  V30 4946 C 445.134 -1.13535 -3.28218 0
M  V30 4947 C 444.088 -2.23356 -3.65097 0
M  V30 4948 C 443.414 -1.87875 -5.00607 0
M  V30 4949 C 444.714 -3.65473 -3.73131 0
M  V30 4950 H 446.408 -2.28459 -1.93512 0
M  V30 4951 H 443.954 -1.09973 -0.929618 0
M  V30 4952 H 445.907 -1.10381 -4.06687 0
M  V30 4953 H 444.631 -0.156804 -3.26223 0
M  V30 4954 H 443.29 -2.25645 -2.88929 0
M  V30 4955 H 442.938 -0.885814 -4.95139 0
M  V30 4956 H 442.638 -2.61406 -5.26252 0
M  V30 4957 H 444.162 -1.86286 -5.81489 0
M  V30 4958 H 445.576 -3.65382 -4.41779 0
M  V30 4959 H 443.973 -4.37953 -4.10265 0
M  V30 4960 H 445.043 -3.99995 -2.74102 0
M  V30 4961 N 446.386 1.0089 -1.21074 0
M  V30 4962 C 447.334 2.11707 -0.963476 0
M  V30 4963 C 448.328 1.69172 0.0879032 0
M  V30 4964 O 449.534 1.79889 -0.0631415 0
M  V30 4965 H 445.909 0.692026 -0.294287 0
M  V30 4966 H 447.88 2.29743 -1.90422 0
M  V30 4967 C 446.629 3.43473 -0.540509 0
M  V30 4968 H 445.952 3.76634 -1.34114 0
M  V30 4969 H 447.392 4.22044 -0.406777 0
M  V30 4970 C 445.851 3.2849 0.748079 0
M  V30 4971 O 446.381 3.58883 1.8046 0
M  V30 4972 N 444.587 2.81715 0.713081 0
M  V30 4973 H 444.134 2.5718 -0.146973 0
M  V30 4974 H 444.092 2.72071 1.57558 0
M  V30 4975 N 447.864 1.01787 1.20321 0
M  V30 4976 C 449.089 0.727009 1.9424 0
M  V30 4977 C 449.514 -0.706179 1.74341 0
M  V30 4978 O 448.872 -1.48609 1.03852 0
M  V30 4979 C 448.92 1.06958 3.44372 0
M  V30 4980 O 448.024 0.181983 4.11998 0
M  V30 4981 H 447.365 0.269626 0.606793 0
M  V30 4982 H 449.895 1.36158 1.52716 0
M  V30 4983 H 449.905 1.02182 3.94997 0
M  V30 4984 H 448.58 2.11378 3.58179 0
M  V30 4985 H 447.157 0.287378 3.71791 0
M  V30 4986 N 449.342 -1.36122 0.79427 0
M  V30 4987 C 450.59 -1.98718 0.368177 0
M  V30 4988 C 450.911 -1.63345 -1.06506 0
M  V30 4989 O 450.181 -0.909825 -1.73491 0
M  V30 4990 H 448.761 -0.735038 0.133146 0
M  V30 4991 H 451.423 -1.66239 1.01739 0
M  V30 4992 H 450.519 -3.08633 0.463923 0
M  V30 4993 N 450.82 -0.546701 -1.47814 0
M  V30 4994 C 452.048 -0.0232857 -2.06887 0
M  V30 4995 C 452.463 1.26571 -1.4009 0
M  V30 4996 O 451.82 1.7569 -0.493906 0
M  V30 4997 C 451.871 0.186975 -3.61016 0
M  V30 4998 O 451.592 -1.05097 -4.25307 0
M  V30 4999 C 453.093 0.748872 -4.36929 0
M  V30 5000 H 450.313 -0.0410763 -0.669742 0
M  V30 5001 H 452.857 -0.757117 -1.89968 0
M  V30 5002 H 451.012 0.870903 -3.77484 0
M  V30 5003 H 451.426 -0.842121 -5.17695 0
M  V30 5004 H 452.9 0.845334 -5.45489 0
M  V30 5005 H 453.377 1.75772 -4.02493 0
M  V30 5006 H 453.983 0.100979 -4.2518 0
M  V30 5007 N 452.299 1.55045 -0.282633 0
M  V30 5008 C 453.247 2.24254 0.617478 0
M  V30 5009 C 454.241 1.24215 1.15183 0
M  V30 5010 O 455.447 1.42123 1.10459 0
M  V30 5011 H 451.822 0.719801 0.217693 0
M  V30 5012 H 453.793 2.98398 0.0110076 0
M  V30 5013 C 452.542 2.98281 1.78672 0
M  V30 5014 H 451.865 3.75053 1.38475 0
M  V30 5015 H 453.305 3.50017 2.393 0
M  V30 5016 C 451.764 2.04184 2.67975 0
M  V30 5017 O 452.294 1.59792 3.6855 0
M  V30 5018 N 450.5 1.70526 2.35307 0
M  V30 5019 H 450.047 2.06821 1.53567 0
M  V30 5020 H 450.005 1.07839 2.95327 0
M  V30 5021 N 453.777 0.010035 1.57597 0
M  V30 5022 C 455.188 -0.531426 1.78977 0
M  V30 5023 C 455.539 -1.73375 0.918454 0
M  V30 5024 O 454.664 -2.16047 0.123635 0
M  V30 5025 C 455.259 -0.97086 3.24592 0
M  V30 5026 C 453.818 -1.45756 3.47033 0
M  V30 5027 C 452.965 -0.413384 2.74201 0
M  V30 5028 H 455.916 0.236166 1.56933 0
M  V30 5029 H 455.937 -1.83633 3.33255 0
M  V30 5030 H 455.449 -0.0955893 3.87982 0
M  V30 5031 H 453.55 -2.35339 2.88871 0
M  V30 5032 H 453.663 -1.4781 4.55729 0
M  V30 5033 H 452.027 -0.877266 2.39115 0
M  V30 5034 H 452.81 0.453092 3.40297 0
M  V30 5035 N 455.255 -1.55392 -0.262866 0
M  V30 5036 C 456.504 -1.75679 -0.990943 0
M  V30 5037 C 456.817 -0.57097 -1.87081 0
M  V30 5038 O 458.023 -0.656486 -2.63444 0
M  V30 5039 C 456.479 -3.10964 -1.81188 0
M  V30 5040 C 456.087 -4.37146 -0.980188 0
M  V30 5041 C 457.831 -3.40597 -2.53365 0
M  V30 5042 C 455.738 -5.63466 -1.7961 0
M  V30 5043 H 454.668 -0.654868 -0.373716 0
M  V30 5044 H 457.319 -1.81841 -0.246203 0
M  V30 5045 H 455.701 -2.98867 -2.59797 0
M  V30 5046 H 456.875 -4.60187 -0.237558 0
M  V30 5047 H 455.19 -4.14731 -0.372497 0
M  V30 5048 H 457.787 -4.32186 -3.14833 0
M  V30 5049 H 458.13 -2.6119 -3.24169 0
M  V30 5050 H 458.663 -3.53838 -1.81779 0
M  V30 5051 H 455.402 -6.4565 -1.13209 0
M  V30 5052 H 454.922 -5.44552 -2.51443 0
M  V30 5053 H 456.601 -6.02139 -2.36723 0
M  V30 5054 N 456.733 0.527833 -1.48498 0
M  V30 5055 C 457.982 1.28003 -1.55878 0
M  V30 5056 C 458.295 1.9414 -0.238577 0
M  V30 5057 O 459.501 2.7083 -0.190643 0
M  V30 5058 C 457.957 2.32272 -2.74914 0
M  V30 5059 C 457.565 1.72196 -4.13585 0
M  V30 5060 C 459.309 3.08488 -2.91608 0
M  V30 5061 C 457.216 2.74417 -5.23879 0
M  V30 5062 H 456.146 0.481413 -0.580308 0
M  V30 5063 H 458.797 0.557195 -1.74836 0
M  V30 5064 H 457.179 3.07601 -2.49395 0
M  V30 5065 H 458.353 1.03041 -4.49132 0
M  V30 5066 H 456.668 1.08464 -4.02025 0
M  V30 5067 H 459.265 3.84879 -3.71177 0
M  V30 5068 H 459.608 3.64481 -2.01145 0
M  V30 5069 H 460.141 2.40274 -3.17038 0
M  V30 5070 H 456.88 2.23242 -6.16314 0
M  V30 5071 H 456.4 3.41893 -4.92818 0
M  V30 5072 H 458.079 3.37362 -5.52083 0
M  V30 5073 N 458.211 1.37122 0.776871 0
M  V30 5074 C 459.441 1.35034 1.56363 0
M  V30 5075 C 459.849 -0.0674681 1.8908 0
M  V30 5076 O 459.192 -1.03826 1.51545 0
M  V30 5077 C 459.254 2.11894 2.90415 0
M  V30 5078 C 458.918 3.60897 2.80362 0
M  V30 5079 C 459.915 4.54887 2.51742 0
M  V30 5080 C 457.6 4.03951 2.98545 0
M  V30 5081 C 459.594 5.89909 2.41426 0
M  V30 5082 C 457.281 5.3906 2.87849 0
M  V30 5083 C 458.279 6.31852 2.5933 0
M  V30 5084 O 457.967 7.64479 2.48651 0
M  V30 5085 H 457.699 0.464402 0.49123 0
M  V30 5086 H 460.253 1.80992 0.971127 0
M  V30 5087 H 458.483 1.60618 3.51765 0
M  V30 5088 H 460.172 2.02505 3.51776 0
M  V30 5089 H 460.938 4.22934 2.37385 0
M  V30 5090 H 456.817 3.3209 3.19746 0
M  V30 5091 H 460.361 6.62304 2.19086 0
M  V30 5092 H 456.258 5.70617 3.01773 0
M  V30 5093 H 457.026 7.74742 2.64039 0
M  V30 5094 N 459.689 -1.00246 1.21608 0
M  V30 5095 C 460.917 -1.77631 1.06089 0
M  V30 5096 C 461.332 -1.84746 -0.38916 0
M  V30 5097 O 460.689 -1.31068 -1.26994 0
M  V30 5098 C 460.74 -3.21415 1.65453 0
M  V30 5099 O 460.461 -3.14703 3.04785 0
M  V30 5100 C 461.962 -4.15289 1.55079 0
M  V30 5101 H 459.182 -0.558162 0.37242 0
M  V30 5102 H 461.726 -1.26093 1.60999 0
M  V30 5103 H 459.881 -3.70053 1.14629 0
M  V30 5104 H 460.295 -4.05056 3.33212 0
M  V30 5105 H 461.769 -5.13965 2.01355 0
M  V30 5106 H 462.246 -4.36279 0.505665 0
M  V30 5107 H 462.852 -3.72543 2.05163 0
M  V30 5108 N 461.167 -1.02423 -1.1978 0
M  V30 5109 C 462.097 -0.62157 -2.25075 0
M  V30 5110 C 463.078 0.367148 -1.6609 0
M  V30 5111 O 464.263 0.250892 -1.92573 0
M  V30 5112 C 461.393 0.0331826 -3.47284 0
M  V30 5113 C 460.347 -0.877323 -4.18912 0
M  V30 5114 C 459.673 -0.0879296 -5.34628 0
M  V30 5115 C 460.973 -2.18892 -4.74219 0
M  V30 5116 H 462.667 -1.50179 -2.59011 0
M  V30 5117 H 460.213 -0.723547 -1.24502 0
M  V30 5118 H 462.166 0.326488 -4.20133 0
M  V30 5119 H 460.89 0.948164 -3.12534 0
M  V30 5120 H 459.549 -1.15475 -3.47938 0
M  V30 5121 H 459.197 0.828941 -4.96123 0
M  V30 5122 H 458.897 -0.694359 -5.83483 0
M  V30 5123 H 460.421 0.198743 -6.10276 0
M  V30 5124 H 461.835 -1.95746 -5.38847 0
M  V30 5125 H 460.232 -2.74686 -5.33542 0
M  V30 5126 H 461.302 -2.84674 -3.92541 0
M  V30 5127 N 462.645 1.35699 -0.801477 0
M  V30 5128 C 463.873 2.03157 -0.391768 0
M  V30 5129 C 464.288 1.60412 0.995668 0
M  V30 5130 O 463.645 0.799228 1.64069 0
M  V30 5131 C 463.696 3.58566 -0.459671 0
M  V30 5132 O 463.417 3.99756 -1.7924 0
M  V30 5133 C 464.918 4.4328 -0.0421205 0
M  V30 5134 H 462.138 0.651688 -0.159825 0
M  V30 5135 H 464.682 1.73426 -1.08368 0
M  V30 5136 H 462.837 3.86963 0.183939 0
M  V30 5137 H 463.251 4.94387 -1.75162 0
M  V30 5138 H 464.725 5.51821 -0.140754 0
M  V30 5139 H 465.202 4.27383 1.01196 0
M  V30 5140 H 465.808 4.20168 -0.658687 0
M  V30 5141 N 464.123 0.554532 1.47522 0
M  V30 5142 C 465.071 -0.207765 2.3167 0
M  V30 5143 C 466.065 -0.911914 1.4276 0
M  V30 5144 O 467.271 -0.833504 1.59539 0
M  V30 5145 H 463.646 -0.0858726 0.747081 0
M  V30 5146 H 465.617 0.521178 2.93813 0
M  V30 5147 C 464.366 -1.2263 3.25357 0
M  V30 5148 H 463.689 -0.693887 3.93732 0
M  V30 5149 H 465.129 -1.73062 3.87073 0
M  V30 5150 C 463.588 -2.27278 2.4869 0
M  V30 5151 O 464.118 -3.34156 2.22941 0
M  V30 5152 N 462.324 -2.01134 2.09746 0
M  V30 5153 H 461.871 -1.14232 2.30887 0
M  V30 5154 H 461.829 -2.71369 1.58765 0
M  V30 5155 N 465.601 -1.54893 0.290851 0
M  V30 5156 C 466.548 -2.23138 -0.58974 0
M  V30 5157 C 467.518 -1.21036 -1.13752 0
M  V30 5158 O 468.703 -1.49626 -1.18392 0
M  V30 5159 C 465.843 -2.96811 -1.76061 0
M  V30 5160 C 464.956 -4.13665 -1.24519 0
M  V30 5161 C 464.091 -4.74944 -2.3791 0
M  V30 5162 C 463.13 -5.83963 -1.83451 0
M  V30 5163 N 462.267 -6.39239 -2.90376 0
M  V30 5164 H 467.107 -2.98 -0.00114915 0
M  V30 5165 H 464.644 -1.47096 0.0112006 0
M  V30 5166 H 466.602 -3.37751 -2.44909 0
M  V30 5167 H 465.232 -2.24344 -2.32098 0
M  V30 5168 H 464.284 -3.77737 -0.449288 0
M  V30 5169 H 465.596 -4.92238 -0.806424 0
M  V30 5170 H 464.75 -5.18684 -3.14724 0
M  V30 5171 H 463.489 -3.95682 -2.85109 0
M  V30 5172 H 462.494 -5.39657 -1.05122 0
M  V30 5173 H 463.719 -6.65103 -1.37169 0
M  V30 5174 H 461.665 -5.62864 -3.36927 0
M  V30 5175 H 461.582 -7.13129 -2.50965 0
M  V30 5176 H 462.85 -6.87637 -3.67118 0
M  V30 5177 N 467.08 -0.0183926 -1.57589 0
M  V30 5178 C 467.99 0.982943 -2.13015 0
M  V30 5179 C 469.006 1.36443 -1.07979 0
M  V30 5180 O 470.182 1.44802 -1.3998 0
M  V30 5181 C 467.247 2.25024 -2.63752 0
M  V30 5182 C 466.308 1.93018 -3.83461 0
M  V30 5183 C 465.541 3.13706 -4.31769 0
M  V30 5184 O 465.764 4.2601 -3.79305 0
M  V30 5185 O 464.698 2.96629 -5.23732 0
M  V30 5186 H 468.524 0.541709 -2.9883 0
M  V30 5187 H 466.109 0.201565 -1.48034 0
M  V30 5188 H 467.991 2.99441 -2.96502 0
M  V30 5189 H 466.666 2.68349 -1.81026 0
M  V30 5190 H 465.573 1.16019 -3.55655 0
M  V30 5191 H 466.906 1.54516 -4.67317 0
M  V30 5192 N 468.558 1.5553 0.254621 0
M  V30 5193 C 469.491 1.84624 1.34124 0
M  V30 5194 C 470.469 0.700693 1.46728 0
M  V30 5195 O 471.653 0.94564 1.63064 0
M  V30 5196 C 468.78 2.02412 2.71564 0
M  V30 5197 C 467.826 3.25028 2.7615 0
M  V30 5198 S 468.659 4.81893 2.33538 0
M  V30 5199 C 469.815 5.02677 3.72917 0
M  V30 5200 H 470.048 2.76501 1.09245 0
M  V30 5201 H 467.581 1.47537 0.455211 0
M  V30 5202 H 469.539 2.13345 3.50705 0
M  V30 5203 H 468.2 1.11391 2.93685 0
M  V30 5204 H 467.393 3.34418 3.77069 0
M  V30 5205 H 466.995 3.12781 2.05046 0
M  V30 5206 H 469.287 4.89546 4.68349 0
M  V30 5207 H 470.23 6.0468 3.68467 0
M  V30 5208 H 470.638 4.30561 3.65072 0
M  V30 5209 N 470.036 -0.519951 1.48776 0
M  V30 5210 C 471.452 -0.849418 1.35119 0
M  V30 5211 C 471.652 -1.98077 0.36982 0
M  V30 5212 O 470.708 -2.51664 -0.205359 0
M  V30 5213 C 472.021 -1.20748 2.75391 0
M  V30 5214 C 473.569 -1.31679 2.83954 0
M  V30 5215 C 474.044 -1.70824 4.24951 0
M  V30 5216 N 475.535 -1.77908 4.27672 0
M  V30 5217 C 476.27 -2.09603 5.33717 0
M  V30 5218 N 475.766 -2.39652 6.5003 0
M  V30 5219 N 477.559 -2.10694 5.21119 0
M  V30 5220 H 469.71 0.226377 2.1119 0
M  V30 5221 H 471.973 0.0386519 0.947212 0
M  V30 5222 H 471.679 -0.449703 3.48813 0
M  V30 5223 H 471.553 -2.15534 3.09556 0
M  V30 5224 H 473.94 -2.06532 2.10781 0
M  V30 5225 H 474.021 -0.3499 2.53396 0
M  V30 5226 H 473.665 -0.965282 4.98643 0
M  V30 5227 H 473.595 -2.6858 4.52959 0
M  V30 5228 H 476.086 -1.56923 3.43779 0
M  V30 5229 H 476.399 -2.6297 7.26682 0
M  V30 5230 H 474.744 -2.37149 6.53288 0
M  V30 5231 H 477.935 -1.86682 4.29264 0
M  V30 5232 H 478.108 -2.35062 6.03863 0
M  V30 5233 N 471.514 -1.37532 -0.769588 0
M  V30 5234 C 472.93 -1.18379 -1.07045 0
M  V30 5235 C 473.13 -0.0214312 -2.01489 0
M  V30 5236 O 472.186 0.637809 -2.44312 0
M  V30 5237 C 473.499 -2.50338 -1.66588 0
M  V30 5238 C 475.047 -2.56879 -1.78835 0
M  V30 5239 C 475.522 -3.88974 -2.41792 0
M  V30 5240 N 477.013 -3.90428 -2.4924 0
M  V30 5241 C 477.748 -4.89388 -2.98809 0
M  V30 5242 N 477.244 -5.98745 -3.48535 0
M  V30 5243 N 479.037 -4.76791 -2.97703 0
M  V30 5244 H 471.188 -2.11921 -0.142541 0
M  V30 5245 H 473.451 -0.939608 -0.125863 0
M  V30 5246 H 473.157 -3.35767 -1.0466 0
M  V30 5247 H 473.031 -2.67583 -2.65856 0
M  V30 5248 H 475.418 -1.71856 -2.39895 0
M  V30 5249 H 475.499 -2.43516 -0.783166 0
M  V30 5250 H 475.143 -4.74412 -1.81371 0
M  V30 5251 H 475.073 -3.99641 -3.4292 0
M  V30 5252 H 477.564 -3.11433 -2.14052 0
M  V30 5253 H 477.877 -6.70205 -3.84767 0
M  V30 5254 H 476.222 -6.02387 -3.46634 0
M  V30 5255 H 479.413 -3.90478 -2.58157 0
M  V30 5256 H 479.586 -5.54069 -3.36024 0
M  V30 5257 N 472.992 0.995999 -1.22138 0
M  V30 5258 C 473.955 2.06711 -0.990109 0
M  V30 5259 C 474.955 1.60744 0.0422978 0
M  V30 5260 O 476.145 1.73095 -0.195895 0
M  V30 5261 C 473.277 3.37288 -0.49491 0
M  V30 5262 H 474.47 2.28661 -1.94047 0
M  V30 5263 H 472.023 1.16711 -1.03963 0
M  V30 5264 H 472.758 3.21022 0.459948 0
M  V30 5265 H 472.543 3.71986 -1.23971 0
M  V30 5266 H 474.033 4.16103 -0.353253 0
M  V30 5267 N 474.47 1.03057 1.19235 0
M  V30 5268 C 475.717 0.728019 1.88961 0
M  V30 5269 C 476.045 -0.743515 1.79728 0
M  V30 5270 O 475.3 -1.55729 1.1852 0
M  V30 5271 C 475.599 1.1268 3.39172 0
M  V30 5272 C 475.265 2.5969 3.68608 0
M  V30 5273 C 473.927 2.99854 3.76352 0
M  V30 5274 C 476.279 3.54793 3.81801 0
M  V30 5275 C 473.607 4.34031 3.94758 0
M  V30 5276 C 475.959 4.88675 4.0172 0
M  V30 5277 C 474.623 5.28526 4.07697 0
M  V30 5278 H 473.893 0.266401 0.691456 0
M  V30 5279 H 476.54 1.29373 1.41191 0
M  V30 5280 H 474.845 0.479722 3.88852 0
M  V30 5281 H 476.542 0.870203 3.91444 0
M  V30 5282 H 473.132 2.27575 3.63191 0
M  V30 5283 H 477.316 3.24914 3.7516 0
M  V30 5284 H 472.572 4.6444 3.97625 0
M  V30 5285 H 476.746 5.6228 4.1087 0
M  V30 5286 H 474.373 6.32506 4.21712 0
M  V30 5287 N 475.948 -1.35272 0.808662 0
M  V30 5288 C 477.197 -1.97963 0.386483 0
M  V30 5289 C 477.51 -1.64866 -1.05255 0
M  V30 5290 O 478.716 -2.20937 -1.57794 0
M  V30 5291 C 477.172 -3.54162 0.640096 0
M  V30 5292 C 476.78 -3.96166 2.0918 0
M  V30 5293 C 478.524 -4.23553 0.283376 0
M  V30 5294 C 476.431 -5.4522 2.29106 0
M  V30 5295 H 475.361 -0.740742 0.140774 0
M  V30 5296 H 478.012 -1.5431 0.993012 0
M  V30 5297 H 476.394 -3.95983 -0.0364117 0
M  V30 5298 H 477.568 -3.65491 2.80629 0
M  V30 5299 H 475.883 -3.3967 2.40859 0
M  V30 5300 H 478.48 -5.33124 0.410273 0
M  V30 5301 H 478.823 -4.09105 -0.770659 0
M  V30 5302 H 479.356 -3.8716 0.913884 0
M  V30 5303 H 476.095 -5.64638 3.32962 0
M  V30 5304 H 475.615 -5.77457 1.62184 0
M  V30 5305 H 477.294 -6.1171 2.1076 0
M  V30 5306 N 477.426 -0.562348 -1.47226 0
M  V30 5307 C 478.842 -0.222492 -1.58042 0
M  V30 5308 C 479.042 1.27505 -1.56028 0
M  V30 5309 O 478.098 2.05555 -1.46641 0
M  V30 5310 C 479.411 -0.853694 -2.88327 0
M  V30 5311 C 480.959 -0.825397 -3.01921 0
M  V30 5312 C 481.434 -1.43576 -4.34914 0
M  V30 5313 N 482.925 -1.39918 -4.41562 0
M  V30 5314 C 483.66 -1.84103 -5.43041 0
M  V30 5315 N 483.156 -2.36167 -6.51304 0
M  V30 5316 N 484.949 -1.75142 -5.34118 0
M  V30 5317 H 477.1 -1.53525 -1.46778 0
M  V30 5318 H 479.363 -0.640527 -0.698877 0
M  V30 5319 H 479.069 -1.90635 -2.95552 0
M  V30 5320 H 478.943 -0.34977 -3.75575 0
M  V30 5321 H 481.33 0.218583 -2.94289 0
M  V30 5322 H 481.411 -1.36713 -2.16202 0
M  V30 5323 H 481.055 -2.47884 -4.43301 0
M  V30 5324 H 480.985 -0.869427 -5.19373 0
M  V30 5325 H 483.476 -1.0184 -3.63919 0
M  V30 5326 H 483.789 -2.67793 -7.24919 0
M  V30 5327 H 482.134 -2.40181 -6.52179 0
M  V30 5328 H 485.325 -1.34241 -4.48439 0
M  V30 5329 H 485.498 -2.09895 -6.13065 0
M  V30 5330 N 478.904 1.54736 -0.299062 0
M  V30 5331 C 480.153 1.99279 0.311549 0
M  V30 5332 C 480.466 1.19107 1.55154 0
M  V30 5333 O 481.672 1.53908 2.23662 0
M  V30 5334 C 480.128 3.54768 0.605632 0
M  V30 5335 C 479.736 4.43746 -0.615914 0
M  V30 5336 C 481.48 4.07841 1.17754 0
M  V30 5337 C 479.387 5.90663 -0.29509 0
M  V30 5338 H 478.317 0.744359 0.120187 0
M  V30 5339 H 480.968 1.78919 -0.407464 0
M  V30 5340 H 479.35 3.71021 1.38419 0
M  V30 5341 H 480.524 4.39267 -1.39218 0
M  V30 5342 H 478.839 4.01434 -1.10633 0
M  V30 5343 H 481.436 5.15174 1.43179 0
M  V30 5344 H 481.779 3.58324 2.11918 0
M  V30 5345 H 482.312 3.95123 0.460739 0
M  V30 5346 H 479.051 6.44325 -1.20524 0
M  V30 5347 H 478.571 5.98155 0.44394 0
M  V30 5348 H 480.25 6.46916 0.104048 0
M  V30 5349 N 480.382 0.0267497 1.57577 0
M  V30 5350 C 481.315 -0.99059 2.05579 0
M  V30 5351 C 482.293 -1.31884 0.951065 0
M  V30 5352 O 483.477 -1.43592 1.22121 0
M  V30 5353 C 480.604 -2.31125 2.47586 0
M  V30 5354 C 479.65 -2.13777 3.69055 0
M  V30 5355 S 480.483 -1.4388 5.15809 0
M  V30 5356 C 481.639 -2.77321 5.6111 0
M  V30 5357 H 481.872 -0.581976 2.91548 0
M  V30 5358 H 479.405 -0.184876 1.53289 0
M  V30 5359 H 481.363 -3.07049 2.72454 0
M  V30 5360 H 480.024 -2.6912 1.61967 0
M  V30 5361 H 479.217 -3.11405 3.96287 0
M  V30 5362 H 478.819 -1.45996 3.44327 0
M  V30 5363 H 481.111 -3.73565 5.65204 0
M  V30 5364 H 482.054 -2.54756 6.60685 0
M  V30 5365 H 482.462 -2.82459 4.88751 0
M  V30 5366 N 481.861 -1.55662 -0.24637 0
M  V30 5367 C 483.086 -1.81914 -0.996093 0
M  V30 5368 C 483.511 -0.603875 -1.78143 0
M  V30 5369 O 482.869 0.447091 -1.75701 0
M  V30 5370 C 482.917 -3.05908 -1.90925 0
M  V30 5371 O 482.021 -2.82861 -3.00105 0
M  V30 5372 H 481.362 -0.600481 -0.283406 0
M  V30 5373 H 483.892 -2.02848 -0.267199 0
M  V30 5374 H 483.902 -3.35356 -2.3238 0
M  V30 5375 H 482.577 -3.93999 -1.33183 0
M  V30 5376 H 481.154 -2.64583 -2.62775 0
M  V30 5377 N 483.339 0.512053 -1.4905 0
M  V30 5378 C 484.579 1.27715 -1.59588 0
M  V30 5379 C 484.943 1.90071 -0.271502 0
M  V30 5380 O 486.144 2.67616 -0.251987 0
M  V30 5381 C 484.415 2.32399 -2.71524 0
M  V30 5382 S 485.974 3.18396 -3.01943 0
M  V30 5383 H 482.792 0.43419 -0.563027 0
M  V30 5384 H 485.394 0.581315 -1.86657 0
M  V30 5385 H 484.098 1.85101 -3.66287 0
M  V30 5386 H 483.629 3.06667 -2.46412 0
M  V30 5387 H 485.644 4.32842 -2.42616 0
M  V30 5388 N 484.817 1.37938 0.762283 0
M  V30 5389 C 486.057 1.35076 1.53407 0
M  V30 5390 C 486.421 -0.061546 1.91901 0
M  V30 5391 O 487.622 -0.214973 2.67939 0
M  V30 5392 C 485.893 2.27206 2.75884 0
M  V30 5393 S 487.452 2.42283 3.65848 0
M  V30 5394 H 484.27 0.479387 0.52508 0
M  V30 5395 H 486.872 1.7378 0.895586 0
M  V30 5396 H 485.576 3.28724 2.457 0
M  V30 5397 H 485.107 1.8962 3.44685 0
M  V30 5398 H 487.122 1.64044 4.68299 0
M  V30 5399 N 486.295 -0.989507 1.22664 0
M  V30 5400 C 487.242 -2.08024 0.999733 0
M  V30 5401 C 488.212 -1.65909 -0.0797047 0
M  V30 5402 O 489.397 -1.90669 0.0705715 0
M  V30 5403 C 486.537 -3.40067 0.587234 0
M  V30 5404 C 485.65 -3.95505 1.73781 0
M  V30 5405 C 484.785 -5.15722 1.27297 0
M  V30 5406 C 483.824 -5.63305 2.39488 0
M  V30 5407 N 482.961 -6.74758 1.94026 0
M  V30 5408 H 487.801 -2.26768 1.9334 0
M  V30 5409 H 485.338 -1.11171 0.963297 0
M  V30 5410 H 487.296 -4.15899 0.329227 0
M  V30 5411 H 485.926 -3.21314 -0.309426 0
M  V30 5412 H 484.978 -3.16513 2.11006 0
M  V30 5413 H 486.29 -4.26797 2.58158 0
M  V30 5414 H 485.444 -5.98854 0.972546 0
M  V30 5415 H 484.183 -4.86061 0.399445 0
M  V30 5416 H 483.188 -4.78759 2.70315 0
M  V30 5417 H 484.413 -5.94988 3.27362 0
M  V30 5418 H 482.359 -6.46874 1.09041 0
M  V30 5419 H 482.276 -7.05386 2.71968 0
M  V30 5420 H 483.544 -7.61387 1.67062 0
M  V30 5421 N 487.773 -1.03688 -1.18687 0
M  V30 5422 C 489.013 -0.746858 -1.90267 0
M  V30 5423 C 489.377 0.712075 -1.78307 0
M  V30 5424 O 490.578 1.11553 -2.44559 0
M  V30 5425 C 488.849 -1.19543 -3.36815 0
M  V30 5426 S 490.408 -1.03047 -4.26529 0
M  V30 5427 H 487.226 -0.271663 -0.657054 0
M  V30 5428 H 489.828 -1.32838 -1.43437 0
M  V30 5429 H 488.532 -2.2527 -3.43047 0
M  V30 5430 H 488.063 -0.607533 -3.88681 0
M  V30 5431 H 490.078 0.0543232 -4.9617 0
M  V30 5432 N 489.251 1.34841 -0.815825 0
M  V30 5433 C 490.662 1.80937 -0.46029 0
M  V30 5434 C 491.013 1.67685 1.01863 0
M  V30 5435 O 490.138 1.21277 1.79223 0
M  V30 5436 C 490.733 3.28509 -0.828708 0
M  V30 5437 C 489.292 3.72712 -0.525644 0
M  V30 5438 C 488.439 2.56676 -1.04941 0
M  V30 5439 H 491.39 1.22688 -1.00664 0
M  V30 5440 H 491.411 3.80279 -0.129757 0
M  V30 5441 H 490.923 3.38122 -1.90513 0
M  V30 5442 H 489.024 3.68642 0.541666 0
M  V30 5443 H 489.137 4.67119 -1.06474 0
M  V30 5444 H 487.501 2.50302 -0.471286 0
M  V30 5445 H 488.284 2.69063 -2.13214 0
M  V30 5446 N 490.729 0.570148 1.46925 0
M  V30 5447 C 491.954 0.0542592 2.07329 0
M  V30 5448 C 492.379 -1.23582 1.41806 0
M  V30 5449 O 491.737 -1.74341 0.497479 0
M  V30 5450 C 491.785 -0.111175 3.60429 0
M  V30 5451 O 490.889 -1.17071 3.95434 0
M  V30 5452 H 490.23 0.0571425 0.661537 0
M  V30 5453 H 492.76 0.789516 1.88753 0
M  V30 5454 H 492.77 -0.321315 4.06733 0
M  V30 5455 H 491.445 0.831012 4.07513 0
M  V30 5456 H 490.022 -0.940029 3.60857 0
M  V30 5457 N 492.207 -1.54576 0.307264 0
M  V30 5458 C 493.455 -1.99867 -0.299574 0
M  V30 5459 C 493.776 -1.19714 -1.53927 0
M  V30 5460 O 493.046 -0.29472 -1.9367 0
M  V30 5461 H 491.626 -0.738299 -0.113683 0
M  V30 5462 H 494.288 -1.9032 0.420042 0
M  V30 5463 H 493.384 -3.06901 -0.567283 0
M  V30 5464 N 493.685 -0.035106 -1.57561 0
M  V30 5465 C 494.962 0.681212 -1.83354 0
M  V30 5466 C 495.342 1.89986 -0.920252 0
M  V30 5467 O 494.69 2.28489 0.0226815 0
M  V30 5468 C 494.9 1.05376 -3.32712 0
M  V30 5469 C 496.248 1.44286 -3.99333 0
M  V30 5470 O 497.272 1.14656 -3.37242 0
M  V30 5471 O 496.131 1.99518 -5.08778 0
M  V30 5472 H 493.225 0.334741 -0.756226 0
M  V30 5473 H 495.771 -0.0632448 -1.69582 0
M  V30 5474 H 494.543 0.186668 -3.90854 0
M  V30 5475 H 494.166 1.85619 -3.51613 0
M  V30 5476 N 495.163 1.55791 0.238111 0
M  V30 5477 C 496.388 1.8244 0.986432 0
M  V30 5478 C 496.813 0.613314 1.7782 0
M  V30 5479 O 496.171 -0.437767 1.75935 0
M  V30 5480 C 496.219 3.06917 1.893 0
M  V30 5481 O 495.323 2.84449 2.98601 0
M  V30 5482 H 494.664 0.601975 0.280218 0
M  V30 5483 H 497.194 2.02987 0.256437 0
M  V30 5484 H 497.204 3.36583 2.30598 0
M  V30 5485 H 495.879 3.947 1.31091 0
M  V30 5486 H 494.456 2.65972 2.61368 0
M  V30 5487 N 496.642 -0.504142 1.49319 0
M  V30 5488 C 497.605 -1.5883 1.65244 0
M  V30 5489 C 498.605 -1.52009 0.524386 0
M  V30 5490 O 499.795 -1.55218 0.79077 0
M  V30 5491 C 496.927 -2.98481 1.64687 0
M  V30 5492 H 498.12 -1.4604 2.61939 0
M  V30 5493 H 495.673 -0.728144 1.38303 0
M  V30 5494 H 496.408 -3.16751 0.695644 0
M  V30 5495 H 496.193 -3.0484 2.46607 0
M  V30 5496 H 497.683 -3.77256 1.79075 0
M  V30 5497 N 498.12 -1.38341 -0.754957 0
M  V30 5498 C 499.368 -1.34208 -1.51105 0
M  V30 5499 C 499.689 0.0677634 -1.94882 0
M  V30 5500 O 498.959 1.01517 -1.67544 0
M  V30 5501 H 497.539 -0.493819 -0.560493 0
M  V30 5502 H 500.201 -1.73005 -0.897507 0
M  V30 5503 H 499.297 -1.99203 -2.4026 0
M  V30 5504 N 499.598 0.982988 -1.23187 0
M  V30 5505 C 500.545 2.07491 -1.01075 0
M  V30 5506 C 501.515 1.65949 0.070905 0
M  V30 5507 O 502.7 1.90629 -0.0806822 0
M  V30 5508 C 499.84 3.39751 -0.605261 0
M  V30 5509 C 498.953 3.94578 -1.75876 0
M  V30 5510 C 498.088 5.15039 -1.3003 0
M  V30 5511 C 497.127 5.62027 -2.42472 0
M  V30 5512 N 496.264 6.73719 -1.97602 0
M  V30 5513 H 501.104 2.25739 -1.9454 0
M  V30 5514 H 498.641 1.10659 -0.969179 0
M  V30 5515 H 500.599 4.15719 -0.351279 0
M  V30 5516 H 499.229 3.21473 0.292382 0
M  V30 5517 H 498.281 3.1539 -2.12681 0
M  V30 5518 H 499.593 4.25422 -2.60418 0
M  V30 5519 H 498.747 5.9833 -1.00429 0
M  V30 5520 H 497.486 4.85843 -0.425216 0
M  V30 5521 H 496.491 4.77318 -2.7285 0
M  V30 5522 H 497.716 5.93244 -3.30512 0
M  V30 5523 H 495.662 6.46287 -1.1247 0
M  V30 5524 H 495.579 7.03934 -2.75705 0
M  V30 5525 H 496.847 7.6049 -1.71098 0
M  V30 5526 N 501.076 1.04316 1.18135 0
M  V30 5527 C 502.323 0.74802 1.88178 0
M  V30 5528 C 502.651 -0.72441 1.80506 0
M  V30 5529 O 501.906 -1.54463 1.20165 0
M  V30 5530 C 502.205 1.16271 3.37958 0
M  V30 5531 C 501.871 2.63585 3.65833 0
M  V30 5532 C 500.533 3.03829 3.73151 0
M  V30 5533 C 502.885 3.58822 3.78016 0
M  V30 5534 C 500.213 4.38194 3.90132 0
M  V30 5535 C 502.565 4.92909 3.96514 0
M  V30 5536 C 501.229 5.3282 4.02068 0
M  V30 5537 H 500.499 0.27372 0.688592 0
M  V30 5538 H 503.146 1.30863 1.39811 0
M  V30 5539 H 501.451 0.520938 3.88321 0
M  V30 5540 H 503.148 0.911672 3.90499 0
M  V30 5541 H 499.738 2.31414 3.60757 0
M  V30 5542 H 503.922 3.28875 3.71692 0
M  V30 5543 H 499.178 4.68631 3.92677 0
M  V30 5544 H 503.352 5.66606 4.04883 0
M  V30 5545 H 500.979 6.36943 4.14979 0
M  V30 5546 N 502.554 -1.34406 0.822964 0
M  V30 5547 C 503.501 -2.29519 0.24284 0
M  V30 5548 C 504.471 -1.5359 -0.632397 0
M  V30 5549 O 505.656 -1.8196 -0.57403 0
M  V30 5550 C 502.796 -3.40032 -0.58925 0
M  V30 5551 C 501.909 -4.30899 0.308236 0
M  V30 5552 C 501.044 -5.28515 -0.533425 0
M  V30 5553 C 500.083 -6.1102 0.363444 0
M  V30 5554 N 499.22 -7.00725 -0.439147 0
M  V30 5555 H 504.06 -2.78537 1.05929 0
M  V30 5556 H 501.597 -1.3707 0.533872 0
M  V30 5557 H 503.555 -4.0279 -1.087 0
M  V30 5558 H 502.185 -2.92248 -1.37081 0
M  V30 5559 H 501.237 -3.69002 0.924203 0
M  V30 5560 H 502.549 -4.88717 0.997862 0
M  V30 5561 H 501.703 -5.96725 -1.09565 0
M  V30 5562 H 500.442 -4.71235 -1.25656 0
M  V30 5563 H 499.447 -5.41743 0.937812 0
M  V30 5564 H 500.672 -6.70381 1.08469 0
M  V30 5565 H 498.618 -6.45913 -1.14595 0
M  V30 5566 H 498.535 -7.55756 0.19209 0
M  V30 5567 H 499.803 -7.73263 -0.984124 0
M  V30 5568 N 504.032 -0.577932 -1.46621 0
M  V30 5569 C 505.448 -0.239242 -1.57797 0
M  V30 5570 C 505.648 1.25843 -1.57371 0
M  V30 5571 O 504.704 2.03988 -1.48813 0
M  V30 5572 C 506.017 -0.884227 -2.87405 0
M  V30 5573 C 507.565 -0.857373 -3.01028 0
M  V30 5574 C 508.04 -1.48181 -4.33366 0
M  V30 5575 N 509.531 -1.44593 -4.40053 0
M  V30 5576 C 510.266 -1.89852 -5.41058 0
M  V30 5577 N 509.762 -2.43062 -6.48762 0
M  V30 5578 N 511.555 -1.80797 -5.3223 0
M  V30 5579 H 503.706 -1.55073 -1.45142 0
M  V30 5580 H 505.969 -0.647903 -0.692044 0
M  V30 5581 H 505.675 -1.93759 -2.93514 0
M  V30 5582 H 505.549 -0.389585 -3.75183 0
M  V30 5583 H 507.936 0.187357 -2.94505 0
M  V30 5584 H 508.017 -1.38999 -2.14739 0
M  V30 5585 H 507.661 -2.52572 -4.40647 0
M  V30 5586 H 507.591 -0.924464 -5.18422 0
M  V30 5587 H 510.082 -1.05694 -3.62819 0
M  V30 5588 H 510.395 -2.75466 -7.22038 0
M  V30 5589 H 508.74 -2.47085 -6.49595 0
M  V30 5590 H 511.931 -1.38989 -4.46989 0
M  V30 5591 H 512.104 -2.16385 -6.10804 0
M  V30 5592 N 505.51 1.54411 -0.315457 0
M  V30 5593 C 506.921 1.85885 0.174265 0
M  V30 5594 C 507.272 1.23723 1.52273 0
M  V30 5595 O 506.397 0.540246 2.09548 0
M  V30 5596 C 506.992 3.37257 0.322981 0
M  V30 5597 C 505.551 3.68711 0.756922 0
M  V30 5598 C 504.698 2.77013 -0.126195 0
M  V30 5599 H 507.649 1.49374 -0.536007 0
M  V30 5600 H 507.67 3.62539 1.15522 0
M  V30 5601 H 507.182 3.82471 -0.658602 0
M  V30 5602 H 505.283 3.29024 1.74854 0
M  V30 5603 H 505.396 4.75741 0.566291 0
M  V30 5604 H 503.76 2.51588 0.39692 0
M  V30 5605 H 504.543 3.25051 -1.1044 0
M  V30 5606 N 506.988 0.0434614 1.5754 0
M  V30 5607 C 508.237 -0.631454 1.91561 0
M  V30 5608 C 508.55 -1.72457 0.92292 0
M  V30 5609 O 509.756 -2.45712 1.15489 0
M  V30 5610 C 508.212 -1.17447 3.40197 0
M  V30 5611 C 507.82 -0.113867 4.47855 0
M  V30 5612 C 509.564 -1.82507 3.83264 0
M  V30 5613 C 507.471 -0.669326 5.876 0
M  V30 5614 H 506.401 -0.239629 0.714908 0
M  V30 5615 H 509.052 0.111097 1.83163 0
M  V30 5616 H 507.434 -1.96909 3.43574 0
M  V30 5617 H 508.608 0.659348 4.56058 0
M  V30 5618 H 506.923 0.438821 4.14081 0
M  V30 5619 H 509.52 -2.25047 4.85034 0
M  V30 5620 H 509.863 -2.67365 3.19095 0
M  V30 5621 H 510.396 -1.09712 3.82372 0
M  V30 5622 H 507.135 0.141449 6.55347 0
M  V30 5623 H 506.655 -1.4107 5.82974 0
M  V30 5624 H 508.334 -1.15463 6.36614 0
M  V30 5625 N 508.466 -1.55915 -0.229846 0
M  V30 5626 C 509.715 -1.77742 -0.953455 0
M  V30 5627 C 510.028 -0.610524 -1.85828 0
M  V30 5628 O 511.234 -0.712219 -2.61992 0
M  V30 5629 C 509.69 -3.14738 -1.74551 0
M  V30 5630 C 509.298 -4.39126 -0.887242 0
M  V30 5631 C 511.042 -3.45895 -2.46084 0
M  V30 5632 C 508.949 -5.67149 -1.67617 0
M  V30 5633 H 507.879 -0.662648 -0.359741 0
M  V30 5634 H 510.53 -1.82322 -0.207576 0
M  V30 5635 H 508.912 -3.04311 -2.53399 0
M  V30 5636 H 510.086 -4.60588 -0.139892 0
M  V30 5637 H 508.401 -4.15427 -0.284443 0
M  V30 5638 H 510.998 -4.38767 -3.05594 0
M  V30 5639 H 511.341 -2.68007 -3.18556 0
M  V30 5640 H 511.874 -3.57614 -1.74233 0
M  V30 5641 H 508.613 -6.47906 -0.994881 0
M  V30 5642 H 508.133 -5.49763 -2.39836 0
M  V30 5643 H 509.812 -6.07025 -2.23898 0
M  V30 5644 N 509.944 0.496216 -1.49584 0
M  V30 5645 C 510.907 1.57952 -1.66084 0
M  V30 5646 C 511.907 1.51729 -0.53244 0
M  V30 5647 O 513.097 1.54796 -0.79899 0
M  V30 5648 C 510.229 2.97604 -1.66268 0
M  V30 5649 H 511.422 1.44649 -2.6271 0
M  V30 5650 H 508.975 0.7208 -1.38687 0
M  V30 5651 H 509.71 3.16378 -0.712432 0
M  V30 5652 H 509.495 3.03528 -2.4822 0
M  V30 5653 H 510.985 3.76301 -1.81073 0
M  V30 5654 N 511.423 1.38739 0.74761 0
M  V30 5655 C 512.671 1.35007 1.50391 0
M  V30 5656 C 512.992 -0.0574274 1.94915 0
M  V30 5657 O 512.262 -1.00628 1.6808 0
M  V30 5658 H 510.842 0.496784 0.557866 0
M  V30 5659 H 513.504 1.73479 0.888319 0
M  V30 5660 H 512.6 2.00474 2.392 0
M  V30 5661 N 512.901 -0.976442 1.23707 0
M  V30 5662 C 513.834 -2.06793 0.964973 0
M  V30 5663 C 514.812 -1.62304 -0.0981472 0
M  V30 5664 O 515.996 -1.88464 0.0369477 0
M  V30 5665 C 513.123 -3.35636 0.454522 0
M  V30 5666 C 512.169 -3.99069 1.50485 0
M  V30 5667 S 513.002 -4.37814 3.0835 0
M  V30 5668 C 514.158 -5.69805 2.58985 0
M  V30 5669 H 514.391 -2.29556 1.88922 0
M  V30 5670 H 511.924 -1.11317 1.06995 0
M  V30 5671 H 513.882 -4.10162 0.166626 0
M  V30 5672 H 512.543 -3.10876 -0.448871 0
M  V30 5673 H 511.736 -4.91896 1.09792 0
M  V30 5674 H 511.338 -3.30938 1.7423 0
M  V30 5675 H 513.63 -6.46919 2.01252 0
M  V30 5676 H 514.573 -6.15345 3.50366 0
M  V30 5677 H 514.981 -5.27994 1.99705 0
M  V30 5678 N 514.379 -1.04941 -1.1758 0
M  V30 5679 C 515.289 -0.658826 -2.25159 0
M  V30 5680 C 516.305 0.318941 -1.71052 0
M  V30 5681 O 517.481 0.171669 -2.00667 0
M  V30 5682 C 514.546 -0.0369522 -3.4668 0
M  V30 5683 C 513.607 -1.06484 -4.15884 0
M  V30 5684 C 512.84 -0.472551 -5.31604 0
M  V30 5685 O 513.063 0.718736 -5.65854 0
M  V30 5686 O 511.997 -1.20557 -5.89703 0
M  V30 5687 H 515.823 -1.55533 -2.60851 0
M  V30 5688 H 513.408 -0.820819 -1.24832 0
M  V30 5689 H 515.29 0.308784 -4.20267 0
M  V30 5690 H 513.965 0.833238 -3.12792 0
M  V30 5691 H 512.872 -1.46253 -3.44327 0
M  V30 5692 H 514.205 -1.9061 -4.53794 0
M  V30 5693 N 515.857 1.33968 -0.830081 0
M  V30 5694 C 517.104 1.98063 -0.421566 0
M  V30 5695 C 517.432 1.65787 1.0171 0
M  V30 5696 O 516.687 0.925348 1.72441 0
M  V30 5697 C 516.986 3.52679 -0.57898 0
M  V30 5698 C 516.652 4.04884 -1.98443 0
M  V30 5699 C 515.314 4.18852 -2.36888 0
M  V30 5700 C 517.666 4.32879 -2.90285 0
M  V30 5701 C 514.994 4.58145 -3.66497 0
M  V30 5702 C 517.346 4.7362 -4.19364 0
M  V30 5703 C 516.01 4.85794 -4.57778 0
M  V30 5704 H 515.28 0.724765 -0.154262 0
M  V30 5705 H 517.927 1.59792 -1.05541 0
M  V30 5706 H 516.232 3.91556 0.138219 0
M  V30 5707 H 517.929 4.00261 -0.243317 0
M  V30 5708 H 514.519 3.9448 -1.67581 0
M  V30 5709 H 518.703 4.21619 -2.61823 0
M  V30 5710 H 513.959 4.65762 -3.96075 0
M  V30 5711 H 518.133 4.9424 -4.90612 0
M  V30 5712 H 515.76 5.15998 -5.58256 0
M  V30 5713 N 517.335 0.585699 1.46312 0
M  V30 5714 C 518.56 0.0762461 2.0726 0
M  V30 5715 C 518.985 -1.22071 1.43109 0
M  V30 5716 O 518.343 -1.73804 0.515942 0
M  V30 5717 C 518.391 -0.0729404 3.60526 0
M  V30 5718 O 517.495 -1.1287 3.96654 0
M  V30 5719 H 516.836 0.0641558 0.660893 0
M  V30 5720 H 519.366 0.809492 1.87905 0
M  V30 5721 H 519.376 -0.278158 4.07051 0
M  V30 5722 H 518.051 0.874188 4.06609 0
M  V30 5723 H 516.628 -0.901703 3.61834 0
M  V30 5724 N 518.813 -1.54241 0.323641 0
M  V30 5725 C 520.229 -1.59574 -0.0290018 0
M  V30 5726 C 520.429 -1.34017 -1.50472 0
M  V30 5727 O 519.485 -1.12464 -2.26071 0
M  V30 5728 C 520.798 -2.98169 0.389295 0
M  V30 5729 C 522.346 -3.11148 0.339958 0
M  V30 5730 C 522.821 -4.5209 0.733418 0
M  V30 5731 N 524.312 -4.5808 0.686827 0
M  V30 5732 C 525.047 -5.65248 0.963464 0
M  V30 5733 N 524.543 -6.80355 1.30724 0
M  V30 5734 N 526.336 -5.55025 0.88902 0
M  V30 5735 H 518.487 -1.6911 1.28512 0
M  V30 5736 H 520.75 -0.790972 0.522558 0
M  V30 5737 H 520.456 -3.21871 1.41746 0
M  V30 5738 H 520.33 -3.76399 -0.245657 0
M  V30 5739 H 522.717 -2.87182 -0.679002 0
M  V30 5740 H 522.798 -2.35023 1.00985 0
M  V30 5741 H 522.442 -4.76788 1.75029 0
M  V30 5742 H 522.372 -5.26584 0.0412189 0
M  V30 5743 H 524.863 -3.75411 0.43298 0
M  V30 5744 H 525.176 -7.58029 1.5037 0
M  V30 5745 H 523.521 -6.81851 1.3455 0
M  V30 5746 H 526.712 -4.63977 0.619939 0
M  V30 5747 H 526.885 -6.38458 1.10797 0
M  V30 5748 N 520.291 -0.0518155 -1.57515 0
M  V30 5749 C 521.516 0.634896 -1.97443 0
M  V30 5750 C 521.941 1.63546 -0.929207 0
M  V30 5751 O 521.299 1.80981 0.107484 0
M  V30 5752 C 521.347 1.29765 -3.36442 0
M  V30 5753 O 520.451 2.41333 -3.34413 0
M  V30 5754 H 519.792 0.164994 -0.643174 0
M  V30 5755 H 522.322 -0.120407 -2.04245 0
M  V30 5756 H 522.332 1.64918 -3.73184 0
M  V30 5757 H 521.007 0.564361 -4.12053 0
M  V30 5758 H 519.584 2.08122 -3.09418 0
M  V30 5759 N 521.769 1.56035 0.221574 0
M  V30 5760 C 522.716 1.92413 1.27459 0
M  V30 5761 C 523.686 0.781323 1.46576 0
M  V30 5762 O 524.871 1.03721 1.60145 0
M  V30 5763 C 522.011 2.24617 2.61995 0
M  V30 5764 C 521.124 3.51831 2.50677 0
M  V30 5765 C 520.259 3.73482 3.77736 0
M  V30 5766 C 519.298 4.94211 3.6114 0
M  V30 5767 N 518.435 5.12252 4.80148 0
M  V30 5768 H 523.275 2.82203 0.957355 0
M  V30 5769 H 520.812 1.39676 0.461415 0
M  V30 5770 H 522.77 2.41298 3.40339 0
M  V30 5771 H 521.4 1.38 2.91815 0
M  V30 5772 H 520.452 3.43343 1.63767 0
M  V30 5773 H 521.764 4.40328 2.34334 0
M  V30 5774 H 520.918 3.9026 4.64523 0
M  V30 5775 H 519.657 2.83266 3.97003 0
M  V30 5776 H 518.662 4.77384 2.72736 0
M  V30 5777 H 519.887 5.85912 3.43343 0
M  V30 5778 H 517.833 4.24978 4.99729 0
M  V30 5779 H 517.75 5.94881 4.66532 0
M  V30 5780 H 519.018 5.33465 5.68362 0
M  V30 5781 N 523.247 -0.488276 1.49845 0
M  V30 5782 C 524.472 -1.26997 1.63971 0
M  V30 5783 C 524.897 -1.85427 0.315994 0
M  V30 5784 O 524.255 -1.66475 -0.718032 0
M  V30 5785 C 524.303 -2.36689 2.72049 0
M  V30 5786 O 523.407 -3.40882 2.32107 0
M  V30 5787 H 522.748 -0.374376 0.548396 0
M  V30 5788 H 525.278 -0.583104 1.96115 0
M  V30 5789 H 525.288 -2.82262 2.94605 0
M  V30 5790 H 523.963 -1.93529 3.68129 0
M  V30 5791 H 522.54 -3.01139 2.19931 0
M  V30 5792 N 524.725 -1.39134 -0.740242 0
M  V30 5793 C 526.002 -1.26584 -1.49117 0
M  V30 5794 C 526.382 0.126902 -2.10718 0
M  V30 5795 O 525.73 1.13765 -1.98166 0
M  V30 5796 C 525.94 -2.38619 -2.54681 0
M  V30 5797 C 527.288 -2.77685 -3.21211 0
M  V30 5798 O 528.312 -2.38029 -2.64991 0
M  V30 5799 O 527.171 -3.46115 -4.22926 0
M  V30 5800 H 524.265 -0.495769 -0.661923 0
M  V30 5801 H 526.811 -1.50995 -0.774514 0
M  V30 5802 H 525.583 -3.3175 -2.07504 0
M  V30 5803 H 525.206 -2.15845 -3.33911 0
M  V30 5804 N 526.204 0.969867 -1.24223 0
M  V30 5805 C 527.152 2.08535 -1.03034 0
M  V30 5806 C 528.146 1.69366 0.0340379 0
M  V30 5807 O 529.352 1.79597 -0.12034 0
M  V30 5808 H 525.727 0.682313 -0.316154 0
M  V30 5809 H 527.698 2.23569 -1.97635 0
M  V30 5810 C 526.447 3.4158 -0.649509 0
M  V30 5811 H 525.77 3.72177 -1.46028 0
M  V30 5812 H 527.21 4.20536 -0.540841 0
M  V30 5813 C 525.669 3.30703 0.643194 0
M  V30 5814 O 526.199 3.64443 1.68951 0
M  V30 5815 N 524.405 2.83841 0.623095 0
M  V30 5816 H 523.952 2.56583 -0.228719 0
M  V30 5817 H 523.91 2.76946 1.48823 0
M  V30 5818 N 527.682 1.05563 1.17022 0
M  V30 5819 C 528.907 0.788437 1.91829 0
M  V30 5820 C 529.332 -0.650356 1.76499 0
M  V30 5821 O 528.69 -1.45229 1.08527 0
M  V30 5822 C 528.738 1.1786 3.40795 0
M  V30 5823 O 527.842 0.312965 4.11211 0
M  V30 5824 H 527.183 0.288794 0.597908 0
M  V30 5825 H 529.713 1.40948 1.48307 0
M  V30 5826 H 529.723 1.14697 3.91546 0
M  V30 5827 H 528.398 2.22666 3.51273 0
M  V30 5828 H 526.975 0.405515 3.70689 0
M  V30 5829 N 529.16 -1.33526 0.837174 0
M  V30 5830 C 530.385 -2.0258 0.444545 0
M  V30 5831 C 530.81 -1.6258 -0.946006 0
M  V30 5832 O 530.168 -0.817548 -1.6182 0
M  V30 5833 C 530.216 -3.5605 0.571006 0
M  V30 5834 O 529.32 -4.10422 -0.403431 0
M  V30 5835 H 528.661 -0.638866 0.180958 0
M  V30 5836 H 531.191 -1.70462 1.13154 0
M  V30 5837 H 531.201 -4.05488 0.452024 0
M  V30 5838 H 529.876 -3.84509 1.58512 0
M  V30 5839 H 528.453 -3.72113 -0.242147 0
M  V30 5840 N 530.638 -0.59345 -1.46 0
M  V30 5841 C 531.588 0.154751 -2.27474 0
M  V30 5842 C 532.572 0.851849 -1.365 0
M  V30 5843 O 533.764 0.744171 -1.60596 0
M  V30 5844 C 530.893 1.16079 -3.2308 0
M  V30 5845 C 529.979 0.465256 -4.2154 0
M  V30 5846 N 530.37 -0.485197 -5.03467 0
M  V30 5847 C 528.668 0.714634 -4.40237 0
M  V30 5848 C 529.369 -0.892709 -5.74809 0
M  V30 5849 N 528.345 -0.239511 -5.43072 0
M  V30 5850 H 532.147 -0.57546 -2.88211 0
M  V30 5851 H 529.661 -0.416046 -1.5698 0
M  V30 5852 H 531.658 1.71108 -3.80168 0
M  V30 5853 H 530.318 1.89171 -2.63903 0
M  V30 5854 H 531.329 -0.861258 -5.10689 0
M  V30 5855 H 528.006 1.43131 -3.92199 0
M  V30 5856 H 529.396 -1.67581 -6.50666 0
M  V30 5857 N 532.116 1.54067 -0.331816 0
M  V30 5858 C 533.527 1.86059 0.15454 0
M  V30 5859 C 533.878 1.25331 1.50952 0
M  V30 5860 O 533.003 0.562441 2.08963 0
M  V30 5861 C 533.598 3.37581 0.287192 0
M  V30 5862 C 532.157 3.69493 0.717773 0
M  V30 5863 C 531.304 2.76863 -0.155569 0
M  V30 5864 H 534.255 1.48797 -0.55182 0
M  V30 5865 H 534.276 3.63744 1.11671 0
M  V30 5866 H 533.788 3.81751 -0.699131 0
M  V30 5867 H 531.889 3.3086 1.71354 0
M  V30 5868 H 532.002 4.76315 0.5158 0
M  V30 5869 H 530.366 2.51995 0.370213 0
M  V30 5870 H 531.149 3.23861 -1.13881 0
M  V30 5871 N 533.594 0.0601682 1.57485 0
M  V30 5872 C 534.526 -0.94047 2.09016 0
M  V30 5873 C 535.539 -1.26897 1.01985 0
M  V30 5874 O 536.728 -1.22819 1.29529 0
M  V30 5875 C 533.828 -2.25955 2.52582 0
M  V30 5876 C 533.001 -2.11163 3.83052 0
M  V30 5877 C 532.06 -3.26273 4.12835 0
M  V30 5878 O 531.086 -3.01779 4.82616 0
M  V30 5879 N 532.288 -4.51022 3.65458 0
M  V30 5880 H 535.053 -0.500578 2.9549 0
M  V30 5881 H 532.614 -0.125852 1.6141 0
M  V30 5882 H 534.606 -3.01846 2.69575 0
M  V30 5883 H 533.176 -2.61481 1.71308 0
M  V30 5884 H 532.396 -1.19808 3.75552 0
M  V30 5885 H 533.684 -1.98517 4.68475 0
M  V30 5886 H 533.082 -4.73811 3.09062 0
M  V30 5887 H 531.639 -5.23978 3.87673 0
M  V30 5888 N 535.072 -1.5615 -0.213296 0
M  V30 5889 C 536.019 -1.93086 -1.26437 0
M  V30 5890 C 536.989 -0.789086 -1.4616 0
M  V30 5891 O 538.174 -1.04569 -1.59593 0
M  V30 5892 C 535.314 -2.26003 -2.608 0
M  V30 5893 C 534.427 -3.53156 -2.48807 0
M  V30 5894 C 533.562 -3.7548 -3.7575 0
M  V30 5895 C 532.601 -4.96119 -3.58514 0
M  V30 5896 N 531.738 -5.14791 -4.77425 0
M  V30 5897 H 536.578 -2.82707 -0.942376 0
M  V30 5898 H 534.115 -1.39919 -0.454001 0
M  V30 5899 H 536.073 -2.431 -3.39055 0
M  V30 5900 H 534.703 -1.39546 -2.91079 0
M  V30 5901 H 533.755 -3.44207 -1.61944 0
M  V30 5902 H 535.067 -4.41565 -2.31996 0
M  V30 5903 H 534.221 -3.92718 -4.62447 0
M  V30 5904 H 532.96 -2.85368 -3.95495 0
M  V30 5905 H 531.965 -4.78823 -2.70201 0
M  V30 5906 H 533.19 -5.87724 -3.40231 0
M  V30 5907 H 531.136 -4.27623 -4.97468 0
M  V30 5908 H 531.053 -5.97347 -4.63371 0
M  V30 5909 H 532.321 -5.36471 -5.65525 0
M  V30 5910 N 536.55 0.480323 -1.50102 0
M  V30 5911 C 537.827 1.24159 -1.51142 0
M  V30 5912 C 538.207 2.09605 -0.250818 0
M  V30 5913 O 537.555 2.15274 0.766118 0
M  V30 5914 C 537.765 2.08057 -2.80202 0
M  V30 5915 C 539.113 2.66556 -3.30504 0
M  V30 5916 O 540.137 2.18308 -2.81461 0
M  V30 5917 O 538.996 3.54442 -4.15973 0
M  V30 5918 H 536.09 0.562928 -0.605839 0
M  V30 5919 H 538.636 0.492899 -1.62384 0
M  V30 5920 H 537.408 1.45032 -3.6343 0
M  V30 5921 H 537.031 2.90079 -2.71919 0
M  V30 5922 N 538.028 1.39524 0.732853 0
M  V30 5923 C 538.938 1.40695 1.87729 0
M  V30 5924 C 539.954 0.301496 1.71368 0
M  V30 5925 O 541.13 0.543313 1.93933 0
M  V30 5926 C 538.195 1.25098 3.23344 0
M  V30 5927 C 537.256 2.45634 3.52083 0
M  V30 5928 C 536.489 2.30772 4.81228 0
M  V30 5929 O 536.712 1.31233 5.55098 0
M  V30 5930 O 535.646 3.19799 5.09914 0
M  V30 5931 H 539.472 2.37168 1.89697 0
M  V30 5932 H 537.057 1.20663 0.880959 0
M  V30 5933 H 538.939 1.18541 4.04383 0
M  V30 5934 H 537.614 0.317209 3.22142 0
M  V30 5935 H 536.521 2.57767 2.71122 0
M  V30 5936 H 537.854 3.37712 3.58066 0
M  V30 5937 N 539.506 -0.963266 1.24736 0
M  V30 5938 C 540.754 -1.70343 1.08755 0
M  V30 5939 C 541.075 -1.91387 -0.373619 0
M  V30 5940 O 540.345 -1.4948 -1.2662 0
M  V30 5941 H 538.925 -0.631224 0.399456 0
M  V30 5942 H 541.587 -1.15859 1.56725 0
M  V30 5943 H 540.683 -2.68616 1.58909 0
M  V30 5944 N 540.985 -1.06182 -1.16461 0
M  V30 5945 C 542.262 -0.691364 -1.82974 0
M  V30 5946 C 542.642 0.827377 -1.9421 0
M  V30 5947 O 541.99 1.73723 -1.48434 0
M  V30 5948 C 542.2 -1.39199 -3.20038 0
M  V30 5949 C 543.548 -1.53647 -3.95825 0
M  V30 5950 O 544.572 -1.35181 -3.29552 0
M  V30 5951 O 543.431 -1.83932 -5.14618 0
M  V30 5952 H 540.525 -0.244605 -0.789998 0
M  V30 5953 H 543.071 -1.16203 -1.23673 0
M  V30 5954 H 541.843 -2.42766 -3.06888 0
M  V30 5955 H 541.466 -0.911335 -3.87015 0
M  V30 5956 N 542.463 1.3308 -0.844243 0
M  V30 5957 C 543.411 2.31028 -0.269954 0
M  V30 5958 C 544.405 1.58381 0.600997 0
M  V30 5959 O 545.611 1.73203 0.48996 0
M  V30 5960 H 541.986 0.748866 -0.0685782 0
M  V30 5961 H 543.957 2.76967 -1.11049 0
M  V30 5962 C 542.706 3.43549 0.535676 0
M  V30 5963 H 542.029 3.99604 -0.125202 0
M  V30 5964 H 543.469 4.14267 0.903262 0
M  V30 5965 C 541.928 2.8988 1.71672 0
M  V30 5966 O 542.458 2.86511 2.81557 0
M  V30 5967 N 540.664 2.46416 1.54037 0
M  V30 5968 H 540.211 2.49356 0.64649 0
M  V30 5969 H 540.169 2.1086 2.33207 0
M  V30 5970 N 543.941 0.601185 1.45683 0
M  V30 5971 C 545.352 0.179659 1.85834 0
M  V30 5972 C 545.703 -1.26189 1.50236 0
M  V30 5973 O 544.828 -1.95587 0.925987 0
M  V30 5974 C 545.423 0.319277 3.37292 0
M  V30 5975 C 543.982 -0.0475092 3.7637 0
M  V30 5976 C 543.129 0.646692 2.69654 0
M  V30 5977 H 546.08 0.808268 1.36575 0
M  V30 5978 H 546.101 -0.4503 3.77826 0
M  V30 5979 H 545.613 1.36855 3.6317 0
M  V30 5980 H 543.714 -1.0962 3.5611 0
M  V30 5981 H 543.827 0.34168 4.7788 0
M  V30 5982 H 542.191 0.0849971 2.54558 0
M  V30 5983 H 542.974 1.69797 2.98369 0
M  V30 5984 N 545.419 -1.53889 0.339982 0
M  V30 5985 C 546.329 -2.28604 -0.526988 0
M  V30 5986 C 547.345 -1.33578 -1.11503 0
M  V30 5987 O 548.521 -1.66612 -1.13148 0
M  V30 5988 C 545.586 -3.04164 -1.66389 0
M  V30 5989 C 544.647 -4.14809 -1.10599 0
M  V30 5990 C 543.88 -4.86756 -2.18871 0
M  V30 5991 O 544.103 -4.58343 -3.39526 0
M  V30 5992 O 543.037 -5.73289 -1.83366 0
M  V30 5993 H 546.863 -3.03594 0.0802707 0
M  V30 5994 H 544.448 -1.4903 0.105141 0
M  V30 5995 H 546.33 -3.51427 -2.32544 0
M  V30 5996 H 545.005 -2.32035 -2.25703 0
M  V30 5997 H 543.912 -3.71857 -0.409067 0
M  V30 5998 H 545.245 -4.89029 -0.557771 0
M  V30 5999 N 546.897 -0.0685191 -1.57451 0
M  V30 6000 C 548.125 0.610462 -1.97689 0
M  V30 6001 C 548.54 1.63346 -0.946758 0
M  V30 6002 O 547.897 1.82377 0.0669868 0
M  V30 6003 C 547.948 1.28196 -3.38006 0
M  V30 6004 O 547.669 0.299906 -4.37072 0
M  V30 6005 C 549.17 2.04907 -3.931 0
M  V30 6006 H 546.39 0.165689 -0.650222 0
M  V30 6007 H 548.934 -0.139953 -2.04021 0
M  V30 6008 H 547.089 1.98348 -3.32771 0
M  V30 6009 H 547.503 0.78126 -5.18649 0
M  V30 6010 H 548.977 2.47287 -4.93511 0
M  V30 6011 H 549.454 2.9043 -3.29465 0
M  V30 6012 H 550.06 1.39629 -4.01726 0
M  V30 6013 N 548.375 1.56261 0.205012 0
M  V30 6014 C 549.624 1.79236 0.925058 0
M  V30 6015 C 549.937 0.640011 1.84833 0
M  V30 6016 O 551.143 0.753809 2.60826 0
M  V30 6017 C 549.599 3.17475 1.69522 0
M  V30 6018 C 549.207 4.40482 0.817269 0
M  V30 6019 C 550.951 3.49766 2.4055 0
M  V30 6020 C 548.858 5.69744 1.58573 0
M  V30 6021 H 547.788 0.668287 0.349153 0
M  V30 6022 H 550.439 1.82629 0.178544 0
M  V30 6023 H 548.821 3.08304 2.48526 0
M  V30 6024 H 549.995 4.60752 0.0665988 0
M  V30 6025 H 548.31 4.15827 0.218316 0
M  V30 6026 H 550.907 4.43573 2.98575 0
M  V30 6027 H 551.25 2.73041 3.14252 0
M  V30 6028 H 551.783 3.60341 1.68522 0
M  V30 6029 H 548.522 6.49407 0.891679 0
M  V30 6030 H 548.042 5.53509 2.31059 0
M  V30 6031 H 549.721 6.1051 2.14212 0
M  V30 6032 N 549.853 -0.472356 1.50355 0
M  V30 6033 C 550.786 -1.58923 1.63764 0
M  V30 6034 C 551.764 -1.55173 0.485793 0
M  V30 6035 O 552.948 -1.74815 0.705132 0
M  V30 6036 C 550.075 -2.97497 1.61905 0
M  V30 6037 C 549.121 -3.19405 2.82635 0
M  V30 6038 S 549.954 -2.99441 4.43954 0
M  V30 6039 C 551.11 -4.40359 4.44786 0
M  V30 6040 H 551.343 -1.47309 2.58239 0
M  V30 6041 H 548.876 -0.659601 1.39602 0
M  V30 6042 H 550.834 -3.77389 1.61518 0
M  V30 6043 H 549.495 -3.06502 0.686683 0
M  V30 6044 H 548.688 -4.20636 2.77636 0
M  V30 6045 H 548.29 -2.47283 2.80583 0
M  V30 6046 H 550.582 -5.32969 4.1827 0
M  V30 6047 H 551.525 -4.50403 5.46391 0
M  V30 6048 H 551.933 -4.22378 3.74509 0
M  V30 6049 N 551.331 -1.39911 -0.725443 0
M  V30 6050 C 552.556 -1.41137 -1.5197 0
M  V30 6051 C 552.981 -0.010262 -1.88097 0
M  V30 6052 O 552.339 0.979184 -1.52583 0
M  V30 6053 C 552.387 -2.2994 -2.77777 0
M  V30 6054 O 551.491 -1.73586 -3.74088 0
M  V30 6055 H 550.832 -0.480219 -0.458569 0
M  V30 6056 H 553.362 -1.84023 -0.894249 0
M  V30 6057 H 553.372 -2.44785 -3.26411 0
M  V30 6058 H 552.047 -3.31759 -2.50816 0
M  V30 6059 H 550.624 -1.68035 -3.32894 0
M  V30 6060 N 552.809 0.956637 -1.25245 0
M  V30 6061 C 554.034 1.74104 -1.12706 0
M  V30 6062 C 554.459 1.85436 0.315429 0
M  V30 6063 O 553.817 1.33334 1.22848 0
M  V30 6064 C 553.865 3.1338 -1.78396 0
M  V30 6065 O 552.969 3.98485 -1.06224 0
M  V30 6066 H 552.31 0.53476 -0.393609 0
M  V30 6067 H 554.84 1.19924 -1.65769 0
M  V30 6068 H 554.85 3.6385 -1.846 0
M  V30 6069 H 553.525 3.04448 -2.83345 0
M  V30 6070 H 552.102 3.56952 -1.07886 0
M  V30 6071 N 554.287 1.06798 1.15896 0
M  V30 6072 C 555.535 0.786211 1.8618 0
M  V30 6073 C 555.856 -0.689547 1.82401 0
M  V30 6074 O 555.126 -1.49913 1.26107 0
M  V30 6075 H 553.706 0.287843 0.689315 0
M  V30 6076 H 556.368 1.35055 1.40521 0
M  V30 6077 H 555.464 1.1157 2.91477 0
M  V30 6078 N 555.766 -1.3263 0.851289 0
M  V30 6079 C 556.714 -2.30882 0.282202 0
M  V30 6080 C 557.708 -1.58697 -0.592589 0
M  V30 6081 O 558.914 -1.73461 -0.480768 0
M  V30 6082 H 555.289 -0.748492 0.0725487 0
M  V30 6083 H 557.26 -2.76374 1.12516 0
M  V30 6084 C 556.009 -3.43828 -0.517449 0
M  V30 6085 H 555.332 -3.99532 0.146392 0
M  V30 6086 H 556.772 -4.1474 -0.88128 0
M  V30 6087 C 555.231 -2.90786 -1.70133 0
M  V30 6088 O 555.761 -2.88 -2.80034 0
M  V30 6089 N 553.967 -2.4723 -1.52728 0
M  V30 6090 H 553.514 -2.49695 -0.633257 0
M  V30 6091 H 553.472 -2.12094 -2.32085 0
M  V30 6092 N 557.244 -0.608902 -1.45362 0
M  V30 6093 C 558.49 -0.104762 -2.02529 0
M  V30 6094 C 558.823 1.26191 -1.47613 0
M  V30 6095 O 558.098 1.8327 -0.65134 0
M  V30 6096 C 558.381 -0.0672661 -3.60037 0
M  V30 6097 C 558.234 -1.4647 -4.25284 0
M  V30 6098 C 559.553 0.619877 -4.35713 0
M  V30 6099 H 556.672 -0.0395438 -0.735938 0
M  V30 6100 H 559.314 -0.781126 -1.73201 0
M  V30 6101 H 557.464 0.50871 -3.85155 0
M  V30 6102 H 559.136 -2.08785 -4.11347 0
M  V30 6103 H 557.379 -2.02502 -3.83634 0
M  V30 6104 H 558.05 -1.39069 -5.34195 0
M  V30 6105 H 560.526 0.130297 -4.15896 0
M  V30 6106 H 559.402 0.615224 -5.45441 0
M  V30 6107 H 559.663 1.68621 -4.0868 0
M  V30 6108 N 558.722 1.53707 -0.348139 0
M  V30 6109 C 559.67 2.26671 0.521808 0
M  V30 6110 C 560.664 1.28988 1.09811 0
M  V30 6111 O 561.87 1.4668 1.04332 0
M  V30 6112 H 558.245 0.728387 0.186968 0
M  V30 6113 H 560.216 2.98176 -0.115563 0
M  V30 6114 C 558.965 3.05591 1.6586 0
M  V30 6115 H 558.288 3.80589 1.22443 0
M  V30 6116 H 559.728 3.59851 2.24239 0
M  V30 6117 C 558.187 2.15366 2.59073 0
M  V30 6118 O 558.717 1.7528 3.61441 0
M  V30 6119 N 556.923 1.80352 2.27863 0
M  V30 6120 H 556.47 2.13149 1.44656 0
M  V30 6121 H 556.428 1.20268 2.90488 0
M  V30 6122 N 560.2 0.0768682 1.57412 0
M  V30 6123 C 561.425 -0.603404 1.98428 0
M  V30 6124 C 561.85 -1.62047 0.955108 0
M  V30 6125 O 561.208 -1.81129 -0.0786778 0
M  V30 6126 C 561.256 -1.24396 3.38464 0
M  V30 6127 O 560.36 -2.35982 3.3821 0
M  V30 6128 H 559.701 -0.154741 0.645718 0
M  V30 6129 H 562.231 0.152885 2.04028 0
M  V30 6130 H 562.241 -1.5896 3.7576 0
M  V30 6131 H 560.916 -0.498735 4.12899 0
M  V30 6132 H 559.493 -2.03173 3.1269 0
M  V30 6133 N 561.678 -1.56367 -0.196722 0
M  V30 6134 C 562.903 -1.84991 -0.937714 0
M  V30 6135 C 563.328 -0.660244 -1.76132 0
M  V30 6136 O 562.686 0.390967 -1.77034 0
M  V30 6137 C 562.734 -3.11828 -1.81096 0
M  V30 6138 O 561.838 -2.92266 -2.90955 0
M  V30 6139 H 561.179 -0.609193 -0.264159 0
M  V30 6140 H 563.709 -2.03595 -0.202529 0
M  V30 6141 H 563.719 -3.42579 -2.21594 0
M  V30 6142 H 562.394 -3.98037 -1.2058 0
M  V30 6143 H 560.971 -2.72809 -2.54224 0
M  V30 6144 N 563.156 0.464375 -1.50603 0
M  V30 6145 C 564.381 1.24372 -1.65971 0
M  V30 6146 C 564.806 1.84901 -0.345453 0
M  V30 6147 O 564.164 1.67596 0.691457 0
M  V30 6148 C 564.212 2.32331 -2.7578 0
M  V30 6149 O 563.316 3.37146 -2.375 0
M  V30 6150 H 562.657 0.365604 -0.554283 0
M  V30 6151 H 565.187 0.55183 -1.97018 0
M  V30 6152 H 565.197 2.77539 -2.99059 0
M  V30 6153 H 563.872 1.87648 -3.71162 0
M  V30 6154 H 562.449 2.97602 -2.24694 0
M  V30 6155 O 564.673 1.49538 0.609965 0
M  V30 6156 H 565.364 1.46731 1.26451 0
M  V30 END ATOM
M  V30 BEGIN BOND
M  V30 END BOND
M  V30 END CTAB
M  END
$$$$
