drugbank_target|P21549 Serine--pyruvate aminotransferase (DB00114; DB00133; DB00145; DB00160; DB02079; DB04083; DB08060)
 OpenBabel12092119293D

  0  0  0     0  0            999 V3000
M  V30 BEGIN CTAB
M  V30 COUNTS 6105 6175 0 0 0
M  V30 BEGIN ATOM
M  V30 1 H -0.908 1.98254 -0.117106 0
M  V30 2 N 0 1.576 0 0
M  V30 3 C 0.933 2.03868 1.02534 0
M  V30 4 C 1.911 0.928543 1.3348 0
M  V30 5 O 3.095 1.19667 1.45644 0
M  V30 6 C 0.222 2.43627 2.35294 0
M  V30 7 C -0.732 3.65373 2.2001 0
M  V30 8 S 0.101 5.13292 1.52614 0
M  V30 9 C 1.257 5.56322 2.86805 0
M  V30 10 H 1.49 2.90518 0.631377 0
M  V30 11 H -0.977 1.52953 0.210867 0
M  V30 12 H 0.981 2.67203 3.11629 0
M  V30 13 H -0.358 1.57376 2.7183 0
M  V30 14 H -1.165 3.90944 3.18086 0
M  V30 15 H -1.563 3.418 1.51819 0
M  V30 16 H 0.729 5.58782 3.83104 0
M  V30 17 H 1.672 6.56266 2.65933 0
M  V30 18 H 2.08 4.83886 2.90714 0
M  V30 19 N 1.4781 -0.272755 1.55222 0
M  V30 20 C 2.4411 -1.32041 1.87344 0
M  V30 21 C 3.4411 -1.42342 0.74803 0
M  V30 22 O 4.6311 -1.41488 1.0162 0
M  V30 23 C 1.7631 -2.70173 2.07893 0
M  V30 24 H 2.9561 -1.04789 2.80997 0
M  V30 25 H 0.5091 -0.51083 1.47717 0
M  V30 26 H 1.2441 -3.02605 1.16622 0
M  V30 27 H 1.0291 -2.64082 2.89833 0
M  V30 28 H 2.5191 -3.45869 2.34017 0
M  V30 29 N 2.9562 -1.48159 -0.537278 0
M  V30 30 C 4.1812 -1.59707 -1.32319 0
M  V30 31 C 4.6062 -0.254859 -1.86365 0
M  V30 32 O 3.9642 0.772378 -1.64024 0
M  V30 33 C 4.0122 -2.6412 -2.45505 0
M  V30 34 O 3.1162 -2.20774 -3.48328 0
M  V30 35 H 2.4572 -0.535791 -0.392204 0
M  V30 36 H 4.9872 -1.94092 -0.647268 0
M  V30 37 H 4.9972 -2.85166 -2.91795 0
M  V30 38 H 3.6722 -3.61567 -2.05528 0
M  V30 39 H 2.2492 -2.09911 -3.08207 0
M  V30 40 N 4.4343 0.785586 -1.36625 0
M  V30 41 C 5.3843 1.88822 -1.27789 0
M  V30 42 C 6.3683 1.60014 -0.168579 0
M  V30 43 O 7.5603 1.72381 -0.401737 0
M  V30 44 C 4.6893 3.26092 -1.07327 0
M  V30 45 C 3.7753 3.60897 -2.22743 0
M  V30 46 N 4.1663 3.66982 -3.48077 0
M  V30 47 C 2.4643 3.90981 -2.14593 0
M  V30 48 C 3.1653 3.98137 -4.24101 0
M  V30 49 N 2.1413 4.13319 -3.53084 0
M  V30 50 H 5.9433 1.91759 -2.22723 0
M  V30 51 H 3.4573 0.981311 -1.29399 0
M  V30 52 H 5.4543 4.04954 -0.990842 0
M  V30 53 H 4.1143 3.24428 -0.132977 0
M  V30 54 H 5.1253 3.49531 -3.82163 0
M  V30 55 H 1.8023 3.9722 -1.2854 0
M  V30 56 H 3.1923 4.09737 -5.32509 0
M  V30 57 N 5.9124 1.20967 1.01018 0
M  V30 58 C 6.8594 0.964281 2.09691 0
M  V30 59 C 7.8294 -0.107853 1.65749 0
M  V30 60 O 9.0144 0.0381987 1.90762 0
M  V30 61 C 6.1544 0.52943 3.41015 0
M  V30 62 C 5.2674 1.67043 3.98398 0
M  V30 63 C 4.4024 1.18525 5.17808 0
M  V30 64 C 3.4414 2.29892 5.67288 0
M  V30 65 N 2.5784 1.82546 6.77954 0
M  V30 66 H 7.4184 1.89463 2.30017 0
M  V30 67 H 4.9554 0.944289 1.1279 0
M  V30 68 H 6.9134 0.258588 4.16398 0
M  V30 69 H 5.5434 -0.363919 3.20742 0
M  V30 70 H 4.5954 2.05603 3.20049 0
M  V30 71 H 5.9074 2.50877 4.31117 0
M  V30 72 H 5.0614 0.870762 6.00419 0
M  V30 73 H 3.8004 0.316887 4.86669 0
M  V30 74 H 2.8054 2.6215 4.83278 0
M  V30 75 H 4.0304 3.17216 6.00459 0
M  V30 76 H 1.9764 0.980454 6.48632 0
M  V30 77 H 1.8934 2.59956 7.09901 0
M  V30 78 H 3.1614 1.54115 7.64113 0
M  V30 79 N 7.3905 -1.2043 1.01659 0
M  V30 80 C 8.3205 -2.25466 0.607226 0
M  V30 81 C 9.3015 -1.65853 -0.377716 0
M  V30 82 O 10.4865 -1.92409 -0.263149 0
M  V30 83 C 7.6165 -3.47256 -0.0552949 0
M  V30 84 C 6.5705 -4.19462 0.850632 0
M  V30 85 C 5.8965 -5.34673 0.0538859 0
M  V30 86 C 7.1965 -4.75603 2.15868 0
M  V30 87 H 8.8905 -2.59962 1.48526 0
M  V30 88 H 6.4365 -1.2496 0.715605 0
M  V30 89 H 8.3895 -4.19917 -0.353233 0
M  V30 90 H 7.1135 -3.11924 -0.968045 0
M  V30 91 H 5.7725 -3.48667 1.13257 0
M  V30 92 H 5.4205 -4.95585 -0.860514 0
M  V30 93 H 5.1205 -5.83913 0.657192 0
M  V30 94 H 6.6445 -6.10138 -0.237598 0
M  V30 95 H 8.0585 -5.40083 1.92311 0
M  V30 96 H 6.4555 -5.3528 2.71284 0
M  V30 97 H 7.5255 -3.94346 2.82169 0
M  V30 98 N 8.8686 -0.792821 -1.36206 0
M  V30 99 C 9.7986 -0.207853 -2.32573 0
M  V30 100 C 10.7796 0.659055 -1.56813 0
M  V30 101 O 11.9646 0.592176 -1.84951 0
M  V30 102 C 9.0946 0.655449 -3.41059 0
M  V30 103 C 8.0486 -0.111842 -4.27854 0
M  V30 104 C 7.3746 0.872274 -5.27537 0
M  V30 105 C 8.6746 -1.30299 -5.05786 0
M  V30 106 H 10.3686 -1.01294 -2.81744 0
M  V30 107 H 7.9146 -0.48854 -1.3546 0
M  V30 108 H 9.8676 1.07464 -4.07467 0
M  V30 109 H 8.5916 1.49328 -2.90463 0
M  V30 110 H 7.2506 -0.512053 -3.63006 0
M  V30 111 H 6.8986 1.70523 -4.73214 0
M  V30 112 H 6.5986 0.363291 -5.86476 0
M  V30 113 H 8.1226 1.28996 -5.96818 0
M  V30 114 H 9.5366 -0.959379 -5.65216 0
M  V30 115 H 7.9336 -1.7455 -5.74154 0
M  V30 116 H 9.0036 -2.09663 -4.37229 0
M  V30 117 N 10.3467 1.47872 -0.545128 0
M  V30 118 C 11.5927 2.02793 -0.0166104 0
M  V30 119 C 11.9257 1.41987 1.32489 0
M  V30 120 O 11.2007 0.571045 1.85928 0
M  V30 121 C 11.4837 3.59989 0.0893294 0
M  V30 122 C 11.3367 4.3125 -1.27841 0
M  V30 123 C 12.6557 4.32606 0.808724 0
M  V30 124 H 9.7747 0.736962 -0.00751035 0
M  V30 125 H 12.4167 1.76433 -0.705085 0
M  V30 126 H 10.5667 3.82579 0.675681 0
M  V30 127 H 12.2387 4.20035 -1.90704 0
M  V30 128 H 10.4817 3.92076 -1.85632 0
M  V30 129 H 11.1527 5.39736 -1.15713 0
M  V30 130 H 13.6287 4.14936 0.310992 0
M  V30 131 H 12.5047 5.42251 0.851782 0
M  V30 132 H 12.7657 4.00963 1.86229 0
M  V30 133 N 11.8248 0.280983 1.55075 0
M  V30 134 C 13.0528 -0.337293 2.04132 0
M  V30 135 C 13.4678 -1.4903 1.15912 0
M  V30 136 O 12.8248 -1.81606 0.180459 0
M  V30 137 C 12.8758 -0.812706 3.52246 0
M  V30 138 O 12.5968 0.294387 4.3711 0
M  V30 139 C 14.0978 -1.4982 4.17216 0
M  V30 140 H 11.3178 -0.0761638 0.666663 0
M  V30 141 H 13.8618 0.414787 2.00249 0
M  V30 142 H 12.0168 -1.51486 3.56554 0
M  V30 143 H 12.4308 -0.0721325 5.2445 0
M  V30 144 H 13.9048 -1.7822 5.22438 0
M  V30 145 H 14.3818 -2.43168 3.65741 0
M  V30 146 H 14.9878 -0.839742 4.16927 0
M  V30 147 N 13.3029 -1.57598 0.00835791 0
M  V30 148 C 14.7139 -1.7892 -0.53333 0
M  V30 149 C 15.0649 -0.916609 -1.73473 0
M  V30 150 O 14.1899 -0.121336 -2.1606 0
M  V30 151 C 14.7849 -3.24488 -0.974313 0
M  V30 152 C 13.3439 -3.46878 -1.46125 0
M  V30 153 C 12.4909 -2.74157 -0.416302 0
M  V30 154 H 15.4419 -1.56958 0.234495 0
M  V30 155 H 15.4629 -3.3306 -1.83988 0
M  V30 156 H 14.9749 -3.87972 -0.099718 0
M  V30 157 H 13.0759 -2.8862 -2.35646 0
M  V30 158 H 13.1889 -4.55572 -1.48295 0
M  V30 159 H 11.5529 -2.39022 -0.87981 0
M  V30 160 H 12.3359 -3.40345 0.44947 0
M  V30 161 N 14.781 0.264519 -1.55364 0
M  V30 162 C 16.192 0.834936 -1.6699 0
M  V30 163 C 16.543 1.86718 -0.602552 0
M  V30 164 O 15.668 2.14899 0.254425 0
M  V30 165 C 16.263 1.5212 -3.02729 0
M  V30 166 C 14.822 2.03954 -3.16354 0
M  V30 167 C 13.969 0.884498 -2.62815 0
M  V30 168 H 16.92 0.0406869 -1.58648 0
M  V30 169 H 16.941 2.38853 -2.96191 0
M  V30 170 H 16.453 0.769668 -3.80392 0
M  V30 171 H 14.554 2.82041 -2.43482 0
M  V30 172 H 14.667 2.24902 -4.23032 0
M  V30 173 H 13.031 1.2802 -2.20188 0
M  V30 174 H 13.814 0.14634 -3.42988 0
M  V30 175 N 16.2591 1.48442 0.529413 0
M  V30 176 C 17.2061 1.63007 1.63394 0
M  V30 177 C 18.1761 0.47212 1.59249 0
M  V30 178 O 19.3611 0.695673 1.77666 0
M  V30 179 C 16.5011 1.6763 3.01653 0
M  V30 180 C 15.6141 2.94535 3.16027 0
M  V30 181 C 14.7491 2.90316 4.44849 0
M  V30 182 C 13.7881 4.11923 4.52754 0
M  V30 183 N 12.9251 4.05777 5.72965 0
M  V30 184 H 17.7651 2.5733 1.50285 0
M  V30 185 H 15.3021 1.27613 0.731656 0
M  V30 186 H 17.2601 1.68292 3.81751 0
M  V30 187 H 15.8901 0.76797 3.13532 0
M  V30 188 H 14.9421 3.03615 2.29177 0
M  V30 189 H 16.2541 3.84512 3.17729 0
M  V30 190 H 15.4081 2.89382 5.33238 0
M  V30 191 H 14.1471 1.98068 4.45668 0
M  V30 192 H 13.1521 4.13131 3.62771 0
M  V30 193 H 14.3771 5.0533 4.53672 0
M  V30 194 H 12.3231 3.16351 5.74681 0
M  V30 195 H 12.2401 4.8946 5.76164 0
M  V30 196 H 13.5081 4.08904 6.6364 0
M  V30 197 N 17.7372 -0.778329 1.37039 0
M  V30 198 C 18.7002 -1.87301 1.32102 0
M  V30 199 C 19.7002 -1.59198 0.226405 0
M  V30 200 O 20.8902 -1.67403 0.481861 0
M  V30 201 C 18.0222 -3.24309 1.05055 0
M  V30 202 H 19.2152 -1.93093 2.29467 0
M  V30 203 H 16.7682 -0.977358 1.21973 0
M  V30 204 H 17.5032 -3.24196 0.0819373 0
M  V30 205 H 17.2882 -3.46098 1.84279 0
M  V30 206 H 18.7782 -4.04382 1.04234 0
M  V30 207 N 19.2153 -1.21501 -1.00376 0
M  V30 208 C 20.1453 -0.999478 -2.11028 0
M  V30 209 C 21.1263 0.0759671 -1.6993 0
M  V30 210 O 22.3113 -0.0841106 -1.94018 0
M  V30 211 C 19.4413 -0.564709 -3.42678 0
M  V30 212 C 18.3953 -1.58486 -3.97576 0
M  V30 213 C 17.7213 -1.00628 -5.25146 0
M  V30 214 C 19.0213 -2.97204 -4.29496 0
M  V30 215 H 20.7153 -1.92495 -2.29317 0
M  V30 216 H 18.2613 -0.92693 -1.102 0
M  V30 217 H 20.2143 -0.401091 -4.19487 0
M  V30 218 H 18.9383 0.396411 -3.24185 0
M  V30 219 H 17.5973 -1.73606 -3.22888 0
M  V30 220 H 17.2453 -0.0368439 -5.02987 0
M  V30 221 H 16.9453 -1.68771 -5.62841 0
M  V30 222 H 18.4693 -0.854015 -6.04598 0
M  V30 223 H 19.8833 -2.8552 -4.97143 0
M  V30 224 H 18.2803 -3.62372 -4.78338 0
M  V30 225 H 19.3503 -3.47956 -3.3772 0
M  V30 226 N 20.6934 1.19889 -1.02296 0
M  V30 227 C 21.6234 2.25141 -0.619174 0
M  V30 228 C 22.6044 1.66051 0.368915 0
M  V30 229 O 23.7894 1.92546 0.252941 0
M  V30 230 C 20.9194 3.4728 0.0368783 0
M  V30 231 C 19.8734 4.19005 -0.872865 0
M  V30 232 C 19.1994 5.34637 -0.0822402 0
M  V30 233 C 20.4994 4.74452 -2.18387 0
M  V30 234 H 22.1934 2.59171 -1.49903 0
M  V30 235 H 19.7394 1.24579 -0.722222 0
M  V30 236 H 21.6924 4.20098 0.330958 0
M  V30 237 H 20.4164 3.12433 0.95149 0
M  V30 238 H 19.0754 3.48061 -1.15105 0
M  V30 239 H 18.7234 4.96034 0.83422 0
M  V30 240 H 18.4234 5.83557 -0.688149 0
M  V30 241 H 19.9474 6.10255 0.205238 0
M  V30 242 H 21.3614 5.39055 -1.95172 0
M  V30 243 H 19.7584 5.33834 -2.74119 0
M  V30 244 H 20.8284 3.92844 -2.84257 0
M  V30 245 N 22.1715 0.800033 1.35784 0
M  V30 246 C 23.1185 0.203848 2.29898 0
M  V30 247 C 24.0885 -0.658375 1.52495 0
M  V30 248 O 25.2735 -0.604832 1.8096 0
M  V30 249 C 22.4135 -0.64688 3.38983 0
M  V30 250 C 21.5265 0.235054 4.3136 0
M  V30 251 C 20.6615 -0.623054 5.27533 0
M  V30 252 C 19.7005 0.259682 6.11549 0
M  V30 253 N 18.8375 -0.558019 6.99879 0
M  V30 254 H 23.6775 1.01186 2.80295 0
M  V30 255 H 21.2145 0.51053 1.37957 0
M  V30 256 H 23.1725 -1.15521 4.00887 0
M  V30 257 H 21.8025 -1.42021 2.89879 0
M  V30 258 H 20.8545 0.861438 3.70518 0
M  V30 259 H 22.1665 0.914768 4.9034 0
M  V30 260 H 21.3205 -1.19678 5.94779 0
M  V30 261 H 20.0595 -1.33636 4.69034 0
M  V30 262 H 19.0645 0.845726 5.43256 0
M  V30 263 H 20.2895 0.970748 6.72126 0
M  V30 264 H 18.2355 -1.25542 6.43875 0
M  V30 265 H 18.1525 0.0637872 7.55973 0
M  V30 266 H 19.4205 -1.11523 7.71481 0
M  V30 267 N 23.6496 -1.47581 0.552962 0
M  V30 268 C 25.0606 -1.86324 0.118463 0
M  V30 269 C 25.4116 -1.46006 -1.3106 0
M  V30 270 O 24.5366 -0.861182 -1.98526 0
M  V30 271 C 25.1316 -3.3816 0.20821 0
M  V30 272 C 23.6906 -3.7601 -0.171226 0
M  V30 273 C 22.8376 -2.71634 0.557686 0
M  V30 274 H 25.7886 -1.39159 0.762928 0
M  V30 275 H 25.8096 -3.76141 -0.574278 0
M  V30 276 H 25.3216 -3.67473 1.24841 0
M  V30 277 H 23.4226 -3.52313 -1.21269 0
M  V30 278 H 23.5356 -4.78745 0.184379 0
M  V30 279 H 21.8996 -2.547 0.00125792 0
M  V30 280 H 22.6826 -3.0379 1.59896 0
M  V30 281 N 25.1277 -0.289203 -1.54924 0
M  V30 282 C 26.0577 0.58549 -2.2604 0
M  V30 283 C 27.0387 1.14753 -1.25562 0
M  V30 284 O 28.2237 1.17906 -1.54311 0
M  V30 285 C 25.3537 1.76305 -2.99222 0
M  V30 286 C 24.3077 1.33191 -4.06748 0
M  V30 287 C 23.6337 2.5937 -4.6758 0
M  V30 288 C 24.9337 0.471775 -5.20165 0
M  V30 289 H 26.6277 -0.00763532 -2.99399 0
M  V30 290 H 24.1737 -0.00511229 -1.43999 0
M  V30 291 H 26.1267 2.38097 -3.47689 0
M  V30 292 H 24.8507 2.38223 -2.23422 0
M  V30 293 H 23.5097 0.737121 -3.59113 0
M  V30 294 H 23.1577 3.19576 -3.88433 0
M  V30 295 H 22.8577 2.31228 -5.40192 0
M  V30 296 H 24.3817 3.21985 -5.18804 0
M  V30 297 H 25.7957 0.995056 -5.64599 0
M  V30 298 H 24.1927 0.284639 -5.99425 0
M  V30 299 H 25.2627 -0.506041 -4.82252 0
M  V30 300 N 26.6058 1.57591 -0.0167156 0
M  V30 301 C 27.8308 1.9598 0.67872 0
M  V30 302 C 28.2558 0.892546 1.65575 0
M  V30 303 O 27.6138 -0.147772 1.80697 0
M  V30 304 C 27.6618 3.33468 1.37227 0
M  V30 305 O 26.7658 3.28954 2.48722 0
M  V30 306 H 26.1068 0.639339 0.17928 0
M  V30 307 H 28.6368 2.04463 -0.0748802 0
M  V30 308 H 28.6468 3.69417 1.7319 0
M  V30 309 H 27.3218 4.10694 0.656007 0
M  V30 310 H 25.8988 3.04705 2.14963 0
M  V30 311 N 28.0839 -0.256276 1.55502 0
M  V30 312 C 29.3329 -0.983486 1.76098 0
M  V30 313 C 29.6459 -1.86837 0.578896 0
M  V30 314 O 30.8519 -2.63163 0.667648 0
M  V30 315 C 29.3079 -1.79868 3.1173 0
M  V30 316 C 28.9159 -0.961648 4.37557 0
M  V30 317 C 30.6599 -2.51919 3.41668 0
M  V30 318 C 28.5669 -1.77219 5.64223 0
M  V30 319 H 27.4969 -0.370936 0.656447 0
M  V30 320 H 30.1479 -0.238492 1.81944 0
M  V30 321 H 28.5299 -2.58527 2.99966 0
M  V30 322 H 29.7039 -0.218048 4.60284 0
M  V30 323 H 28.0189 -0.354913 4.14885 0
M  V30 324 H 30.6159 -3.12998 4.33516 0
M  V30 325 H 30.9589 -3.23059 2.62562 0
M  V30 326 H 31.4919 -1.80278 3.54605 0
M  V30 327 H 28.2309 -1.10471 6.46124 0
M  V30 328 H 27.7509 -2.49132 5.45613 0
M  V30 329 H 29.4299 -2.34169 6.03137 0
M  V30 330 N 29.562 -1.4872 -0.521534 0
M  V30 331 C 30.973 -1.50607 -1.10337 0
M  V30 332 C 31.324 -0.280612 -1.94183 0
M  V30 333 O 30.449 0.611507 -2.0758 0
M  V30 334 C 31.044 -2.72903 -2.00772 0
M  V30 335 C 29.603 -2.77634 -2.54158 0
M  V30 336 C 28.75 -2.44241 -1.31307 0
M  V30 337 H 31.701 -1.55714 -0.306388 0
M  V30 338 H 31.722 -2.519 -2.85178 0
M  V30 339 H 31.234 -3.62077 -1.39721 0
M  V30 340 H 29.335 -1.92689 -3.18907 0
M  V30 341 H 29.448 -3.79283 -2.92714 0
M  V30 342 H 27.812 -1.95577 -1.63161 0
M  V30 343 H 28.595 -3.35666 -0.719943 0
M  V30 344 N 31.0401 0.771051 -1.3745 0
M  V30 345 C 31.9881 1.90574 -1.33358 0
M  V30 346 C 32.9821 1.67936 -0.22224 0
M  V30 347 O 34.1881 1.75717 -0.390304 0
M  V30 348 H 30.5631 0.626714 -0.415612 0
M  V30 349 H 32.5341 1.91142 -2.29144 0
M  V30 350 C 31.2831 3.27845 -1.15813 0
M  V30 351 H 30.6061 3.45842 -2.00583 0
M  V30 352 H 32.0461 4.07538 -1.17 0
M  V30 353 C 30.5051 3.36625 0.136165 0
M  V30 354 O 31.0351 3.85785 1.11949 0
M  V30 355 N 29.2411 2.89997 0.187099 0
M  V30 356 H 28.7881 2.50182 -0.613753 0
M  V30 357 H 28.7461 2.96252 1.05272 0
M  V30 358 N 32.5182 1.22032 0.997298 0
M  V30 359 C 33.4502 0.944263 2.08845 0
M  V30 360 C 34.4632 -0.0754663 1.62625 0
M  V30 361 O 35.6522 0.157994 1.77799 0
M  V30 362 C 32.7522 0.397723 3.36558 0
M  V30 363 C 31.9252 1.47362 4.11829 0
M  V30 364 C 30.9842 0.934951 5.17827 0
M  V30 365 O 30.0102 1.62016 5.45655 0
M  V30 366 N 31.2122 -0.245895 5.79979 0
M  V30 367 H 33.9772 1.88363 2.33109 0
M  V30 368 H 31.5382 1.12661 1.16272 0
M  V30 369 H 33.5302 0.0227771 4.04694 0
M  V30 370 H 32.1002 -0.446646 3.09393 0
M  V30 371 H 31.3202 2.02208 3.38386 0
M  V30 372 H 32.6082 2.19764 4.58891 0
M  V30 373 H 32.0062 -0.819475 5.59733 0
M  V30 374 H 30.5632 -0.562272 6.4937 0
M  V30 375 N 33.9963 -1.19345 1.0293 0
M  V30 376 C 34.9263 -2.2481 0.631105 0
M  V30 377 C 35.9073 -1.66245 -0.360104 0
M  V30 378 O 37.0923 -1.92677 -0.242726 0
M  V30 379 C 34.2223 -3.47295 -0.0184607 0
M  V30 380 C 33.1763 -4.18536 0.895073 0
M  V30 381 C 32.5023 -5.34586 0.110592 0
M  V30 382 C 33.8023 -4.73287 2.209 0
M  V30 383 H 35.4963 -2.58372 1.51275 0
M  V30 384 H 33.0423 -1.24194 0.728818 0
M  V30 385 H 34.9953 -4.20268 -0.308675 0
M  V30 386 H 33.7193 -3.12933 -0.934907 0
M  V30 387 H 32.3783 -3.47446 1.16949 0
M  V30 388 H 32.0263 -4.96469 -0.807902 0
M  V30 389 H 31.7263 -5.83183 0.719087 0
M  V30 390 H 33.2503 -6.10355 -0.172871 0
M  V30 391 H 34.6643 -5.38013 1.98028 0
M  V30 392 H 33.0613 -5.32373 2.76946 0
M  V30 393 H 34.1313 -3.91331 2.86336 0
M  V30 394 N 35.4744 -0.807222 -1.35358 0
M  V30 395 C 36.4044 -0.232509 -2.3234 0
M  V30 396 C 37.3854 0.642386 -1.57504 0
M  V30 397 O 38.5704 0.572526 -1.85569 0
M  V30 398 C 35.7004 0.619238 -3.41735 0
M  V30 399 C 34.6544 -0.157215 -4.27711 0
M  V30 400 C 33.9804 0.816273 -5.28433 0
M  V30 401 C 35.2804 -1.35656 -5.04376 0
M  V30 402 H 36.9744 -1.04276 -2.80654 0
M  V30 403 H 34.5204 -0.50288 -1.34934 0
M  V30 404 H 36.4734 1.03137 -4.08584 0
M  V30 405 H 35.1974 1.46239 -2.92031 0
M  V30 406 H 33.8564 -0.550525 -3.62443 0
M  V30 407 H 33.5044 1.65494 -4.74996 0
M  V30 408 H 33.2044 0.301067 -5.86828 0
M  V30 409 H 34.7284 1.22659 -5.98153 0
M  V30 410 H 36.1424 -1.01927 -5.64166 0
M  V30 411 H 34.5394 -1.8063 -5.7227 0
M  V30 412 H 35.6094 -2.14288 -4.34981 0
M  V30 413 N 36.9525 1.47285 -0.560781 0
M  V30 414 C 37.8825 2.32857 0.173105 0
M  V30 415 C 38.8635 1.44009 0.905281 0
M  V30 416 O 40.0485 1.7286 0.885046 0
M  V30 417 C 37.1785 3.25861 1.20133 0
M  V30 418 C 36.1325 4.23978 0.585388 0
M  V30 419 C 35.4585 5.06332 1.7185 0
M  V30 420 C 36.7585 5.20242 -0.463178 0
M  V30 421 H 38.4525 2.94466 -0.541307 0
M  V30 422 H 35.9985 1.41601 -0.261764 0
M  V30 423 H 37.9515 3.84569 1.72293 0
M  V30 424 H 36.6755 2.62315 1.94573 0
M  V30 425 H 35.3345 3.66501 0.085054 0
M  V30 426 H 34.9825 4.39186 2.45203 0
M  V30 427 H 34.6825 5.72762 1.31213 0
M  V30 428 H 36.2065 5.67899 2.24329 0
M  V30 429 H 37.6205 5.73293 -0.027502 0
M  V30 430 H 36.0175 5.94896 -0.788627 0
M  V30 431 H 37.0875 4.65504 -1.35773 0
M  V30 432 N 38.4306 0.297415 1.54768 0
M  V30 433 C 39.6786 -0.312295 1.99673 0
M  V30 434 C 39.9996 -1.54686 1.18732 0
M  V30 435 O 39.2696 -1.93854 0.282382 0
M  V30 436 H 37.8496 -0.118381 0.73756 0
M  V30 437 H 40.5116 0.407915 1.90583 0
M  V30 438 H 39.6076 -0.586813 3.06534 0
M  V30 439 N 39.9087 -1.5758 0.0250728 0
M  V30 440 C 41.3197 -1.79476 -0.514323 0
M  V30 441 C 41.6707 -0.934956 -1.72491 0
M  V30 442 O 40.7957 -0.144245 -2.15919 0
M  V30 443 C 41.3907 -3.25503 -0.939842 0
M  V30 444 C 39.9497 -3.48408 -1.42438 0
M  V30 445 C 39.0967 -2.74583 -0.387201 0
M  V30 446 H 42.0477 -1.567 0.25113 0
M  V30 447 H 42.0687 -3.34992 -1.80445 0
M  V30 448 H 41.5807 -3.88056 -0.0585628 0
M  V30 449 H 39.6817 -2.91103 -2.32572 0
M  V30 450 H 39.7947 -4.57119 -1.43455 0
M  V30 451 H 38.1587 -2.39942 -0.854409 0
M  V30 452 H 38.9417 -3.39849 0.485543 0
M  V30 453 N 41.3868 0.248026 -1.55636 0
M  V30 454 C 42.6348 0.974295 -1.77065 0
M  V30 455 C 42.9558 1.85897 -0.588849 0
M  V30 456 O 42.2258 1.91868 0.395407 0
M  V30 457 H 40.8058 0.362733 -0.653019 0
M  V30 458 H 43.4678 0.266244 -1.93073 0
M  V30 459 H 42.5638 1.59667 -2.68166 0
M  V30 460 N 42.8649 1.48995 0.513639 0
M  V30 461 C 44.2759 1.5119 1.09537 0
M  V30 462 C 44.6269 0.290906 1.94031 0
M  V30 463 O 43.7519 -0.60049 2.07902 0
M  V30 464 C 44.3469 2.73964 1.99322 0
M  V30 465 C 42.9059 2.78978 2.52682 0
M  V30 466 C 42.0529 2.44934 1.30009 0
M  V30 467 H 45.0039 1.55875 0.298125 0
M  V30 468 H 45.0249 2.53409 2.83838 0
M  V30 469 H 44.5369 3.62813 1.37799 0
M  V30 470 H 42.6379 1.94378 3.1788 0
M  V30 471 H 42.7509 3.8083 2.90698 0
M  V30 472 H 41.1149 1.9644 1.62122 0
M  V30 473 H 41.8979 3.36043 0.702131 0
M  V30 474 N 44.343 -0.763751 1.37857 0
M  V30 475 C 45.568 -1.55805 1.36893 0
M  V30 476 C 45.993 -1.88054 -0.0416135 0
M  V30 477 O 45.351 -1.49825 -1.02089 0
M  V30 478 C 45.399 -2.84012 2.22192 0
M  V30 479 O 44.503 -3.78732 1.63204 0
M  V30 480 H 43.844 -0.471638 0.46739 0
M  V30 481 H 46.374 -0.944657 1.81487 0
M  V30 482 H 46.384 -3.33037 2.35691 0
M  V30 483 H 45.059 -2.59869 3.24716 0
M  V30 484 H 43.636 -3.37402 1.58791 0
M  V30 485 N 45.8211 -1.22559 -0.990812 0
M  V30 486 C 46.7691 -0.994798 -2.10253 0
M  V30 487 C 47.7631 0.0627798 -1.69284 0
M  V30 488 O 48.9691 -0.0898392 -1.79776 0
M  V30 489 H 45.3441 -0.304527 -0.687581 0
M  V30 490 H 47.3151 -1.93812 -2.26891 0
M  V30 491 C 46.0641 -0.591439 -3.42633 0
M  V30 492 H 45.3871 -1.3969 -3.74602 0
M  V30 493 H 46.8271 -0.469385 -4.21394 0
M  V30 494 C 45.2861 0.699232 -3.29564 0
M  V30 495 O 45.8161 1.75112 -3.61523 0
M  V30 496 N 44.0221 0.671182 -2.82743 0
M  V30 497 H 43.5691 -0.185136 -2.56934 0
M  V30 498 H 43.5271 1.53502 -2.7438 0
M  V30 499 N 47.2992 1.18797 -1.03562 0
M  V30 500 C 48.2292 2.24472 -0.643019 0
M  V30 501 C 49.2102 1.66433 0.351283 0
M  V30 502 O 50.3952 1.92803 0.232505 0
M  V30 503 C 47.5252 3.473 4.24935e-05 0
M  V30 504 C 46.4792 4.18055 -0.917257 0
M  V30 505 C 45.8052 5.34519 -0.138941 0
M  V30 506 C 47.1052 4.72109 -2.23407 0
M  V30 507 H 48.7992 2.57566 -1.52643 0
M  V30 508 H 46.3452 1.23806 -0.735394 0
M  V30 509 H 48.2982 4.20426 0.286383 0
M  V30 510 H 47.0222 3.13424 0.918299 0
M  V30 511 H 45.6812 3.46821 -1.1879 0
M  V30 512 H 45.3292 4.96891 0.781562 0
M  V30 513 H 45.0292 5.82794 -0.750005 0
M  V30 514 H 46.5532 6.10438 0.1405 0
M  V30 515 H 47.9672 5.36955 -2.00879 0
M  V30 516 H 46.3642 5.30897 -2.79765 0
M  V30 517 H 47.4342 3.89807 -2.88407 0
M  V30 518 N 48.7773 0.814389 1.34928 0
M  V30 519 C 50.1883 0.458364 1.80986 0
M  V30 520 C 50.5393 -1.02042 1.67577 0
M  V30 521 O 49.6643 -1.79352 1.21086 0
M  V30 522 C 50.2593 0.825212 3.28597 0
M  V30 523 C 48.8183 0.521677 3.72767 0
M  V30 524 C 47.9653 1.04668 2.56788 0
M  V30 525 H 50.9163 1.00533 1.22795 0
M  V30 526 H 50.9373 0.12571 3.80292 0
M  V30 527 H 50.4493 1.90154 3.38324 0
M  V30 528 H 48.5503 -0.545589 3.68584 0
M  V30 529 H 48.6633 1.05977 4.67232 0
M  V30 530 H 47.0273 0.468622 2.50352 0
M  V30 531 H 47.8103 2.12927 2.6929 0
M  V30 532 N 50.2554 -1.46986 0.568584 0
M  V30 533 C 51.6664 -1.86188 0.138219 0
M  V30 534 C 52.0174 -1.47388 -1.29504 0
M  V30 535 O 51.1424 -0.88219 -1.97602 0
M  V30 536 C 51.7374 -3.3792 0.244065 0
M  V30 537 C 50.2964 -3.76171 -0.131335 0
M  V30 538 C 49.4434 -2.71027 0.586465 0
M  V30 539 H 52.3944 -1.38342 0.777645 0
M  V30 540 H 52.4154 -3.76729 -0.534351 0
M  V30 541 H 51.9274 -3.66128 1.28731 0
M  V30 542 H 50.0284 -3.5358 -1.17526 0
M  V30 543 H 50.1414 -4.78523 0.235146 0
M  V30 544 H 48.5054 -2.54684 0.0282722 0
M  V30 545 H 49.2884 -3.02077 1.63109 0
M  V30 546 N 51.7335 -0.305618 -1.54608 0
M  V30 547 C 53.1495 0.0476228 -1.59529 0
M  V30 548 C 53.3495 1.52025 -1.32252 0
M  V30 549 O 52.4055 2.27368 -1.09818 0
M  V30 550 C 53.7185 -0.354471 -2.98603 0
M  V30 551 C 55.2665 -0.303622 -3.11524 0
M  V30 552 C 55.7415 -0.680608 -4.52915 0
M  V30 553 N 57.2325 -0.63332 -4.5885 0
M  V30 554 C 57.9675 -0.897432 -5.66334 0
M  V30 555 N 57.4635 -1.22775 -6.81834 0
M  V30 556 N 59.2565 -0.824186 -5.56025 0
M  V30 557 H 51.4075 -1.2653 -1.70599 0
M  V30 558 H 53.6705 -0.513291 -0.797017 0
M  V30 559 H 53.3765 -1.3798 -3.23503 0
M  V30 560 H 53.2505 0.289568 -3.76087 0
M  V30 561 H 55.6375 0.712472 -2.8637 0
M  V30 562 H 55.7185 -0.982348 -2.36185 0
M  V30 563 H 55.3625 -1.69453 -4.78799 0
M  V30 564 H 55.2925 0.0202385 -5.26596 0
M  V30 565 H 57.7835 -0.389138 -3.75891 0
M  V30 566 H 58.0965 -1.41513 -7.59733 0
M  V30 567 H 56.4415 -1.26583 -6.83375 0
M  V30 568 H 59.6325 -0.565748 -4.64669 0
M  V30 569 H 59.8055 -1.03338 -6.39707 0
M  V30 570 N 53.2116 1.57565 -0.0334293 0
M  V30 571 C 54.4606 1.91155 0.643639 0
M  V30 572 C 54.7736 0.91192 1.73042 0
M  V30 573 O 55.9796 1.13923 2.46442 0
M  V30 574 C 54.4356 3.39443 1.1961 0
M  V30 575 C 54.0436 4.47774 0.142381 0
M  V30 576 C 55.7876 3.82094 1.84944 0
M  V30 577 C 53.6946 5.87162 0.706727 0
M  V30 578 H 52.6246 0.713368 0.244176 0
M  V30 579 H 55.2756 1.8323 -0.0994323 0
M  V30 580 H 53.6576 3.42313 1.99092 0
M  V30 581 H 54.8316 4.56469 -0.630296 0
M  V30 582 H 53.1466 4.14352 -0.412446 0
M  V30 583 H 55.7436 4.83591 2.2813 0
M  V30 584 H 56.0866 3.17386 2.69392 0
M  V30 585 H 56.6196 3.81665 1.12145 0
M  V30 586 H 53.3586 6.55424 -0.0997178 0
M  V30 587 H 52.8786 5.82064 1.44779 0
M  V30 588 H 54.5576 6.35866 1.19514 0
M  V30 589 N 54.6897 -0.239769 1.55765 0
M  V30 590 C 55.6227 -1.32356 1.85895 0
M  V30 591 C 56.6007 -1.46053 0.714662 0
M  V30 592 O 57.7847 -1.62154 0.961157 0
M  V30 593 C 54.9117 -2.6962 2.04994 0
M  V30 594 C 53.9577 -2.73036 3.27648 0
M  V30 595 S 54.7907 -2.28929 4.84099 0
M  V30 596 C 55.9467 -3.68103 5.06212 0
M  V30 597 H 56.1797 -1.06601 2.77531 0
M  V30 598 H 53.7127 -0.441112 1.47965 0
M  V30 599 H 55.6707 -3.48653 2.16682 0
M  V30 600 H 54.3317 -2.92609 1.14188 0
M  V30 601 H 53.5247 -3.7386 3.38 0
M  V30 602 H 53.1267 -2.02052 3.14723 0
M  V30 603 H 55.4187 -4.63656 4.93993 0
M  V30 604 H 56.3617 -3.6268 6.08168 0
M  V30 605 H 56.7697 -3.60947 4.34025 0
M  V30 606 N 56.1678 -1.49265 -0.50573 0
M  V30 607 C 57.1308 -1.65075 -1.59006 0
M  V30 608 C 58.1308 -0.522768 -1.52065 0
M  V30 609 O 59.3208 -0.789117 -1.55302 0
M  V30 610 C 56.4528 -1.64369 -2.98656 0
M  V30 611 H 57.6458 -2.61784 -1.46319 0
M  V30 612 H 55.1988 -1.38226 -0.729616 0
M  V30 613 H 55.9338 -0.692272 -3.16825 0
M  V30 614 H 55.7188 -2.46282 -3.05103 0
M  V30 615 H 57.2088 -1.78674 -3.77446 0
M  V30 616 N 57.6459 0.756429 -1.3826 0
M  V30 617 C 58.6089 1.85176 -1.35065 0
M  V30 618 C 59.6089 1.58818 -0.251703 0
M  V30 619 O 60.7989 1.66615 -0.508433 0
M  V30 620 C 57.9309 3.22596 -1.10201 0
M  V30 621 H 59.1239 1.89417 -2.3251 0
M  V30 622 H 56.6769 0.95783 -1.23512 0
M  V30 623 H 57.4119 3.24025 -0.133504 0
M  V30 624 H 57.1969 3.43122 -1.89762 0
M  V30 625 H 58.6869 4.02673 -1.10654 0
M  V30 626 N 59.124 1.23083 0.984299 0
M  V30 627 C 60.372 1.05848 1.72165 0
M  V30 628 C 60.693 -0.406049 1.90726 0
M  V30 629 O 59.963 -1.29139 1.47309 0
M  V30 630 H 58.543 0.388685 0.637913 0
M  V30 631 H 61.205 1.54736 1.18503 0
M  V30 632 H 60.301 1.54327 2.71274 0
M  V30 633 N 60.6021 -1.18246 1.0419 0
M  V30 634 C 61.8501 -1.87886 0.744543 0
M  V30 635 C 62.1711 -1.8082 -0.730006 0
M  V30 636 O 61.4411 -1.22736 -1.52685 0
M  V30 637 H 60.0211 -0.695556 0.272417 0
M  V30 638 H 62.6831 -1.43494 1.31892 0
M  V30 639 H 61.7791 -2.9389 1.05049 0
M  V30 640 N 62.0802 -0.821533 -1.34494 0
M  V30 641 C 63.0102 -0.257138 -2.3208 0
M  V30 642 C 63.9912 0.625645 -1.58176 0
M  V30 643 O 65.1762 0.552811 -1.86166 0
M  V30 644 C 62.3062 0.582958 -3.42372 0
M  V30 645 C 61.2602 -0.202571 -4.2752 0
M  V30 646 C 60.5862 0.760179 -5.29269 0
M  V30 647 C 61.8862 -1.40998 -5.02908 0
M  V30 648 H 63.5802 -1.07247 -2.79532 0
M  V30 649 H 61.1262 -0.517163 -1.34393 0
M  V30 650 H 63.0792 0.987972 -4.09655 0
M  V30 651 H 61.8032 1.43133 -2.93565 0
M  V30 652 H 60.4622 -0.588936 -3.61838 0
M  V30 653 H 60.1102 1.60447 -4.76724 0
M  V30 654 H 59.8102 0.238809 -5.87115 0
M  V30 655 H 61.3342 1.16308 -5.9942 0
M  V30 656 H 62.7482 -1.07905 -5.63054 0
M  V30 657 H 61.1452 -1.86689 -5.70322 0
M  V30 658 H 62.2152 -2.1889 -4.32684 0
M  V30 659 N 63.5583 1.46682 -0.576371 0
M  V30 660 C 64.4903 2.28341 0.198231 0
M  V30 661 C 65.5033 1.38141 0.861453 0
M  V30 662 O 66.6923 1.62797 0.732082 0
M  V30 663 C 63.7923 3.12986 1.29972 0
M  V30 664 C 62.9653 4.31271 0.729639 0
M  V30 665 C 62.0243 4.97363 1.71803 0
M  V30 666 O 61.0503 5.55156 1.25658 0
M  V30 667 N 62.2523 4.93796 3.05198 0
M  V30 668 H 65.0173 2.9546 -0.502324 0
M  V30 669 H 62.5783 1.56525 -0.413715 0
M  V30 670 H 64.5703 3.54066 1.96008 0
M  V30 671 H 63.1403 2.47984 1.90323 0
M  V30 672 H 62.3603 3.94052 -0.108012 0
M  V30 673 H 63.6483 5.07739 0.328438 0
M  V30 674 H 63.0463 4.48077 3.45317 0
M  V30 675 H 61.6033 5.38837 3.6674 0
M  V30 676 N 65.0364 0.313813 1.54444 0
M  V30 677 C 65.9694 -0.598866 2.20202 0
M  V30 678 C 66.9474 -1.12318 1.17573 0
M  V30 679 O 68.1314 -1.18899 1.46271 0
M  V30 680 C 65.2584 -1.82071 2.85601 0
M  V30 681 C 64.3044 -1.42851 4.01865 0
M  V30 682 S 65.1374 -0.473512 5.33402 0
M  V30 683 C 66.2934 -1.70286 6.0229 0
M  V30 684 H 66.5264 -0.0402532 2.97273 0
M  V30 685 H 64.0594 0.0979165 1.54089 0
M  V30 686 H 66.0174 -2.52184 3.23904 0
M  V30 687 H 64.6784 -2.3505 2.08351 0
M  V30 688 H 63.8714 -2.33871 4.46453 0
M  V30 689 H 63.4734 -0.807198 3.65185 0
M  V30 690 H 65.7654 -2.64168 6.23876 0
M  V30 691 H 66.7084 -1.29932 6.96077 0
M  V30 692 H 67.1164 -1.88541 5.32083 0
M  V30 693 N 66.5145 -1.57545 0.0417849 0
M  V30 694 C 67.7635 -1.91494 -0.633492 0
M  V30 695 C 68.0765 -0.921084 -1.72556 0
M  V30 696 O 69.2825 -1.15228 -2.45835 0
M  V30 697 C 67.7385 -3.40072 -1.17808 0
M  V30 698 C 67.3465 -4.47843 -0.118633 0
M  V30 699 C 69.0905 -3.8307 -1.82915 0
M  V30 700 C 66.9975 -5.87529 -0.675578 0
M  V30 701 H 65.9275 -0.714653 -0.24039 0
M  V30 702 H 68.5785 -1.83175 0.109148 0
M  V30 703 H 66.9605 -3.43364 -1.97274 0
M  V30 704 H 68.1345 -4.56128 0.654494 0
M  V30 705 H 66.4495 -4.14128 0.434414 0
M  V30 706 H 69.0465 -4.84794 -2.25563 0
M  V30 707 H 69.3895 -3.1881 -2.67705 0
M  V30 708 H 69.9225 -3.82255 -1.10119 0
M  V30 709 H 66.6615 -6.55362 0.134475 0
M  V30 710 H 66.1815 -5.82824 -1.4169 0
M  V30 711 H 67.8605 -6.36491 -1.1614 0
M  V30 712 N 67.9926 0.231505 -1.5589 0
M  V30 713 C 69.2406 0.955461 -1.78088 0
M  V30 714 C 69.5616 1.85262 -0.608533 0
M  V30 715 O 68.8316 1.92277 0.375035 0
M  V30 716 H 67.4116 0.355787 -0.656829 0
M  V30 717 H 70.0736 0.245751 -1.93344 0
M  V30 718 H 69.1696 1.56814 -2.69844 0
M  V30 719 N 69.4707 1.49531 0.497807 0
M  V30 720 C 70.6957 1.63159 1.28039 0
M  V30 721 C 71.1207 0.30418 1.85624 0
M  V30 722 O 70.4787 -0.728618 1.66015 0
M  V30 723 C 70.5267 2.70537 2.38416 0
M  V30 724 O 69.6307 2.29931 3.42353 0
M  V30 725 H 68.9717 0.546001 0.377861 0
M  V30 726 H 71.5017 1.9574 0.59558 0
M  V30 727 H 71.5117 2.92802 2.84132 0
M  V30 728 H 70.1867 3.6689 1.95869 0
M  V30 729 H 68.7637 2.18009 3.02533 0
M  V30 730 N 70.9488 -0.749086 1.3866 0
M  V30 731 C 71.8818 -1.87111 1.30631 0
M  V30 732 C 72.8598 -1.61572 0.18251 0
M  V30 733 O 74.0438 -1.85019 0.360592 0
M  V30 734 C 71.1708 -3.22815 1.02511 0
M  V30 735 C 70.2168 -3.67234 2.1689 0
M  V30 736 S 71.0498 -3.78245 3.79066 0
M  V30 737 C 72.2058 -5.16761 3.53142 0
M  V30 738 H 72.4388 -1.93636 2.25594 0
M  V30 739 H 69.9718 -0.912525 1.24549 0
M  V30 740 H 71.9298 -4.01181 0.869701 0
M  V30 741 H 70.5908 -3.13964 0.0925884 0
M  V30 742 H 69.7838 -4.65677 1.92771 0
M  V30 743 H 69.3858 -2.96034 2.28561 0
M  V30 744 H 71.6778 -6.02656 3.09534 0
M  V30 745 H 72.6208 -5.45902 4.50995 0
M  V30 746 H 73.0288 -4.85771 2.87554 0
M  V30 747 N 72.4269 -1.23603 -0.977757 0
M  V30 748 C 73.6519 -1.09735 -1.75991 0
M  V30 749 C 74.0769 0.346858 -1.84874 0
M  V30 750 O 73.4349 1.25093 -1.3123 0
M  V30 751 C 73.4829 -1.73051 -3.16363 0
M  V30 752 O 72.5869 -0.994452 -4.0023 0
M  V30 753 H 71.9279 -0.384476 -0.541364 0
M  V30 754 H 74.4579 -1.6371 -1.2272 0
M  V30 755 H 74.4679 -1.78398 -3.66931 0
M  V30 756 H 73.1429 -2.78137 -3.09213 0
M  V30 757 H 71.7199 -1.01812 -3.58732 0
M  V30 758 N 73.905 1.17692 -1.04816 0
M  V30 759 C 74.852 2.21581 -0.645797 0
M  V30 760 C 75.822 1.62367 0.350159 0
M  V30 761 O 77.007 1.89254 0.242433 0
M  V30 762 C 74.147 3.45092 -0.0227568 0
M  V30 763 C 73.26 4.18613 -1.06709 0
M  V30 764 C 72.395 5.29602 -0.411767 0
M  V30 765 C 71.434 5.94904 -1.44067 0
M  V30 766 N 70.571 6.97414 -0.809781 0
M  V30 767 H 75.411 2.55353 -1.5362 0
M  V30 768 H 72.948 1.25438 -0.768364 0
M  V30 769 H 74.906 4.15679 0.35588 0
M  V30 770 H 73.536 3.11917 0.831122 0
M  V30 771 H 72.588 3.46779 -1.5636 0
M  V30 772 H 73.9 4.63293 -1.84827 0
M  V30 773 H 73.054 6.06696 0.0206623 0
M  V30 774 H 71.793 4.86045 0.401438 0
M  V30 775 H 70.798 5.16544 -1.88316 0
M  V30 776 H 72.023 6.40542 -2.25571 0
M  V30 777 H 69.969 6.55998 -0.0170186 0
M  V30 778 H 69.886 7.40386 -1.52856 0
M  V30 779 H 71.154 7.78463 -0.401999 0
M  V30 780 N 75.3831 0.828654 1.34056 0
M  V30 781 C 76.6601 0.341809 1.9259 0
M  V30 782 C 77.0401 -1.17158 1.75605 0
M  V30 783 O 76.3881 -1.98132 1.13824 0
M  V30 784 C 76.5981 0.777453 3.4023 0
M  V30 785 C 77.9461 0.779579 4.17382 0
M  V30 786 O 78.9701 0.7204 3.48839 0
M  V30 787 O 77.8291 0.857996 5.39723 0
M  V30 788 H 74.9231 0.0946085 0.821571 0
M  V30 789 H 77.4691 0.913827 1.42994 0
M  V30 790 H 76.2411 1.8196 3.46419 0
M  V30 791 H 75.8641 0.181444 3.97186 0
M  V30 792 N 76.8612 -1.46375 0.584142 0
M  V30 793 C 77.7942 -2.27351 -0.196676 0
M  V30 794 C 78.7722 -1.35715 -0.895561 0
M  V30 795 O 79.9562 -1.65126 -0.90916 0
M  V30 796 C 77.0832 -3.13486 -1.28235 0
M  V30 797 C 76.1292 -4.20896 -0.689145 0
M  V30 798 S 76.9622 -5.33299 0.48507 0
M  V30 799 C 78.1182 -6.23 -0.601767 0
M  V30 800 H 78.3512 -2.93228 0.490395 0
M  V30 801 H 75.8842 -1.49875 0.371071 0
M  V30 802 H 77.8422 -3.63676 -1.90395 0
M  V30 803 H 76.5032 -2.4692 -1.94138 0
M  V30 804 H 75.6962 -4.80997 -1.50527 0
M  V30 805 H 75.2982 -3.73726 -0.143181 0
M  V30 806 H 77.5902 -6.60979 -1.48705 0
M  V30 807 H 78.5332 -7.0809 -0.0374799 0
M  V30 808 H 78.9412 -5.57173 -0.906557 0
M  V30 809 N 78.3393 -0.321999 -1.54275 0
M  V30 810 C 79.5693 0.282642 -2.04658 0
M  V30 811 C 79.9773 1.46453 -1.19784 0
M  V30 812 O 79.3203 1.82367 -0.220932 0
M  V30 813 C 79.3823 0.781857 -3.50895 0
M  V30 814 C 79.0463 -0.277517 -4.56157 0
M  V30 815 C 80.0433 -1.11307 -5.07845 0
M  V30 816 C 77.7283 -0.425256 -5.00497 0
M  V30 817 C 79.7223 -2.08211 -6.02434 0
M  V30 818 C 77.4093 -1.39771 -5.94901 0
M  V30 819 C 78.4073 -2.2246 -6.45756 0
M  V30 820 O 78.0953 -3.18054 -7.38307 0
M  V30 821 H 77.8273 0.0622636 -0.673126 0
M  V30 822 H 80.3813 -0.465792 -2.00049 0
M  V30 823 H 78.6113 1.58118 -3.52896 0
M  V30 824 H 80.3003 1.30467 -3.84361 0
M  V30 825 H 81.0663 -1.00991 -4.74369 0
M  V30 826 H 76.9453 0.20847 -4.60528 0
M  V30 827 H 80.4893 -2.72791 -6.42052 0
M  V30 828 H 76.3863 -1.50152 -6.27794 0
M  V30 829 H 77.1543 -3.13275 -7.56175 0
M  V30 830 N 79.8174 1.5752 -0.0501392 0
M  V30 831 C 80.7494 2.08413 0.95376 0
M  V30 832 C 81.7624 1.01175 1.27544 0
M  V30 833 O 82.9514 1.28744 1.23641 0
M  V30 834 C 80.0514 2.51138 2.27559 0
M  V30 835 C 79.2244 3.817 2.13598 0
M  V30 836 C 78.2834 4.10749 3.28895 0
M  V30 837 O 77.3094 4.80685 3.04845 0
M  V30 838 N 78.5114 3.62579 4.5334 0
M  V30 839 H 81.2764 2.95165 0.519383 0
M  V30 840 H 78.8374 1.61327 0.136127 0
M  V30 841 H 80.8294 2.67648 3.03557 0
M  V30 842 H 79.3994 1.6964 2.62567 0
M  V30 843 H 78.6194 3.74782 1.22197 0
M  V30 844 H 79.9074 4.67201 2.01496 0
M  V30 845 H 79.3054 3.06039 4.75769 0
M  V30 846 H 77.8624 3.84329 5.26436 0
M  V30 847 N 81.2955 -0.223234 1.56011 0
M  V30 848 C 82.5445 -0.945912 1.78144 0
M  V30 849 C 82.8575 -1.85567 0.618396 0
M  V30 850 O 84.0635 -2.61688 0.723318 0
M  V30 851 C 82.5195 -1.73216 3.15475 0
M  V30 852 C 82.1275 -0.868619 4.39499 0
M  V30 853 C 83.8715 -2.44615 3.46935 0
M  V30 854 C 81.7785 -1.65212 5.67855 0
M  V30 855 H 80.7085 -0.356929 0.664167 0
M  V30 856 H 83.3595 -0.199845 1.82409 0
M  V30 857 H 81.7415 -2.52107 3.05382 0
M  V30 858 H 82.9155 -0.120366 4.60643 0
M  V30 859 H 81.2305 -0.26683 4.15544 0
M  V30 860 H 83.8275 -3.03732 4.40058 0
M  V30 861 H 84.1705 -3.17417 2.69355 0
M  V30 862 H 84.7035 -1.72715 3.58349 0
M  V30 863 H 81.4425 -0.967407 6.48322 0
M  V30 864 H 80.9625 -2.37503 5.50774 0
M  V30 865 H 82.6415 -2.21322 6.07968 0
M  V30 866 N 82.7736 -1.49793 -0.48987 0
M  V30 867 C 83.7066 -1.61898 -1.60823 0
M  V30 868 C 84.6846 -0.467651 -1.5573 0
M  V30 869 O 85.8686 -0.684682 -1.75626 0
M  V30 870 C 82.9956 -1.58422 -2.99366 0
M  V30 871 C 82.0416 -2.78889 -3.22682 0
M  V30 872 S 82.8746 -4.40429 -3.04602 0
M  V30 873 C 84.0306 -4.39617 -4.4552 0
M  V30 874 H 84.2636 -2.56502 -1.50312 0
M  V30 875 H 81.7966 -1.38822 -0.675849 0
M  V30 876 H 83.7546 -1.57103 -3.79248 0
M  V30 877 H 82.4156 -0.650866 -3.07283 0
M  V30 878 H 81.6086 -2.72708 -4.23847 0
M  V30 879 H 81.2106 -2.77678 -2.50541 0
M  V30 880 H 83.5026 -4.12022 -5.37814 0
M  V30 881 H 84.4456 -5.41097 -4.56749 0
M  V30 882 H 84.8536 -3.69554 -4.2672 0
M  V30 883 N 84.2517 0.741722 -1.39055 0
M  V30 884 C 85.5287 1.49252 -1.26425 0
M  V30 885 C 85.9087 2.10705 0.129144 0
M  V30 886 O 85.2567 1.98045 1.13976 0
M  V30 887 C 85.4667 2.54934 -2.38347 0
M  V30 888 C 86.8147 3.21506 -2.77343 0
M  V30 889 O 87.8387 2.65245 -2.37747 0
M  V30 890 O 86.6977 4.23294 -3.45665 0
M  V30 891 H 83.7917 0.662451 -0.495064 0
M  V30 892 H 86.3377 0.776121 -1.50912 0
M  V30 893 H 85.1097 2.07857 -3.31529 0
M  V30 894 H 84.7327 3.34141 -2.15489 0
M  V30 895 N 85.7298 1.2412 0.971189 0
M  V30 896 C 86.6398 1.04747 2.09917 0
M  V30 897 C 87.6558 -0.0107162 1.73997 0
M  V30 898 O 88.8318 0.186714 2.00533 0
M  V30 899 C 85.8968 0.650828 3.40537 0
M  V30 900 C 84.9578 1.7851 3.90426 0
M  V30 901 C 84.1908 1.40729 5.14812 0
M  V30 902 O 84.4138 0.29557 5.69634 0
M  V30 903 O 83.3478 2.23168 5.58999 0
M  V30 904 H 87.1738 1.99304 2.29154 0
M  V30 905 H 84.7588 1.02908 1.08307 0
M  V30 906 H 86.6408 0.440992 4.19086 0
M  V30 907 H 85.3158 -0.265649 3.22608 0
M  V30 908 H 84.2228 2.04966 3.12953 0
M  V30 909 H 85.5558 2.68023 4.12825 0
M  V30 910 N 87.2079 -1.17134 1.05439 0
M  V30 911 C 88.4569 -1.86791 0.761049 0
M  V30 912 C 88.7699 -1.82072 -0.714795 0
M  V30 913 O 89.9759 -2.47223 -1.12218 0
M  V30 914 C 88.4319 -3.35166 1.31117 0
M  V30 915 C 88.0399 -3.48381 2.81664 0
M  V30 916 C 89.7839 -4.10134 1.09499 0
M  V30 917 C 87.6909 -4.90793 3.29964 0
M  V30 918 H 86.6209 -0.699681 0.281002 0
M  V30 919 H 89.2719 -1.3226 1.27199 0
M  V30 920 H 87.6539 -3.8925 0.72803 0
M  V30 921 H 88.8279 -3.04502 3.45855 0
M  V30 922 H 87.1429 -2.86836 3.01851 0
M  V30 923 H 89.7399 -5.152 1.43084 0
M  V30 924 H 90.0829 -4.16287 0.0328772 0
M  V30 925 H 90.6159 -3.62264 1.64346 0
M  V30 926 H 87.3549 -4.89816 4.35616 0
M  V30 927 H 86.8749 -5.35333 2.70516 0
M  V30 928 H 88.5539 -5.59573 3.24787 0
M  V30 929 N 88.686 -0.835752 -1.33615 0
M  V30 930 C 89.633 -0.26473 -2.29277 0
M  V30 931 C 90.603 0.617712 -1.54187 0
M  V30 932 O 91.788 0.556641 -1.825 0
M  V30 933 C 88.928 0.556777 -3.40579 0
M  V30 934 C 88.041 -0.349339 -4.30585 0
M  V30 935 C 87.176 0.482969 -5.29 0
M  V30 936 C 86.215 -0.421732 -6.10645 0
M  V30 937 N 85.352 0.372262 -7.01112 0
M  V30 938 H 90.192 -1.08582 -2.77514 0
M  V30 939 H 87.729 -0.546927 -1.36554 0
M  V30 940 H 89.687 1.04852 -4.03809 0
M  V30 941 H 88.317 1.34286 -2.93542 0
M  V30 942 H 87.369 -0.959372 -3.68104 0
M  V30 943 H 88.681 -1.04445 -4.87742 0
M  V30 944 H 87.835 1.03866 -5.97743 0
M  V30 945 H 86.574 1.21153 -4.72412 0
M  V30 946 H 85.579 -0.989464 -5.40823 0
M  V30 947 H 86.804 -1.14861 -6.69316 0
M  V30 948 H 84.75 1.08426 -6.46977 0
M  V30 949 H 84.667 -0.264198 -7.55538 0
M  V30 950 H 85.935 0.910293 -7.74167 0
M  V30 951 N 90.1641 1.46063 -0.591896 0
M  V30 952 C 91.0741 2.34192 0.13831 0
M  V30 953 C 92.0901 1.50305 0.876608 0
M  V30 954 O 93.2661 1.8315 0.837728 0
M  V30 955 C 90.3311 3.27656 1.13326 0
M  V30 956 C 89.3921 4.27445 0.39863 0
M  V30 957 C 88.6251 5.16443 1.34618 0
M  V30 958 O 88.8481 5.08553 2.58321 0
M  V30 959 O 87.7821 5.95843 0.851768 0
M  V30 960 H 91.6081 2.98002 -0.58552 0
M  V30 961 H 89.1931 1.45188 -0.352239 0
M  V30 962 H 91.0751 3.85291 1.70671 0
M  V30 963 H 89.7501 2.6643 1.83839 0
M  V30 964 H 88.6571 3.73471 -0.216895 0
M  V30 965 H 89.9901 4.91482 -0.265709 0
M  V30 966 N 91.6422 0.330177 1.54103 0
M  V30 967 C 92.8902 -0.269871 2.0029 0
M  V30 968 C 93.2112 -1.52133 1.21986 0
M  V30 969 O 92.4812 -1.93212 0.323438 0
M  V30 970 H 91.0612 -0.10271 0.739905 0
M  V30 971 H 93.7232 0.448249 1.89675 0
M  V30 972 H 92.8192 -0.52166 3.07709 0
M  V30 973 N 93.1203 -1.57491 0.0584922 0
M  V30 974 C 94.3693 -1.92155 -0.613146 0
M  V30 975 C 94.6823 -0.939334 -1.71569 0
M  V30 976 O 95.8883 -1.17829 -2.44599 0
M  V30 977 C 94.3443 -3.41303 -1.14195 0
M  V30 978 C 93.9523 -4.47944 -0.0711265 0
M  V30 979 C 95.6963 -3.84988 -1.78841 0
M  V30 980 C 93.6033 -5.88212 -0.613225 0
M  V30 981 H 92.5333 -0.717162 -0.232796 0
M  V30 982 H 95.1843 -1.83049 0.12857 0
M  V30 983 H 93.5663 -3.45437 -1.93621 0
M  V30 984 H 94.7403 -4.55408 0.702836 0
M  V30 985 H 93.0553 -4.13644 0.478313 0
M  V30 986 H 95.6523 -4.87159 -2.20408 0
M  V30 987 H 95.9953 -3.21632 -2.64308 0
M  V30 988 H 96.5283 -3.83401 -1.06059 0
M  V30 989 H 93.2673 -6.55183 0.203978 0
M  V30 990 H 92.7873 -5.84294 -1.35501 0
M  V30 991 H 94.4663 -6.37687 -1.09383 0
M  V30 992 N 94.5984 0.214957 -1.56127 0
M  V30 993 C 95.5304 1.29004 -1.89448 0
M  V30 994 C 96.5434 1.42716 -0.783326 0
M  V30 995 O 97.7324 1.43496 -1.06166 0
M  V30 996 C 94.8324 2.66482 -2.09381 0
M  V30 997 C 94.0054 2.74633 -3.40434 0
M  V30 998 C 93.0644 3.9317 -3.49719 0
M  V30 999 O 92.0904 3.812 -4.227 0
M  V30 1000 N 93.2924 5.07765 -2.81346 0
M  V30 1001 H 96.0574 1.00743 -2.82261 0
M  V30 1002 H 93.6184 0.40497 -1.56753 0
M  V30 1003 H 95.6104 3.44173 -2.12901 0
M  V30 1004 H 94.1804 2.87314 -1.23163 0
M  V30 1005 H 93.4004 1.83368 -3.48955 0
M  V30 1006 H 94.6884 2.77054 -4.26754 0
M  V30 1007 H 94.0864 5.20386 -2.21843 0
M  V30 1008 H 92.6434 5.83474 -2.90519 0
M  V30 1009 N 96.0765 1.50051 0.48192 0
M  V30 1010 C 97.3065 1.63999 1.2565 0
M  V30 1011 C 97.7145 0.318288 1.86504 0
M  V30 1012 O 97.0575 -0.708534 1.69486 0
M  V30 1013 C 97.1195 2.66504 2.4128 0
M  V30 1014 C 96.7835 4.10352 2.01148 0
M  V30 1015 C 97.7805 4.96562 1.54021 0
M  V30 1016 C 95.4655 4.56203 2.10199 0
M  V30 1017 C 97.4595 6.26668 1.16473 0
M  V30 1018 C 95.1465 5.86318 1.72264 0
M  V30 1019 C 96.1445 6.71375 1.25477 0
M  V30 1020 O 95.8325 7.99062 0.880626 0
M  V30 1021 H 95.5645 0.55456 0.386574 0
M  V30 1022 H 98.1185 1.96954 0.582944 0
M  V30 1023 H 96.3485 2.28769 3.11772 0
M  V30 1024 H 98.0375 2.69783 3.03268 0
M  V30 1025 H 98.8035 4.62358 1.46458 0
M  V30 1026 H 94.6825 3.90152 2.45566 0
M  V30 1027 H 98.2265 6.93011 0.798841 0
M  V30 1028 H 94.1235 6.20046 1.79482 0
M  V30 1029 H 94.8915 8.12239 1.01043 0
M  V30 1030 N 97.5546 -0.734337 1.39446 0
M  V30 1031 C 98.8006 -1.49613 1.36908 0
M  V30 1032 C 99.1336 -1.94169 -0.0347829 0
M  V30 1033 O 98.4086 -1.66833 -0.999847 0
M  V30 1034 C 98.6916 -2.73534 2.34203 0
M  V30 1035 C 98.5446 -2.34993 3.83534 0
M  V30 1036 C 99.8636 -3.75635 2.29317 0
M  V30 1037 H 96.9826 -0.542714 0.498629 0
M  V30 1038 H 99.6246 -0.839597 1.70443 0
M  V30 1039 H 97.7746 -3.29553 2.05736 0
M  V30 1040 H 99.4466 -1.84601 4.22753 0
M  V30 1041 H 97.6896 -1.67213 4.00278 0
M  V30 1042 H 98.3606 -3.23738 4.47099 0
M  V30 1043 H 100.837 -3.29203 2.54489 0
M  V30 1044 H 99.7126 -4.60008 2.99472 0
M  V30 1045 H 99.9736 -4.22603 1.29842 0
M  V30 1046 N 99.0327 -1.24633 -0.964593 0
M  V30 1047 C 100.28 -1.08788 -1.70796 0
M  V30 1048 C 100.608 0.372783 -1.90894 0
M  V30 1049 O 99.8627 1.29167 -1.47018 0
M  V30 1050 C 100.162 -1.7763 -3.10133 0
M  V30 1051 C 99.8277 -3.27557 -3.09866 0
M  V30 1052 C 98.4897 -3.6846 -3.09501 0
M  V30 1053 C 100.842 -4.23389 -3.03959 0
M  V30 1054 C 98.1697 -5.03624 -3.00965 0
M  V30 1055 C 100.522 -5.58565 -2.96965 0
M  V30 1056 C 99.1857 -5.98809 -2.9493 0
M  V30 1057 H 98.4557 -0.398084 -0.624988 0
M  V30 1058 H 101.103 -1.54777 -1.12767 0
M  V30 1059 H 99.4077 -1.24044 -3.71645 0
M  V30 1060 H 101.105 -1.62832 -3.66451 0
M  V30 1061 H 97.6947 -2.95006 -3.10917 0
M  V30 1062 H 101.879 -3.92787 -3.03368 0
M  V30 1063 H 97.1347 -5.33998 -2.97752 0
M  V30 1064 H 101.309 -6.32523 -2.91354 0
M  V30 1065 H 98.9357 -7.03505 -2.88071 0
M  V30 1066 N 100.511 1.16574 -1.06058 0
M  V30 1067 C 101.443 2.2045 -0.627239 0
M  V30 1068 C 102.456 1.59752 0.313534 0
M  V30 1069 O 103.645 1.78192 0.104896 0
M  V30 1070 C 100.745 3.3875 0.100974 0
M  V30 1071 C 99.9178 4.29008 -0.852687 0
M  V30 1072 C 98.9768 5.25944 -0.164152 0
M  V30 1073 O 98.0028 5.63535 -0.801047 0
M  V30 1074 N 99.2048 5.70075 1.09518 0
M  V30 1075 H 101.97 2.58249 -1.52077 0
M  V30 1076 H 99.5308 1.3156 -0.943594 0
M  V30 1077 H 101.523 4.00638 0.57194 0
M  V30 1078 H 100.093 2.99476 0.89628 0
M  V30 1079 H 99.3128 3.64419 -1.50308 0
M  V30 1080 H 100.601 4.86195 -1.49972 0
M  V30 1081 H 99.9988 5.41624 1.6328 0
M  V30 1082 H 98.5558 6.34067 1.51006 0
M  V30 1083 N 101.989 0.842826 1.3317 0
M  V30 1084 C 103.217 0.454055 2.01856 0
M  V30 1085 C 103.632 -0.94587 1.63397 0
M  V30 1086 O 102.989 -1.61534 0.849302 0
M  V30 1087 C 103.04 0.569715 3.56982 0
M  V30 1088 O 102.761 1.91448 3.94055 0
M  V30 1089 C 104.262 0.178412 4.42941 0
M  V30 1090 H 101.482 0.17979 0.646465 0
M  V30 1091 H 104.026 1.1365 1.70012 0
M  V30 1092 H 102.181 -0.0648587 3.87346 0
M  V30 1093 H 102.595 1.90282 4.88767 0
M  V30 1094 H 104.069 0.310376 5.51127 0
M  V30 1095 H 104.546 -0.880056 4.30293 0
M  V30 1096 H 105.152 0.787579 4.17944 0
M  V30 1097 N 103.467 -1.45747 0.599634 0
M  V30 1098 C 104.883 -1.57424 0.26264 0
M  V30 1099 C 105.083 -1.59222 -1.23493 0
M  V30 1100 O 104.139 -1.51825 -2.01756 0
M  V30 1101 C 105.452 -2.86061 0.926795 0
M  V30 1102 C 107 -2.99722 0.901967 0
M  V30 1103 C 107.475 -4.31119 1.54598 0
M  V30 1104 N 108.966 -4.37858 1.5111 0
M  V30 1105 C 109.701 -5.3818 1.97863 0
M  V30 1106 N 109.197 -6.45083 2.52666 0
M  V30 1107 N 110.99 -5.29487 1.88679 0
M  V30 1108 H 103.141 -1.42823 1.57211 0
M  V30 1109 H 105.404 -0.68235 0.658105 0
M  V30 1110 H 105.11 -2.90605 1.98095 0
M  V30 1111 H 104.984 -3.74563 0.445238 0
M  V30 1112 H 107.371 -2.9475 -0.143617 0
M  V30 1113 H 107.452 -2.12652 1.42171 0
M  V30 1114 H 107.096 -4.36849 2.59085 0
M  V30 1115 H 107.026 -5.16992 1.00132 0
M  V30 1116 H 109.517 -3.61209 1.11068 0
M  V30 1117 H 109.83 -7.17869 2.86155 0
M  V30 1118 H 108.175 -6.45856 2.56701 0
M  V30 1119 H 111.366 -4.44877 1.4561 0
M  V30 1120 H 111.539 -6.07524 2.25429 0
M  V30 1121 N 104.945 -0.338344 -1.53925 0
M  V30 1122 C 105.893 0.536231 -2.26335 0
M  V30 1123 C 106.887 1.1063 -1.28286 0
M  V30 1124 O 108.093 1.05264 -1.46012 0
M  V30 1125 H 104.468 0.191602 -0.727181 0
M  V30 1126 H 106.439 -0.0965747 -2.98244 0
M  V30 1127 C 105.188 1.67803 -3.04528 0
M  V30 1128 H 104.511 1.24864 -3.79801 0
M  V30 1129 H 105.951 2.26526 -3.58416 0
M  V30 1130 C 104.41 2.60439 -2.13712 0
M  V30 1131 O 104.94 3.6255 -1.72975 0
M  V30 1132 N 103.146 2.29006 -1.78898 0
M  V30 1133 H 102.693 1.46011 -2.12223 0
M  V30 1134 H 102.651 2.91248 -1.18416 0
M  V30 1135 N 106.423 1.57458 -0.0668435 0
M  V30 1136 C 107.834 1.80776 0.466558 0
M  V30 1137 C 108.185 0.980361 1.69951 0
M  V30 1138 O 107.31 0.201441 2.1546 0
M  V30 1139 C 107.905 3.27881 0.85321 0
M  V30 1140 C 106.464 3.52062 1.3315 0
M  V30 1141 C 105.611 2.75513 0.314264 0
M  V30 1142 H 108.562 1.5598 -0.292588 0
M  V30 1143 H 108.583 3.39659 1.715 0
M  V30 1144 H 108.095 3.88075 -0.0443439 0
M  V30 1145 H 106.196 2.97167 2.24772 0
M  V30 1146 H 106.309 4.60762 1.31285 0
M  V30 1147 H 104.673 2.42123 0.790492 0
M  V30 1148 H 105.456 3.38442 -0.575477 0
M  V30 1149 N 107.901 -0.206675 1.56239 0
M  V30 1150 C 108.831 -1.25909 1.96645 0
M  V30 1151 C 109.812 -1.48097 0.836734 0
M  V30 1152 O 110.997 -1.6003 1.10019 0
M  V30 1153 C 108.127 -2.6058 2.29599 0
M  V30 1154 C 107.081 -2.53024 3.452 0
M  V30 1155 C 106.407 -3.91861 3.63798 0
M  V30 1156 C 107.707 -2.06524 4.79734 0
M  V30 1157 H 109.401 -0.923369 2.84806 0
M  V30 1158 H 106.947 -0.442735 1.37025 0
M  V30 1159 H 108.9 -3.34375 2.56459 0
M  V30 1160 H 107.624 -2.95869 1.38307 0
M  V30 1161 H 106.283 -1.81684 3.18412 0
M  V30 1162 H 105.931 -4.24483 2.69857 0
M  V30 1163 H 105.631 -3.87683 4.4156 0
M  V30 1164 H 107.155 -4.67296 3.93022 0
M  V30 1165 H 108.569 -2.70072 5.05702 0
M  V30 1166 H 106.966 -2.13374 5.60885 0
M  V30 1167 H 108.036 -1.01802 4.74093 0
M  V30 1168 N 109.379 -1.50304 -0.473955 0
M  V30 1169 C 110.607 -1.64902 -1.24959 0
M  V30 1170 C 111.022 -0.331198 -1.85872 0
M  V30 1171 O 110.379 0.68652 -1.69095 0
M  V30 1172 C 110.43 -2.73803 -2.36038 0
M  V30 1173 O 110.151 -4.00477 -1.77624 0
M  V30 1174 C 111.652 -2.99349 -3.26964 0
M  V30 1175 H 108.872 -0.554383 -0.378022 0
M  V30 1176 H 111.416 -1.9651 -0.566054 0
M  V30 1177 H 109.571 -2.44898 -3.00173 0
M  V30 1178 H 109.985 -4.60678 -2.5075 0
M  V30 1179 H 111.459 -3.79217 -4.01121 0
M  V30 1180 H 111.936 -2.10307 -3.85574 0
M  V30 1181 H 112.542 -3.29774 -2.68569 0
M  V30 1182 N 110.857 0.726932 -1.39834 0
M  V30 1183 C 111.787 1.85405 -1.41941 0
M  V30 1184 C 112.768 1.67751 -0.281728 0
M  V30 1185 O 113.953 1.8795 -0.488717 0
M  V30 1186 C 111.083 3.23243 -1.2701 0
M  V30 1187 C 110.037 3.55549 -2.38262 0
M  V30 1188 C 109.363 4.9241 -2.08415 0
M  V30 1189 C 110.663 3.577 -3.80589 0
M  V30 1190 H 112.357 1.83899 -2.36266 0
M  V30 1191 H 109.903 0.883349 -1.13723 0
M  V30 1192 H 111.856 4.01775 -1.27103 0
M  V30 1193 H 110.58 3.25296 -0.291564 0
M  V30 1194 H 109.239 2.79351 -2.37399 0
M  V30 1195 H 108.887 4.91052 -1.0898 0
M  V30 1196 H 108.587 5.14992 -2.82943 0
M  V30 1197 H 110.111 5.73289 -2.10171 0
M  V30 1198 H 111.525 4.26293 -3.83337 0
M  V30 1199 H 109.922 3.91804 -4.54543 0
M  V30 1200 H 110.992 2.57328 -4.10987 0
M  V30 1201 N 112.336 1.25143 0.95797 0
M  V30 1202 C 113.582 1.09855 1.70469 0
M  V30 1203 C 113.915 -0.360187 1.90831 0
M  V30 1204 O 113.19 -1.26568 1.47685 0
M  V30 1205 C 113.473 1.8497 3.08963 0
M  V30 1206 C 113.326 3.38652 2.96032 0
M  V30 1207 C 114.645 1.63016 4.08795 0
M  V30 1208 H 111.764 0.400465 0.618706 0
M  V30 1209 H 114.406 1.53933 1.11376 0
M  V30 1210 H 112.556 1.47505 3.59409 0
M  V30 1211 H 114.228 3.85772 2.52938 0
M  V30 1212 H 112.471 3.66534 2.32025 0
M  V30 1213 H 113.142 3.8642 3.94187 0
M  V30 1214 H 115.618 1.95625 3.67247 0
M  V30 1215 H 114.494 2.18015 5.03747 0
M  V30 1216 H 114.755 0.570692 4.38401 0
M  V30 1217 N 113.814 -1.1601 1.06675 0
M  V30 1218 C 115.063 -1.85973 0.780818 0
M  V30 1219 C 115.376 -1.82819 -0.695444 0
M  V30 1220 O 116.582 -2.484 -1.09589 0
M  V30 1221 C 115.038 -3.33757 1.34665 0
M  V30 1222 C 114.646 -3.45374 2.85343 0
M  V30 1223 C 116.39 -4.0895 1.13843 0
M  V30 1224 C 114.297 -4.87266 3.35151 0
M  V30 1225 H 113.227 -0.696661 0.288407 0
M  V30 1226 H 115.878 -1.30903 1.28595 0
M  V30 1227 H 114.26 -3.88456 0.769274 0
M  V30 1228 H 115.434 -3.00816 3.49065 0
M  V30 1229 H 113.749 -2.83619 3.04876 0
M  V30 1230 H 116.346 -5.13654 1.4854 0
M  V30 1231 H 116.689 -4.16229 0.0770282 0
M  V30 1232 H 117.222 -3.605 1.68179 0
M  V30 1233 H 113.961 -4.85168 4.40786 0
M  V30 1234 H 113.481 -5.32433 2.76179 0
M  V30 1235 H 115.16 -5.56097 3.30704 0
M  V30 1236 N 115.292 -0.849877 -1.32721 0
M  V30 1237 C 116.517 -0.463856 -2.02146 0
M  V30 1238 C 116.942 0.930449 -1.63476 0
M  V30 1239 O 116.3 1.61033 -0.832952 0
M  V30 1240 C 116.348 -0.604955 -3.55489 0
M  V30 1241 O 115.452 0.36425 -4.10788 0
M  V30 1242 H 114.793 -0.187046 -0.637111 0
M  V30 1243 H 117.323 -1.14775 -1.69375 0
M  V30 1244 H 117.333 -0.490696 -4.05038 0
M  V30 1245 H 116.008 -1.62174 -3.82978 0
M  V30 1246 H 114.585 0.206628 -3.72327 0
M  V30 1247 N 116.77 1.45427 -0.607355 0
M  V30 1248 C 118.018 2.01841 -0.102253 0
M  V30 1249 C 118.339 1.47832 1.27164 0
M  V30 1250 O 117.609 0.672497 1.83995 0
M  V30 1251 H 116.189 0.746188 -0.0348101 0
M  V30 1252 H 118.851 1.78229 -0.7887 0
M  V30 1253 H 117.947 3.12057 -0.0518585 0
M  V30 1254 N 118.248 0.346503 1.53744 0
M  V30 1255 C 119.473 -0.253074 2.0585 0
M  V30 1256 C 119.898 -1.43202 1.21962 0
M  V30 1257 O 119.256 -1.79783 0.234073 0
M  V30 1258 C 119.304 -0.643193 3.54817 0
M  V30 1259 O 118.408 -1.74286 3.73762 0
M  V30 1260 H 117.749 -0.0413583 0.662711 0
M  V30 1261 H 120.279 0.501574 1.98357 0
M  V30 1262 H 120.289 -0.919526 3.97503 0
M  V30 1263 H 118.964 0.218966 4.15323 0
M  V30 1264 H 117.541 -1.46356 3.42979 0
M  V30 1265 N 119.726 -1.57421 0.075193 0
M  V30 1266 C 120.974 -1.93236 -0.591974 0
M  V30 1267 C 121.295 -0.956241 -1.69944 0
M  V30 1268 O 120.565 -0.00494792 -1.95899 0
M  V30 1269 H 119.145 -0.713355 -0.22166 0
M  V30 1270 H 121.807 -1.9444 0.133848 0
M  V30 1271 H 120.903 -2.95131 -1.01509 0
M  V30 1272 N 121.204 0.198386 -1.56346 0
M  V30 1273 C 122.154 1.2499 -1.90687 0
M  V30 1274 C 123.138 1.41158 -0.772217 0
M  V30 1275 O 124.33 1.43584 -1.03502 0
M  V30 1276 C 121.459 2.59542 -2.24706 0
M  V30 1277 C 120.545 2.47181 -3.44619 0
M  V30 1278 N 120.936 2.04495 -4.62618 0
M  V30 1279 C 119.234 2.78082 -3.48692 0
M  V30 1280 C 119.935 2.03945 -5.44776 0
M  V30 1281 N 118.911 2.45323 -4.85095 0
M  V30 1282 H 122.713 0.911149 -2.7942 0
M  V30 1283 H 120.227 0.40684 -1.57221 0
M  V30 1284 H 122.224 3.3549 -2.47491 0
M  V30 1285 H 120.884 2.94244 -1.37298 0
M  V30 1286 H 121.895 1.75256 -4.87345 0
M  V30 1287 H 118.572 3.17002 -2.71691 0
M  V30 1288 H 119.962 1.72872 -6.4928 0
M  V30 1289 N 122.682 1.50554 0.465978 0
M  V30 1290 C 123.922 1.63439 1.22747 0
M  V30 1291 C 124.286 0.329822 1.89146 0
M  V30 1292 O 125.487 0.334161 2.66715 0
M  V30 1293 C 123.758 2.78542 2.2394 0
M  V30 1294 S 125.317 3.11591 3.0896 0
M  V30 1295 H 122.135 0.576113 0.416672 0
M  V30 1296 H 124.737 1.88357 0.523641 0
M  V30 1297 H 123.441 3.71805 1.7375 0
M  V30 1298 H 122.972 2.55726 2.98944 0
M  V30 1299 H 124.987 2.55811 4.25176 0
M  V30 1300 N 124.16 -0.719506 1.40217 0
M  V30 1301 C 125.123 -1.8153 1.39927 0
M  V30 1302 C 126.123 -1.58095 0.293723 0
M  V30 1303 O 127.313 -1.65209 0.552429 0
M  V30 1304 C 124.445 -3.19561 1.18716 0
M  V30 1305 H 125.638 -1.83186 2.37451 0
M  V30 1306 H 123.191 -0.924746 1.26008 0
M  V30 1307 H 123.926 -3.23557 0.219366 0
M  V30 1308 H 123.711 -3.3797 1.98793 0
M  V30 1309 H 125.201 -3.99598 1.21291 0
M  V30 1310 N 125.638 -1.25649 -0.95132 0
M  V30 1311 C 126.568 -1.08808 -2.06599 0
M  V30 1312 C 127.549 0.00382547 -1.701 0
M  V30 1313 O 128.734 -0.166325 -1.93486 0
M  V30 1314 C 125.864 -0.709542 -3.39975 0
M  V30 1315 C 124.818 -1.75206 -3.90496 0
M  V30 1316 C 124.144 -1.22811 -5.20405 0
M  V30 1317 C 125.444 -3.15153 -4.16504 0
M  V30 1318 H 127.138 -2.02048 -2.20946 0
M  V30 1319 H 124.684 -0.972835 -1.06169 0
M  V30 1320 H 126.637 -0.578649 -4.17408 0
M  V30 1321 H 125.361 0.258556 -3.25575 0
M  V30 1322 H 124.02 -1.87145 -3.15234 0
M  V30 1323 H 123.668 -0.250145 -5.02378 0
M  V30 1324 H 123.368 -1.92492 -5.55176 0
M  V30 1325 H 124.892 -1.10968 -6.00432 0
M  V30 1326 H 126.306 -3.06349 -4.84586 0
M  V30 1327 H 124.703 -3.82333 -4.62538 0
M  V30 1328 H 125.773 -3.61966 -3.22658 0
M  V30 1329 N 127.117 1.15442 -1.07289 0
M  V30 1330 C 128.027 2.23786 -0.704057 0
M  V30 1331 C 129.043 1.7166 0.284413 0
M  V30 1332 O 130.219 2.00972 0.131205 0
M  V30 1333 C 127.284 3.46535 -0.106792 0
M  V30 1334 C 126.345 4.13654 -1.14842 0
M  V30 1335 C 125.578 5.30544 -0.57956 0
M  V30 1336 O 125.801 5.67187 0.604585 0
M  V30 1337 O 124.735 5.87154 -1.32414 0
M  V30 1338 H 128.561 2.57664 -1.60757 0
M  V30 1339 H 126.146 1.23152 -0.845803 0
M  V30 1340 H 128.028 4.20804 0.224048 0
M  V30 1341 H 126.703 3.14407 0.770049 0
M  V30 1342 H 125.61 3.4131 -1.5316 0
M  V30 1343 H 126.943 4.49861 -1.99714 0
M  V30 1344 N 128.595 0.856903 1.32268 0
M  V30 1345 C 129.558 0.308171 2.27119 0
M  V30 1346 C 130.558 -0.533421 1.51695 0
M  V30 1347 O 131.748 -0.344607 1.70757 0
M  V30 1348 C 128.88 -0.563757 3.36206 0
M  V30 1349 H 130.073 1.14535 2.77167 0
M  V30 1350 H 127.626 0.631421 1.42978 0
M  V30 1351 H 128.361 -1.42266 2.91429 0
M  V30 1352 H 128.146 0.0386749 3.92081 0
M  V30 1353 H 129.636 -0.940386 4.06874 0
M  V30 1354 N 130.073 -1.45103 0.615059 0
M  V30 1355 C 131.036 -2.29025 -0.0895485 0
M  V30 1356 C 132.036 -1.40174 -0.787906 0
M  V30 1357 O 133.226 -1.62217 -0.634933 0
M  V30 1358 C 130.358 -3.21376 -1.13711 0
M  V30 1359 H 131.551 -2.92807 0.648382 0
M  V30 1360 H 129.104 -1.51749 0.374444 0
M  V30 1361 H 129.839 -2.6241 -1.90556 0
M  V30 1362 H 129.624 -3.86834 -0.640475 0
M  V30 1363 H 131.114 -3.84459 -1.63036 0
M  V30 1364 N 131.551 -0.354651 -1.53558 0
M  V30 1365 C 132.481 0.489091 -2.2832 0
M  V30 1366 C 133.462 1.09324 -1.30316 0
M  V30 1367 O 134.647 1.11255 -1.59173 0
M  V30 1368 C 131.777 1.63456 -3.0643 0
M  V30 1369 C 130.731 1.1582 -4.12031 0
M  V30 1370 C 130.057 2.39305 -4.7816 0
M  V30 1371 C 131.357 0.250731 -5.21698 0
M  V30 1372 H 133.051 -0.134614 -2.99097 0
M  V30 1373 H 130.597 -0.0661826 -1.43848 0
M  V30 1374 H 132.55 2.23136 -3.57475 0
M  V30 1375 H 131.274 2.28533 -2.33325 0
M  V30 1376 H 129.933 0.584146 -3.61916 0
M  V30 1377 H 129.581 3.02814 -4.01637 0
M  V30 1378 H 129.281 2.08109 -5.49513 0
M  V30 1379 H 130.805 2.99691 -5.31994 0
M  V30 1380 H 132.219 0.754695 -5.68311 0
M  V30 1381 H 130.616 0.0301468 -6.00092 0
M  V30 1382 H 131.686 -0.710125 -4.79672 0
M  V30 1383 N 133.029 1.57378 -0.0835403 0
M  V30 1384 C 134.275 1.94217 0.583733 0
M  V30 1385 C 134.608 0.964653 1.68547 0
M  V30 1386 O 133.883 -0.00422258 1.945 0
M  V30 1387 C 134.166 3.41253 1.14972 0
M  V30 1388 C 134.019 4.49768 0.0538277 0
M  V30 1389 C 135.338 3.89352 2.05166 0
M  V30 1390 H 132.457 0.706233 0.210724 0
M  V30 1391 H 135.099 1.89392 -0.1519 0
M  V30 1392 H 133.249 3.45496 1.77665 0
M  V30 1393 H 134.921 4.57641 -0.579851 0
M  V30 1394 H 133.164 4.29432 -0.614068 0
M  V30 1395 H 133.835 5.49817 0.490452 0
M  V30 1396 H 136.311 3.87189 1.52393 0
M  V30 1397 H 135.187 4.92822 2.41698 0
M  V30 1398 H 135.448 3.27973 2.96456 0
M  V30 1399 N 134.507 -0.190092 1.56449 0
M  V30 1400 C 135.455 -1.25501 1.95837 0
M  V30 1401 C 136.449 -1.4685 0.844485 0
M  V30 1402 O 137.655 -1.47651 1.02952 0
M  V30 1403 H 134.03 -0.421447 0.622805 0
M  V30 1404 H 136.001 -0.895821 2.84636 0
M  V30 1405 C 134.75 -2.59124 2.31841 0
M  V30 1406 H 134.073 -2.43514 3.17082 0
M  V30 1407 H 135.513 -3.32371 2.6326 0
M  V30 1408 C 133.972 -3.16488 1.15486 0
M  V30 1409 O 134.502 -3.99365 0.432535 0
M  V30 1410 N 132.708 -2.75305 0.930349 0
M  V30 1411 H 132.255 -2.08013 1.51948 0
M  V30 1412 H 132.213 -3.14024 0.153634 0
M  V30 1413 N 135.985 -1.50799 -0.457987 0
M  V30 1414 C 137.231 -1.62683 -1.21088 0
M  V30 1415 C 137.564 -0.332268 -1.91336 0
M  V30 1416 O 136.839 0.667043 -1.82704 0
M  V30 1417 C 137.122 -2.81615 -2.24422 0
M  V30 1418 C 136.975 -4.20989 -1.58392 0
M  V30 1419 C 138.294 -2.96085 -3.2561 0
M  V30 1420 H 135.413 -0.592087 -0.438864 0
M  V30 1421 H 138.055 -1.83225 -0.50286 0
M  V30 1422 H 136.205 -2.64231 -2.84806 0
M  V30 1423 H 137.877 -4.49994 -1.01504 0
M  V30 1424 H 136.12 -4.24641 -0.886704 0
M  V30 1425 H 136.791 -5.0016 -2.33547 0
M  V30 1426 H 139.267 -3.12042 -2.75262 0
M  V30 1427 H 138.143 -3.80902 -3.95228 0
M  V30 1428 H 138.404 -2.0726 -3.90507 0
M  V30 1429 N 137.463 0.71206 -1.40597 0
M  V30 1430 C 138.393 1.83889 -1.43899 0
M  V30 1431 C 139.374 1.67442 -0.299504 0
M  V30 1432 O 140.559 1.87421 -0.508624 0
M  V30 1433 C 137.689 3.21877 -1.30431 0
M  V30 1434 C 136.643 3.53002 -2.42019 0
M  V30 1435 C 135.969 4.90172 -2.13626 0
M  V30 1436 C 137.269 3.53643 -3.84362 0
M  V30 1437 H 138.963 1.81383 -2.38203 0
M  V30 1438 H 136.509 0.871237 -1.14654 0
M  V30 1439 H 138.462 4.00404 -1.31357 0
M  V30 1440 H 137.186 3.24968 -0.326049 0
M  V30 1441 H 135.845 2.76818 -2.40349 0
M  V30 1442 H 135.493 4.89869 -1.14182 0
M  V30 1443 H 135.193 5.11962 -2.88389 0
M  V30 1444 H 136.717 5.71028 -2.1624 0
M  V30 1445 H 138.131 4.22203 -3.87837 0
M  V30 1446 H 136.528 3.86961 -4.58673 0
M  V30 1447 H 137.598 2.52954 -4.13693 0
M  V30 1448 N 138.941 1.26152 0.944643 0
M  V30 1449 C 139.851 1.09176 2.07648 0
M  V30 1450 C 140.867 0.0261935 1.7398 0
M  V30 1451 O 142.043 0.229208 2.00091 0
M  V30 1452 C 139.108 0.722915 3.39079 0
M  V30 1453 C 138.169 1.86752 3.86552 0
M  V30 1454 C 137.402 1.51617 5.11711 0
M  V30 1455 O 137.625 0.416331 5.68879 0
M  V30 1456 O 136.559 2.34975 5.54139 0
M  V30 1457 H 140.385 2.0412 2.24875 0
M  V30 1458 H 137.97 1.05182 1.061 0
M  V30 1459 H 139.852 0.529787 4.18056 0
M  V30 1460 H 138.527 -0.197159 3.23099 0
M  V30 1461 H 137.434 2.11558 3.08535 0
M  V30 1462 H 138.767 2.76719 4.07047 0
M  V30 1463 N 140.419 -1.14872 1.07899 0
M  V30 1464 C 141.83 -1.67367 0.827363 0
M  V30 1465 C 142.181 -1.85236 -0.646693 0
M  V30 1466 O 141.306 -1.55974 -1.50004 0
M  V30 1467 C 141.901 -3.04016 1.49532 0
M  V30 1468 C 140.46 -3.53566 1.29106 0
M  V30 1469 C 139.607 -2.29161 1.56143 0
M  V30 1470 H 142.558 -0.990083 1.24028 0
M  V30 1471 H 142.579 -3.69219 0.919643 0
M  V30 1472 H 142.091 -2.90978 2.56814 0
M  V30 1473 H 140.192 -3.71835 0.238713 0
M  V30 1474 H 140.305 -4.34661 2.01511 0
M  V30 1475 H 138.669 -2.34978 0.982717 0
M  V30 1476 H 139.452 -2.18705 2.64619 0
M  V30 1477 N 141.898 -0.863906 -1.31812 0
M  V30 1478 C 143.146 -0.470904 -1.96537 0
M  V30 1479 C 143.467 0.978771 -1.68657 0
M  V30 1480 O 142.737 1.6853 -0.998717 0
M  V30 1481 H 141.317 -0.171148 -0.72713 0
M  V30 1482 H 143.979 -1.10236 -1.60729 0
M  V30 1483 H 143.075 -0.623616 -3.05806 0
M  V30 1484 N 143.376 1.44774 -0.622745 0
M  V30 1485 C 144.653 1.95522 -0.0551974 0
M  V30 1486 C 145.033 1.5649 1.41683 0
M  V30 1487 O 144.381 0.834848 2.12703 0
M  V30 1488 C 144.591 3.4796 -0.269242 0
M  V30 1489 C 145.939 4.24306 -0.158014 0
M  V30 1490 O 146.963 3.55637 -0.200162 0
M  V30 1491 O 145.822 5.46471 -0.0558693 0
M  V30 1492 H 142.916 0.826556 0.0271015 0
M  V30 1493 H 145.462 1.54866 -0.693864 0
M  V30 1494 H 144.234 3.6939 -1.29099 0
M  V30 1495 H 143.857 3.95543 0.403966 0
M  V30 1496 N 144.854 0.36279 1.53368 0
M  V30 1497 C 146.079 -0.231226 2.06107 0
M  V30 1498 C 146.504 -1.419 1.23474 0
M  V30 1499 O 145.862 -1.79524 0.253128 0
M  V30 1500 C 145.91 -0.605523 3.5548 0
M  V30 1501 O 145.014 -1.70312 3.7559 0
M  V30 1502 H 144.355 -0.034327 0.663112 0
M  V30 1503 H 146.885 0.522584 1.97814 0
M  V30 1504 H 146.895 -0.877314 3.98456 0
M  V30 1505 H 145.57 0.263004 4.15068 0
M  V30 1506 H 144.147 -1.4271 3.44512 0
M  V30 1507 N 146.332 -1.57332 0.0918853 0
M  V30 1508 C 147.579 -1.94236 -0.572577 0
M  V30 1509 C 147.907 -0.973398 -1.6839 0
M  V30 1510 O 147.162 0.00756912 -1.95699 0
M  V30 1511 C 147.461 -3.37689 -1.17051 0
M  V30 1512 C 147.127 -4.50527 -0.183304 0
M  V30 1513 C 145.789 -4.81119 0.0882276 0
M  V30 1514 C 148.141 -5.18883 0.49095 0
M  V30 1515 C 145.469 -5.77395 1.04076 0
M  V30 1516 C 147.821 -6.1618 1.43193 0
M  V30 1517 C 146.485 -6.45179 1.71173 0
M  V30 1518 H 145.755 -0.710762 -0.209521 0
M  V30 1519 H 148.402 -1.9077 0.167036 0
M  V30 1520 H 146.707 -3.37718 -1.9863 0
M  V30 1521 H 148.404 -3.63543 -1.69227 0
M  V30 1522 H 144.994 -4.26681 -0.405124 0
M  V30 1523 H 149.178 -4.95427 0.294312 0
M  V30 1524 H 144.434 -5.98179 1.26457 0
M  V30 1525 H 148.608 -6.68243 1.96023 0
M  V30 1526 H 146.235 -7.1959 2.4514 0
M  V30 1527 N 147.81 0.181792 -1.56548 0
M  V30 1528 C 148.74 1.22765 -1.98623 0
M  V30 1529 C 149.721 1.46747 -0.860189 0
M  V30 1530 O 150.906 1.58259 -1.12551 0
M  V30 1531 C 148.036 2.56894 -2.33715 0
M  V30 1532 C 146.99 2.475 -3.49182 0
M  V30 1533 C 146.316 3.86023 -3.69986 0
M  V30 1534 C 147.616 1.98866 -4.82959 0
M  V30 1535 H 149.31 0.877942 -2.86239 0
M  V30 1536 H 146.856 0.42088 -1.37712 0
M  V30 1537 H 148.809 3.30253 -2.61746 0
M  V30 1538 H 147.533 2.93632 -1.42997 0
M  V30 1539 H 146.192 1.76596 -3.21262 0
M  V30 1540 H 145.84 4.20136 -2.76576 0
M  V30 1541 H 145.54 3.80609 -4.47672 0
M  V30 1542 H 147.064 4.60984 -4.00407 0
M  V30 1543 H 148.478 2.61992 -5.09934 0
M  V30 1544 H 146.875 2.04424 -5.64208 0
M  V30 1545 H 147.945 0.942465 -4.75653 0
M  V30 1546 N 149.288 1.51039 0.449983 0
M  V30 1547 C 150.534 1.63322 1.20223 0
M  V30 1548 C 150.867 0.34241 1.91158 0
M  V30 1549 O 150.142 -0.657344 1.83055 0
M  V30 1550 C 150.425 2.82801 2.22925 0
M  V30 1551 C 150.278 4.21823 1.56157 0
M  V30 1552 C 151.597 2.97807 3.24035 0
M  V30 1553 H 148.716 0.594407 0.435718 0
M  V30 1554 H 151.358 1.83489 0.493136 0
M  V30 1555 H 149.508 2.65738 2.834 0
M  V30 1556 H 151.18 4.50526 0.991162 0
M  V30 1557 H 149.423 4.25105 0.864172 0
M  V30 1558 H 150.094 5.01391 2.30891 0
M  V30 1559 H 152.57 3.13497 2.73603 0
M  V30 1560 H 151.446 3.82992 3.93202 0
M  V30 1561 H 151.707 2.09328 3.89402 0
M  V30 1562 N 150.766 -0.704594 1.40972 0
M  V30 1563 C 152.014 -1.46169 1.39568 0
M  V30 1564 C 152.335 -1.95 0.00253745 0
M  V30 1565 O 151.605 -1.71095 -0.954114 0
M  V30 1566 H 150.185 -0.542326 0.513704 0
M  V30 1567 H 152.847 -0.834553 1.76128 0
M  V30 1568 H 151.943 -2.32922 2.07735 0
M  V30 1569 N 152.244 -1.26651 -0.937939 0
M  V30 1570 C 153.207 -1.08546 -2.01867 0
M  V30 1571 C 154.207 -0.0327327 -1.60767 0
M  V30 1572 O 155.397 -0.276427 -1.71993 0
M  V30 1573 C 152.529 -0.651711 -3.34613 0
M  V30 1574 H 153.722 -2.04502 -2.1936 0
M  V30 1575 H 151.275 -1.09294 -1.11734 0
M  V30 1576 H 152.01 0.309696 -3.22818 0
M  V30 1577 H 151.795 -1.41189 -3.65798 0
M  V30 1578 H 153.285 -0.546973 -4.14002 0
M  V30 1579 N 153.722 1.14298 -1.08507 0
M  V30 1580 C 154.67 2.21483 -0.710483 0
M  V30 1581 C 155.664 1.66998 0.284234 0
M  V30 1582 O 156.87 1.79401 0.146692 0
M  V30 1583 H 153.245 0.721578 -0.211729 0
M  V30 1584 H 155.216 2.50348 -1.62384 0
M  V30 1585 C 153.965 3.4743 -0.137007 0
M  V30 1586 H 153.288 3.89686 -0.893592 0
M  V30 1587 H 154.728 4.2391 0.0872789 0
M  V30 1588 C 153.187 3.17548 1.12538 0
M  V30 1589 O 153.717 3.35437 2.21009 0
M  V30 1590 N 151.923 2.71499 1.03617 0
M  V30 1591 H 151.47 2.57143 0.153403 0
M  V30 1592 H 151.428 2.51881 1.88158 0
M  V30 1593 N 155.201 0.870884 1.31352 0
M  V30 1594 C 156.449 0.48132 1.96285 0
M  V30 1595 C 156.77 -0.969813 1.69173 0
M  V30 1596 O 156.04 -1.67998 1.00764 0
M  V30 1597 H 154.62 0.175002 0.726212 0
M  V30 1598 H 157.282 1.11087 1.60143 0
M  V30 1599 H 156.378 0.639825 3.05471 0
M  V30 1600 N 156.679 -1.44442 0.630414 0
M  V30 1601 C 157.928 -2.01267 0.132073 0
M  V30 1602 C 158.241 -1.50172 -1.25331 0
M  V30 1603 O 159.447 -1.9912 -1.84562 0
M  V30 1604 C 157.903 -3.59422 0.185362 0
M  V30 1605 C 157.511 -4.19514 1.57201 0
M  V30 1606 C 159.255 -4.23724 -0.256553 0
M  V30 1607 C 157.162 -5.69891 1.58045 0
M  V30 1608 H 156.092 -0.752619 0.0456092 0
M  V30 1609 H 158.743 -1.65666 0.789106 0
M  V30 1610 H 157.125 -3.92318 -0.538759 0
M  V30 1611 H 158.299 -3.98156 2.31966 0
M  V30 1612 H 156.614 -3.67496 1.95795 0
M  V30 1613 H 159.211 -5.34019 -0.269767 0
M  V30 1614 H 159.554 -3.96013 -1.28372 0
M  V30 1615 H 160.087 -3.95629 0.41505 0
M  V30 1616 H 156.826 -6.02336 2.58597 0
M  V30 1617 H 156.346 -5.93373 0.875725 0
M  V30 1618 H 158.025 -6.33515 1.31408 0
M  V30 1619 N 158.157 -0.370918 -1.53173 0
M  V30 1620 C 159.403 0.209976 -2.02313 0
M  V30 1621 C 159.758 1.45987 -1.25322 0
M  V30 1622 O 159.051 1.8856 -0.339965 0
M  V30 1623 C 159.245 0.549696 -3.53147 0
M  V30 1624 C 159.074 -0.665721 -4.44745 0
M  V30 1625 C 157.844 -1.17942 -4.91343 0
M  V30 1626 C 160.042 -1.53255 -4.90935 0
M  V30 1627 N 158.024 -2.35431 -5.66962 0
M  V30 1628 C 159.395 -2.55403 -5.64951 0
M  V30 1629 C 161.45 -1.5548 -4.73002 0
M  V30 1630 C 160.153 -3.5964 -6.22938 0
M  V30 1631 C 162.179 -2.58613 -5.31858 0
M  V30 1632 C 161.541 -3.59485 -6.05764 0
M  V30 1633 H 157.64 0.0394095 -0.781006 0
M  V30 1634 H 160.224 -0.516666 -1.8772 0
M  V30 1635 H 158.395 1.24541 -3.67891 0
M  V30 1636 H 160.127 1.11614 -3.89004 0
M  V30 1637 H 156.882 -0.743228 -4.67732 0
M  V30 1638 H 157.306 -2.94827 -6.09431 0
M  V30 1639 H 161.948 -0.788457 -4.15383 0
M  V30 1640 H 159.666 -4.37153 -6.79649 0
M  V30 1641 H 163.252 -2.61195 -5.19873 0
M  V30 1642 H 162.132 -4.3798 -6.50495 0
M  V30 1643 N 159.635 1.57281 -0.100228 0
M  V30 1644 C 160.883 1.94153 0.561157 0
M  V30 1645 C 161.204 0.983157 1.68401 0
M  V30 1646 O 160.474 0.0361132 1.95867 0
M  V30 1647 H 159.054 0.716791 0.210283 0
M  V30 1648 H 161.716 1.94202 -0.164765 0
M  V30 1649 H 160.812 2.96709 0.968008 0
M  V30 1650 N 161.113 -0.173488 1.56642 0
M  V30 1651 C 162.045 -1.23935 1.92802 0
M  V30 1652 C 163.058 -1.40589 0.820889 0
M  V30 1653 O 164.247 -1.40631 1.09933 0
M  V30 1654 C 161.347 -2.60837 2.16373 0
M  V30 1655 C 160.52 -2.6551 3.47596 0
M  V30 1656 C 159.579 -3.8376 3.60021 0
M  V30 1657 O 158.605 -3.69859 4.32658 0
M  V30 1658 N 159.807 -5.00127 2.94709 0
M  V30 1659 H 162.572 -0.932236 2.84832 0
M  V30 1660 H 160.133 -0.363268 1.57772 0
M  V30 1661 H 162.125 -3.38407 2.21952 0
M  V30 1662 H 160.695 -2.83948 1.30738 0
M  V30 1663 H 159.915 -1.74052 3.53694 0
M  V30 1664 H 161.203 -2.65641 4.33949 0
M  V30 1665 H 160.601 -5.14322 2.35563 0
M  V30 1666 H 159.158 -5.75567 3.05886 0
M  V30 1667 N 162.591 -1.51276 -0.441967 0
M  V30 1668 C 164.007 -1.39349 -0.778083 0
M  V30 1669 C 164.207 -0.472212 -1.95889 0
M  V30 1670 O 163.263 0.0743551 -2.5239 0
M  V30 1671 C 164.576 -2.81292 -1.0628 0
M  V30 1672 C 166.124 -2.9041 -1.16751 0
M  V30 1673 C 166.599 -4.33251 -1.48519 0
M  V30 1674 N 168.09 -4.36336 -1.55453 0
M  V30 1675 C 168.825 -5.43885 -1.81596 0
M  V30 1676 N 168.321 -6.61601 -2.05562 0
M  V30 1677 N 170.114 -5.3136 -1.8334 0
M  V30 1678 H 162.265 -2.09729 0.335774 0
M  V30 1679 H 164.528 -0.943925 0.0878028 0
M  V30 1680 H 164.234 -3.50678 -0.267905 0
M  V30 1681 H 164.108 -3.20334 -1.99163 0
M  V30 1682 H 166.495 -2.21225 -1.95304 0
M  V30 1683 H 166.576 -2.54871 -0.217801 0
M  V30 1684 H 166.22 -5.02984 -0.704958 0
M  V30 1685 H 166.15 -4.66299 -2.44689 0
M  V30 1686 H 168.641 -3.51466 -1.38853 0
M  V30 1687 H 168.954 -7.39361 -2.24867 0
M  V30 1688 H 167.299 -6.64725 -2.02894 0
M  V30 1689 H 170.49 -4.38382 -1.64132 0
M  V30 1690 H 170.663 -6.15258 -2.03377 0
M  V30 1691 N 164.069 0.697108 -1.41344 0
M  V30 1692 C 165.032 1.79281 -1.42797 0
M  V30 1693 C 166.032 1.57607 -0.318837 0
M  V30 1694 O 167.222 1.64309 -0.578642 0
M  V30 1695 C 164.354 3.17632 -1.23785 0
M  V30 1696 H 165.547 1.79385 -2.40335 0
M  V30 1697 H 163.1 0.904582 -1.27464 0
M  V30 1698 H 163.835 3.23167 -0.270814 0
M  V30 1699 H 163.62 3.34765 -2.04144 0
M  V30 1700 H 165.11 3.97617 -1.27633 0
M  V30 1701 N 165.547 1.27147 0.931209 0
M  V30 1702 C 166.793 1.13446 1.68101 0
M  V30 1703 C 167.126 -0.319628 1.91552 0
M  V30 1704 O 166.401 -1.23407 1.50336 0
M  V30 1705 C 166.684 1.91482 3.0497 0
M  V30 1706 C 166.537 3.44855 2.88782 0
M  V30 1707 C 167.856 1.71651 4.05246 0
M  V30 1708 H 164.975 0.413498 0.610072 0
M  V30 1709 H 167.617 1.56261 1.08086 0
M  V30 1710 H 165.767 1.55095 3.56199 0
M  V30 1711 H 167.439 3.9105 2.44698 0
M  V30 1712 H 165.682 3.71373 2.24198 0
M  V30 1713 H 166.353 3.94694 3.85902 0
M  V30 1714 H 168.829 2.0337 3.63015 0
M  V30 1715 H 167.705 2.28651 4.99009 0
M  V30 1716 H 167.966 0.663555 4.37092 0
M  V30 1717 N 167.025 -1.13721 1.09112 0
M  V30 1718 C 168.302 -1.81155 0.737706 0
M  V30 1719 C 168.682 -1.96253 -0.777683 0
M  V30 1720 O 168.03 -1.52807 -1.69889 0
M  V30 1721 C 168.24 -3.16392 1.47299 0
M  V30 1722 C 169.588 -3.91787 1.63671 0
M  V30 1723 O 170.612 -3.26005 1.43524 0
M  V30 1724 O 169.471 -5.0977 1.96969 0
M  V30 1725 H 166.565 -0.783518 0.26463 0
M  V30 1726 H 169.111 -1.20676 1.19312 0
M  V30 1727 H 167.883 -3.0061 2.50498 0
M  V30 1728 H 167.506 -3.8457 1.00953 0
M  V30 1729 N 168.503 -0.877838 -1.30888 0
M  V30 1730 C 169.752 -0.488793 -1.95688 0
M  V30 1731 C 170.065 0.965485 -1.70111 0
M  V30 1732 O 171.271 1.46104 -2.28836 0
M  V30 1733 C 169.727 -0.823201 -3.50359 0
M  V30 1734 C 169.335 -2.29477 -3.84765 0
M  V30 1735 C 171.079 -0.503009 -4.21509 0
M  V30 1736 C 168.986 -2.57118 -5.32583 0
M  V30 1737 H 167.916 -0.179062 -0.732429 0
M  V30 1738 H 170.567 -1.07183 -1.48943 0
M  V30 1739 H 168.949 -0.169331 -3.95638 0
M  V30 1740 H 170.123 -2.99236 -3.5042 0
M  V30 1741 H 168.438 -2.58178 -3.267 0
M  V30 1742 H 171.035 -0.68665 -5.30273 0
M  V30 1743 H 171.378 0.557109 -4.12555 0
M  V30 1744 H 171.911 -1.11376 -3.8189 0
M  V30 1745 H 168.65 -3.61843 -5.4658 0
M  V30 1746 H 168.17 -1.91961 -5.68253 0
M  V30 1747 H 169.849 -2.42251 -5.99936 0
M  V30 1748 N 169.982 1.44106 -0.638065 0
M  V30 1749 C 171.23 2.01579 -0.145043 0
M  V30 1750 C 171.551 1.50496 1.24 0
M  V30 1751 O 170.821 0.711374 1.82527 0
M  V30 1752 H 169.401 0.745282 -0.05063 0
M  V30 1753 H 172.063 1.76516 -0.826327 0
M  V30 1754 H 171.159 3.11877 -0.118039 0
M  V30 1755 N 171.46 0.379036 1.52974 0
M  V30 1756 C 172.37 -0.468639 2.29872 0
M  V30 1757 C 173.386 -1.08067 1.36373 0
M  V30 1758 O 174.562 -1.08871 1.69438 0
M  V30 1759 C 171.627 -1.58594 3.083 0
M  V30 1760 C 170.688 -1.00007 4.17489 0
M  V30 1761 C 169.921 -2.06413 4.92168 0
M  V30 1762 O 170.144 -3.27751 4.66835 0
M  V30 1763 O 169.078 -1.68717 5.7777 0
M  V30 1764 H 172.904 0.157508 3.03291 0
M  V30 1765 H 170.489 0.143035 1.48714 0
M  V30 1766 H 172.371 -2.23525 3.57232 0
M  V30 1767 H 171.046 -2.19724 2.37703 0
M  V30 1768 H 169.953 -0.314299 3.72777 0
M  V30 1769 H 171.286 -0.433135 4.90291 0
M  V30 1770 N 172.938 -1.57226 0.108567 0
M  V30 1771 C 174.354 -1.5766 -0.248058 0
M  V30 1772 C 174.554 -1.12063 -1.67464 0
M  V30 1773 O 173.61 -0.803236 -2.39383 0
M  V30 1774 C 174.923 -3.0069 -0.0242287 0
M  V30 1775 C 176.471 -3.12868 -0.0909372 0
M  V30 1776 C 176.946 -4.57879 0.105067 0
M  V30 1777 N 178.437 -4.63172 0.0506846 0
M  V30 1778 C 179.172 -5.73126 0.177396 0
M  V30 1779 N 178.668 -6.91866 0.359696 0
M  V30 1780 N 180.461 -5.61977 0.117709 0
M  V30 1781 H 172.612 -1.85169 1.04049 0
M  V30 1782 H 174.875 -0.85529 0.40888 0
M  V30 1783 H 174.581 -3.38299 0.961604 0
M  V30 1784 H 174.455 -3.6945 -0.76068 0
M  V30 1785 H 176.842 -2.75124 -1.06729 0
M  V30 1786 H 176.923 -2.46672 0.677225 0
M  V30 1787 H 176.567 -4.96321 1.07834 0
M  V30 1788 H 176.497 -5.22153 -0.682954 0
M  V30 1789 H 178.988 -3.778 -0.0871266 0
M  V30 1790 H 179.301 -7.71503 0.447529 0
M  V30 1791 H 177.646 -6.93874 0.395536 0
M  V30 1792 H 180.837 -4.68094 -0.0236741 0
M  V30 1793 H 181.01 -6.47627 0.219905 0
M  V30 1794 N 174.416 0.165178 -1.56732 0
M  V30 1795 C 175.665 0.879143 -1.81532 0
M  V30 1796 C 175.978 1.83144 -0.686842 0
M  V30 1797 O 177.184 2.58823 -0.819944 0
M  V30 1798 C 175.64 1.61388 -3.21686 0
M  V30 1799 C 175.248 0.704904 -4.4242 0
M  V30 1800 C 176.992 2.3157 -3.55774 0
M  V30 1801 C 174.899 1.44022 -5.73595 0
M  V30 1802 H 173.829 0.332033 -0.676957 0
M  V30 1803 H 176.48 0.132008 -1.83025 0
M  V30 1804 H 174.862 2.40599 -3.14529 0
M  V30 1805 H 176.036 -0.0506815 -4.60772 0
M  V30 1806 H 174.351 0.112419 -4.16248 0
M  V30 1807 H 176.948 2.8719 -4.51028 0
M  V30 1808 H 177.291 3.07201 -2.8095 0
M  V30 1809 H 177.824 1.59297 -3.64513 0
M  V30 1810 H 174.563 0.72612 -6.51466 0
M  V30 1811 H 174.083 2.16898 -5.5921 0
M  V30 1812 H 175.762 1.98606 -6.15764 0
M  V30 1813 N 175.894 1.51508 0.433938 0
M  V30 1814 C 177.142 1.6402 1.18075 0
M  V30 1815 C 177.463 0.360328 1.91642 0
M  V30 1816 O 176.733 -0.623945 1.85698 0
M  V30 1817 H 175.313 0.6045 0.43885 0
M  V30 1818 H 177.975 1.88452 0.497178 0
M  V30 1819 H 177.071 2.46949 1.90847 0
M  V30 1820 N 177.372 -0.689602 1.41712 0
M  V30 1821 C 178.335 -1.78521 1.43746 0
M  V30 1822 C 179.335 -1.57436 0.327191 0
M  V30 1823 O 180.525 -1.64 0.587348 0
M  V30 1824 C 177.657 -3.16971 1.25467 0
M  V30 1825 H 178.85 -1.78108 2.41283 0
M  V30 1826 H 176.403 -0.89781 1.27942 0
M  V30 1827 H 177.138 -3.23019 0.287948 0
M  V30 1828 H 176.923 -3.33678 2.05917 0
M  V30 1829 H 178.413 -3.96935 1.2974 0
M  V30 1830 N 178.85 -1.27639 -0.924453 0
M  V30 1831 C 180.266 -1.05113 -1.20097 0
M  V30 1832 C 180.466 0.213262 -2.00368 0
M  V30 1833 O 179.522 0.91787 -2.35226 0
M  V30 1834 C 180.835 -2.29244 -1.94596 0
M  V30 1835 C 182.383 -2.34315 -2.07522 0
M  V30 1836 C 182.858 -3.58183 -2.85427 0
M  V30 1837 N 184.349 -3.5876 -2.92994 0
M  V30 1838 C 185.084 -4.51277 -3.53746 0
M  V30 1839 N 184.58 -5.54102 -4.15863 0
M  V30 1840 N 186.373 -4.38894 -3.51181 0
M  V30 1841 H 178.524 -2.08821 -0.388264 0
M  V30 1842 H 180.787 -0.918568 -0.234385 0
M  V30 1843 H 180.493 -3.21301 -1.43034 0
M  V30 1844 H 180.367 -2.34816 -2.95197 0
M  V30 1845 H 182.754 -1.42762 -2.58269 0
M  V30 1846 H 182.835 -2.32744 -1.06131 0
M  V30 1847 H 182.479 -4.50074 -2.35363 0
M  V30 1848 H 182.409 -3.57006 -3.8711 0
M  V30 1849 H 184.9 -2.84398 -2.4885 0
M  V30 1850 H 185.213 -6.20859 -4.60168 0
M  V30 1851 H 183.558 -5.57941 -4.144 0
M  V30 1852 H 186.749 -3.57772 -3.01856 0
M  V30 1853 H 186.922 -5.11186 -3.98237 0
M  V30 1854 N 180.328 1.1314 -1.09713 0
M  V30 1855 C 181.574 1.84757 -0.836224 0
M  V30 1856 C 181.907 1.8347 0.636598 0
M  V30 1857 O 181.182 1.27491 1.46889 0
M  V30 1858 C 181.465 3.32782 -1.37578 0
M  V30 1859 C 181.318 3.42567 -2.91493 0
M  V30 1860 C 182.637 4.28307 -1.01198 0
M  V30 1861 H 179.756 0.67082 -0.305236 0
M  V30 1862 H 182.398 1.3278 -1.35903 0
M  V30 1863 H 180.548 3.77177 -0.931097 0
M  V30 1864 H 182.22 3.06862 -3.44432 0
M  V30 1865 H 180.463 2.83349 -3.28475 0
M  V30 1866 H 181.134 4.46674 -3.24324 0
M  V30 1867 H 183.61 3.91999 -1.39556 0
M  V30 1868 H 182.486 5.30307 -1.41653 0
M  V30 1869 H 182.747 4.42029 0.0794833 0
M  V30 1870 N 181.806 0.884767 1.30421 0
M  V30 1871 C 182.756 0.322846 2.25703 0
M  V30 1872 C 183.74 -0.548582 1.51259 0
M  V30 1873 O 184.932 -0.39304 1.72581 0
M  V30 1874 C 182.061 -0.461787 3.4018 0
M  V30 1875 C 181.147 0.423717 4.21978 0
M  V30 1876 N 181.538 1.52408 4.82292 0
M  V30 1877 C 179.836 0.218795 4.45463 0
M  V30 1878 C 180.537 2.07136 5.43571 0
M  V30 1879 N 179.513 1.36635 5.26148 0
M  V30 1880 H 183.315 1.16363 2.69883 0
M  V30 1881 H 180.829 0.73415 1.44859 0
M  V30 1882 H 182.826 -0.880985 4.07485 0
M  V30 1883 H 181.486 -1.30001 2.9754 0
M  V30 1884 H 182.497 1.90693 4.81515 0
M  V30 1885 H 179.174 -0.582275 4.1342 0
M  V30 1886 H 180.564 2.99538 6.01437 0
M  V30 1887 N 183.284 -1.43765 0.645699 0
M  V30 1888 C 184.695 -1.85193 0.236719 0
M  V30 1889 C 185.046 -1.54045 -1.21509 0
M  V30 1890 O 184.171 -0.985694 -1.92647 0
M  V30 1891 C 184.766 -3.36151 0.422845 0
M  V30 1892 C 183.325 -3.76338 0.0682492 0
M  V30 1893 C 182.472 -2.67538 0.729306 0
M  V30 1894 H 185.423 -1.34025 0.849883 0
M  V30 1895 H 185.444 -3.79032 -0.333904 0
M  V30 1896 H 184.956 -3.5879 1.47958 0
M  V30 1897 H 183.057 -3.59312 -0.986179 0
M  V30 1898 H 183.17 -4.76603 0.488469 0
M  V30 1899 H 181.534 -2.54176 0.163235 0
M  V30 1900 H 182.317 -2.93006 1.78892 0
M  V30 1901 N 184.763 -0.387143 -1.52771 0
M  V30 1902 C 185.696 0.493123 -2.22808 0
M  V30 1903 C 186.674 1.0658 -1.22798 0
M  V30 1904 O 187.858 1.11785 -1.51777 0
M  V30 1905 C 184.985 1.68238 -2.93962 0
M  V30 1906 C 184.031 1.23515 -4.08223 0
M  V30 1907 S 184.864 0.21848 -5.35054 0
M  V30 1908 C 186.02 1.41357 -6.09729 0
M  V30 1909 H 186.253 -0.101625 -2.97126 0
M  V30 1910 H 183.786 -0.171323 -1.53447 0
M  V30 1911 H 185.744 2.36443 -3.35567 0
M  V30 1912 H 184.405 2.24842 -2.19328 0
M  V30 1913 H 183.598 2.12304 -4.57103 0
M  V30 1914 H 183.2 0.632044 -3.68621 0
M  V30 1915 H 185.492 2.34101 -6.3577 0
M  V30 1916 H 186.435 0.965736 -7.01484 0
M  V30 1917 H 186.843 1.6294 -5.40473 0
M  V30 1918 N 186.241 1.57166 -0.116904 0
M  V30 1919 C 187.469 1.99473 0.549383 0
M  V30 1920 C 187.884 0.996541 1.60357 0
M  V30 1921 O 187.241 -0.0108731 1.82497 0
M  V30 1922 C 187.292 3.41788 1.17741 0
M  V30 1923 O 187.013 4.37788 0.165362 0
M  V30 1924 C 188.514 3.99216 1.92722 0
M  V30 1925 H 185.734 0.655009 0.145616 0
M  V30 1926 H 188.278 2.03494 -0.202625 0
M  V30 1927 H 186.433 3.38713 1.88021 0
M  V30 1928 H 186.847 5.20806 0.621403 0
M  V30 1929 H 188.321 5.00882 2.31995 0
M  V30 1930 H 188.798 3.3824 2.80161 0
M  V30 1931 H 189.404 4.0583 1.27209 0
M  V30 1932 N 187.719 -0.156864 1.56817 0
M  V30 1933 C 188.666 -1.19394 1.97519 0
M  V30 1934 C 189.636 -1.4322 0.841265 0
M  V30 1935 O 190.821 -1.55719 1.10255 0
M  V30 1936 C 187.961 -2.52483 2.35258 0
M  V30 1937 C 187.074 -2.35914 3.61896 0
M  V30 1938 C 186.209 -3.61969 3.88782 0
M  V30 1939 C 185.248 -3.40395 5.08722 0
M  V30 1940 N 184.385 -4.58556 5.31668 0
M  V30 1941 H 189.225 -0.839845 2.85921 0
M  V30 1942 H 186.762 -0.403264 1.41464 0
M  V30 1943 H 188.72 -3.30071 2.55165 0
M  V30 1944 H 187.35 -2.85859 1.49949 0
M  V30 1945 H 186.402 -1.49429 3.49821 0
M  V30 1946 H 187.714 -2.15926 4.49641 0
M  V30 1947 H 186.868 -4.47989 4.09135 0
M  V30 1948 H 185.607 -3.84951 2.9944 0
M  V30 1949 H 184.612 -2.52763 4.88253 0
M  V30 1950 H 185.837 -3.18822 5.99608 0
M  V30 1951 H 183.783 -4.81729 4.45279 0
M  V30 1952 H 183.7 -4.41535 6.13664 0
M  V30 1953 H 184.968 -5.45817 5.5651 0
M  V30 1954 N 189.197 -1.51736 -0.425897 0
M  V30 1955 C 190.474 -1.55519 -1.1863 0
M  V30 1956 C 190.854 -0.326219 -2.08564 0
M  V30 1957 O 190.202 0.688012 -2.17896 0
M  V30 1958 C 190.412 -2.87521 -1.9782 0
M  V30 1959 C 191.76 -3.39899 -2.54468 0
M  V30 1960 O 192.784 -2.89148 -2.08019 0
M  V30 1961 O 191.643 -4.2848 -3.39215 0
M  V30 1962 H 188.737 -0.625739 -0.540721 0
M  V30 1963 H 191.283 -1.64055 -0.434038 0
M  V30 1964 H 190.055 -3.68422 -1.31836 0
M  V30 1965 H 189.678 -2.822 -2.80088 0
M  V30 1966 N 190.675 0.682077 -1.42076 0
M  V30 1967 C 192.086 1.26246 -1.37546 0
M  V30 1968 C 192.437 1.96092 -0.0651481 0
M  V30 1969 O 191.562 1.99587 0.836297 0
M  V30 1970 C 192.157 2.29594 -2.49143 0
M  V30 1971 C 190.716 2.83175 -2.47969 0
M  V30 1972 C 189.863 1.57395 -2.28303 0
M  V30 1973 H 192.814 0.475937 -1.51395 0
M  V30 1974 H 192.835 3.11175 -2.18976 0
M  V30 1975 H 192.347 1.78729 -3.44496 0
M  V30 1976 H 190.448 3.3818 -1.56413 0
M  V30 1977 H 190.561 3.32687 -3.44755 0
M  V30 1978 H 188.925 1.83699 -1.76428 0
M  V30 1979 H 189.708 1.08507 -3.25701 0
M  V30 1980 N 192.153 1.28127 0.917671 0
M  V30 1981 C 193.401 1.14825 1.66312 0
M  V30 1982 C 193.722 -0.304379 1.9261 0
M  V30 1983 O 192.992 -1.21149 1.53947 0
M  V30 1984 H 191.572 0.421953 0.616413 0
M  V30 1985 H 194.234 1.608 1.10134 0
M  V30 1986 H 193.33 1.68489 2.62712 0
M  V30 1987 N 193.631 -1.12557 1.10312 0
M  V30 1988 C 194.879 -1.83675 0.843091 0
M  V30 1989 C 195.2 -1.84435 -0.633131 0
M  V30 1990 O 194.47 -1.30657 -1.45964 0
M  V30 1991 H 193.05 -0.680138 0.308904 0
M  V30 1992 H 195.712 -1.36301 1.39313 0
M  V30 1993 H 194.808 -2.87908 1.2048 0
M  V30 1994 N 195.109 -0.891671 -1.2995 0
M  V30 1995 C 196.059 -0.334811 -2.25528 0
M  V30 1996 C 197.043 0.540553 -1.51548 0
M  V30 1997 O 198.235 0.383882 -1.72787 0
M  V30 1998 C 195.364 0.44374 -3.4042 0
M  V30 1999 C 194.45 -0.44609 -4.21747 0
M  V30 2000 N 194.841 -1.54963 -4.81477 0
M  V30 2001 C 193.139 -0.242415 -4.45341 0
M  V30 2002 C 193.84 -2.10015 -5.42465 0
M  V30 2003 N 192.816 -1.39423 -5.25416 0
M  V30 2004 H 196.618 -1.17792 -2.69262 0
M  V30 2005 H 194.132 -0.741822 -1.44467 0
M  V30 2006 H 196.129 0.859362 -4.07947 0
M  V30 2007 H 194.789 1.28421 -2.98225 0
M  V30 2008 H 195.8 -1.93244 -4.80497 0
M  V30 2009 H 192.477 0.560342 -4.13723 0
M  V30 2010 H 193.867 -3.02724 -5.9984 0
M  V30 2011 N 196.587 1.43421 -0.653314 0
M  V30 2012 C 197.817 2.05864 -0.174238 0
M  V30 2013 C 198.225 1.49052 1.16534 0
M  V30 2014 O 197.568 0.616481 1.73047 0
M  V30 2015 C 197.63 3.59499 -0.00875873 0
M  V30 2016 C 197.294 4.38893 -1.27364 0
M  V30 2017 C 198.291 4.70947 -2.20239 0
M  V30 2018 C 195.976 4.789 -1.51525 0
M  V30 2019 C 197.97 5.41916 -3.35568 0
M  V30 2020 C 195.657 5.49614 -2.67147 0
M  V30 2021 C 196.655 5.81044 -3.58994 0
M  V30 2022 O 196.343 6.50313 -4.72597 0
M  V30 2023 H 196.075 0.670345 -0.0872549 0
M  V30 2024 H 198.629 1.84913 -0.894226 0
M  V30 2025 H 196.859 3.79025 0.7666 0
M  V30 2026 H 198.548 4.0364 0.427687 0
M  V30 2027 H 199.314 4.40558 -2.02815 0
M  V30 2028 H 195.193 4.53843 -0.809158 0
M  V30 2029 H 198.737 5.66365 -4.07279 0
M  V30 2030 H 194.634 5.79419 -2.84505 0
M  V30 2031 H 195.402 6.68795 -4.71864 0
M  V30 2032 N 198.065 0.39524 1.52563 0
M  V30 2033 C 199.293 -0.184943 2.06072 0
M  V30 2034 C 199.708 -1.40021 1.26647 0
M  V30 2035 O 199.065 -1.79767 0.314672 0
M  V30 2036 C 199.116 -0.549179 3.57304 0
M  V30 2037 O 198.837 0.617813 4.33722 0
M  V30 2038 C 200.338 -1.18459 4.2718 0
M  V30 2039 H 197.558 -0.0265025 0.670476 0
M  V30 2040 H 200.102 0.562184 1.96621 0
M  V30 2041 H 198.257 -1.2462 3.66809 0
M  V30 2042 H 198.671 0.317091 5.23541 0
M  V30 2043 H 200.145 -1.38976 5.34219 0
M  V30 2044 H 200.622 -2.15368 3.82771 0
M  V30 2045 H 201.228 -0.528163 4.22008 0
M  V30 2046 N 199.544 -1.57102 0.125237 0
M  V30 2047 C 200.474 -2.18659 -0.819174 0
M  V30 2048 C 201.455 -1.12843 -1.27281 0
M  V30 2049 O 202.64 -1.41104 -1.33429 0
M  V30 2050 C 199.77 -2.79096 -2.06695 0
M  V30 2051 C 198.724 -3.90548 -1.75088 0
M  V30 2052 C 198.05 -4.37821 -3.06948 0
M  V30 2053 C 199.35 -5.12356 -1.01435 0
M  V30 2054 H 201.044 -2.9783 -0.306202 0
M  V30 2055 H 198.59 -1.4326 -0.145839 0
M  V30 2056 H 200.543 -3.2082 -2.73226 0
M  V30 2057 H 199.267 -1.97223 -2.60328 0
M  V30 2058 H 197.926 -3.49409 -1.10944 0
M  V30 2059 H 197.574 -3.52799 -3.58527 0
M  V30 2060 H 197.274 -5.12982 -2.86571 0
M  V30 2061 H 198.798 -4.822 -3.74587 0
M  V30 2062 H 200.212 -5.5106 -1.58132 0
M  V30 2063 H 198.609 -5.9314 -0.911319 0
M  V30 2064 H 199.679 -4.849 -0.00218681 0
M  V30 2065 N 201.022 0.148545 -1.56898 0
M  V30 2066 C 201.954 1.20852 -1.9475 0
M  V30 2067 C 202.967 1.39265 -0.843152 0
M  V30 2068 O 204.156 1.38864 -1.12156 0
M  V30 2069 C 201.256 2.57362 -2.20495 0
M  V30 2070 C 200.429 2.59947 -3.51776 0
M  V30 2071 C 199.488 3.77984 -3.6608 0
M  V30 2072 O 198.514 3.62929 -4.38487 0
M  V30 2073 N 199.716 4.95375 -3.02629 0
M  V30 2074 H 202.481 0.886804 -2.86279 0
M  V30 2075 H 200.042 0.338121 -1.5833 0
M  V30 2076 H 202.034 3.34833 -2.27307 0
M  V30 2077 H 200.604 2.81832 -1.35238 0
M  V30 2078 H 199.824 1.68403 -3.56419 0
M  V30 2079 H 201.112 2.58704 -4.38121 0
M  V30 2080 H 200.51 5.10509 -2.43715 0
M  V30 2081 H 199.067 5.70627 -3.15004 0
M  V30 2082 N 202.5 1.5196 0.417844 0
M  V30 2083 C 203.41 1.77554 1.53336 0
M  V30 2084 C 204.426 0.660655 1.6097 0
M  V30 2085 O 205.602 0.945099 1.77848 0
M  V30 2086 C 202.667 1.91291 2.89152 0
M  V30 2087 C 201.728 3.15183 2.91475 0
M  V30 2088 C 200.961 3.28256 4.20813 0
M  V30 2089 O 201.184 2.46798 5.14244 0
M  V30 2090 O 200.118 4.21356 4.29817 0
M  V30 2091 H 203.944 2.7222 1.34647 0
M  V30 2092 H 201.529 1.36698 0.602828 0
M  V30 2093 H 203.411 2.02199 3.69721 0
M  V30 2094 H 202.086 0.998129 3.07927 0
M  V30 2095 H 200.993 3.09739 2.09791 0
M  V30 2096 H 202.326 4.06414 2.77648 0
M  V30 2097 N 203.978 -0.674533 1.42435 0
M  V30 2098 C 205.224 -1.43671 1.43131 0
M  V30 2099 C 205.557 -1.94142 0.0476021 0
M  V30 2100 O 204.832 -1.70924 -0.928188 0
M  V30 2101 C 205.115 -2.63355 2.45594 0
M  V30 2102 C 204.968 -2.18514 3.93156 0
M  V30 2103 C 206.287 -3.65571 2.45043 0
M  V30 2104 H 203.406 -0.521077 0.521198 0
M  V30 2105 H 206.048 -0.766551 1.7385 0
M  V30 2106 H 204.198 -3.2053 2.19528 0
M  V30 2107 H 205.87 -1.66504 4.30202 0
M  V30 2108 H 204.113 -1.50086 4.07009 0
M  V30 2109 H 204.784 -3.04484 4.60428 0
M  V30 2110 H 207.26 -3.18113 2.68223 0
M  V30 2111 H 206.136 -4.46893 3.18713 0
M  V30 2112 H 206.397 -4.16716 1.47649 0
M  V30 2113 N 205.456 -1.28612 -0.910864 0
M  V30 2114 C 206.366 -1.14643 -2.0468 0
M  V30 2115 C 207.382 -0.0723121 -1.7385 0
M  V30 2116 O 208.558 -0.282178 -1.99413 0
M  V30 2117 C 205.623 -0.812561 -3.37044 0
M  V30 2118 C 204.684 -1.96935 -3.81465 0
M  V30 2119 C 203.917 -1.65131 -5.07511 0
M  V30 2120 O 204.14 -0.567013 -5.67575 0
M  V30 2121 O 203.074 -2.49585 -5.47714 0
M  V30 2122 H 206.9 -2.1001 -2.19384 0
M  V30 2123 H 204.485 -1.07958 -1.03274 0
M  V30 2124 H 206.367 -0.640441 -4.16505 0
M  V30 2125 H 205.042 0.111426 -3.23508 0
M  V30 2126 H 203.949 -2.19664 -3.02818 0
M  V30 2127 H 205.282 -2.87414 -3.99567 0
M  V30 2128 N 206.934 1.1197 -1.10907 0
M  V30 2129 C 207.844 2.21433 -0.774896 0
M  V30 2130 C 208.86 1.72478 0.229657 0
M  V30 2131 O 210.036 2.01288 0.0672008 0
M  V30 2132 C 207.101 3.4602 -0.216986 0
M  V30 2133 C 206.162 4.09791 -1.27944 0
M  V30 2134 C 205.395 5.28431 -0.748055 0
M  V30 2135 O 205.618 5.68823 0.423833 0
M  V30 2136 O 204.552 5.82644 -1.51027 0
M  V30 2137 H 208.378 2.5242 -1.68873 0
M  V30 2138 H 205.963 1.20399 -0.884555 0
M  V30 2139 H 207.845 4.21304 0.090059 0
M  V30 2140 H 206.52 3.16698 0.669633 0
M  V30 2141 H 205.427 3.36265 -1.63941 0
M  V30 2142 H 206.76 4.4328 -2.13925 0
M  V30 2143 N 208.412 0.89855 1.29475 0
M  V30 2144 C 209.66 0.522847 1.9522 0
M  V30 2145 C 209.981 -0.93371 1.71192 0
M  V30 2146 O 209.251 -1.65823 1.04305 0
M  V30 2147 H 207.831 0.190366 0.722336 0
M  V30 2148 H 210.493 1.14459 1.5775 0
M  V30 2149 H 209.589 0.704476 3.04045 0
M  V30 2150 N 209.89 -1.43072 0.660911 0
M  V30 2151 C 210.82 -2.33497 -0.0122829 0
M  V30 2152 C 211.801 -1.49903 -0.803925 0
M  V30 2153 O 212.986 -1.78546 -0.763864 0
M  V30 2154 C 210.116 -3.33363 -0.973994 0
M  V30 2155 C 209.07 -4.27003 -0.291928 0
M  V30 2156 C 208.396 -5.16967 -1.36562 0
M  V30 2157 C 209.696 -5.15816 0.820462 0
M  V30 2158 H 211.39 -2.90038 0.742873 0
M  V30 2159 H 208.936 -1.39461 0.358688 0
M  V30 2160 H 210.889 -3.95524 -1.45392 0
M  V30 2161 H 209.613 -2.75095 -1.7604 0
M  V30 2162 H 208.272 -3.66217 0.167623 0
M  V30 2163 H 207.92 -4.55034 -2.14366 0
M  V30 2164 H 207.62 -5.80441 -0.914454 0
M  V30 2165 H 209.144 -5.82003 -1.84675 0
M  V30 2166 H 210.558 -5.71742 0.422366 0
M  V30 2167 H 208.955 -5.8805 1.19656 0
M  V30 2168 H 210.025 -4.55045 1.67518 0
M  V30 2169 N 211.368 -0.403325 -1.52352 0
M  V30 2170 C 212.331 0.413051 -2.25447 0
M  V30 2171 C 213.331 0.978513 -1.276 0
M  V30 2172 O 214.521 0.858305 -1.51587 0
M  V30 2173 C 211.653 1.58087 -3.02029 0
M  V30 2174 H 212.846 -0.227094 -2.99039 0
M  V30 2175 H 210.399 -0.155722 -1.55522 0
M  V30 2176 H 211.134 2.25804 -2.32772 0
M  V30 2177 H 210.919 1.18195 -3.73861 0
M  V30 2178 H 212.409 2.1585 -3.57489 0
M  V30 2179 N 212.846 1.57033 -0.133567 0
M  V30 2180 C 213.778 2.13176 0.841944 0
M  V30 2181 C 214.791 1.07794 1.22001 0
M  V30 2182 O 215.98 1.35117 1.16643 0
M  V30 2183 C 213.08 2.62847 2.13926 0
M  V30 2184 C 212.253 3.92486 1.93064 0
M  V30 2185 C 211.312 4.27605 3.0666 0
M  V30 2186 O 210.338 4.96168 2.78937 0
M  V30 2187 N 211.54 3.861 4.33483 0
M  V30 2188 H 214.305 2.97503 0.362192 0
M  V30 2189 H 211.866 1.61821 0.05042 0
M  V30 2190 H 213.858 2.83363 2.88942 0
M  V30 2191 H 212.428 1.83319 2.53205 0
M  V30 2192 H 211.648 3.80732 1.02159 0
M  V30 2193 H 212.936 4.77225 1.76447 0
M  V30 2194 H 212.334 3.30828 4.58878 0
M  V30 2195 H 210.891 4.11694 5.05323 0
M  V30 2196 N 214.325 -0.140222 1.56975 0
M  V30 2197 C 215.275 -1.17827 1.95194 0
M  V30 2198 C 216.259 -1.38195 0.824075 0
M  V30 2199 O 217.451 -1.39643 1.0876 0
M  V30 2200 C 214.58 -2.51024 2.34184 0
M  V30 2201 C 213.666 -2.3422 3.53556 0
M  V30 2202 N 214.057 -1.87185 4.69889 0
M  V30 2203 C 212.355 -2.64949 3.58773 0
M  V30 2204 C 213.056 -1.83586 5.5197 0
M  V30 2205 N 212.032 -2.2715 4.93866 0
M  V30 2206 H 215.834 -0.806817 2.82609 0
M  V30 2207 H 213.348 -0.348208 1.58623 0
M  V30 2208 H 215.345 -3.26074 2.59772 0
M  V30 2209 H 214.005 -2.88945 1.48124 0
M  V30 2210 H 215.016 -1.57048 4.93514 0
M  V30 2211 H 211.693 -3.067 2.8327 0
M  V30 2212 H 213.083 -1.48655 6.55249 0
M  V30 2213 N 215.803 -1.52179 -0.40978 0
M  V30 2214 C 216.75 -1.75475 -1.49924 0
M  V30 2215 C 217.72 -0.597175 -1.54994 0
M  V30 2216 O 218.905 -0.834655 -1.71575 0
M  V30 2217 C 216.045 -1.9107 -2.87378 0
M  V30 2218 C 215.158 -3.18717 -2.91622 0
M  V30 2219 C 214.293 -3.24747 -4.20372 0
M  V30 2220 C 213.332 -4.46598 -4.18588 0
M  V30 2221 N 212.469 -4.50025 -5.38908 0
M  V30 2222 H 217.309 -2.68458 -1.29361 0
M  V30 2223 H 214.846 -1.33024 -0.627934 0
M  V30 2224 H 216.804 -1.98096 -3.6717 0
M  V30 2225 H 215.434 -1.01469 -3.06437 0
M  V30 2226 H 214.486 -3.20866 -2.04326 0
M  V30 2227 H 215.798 -4.08544 -2.86169 0
M  V30 2228 H 214.952 -3.30841 -5.08556 0
M  V30 2229 H 213.691 -2.32857 -4.28519 0
M  V30 2230 H 212.696 -4.40652 -3.28794 0
M  V30 2231 H 213.921 -5.39783 -4.12081 0
M  V30 2232 H 211.867 -3.61017 -5.47725 0
M  V30 2233 H 211.784 -5.33697 -5.35447 0
M  V30 2234 H 213.052 -4.60347 -6.29048 0
M  V30 2235 N 217.281 0.66697 -1.42791 0
M  V30 2236 C 218.692 1.2478 -1.38877 0
M  V30 2237 C 219.043 1.96012 -0.0859426 0
M  V30 2238 O 218.168 2.00463 0.815081 0
M  V30 2239 C 218.763 2.26938 -2.51564 0
M  V30 2240 C 217.322 2.80529 -2.50959 0
M  V30 2241 C 216.469 1.54965 -2.29959 0
M  V30 2242 H 219.42 0.459853 -1.51892 0
M  V30 2243 H 219.441 3.08834 -2.22265 0
M  V30 2244 H 218.953 1.75065 -3.46372 0
M  V30 2245 H 217.054 3.36502 -1.59991 0
M  V30 2246 H 217.167 3.29012 -3.48265 0
M  V30 2247 H 215.531 1.81817 -1.78366 0
M  V30 2248 H 216.314 1.05047 -3.26833 0
M  V30 2249 N 218.759 1.29093 0.90403 0
M  V30 2250 C 220.005 1.16986 1.65656 0
M  V30 2251 C 220.338 -0.278925 1.92186 0
M  V30 2252 O 219.613 -1.2019 1.5292 0
M  V30 2253 C 219.896 1.97908 3.0084 0
M  V30 2254 C 219.749 3.50903 2.81403 0
M  V30 2255 C 221.068 1.80208 4.01513 0
M  V30 2256 H 218.187 0.426346 0.601164 0
M  V30 2257 H 220.829 1.58518 1.04747 0
M  V30 2258 H 218.979 1.62616 3.52829 0
M  V30 2259 H 220.651 3.96153 2.36348 0
M  V30 2260 H 218.894 3.76045 2.1627 0
M  V30 2261 H 219.565 4.02791 3.77443 0
M  V30 2262 H 222.041 2.11025 3.58619 0
M  V30 2263 H 220.917 2.39184 4.94047 0
M  V30 2264 H 221.178 0.756119 4.35586 0
M  V30 2265 N 220.237 -1.11381 1.11499 0
M  V30 2266 C 221.167 -2.19509 0.796125 0
M  V30 2267 C 222.148 -1.68458 -0.235796 0
M  V30 2268 O 223.333 -1.93947 -0.0991344 0
M  V30 2269 C 220.463 -3.46475 0.239205 0
M  V30 2270 C 219.417 -4.10744 1.20307 0
M  V30 2271 C 218.743 -5.32293 0.50683 0
M  V30 2272 C 220.043 -4.55597 2.55399 0
M  V30 2273 H 221.737 -2.46439 1.70024 0
M  V30 2274 H 219.283 -1.18446 0.818935 0
M  V30 2275 H 221.236 -4.214 0.00392006 0
M  V30 2276 H 219.96 -3.19006 -0.700206 0
M  V30 2277 H 218.619 -3.37813 1.42399 0
M  V30 2278 H 218.267 -5.01095 -0.437408 0
M  V30 2279 H 217.967 -5.76243 1.1497 0
M  V30 2280 H 219.491 -6.09956 0.280351 0
M  V30 2281 H 220.905 -5.21841 2.37391 0
M  V30 2282 H 219.302 -5.10363 3.15673 0
M  V30 2283 H 220.372 -3.69013 3.14575 0
M  V30 2284 N 221.715 -0.905404 -1.28997 0
M  V30 2285 C 222.645 -0.404212 -2.29975 0
M  V30 2286 C 223.626 0.523784 -1.61835 0
M  V30 2287 O 224.811 0.433298 -1.89304 0
M  V30 2288 C 221.941 0.364042 -3.45387 0
M  V30 2289 C 220.895 -0.474048 -4.25367 0
M  V30 2290 C 220.221 0.422045 -5.33032 0
M  V30 2291 C 221.521 -1.72696 -4.92923 0
M  V30 2292 H 223.215 -1.24807 -2.72146 0
M  V30 2293 H 220.761 -0.601585 -1.30832 0
M  V30 2294 H 222.714 0.725447 -4.15109 0
M  V30 2295 H 221.438 1.24174 -3.02074 0
M  V30 2296 H 220.097 -0.81786 -3.57361 0
M  V30 2297 H 219.745 1.29804 -4.85963 0
M  V30 2298 H 219.445 -0.135057 -5.87445 0
M  V30 2299 H 220.969 0.779517 -6.05604 0
M  V30 2300 H 222.383 -1.43495 -5.55051 0
M  V30 2301 H 220.78 -2.22582 -5.57295 0
M  V30 2302 H 221.85 -2.45964 -4.17887 0
M  V30 2303 N 223.193 1.4272 -0.668489 0
M  V30 2304 C 224.44 2.01624 -0.18814 0
M  V30 2305 C 224.768 1.5282 1.20317 0
M  V30 2306 O 224.023 0.718323 1.8204 0
M  V30 2307 C 224.322 3.57021 -0.164499 0
M  V30 2308 C 223.988 4.25232 -1.49962 0
M  V30 2309 C 222.65 4.4358 -1.8652 0
M  V30 2310 C 225.002 4.63727 -2.37921 0
M  V30 2311 C 222.33 4.97694 -3.10674 0
M  V30 2312 C 224.682 5.19218 -3.6138 0
M  V30 2313 C 223.346 5.3578 -3.98115 0
M  V30 2314 H 222.616 0.737795 -0.0688454 0
M  V30 2315 H 225.263 1.70991 -0.862225 0
M  V30 2316 H 223.568 3.87285 0.593079 0
M  V30 2317 H 225.265 4.00372 0.224271 0
M  V30 2318 H 221.855 4.11306 -1.20522 0
M  V30 2319 H 226.039 4.4923 -2.10964 0
M  V30 2320 H 221.295 5.08702 -3.39164 0
M  V30 2321 H 225.469 5.4799 -4.29743 0
M  V30 2322 H 223.096 5.77475 -4.94395 0
M  V30 2323 N 224.671 0.411399 1.52136 0
M  V30 2324 C 225.601 -0.404015 2.29978 0
M  V30 2325 C 226.582 -1.04412 1.34284 0
M  V30 2326 O 227.767 -1.0527 1.63192 0
M  V30 2327 C 224.897 -1.5197 3.12286 0
M  V30 2328 C 223.851 -1.00448 4.16046 0
M  V30 2329 C 223.177 -2.21393 4.86712 0
M  V30 2330 C 224.477 -0.0569336 5.22269 0
M  V30 2331 H 226.171 0.245529 2.98392 0
M  V30 2332 H 223.717 0.119525 1.43503 0
M  V30 2333 H 225.67 -2.09715 3.6551 0
M  V30 2334 H 224.394 -2.19716 2.41646 0
M  V30 2335 H 223.053 -0.449421 3.63835 0
M  V30 2336 H 222.701 -2.87699 4.12599 0
M  V30 2337 H 222.401 -1.87571 5.56858 0
M  V30 2338 H 223.925 -2.7974 5.4275 0
M  V30 2339 H 225.339 -0.54325 5.7072 0
M  V30 2340 H 223.736 0.192594 5.99791 0
M  V30 2341 H 224.806 0.887663 4.76706 0
M  V30 2342 N 226.149 -1.5696 0.141893 0
M  V30 2343 C 227.377 -2.00322 -0.517579 0
M  V30 2344 C 227.792 -1.02193 -1.58752 0
M  V30 2345 O 227.149 -0.0181619 -1.82491 0
M  V30 2346 C 227.2 -3.43618 -1.12289 0
M  V30 2347 O 226.921 -4.37995 -0.0956929 0
M  V30 2348 C 228.422 -4.02231 -1.86347 0
M  V30 2349 H 225.642 -0.657243 -0.135177 0
M  V30 2350 H 228.186 -2.03146 0.234973 0
M  V30 2351 H 226.341 -3.41662 -1.82609 0
M  V30 2352 H 226.755 -5.21729 -0.538469 0
M  V30 2353 H 228.229 -5.04509 -2.23997 0
M  V30 2354 H 228.706 -3.42655 -2.74744 0
M  V30 2355 H 229.312 -4.07802 -1.20737 0
M  V30 2356 N 227.627 0.131896 -1.57047 0
M  V30 2357 C 228.577 1.1679 -1.95816 0
M  V30 2358 C 229.561 1.37756 -0.831393 0
M  V30 2359 O 230.753 1.39065 -1.09499 0
M  V30 2360 C 227.882 2.49778 -2.35512 0
M  V30 2361 C 226.968 2.32342 -3.54793 0
M  V30 2362 N 227.359 1.8469 -4.70875 0
M  V30 2363 C 225.657 2.63043 -3.60173 0
M  V30 2364 C 226.358 1.80656 -5.52936 0
M  V30 2365 N 225.334 2.24528 -4.95064 0
M  V30 2366 H 229.136 0.791818 -2.83033 0
M  V30 2367 H 226.65 0.339791 -1.58805 0
M  V30 2368 H 228.647 3.24692 -2.61498 0
M  V30 2369 H 227.307 2.88156 -1.49654 0
M  V30 2370 H 228.318 1.54429 -4.9434 0
M  V30 2371 H 224.995 3.05193 -2.84892 0
M  V30 2372 H 226.385 1.45178 -6.56028 0
M  V30 2373 N 229.106 1.52395 0.401703 0
M  V30 2374 C 230.354 1.66488 1.14569 0
M  V30 2375 C 230.675 0.400897 1.90835 0
M  V30 2376 O 229.945 -0.584415 1.8698 0
M  V30 2377 H 228.525 0.613672 0.425929 0
M  V30 2378 H 231.187 1.89464 0.457093 0
M  V30 2379 H 230.283 2.50942 1.85566 0
M  V30 2380 N 230.584 -0.659388 1.43143 0
M  V30 2381 C 231.494 -1.80167 1.50256 0
M  V30 2382 C 232.51 -1.69571 0.390106 0
M  V30 2383 O 233.686 -1.90849 0.643319 0
M  V30 2384 C 230.751 -3.16409 1.41725 0
M  V30 2385 C 229.812 -3.38848 2.63591 0
M  V30 2386 C 229.045 -4.68591 2.55458 0
M  V30 2387 O 229.268 -5.47532 1.59891 0
M  V30 2388 O 228.202 -4.92614 3.45854 0
M  V30 2389 H 232.028 -1.77121 2.46702 0
M  V30 2390 H 229.613 -0.817092 1.25076 0
M  V30 2391 H 231.495 -3.9768 1.39387 0
M  V30 2392 H 230.17 -3.20059 0.484118 0
M  V30 2393 H 229.077 -2.57366 2.71502 0
M  V30 2394 H 230.41 -3.4004 3.55856 0
M  V30 2395 N 232.062 -1.29571 -0.897171 0
M  V30 2396 C 233.287 -1.20705 -1.68656 0
M  V30 2397 C 233.712 0.228582 -1.86706 0
M  V30 2398 O 233.07 1.16494 -1.3892 0
M  V30 2399 C 233.118 -1.9282 -3.04717 0
M  V30 2400 O 232.222 -1.24697 -3.93096 0
M  V30 2401 H 231.563 -0.418126 -0.515816 0
M  V30 2402 H 234.093 -1.71183 -1.12061 0
M  V30 2403 H 234.103 -2.01372 -3.54843 0
M  V30 2404 H 232.778 -2.97239 -2.90899 0
M  V30 2405 H 231.355 -1.2442 -3.51531 0
M  V30 2406 N 233.54 1.10788 -1.12088 0
M  V30 2407 C 234.765 1.87002 -0.896949 0
M  V30 2408 C 235.19 1.79933 0.548261 0
M  V30 2409 O 234.548 1.16662 1.38779 0
M  V30 2410 C 234.596 3.3349 -1.37174 0
M  V30 2411 O 233.7 4.08745 -0.547831 0
M  V30 2412 H 233.041 0.580397 -0.322545 0
M  V30 2413 H 235.571 1.39996 -1.49206 0
M  V30 2414 H 235.581 3.84339 -1.36922 0
M  V30 2415 H 234.256 3.37951 -2.42408 0
M  V30 2416 H 232.833 3.6776 -0.617034 0
M  V30 2417 N 235.018 0.912232 1.28515 0
M  V30 2418 C 236.246 0.560416 1.99166 0
M  V30 2419 C 236.661 -0.857927 1.68182 0
M  V30 2420 O 236.018 -1.56805 0.933733 0
M  V30 2421 C 236.069 0.758142 3.53461 0
M  V30 2422 O 235.79 2.12067 3.83352 0
M  V30 2423 C 237.291 0.412954 4.41372 0
M  V30 2424 H 234.511 0.213805 0.636026 0
M  V30 2425 H 237.055 1.22502 1.63749 0
M  V30 2426 H 235.21 0.140556 3.87145 0
M  V30 2427 H 235.624 2.15923 4.77993 0
M  V30 2428 H 237.098 0.60208 5.48707 0
M  V30 2429 H 237.575 -0.65073 4.34353 0
M  V30 2430 H 238.181 1.00802 4.13182 0
M  V30 2431 N 236.496 -1.42363 0.676048 0
M  V30 2432 C 237.744 -2.01123 0.198437 0
M  V30 2433 C 238.065 -1.53731 -1.19966 0
M  V30 2434 O 237.335 -0.759518 -1.80577 0
M  V30 2435 H 235.915 -0.743678 0.0703721 0
M  V30 2436 H 238.577 -1.74263 0.872837 0
M  V30 2437 H 237.673 -3.11454 0.200686 0
M  V30 2438 N 237.974 -0.419461 -1.51915 0
M  V30 2439 C 239.22 0.153166 -2.02221 0
M  V30 2440 C 239.553 1.43907 -1.30401 0
M  V30 2441 O 238.828 1.90055 -0.413438 0
M  V30 2442 C 239.111 0.390291 -3.57979 0
M  V30 2443 C 238.964 -0.913014 -4.40436 0
M  V30 2444 C 240.283 1.16794 -4.2432 0
M  V30 2445 H 237.402 0.0541924 -0.735005 0
M  V30 2446 H 240.044 -0.554955 -1.81715 0
M  V30 2447 H 238.194 0.993491 -3.75582 0
M  V30 2448 H 239.866 -1.54882 -4.34522 0
M  V30 2449 H 238.109 -1.52168 -4.06236 0
M  V30 2450 H 238.78 -0.701361 -5.47526 0
M  V30 2451 H 241.256 0.657161 -4.10878 0
M  V30 2452 H 240.132 1.3026 -5.3322 0
M  V30 2453 H 240.393 2.19132 -3.83971 0
M  V30 2454 N 239.452 1.56882 -0.150215 0
M  V30 2455 C 240.382 2.19935 0.784284 0
M  V30 2456 C 241.363 1.14854 1.25469 0
M  V30 2457 O 242.548 1.43209 1.31168 0
M  V30 2458 C 239.678 2.82349 2.02229 0
M  V30 2459 C 238.632 3.93285 1.68853 0
M  V30 2460 C 237.958 4.42649 2.99944 0
M  V30 2461 C 239.258 5.13904 0.932714 0
M  V30 2462 H 240.952 2.9828 0.258781 0
M  V30 2463 H 238.498 1.43473 0.123029 0
M  V30 2464 H 240.451 3.25126 2.68088 0
M  V30 2465 H 239.175 2.0134 2.57157 0
M  V30 2466 H 237.834 3.5113 1.05371 0
M  V30 2467 H 237.482 3.58458 3.52869 0
M  V30 2468 H 237.182 5.17476 2.78374 0
M  V30 2469 H 238.706 4.88099 3.66868 0
M  V30 2470 H 240.12 5.53506 1.49345 0
M  V30 2471 H 238.517 5.94515 0.81684 0
M  V30 2472 H 239.587 4.84842 -0.0749568 0
M  V30 2473 N 240.93 -0.123565 1.57115 0
M  V30 2474 C 241.862 -1.17739 1.96648 0
M  V30 2475 C 242.875 -1.37906 0.865201 0
M  V30 2476 O 244.064 -1.37062 1.14351 0
M  V30 2477 C 241.164 -2.53821 2.24562 0
M  V30 2478 C 240.337 -2.54317 3.55867 0
M  V30 2479 C 239.396 -3.72112 3.72047 0
M  V30 2480 O 238.422 -3.55907 4.44206 0
M  V30 2481 N 239.624 -4.90498 3.10471 0
M  V30 2482 H 242.389 -0.841147 2.87654 0
M  V30 2483 H 239.95 -0.31289 1.58848 0
M  V30 2484 H 241.942 -3.31175 2.32606 0
M  V30 2485 H 240.512 -2.79645 1.39705 0
M  V30 2486 H 239.732 -1.62711 3.59053 0
M  V30 2487 H 241.02 -2.51701 4.42181 0
M  V30 2488 H 240.418 -5.06567 2.51806 0
M  V30 2489 H 238.975 -5.65544 3.24043 0
M  V30 2490 N 242.408 -1.52605 -0.393616 0
M  V30 2491 C 243.819 -1.59417 -0.971761 0
M  V30 2492 C 244.17 -0.444173 -1.91106 0
M  V30 2493 O 243.295 0.433382 -2.12016 0
M  V30 2494 C 243.89 -2.88936 -1.76921 0
M  V30 2495 C 242.449 -2.98175 -2.29714 0
M  V30 2496 C 241.596 -2.54491 -1.10135 0
M  V30 2497 H 244.547 -1.57751 -0.173317 0
M  V30 2498 H 244.568 -2.75163 -2.62804 0
M  V30 2499 H 244.08 -3.72616 -1.08532 0
M  V30 2500 H 242.181 -2.19024 -3.01429 0
M  V30 2501 H 242.294 -4.02726 -2.59517 0
M  V30 2502 H 240.658 -2.08702 -1.45999 0
M  V30 2503 H 241.441 -3.4056 -0.432874 0
M  V30 2504 N 243.887 0.651787 -1.4349 0
M  V30 2505 C 244.817 1.77621 -1.51569 0
M  V30 2506 C 245.798 1.66022 -0.370253 0
M  V30 2507 O 246.983 1.85095 -0.587658 0
M  V30 2508 C 244.113 3.16056 -1.43966 0
M  V30 2509 C 243.067 3.4242 -2.56774 0
M  V30 2510 C 242.393 4.8067 -2.34223 0
M  V30 2511 C 243.693 3.37023 -3.99015 0
M  V30 2512 H 245.387 1.71117 -2.45681 0
M  V30 2513 H 242.933 0.821825 -1.18246 0
M  V30 2514 H 244.886 3.94472 -1.48221 0
M  V30 2515 H 243.61 3.23293 -0.463586 0
M  V30 2516 H 242.269 2.66375 -2.51873 0
M  V30 2517 H 241.917 4.84585 -1.34856 0
M  V30 2518 H 241.617 4.9927 -3.09844 0
M  V30 2519 H 243.141 5.61342 -2.40265 0
M  V30 2520 H 244.555 4.05374 -4.05395 0
M  V30 2521 H 242.952 3.67159 -4.74673 0
M  V30 2522 H 244.022 2.3518 -4.2405 0
M  V30 2523 N 245.365 1.30045 0.890287 0
M  V30 2524 C 246.642 1.09227 1.62262 0
M  V30 2525 C 247.022 -0.360305 2.08002 0
M  V30 2526 O 246.37 -1.35084 1.84295 0
M  V30 2527 C 246.58 2.08835 2.79623 0
M  V30 2528 C 247.928 2.40266 3.50082 0
M  V30 2529 O 248.952 2.07104 2.89804 0
M  V30 2530 O 247.811 2.96967 4.58773 0
M  V30 2531 H 244.905 0.419132 0.712922 0
M  V30 2532 H 247.451 1.41451 0.937529 0
M  V30 2533 H 246.223 3.06633 2.43089 0
M  V30 2534 H 245.846 1.77397 3.55832 0
M  V30 2535 N 246.843 -1.10192 1.12674 0
M  V30 2536 C 248.091 -1.81845 0.881861 0
M  V30 2537 C 248.412 -1.85737 -0.593867 0
M  V30 2538 O 247.682 -1.33724 -1.4316 0
M  V30 2539 H 246.262 -0.673432 0.323261 0
M  V30 2540 H 248.924 -1.33316 1.42172 0
M  V30 2541 H 248.02 -2.85288 1.2656 0
M  V30 2542 N 248.321 -0.919034 -1.28029 0
M  V30 2543 C 249.568 -0.554934 -1.94748 0
M  V30 2544 C 249.896 0.90231 -1.72304 0
M  V30 2545 O 249.151 1.65767 -1.04018 0
M  V30 2546 C 249.45 -0.816855 -3.4794 0
M  V30 2547 C 249.116 -2.25448 -3.90492 0
M  V30 2548 C 247.778 -2.64752 -4.01821 0
M  V30 2549 C 250.13 -3.18977 -4.12193 0
M  V30 2550 C 247.458 -3.96727 -4.32232 0
M  V30 2551 C 249.81 -4.50523 -4.44086 0
M  V30 2552 C 248.474 -4.89673 -4.53626 0
M  V30 2553 H 247.744 -0.203065 -0.712633 0
M  V30 2554 H 250.391 -1.16136 -1.52265 0
M  V30 2555 H 248.696 -0.127677 -3.91592 0
M  V30 2556 H 250.393 -0.514238 -3.97689 0
M  V30 2557 H 246.983 -1.93952 -3.82205 0
M  V30 2558 H 251.167 -2.89817 -4.02889 0
M  V30 2559 H 246.423 -4.26754 -4.37825 0
M  V30 2560 H 250.597 -5.23005 -4.59825 0
M  V30 2561 H 248.224 -5.91969 -4.76946 0
M  V30 2562 N 249.799 1.42003 -0.683588 0
M  V30 2563 C 251.047 2.01015 -0.209101 0
M  V30 2564 C 251.368 1.54365 1.19149 0
M  V30 2565 O 250.638 0.769083 1.80172 0
M  V30 2566 H 249.218 0.743294 -0.074315 0
M  V30 2567 H 251.88 1.73798 -0.882066 0
M  V30 2568 H 250.976 3.11343 -0.2172 0
M  V30 2569 N 251.277 0.427512 1.51691 0
M  V30 2570 C 252.187 -0.39527 2.31246 0
M  V30 2571 C 253.203 -1.03674 1.39742 0
M  V30 2572 O 254.379 -1.03425 1.72816 0
M  V30 2573 C 251.444 -1.48706 3.13189 0
M  V30 2574 C 250.505 -0.866743 4.20459 0
M  V30 2575 C 249.738 -1.90651 4.98486 0
M  V30 2576 O 249.961 -3.12733 4.77026 0
M  V30 2577 O 248.895 -1.5025 5.82845 0
M  V30 2578 H 252.721 0.253918 3.02637 0
M  V30 2579 H 250.306 0.190274 1.48183 0
M  V30 2580 H 252.188 -2.12047 3.64162 0
M  V30 2581 H 250.863 -2.12051 2.44573 0
M  V30 2582 H 249.77 -0.195544 3.73589 0
M  V30 2583 H 251.103 -0.276934 4.9142 0
M  V30 2584 N 252.755 -1.56801 0.158532 0
M  V30 2585 C 253.685 -2.20347 -0.772609 0
M  V30 2586 C 254.666 -1.15518 -1.24859 0
M  V30 2587 O 255.851 -1.43902 -1.30406 0
M  V30 2588 C 252.981 -2.83417 -2.00729 0
M  V30 2589 C 251.935 -3.94174 -1.66765 0
M  V30 2590 C 251.261 -4.44233 -2.97592 0
M  V30 2591 C 252.561 -5.14392 -0.905447 0
M  V30 2592 H 254.255 -2.98413 -0.242959 0
M  V30 2593 H 251.801 -1.43537 -0.115419 0
M  V30 2594 H 253.754 -3.26543 -2.6636 0
M  V30 2595 H 252.478 -2.02701 -2.56086 0
M  V30 2596 H 251.137 -3.51684 -1.03508 0
M  V30 2597 H 250.785 -3.60325 -3.50963 0
M  V30 2598 H 250.485 -5.18945 -2.75626 0
M  V30 2599 H 252.009 -4.90037 -3.64274 0
M  V30 2600 H 253.423 -5.5429 -1.46408 0
M  V30 2601 H 251.82 -5.9494 -0.7853 0
M  V30 2602 H 252.89 -4.84795 0.100668 0
M  V30 2603 N 254.233 0.115231 -1.57178 0
M  V30 2604 C 255.473 0.828199 -1.8687 0
M  V30 2605 C 255.837 1.76873 -0.747002 0
M  V30 2606 O 257.038 2.52354 -0.925785 0
M  V30 2607 C 255.309 1.55515 -3.21792 0
M  V30 2608 S 256.868 2.30917 -3.73125 0
M  V30 2609 H 253.686 0.27634 -0.655101 0
M  V30 2610 H 256.288 0.0863469 -1.95309 0
M  V30 2611 H 254.992 0.856248 -4.01368 0
M  V30 2612 H 254.523 2.3373 -3.16439 0
M  V30 2613 H 256.538 3.56705 -3.44929 0
M  V30 2614 N 255.711 1.52812 0.385517 0
M  V30 2615 C 256.661 1.74219 1.47078 0
M  V30 2616 C 257.645 0.59632 1.49442 0
M  V30 2617 O 258.837 0.85428 1.5502 0
M  V30 2618 C 255.966 1.9176 2.84751 0
M  V30 2619 C 255.052 3.12289 2.86943 0
M  V30 2620 N 255.443 4.34575 2.58802 0
M  V30 2621 C 253.741 3.12605 3.1811 0
M  V30 2622 C 254.442 5.162 2.68166 0
M  V30 2623 N 253.418 4.51964 3.02043 0
M  V30 2624 H 257.22 2.6639 1.24152 0
M  V30 2625 H 254.734 1.51166 0.593504 0
M  V30 2626 H 256.731 2.05218 3.62893 0
M  V30 2627 H 255.391 1.00805 3.08656 0
M  V30 2628 H 256.402 4.62649 2.32759 0
M  V30 2629 H 253.079 2.31472 3.47458 0
M  V30 2630 H 254.469 6.23689 2.49923 0
M  V30 2631 N 257.189 -0.644168 1.43834 0
M  V30 2632 C 258.605 -0.960875 1.27434 0
M  V30 2633 C 258.805 -2.00499 0.200618 0
M  V30 2634 O 257.861 -2.49018 -0.417906 0
M  V30 2635 C 259.174 -1.43653 2.64167 0
M  V30 2636 C 260.722 -1.55271 2.71772 0
M  V30 2637 C 261.197 -2.06224 4.08944 0
M  V30 2638 N 262.688 -2.13513 4.11055 0
M  V30 2639 C 263.423 -2.54081 5.14033 0
M  V30 2640 N 262.919 -2.9388 6.27381 0
M  V30 2641 N 264.712 -2.54101 5.01387 0
M  V30 2642 H 256.863 0.0465779 2.12349 0
M  V30 2643 H 259.126 -0.0417638 0.94708 0
M  V30 2644 H 258.832 -0.743706 3.43747 0
M  V30 2645 H 258.706 -2.40993 2.90176 0
M  V30 2646 H 261.093 -2.23653 1.92519 0
M  V30 2647 H 261.174 -0.563395 2.49519 0
M  V30 2648 H 260.818 -1.38441 4.88668 0
M  V30 2649 H 260.748 -3.06003 4.28567 0
M  V30 2650 H 263.239 -1.85493 3.29242 0
M  V30 2651 H 263.552 -3.2361 7.01781 0
M  V30 2652 H 261.897 -2.91663 6.30839 0
M  V30 2653 H 265.088 -2.22391 4.11898 0
M  V30 2654 H 265.261 -2.85394 5.81768 0
M  V30 2655 N 258.668 -1.30515 -0.883378 0
M  V30 2656 C 259.898 -1.22182 -1.66599 0
M  V30 2657 C 260.306 0.217507 -1.87946 0
M  V30 2658 O 259.649 1.1554 -1.42815 0
M  V30 2659 C 259.711 -1.88146 -3.06335 0
M  V30 2660 C 259.375 -3.37476 -3.08154 0
M  V30 2661 C 260.372 -4.33443 -2.87094 0
M  V30 2662 C 258.057 -3.7895 -3.29701 0
M  V30 2663 C 260.051 -5.68858 -2.8754 0
M  V30 2664 C 257.738 -5.14482 -3.29776 0
M  V30 2665 C 258.736 -6.09246 -3.0872 0
M  V30 2666 O 258.424 -7.42302 -3.08615 0
M  V30 2667 H 258.156 -0.423898 -0.52658 0
M  V30 2668 H 260.71 -1.72703 -1.11188 0
M  V30 2669 H 258.94 -1.32157 -3.63416 0
M  V30 2670 H 260.629 -1.7391 -3.66756 0
M  V30 2671 H 261.395 -4.02733 -2.70243 0
M  V30 2672 H 257.274 -3.05631 -3.45124 0
M  V30 2673 H 260.818 -6.428 -2.71024 0
M  V30 2674 H 256.715 -5.44832 -3.46163 0
M  V30 2675 H 257.483 -7.5131 -3.24769 0
M  V30 2676 N 260.146 1.09593 -1.13257 0
M  V30 2677 C 261.093 2.1618 -0.808381 0
M  V30 2678 C 262.063 1.64517 0.228754 0
M  V30 2679 O 263.248 1.9053 0.101381 0
M  V30 2680 C 260.388 3.43973 -0.278675 0
M  V30 2681 C 259.501 4.09545 -1.37466 0
M  V30 2682 C 258.636 5.25088 -0.803479 0
M  V30 2683 C 257.675 5.82579 -1.87799 0
M  V30 2684 N 256.812 6.89486 -1.32488 0
M  V30 2685 H 261.652 2.43254 -1.72138 0
M  V30 2686 H 259.189 1.19392 -0.859294 0
M  V30 2687 H 261.147 4.17174 0.0465583 0
M  V30 2688 H 259.777 3.17223 0.597459 0
M  V30 2689 H 258.829 3.34226 -1.81652 0
M  V30 2690 H 260.141 4.48307 -2.18684 0
M  V30 2691 H 259.295 6.05178 -0.429427 0
M  V30 2692 H 258.034 4.87684 0.0397956 0
M  V30 2693 H 257.039 5.01152 -2.26113 0
M  V30 2694 H 258.264 6.22045 -2.72463 0
M  V30 2695 H 256.21 6.54064 -0.503575 0
M  V30 2696 H 256.127 7.27007 -2.07355 0
M  V30 2697 H 257.395 7.73336 -0.978336 0
M  V30 2698 N 261.624 0.925811 1.2754 0
M  V30 2699 C 262.864 0.572521 1.96218 0
M  V30 2700 C 263.228 -0.869719 1.71172 0
M  V30 2701 O 264.429 -1.33119 2.33523 0
M  V30 2702 C 262.7 0.887325 3.4621 0
M  V30 2703 S 264.259 0.642266 4.34074 0
M  V30 2704 H 261.077 0.211403 0.678845 0
M  V30 2705 H 263.679 1.19384 1.54815 0
M  V30 2706 H 262.383 1.93469 3.61936 0
M  V30 2707 H 261.914 0.255123 3.92572 0
M  V30 2708 H 263.929 -0.500822 4.93666 0
M  V30 2709 N 263.102 -1.41638 0.69111 0
M  V30 2710 C 264.032 -2.3347 0.037248 0
M  V30 2711 C 265.013 -1.51575 -0.771947 0
M  V30 2712 O 266.198 -1.80126 -0.72582 0
M  V30 2713 C 263.328 -3.35354 -0.903064 0
M  V30 2714 C 262.282 -4.27526 -0.201288 0
M  V30 2715 C 261.608 -5.19747 -1.25565 0
M  V30 2716 C 262.908 -5.13959 0.929689 0
M  V30 2717 H 264.602 -2.88397 0.804227 0
M  V30 2718 H 262.148 -1.38669 0.388189 0
M  V30 2719 H 264.101 -3.98519 -1.36969 0
M  V30 2720 H 262.825 -2.78767 -1.70166 0
M  V30 2721 H 261.484 -3.65779 0.245265 0
M  V30 2722 H 261.132 -4.59479 -2.04666 0
M  V30 2723 H 260.832 -5.8225 -0.791128 0
M  V30 2724 H 262.356 -5.85789 -1.72288 0
M  V30 2725 H 263.77 -5.70718 0.543546 0
M  V30 2726 H 262.167 -5.85379 1.32103 0
M  V30 2727 H 263.237 -4.51389 1.77133 0
M  V30 2728 N 264.58 -0.43555 -1.51462 0
M  V30 2729 C 265.51 0.367376 -2.30592 0
M  V30 2730 C 266.491 1.02263 -1.35928 0
M  V30 2731 O 267.676 1.02661 -1.64847 0
M  V30 2732 C 264.806 1.46983 -3.14664 0
M  V30 2733 C 263.76 0.938161 -4.17591 0
M  V30 2734 C 263.086 2.13622 -4.90173 0
M  V30 2735 C 264.386 -0.0261621 -5.22293 0
M  V30 2736 H 266.08 -0.292969 -2.97963 0
M  V30 2737 H 263.626 -0.14234 -1.43295 0
M  V30 2738 H 265.579 2.03873 -3.688 0
M  V30 2739 H 264.303 2.15843 -2.4511 0
M  V30 2740 H 262.962 0.391481 -3.64504 0
M  V30 2741 H 262.61 2.81098 -4.17124 0
M  V30 2742 H 262.31 1.78688 -5.59772 0
M  V30 2743 H 263.834 2.7107 -5.47132 0
M  V30 2744 H 265.248 0.452384 -5.71512 0
M  V30 2745 H 263.645 -0.287992 -5.99409 0
M  V30 2746 H 264.715 -0.963391 -4.75233 0
M  V30 2747 N 266.058 1.56714 -0.166846 0
M  V30 2748 C 266.988 2.20754 0.760913 0
M  V30 2749 C 267.969 1.16178 1.24244 0
M  V30 2750 O 269.154 1.44592 1.29641 0
M  V30 2751 C 266.284 2.84478 1.99223 0
M  V30 2752 C 265.238 3.95053 1.64672 0
M  V30 2753 C 264.564 4.45805 2.95232 0
M  V30 2754 C 265.864 5.14865 0.878155 0
M  V30 2755 H 267.558 2.98537 0.22713 0
M  V30 2756 H 265.104 1.43596 0.107805 0
M  V30 2757 H 267.057 3.27951 2.64624 0
M  V30 2758 H 265.781 2.04056 2.55007 0
M  V30 2759 H 264.44 3.52228 1.01641 0
M  V30 2760 H 264.088 3.62181 3.49047 0
M  V30 2761 H 263.788 5.204 2.7287 0
M  V30 2762 H 265.312 4.91962 3.6167 0
M  V30 2763 H 266.726 5.55059 1.43466 0
M  V30 2764 H 265.123 5.95348 0.753738 0
M  V30 2765 H 266.193 4.84735 -0.126377 0
M  V30 2766 N 267.536 -0.106894 1.57237 0
M  V30 2767 C 268.782 -0.81373 1.85759 0
M  V30 2768 C 269.115 -1.78952 0.754315 0
M  V30 2769 O 268.39 -1.93029 -0.23879 0
M  V30 2770 C 268.673 -1.55293 3.24894 0
M  V30 2771 C 268.526 -0.595929 4.45835 0
M  V30 2772 C 269.845 -2.5063 3.61763 0
M  V30 2773 H 266.964 -0.294369 0.67566 0
M  V30 2774 H 269.606 -0.0776472 1.89841 0
M  V30 2775 H 267.756 -2.1804 3.21544 0
M  V30 2776 H 269.428 0.0236262 4.61294 0
M  V30 2777 H 267.671 0.0916191 4.33703 0
M  V30 2778 H 268.342 -1.15004 5.39887 0
M  V30 2779 H 270.818 -1.97982 3.65981 0
M  V30 2780 H 269.694 -2.99376 4.60071 0
M  V30 2781 H 269.955 -3.3385 2.89821 0
M  V30 2782 N 269.014 -1.53014 -0.377408 0
M  V30 2783 C 270.291 -1.59215 -1.13622 0
M  V30 2784 C 270.671 -0.392407 -2.07421 0
M  V30 2785 O 270.019 0.618342 -2.19975 0
M  V30 2786 C 270.229 -2.93669 -1.88573 0
M  V30 2787 C 271.577 -3.47822 -2.43526 0
M  V30 2788 O 272.601 -2.9562 -1.98715 0
M  V30 2789 O 271.46 -4.39055 -3.25412 0
M  V30 2790 H 268.554 -0.642625 -0.52054 0
M  V30 2791 H 271.1 -1.65353 -0.381625 0
M  V30 2792 H 269.872 -3.7243 -1.20048 0
M  V30 2793 H 269.495 -2.90968 -2.70968 0
M  V30 2794 N 270.492 0.636531 -1.44174 0
M  V30 2795 C 271.717 1.42847 -1.50364 0
M  V30 2796 C 272.142 1.87665 -0.127867 0
M  V30 2797 O 271.5 1.58408 0.88185 0
M  V30 2798 C 271.548 2.62854 -2.4686 0
M  V30 2799 O 270.652 3.62501 -1.9664 0
M  V30 2800 H 269.993 0.427642 -0.507955 0
M  V30 2801 H 272.523 0.777422 -1.89255 0
M  V30 2802 H 272.533 3.10465 -2.64718 0
M  V30 2803 H 271.208 2.29578 -3.46795 0
M  V30 2804 H 269.785 3.21735 -1.88523 0
M  V30 2805 N 271.97 1.30982 0.876444 0
M  V30 2806 C 273.216 1.20474 1.63138 0
M  V30 2807 C 273.549 -0.238096 1.92735 0
M  V30 2808 O 272.824 -1.1692 1.55435 0
M  V30 2809 C 273.107 2.04244 2.96574 0
M  V30 2810 C 272.96 3.56793 2.73896 0
M  V30 2811 C 274.279 1.88684 3.97601 0
M  V30 2812 H 271.398 0.439001 0.591985 0
M  V30 2813 H 274.04 1.60704 1.01361 0
M  V30 2814 H 272.19 1.70063 3.493 0
M  V30 2815 H 273.862 4.01077 2.27892 0
M  V30 2816 H 272.105 3.80548 2.08245 0
M  V30 2817 H 272.776 4.10706 3.68815 0
M  V30 2818 H 275.252 2.18584 3.54062 0
M  V30 2819 H 274.128 2.4961 4.88862 0
M  V30 2820 H 274.389 0.848343 4.33884 0
M  V30 2821 N 273.449 -1.08991 1.13837 0
M  V30 2822 C 274.412 -2.13925 0.822715 0
M  V30 2823 C 275.412 -1.599 -0.1699 0
M  V30 2824 O 276.602 -1.74104 0.0577251 0
M  V30 2825 C 273.734 -3.40155 0.225318 0
M  V30 2826 H 274.927 -2.43358 1.75262 0
M  V30 2827 H 272.48 -1.24603 0.943594 0
M  V30 2828 H 273.215 -3.16352 -0.713594 0
M  V30 2829 H 273 -3.80661 0.940193 0
M  V30 2830 H 274.49 -4.17594 0.0214784 0
M  V30 2831 N 274.927 -0.932562 -1.27047 0
M  V30 2832 C 276.152 -0.591474 -1.98787 0
M  V30 2833 C 276.577 0.824601 -1.69062 0
M  V30 2834 O 275.935 1.5541 -0.933677 0
M  V30 2835 C 275.983 -0.829808 -3.50922 0
M  V30 2836 O 275.087 0.102266 -4.12273 0
M  V30 2837 H 274.428 -0.227185 -0.623926 0
M  V30 2838 H 276.958 -1.25314 -1.61733 0
M  V30 2839 H 276.968 -0.747292 -4.01098 0
M  V30 2840 H 275.643 -1.86201 -3.7189 0
M  V30 2841 H 274.22 -0.0305761 -3.72887 0
M  V30 2842 N 276.405 1.4127 -0.698611 0
M  V30 2843 C 277.335 2.33447 -0.049629 0
M  V30 2844 C 278.316 1.51982 0.763898 0
M  V30 2845 O 279.501 1.80509 0.716257 0
M  V30 2846 C 276.631 3.35828 0.885267 0
M  V30 2847 C 275.585 4.27627 0.178613 0
M  V30 2848 C 274.911 5.20406 1.22807 0
M  V30 2849 C 276.211 5.13459 -0.956933 0
M  V30 2850 H 277.905 2.87966 -0.81951 0
M  V30 2851 H 275.451 1.38461 -0.395538 0
M  V30 2852 H 277.404 3.9924 1.34854 0
M  V30 2853 H 276.128 2.79666 1.68685 0
M  V30 2854 H 274.787 3.65643 -0.26466 0
M  V30 2855 H 274.435 4.60558 2.02226 0
M  V30 2856 H 274.135 5.82661 0.760239 0
M  V30 2857 H 275.659 5.86695 1.69179 0
M  V30 2858 H 277.073 5.70421 -0.573805 0
M  V30 2859 H 275.47 5.8467 -1.35205 0
M  V30 2860 H 276.54 4.50443 -1.79524 0
M  V30 2861 N 277.883 0.443576 1.51229 0
M  V30 2862 C 279.131 -0.120557 2.0174 0
M  V30 2863 C 279.452 -1.42665 1.32935 0
M  V30 2864 O 278.722 -1.9028 0.465866 0
M  V30 2865 H 277.302 -0.0475426 0.745486 0
M  V30 2866 H 279.964 0.587711 1.85828 0
M  V30 2867 H 279.06 -0.291972 3.10731 0
M  V30 2868 N 279.361 -1.56624 0.175154 0
M  V30 2869 C 280.609 -1.96609 -0.467885 0
M  V30 2870 C 280.93 -1.06238 -1.63519 0
M  V30 2871 O 280.2 -0.129523 -1.95471 0
M  V30 2872 H 278.78 -0.726008 -0.175845 0
M  V30 2873 H 281.442 -1.93195 0.257234 0
M  V30 2874 H 280.538 -3.00989 -0.825342 0
M  V30 2875 N 280.839 0.0985539 -1.57292 0
M  V30 2876 C 282.067 0.816318 -1.90115 0
M  V30 2877 C 282.482 1.72451 -0.768509 0
M  V30 2878 O 281.839 1.80643 0.259687 0
M  V30 2879 C 281.89 1.63259 -3.22535 0
M  V30 2880 O 281.611 0.760934 -4.31441 0
M  V30 2881 C 283.112 2.45372 -3.69199 0
M  V30 2882 H 280.332 0.233595 -0.629027 0
M  V30 2883 H 282.876 0.0768229 -2.04356 0
M  V30 2884 H 281.031 2.32463 -3.09903 0
M  V30 2885 H 281.445 1.32595 -5.07463 0
M  V30 2886 H 282.919 2.98144 -4.64558 0
M  V30 2887 H 283.396 3.23677 -2.96867 0
M  V30 2888 H 284.002 1.81373 -3.84687 0
M  V30 2889 N 282.317 1.53212 0.369288 0
M  V30 2890 C 283.728 1.60943 0.946276 0
M  V30 2891 C 284.079 0.47452 1.90375 0
M  V30 2892 O 283.204 -0.399597 2.12679 0
M  V30 2893 C 283.799 2.91715 1.72302 0
M  V30 2894 C 282.358 3.01792 2.24941 0
M  V30 2895 C 281.505 2.56211 1.06072 0
M  V30 2896 H 284.456 1.58007 0.148198 0
M  V30 2897 H 284.477 2.79309 2.58393 0
M  V30 2898 H 283.989 3.74295 1.0259 0
M  V30 2899 H 282.09 2.23791 2.97906 0
M  V30 2900 H 282.203 4.06803 2.53077 0
M  V30 2901 H 280.567 2.10998 1.4266 0
M  V30 2902 H 281.35 3.41206 0.378639 0
M  V30 2903 N 283.795 -0.628877 1.44509 0
M  V30 2904 C 284.725 -1.75187 1.54376 0
M  V30 2905 C 285.706 -1.65411 0.396618 0
M  V30 2906 O 286.891 -1.84137 0.617031 0
M  V30 2907 C 284.021 -3.13725 1.48976 0
M  V30 2908 C 282.975 -3.38291 2.62189 0
M  V30 2909 C 282.301 -4.76883 2.41841 0
M  V30 2910 C 283.601 -3.30632 4.04326 0
M  V30 2911 H 285.295 -1.67187 2.48373 0
M  V30 2912 H 282.841 -0.802909 1.19538 0
M  V30 2913 H 284.794 -3.92064 1.54478 0
M  V30 2914 H 283.518 -3.22515 0.514961 0
M  V30 2915 H 282.177 -2.62334 2.56079 0
M  V30 2916 H 281.825 -4.82378 1.42548 0
M  V30 2917 H 281.525 -4.94278 3.17747 0
M  V30 2918 H 283.049 -5.57449 2.49165 0
M  V30 2919 H 284.463 -3.98873 4.11793 0
M  V30 2920 H 282.86 -3.59561 4.80454 0
M  V30 2921 H 283.93 -2.28404 4.27738 0
M  V30 2922 N 285.273 -1.31445 -0.869486 0
M  V30 2923 C 286.503 -1.23942 -1.65294 0
M  V30 2924 C 286.911 0.197561 -1.88166 0
M  V30 2925 O 286.254 1.14019 -1.44033 0
M  V30 2926 C 286.316 -1.91385 -3.04322 0
M  V30 2927 C 285.98 -3.40726 -3.04557 0
M  V30 2928 C 286.977 -4.36464 -2.82481 0
M  V30 2929 C 284.662 -3.82425 -3.25663 0
M  V30 2930 C 286.656 -5.71876 -2.8149 0
M  V30 2931 C 284.343 -5.1795 -3.243 0
M  V30 2932 C 285.341 -6.12486 -3.02241 0
M  V30 2933 O 285.029 -7.45534 -3.00724 0
M  V30 2934 H 284.761 -0.429459 -0.522054 0
M  V30 2935 H 287.315 -1.73873 -1.0935 0
M  V30 2936 H 285.545 -1.36004 -3.61994 0
M  V30 2937 H 287.234 -1.77791 -3.64891 0
M  V30 2938 H 288 -4.05576 -2.65956 0
M  V30 2939 H 283.879 -3.09274 -3.41863 0
M  V30 2940 H 287.423 -6.45638 -2.64191 0
M  V30 2941 H 283.32 -5.48473 -3.40365 0
M  V30 2942 H 284.088 -7.54713 -3.16782 0
M  V30 2943 N 286.751 1.08385 -1.14413 0
M  V30 2944 C 287.684 2.14642 -0.774871 0
M  V30 2945 C 288.662 1.60761 0.243876 0
M  V30 2946 O 289.846 1.88031 0.132883 0
M  V30 2947 C 286.973 3.38366 -0.150491 0
M  V30 2948 C 286.019 4.10997 -1.13945 0
M  V30 2949 S 286.852 4.63797 -2.67679 0
M  V30 2950 C 288.008 5.90808 -2.06631 0
M  V30 2951 H 288.241 2.45633 -1.67487 0
M  V30 2952 H 285.774 1.20498 -0.96538 0
M  V30 2953 H 287.732 4.09996 0.203334 0
M  V30 2954 H 286.393 3.05572 0.72694 0
M  V30 2955 H 285.586 4.99783 -0.65059 0
M  V30 2956 H 285.188 3.4528 -1.43727 0
M  V30 2957 H 287.48 6.62411 -1.4219 0
M  V30 2958 H 288.423 6.4439 -2.93542 0
M  V30 2959 H 288.831 5.4383 -1.51357 0
M  V30 2960 N 288.23 0.939286 1.26551 0
M  V30 2961 C 289.507 0.5038 1.89001 0
M  V30 2962 C 289.887 -1.01854 1.84903 0
M  V30 2963 O 289.235 -1.87773 1.30206 0
M  V30 2964 C 289.445 1.063 3.32417 0
M  V30 2965 C 290.793 1.13051 4.09273 0
M  V30 2966 O 291.817 1.01345 3.41479 0
M  V30 2967 O 290.676 1.31233 5.30509 0
M  V30 2968 H 287.77 0.163897 0.810597 0
M  V30 2969 H 290.316 1.03173 1.34735 0
M  V30 2970 H 289.088 2.10665 3.29752 0
M  V30 2971 H 288.711 0.517408 3.94219 0
M  V30 2972 N 289.708 -1.40897 0.706093 0
M  V30 2973 C 291.124 -1.55042 0.37869 0
M  V30 2974 C 291.324 -1.67944 -1.11342 0
M  V30 2975 O 290.38 -1.66372 -1.89938 0
M  V30 2976 C 291.693 -2.78398 1.13643 0
M  V30 2977 C 293.241 -2.92206 1.12181 0
M  V30 2978 C 293.716 -4.18463 1.86152 0
M  V30 2979 N 295.207 -4.25443 1.83173 0
M  V30 2980 C 295.942 -5.2202 2.37239 0
M  V30 2981 N 295.438 -6.24563 2.99821 0
M  V30 2982 N 297.231 -5.14033 2.27435 0
M  V30 2983 H 289.382 -1.30769 1.67372 0
M  V30 2984 H 291.645 -0.631653 0.706907 0
M  V30 2985 H 291.351 -2.7511 2.19106 0
M  V30 2986 H 291.225 -3.70228 0.721853 0
M  V30 2987 H 293.612 -2.95004 0.0754171 0
M  V30 2988 H 293.693 -2.01521 1.57554 0
M  V30 2989 H 293.337 -4.16427 2.90776 0
M  V30 2990 H 293.267 -5.08141 1.38206 0
M  V30 2991 H 295.758 -3.51976 1.37556 0
M  V30 2992 H 296.071 -6.94665 3.38616 0
M  V30 2993 H 294.416 -6.25035 3.03902 0
M  V30 2994 H 297.607 -4.3285 1.78208 0
M  V30 2995 H 297.78 -5.89129 2.69873 0
M  V30 2996 N 291.186 -0.45159 -1.50991 0
M  V30 2997 C 292.118 0.388634 -2.25881 0
M  V30 2998 C 293.131 0.974041 -1.30446 0
M  V30 2999 O 294.32 0.865758 -1.56099 0
M  V30 3000 C 291.42 1.5571 -3.01011 0
M  V30 3001 C 290.593 1.08801 -4.23652 0
M  V30 3002 C 289.652 2.12825 -4.8124 0
M  V30 3003 O 288.678 1.71678 -5.42693 0
M  V30 3004 N 289.88 3.45453 -4.66522 0
M  V30 3005 H 292.645 -0.25329 -2.98628 0
M  V30 3006 H 290.206 -0.281268 -1.59438 0
M  V30 3007 H 292.198 2.24952 -3.3642 0
M  V30 3008 H 290.768 2.10409 -2.31186 0
M  V30 3009 H 289.988 0.22215 -3.93574 0
M  V30 3010 H 291.276 0.752213 -5.03209 0
M  V30 3011 H 290.674 3.81605 -4.17605 0
M  V30 3012 H 289.231 4.10549 -5.06254 0
M  V30 3013 N 292.664 1.56529 -0.183458 0
M  V30 3014 C 293.912 1.96855 0.457452 0
M  V30 3015 C 294.233 1.07104 1.62953 0
M  V30 3016 O 293.503 0.139887 1.954 0
M  V30 3017 H 292.083 0.72693 0.171992 0
M  V30 3018 H 294.745 1.93056 -0.267476 0
M  V30 3019 H 293.841 3.01423 0.809368 0
M  V30 3020 N 294.142 -0.090211 1.57342 0
M  V30 3021 C 295.391 -0.791531 1.8552 0
M  V30 3022 C 295.704 -1.79659 0.773441 0
M  V30 3023 O 296.91 -2.54616 0.942497 0
M  V30 3024 C 295.366 -1.45856 3.2902 0
M  V30 3025 C 294.974 -0.493017 4.45279 0
M  V30 3026 C 296.718 -2.14332 3.66418 0
M  V30 3027 C 294.625 -1.16491 5.79814 0
M  V30 3028 H 293.555 -0.299356 0.692027 0
M  V30 3029 H 296.206 -0.0445343 1.83446 0
M  V30 3030 H 294.588 -2.25318 3.2565 0
M  V30 3031 H 295.762 0.270464 4.60006 0
M  V30 3032 H 294.077 0.0863061 4.16311 0
M  V30 3033 H 296.674 -2.65344 4.64216 0
M  V30 3034 H 297.017 -2.93447 2.95287 0
M  V30 3035 H 297.55 -1.41724 3.71698 0
M  V30 3036 H 294.289 -0.41447 6.54188 0
M  V30 3037 H 293.809 -1.8997 5.68921 0
M  V30 3038 H 295.488 -1.69001 6.24538 0
M  V30 3039 N 295.62 -1.53406 -0.361157 0
M  V30 3040 C 296.897 -1.60411 -1.11927 0
M  V30 3041 C 297.277 -0.414385 -2.06993 0
M  V30 3042 O 296.625 0.594976 -2.20618 0
M  V30 3043 C 296.835 -2.95652 -1.85448 0
M  V30 3044 C 298.183 -3.50386 -2.39823 0
M  V30 3045 O 299.207 -2.97711 -1.95568 0
M  V30 3046 O 298.066 -4.42482 -3.20737 0
M  V30 3047 H 295.16 -0.64811 -0.513695 0
M  V30 3048 H 297.706 -1.65749 -0.364065 0
M  V30 3049 H 296.478 -3.73682 -1.16091 0
M  V30 3050 H 296.101 -2.93825 -2.67866 0
M  V30 3051 N 297.098 0.621204 -1.44841 0
M  V30 3052 C 298.347 1.37658 -1.47422 0
M  V30 3053 C 298.66 1.95264 -0.114629 0
M  V30 3054 O 299.866 2.71494 -0.0180199 0
M  V30 3055 C 298.322 2.49285 -2.59586 0
M  V30 3056 C 297.93 1.98149 -4.01797 0
M  V30 3057 C 299.674 3.26409 -2.71399 0
M  V30 3058 C 297.581 3.07178 -5.05367 0
M  V30 3059 H 296.511 0.517344 -0.548517 0
M  V30 3060 H 299.162 0.667257 -1.70938 0
M  V30 3061 H 297.544 3.22839 -2.29328 0
M  V30 3062 H 298.718 1.31395 -4.41669 0
M  V30 3063 H 297.033 1.33812 -3.94314 0
M  V30 3064 H 299.63 4.07706 -3.45948 0
M  V30 3065 H 299.973 3.76535 -1.77559 0
M  V30 3066 H 300.506 2.5995 -3.01116 0
M  V30 3067 H 297.245 2.61985 -6.00869 0
M  V30 3068 H 296.765 3.72542 -4.70077 0
M  V30 3069 H 298.444 3.71789 -5.29511 0
M  V30 3070 N 298.576 1.31904 0.862503 0
M  V30 3071 C 299.506 1.22782 1.98612 0
M  V30 3072 C 300.487 0.113362 1.69722 0
M  V30 3073 O 301.672 0.299218 1.91881 0
M  V30 3074 C 298.802 0.942058 3.34279 0
M  V30 3075 C 297.756 2.0169 3.77499 0
M  V30 3076 C 297.082 1.58369 5.10709 0
M  V30 3077 C 298.382 3.43096 3.93805 0
M  V30 3078 H 300.076 2.16788 2.06502 0
M  V30 3079 H 297.622 1.04366 0.992154 0
M  V30 3080 H 299.575 0.864818 4.1243 0
M  V30 3081 H 298.299 -0.0336603 3.26583 0
M  V30 3082 H 296.958 2.08416 3.01593 0
M  V30 3083 H 296.606 0.595628 4.99461 0
M  V30 3084 H 296.306 2.30279 5.40597 0
M  V30 3085 H 297.83 1.52067 5.91361 0
M  V30 3086 H 299.244 3.39003 4.62331 0
M  V30 3087 H 297.641 4.13288 4.35101 0
M  V30 3088 H 298.711 3.83334 2.96957 0
M  V30 3089 N 300.054 -1.07777 1.14986 0
M  V30 3090 C 301.284 -1.83752 0.944402 0
M  V30 3091 C 301.692 -1.8218 -0.51058 0
M  V30 3092 O 301.035 -1.22852 -1.36576 0
M  V30 3093 C 301.097 -3.32128 1.37592 0
M  V30 3094 C 300.761 -3.57425 2.84775 0
M  V30 3095 C 301.758 -3.5173 3.8286 0
M  V30 3096 C 299.443 -3.8523 3.2234 0
M  V30 3097 C 301.437 -3.73482 5.16517 0
M  V30 3098 C 299.124 -4.06634 4.56171 0
M  V30 3099 C 300.122 -4.00754 5.53069 0
M  V30 3100 O 299.81 -4.2159 6.84483 0
M  V30 3101 H 299.542 -0.58673 0.335744 0
M  V30 3102 H 302.096 -1.36982 1.53052 0
M  V30 3103 H 300.326 -3.79686 0.733165 0
M  V30 3104 H 302.015 -3.89555 1.14024 0
M  V30 3105 H 302.781 -3.30256 3.55184 0
M  V30 3106 H 298.66 -3.88923 2.47508 0
M  V30 3107 H 302.204 -3.68808 5.92137 0
M  V30 3108 H 298.101 -4.27593 4.83564 0
M  V30 3109 H 298.869 -4.38961 6.90837 0
M  V30 3110 N 301.532 -0.945985 -1.26051 0
M  V30 3111 C 302.757 -0.612525 -1.98149 0
M  V30 3112 C 303.182 0.806623 -1.69927 0
M  V30 3113 O 302.54 1.54411 -0.950108 0
M  V30 3114 C 302.588 -0.866981 -3.50023 0
M  V30 3115 O 301.692 0.0585333 -4.12358 0
M  V30 3116 H 301.033 -0.23379 -0.621481 0
M  V30 3117 H 303.563 -1.27023 -1.60395 0
M  V30 3118 H 303.573 -0.789792 -4.00283 0
M  V30 3119 H 302.248 -1.90135 -3.69894 0
M  V30 3120 H 300.825 -0.0701241 -3.72834 0
M  V30 3121 N 303.011 1.40521 -0.713556 0
M  V30 3122 C 304.259 2.00527 -0.251692 0
M  V30 3123 C 304.58 1.56857 1.15848 0
M  V30 3124 O 303.85 0.807127 1.785 0
M  V30 3125 H 302.43 0.741551 -0.0900646 0
M  V30 3126 H 305.092 1.71887 -0.918733 0
M  V30 3127 H 304.188 3.10813 -0.283192 0
M  V30 3128 N 304.489 0.459591 1.5075 0
M  V30 3129 C 305.714 -0.0996819 2.0716 0
M  V30 3130 C 306.139 -1.33761 1.32249 0
M  V30 3131 O 305.497 -1.77551 0.366786 0
M  V30 3132 C 305.545 -0.378226 3.58611 0
M  V30 3133 O 304.649 -1.46081 3.85661 0
M  V30 3134 H 303.99 0.00791392 0.663953 0
M  V30 3135 H 306.52 0.647329 1.9409 0
M  V30 3136 H 306.53 -0.622135 4.03229 0
M  V30 3137 H 305.205 0.526439 4.12555 0
M  V30 3138 H 303.782 -1.20511 3.5289 0
M  V30 3139 N 305.967 -1.56429 0.191757 0
M  V30 3140 C 306.899 -2.16154 -0.762245 0
M  V30 3141 C 307.912 -1.12247 -1.17917 0
M  V30 3142 O 309.101 -1.39353 -1.11548 0
M  V30 3143 C 306.201 -2.70606 -2.04024 0
M  V30 3144 C 305.374 -3.99381 -1.78364 0
M  V30 3145 C 304.433 -4.38692 -2.90578 0
M  V30 3146 O 303.459 -5.06179 -2.6033 0
M  V30 3147 N 304.661 -4.01922 -4.18854 0
M  V30 3148 H 307.426 -2.98643 -0.251526 0
M  V30 3149 H 304.987 -1.61897 0.00967373 0
M  V30 3150 H 306.979 -2.93891 -2.78227 0
M  V30 3151 H 305.549 -1.9259 -2.46227 0
M  V30 3152 H 304.769 -3.84262 -0.879581 0
M  V30 3153 H 306.057 -4.83445 -1.58614 0
M  V30 3154 H 305.455 -3.47631 -4.46283 0
M  V30 3155 H 304.012 -4.30165 -4.89695 0
M  V30 3156 N 307.445 0.0818655 -1.57387 0
M  V30 3157 C 308.392 1.09834 -2.0299 0
M  V30 3158 C 309.362 1.39043 -0.908639 0
M  V30 3159 O 310.547 1.50282 -1.17559 0
M  V30 3160 C 307.687 2.40971 -2.47037 0
M  V30 3161 C 306.8 2.18379 -3.7274 0
M  V30 3162 C 305.935 3.43008 -4.0561 0
M  V30 3163 C 304.974 3.15736 -5.24383 0
M  V30 3164 N 304.111 4.32667 -5.52941 0
M  V30 3165 H 308.951 0.702472 -2.89602 0
M  V30 3166 H 306.488 0.33531 -1.43227 0
M  V30 3167 H 308.446 3.1752 -2.70623 0
M  V30 3168 H 307.076 2.78379 -1.63417 0
M  V30 3169 H 306.128 1.32569 -3.56552 0
M  V30 3170 H 307.44 1.94227 -4.59431 0
M  V30 3171 H 306.594 4.27958 -4.30043 0
M  V30 3172 H 305.333 3.70225 -3.17466 0
M  V30 3173 H 304.338 2.2918 -4.99757 0
M  V30 3174 H 305.563 2.8985 -6.14136 0
M  V30 3175 H 303.509 4.59935 -4.67756 0
M  V30 3176 H 303.426 4.11753 -6.34031 0
M  V30 3177 H 304.694 5.18644 -5.81918 0
M  V30 3178 N 308.923 1.53595 0.353017 0
M  V30 3179 C 309.886 1.80232 1.41594 0
M  V30 3180 C 310.886 0.673081 1.46035 0
M  V30 3181 O 312.076 0.941335 1.46576 0
M  V30 3182 C 309.208 1.93578 2.80607 0
M  V30 3183 H 310.401 2.75174 1.19244 0
M  V30 3184 H 307.954 1.44864 0.586872 0
M  V30 3185 H 308.689 1.00746 3.08254 0
M  V30 3186 H 308.474 2.75724 2.78781 0
M  V30 3187 H 309.964 2.15735 3.57558 0
M  V30 3188 N 310.401 -0.613514 1.45168 0
M  V30 3189 C 311.331 -1.7354 1.56225 0
M  V30 3190 C 312.312 -1.64981 0.41414 0
M  V30 3191 O 313.497 -1.83472 0.636526 0
M  V30 3192 C 310.627 -3.12128 1.52295 0
M  V30 3193 C 309.581 -3.35491 2.65762 0
M  V30 3194 C 308.907 -4.74291 2.46885 0
M  V30 3195 C 310.207 -3.26325 4.0781 0
M  V30 3196 H 311.901 -1.64543 2.50132 0
M  V30 3197 H 309.447 -0.790185 1.20383 0
M  V30 3198 H 311.4 -3.90404 1.58628 0
M  V30 3199 H 310.124 -3.2195 0.549139 0
M  V30 3200 H 308.783 -2.59603 2.58847 0
M  V30 3201 H 308.431 -4.80839 1.47657 0
M  V30 3202 H 308.131 -4.9088 3.22972 0
M  V30 3203 H 309.655 -5.54775 2.55063 0
M  V30 3204 H 311.069 -3.94483 4.16 0
M  V30 3205 H 309.466 -3.54445 4.8424 0
M  V30 3206 H 310.536 -2.23855 4.30136 0
M  V30 3207 N 311.879 -1.3236 -0.855495 0
M  V30 3208 C 312.827 -1.2118 -1.9854 0
M  V30 3209 C 313.821 -0.116788 -1.68997 0
M  V30 3210 O 315.027 -0.279657 -1.77814 0
M  V30 3211 H 311.402 -0.375608 -0.651477 0
M  V30 3212 H 313.373 -2.16743 -2.05098 0
M  V30 3213 C 312.122 -0.950849 -3.34446 0
M  V30 3214 H 311.445 -1.78563 -3.57708 0
M  V30 3215 H 312.885 -0.912863 -4.14057 0
M  V30 3216 C 311.344 0.346404 -3.35114 0
M  V30 3217 O 311.874 1.35855 -3.7803 0
M  V30 3218 N 310.08 0.36808 -2.88259 0
M  V30 3219 H 309.627 -0.456102 -2.5353 0
M  V30 3220 H 309.585 1.23591 -2.89089 0
M  V30 3221 N 313.357 1.07166 -1.15556 0
M  V30 3222 C 314.32 2.12589 -0.856644 0
M  V30 3223 C 315.32 1.6015 0.14444 0
M  V30 3224 O 316.51 1.7399 -0.0854163 0
M  V30 3225 C 313.642 3.39753 -0.279405 0
M  V30 3226 H 314.835 2.40539 -1.79112 0
M  V30 3227 H 312.388 1.23086 -0.963298 0
M  V30 3228 H 313.123 3.17447 0.663174 0
M  V30 3229 H 312.908 3.79117 -1.00063 0
M  V30 3230 H 314.398 4.17507 -0.0879113 0
M  V30 3231 N 314.835 0.952656 1.25548 0
M  V30 3232 C 316.246 0.647392 1.75116 0
M  V30 3233 C 316.597 -0.837274 1.77438 0
M  V30 3234 O 315.722 -1.65525 1.39393 0
M  V30 3235 C 316.317 1.16845 3.18014 0
M  V30 3236 C 314.876 0.913382 3.6515 0
M  V30 3237 C 314.023 1.31265 2.44264 0
M  V30 3238 H 316.974 1.12968 1.11462 0
M  V30 3239 H 316.995 0.527606 3.76824 0
M  V30 3240 H 316.507 2.24902 3.16292 0
M  V30 3241 H 314.608 -0.152316 3.72289 0
M  V30 3242 H 314.721 1.54845 4.53387 0
M  V30 3243 H 313.085 0.731028 2.43984 0
M  V30 3244 H 313.868 2.40239 2.45234 0
M  V30 3245 N 316.313 -1.40141 0.720998 0
M  V30 3246 C 317.724 -1.83678 0.334553 0
M  V30 3247 C 318.075 -1.6027 -1.13173 0
M  V30 3248 O 317.2 -1.08643 -1.87152 0
M  V30 3249 C 317.795 -3.33437 0.600437 0
M  V30 3250 C 316.354 -3.75447 0.267642 0
M  V30 3251 C 315.501 -2.63296 0.870097 0
M  V30 3252 H 318.452 -1.29331 0.919732 0
M  V30 3253 H 318.473 -3.80269 -0.132517 0
M  V30 3254 H 317.985 -3.50442 1.66768 0
M  V30 3255 H 316.086 -3.64035 -0.794329 0
M  V30 3256 H 316.199 -4.73344 0.74042 0
M  V30 3257 H 314.563 -2.52954 0.297739 0
M  V30 3258 H 315.346 -2.83112 1.94172 0
M  V30 3259 N 317.792 -0.46758 -1.50504 0
M  V30 3260 C 319.04 0.0884469 -2.01906 0
M  V30 3261 C 319.361 1.40532 -1.35188 0
M  V30 3262 O 318.631 1.89515 -0.496079 0
M  V30 3263 H 317.211 0.0356765 -0.746148 0
M  V30 3264 H 319.873 -0.6172 -1.84869 0
M  V30 3265 H 318.969 0.2425 -3.11156 0
M  V30 3266 N 319.27 1.56325 -0.20005 0
M  V30 3267 C 320.498 2.02105 0.442874 0
M  V30 3268 C 320.913 1.08014 1.5485 0
M  V30 3269 O 320.27 0.0858797 1.82298 0
M  V30 3270 C 320.321 3.47549 0.994583 0
M  V30 3271 O 320.042 4.38049 -0.0669322 0
M  V30 3272 C 321.543 4.0887 1.7129 0
M  V30 3273 H 318.763 0.661807 0.110691 0
M  V30 3274 H 321.307 2.02134 -0.310207 0
M  V30 3275 H 319.462 3.48204 1.69803 0
M  V30 3276 H 319.876 5.23368 0.344462 0
M  V30 3277 H 321.35 5.12475 2.05118 0
M  V30 3278 H 321.827 3.52615 2.61838 0
M  V30 3279 H 322.433 4.12002 1.05518 0
M  V30 3280 N 320.748 -0.0735177 1.57428 0
M  V30 3281 C 321.973 -0.789787 1.91774 0
M  V30 3282 C 322.398 -1.70413 0.796306 0
M  V30 3283 O 321.756 -1.79555 -0.250961 0
M  V30 3284 C 321.804 -1.5609 3.25067 0
M  V30 3285 O 320.908 -2.67144 3.14178 0
M  V30 3286 H 320.249 -0.215582 0.628029 0
M  V30 3287 H 322.779 -0.0422781 2.04556 0
M  V30 3288 H 322.789 -1.94052 3.58898 0
M  V30 3289 H 321.464 -0.890015 4.06265 0
M  V30 3290 H 320.041 -2.32052 2.91901 0
M  V30 3291 N 322.226 -1.5378 -0.344866 0
M  V30 3292 C 323.156 -1.84662 -1.42906 0
M  V30 3293 C 324.137 -0.701648 -1.54955 0
M  V30 3294 O 325.322 -0.953438 -1.69184 0
M  V30 3295 C 322.452 -2.05503 -2.79974 0
M  V30 3296 C 321.406 -3.21318 -2.82734 0
M  V30 3297 C 320.732 -3.2749 -4.22675 0
M  V30 3298 C 322.032 -4.59456 -2.48389 0
M  V30 3299 H 323.726 -2.75461 -1.17311 0
M  V30 3300 H 321.272 -1.32542 -0.562896 0
M  V30 3301 H 323.225 -2.25691 -3.55867 0
M  V30 3302 H 321.949 -1.11434 -3.07002 0
M  V30 3303 H 320.608 -3.00984 -2.09294 0
M  V30 3304 H 320.256 -2.31019 -4.4681 0
M  V30 3305 H 319.956 -4.05316 -4.25433 0
M  V30 3306 H 321.48 -3.49887 -5.00412 0
M  V30 3307 H 322.894 -4.79667 -3.13995 0
M  V30 3308 H 321.291 -5.39675 -2.62432 0
M  V30 3309 H 322.361 -4.63155 -1.4358 0
M  V30 3310 N 323.704 0.605807 -1.45491 0
M  V30 3311 C 324.953 1.36086 -1.48874 0
M  V30 3312 C 325.266 1.95131 -0.135333 0
M  V30 3313 O 326.472 2.7146 -0.0468144 0
M  V30 3314 C 324.928 2.46518 -2.62215 0
M  V30 3315 C 324.536 1.93877 -4.03876 0
M  V30 3316 C 326.28 3.23512 -2.74846 0
M  V30 3317 C 324.187 3.01801 -5.08596 0
M  V30 3318 H 323.117 0.511497 -0.553974 0
M  V30 3319 H 325.768 0.649089 -1.71636 0
M  V30 3320 H 324.15 3.20388 -2.32739 0
M  V30 3321 H 325.324 1.26704 -4.43038 0
M  V30 3322 H 323.639 1.29622 -3.95711 0
M  V30 3323 H 326.236 4.04013 -3.50253 0
M  V30 3324 H 326.579 3.74631 -1.81542 0
M  V30 3325 H 327.112 2.56742 -3.03856 0
M  V30 3326 H 323.851 2.55597 -6.03614 0
M  V30 3327 H 323.371 3.67535 -4.74002 0
M  V30 3328 H 325.05 3.66152 -5.33424 0
M  V30 3329 N 325.182 1.32811 0.848464 0
M  V30 3330 C 326.407 1.26882 1.6406 0
M  V30 3331 C 326.832 -0.15913 1.87426 0
M  V30 3332 O 326.19 -1.11258 1.43148 0
M  V30 3333 C 326.238 2.03997 2.97351 0
M  V30 3334 O 325.342 1.39201 3.88197 0
M  V30 3335 H 324.683 0.436982 0.499943 0
M  V30 3336 H 327.213 1.75224 1.0563 0
M  V30 3337 H 327.223 2.14403 3.47124 0
M  V30 3338 H 325.898 3.0783 2.79666 0
M  V30 3339 H 324.475 1.37381 3.46671 0
M  V30 3340 N 326.66 -1.06551 1.16123 0
M  V30 3341 C 327.907 -1.79302 0.941126 0
M  V30 3342 C 328.235 -1.87105 -0.531235 0
M  V30 3343 O 327.49 -1.35692 -1.41018 0
M  V30 3344 C 327.789 -3.23911 1.51052 0
M  V30 3345 C 327.455 -3.36193 3.00475 0
M  V30 3346 C 326.117 -3.39252 3.41265 0
M  V30 3347 C 328.469 -3.38326 3.96465 0
M  V30 3348 C 325.797 -3.42057 4.76669 0
M  V30 3349 C 328.149 -3.4267 5.31752 0
M  V30 3350 C 326.813 -3.4401 5.72026 0
M  V30 3351 H 326.083 -0.656111 0.344382 0
M  V30 3352 H 328.73 -1.25325 1.44796 0
M  V30 3353 H 327.035 -3.80723 0.925063 0
M  V30 3354 H 328.732 -3.78793 1.31593 0
M  V30 3355 H 325.322 -3.34516 2.6795 0
M  V30 3356 H 329.506 -3.35176 3.6602 0
M  V30 3357 H 324.762 -3.41398 5.07206 0
M  V30 3358 H 328.936 -3.43268 6.05921 0
M  V30 3359 H 326.563 -3.45937 6.76928 0
M  V30 3360 N 328.138 -0.959301 -1.25041 0
M  V30 3361 C 329.363 -0.633507 -1.97488 0
M  V30 3362 C 329.788 0.788555 -1.70773 0
M  V30 3363 O 329.146 1.53394 -0.966431 0
M  V30 3364 C 329.194 -0.904057 -3.49083 0
M  V30 3365 O 328.298 0.0147939 -4.12397 0
M  V30 3366 H 327.639 -0.240368 -0.618966 0
M  V30 3367 H 330.169 -1.28717 -1.59038 0
M  V30 3368 H 330.179 -0.832203 -3.99423 0
M  V30 3369 H 328.854 -1.94048 -3.67856 0
M  V30 3370 H 327.431 -0.109664 -3.72739 0
M  V30 3371 N 329.616 1.39756 -0.72842 0
M  V30 3372 C 330.893 1.94574 -0.200079 0
M  V30 3373 C 331.273 1.66569 1.29684 0
M  V30 3374 O 330.621 0.990326 2.05924 0
M  V30 3375 C 330.831 3.45004 -0.526608 0
M  V30 3376 C 332.179 4.21965 -0.472318 0
M  V30 3377 O 333.203 3.53173 -0.463413 0
M  V30 3378 O 332.062 5.44552 -0.461075 0
M  V30 3379 H 329.156 0.826289 -0.0342851 0
M  V30 3380 H 331.702 1.49293 -0.806829 0
M  V30 3381 H 330.474 3.58796 -1.56144 0
M  V30 3382 H 330.097 3.97449 0.109449 0
M  V30 3383 N 331.094 0.475555 1.50254 0
M  V30 3384 C 332.041 -0.316293 2.28622 0
M  V30 3385 C 333.011 -0.983227 1.33873 0
M  V30 3386 O 334.196 -0.994805 1.62814 0
M  V30 3387 C 331.336 -1.38975 3.1588 0
M  V30 3388 C 330.449 -0.737146 4.25664 0
M  V30 3389 C 329.584 -1.78887 5.00173 0
M  V30 3390 C 328.623 -1.11676 6.01826 0
M  V30 3391 N 327.76 -2.11154 6.69596 0
M  V30 3392 H 332.6 0.358297 2.95838 0
M  V30 3393 H 330.137 0.188541 1.45887 0
M  V30 3394 H 332.095 -2.02383 3.64825 0
M  V30 3395 H 330.725 -2.03344 2.50701 0
M  V30 3396 H 329.777 0.0096065 3.80399 0
M  V30 3397 H 331.089 -0.206816 4.98371 0
M  V30 3398 H 330.243 -2.49865 5.52859 0
M  V30 3399 H 328.982 -2.35302 4.27182 0
M  V30 3400 H 327.987 -0.392633 5.48396 0
M  V30 3401 H 329.212 -0.55945 6.76792 0
M  V30 3402 H 327.158 -2.66577 5.99394 0
M  V30 3403 H 327.075 -1.63118 7.38193 0
M  V30 3404 H 328.343 -2.81497 7.26897 0
M  V30 3405 N 332.573 -1.56217 0.208337 0
M  V30 3406 C 333.536 -2.18455 -0.693557 0
M  V30 3407 C 334.536 -1.14268 -1.13135 0
M  V30 3408 O 335.726 -1.39577 -1.0423 0
M  V30 3409 C 332.858 -2.79727 -1.94848 0
M  V30 3410 H 334.051 -2.99519 -0.15114 0
M  V30 3411 H 331.604 -1.56245 -0.041287 0
M  V30 3412 H 332.339 -2.02497 -2.53309 0
M  V30 3413 H 332.124 -3.56009 -1.64316 0
M  V30 3414 H 333.614 -3.27475 -2.59133 0
M  V30 3415 N 334.051 0.0651679 -1.57465 0
M  V30 3416 C 334.998 1.07675 -2.04144 0
M  V30 3417 C 335.968 1.38071 -0.923335 0
M  V30 3418 O 337.153 1.49026 -1.19146 0
M  V30 3419 C 334.293 2.38337 -2.49579 0
M  V30 3420 C 333.406 2.14413 -3.75035 0
M  V30 3421 C 332.541 3.38686 -4.09225 0
M  V30 3422 C 331.58 3.10156 -5.27702 0
M  V30 3423 N 330.717 4.26778 -5.57499 0
M  V30 3424 H 335.557 0.671716 -2.90331 0
M  V30 3425 H 333.094 0.3201 -1.43575 0
M  V30 3426 H 335.052 3.14632 -2.73975 0
M  V30 3427 H 333.682 2.7663 -1.6636 0
M  V30 3428 H 332.734 1.2878 -3.57939 0
M  V30 3429 H 334.046 1.89344 -4.61466 0
M  V30 3430 H 333.2 4.23373 -4.34558 0
M  V30 3431 H 331.939 3.66837 -3.21374 0
M  V30 3432 H 330.944 2.23866 -5.02159 0
M  V30 3433 H 332.169 2.8332 -6.17176 0
M  V30 3434 H 330.115 4.54948 -4.72608 0
M  V30 3435 H 330.032 4.05005 -6.38362 0
M  V30 3436 H 331.3 5.12443 -5.87386 0
M  V30 3437 N 335.529 1.53961 0.336706 0
M  V30 3438 C 336.476 1.82428 1.41381 0
M  V30 3439 C 337.446 0.670444 1.51968 0
M  V30 3440 O 338.631 0.915565 1.67398 0
M  V30 3441 C 335.771 2.04564 2.77934 0
M  V30 3442 C 334.884 3.32267 2.76084 0
M  V30 3443 C 334.019 3.44434 4.04399 0
M  V30 3444 C 333.058 4.66061 3.96804 0
M  V30 3445 N 332.195 4.75224 5.16823 0
M  V30 3446 H 337.035 2.74324 1.16405 0
M  V30 3447 H 334.572 1.35869 0.563752 0
M  V30 3448 H 336.53 2.15388 3.57301 0
M  V30 3449 H 335.16 1.15974 3.01247 0
M  V30 3450 H 334.212 3.3025 1.88784 0
M  V30 3451 H 335.524 4.21733 2.66351 0
M  V30 3452 H 334.678 3.54728 4.92192 0
M  V30 3453 H 333.417 2.53037 4.16921 0
M  V30 3454 H 332.422 4.55838 3.07396 0
M  V30 3455 H 333.647 5.58829 3.85858 0
M  V30 3456 H 331.593 3.86739 5.29876 0
M  V30 3457 H 331.51 5.58636 5.09374 0
M  V30 3458 H 332.778 4.89835 6.06367 0
M  V30 3459 N 337.007 -0.598083 1.45811 0
M  V30 3460 C 337.954 -1.7082 1.55207 0
M  V30 3461 C 338.924 -1.61278 0.39732 0
M  V30 3462 O 340.109 -1.80717 0.612038 0
M  V30 3463 C 337.249 -3.09144 1.53376 0
M  V30 3464 C 336.362 -3.29423 2.79472 0
M  V30 3465 C 335.497 -4.57907 2.69248 0
M  V30 3466 C 334.536 -4.71476 3.90354 0
M  V30 3467 N 333.673 -5.9127 3.78608 0
M  V30 3468 H 338.513 -1.62125 2.50039 0
M  V30 3469 H 336.05 -0.790389 1.24062 0
M  V30 3470 H 338.008 -3.89186 1.50301 0
M  V30 3471 H 336.638 -3.16773 0.620876 0
M  V30 3472 H 335.69 -2.43091 2.92594 0
M  V30 3473 H 337.002 -3.3532 3.69272 0
M  V30 3474 H 336.156 -5.46157 2.64192 0
M  V30 3475 H 334.895 -4.54423 1.77063 0
M  V30 3476 H 333.9 -3.81648 3.95759 0
M  V30 3477 H 335.125 -4.76751 4.83617 0
M  V30 3478 H 333.071 -5.88813 2.89199 0
M  V30 3479 H 332.988 -5.98369 4.6205 0
M  V30 3480 H 334.256 -6.81992 3.77501 0
M  V30 3481 N 338.485 -1.33259 -0.841409 0
M  V30 3482 C 339.418 -1.1764 -1.95541 0
M  V30 3483 C 340.396 -0.072501 -1.62438 0
M  V30 3484 O 341.58 -0.23427 -1.87039 0
M  V30 3485 C 338.707 -0.803794 -3.29024 0
M  V30 3486 C 337.753 -1.91482 -3.81099 0
M  V30 3487 S 338.586 -3.52538 -4.03085 0
M  V30 3488 C 339.742 -3.17279 -5.39523 0
M  V30 3489 H 339.975 -2.11941 -2.08491 0
M  V30 3490 H 337.508 -1.18072 -0.9949 0
M  V30 3491 H 339.466 -0.595592 -4.06156 0
M  V30 3492 H 338.127 0.120574 -3.13868 0
M  V30 3493 H 337.32 -1.60742 -4.7768 0
M  V30 3494 H 336.922 -2.07956 -3.10854 0
M  V30 3495 H 339.214 -2.67946 -6.22263 0
M  V30 3496 H 340.157 -4.1293 -5.75234 0
M  V30 3497 H 340.565 -2.53943 -5.04156 0
M  V30 3498 N 339.963 1.05934 -1.16686 0
M  V30 3499 C 341.193 1.82226 -0.973515 0
M  V30 3500 C 341.601 1.8297 0.481532 0
M  V30 3501 O 340.944 1.25009 1.34604 0
M  V30 3502 C 341.006 3.29897 -1.42858 0
M  V30 3503 C 340.67 3.52849 -2.90425 0
M  V30 3504 C 341.667 3.45595 -3.88407 0
M  V30 3505 C 339.352 3.80053 -3.28428 0
M  V30 3506 C 341.346 3.65217 -5.22394 0
M  V30 3507 C 339.033 3.99325 -4.62583 0
M  V30 3508 C 340.031 3.91905 -5.59374 0
M  V30 3509 O 339.719 4.10647 -6.91104 0
M  V30 3510 H 339.451 0.581314 -0.345036 0
M  V30 3511 H 342.005 1.3453 -1.55212 0
M  V30 3512 H 340.235 3.78472 -0.793477 0
M  V30 3513 H 341.924 3.87692 -1.20207 0
M  V30 3514 H 342.69 3.24564 -3.60393 0
M  V30 3515 H 338.569 3.84936 -2.53664 0
M  V30 3516 H 342.113 3.59341 -5.9793 0
M  V30 3517 H 338.01 4.19846 -4.90306 0
M  V30 3518 H 338.778 4.27915 -6.97733 0
M  V30 3519 N 341.441 0.965919 1.2453 0
M  V30 3520 C 342.666 0.643971 1.97149 0
M  V30 3521 C 343.091 -0.779487 1.71189 0
M  V30 3522 O 342.449 -1.5288 0.974553 0
M  V30 3523 C 342.497 0.922557 3.48599 0
M  V30 3524 O 341.601 0.00707672 4.12399 0
M  V30 3525 H 340.942 0.243647 0.617683 0
M  V30 3526 H 343.472 1.29558 1.58353 0
M  V30 3527 H 343.482 0.853373 3.98976 0
M  V30 3528 H 342.157 1.95996 3.66822 0
M  V30 3529 H 340.734 0.12943 3.72675 0
M  V30 3530 N 342.919 -1.39368 0.735821 0
M  V30 3531 C 344.335 -1.54204 0.411492 0
M  V30 3532 C 344.535 -1.70268 -1.07755 0
M  V30 3533 O 343.591 -1.70364 -1.86366 0
M  V30 3534 C 344.904 -2.75925 1.19523 0
M  V30 3535 C 346.452 -2.89761 1.18354 0
M  V30 3536 C 346.927 -4.14421 1.94986 0
M  V30 3537 N 348.418 -4.21462 1.92156 0
M  V30 3538 C 349.153 -5.16871 2.48258 0
M  V30 3539 N 348.649 -6.18063 3.13001 0
M  V30 3540 N 350.442 -5.09093 2.38287 0
M  V30 3541 H 342.593 -1.27189 1.70108 0
M  V30 3542 H 344.856 -0.616517 0.720147 0
M  V30 3543 H 344.562 -2.70401 2.24892 0
M  V30 3544 H 344.436 -3.68614 0.800222 0
M  V30 3545 H 346.823 -2.94777 0.137975 0
M  V30 3546 H 346.904 -1.98133 1.61793 0
M  V30 3547 H 346.548 -4.10166 2.99543 0
M  V30 3548 H 346.478 -5.05095 1.48953 0
M  V30 3549 H 348.969 -3.48979 1.44991 0
M  V30 3550 H 349.282 -6.87326 3.53275 0
M  V30 3551 H 347.627 -6.18448 3.17091 0
M  V30 3552 H 350.818 -4.28973 1.8735 0
M  V30 3553 H 350.991 -5.83272 2.82308 0
M  V30 3554 N 344.397 -0.483516 -1.5 0
M  V30 3555 C 345.344 0.304164 -2.28787 0
M  V30 3556 C 346.314 0.976114 -1.34392 0
M  V30 3557 O 347.499 0.986156 -1.63339 0
M  V30 3558 C 344.639 1.37298 -3.16612 0
M  V30 3559 C 343.752 0.714561 -4.26049 0
M  V30 3560 C 342.887 1.76232 -5.01114 0
M  V30 3561 C 341.926 1.08483 -6.0241 0
M  V30 3562 N 341.063 2.076 -6.70706 0
M  V30 3563 H 345.903 -0.373981 -2.95644 0
M  V30 3564 H 343.44 -0.196275 -1.45785 0
M  V30 3565 H 345.398 2.00445 -3.65893 0
M  V30 3566 H 344.028 2.02012 -2.51776 0
M  V30 3567 H 343.08 -0.0297798 -3.80388 0
M  V30 3568 H 344.392 0.180383 -4.98474 0
M  V30 3569 H 343.546 2.46929 -5.54176 0
M  V30 3570 H 342.285 2.33033 -4.28424 0
M  V30 3571 H 341.29 0.363545 -5.48597 0
M  V30 3572 H 342.515 0.523551 -6.77079 0
M  V30 3573 H 340.461 2.63394 -6.00799 0
M  V30 3574 H 340.378 1.59201 -7.39047 0
M  V30 3575 H 341.646 2.77639 -7.2838 0
M  V30 3576 N 345.875 1.56104 -0.216619 0
M  V30 3577 C 347.103 2.02563 0.421413 0
M  V30 3578 C 347.518 1.0965 1.53695 0
M  V30 3579 O 346.875 0.10521 1.82196 0
M  V30 3580 C 346.926 3.48584 0.957665 0
M  V30 3581 O 346.647 4.37953 -0.113389 0
M  V30 3582 C 348.148 4.10664 1.66943 0
M  V30 3583 H 345.368 0.662944 0.103665 0
M  V30 3584 H 347.912 2.01793 -0.331629 0
M  V30 3585 H 346.067 3.49985 1.661 0
M  V30 3586 H 346.481 5.23704 0.288932 0
M  V30 3587 H 347.955 5.14622 1.99671 0
M  V30 3588 H 348.432 3.55373 2.58083 0
M  V30 3589 H 349.038 4.13098 1.01142 0
M  V30 3590 N 347.353 -0.0568162 1.57498 0
M  V30 3591 C 348.3 -1.06591 2.04712 0
M  V30 3592 C 349.27 -1.3758 0.930644 0
M  V30 3593 O 350.455 -1.48392 1.19935 0
M  V30 3594 C 347.595 -2.3701 2.50839 0
M  V30 3595 C 346.708 -2.12421 3.76167 0
M  V30 3596 C 345.843 -3.36511 4.11015 0
M  V30 3597 C 344.882 -3.07353 5.2934 0
M  V30 3598 N 344.019 -4.23816 5.59754 0
M  V30 3599 H 348.859 -0.65631 2.90683 0
M  V30 3600 H 346.396 -0.312481 1.43743 0
M  V30 3601 H 348.354 -3.13175 2.7564 0
M  V30 3602 H 346.984 -2.75744 1.67825 0
M  V30 3603 H 346.036 -1.2688 3.58616 0
M  V30 3604 H 347.348 -1.86894 4.62463 0
M  V30 3605 H 346.502 -4.21062 4.36797 0
M  V30 3606 H 345.241 -3.65128 3.23315 0
M  V30 3607 H 344.246 -2.212 5.03339 0
M  V30 3608 H 345.471 -2.80043 6.1867 0
M  V30 3609 H 343.417 -4.52436 4.75014 0
M  V30 3610 H 343.334 -4.01614 6.40501 0
M  V30 3611 H 344.602 -5.0932 5.90096 0
M  V30 3612 N 348.832 -1.54138 -0.328536 0
M  V30 3613 C 350.243 -1.63395 -0.903272 0
M  V30 3614 C 350.594 -0.524828 -1.8905 0
M  V30 3615 O 349.719 0.343068 -2.13663 0
M  V30 3616 C 350.314 -2.9618 -1.64507 0
M  V30 3617 C 348.873 -3.0765 -2.1686 0
M  V30 3618 C 348.02 -2.58933 -0.992416 0
M  V30 3619 H 350.971 -1.58344 -0.106253 0
M  V30 3620 H 350.992 -2.86061 -2.50897 0
M  V30 3621 H 350.504 -3.76884 -0.926302 0
M  V30 3622 H 348.605 -2.31611 -2.91868 0
M  V30 3623 H 348.718 -4.1337 -2.42202 0
M  V30 3624 H 347.082 -2.14706 -1.37016 0
M  V30 3625 H 347.865 -3.42089 -0.288041 0
M  V30 3626 N 350.31 0.590341 -1.46126 0
M  V30 3627 C 351.557 1.34882 -1.5104 0
M  V30 3628 C 351.885 1.93849 -0.159021 0
M  V30 3629 O 351.14 1.76544 0.844436 0
M  V30 3630 C 351.439 2.5032 -2.55097 0
M  V30 3631 C 351.105 2.09394 -3.99331 0
M  V30 3632 C 349.767 1.97947 -4.38601 0
M  V30 3633 C 352.119 1.77712 -4.89967 0
M  V30 3634 C 349.447 1.53065 -5.66381 0
M  V30 3635 C 351.799 1.34312 -6.18177 0
M  V30 3636 C 350.463 1.21436 -6.56361 0
M  V30 3637 H 349.733 0.493568 -0.552695 0
M  V30 3638 H 352.38 0.665539 -1.79563 0
M  V30 3639 H 350.685 3.24062 -2.20207 0
M  V30 3640 H 352.382 3.08541 -2.56132 0
M  V30 3641 H 348.972 2.19235 -3.68285 0
M  V30 3642 H 353.156 1.85445 -4.60352 0
M  V30 3643 H 348.412 1.41733 -5.94745 0
M  V30 3644 H 352.586 1.08849 -6.87841 0
M  V30 3645 H 350.213 0.864345 -7.5527 0
M  V30 3646 N 351.788 1.33704 0.83433 0
M  V30 3647 C 353.013 1.28615 1.62705 0
M  V30 3648 C 353.438 -0.139242 1.87584 0
M  V30 3649 O 352.796 -1.09734 1.4432 0
M  V30 3650 C 352.844 2.07139 2.95171 0
M  V30 3651 O 351.948 1.4331 3.86699 0
M  V30 3652 H 351.289 0.44226 0.49528 0
M  V30 3653 H 353.819 1.76335 1.03766 0
M  V30 3654 H 353.829 2.18073 3.44831 0
M  V30 3655 H 352.504 3.10779 2.76386 0
M  V30 3656 H 351.081 1.4105 3.45195 0
M  V30 3657 N 353.266 -1.05314 1.17247 0
M  V30 3658 C 354.513 -1.78293 0.960091 0
M  V30 3659 C 354.841 -1.87658 -0.51136 0
M  V30 3660 O 354.096 -1.3718 -1.39571 0
M  V30 3661 C 354.395 -3.2229 1.54479 0
M  V30 3662 C 354.061 -3.32987 3.04024 0
M  V30 3663 C 352.723 -3.35613 3.44844 0
M  V30 3664 C 355.075 -3.34102 4.00031 0
M  V30 3665 C 352.403 -3.36982 4.8027 0
M  V30 3666 C 354.755 -3.3701 5.35357 0
M  V30 3667 C 353.419 -3.37923 5.75642 0
M  V30 3668 H 352.689 -0.652422 0.351322 0
M  V30 3669 H 355.336 -1.23782 1.46117 0
M  V30 3670 H 353.641 -3.7972 0.965391 0
M  V30 3671 H 355.338 -3.77376 1.35603 0
M  V30 3672 H 351.928 -3.31655 2.71483 0
M  V30 3673 H 356.112 -3.31276 3.69554 0
M  V30 3674 H 351.368 -3.35999 5.10798 0
M  V30 3675 H 355.542 -3.36822 6.09528 0
M  V30 3676 H 353.169 -3.38738 6.80559 0
M  V30 3677 N 354.744 -0.972509 -1.24016 0
M  V30 3678 C 355.974 -0.653853 -1.9598 0
M  V30 3679 C 356.382 0.781801 -1.72292 0
M  V30 3680 O 355.725 1.53677 -1.00644 0
M  V30 3681 C 355.787 -0.854608 -3.49194 0
M  V30 3682 C 355.451 -2.27082 -3.96589 0
M  V30 3683 C 356.448 -3.24892 -4.05883 0
M  V30 3684 C 354.133 -2.5998 -4.29786 0
M  V30 3685 C 356.127 -4.53684 -4.47716 0
M  V30 3686 C 353.814 -3.88997 -4.71301 0
M  V30 3687 C 354.812 -4.85661 -4.80232 0
M  V30 3688 O 354.5 -6.12376 -5.20818 0
M  V30 3689 H 354.232 -0.242572 -0.630979 0
M  V30 3690 H 356.786 -1.30431 -1.58673 0
M  V30 3691 H 355.016 -0.146985 -3.86421 0
M  V30 3692 H 356.705 -0.534311 -4.02368 0
M  V30 3693 H 357.471 -3.00805 -3.80449 0
M  V30 3694 H 353.35 -1.85457 -4.22051 0
M  V30 3695 H 356.894 -5.29135 -4.54601 0
M  V30 3696 H 352.791 -4.12882 -4.96184 0
M  V30 3697 H 353.559 -6.16013 -5.38953 0
M  V30 3698 N 356.222 1.38976 -0.743202 0
M  V30 3699 C 357.152 2.33171 -0.123873 0
M  V30 3700 C 358.133 1.54336 0.71516 0
M  V30 3701 O 359.318 1.82696 0.658467 0
M  V30 3702 C 356.448 3.38474 0.777978 0
M  V30 3703 C 355.402 4.27979 0.0424758 0
M  V30 3704 C 354.728 5.2405 1.06189 0
M  V30 3705 C 356.028 5.10155 -1.1198 0
M  V30 3706 H 357.722 2.85213 -0.910709 0
M  V30 3707 H 355.268 1.37133 -0.439388 0
M  V30 3708 H 357.221 4.03328 1.22084 0
M  V30 3709 H 355.945 2.84891 1.59702 0
M  V30 3710 H 354.604 3.64616 -0.380853 0
M  V30 3711 H 354.252 4.66758 1.87472 0
M  V30 3712 H 353.952 5.84785 0.574485 0
M  V30 3713 H 355.476 5.9178 1.50428 0
M  V30 3714 H 356.89 5.68307 -0.75499 0
M  V30 3715 H 355.287 5.80073 -1.53738 0
M  V30 3716 H 356.357 4.44504 -1.93764 0
M  V30 3717 N 357.7 0.491464 1.49741 0
M  V30 3718 C 358.977 -0.118984 1.95238 0
M  V30 3719 C 359.357 -1.55044 1.43264 0
M  V30 3720 O 358.705 -2.19287 0.642287 0
M  V30 3721 C 358.915 -0.0414187 3.48975 0
M  V30 3722 C 360.263 -0.220133 4.24029 0
M  V30 3723 O 361.287 -0.117055 3.56008 0
M  V30 3724 O 360.146 -0.430567 5.44801 0
M  V30 3725 H 357.24 -0.100536 0.820866 0
M  V30 3726 H 359.786 0.553322 1.60426 0
M  V30 3727 H 358.558 0.957214 3.79412 0
M  V30 3728 H 358.181 -0.754292 3.9038 0
M  V30 3729 N 359.178 -1.55987 0.224894 0
M  V30 3730 C 360.427 -1.97566 -0.406273 0
M  V30 3731 C 360.74 -1.11569 -1.6066 0
M  V30 3732 O 361.946 -1.43062 -2.3075 0
M  V30 3733 C 360.402 -3.51474 -0.774207 0
M  V30 3734 C 360.01 -4.46179 0.403496 0
M  V30 3735 C 361.754 -4.01758 -1.37079 0
M  V30 3736 C 359.661 -5.91399 0.0129412 0
M  V30 3737 H 358.591 -0.737777 -0.155565 0
M  V30 3738 H 361.242 -1.80659 0.321635 0
M  V30 3739 H 359.624 -3.63994 -1.55963 0
M  V30 3740 H 360.798 -4.45409 1.18101 0
M  V30 3741 H 359.113 -4.06255 0.913536 0
M  V30 3742 H 361.71 -5.07756 -1.67596 0
M  V30 3743 H 362.053 -3.47805 -2.28773 0
M  V30 3744 H 362.586 -3.92475 -0.648733 0
M  V30 3745 H 359.325 -6.49341 0.896451 0
M  V30 3746 H 358.845 -5.95356 -0.728821 0
M  V30 3747 H 360.524 -6.45683 -0.412582 0
M  V30 3748 N 360.656 0.0484629 -1.57525 0
M  V30 3749 C 361.603 1.05504 -2.05275 0
M  V30 3750 C 362.573 1.37084 -0.937927 0
M  V30 3751 O 363.758 1.47754 -1.2072 0
M  V30 3752 C 360.898 2.35676 -2.52093 0
M  V30 3753 C 360.011 2.10423 -3.77288 0
M  V30 3754 C 359.146 3.34327 -4.12794 0
M  V30 3755 C 358.185 3.04542 -5.30962 0
M  V30 3756 N 357.322 4.20841 -5.61994 0
M  V30 3757 H 362.162 0.640885 -2.91027 0
M  V30 3758 H 359.699 0.304854 -1.43906 0
M  V30 3759 H 361.657 3.11709 -2.77297 0
M  V30 3760 H 360.287 2.7485 -1.69285 0
M  V30 3761 H 359.339 1.24976 -3.59284 0
M  V30 3762 H 360.651 1.84438 -4.63448 0
M  V30 3763 H 359.805 4.1874 -4.39024 0
M  V30 3764 H 358.544 3.63408 -3.25247 0
M  V30 3765 H 357.549 2.18528 -5.04505 0
M  V30 3766 H 358.774 2.76758 -6.20146 0
M  V30 3767 H 356.72 4.4991 -4.77406 0
M  V30 3768 H 356.637 3.98212 -6.42622 0
M  V30 3769 H 357.905 5.06184 -5.92789 0
M  V30 3770 N 362.134 1.5431 0.320358 0
M  V30 3771 C 363.38 1.73859 1.05568 0
M  V30 3772 C 363.735 0.507807 1.85578 0
M  V30 3773 O 363.028 -0.499789 1.84967 0
M  V30 3774 C 363.222 2.95639 2.00828 0
M  V30 3775 C 363.051 4.30444 1.30186 0
M  V30 3776 C 361.821 4.94544 1.03703 0
M  V30 3777 C 364.019 5.0929 0.716138 0
M  V30 3778 N 362.001 6.13172 0.298846 0
M  V30 3779 C 363.372 6.19903 0.109729 0
M  V30 3780 C 365.427 4.94034 0.619269 0
M  V30 3781 C 364.13 7.16924 -0.584153 0
M  V30 3782 C 366.156 5.91369 -0.0609184 0
M  V30 3783 C 365.518 7.01336 -0.656258 0
M  V30 3784 H 361.617 0.688988 0.36989 0
M  V30 3785 H 364.201 1.9177 0.336494 0
M  V30 3786 H 362.372 2.79188 2.70016 0
M  V30 3787 H 364.104 3.03802 2.6737 0
M  V30 3788 H 360.859 4.54536 1.33019 0
M  V30 3789 H 361.283 6.76977 -0.0561964 0
M  V30 3790 H 365.925 4.0916 1.06526 0
M  V30 3791 H 363.643 8.01354 -1.04197 0
M  V30 3792 H 367.229 5.81642 -0.135552 0
M  V30 3793 H 366.109 7.75359 -1.17423 0
M  V30 3794 N 363.613 -0.582584 1.46437 0
M  V30 3795 C 364.543 -1.70187 1.59871 0
M  V30 3796 C 365.524 -1.64066 0.449042 0
M  V30 3797 O 366.709 -1.82081 0.6753 0
M  V30 3798 C 363.839 -3.08827 1.58881 0
M  V30 3799 C 362.793 -3.29779 2.72819 0
M  V30 3800 C 362.119 -4.68947 2.5689 0
M  V30 3801 C 363.419 -3.17601 4.1464 0
M  V30 3802 H 365.113 -1.592 2.53566 0
M  V30 3803 H 362.659 -0.764472 1.22032 0
M  V30 3804 H 364.612 -3.86951 1.66873 0
M  V30 3805 H 363.336 -3.20713 0.617306 0
M  V30 3806 H 361.995 -2.54054 2.64296 0
M  V30 3807 H 361.643 -4.77599 1.57823 0
M  V30 3808 H 361.343 -4.83919 3.33312 0
M  V30 3809 H 362.867 -5.4924 2.66773 0
M  V30 3810 H 364.281 -3.8557 4.24274 0
M  V30 3811 H 362.678 -3.44094 4.9165 0
M  V30 3812 H 363.748 -2.14681 4.34788 0
M  V30 3813 N 365.091 -1.34144 -0.827227 0
M  V30 3814 C 366.054 -1.25264 -1.91942 0
M  V30 3815 C 367.054 -0.168866 -1.59911 0
M  V30 3816 O 368.244 -0.421198 -1.69031 0
M  V30 3817 C 365.376 -0.932952 -3.27885 0
M  V30 3818 H 366.569 -2.22357 -2.0124 0
M  V30 3819 H 364.122 -1.1837 -1.0207 0
M  V30 3820 H 364.857 0.0349917 -3.24281 0
M  V30 3821 H 364.642 -1.71682 -3.52516 0
M  V30 3822 H 366.132 -0.895874 -4.07877 0
M  V30 3823 N 366.569 1.04691 -1.17803 0
M  V30 3824 C 367.517 2.14665 -0.895635 0
M  V30 3825 C 368.511 1.68806 0.141679 0
M  V30 3826 O 369.717 1.79999 -0.00587914 0
M  V30 3827 H 366.092 0.701038 -0.272121 0
M  V30 3828 H 368.063 2.35685 -1.83017 0
M  V30 3829 C 366.812 3.45019 -0.430962 0
M  V30 3830 H 366.135 3.8071 -1.22064 0
M  V30 3831 H 367.575 4.23125 -0.272301 0
M  V30 3832 C 366.034 3.25943 0.852207 0
M  V30 3833 O 366.564 3.5296 1.91786 0
M  V30 3834 N 364.77 2.79304 0.802346 0
M  V30 3835 H 364.317 2.57518 -0.0650788 0
M  V30 3836 H 364.275 2.66921 1.66134 0
M  V30 3837 N 368.047 0.979072 1.23499 0
M  V30 3838 C 369.294 0.647219 1.91878 0
M  V30 3839 C 369.622 -0.819074 1.76413 0
M  V30 3840 O 368.877 -1.60616 1.11808 0
M  V30 3841 C 369.176 0.981932 3.43646 0
M  V30 3842 C 368.842 2.43822 3.79291 0
M  V30 3843 C 367.504 2.83622 3.88731 0
M  V30 3844 C 369.856 3.3828 3.96505 0
M  V30 3845 C 367.184 4.16897 4.12812 0
M  V30 3846 C 369.536 4.71197 4.22085 0
M  V30 3847 C 368.2 5.10758 4.29747 0
M  V30 3848 H 367.47 0.236834 0.702133 0
M  V30 3849 H 370.117 1.23268 1.46551 0
M  V30 3850 H 368.422 0.314365 3.90537 0
M  V30 3851 H 370.119 0.703395 3.94783 0
M  V30 3852 H 366.709 2.11966 3.72516 0
M  V30 3853 H 370.893 3.0871 3.88603 0
M  V30 3854 H 366.149 4.47157 4.16966 0
M  V30 3855 H 370.323 5.44348 4.34348 0
M  V30 3856 H 367.95 6.1405 4.48159 0
M  V30 3857 N 369.525 -1.3858 0.750561 0
M  V30 3858 C 370.771 -2.0095 0.31477 0
M  V30 3859 C 371.126 -1.58509 -1.09053 0
M  V30 3860 O 370.419 -0.8112 -1.7358 0
M  V30 3861 C 370.613 -3.55455 0.372373 0
M  V30 3862 C 370.442 -4.12898 1.78173 0
M  V30 3863 C 369.212 -4.44797 2.39757 0
M  V30 3864 C 371.41 -4.35366 2.7379 0
M  V30 3865 N 369.392 -4.87831 3.72685 0
M  V30 3866 C 370.763 -4.80775 3.91478 0
M  V30 3867 C 372.818 -4.1746 2.71351 0
M  V30 3868 C 371.521 -5.10155 5.07084 0
M  V30 3869 C 373.547 -4.47963 3.86113 0
M  V30 3870 C 372.909 -4.93593 5.02539 0
M  V30 3871 H 369.008 -0.765083 0.161776 0
M  V30 3872 H 371.592 -1.68246 0.979867 0
M  V30 3873 H 369.763 -3.87512 -0.26244 0
M  V30 3874 H 371.495 -4.04614 -0.0834479 0
M  V30 3875 H 368.25 -4.33135 1.91548 0
M  V30 3876 H 368.674 -5.13685 4.40972 0
M  V30 3877 H 373.316 -3.81372 1.82524 0
M  V30 3878 H 371.034 -5.45141 5.96529 0
M  V30 3879 H 374.62 -4.35717 3.85542 0
M  V30 3880 H 373.5 -5.16746 5.89867 0
M  V30 3881 N 371.003 -0.499398 -1.49478 0
M  V30 3882 C 372.251 0.0455996 -2.02049 0
M  V30 3883 C 372.572 1.37633 -1.38138 0
M  V30 3884 O 371.842 1.8842 -0.536166 0
M  V30 3885 H 370.422 0.0198416 -0.746736 0
M  V30 3886 H 373.084 -0.656274 -1.83519 0
M  V30 3887 H 372.18 0.176445 -3.11601 0
M  V30 3888 N 372.481 1.55866 -0.233164 0
M  V30 3889 C 373.721 2.00506 0.397078 0
M  V30 3890 C 374.085 1.1176 1.56121 0
M  V30 3891 O 375.286 1.45796 2.25825 0
M  V30 3892 C 373.557 3.4811 0.809601 0
M  V30 3893 S 375.116 4.14765 1.43231 0
M  V30 3894 H 371.934 0.699828 0.125547 0
M  V30 3895 H 374.536 1.92429 -0.345177 0
M  V30 3896 H 373.24 4.10373 -0.0471601 0
M  V30 3897 H 372.771 3.60085 1.58438 0
M  V30 3898 H 374.786 4.14914 2.7214 0
M  V30 3899 N 373.959 -0.0401083 1.57549 0
M  V30 3900 C 375.236 -0.767917 1.79896 0
M  V30 3901 C 375.616 -1.9416 0.82856 0
M  V30 3902 O 374.964 -2.2812 -0.131671 0
M  V30 3903 C 375.174 -1.2113 3.27305 0
M  V30 3904 C 376.522 -1.63175 3.91994 0
M  V30 3905 O 377.546 -1.30616 3.31388 0
M  V30 3906 O 376.405 -2.23565 4.98679 0
M  V30 3907 H 373.499 -0.370441 0.739393 0
M  V30 3908 H 376.045 -0.017737 1.69691 0
M  V30 3909 H 374.817 -0.372937 3.89519 0
M  V30 3910 H 374.44 -2.02183 3.42356 0
M  V30 3911 N 375.437 -1.54477 -0.31217 0
M  V30 3912 C 376.714 -1.63891 -1.06767 0
M  V30 3913 C 377.094 -0.480028 -2.0557 0
M  V30 3914 O 376.442 0.524487 -2.22399 0
M  V30 3915 C 376.652 -3.01402 -1.75948 0
M  V30 3916 C 378 -3.57838 -2.28554 0
M  V30 3917 O 379.024 -3.03782 -1.85998 0
M  V30 3918 O 377.883 -4.52462 -3.06497 0
M  V30 3919 H 374.977 -0.664125 -0.492816 0
M  V30 3920 H 377.523 -1.66823 -0.311149 0
M  V30 3921 H 376.295 -3.77187 -1.04144 0
M  V30 3922 H 375.918 -3.02199 -2.58383 0
M  V30 3923 N 376.915 0.57481 -1.46744 0
M  V30 3924 C 377.847 1.69804 -1.53946 0
M  V30 3925 C 378.86 1.57098 -0.427106 0
M  V30 3926 O 380.049 1.64378 -0.695863 0
M  V30 3927 C 377.149 3.08125 -1.4111 0
M  V30 3928 C 376.322 3.46757 -2.66605 0
M  V30 3929 C 375.381 4.6417 -2.47855 0
M  V30 3930 O 374.407 4.69634 -3.21609 0
M  V30 3931 N 375.609 5.59553 -1.54534 0
M  V30 3932 H 378.374 1.64077 -2.50796 0
M  V30 3933 H 375.935 0.761 -1.429 0
M  V30 3934 H 377.927 3.84478 -1.26328 0
M  V30 3935 H 376.497 3.08175 -0.524109 0
M  V30 3936 H 375.717 2.6003 -2.96274 0
M  V30 3937 H 377.005 3.69337 -3.49954 0
M  V30 3938 H 376.403 5.57881 -0.937304 0
M  V30 3939 H 374.96 6.35304 -1.45711 0
M  V30 3940 N 378.394 1.34581 0.820102 0
M  V30 3941 C 379.805 1.24298 1.39309 0
M  V30 3942 C 380.156 -0.130351 1.95767 0
M  V30 3943 O 379.281 -1.0308 1.90272 0
M  V30 3944 C 379.876 2.25054 2.53251 0
M  V30 3945 C 378.435 2.18552 3.0645 0
M  V30 3946 C 377.582 2.11503 1.79337 0
M  V30 3947 H 380.533 1.45906 0.624262 0
M  V30 3948 H 380.554 1.86917 3.31425 0
M  V30 3949 H 380.066 3.24996 2.1213 0
M  V30 3950 H 378.167 1.21976 3.52069 0
M  V30 3951 H 378.28 3.0993 3.65349 0
M  V30 3952 H 376.644 1.57268 2.00347 0
M  V30 3953 H 377.427 3.13284 1.40386 0
M  V30 3954 N 379.872 -1.04064 1.18357 0
M  V30 3955 C 381.288 -1.2947 0.933258 0
M  V30 3956 C 381.488 -1.97466 -0.401169 0
M  V30 3957 O 380.544 -2.25528 -1.13549 0
M  V30 3958 C 381.857 -2.15337 2.09882 0
M  V30 3959 C 383.405 -2.28683 2.13712 0
M  V30 3960 C 383.88 -3.17917 3.29686 0
M  V30 3961 N 385.371 -3.25504 3.29547 0
M  V30 3962 C 386.106 -3.94706 4.15926 0
M  V30 3963 N 385.602 -4.66239 5.12439 0
M  V30 3964 N 387.395 -3.90986 4.0384 0
M  V30 3965 H 379.546 -0.583359 2.04232 0
M  V30 3966 H 381.809 -0.319921 0.892387 0
M  V30 3967 H 381.515 -1.72682 3.06389 0
M  V30 3968 H 381.389 -3.16015 2.05947 0
M  V30 3969 H 383.776 -2.70575 1.17784 0
M  V30 3970 H 383.857 -1.27596 2.21705 0
M  V30 3971 H 383.501 -2.76736 4.25887 0
M  V30 3972 H 383.431 -4.19036 3.1893 0
M  V30 3973 H 385.922 -2.74547 2.59677 0
M  V30 3974 H 386.235 -5.16638 5.74722 0
M  V30 3975 H 384.58 -4.65143 5.16398 0
M  V30 3976 H 387.771 -3.34234 3.27727 0
M  V30 3977 H 387.944 -4.44646 4.71375 0
M  V30 3978 N 381.35 -0.985608 -1.22978 0
M  V30 3979 C 382.283 -0.47487 -2.23204 0
M  V30 3980 C 383.261 0.460865 -1.55932 0
M  V30 3981 O 384.445 0.388105 -1.84461 0
M  V30 3982 C 381.572 0.312427 -3.37256 0
M  V30 3983 C 380.618 -0.568219 -4.22698 0
M  V30 3984 S 381.451 -2.01919 -4.95973 0
M  V30 3985 C 382.607 -1.24118 -6.1347 0
M  V30 3986 H 382.84 -1.32419 -2.66181 0
M  V30 3987 H 380.373 -0.792005 -1.32539 0
M  V30 3988 H 382.331 0.760645 -4.03391 0
M  V30 3989 H 380.992 1.13693 -2.92801 0
M  V30 3990 H 380.185 0.0371657 -5.03986 0
M  V30 3991 H 379.787 -0.952897 -3.61657 0
M  V30 3992 H 382.079 -0.505121 -6.75614 0
M  V30 3993 H 383.022 -2.02907 -6.78406 0
M  V30 3994 H 383.43 -0.757669 -5.59392 0
M  V30 3995 N 382.828 1.3818 -0.7579 0
M  V30 3996 C 384.058 2.04004 -0.326463 0
M  V30 3997 C 384.466 1.57286 1.05156 0
M  V30 3998 O 383.809 0.743144 1.67997 0
M  V30 3999 C 383.871 3.58444 -0.275402 0
M  V30 4000 C 383.535 4.28237 -1.59569 0
M  V30 4001 C 384.532 4.53312 -2.54566 0
M  V30 4002 C 382.217 4.66341 -1.86631 0
M  V30 4003 C 384.211 5.15531 -3.74842 0
M  V30 4004 C 381.898 5.28283 -3.0718 0
M  V30 4005 C 382.896 5.52814 -4.01106 0
M  V30 4006 O 382.584 6.13465 -5.19534 0
M  V30 4007 H 382.316 0.662026 -0.136739 0
M  V30 4008 H 384.87 1.7777 -1.02893 0
M  V30 4009 H 383.1 3.83667 0.483337 0
M  V30 4010 H 384.789 4.05701 0.127099 0
M  V30 4011 H 385.555 4.24299 -2.34936 0
M  V30 4012 H 381.434 4.46591 -1.14358 0
M  V30 4013 H 384.978 5.34594 -4.48168 0
M  V30 4014 H 380.875 5.56719 -3.26702 0
M  V30 4015 H 381.643 6.31951 -5.20173 0
M  V30 4016 N 384.306 0.507319 1.49211 0
M  V30 4017 C 385.256 -0.287112 2.26185 0
M  V30 4018 C 386.24 -0.929983 1.31302 0
M  V30 4019 O 387.432 -0.836538 1.55984 0
M  V30 4020 C 384.561 -1.34718 3.15763 0
M  V30 4021 C 383.647 -0.710235 4.18111 0
M  V30 4022 N 384.038 0.190836 5.0544 0
M  V30 4023 C 382.336 -0.97009 4.35322 0
M  V30 4024 C 383.037 0.55606 5.79036 0
M  V30 4025 N 382.013 -0.0775232 5.43545 0
M  V30 4026 H 385.815 0.406445 2.91076 0
M  V30 4027 H 383.329 0.323814 1.59139 0
M  V30 4028 H 385.326 -1.92982 3.69545 0
M  V30 4029 H 383.986 -2.04235 2.52424 0
M  V30 4030 H 384.997 0.562047 5.14841 0
M  V30 4031 H 381.674 -1.65753 3.83187 0
M  V30 4032 H 383.064 1.2936 6.5933 0
M  V30 4033 N 385.784 -1.5574 0.241426 0
M  V30 4034 C 386.734 -2.17803 -0.674233 0
M  V30 4035 C 387.718 -1.13225 -1.14319 0
M  V30 4036 O 388.91 -1.39153 -1.09387 0
M  V30 4037 C 386.039 -2.87682 -1.87333 0
M  V30 4038 C 385.125 -3.99509 -1.42313 0
M  V30 4039 N 385.516 -5.01115 -0.686798 0
M  V30 4040 C 383.814 -4.11964 -1.70885 0
M  V30 4041 C 384.515 -5.79922 -0.454456 0
M  V30 4042 N 383.491 -5.34001 -1.01705 0
M  V30 4043 H 387.293 -2.93718 -0.103447 0
M  V30 4044 H 384.807 -1.62342 0.0435095 0
M  V30 4045 H 386.804 -3.3057 -2.54026 0
M  V30 4046 H 385.464 -2.13269 -2.4484 0
M  V30 4047 H 386.475 -5.16799 -0.337459 0
M  V30 4048 H 383.152 -3.48718 -2.2957 0
M  V30 4049 H 384.542 -6.71768 0.132992 0
M  V30 4050 N 387.262 0.0317525 -1.57568 0
M  V30 4051 C 388.49 0.734949 -1.93407 0
M  V30 4052 C 388.905 1.69036 -0.84096 0
M  V30 4053 O 388.262 1.81582 0.182836 0
M  V30 4054 C 388.313 1.49432 -3.29169 0
M  V30 4055 O 388.034 0.577261 -4.3428 0
M  V30 4056 C 389.535 2.29492 -3.79273 0
M  V30 4057 H 386.755 0.206706 -0.638368 0
M  V30 4058 H 389.299 -0.00992046 -2.04498 0
M  V30 4059 H 387.454 2.1911 -3.19483 0
M  V30 4060 H 387.868 1.10952 -5.1263 0
M  V30 4061 H 389.342 2.78172 -4.76785 0
M  V30 4062 H 389.819 3.10794 -3.10328 0
M  V30 4063 H 390.425 1.64894 -3.92033 0
M  V30 4064 N 388.74 1.54641 0.303973 0
M  V30 4065 C 389.989 1.7299 1.03717 0
M  V30 4066 C 390.302 0.521168 1.88529 0
M  V30 4067 O 391.508 0.586408 2.65092 0
M  V30 4068 C 389.964 3.06051 1.89369 0
M  V30 4069 C 389.572 4.34393 1.09574 0
M  V30 4070 C 391.316 3.3376 2.62306 0
M  V30 4071 C 389.223 5.58506 1.94486 0
M  V30 4072 H 388.153 0.64473 0.390947 0
M  V30 4073 H 390.804 1.81124 0.294328 0
M  V30 4074 H 389.186 2.91874 2.67629 0
M  V30 4075 H 390.36 4.59396 0.359485 0
M  V30 4076 H 388.675 4.13597 0.482324 0
M  V30 4077 H 391.272 4.23687 3.26181 0
M  V30 4078 H 391.615 2.52503 3.3098 0
M  V30 4079 H 392.148 3.48894 1.91097 0
M  V30 4080 H 388.887 6.42422 1.30287 0
M  V30 4081 H 388.407 5.37694 2.65792 0
M  V30 4082 H 390.086 5.95651 2.52605 0
M  V30 4083 N 390.218 -0.567019 1.47046 0
M  V30 4084 C 391.629 -1.14916 1.47143 0
M  V30 4085 C 391.98 -1.94954 0.220767 0
M  V30 4086 O 391.105 -2.05602 -0.67505 0
M  V30 4087 C 391.7 -2.09069 2.666 0
M  V30 4088 C 390.259 -2.62575 2.69687 0
M  V30 4089 C 389.406 -1.38755 2.40088 0
M  V30 4090 H 392.357 -0.354126 1.54699 0
M  V30 4091 H 392.378 -2.92789 2.43011 0
M  V30 4092 H 391.89 -1.50789 3.57609 0
M  V30 4093 H 389.991 -3.24681 1.82792 0
M  V30 4094 H 390.104 -3.04239 3.70102 0
M  V30 4095 H 388.468 -1.69098 1.90468 0
M  V30 4096 H 389.251 -0.822822 3.33293 0
M  V30 4097 N 391.696 -1.35014 -0.812953 0
M  V30 4098 C 392.942 -1.2812 -1.57204 0
M  V30 4099 C 393.275 0.145869 -1.93651 0
M  V30 4100 O 392.55 1.0937 -1.60836 0
M  V30 4101 C 392.833 -2.18162 -2.86492 0
M  V30 4102 C 392.686 -3.69454 -2.56561 0
M  V30 4103 C 394.005 -2.07439 -3.88145 0
M  V30 4104 H 391.124 -0.466746 -0.570366 0
M  V30 4105 H 393.766 -1.65357 -0.935783 0
M  V30 4106 H 391.916 -1.86535 -3.40789 0
M  V30 4107 H 393.588 -4.11493 -2.08497 0
M  V30 4108 H 391.831 -3.9005 -1.89851 0
M  V30 4109 H 392.502 -4.27835 -3.48799 0
M  V30 4110 H 394.978 -2.35228 -3.4323 0
M  V30 4111 H 393.854 -2.7265 -4.76396 0
M  V30 4112 H 394.115 -1.05439 -4.29343 0
M  V30 4113 N 393.175 1.03435 -1.18907 0
M  V30 4114 C 394.424 1.76143 -0.982669 0
M  V30 4115 C 394.737 1.89416 0.487953 0
M  V30 4116 O 395.943 2.59041 0.813036 0
M  V30 4117 C 394.399 3.16722 -1.70924 0
M  V30 4118 C 394.007 3.11522 -3.21959 0
M  V30 4119 C 395.751 3.93764 -1.58588 0
M  V30 4120 C 393.658 4.46999 -3.87228 0
M  V30 4121 H 392.588 0.660292 -0.364047 0
M  V30 4122 H 395.239 1.158 -1.42347 0
M  V30 4123 H 393.621 3.775 -1.19623 0
M  V30 4124 H 394.795 2.60158 -3.80335 0
M  V30 4125 H 393.11 2.47978 -3.34508 0
M  V30 4126 H 395.707 4.93963 -2.04707 0
M  V30 4127 H 396.05 4.12794 -0.539142 0
M  V30 4128 H 396.583 3.39576 -2.07203 0
M  V30 4129 H 393.322 4.33174 -4.91976 0
M  V30 4130 H 392.842 4.98441 -3.33642 0
M  V30 4131 H 394.521 5.15898 -3.90459 0
M  V30 4132 N 394.653 0.992116 1.22453 0
M  V30 4133 C 395.878 0.685644 1.95739 0
M  V30 4134 C 396.303 -0.743 1.72804 0
M  V30 4135 O 395.661 -1.50778 1.00676 0
M  V30 4136 C 395.709 0.996293 3.46564 0
M  V30 4137 O 394.813 0.0945512 4.12292 0
M  V30 4138 H 394.154 0.256694 0.612376 0
M  V30 4139 H 396.684 1.32888 1.5557 0
M  V30 4140 H 396.694 0.93781 3.97076 0
M  V30 4141 H 395.369 2.03733 3.62582 0
M  V30 4142 H 393.946 0.208451 3.72317 0
M  V30 4143 N 396.131 -1.37776 0.765217 0
M  V30 4144 C 397.061 -2.32945 0.160953 0
M  V30 4145 C 398.042 -1.55454 -0.690516 0
M  V30 4146 O 399.227 -1.83721 -0.629318 0
M  V30 4147 C 396.357 -3.39669 -0.724031 0
M  V30 4148 C 395.311 -4.27992 0.0256173 0
M  V30 4149 C 394.637 -5.25673 -0.978383 0
M  V30 4150 C 395.937 -5.08309 1.20082 0
M  V30 4151 H 397.631 -2.83728 0.955969 0
M  V30 4152 H 395.177 -1.36416 0.461149 0
M  V30 4153 H 397.13 -4.05219 -1.15652 0
M  V30 4154 H 395.854 -2.87396 -1.5515 0
M  V30 4155 H 394.513 -3.63964 0.438812 0
M  V30 4156 H 394.161 -4.69682 -1.80022 0
M  V30 4157 H 393.861 -5.85625 -0.481378 0
M  V30 4158 H 395.385 -5.94098 -1.40995 0
M  V30 4159 H 396.799 -5.67034 0.845307 0
M  V30 4160 H 395.196 -5.77554 1.62947 0
M  V30 4161 H 396.266 -4.41365 2.00811 0
M  V30 4162 N 397.609 -0.515225 -1.4894 0
M  V30 4163 C 398.839 0.0205735 -2.0659 0
M  V30 4164 C 399.247 1.30064 -1.37405 0
M  V30 4165 O 398.59 1.78087 -0.450632 0
M  V30 4166 C 398.652 0.330124 -3.57981 0
M  V30 4167 C 398.316 -0.854295 -4.48944 0
M  V30 4168 C 399.313 -1.7487 -4.89609 0
M  V30 4169 C 396.998 -1.05712 -4.9105 0
M  V30 4170 C 398.992 -2.82996 -5.71132 0
M  V30 4171 C 396.679 -2.14154 -5.72347 0
M  V30 4172 C 397.677 -3.0263 -6.12294 0
M  V30 4173 O 397.365 -4.09198 -6.91962 0
M  V30 4174 H 397.097 -0.0236833 -0.675585 0
M  V30 4175 H 399.651 -0.715956 -1.92518 0
M  V30 4176 H 397.881 1.12044 -3.70112 0
M  V30 4177 H 399.57 0.806233 -3.97812 0
M  V30 4178 H 400.336 -1.60388 -4.57712 0
M  V30 4179 H 396.215 -0.377788 -4.59449 0
M  V30 4180 H 399.759 -3.52083 -6.02232 0
M  V30 4181 H 395.656 -2.28626 -6.03656 0
M  V30 4182 H 396.424 -4.06726 -7.10293 0
M  V30 4183 N 399.087 1.5561 -0.249682 0
M  V30 4184 C 400.312 2.03865 0.381305 0
M  V30 4185 C 400.737 1.12769 1.50548 0
M  V30 4186 O 400.095 0.121189 1.80895 0
M  V30 4187 C 400.143 3.50101 0.863816 0
M  V30 4188 O 399.247 3.62132 1.97318 0
M  V30 4189 H 398.588 0.658827 0.0827194 0
M  V30 4190 H 401.118 2.01105 -0.376552 0
M  V30 4191 H 401.128 3.90975 1.1663 0
M  V30 4192 H 399.803 4.1588 0.0411816 0
M  V30 4193 H 398.38 3.33155 1.67517 0
M  V30 4194 N 400.565 -0.0233959 1.57583 0
M  V30 4195 C 401.495 -1.02162 2.09965 0
M  V30 4196 C 402.476 -1.3735 1.00344 0
M  V30 4197 O 403.661 -1.46135 1.27899 0
M  V30 4198 C 400.791 -2.32081 2.58371 0
M  V30 4199 C 399.745 -2.1112 3.72307 0
M  V30 4200 C 399.071 -3.46848 4.06941 0
M  V30 4201 C 400.371 -1.49276 5.00514 0
M  V30 4202 H 402.065 -0.585557 2.93618 0
M  V30 4203 H 399.611 -0.280218 1.41247 0
M  V30 4204 H 401.564 -3.02249 2.93639 0
M  V30 4205 H 400.288 -2.77758 1.71808 0
M  V30 4206 H 398.947 -1.43384 3.37397 0
M  V30 4207 H 398.595 -3.90184 3.17436 0
M  V30 4208 H 398.295 -3.33646 4.83688 0
M  V30 4209 H 399.819 -4.18369 4.44747 0
M  V30 4210 H 401.233 -2.09368 5.33702 0
M  V30 4211 H 399.63 -1.46632 5.8191 0
M  V30 4212 H 400.7 -0.459217 4.82721 0
M  V30 4213 N 402.043 -1.548 -0.295768 0
M  V30 4214 C 403.459 -1.4613 -0.641722 0
M  V30 4215 C 403.659 -0.656771 -1.90496 0
M  V30 4216 O 402.715 -0.166547 -2.5195 0
M  V30 4217 C 404.028 -2.90141 -0.789852 0
M  V30 4218 C 405.576 -3.00216 -0.885396 0
M  V30 4219 C 406.051 -4.45434 -1.06548 0
M  V30 4220 N 407.542 -4.49166 -1.13156 0
M  V30 4221 C 408.277 -5.58717 -1.28929 0
M  V30 4222 N 407.773 -6.78182 -1.41567 0
M  V30 4223 N 409.566 -5.46415 -1.31859 0
M  V30 4224 H 401.717 -2.05574 0.534147 0
M  V30 4225 H 403.98 -0.931259 0.177372 0
M  V30 4226 H 403.686 -3.51635 0.0675598 0
M  V30 4227 H 403.56 -3.37859 -1.67724 0
M  V30 4228 H 405.947 -2.38833 -1.73329 0
M  V30 4229 H 406.028 -2.55787 0.0261185 0
M  V30 4230 H 405.672 -5.07413 -0.222335 0
M  V30 4231 H 405.602 -4.87499 -1.9913 0
M  V30 4232 H 408.093 -3.631 -1.04721 0
M  V30 4233 H 408.406 -7.57428 -1.53372 0
M  V30 4234 H 406.751 -6.81037 -1.38613 0
M  V30 4235 H 409.942 -4.5203 -1.21601 0
M  V30 4236 H 410.115 -6.31841 -1.43808 0
M  V30 4237 N 403.521 0.559213 -1.47345 0
M  V30 4238 C 404.431 1.69388 -1.62311 0
M  V30 4239 C 405.447 1.6648 -0.505993 0
M  V30 4240 O 406.623 1.85964 -0.773262 0
M  V30 4241 C 403.688 3.05894 -1.63185 0
M  V30 4242 C 402.749 3.19885 -2.86307 0
M  V30 4243 C 401.982 4.49879 -2.87131 0
M  V30 4244 O 402.205 5.35217 -1.97229 0
M  V30 4245 O 401.139 4.67618 -3.78968 0
M  V30 4246 H 404.965 1.59706 -2.58317 0
M  V30 4247 H 402.55 0.728989 -1.30407 0
M  V30 4248 H 404.432 3.87133 -1.66451 0
M  V30 4249 H 403.107 3.15964 -0.70345 0
M  V30 4250 H 402.014 2.38052 -2.88587 0
M  V30 4251 H 403.347 3.14718 -3.78435 0
M  V30 4252 N 404.999 1.35443 0.805782 0
M  V30 4253 C 406.224 1.32037 1.59941 0
M  V30 4254 C 406.649 -0.0994215 1.87837 0
M  V30 4255 O 406.007 -1.06648 1.46615 0
M  V30 4256 C 406.055 2.13354 2.90711 0
M  V30 4257 O 405.159 1.5148 3.83572 0
M  V30 4258 H 404.5 0.452666 0.485787 0
M  V30 4259 H 407.03 1.78496 1.00002 0
M  V30 4260 H 407.04 2.25338 3.40128 0
M  V30 4261 H 405.715 3.16572 2.69732 0
M  V30 4262 H 404.292 1.4834 3.42125 0
M  V30 4263 N 406.477 -1.02803 1.19454 0
M  V30 4264 C 407.407 -2.12999 0.956758 0
M  V30 4265 C 408.388 -1.69743 -0.110188 0
M  V30 4266 O 409.573 -1.94148 0.0450038 0
M  V30 4267 C 406.703 -3.43746 0.495553 0
M  V30 4268 C 405.657 -4.00688 1.50443 0
M  V30 4269 C 404.983 -5.27067 0.900275 0
M  V30 4270 C 406.283 -4.35397 2.8849 0
M  V30 4271 H 407.977 -2.33148 1.87836 0
M  V30 4272 H 405.523 -1.12045 0.904539 0
M  V30 4273 H 407.476 -4.2021 0.316493 0
M  V30 4274 H 406.2 -3.23321 -0.461646 0
M  V30 4275 H 404.859 -3.2632 1.67065 0
M  V30 4276 H 404.507 -5.02959 -0.064503 0
M  V30 4277 H 404.207 -5.66127 1.57397 0
M  V30 4278 H 405.731 -6.06196 0.73203 0
M  V30 4279 H 407.145 -5.02795 2.75446 0
M  V30 4280 H 405.542 -4.85541 3.52661 0
M  V30 4281 H 406.612 -3.44662 3.41081 0
M  V30 4282 N 407.956 -0.998596 -1.21925 0
M  V30 4283 C 408.919 -0.558679 -2.22287 0
M  V30 4284 C 409.919 0.361525 -1.56683 0
M  V30 4285 O 411.109 0.152695 -1.73529 0
M  V30 4286 C 408.241 0.18661 -3.40389 0
M  V30 4287 H 409.434 -1.4463 -2.62721 0
M  V30 4288 H 406.987 -0.786413 -1.35075 0
M  V30 4289 H 407.722 1.08996 -3.05435 0
M  V30 4290 H 407.507 -0.474188 -3.89222 0
M  V30 4291 H 408.997 0.482367 -4.14805 0
M  V30 4292 N 409.434 1.37368 -0.772513 0
M  V30 4293 C 410.364 2.32856 -0.173304 0
M  V30 4294 C 411.345 1.55818 0.682262 0
M  V30 4295 O 412.53 1.84052 0.619566 0
M  V30 4296 C 409.66 3.40048 0.706007 0
M  V30 4297 C 408.614 4.27973 -0.0483144 0
M  V30 4298 C 407.94 5.26184 0.950491 0
M  V30 4299 C 409.24 5.07665 -1.22776 0
M  V30 4300 H 410.934 2.83217 -0.971002 0
M  V30 4301 H 408.48 1.3617 -0.468377 0
M  V30 4302 H 410.433 4.05827 1.13501 0
M  V30 4303 H 409.157 2.88214 1.53623 0
M  V30 4304 H 407.816 3.63726 -0.458107 0
M  V30 4305 H 407.464 4.7063 1.77529 0
M  V30 4306 H 407.164 5.85872 0.450314 0
M  V30 4307 H 408.688 5.94838 1.37842 0
M  V30 4308 H 410.102 5.66578 -0.875366 0
M  V30 4309 H 408.499 5.76681 -1.66007 0
M  V30 4310 H 409.569 4.40294 -2.03149 0
M  V30 4311 N 410.912 0.523116 1.48665 0
M  V30 4312 C 412.161 -0.01544 2.01694 0
M  V30 4313 C 412.474 -1.35975 1.40606 0
M  V30 4314 O 413.68 -1.98627 1.85093 0
M  V30 4315 C 412.136 -0.0779303 3.59816 0
M  V30 4316 C 411.744 1.26107 4.29885 0
M  V30 4317 C 413.488 -0.565678 4.20714 0
M  V30 4318 C 411.395 1.15954 5.79921 0
M  V30 4319 H 410.325 -0.00954163 0.75394 0
M  V30 4320 H 412.976 0.665865 1.70993 0
M  V30 4321 H 411.358 -0.824165 3.87329 0
M  V30 4322 H 412.532 2.02233 4.14051 0
M  V30 4323 H 410.847 1.68401 3.80828 0
M  V30 4324 H 413.444 -0.6595 5.30617 0
M  V30 4325 H 413.787 -1.56984 3.85567 0
M  V30 4326 H 414.32 0.12467 3.97605 0
M  V30 4327 H 411.059 2.13864 6.19631 0
M  V30 4328 H 410.579 0.439529 5.98187 0
M  V30 4329 H 412.258 0.847361 6.41427 0
M  V30 4330 N 412.39 -1.55475 0.257931 0
M  V30 4331 C 413.353 -2.20551 -0.623706 0
M  V30 4332 C 414.353 -1.17809 -1.09443 0
M  V30 4333 O 415.543 -1.42823 -0.997362 0
M  V30 4334 C 412.675 -2.85784 -1.8585 0
M  V30 4335 H 413.868 -2.99848 -0.0557743 0
M  V30 4336 H 411.421 -1.56298 0.0084422 0
M  V30 4337 H 412.156 -2.10453 -2.46739 0
M  V30 4338 H 411.941 -3.61057 -1.52907 0
M  V30 4339 H 413.431 -3.35553 -2.48584 0
M  V30 4340 N 413.868 0.0150385 -1.57593 0
M  V30 4341 C 414.778 1.02791 -2.10882 0
M  V30 4342 C 415.794 1.38702 -1.0506 0
M  V30 4343 O 416.97 1.47739 -1.36877 0
M  V30 4344 C 414.035 2.30568 -2.58919 0
M  V30 4345 C 413.096 2.01108 -3.79281 0
M  V30 4346 C 412.329 3.22794 -4.25018 0
M  V30 4347 O 412.552 4.33959 -3.70183 0
M  V30 4348 O 411.486 3.07672 -5.17322 0
M  V30 4349 H 415.312 0.604973 -2.97613 0
M  V30 4350 H 412.897 0.23292 -1.47573 0
M  V30 4351 H 414.779 3.05662 -2.90084 0
M  V30 4352 H 413.454 2.72129 -1.75293 0
M  V30 4353 H 412.361 1.23537 -3.53114 0
M  V30 4354 H 413.694 1.64394 -4.63935 0
M  V30 4355 N 415.346 1.54954 0.287554 0
M  V30 4356 C 416.278 1.83224 1.37701 0
M  V30 4357 C 417.291 0.715898 1.46215 0
M  V30 4358 O 418.48 0.993565 1.48292 0
M  V30 4359 C 415.58 1.96723 2.75959 0
M  V30 4360 C 414.753 3.27253 2.90215 0
M  V30 4361 C 413.812 3.30998 4.09056 0
M  V30 4362 O 412.838 4.04457 4.00503 0
M  V30 4363 N 414.04 2.57353 5.20336 0
M  V30 4364 H 416.805 2.77254 1.138 0
M  V30 4365 H 414.366 1.54694 0.477652 0
M  V30 4366 H 416.358 1.96615 3.5373 0
M  V30 4367 H 414.928 1.09626 2.92747 0
M  V30 4368 H 414.148 3.40022 1.99447 0
M  V30 4369 H 415.436 4.13365 2.96659 0
M  V30 4370 H 414.834 1.97327 5.30169 0
M  V30 4371 H 413.391 2.62984 5.96391 0
M  V30 4372 N 416.824 -0.551391 1.4764 0
M  V30 4373 C 418.072 -1.30572 1.54258 0
M  V30 4374 C 418.393 -1.93877 0.208963 0
M  V30 4375 O 417.663 -1.80234 -0.767619 0
M  V30 4376 H 416.243 -0.484894 0.568231 0
M  V30 4377 H 418.905 -0.643402 1.83974 0
M  V30 4378 H 418.001 -2.09621 2.31226 0
M  V30 4379 N 418.302 -1.35869 -0.798587 0
M  V30 4380 C 419.232 -1.32118 -1.92528 0
M  V30 4381 C 420.213 -0.194209 -1.68988 0
M  V30 4382 O 421.398 -0.390426 -1.90235 0
M  V30 4383 C 418.528 -1.10047 -3.29404 0
M  V30 4384 C 417.482 -2.19471 -3.67446 0
M  V30 4385 C 416.808 -1.82555 -5.02571 0
M  V30 4386 C 418.108 -3.61495 -3.76987 0
M  V30 4387 H 419.802 -2.26394 -1.95924 0
M  V30 4388 H 417.348 -1.08981 -0.94123 0
M  V30 4389 H 419.301 -1.06061 -4.07835 0
M  V30 4390 H 418.025 -0.122195 -3.26371 0
M  V30 4391 H 416.684 -2.22568 -2.91306 0
M  V30 4392 H 416.332 -0.833249 -4.9605 0
M  V30 4393 H 416.032 -2.5581 -5.28995 0
M  V30 4394 H 417.556 -1.80108 -5.83432 0
M  V30 4395 H 418.97 -3.60676 -4.4563 0
M  V30 4396 H 417.367 -4.33577 -4.14887 0
M  V30 4397 H 418.437 -3.97065 -2.78329 0
M  V30 4398 N 419.78 1.02168 -1.19998 0
M  V30 4399 C 420.69 2.14069 -0.959774 0
M  V30 4400 C 421.706 1.73804 0.082655 0
M  V30 4401 O 422.882 2.01133 -0.103633 0
M  V30 4402 C 419.947 3.42936 -0.509459 0
M  V30 4403 C 419.008 3.97474 -1.62213 0
M  V30 4404 C 418.241 5.2019 -1.19321 0
M  V30 4405 O 418.464 5.70369 -0.0597726 0
M  V30 4406 O 417.398 5.67749 -1.99863 0
M  V30 4407 H 421.224 2.37199 -1.89658 0
M  V30 4408 H 418.809 1.12469 -0.983411 0
M  V30 4409 H 420.691 4.20551 -0.267322 0
M  V30 4410 H 419.366 3.21234 0.398821 0
M  V30 4411 H 418.273 3.21161 -1.9185 0
M  V30 4412 H 419.606 4.23555 -2.50723 0
M  V30 4413 N 421.258 1.00505 1.21394 0
M  V30 4414 C 422.206 0.558623 2.25792 0
M  V30 4415 C 423.2 -0.396848 1.64686 0
M  V30 4416 O 424.406 -0.268035 1.77993 0
M  V30 4417 H 420.781 0.1623 0.734277 0
M  V30 4418 H 422.752 1.4503 2.60785 0
M  V30 4419 C 421.501 -0.0989574 3.47559 0
M  V30 4420 H 420.824 0.627225 3.94849 0
M  V30 4421 H 422.264 -0.3746 4.22342 0
M  V30 4422 C 420.723 -1.33817 3.09184 0
M  V30 4423 O 421.253 -2.43252 3.19674 0
M  V30 4424 N 419.459 -1.21793 2.63846 0
M  V30 4425 H 419.006 -0.32746 2.5551 0
M  V30 4426 H 418.964 -2.04809 2.38539 0
M  V30 4427 N 422.737 -1.36956 0.779787 0
M  V30 4428 C 423.962 -2.04283 0.358224 0
M  V30 4429 C 424.387 -1.58422 -1.01411 0
M  V30 4430 O 423.745 -0.748179 -1.65142 0
M  V30 4431 C 423.793 -3.58152 0.419479 0
M  V30 4432 O 422.897 -4.08342 -0.577142 0
M  V30 4433 H 422.238 -0.645967 0.153698 0
M  V30 4434 H 424.768 -1.75108 1.05822 0
M  V30 4435 H 424.778 -4.07041 0.279636 0
M  V30 4436 H 423.453 -3.90886 1.42061 0
M  V30 4437 H 422.03 -3.70751 -0.399755 0
M  V30 4438 N 424.215 -0.530993 -1.48385 0
M  V30 4439 C 425.461 -0.00538653 -2.03399 0
M  V30 4440 C 425.816 1.31899 -1.40073 0
M  V30 4441 O 425.109 1.83901 -0.537676 0
M  V30 4442 C 425.303 0.172742 -3.56982 0
M  V30 4443 C 425.132 -1.13282 -4.35198 0
M  V30 4444 C 423.902 -1.69296 -4.76096 0
M  V30 4445 C 426.1 -2.04367 -4.71952 0
M  V30 4446 N 424.082 -2.9413 -5.38851 0
M  V30 4447 C 425.453 -3.13777 -5.34737 0
M  V30 4448 C 427.508 -2.04681 -4.53883 0
M  V30 4449 C 426.211 -4.23567 -5.81363 0
M  V30 4450 C 428.237 -3.13466 -5.01491 0
M  V30 4451 C 427.599 -4.21595 -5.64302 0
M  V30 4452 H 423.698 -0.0434945 -0.780789 0
M  V30 4453 H 426.282 -0.712495 -1.81195 0
M  V30 4454 H 424.453 0.848937 -3.79009 0
M  V30 4455 H 426.185 0.698046 -3.98634 0
M  V30 4456 H 422.94 -1.23422 -4.57235 0
M  V30 4457 H 423.364 -3.57689 -5.74794 0
M  V30 4458 H 428.006 -1.22378 -4.04702 0
M  V30 4459 H 425.724 -5.06648 -6.2955 0
M  V30 4460 H 429.31 -3.14765 -4.893 0
M  V30 4461 H 428.19 -5.04384 -6.00472 0
M  V30 4462 N 425.693 1.55336 -0.266172 0
M  V30 4463 C 427.109 1.59356 0.0882065 0
M  V30 4464 C 427.309 1.2834 1.55342 0
M  V30 4465 O 426.365 1.03996 2.30089 0
M  V30 4466 C 427.678 2.99409 -0.278364 0
M  V30 4467 C 429.226 3.12196 -0.224243 0
M  V30 4468 C 429.701 4.545 -0.565123 0
M  V30 4469 N 431.192 4.60313 -0.51634 0
M  V30 4470 C 431.927 5.68434 -0.753013 0
M  V30 4471 N 431.423 6.84738 -1.05383 0
M  V30 4472 N 433.216 5.57942 -0.682414 0
M  V30 4473 H 425.367 1.73764 -1.22147 0
M  V30 4474 H 427.63 0.809822 -0.492841 0
M  V30 4475 H 427.336 3.2691 -1.29703 0
M  V30 4476 H 427.21 3.75228 0.385186 0
M  V30 4477 H 429.597 2.84464 0.78512 0
M  V30 4478 H 429.678 2.38609 -0.921922 0
M  V30 4479 H 429.322 4.82956 -1.57213 0
M  V30 4480 H 429.252 5.26374 0.154248 0
M  V30 4481 H 431.743 3.7676 -0.29335 0
M  V30 4482 H 432.056 7.63088 -1.22133 0
M  V30 4483 H 430.401 6.86375 -1.09151 0
M  V30 4484 H 433.592 4.65958 -0.44731 0
M  V30 4485 H 433.765 6.4213 -0.870248 0
M  V30 4486 N 427.171 -0.0066808 1.57599 0
M  V30 4487 C 428.103 -1.02827 2.04839 0
M  V30 4488 C 429.116 -1.31108 0.965113 0
M  V30 4489 O 430.305 -1.28202 1.24203 0
M  V30 4490 C 427.405 -2.36464 2.42771 0
M  V30 4491 C 426.578 -2.27219 3.73751 0
M  V30 4492 C 425.637 -3.43489 3.98625 0
M  V30 4493 O 424.663 -3.21976 4.69382 0
M  V30 4494 N 425.865 -4.66116 3.46 0
M  V30 4495 H 428.63 -0.625455 2.93101 0
M  V30 4496 H 426.191 -0.194198 1.60731 0
M  V30 4497 H 428.183 -3.13008 2.56531 0
M  V30 4498 H 426.753 -2.68512 1.60063 0
M  V30 4499 H 425.973 -1.35629 3.70133 0
M  V30 4500 H 427.261 -2.18208 4.59633 0
M  V30 4501 H 426.659 -4.86493 2.88688 0
M  V30 4502 H 425.216 -5.39949 3.65101 0
M  V30 4503 N 428.649 -1.55105 -0.279332 0
M  V30 4504 C 429.599 -1.83937 -1.34727 0
M  V30 4505 C 430.583 -0.69785 -1.44979 0
M  V30 4506 O 431.775 -0.95904 -1.48766 0
M  V30 4507 C 428.904 -2.1092 -2.70864 0
M  V30 4508 C 427.99 -3.31314 -2.64748 0
M  V30 4509 N 428.381 -4.51371 -2.2825 0
M  V30 4510 C 426.679 -3.33777 -2.95819 0
M  V30 4511 C 427.38 -5.33447 -2.31969 0
M  V30 4512 N 426.356 -4.71697 -2.7019 0
M  V30 4513 H 430.158 -2.74309 -1.05506 0
M  V30 4514 H 427.672 -1.54896 -0.487959 0
M  V30 4515 H 429.669 -2.2973 -3.47893 0
M  V30 4516 H 428.329 -1.21828 -3.00979 0
M  V30 4517 H 429.34 -4.77584 -2.00335 0
M  V30 4518 H 426.017 -2.54858 -3.30687 0
M  V30 4519 H 427.407 -6.39424 -2.06365 0
M  V30 4520 N 430.127 0.543554 -1.4793 0
M  V30 4521 C 431.543 0.870806 -1.3375 0
M  V30 4522 C 431.743 1.9864 -0.338261 0
M  V30 4523 O 430.799 2.51305 0.245371 0
M  V30 4524 C 432.112 1.25114 -2.73435 0
M  V30 4525 C 433.66 1.3618 -2.81823 0
M  V30 4526 C 434.135 1.77563 -4.22179 0
M  V30 4527 N 435.626 1.8469 -4.24787 0
M  V30 4528 C 436.361 2.18067 -5.30315 0
M  V30 4529 N 435.857 2.49963 -6.46135 0
M  V30 4530 N 437.65 2.18958 -5.17701 0
M  V30 4531 H 429.801 -0.19275 -2.11524 0
M  V30 4532 H 432.064 -0.0235777 -0.947707 0
M  V30 4533 H 431.77 0.50514 -3.48053 0
M  V30 4534 H 431.644 2.20431 -3.06088 0
M  V30 4535 H 434.031 2.09859 -2.07468 0
M  V30 4536 H 434.112 0.390169 -2.52807 0
M  V30 4537 H 433.756 1.04449 -4.97044 0
M  V30 4538 H 433.686 2.75753 -4.48629 0
M  V30 4539 H 436.177 1.62372 -3.41239 0
M  V30 4540 H 436.49 2.74497 -7.22406 0
M  V30 4541 H 434.835 2.47513 -6.49432 0
M  V30 4542 H 438.026 1.93488 -4.2624 0
M  V30 4543 H 438.199 2.44639 -6.00047 0
M  V30 4544 N 431.605 1.3629 0.791371 0
M  V30 4545 C 432.515 1.32606 1.93527 0
M  V30 4546 C 433.531 0.228541 1.72493 0
M  V30 4547 O 434.707 0.460571 1.96063 0
M  V30 4548 C 431.772 1.11271 3.28359 0
M  V30 4549 C 430.833 2.3048 3.62185 0
M  V30 4550 C 430.066 2.10154 4.90583 0
M  V30 4551 O 430.289 1.07572 5.60165 0
M  V30 4552 O 429.223 2.97884 5.23019 0
M  V30 4553 H 433.049 2.28909 1.99585 0
M  V30 4554 H 430.634 1.16818 0.931344 0
M  V30 4555 H 432.516 1.01283 4.09047 0
M  V30 4556 H 431.191 0.180292 3.23198 0
M  V30 4557 H 430.098 2.46036 2.81811 0
M  V30 4558 H 431.431 3.22221 3.72068 0
M  V30 4559 N 433.083 -1.0153 1.20538 0
M  V30 4560 C 434.046 -2.0826 0.957098 0
M  V30 4561 C 435.046 -1.60657 -0.0678655 0
M  V30 4562 O 436.236 -1.73385 0.168332 0
M  V30 4563 C 433.368 -3.38033 0.441188 0
M  V30 4564 H 434.561 -2.31719 1.90384 0
M  V30 4565 H 432.114 -1.1835 1.02093 0
M  V30 4566 H 432.849 -3.20249 -0.510961 0
M  V30 4567 H 432.634 -3.73911 1.18038 0
M  V30 4568 H 434.124 -4.16613 0.287009 0
M  V30 4569 N 434.561 -1.01147 -1.20859 0
M  V30 4570 C 435.524 -0.582224 -2.21682 0
M  V30 4571 C 436.524 0.344887 -1.57058 0
M  V30 4572 O 437.714 0.134281 -1.73682 0
M  V30 4573 C 434.846 0.150496 -3.40568 0
M  V30 4574 H 436.039 -1.47408 -2.61172 0
M  V30 4575 H 433.592 -0.800695 -1.34233 0
M  V30 4576 H 434.327 1.0575 -3.06574 0
M  V30 4577 H 434.112 -0.515444 -3.88697 0
M  V30 4578 H 435.602 0.438344 -4.15293 0
M  V30 4579 N 436.039 1.36541 -0.78704 0
M  V30 4580 C 437.002 2.28413 -0.189778 0
M  V30 4581 C 438.002 1.48719 0.611499 0
M  V30 4582 O 439.192 1.68737 0.432842 0
M  V30 4583 C 436.324 3.32824 0.737638 0
M  V30 4584 H 437.517 2.82743 -0.999831 0
M  V30 4585 H 435.07 1.46065 -0.556298 0
M  V30 4586 H 435.805 2.83646 1.57212 0
M  V30 4587 H 435.59 3.91752 0.165044 0
M  V30 4588 H 437.08 4.0144 1.15047 0
M  V30 4589 N 437.518 0.538854 1.48102 0
M  V30 4590 C 438.748 0.0122958 2.06596 0
M  V30 4591 C 439.156 -1.27861 1.39457 0
M  V30 4592 O 438.499 -1.77348 0.478907 0
M  V30 4593 C 438.561 -0.273131 3.58461 0
M  V30 4594 C 438.225 0.92561 4.47528 0
M  V30 4595 C 439.222 1.82637 4.86765 0
M  V30 4596 C 436.907 1.13511 4.89306 0
M  V30 4597 C 438.901 2.92047 5.66558 0
M  V30 4598 C 436.588 2.23233 5.68868 0
M  V30 4599 C 437.586 3.12333 6.07402 0
M  V30 4600 O 437.274 4.20155 6.85365 0
M  V30 4601 H 437.006 0.0344283 0.675123 0
M  V30 4602 H 439.56 0.746494 1.91355 0
M  V30 4603 H 437.79 -1.06141 3.71848 0
M  V30 4604 H 439.479 -0.742842 3.99045 0
M  V30 4605 H 440.245 1.67649 4.55103 0
M  V30 4606 H 436.124 0.450835 4.5879 0
M  V30 4607 H 439.668 3.6162 5.96554 0
M  V30 4608 H 435.565 2.38201 5.99942 0
M  V30 4609 H 436.333 4.17975 7.03732 0
M  V30 4610 N 438.996 -1.55193 0.274407 0
M  V30 4611 C 439.926 -2.25471 -0.607032 0
M  V30 4612 C 440.907 -1.24461 -1.15946 0
M  V30 4613 O 442.092 -1.53179 -1.19373 0
M  V30 4614 C 439.222 -2.97526 -1.79153 0
M  V30 4615 C 438.176 -4.05459 -1.37067 0
M  V30 4616 C 437.502 -4.65084 -2.6382 0
M  V30 4617 C 438.802 -5.19691 -0.521389 0
M  V30 4618 H 440.496 -2.99393 -0.0209343 0
M  V30 4619 H 438.042 -1.43997 -0.00862866 0
M  V30 4620 H 439.995 -3.45402 -2.41404 0
M  V30 4621 H 438.719 -2.21138 -2.40344 0
M  V30 4622 H 437.378 -3.58393 -0.771355 0
M  V30 4623 H 437.026 -3.85365 -3.23268 0
M  V30 4624 H 436.726 -5.37961 -2.36372 0
M  V30 4625 H 438.25 -5.15708 -3.26921 0
M  V30 4626 H 439.664 -5.63623 -1.04889 0
M  V30 4627 H 438.061 -5.99126 -0.341825 0
M  V30 4628 H 439.131 -4.82713 0.46 0
M  V30 4629 N 440.474 -0.00167713 -1.576 0
M  V30 4630 C 441.424 0.997744 -2.0501 0
M  V30 4631 C 442.408 1.30214 -0.94515 0
M  V30 4632 O 443.6 1.29284 -1.20891 0
M  V30 4633 C 440.729 2.2892 -2.55833 0
M  V30 4634 C 439.815 2.01437 -3.73208 0
M  V30 4635 N 440.206 1.44119 -4.84833 0
M  V30 4636 C 438.504 2.31571 -3.8117 0
M  V30 4637 C 439.205 1.33145 -5.66257 0
M  V30 4638 N 438.181 1.81763 -5.12312 0
M  V30 4639 H 441.983 0.549098 -2.88725 0
M  V30 4640 H 439.497 0.20398 -1.61114 0
M  V30 4641 H 441.494 3.01361 -2.88075 0
M  V30 4642 H 440.154 2.74436 -1.73537 0
M  V30 4643 H 441.165 1.11978 -5.0565 0
M  V30 4644 H 437.842 2.7995 -3.09732 0
M  V30 4645 H 439.232 0.890567 -6.65972 0
M  V30 4646 N 441.952 1.55251 0.271103 0
M  V30 4647 C 443.2 1.75599 1.00047 0
M  V30 4648 C 443.521 0.561188 1.8675 0
M  V30 4649 O 442.791 -0.423846 1.9126 0
M  V30 4650 H 441.371 0.647562 0.372387 0
M  V30 4651 H 444.033 1.92656 0.294876 0
M  V30 4652 H 443.129 2.65766 1.6363 0
M  V30 4653 N 443.43 -0.535701 1.48216 0
M  V30 4654 C 444.846 -0.863701 1.3421 0
M  V30 4655 C 445.046 -1.98458 0.34879 0
M  V30 4656 O 444.102 -2.51432 -0.23204 0
M  V30 4657 C 445.415 -1.23662 2.74095 0
M  V30 4658 C 446.963 -1.34683 2.82541 0
M  V30 4659 C 447.438 -1.75322 4.23115 0
M  V30 4660 N 448.929 -1.82434 4.2576 0
M  V30 4661 C 449.664 -2.15252 5.31464 0
M  V30 4662 N 449.16 -2.46533 6.47452 0
M  V30 4663 N 450.953 -2.16209 5.18855 0
M  V30 4664 H 443.104 0.203965 2.11418 0
M  V30 4665 H 445.367 0.0286033 0.947568 0
M  V30 4666 H 445.073 -0.486674 3.48316 0
M  V30 4667 H 444.947 -2.18805 3.07253 0
M  V30 4668 H 447.334 -2.08756 2.08579 0
M  V30 4669 H 447.415 -0.376756 2.5301 0
M  V30 4670 H 447.059 -1.01812 4.97591 0
M  V30 4671 H 446.989 -2.7337 4.50085 0
M  V30 4672 H 449.48 -1.6056 3.42095 0
M  V30 4673 H 449.793 -2.70662 7.23852 0
M  V30 4674 H 448.138 -2.44065 6.50736 0
M  V30 4675 H 451.329 -1.91224 4.2726 0
M  V30 4676 H 451.502 -2.41453 6.01335 0
M  V30 4677 N 444.908 -1.36708 -0.784132 0
M  V30 4678 C 445.838 -1.34153 -1.91116 0
M  V30 4679 C 446.819 -0.212121 -1.68772 0
M  V30 4680 O 448.004 -0.410581 -1.8981 0
M  V30 4681 C 445.134 -1.13535 -3.28218 0
M  V30 4682 C 444.088 -2.23356 -3.65097 0
M  V30 4683 C 443.414 -1.87875 -5.00607 0
M  V30 4684 C 444.714 -3.65473 -3.73131 0
M  V30 4685 H 446.408 -2.28459 -1.93512 0
M  V30 4686 H 443.954 -1.09973 -0.929618 0
M  V30 4687 H 445.907 -1.10381 -4.06687 0
M  V30 4688 H 444.631 -0.156804 -3.26223 0
M  V30 4689 H 443.29 -2.25645 -2.88929 0
M  V30 4690 H 442.938 -0.885814 -4.95139 0
M  V30 4691 H 442.638 -2.61406 -5.26252 0
M  V30 4692 H 444.162 -1.86286 -5.81489 0
M  V30 4693 H 445.576 -3.65382 -4.41779 0
M  V30 4694 H 443.973 -4.37953 -4.10265 0
M  V30 4695 H 445.043 -3.99995 -2.74102 0
M  V30 4696 N 446.386 1.0089 -1.21074 0
M  V30 4697 C 447.318 2.09737 -0.924291 0
M  V30 4698 C 448.331 1.62546 0.0909809 0
M  V30 4699 O 449.52 1.77942 -0.141021 0
M  V30 4700 C 446.62 3.36922 -0.36559 0
M  V30 4701 C 445.793 4.13216 -1.43426 0
M  V30 4702 C 444.852 5.18696 -0.885496 0
M  V30 4703 O 443.878 5.47176 -1.56801 0
M  V30 4704 N 445.08 5.79718 0.301227 0
M  V30 4705 H 447.845 2.34895 -1.8613 0
M  V30 4706 H 445.406 1.17341 -1.11546 0
M  V30 4707 H 447.398 4.04697 0.0158407 0
M  V30 4708 H 445.968 3.08952 0.476149 0
M  V30 4709 H 445.188 3.40301 -1.9897 0
M  V30 4710 H 446.476 4.60967 -2.15376 0
M  V30 4711 H 445.874 5.58926 0.872849 0
M  V30 4712 H 444.431 6.48804 0.624211 0
M  V30 4713 N 447.864 1.01787 1.20321 0
M  V30 4714 C 448.827 0.593972 2.2137 0
M  V30 4715 C 449.827 -0.336553 1.57239 0
M  V30 4716 O 451.017 -0.125069 1.7375 0
M  V30 4717 C 448.149 -0.132433 3.40643 0
M  V30 4718 H 449.342 1.48791 2.60387 0
M  V30 4719 H 446.895 0.807803 1.33807 0
M  V30 4720 H 447.63 -1.04123 3.0713 0
M  V30 4721 H 447.415 0.53605 3.88418 0
M  V30 4722 H 448.905 -0.416314 4.1552 0
M  V30 4723 N 449.342 -1.36122 0.79427 0
M  V30 4724 C 450.272 -2.32551 0.210328 0
M  V30 4725 C 451.253 -1.56884 -0.657386 0
M  V30 4726 O 452.438 -1.85014 -0.590207 0
M  V30 4727 C 449.568 -3.41128 -0.651819 0
M  V30 4728 C 448.522 -4.27842 0.116395 0
M  V30 4729 C 447.848 -5.2763 -0.86666 0
M  V30 4730 C 449.148 -5.05647 1.30837 0
M  V30 4731 H 450.842 -2.81636 1.01594 0
M  V30 4732 H 448.388 -1.35407 0.489981 0
M  V30 4733 H 450.341 -4.07581 -1.07031 0
M  V30 4734 H 449.065 -2.90622 -1.49019 0
M  V30 4735 H 447.724 -3.62952 0.515915 0
M  V30 4736 H 447.372 -4.73395 -1.70019 0
M  V30 4737 H 447.072 -5.86514 -0.35705 0
M  V30 4738 H 448.596 -5.96955 -1.28361 0
M  V30 4739 H 450.01 -5.65113 0.965393 0
M  V30 4740 H 448.407 -5.73967 1.75161 0
M  V30 4741 H 449.477 -4.37006 2.10128 0
M  V30 4742 N 450.82 -0.546701 -1.47814 0
M  V30 4743 C 452.068 -0.0187037 -2.02091 0
M  V30 4744 C 452.389 1.33168 -1.42447 0
M  V30 4745 O 451.659 1.86619 -0.595839 0
M  V30 4746 H 450.239 -0.00392531 -0.74699 0
M  V30 4747 H 452.901 -0.714327 -1.81338 0
M  V30 4748 H 451.997 0.0772219 -3.12004 0
M  V30 4749 N 452.299 1.55045 -0.282633 0
M  V30 4750 C 453.229 2.2579 0.595066 0
M  V30 4751 C 454.21 1.25074 1.15284 0
M  V30 4752 O 455.395 1.5381 1.18559 0
M  V30 4753 C 452.525 2.98472 1.77572 0
M  V30 4754 C 451.479 4.0618 1.34914 0
M  V30 4755 C 450.805 4.66477 2.6135 0
M  V30 4756 C 452.105 5.1996 0.493821 0
M  V30 4757 H 453.799 2.994 0.00505653 0
M  V30 4758 H 451.345 1.44 0.000992001 0
M  V30 4759 H 453.298 3.46677 2.39568 0
M  V30 4760 H 452.022 2.2241 2.39168 0
M  V30 4761 H 450.681 3.58797 0.752338 0
M  V30 4762 H 450.329 3.87074 3.2122 0
M  V30 4763 H 450.029 5.39207 2.33516 0
M  V30 4764 H 451.553 5.17435 3.24181 0
M  V30 4765 H 452.967 5.64172 1.01898 0
M  V30 4766 H 451.364 5.99299 0.310047 0
M  V30 4767 H 452.434 4.82462 -0.485593 0
M  V30 4768 N 453.777 0.010035 1.57597 0
M  V30 4769 C 454.709 -1.00649 2.05918 0
M  V30 4770 C 455.722 -1.30077 0.978964 0
M  V30 4771 O 456.911 -1.26878 1.25556 0
M  V30 4772 C 454.011 -2.33876 2.45265 0
M  V30 4773 C 453.184 -2.23242 3.7614 0
M  V30 4774 C 452.243 -3.39242 4.02245 0
M  V30 4775 O 451.269 -3.1698 4.72771 0
M  V30 4776 N 452.471 -4.6242 3.50924 0
M  V30 4777 H 455.236 -0.594333 2.93748 0
M  V30 4778 H 452.797 -0.17714 1.60928 0
M  V30 4779 H 454.789 -3.1027 2.59836 0
M  V30 4780 H 453.359 -2.66799 1.62902 0
M  V30 4781 H 452.579 -1.31696 3.71551 0
M  V30 4782 H 453.867 -2.13321 4.61922 0
M  V30 4783 H 453.265 -4.83404 2.93832 0
M  V30 4784 H 451.822 -5.36046 3.70807 0
M  V30 4785 N 455.255 -1.55392 -0.262866 0
M  V30 4786 C 456.185 -1.91978 -1.32917 0
M  V30 4787 C 457.166 -0.7828 -1.51017 0
M  V30 4788 O 458.351 -1.04178 -1.63892 0
M  V30 4789 C 455.481 -2.20055 -2.68687 0
M  V30 4790 C 454.435 -3.35854 -2.65304 0
M  V30 4791 C 453.761 -3.49435 -4.04721 0
M  V30 4792 C 455.061 -4.71977 -2.23685 0
M  V30 4793 H 456.755 -2.81292 -1.02544 0
M  V30 4794 H 454.301 -1.3534 -0.491846 0
M  V30 4795 H 456.254 -2.44237 -3.43404 0
M  V30 4796 H 454.978 -1.27551 -3.00663 0
M  V30 4797 H 453.637 -3.11655 -1.93045 0
M  V30 4798 H 453.285 -2.54379 -4.33936 0
M  V30 4799 H 452.985 -4.27297 -4.0335 0
M  V30 4800 H 454.509 -3.7592 -4.81161 0
M  V30 4801 H 455.923 -4.95637 -2.88127 0
M  V30 4802 H 454.32 -5.52828 -2.33456 0
M  V30 4803 H 455.39 -4.70115 -1.18827 0
M  V30 4804 N 456.733 0.527833 -1.48498 0
M  V30 4805 C 457.98 1.28354 -1.56625 0
M  V30 4806 C 458.308 1.93 -0.241096 0
M  V30 4807 O 457.563 1.79967 0.768798 0
M  V30 4808 C 457.862 2.39275 -2.65485 0
M  V30 4809 C 457.528 1.92268 -4.07853 0
M  V30 4810 C 456.19 1.79166 -4.46602 0
M  V30 4811 C 458.542 1.56771 -4.97064 0
M  V30 4812 C 455.87 1.28905 -5.72364 0
M  V30 4813 C 458.222 1.07972 -6.23318 0
M  V30 4814 C 456.886 0.934887 -6.60921 0
M  V30 4815 H 456.156 0.469682 -0.573131 0
M  V30 4816 H 458.803 0.588781 -1.82224 0
M  V30 4817 H 457.108 3.1443 -2.33754 0
M  V30 4818 H 458.805 2.974 -2.68988 0
M  V30 4819 H 455.395 2.03417 -3.77252 0
M  V30 4820 H 459.579 1.65753 -4.67803 0
M  V30 4821 H 454.835 1.16381 -6.00221 0
M  V30 4822 H 459.009 0.795775 -6.91838 0
M  V30 4823 H 456.636 0.543231 -7.58257 0
M  V30 4824 N 458.211 1.37122 0.776871 0
M  V30 4825 C 459.457 1.32243 1.53752 0
M  V30 4826 C 459.79 -0.0944745 1.9397 0
M  V30 4827 O 459.065 -1.05068 1.6368 0
M  V30 4828 C 459.348 2.25681 2.80607 0
M  V30 4829 C 459.201 3.76127 2.46676 0
M  V30 4830 C 460.52 2.17657 3.82509 0
M  V30 4831 H 457.639 0.481704 0.557791 0
M  V30 4832 H 460.281 1.6778 0.891612 0
M  V30 4833 H 458.431 1.95505 3.35723 0
M  V30 4834 H 460.103 4.16877 1.97513 0
M  V30 4835 H 458.346 3.94946 1.79443 0
M  V30 4836 H 459.017 4.36933 3.37333 0
M  V30 4837 H 461.493 2.44245 3.36873 0
M  V30 4838 H 460.369 2.85185 4.69 0
M  V30 4839 H 460.63 1.16785 4.26396 0
M  V30 4840 N 459.689 -1.00246 1.21608 0
M  V30 4841 C 460.636 -2.09073 0.977613 0
M  V30 4842 C 461.606 -1.65815 -0.097297 0
M  V30 4843 O 462.791 -1.90734 0.0503445 0
M  V30 4844 C 459.931 -3.40671 0.551133 0
M  V30 4845 C 459.044 -3.97326 1.69576 0
M  V30 4846 C 458.179 -5.17043 1.2182 0
M  V30 4847 C 457.218 -5.65813 2.335 0
M  V30 4848 N 456.355 -6.76778 1.86859 0
M  V30 4849 H 461.195 -2.28806 1.90924 0
M  V30 4850 H 458.732 -1.12186 0.951452 0
M  V30 4851 H 460.69 -4.16225 0.285097 0
M  V30 4852 H 459.32 -3.20967 -0.343489 0
M  V30 4853 H 458.372 -3.18734 2.07637 0
M  V30 4854 H 459.684 -4.29511 2.53617 0
M  V30 4855 H 458.838 -5.99852 0.908975 0
M  V30 4856 H 457.577 -4.86458 0.347869 0
M  V30 4857 H 456.582 -4.81599 2.65222 0
M  V30 4858 H 457.807 -5.98427 3.21033 0
M  V30 4859 H 455.753 -6.47994 1.02174 0
M  V30 4860 H 455.67 -7.08231 2.64471 0
M  V30 4861 H 456.938 -7.63116 1.58978 0
M  V30 4862 N 461.167 -1.02423 -1.1978 0
M  V30 4863 C 462.444 -0.632802 -1.85081 0
M  V30 4864 C 462.824 0.888745 -1.9148 0
M  V30 4865 O 462.172 1.78357 -1.42832 0
M  V30 4866 C 462.382 -1.28947 -3.24305 0
M  V30 4867 C 463.73 -1.40976 -4.00513 0
M  V30 4868 O 464.754 -1.24628 -3.33686 0
M  V30 4869 O 463.613 -1.67467 -5.20209 0
M  V30 4870 H 460.707 -0.219348 -0.79738 0
M  V30 4871 H 463.253 -1.12209 -1.27307 0
M  V30 4872 H 462.025 -2.3288 -3.14456 0
M  V30 4873 H 461.648 -0.787748 -3.89718 0
M  V30 4874 N 462.645 1.35699 -0.801477 0
M  V30 4875 C 464.056 1.81415 -0.441073 0
M  V30 4876 C 464.407 1.66595 1.03636 0
M  V30 4877 O 463.532 1.19369 1.80499 0
M  V30 4878 C 464.127 3.29369 -0.793819 0
M  V30 4879 C 462.686 3.73248 -0.486083 0
M  V30 4880 C 461.833 2.57775 -1.02213 0
M  V30 4881 H 464.784 1.23749 -0.993572 0
M  V30 4882 H 464.805 3.80395 -0.0894158 0
M  V30 4883 H 464.317 3.40123 -1.86917 0
M  V30 4884 H 462.418 3.68046 0.580735 0
M  V30 4885 H 462.531 4.68222 -1.01513 0
M  V30 4886 H 460.895 2.50788 -0.444712 0
M  V30 4887 H 461.678 2.71309 -2.10348 0
M  V30 4888 N 464.123 0.554532 1.47522 0
M  V30 4889 C 465.086 -0.184174 2.28459 0
M  V30 4890 C 466.086 -0.845195 1.36796 0
M  V30 4891 O 467.276 -0.701467 1.59452 0
M  V30 4892 C 464.408 -1.26903 3.16399 0
M  V30 4893 H 465.601 0.526751 2.95238 0
M  V30 4894 H 463.154 0.311375 1.53167 0
M  V30 4895 H 463.889 -2.01244 2.54306 0
M  V30 4896 H 463.674 -0.799883 3.83854 0
M  V30 4897 H 465.164 -1.78794 3.77389 0
M  V30 4898 N 465.601 -1.54893 0.290851 0
M  V30 4899 C 466.531 -2.26103 -0.583084 0
M  V30 4900 C 467.512 -1.25684 -1.14619 0
M  V30 4901 O 468.697 -1.54436 -1.17741 0
M  V30 4902 C 465.827 -2.99409 -1.75987 0
M  V30 4903 C 464.781 -4.0689 -1.32758 0
M  V30 4904 C 464.107 -4.67856 -2.58872 0
M  V30 4905 C 465.407 -5.20215 -0.46624 0
M  V30 4906 H 467.101 -2.99398 0.0108214 0
M  V30 4907 H 464.647 -1.43998 0.00664468 0
M  V30 4908 H 466.6 -3.47943 -2.37727 0
M  V30 4909 H 465.324 -2.23675 -2.37985 0
M  V30 4910 H 463.983 -3.59191 -0.733299 0
M  V30 4911 H 463.631 -3.88772 -3.19163 0
M  V30 4912 H 463.331 -5.40438 -2.30653 0
M  V30 4913 H 464.855 -5.19147 -3.21433 0
M  V30 4914 H 466.269 -5.64704 -0.989047 0
M  V30 4915 H 464.666 -5.99455 -0.27826 0
M  V30 4916 H 465.736 -4.82198 0.511173 0
M  V30 4917 N 467.08 -0.0183926 -1.57589 0
M  V30 4918 C 468.496 0.337897 -1.55982 0
M  V30 4919 C 468.696 1.73604 -1.02294 0
M  V30 4920 O 467.752 2.43589 -0.664895 0
M  V30 4921 C 469.065 0.196305 -3.00059 0
M  V30 4922 C 470.613 0.269875 -3.11834 0
M  V30 4923 C 471.088 0.157197 -4.5773 0
M  V30 4924 N 472.579 0.214521 -4.62703 0
M  V30 4925 C 473.314 0.150955 -5.73201 0
M  V30 4926 N 472.81 0.0369212 -6.9279 0
M  V30 4927 N 474.603 0.204162 -5.61729 0
M  V30 4928 H 466.754 -0.93279 -1.90821 0
M  V30 4929 H 469.017 -0.359253 -0.877292 0
M  V30 4930 H 468.723 -0.766383 -3.43248 0
M  V30 4931 H 468.597 0.970908 -3.6449 0
M  V30 4932 H 470.984 1.22302 -2.68563 0
M  V30 4933 H 471.065 -0.534918 -2.50144 0
M  V30 4934 H 470.709 -0.792479 -5.01679 0
M  V30 4935 H 470.639 0.980717 -5.17387 0
M  V30 4936 H 473.13 0.303238 -3.76681 0
M  V30 4937 H 473.443 -0.00518321 -7.728 0
M  V30 4938 H 471.788 0.0022886 -6.95 0
M  V30 4939 H 474.979 0.291575 -4.67191 0
M  V30 4940 H 475.152 0.15116 -6.47824 0
M  V30 4941 N 468.558 1.5553 0.254621 0
M  V30 4942 C 469.488 1.9268 1.31897 0
M  V30 4943 C 470.469 0.790797 1.506 0
M  V30 4944 O 471.654 1.05045 1.63337 0
M  V30 4945 C 468.784 2.21477 2.67517 0
M  V30 4946 C 467.738 3.37256 2.63519 0
M  V30 4947 C 467.064 3.51576 4.02862 0
M  V30 4948 C 468.364 4.73157 2.21179 0
M  V30 4949 H 470.058 2.81832 1.01051 0
M  V30 4950 H 467.604 1.35599 0.484662 0
M  V30 4951 H 469.557 2.46055 3.42104 0
M  V30 4952 H 468.281 1.29144 2.99982 0
M  V30 4953 H 466.94 3.12675 1.9139 0
M  V30 4954 H 466.588 2.56676 4.32581 0
M  V30 4955 H 466.288 4.2943 4.01078 0
M  V30 4956 H 467.812 3.78467 4.79161 0
M  V30 4957 H 469.226 4.97158 2.85494 0
M  V30 4958 H 467.623 5.54058 2.30521 0
M  V30 4959 H 468.693 4.70739 1.16332 0
M  V30 4960 N 470.036 -0.519951 1.48776 0
M  V30 4961 C 471.447 -1.10177 1.50725 0
M  V30 4962 C 471.798 -1.94153 0.282678 0
M  V30 4963 O 470.923 -2.07645 -0.609298 0
M  V30 4964 C 471.518 -2.00482 2.73116 0
M  V30 4965 C 470.077 -2.53862 2.77905 0
M  V30 4966 C 469.224 -1.31047 2.44381 0
M  V30 4967 H 472.175 -0.30473 1.55747 0
M  V30 4968 H 472.196 -2.8491 2.52203 0
M  V30 4969 H 471.708 -1.39335 3.62225 0
M  V30 4970 H 469.809 -3.18702 1.93029 0
M  V30 4971 H 469.922 -2.9231 3.79594 0
M  V30 4972 H 468.286 -1.62953 1.95751 0
M  V30 4973 H 469.069 -0.71637 3.35743 0
M  V30 4974 N 471.514 -1.37532 -0.769588 0
M  V30 4975 C 472.742 -1.36059 -1.55871 0
M  V30 4976 C 473.157 0.053544 -1.88724 0
M  V30 4977 O 472.514 1.01591 -1.5161 0
M  V30 4978 C 472.565 -2.20107 -2.86767 0
M  V30 4979 O 472.286 -3.56009 -2.55321 0
M  V30 4980 C 473.787 -2.26636 -3.80987 0
M  V30 4981 H 471.007 -0.465967 -0.482821 0
M  V30 4982 H 473.551 -1.80901 -0.953686 0
M  V30 4983 H 471.706 -1.78768 -3.43687 0
M  V30 4984 H 472.12 -4.0009 -3.39158 0
M  V30 4985 H 473.594 -2.89763 -4.69831 0
M  V30 4986 H 474.071 -1.2754 -4.20274 0
M  V30 4987 H 474.677 -2.68296 -3.29996 0
M  V30 4988 N 472.992 0.995999 -1.22138 0
M  V30 4989 C 474.238 1.73767 -1.04561 0
M  V30 4990 C 474.571 1.89633 0.418698 0
M  V30 4991 O 473.846 1.43723 1.3105 0
M  V30 4992 C 474.129 3.14505 -1.75382 0
M  V30 4993 C 473.982 3.06306 -3.29388 0
M  V30 4994 C 475.301 4.13615 -1.50369 0
M  V30 4995 H 472.42 0.630728 -0.38125 0
M  V30 4996 H 475.062 1.16057 -1.50435 0
M  V30 4997 H 473.212 3.63775 -1.36383 0
M  V30 4998 H 474.884 2.64681 -3.77812 0
M  V30 4999 H 473.127 2.43186 -3.59226 0
M  V30 5000 H 473.798 4.05884 -3.74116 0
M  V30 5001 H 476.274 3.73089 -1.84239 0
M  V30 5002 H 475.15 5.10212 -2.02421 0
M  V30 5003 H 475.411 4.39949 -0.435611 0
M  V30 5004 N 474.47 1.03057 1.19235 0
M  V30 5005 C 475.698 0.747697 1.92917 0
M  V30 5006 C 476.113 -0.69372 1.75593 0
M  V30 5007 O 475.47 -1.47191 1.07894 0
M  V30 5008 C 475.521 1.09159 3.44625 0
M  V30 5009 O 475.242 2.47641 3.61394 0
M  V30 5010 C 476.743 0.831763 4.35427 0
M  V30 5011 H 473.963 0.273453 0.612751 0
M  V30 5012 H 476.507 1.37552 1.51327 0
M  V30 5013 H 474.662 0.508919 3.84043 0
M  V30 5014 H 475.076 2.60499 4.55237 0
M  V30 5015 H 476.55 1.12233 5.4047 0
M  V30 5016 H 477.027 -0.233769 4.38577 0
M  V30 5017 H 477.633 1.39725 4.01693 0
M  V30 5018 N 475.948 -1.35272 0.808662 0
M  V30 5019 C 477.176 -2.02946 0.402537 0
M  V30 5020 C 477.591 -1.60937 -0.987147 0
M  V30 5021 O 476.948 -0.807917 -1.63643 0
M  V30 5022 C 476.999 -3.58317 0.47868 0
M  V30 5023 O 476.72 -3.98799 1.81358 0
M  V30 5024 C 478.221 -4.43251 0.0656281 0
M  V30 5025 H 475.441 -0.650831 0.163279 0
M  V30 5026 H 477.985 -1.72849 1.09286 0
M  V30 5027 H 476.14 -3.87055 -0.163415 0
M  V30 5028 H 476.554 -4.93451 1.77781 0
M  V30 5029 H 478.028 -5.51738 0.170017 0
M  V30 5030 H 478.505 -4.27913 -0.989278 0
M  V30 5031 H 479.111 -4.19813 0.68096 0
M  V30 5032 N 477.426 -0.562348 -1.47226 0
M  V30 5033 C 478.672 -0.0402761 -2.0276 0
M  V30 5034 C 479.005 1.30823 -1.43523 0
M  V30 5035 O 478.28 1.85249 -0.592705 0
M  V30 5036 C 478.563 0.047311 -3.60069 0
M  V30 5037 C 478.416 -1.32865 -4.29729 0
M  V30 5038 C 479.735 0.758182 -4.3352 0
M  V30 5039 H 476.854 -0.0161105 -0.736824 0
M  V30 5040 H 479.496 -0.725628 -1.75598 0
M  V30 5041 H 477.646 0.630986 -3.83342 0
M  V30 5042 H 479.318 -1.95593 -4.17781 0
M  V30 5043 H 477.561 -1.90195 -3.89882 0
M  V30 5044 H 478.232 -1.22004 -5.38349 0
M  V30 5045 H 480.708 0.262546 -4.15271 0
M  V30 5046 H 479.584 0.78844 -5.43208 0
M  V30 5047 H 479.845 1.81537 -4.03109 0
M  V30 5048 N 478.904 1.54736 -0.299062 0
M  V30 5049 C 479.867 2.22127 0.565012 0
M  V30 5050 C 480.867 1.20669 1.06281 0
M  V30 5051 O 482.057 1.45417 0.959145 0
M  V30 5052 C 479.189 2.90611 1.78208 0
M  V30 5053 H 480.382 2.99891 -0.0237448 0
M  V30 5054 H 477.935 1.5622 -0.0498788 0
M  V30 5055 H 478.67 2.16921 2.41072 0
M  V30 5056 H 478.455 3.64984 1.43281 0
M  V30 5057 H 479.945 3.42026 2.396 0
M  V30 5058 N 480.382 0.0267497 1.57577 0
M  V30 5059 C 481.628 -0.653371 1.91987 0
M  V30 5060 C 481.961 -1.71915 0.903263 0
M  V30 5061 O 481.236 -1.94358 -0.0743387 0
M  V30 5062 C 481.519 -1.272 3.36886 0
M  V30 5063 C 481.372 -0.215938 4.49281 0
M  V30 5064 C 482.691 -2.19069 3.81703 0
M  V30 5065 H 479.81 -0.236047 0.698177 0
M  V30 5066 H 482.452 0.0835236 1.89816 0
M  V30 5067 H 480.602 -1.90005 3.38866 0
M  V30 5068 H 482.274 0.41449 4.59434 0
M  V30 5069 H 480.517 0.458855 4.31366 0
M  V30 5070 H 481.188 -0.688347 5.47691 0
M  V30 5071 H 483.664 -1.66253 3.81444 0
M  V30 5072 H 482.54 -2.59307 4.83788 0
M  V30 5073 H 482.801 -3.08087 3.17072 0
M  V30 5074 N 481.861 -1.55662 -0.24637 0
M  V30 5075 C 483.272 -1.67953 -0.81539 0
M  V30 5076 C 483.623 -0.624302 -1.86002 0
M  V30 5077 O 482.748 0.229328 -2.15181 0
M  V30 5078 C 483.343 -3.04484 -1.48576 0
M  V30 5079 C 481.902 -3.18713 -2.00248 0
M  V30 5080 C 481.049 -2.6383 -0.853766 0
M  V30 5081 H 484 -1.58685 -0.0221692 0
M  V30 5082 H 484.021 -2.98959 -2.3538 0
M  V30 5083 H 483.533 -3.81264 -0.725222 0
M  V30 5084 H 481.634 -2.46757 -2.79181 0
M  V30 5085 H 481.747 -4.25628 -2.1995 0
M  V30 5086 H 480.111 -2.21667 -1.25442 0
M  V30 5087 H 480.894 -3.43135 -0.106302 0
M  V30 5088 N 483.339 0.512053 -1.4905 0
M  V30 5089 C 484.302 1.59704 -1.64399 0
M  V30 5090 C 485.302 1.52285 -0.516317 0
M  V30 5091 O 486.492 1.55635 -0.782527 0
M  V30 5092 C 483.624 2.9935 -1.63102 0
M  V30 5093 H 484.817 1.47428 -2.61161 0
M  V30 5094 H 482.37 0.735469 -1.37915 0
M  V30 5095 H 483.105 3.17116 -0.678836 0
M  V30 5096 H 482.89 3.06144 -2.44986 0
M  V30 5097 H 484.38 3.782 -1.77072 0
M  V30 5098 N 484.817 1.37938 0.762283 0
M  V30 5099 C 486.065 1.33404 1.51815 0
M  V30 5100 C 486.386 -0.0780975 1.94844 0
M  V30 5101 O 485.656 -1.02405 1.67003 0
M  V30 5102 H 484.236 0.490839 0.563104 0
M  V30 5103 H 486.898 1.72527 0.906669 0
M  V30 5104 H 485.994 1.97926 2.41313 0
M  V30 5105 N 486.295 -0.989507 1.22664 0
M  V30 5106 C 487.525 -1.7624 1.0781 0
M  V30 5107 C 487.933 -1.85466 -0.374036 0
M  V30 5108 O 487.276 -1.32645 -1.27087 0
M  V30 5109 C 487.338 -3.21007 1.61849 0
M  V30 5110 C 487.002 -3.35316 3.10503 0
M  V30 5111 C 487.999 -3.22362 4.07896 0
M  V30 5112 C 485.684 -3.60258 3.50028 0
M  V30 5113 C 487.678 -3.34139 5.42798 0
M  V30 5114 C 485.365 -3.71676 4.85078 0
M  V30 5115 C 486.363 -3.58625 5.81272 0
M  V30 5116 O 486.051 -3.69655 7.1387 0
M  V30 5117 H 485.783 -0.560209 0.378341 0
M  V30 5118 H 488.337 -1.25252 1.62792 0
M  V30 5119 H 486.567 -3.73202 1.01279 0
M  V30 5120 H 488.256 -3.80024 1.42606 0
M  V30 5121 H 489.022 -3.03 3.78703 0
M  V30 5122 H 484.901 -3.69492 2.75675 0
M  V30 5123 H 488.445 -3.23869 6.17863 0
M  V30 5124 H 484.342 -3.90545 5.1395 0
M  V30 5125 H 485.11 -3.86507 7.21495 0
M  V30 5126 N 487.773 -1.03688 -1.18687 0
M  V30 5127 C 489.05 -0.652397 -1.84399 0
M  V30 5128 C 489.43 0.868386 -1.92412 0
M  V30 5129 O 488.778 1.76832 -1.44716 0
M  V30 5130 C 488.988 -1.3238 -3.22919 0
M  V30 5131 C 490.336 -1.45216 -3.98996 0
M  V30 5132 O 491.36 -1.2816 -3.32345 0
M  V30 5133 O 490.219 -1.72975 -5.18403 0
M  V30 5134 H 487.313 -0.227793 -0.795009 0
M  V30 5135 H 489.859 -1.13553 -1.2611 0
M  V30 5136 H 488.631 -2.36202 -3.11968 0
M  V30 5137 H 488.254 -0.829039 -3.88861 0
M  V30 5138 N 489.251 1.34841 -0.815825 0
M  V30 5139 C 490.497 1.99219 -0.410288 0
M  V30 5140 C 490.852 1.63532 1.01366 0
M  V30 5141 O 490.145 0.893093 1.69512 0
M  V30 5142 C 490.339 3.53273 -0.541541 0
M  V30 5143 C 490.168 4.03927 -1.9767 0
M  V30 5144 C 488.938 4.32852 -2.60706 0
M  V30 5145 C 491.136 4.21808 -2.9425 0
M  V30 5146 N 489.118 4.69494 -3.95536 0
M  V30 5147 C 490.489 4.6155 -4.13971 0
M  V30 5148 C 492.544 4.04038 -2.9096 0
M  V30 5149 C 491.247 4.85381 -5.30847 0
M  V30 5150 C 493.273 4.29031 -4.07046 0
M  V30 5151 C 492.635 4.69054 -5.25517 0
M  V30 5152 H 488.734 0.756494 -0.198094 0
M  V30 5153 H 491.318 1.63379 -1.05902 0
M  V30 5154 H 489.489 3.88323 0.0772544 0
M  V30 5155 H 491.221 4.04551 -0.109694 0
M  V30 5156 H 487.976 4.23503 -2.11995 0
M  V30 5157 H 488.4 4.92061 -4.64979 0
M  V30 5158 H 493.042 3.7223 -2.00512 0
M  V30 5159 H 490.76 5.16059 -6.21859 0
M  V30 5160 H 494.346 4.16826 -4.05891 0
M  V30 5161 H 493.226 4.88014 -6.1385 0
M  V30 5162 N 490.729 0.570148 1.46925 0
M  V30 5163 C 492.145 0.23087 1.57921 0
M  V30 5164 C 492.345 -1.26676 1.56702 0
M  V30 5165 O 491.401 -2.04774 1.47729 0
M  V30 5166 C 492.714 0.868973 2.8787 0
M  V30 5167 C 494.262 0.841397 3.01479 0
M  V30 5168 C 494.737 1.45881 4.34146 0
M  V30 5169 N 496.228 1.42258 4.40814 0
M  V30 5170 C 496.963 1.8698 5.42057 0
M  V30 5171 N 496.459 2.39618 6.50042 0
M  V30 5172 N 498.252 1.77972 5.33181 0
M  V30 5173 H 490.403 1.54301 1.45962 0
M  V30 5174 H 492.666 0.644224 0.69547 0
M  V30 5175 H 492.372 1.922 2.94537 0
M  V30 5176 H 492.246 0.369682 3.75384 0
M  V30 5177 H 494.633 -0.202973 2.94401 0
M  V30 5178 H 494.714 1.37858 2.15474 0
M  V30 5179 H 494.358 2.50231 4.4198 0
M  V30 5180 H 494.288 0.896958 5.18905 0
M  V30 5181 H 496.779 1.03768 3.63374 0
M  V30 5182 H 497.092 2.71633 7.23488 0
M  V30 5183 H 495.437 2.43636 6.50897 0
M  V30 5184 H 498.628 1.36617 4.4772 0
M  V30 5185 H 498.801 2.13143 6.11943 0
M  V30 5186 N 492.207 -1.54576 0.307264 0
M  V30 5187 C 493.484 -1.92377 -0.353605 0
M  V30 5188 C 493.864 -1.23517 -1.71192 0
M  V30 5189 O 493.212 -0.373101 -2.25433 0
M  V30 5190 C 493.422 -3.45928 -0.462039 0
M  V30 5191 C 494.77 -4.18278 -0.729975 0
M  V30 5192 O 495.794 -3.51997 -0.545605 0
M  V30 5193 O 494.653 -5.3563 -1.08454 0
M  V30 5194 H 491.747 -0.802747 -0.198812 0
M  V30 5195 H 494.293 -1.65929 0.355783 0
M  V30 5196 H 493.065 -3.88187 0.492592 0
M  V30 5197 H 492.688 -3.78431 -1.21965 0
M  V30 5198 N 493.685 -0.035106 -1.57561 0
M  V30 5199 C 494.934 0.641604 -1.91223 0
M  V30 5200 C 495.247 1.72944 -0.913761 0
M  V30 5201 O 496.453 2.46321 -1.14185 0
M  V30 5202 C 494.909 1.19249 -3.3957 0
M  V30 5203 C 494.517 0.137616 -4.47789 0
M  V30 5204 C 496.261 1.84537 -3.82291 0
M  V30 5205 C 494.168 0.700478 -5.87237 0
M  V30 5206 H 493.098 0.243417 -0.713627 0
M  V30 5207 H 495.749 -0.101382 -1.8322 0
M  V30 5208 H 494.131 1.98728 -3.42525 0
M  V30 5209 H 495.305 -0.635153 -4.56402 0
M  V30 5210 H 493.62 -0.416855 -4.14308 0
M  V30 5211 H 496.217 2.27616 -4.83834 0
M  V30 5212 H 496.56 2.69054 -3.17672 0
M  V30 5213 H 497.093 1.11739 -3.81784 0
M  V30 5214 H 493.832 -0.106693 -6.55413 0
M  V30 5215 H 493.352 1.4416 -5.82218 0
M  V30 5216 H 495.031 1.18837 -6.35993 0
M  V30 5217 N 495.163 1.55791 0.238111 0
M  V30 5218 C 496.409 1.78297 0.966337 0
M  V30 5219 C 496.742 0.601903 1.84637 0
M  V30 5220 O 496.017 -0.399499 1.90353 0
M  V30 5221 C 496.3 3.10758 1.81939 0
M  V30 5222 C 496.153 4.39283 0.966958 0
M  V30 5223 C 497.472 3.39519 2.80027 0
M  V30 5224 H 494.591 0.648654 0.349882 0
M  V30 5225 H 497.233 1.88525 0.236253 0
M  V30 5226 H 495.383 3.02168 2.44185 0
M  V30 5227 H 497.055 4.59873 0.362514 0
M  V30 5228 H 495.298 4.32948 0.271669 0
M  V30 5229 H 495.969 5.28368 1.59784 0
M  V30 5230 H 498.445 3.48128 2.27917 0
M  V30 5231 H 497.321 4.33402 3.36829 0
M  V30 5232 H 497.582 2.60864 3.56934 0
M  V30 5233 N 496.642 -0.504142 1.49319 0
M  V30 5234 C 497.867 -1.28729 1.62615 0
M  V30 5235 C 498.292 -1.85752 0.296309 0
M  V30 5236 O 497.65 -1.65704 -0.735649 0
M  V30 5237 C 497.698 -2.39561 2.69524 0
M  V30 5238 O 496.802 -3.43324 2.28478 0
M  V30 5239 H 496.143 -0.380172 0.544395 0
M  V30 5240 H 498.673 -0.603872 1.95485 0
M  V30 5241 H 498.683 -2.8537 2.91595 0
M  V30 5242 H 497.358 -1.97423 3.66056 0
M  V30 5243 H 495.935 -3.03455 2.16725 0
M  V30 5244 N 498.12 -1.38341 -0.754957 0
M  V30 5245 C 499.35 -1.37504 -1.54195 0
M  V30 5246 C 499.758 0.0373787 -1.89163 0
M  V30 5247 O 499.101 1.01402 -1.53178 0
M  V30 5248 C 499.163 -2.16488 -2.87008 0
M  V30 5249 C 498.827 -3.65311 -2.74585 0
M  V30 5250 C 499.824 -4.58834 -2.44474 0
M  V30 5251 C 497.509 -4.08649 -2.9208 0
M  V30 5252 C 499.503 -5.93675 -2.32011 0
M  V30 5253 C 497.19 -5.43571 -2.79237 0
M  V30 5254 C 498.188 -6.35898 -2.49245 0
M  V30 5255 O 497.876 -7.68338 -2.36458 0
M  V30 5256 H 497.608 -0.472159 -0.483779 0
M  V30 5257 H 500.162 -1.82515 -0.94221 0
M  V30 5258 H 498.392 -1.66194 -3.49166 0
M  V30 5259 H 500.081 -2.08076 -3.4851 0
M  V30 5260 H 500.847 -4.26657 -2.30627 0
M  V30 5261 H 496.726 -3.37134 -3.14422 0
M  V30 5262 H 500.27 -6.65706 -2.08522 0
M  V30 5263 H 496.167 -5.75345 -2.92657 0
M  V30 5264 H 496.935 -7.78845 -2.5168 0
M  V30 5265 N 499.598 0.982988 -1.23187 0
M  V30 5266 C 500.844 1.72648 -1.06398 0
M  V30 5267 C 501.177 1.90066 0.398561 0
M  V30 5268 O 500.452 1.45105 1.29518 0
M  V30 5269 C 500.735 3.12627 -1.78707 0
M  V30 5270 C 500.588 3.02795 -3.32618 0
M  V30 5271 C 501.907 4.11997 -1.54747 0
M  V30 5272 H 499.026 0.626649 -0.387918 0
M  V30 5273 H 501.668 1.14455 -1.51658 0
M  V30 5274 H 499.818 3.62308 -1.40234 0
M  V30 5275 H 501.49 2.60659 -3.80598 0
M  V30 5276 H 499.733 2.39362 -3.61785 0
M  V30 5277 H 500.404 4.01893 -3.78399 0
M  V30 5278 H 502.88 3.71114 -1.88186 0
M  V30 5279 H 501.756 5.08037 -2.07821 0
M  V30 5280 H 502.017 4.39462 -0.482249 0
M  V30 5281 N 501.076 1.04316 1.18135 0
M  V30 5282 C 502.325 0.74319 1.87509 0
M  V30 5283 C 502.638 -0.732136 1.81381 0
M  V30 5284 O 503.844 -1.14572 2.46141 0
M  V30 5285 C 502.3 1.27913 3.36402 0
M  V30 5286 C 501.908 2.78326 3.51053 0
M  V30 5287 C 503.652 1.0558 4.11161 0
M  V30 5288 C 501.559 3.25266 4.93919 0
M  V30 5289 H 500.489 0.274313 0.702331 0
M  V30 5290 H 503.14 1.25931 1.33467 0
M  V30 5291 H 501.522 0.690853 3.89927 0
M  V30 5292 H 502.696 3.42933 3.07788 0
M  V30 5293 H 501.011 2.991 2.89704 0
M  V30 5294 H 503.608 1.38161 5.16542 0
M  V30 5295 H 503.951 -0.00684729 4.16299 0
M  V30 5296 H 504.484 1.60882 3.63816 0
M  V30 5297 H 501.223 4.30922 4.9395 0
M  V30 5298 H 500.743 2.65396 5.3789 0
M  V30 5299 H 502.422 3.19433 5.62647 0
M  V30 5300 N 502.554 -1.34406 0.822964 0
M  V30 5301 C 503.831 -1.92733 0.333641 0
M  V30 5302 C 504.211 -1.75107 -1.17901 0
M  V30 5303 O 503.559 -1.12983 -1.98613 0
M  V30 5304 C 503.769 -3.40557 0.763023 0
M  V30 5305 C 505.117 -4.17709 0.761879 0
M  V30 5306 O 506.141 -3.49141 0.705606 0
M  V30 5307 O 505 -5.40082 0.835109 0
M  V30 5308 H 502.094 -0.821964 0.0911249 0
M  V30 5309 H 504.64 -1.4338 0.907757 0
M  V30 5310 H 503.412 -3.47187 1.8049 0
M  V30 5311 H 503.035 -3.97259 0.164605 0
M  V30 5312 N 504.032 -0.577932 -1.46621 0
M  V30 5313 C 504.982 0.178869 -2.27297 0
M  V30 5314 C 505.966 0.866279 -1.35589 0
M  V30 5315 O 507.158 0.761163 -1.59798 0
M  V30 5316 C 504.287 1.19499 -3.2183 0
M  V30 5317 C 503.373 0.50994 -4.21023 0
M  V30 5318 N 503.764 -0.43177 -5.03954 0
M  V30 5319 C 502.062 0.761287 -4.39455 0
M  V30 5320 C 502.763 -0.831693 -5.75724 0
M  V30 5321 N 501.739 -0.181897 -5.43296 0
M  V30 5322 H 505.541 -0.544859 -2.88805 0
M  V30 5323 H 503.055 -0.399373 -1.57413 0
M  V30 5324 H 505.052 1.75131 -3.78332 0
M  V30 5325 H 503.712 1.91959 -2.61881 0
M  V30 5326 H 504.723 -0.807045 -5.11573 0
M  V30 5327 H 501.4 1.47282 -3.90659 0
M  V30 5328 H 502.79 -1.6067 -6.52407 0
M  V30 5329 N 505.51 1.54411 -0.315457 0
M  V30 5330 C 506.757 2.00419 0.289543 0
M  V30 5331 C 507.085 1.20373 1.52776 0
M  V30 5332 O 506.34 0.271769 1.93804 0
M  V30 5333 C 506.639 3.50936 0.676652 0
M  V30 5334 C 506.305 4.48532 -0.461472 0
M  V30 5335 C 504.967 4.74936 -0.773879 0
M  V30 5336 C 507.319 5.06567 -1.22637 0
M  V30 5337 C 504.647 5.56634 -1.85405 0
M  V30 5338 C 506.999 5.89441 -2.29657 0
M  V30 5339 C 505.663 6.1415 -2.61488 0
M  V30 5340 H 504.933 0.733386 0.105951 0
M  V30 5341 H 507.58 1.86434 -0.437554 0
M  V30 5342 H 505.885 3.62606 1.48405 0
M  V30 5343 H 507.582 3.83971 1.15618 0
M  V30 5344 H 504.172 4.28096 -0.207893 0
M  V30 5345 H 508.356 4.86157 -0.998271 0
M  V30 5346 H 503.612 5.74012 -2.10523 0
M  V30 5347 H 507.786 6.33432 -2.89374 0
M  V30 5348 H 505.413 6.77245 -3.45317 0
M  V30 5349 N 506.988 0.0434614 1.5754 0
M  V30 5350 C 508.265 -0.671479 1.83713 0
M  V30 5351 C 508.645 -1.89495 0.930315 0
M  V30 5352 O 507.993 -2.28498 -0.0105639 0
M  V30 5353 C 508.203 -1.0361 3.33266 0
M  V30 5354 C 509.551 -1.42167 4.00092 0
M  V30 5355 O 510.575 -1.12866 3.37846 0
M  V30 5356 O 509.434 -1.96817 5.09829 0
M  V30 5357 H 506.528 -0.330726 0.75799 0
M  V30 5358 H 509.074 0.0722373 1.69546 0
M  V30 5359 H 507.846 -0.165938 3.90948 0
M  V30 5360 H 507.469 -1.83751 3.52592 0
M  V30 5361 N 508.466 -1.55915 -0.229846 0
M  V30 5362 C 509.715 -1.77742 -0.953455 0
M  V30 5363 C 510.028 -0.610524 -1.85828 0
M  V30 5364 O 511.234 -0.712219 -2.61992 0
M  V30 5365 C 509.69 -3.14738 -1.74551 0
M  V30 5366 C 509.298 -4.39126 -0.887242 0
M  V30 5367 C 511.042 -3.45895 -2.46084 0
M  V30 5368 C 508.949 -5.67149 -1.67617 0
M  V30 5369 H 507.879 -0.662648 -0.359741 0
M  V30 5370 H 510.53 -1.82322 -0.207576 0
M  V30 5371 H 508.912 -3.04311 -2.53399 0
M  V30 5372 H 510.086 -4.60588 -0.139892 0
M  V30 5373 H 508.401 -4.15427 -0.284443 0
M  V30 5374 H 510.998 -4.38767 -3.05594 0
M  V30 5375 H 511.341 -2.68007 -3.18556 0
M  V30 5376 H 511.874 -3.57614 -1.74233 0
M  V30 5377 H 508.613 -6.47906 -0.994881 0
M  V30 5378 H 508.133 -5.49763 -2.39836 0
M  V30 5379 H 509.812 -6.07025 -2.23898 0
M  V30 5380 N 509.944 0.496216 -1.49584 0
M  V30 5381 C 510.854 1.62352 -1.69349 0
M  V30 5382 C 511.87 1.64184 -0.576147 0
M  V30 5383 O 513.046 1.82517 -0.85144 0
M  V30 5384 C 510.111 2.98698 -1.76013 0
M  V30 5385 C 509.172 3.07454 -2.99617 0
M  V30 5386 C 508.405 4.37296 -3.05953 0
M  V30 5387 O 508.628 5.2637 -2.19752 0
M  V30 5388 O 507.562 4.51124 -3.9846 0
M  V30 5389 H 511.388 1.48606 -2.64859 0
M  V30 5390 H 508.973 0.673022 -1.33382 0
M  V30 5391 H 510.855 3.79725 -1.82721 0
M  V30 5392 H 509.53 3.12696 -0.836828 0
M  V30 5393 H 508.437 2.25597 -2.98424 0
M  V30 5394 H 509.77 2.98385 -3.91443 0
M  V30 5395 N 511.423 1.38739 0.74761 0
M  V30 5396 C 512.672 1.3459 1.50228 0
M  V30 5397 C 512.985 -0.0595592 1.95509 0
M  V30 5398 O 514.191 -0.22361 2.70578 0
M  V30 5399 C 512.647 2.36377 2.71393 0
M  V30 5400 C 512.255 3.82573 2.33113 0
M  V30 5401 C 513.999 2.41281 3.49262 0
M  V30 5402 C 511.906 4.76032 3.50924 0
M  V30 5403 H 510.836 0.500312 0.564096 0
M  V30 5404 H 513.487 1.64324 0.8167 0
M  V30 5405 H 511.869 1.99694 3.41962 0
M  V30 5406 H 513.043 4.28227 1.70171 0
M  V30 5407 H 511.358 3.80844 1.68365 0
M  V30 5408 H 513.955 3.08301 4.36869 0
M  V30 5409 H 514.298 1.43353 3.9084 0
M  V30 5410 H 514.831 2.76793 2.85711 0
M  V30 5411 H 511.57 5.75177 3.14408 0
M  V30 5412 H 511.09 4.35066 4.12889 0
M  V30 5413 H 512.769 4.94331 4.17427 0
M  V30 5414 N 512.901 -0.976442 1.23707 0
M  V30 5415 C 513.834 -2.06793 0.964973 0
M  V30 5416 C 514.812 -1.62304 -0.0981472 0
M  V30 5417 O 515.996 -1.88464 0.0369477 0
M  V30 5418 C 513.123 -3.35636 0.454522 0
M  V30 5419 C 512.169 -3.99069 1.50485 0
M  V30 5420 S 513.002 -4.37814 3.0835 0
M  V30 5421 C 514.158 -5.69805 2.58985 0
M  V30 5422 H 514.391 -2.29556 1.88922 0
M  V30 5423 H 511.924 -1.11317 1.06995 0
M  V30 5424 H 513.882 -4.10162 0.166626 0
M  V30 5425 H 512.543 -3.10876 -0.448871 0
M  V30 5426 H 511.736 -4.91896 1.09792 0
M  V30 5427 H 511.338 -3.30938 1.7423 0
M  V30 5428 H 513.63 -6.46919 2.01252 0
M  V30 5429 H 514.573 -6.15345 3.50366 0
M  V30 5430 H 514.981 -5.27994 1.99705 0
M  V30 5431 N 514.379 -1.04941 -1.1758 0
M  V30 5432 C 515.627 -0.756492 -1.87408 0
M  V30 5433 C 515.948 0.718478 -1.81281 0
M  V30 5434 O 515.218 1.519 -1.23706 0
M  V30 5435 H 513.798 -0.276841 -0.693807 0
M  V30 5436 H 516.46 -1.32803 -1.42652 0
M  V30 5437 H 515.556 -1.06918 -2.93215 0
M  V30 5438 N 515.857 1.33968 -0.830081 0
M  V30 5439 C 517.105 1.97672 -0.420734 0
M  V30 5440 C 517.426 1.66111 1.02138 0
M  V30 5441 O 516.696 0.955503 1.71017 0
M  V30 5442 H 515.276 0.73125 -0.152587 0
M  V30 5443 H 517.938 1.63483 -1.0611 0
M  V30 5444 H 517.034 3.07294 -0.545588 0
M  V30 5445 N 517.335 0.585699 1.46312 0
M  V30 5446 C 518.265 -0.133556 2.33118 0
M  V30 5447 C 519.246 -0.880707 1.45525 0
M  V30 5448 O 520.431 -0.855579 1.74337 0
M  V30 5449 C 517.561 -1.14585 3.27853 0
M  V30 5450 C 516.515 -0.513341 4.2491 0
M  V30 5451 C 515.841 -1.63231 5.09175 0
M  V30 5452 C 517.141 0.551413 5.19381 0
M  V30 5453 H 518.835 0.59121 2.93505 0
M  V30 5454 H 516.381 0.285761 1.41136 0
M  V30 5455 H 518.334 -1.65741 3.87438 0
M  V30 5456 H 517.058 -1.90093 2.65579 0
M  V30 5457 H 515.717 -0.0228349 3.66593 0
M  V30 5458 H 515.365 -2.37713 4.43285 0
M  V30 5459 H 515.065 -1.21473 5.74907 0
M  V30 5460 H 516.589 -2.14658 5.71624 0
M  V30 5461 H 518.003 0.124804 5.73164 0
M  V30 5462 H 516.4 0.889486 5.93471 0
M  V30 5463 H 517.47 1.43655 4.63132 0
M  V30 5464 N 518.813 -1.54241 0.323641 0
M  V30 5465 C 520.061 -2.00174 -0.278359 0
M  V30 5466 C 520.382 -1.2134 -1.52648 0
M  V30 5467 O 519.652 -0.315244 -1.93347 0
M  V30 5468 H 518.232 -0.739463 -0.105845 0
M  V30 5469 H 520.894 -1.89864 0.440204 0
M  V30 5470 H 519.99 -3.07486 -0.5347 0
M  V30 5471 N 520.291 -0.0518155 -1.57515 0
M  V30 5472 C 521.702 0.483787 -1.80323 0
M  V30 5473 C 522.053 1.70879 -0.964099 0
M  V30 5474 O 521.178 2.15643 -0.180872 0
M  V30 5475 C 521.773 0.884459 -3.27052 0
M  V30 5476 C 520.332 1.36504 -3.50776 0
M  V30 5477 C 519.479 0.340539 -2.75201 0
M  V30 5478 H 522.43 -0.277691 -1.56252 0
M  V30 5479 H 522.451 1.74733 -3.38007 0
M  V30 5480 H 521.963 -0.00731093 -3.88099 0
M  V30 5481 H 520.064 2.27598 -2.95009 0
M  V30 5482 H 520.177 1.35675 -4.59488 0
M  V30 5483 H 518.541 0.81356 -2.41357 0
M  V30 5484 H 519.324 -0.543156 -3.38976 0
M  V30 5485 N 521.769 1.56035 0.221574 0
M  V30 5486 C 522.994 1.83476 0.967026 0
M  V30 5487 C 523.419 0.632139 1.7716 0
M  V30 5488 O 522.777 -0.419082 1.7639 0
M  V30 5489 C 522.825 3.08907 1.86034 0
M  V30 5490 O 521.929 2.876 2.95567 0
M  V30 5491 H 521.27 0.604913 0.273817 0
M  V30 5492 H 523.8 2.03247 0.234893 0
M  V30 5493 H 523.81 3.3901 2.27016 0
M  V30 5494 H 522.485 3.96068 1.26898 0
M  V30 5495 H 521.062 2.6873 2.58532 0
M  V30 5496 N 523.247 -0.488276 1.49845 0
M  V30 5497 C 524.475 -1.26527 1.63702 0
M  V30 5498 C 524.89 -1.8618 0.313447 0
M  V30 5499 O 524.247 -1.68432 -0.702624 0
M  V30 5500 C 524.298 -2.3864 2.71538 0
M  V30 5501 O 524.019 -1.81437 3.98763 0
M  V30 5502 C 525.52 -3.29805 2.96215 0
M  V30 5503 H 522.74 -0.383295 0.55075 0
M  V30 5504 H 525.284 -0.584779 1.95961 0
M  V30 5505 H 523.439 -3.02496 2.42023 0
M  V30 5506 H 523.853 -2.55135 4.58265 0
M  V30 5507 H 525.327 -4.04722 3.75372 0
M  V30 5508 H 525.804 -3.87563 2.06619 0
M  V30 5509 H 526.41 -2.71703 3.27196 0
M  V30 5510 N 524.725 -1.39134 -0.740242 0
M  V30 5511 C 525.973 -1.35803 -1.49673 0
M  V30 5512 C 526.294 0.0470897 -1.94943 0
M  V30 5513 O 525.564 0.997347 -1.68611 0
M  V30 5514 H 524.144 -0.499736 -0.555224 0
M  V30 5515 H 526.806 -1.73947 -0.879107 0
M  V30 5516 H 525.902 -2.0174 -2.38133 0
M  V30 5517 N 526.204 0.969867 -1.24223 0
M  V30 5518 C 527.151 2.06407 -1.0327 0
M  V30 5519 C 528.121 1.66014 0.0533 0
M  V30 5520 O 529.306 1.90533 -0.100896 0
M  V30 5521 C 526.446 3.3909 -0.641262 0
M  V30 5522 C 525.559 3.9269 -1.80051 0
M  V30 5523 C 524.694 5.13631 -1.35486 0
M  V30 5524 C 523.733 5.59423 -2.48419 0
M  V30 5525 N 522.87 6.71586 -2.04737 0
M  V30 5526 H 527.71 2.23663 -1.96923 0
M  V30 5527 H 525.247 1.09624 -0.980862 0
M  V30 5528 H 527.205 4.15323 -0.395351 0
M  V30 5529 H 525.835 3.21765 0.258269 0
M  V30 5530 H 524.887 3.13116 -2.16014 0
M  V30 5531 H 526.199 4.22636 -2.64916 0
M  V30 5532 H 525.353 5.97231 -1.0677 0
M  V30 5533 H 524.092 4.85364 -0.476722 0
M  V30 5534 H 523.097 4.74398 -2.77897 0
M  V30 5535 H 524.322 5.89705 -3.36786 0
M  V30 5536 H 522.268 6.45058 -1.19318 0
M  V30 5537 H 522.185 7.0097 -2.83156 0
M  V30 5538 H 523.453 7.58633 -1.79154 0
M  V30 5539 N 527.682 1.05563 1.17022 0
M  V30 5540 C 528.928 0.769074 1.87652 0
M  V30 5541 C 529.261 -0.702326 1.81055 0
M  V30 5542 O 528.536 -1.5139 1.22112 0
M  V30 5543 C 528.819 1.25492 3.37526 0
M  V30 5544 C 528.672 2.78953 3.52853 0
M  V30 5545 C 529.991 0.856919 4.31677 0
M  V30 5546 H 527.11 0.280854 0.681388 0
M  V30 5547 H 529.752 1.31027 1.37593 0
M  V30 5548 H 527.902 0.794516 3.80289 0
M  V30 5549 H 529.574 3.33146 3.19079 0
M  V30 5550 H 527.817 3.18046 2.95007 0
M  V30 5551 H 528.488 3.08011 4.58076 0
M  V30 5552 H 530.964 1.25334 3.96775 0
M  V30 5553 H 529.84 1.22443 5.35069 0
M  V30 5554 H 530.101 -0.238787 4.41455 0
M  V30 5555 N 529.16 -1.33526 0.837174 0
M  V30 5556 C 530.09 -2.31764 0.284206 0
M  V30 5557 C 531.071 -1.58896 -0.607142 0
M  V30 5558 O 532.256 -1.86798 -0.531047 0
M  V30 5559 C 529.386 -3.43029 -0.542962 0
M  V30 5560 C 528.34 -4.27255 0.252451 0
M  V30 5561 C 527.666 -5.3012 -0.69836 0
M  V30 5562 C 528.966 -5.01229 1.46858 0
M  V30 5563 H 530.66 -2.78262 1.10502 0
M  V30 5564 H 528.206 -1.3378 0.532812 0
M  V30 5565 H 530.159 -4.1078 -0.940096 0
M  V30 5566 H 528.883 -2.95216 -1.39697 0
M  V30 5567 H 527.542 -3.61127 0.631124 0
M  V30 5568 H 527.19 -4.78564 -1.54872 0
M  V30 5569 H 526.89 -5.87353 -0.170274 0
M  V30 5570 H 528.414 -6.00737 -1.09305 0
M  V30 5571 H 529.828 -5.61756 1.14469 0
M  V30 5572 H 528.225 -5.68104 1.93333 0
M  V30 5573 H 529.295 -4.301 2.23924 0
M  V30 5574 N 530.638 -0.59345 -1.46 0
M  V30 5575 C 532.054 -0.255965 -1.57534 0
M  V30 5576 C 532.254 1.24167 -1.58697 0
M  V30 5577 O 531.31 2.02398 -1.50968 0
M  V30 5578 C 532.623 -0.91466 -2.86451 0
M  V30 5579 C 534.171 -0.889253 -3.00102 0
M  V30 5580 C 534.646 -1.52769 -4.3177 0
M  V30 5581 N 536.137 -1.49253 -4.38495 0
M  V30 5582 C 536.872 -1.9558 -5.39014 0
M  V30 5583 N 536.368 -2.49929 -6.46148 0
M  V30 5584 N 538.161 -1.86432 -5.30282 0
M  V30 5585 H 530.312 -1.56604 -1.43489 0
M  V30 5586 H 532.575 -0.655207 -0.685133 0
M  V30 5587 H 532.281 -1.96861 -2.91442 0
M  V30 5588 H 532.155 -0.429356 -3.74748 0
M  V30 5589 H 534.542 0.156111 -2.94687 0
M  V30 5590 H 534.623 -1.41268 -2.13253 0
M  V30 5591 H 534.267 -2.57231 -4.37944 0
M  V30 5592 H 534.197 -0.979398 -5.17412 0
M  V30 5593 H 536.688 -1.09536 -3.61677 0
M  V30 5594 H 537.001 -2.83109 -7.19075 0
M  V30 5595 H 535.346 -2.53961 -6.46938 0
M  V30 5596 H 538.537 -1.43722 -4.4549 0
M  V30 5597 H 538.71 -2.22852 -6.08474 0
M  V30 5598 N 532.116 1.54067 -0.331816 0
M  V30 5599 C 533.365 1.99895 0.269209 0
M  V30 5600 C 533.678 1.22371 1.52593 0
M  V30 5601 O 534.884 1.58618 2.20347 0
M  V30 5602 C 533.34 3.55972 0.530244 0
M  V30 5603 C 532.948 4.4234 -0.709901 0
M  V30 5604 C 534.692 4.10247 1.09077 0
M  V30 5605 C 532.599 5.89905 -0.420312 0
M  V30 5606 H 531.529 0.746741 0.104371 0
M  V30 5607 H 534.18 1.78014 -0.445324 0
M  V30 5608 H 532.562 3.73873 1.30518 0
M  V30 5609 H 533.736 4.36215 -1.48504 0
M  V30 5610 H 532.051 3.98997 -1.19123 0
M  V30 5611 H 534.648 5.18095 1.32219 0
M  V30 5612 H 534.991 3.62739 2.0427 0
M  V30 5613 H 535.524 3.96011 0.376824 0
M  V30 5614 H 532.263 6.41623 -1.34164 0
M  V30 5615 H 531.783 5.98962 0.316962 0
M  V30 5616 H 533.462 6.46991 -0.0331956 0
M  V30 5617 N 533.594 0.0601682 1.57485 0
M  V30 5618 C 534.842 -0.610386 1.92662 0
M  V30 5619 C 535.163 -1.70849 0.939981 0
M  V30 5620 O 534.433 -1.95895 -0.0137455 0
M  V30 5621 H 533.013 -0.228457 0.711208 0
M  V30 5622 H 535.675 0.115288 1.94559 0
M  V30 5623 H 534.771 -1.0432 2.94149 0
M  V30 5624 N 535.072 -1.5615 -0.213296 0
M  V30 5625 C 536.002 -1.96109 -1.26742 0
M  V30 5626 C 536.983 -0.830448 -1.48451 0
M  V30 5627 O 538.168 -1.09339 -1.60495 0
M  V30 5628 C 535.298 -2.28492 -2.61551 0
M  V30 5629 C 534.252 -3.44124 -2.54485 0
M  V30 5630 C 533.578 -3.62134 -3.93399 0
M  V30 5631 C 534.878 -4.78855 -2.08556 0
M  V30 5632 H 536.572 -2.84412 -0.935434 0
M  V30 5633 H 534.118 -1.36836 -0.44854 0
M  V30 5634 H 536.071 -2.55039 -3.3546 0
M  V30 5635 H 534.795 -1.37052 -2.96453 0
M  V30 5636 H 533.454 -3.17639 -1.83033 0
M  V30 5637 H 533.102 -2.68055 -4.25623 0
M  V30 5638 H 532.802 -4.39913 -3.89551 0
M  V30 5639 H 534.326 -3.91038 -4.68958 0
M  V30 5640 H 535.74 -5.04552 -2.72213 0
M  V30 5641 H 534.137 -5.59975 -2.1575 0
M  V30 5642 H 535.207 -4.73657 -1.03811 0
M  V30 5643 N 536.55 0.480323 -1.50102 0
M  V30 5644 C 537.48 1.58769 -1.71215 0
M  V30 5645 C 538.461 1.60583 -0.560997 0
M  V30 5646 O 539.646 1.76996 -0.799127 0
M  V30 5647 C 536.776 2.97148 -1.79778 0
M  V30 5648 C 535.73 3.10201 -2.94888 0
M  V30 5649 C 535.056 4.50137 -2.88584 0
M  V30 5650 C 536.356 2.88283 -4.35534 0
M  V30 5651 H 538.05 1.41354 -2.6393 0
M  V30 5652 H 535.596 0.678591 -1.27008 0
M  V30 5653 H 537.549 3.74536 -1.93133 0
M  V30 5654 H 536.273 3.15699 -0.836772 0
M  V30 5655 H 534.932 2.35244 -2.81169 0
M  V30 5656 H 534.58 4.65593 -1.90349 0
M  V30 5657 H 534.28 4.59808 -3.65856 0
M  V30 5658 H 535.804 5.29558 -3.03976 0
M  V30 5659 H 537.218 3.55427 -4.49827 0
M  V30 5660 H 535.615 3.09408 -5.14186 0
M  V30 5661 H 536.685 1.84219 -4.48544 0
M  V30 5662 N 538.028 1.39524 0.732853 0
M  V30 5663 C 539.276 1.36594 1.48951 0
M  V30 5664 C 539.597 -0.0367507 1.94965 0
M  V30 5665 O 538.867 -0.988391 1.69138 0
M  V30 5666 H 537.447 0.502673 0.552566 0
M  V30 5667 H 540.109 1.74411 0.869869 0
M  V30 5668 H 539.205 2.03 2.3706 0
M  V30 5669 N 539.506 -0.963266 1.24736 0
M  V30 5670 C 540.746 -1.72172 1.10165 0
M  V30 5671 C 541.11 -1.88731 -0.352784 0
M  V30 5672 O 542.311 -2.61549 -0.620107 0
M  V30 5673 C 540.582 -3.0724 1.82589 0
M  V30 5674 S 542.141 -3.98449 1.83803 0
M  V30 5675 H 538.959 -0.591901 0.393922 0
M  V30 5676 H 541.561 -1.14955 1.58132 0
M  V30 5677 H 540.265 -2.92851 2.87518 0
M  V30 5678 H 539.796 -3.69521 1.34973 0
M  V30 5679 H 541.811 -4.87805 0.908883 0
M  V30 5680 N 540.985 -1.06182 -1.16461 0
M  V30 5681 C 541.933 -0.665716 -2.2287 0
M  V30 5682 C 542.927 0.317822 -1.66392 0
M  V30 5683 O 544.133 0.182807 -1.79069 0
M  V30 5684 H 540.508 -0.197148 -0.725697 0
M  V30 5685 H 542.479 -1.57307 -2.53569 0
M  V30 5686 C 541.228 -0.0669803 -3.47635 0
M  V30 5687 H 540.551 -0.814899 -3.91407 0
M  V30 5688 H 541.991 0.172669 -4.23648 0
M  V30 5689 C 540.45 1.18913 -3.15216 0
M  V30 5690 O 540.98 2.27723 -3.30916 0
M  V30 5691 N 539.186 1.09066 -2.69357 0
M  V30 5692 H 538.733 0.20518 -2.56782 0
M  V30 5693 H 538.691 1.93195 -2.48039 0
M  V30 5694 N 542.463 1.3308 -0.844243 0
M  V30 5695 C 543.426 2.27403 -0.286485 0
M  V30 5696 C 544.426 1.51179 0.547872 0
M  V30 5697 O 545.616 1.70421 0.360886 0
M  V30 5698 C 542.748 3.35653 0.595813 0
M  V30 5699 H 543.941 2.78248 -1.11885 0
M  V30 5700 H 541.494 1.43574 -0.617749 0
M  V30 5701 H 542.229 2.90058 1.4504 0
M  V30 5702 H 542.014 3.921 -0.00125994 0
M  V30 5703 H 543.504 4.05958 0.979168 0
M  V30 5704 N 543.941 0.601185 1.45683 0
M  V30 5705 C 545.169 0.100054 2.06658 0
M  V30 5706 C 545.584 -1.21285 1.44691 0
M  V30 5707 O 544.941 -1.73735 0.558772 0
M  V30 5708 C 544.992 -0.0528579 3.61461 0
M  V30 5709 O 544.713 1.20809 4.21114 0
M  V30 5710 C 546.214 -0.586193 4.39407 0
M  V30 5711 H 543.434 0.065905 0.667756 0
M  V30 5712 H 545.978 0.827101 1.87028 0
M  V30 5713 H 544.133 -0.730203 3.80456 0
M  V30 5714 H 544.547 1.03368 5.14213 0
M  V30 5715 H 546.021 -0.642297 5.4825 0
M  V30 5716 H 546.498 -1.60713 4.0874 0
M  V30 5717 H 547.104 0.0568935 4.25262 0
M  V30 5718 N 545.419 -1.53889 0.339982 0
M  V30 5719 C 546.835 -1.59595 -0.0120752 0
M  V30 5720 C 547.035 -1.35605 -1.49042 0
M  V30 5721 O 546.091 -1.14856 -2.24865 0
M  V30 5722 C 547.404 -2.9774 0.420898 0
M  V30 5723 C 548.952 -3.1077 0.37294 0
M  V30 5724 C 549.427 -4.51286 0.781327 0
M  V30 5725 N 550.918 -4.57325 0.735374 0
M  V30 5726 C 551.653 -5.64194 1.02336 0
M  V30 5727 N 551.149 -6.7893 1.37933 0
M  V30 5728 N 552.942 -5.54051 0.947838 0
M  V30 5729 H 545.093 -1.67738 1.30299 0
M  V30 5730 H 547.356 -0.785385 0.530918 0
M  V30 5731 H 547.062 -3.20349 1.45152 0
M  V30 5732 H 546.936 -3.76639 -0.205721 0
M  V30 5733 H 549.323 -2.87886 -0.648505 0
M  V30 5734 H 549.404 -2.33939 1.03472 0
M  V30 5735 H 549.048 -4.74905 1.80077 0
M  V30 5736 H 548.978 -5.26511 0.0970679 0
M  V30 5737 H 551.469 -3.74931 0.472773 0
M  V30 5738 H 551.782 -7.56392 1.58402 0
M  V30 5739 H 550.127 -6.80386 1.41774 0
M  V30 5740 H 553.318 -4.63293 0.669115 0
M  V30 5741 H 553.491 -6.37246 1.17563 0
M  V30 5742 N 546.897 -0.0685191 -1.57451 0
M  V30 5743 C 547.807 0.914677 -2.16034 0
M  V30 5744 C 548.823 1.32938 -1.12265 0
M  V30 5745 O 549.999 1.40275 -1.44516 0
M  V30 5746 C 547.064 2.16519 -2.70777 0
M  V30 5747 C 546.125 1.80721 -3.89408 0
M  V30 5748 C 545.358 2.9981 -4.41531 0
M  V30 5749 O 545.581 4.13727 -3.92666 0
M  V30 5750 O 544.515 2.79817 -5.32903 0
M  V30 5751 H 548.341 0.446364 -3.00402 0
M  V30 5752 H 545.926 0.154367 -1.486 0
M  V30 5753 H 547.808 2.89856 -3.05878 0
M  V30 5754 H 546.483 2.62454 -1.89471 0
M  V30 5755 H 545.39 1.04646 -3.59166 0
M  V30 5756 H 546.723 1.39571 -4.71997 0
M  V30 5757 N 548.375 1.56261 0.205012 0
M  V30 5758 C 549.323 1.94631 1.27364 0
M  V30 5759 C 550.317 0.830434 1.47649 0
M  V30 5760 O 551.523 1.01538 1.48627 0
M  V30 5761 H 547.898 0.618755 0.427371 0
M  V30 5762 H 549.869 2.83768 0.922941 0
M  V30 5763 C 548.618 2.29358 2.61324 0
M  V30 5764 H 547.941 3.14744 2.46528 0
M  V30 5765 H 549.381 2.60076 3.34868 0
M  V30 5766 C 547.84 1.12461 3.17575 0
M  V30 5767 O 548.37 0.394407 3.99759 0
M  V30 5768 N 546.576 0.904036 2.7618 0
M  V30 5769 H 546.123 1.49956 2.09454 0
M  V30 5770 H 546.081 0.123662 3.14157 0
M  V30 5771 N 549.853 -0.472356 1.50355 0
M  V30 5772 C 551.099 -1.22634 1.6152 0
M  V30 5773 C 551.432 -1.91645 0.313995 0
M  V30 5774 O 550.707 -1.82059 -0.684446 0
M  V30 5775 C 550.99 -2.27099 2.7946 0
M  V30 5776 C 550.843 -1.62402 4.19459 0
M  V30 5777 C 552.162 -3.28421 2.92964 0
M  V30 5778 H 549.281 -0.444494 0.587873 0
M  V30 5779 H 551.923 -0.520321 1.82737 0
M  V30 5780 H 550.073 -2.87314 2.61501 0
M  V30 5781 H 551.745 -1.05793 4.49005 0
M  V30 5782 H 549.988 -0.927184 4.23776 0
M  V30 5783 H 550.659 -2.38309 4.97909 0
M  V30 5784 H 553.135 -2.78227 3.09401 0
M  V30 5785 H 552.011 -3.98845 3.77113 0
M  V30 5786 H 552.272 -3.92467 2.03525 0
M  V30 5787 N 551.331 -1.39911 -0.725443 0
M  V30 5788 C 552.608 -1.28158 -1.47766 0
M  V30 5789 C 552.988 0.104545 -2.10841 0
M  V30 5790 O 552.336 1.11657 -1.99361 0
M  V30 5791 C 552.546 -2.41306 -2.52135 0
M  V30 5792 C 553.894 -2.81076 -3.18247 0
M  V30 5793 O 554.918 -2.40827 -2.62452 0
M  V30 5794 O 553.777 -3.50581 -4.19231 0
M  V30 5795 H 550.871 -0.502761 -0.656628 0
M  V30 5796 H 553.417 -1.51808 -0.758456 0
M  V30 5797 H 552.189 -3.33932 -2.03974 0
M  V30 5798 H 551.812 -2.19374 -3.31603 0
M  V30 5799 N 552.809 0.956637 -1.25245 0
M  V30 5800 C 554.225 1.22733 -1.02023 0
M  V30 5801 C 554.425 1.99761 0.264186 0
M  V30 5802 O 553.481 2.32814 0.977436 0
M  V30 5803 C 554.794 2.00367 -2.24217 0
M  V30 5804 C 556.342 2.13418 -2.28958 0
M  V30 5805 C 556.817 2.9445 -3.50803 0
M  V30 5806 N 558.308 3.02029 -3.51187 0
M  V30 5807 C 559.043 3.65116 -4.42129 0
M  V30 5808 N 558.539 4.2983 -5.43339 0
M  V30 5809 N 560.332 3.62237 -4.29815 0
M  V30 5810 H 552.483 0.441282 -2.07765 0
M  V30 5811 H 554.746 0.257686 -0.912306 0
M  V30 5812 H 554.452 1.51165 -3.17556 0
M  V30 5813 H 554.326 3.01077 -2.27228 0
M  V30 5814 H 556.713 2.61819 -1.36143 0
M  V30 5815 H 556.794 1.1202 -2.29968 0
M  V30 5816 H 556.438 2.46741 -4.43939 0
M  V30 5817 H 556.368 3.9607 -3.47039 0
M  V30 5818 H 558.859 2.56007 -2.77973 0
M  V30 5819 H 559.172 4.75819 -6.08947 0
M  V30 5820 H 557.517 4.28465 -5.47214 0
M  V30 5821 H 560.708 3.10863 -3.49974 0
M  V30 5822 H 560.881 4.11117 -5.00886 0
M  V30 5823 N 554.287 1.06798 1.15896 0
M  V30 5824 C 555.533 0.788934 1.86825 0
M  V30 5825 C 555.866 -0.683084 1.8179 0
M  V30 5826 O 555.141 -1.50086 1.23711 0
M  V30 5827 C 555.424 1.29065 3.36176 0
M  V30 5828 C 555.277 2.8268 3.49874 0
M  V30 5829 C 556.596 0.902655 4.30744 0
M  V30 5830 H 553.715 0.288066 0.678371 0
M  V30 5831 H 556.357 1.32479 1.36195 0
M  V30 5832 H 554.507 0.834806 3.79425 0
M  V30 5833 H 556.179 3.36511 3.15528 0
M  V30 5834 H 554.422 3.21157 2.91617 0
M  V30 5835 H 555.093 3.12852 4.54783 0
M  V30 5836 H 557.569 1.29535 3.95424 0
M  V30 5837 H 556.445 1.28111 5.3374 0
M  V30 5838 H 556.706 -0.191951 4.41683 0
M  V30 5839 N 555.766 -1.3263 0.851289 0
M  V30 5840 C 556.994 -2.01563 0.466899 0
M  V30 5841 C 557.409 -1.63996 -0.935447 0
M  V30 5842 O 556.766 -0.85957 -1.6099 0
M  V30 5843 C 556.817 -3.56613 0.592433 0
M  V30 5844 O 556.538 -3.92828 1.93954 0
M  V30 5845 C 558.039 -4.42818 0.206612 0
M  V30 5846 H 555.259 -0.645307 0.183902 0
M  V30 5847 H 557.803 -1.69285 1.1473 0
M  V30 5848 H 555.958 -3.87379 -0.0401936 0
M  V30 5849 H 556.372 -4.87545 1.9339 0
M  V30 5850 H 557.846 -5.50918 0.345462 0
M  V30 5851 H 558.323 -4.30844 -0.85264 0
M  V30 5852 H 558.929 -4.17434 0.814176 0
M  V30 5853 N 557.244 -0.608902 -1.45362 0
M  V30 5854 C 558.154 0.110969 -2.34337 0
M  V30 5855 C 559.17 0.859007 -1.51318 0
M  V30 5856 O 560.346 0.816296 -1.84116 0
M  V30 5857 C 557.411 1.09494 -3.28956 0
M  V30 5858 C 556.472 0.348718 -4.27881 0
M  V30 5859 C 555.705 1.28582 -5.17979 0
M  V30 5860 O 555.928 2.52369 -5.11533 0
M  V30 5861 O 554.862 0.782172 -5.96796 0
M  V30 5862 H 558.688 -0.620258 -2.97299 0
M  V30 5863 H 556.273 -0.36916 -1.44767 0
M  V30 5864 H 558.155 1.66163 -3.87257 0
M  V30 5865 H 556.83 1.80717 -2.68557 0
M  V30 5866 H 555.737 -0.260465 -3.73192 0
M  V30 5867 H 557.07 -0.323049 -4.91139 0
M  V30 5868 N 558.722 1.53707 -0.348139 0
M  V30 5869 C 559.685 2.23812 0.494058 0
M  V30 5870 C 560.685 1.23989 1.02388 0
M  V30 5871 O 561.875 1.48395 0.912396 0
M  V30 5872 C 559.007 2.96133 1.68872 0
M  V30 5873 H 560.2 2.99663 -0.119141 0
M  V30 5874 H 557.753 1.55983 -0.0995539 0
M  V30 5875 H 558.488 2.24481 2.34049 0
M  V30 5876 H 558.273 3.69357 1.31596 0
M  V30 5877 H 559.763 3.49475 2.28597 0
M  V30 5878 N 560.2 0.0768682 1.57412 0
M  V30 5879 C 561.13 -0.886026 2.16037 0
M  V30 5880 C 562.111 -1.30691 1.08876 0
M  V30 5881 O 563.296 -1.37705 1.36934 0
M  V30 5882 C 560.426 -2.1518 2.72608 0
M  V30 5883 C 559.38 -1.87015 3.8498 0
M  V30 5884 C 558.706 -3.20266 4.28175 0
M  V30 5885 C 560.006 -1.17143 5.08994 0
M  V30 5886 H 561.7 -0.397642 2.96748 0
M  V30 5887 H 559.246 -0.189823 1.42743 0
M  V30 5888 H 561.199 -2.82962 3.12266 0
M  V30 5889 H 559.923 -2.66269 1.89125 0
M  V30 5890 H 558.582 -1.21636 3.45833 0
M  V30 5891 H 558.23 -3.69207 3.41607 0
M  V30 5892 H 557.93 -3.0221 5.03927 0
M  V30 5893 H 559.454 -3.89237 4.70454 0
M  V30 5894 H 560.868 -1.75003 5.45937 0
M  V30 5895 H 559.265 -1.09328 5.90057 0
M  V30 5896 H 560.335 -0.151295 4.84664 0
M  V30 5897 N 561.678 -1.56367 -0.196722 0
M  V30 5898 C 563.094 -1.49916 -0.54749 0
M  V30 5899 C 563.294 -0.77659 -1.85934 0
M  V30 5900 O 562.35 -0.32644 -2.50381 0
M  V30 5901 C 563.663 -2.94577 -0.603734 0
M  V30 5902 C 565.211 -3.05239 -0.692677 0
M  V30 5903 C 565.686 -4.51308 -0.780046 0
M  V30 5904 N 567.177 -4.55453 -0.843616 0
M  V30 5905 C 567.912 -5.65786 -0.931358 0
M  V30 5906 N 567.408 -6.85812 -0.981503 0
M  V30 5907 N 569.201 -5.53695 -0.968421 0
M  V30 5908 H 561.352 -2.01761 0.663803 0
M  V30 5909 H 563.615 -0.918094 0.236238 0
M  V30 5910 H 563.321 -3.50494 0.29105 0
M  V30 5911 H 563.195 -3.47841 -1.45898 0
M  V30 5912 H 565.582 -2.49372 -1.57789 0
M  V30 5913 H 565.663 -2.55103 0.188736 0
M  V30 5914 H 565.307 -5.078 0.100811 0
M  V30 5915 H 565.237 -4.99176 -1.67724 0
M  V30 5916 H 567.728 -3.69025 -0.814176 0
M  V30 5917 H 568.041 -7.65648 -1.04892 0
M  V30 5918 H 566.386 -6.88474 -0.950208 0
M  V30 5919 H 569.577 -4.58848 -0.926072 0
M  V30 5920 H 569.75 -6.39708 -1.03334 0
M  V30 5921 N 563.156 0.464375 -1.50603 0
M  V30 5922 C 564.119 1.54393 -1.69397 0
M  V30 5923 C 565.119 1.50566 -0.564504 0
M  V30 5924 O 566.309 1.53066 -0.831645 0
M  V30 5925 C 563.441 2.9401 -1.72543 0
M  V30 5926 H 564.634 1.39044 -2.65719 0
M  V30 5927 H 562.187 0.69122 -1.40185 0
M  V30 5928 H 562.922 3.14795 -0.77938 0
M  V30 5929 H 562.707 2.98195 -2.54602 0
M  V30 5930 H 564.197 3.72375 -1.89015 0
M  V30 5931 N 564.634 1.40294 0.718013 0
M  V30 5932 C 565.597 1.4012 1.81381 0
M  V30 5933 C 566.597 0.295405 1.58063 0
M  V30 5934 O 567.787 0.554187 1.6515 0
M  V30 5935 C 564.919 1.19056 3.19435 0
M  V30 5936 H 566.112 2.37645 1.82933 0
M  V30 5937 H 563.665 1.26107 0.923405 0
M  V30 5938 H 564.4 0.222809 3.23534 0
M  V30 5939 H 564.185 1.99152 3.37758 0
M  V30 5940 H 565.675 1.21716 3.99468 0
M  V30 5941 N 566.112 -0.949982 1.2575 0
M  V30 5942 C 567.042 -2.06483 1.09028 0
M  V30 5943 C 568.023 -1.701 -0.00201532 0
M  V30 5944 O 569.208 -1.93469 0.168383 0
M  V30 5945 C 566.338 -3.39899 0.71316 0
M  V30 5946 C 565.292 -3.90309 1.75621 0
M  V30 5947 C 564.618 -5.20274 1.23365 0
M  V30 5948 C 565.918 -4.16169 3.15596 0
M  V30 5949 H 567.612 -2.20731 2.02283 0
M  V30 5950 H 565.158 -1.06066 0.973964 0
M  V30 5951 H 567.111 -4.17346 0.58309 0
M  V30 5952 H 565.835 -3.25602 -0.255091 0
M  V30 5953 H 564.494 -3.15035 1.8748 0
M  V30 5954 H 564.142 -5.02351 0.255491 0
M  V30 5955 H 563.842 -5.54971 1.93082 0
M  V30 5956 H 565.366 -6.00314 1.11607 0
M  V30 5957 H 566.78 -4.84259 3.06864 0
M  V30 5958 H 565.177 -4.62131 3.82825 0
M  V30 5959 H 566.247 -3.22273 3.6231 0
M  V30 5960 N 567.59 -1.07411 -1.15328 0
M  V30 5961 C 568.522 -0.652924 -2.19703 0
M  V30 5962 C 569.535 0.294869 -1.60107 0
M  V30 5963 O 570.724 0.0840932 -1.78302 0
M  V30 5964 C 567.824 0.061434 -3.38844 0
M  V30 5965 C 566.997 -0.902696 -4.27984 0
M  V30 5966 C 566.056 -0.225521 -5.25717 0
M  V30 5967 O 565.082 -0.86676 -5.62562 0
M  V30 5968 N 566.284 1.02858 -5.71315 0
M  V30 5969 H 569.049 -1.55081 -2.56457 0
M  V30 5970 H 566.61 -0.958883 -1.30449 0
M  V30 5971 H 568.602 0.525145 -4.01278 0
M  V30 5972 H 567.172 0.861269 -3.00501 0
M  V30 5973 H 566.392 -1.54551 -3.6264 0
M  V30 5974 H 567.68 -1.55636 -4.84412 0
M  V30 5975 H 567.078 1.56948 -5.43492 0
M  V30 5976 H 565.635 1.43596 -6.35786 0
M  V30 5977 N 569.068 1.32177 -0.85831 0
M  V30 5978 C 570.018 2.26307 -0.277307 0
M  V30 5979 C 571.002 1.50123 0.578946 0
M  V30 5980 O 572.194 1.71754 0.427731 0
M  V30 5981 C 569.323 3.39181 0.530232 0
M  V30 5982 C 568.409 4.22746 -0.338613 0
M  V30 5983 N 568.8 4.85265 -1.4266 0
M  V30 5984 C 567.098 4.45813 -0.129 0
M  V30 5985 C 567.799 5.47634 -1.96142 0
M  V30 5986 N 566.775 5.28794 -1.26007 0
M  V30 5987 H 570.577 2.72173 -1.10902 0
M  V30 5988 H 568.091 1.46308 -0.704816 0
M  V30 5989 H 570.088 4.05628 0.962904 0
M  V30 5990 H 568.748 2.9486 1.35969 0
M  V30 5991 H 569.759 4.85259 -1.80953 0
M  V30 5992 H 566.436 4.12163 0.665451 0
M  V30 5993 H 567.826 6.0735 -2.8736 0
M  V30 5994 N 570.547 0.616602 1.45037 0
M  V30 5995 C 571.787 0.118453 2.04056 0
M  V30 5996 C 572.151 -1.23104 1.47341 0
M  V30 5997 O 573.352 -1.82044 1.97771 0
M  V30 5998 C 571.623 0.0892842 3.57288 0
M  V30 5999 S 573.182 -0.346361 4.37431 0
M  V30 6000 H 570 0.0539728 0.708948 0
M  V30 6001 H 572.602 0.816731 1.77623 0
M  V30 6002 H 571.306 1.07481 3.96076 0
M  V30 6003 H 570.837 -0.630703 3.88311 0
M  V30 6004 H 572.852 -1.59389 4.69904 0
M  V30 6005 N 572.025 -1.5352 0.356285 0
M  V30 6006 C 573.436 -1.86282 -0.12492 0
M  V30 6007 C 573.787 -1.27717 -1.48939 0
M  V30 6008 O 572.912 -0.595614 -2.08042 0
M  V30 6009 C 573.507 -3.37995 -0.23345 0
M  V30 6010 C 572.066 -3.70588 -0.658899 0
M  V30 6011 C 571.213 -2.76581 0.199596 0
M  V30 6012 H 574.164 -1.47901 0.575423 0
M  V30 6013 H 574.185 -3.65475 -1.0587 0
M  V30 6014 H 573.697 -3.8059 0.759776 0
M  V30 6015 H 571.798 -3.33544 -1.66069 0
M  V30 6016 H 571.911 -4.77076 -0.439957 0
M  V30 6017 H 570.275 -2.52552 -0.330076 0
M  V30 6018 H 571.058 -3.22008 1.19019 0
M  V30 6019 N 573.503 -0.0852151 -1.57369 0
M  V30 6020 C 574.45 0.877268 -2.13478 0
M  V30 6021 C 575.42 1.28642 -1.05073 0
M  V30 6022 O 576.605 1.36992 -1.32808 0
M  V30 6023 C 573.745 2.13464 -2.71159 0
M  V30 6024 C 572.858 1.77691 -3.93764 0
M  V30 6025 C 571.993 2.98139 -4.39643 0
M  V30 6026 C 571.032 2.58447 -5.54862 0
M  V30 6027 N 570.169 3.71698 -5.95639 0
M  V30 6028 H 575.009 0.391933 -2.95411 0
M  V30 6029 H 572.546 0.181796 -1.45972 0
M  V30 6030 H 574.504 2.87086 -3.02717 0
M  V30 6031 H 573.134 2.59514 -1.91969 0
M  V30 6032 H 572.186 0.940768 -3.68583 0
M  V30 6033 H 573.498 1.44497 -4.77412 0
M  V30 6034 H 572.652 3.80026 -4.72933 0
M  V30 6035 H 571.391 3.34536 -3.54876 0
M  V30 6036 H 570.396 1.74984 -5.21211 0
M  V30 6037 H 571.621 2.23205 -6.41371 0
M  V30 6038 H 569.567 4.07831 -5.13819 0
M  V30 6039 H 569.484 3.42317 -6.74059 0
M  V30 6040 H 570.752 4.54123 -6.33555 0
M  V30 6041 N 574.981 1.5647 0.188427 0
M  V30 6042 C 575.928 1.95073 1.23349 0
M  V30 6043 C 576.898 0.812238 1.44886 0
M  V30 6044 O 578.083 1.07095 1.57909 0
M  V30 6045 C 575.223 2.30124 2.57171 0
M  V30 6046 C 574.336 3.57069 2.43157 0
M  V30 6047 C 573.471 3.81411 3.69729 0
M  V30 6048 C 572.51 5.0176 3.50575 0
M  V30 6049 N 571.647 5.22321 4.69175 0
M  V30 6050 H 576.487 2.84171 0.89728 0
M  V30 6051 H 574.024 1.40623 0.431683 0
M  V30 6052 H 575.982 2.48463 3.35145 0
M  V30 6053 H 574.612 1.44159 2.88822 0
M  V30 6054 H 573.664 3.4674 1.56447 0
M  V30 6055 H 574.976 4.452 2.24942 0
M  V30 6056 H 574.13 4.00026 4.56141 0
M  V30 6057 H 572.869 2.91624 3.90905 0
M  V30 6058 H 571.874 4.83061 2.62549 0
M  V30 6059 H 573.099 5.93063 3.30837 0
M  V30 6060 H 571.045 4.35483 4.90602 0
M  V30 6061 H 570.962 6.04643 4.53809 0
M  V30 6062 H 572.23 5.45401 5.56919 0
M  V30 6063 N 576.459 -0.456382 1.50847 0
M  V30 6064 C 577.406 -1.55249 1.70782 0
M  V30 6065 C 578.376 -1.56757 0.549231 0
M  V30 6066 O 579.561 -1.74061 0.7815 0
M  V30 6067 C 576.701 -2.93118 1.82143 0
M  V30 6068 C 575.814 -3.01285 3.09598 0
M  V30 6069 C 574.949 -4.30159 3.11667 0
M  V30 6070 C 573.988 -4.32124 4.33515 0
M  V30 6071 N 573.125 -5.52492 4.3324 0
M  V30 6072 H 577.965 -1.37555 2.64353 0
M  V30 6073 H 575.502 -0.668543 1.3103 0
M  V30 6074 H 577.46 -3.73088 1.86711 0
M  V30 6075 H 576.09 -3.09413 0.919978 0
M  V30 6076 H 575.142 -2.14096 3.14431 0
M  V30 6077 H 576.454 -2.98597 3.99551 0
M  V30 6078 H 575.608 -5.18489 3.15046 0
M  V30 6079 H 574.347 -4.35477 2.1957 0
M  V30 6080 H 573.352 -3.42189 4.30333 0
M  V30 6081 H 574.577 -4.28485 5.26856 0
M  V30 6082 H 572.523 -5.58567 3.44004 0
M  V30 6083 H 572.44 -5.51605 5.16979 0
M  V30 6084 H 573.708 -6.42906 4.40786 0
M  V30 6085 N 577.937 -1.40673 -0.710563 0
M  V30 6086 C 578.867 -1.44095 -1.83736 0
M  V30 6087 C 579.848 -0.301286 -1.67411 0
M  V30 6088 O 581.033 -0.510618 -1.87367 0
M  V30 6089 C 578.163 -1.30773 -3.21738 0
M  V30 6090 C 577.117 -2.42395 -3.52745 0
M  V30 6091 C 576.443 -2.14147 -4.89944 0
M  V30 6092 C 577.743 -3.84738 -3.53234 0
M  V30 6093 H 579.437 -2.38396 -1.81129 0
M  V30 6094 H 576.983 -1.14746 -0.870017 0
M  V30 6095 H 578.936 -1.31783 -4.00264 0
M  V30 6096 H 577.66 -0.329507 -3.24934 0
M  V30 6097 H 576.319 -2.40643 -2.76562 0
M  V30 6098 H 575.967 -1.14703 -4.89747 0
M  V30 6099 H 575.667 -2.88934 -5.11655 0
M  V30 6100 H 577.191 -2.16848 -5.70797 0
M  V30 6101 H 578.605 -3.88286 -4.2179 0
M  V30 6102 H 577.002 -4.59085 -3.86473 0
M  V30 6103 H 578.072 -4.13962 -2.52514 0
M  V30 6104 O 579.454 0.8523 -1.37179 0
M  V30 6105 H 580.145 1.49284 -1.23425 0
M  V30 END ATOM
M  V30 BEGIN BOND
M  V30 END BOND
M  V30 END CTAB
M  END
$$$$
