drugbank_target|P21589 5'-nucleotidase (DB00806)
 OpenBabel12092119473D

  0  0  0     0  0            999 V3000
M  V30 BEGIN CTAB
M  V30 COUNTS 8928 9027 0 0 0
M  V30 BEGIN ATOM
M  V30 1 H -0.908 1.98254 -0.117106 0
M  V30 2 N 0 1.576 0 0
M  V30 3 C 0.933 2.03868 1.02534 0
M  V30 4 C 1.911 0.928543 1.3348 0
M  V30 5 O 3.095 1.19667 1.45644 0
M  V30 6 C 0.222 2.43627 2.35294 0
M  V30 7 C -0.732 3.65373 2.2001 0
M  V30 8 S 0.101 5.13292 1.52614 0
M  V30 9 C 1.257 5.56322 2.86805 0
M  V30 10 H 1.49 2.90518 0.631377 0
M  V30 11 H -0.977 1.52953 0.210867 0
M  V30 12 H 0.981 2.67203 3.11629 0
M  V30 13 H -0.358 1.57376 2.7183 0
M  V30 14 H -1.165 3.90944 3.18086 0
M  V30 15 H -1.563 3.418 1.51819 0
M  V30 16 H 0.729 5.58782 3.83104 0
M  V30 17 H 1.672 6.56266 2.65933 0
M  V30 18 H 2.08 4.83886 2.90714 0
M  V30 19 N 1.4781 -0.272755 1.55222 0
M  V30 20 C 2.7181 -1.01197 1.77591 0
M  V30 21 C 3.0821 -1.8349 0.565294 0
M  V30 22 O 4.2831 -2.60387 0.667242 0
M  V30 23 C 2.5541 -1.87096 3.04516 0
M  V30 24 S 4.1131 -2.67279 3.48004 0
M  V30 25 H 0.9311 -0.340836 0.62398 0
M  V30 26 H 3.5331 -0.282374 1.9345 0
M  V30 27 H 2.2371 -1.25565 3.90719 0
M  V30 28 H 1.7681 -2.64376 2.91323 0
M  V30 29 H 3.7831 -3.89593 3.07297 0
M  V30 30 N 2.9562 -1.48159 -0.537278 0
M  V30 31 C 4.3672 -1.49429 -1.11928 0
M  V30 32 C 4.7182 -0.26 -1.9447 0
M  V30 33 O 3.8432 0.633489 -2.0692 0
M  V30 34 C 4.4382 -2.70758 -2.03656 0
M  V30 35 C 2.9972 -2.74923 -2.57088 0
M  V30 36 C 2.1442 -2.42835 -1.3389 0
M  V30 37 H 5.0952 -1.55381 -0.322886 0
M  V30 38 H 5.1162 -2.48861 -2.87834 0
M  V30 39 H 4.6282 -3.60575 -1.43553 0
M  V30 40 H 2.7292 -1.89296 -3.20933 0
M  V30 41 H 2.8422 -3.76157 -2.9672 0
M  V30 42 H 1.2062 -1.93836 -1.65226 0
M  V30 43 H 1.9892 -3.34884 -0.755504 0
M  V30 44 N 4.4343 0.785586 -1.36625 0
M  V30 45 C 5.8503 1.08419 -1.17122 0
M  V30 46 C 6.0503 2.015 0.00208491 0
M  V30 47 O 5.1063 2.43551 0.666278 0
M  V30 48 C 6.4193 1.69498 -2.48377 0
M  V30 49 C 7.9673 1.81821 -2.54775 0
M  V30 50 C 8.4423 2.46315 -3.86126 0
M  V30 51 N 9.9333 2.53779 -3.87492 0
M  V30 52 C 10.6683 3.045 -4.85868 0
M  V30 53 N 10.1643 3.55499 -5.94637 0
M  V30 54 N 11.9573 3.03247 -4.73284 0
M  V30 55 H 4.1083 0.167264 -2.1174 0
M  V30 56 H 6.3713 0.13682 -0.938075 0
M  V30 57 H 6.0773 1.08571 -3.34522 0
M  V30 58 H 5.9513 2.6896 -2.64462 0
M  V30 59 H 8.3383 2.41884 -1.69045 0
M  V30 60 H 8.4193 0.811532 -2.42586 0
M  V30 61 H 8.0633 1.86895 -4.72263 0
M  V30 62 H 7.9933 3.47561 -3.95612 0
M  V30 63 H 10.4843 2.17672 -3.08913 0
M  V30 64 H 10.7973 3.92562 -6.65669 0
M  V30 65 H 9.1423 3.5364 -5.98301 0
M  V30 66 H 12.3333 2.62696 -3.87438 0
M  V30 67 H 12.5063 3.42467 -5.50109 0
M  V30 68 N 5.9124 1.20967 1.01018 0
M  V30 69 C 6.8754 0.965918 2.07853 0
M  V30 70 C 7.8754 -0.0610545 1.60684 0
M  V30 71 O 9.0654 0.175681 1.73312 0
M  V30 72 C 6.1974 0.455513 3.37843 0
M  V30 73 H 7.3904 1.91365 2.3091 0
M  V30 74 H 4.9434 1.02594 1.17916 0
M  V30 75 H 5.6784 -0.497381 3.20463 0
M  V30 76 H 5.4634 1.19622 3.73407 0
M  V30 77 H 6.9534 0.304667 4.16487 0
M  V30 78 N 7.3905 -1.2043 1.01659 0
M  V30 79 C 8.3535 -2.21433 0.591616 0
M  V30 80 C 9.3535 -1.57203 -0.338226 0
M  V30 81 O 10.5435 -1.73737 -0.126918 0
M  V30 82 C 7.6755 -3.40628 -0.136058 0
M  V30 83 H 8.8685 -2.60545 1.48514 0
M  V30 84 H 6.4215 -1.33893 0.806379 0
M  V30 85 H 7.1565 -3.07019 -1.04449 0
M  V30 86 H 6.9415 -3.88475 0.531917 0
M  V30 87 H 8.4315 -4.15475 -0.420735 0
M  V30 88 N 8.8686 -0.792821 -1.36206 0
M  V30 89 C 10.2846 -0.474903 -1.52371 0
M  V30 90 C 10.4846 1.00622 -1.74578 0
M  V30 91 O 9.5406 1.79162 -1.77924 0
M  V30 92 C 10.8536 -1.3083 -2.70747 0
M  V30 93 C 12.4016 -1.30234 -2.84619 0
M  V30 94 C 12.8766 -2.11956 -4.06004 0
M  V30 95 N 14.3676 -2.09419 -4.13156 0
M  V30 96 C 15.1026 -2.69419 -5.06163 0
M  V30 97 N 14.5986 -3.3829 -6.04592 0
M  V30 98 N 16.3916 -2.59134 -4.98804 0
M  V30 99 H 8.5426 -1.75222 -1.20046 0
M  V30 100 H 10.8056 -0.745024 -0.586211 0
M  V30 101 H 10.5116 -2.35881 -2.6087 0
M  V30 102 H 10.3856 -0.95196 -3.6499 0
M  V30 103 H 12.7726 -0.259748 -2.93955 0
M  V30 104 H 12.8536 -1.69847 -1.91274 0
M  V30 105 H 12.4976 -3.16248 -3.97429 0
M  V30 106 H 12.4276 -1.69711 -4.98503 0
M  V30 107 H 14.9186 -1.59297 -3.42685 0
M  V30 108 H 15.2316 -3.81394 -6.7213 0
M  V30 109 H 13.5766 -3.42393 -6.04807 0
M  V30 110 H 16.7676 -2.04927 -4.20859 0
M  V30 111 H 16.9406 -3.06185 -5.711 0
M  V30 112 N 10.3467 1.47872 -0.545128 0
M  V30 113 C 11.3097 2.28337 0.198717 0
M  V30 114 C 12.3097 1.36255 0.853888 0
M  V30 115 O 13.4997 1.59003 0.711606 0
M  V30 116 C 10.6317 3.15585 1.28915 0
M  V30 117 H 11.8247 2.95567 -0.507941 0
M  V30 118 H 9.3777 1.53362 -0.301616 0
M  V30 119 H 10.1127 2.53019 2.02859 0
M  V30 120 H 9.8977 3.83337 0.824309 0
M  V30 121 H 11.3877 3.76243 1.81194 0
M  V30 122 N 11.8248 0.280983 1.55075 0
M  V30 123 C 13.2358 -0.215629 1.85451 0
M  V30 124 C 13.5868 -1.54991 1.203 0
M  V30 125 O 12.7118 -2.10699 0.493435 0
M  V30 126 C 13.3068 -0.398026 3.36454 0
M  V30 127 C 11.8658 -0.838866 3.66933 0
M  V30 128 C 11.0128 0.064458 2.77225 0
M  V30 129 H 13.9638 0.502601 1.50531 0
M  V30 130 H 13.9848 -1.23569 3.59876 0
M  V30 131 H 13.4968 0.573241 3.83843 0
M  V30 132 H 11.5978 -1.8214 3.25048 0
M  V30 133 H 11.7108 -0.672123 4.74362 0
M  V30 134 H 10.0748 -0.452863 2.50642 0
M  V30 135 H 10.8578 1.03172 3.2743 0
M  V30 136 N 13.3029 -1.57598 0.00835791 0
M  V30 137 C 14.2659 -2.07884 -0.965242 0
M  V30 138 C 15.2659 -0.989825 -1.26725 0
M  V30 139 O 16.4559 -1.25218 -1.21104 0
M  V30 140 C 13.5879 -2.52731 -2.28779 0
M  V30 141 H 14.7809 -2.95178 -0.530112 0
M  V30 142 H 12.3339 -1.54458 -0.239283 0
M  V30 143 H 13.0689 -1.68705 -2.76964 0
M  V30 144 H 12.8539 -3.32272 -2.08177 0
M  V30 145 H 14.3439 -2.91933 -2.98605 0
M  V30 146 N 14.781 0.264519 -1.55364 0
M  V30 147 C 16.009 1.013 -1.80405 0
M  V30 148 C 16.424 1.79618 -0.581622 0
M  V30 149 O 15.781 1.76879 0.449468 0
M  V30 150 C 15.832 1.96487 -3.03439 0
M  V30 151 O 15.553 1.21341 -4.20961 0
M  V30 152 C 17.054 2.83079 -3.41147 0
M  V30 153 H 14.274 0.298875 -0.600762 0
M  V30 154 H 16.818 0.292736 -2.02394 0
M  V30 155 H 14.973 2.63965 -2.83551 0
M  V30 156 H 15.387 1.85573 -4.90574 0
M  V30 157 H 16.861 3.4565 -4.30384 0
M  V30 158 H 17.338 3.53286 -2.60932 0
M  V30 159 H 17.944 2.2108 -3.63323 0
M  V30 160 N 16.2591 1.48442 0.529413 0
M  V30 161 C 17.1891 1.65902 1.64313 0
M  V30 162 C 18.1701 0.507897 1.6234 0
M  V30 163 O 19.3551 0.740503 1.79528 0
M  V30 164 C 16.4851 1.69911 3.02898 0
M  V30 165 C 15.4391 2.8453 3.19729 0
M  V30 166 C 14.7651 2.73629 4.59381 0
M  V30 167 C 16.0651 4.25821 3.02447 0
M  V30 168 H 17.7591 2.5914 1.49955 0
M  V30 169 H 15.3051 1.24709 0.719982 0
M  V30 170 H 17.2581 1.80715 3.80684 0
M  V30 171 H 15.9821 0.732524 3.18279 0
M  V30 172 H 14.6411 2.73283 2.44361 0
M  V30 173 H 14.2891 1.74938 4.71599 0
M  V30 174 H 13.9891 3.50541 4.71588 0
M  V30 175 H 15.5131 2.86401 5.39265 0
M  V30 176 H 16.9271 4.37898 3.70024 0
M  V30 177 H 15.3241 5.03735 3.26146 0
M  V30 178 H 16.3941 4.42244 1.98867 0
M  V30 179 N 17.7372 -0.778329 1.37039 0
M  V30 180 C 18.6672 -1.90546 1.34962 0
M  V30 181 C 19.6482 -1.68681 0.219274 0
M  V30 182 O 20.8332 -1.89634 0.418624 0
M  V30 183 C 17.9632 -3.27734 1.14925 0
M  V30 184 C 16.9172 -3.64147 2.24902 0
M  V30 185 C 16.2432 -4.99806 1.89996 0
M  V30 186 C 17.5432 -3.71579 3.67051 0
M  V30 187 H 19.2372 -1.92541 2.29277 0
M  V30 188 H 16.7832 -0.924948 1.10366 0
M  V30 189 H 18.7362 -4.06215 1.12104 0
M  V30 190 H 17.4602 -3.26154 0.170631 0
M  V30 191 H 16.1192 -2.8797 2.26868 0
M  V30 192 H 15.7672 -4.94759 0.906796 0
M  V30 193 H 15.4672 -5.25139 2.63634 0
M  V30 194 H 16.9912 -5.80694 1.88749 0
M  V30 195 H 18.4052 -4.40227 3.67251 0
M  V30 196 H 16.8022 -4.08405 4.39688 0
M  V30 197 H 17.8722 -2.72404 4.01154 0
M  V30 198 N 19.2153 -1.21501 -1.00376 0
M  V30 199 C 20.1453 -0.999478 -2.11028 0
M  V30 200 C 21.1263 0.0759671 -1.6993 0
M  V30 201 O 22.3113 -0.0841106 -1.94018 0
M  V30 202 C 19.4413 -0.564709 -3.42678 0
M  V30 203 C 18.3953 -1.58486 -3.97576 0
M  V30 204 C 17.7213 -1.00628 -5.25146 0
M  V30 205 C 19.0213 -2.97204 -4.29496 0
M  V30 206 H 20.7153 -1.92495 -2.29317 0
M  V30 207 H 18.2613 -0.92693 -1.102 0
M  V30 208 H 20.2143 -0.401091 -4.19487 0
M  V30 209 H 18.9383 0.396411 -3.24185 0
M  V30 210 H 17.5973 -1.73606 -3.22888 0
M  V30 211 H 17.2453 -0.0368439 -5.02987 0
M  V30 212 H 16.9453 -1.68771 -5.62841 0
M  V30 213 H 18.4693 -0.854015 -6.04598 0
M  V30 214 H 19.8833 -2.8552 -4.97143 0
M  V30 215 H 18.2803 -3.62372 -4.78338 0
M  V30 216 H 19.3503 -3.47956 -3.3772 0
M  V30 217 N 20.6934 1.19889 -1.02296 0
M  V30 218 C 21.6564 2.21116 -0.603351 0
M  V30 219 C 22.6564 1.5738 0.329884 0
M  V30 220 O 23.8464 1.73802 0.117702 0
M  V30 221 C 20.9784 3.40696 0.117992 0
M  V30 222 H 22.1714 2.59754 -1.49893 0
M  V30 223 H 19.7244 1.33463 -0.813468 0
M  V30 224 H 20.4594 3.07569 1.0282 0
M  V30 225 H 20.2444 3.88188 -0.552511 0
M  V30 226 H 21.7344 4.15692 0.398696 0
M  V30 227 N 22.1715 0.800033 1.35784 0
M  V30 228 C 23.1015 0.220184 2.3246 0
M  V30 229 C 24.0825 -0.65073 1.57161 0
M  V30 230 O 25.2675 -0.582359 1.85263 0
M  V30 231 C 22.3975 -0.637353 3.41402 0
M  V30 232 C 21.3515 0.134531 4.27789 0
M  V30 233 C 20.6775 -0.844285 5.27992 0
M  V30 234 C 21.9775 1.32979 5.05088 0
M  V30 235 H 23.6715 1.02787 2.81203 0
M  V30 236 H 21.2175 0.495717 1.35199 0
M  V30 237 H 23.1705 -1.05302 4.08031 0
M  V30 238 H 21.8945 -1.47785 2.91251 0
M  V30 239 H 20.5535 0.531296 3.6273 0
M  V30 240 H 20.2015 -1.68011 4.74111 0
M  V30 241 H 19.9015 -0.332184 5.8666 0
M  V30 242 H 21.4255 -1.2583 5.97494 0
M  V30 243 H 22.8395 0.98934 5.64699 0
M  V30 244 H 21.2365 1.77593 5.7322 0
M  V30 245 H 22.3065 2.11978 4.36111 0
M  V30 246 N 23.6496 -1.47581 0.552962 0
M  V30 247 C 24.8976 -2.02082 0.0272703 0
M  V30 248 C 25.2186 -1.4301 -1.32563 0
M  V30 249 O 24.4886 -0.603745 -1.86365 0
M  V30 250 H 23.0686 -0.746966 0.00709182 0
M  V30 251 H 25.7306 -1.81033 0.722008 0
M  V30 252 H 24.8266 -3.12034 -0.0639951 0
M  V30 253 N 25.1277 -0.289203 -1.54924 0
M  V30 254 C 26.0907 0.579144 -2.21762 0
M  V30 255 C 27.0907 1.07047 -1.1999 0
M  V30 256 O 28.2807 0.968384 -1.44803 0
M  V30 257 C 25.4127 1.80055 -2.8947 0
M  V30 258 H 26.6057 -0.00464908 -2.999 0
M  V30 259 H 24.1587 -0.0399306 -1.56249 0
M  V30 260 H 24.8937 2.42449 -2.15381 0
M  V30 261 H 24.6787 1.45602 -3.64064 0
M  V30 262 H 26.1687 2.41773 -3.40493 0
M  V30 263 N 26.6058 1.57591 -0.0167156 0
M  V30 264 C 27.8518 1.91567 0.665582 0
M  V30 265 C 28.1848 0.892298 1.72487 0
M  V30 266 O 27.4598 -0.0867127 1.94307 0
M  V30 267 C 27.7428 3.36069 1.29342 0
M  V30 268 C 27.5958 4.49135 0.244541 0
M  V30 269 C 28.9148 3.803 2.21495 0
M  V30 270 H 26.0338 0.69666 0.240488 0
M  V30 271 H 28.6758 1.89866 -0.0714356 0
M  V30 272 H 26.8258 3.3765 1.92158 0
M  V30 273 H 28.4978 4.59689 -0.385228 0
M  V30 274 H 26.7408 4.3165 -0.431379 0
M  V30 275 H 27.4118 5.47242 0.723207 0
M  V30 276 H 29.8878 3.80377 1.68678 0
M  V30 277 H 28.7638 4.82127 2.62382 0
M  V30 278 H 29.0248 3.15104 3.101 0
M  V30 279 N 28.0839 -0.256276 1.55502 0
M  V30 280 C 29.0139 -1.32102 1.92539 0
M  V30 281 C 29.9949 -1.50684 0.789194 0
M  V30 282 O 31.1799 -1.63449 1.04872 0
M  V30 283 C 28.3099 -2.67752 2.21192 0
M  V30 284 C 27.2639 -2.63878 3.36975 0
M  V30 285 C 26.5899 -4.03236 3.51147 0
M  V30 286 C 27.8899 -2.21682 4.72921 0
M  V30 287 H 29.5839 -1.01351 2.81724 0
M  V30 288 H 27.1299 -0.486105 1.35547 0
M  V30 289 H 29.0829 -3.42365 2.45691 0
M  V30 290 H 27.8069 -3.0012 1.28824 0
M  V30 291 H 26.4659 -1.91722 3.12471 0
M  V30 292 H 26.1139 -4.32854 2.56216 0
M  V30 293 H 25.8139 -4.01535 4.29003 0
M  V30 294 H 27.3379 -4.79563 3.77957 0
M  V30 295 H 28.7519 -2.86023 4.96854 0
M  V30 296 H 27.1489 -2.3111 5.53812 0
M  V30 297 H 28.2189 -1.16833 4.70615 0
M  V30 298 N 29.562 -1.4872 -0.521534 0
M  V30 299 C 30.808 -1.58378 -1.27624 0
M  V30 300 C 31.163 -0.258028 -1.90662 0
M  V30 301 O 30.456 0.739917 -1.76736 0
M  V30 302 C 30.65 -2.66497 -2.38148 0
M  V30 303 C 30.479 -4.09456 -1.85945 0
M  V30 304 C 29.249 -4.76495 -1.68168 0
M  V30 305 C 31.447 -4.95353 -1.3831 0
M  V30 306 N 29.429 -6.0384 -1.1068 0
M  V30 307 C 30.8 -6.13012 -0.928238 0
M  V30 308 C 32.855 -4.81512 -1.26692 0
M  V30 309 C 31.558 -7.18354 -0.368701 0
M  V30 310 C 33.584 -5.86984 -0.721368 0
M  V30 311 C 32.946 -7.03857 -0.276623 0
M  V30 312 H 29.045 -0.634045 -0.457724 0
M  V30 313 H 31.629 -1.85639 -0.587049 0
M  V30 314 H 29.8 -2.41043 -3.04553 0
M  V30 315 H 31.532 -2.65791 -3.05184 0
M  V30 316 H 28.287 -4.32962 -1.91939 0
M  V30 317 H 28.711 -6.71778 -0.839217 0
M  V30 318 H 33.353 -3.91487 -1.5968 0
M  V30 319 H 31.071 -8.08096 -0.0265122 0
M  V30 320 H 34.657 -5.78329 -0.634531 0
M  V30 321 H 33.537 -7.84077 0.138947 0
M  V30 322 N 31.0401 0.771051 -1.3745 0
M  V30 323 C 32.4511 1.34737 -1.29239 0
M  V30 324 C 32.8021 1.96109 0.0596908 0
M  V30 325 O 31.9271 1.93865 0.961534 0
M  V30 326 C 32.5221 2.44973 -2.34037 0
M  V30 327 C 31.0811 2.98372 -2.29458 0
M  V30 328 C 30.2281 1.71595 -2.17831 0
M  V30 329 H 33.1791 0.571256 -1.48062 0
M  V30 330 H 33.2001 3.24471 -1.98744 0
M  V30 331 H 32.7121 2.00276 -3.32432 0
M  V30 332 H 30.8131 3.47443 -1.34589 0
M  V30 333 H 30.9261 3.53939 -3.229 0
M  V30 334 H 29.2901 1.94547 -1.64388 0
M  V30 335 H 30.0731 1.29001 -3.18141 0
M  V30 336 N 32.5182 1.22032 0.997298 0
M  V30 337 C 33.4812 0.987909 2.06816 0
M  V30 338 C 34.4812 -0.0440084 1.6074 0
M  V30 339 O 35.6712 0.194053 1.73116 0
M  V30 340 C 32.8032 0.49132 3.37341 0
M  V30 341 H 33.9962 1.93803 2.28868 0
M  V30 342 H 31.5492 1.03838 1.16822 0
M  V30 343 H 32.2842 -0.463364 3.20973 0
M  V30 344 H 32.0692 1.23575 3.72118 0
M  V30 345 H 33.5592 0.348824 4.16141 0
M  V30 346 N 33.9963 -1.19345 1.0293 0
M  V30 347 C 34.9593 -2.20793 0.615069 0
M  V30 348 C 35.9593 -1.57553 -0.321533 0
M  V30 349 O 37.1493 -1.73862 -0.108483 0
M  V30 350 C 34.2813 -3.40754 -0.0999222 0
M  V30 351 H 35.4743 -2.58955 1.51269 0
M  V30 352 H 33.0273 -1.3303 0.820534 0
M  V30 353 H 33.7623 -3.0811 -1.01187 0
M  V30 354 H 33.5473 -3.87889 0.57309 0
M  V30 355 H 35.0373 -4.15898 -0.376645 0
M  V30 356 N 35.4744 -0.807222 -1.35358 0
M  V30 357 C 36.7224 -0.387122 -1.98358 0
M  V30 358 C 37.0434 1.04942 -1.64354 0
M  V30 359 O 36.3134 1.72615 -0.926339 0
M  V30 360 H 34.8934 -0.140154 -0.733734 0
M  V30 361 H 37.5554 -1.0332 -1.6526 0
M  V30 362 H 36.6514 -0.493352 -3.08176 0
M  V30 363 N 36.9525 1.47285 -0.560781 0
M  V30 364 C 37.9155 2.28535 0.174488 0
M  V30 365 C 38.9155 1.37153 0.839388 0
M  V30 366 O 40.1055 1.59748 0.694702 0
M  V30 367 C 37.2375 3.16934 1.25561 0
M  V30 368 H 38.4305 2.95012 -0.539262 0
M  V30 369 H 35.9835 1.53034 -0.317865 0
M  V30 370 H 36.7185 2.55157 2.00164 0
M  V30 371 H 36.5035 3.8419 0.783604 0
M  V30 372 H 37.9935 3.78143 1.77193 0
M  V30 373 N 38.4306 0.297415 1.54768 0
M  V30 374 C 39.6766 -0.306263 2.01081 0
M  V30 375 C 40.0316 -1.518 1.18214 0
M  V30 376 O 39.3246 -1.89967 0.249613 0
M  V30 377 C 39.5186 -0.717561 3.50123 0
M  V30 378 C 39.3476 0.45277 4.47415 0
M  V30 379 C 38.1176 0.943651 4.9641 0
M  V30 380 C 40.3156 1.29657 4.97688 0
M  V30 381 N 38.2976 2.08112 5.77549 0
M  V30 382 C 39.6686 2.28158 5.76493 0
M  V30 383 C 41.7236 1.32735 4.79881 0
M  V30 384 C 40.4266 3.29509 6.39387 0
M  V30 385 C 42.4526 2.32943 5.43591 0
M  V30 386 C 41.8146 3.30174 6.22225 0
M  V30 387 H 37.9136 -0.0766274 0.778237 0
M  V30 388 H 40.4976 0.426515 1.89971 0
M  V30 389 H 38.6686 -1.41952 3.6153 0
M  V30 390 H 40.4006 -1.30047 3.83236 0
M  V30 391 H 37.1556 0.51922 4.70745 0
M  V30 392 H 37.5796 2.65414 6.22803 0
M  V30 393 H 42.2216 0.589375 4.18672 0
M  V30 394 H 39.9396 4.04228 6.99732 0
M  V30 395 H 43.5256 2.36094 5.31743 0
M  V30 396 H 42.4056 4.06445 6.7065 0
M  V30 397 N 39.9087 -1.5758 0.0250728 0
M  V30 398 C 40.8187 -2.1343 -0.973905 0
M  V30 399 C 41.8347 -1.08556 -1.35984 0
M  V30 400 O 43.0107 -1.40592 -1.44207 0
M  V30 401 C 40.0757 -2.64703 -2.23904 0
M  V30 402 C 39.1367 -3.84276 -1.91391 0
M  V30 403 C 38.3697 -4.33095 -3.11873 0
M  V30 404 O 38.5927 -3.81107 -4.24398 0
M  V30 405 O 37.5267 -5.24984 -2.94406 0
M  V30 406 H 41.3527 -2.99057 -0.529036 0
M  V30 407 H 38.9377 -1.48118 -0.195288 0
M  V30 408 H 40.8197 -2.97769 -2.98181 0
M  V30 409 H 39.4947 -1.82161 -2.6758 0
M  V30 410 H 38.4017 -3.56143 -1.14511 0
M  V30 411 H 39.7347 -4.67968 -1.52534 0
M  V30 412 N 41.3868 0.248026 -1.55636 0
M  V30 413 C 42.3168 1.31079 -1.93237 0
M  V30 414 C 43.2978 1.50264 -0.797174 0
M  V30 415 O 44.4828 1.62891 -1.05737 0
M  V30 416 C 41.6128 2.66575 -2.22609 0
M  V30 417 C 40.5668 2.62087 -3.3837 0
M  V30 418 C 39.8928 4.01369 -3.53281 0
M  V30 419 C 41.1928 2.19171 -4.7409 0
M  V30 420 H 42.8868 0.998556 -2.82257 0
M  V30 421 H 40.4328 0.47891 -1.35803 0
M  V30 422 H 42.3858 3.41057 -2.47503 0
M  V30 423 H 41.1098 2.99432 -1.30414 0
M  V30 424 H 39.7688 1.90063 -3.13483 0
M  V30 425 H 39.4168 4.31489 -2.58508 0
M  V30 426 H 39.1168 3.99254 -4.31127 0
M  V30 427 H 40.6408 4.77552 -3.80495 0
M  V30 428 H 42.0548 2.83384 -4.98363 0
M  V30 429 H 40.4518 2.2817 -5.5503 0
M  V30 430 H 41.5218 1.14336 -4.71227 0
M  V30 431 N 42.8649 1.48995 0.513639 0
M  V30 432 C 44.0929 1.61531 1.29288 0
M  V30 433 C 44.5079 0.281801 1.86685 0
M  V30 434 O 43.8649 -0.731111 1.67215 0
M  V30 435 C 43.9159 2.67449 2.43215 0
M  V30 436 O 43.6369 3.95626 1.88179 0
M  V30 437 C 45.1379 2.90575 3.34785 0
M  V30 438 H 42.3579 0.544165 0.392588 0
M  V30 439 H 44.9019 1.9494 0.617956 0
M  V30 440 H 43.0569 2.36853 3.0656 0
M  V30 441 H 43.4709 4.53868 2.62876 0
M  V30 442 H 44.9449 3.68449 4.11035 0
M  V30 443 H 45.4219 2.00011 3.91015 0
M  V30 444 H 46.0279 3.22538 2.77218 0
M  V30 445 N 44.343 -0.763751 1.37857 0
M  V30 446 C 45.592 -1.51789 1.32827 0
M  V30 447 C 45.905 -1.95426 -0.0823719 0
M  V30 448 O 47.111 -2.70298 -0.255172 0
M  V30 449 C 45.567 -2.74133 2.33193 0
M  V30 450 C 45.175 -2.37562 3.79827 0
M  V30 451 C 46.919 -3.52054 2.37188 0
M  V30 452 C 44.826 -3.56456 4.71904 0
M  V30 453 H 43.756 -0.569896 0.493695 0
M  V30 454 H 46.407 -0.835822 1.63359 0
M  V30 455 H 44.789 -3.4427 1.9569 0
M  V30 456 H 45.963 -1.75157 4.26212 0
M  V30 457 H 44.278 -1.72798 3.78853 0
M  V30 458 H 46.875 -4.40437 3.03182 0
M  V30 459 H 47.218 -3.92486 1.38782 0
M  V30 460 H 47.751 -2.88921 2.7344 0
M  V30 461 H 44.49 -3.21099 5.71468 0
M  V30 462 H 44.01 -4.17938 4.30218 0
M  V30 463 H 45.689 -4.23168 4.89426 0
M  V30 464 N 45.8211 -1.22559 -0.990812 0
M  V30 465 C 46.7511 -1.0218 -2.09956 0
M  V30 466 C 47.7321 0.0579394 -1.70001 0
M  V30 467 O 48.9171 -0.104684 -1.93918 0
M  V30 468 C 46.0471 -0.601023 -3.4206 0
M  V30 469 C 45.0011 -1.62694 -3.95872 0
M  V30 470 C 44.3271 -1.06193 -5.24049 0
M  V30 471 C 45.6271 -3.01743 -4.2632 0
M  V30 472 H 47.3211 -1.94916 -2.27262 0
M  V30 473 H 44.8671 -0.938566 -1.09211 0
M  V30 474 H 46.8201 -0.445561 -4.19038 0
M  V30 475 H 45.5441 0.362005 -3.24588 0
M  V30 476 H 44.2031 -1.77021 -3.21028 0
M  V30 477 H 43.8511 -0.0901903 -5.02919 0
M  V30 478 H 43.5511 -1.74732 -5.61019 0
M  V30 479 H 45.0751 -0.918092 -6.03658 0
M  V30 480 H 46.4891 -2.90777 -4.94087 0
M  V30 481 H 44.8861 -3.67425 -4.74467 0
M  V30 482 H 45.9561 -3.51518 -3.34011 0
M  V30 483 N 47.2992 1.18797 -1.03562 0
M  V30 484 C 48.2492 2.20161 -0.592724 0
M  V30 485 C 49.2332 1.56772 0.362133 0
M  V30 486 O 50.4252 1.76062 0.182009 0
M  V30 487 C 47.5542 3.43266 0.0481024 0
M  V30 488 C 46.6402 4.13786 -0.9296 0
M  V30 489 N 47.0312 4.60388 -2.09467 0
M  V30 490 C 45.3292 4.39572 -0.754499 0
M  V30 491 C 46.0302 5.14619 -2.71187 0
M  V30 492 N 45.0062 5.05826 -1.991 0
M  V30 493 H 48.8082 2.53877 -1.48066 0
M  V30 494 H 46.3222 1.34946 -0.903514 0
M  V30 495 H 48.3192 4.15136 0.383058 0
M  V30 496 H 46.9792 3.11048 0.931636 0
M  V30 497 H 47.9902 4.54999 -2.47379 0
M  V30 498 H 44.6672 4.17425 0.0793713 0
M  V30 499 H 46.0572 5.60917 -3.69895 0
M  V30 500 N 48.7773 0.814389 1.34928 0
M  V30 501 C 50.0053 0.411136 2.02774 0
M  V30 502 C 50.4203 -0.980316 1.61354 0
M  V30 503 O 49.7773 -1.63299 0.814847 0
M  V30 504 C 49.8283 0.493865 3.58111 0
M  V30 505 O 49.5493 1.83047 3.98027 0
M  V30 506 C 51.0503 0.0844174 4.4322 0
M  V30 507 H 48.2703 0.166037 0.650133 0
M  V30 508 H 50.8143 1.10018 1.72384 0
M  V30 509 H 48.9693 -0.147006 3.87121 0
M  V30 510 H 49.3833 1.79872 4.92693 0
M  V30 511 H 50.8573 0.193404 5.51661 0
M  V30 512 H 51.3343 -0.97113 4.28329 0
M  V30 513 H 51.9403 0.69875 4.19521 0
M  V30 514 N 50.2554 -1.46986 0.568584 0
M  V30 515 C 51.2034 -2.31858 -0.185649 0
M  V30 516 C 52.1974 -1.43624 -0.898249 0
M  V30 517 O 53.4034 -1.60327 -0.818242 0
M  V30 518 H 49.7784 -0.747866 -0.0787399 0
M  V30 519 H 51.7494 -2.93303 0.549191 0
M  V30 520 C 50.4984 -3.26513 -1.19519 0
M  V30 521 H 49.8214 -3.94377 -0.656285 0
M  V30 522 H 51.2614 -3.88707 -1.6936 0
M  V30 523 C 49.7204 -2.50847 -2.24894 0
M  V30 524 O 50.2504 -2.26119 -3.32014 0
M  V30 525 N 48.4564 -2.11656 -1.99124 0
M  V30 526 H 48.0034 -2.31966 -1.12024 0
M  V30 527 H 47.9614 -1.61347 -2.69842 0
M  V30 528 N 51.7335 -0.305618 -1.54608 0
M  V30 529 C 53.0105 0.355652 -1.92339 0
M  V30 530 C 53.3905 1.71324 -1.23335 0
M  V30 531 O 52.7385 2.25473 -0.370702 0
M  V30 532 C 52.9485 0.46572 -3.45879 0
M  V30 533 C 54.2965 0.734426 -4.182 0
M  V30 534 O 55.3205 0.54935 -3.51938 0
M  V30 535 O 54.1795 1.09024 -5.35515 0
M  V30 536 H 51.2735 0.199666 -0.802535 0
M  V30 537 H 53.8195 -0.354017 -1.65966 0
M  V30 538 H 52.5915 -0.488461 -3.88239 0
M  V30 539 H 52.2145 1.22367 -3.78301 0
M  V30 540 N 53.2116 1.57565 -0.0334293 0
M  V30 541 C 54.4576 1.92262 0.645226 0
M  V30 542 C 54.7906 0.910543 1.71531 0
M  V30 543 O 54.0656 -0.066099 1.94388 0
M  V30 544 C 54.3486 3.37422 1.2577 0
M  V30 545 C 54.2016 4.49369 0.196891 0
M  V30 546 C 55.5206 3.82628 2.17449 0
M  V30 547 H 52.6396 0.699171 0.233085 0
M  V30 548 H 55.2816 1.89779 -0.0915694 0
M  V30 549 H 53.4316 3.39669 1.88566 0
M  V30 550 H 55.1036 4.59254 -0.433962 0
M  V30 551 H 53.3466 4.31168 -0.477137 0
M  V30 552 H 54.0176 5.47978 0.665124 0
M  V30 553 H 56.4936 3.82145 1.64634 0
M  V30 554 H 55.3696 4.84883 2.57254 0
M  V30 555 H 55.6306 3.18376 3.0674 0
M  V30 556 N 54.6897 -0.239769 1.55765 0
M  V30 557 C 55.6397 -1.30002 1.87306 0
M  V30 558 C 56.6237 -1.43156 0.73452 0
M  V30 559 O 57.8157 -1.46277 0.99659 0
M  V30 560 C 54.9447 -2.65409 2.17745 0
M  V30 561 C 54.0307 -2.56231 3.37945 0
M  V30 562 N 54.4217 -2.16689 4.57033 0
M  V30 563 C 52.7197 -2.87229 3.41197 0
M  V30 564 C 53.4207 -2.18318 5.39177 0
M  V30 565 N 52.3967 -2.58098 4.78421 0
M  V30 566 H 56.1987 -0.984912 2.76906 0
M  V30 567 H 53.7127 -0.448381 1.56087 0
M  V30 568 H 55.7097 -3.41934 2.38509 0
M  V30 569 H 54.3697 -2.97781 1.29448 0
M  V30 570 H 55.3807 -1.88116 4.82528 0
M  V30 571 H 52.0577 -3.24094 2.63191 0
M  V30 572 H 53.4477 -1.90025 6.44469 0
M  V30 573 N 56.1678 -1.49265 -0.50573 0
M  V30 574 C 57.3928 -1.62478 -1.28902 0
M  V30 575 C 57.8178 -0.294332 -1.85783 0
M  V30 576 O 57.1758 0.737412 -1.65626 0
M  V30 577 C 57.2238 -2.69268 -2.39848 0
M  V30 578 O 56.3278 -2.28113 -3.43567 0
M  V30 579 H 55.6688 -0.54399 -0.380751 0
M  V30 580 H 58.1988 -1.95421 -0.605952 0
M  V30 581 H 58.2088 -2.91291 -2.85681 0
M  V30 582 H 56.8838 -3.65846 -1.97812 0
M  V30 583 H 55.4608 -2.16401 -3.03685 0
M  V30 584 N 57.6459 0.756429 -1.3826 0
M  V30 585 C 59.0619 1.0591 -1.19395 0
M  V30 586 C 59.2619 2.01459 -0.0406567 0
M  V30 587 O 58.3179 2.44909 0.614467 0
M  V30 588 C 59.6309 1.64191 -2.51916 0
M  V30 589 C 61.1789 1.76376 -2.58574 0
M  V30 590 C 61.6539 2.38069 -3.91264 0
M  V30 591 N 63.1449 2.45503 -3.92788 0
M  V30 592 C 63.8799 2.94126 -4.92217 0
M  V30 593 N 63.3759 3.42805 -6.02043 0
M  V30 594 N 65.1689 2.9314 -4.7961 0
M  V30 595 H 57.3199 0.122313 -2.12048 0
M  V30 596 H 59.5829 0.116892 -0.940766 0
M  V30 597 H 59.2889 1.01451 -3.3675 0
M  V30 598 H 59.1629 2.6329 -2.70108 0
M  V30 599 H 61.5499 2.38244 -1.74137 0
M  V30 600 H 61.6309 0.759894 -2.44252 0
M  V30 601 H 61.2749 1.76835 -4.76121 0
M  V30 602 H 61.2049 3.39091 -4.02895 0
M  V30 603 H 63.6959 2.1107 -3.13461 0
M  V30 604 H 64.0089 3.78354 -6.73846 0
M  V30 605 H 62.3539 3.4087 -6.05667 0
M  V30 606 H 65.5449 2.54419 -3.92923 0
M  V30 607 H 65.7179 3.30721 -5.5725 0
M  V30 608 N 59.124 1.23083 0.984299 0
M  V30 609 C 60.054 1.03292 2.09411 0
M  V30 610 C 61.035 -0.048923 1.7003 0
M  V30 611 O 62.22 0.114967 1.93859 0
M  V30 612 C 59.35 0.619155 3.41736 0
M  V30 613 C 58.304 1.64791 3.95004 0
M  V30 614 C 57.63 1.0897 5.23478 0
M  V30 615 C 58.93 3.03999 4.24714 0
M  V30 616 H 60.624 1.96119 2.26225 0
M  V30 617 H 58.17 0.944344 1.08711 0
M  V30 618 H 60.123 0.467777 4.18796 0
M  V30 619 H 58.847 -0.344786 3.24775 0
M  V30 620 H 57.506 1.78721 3.20085 0
M  V30 621 H 57.154 0.11686 5.02864 0
M  V30 622 H 56.854 1.77704 5.60085 0
M  V30 623 H 58.378 0.950093 6.03163 0
M  V30 624 H 59.792 2.93393 4.92538 0
M  V30 625 H 58.189 3.69936 4.72512 0
M  V30 626 H 59.259 3.53285 3.32142 0
M  V30 627 N 60.6021 -1.18246 1.0419 0
M  V30 628 C 61.5121 -2.25574 0.644476 0
M  V30 629 C 62.5281 -1.70845 -0.329826 0
M  V30 630 O 63.7041 -2.00554 -0.184443 0
M  V30 631 C 60.7691 -3.46697 0.014877 0
M  V30 632 C 59.8301 -4.16554 1.03834 0
M  V30 633 C 59.0631 -5.31894 0.438692 0
M  V30 634 O 59.2861 -5.65385 -0.754752 0
M  V30 635 O 58.2201 -5.90459 1.168 0
M  V30 636 H 62.0461 -2.61836 1.53869 0
M  V30 637 H 59.6311 -1.25352 0.812854 0
M  V30 638 H 61.5131 -4.20062 -0.335538 0
M  V30 639 H 60.1881 -3.12255 -0.853138 0
M  V30 640 H 59.0951 -3.45251 1.44057 0
M  V30 641 H 60.4281 -4.54998 1.87716 0
M  V30 642 N 62.0802 -0.821533 -1.34494 0
M  V30 643 C 63.0122 -0.199946 -2.28326 0
M  V30 644 C 64.0252 0.609377 -1.50965 0
M  V30 645 O 65.2142 0.439285 -1.7301 0
M  V30 646 C 62.3142 0.738431 -3.30757 0
M  V30 647 C 61.4872 -0.0277632 -4.37391 0
M  V30 648 C 60.5462 0.831332 -5.19591 0
M  V30 649 O 59.5722 0.276822 -5.68526 0
M  V30 650 N 60.7742 2.15132 -5.39165 0
M  V30 651 H 63.5392 -1.00609 -2.82308 0
M  V30 652 H 61.1002 -0.678366 -1.47003 0
M  V30 653 H 63.0922 1.31773 -3.82646 0
M  V30 654 H 61.6622 1.44533 -2.7718 0
M  V30 655 H 60.8822 -0.788359 -3.86236 0
M  V30 656 H 62.1702 -0.555251 -5.05761 0
M  V30 657 H 61.5682 2.62559 -5.01078 0
M  V30 658 H 60.1252 2.6795 -5.94177 0
M  V30 659 N 63.5583 1.46682 -0.576371 0
M  V30 660 C 64.7863 2.06798 -0.0649635 0
M  V30 661 C 65.2013 1.42612 1.23723 0
M  V30 662 O 64.5583 0.529203 1.74659 0
M  V30 663 C 64.6093 3.6132 0.114202 0
M  V30 664 O 64.3303 4.23104 -1.13644 0
M  V30 665 C 65.8313 4.38349 0.66069 0
M  V30 666 H 63.0513 0.668778 -0.0545616 0
M  V30 667 H 65.5953 1.88404 -0.795237 0
M  V30 668 H 63.7503 3.79162 0.794673 0
M  V30 669 H 64.1643 5.15894 -0.946253 0
M  V30 670 H 65.6383 5.47081 0.73526 0
M  V30 671 H 66.1153 4.05953 1.67627 0
M  V30 672 H 66.7213 4.25297 0.0152951 0
M  V30 673 N 65.0364 0.313813 1.54444 0
M  V30 674 C 66.2614 -0.296681 2.05267 0
M  V30 675 C 66.6864 -1.45757 1.18897 0
M  V30 676 O 66.0444 -1.80239 0.195886 0
M  V30 677 C 66.0924 -0.71831 3.53373 0
M  V30 678 O 65.1964 -1.82175 3.69981 0
M  V30 679 H 64.5374 -0.0554061 0.661684 0
M  V30 680 H 67.0674 0.459387 1.99376 0
M  V30 681 H 67.0774 -1.00364 3.95463 0
M  V30 682 H 65.7524 0.130821 4.15694 0
M  V30 683 H 64.3294 -1.53598 3.39797 0
M  V30 684 N 66.5145 -1.57545 0.0417849 0
M  V30 685 C 67.4245 -2.14451 -0.951213 0
M  V30 686 C 68.4405 -1.09992 -1.34825 0
M  V30 687 O 69.6165 -1.42114 -1.42708 0
M  V30 688 C 66.6815 -2.67063 -2.21084 0
M  V30 689 C 65.7425 -3.86284 -1.87304 0
M  V30 690 C 64.9755 -4.36378 -3.07261 0
M  V30 691 O 65.1985 -3.85587 -4.20332 0
M  V30 692 O 64.1325 -5.28077 -2.88822 0
M  V30 693 H 67.9585 -2.99601 -0.497287 0
M  V30 694 H 65.5435 -1.48317 -0.179567 0
M  V30 695 H 67.4255 -3.00914 -2.95006 0
M  V30 696 H 66.1005 -1.84989 -2.65633 0
M  V30 697 H 65.0075 -3.57338 -1.10727 0
M  V30 698 H 66.3405 -4.6956 -1.47562 0
M  V30 699 N 67.9926 0.231505 -1.5589 0
M  V30 700 C 69.2696 0.981096 -1.69215 0
M  V30 701 C 69.6496 2.02799 -0.586164 0
M  V30 702 O 68.9976 2.24823 0.408253 0
M  V30 703 C 69.2076 1.60054 -3.10135 0
M  V30 704 C 70.5556 2.09658 -3.69227 0
M  V30 705 O 71.5796 1.69967 -3.13033 0
M  V30 706 O 70.4386 2.8258 -4.67772 0
M  V30 707 H 67.5326 0.457653 -0.688827 0
M  V30 708 H 70.0786 0.224073 -1.68214 0
M  V30 709 H 68.8506 0.844105 -3.82087 0
M  V30 710 H 68.4736 2.42336 -3.15212 0
M  V30 711 N 69.4707 1.49531 0.497807 0
M  V30 712 C 70.6957 1.63159 1.28039 0
M  V30 713 C 71.1207 0.30418 1.85624 0
M  V30 714 O 70.4787 -0.728618 1.66015 0
M  V30 715 C 70.5267 2.70537 2.38416 0
M  V30 716 O 69.6307 2.29931 3.42353 0
M  V30 717 H 68.9717 0.546001 0.377861 0
M  V30 718 H 71.5017 1.9574 0.59558 0
M  V30 719 H 71.5117 2.92802 2.84132 0
M  V30 720 H 70.1867 3.6689 1.95869 0
M  V30 721 H 68.7637 2.18009 3.02533 0
M  V30 722 N 70.9488 -0.749086 1.3866 0
M  V30 723 C 72.1738 -1.54344 1.38538 0
M  V30 724 C 72.5988 -1.88088 -0.0216655 0
M  V30 725 O 71.9568 -1.50899 -1.00494 0
M  V30 726 C 72.0048 -2.8164 2.25192 0
M  V30 727 O 71.1088 -3.7698 1.67212 0
M  V30 728 H 70.4498 -0.466654 0.472367 0
M  V30 729 H 72.9798 -0.925355 1.82478 0
M  V30 730 H 72.9898 -3.30519 2.3921 0
M  V30 731 H 71.6648 -2.56411 3.27454 0
M  V30 732 H 70.2418 -3.35699 1.6236 0
M  V30 733 N 72.4269 -1.23603 -0.977757 0
M  V30 734 C 73.3739 -1.01954 -2.07061 0
M  V30 735 C 74.3439 0.0638697 -1.65977 0
M  V30 736 O 75.5289 -0.0887624 -1.90593 0
M  V30 737 C 72.6689 -0.619658 -3.39491 0
M  V30 738 C 71.7819 -1.77547 -3.93829 0
M  V30 739 C 70.9169 -1.32212 -5.14484 0
M  V30 740 C 69.9559 -2.44852 -5.60994 0
M  V30 741 N 69.0929 -2.00456 -6.72876 0
M  V30 742 H 73.9329 -1.95495 -2.24913 0
M  V30 743 H 71.4699 -0.973861 -1.10247 0
M  V30 744 H 73.4279 -0.368898 -4.15566 0
M  V30 745 H 72.0579 0.278752 -3.21594 0
M  V30 746 H 71.1099 -2.14016 -3.14486 0
M  V30 747 H 72.4219 -2.62219 -4.24314 0
M  V30 748 H 71.5759 -1.02965 -5.97899 0
M  V30 749 H 70.3149 -0.445808 -4.85658 0
M  V30 750 H 69.3199 -2.74871 -4.76157 0
M  V30 751 H 70.5449 -3.33024 -5.91837 0
M  V30 752 H 68.4909 -1.15208 -6.45804 0
M  V30 753 H 68.4079 -2.78687 -7.02759 0
M  V30 754 H 69.6759 -1.7432 -7.59758 0
M  V30 755 N 73.905 1.17692 -1.04816 0
M  V30 756 C 75.145 1.89545 -0.764979 0
M  V30 757 C 75.509 1.78979 0.695028 0
M  V30 758 O 76.71 2.45613 1.09215 0
M  V30 759 C 74.981 3.35659 -1.22751 0
M  V30 760 S 76.54 4.25526 -1.07112 0
M  V30 761 H 73.358 0.654432 -0.27792 0
M  V30 762 H 75.96 1.42163 -1.34201 0
M  V30 763 H 74.664 3.40882 -2.28533 0
M  V30 764 H 74.195 3.88083 -0.644594 0
M  V30 765 H 76.21 4.962 0.00697508 0
M  V30 766 N 75.3831 0.828654 1.34056 0
M  V30 767 C 76.6291 0.42008 1.98402 0
M  V30 768 C 76.9621 -1.01564 1.65525 0
M  V30 769 O 76.2371 -1.70834 0.929831 0
M  V30 770 C 76.5201 0.62927 3.54559 0
M  V30 771 C 76.3731 2.11152 3.97159 0
M  V30 772 C 77.6921 0.0688756 4.40046 0
M  V30 773 H 74.8111 0.154104 0.720709 0
M  V30 774 H 77.4531 1.04228 1.5886 0
M  V30 775 H 75.6031 0.0996418 3.88372 0
M  V30 776 H 77.2751 2.70522 3.73651 0
M  V30 777 H 75.5181 2.59985 3.47261 0
M  V30 778 H 76.1891 2.20868 5.05887 0
M  V30 779 H 78.6651 0.521458 4.1282 0
M  V30 780 H 77.5411 0.245006 5.48353 0
M  V30 781 H 77.8021 -1.0266 4.30015 0
M  V30 782 N 76.8612 -1.46375 0.584142 0
M  V30 783 C 77.8092 -2.32042 -0.161047 0
M  V30 784 C 78.8032 -1.44569 -0.882966 0
M  V30 785 O 80.0092 -1.61186 -0.801191 0
M  V30 786 H 76.3842 -0.748659 -0.0708033 0
M  V30 787 H 78.3552 -2.92704 0.580269 0
M  V30 788 C 77.1042 -3.27762 -1.1605 0
M  V30 789 H 76.4272 -3.95051 -0.614419 0
M  V30 790 H 77.8672 -3.90481 -1.65228 0
M  V30 791 C 76.3262 -2.53218 -2.22221 0
M  V30 792 O 76.8562 -2.29628 -3.29597 0
M  V30 793 N 75.0622 -2.13756 -1.96868 0
M  V30 794 H 74.6092 -2.33142 -1.09557 0
M  V30 795 H 74.5672 -1.642 -2.68115 0
M  V30 796 N 78.3393 -0.321999 -1.54275 0
M  V30 797 C 79.3023 0.531975 -2.22941 0
M  V30 798 C 80.3023 1.04478 -1.22234 0
M  V30 799 O 81.4923 0.937452 -1.46825 0
M  V30 800 C 78.6243 1.73874 -2.93224 0
M  V30 801 H 79.8173 -0.0682612 -2.99822 0
M  V30 802 H 77.3703 -0.0730644 -1.56129 0
M  V30 803 H 78.1053 2.37825 -2.20476 0
M  V30 804 H 77.8903 1.37847 -3.6707 0
M  V30 805 H 79.3803 2.34496 -3.45545 0
M  V30 806 N 79.8174 1.5752 -0.0501392 0
M  V30 807 C 81.0424 1.97376 0.636997 0
M  V30 808 C 81.4674 0.927466 1.63645 0
M  V30 809 O 80.8254 -0.10941 1.8097 0
M  V30 810 C 80.8734 3.36304 1.30123 0
M  V30 811 O 79.9774 3.34156 2.41689 0
M  V30 812 H 79.3184 0.642998 0.165679 0
M  V30 813 H 81.8484 2.04258 -0.118233 0
M  V30 814 H 81.8584 3.73008 1.65315 0
M  V30 815 H 80.5334 4.11993 0.568746 0
M  V30 816 H 79.1104 3.09196 2.08451 0
M  V30 817 N 81.2955 -0.223234 1.56011 0
M  V30 818 C 82.7115 -0.572856 1.48965 0
M  V30 819 C 82.9115 -1.87225 0.74492 0
M  V30 820 O 81.9675 -2.50899 0.283896 0
M  V30 821 C 83.2805 -0.653646 2.9351 0
M  V30 822 C 84.8285 -0.744386 3.0402 0
M  V30 823 C 85.3035 -0.856535 4.49919 0
M  V30 824 N 86.7945 -0.9208 4.53955 0
M  V30 825 C 87.5295 -1.02726 5.64123 0
M  V30 826 N 87.0255 -1.09777 6.84047 0
M  V30 827 N 88.8185 -1.06226 5.51971 0
M  V30 828 H 80.9695 0.629462 2.02858 0
M  V30 829 H 83.2325 0.220621 0.921971 0
M  V30 830 H 82.9385 0.231518 3.50937 0
M  V30 831 H 82.8125 -1.51781 3.45315 0
M  V30 832 H 85.1995 -1.61999 2.46658 0
M  V30 833 H 85.2805 0.14541 2.55386 0
M  V30 834 H 84.9245 0.0146069 5.07898 0
M  V30 835 H 84.8545 -1.76172 4.96257 0
M  V30 836 H 87.3455 -0.876694 3.6759 0
M  V30 837 H 87.6585 -1.17872 7.63758 0
M  V30 838 H 86.0035 -1.06693 6.86762 0
M  V30 839 H 89.1945 -1.00382 4.5721 0
M  V30 840 H 89.3675 -1.14177 6.37862 0
M  V30 841 N 82.7736 -1.49793 -0.48987 0
M  V30 842 C 84.0136 -1.61466 -1.25332 0
M  V30 843 C 84.3776 -0.299688 -1.89647 0
M  V30 844 O 85.5786 -0.291687 -2.67213 0
M  V30 845 C 83.8496 -2.74944 -2.28343 0
M  V30 846 S 85.4086 -3.06637 -3.13878 0
M  V30 847 H 82.2266 -0.569411 -0.425784 0
M  V30 848 H 84.8286 -1.875 -0.553541 0
M  V30 849 H 83.5326 -3.68994 -1.79643 0
M  V30 850 H 83.0636 -2.50938 -3.02975 0
M  V30 851 H 85.0786 -2.49015 -4.29192 0
M  V30 852 N 84.2517 0.741722 -1.39055 0
M  V30 853 C 85.1847 1.86416 -1.31622 0
M  V30 854 C 86.1627 1.61473 -0.191076 0
M  V30 855 O 87.3467 1.84825 -0.370399 0
M  V30 856 C 84.4737 3.22266 -1.04221 0
M  V30 857 C 83.5197 3.66079 -2.18834 0
M  V30 858 S 84.3527 3.7623 -3.81066 0
M  V30 859 C 85.5087 5.14881 -3.55877 0
M  V30 860 H 85.7417 1.92437 -2.26617 0
M  V30 861 H 83.2747 0.905907 -1.25031 0
M  V30 862 H 85.2327 4.00714 -0.890964 0
M  V30 863 H 83.8937 3.1391 -0.109237 0
M  V30 864 H 83.0867 4.64648 -1.95238 0
M  V30 865 H 82.6887 2.94817 -2.30128 0
M  V30 866 H 84.9807 6.01006 -3.12726 0
M  V30 867 H 85.9237 5.43503 -4.53884 0
M  V30 868 H 86.3317 4.84239 -2.90126 0
M  V30 869 N 85.7298 1.2412 0.971189 0
M  V30 870 C 86.9778 1.07668 1.71032 0
M  V30 871 C 87.2988 -0.385797 1.91146 0
M  V30 872 O 86.5688 -1.27569 1.4867 0
M  V30 873 H 85.1488 0.395429 0.633755 0
M  V30 874 H 87.8108 1.55984 1.16855 0
M  V30 875 H 86.9068 1.57195 2.69622 0
M  V30 876 N 87.2079 -1.17134 1.05439 0
M  V30 877 C 88.4559 -1.87085 0.764429 0
M  V30 878 C 88.7769 -1.81584 -0.710787 0
M  V30 879 O 88.0469 -1.24349 -1.51374 0
M  V30 880 H 86.6269 -0.692627 0.279779 0
M  V30 881 H 89.2889 -1.42087 1.33406 0
M  V30 882 H 88.3849 -2.92759 1.0816 0
M  V30 883 N 88.686 -0.835752 -1.33615 0
M  V30 884 C 89.932 -0.430596 -1.98176 0
M  V30 885 C 90.265 1.00684 -1.66061 0
M  V30 886 O 89.54 1.70339 -0.938877 0
M  V30 887 C 89.823 -0.648065 -3.5422 0
M  V30 888 C 89.676 -2.13255 -3.96033 0
M  V30 889 C 90.995 -0.0922113 -4.40003 0
M  V30 890 H 88.114 -0.157924 -0.719881 0
M  V30 891 H 90.756 -1.05069 -1.58305 0
M  V30 892 H 88.906 -0.120237 -3.88314 0
M  V30 893 H 90.578 -2.725 -3.72211 0
M  V30 894 H 88.821 -2.61823 -3.45878 0
M  V30 895 H 89.492 -2.23547 -5.04708 0
M  V30 896 H 91.968 -0.543343 -4.12537 0
M  V30 897 H 90.844 -0.274083 -5.48215 0
M  V30 898 H 91.105 1.00378 -4.30554 0
M  V30 899 N 90.1641 1.46063 -0.591896 0
M  V30 900 C 91.1271 2.28854 0.125973 0
M  V30 901 C 92.1271 1.38903 0.810107 0
M  V30 902 O 93.3171 1.61186 0.66066 0
M  V30 903 C 90.4491 3.19526 1.1881 0
M  V30 904 H 91.6421 2.93802 -0.601717 0
M  V30 905 H 89.1951 1.52325 -0.350254 0
M  V30 906 H 89.9301 2.59345 1.94707 0
M  V30 907 H 89.7151 3.85766 0.701936 0
M  V30 908 H 91.2051 3.81817 1.69132 0
M  V30 909 N 91.6422 0.330177 1.54103 0
M  V30 910 C 93.0582 -0.0222371 1.59585 0
M  V30 911 C 93.2582 -1.49902 1.34654 0
M  V30 912 O 92.3142 -2.25592 1.13421 0
M  V30 913 C 93.6272 0.401932 2.98002 0
M  V30 914 C 95.1752 0.353145 3.11001 0
M  V30 915 C 95.6502 0.752576 4.51775 0
M  V30 916 N 97.1412 0.706239 4.57784 0
M  V30 917 C 97.8762 0.987417 5.64834 0
M  V30 918 N 97.3722 1.33607 6.79795 0
M  V30 919 N 99.1652 0.91254 5.54643 0
M  V30 920 H 91.3162 1.29228 1.68564 0
M  V30 921 H 93.5792 0.525906 0.78875 0
M  V30 922 H 93.2852 1.4311 3.21267 0
M  V30 923 H 93.1592 -0.229699 3.765 0
M  V30 924 H 95.5462 -0.666822 2.87467 0
M  V30 925 H 95.6272 1.0198 2.34593 0
M  V30 926 H 95.2712 1.77049 4.76042 0
M  V30 927 H 95.2012 0.0635409 5.26562 0
M  V30 928 H 97.6922 0.44889 3.75224 0
M  V30 929 H 98.0052 1.53582 7.57385 0
M  V30 930 H 96.3502 1.37439 6.81275 0
M  V30 931 H 99.5412 0.639601 4.6371 0
M  V30 932 H 99.7142 1.13503 6.37982 0
M  V30 933 N 93.1203 -1.57491 0.0584922 0
M  V30 934 C 94.0503 -2.14988 -0.911178 0
M  V30 935 C 95.0313 -1.07343 -1.31952 0
M  V30 936 O 96.2163 -1.35318 -1.39294 0
M  V30 937 C 93.3463 -2.70078 -2.18347 0
M  V30 938 C 92.3003 -3.82771 -1.91495 0
M  V30 939 C 91.6263 -4.24408 -3.25241 0
M  V30 940 C 92.9263 -5.07592 -1.23075 0
M  V30 941 H 94.6203 -2.96263 -0.432246 0
M  V30 942 H 92.1663 -1.42512 -0.206469 0
M  V30 943 H 94.1193 -3.08943 -2.86587 0
M  V30 944 H 92.8433 -1.86005 -2.68458 0
M  V30 945 H 91.5023 -3.44389 -1.25664 0
M  V30 946 H 91.1503 -3.37275 -3.73168 0
M  V30 947 H 90.8503 -5.00366 -3.08071 0
M  V30 948 H 92.3743 -4.65879 -3.94701 0
M  V30 949 H 93.7883 -5.43857 -1.81362 0
M  V30 950 H 92.1853 -5.88741 -1.16207 0
M  V30 951 H 93.2553 -4.84454 -0.207847 0
M  V30 952 N 94.5984 0.214957 -1.56127 0
M  V30 953 C 95.8454 0.938372 -1.79446 0
M  V30 954 C 96.1734 1.8407 -0.628378 0
M  V30 955 O 95.4284 1.91837 0.386925 0
M  V30 956 C 95.7274 1.80314 -3.0858 0
M  V30 957 C 95.3934 1.05349 -4.3842 0
M  V30 958 C 94.0554 0.846435 -4.73697 0
M  V30 959 C 96.4074 0.524588 -5.18553 0
M  V30 960 C 93.7354 0.098683 -5.86617 0
M  V30 961 C 96.0874 -0.209853 -6.32252 0
M  V30 962 C 94.7514 -0.428102 -6.66126 0
M  V30 963 H 94.0214 0.343375 -0.656639 0
M  V30 964 H 96.6684 0.206077 -1.90388 0
M  V30 965 H 94.9734 2.6035 -2.92789 0
M  V30 966 H 96.6704 2.36513 -3.23825 0
M  V30 967 H 93.2604 1.22486 -4.10725 0
M  V30 968 H 97.4444 0.672008 -4.91729 0
M  V30 969 H 92.7004 -0.0805753 -6.11347 0
M  V30 970 H 96.8744 -0.627157 -6.9357 0
M  V30 971 H 94.5014 -1.00944 -7.53468 0
M  V30 972 N 96.0765 1.50051 0.48192 0
M  V30 973 C 97.3045 1.64237 1.25832 0
M  V30 974 C 97.7195 0.321336 1.86045 0
M  V30 975 O 97.0765 -0.695478 1.68729 0
M  V30 976 C 97.1275 2.72548 2.37487 0
M  V30 977 O 96.8485 3.99529 1.79745 0
M  V30 978 C 98.3495 2.9761 3.28547 0
M  V30 979 H 95.5695 0.55237 0.380957 0
M  V30 980 H 98.1135 1.96207 0.576467 0
M  V30 981 H 96.2685 2.43303 3.01467 0
M  V30 982 H 96.6825 4.59342 2.5319 0
M  V30 983 H 98.1565 3.77084 4.03127 0
M  V30 984 H 98.6335 2.0826 3.86684 0
M  V30 985 H 99.2395 3.28345 2.70314 0
M  V30 986 N 97.5546 -0.734337 1.39446 0
M  V30 987 C 98.5016 -1.84835 1.38219 0
M  V30 988 C 99.4716 -1.64331 0.24179 0
M  V30 989 O 100.657 -1.85728 0.437002 0
M  V30 990 C 97.7966 -3.22355 1.23212 0
M  V30 991 C 96.9096 -3.5456 2.46801 0
M  V30 992 C 96.0446 -4.81485 2.24377 0
M  V30 993 C 95.0836 -5.06536 3.43639 0
M  V30 994 N 94.2206 -6.24665 3.20528 0
M  V30 995 H 99.0606 -1.85219 2.33448 0
M  V30 996 H 96.5976 -0.905039 1.15963 0
M  V30 997 H 98.5556 -4.0174 1.12522 0
M  V30 998 H 97.1856 -3.21248 0.316121 0
M  V30 999 H 96.2376 -2.69872 2.68092 0
M  V30 1000 H 97.5496 -3.6899 3.3563 0
M  V30 1001 H 96.7036 -5.68852 2.10933 0
M  V30 1002 H 95.4426 -4.6923 1.32944 0
M  V30 1003 H 94.4476 -4.17632 3.5758 0
M  V30 1004 H 95.6726 -5.20676 4.35974 0
M  V30 1005 H 93.6186 -6.13696 2.3176 0
M  V30 1006 H 93.5356 -6.39685 4.02913 0
M  V30 1007 H 94.8036 -7.14868 3.10779 0
M  V30 1008 N 99.0327 -1.24633 -0.964593 0
M  V30 1009 C 100.279 -1.08949 -1.71049 0
M  V30 1010 C 100.612 0.370302 -1.90637 0
M  V30 1011 O 99.8867 1.27349 -1.47011 0
M  V30 1012 C 100.17 -1.83329 -3.0994 0
M  V30 1013 C 100.023 -3.37077 -2.97824 0
M  V30 1014 C 101.342 -1.60846 -4.09654 0
M  V30 1015 H 98.4607 -0.397178 -0.620821 0
M  V30 1016 H 101.103 -1.5334 -1.12191 0
M  V30 1017 H 99.2527 -1.45597 -3.60186 0
M  V30 1018 H 100.925 -3.84425 -2.5498 0
M  V30 1019 H 99.1677 -3.65298 -2.33965 0
M  V30 1020 H 99.8387 -3.84324 -3.96231 0
M  V30 1021 H 102.315 -1.93674 -3.68279 0
M  V30 1022 H 101.191 -2.1534 -5.04896 0
M  V30 1023 H 101.452 -0.547434 -4.38698 0
M  V30 1024 N 100.511 1.16574 -1.06058 0
M  V30 1025 C 101.443 2.2045 -0.627239 0
M  V30 1026 C 102.456 1.59752 0.313534 0
M  V30 1027 O 103.645 1.78192 0.104896 0
M  V30 1028 C 100.745 3.3875 0.100974 0
M  V30 1029 C 99.9178 4.29008 -0.852687 0
M  V30 1030 C 98.9768 5.25944 -0.164152 0
M  V30 1031 O 98.0028 5.63535 -0.801047 0
M  V30 1032 N 99.2048 5.70075 1.09518 0
M  V30 1033 H 101.97 2.58249 -1.52077 0
M  V30 1034 H 99.5308 1.3156 -0.943594 0
M  V30 1035 H 101.523 4.00638 0.57194 0
M  V30 1036 H 100.093 2.99476 0.89628 0
M  V30 1037 H 99.3128 3.64419 -1.50308 0
M  V30 1038 H 100.601 4.86195 -1.49972 0
M  V30 1039 H 99.9988 5.41624 1.6328 0
M  V30 1040 H 98.5558 6.34067 1.51006 0
M  V30 1041 N 101.989 0.842826 1.3317 0
M  V30 1042 C 102.921 0.236245 2.27979 0
M  V30 1043 C 103.934 -0.585282 1.51915 0
M  V30 1044 O 105.123 -0.411705 1.73687 0
M  V30 1045 C 102.223 -0.685717 3.3189 0
M  V30 1046 C 101.396 0.0973448 4.37292 0
M  V30 1047 C 100.455 -0.748565 5.20848 0
M  V30 1048 O 99.4809 -0.186339 5.68895 0
M  V30 1049 N 100.683 -2.06527 5.42519 0
M  V30 1050 H 103.448 1.05088 2.80672 0
M  V30 1051 H 101.009 0.701667 1.45905 0
M  V30 1052 H 103.001 -1.25669 3.84694 0
M  V30 1053 H 101.571 -1.40105 2.79445 0
M  V30 1054 H 100.791 0.849706 3.84933 0
M  V30 1055 H 102.079 0.635643 5.04814 0
M  V30 1056 H 101.477 -2.54554 5.05192 0
M  V30 1057 H 100.034 -2.58464 5.98364 0
M  V30 1058 N 103.467 -1.45747 0.599634 0
M  V30 1059 C 104.716 -2.01502 0.0893511 0
M  V30 1060 C 105.029 -1.4748 -1.28488 0
M  V30 1061 O 106.235 -1.95161 -1.88745 0
M  V30 1062 C 104.691 -3.59735 0.109082 0
M  V30 1063 C 104.299 -4.22754 1.48267 0
M  V30 1064 C 106.043 -4.23085 -0.346374 0
M  V30 1065 C 103.95 -5.73115 1.45921 0
M  V30 1066 H 102.88 -0.753417 0.0296347 0
M  V30 1067 H 105.531 -1.67303 0.753788 0
M  V30 1068 H 103.913 -3.91087 -0.621854 0
M  V30 1069 H 105.087 -4.02987 2.23468 0
M  V30 1070 H 103.402 -3.71567 1.87955 0
M  V30 1071 H 105.999 -5.33327 -0.38298 0
M  V30 1072 H 106.342 -3.93201 -1.36743 0
M  V30 1073 H 106.875 -3.9642 0.331038 0
M  V30 1074 H 103.614 -6.07685 2.45762 0
M  V30 1075 H 103.134 -5.95097 0.749665 0
M  V30 1076 H 104.813 -6.3616 1.17941 0
M  V30 1077 N 104.945 -0.338344 -1.53925 0
M  V30 1078 C 106.361 0.0137736 -1.59594 0
M  V30 1079 C 106.561 1.49186 -1.35447 0
M  V30 1080 O 105.617 2.24987 -1.14616 0
M  V30 1081 C 106.93 -0.41773 -2.97784 0
M  V30 1082 C 108.478 -0.369633 -3.1081 0
M  V30 1083 C 108.953 -0.776524 -4.51369 0
M  V30 1084 N 110.444 -0.730506 -4.57403 0
M  V30 1085 C 111.179 -1.01736 -5.64303 0
M  V30 1086 N 110.675 -1.3721 -6.79077 0
M  V30 1087 N 112.468 -0.941942 -5.54151 0
M  V30 1088 H 104.619 -1.3012 -1.67876 0
M  V30 1089 H 106.882 -0.530082 -0.78595 0
M  V30 1090 H 106.588 -1.44811 -3.20504 0
M  V30 1091 H 106.462 0.209729 -3.76616 0
M  V30 1092 H 108.849 0.651568 -2.87817 0
M  V30 1093 H 108.93 -1.03223 -2.34049 0
M  V30 1094 H 108.574 -1.79571 -4.75096 0
M  V30 1095 H 108.504 -0.0914649 -5.26521 0
M  V30 1096 H 110.995 -0.468783 -3.74981 0
M  V30 1097 H 111.308 -1.57597 -7.5656 0
M  V30 1098 H 109.653 -1.4105 -6.80536 0
M  V30 1099 H 112.844 -0.664184 -4.63364 0
M  V30 1100 H 113.017 -1.16884 -6.37371 0
M  V30 1101 N 106.423 1.57458 -0.0668435 0
M  V30 1102 C 107.839 1.56947 0.289772 0
M  V30 1103 C 108.039 1.07584 1.70376 0
M  V30 1104 O 107.095 0.739486 2.41429 0
M  V30 1105 C 108.408 3.0052 0.103943 0
M  V30 1106 C 109.956 3.12517 0.173857 0
M  V30 1107 C 110.431 4.57997 0.0163682 0
M  V30 1108 N 111.922 4.63144 0.0721352 0
M  V30 1109 C 112.657 5.73394 -0.0253794 0
M  V30 1110 N 112.153 6.92576 -0.176133 0
M  V30 1111 N 113.946 5.62091 0.0313305 0
M  V30 1112 H 106.097 1.87863 -0.991027 0
M  V30 1113 H 108.36 0.86583 -0.38606 0
M  V30 1114 H 108.066 3.40729 -0.871572 0
M  V30 1115 H 107.94 3.67304 0.858366 0
M  V30 1116 H 110.327 2.72197 1.13985 0
M  V30 1117 H 110.408 2.48381 -0.611586 0
M  V30 1118 H 110.052 4.99005 -0.946374 0
M  V30 1119 H 109.982 5.20158 0.821153 0
M  V30 1120 H 112.473 3.77436 0.187263 0
M  V30 1121 H 112.786 7.72418 -0.242821 0
M  V30 1122 H 111.131 6.94678 -0.211429 0
M  V30 1123 H 114.322 4.67867 0.147773 0
M  V30 1124 H 114.495 6.47982 -0.048121 0
M  V30 1125 N 107.901 -0.206675 1.56239 0
M  V30 1126 C 108.864 -1.23976 1.92776 0
M  V30 1127 C 109.864 -1.39041 0.807729 0
M  V30 1128 O 111.054 -1.37051 1.0753 0
M  V30 1129 C 108.186 -2.61112 2.19165 0
M  V30 1130 H 109.379 -0.927764 2.85189 0
M  V30 1131 H 106.932 -0.447718 1.4975 0
M  V30 1132 H 107.667 -2.97386 1.29352 0
M  V30 1133 H 107.452 -2.51552 3.00772 0
M  V30 1134 H 108.942 -3.35633 2.48476 0
M  V30 1135 N 109.379 -1.50304 -0.473955 0
M  V30 1136 C 110.289 -1.7174 -1.5982 0
M  V30 1137 C 111.305 -0.600457 -1.63311 0
M  V30 1138 O 112.481 -0.878441 -1.81233 0
M  V30 1139 C 109.546 -1.80427 -2.96052 0
M  V30 1140 C 108.607 -3.04148 -3.02972 0
M  V30 1141 C 107.84 -3.12411 -4.32706 0
M  V30 1142 O 108.063 -2.27542 -5.23049 0
M  V30 1143 O 106.997 -4.05113 -4.45159 0
M  V30 1144 H 110.823 -2.67035 -1.44657 0
M  V30 1145 H 108.408 -1.34366 -0.653148 0
M  V30 1146 H 110.29 -1.88338 -3.7697 0
M  V30 1147 H 108.965 -0.883156 -3.11419 0
M  V30 1148 H 107.872 -3.0174 -2.21142 0
M  V30 1149 H 109.205 -3.95829 -2.92541 0
M  V30 1150 N 110.857 0.726932 -1.39834 0
M  V30 1151 C 112.268 1.30558 -1.3346 0
M  V30 1152 C 112.619 1.962 -0.00273003 0
M  V30 1153 O 111.744 1.96826 0.899371 0
M  V30 1154 C 112.339 2.37404 -2.41713 0
M  V30 1155 C 110.898 2.90921 -2.38835 0
M  V30 1156 C 110.045 1.64578 -2.2318 0
M  V30 1157 H 112.996 0.523862 -1.49804 0
M  V30 1158 H 113.017 3.17984 -2.08966 0
M  V30 1159 H 112.529 1.89599 -3.38635 0
M  V30 1160 H 110.63 3.42985 -1.45575 0
M  V30 1161 H 110.743 3.43487 -3.33997 0
M  V30 1162 H 109.107 1.89219 -1.70494 0
M  V30 1163 H 109.89 1.18814 -3.22084 0
M  V30 1164 N 112.336 1.25143 0.95797 0
M  V30 1165 C 113.284 1.05019 2.07542 0
M  V30 1166 C 114.278 -0.0178751 1.69391 0
M  V30 1167 O 115.484 0.137472 1.79474 0
M  V30 1168 H 111.859 0.32265 0.679265 0
M  V30 1169 H 113.83 1.99759 2.21673 0
M  V30 1170 C 112.579 0.682074 3.40944 0
M  V30 1171 H 111.902 1.49573 3.70767 0
M  V30 1172 H 113.342 0.580945 4.20001 0
M  V30 1173 C 111.801 -0.611608 3.31302 0
M  V30 1174 O 112.331 -1.65465 3.66038 0
M  V30 1175 N 110.537 -0.595982 2.84423 0
M  V30 1176 H 110.084 0.253192 2.56353 0
M  V30 1177 H 110.042 -1.46173 2.78354 0
M  V30 1178 N 113.814 -1.1601 1.06675 0
M  V30 1179 C 115.06 -1.86909 0.786945 0
M  V30 1180 C 115.393 -1.81717 -0.685018 0
M  V30 1181 O 114.668 -1.23551 -1.50218 0
M  V30 1182 C 114.951 -3.36313 1.28707 0
M  V30 1183 C 114.804 -3.50175 2.82308 0
M  V30 1184 C 116.123 -4.3084 0.898071 0
M  V30 1185 H 113.242 -0.678677 0.287343 0
M  V30 1186 H 115.884 -1.36336 1.32334 0
M  V30 1187 H 114.034 -3.79513 0.830768 0
M  V30 1188 H 115.706 -3.15886 3.36175 0
M  V30 1189 H 113.949 -2.91959 3.20847 0
M  V30 1190 H 114.62 -4.55116 3.12368 0
M  V30 1191 H 117.096 -3.95561 1.29114 0
M  V30 1192 H 115.972 -5.33876 1.27543 0
M  V30 1193 H 116.233 -4.41662 -0.196651 0
M  V30 1194 N 115.292 -0.849877 -1.32721 0
M  V30 1195 C 116.222 -0.306308 -2.31482 0
M  V30 1196 C 117.203 0.591952 -1.59468 0
M  V30 1197 O 118.388 0.513199 -1.87296 0
M  V30 1198 C 115.518 0.510204 -3.43532 0
M  V30 1199 C 114.472 -0.293209 -4.26994 0
M  V30 1200 C 113.798 0.647743 -5.30762 0
M  V30 1201 C 115.098 -1.51634 -4.99804 0
M  V30 1202 H 116.792 -1.13153 -2.77195 0
M  V30 1203 H 114.338 -0.545553 -1.33266 0
M  V30 1204 H 116.291 0.900856 -4.11658 0
M  V30 1205 H 115.015 1.36874 -2.96535 0
M  V30 1206 H 113.674 -0.665555 -3.60508 0
M  V30 1207 H 113.322 1.50299 -4.8002 0
M  V30 1208 H 113.022 0.11422 -5.87489 0
M  V30 1209 H 114.546 1.03567 -6.01753 0
M  V30 1210 H 115.96 -1.19824 -5.60638 0
M  V30 1211 H 114.357 -1.98745 -5.66234 0
M  V30 1212 H 115.427 -2.28018 -4.27943 0
M  V30 1213 N 116.77 1.45427 -0.607355 0
M  V30 1214 C 117.7 2.3329 0.0989352 0
M  V30 1215 C 118.681 1.46816 0.859007 0
M  V30 1216 O 119.866 1.75588 0.829604 0
M  V30 1217 C 116.996 3.29518 1.09705 0
M  V30 1218 C 115.95 4.25626 0.450206 0
M  V30 1219 C 115.276 5.11542 1.55655 0
M  V30 1220 C 116.576 5.18505 -0.628455 0
M  V30 1221 H 118.27 2.92595 -0.634716 0
M  V30 1222 H 115.816 1.40696 -0.306681 0
M  V30 1223 H 117.769 3.89855 1.59971 0
M  V30 1224 H 116.493 2.68372 1.86129 0
M  V30 1225 H 115.152 3.66586 -0.0315886 0
M  V30 1226 H 114.8 4.46765 2.31107 0
M  V30 1227 H 114.5 5.76647 1.12925 0
M  V30 1228 H 116.024 5.74748 2.06148 0
M  V30 1229 H 117.438 5.72916 -0.209877 0
M  V30 1230 H 115.835 5.92085 -0.977489 0
M  V30 1231 H 116.905 4.60948 -1.50514 0
M  V30 1232 N 118.248 0.346503 1.53744 0
M  V30 1233 C 119.178 -0.501193 2.28058 0
M  V30 1234 C 120.159 -1.10014 1.29734 0
M  V30 1235 O 121.344 -1.12097 1.58581 0
M  V30 1236 C 118.474 -1.65078 3.05559 0
M  V30 1237 C 117.428 -1.18003 4.11411 0
M  V30 1238 C 116.754 -2.41837 4.76884 0
M  V30 1239 C 118.054 -0.278394 5.21558 0
M  V30 1240 H 119.748 0.11875 2.99164 0
M  V30 1241 H 117.294 0.0585531 1.43881 0
M  V30 1242 H 119.247 -2.25028 3.56287 0
M  V30 1243 H 117.971 -2.29767 2.32109 0
M  V30 1244 H 116.63 -0.603331 3.61601 0
M  V30 1245 H 116.278 -3.0494 4.00026 0
M  V30 1246 H 115.978 -2.1102 5.48402 0
M  V30 1247 H 117.502 -3.02508 5.30397 0
M  V30 1248 H 118.916 -0.784823 5.67903 0
M  V30 1249 H 117.313 -0.0619707 6.00068 0
M  V30 1250 H 118.383 0.684677 4.80042 0
M  V30 1251 N 119.726 -1.57421 0.075193 0
M  V30 1252 C 121.003 -1.85029 -0.634329 0
M  V30 1253 C 121.383 -0.968305 -1.87582 0
M  V30 1254 O 120.731 -0.0354749 -2.28472 0
M  V30 1255 C 120.941 -3.35286 -0.968742 0
M  V30 1256 C 122.289 -4.02875 -1.34077 0
M  V30 1257 O 123.313 -3.40051 -1.06037 0
M  V30 1258 O 122.172 -5.13691 -1.86506 0
M  V30 1259 H 119.266 -0.7645 -0.315387 0
M  V30 1260 H 121.812 -1.69366 0.106382 0
M  V30 1261 H 120.584 -3.91203 -0.0871376 0
M  V30 1262 H 120.207 -3.56223 -1.7661 0
M  V30 1263 N 121.204 0.198386 -1.56346 0
M  V30 1264 C 122.167 1.22952 -1.93431 0
M  V30 1265 C 123.167 1.38611 -0.815092 0
M  V30 1266 O 124.357 1.36479 -1.08255 0
M  V30 1267 C 121.489 2.59946 -2.20546 0
M  V30 1268 H 122.682 0.912626 -2.85677 0
M  V30 1269 H 120.235 0.43977 -1.49986 0
M  V30 1270 H 120.97 2.96696 -1.30927 0
M  V30 1271 H 120.755 2.49953 -3.02102 0
M  V30 1272 H 122.245 3.3431 -2.50253 0
M  V30 1273 N 122.682 1.50554 0.465978 0
M  V30 1274 C 123.93 1.61479 1.21528 0
M  V30 1275 C 124.251 0.319596 1.92363 0
M  V30 1276 O 123.521 -0.663194 1.84333 0
M  V30 1277 H 122.101 0.595055 0.451573 0
M  V30 1278 H 124.763 1.87355 0.53704 0
M  V30 1279 H 123.859 2.42846 1.96042 0
M  V30 1280 N 124.16 -0.719506 1.40217 0
M  V30 1281 C 125.437 -1.47221 1.28784 0
M  V30 1282 C 125.817 -2.10883 -0.0956067 0
M  V30 1283 O 125.165 -1.99833 -1.10811 0
M  V30 1284 C 125.375 -2.5111 2.42373 0
M  V30 1285 C 126.723 -3.17053 2.82423 0
M  V30 1286 O 127.747 -2.61429 2.41937 0
M  V30 1287 O 126.606 -4.17742 3.52355 0
M  V30 1288 H 123.7 -0.654491 0.50554 0
M  V30 1289 H 126.246 -0.752014 1.52128 0
M  V30 1290 H 125.018 -2.02556 3.34793 0
M  V30 1291 H 124.641 -3.3067 2.20778 0
M  V30 1292 N 125.638 -1.25649 -0.95132 0
M  V30 1293 C 126.57 -1.02112 -2.05197 0
M  V30 1294 C 127.583 0.0150571 -1.62793 0
M  V30 1295 O 128.772 -0.223874 -1.77091 0
M  V30 1296 C 125.872 -0.522361 -3.3485 0
M  V30 1297 C 125.045 -1.62546 -4.06076 0
M  V30 1298 C 124.104 -1.12649 -5.14001 0
M  V30 1299 O 123.13 -1.82156 -5.39266 0
M  V30 1300 N 124.332 0.03047 -5.80492 0
M  V30 1301 H 127.097 -1.96885 -2.25957 0
M  V30 1302 H 124.658 -1.16899 -1.1201 0
M  V30 1303 H 126.65 -0.172961 -4.0433 0
M  V30 1304 H 125.22 0.33151 -3.10837 0
M  V30 1305 H 124.44 -2.14628 -3.30649 0
M  V30 1306 H 125.728 -2.36644 -4.50419 0
M  V30 1307 H 125.126 0.611169 -5.62389 0
M  V30 1308 H 123.683 0.320875 -6.5101 0
M  V30 1309 N 127.117 1.15442 -1.07289 0
M  V30 1310 C 128.347 1.89821 -0.815576 0
M  V30 1311 C 128.755 1.7823 0.634867 0
M  V30 1312 O 128.098 1.13152 1.44715 0
M  V30 1313 C 128.16 3.40817 -1.14385 0
M  V30 1314 C 127.824 3.76193 -2.59476 0
M  V30 1315 C 128.821 3.77269 -3.57721 0
M  V30 1316 C 126.506 4.0652 -2.95037 0
M  V30 1317 C 128.5 4.08176 -4.89562 0
M  V30 1318 C 126.187 4.37092 -4.27076 0
M  V30 1319 C 127.185 4.37902 -5.24148 0
M  V30 1320 O 126.873 4.67741 -6.53815 0
M  V30 1321 H 126.605 0.608465 -0.294528 0
M  V30 1322 H 129.159 1.472 -1.43252 0
M  V30 1323 H 127.389 3.83835 -0.469865 0
M  V30 1324 H 129.078 3.96485 -0.869179 0
M  V30 1325 H 129.844 3.5394 -3.3159 0
M  V30 1326 H 125.723 4.05049 -2.20128 0
M  V30 1327 H 129.267 4.08723 -5.65324 0
M  V30 1328 H 125.164 4.59889 -4.5296 0
M  V30 1329 H 125.932 4.85509 -6.58957 0
M  V30 1330 N 128.595 0.856903 1.32268 0
M  V30 1331 C 129.527 0.260412 2.27716 0
M  V30 1332 C 130.54 -0.569137 1.52528 0
M  V30 1333 O 131.729 -0.39326 1.74114 0
M  V30 1334 C 128.829 -0.650477 3.32599 0
M  V30 1335 C 128.002 0.14372 4.37164 0
M  V30 1336 C 127.061 -0.69328 5.21613 0
M  V30 1337 O 126.087 -0.12599 5.69061 0
M  V30 1338 N 127.289 -2.00761 5.44679 0
M  V30 1339 H 130.054 1.08059 2.79541 0
M  V30 1340 H 127.615 0.717103 1.45152 0
M  V30 1341 H 129.607 -1.21581 3.86005 0
M  V30 1342 H 128.177 -1.37133 2.80915 0
M  V30 1343 H 127.397 0.890486 3.8401 0
M  V30 1344 H 128.685 0.68915 5.04111 0
M  V30 1345 H 128.083 -2.49181 5.07863 0
M  V30 1346 H 126.64 -2.52103 6.01072 0
M  V30 1347 N 130.073 -1.45103 0.615059 0
M  V30 1348 C 131.321 -2.01784 0.112955 0
M  V30 1349 C 131.642 -1.48504 -1.26378 0
M  V30 1350 O 130.912 -0.682245 -1.83636 0
M  V30 1351 H 129.492 -0.745993 0.0387668 0
M  V30 1352 H 132.154 -1.77808 0.798141 0
M  V30 1353 H 131.25 -3.12025 0.0684069 0
M  V30 1354 N 131.551 -0.354651 -1.53558 0
M  V30 1355 C 132.779 0.239515 -2.05509 0
M  V30 1356 C 133.194 1.4333 -1.2289 0
M  V30 1357 O 132.551 1.80538 -0.266899 0
M  V30 1358 C 132.602 0.643719 -3.55723 0
M  V30 1359 O 132.323 -0.502602 -4.35207 0
M  V30 1360 C 133.824 1.29743 -4.23889 0
M  V30 1361 H 131.044 0.0442697 -0.669538 0
M  V30 1362 H 133.588 -0.509856 -1.98042 0
M  V30 1363 H 131.743 1.34302 -3.63376 0
M  V30 1364 H 132.157 -0.178172 -5.24197 0
M  V30 1365 H 133.631 1.53091 -5.30346 0
M  V30 1366 H 134.108 2.25441 -3.76926 0
M  V30 1367 H 134.714 0.639865 -4.20459 0
M  V30 1368 N 133.029 1.57378 -0.0835403 0
M  V30 1369 C 134.278 1.93106 0.582498 0
M  V30 1370 C 134.591 0.96651 1.70053 0
M  V30 1371 O 135.797 1.21705 2.42693 0
M  V30 1372 C 134.253 3.43076 1.08751 0
M  V30 1373 C 133.861 4.48 -0.000146404 0
M  V30 1374 C 135.605 3.87785 1.72694 0
M  V30 1375 C 133.512 5.89113 0.519568 0
M  V30 1376 H 132.442 0.720775 0.221358 0
M  V30 1377 H 135.093 1.82821 -0.157675 0
M  V30 1378 H 133.475 3.48474 1.88101 0
M  V30 1379 H 134.649 4.54233 -0.775199 0
M  V30 1380 H 132.964 4.1283 -0.54406 0
M  V30 1381 H 135.561 4.90604 2.1263 0
M  V30 1382 H 135.904 3.25796 2.59158 0
M  V30 1383 H 136.437 3.8504 0.999457 0
M  V30 1384 H 133.176 6.54775 -0.308186 0
M  V30 1385 H 132.696 5.86376 1.26188 0
M  V30 1386 H 134.375 6.39346 0.992237 0
M  V30 1387 N 134.507 -0.190092 1.56449 0
M  V30 1388 C 135.753 -0.906472 1.82084 0
M  V30 1389 C 136.108 -1.80677 0.661335 0
M  V30 1390 O 135.401 -1.88501 -0.343237 0
M  V30 1391 C 135.595 -1.75382 3.1141 0
M  V30 1392 C 135.424 -0.937053 4.39829 0
M  V30 1393 C 134.194 -0.619507 5.01488 0
M  V30 1394 C 136.392 -0.2874 5.13496 0
M  V30 1395 N 134.374 0.215367 6.13522 0
M  V30 1396 C 135.745 0.409454 6.18646 0
M  V30 1397 C 137.8 -0.203639 4.97483 0
M  V30 1398 C 136.503 1.1821 7.0952 0
M  V30 1399 C 138.529 0.555622 5.88784 0
M  V30 1400 C 137.891 1.24091 6.93384 0
M  V30 1401 H 133.99 -0.310931 0.717528 0
M  V30 1402 H 136.574 -0.174821 1.93914 0
M  V30 1403 H 134.745 -2.45703 3.00806 0
M  V30 1404 H 136.477 -2.41006 3.25112 0
M  V30 1405 H 133.232 -0.945126 4.64074 0
M  V30 1406 H 133.656 0.622562 6.74131 0
M  V30 1407 H 138.298 -0.719099 4.1664 0
M  V30 1408 H 136.016 1.70897 7.89823 0
M  V30 1409 H 139.602 0.621854 5.78467 0
M  V30 1410 H 138.482 1.81901 7.62812 0
M  V30 1411 N 135.985 -1.50799 -0.457987 0
M  V30 1412 C 137.232 -1.62442 -1.20908 0
M  V30 1413 C 137.56 -0.330865 -1.91665 0
M  V30 1414 O 136.815 0.68401 -1.83357 0
M  V30 1415 C 137.114 -2.76358 -2.2663 0
M  V30 1416 C 136.78 -4.16378 -1.73033 0
M  V30 1417 C 135.442 -4.54473 -1.58138 0
M  V30 1418 C 137.794 -5.03836 -1.33413 0
M  V30 1419 C 135.122 -5.77754 -1.02065 0
M  V30 1420 C 137.474 -6.27676 -0.78778 0
M  V30 1421 C 136.138 -6.64562 -0.625561 0
M  V30 1422 H 135.408 -0.594417 -0.442435 0
M  V30 1423 H 138.055 -1.84772 -0.503136 0
M  V30 1424 H 136.36 -2.48167 -3.03184 0
M  V30 1425 H 138.057 -2.82568 -2.84528 0
M  V30 1426 H 134.647 -3.86331 -1.85598 0
M  V30 1427 H 138.831 -4.75026 -1.4375 0
M  V30 1428 H 134.087 -6.04997 -0.882547 0
M  V30 1429 H 138.261 -6.94797 -0.472177 0
M  V30 1430 H 135.888 -7.59965 -0.188926 0
M  V30 1431 N 137.463 0.71206 -1.40597 0
M  V30 1432 C 138.691 1.50111 -1.42388 0
M  V30 1433 C 139.106 1.88784 -0.0245395 0
M  V30 1434 O 138.463 1.55681 0.952351 0
M  V30 1435 C 138.514 2.7742 -2.31776 0
M  V30 1436 O 138.235 2.40382 -3.66262 0
M  V30 1437 C 139.736 3.7129 -2.42196 0
M  V30 1438 H 136.956 0.46314 -0.485533 0
M  V30 1439 H 139.5 0.878068 -1.8469 0
M  V30 1440 H 137.655 3.36001 -1.92827 0
M  V30 1441 H 138.069 3.22324 -4.13772 0
M  V30 1442 H 139.543 4.57448 -3.08943 0
M  V30 1443 H 140.02 4.14641 -1.44809 0
M  V30 1444 H 140.626 3.18619 -2.81712 0
M  V30 1445 N 138.941 1.26152 0.944643 0
M  V30 1446 C 140.187 1.11657 1.69294 0
M  V30 1447 C 140.52 -0.339926 1.91202 0
M  V30 1448 O 139.795 -1.24994 1.49019 0
M  V30 1449 C 140.078 1.88236 3.06984 0
M  V30 1450 C 139.931 3.41772 2.92424 0
M  V30 1451 C 141.25 1.67343 4.07043 0
M  V30 1452 H 138.369 0.407004 0.614424 0
M  V30 1453 H 141.011 1.55106 1.09737 0
M  V30 1454 H 139.161 1.51308 3.57824 0
M  V30 1455 H 140.833 3.88433 2.48832 0
M  V30 1456 H 139.076 3.68974 2.28124 0
M  V30 1457 H 139.747 3.90579 3.90067 0
M  V30 1458 H 142.223 1.99509 3.65151 0
M  V30 1459 H 141.099 2.23346 5.01406 0
M  V30 1460 H 141.36 0.617158 4.37771 0
M  V30 1461 N 140.419 -1.14872 1.07899 0
M  V30 1462 C 141.649 -1.89386 0.825631 0
M  V30 1463 C 142.057 -1.78565 -0.625406 0
M  V30 1464 O 141.4 -1.13918 -1.44113 0
M  V30 1465 C 141.462 -3.40206 1.16191 0
M  V30 1466 C 141.126 -3.74812 2.61467 0
M  V30 1467 C 142.123 -3.75367 3.59716 0
M  V30 1468 C 139.808 -4.0495 2.97189 0
M  V30 1469 C 141.802 -4.05574 4.9172 0
M  V30 1470 C 139.489 -4.34821 4.29388 0
M  V30 1471 C 140.487 -4.35116 5.26463 0
M  V30 1472 O 140.175 -4.64267 6.56286 0
M  V30 1473 H 139.907 -0.606894 0.297751 0
M  V30 1474 H 142.461 -1.46438 1.44031 0
M  V30 1475 H 140.691 -3.8358 0.490214 0
M  V30 1476 H 142.38 -3.96018 0.890193 0
M  V30 1477 H 143.146 -3.52176 3.33462 0
M  V30 1478 H 139.025 -4.03876 2.22273 0
M  V30 1479 H 142.569 -4.05719 5.67484 0
M  V30 1480 H 138.466 -4.5748 4.55392 0
M  V30 1481 H 139.234 -4.82007 6.61522 0
M  V30 1482 N 141.898 -0.863906 -1.31812 0
M  V30 1483 C 142.845 -0.313303 -2.28664 0
M  V30 1484 C 143.815 0.584868 -1.55462 0
M  V30 1485 O 145 0.517805 -1.83639 0
M  V30 1486 C 142.14 0.48441 -3.41683 0
M  V30 1487 C 141.253 -0.440594 -4.29747 0
M  V30 1488 C 140.388 0.370652 -5.29905 0
M  V30 1489 C 139.427 -0.551164 -6.09613 0
M  V30 1490 N 138.564 0.223462 -7.01744 0
M  V30 1491 H 143.404 -1.14444 -2.75148 0
M  V30 1492 H 140.941 -0.575769 -1.35364 0
M  V30 1493 H 142.899 0.962627 -4.05943 0
M  V30 1494 H 141.529 1.28029 -2.96325 0
M  V30 1495 H 140.581 -1.03724 -3.65986 0
M  V30 1496 H 141.893 -1.14767 -4.85417 0
M  V30 1497 H 141.047 0.911638 -5.99812 0
M  V30 1498 H 139.786 1.11105 -4.74876 0
M  V30 1499 H 138.791 -1.10396 -5.38603 0
M  V30 1500 H 140.016 -1.29032 -6.66729 0
M  V30 1501 H 137.962 0.946787 -6.49132 0
M  V30 1502 H 137.879 -0.424399 -7.54808 0
M  V30 1503 H 139.147 0.745876 -7.75923 0
M  V30 1504 N 143.376 1.44774 -0.622745 0
M  V30 1505 C 144.624 2.01721 -0.123655 0
M  V30 1506 C 144.945 1.49172 1.25589 0
M  V30 1507 O 144.215 0.691974 1.83272 0
M  V30 1508 H 142.795 0.745777 -0.0427225 0
M  V30 1509 H 145.457 1.77382 -0.807559 0
M  V30 1510 H 144.553 3.11984 -0.0849534 0
M  V30 1511 N 144.854 0.36279 1.53368 0
M  V30 1512 C 145.817 -0.472679 2.24273 0
M  V30 1513 C 146.817 -1.012 1.24961 0
M  V30 1514 O 148.007 -0.898194 1.49259 0
M  V30 1515 C 145.139 -1.66039 2.97731 0
M  V30 1516 H 146.332 0.14773 2.99536 0
M  V30 1517 H 143.885 0.114434 1.55881 0
M  V30 1518 H 144.62 -2.31896 2.26704 0
M  V30 1519 H 144.405 -1.28066 3.70596 0
M  V30 1520 H 145.895 -2.25252 3.51641 0
M  V30 1521 N 146.332 -1.57332 0.0918853 0
M  V30 1522 C 147.242 -2.17368 -0.882505 0
M  V30 1523 C 148.258 -1.14226 -1.31257 0
M  V30 1524 O 149.434 -1.46582 -1.38115 0
M  V30 1525 C 146.499 -2.73962 -2.12476 0
M  V30 1526 C 145.56 -3.92048 -1.7492 0
M  V30 1527 C 144.793 -4.45933 -2.93223 0
M  V30 1528 O 145.016 -3.98764 -4.07852 0
M  V30 1529 O 143.95 -5.36999 -2.71875 0
M  V30 1530 H 147.776 -3.01031 -0.40172 0
M  V30 1531 H 145.361 -1.48813 -0.132291 0
M  V30 1532 H 147.243 -3.10147 -2.85283 0
M  V30 1533 H 145.918 -1.93347 -2.59613 0
M  V30 1534 H 144.825 -3.6068 -0.993025 0
M  V30 1535 H 146.158 -4.74017 -1.32548 0
M  V30 1536 N 147.81 0.181792 -1.56548 0
M  V30 1537 C 149.056 0.901431 -1.81665 0
M  V30 1538 C 149.389 1.82347 -0.668075 0
M  V30 1539 O 148.664 1.91669 0.330615 0
M  V30 1540 C 148.947 1.70618 -3.17115 0
M  V30 1541 C 148.8 0.807964 -4.42484 0
M  V30 1542 C 150.119 2.67605 -3.49393 0
M  V30 1543 H 147.238 0.32627 -0.660846 0
M  V30 1544 H 149.88 0.168134 -1.89255 0
M  V30 1545 H 148.03 2.33133 -3.10775 0
M  V30 1546 H 149.702 0.19649 -4.60881 0
M  V30 1547 H 147.945 0.115411 -4.33646 0
M  V30 1548 H 148.616 1.40632 -5.33785 0
M  V30 1549 H 151.092 2.15218 -3.56118 0
M  V30 1550 H 149.968 3.20985 -4.45264 0
M  V30 1551 H 150.229 3.47298 -2.73563 0
M  V30 1552 N 149.288 1.51039 0.449983 0
M  V30 1553 C 150.251 1.70863 1.5277 0
M  V30 1554 C 151.251 0.578846 1.5002 0
M  V30 1555 O 152.441 0.846213 1.52266 0
M  V30 1556 C 149.573 1.75341 2.9235 0
M  V30 1557 H 150.766 2.67034 1.36502 0
M  V30 1558 H 148.319 1.40838 0.677812 0
M  V30 1559 H 149.054 0.809383 3.14037 0
M  V30 1560 H 148.839 2.57436 2.95752 0
M  V30 1561 H 150.329 1.92559 3.70555 0
M  V30 1562 N 150.766 -0.704594 1.40972 0
M  V30 1563 C 151.716 -1.81051 1.38581 0
M  V30 1564 C 152.7 -1.58759 0.261585 0
M  V30 1565 O 153.892 -1.69745 0.501556 0
M  V30 1566 C 151.021 -3.19279 1.26157 0
M  V30 1567 C 150.107 -3.47296 2.43405 0
M  V30 1568 N 150.498 -3.46064 3.68881 0
M  V30 1569 C 148.796 -3.77804 2.37023 0
M  V30 1570 C 149.497 -3.72733 4.46592 0
M  V30 1571 N 148.473 -3.9203 3.76581 0
M  V30 1572 H 152.275 -1.78448 2.33525 0
M  V30 1573 H 149.789 -0.904198 1.349 0
M  V30 1574 H 151.786 -3.98488 1.22526 0
M  V30 1575 H 150.446 -3.231 0.321902 0
M  V30 1576 H 151.457 -3.26656 4.01891 0
M  V30 1577 H 148.134 -3.8905 1.51481 0
M  V30 1578 H 149.524 -3.77993 5.55492 0
M  V30 1579 N 152.244 -1.26651 -0.937939 0
M  V30 1580 C 153.491 -1.12387 -1.6845 0
M  V30 1581 C 153.819 0.332208 -1.91642 0
M  V30 1582 O 153.074 1.2602 -1.49725 0
M  V30 1583 C 153.373 -1.84168 -3.06295 0
M  V30 1584 C 153.039 -3.34056 -3.02849 0
M  V30 1585 C 151.701 -3.74942 -3.01616 0
M  V30 1586 C 154.053 -4.29741 -2.9491 0
M  V30 1587 C 151.381 -5.09894 -2.90215 0
M  V30 1588 C 153.733 -5.64738 -2.8505 0
M  V30 1589 C 152.397 -6.0493 -2.82162 0
M  V30 1590 H 151.667 -0.411252 -0.616403 0
M  V30 1591 H 154.314 -1.57134 -1.09459 0
M  V30 1592 H 152.619 -1.319 -3.6893 0
M  V30 1593 H 154.316 -1.70569 -3.62915 0
M  V30 1594 H 150.906 -3.01534 -3.0459 0
M  V30 1595 H 155.09 -3.99133 -2.94969 0
M  V30 1596 H 150.346 -5.40194 -2.86358 0
M  V30 1597 H 154.52 -6.38561 -2.77872 0
M  V30 1598 H 152.147 -7.09457 -2.73084 0
M  V30 1599 N 153.722 1.14298 -1.08507 0
M  V30 1600 C 154.655 2.18447 -0.660004 0
M  V30 1601 C 155.633 1.59242 0.328749 0
M  V30 1602 O 156.817 1.87062 0.232367 0
M  V30 1603 C 153.944 3.38688 0.0290807 0
M  V30 1604 C 152.99 4.1646 -0.919982 0
M  V30 1605 S 153.823 4.77334 -2.42718 0
M  V30 1606 C 154.979 6.00931 -1.75024 0
M  V30 1607 H 155.212 2.54166 -1.54231 0
M  V30 1608 H 152.745 1.25446 -0.900149 0
M  V30 1609 H 154.703 4.08342 0.420378 0
M  V30 1610 H 153.364 3.01289 0.887895 0
M  V30 1611 H 152.557 5.02529 -0.384751 0
M  V30 1612 H 152.159 3.52414 -1.25223 0
M  V30 1613 H 154.451 6.69017 -1.06877 0
M  V30 1614 H 155.394 6.59044 -2.58971 0
M  V30 1615 H 155.802 5.51089 -1.22317 0
M  V30 1616 N 155.201 0.870884 1.31352 0
M  V30 1617 C 156.149 0.316445 2.30437 0
M  V30 1618 C 157.143 -0.568965 1.59559 0
M  V30 1619 O 158.349 -0.454964 1.74155 0
M  V30 1620 H 154.724 0.0836521 0.747333 0
M  V30 1621 H 156.695 1.16606 2.74673 0
M  V30 1622 C 155.444 -0.46635 3.44558 0
M  V30 1623 H 154.767 0.205687 3.99271 0
M  V30 1624 H 156.207 -0.819614 4.16003 0
M  V30 1625 C 154.666 -1.65797 2.9328 0
M  V30 1626 O 155.196 -2.75728 2.92125 0
M  V30 1627 N 153.402 -1.49041 2.4947 0
M  V30 1628 H 152.949 -0.59612 2.50608 0
M  V30 1629 H 152.907 -2.28911 2.15516 0
M  V30 1630 N 156.679 -1.44442 0.630414 0
M  V30 1631 C 157.642 -2.29107 -0.0652523 0
M  V30 1632 C 158.642 -1.41002 -0.772995 0
M  V30 1633 O 159.832 -1.62881 -0.617692 0
M  V30 1634 C 156.964 -3.22564 -1.10296 0
M  V30 1635 H 158.157 -2.92103 0.679401 0
M  V30 1636 H 155.71 -1.51343 0.390517 0
M  V30 1637 H 156.445 -2.64416 -1.87762 0
M  V30 1638 H 156.23 -3.87491 -0.59941 0
M  V30 1639 H 157.72 -3.86167 -1.5895 0
M  V30 1640 N 158.157 -0.370918 -1.53173 0
M  V30 1641 C 159.087 0.464847 -2.28826 0
M  V30 1642 C 160.068 1.07936 -1.31468 0
M  V30 1643 O 161.253 1.0956 -1.60344 0
M  V30 1644 C 158.383 1.60196 -3.08147 0
M  V30 1645 C 157.337 1.11443 -4.13237 0
M  V30 1646 C 156.663 2.3422 -4.80672 0
M  V30 1647 C 157.963 0.195384 -5.21934 0
M  V30 1648 H 159.657 -0.166329 -2.98938 0
M  V30 1649 H 157.203 -0.0814359 -1.4377 0
M  V30 1650 H 159.156 2.19332 -3.59822 0
M  V30 1651 H 157.88 2.26045 -2.35735 0
M  V30 1652 H 156.539 0.545727 -3.62515 0
M  V30 1653 H 156.187 2.98537 -4.04827 0
M  V30 1654 H 155.887 2.02269 -5.51689 0
M  V30 1655 H 157.411 2.94032 -5.35143 0
M  V30 1656 H 158.825 0.694375 -5.69079 0
M  V30 1657 H 157.222 -0.0335027 -6.00091 0
M  V30 1658 H 158.292 -0.760961 -4.78892 0
M  V30 1659 N 159.635 1.57281 -0.100228 0
M  V30 1660 C 161.051 1.57527 0.256416 0
M  V30 1661 C 161.251 1.11173 1.68056 0
M  V30 1662 O 160.307 0.79053 2.39806 0
M  V30 1663 C 161.62 3.00673 0.0401747 0
M  V30 1664 C 163.168 3.12815 0.107528 0
M  V30 1665 C 163.643 4.57929 -0.0807834 0
M  V30 1666 N 165.134 4.63193 -0.0261207 0
M  V30 1667 C 165.869 5.73212 -0.146999 0
M  V30 1668 N 165.365 6.92047 -0.322999 0
M  V30 1669 N 167.158 5.62031 -0.0879044 0
M  V30 1670 H 159.309 1.85718 -1.03065 0
M  V30 1671 H 161.572 0.857446 -0.404339 0
M  V30 1672 H 161.278 3.38804 -0.943649 0
M  V30 1673 H 161.152 3.69042 0.780262 0
M  V30 1674 H 163.539 2.74554 1.08186 0
M  V30 1675 H 163.62 2.47028 -0.664134 0
M  V30 1676 H 163.264 4.96886 -1.05201 0
M  V30 1677 H 163.194 5.21783 0.710635 0
M  V30 1678 H 165.685 3.77748 0.107161 0
M  V30 1679 H 165.998 7.7173 -0.406608 0
M  V30 1680 H 164.343 6.94074 -0.358733 0
M  V30 1681 H 167.534 4.68075 0.048498 0
M  V30 1682 H 167.707 6.47734 -0.185557 0
M  V30 1683 N 161.113 -0.173488 1.56642 0
M  V30 1684 C 162.343 -0.904781 1.85734 0
M  V30 1685 C 162.751 -1.76431 0.68328 0
M  V30 1686 O 162.094 -1.802 -0.356865 0
M  V30 1687 C 162.156 -1.83382 3.09211 0
M  V30 1688 C 161.82 -1.15411 4.42187 0
M  V30 1689 C 162.817 -0.520609 5.17287 0
M  V30 1690 C 160.502 -1.15151 4.88923 0
M  V30 1691 C 162.496 0.106412 6.37311 0
M  V30 1692 C 160.183 -0.520664 6.08878 0
M  V30 1693 C 161.181 0.107196 6.82916 0
M  V30 1694 O 160.869 0.728102 8.00596 0
M  V30 1695 H 160.601 -0.268408 0.62043 0
M  V30 1696 H 163.155 -0.179096 2.04618 0
M  V30 1697 H 161.385 -2.59976 2.86268 0
M  V30 1698 H 163.074 -2.43476 3.24768 0
M  V30 1699 H 163.84 -0.514606 4.82262 0
M  V30 1700 H 159.719 -1.62961 4.31236 0
M  V30 1701 H 163.263 0.597081 6.9504 0
M  V30 1702 H 159.16 -0.524242 6.43368 0
M  V30 1703 H 159.928 0.627138 8.16094 0
M  V30 1704 N 162.591 -1.51276 -0.441967 0
M  V30 1705 C 163.868 -1.54252 -1.20273 0
M  V30 1706 C 164.248 -0.30408 -2.08898 0
M  V30 1707 O 163.596 0.711084 -2.17154 0
M  V30 1708 C 163.806 -2.85406 -2.00859 0
M  V30 1709 C 165.154 -3.37181 -2.58059 0
M  V30 1710 O 166.178 -2.86925 -2.11074 0
M  V30 1711 O 165.037 -4.24858 -3.43741 0
M  V30 1712 H 162.131 -0.619969 -0.547328 0
M  V30 1713 H 164.677 -1.63586 -0.451413 0
M  V30 1714 H 163.449 -3.67003 -1.35736 0
M  V30 1715 H 163.072 -2.79213 -2.83065 0
M  V30 1716 N 164.069 0.697108 -1.41344 0
M  V30 1717 C 165.032 1.79281 -1.42797 0
M  V30 1718 C 166.032 1.57607 -0.318837 0
M  V30 1719 O 167.222 1.64309 -0.578642 0
M  V30 1720 C 164.354 3.17632 -1.23785 0
M  V30 1721 H 165.547 1.79385 -2.40335 0
M  V30 1722 H 163.1 0.904582 -1.27464 0
M  V30 1723 H 163.835 3.23167 -0.270814 0
M  V30 1724 H 163.62 3.34765 -2.04144 0
M  V30 1725 H 165.11 3.97617 -1.27633 0
M  V30 1726 N 165.547 1.27147 0.931209 0
M  V30 1727 C 166.48 1.0389 2.0318 0
M  V30 1728 C 167.458 -0.0395716 1.62552 0
M  V30 1729 O 168.642 0.104867 1.88208 0
M  V30 1730 C 165.769 0.575227 3.3378 0
M  V30 1731 C 164.815 1.64774 3.93385 0
M  V30 1732 S 165.648 3.23933 4.26413 0
M  V30 1733 C 166.804 2.79358 5.60098 0
M  V30 1734 H 167.037 1.97075 2.22596 0
M  V30 1735 H 164.57 1.10938 1.07387 0
M  V30 1736 H 166.528 0.314385 4.09294 0
M  V30 1737 H 165.189 -0.336505 3.12292 0
M  V30 1738 H 164.382 1.27454 4.87618 0
M  V30 1739 H 163.984 1.86048 3.24441 0
M  V30 1740 H 166.276 2.24443 6.39243 0
M  V30 1741 H 167.219 3.72322 6.02314 0
M  V30 1742 H 167.627 2.1861 5.20452 0
M  V30 1743 N 167.025 -1.13721 1.09112 0
M  V30 1744 C 167.988 -2.17222 0.731241 0
M  V30 1745 C 168.988 -1.59035 -0.237566 0
M  V30 1746 O 170.178 -1.74192 -0.0161704 0
M  V30 1747 C 167.31 -3.40804 0.0808443 0
M  V30 1748 H 168.503 -2.50573 1.64783 0
M  V30 1749 H 166.056 -1.28493 0.889897 0
M  V30 1750 H 166.791 -3.1304 -0.847127 0
M  V30 1751 H 166.576 -3.84306 0.777896 0
M  V30 1752 H 168.066 -4.1731 -0.155657 0
M  V30 1753 N 168.503 -0.877838 -1.30888 0
M  V30 1754 C 169.433 -0.35534 -2.3078 0
M  V30 1755 C 170.414 0.557994 -1.60687 0
M  V30 1756 O 171.599 0.473355 -1.88343 0
M  V30 1757 C 168.729 0.437221 -3.44537 0
M  V30 1758 C 167.683 -0.383715 -4.26276 0
M  V30 1759 C 167.009 0.535014 -5.32017 0
M  V30 1760 C 168.309 -1.62201 -4.96476 0
M  V30 1761 H 170.003 -1.19007 -2.74732 0
M  V30 1762 H 167.549 -0.573698 -1.32078 0
M  V30 1763 H 169.502 0.813334 -4.13477 0
M  V30 1764 H 168.226 1.30553 -2.99372 0
M  V30 1765 H 166.885 -0.741874 -3.59015 0
M  V30 1766 H 166.533 1.40083 -4.831 0
M  V30 1767 H 166.233 -0.0104211 -5.87599 0
M  V30 1768 H 167.757 0.907799 -6.03814 0
M  V30 1769 H 169.171 -1.31689 -5.5797 0
M  V30 1770 H 167.568 -2.10711 -5.61891 0
M  V30 1771 H 168.638 -2.37044 -4.23011 0
M  V30 1772 N 169.982 1.44106 -0.638065 0
M  V30 1773 C 171.23 2.01579 -0.145043 0
M  V30 1774 C 171.551 1.50496 1.24 0
M  V30 1775 O 170.821 0.711374 1.82527 0
M  V30 1776 H 169.401 0.745282 -0.05063 0
M  V30 1777 H 172.063 1.76516 -0.826327 0
M  V30 1778 H 171.159 3.11877 -0.118039 0
M  V30 1779 N 171.46 0.379036 1.52974 0
M  V30 1780 C 172.408 -0.476033 2.27677 0
M  V30 1781 C 173.402 -1.0719 1.31174 0
M  V30 1782 O 174.608 -1.01355 1.48752 0
M  V30 1783 H 170.983 -0.172255 0.732006 0
M  V30 1784 H 172.954 0.175615 2.97883 0
M  V30 1785 C 171.703 -1.5967 3.0887 0
M  V30 1786 H 171.026 -1.1475 3.82978 0
M  V30 1787 H 172.466 -2.16943 3.64296 0
M  V30 1788 C 170.925 -2.54682 2.20542 0
M  V30 1789 O 171.455 -3.57836 1.82527 0
M  V30 1790 N 169.661 -2.24183 1.84907 0
M  V30 1791 H 169.208 -1.40333 2.1602 0
M  V30 1792 H 169.166 -2.88006 1.26096 0
M  V30 1793 N 172.938 -1.57226 0.108567 0
M  V30 1794 C 173.888 -2.11305 -0.856396 0
M  V30 1795 C 174.872 -1.03129 -1.23504 0
M  V30 1796 O 176.064 -1.29381 -1.20787 0
M  V30 1797 C 173.193 -2.70771 -2.11041 0
M  V30 1798 C 172.279 -3.86011 -1.7566 0
M  V30 1799 N 172.67 -4.93492 -1.10902 0
M  V30 1800 C 170.968 -3.95999 -2.05185 0
M  V30 1801 C 171.669 -5.73984 -0.944308 0
M  V30 1802 N 170.645 -5.2346 -1.46596 0
M  V30 1803 H 174.447 -2.91784 -0.352002 0
M  V30 1804 H 171.961 -1.62126 -0.0942324 0
M  V30 1805 H 173.958 -3.07851 -2.81128 0
M  V30 1806 H 172.618 -1.91751 -2.62034 0
M  V30 1807 H 173.629 -5.1208 -0.774235 0
M  V30 1808 H 170.306 -3.28007 -2.58298 0
M  V30 1809 H 171.696 -6.70479 -0.436813 0
M  V30 1810 N 174.416 0.165178 -1.56732 0
M  V30 1811 C 175.326 1.22423 -2.00125 0
M  V30 1812 C 176.342 1.48084 -0.913619 0
M  V30 1813 O 177.518 1.60112 -1.22172 0
M  V30 1814 C 174.583 2.54197 -2.35764 0
M  V30 1815 C 173.644 2.36343 -3.58386 0
M  V30 1816 C 172.877 3.61834 -3.92316 0
M  V30 1817 O 173.1 4.67267 -3.27135 0
M  V30 1818 O 172.034 3.55579 -4.85641 0
M  V30 1819 H 175.86 0.885886 -2.90492 0
M  V30 1820 H 173.445 0.372518 -1.44681 0
M  V30 1821 H 175.327 3.3192 -2.59629 0
M  V30 1822 H 174.002 2.87598 -1.48557 0
M  V30 1823 H 172.909 1.56632 -3.39731 0
M  V30 1824 H 174.242 2.07865 -4.46154 0
M  V30 1825 N 175.894 1.51508 0.433938 0
M  V30 1826 C 177.141 1.64345 1.18309 0
M  V30 1827 C 177.469 0.361315 1.91115 0
M  V30 1828 O 176.724 -0.654753 1.84422 0
M  V30 1829 C 177.023 2.79928 2.22205 0
M  V30 1830 C 176.689 4.19078 1.66387 0
M  V30 1831 C 175.351 4.56932 1.50887 0
M  V30 1832 C 177.703 5.05894 1.25381 0
M  V30 1833 C 175.031 5.79305 0.928608 0
M  V30 1834 C 177.383 6.2885 0.687823 0
M  V30 1835 C 176.047 6.65473 0.519755 0
M  V30 1836 H 175.317 0.601381 0.432923 0
M  V30 1837 H 177.964 1.85549 0.473676 0
M  V30 1838 H 176.269 2.52959 2.99197 0
M  V30 1839 H 177.966 2.87059 2.79997 0
M  V30 1840 H 174.556 3.89234 1.79428 0
M  V30 1841 H 178.74 4.77253 1.36175 0
M  V30 1842 H 173.996 6.06324 0.786186 0
M  V30 1843 H 178.17 6.95461 0.361581 0
M  V30 1844 H 175.797 7.6017 0.0679979 0
M  V30 1845 N 177.372 -0.689602 1.41712 0
M  V30 1846 C 178.649 -1.44457 1.31877 0
M  V30 1847 C 179.029 -2.11039 -0.0508537 0
M  V30 1848 O 178.377 -2.02138 -1.06547 0
M  V30 1849 C 178.587 -2.45913 2.47645 0
M  V30 1850 C 179.935 -3.10991 2.89084 0
M  V30 1851 O 180.959 -2.56238 2.47428 0
M  V30 1852 O 179.818 -4.10174 3.61137 0
M  V30 1853 H 176.912 -0.64362 0.519309 0
M  V30 1854 H 179.458 -0.719576 1.53689 0
M  V30 1855 H 178.23 -1.95409 3.39015 0
M  V30 1856 H 177.853 -3.25913 2.27742 0
M  V30 1857 N 178.85 -1.27639 -0.924453 0
M  V30 1858 C 179.798 -1.10485 -2.04685 0
M  V30 1859 C 180.792 -0.0270421 -1.69378 0
M  V30 1860 O 181.998 -0.185008 -1.79047 0
M  V30 1861 H 178.373 -0.340546 -0.670472 0
M  V30 1862 H 180.344 -2.05566 -2.16298 0
M  V30 1863 C 179.093 -0.772229 -3.39016 0
M  V30 1864 H 178.416 -1.59351 -3.66671 0
M  V30 1865 H 179.856 -0.692097 -4.18313 0
M  V30 1866 C 178.315 0.523554 -3.32807 0
M  V30 1867 O 178.845 1.55702 -3.70297 0
M  V30 1868 N 177.051 0.520363 -2.85903 0
M  V30 1869 H 176.598 -0.32107 -2.55591 0
M  V30 1870 H 176.556 1.38742 -2.82131 0
M  V30 1871 N 180.328 1.1314 -1.09713 0
M  V30 1872 C 181.576 1.84119 -0.833338 0
M  V30 1873 C 181.897 1.84097 0.642904 0
M  V30 1874 O 181.167 1.29881 1.46655 0
M  V30 1875 H 179.747 0.681766 -0.305293 0
M  V30 1876 H 182.409 1.37038 -1.38588 0
M  V30 1877 H 181.505 2.88543 -1.18951 0
M  V30 1878 N 181.806 0.884767 1.30421 0
M  V30 1879 C 183.052 0.503851 1.96441 0
M  V30 1880 C 183.385 -0.944518 1.69684 0
M  V30 1881 O 182.66 -1.66737 1.00145 0
M  V30 1882 C 182.943 0.779085 3.51571 0
M  V30 1883 C 182.796 2.27807 3.87846 0
M  V30 1884 C 184.115 0.255452 4.39358 0
M  V30 1885 H 181.234 0.184533 0.713524 0
M  V30 1886 H 183.876 1.10872 1.54297 0
M  V30 1887 H 182.026 0.264274 3.876 0
M  V30 1888 H 183.698 2.86127 3.61841 0
M  V30 1889 H 181.941 2.74479 3.35922 0
M  V30 1890 H 182.612 2.42125 4.96064 0
M  V30 1891 H 185.088 0.696079 4.10236 0
M  V30 1892 H 183.964 0.477361 5.4682 0
M  V30 1893 H 184.225 -0.843293 4.33983 0
M  V30 1894 N 183.284 -1.43765 0.645699 0
M  V30 1895 C 184.194 -2.34544 -0.0512957 0
M  V30 1896 C 185.21 -1.53455 -0.82022 0
M  V30 1897 O 186.386 -1.86133 -0.769176 0
M  V30 1898 C 183.451 -3.31636 -1.01087 0
M  V30 1899 C 182.512 -4.2863 -0.239712 0
M  V30 1900 C 181.745 -5.21084 -1.15358 0
M  V30 1901 O 181.968 -5.1779 -2.39269 0
M  V30 1902 O 180.902 -5.98593 -0.630038 0
M  V30 1903 H 184.728 -2.95624 0.695718 0
M  V30 1904 H 182.313 -1.43781 0.405882 0
M  V30 1905 H 184.195 -3.9136 -1.56254 0
M  V30 1906 H 182.87 -2.73069 -1.73824 0
M  V30 1907 H 181.777 -3.72408 0.355356 0
M  V30 1908 H 183.11 -4.90157 0.447936 0
M  V30 1909 N 184.763 -0.387143 -1.52771 0
M  V30 1910 C 186.011 0.195349 -2.01154 0
M  V30 1911 C 186.332 1.475 -1.27549 0
M  V30 1912 O 185.602 1.91878 -0.394924 0
M  V30 1913 H 184.182 0.075178 -0.743207 0
M  V30 1914 H 186.844 -0.518337 -1.87881 0
M  V30 1915 H 185.94 0.407096 -3.09434 0
M  V30 1916 N 186.241 1.57166 -0.116904 0
M  V30 1917 C 187.171 2.18222 0.830759 0
M  V30 1918 C 188.152 1.12167 1.27877 0
M  V30 1919 O 189.337 1.40394 1.34176 0
M  V30 1920 C 186.467 2.77996 2.08172 0
M  V30 1921 C 185.421 3.89614 1.77157 0
M  V30 1922 C 184.747 4.36187 3.09265 0
M  V30 1923 C 186.047 5.1181 1.04151 0
M  V30 1924 H 187.741 2.97664 0.321992 0
M  V30 1925 H 185.287 1.4318 0.153434 0
M  V30 1926 H 187.24 3.19366 2.74924 0
M  V30 1927 H 185.964 1.9584 2.6137 0
M  V30 1928 H 184.623 3.48816 1.12796 0
M  V30 1929 H 184.271 3.50893 3.60393 0
M  V30 1930 H 183.971 5.11455 2.89288 0
M  V30 1931 H 185.495 4.80207 3.77139 0
M  V30 1932 H 186.909 5.50214 1.61052 0
M  V30 1933 H 185.306 5.92648 0.942762 0
M  V30 1934 H 186.376 4.84892 0.0279022 0
M  V30 1935 N 187.719 -0.156864 1.56817 0
M  V30 1936 C 188.968 -0.869504 1.81996 0
M  V30 1937 C 189.281 -1.82777 0.696545 0
M  V30 1938 O 190.487 -2.58384 0.833658 0
M  V30 1939 C 188.943 -1.59679 3.22538 0
M  V30 1940 C 188.551 -0.681431 4.42787 0
M  V30 1941 C 190.295 -2.2968 3.56997 0
M  V30 1942 C 188.202 -1.40978 5.74351 0
M  V30 1943 H 187.132 -0.328438 0.678708 0
M  V30 1944 H 189.783 -0.1223 1.83092 0
M  V30 1945 H 188.165 -2.38927 3.158 0
M  V30 1946 H 189.339 0.0751166 4.60739 0
M  V30 1947 H 187.654 -0.0903431 4.16302 0
M  V30 1948 H 190.251 -2.84794 4.52544 0
M  V30 1949 H 190.594 -3.05707 2.82576 0
M  V30 1950 H 191.127 -1.57361 3.65352 0
M  V30 1951 H 187.866 -0.691561 6.51842 0
M  V30 1952 H 187.386 -2.13929 5.60352 0
M  V30 1953 H 189.065 -1.95337 6.16808 0
M  V30 1954 N 189.197 -1.51736 -0.425897 0
M  V30 1955 C 190.107 -1.76738 -1.54275 0
M  V30 1956 C 191.123 -0.65211 -1.61318 0
M  V30 1957 O 192.299 -0.935654 -1.78346 0
M  V30 1958 C 189.364 -1.89755 -2.90162 0
M  V30 1959 C 188.425 -3.13633 -2.93143 0
M  V30 1960 C 187.658 -3.2602 -4.22548 0
M  V30 1961 O 187.881 -2.44067 -5.15546 0
M  V30 1962 O 186.815 -4.19071 -4.32046 0
M  V30 1963 H 190.641 -2.71502 -1.36089 0
M  V30 1964 H 188.226 -1.36376 -0.610069 0
M  V30 1965 H 190.108 -2.00236 -3.70788 0
M  V30 1966 H 188.783 -0.981785 -3.08452 0
M  V30 1967 H 187.69 -3.08622 -2.11431 0
M  V30 1968 H 189.023 -4.04936 -2.798 0
M  V30 1969 N 190.675 0.682077 -1.42076 0
M  V30 1970 C 192.086 1.26246 -1.37546 0
M  V30 1971 C 192.437 1.96092 -0.0651481 0
M  V30 1972 O 191.562 1.99587 0.836297 0
M  V30 1973 C 192.157 2.29594 -2.49143 0
M  V30 1974 C 190.716 2.83175 -2.47969 0
M  V30 1975 C 189.863 1.57395 -2.28303 0
M  V30 1976 H 192.814 0.475937 -1.51395 0
M  V30 1977 H 192.835 3.11175 -2.18976 0
M  V30 1978 H 192.347 1.78729 -3.44496 0
M  V30 1979 H 190.448 3.3818 -1.56413 0
M  V30 1980 H 190.561 3.32687 -3.44755 0
M  V30 1981 H 188.925 1.83699 -1.76428 0
M  V30 1982 H 189.708 1.08507 -3.25701 0
M  V30 1983 N 192.153 1.28127 0.917671 0
M  V30 1984 C 193.083 1.14248 2.03641 0
M  V30 1985 C 194.064 0.0412748 1.7005 0
M  V30 1986 O 195.249 0.217566 1.92977 0
M  V30 1987 C 192.379 0.799431 3.37974 0
M  V30 1988 C 191.333 1.85497 3.85713 0
M  V30 1989 C 190.659 1.36565 5.16966 0
M  V30 1990 C 191.959 3.26085 4.08002 0
M  V30 1991 H 193.653 2.07835 2.15511 0
M  V30 1992 H 191.199 1.00064 1.03553 0
M  V30 1993 H 193.152 0.689114 4.15727 0
M  V30 1994 H 191.876 -0.172145 3.26146 0
M  V30 1995 H 190.535 1.95437 3.10161 0
M  V30 1996 H 190.183 0.383253 5.01538 0
M  V30 1997 H 189.883 2.07143 5.49878 0
M  V30 1998 H 191.407 1.26848 5.97279 0
M  V30 1999 H 192.821 3.19089 4.76293 0
M  V30 2000 H 191.218 3.94462 4.52238 0
M  V30 2001 H 192.288 3.70394 3.12948 0
M  V30 2002 N 193.631 -1.12557 1.10312 0
M  V30 2003 C 194.561 -2.20341 0.772798 0
M  V30 2004 C 195.542 -1.68198 -0.25365 0
M  V30 2005 O 196.727 -1.93831 -0.119699 0
M  V30 2006 C 193.857 -3.46709 0.202443 0
M  V30 2007 C 192.811 -4.11996 1.15943 0
M  V30 2008 C 192.137 -5.328 0.450345 0
M  V30 2009 C 193.437 -4.5828 2.50552 0
M  V30 2010 H 195.131 -2.48229 1.674 0
M  V30 2011 H 192.677 -1.19308 0.806326 0
M  V30 2012 H 194.63 -4.2138 -0.0407752 0
M  V30 2013 H 193.354 -3.18245 -0.734001 0
M  V30 2014 H 192.013 -3.39305 1.38808 0
M  V30 2015 H 191.661 -5.00602 -0.490531 0
M  V30 2016 H 191.361 -5.7743 1.08851 0
M  V30 2017 H 192.885 -6.10219 0.215642 0
M  V30 2018 H 194.299 -5.2433 2.31843 0
M  V30 2019 H 192.696 -5.13683 3.10242 0
M  V30 2020 H 193.766 -3.72329 3.10643 0
M  V30 2021 N 195.109 -0.891671 -1.2995 0
M  V30 2022 C 196.056 -0.361736 -2.27948 0
M  V30 2023 C 197.026 0.551761 -1.56668 0
M  V30 2024 O 198.211 0.478736 -1.84696 0
M  V30 2025 C 195.351 0.411825 -3.42634 0
M  V30 2026 C 194.464 -0.531651 -4.28716 0
M  V30 2027 C 193.599 0.258167 -5.30572 0
M  V30 2028 C 192.638 -0.680349 -6.08307 0
M  V30 2029 N 191.775 0.0745613 -7.0206 0
M  V30 2030 H 196.615 -1.20254 -2.72659 0
M  V30 2031 H 194.152 -0.604352 -1.34112 0
M  V30 2032 H 196.11 0.876304 -4.07893 0
M  V30 2033 H 194.74 1.21715 -2.98974 0
M  V30 2034 H 193.792 -1.11463 -3.63703 0
M  V30 2035 H 195.104 -1.25038 -4.82874 0
M  V30 2036 H 194.258 0.784204 -6.0161 0
M  V30 2037 H 192.997 1.01008 -4.77126 0
M  V30 2038 H 192.002 -1.21796 -5.3614 0
M  V30 2039 H 193.227 -1.43145 -6.63842 0
M  V30 2040 H 191.173 0.808883 -6.50994 0
M  V30 2041 H 191.09 -0.584409 -7.53738 0
M  V30 2042 H 192.358 0.581123 -7.77331 0
M  V30 2043 N 196.587 1.43421 -0.653314 0
M  V30 2044 C 197.497 2.34568 0.0388565 0
M  V30 2045 C 198.513 1.53888 0.81207 0
M  V30 2046 O 199.689 1.86539 0.759294 0
M  V30 2047 C 196.754 3.32167 0.993269 0
M  V30 2048 C 195.815 4.28751 0.216977 0
M  V30 2049 C 195.048 5.21688 1.12593 0
M  V30 2050 O 195.271 5.19052 2.36519 0
M  V30 2051 O 194.205 5.98919 0.598284 0
M  V30 2052 H 198.031 2.95251 -0.711386 0
M  V30 2053 H 195.616 1.43564 -0.413502 0
M  V30 2054 H 197.498 3.92183 1.54176 0
M  V30 2055 H 196.173 2.73987 1.72374 0
M  V30 2056 H 195.08 3.72215 -0.375101 0
M  V30 2057 H 196.413 4.89913 -0.473924 0
M  V30 2058 N 198.065 0.39524 1.52563 0
M  V30 2059 C 199.028 -0.425001 2.25225 0
M  V30 2060 C 200.028 -0.985266 1.27079 0
M  V30 2061 O 201.218 -0.866332 1.5113 0
M  V30 2062 C 198.35 -1.59686 3.01186 0
M  V30 2063 H 199.543 0.211233 2.99155 0
M  V30 2064 H 197.096 0.147472 1.55603 0
M  V30 2065 H 197.831 -2.27035 2.31572 0
M  V30 2066 H 197.616 -1.20176 3.73229 0
M  V30 2067 H 199.106 -2.17743 3.5634 0
M  V30 2068 N 199.544 -1.57102 0.125237 0
M  V30 2069 C 200.491 -2.15641 -0.822655 0
M  V30 2070 C 201.461 -1.08313 -1.25927 0
M  V30 2071 O 202.646 -1.36251 -1.33567 0
M  V30 2072 C 199.786 -2.76504 -2.06494 0
M  V30 2073 C 198.899 -3.98158 -1.67612 0
M  V30 2074 C 198.034 -4.47088 -2.86854 0
M  V30 2075 C 197.073 -5.6126 -2.44242 0
M  V30 2076 N 196.21 -6.04905 -3.56419 0
M  V30 2077 H 201.05 -2.96313 -0.316625 0
M  V30 2078 H 198.587 -1.46388 -0.144588 0
M  V30 2079 H 200.545 -3.09925 -2.79289 0
M  V30 2080 H 199.175 -1.98512 -2.54545 0
M  V30 2081 H 198.227 -3.70858 -0.846661 0
M  V30 2082 H 199.539 -4.80934 -1.32301 0
M  V30 2083 H 198.693 -4.82451 -3.67867 0
M  V30 2084 H 197.432 -3.63275 -3.25396 0
M  V30 2085 H 196.437 -5.25495 -1.61663 0
M  V30 2086 H 197.662 -6.46843 -2.0681 0
M  V30 2087 H 195.608 -5.24032 -3.94623 0
M  V30 2088 H 195.525 -6.82552 -3.25051 0
M  V30 2089 H 196.793 -6.44907 -4.37853 0
M  V30 2090 N 201.022 0.148545 -1.56898 0
M  V30 2091 C 202.269 0.861418 -1.83264 0
M  V30 2092 C 202.597 1.81239 -0.705883 0
M  V30 2093 O 201.852 1.93305 0.305212 0
M  V30 2094 C 202.151 1.67064 -3.1595 0
M  V30 2095 C 201.817 0.866591 -4.42494 0
M  V30 2096 C 200.479 0.644762 -4.76861 0
M  V30 2097 C 202.831 0.30418 -5.20312 0
M  V30 2098 C 200.159 -0.15021 -5.86508 0
M  V30 2099 C 202.511 -0.477824 -6.30793 0
M  V30 2100 C 201.175 -0.710244 -6.63711 0
M  V30 2101 H 200.445 0.315215 -0.670612 0
M  V30 2102 H 203.092 0.125142 -1.91091 0
M  V30 2103 H 201.397 2.47698 -3.03567 0
M  V30 2104 H 203.094 2.22566 -3.33565 0
M  V30 2105 H 199.684 1.04955 -4.15551 0
M  V30 2106 H 203.868 0.462844 -4.94137 0
M  V30 2107 H 199.124 -0.339796 -6.10455 0
M  V30 2108 H 203.298 -0.92076 -6.90286 0
M  V30 2109 H 200.925 -1.3281 -7.48509 0
M  V30 2110 N 202.5 1.5196 0.417844 0
M  V30 2111 C 203.911 1.57851 0.997 0
M  V30 2112 C 204.262 0.413714 1.91789 0
M  V30 2113 O 203.387 -0.467057 2.113 0
M  V30 2114 C 203.982 2.86085 1.81496 0
M  V30 2115 C 202.541 2.94483 2.34428 0
M  V30 2116 C 201.688 2.52707 1.14169 0
M  V30 2117 H 204.639 1.57455 0.198392 0
M  V30 2118 H 204.66 2.70947 2.67148 0
M  V30 2119 H 204.172 3.70842 1.14446 0
M  V30 2120 H 202.273 2.142 3.04875 0
M  V30 2121 H 202.386 3.98546 2.65891 0
M  V30 2122 H 200.75 2.06353 1.49301 0
M  V30 2123 H 201.533 3.39828 0.486999 0
M  V30 2124 N 203.978 -0.674533 1.42435 0
M  V30 2125 C 205.227 -1.43034 1.42212 0
M  V30 2126 C 205.54 -1.95555 0.0420788 0
M  V30 2127 O 206.746 -2.71374 -0.0827558 0
M  V30 2128 C 205.202 -2.58748 2.50155 0
M  V30 2129 C 204.81 -2.12925 3.94166 0
M  V30 2130 C 206.554 -3.36257 2.59098 0
M  V30 2131 C 204.461 -3.25723 4.93618 0
M  V30 2132 H 203.391 -0.537345 0.528939 0
M  V30 2133 H 206.042 -0.73024 1.68344 0
M  V30 2134 H 204.424 -3.31128 2.17188 0
M  V30 2135 H 205.598 -1.47697 4.36488 0
M  V30 2136 H 203.913 -1.48354 3.89076 0
M  V30 2137 H 206.51 -4.20264 3.30578 0
M  V30 2138 H 206.853 -3.82866 1.63461 0
M  V30 2139 H 207.386 -2.70947 2.9126 0
M  V30 2140 H 204.125 -2.84105 5.90732 0
M  V30 2141 H 203.645 -3.89732 4.55926 0
M  V30 2142 H 205.324 -3.91186 5.15347 0
M  V30 2143 N 205.456 -1.28612 -0.910864 0
M  V30 2144 C 206.386 -1.15326 -2.03032 0
M  V30 2145 C 207.367 -0.0502924 -1.70026 0
M  V30 2146 O 208.552 -0.227797 -1.92859 0
M  V30 2147 C 205.682 -0.817343 -3.37545 0
M  V30 2148 C 204.636 -1.8754 -3.84724 0
M  V30 2149 C 203.962 -1.39305 -5.16235 0
M  V30 2150 C 205.262 -3.28244 -4.06267 0
M  V30 2151 H 206.956 -2.08975 -2.14406 0
M  V30 2152 H 204.502 -1.00612 -1.03021 0
M  V30 2153 H 206.455 -0.711151 -4.15356 0
M  V30 2154 H 205.179 0.154846 -3.26233 0
M  V30 2155 H 203.838 -1.97079 -3.09121 0
M  V30 2156 H 203.486 -0.409846 -5.01328 0
M  V30 2157 H 203.186 -2.10057 -5.48771 0
M  V30 2158 H 204.71 -1.30014 -5.96598 0
M  V30 2159 H 206.124 -3.21611 -4.74594 0
M  V30 2160 H 204.521 -3.96855 -4.5014 0
M  V30 2161 H 205.591 -3.72048 -3.10979 0
M  V30 2162 N 206.934 1.1197 -1.10907 0
M  V30 2163 C 208.159 1.87942 -0.877064 0
M  V30 2164 C 208.584 1.79341 0.567314 0
M  V30 2165 O 207.942 1.15184 1.40009 0
M  V30 2166 C 207.99 3.34926 -1.33629 0
M  V30 2167 O 207.094 4.09303 -0.504447 0
M  V30 2168 H 206.435 0.583785 -0.316371 0
M  V30 2169 H 208.965 1.4157 -1.47712 0
M  V30 2170 H 208.975 3.8577 -1.32837 0
M  V30 2171 H 207.65 3.40504 -2.3881 0
M  V30 2172 H 206.227 3.68393 -0.577993 0
M  V30 2173 N 208.412 0.89855 1.29475 0
M  V30 2174 C 209.375 0.380272 2.26023 0
M  V30 2175 C 210.375 -0.484891 1.53315 0
M  V30 2176 O 211.565 -0.290108 1.71767 0
M  V30 2177 C 208.697 -0.45651 3.3783 0
M  V30 2178 H 209.89 1.23295 2.73383 0
M  V30 2179 H 207.443 0.676589 1.40897 0
M  V30 2180 H 208.178 -1.32922 2.95808 0
M  V30 2181 H 207.963 0.163393 3.91759 0
M  V30 2182 H 209.453 -0.810466 4.0966 0
M  V30 2183 N 209.89 -1.43072 0.660911 0
M  V30 2184 C 210.838 -2.32569 -0.0378199 0
M  V30 2185 C 211.832 -1.49046 -0.805092 0
M  V30 2186 O 213.038 -1.65206 -0.714624 0
M  V30 2187 H 209.413 -0.75136 -0.031019 0
M  V30 2188 H 211.384 -2.89216 0.734609 0
M  V30 2189 C 210.133 -3.33453 -0.985124 0
M  V30 2190 H 209.456 -3.97752 -0.404147 0
M  V30 2191 H 210.896 -3.98691 -1.44297 0
M  V30 2192 C 209.355 -2.64642 -2.08486 0
M  V30 2193 O 209.885 -2.46776 -3.16961 0
M  V30 2194 N 208.091 -2.23891 -1.8526 0
M  V30 2195 H 207.638 -2.38621 -0.970449 0
M  V30 2196 H 207.596 -1.78181 -2.59034 0
M  V30 2197 N 211.368 -0.403325 -1.52352 0
M  V30 2198 C 212.617 0.175668 -2.00934 0
M  V30 2199 C 212.93 1.46718 -1.29356 0
M  V30 2200 O 214.136 2.12708 -1.68724 0
M  V30 2201 C 212.592 0.363612 -3.58058 0
M  V30 2202 C 212.2 -0.915472 -4.38547 0
M  V30 2203 C 213.944 0.89821 -4.14888 0
M  V30 2204 C 211.851 -0.695035 -5.87302 0
M  V30 2205 H 210.781 0.0694234 -0.750797 0
M  V30 2206 H 213.432 -0.527879 -1.75743 0
M  V30 2207 H 211.814 1.12935 -3.79555 0
M  V30 2208 H 212.988 -1.68691 -4.28812 0
M  V30 2209 H 211.303 -1.37606 -3.93006 0
M  V30 2210 H 213.9 1.07907 -5.23699 0
M  V30 2211 H 214.243 1.87126 -3.71873 0
M  V30 2212 H 214.776 0.191681 -3.97338 0
M  V30 2213 H 211.515 -1.63948 -6.34666 0
M  V30 2214 H 211.035 0.0372116 -5.99788 0
M  V30 2215 H 212.714 -0.33497 -6.46132 0
M  V30 2216 N 212.846 1.57033 -0.133567 0
M  V30 2217 C 213.793 2.16074 0.811208 0
M  V30 2218 C 214.763 1.08979 1.2535 0
M  V30 2219 O 215.948 1.36958 1.32843 0
M  V30 2220 C 213.088 2.77595 2.05024 0
M  V30 2221 C 212.201 3.99042 1.65498 0
M  V30 2222 C 211.336 4.48603 2.84479 0
M  V30 2223 C 210.375 5.62547 2.41262 0
M  V30 2224 N 209.512 6.06787 3.53206 0
M  V30 2225 H 214.352 2.96477 0.300906 0
M  V30 2226 H 211.889 1.46462 0.136822 0
M  V30 2227 H 213.847 3.11402 2.77642 0
M  V30 2228 H 212.477 1.99859 2.53488 0
M  V30 2229 H 211.529 3.71302 0.826981 0
M  V30 2230 H 212.841 4.81629 1.29748 0
M  V30 2231 H 211.995 4.84395 3.65303 0
M  V30 2232 H 210.734 3.64995 3.23465 0
M  V30 2233 H 209.739 5.26345 1.58874 0
M  V30 2234 H 210.964 6.47931 2.03377 0
M  V30 2235 H 208.91 5.26117 3.91838 0
M  V30 2236 H 208.827 6.84266 3.21427 0
M  V30 2237 H 210.095 6.4722 4.34427 0
M  V30 2238 N 214.325 -0.140222 1.56975 0
M  V30 2239 C 215.288 -1.15689 1.97861 0
M  V30 2240 C 216.288 -1.3549 0.865974 0
M  V30 2241 O 217.478 -1.32367 1.13246 0
M  V30 2242 C 214.61 -2.51582 2.30042 0
M  V30 2243 H 215.803 -0.805971 2.88867 0
M  V30 2244 H 213.356 -0.383801 1.51515 0
M  V30 2245 H 214.091 -2.91632 1.41849 0
M  V30 2246 H 213.876 -2.38569 3.11171 0
M  V30 2247 H 215.366 -3.24792 2.62488 0
M  V30 2248 N 215.803 -1.52179 -0.40978 0
M  V30 2249 C 216.75 -1.75475 -1.49924 0
M  V30 2250 C 217.72 -0.597175 -1.54994 0
M  V30 2251 O 218.905 -0.834655 -1.71575 0
M  V30 2252 C 216.045 -1.9107 -2.87378 0
M  V30 2253 C 215.158 -3.18717 -2.91622 0
M  V30 2254 C 214.293 -3.24747 -4.20372 0
M  V30 2255 C 213.332 -4.46598 -4.18588 0
M  V30 2256 N 212.469 -4.50025 -5.38908 0
M  V30 2257 H 217.309 -2.68458 -1.29361 0
M  V30 2258 H 214.846 -1.33024 -0.627934 0
M  V30 2259 H 216.804 -1.98096 -3.6717 0
M  V30 2260 H 215.434 -1.01469 -3.06437 0
M  V30 2261 H 214.486 -3.20866 -2.04326 0
M  V30 2262 H 215.798 -4.08544 -2.86169 0
M  V30 2263 H 214.952 -3.30841 -5.08556 0
M  V30 2264 H 213.691 -2.32857 -4.28519 0
M  V30 2265 H 212.696 -4.40652 -3.28794 0
M  V30 2266 H 213.921 -5.39783 -4.12081 0
M  V30 2267 H 211.867 -3.61017 -5.47725 0
M  V30 2268 H 211.784 -5.33697 -5.35447 0
M  V30 2269 H 213.052 -4.60347 -6.29048 0
M  V30 2270 N 217.281 0.66697 -1.42791 0
M  V30 2271 C 218.529 1.42417 -1.43394 0
M  V30 2272 C 218.85 1.94925 -0.0542373 0
M  V30 2273 O 218.12 1.73564 0.908415 0
M  V30 2274 H 216.7 0.528515 -0.527902 0
M  V30 2275 H 219.362 0.787562 -1.78279 0
M  V30 2276 H 218.458 2.27333 -2.13837 0
M  V30 2277 N 218.759 1.29093 0.90403 0
M  V30 2278 C 220.17 1.15186 1.46932 0
M  V30 2279 C 220.521 -0.254587 1.94541 0
M  V30 2280 O 219.646 -1.14972 1.83332 0
M  V30 2281 C 220.241 2.08492 2.67051 0
M  V30 2282 C 218.8 1.98621 3.19729 0
M  V30 2283 C 217.947 1.9967 1.92425 0
M  V30 2284 H 220.898 1.41641 0.715789 0
M  V30 2285 H 220.919 1.65461 3.42641 0
M  V30 2286 H 220.431 3.10847 2.3237 0
M  V30 2287 H 218.532 0.993389 3.59114 0
M  V30 2288 H 218.645 2.86068 3.8432 0
M  V30 2289 H 217.009 1.44208 2.09943 0
M  V30 2290 H 217.792 3.03721 1.60026 0
M  V30 2291 N 220.237 -1.11381 1.11499 0
M  V30 2292 C 221.167 -2.19509 0.796125 0
M  V30 2293 C 222.148 -1.68458 -0.235796 0
M  V30 2294 O 223.333 -1.93947 -0.0991344 0
M  V30 2295 C 220.463 -3.46475 0.239205 0
M  V30 2296 C 219.417 -4.10744 1.20307 0
M  V30 2297 C 218.743 -5.32293 0.50683 0
M  V30 2298 C 220.043 -4.55597 2.55399 0
M  V30 2299 H 221.737 -2.46439 1.70024 0
M  V30 2300 H 219.283 -1.18446 0.818935 0
M  V30 2301 H 221.236 -4.214 0.00392006 0
M  V30 2302 H 219.96 -3.19006 -0.700206 0
M  V30 2303 H 218.619 -3.37813 1.42399 0
M  V30 2304 H 218.267 -5.01095 -0.437408 0
M  V30 2305 H 217.967 -5.76243 1.1497 0
M  V30 2306 H 219.491 -6.09956 0.280351 0
M  V30 2307 H 220.905 -5.21841 2.37391 0
M  V30 2308 H 219.302 -5.10363 3.15673 0
M  V30 2309 H 220.372 -3.69013 3.14575 0
M  V30 2310 N 221.715 -0.905404 -1.28997 0
M  V30 2311 C 222.678 -0.392253 -2.25819 0
M  V30 2312 C 223.678 0.476753 -1.5357 0
M  V30 2313 O 224.868 0.280994 -1.71919 0
M  V30 2314 C 222 0.438588 -3.38067 0
M  V30 2315 H 223.193 -1.24743 -2.72725 0
M  V30 2316 H 220.746 -0.684051 -1.40536 0
M  V30 2317 H 221.481 1.31352 -2.96508 0
M  V30 2318 H 221.266 -0.184167 -3.91667 0
M  V30 2319 H 222.756 0.78873 -4.10084 0
M  V30 2320 N 223.193 1.4272 -0.668489 0
M  V30 2321 C 224.418 2.06484 -0.194758 0
M  V30 2322 C 224.843 1.49862 1.13679 0
M  V30 2323 O 224.201 0.614582 1.70565 0
M  V30 2324 C 224.249 3.60353 -0.133546 0
M  V30 2325 O 223.353 4.02464 0.899806 0
M  V30 2326 H 222.694 0.656137 -0.10188 0
M  V30 2327 H 225.224 1.82964 -0.915722 0
M  V30 2328 H 225.234 4.07976 0.0447041 0
M  V30 2329 H 223.909 4.00938 -1.1055 0
M  V30 2330 H 222.486 3.66402 0.693109 0
M  V30 2331 N 224.671 0.411399 1.52136 0
M  V30 2332 C 225.603 -0.448386 2.24771 0
M  V30 2333 C 226.616 -1.00828 1.27818 0
M  V30 2334 O 227.805 -0.906841 1.53749 0
M  V30 2335 C 224.905 -1.63636 2.96777 0
M  V30 2336 C 224.078 -1.19995 4.20618 0
M  V30 2337 C 223.137 -2.25509 4.75428 0
M  V30 2338 O 222.163 -1.86007 5.3795 0
M  V30 2339 N 223.365 -3.577 4.57199 0
M  V30 2340 H 226.13 0.174025 2.99194 0
M  V30 2341 H 223.691 0.238897 1.60128 0
M  V30 2342 H 225.683 -2.33793 3.30338 0
M  V30 2343 H 224.253 -2.16465 2.25526 0
M  V30 2344 H 223.473 -0.326421 3.92846 0
M  V30 2345 H 224.761 -0.885365 5.01038 0
M  V30 2346 H 224.159 -3.92543 4.07341 0
M  V30 2347 H 222.716 -4.23827 4.95191 0
M  V30 2348 N 226.149 -1.5696 0.141893 0
M  V30 2349 C 227.398 -1.95135 -0.510427 0
M  V30 2350 C 227.711 -1.02896 -1.66348 0
M  V30 2351 O 228.917 -1.30629 -2.38009 0
M  V30 2352 C 227.373 -3.46876 -0.959427 0
M  V30 2353 C 226.981 -4.47691 0.166419 0
M  V30 2354 C 228.725 -3.93927 -1.58183 0
M  V30 2355 C 226.632 -5.90636 -0.300565 0
M  V30 2356 H 225.562 -0.728494 -0.194454 0
M  V30 2357 H 228.213 -1.8211 0.22542 0
M  V30 2358 H 226.595 -3.55215 -1.75038 0
M  V30 2359 H 227.769 -4.51043 0.94325 0
M  V30 2360 H 226.084 -4.10527 0.696905 0
M  V30 2361 H 228.681 -4.98158 -1.94275 0
M  V30 2362 H 229.024 -3.3519 -2.46888 0
M  V30 2363 H 229.557 -3.88484 -0.855863 0
M  V30 2364 H 226.296 -6.5318 0.550989 0
M  V30 2365 H 225.816 -5.90655 -1.04338 0
M  V30 2366 H 227.495 -6.42588 -0.754265 0
M  V30 2367 N 227.627 0.131896 -1.57047 0
M  V30 2368 C 228.852 0.860418 -1.8871 0
M  V30 2369 C 229.277 1.73251 -0.73251 0
M  V30 2370 O 228.635 1.785 0.317429 0
M  V30 2371 C 228.683 1.68047 -3.19049 0
M  V30 2372 O 227.787 2.7862 -3.04047 0
M  V30 2373 H 227.128 0.238743 -0.619595 0
M  V30 2374 H 229.658 0.118169 -2.04258 0
M  V30 2375 H 229.668 2.07238 -3.51449 0
M  V30 2376 H 228.343 1.04018 -4.02682 0
M  V30 2377 H 226.92 2.42726 -2.83088 0
M  V30 2378 N 229.106 1.52395 0.401703 0
M  V30 2379 C 230.354 1.66488 1.14569 0
M  V30 2380 C 230.675 0.400897 1.90835 0
M  V30 2381 O 229.945 -0.584415 1.8698 0
M  V30 2382 H 228.525 0.613672 0.425929 0
M  V30 2383 H 231.187 1.89464 0.457093 0
M  V30 2384 H 230.283 2.50942 1.85566 0
M  V30 2385 N 230.584 -0.659388 1.43143 0
M  V30 2386 C 231.514 -1.78422 1.50625 0
M  V30 2387 C 232.495 -1.66216 0.361443 0
M  V30 2388 O 233.68 -1.85404 0.577834 0
M  V30 2389 C 230.81 -3.16815 1.42287 0
M  V30 2390 C 229.764 -3.43777 2.54954 0
M  V30 2391 C 229.09 -4.81905 2.31671 0
M  V30 2392 C 230.39 -3.39134 3.97222 0
M  V30 2393 H 232.084 -1.72417 2.44771 0
M  V30 2394 H 229.63 -0.828084 1.17808 0
M  V30 2395 H 231.583 -3.95253 1.46127 0
M  V30 2396 H 230.307 -3.23534 0.446435 0
M  V30 2397 H 228.966 -2.67707 2.50457 0
M  V30 2398 H 228.614 -4.85294 1.32284 0
M  V30 2399 H 228.314 -5.00906 3.07192 0
M  V30 2400 H 229.838 -5.62609 2.37284 0
M  V30 2401 H 231.252 -4.07518 4.03239 0
M  V30 2402 H 229.649 -3.69671 4.72719 0
M  V30 2403 H 230.719 -2.37426 4.22797 0
M  V30 2404 N 232.062 -1.29571 -0.897171 0
M  V30 2405 C 233.292 -1.20408 -1.67886 0
M  V30 2406 C 233.7 0.237429 -1.87704 0
M  V30 2407 O 233.043 1.17048 -1.41582 0
M  V30 2408 C 233.105 -1.84887 -3.08314 0
M  V30 2409 C 232.769 -3.34189 -3.11716 0
M  V30 2410 C 233.766 -4.30374 -2.91675 0
M  V30 2411 C 231.451 -3.75431 -3.33701 0
M  V30 2412 C 233.445 -5.65776 -2.93557 0
M  V30 2413 C 231.132 -5.10955 -3.35214 0
M  V30 2414 C 232.13 -6.05938 -3.15164 0
M  V30 2415 O 231.818 -7.38987 -3.1647 0
M  V30 2416 H 231.55 -0.418289 -0.531046 0
M  V30 2417 H 234.104 -1.71514 -1.13014 0
M  V30 2418 H 232.334 -1.28295 -3.64798 0
M  V30 2419 H 234.023 -1.70011 -3.6858 0
M  V30 2420 H 234.789 -3.99844 -2.74499 0
M  V30 2421 H 230.668 -3.01953 -3.48347 0
M  V30 2422 H 234.212 -6.39889 -2.77826 0
M  V30 2423 H 230.109 -5.4113 -3.51922 0
M  V30 2424 H 230.877 -7.47823 -3.3272 0
M  V30 2425 N 233.54 1.10788 -1.12088 0
M  V30 2426 C 234.47 2.19083 -0.807755 0
M  V30 2427 C 235.451 1.6858 0.226859 0
M  V30 2428 O 236.636 1.93997 0.0888475 0
M  V30 2429 C 233.766 3.46344 -0.257576 0
M  V30 2430 C 232.72 4.101 -1.22483 0
M  V30 2431 C 232.046 5.32016 -0.535052 0
M  V30 2432 C 233.346 4.54236 -2.57811 0
M  V30 2433 H 235.04 2.45534 -1.71328 0
M  V30 2434 H 232.586 1.1801 -0.825205 0
M  V30 2435 H 234.539 4.21392 -0.0262679 0
M  V30 2436 H 233.263 3.19373 0.683278 0
M  V30 2437 H 231.922 3.37054 -1.44189 0
M  V30 2438 H 231.57 5.01319 0.410827 0
M  V30 2439 H 231.27 5.75625 -1.18024 0
M  V30 2440 H 232.794 6.09799 -0.312695 0
M  V30 2441 H 234.208 5.20575 -2.40155 0
M  V30 2442 H 232.605 5.08682 -3.18375 0
M  V30 2443 H 233.675 3.6734 -3.16528 0
M  V30 2444 N 235.018 0.912232 1.28515 0
M  V30 2445 C 236.429 0.591352 1.77087 0
M  V30 2446 C 236.78 -0.8933 1.74684 0
M  V30 2447 O 235.905 -1.69876 1.34056 0
M  V30 2448 C 236.5 1.06668 3.2157 0
M  V30 2449 C 235.059 0.79675 3.67871 0
M  V30 2450 C 234.206 1.23427 2.48316 0
M  V30 2451 H 237.157 1.09365 1.15 0
M  V30 2452 H 237.178 0.407455 3.78312 0
M  V30 2453 H 236.69 2.14726 3.23287 0
M  V30 2454 H 234.791 -0.270679 3.71616 0
M  V30 2455 H 234.904 1.40343 4.58084 0
M  V30 2456 H 233.268 0.653036 2.46186 0
M  V30 2457 H 234.051 2.32316 2.52753 0
M  V30 2458 N 236.496 -1.42363 0.676048 0
M  V30 2459 C 237.726 -2.05561 0.206967 0
M  V30 2460 C 238.134 -1.50887 -1.14148 0
M  V30 2461 O 237.477 -0.643933 -1.72044 0
M  V30 2462 C 237.539 -3.5944 0.0659508 0
M  V30 2463 C 237.203 -4.36812 1.34331 0
M  V30 2464 C 238.2 -4.67383 2.27704 0
M  V30 2465 C 235.885 -4.76429 1.59125 0
M  V30 2466 C 237.879 -5.36509 3.44147 0
M  V30 2467 C 235.566 -5.45294 2.75857 0
M  V30 2468 C 236.564 -5.75259 3.68193 0
M  V30 2469 O 236.252 -6.42712 4.82883 0
M  V30 2470 H 235.984 -0.668872 0.0979084 0
M  V30 2471 H 238.538 -1.83467 0.923531 0
M  V30 2472 H 236.768 -3.80197 -0.706204 0
M  V30 2473 H 238.457 -4.0427 -0.363418 0
M  V30 2474 H 239.223 -4.37275 2.09799 0
M  V30 2475 H 235.102 -4.52498 0.881258 0
M  V30 2476 H 238.646 -5.59814 4.16238 0
M  V30 2477 H 234.543 -5.7482 2.93688 0
M  V30 2478 H 235.311 -6.61204 4.82444 0
M  V30 2479 N 237.974 -0.419461 -1.51915 0
M  V30 2480 C 238.921 0.400927 -2.27291 0
M  V30 2481 C 239.891 1.03224 -1.30131 0
M  V30 2482 O 241.076 1.05455 -1.59009 0
M  V30 2483 C 238.216 1.50603 -3.10504 0
M  V30 2484 C 237.329 0.89462 -4.22635 0
M  V30 2485 C 236.464 1.97328 -4.93189 0
M  V30 2486 C 235.503 1.33935 -5.97267 0
M  V30 2487 N 234.64 2.3586 -6.61298 0
M  V30 2488 H 239.48 -0.248251 -2.96964 0
M  V30 2489 H 237.017 -0.134266 -1.46486 0
M  V30 2490 H 238.975 2.15783 -3.57062 0
M  V30 2491 H 237.605 2.12509 -2.42981 0
M  V30 2492 H 236.657 0.131583 -3.80172 0
M  V30 2493 H 237.969 0.391641 -4.9726 0
M  V30 2494 H 237.123 2.70211 -5.43204 0
M  V30 2495 H 235.862 2.50994 -4.18155 0
M  V30 2496 H 234.867 0.595896 -5.46561 0
M  V30 2497 H 236.092 0.810252 -6.74249 0
M  V30 2498 H 234.038 2.88639 -5.89087 0
M  V30 2499 H 233.955 1.90403 -7.3163 0
M  V30 2500 H 235.223 3.08282 -7.15949 0
M  V30 2501 N 239.452 1.56882 -0.150215 0
M  V30 2502 C 240.698 1.96518 0.500834 0
M  V30 2503 C 241.031 1.03527 1.64304 0
M  V30 2504 O 240.306 0.0782751 1.94342 0
M  V30 2505 C 240.589 3.45822 1.00395 0
M  V30 2506 C 240.442 4.49591 -0.136983 0
M  V30 2507 C 241.761 3.97704 1.88467 0
M  V30 2508 H 238.88 0.714535 0.18058 0
M  V30 2509 H 241.522 1.88577 -0.232091 0
M  V30 2510 H 239.672 3.5272 1.62851 0
M  V30 2511 H 241.344 4.5477 -0.77343 0
M  V30 2512 H 239.587 4.26441 -0.795652 0
M  V30 2513 H 240.258 5.51402 0.256815 0
M  V30 2514 H 242.734 3.93304 1.35834 0
M  V30 2515 H 241.61 5.0263 2.20578 0
M  V30 2516 H 241.871 3.40252 2.82279 0
M  V30 2517 N 240.93 -0.123565 1.57115 0
M  V30 2518 C 241.86 -1.15309 2.03042 0
M  V30 2519 C 242.841 -1.43454 0.914061 0
M  V30 2520 O 244.026 -1.53973 1.18347 0
M  V30 2521 C 241.156 -2.48043 2.43089 0
M  V30 2522 C 240.11 -2.3437 3.58127 0
M  V30 2523 C 239.436 -3.72026 3.84059 0
M  V30 2524 C 240.736 -1.80804 4.90007 0
M  V30 2525 H 242.43 -0.771102 2.893 0
M  V30 2526 H 239.976 -0.369479 1.39179 0
M  V30 2527 H 241.929 -3.20311 2.73823 0
M  V30 2528 H 240.653 -2.88122 1.53796 0
M  V30 2529 H 239.312 -1.64551 3.27595 0
M  V30 2530 H 238.96 -4.09582 2.91979 0
M  V30 2531 H 238.66 -3.63732 4.6149 0
M  V30 2532 H 240.184 -4.45806 4.1724 0
M  V30 2533 H 241.598 -2.42886 5.19307 0
M  V30 2534 H 239.995 -1.83343 5.71407 0
M  V30 2535 H 241.065 -0.76528 4.78823 0
M  V30 2536 N 242.408 -1.52605 -0.393616 0
M  V30 2537 C 243.819 -1.59417 -0.971761 0
M  V30 2538 C 244.17 -0.444173 -1.91106 0
M  V30 2539 O 243.295 0.433382 -2.12016 0
M  V30 2540 C 243.89 -2.88936 -1.76921 0
M  V30 2541 C 242.449 -2.98175 -2.29714 0
M  V30 2542 C 241.596 -2.54491 -1.10135 0
M  V30 2543 H 244.547 -1.57751 -0.173317 0
M  V30 2544 H 244.568 -2.75163 -2.62804 0
M  V30 2545 H 244.08 -3.72616 -1.08532 0
M  V30 2546 H 242.181 -2.19024 -3.01429 0
M  V30 2547 H 242.294 -4.02726 -2.59517 0
M  V30 2548 H 240.658 -2.08702 -1.45999 0
M  V30 2549 H 241.441 -3.4056 -0.432874 0
M  V30 2550 N 243.887 0.651787 -1.4349 0
M  V30 2551 C 245.133 1.41376 -1.45398 0
M  V30 2552 C 245.466 1.94041 -0.0784823 0
M  V30 2553 O 244.741 1.72379 0.900878 0
M  V30 2554 C 245.024 2.59414 -2.49752 0
M  V30 2555 C 244.877 2.12232 -3.96582 0
M  V30 2556 C 246.196 3.61626 -2.50827 0
M  V30 2557 H 243.315 0.512719 -0.529422 0
M  V30 2558 H 245.957 0.738796 -1.75048 0
M  V30 2559 H 244.107 3.16997 -2.246 0
M  V30 2560 H 245.779 1.59639 -4.32797 0
M  V30 2561 H 244.022 1.43592 -4.09346 0
M  V30 2562 H 244.693 2.9712 -4.65214 0
M  V30 2563 H 247.169 3.13805 -2.7325 0
M  V30 2564 H 246.045 4.41766 -3.25783 0
M  V30 2565 H 246.306 4.14314 -1.5426 0
M  V30 2566 N 245.365 1.30045 0.890287 0
M  V30 2567 C 246.613 1.18327 1.63839 0
M  V30 2568 C 246.934 -0.263455 1.93212 0
M  V30 2569 O 246.204 -1.17856 1.56482 0
M  V30 2570 H 244.784 0.434933 0.607324 0
M  V30 2571 H 247.446 1.631 1.06698 0
M  V30 2572 H 246.542 1.74024 2.59079 0
M  V30 2573 N 246.843 -1.10192 1.12674 0
M  V30 2574 C 248.12 -1.78717 0.794965 0
M  V30 2575 C 248.5 -1.98628 -0.714853 0
M  V30 2576 O 247.848 -1.58135 -1.64941 0
M  V30 2577 C 248.058 -3.11546 1.5729 0
M  V30 2578 C 249.406 -3.86382 1.76052 0
M  V30 2579 O 250.43 -3.21274 1.53823 0
M  V30 2580 O 249.289 -5.03246 2.13087 0
M  V30 2581 H 246.383 -0.774702 0.289423 0
M  V30 2582 H 248.929 -1.16819 1.23091 0
M  V30 2583 H 247.701 -2.92489 2.59935 0
M  V30 2584 H 247.324 -3.81164 1.13137 0
M  V30 2585 N 248.321 -0.919034 -1.28029 0
M  V30 2586 C 249.231 -0.416756 -2.30869 0
M  V30 2587 C 250.247 0.498235 -1.66714 0
M  V30 2588 O 251.423 0.383144 -1.97722 0
M  V30 2589 C 248.488 0.330274 -3.45123 0
M  V30 2590 C 247.549 -0.618578 -4.2482 0
M  V30 2591 C 246.782 0.0928959 -5.33619 0
M  V30 2592 O 247.005 1.31375 -5.55065 0
M  V30 2593 O 245.939 -0.574499 -5.99152 0
M  V30 2594 H 249.765 -1.27043 -2.75851 0
M  V30 2595 H 247.35 -0.684052 -1.3282 0
M  V30 2596 H 249.232 0.751972 -4.14636 0
M  V30 2597 H 247.907 1.1597 -3.02213 0
M  V30 2598 H 246.814 -1.08978 -3.57875 0
M  V30 2599 H 248.147 -1.41497 -4.71423 0
M  V30 2600 N 249.799 1.42003 -0.683588 0
M  V30 2601 C 251.045 2.01712 -0.209825 0
M  V30 2602 C 251.378 1.53968 1.18353 0
M  V30 2603 O 250.653 0.745661 1.79639 0
M  V30 2604 C 250.936 3.59202 -0.254197 0
M  V30 2605 C 250.789 4.17102 -1.68363 0
M  V30 2606 C 252.108 4.38344 0.392709 0
M  V30 2607 H 249.227 0.732891 -0.0777189 0
M  V30 2608 H 251.869 1.68909 -0.87004 0
M  V30 2609 H 250.019 3.87278 0.307954 0
M  V30 2610 H 251.691 3.99946 -2.29871 0
M  V30 2611 H 249.934 3.72597 -2.22157 0
M  V30 2612 H 250.605 5.26249 -1.6663 0
M  V30 2613 H 253.081 4.16011 -0.0859162 0
M  V30 2614 H 251.957 5.47901 0.331063 0
M  V30 2615 H 252.218 4.16887 1.47164 0
M  V30 2616 N 251.277 0.427512 1.51691 0
M  V30 2617 C 252.523 -0.142439 2.02299 0
M  V30 2618 C 252.856 -1.43214 1.31162 0
M  V30 2619 O 252.131 -1.89833 0.423511 0
M  V30 2620 C 252.414 -0.371301 3.58181 0
M  V30 2621 C 252.267 0.936358 4.39946 0
M  V30 2622 C 253.586 -1.14542 4.24933 0
M  V30 2623 H 250.705 -0.0502937 0.735282 0
M  V30 2624 H 253.347 0.564584 1.81418 0
M  V30 2625 H 251.497 -0.973559 3.76104 0
M  V30 2626 H 253.169 1.57184 4.33694 0
M  V30 2627 H 251.412 1.5432 4.05423 0
M  V30 2628 H 252.083 0.730388 5.47147 0
M  V30 2629 H 254.559 -0.635362 4.11221 0
M  V30 2630 H 253.435 -1.27431 5.33903 0
M  V30 2631 H 253.696 -2.17093 3.85127 0
M  V30 2632 N 252.755 -1.56801 0.158532 0
M  V30 2633 C 254.003 -1.96102 -0.488712 0
M  V30 2634 C 254.324 -1.04498 -1.64636 0
M  V30 2635 O 253.594 -0.108783 -1.95598 0
M  V30 2636 H 252.174 -0.724102 -0.183535 0
M  V30 2637 H 254.836 -1.93457 0.236728 0
M  V30 2638 H 253.932 -3.00097 -0.857219 0
M  V30 2639 N 254.233 0.115231 -1.57178 0
M  V30 2640 C 255.482 0.820945 -1.84237 0
M  V30 2641 C 255.795 1.80866 -0.744761 0
M  V30 2642 O 257.001 2.56083 -0.901871 0
M  V30 2643 C 255.457 1.51072 -3.26658 0
M  V30 2644 C 255.065 0.563795 -4.44438 0
M  V30 2645 C 256.809 2.20134 -3.62962 0
M  V30 2646 C 254.716 1.25701 -5.77887 0
M  V30 2647 H 253.646 0.310328 -0.687177 0
M  V30 2648 H 256.297 0.0737134 -1.83352 0
M  V30 2649 H 254.679 2.30471 -3.22024 0
M  V30 2650 H 255.853 -0.197247 -4.60378 0
M  V30 2651 H 254.168 -0.0200638 -4.16395 0
M  V30 2652 H 256.765 2.72696 -4.59936 0
M  V30 2653 H 257.108 2.98107 -2.90582 0
M  V30 2654 H 257.641 1.47619 -3.69396 0
M  V30 2655 H 254.38 0.518493 -6.53446 0
M  V30 2656 H 253.9 1.98997 -5.65827 0
M  V30 2657 H 255.579 1.78915 -6.2177 0
M  V30 2658 N 255.711 1.52812 0.385517 0
M  V30 2659 C 256.957 1.68275 1.13188 0
M  V30 2660 C 257.29 0.423179 1.89533 0
M  V30 2661 O 256.565 -0.579113 1.85679 0
M  V30 2662 C 256.848 2.92001 2.1073 0
M  V30 2663 C 256.701 4.28067 1.38125 0
M  V30 2664 C 258.02 3.11283 3.11113 0
M  V30 2665 H 255.139 0.612352 0.410115 0
M  V30 2666 H 257.781 1.85415 0.414869 0
M  V30 2667 H 255.931 2.77519 2.71874 0
M  V30 2668 H 257.603 4.54324 0.799187 0
M  V30 2669 H 255.846 4.28388 0.683092 0
M  V30 2670 H 256.517 5.10733 2.09417 0
M  V30 2671 H 258.993 3.2482 2.6006 0
M  V30 2672 H 257.869 3.99325 3.76605 0
M  V30 2673 H 258.13 2.25656 3.80173 0
M  V30 2674 N 257.189 -0.644168 1.43834 0
M  V30 2675 C 258.437 -1.40117 1.45642 0
M  V30 2676 C 258.758 -1.94814 0.0852413 0
M  V30 2677 O 258.028 -1.74988 -0.880688 0
M  V30 2678 H 256.608 -0.52005 0.536243 0
M  V30 2679 H 259.27 -0.7591 1.7951 0
M  V30 2680 H 258.366 -2.23902 2.17427 0
M  V30 2681 N 258.668 -1.30515 -0.883378 0
M  V30 2682 C 259.898 -1.22182 -1.66599 0
M  V30 2683 C 260.306 0.217507 -1.87946 0
M  V30 2684 O 259.649 1.1554 -1.42815 0
M  V30 2685 C 259.711 -1.88146 -3.06335 0
M  V30 2686 C 259.375 -3.37476 -3.08154 0
M  V30 2687 C 260.372 -4.33443 -2.87094 0
M  V30 2688 C 258.057 -3.7895 -3.29701 0
M  V30 2689 C 260.051 -5.68858 -2.8754 0
M  V30 2690 C 257.738 -5.14482 -3.29776 0
M  V30 2691 C 258.736 -6.09246 -3.0872 0
M  V30 2692 O 258.424 -7.42302 -3.08615 0
M  V30 2693 H 258.156 -0.423898 -0.52658 0
M  V30 2694 H 260.71 -1.72703 -1.11188 0
M  V30 2695 H 258.94 -1.32157 -3.63416 0
M  V30 2696 H 260.629 -1.7391 -3.66756 0
M  V30 2697 H 261.395 -4.02733 -2.70243 0
M  V30 2698 H 257.274 -3.05631 -3.45124 0
M  V30 2699 H 260.818 -6.428 -2.71024 0
M  V30 2700 H 256.715 -5.44832 -3.46163 0
M  V30 2701 H 257.483 -7.5131 -3.24769 0
M  V30 2702 N 260.146 1.09593 -1.13257 0
M  V30 2703 C 261.374 1.855 -0.916378 0
M  V30 2704 C 261.789 1.81069 0.534738 0
M  V30 2705 O 261.146 1.20562 1.37007 0
M  V30 2706 C 261.197 3.33546 -1.39388 0
M  V30 2707 O 260.918 3.37927 -2.78813 0
M  V30 2708 C 262.419 4.26299 -1.21588 0
M  V30 2709 H 259.639 0.585991 -0.326887 0
M  V30 2710 H 262.183 1.38488 -1.5047 0
M  V30 2711 H 260.338 3.77992 -0.848597 0
M  V30 2712 H 260.752 4.30254 -2.9997 0
M  V30 2713 H 262.226 5.28341 -1.59876 0
M  V30 2714 H 262.703 4.38918 -0.157376 0
M  V30 2715 H 263.309 3.87668 -1.7491 0
M  V30 2716 N 261.624 0.925811 1.2754 0
M  V30 2717 C 262.849 0.580924 1.99098 0
M  V30 2718 C 263.274 -0.833555 1.68622 0
M  V30 2719 O 262.632 -1.55903 0.925422 0
M  V30 2720 C 262.68 0.811186 3.51358 0
M  V30 2721 O 261.784 -0.124129 4.12213 0
M  V30 2722 H 261.125 0.223873 0.625122 0
M  V30 2723 H 263.655 1.24455 1.62395 0
M  V30 2724 H 263.665 0.72601 4.01489 0
M  V30 2725 H 262.34 1.84227 3.72872 0
M  V30 2726 H 260.917 0.0108006 3.72898 0
M  V30 2727 N 263.102 -1.41638 0.69111 0
M  V30 2728 C 264.049 -2.30789 0.0229705 0
M  V30 2729 C 265.019 -1.46863 -0.775911 0
M  V30 2730 O 266.204 -1.75661 -0.74485 0
M  V30 2731 C 263.344 -3.32868 -0.910666 0
M  V30 2732 C 262.457 -4.31875 -0.103874 0
M  V30 2733 C 261.592 -5.21024 -1.03475 0
M  V30 2734 C 260.631 -6.11702 -0.220598 0
M  V30 2735 N 259.768 -6.93349 -1.10504 0
M  V30 2736 H 264.608 -2.87366 0.788978 0
M  V30 2737 H 262.145 -1.41535 0.400794 0
M  V30 2738 H 264.103 -3.90596 -1.46597 0
M  V30 2739 H 262.733 -2.77851 -1.64312 0
M  V30 2740 H 261.785 -3.76131 0.568285 0
M  V30 2741 H 263.097 -4.96003 0.527504 0
M  V30 2742 H 262.251 -5.83565 -1.65943 0
M  V30 2743 H 260.99 -4.57112 -1.69999 0
M  V30 2744 H 259.995 -5.48215 0.417187 0
M  V30 2745 H 261.22 -6.77668 0.440784 0
M  V30 2746 H 259.166 -6.3205 -1.75638 0
M  V30 2747 H 259.083 -7.54146 -0.529125 0
M  V30 2748 H 260.351 -7.60362 -1.71667 0
M  V30 2749 N 264.58 -0.43555 -1.51462 0
M  V30 2750 C 265.49 0.383001 -2.31453 0
M  V30 2751 C 266.506 1.02931 -1.4029 0
M  V30 2752 O 267.682 1.02507 -1.73362 0
M  V30 2753 C 264.747 1.47043 -3.13973 0
M  V30 2754 C 263.808 0.844433 -4.20913 0
M  V30 2755 C 263.041 1.88004 -4.9949 0
M  V30 2756 O 263.264 3.10199 -4.78678 0
M  V30 2757 O 262.198 1.47157 -5.83634 0
M  V30 2758 H 266.024 -0.269964 -3.02498 0
M  V30 2759 H 263.609 -0.19813 -1.4808 0
M  V30 2760 H 265.491 2.10113 -3.65281 0
M  V30 2761 H 264.166 2.10751 -2.45695 0
M  V30 2762 H 263.073 0.175729 -3.73687 0
M  V30 2763 H 264.406 0.250869 -4.9156 0
M  V30 2764 N 266.058 1.56714 -0.166846 0
M  V30 2765 C 267.286 2.0112 0.485644 0
M  V30 2766 C 267.701 1.04705 1.57106 0
M  V30 2767 O 267.058 0.0471923 1.82439 0
M  V30 2768 C 267.109 3.45361 1.06808 0
M  V30 2769 O 266.83 4.38092 0.0259995 0
M  V30 2770 C 268.331 4.05145 1.79924 0
M  V30 2771 H 265.551 0.65931 0.124704 0
M  V30 2772 H 268.095 2.02746 -0.267262 0
M  V30 2773 H 266.25 3.44524 1.7715 0
M  V30 2774 H 266.664 5.22519 0.455398 0
M  V30 2775 H 268.138 5.08009 2.15942 0
M  V30 2776 H 268.615 3.46982 2.69258 0
M  V30 2777 H 269.221 4.09672 1.14234 0
M  V30 2778 N 267.536 -0.106894 1.57237 0
M  V30 2779 C 268.947 -0.662723 1.74542 0
M  V30 2780 C 269.298 -1.7971 0.787319 0
M  V30 2781 O 268.423 -2.16368 -0.0369636 0
M  V30 2782 C 269.018 -1.20896 3.16496 0
M  V30 2783 C 267.577 -1.71096 3.35266 0
M  V30 2784 C 266.724 -0.615642 2.7038 0
M  V30 2785 H 269.675 0.119106 1.58252 0
M  V30 2786 H 269.696 -2.07847 3.18716 0
M  V30 2787 H 269.208 -0.383122 3.86204 0
M  V30 2788 H 267.309 -2.56119 2.70618 0
M  V30 2789 H 267.422 -1.81208 4.43509 0
M  V30 2790 H 265.786 -1.05222 2.31949 0
M  V30 2791 H 266.569 0.199419 3.4272 0
M  V30 2792 N 269.014 -1.53014 -0.377408 0
M  V30 2793 C 270.261 -1.68623 -1.12128 0
M  V30 2794 C 270.589 -0.431997 -1.89642 0
M  V30 2795 O 269.844 0.585855 -1.86725 0
M  V30 2796 C 270.143 -2.87982 -2.11663 0
M  V30 2797 C 269.809 -4.24964 -1.50719 0
M  V30 2798 C 268.471 -4.62217 -1.33825 0
M  V30 2799 C 270.823 -5.10199 -1.06519 0
M  V30 2800 C 268.151 -5.82352 -0.712963 0
M  V30 2801 C 270.503 -6.30969 -0.453955 0
M  V30 2802 C 269.167 -6.66944 -0.272411 0
M  V30 2803 H 268.437 -0.617034 -0.410305 0
M  V30 2804 H 271.084 -1.8718 -0.404484 0
M  V30 2805 H 269.389 -2.63889 -2.89603 0
M  V30 2806 H 271.086 -2.97253 -2.6915 0
M  V30 2807 H 267.676 -3.95626 -1.64858 0
M  V30 2808 H 271.86 -4.81978 -1.18368 0
M  V30 2809 H 267.116 -6.08824 -0.560611 0
M  V30 2810 H 271.29 -6.96324 -0.103217 0
M  V30 2811 H 268.917 -7.59898 0.214181 0
M  V30 2812 N 270.492 0.636531 -1.44174 0
M  V30 2813 C 271.422 1.76003 -1.53444 0
M  V30 2814 C 272.403 1.65619 -0.387841 0
M  V30 2815 O 273.588 1.84461 -0.607257 0
M  V30 2816 C 270.718 3.14511 -1.4731 0
M  V30 2817 C 269.672 3.39677 -2.60391 0
M  V30 2818 C 268.998 4.78159 -2.39308 0
M  V30 2819 C 270.298 3.32772 -4.02567 0
M  V30 2820 H 271.992 1.68501 -2.47483 0
M  V30 2821 H 269.538 0.809237 -1.19111 0
M  V30 2822 H 271.491 3.92878 -1.52397 0
M  V30 2823 H 270.215 3.22783 -0.49785 0
M  V30 2824 H 268.874 2.63688 -2.54684 0
M  V30 2825 H 268.522 4.83128 -1.39988 0
M  V30 2826 H 268.222 4.95956 -3.15122 0
M  V30 2827 H 269.746 5.58762 -2.46205 0
M  V30 2828 H 271.16 4.01051 -4.09672 0
M  V30 2829 H 269.557 3.62104 -4.7854 0
M  V30 2830 H 270.627 2.30669 -4.2652 0
M  V30 2831 N 271.97 1.30982 0.876444 0
M  V30 2832 C 273.195 1.23373 1.66715 0
M  V30 2833 C 273.62 -0.19885 1.87046 0
M  V30 2834 O 272.978 -1.1427 1.40756 0
M  V30 2835 C 273.026 1.97644 3.01611 0
M  V30 2836 O 272.13 1.30935 3.91062 0
M  V30 2837 H 271.471 0.426279 0.509099 0
M  V30 2838 H 274.001 1.72944 1.09323 0
M  V30 2839 H 274.011 2.06992 3.51594 0
M  V30 2840 H 272.686 3.01829 2.86133 0
M  V30 2841 H 271.263 1.29996 3.49507 0
M  V30 2842 N 273.449 -1.08991 1.13837 0
M  V30 2843 C 274.397 -2.17841 0.815347 0
M  V30 2844 C 275.391 -1.68164 -0.204233 0
M  V30 2845 O 276.597 -1.79897 -0.0609304 0
M  V30 2846 H 272.972 -0.710654 0.245915 0
M  V30 2847 H 274.943 -2.42315 1.74143 0
M  V30 2848 C 273.692 -3.46381 0.302614 0
M  V30 2849 H 273.015 -3.84979 1.0785 0
M  V30 2850 H 274.455 -4.23844 0.115074 0
M  V30 2851 C 272.914 -3.22556 -0.972591 0
M  V30 2852 O 273.444 -3.45599 -2.04754 0
M  V30 2853 N 271.65 -2.76134 -0.905455 0
M  V30 2854 H 271.197 -2.57582 -0.0305421 0
M  V30 2855 H 271.155 -2.60571 -1.75926 0
M  V30 2856 N 274.927 -0.932562 -1.27047 0
M  V30 2857 C 276.338 -0.619451 -1.76124 0
M  V30 2858 C 276.689 0.865397 -1.76083 0
M  V30 2859 O 275.814 1.67722 -1.36742 0
M  V30 2860 C 276.409 -1.11771 -3.19832 0
M  V30 2861 C 274.968 -0.855174 -3.66557 0
M  V30 2862 C 274.115 -1.27362 -2.46321 0
M  V30 2863 H 277.066 -1.11181 -1.13245 0
M  V30 2864 H 277.087 -0.46759 -3.77616 0
M  V30 2865 H 276.599 -2.19842 -3.1983 0
M  V30 2866 H 274.7 0.211524 -3.71999 0
M  V30 2867 H 274.813 -1.47613 -4.55793 0
M  V30 2868 H 273.177 -0.692119 -2.45116 0
M  V30 2869 H 273.96 -2.36307 -2.49025 0
M  V30 2870 N 276.405 1.4127 -0.698611 0
M  V30 2871 C 277.653 2.00782 -0.230409 0
M  V30 2872 C 277.974 1.5562 1.17505 0
M  V30 2873 O 277.244 0.78815 1.79346 0
M  V30 2874 H 275.824 0.742464 -0.0821944 0
M  V30 2875 H 278.486 1.72852 -0.90045 0
M  V30 2876 H 277.582 3.11095 -0.25021 0
M  V30 2877 N 277.883 0.443576 1.51229 0
M  V30 2878 C 279.111 -0.11929 2.06556 0
M  V30 2879 C 279.526 -1.35921 1.31038 0
M  V30 2880 O 278.883 -1.78675 0.371704 0
M  V30 2881 C 278.934 -0.435228 3.5887 0
M  V30 2882 O 278.655 0.755486 4.31537 0
M  V30 2883 C 280.156 -1.04808 4.30732 0
M  V30 2884 H 277.376 -0.0051584 0.67098 0
M  V30 2885 H 279.92 0.624453 1.94733 0
M  V30 2886 H 278.075 -1.12887 3.70588 0
M  V30 2887 H 278.489 0.483491 5.22267 0
M  V30 2888 H 279.963 -1.2191 5.3837 0
M  V30 2889 H 280.44 -2.03081 3.89429 0
M  V30 2890 H 281.046 -0.393637 4.23474 0
M  V30 2891 N 279.361 -1.56624 0.175154 0
M  V30 2892 C 280.309 -2.19468 -0.770495 0
M  V30 2893 C 281.303 -1.15985 -1.23466 0
M  V30 2894 O 282.509 -1.34176 -1.19987 0
M  V30 2895 H 278.884 -0.703095 -0.266761 0
M  V30 2896 H 280.855 -2.97613 -0.216542 0
M  V30 2897 C 279.604 -2.85264 -1.98796 0
M  V30 2898 H 278.927 -3.64623 -1.63983 0
M  V30 2899 H 280.367 -3.327 -2.62843 0
M  V30 2900 C 278.826 -1.85239 -2.81404 0
M  V30 2901 O 279.356 -1.34024 -3.78682 0
M  V30 2902 N 277.562 -1.53911 -2.46495 0
M  V30 2903 H 277.109 -1.95751 -1.67449 0
M  V30 2904 H 277.067 -0.872382 -3.02054 0
M  V30 2905 N 280.839 0.0985539 -1.57292 0
M  V30 2906 C 281.769 1.12064 -2.04851 0
M  V30 2907 C 282.75 1.41981 -0.936767 0
M  V30 2908 O 283.935 1.52071 -1.20781 0
M  V30 2909 C 281.065 2.44144 -2.47004 0
M  V30 2910 C 280.019 2.28643 -3.6181 0
M  V30 2911 C 279.345 3.65869 -3.89929 0
M  V30 2912 C 280.645 1.72986 -4.92822 0
M  V30 2913 H 282.339 0.724979 -2.9049 0
M  V30 2914 H 279.885 0.34729 -1.39749 0
M  V30 2915 H 281.838 3.15914 -2.78884 0
M  V30 2916 H 280.562 2.85639 -1.5836 0
M  V30 2917 H 279.221 1.59318 -3.30172 0
M  V30 2918 H 278.869 4.04885 -2.98458 0
M  V30 2919 H 278.569 3.56344 -4.67218 0
M  V30 2920 H 280.093 4.39112 -4.2428 0
M  V30 2921 H 281.507 2.34593 -5.23105 0
M  V30 2922 H 279.904 1.74229 -5.74251 0
M  V30 2923 H 280.974 0.689007 -4.7998 0
M  V30 2924 N 282.317 1.53212 0.369288 0
M  V30 2925 C 283.563 1.69466 1.11397 0
M  V30 2926 C 283.896 0.443257 1.89074 0
M  V30 2927 O 283.171 -0.559386 1.86282 0
M  V30 2928 C 283.454 2.9422 2.07621 0
M  V30 2929 C 283.307 4.29508 1.33577 0
M  V30 2930 C 284.626 3.14565 3.07794 0
M  V30 2931 H 281.745 0.616667 0.403597 0
M  V30 2932 H 284.387 1.85845 0.395179 0
M  V30 2933 H 282.537 2.80387 2.68916 0
M  V30 2934 H 284.209 4.55147 0.750955 0
M  V30 2935 H 282.452 4.29088 0.637618 0
M  V30 2936 H 283.123 5.12926 2.03989 0
M  V30 2937 H 285.599 3.2756 2.56601 0
M  V30 2938 H 284.475 4.03297 3.72348 0
M  V30 2939 H 284.736 2.29675 3.77759 0
M  V30 2940 N 283.795 -0.628877 1.44509 0
M  V30 2941 C 285.042 -1.38839 1.47411 0
M  V30 2942 C 285.37 -1.94202 0.10757 0
M  V30 2943 O 284.625 -1.74243 -0.890947 0
M  V30 2944 C 284.924 -2.56995 2.48371 0
M  V30 2945 C 284.59 -2.19908 3.93639 0
M  V30 2946 C 283.252 -2.09506 4.33198 0
M  V30 2947 C 285.604 -1.9064 4.85083 0
M  V30 2948 C 282.932 -1.68028 5.62124 0
M  V30 2949 C 285.284 -1.50655 6.14399 0
M  V30 2950 C 283.948 -1.38796 6.5291 0
M  V30 2951 H 283.218 -0.508048 0.539414 0
M  V30 2952 H 285.865 -0.712913 1.77735 0
M  V30 2953 H 284.17 -3.29786 2.11538 0
M  V30 2954 H 285.867 -3.15223 2.47861 0
M  V30 2955 H 282.457 -2.28922 3.62343 0
M  V30 2956 H 286.641 -1.97585 4.55273 0
M  V30 2957 H 281.897 -1.57452 5.90778 0
M  V30 2958 H 286.071 -1.27048 6.84713 0
M  V30 2959 H 283.698 -1.06429 7.52713 0
M  V30 2960 N 285.273 -1.31445 -0.869486 0
M  V30 2961 C 286.183 -1.21097 -2.0093 0
M  V30 2962 C 287.199 -0.127584 -1.73532 0
M  V30 2963 O 288.375 -0.345477 -1.98415 0
M  V30 2964 C 285.44 -0.919378 -3.34288 0
M  V30 2965 C 284.501 -2.08971 -3.75006 0
M  V30 2966 C 283.734 -1.81194 -5.02001 0
M  V30 2967 O 283.957 -0.747296 -5.65484 0
M  V30 2968 O 282.891 -2.66883 -5.39497 0
M  V30 2969 H 286.717 -2.16883 -2.12592 0
M  V30 2970 H 284.302 -1.11189 -0.997868 0
M  V30 2971 H 286.184 -0.772625 -4.14257 0
M  V30 2972 H 284.859 0.00844772 -3.23699 0
M  V30 2973 H 283.766 -2.29187 -2.95676 0
M  V30 2974 H 285.099 -2.9998 -3.90221 0
M  V30 2975 N 286.751 1.08385 -1.14413 0
M  V30 2976 C 288.028 1.77429 -0.823297 0
M  V30 2977 C 288.408 1.9974 0.683163 0
M  V30 2978 O 287.756 1.60739 1.62405 0
M  V30 2979 C 287.966 3.09004 -1.62227 0
M  V30 2980 C 289.314 3.83532 -1.82177 0
M  V30 2981 O 290.338 3.18786 -1.58915 0
M  V30 2982 O 289.197 4.99792 -2.21067 0
M  V30 2983 H 286.291 0.769999 -0.301712 0
M  V30 2984 H 288.837 1.14846 -1.24934 0
M  V30 2985 H 287.609 2.88316 -2.64555 0
M  V30 2986 H 287.232 3.79316 -1.19187 0
M  V30 2987 N 288.23 0.939286 1.26551 0
M  V30 2988 C 289.14 0.453432 2.30176 0
M  V30 2989 C 290.156 -0.471649 1.67486 0
M  V30 2990 O 291.332 -0.35164 1.98306 0
M  V30 2991 C 288.397 -0.275326 3.45605 0
M  V30 2992 C 287.458 0.686084 4.23782 0
M  V30 2993 C 286.691 -0.00798994 5.33699 0
M  V30 2994 O 286.914 -1.22528 5.57085 0
M  V30 2995 O 285.848 0.669746 5.98162 0
M  V30 2996 H 289.674 1.31416 2.73795 0
M  V30 2997 H 287.259 0.705095 1.31715 0
M  V30 2998 H 289.141 -0.685911 4.1578 0
M  V30 2999 H 287.816 -1.11147 3.0402 0
M  V30 3000 H 286.723 1.14658 3.56096 0
M  V30 3001 H 288.056 1.48979 4.69112 0
M  V30 3002 N 289.708 -1.40897 0.706093 0
M  V30 3003 C 290.957 -2.00284 0.238574 0
M  V30 3004 C 291.27 -1.56604 -1.17194 0
M  V30 3005 O 292.476 -2.08624 -1.73748 0
M  V30 3006 C 290.932 -3.57934 0.375623 0
M  V30 3007 C 290.54 -4.10591 1.79217 0
M  V30 3008 C 292.284 -4.24488 -0.0315857 0
M  V30 3009 C 290.191 -5.60712 1.88032 0
M  V30 3010 H 289.121 -0.749144 0.0854398 0
M  V30 3011 H 291.772 -1.61251 0.875813 0
M  V30 3012 H 290.154 -3.94622 -0.330042 0
M  V30 3013 H 291.328 -3.85301 2.52745 0
M  V30 3014 H 289.643 -3.56601 2.15 0
M  V30 3015 H 292.24 -5.34698 0.0136842 0
M  V30 3016 H 292.583 -4.02261 -1.072 0
M  V30 3017 H 293.116 -3.92873 0.624181 0
M  V30 3018 H 289.855 -5.87781 2.90161 0
M  V30 3019 H 289.375 -5.87896 1.18903 0
M  V30 3020 H 291.054 -6.25658 1.64805 0
M  V30 3021 N 291.186 -0.45159 -1.50991 0
M  V30 3022 C 292.414 0.108334 -2.06616 0
M  V30 3023 C 292.829 1.35224 -1.31757 0
M  V30 3024 O 292.186 1.78475 -0.381174 0
M  V30 3025 C 292.237 0.41619 -3.59096 0
M  V30 3026 O 291.958 -0.778361 -4.3113 0
M  V30 3027 C 293.459 1.02523 -4.31282 0
M  V30 3028 H 290.679 0.00159995 -0.670998 0
M  V30 3029 H 293.223 -0.634771 -1.94399 0
M  V30 3030 H 291.378 1.10921 -3.71181 0
M  V30 3031 H 291.792 -0.511181 -5.22003 0
M  V30 3032 H 293.266 1.19053 -5.39009 0
M  V30 3033 H 293.743 2.01013 -3.905 0
M  V30 3034 H 294.349 0.371173 -4.23677 0
M  V30 3035 N 292.664 1.56529 -0.183458 0
M  V30 3036 C 293.627 2.17324 0.728223 0
M  V30 3037 C 294.627 1.12453 1.14939 0
M  V30 3038 O 295.817 1.37902 1.06437 0
M  V30 3039 C 292.949 2.76591 1.99274 0
M  V30 3040 H 294.142 2.99241 0.198772 0
M  V30 3041 H 291.695 1.5616 0.0661391 0
M  V30 3042 H 292.43 1.98441 2.56499 0
M  V30 3043 H 292.215 3.5335 1.69959 0
M  V30 3044 H 293.705 3.23311 2.6431 0
M  V30 3045 N 294.142 -0.090211 1.57342 0
M  V30 3046 C 295.072 -1.10976 2.05443 0
M  V30 3047 C 296.053 -1.41482 0.944284 0
M  V30 3048 O 297.238 -1.51428 1.21586 0
M  V30 3049 C 294.368 -2.42831 2.48295 0
M  V30 3050 C 293.322 -2.26721 3.63018 0
M  V30 3051 C 292.648 -3.63796 3.91863 0
M  V30 3052 C 293.948 -1.7037 4.93732 0
M  V30 3053 H 295.642 -0.709564 2.9087 0
M  V30 3054 H 293.188 -0.339874 1.39932 0
M  V30 3055 H 295.141 -3.14431 2.80555 0
M  V30 3056 H 293.865 -2.84795 1.59873 0
M  V30 3057 H 292.524 -1.57565 3.31012 0
M  V30 3058 H 292.172 -4.03297 3.00601 0
M  V30 3059 H 291.872 -3.53861 4.69101 0
M  V30 3060 H 293.396 -4.36855 4.26603 0
M  V30 3061 H 294.81 -2.31816 5.24342 0
M  V30 3062 H 293.207 -1.71181 5.75167 0
M  V30 3063 H 294.277 -0.663542 4.80339 0
M  V30 3064 N 295.62 -1.53406 -0.361157 0
M  V30 3065 C 296.552 -1.76446 -1.46286 0
M  V30 3066 C 297.565 -0.645322 -1.49464 0
M  V30 3067 O 298.754 -0.921681 -1.52864 0
M  V30 3068 C 295.854 -1.83332 -2.85031 0
M  V30 3069 C 295.027 -3.13033 -3.05498 0
M  V30 3070 C 294.086 -3.11104 -4.24383 0
M  V30 3071 O 293.112 -3.84888 -4.19344 0
M  V30 3072 N 294.314 -2.32234 -5.32022 0
M  V30 3073 H 297.079 -2.71508 -1.26899 0
M  V30 3074 H 294.64 -1.52238 -0.550915 0
M  V30 3075 H 296.632 -1.79514 -3.62708 0
M  V30 3076 H 295.202 -0.955342 -2.97644 0
M  V30 3077 H 294.422 -3.30119 -2.15442 0
M  V30 3078 H 295.71 -3.9874 -3.16044 0
M  V30 3079 H 295.108 -1.71807 -5.38979 0
M  V30 3080 H 293.665 -2.3423 -6.08259 0
M  V30 3081 N 297.098 0.621204 -1.44841 0
M  V30 3082 C 298.509 1.20298 -1.42777 0
M  V30 3083 C 298.86 1.95639 -0.148259 0
M  V30 3084 O 297.985 2.02955 0.750892 0
M  V30 3085 C 298.58 2.1882 -2.58657 0
M  V30 3086 C 297.139 2.72403 -2.59756 0
M  V30 3087 C 296.286 1.4757 -2.34773 0
M  V30 3088 H 299.237 0.411297 -1.53278 0
M  V30 3089 H 299.258 3.01607 -2.31977 0
M  V30 3090 H 298.77 1.63957 -3.51766 0
M  V30 3091 H 296.871 3.31242 -1.70615 0
M  V30 3092 H 296.984 3.17765 -3.58556 0
M  V30 3093 H 295.348 1.76051 -1.8406 0
M  V30 3094 H 296.131 0.945954 -3.3001 0
M  V30 3095 N 298.576 1.31904 0.862503 0
M  V30 3096 C 299.486 1.22161 2.00285 0
M  V30 3097 C 300.502 0.136785 1.73462 0
M  V30 3098 O 301.678 0.355994 1.98229 0
M  V30 3099 C 298.743 0.937093 3.33796 0
M  V30 3100 C 297.804 2.10957 3.73893 0
M  V30 3101 C 297.037 1.83853 5.01033 0
M  V30 3102 O 297.26 0.777274 5.65079 0
M  V30 3103 O 296.194 2.69741 5.38074 0
M  V30 3104 H 300.02 2.18008 2.11439 0
M  V30 3105 H 297.605 1.11716 0.991957 0
M  V30 3106 H 299.487 0.794583 4.13841 0
M  V30 3107 H 298.162 0.00871894 3.23699 0
M  V30 3108 H 297.069 2.30752 2.94456 0
M  V30 3109 H 298.402 3.02046 3.88625 0
M  V30 3110 N 300.054 -1.07777 1.14986 0
M  V30 3111 C 301.3 -1.80557 0.923422 0
M  V30 3112 C 301.633 -1.86298 -0.548337 0
M  V30 3113 O 300.908 -1.34354 -1.40639 0
M  V30 3114 C 301.191 -3.25839 1.53299 0
M  V30 3115 C 301.044 -3.28269 3.07505 0
M  V30 3116 C 302.363 -4.22991 1.21518 0
M  V30 3117 H 299.482 -0.655493 0.336894 0
M  V30 3118 H 302.124 -1.26144 1.42083 0
M  V30 3119 H 300.274 -3.72306 1.10999 0
M  V30 3120 H 301.946 -2.90079 3.58681 0
M  V30 3121 H 300.189 -2.67355 3.4162 0
M  V30 3122 H 300.86 -4.30691 3.45266 0
M  V30 3123 H 303.336 -3.84894 1.581 0
M  V30 3124 H 302.212 -5.22945 1.66793 0
M  V30 3125 H 302.473 -4.41904 0.131505 0
M  V30 3126 N 301.532 -0.945985 -1.26051 0
M  V30 3127 C 302.809 -0.513816 -1.88731 0
M  V30 3128 C 303.189 1.00872 -1.8544 0
M  V30 3129 O 302.537 1.8708 -1.312 0
M  V30 3130 C 302.747 -1.08062 -3.31849 0
M  V30 3131 C 304.095 -1.1522 -4.08668 0
M  V30 3132 O 305.119 -1.03155 -3.40936 0
M  V30 3133 O 303.978 -1.34044 -5.29806 0
M  V30 3134 H 301.072 -0.168193 -0.809716 0
M  V30 3135 H 303.618 -1.03886 -1.34186 0
M  V30 3136 H 302.39 -2.1241 -3.2863 0
M  V30 3137 H 302.013 -0.538307 -3.93939 0
M  V30 3138 N 303.011 1.40521 -0.713556 0
M  V30 3139 C 303.958 2.30723 -0.059684 0
M  V30 3140 C 304.928 1.48079 0.752448 0
M  V30 3141 O 306.113 1.76823 0.71681 0
M  V30 3142 C 303.253 3.34274 0.857594 0
M  V30 3143 C 302.366 4.31986 0.0351536 0
M  V30 3144 C 301.501 5.22605 0.951724 0
M  V30 3145 C 300.54 6.11976 0.123253 0
M  V30 3146 N 299.677 6.9502 0.99459 0
M  V30 3147 H 304.517 2.86074 -0.834596 0
M  V30 3148 H 302.054 1.40879 -0.42326 0
M  V30 3149 H 304.012 3.92879 1.40364 0
M  V30 3150 H 302.642 2.8043 1.59871 0
M  V30 3151 H 301.694 3.7518 -0.628052 0
M  V30 3152 H 303.006 4.95101 -0.606347 0
M  V30 3153 H 302.16 5.86131 1.56638 0
M  V30 3154 H 300.899 4.59759 1.62705 0
M  V30 3155 H 299.904 5.47482 -0.50435 0
M  V30 3156 H 301.129 6.76881 -0.548539 0
M  V30 3157 H 299.075 6.34764 1.6556 0
M  V30 3158 H 298.992 7.54892 0.40908 0
M  V30 3159 H 300.26 7.62997 1.59549 0
M  V30 3160 N 304.489 0.459591 1.5075 0
M  V30 3161 C 305.419 -0.330644 2.31147 0
M  V30 3162 C 306.4 -1.00087 1.37538 0
M  V30 3163 O 307.585 -1.00025 1.66459 0
M  V30 3164 C 304.715 -1.41958 3.16962 0
M  V30 3165 C 303.669 -0.871608 4.19031 0
M  V30 3166 C 302.995 -2.05797 4.9351 0
M  V30 3167 C 304.295 0.109251 5.22186 0
M  V30 3168 H 305.989 0.340336 2.97459 0
M  V30 3169 H 303.535 0.165119 1.4305 0
M  V30 3170 H 305.488 -1.9798 3.71997 0
M  V30 3171 H 304.212 -2.11917 2.48513 0
M  V30 3172 H 302.871 -0.333442 3.6508 0
M  V30 3173 H 302.519 -2.74427 4.21544 0
M  V30 3174 H 302.219 -1.6976 5.62544 0
M  V30 3175 H 303.743 -2.62331 5.51375 0
M  V30 3176 H 305.157 -0.361405 5.7216 0
M  V30 3177 H 303.554 0.383316 5.98875 0
M  V30 3178 H 304.624 1.03887 4.73641 0
M  V30 3179 N 305.967 -1.56429 0.191757 0
M  V30 3180 C 306.914 -2.18936 -0.730454 0
M  V30 3181 C 307.884 -1.13557 -1.21219 0
M  V30 3182 O 309.069 -1.41794 -1.27668 0
M  V30 3183 C 306.209 -2.85013 -1.9458 0
M  V30 3184 C 305.322 -4.04909 -1.50574 0
M  V30 3185 C 304.457 -4.58853 -2.67634 0
M  V30 3186 C 303.496 -5.71114 -2.20217 0
M  V30 3187 N 302.633 -6.19478 -3.30442 0
M  V30 3188 H 307.473 -2.97389 -0.190664 0
M  V30 3189 H 305.01 -1.46869 -0.0823694 0
M  V30 3190 H 306.968 -3.21492 -2.65893 0
M  V30 3191 H 305.598 -2.09129 -2.45896 0
M  V30 3192 H 304.65 -3.74115 -0.688605 0
M  V30 3193 H 305.962 -4.86113 -1.11784 0
M  V30 3194 H 305.116 -4.97619 -3.47074 0
M  V30 3195 H 303.855 -3.76749 -3.09696 0
M  V30 3196 H 302.86 -5.31879 -1.3923 0
M  V30 3197 H 304.085 -6.55033 -1.79189 0
M  V30 3198 H 302.031 -5.40297 -3.72041 0
M  V30 3199 H 301.948 -6.95725 -2.9581 0
M  V30 3200 H 303.216 -6.62898 -4.10106 0
M  V30 3201 N 307.445 0.0818655 -1.57387 0
M  V30 3202 C 308.673 0.796108 -1.9097 0
M  V30 3203 C 309.088 1.71626 -0.786757 0
M  V30 3204 O 308.445 1.80908 0.240513 0
M  V30 3205 C 308.496 1.59829 -3.24248 0
M  V30 3206 O 308.217 0.715131 -4.32224 0
M  V30 3207 C 309.718 2.41442 -3.7178 0
M  V30 3208 H 306.938 0.22691 -0.631469 0
M  V30 3209 H 309.482 0.0551439 -2.04426 0
M  V30 3210 H 307.637 2.29163 -3.12351 0
M  V30 3211 H 308.051 1.27205 -5.08841 0
M  V30 3212 H 309.525 2.932 -4.67694 0
M  V30 3213 H 310.002 3.2051 -3.00283 0
M  V30 3214 H 310.608 1.77283 -3.86589 0
M  V30 3215 N 308.923 1.53595 0.353017 0
M  V30 3216 C 309.853 1.83902 1.43883 0
M  V30 3217 C 310.834 0.693421 1.55324 0
M  V30 3218 O 312.019 0.944452 1.69687 0
M  V30 3219 C 309.149 2.04016 2.8106 0
M  V30 3220 C 308.103 3.19814 2.84434 0
M  V30 3221 C 307.429 3.25244 4.24406 0
M  V30 3222 C 308.729 4.58133 2.50822 0
M  V30 3223 H 310.423 2.74835 1.1877 0
M  V30 3224 H 307.969 1.32242 0.569917 0
M  V30 3225 H 309.922 2.238 3.57059 0
M  V30 3226 H 308.646 1.09804 3.07588 0
M  V30 3227 H 307.305 2.9987 2.10887 0
M  V30 3228 H 306.953 2.28646 4.48029 0
M  V30 3229 H 306.653 4.03054 4.27576 0
M  V30 3230 H 308.177 3.47228 5.0226 0
M  V30 3231 H 309.591 4.77995 3.16534 0
M  V30 3232 H 307.988 5.38276 2.6529 0
M  V30 3233 H 309.058 4.62387 1.46034 0
M  V30 3234 N 310.401 -0.613514 1.45168 0
M  V30 3235 C 311.349 -1.74572 1.53712 0
M  V30 3236 C 312.343 -1.64426 0.407505 0
M  V30 3237 O 313.549 -1.70291 0.583176 0
M  V30 3238 H 309.924 -0.576641 0.48269 0
M  V30 3239 H 311.895 -1.64492 2.48968 0
M  V30 3240 C 310.644 -3.12943 1.51532 0
M  V30 3241 H 309.967 -3.21407 2.37776 0
M  V30 3242 H 311.407 -3.9201 1.61569 0
M  V30 3243 C 309.866 -3.36053 0.238798 0
M  V30 3244 O 310.396 -3.95837 -0.6838 0
M  V30 3245 N 308.602 -2.9028 0.136359 0
M  V30 3246 H 308.149 -2.41811 0.887999 0
M  V30 3247 H 308.107 -3.06116 -0.716944 0
M  V30 3248 N 311.879 -1.3236 -0.855495 0
M  V30 3249 C 313.125 -1.23054 -1.612 0
M  V30 3250 C 313.458 0.207404 -1.93089 0
M  V30 3251 O 312.733 1.14432 -1.57275 0
M  V30 3252 C 313.016 -2.08937 -2.93287 0
M  V30 3253 C 312.869 -3.61105 -2.68185 0
M  V30 3254 C 314.188 -1.94986 -3.94549 0
M  V30 3255 H 311.307 -0.448364 -0.584926 0
M  V30 3256 H 313.949 -1.62297 -0.987917 0
M  V30 3257 H 312.099 -1.75599 -3.46551 0
M  V30 3258 H 313.771 -4.04652 -2.21483 0
M  V30 3259 H 312.014 -3.83813 -2.02164 0
M  V30 3260 H 312.685 -4.16522 -3.62234 0
M  V30 3261 H 315.161 -2.24189 -3.5054 0
M  V30 3262 H 314.037 -2.57356 -4.84829 0
M  V30 3263 H 314.298 -0.917263 -4.3248 0
M  V30 3264 N 313.357 1.07166 -1.15556 0
M  V30 3265 C 314.305 2.16517 -0.8499 0
M  V30 3266 C 315.299 1.68468 0.177454 0
M  V30 3267 O 316.505 1.79971 0.0323026 0
M  V30 3268 H 312.88 0.706652 -0.25719 0
M  V30 3269 H 314.851 2.39514 -1.77976 0
M  V30 3270 C 313.6 3.45855 -0.357682 0
M  V30 3271 H 312.923 3.83214 -1.13961 0
M  V30 3272 H 314.363 4.23607 -0.182489 0
M  V30 3273 C 312.822 3.24062 0.921152 0
M  V30 3274 O 313.352 3.48813 1.9923 0
M  V30 3275 N 311.558 2.77539 0.86141 0
M  V30 3276 H 311.105 2.57598 -0.0104408 0
M  V30 3277 H 311.063 2.63337 1.71758 0
M  V30 3278 N 314.835 0.952656 1.25548 0
M  V30 3279 C 315.782 0.47008 2.25962 0
M  V30 3280 C 316.752 -0.476384 1.59122 0
M  V30 3281 O 317.937 -0.39007 1.8677 0
M  V30 3282 C 315.077 -0.247881 3.44209 0
M  V30 3283 C 314.19 0.735591 4.25691 0
M  V30 3284 C 313.325 -0.0047306 5.312 0
M  V30 3285 C 312.364 0.969805 6.04368 0
M  V30 3286 N 311.501 0.260486 7.01617 0
M  V30 3287 H 316.341 1.33126 2.66611 0
M  V30 3288 H 313.878 0.66765 1.31076 0
M  V30 3289 H 315.836 -0.680695 4.1161 0
M  V30 3290 H 314.466 -1.07312 3.0444 0
M  V30 3291 H 313.518 1.28689 3.57971 0
M  V30 3292 H 314.83 1.47934 4.76358 0
M  V30 3293 H 313.984 -0.496275 6.04667 0
M  V30 3294 H 312.723 -0.781282 4.81401 0
M  V30 3295 H 311.728 1.47237 5.29718 0
M  V30 3296 H 312.953 1.74655 6.56256 0
M  V30 3297 H 310.899 -0.497364 6.54112 0
M  V30 3298 H 310.816 0.943362 7.50091 0
M  V30 3299 H 312.084 -0.209587 7.79218 0
M  V30 3300 N 316.313 -1.40141 0.720998 0
M  V30 3301 C 317.562 -2.0002 0.259804 0
M  V30 3302 C 317.875 -1.57839 -1.15526 0
M  V30 3303 O 319.081 -2.10455 -1.71525 0
M  V30 3304 C 317.537 -3.57516 0.413566 0
M  V30 3305 C 317.145 -4.08667 1.83562 0
M  V30 3306 C 318.889 -4.24498 0.0134387 0
M  V30 3307 C 316.796 -5.58686 1.93968 0
M  V30 3308 H 315.726 -0.748195 0.0933806 0
M  V30 3309 H 318.377 -1.60313 0.892866 0
M  V30 3310 H 316.759 -3.9495 -0.288169 0
M  V30 3311 H 317.933 -3.82598 2.56817 0
M  V30 3312 H 316.248 -3.543 2.1877 0
M  V30 3313 H 318.845 -5.34654 0.0703954 0
M  V30 3314 H 319.188 -4.03375 -1.02927 0
M  V30 3315 H 319.721 -3.92188 0.665815 0
M  V30 3316 H 316.46 -5.8467 2.96379 0
M  V30 3317 H 315.98 -5.86602 1.25131 0
M  V30 3318 H 317.659 -6.23875 1.71431 0
M  V30 3319 N 317.792 -0.46758 -1.50504 0
M  V30 3320 C 319.041 0.0902868 -2.01498 0
M  V30 3321 C 319.354 1.411 -1.35463 0
M  V30 3322 O 320.56 2.0536 -1.77594 0
M  V30 3323 C 319.016 0.21142 -3.59278 0
M  V30 3324 C 318.624 -1.10065 -4.34269 0
M  V30 3325 C 320.368 0.721433 -4.18325 0
M  V30 3326 C 318.275 -0.943505 -5.83825 0
M  V30 3327 H 317.205 0.037517 -0.753066 0
M  V30 3328 H 319.856 -0.601943 -1.73346 0
M  V30 3329 H 318.238 0.967352 -3.84003 0
M  V30 3330 H 319.412 -1.86726 -4.21272 0
M  V30 3331 H 317.727 -1.5415 -3.86816 0
M  V30 3332 H 320.324 0.85598 -5.27804 0
M  V30 3333 H 320.667 1.71186 -3.79475 0
M  V30 3334 H 321.2 0.0229843 -3.97793 0
M  V30 3335 H 317.939 -1.90719 -6.27141 0
M  V30 3336 H 317.459 -0.217213 -5.99407 0
M  V30 3337 H 319.138 -0.608715 -6.4413 0
M  V30 3338 N 319.27 1.56325 -0.20005 0
M  V30 3339 C 320.233 2.18084 0.705132 0
M  V30 3340 C 321.233 1.13666 1.1374 0
M  V30 3341 O 322.423 1.39023 1.04968 0
M  V30 3342 C 319.555 2.78689 1.96329 0
M  V30 3343 H 320.748 2.99435 0.167023 0
M  V30 3344 H 318.301 1.56221 0.0495725 0
M  V30 3345 H 319.036 2.0115 2.5438 0
M  V30 3346 H 318.821 3.55133 1.66202 0
M  V30 3347 H 320.311 3.26096 2.60866 0
M  V30 3348 N 320.748 -0.0735177 1.57428 0
M  V30 3349 C 321.678 -1.0879 2.06608 0
M  V30 3350 C 322.659 -1.40473 0.959237 0
M  V30 3351 O 323.844 -1.5013 1.23185 0
M  V30 3352 C 320.974 -2.40183 2.50857 0
M  V30 3353 C 319.928 -2.22858 3.65402 0
M  V30 3354 C 319.254 -3.59619 3.957 0
M  V30 3355 C 320.554 -1.65123 4.95511 0
M  V30 3356 H 322.248 -0.678673 2.91607 0
M  V30 3357 H 319.794 -0.325013 1.40284 0
M  V30 3358 H 321.747 -3.11437 2.83874 0
M  V30 3359 H 320.471 -2.83083 1.62885 0
M  V30 3360 H 319.13 -1.54045 3.32664 0
M  V30 3361 H 318.778 -4.00086 3.04861 0
M  V30 3362 H 318.478 -3.48866 4.72828 0
M  V30 3363 H 320.002 -4.32306 4.31212 0
M  V30 3364 H 321.416 -2.26241 5.26771 0
M  V30 3365 H 319.813 -1.65071 5.7695 0
M  V30 3366 H 320.883 -0.612559 4.81015 0
M  V30 3367 N 322.226 -1.5378 -0.344866 0
M  V30 3368 C 323.474 -1.70625 -1.08311 0
M  V30 3369 C 323.795 -0.471447 -1.89215 0
M  V30 3370 O 323.065 0.514616 -1.8902 0
M  V30 3371 H 321.645 -0.629058 -0.402859 0
M  V30 3372 H 324.307 -1.9103 -0.386459 0
M  V30 3373 H 323.403 -2.57656 -1.76124 0
M  V30 3374 N 323.704 0.605807 -1.45491 0
M  V30 3375 C 324.654 1.71074 -1.50724 0
M  V30 3376 C 325.638 1.5658 -0.37033 0
M  V30 3377 O 326.83 1.65887 -0.617299 0
M  V30 3378 C 323.959 3.0983 -1.47852 0
M  V30 3379 C 323.045 3.29704 -2.66751 0
M  V30 3380 N 323.436 3.19831 -3.91844 0
M  V30 3381 C 321.734 3.60579 -2.62486 0
M  V30 3382 C 322.435 3.41083 -4.71208 0
M  V30 3383 N 321.411 3.65157 -4.02693 0
M  V30 3384 H 325.213 1.61937 -2.45263 0
M  V30 3385 H 322.727 0.80912 -1.40808 0
M  V30 3386 H 324.724 3.89101 -1.49686 0
M  V30 3387 H 323.384 3.20115 -0.543714 0
M  V30 3388 H 324.395 2.98194 -4.23439 0
M  V30 3389 H 321.072 3.7769 -1.77922 0
M  V30 3390 H 322.462 3.38828 -5.80211 0
M  V30 3391 N 325.182 1.32811 0.848464 0
M  V30 3392 C 326.407 1.26882 1.6406 0
M  V30 3393 C 326.832 -0.15913 1.87426 0
M  V30 3394 O 326.19 -1.11258 1.43148 0
M  V30 3395 C 326.238 2.03997 2.97351 0
M  V30 3396 O 325.342 1.39201 3.88197 0
M  V30 3397 H 324.683 0.436982 0.499943 0
M  V30 3398 H 327.213 1.75224 1.0563 0
M  V30 3399 H 327.223 2.14403 3.47124 0
M  V30 3400 H 325.898 3.0783 2.79666 0
M  V30 3401 H 324.475 1.37381 3.46671 0
M  V30 3402 N 326.66 -1.06551 1.16123 0
M  V30 3403 C 327.908 -1.78947 0.939267 0
M  V30 3404 C 328.229 -1.87532 -0.534476 0
M  V30 3405 O 327.499 -1.38211 -1.38833 0
M  V30 3406 H 326.079 -0.662807 0.344523 0
M  V30 3407 H 328.741 -1.28725 1.46342 0
M  V30 3408 H 327.837 -2.81117 1.35572 0
M  V30 3409 N 328.138 -0.959301 -1.25041 0
M  V30 3410 C 329.385 -0.616611 -1.92884 0
M  V30 3411 C 329.713 0.847036 -1.75087 0
M  V30 3412 O 328.968 1.62374 -1.09239 0
M  V30 3413 C 329.267 -0.927136 -3.45165 0
M  V30 3414 C 328.933 -2.37757 -3.83122 0
M  V30 3415 C 327.595 -2.77402 -3.93194 0
M  V30 3416 C 329.947 -3.31929 -4.01836 0
M  V30 3417 C 327.275 -4.10277 -4.19392 0
M  V30 3418 C 329.627 -4.64423 -4.29528 0
M  V30 3419 C 328.291 -5.03857 -4.37818 0
M  V30 3420 H 327.561 -0.225634 -0.705812 0
M  V30 3421 H 330.208 -1.20921 -1.48493 0
M  V30 3422 H 328.513 -0.252195 -3.90987 0
M  V30 3423 H 330.21 -0.6405 -3.95852 0
M  V30 3424 H 326.8 -2.06013 -3.75841 0
M  V30 3425 H 330.984 -3.02488 -3.93465 0
M  V30 3426 H 326.24 -4.40467 -4.24027 0
M  V30 3427 H 330.414 -5.37369 -4.42953 0
M  V30 3428 H 328.041 -6.06843 -4.57871 0
M  V30 3429 N 329.616 1.39756 -0.72842 0
M  V30 3430 C 330.526 2.34444 -0.0855374 0
M  V30 3431 C 331.542 1.57976 0.729356 0
M  V30 3432 O 332.718 1.90301 0.659346 0
M  V30 3433 C 329.783 3.36965 0.815798 0
M  V30 3434 C 328.844 4.29299 -0.0105996 0
M  V30 3435 C 328.077 5.26923 0.84781 0
M  V30 3436 O 328.3 5.30859 2.08673 0
M  V30 3437 O 327.234 6.01249 0.279969 0
M  V30 3438 H 331.06 2.91065 -0.866892 0
M  V30 3439 H 328.645 1.4117 -0.48902 0
M  V30 3440 H 330.527 3.99804 1.33171 0
M  V30 3441 H 329.202 2.82739 1.57608 0
M  V30 3442 H 328.109 3.69703 -0.571877 0
M  V30 3443 H 329.442 4.86712 -0.73295 0
M  V30 3444 N 331.094 0.475555 1.50254 0
M  V30 3445 C 332.027 -0.362381 2.25304 0
M  V30 3446 C 333.005 -0.992393 1.28803 0
M  V30 3447 O 334.189 -1.02746 1.58036 0
M  V30 3448 C 331.316 -1.50813 3.03271 0
M  V30 3449 C 330.362 -0.995044 4.1473 0
M  V30 3450 S 331.195 0.0938436 5.35418 0
M  V30 3451 C 332.351 -1.05567 6.16933 0
M  V30 3452 H 332.584 0.274686 2.96028 0
M  V30 3453 H 330.117 0.260495 1.52187 0
M  V30 3454 H 332.075 -2.16476 3.48781 0
M  V30 3455 H 330.736 -2.11672 2.32064 0
M  V30 3456 H 329.929 -1.85293 4.68703 0
M  V30 3457 H 329.531 -0.416052 3.71679 0
M  V30 3458 H 331.823 -1.96636 6.48337 0
M  V30 3459 H 332.766 -0.555109 7.05921 0
M  V30 3460 H 333.174 -1.31151 5.49053 0
M  V30 3461 N 332.573 -1.56217 0.208337 0
M  V30 3462 C 333.85 -1.89739 -0.475234 0
M  V30 3463 C 334.23 -1.1238 -1.78701 0
M  V30 3464 O 333.578 -0.228979 -2.2735 0
M  V30 3465 C 333.788 -3.42289 -0.681101 0
M  V30 3466 C 335.136 -4.12789 -0.994507 0
M  V30 3467 O 336.16 -3.47814 -0.768357 0
M  V30 3468 O 335.019 -5.27649 -1.42299 0
M  V30 3469 H 332.113 -0.788478 -0.249461 0
M  V30 3470 H 334.659 -1.67855 0.249538 0
M  V30 3471 H 333.431 -3.90534 0.244722 0
M  V30 3472 H 333.054 -3.69909 -1.45785 0
M  V30 3473 N 334.051 0.0651679 -1.57465 0
M  V30 3474 C 334.998 1.07675 -2.04144 0
M  V30 3475 C 335.968 1.38071 -0.923335 0
M  V30 3476 O 337.153 1.49026 -1.19146 0
M  V30 3477 C 334.293 2.38337 -2.49579 0
M  V30 3478 C 333.406 2.14413 -3.75035 0
M  V30 3479 C 332.541 3.38686 -4.09225 0
M  V30 3480 C 331.58 3.10156 -5.27702 0
M  V30 3481 N 330.717 4.26778 -5.57499 0
M  V30 3482 H 335.557 0.671716 -2.90331 0
M  V30 3483 H 333.094 0.3201 -1.43575 0
M  V30 3484 H 335.052 3.14632 -2.73975 0
M  V30 3485 H 333.682 2.7663 -1.6636 0
M  V30 3486 H 332.734 1.2878 -3.57939 0
M  V30 3487 H 334.046 1.89344 -4.61466 0
M  V30 3488 H 333.2 4.23373 -4.34558 0
M  V30 3489 H 331.939 3.66837 -3.21374 0
M  V30 3490 H 330.944 2.23866 -5.02159 0
M  V30 3491 H 332.169 2.8332 -6.17176 0
M  V30 3492 H 330.115 4.54948 -4.72608 0
M  V30 3493 H 330.032 4.05005 -6.38362 0
M  V30 3494 H 331.3 5.12443 -5.87386 0
M  V30 3495 N 335.529 1.53961 0.336706 0
M  V30 3496 C 336.459 1.85417 1.41925 0
M  V30 3497 C 337.44 0.709856 1.5458 0
M  V30 3498 O 338.625 0.962396 1.68676 0
M  V30 3499 C 335.755 2.06985 2.78881 0
M  V30 3500 C 334.709 3.22813 2.81026 0
M  V30 3501 C 334.035 3.29727 4.20932 0
M  V30 3502 C 335.335 4.60767 2.45949 0
M  V30 3503 H 337.029 2.76079 1.15848 0
M  V30 3504 H 334.575 1.32839 0.555859 0
M  V30 3505 H 336.528 2.27575 3.54665 0
M  V30 3506 H 335.252 1.13061 3.06406 0
M  V30 3507 H 333.911 3.0209 2.07695 0
M  V30 3508 H 333.559 2.33385 4.45579 0
M  V30 3509 H 333.259 4.07566 4.23277 0
M  V30 3510 H 334.783 3.52536 4.98549 0
M  V30 3511 H 336.197 4.81325 3.11446 0
M  V30 3512 H 334.594 5.4106 2.59566 0
M  V30 3513 H 335.664 4.6391 1.41122 0
M  V30 3514 N 337.007 -0.598083 1.45811 0
M  V30 3515 C 338.256 -1.35295 1.49594 0
M  V30 3516 C 338.569 -1.95057 0.145679 0
M  V30 3517 O 339.775 -2.71431 0.0612099 0
M  V30 3518 C 338.231 -2.45124 2.63519 0
M  V30 3519 C 337.839 -1.91732 4.04899 0
M  V30 3520 C 339.583 -3.2205 2.76558 0
M  V30 3521 C 337.49 -2.991 5.1019 0
M  V30 3522 H 336.42 -0.508552 0.556679 0
M  V30 3523 H 339.071 -0.639977 1.71978 0
M  V30 3524 H 337.453 -3.19149 2.34435 0
M  V30 3525 H 338.627 -1.24352 4.43704 0
M  V30 3526 H 336.942 -1.27522 3.96393 0
M  V30 3527 H 339.539 -4.0215 3.52391 0
M  V30 3528 H 339.882 -3.73663 1.83526 0
M  V30 3529 H 340.415 -2.55127 3.05213 0
M  V30 3530 H 337.154 -2.52393 6.04961 0
M  V30 3531 H 336.674 -3.65017 4.75944 0
M  V30 3532 H 338.353 -3.63318 5.35359 0
M  V30 3533 N 338.485 -1.33259 -0.841409 0
M  V30 3534 C 339.448 -1.23221 -1.9326 0
M  V30 3535 C 340.448 -0.151895 -1.60081 0
M  V30 3536 O 341.638 -0.403246 -1.69468 0
M  V30 3537 C 338.77 -0.898123 -3.28856 0
M  V30 3538 H 339.963 -2.2021 -2.03587 0
M  V30 3539 H 337.516 -1.17281 -1.03319 0
M  V30 3540 H 338.251 0.0693841 -3.24226 0
M  V30 3541 H 338.036 -1.67934 -3.54317 0
M  V30 3542 H 339.526 -0.852563 -4.08805 0
M  V30 3543 N 339.963 1.05934 -1.16686 0
M  V30 3544 C 340.895 2.13468 -0.834503 0
M  V30 3545 C 341.908 1.62013 0.15984 0
M  V30 3546 O 343.097 1.7838 -0.0654228 0
M  V30 3547 C 340.197 3.3817 -0.222361 0
M  V30 3548 C 339.37 4.18928 -1.25771 0
M  V30 3549 C 338.429 5.21985 -0.664703 0
M  V30 3550 O 337.455 5.53334 -1.33453 0
M  V30 3551 N 338.657 5.77919 0.546834 0
M  V30 3552 H 341.422 2.42578 -1.75999 0
M  V30 3553 H 338.983 1.21967 -1.06469 0
M  V30 3554 H 340.975 4.04266 0.187472 0
M  V30 3555 H 339.545 3.06655 0.606758 0
M  V30 3556 H 338.765 3.48433 -1.84358 0
M  V30 3557 H 340.053 4.69687 -1.95631 0
M  V30 3558 H 339.451 5.54721 1.10912 0
M  V30 3559 H 338.008 6.45573 0.898829 0
M  V30 3560 N 341.441 0.965919 1.2453 0
M  V30 3561 C 342.388 0.49402 2.25451 0
M  V30 3562 C 343.358 -0.45948 1.59618 0
M  V30 3563 O 344.543 -0.370238 1.87173 0
M  V30 3564 C 341.683 -0.211359 3.44452 0
M  V30 3565 C 340.796 0.7807 4.24887 0
M  V30 3566 C 339.931 0.0516105 5.31175 0
M  V30 3567 C 338.97 1.03385 6.03306 0
M  V30 3568 N 338.107 0.334887 7.01301 0
M  V30 3569 H 342.947 1.35946 2.65184 0
M  V30 3570 H 340.484 0.681515 1.3036 0
M  V30 3571 H 342.442 -0.637 4.12308 0
M  V30 3572 H 341.072 -1.04077 3.05562 0
M  V30 3573 H 340.124 1.32479 3.56586 0
M  V30 3574 H 341.436 1.52978 4.74762 0
M  V30 3575 H 340.59 -0.432114 6.05159 0
M  V30 3576 H 339.329 -0.730179 4.82203 0
M  V30 3577 H 338.334 1.52847 5.28127 0
M  V30 3578 H 339.559 1.81606 6.54367 0
M  V30 3579 H 337.505 -0.427959 6.54603 0
M  V30 3580 H 337.422 1.02287 7.49048 0
M  V30 3581 H 338.69 -0.126928 7.79397 0
M  V30 3582 N 342.919 -1.39368 0.735821 0
M  V30 3583 C 344.165 -2.00794 0.284544 0
M  V30 3584 C 344.498 -1.58255 -1.12557 0
M  V30 3585 O 343.773 -0.811819 -1.76748 0
M  V30 3586 C 344.056 -3.58011 0.387337 0
M  V30 3587 C 343.909 -4.10566 1.83728 0
M  V30 3588 C 345.228 -4.395 -0.22975 0
M  V30 3589 H 342.347 -0.729501 0.104866 0
M  V30 3590 H 344.989 -1.65564 0.93213 0
M  V30 3591 H 343.139 -3.88154 -0.164006 0
M  V30 3592 H 344.811 -3.91139 2.44556 0
M  V30 3593 H 343.054 -3.64095 2.35833 0
M  V30 3594 H 343.725 -5.19702 1.86047 0
M  V30 3595 H 346.201 -4.15406 0.240257 0
M  V30 3596 H 345.077 -5.48752 -0.127485 0
M  V30 3597 H 345.338 -4.22062 -1.3159 0
M  V30 3598 N 344.397 -0.483516 -1.5 0
M  V30 3599 C 345.813 -0.138404 -1.58999 0
M  V30 3600 C 346.013 1.35597 -1.4905 0
M  V30 3601 O 345.069 2.13039 -1.35539 0
M  V30 3602 C 346.382 -0.699658 -2.92447 0
M  V30 3603 C 347.93 -0.664195 -3.05872 0
M  V30 3604 C 348.405 -1.20321 -4.41913 0
M  V30 3605 N 349.896 -1.16315 -4.48358 0
M  V30 3606 C 350.631 -1.55058 -5.52037 0
M  V30 3607 N 350.127 -2.01311 -6.62907 0
M  V30 3608 N 351.92 -1.46584 -5.42651 0
M  V30 3609 H 344.071 -1.45529 -1.5471 0
M  V30 3610 H 346.334 -0.60258 -0.731848 0
M  V30 3611 H 346.04 -1.747 -3.05242 0
M  V30 3612 H 345.914 -0.150194 -3.76901 0
M  V30 3613 H 348.301 0.374272 -2.92717 0
M  V30 3614 H 348.382 -1.25061 -2.23144 0
M  V30 3615 H 348.026 -2.24037 -4.55818 0
M  V30 3616 H 347.956 -0.592896 -5.23252 0
M  V30 3617 H 350.447 -0.824058 -3.68806 0
M  V30 3618 H 350.76 -2.2899 -7.38095 0
M  V30 3619 H 349.105 -2.05273 -6.63994 0
M  V30 3620 H 352.296 -1.10281 -4.54924 0
M  V30 3621 H 352.469 -1.77103 -6.23329 0
M  V30 3622 N 345.875 1.56104 -0.216619 0
M  V30 3623 C 347.123 1.97781 0.415593 0
M  V30 3624 C 347.444 1.10536 1.60645 0
M  V30 3625 O 346.714 0.181303 1.95059 0
M  V30 3626 H 345.294 0.730415 0.156534 0
M  V30 3627 H 347.956 1.92445 -0.308366 0
M  V30 3628 H 347.052 3.03072 0.74525 0
M  V30 3629 N 347.353 -0.0568162 1.57498 0
M  V30 3630 C 348.599 -0.75422 1.88253 0
M  V30 3631 C 348.932 -1.76461 0.810865 0
M  V30 3632 O 348.207 -1.93691 -0.177259 0
M  V30 3633 C 348.49 -1.44878 3.2967 0
M  V30 3634 C 348.343 -0.453789 4.47505 0
M  V30 3635 C 349.662 -2.38994 3.69554 0
M  V30 3636 H 346.781 -0.272724 0.684683 0
M  V30 3637 H 349.423 -0.0172113 1.89992 0
M  V30 3638 H 347.573 -2.077 3.28318 0
M  V30 3639 H 349.245 0.170371 4.60985 0
M  V30 3640 H 347.488 0.229552 4.33192 0
M  V30 3641 H 348.159 -0.977699 5.43273 0
M  V30 3642 H 350.635 -1.86239 3.72095 0
M  V30 3643 H 349.511 -2.84587 4.69363 0
M  V30 3644 H 349.772 -3.24461 3.00296 0
M  V30 3645 N 348.832 -1.54138 -0.328536 0
M  V30 3646 C 350.109 -1.62749 -1.08499 0
M  V30 3647 C 350.489 -0.458198 -2.06067 0
M  V30 3648 O 349.837 0.548046 -2.2183 0
M  V30 3649 C 350.047 -2.99519 -1.79135 0
M  V30 3650 C 351.395 -3.55394 -2.32337 0
M  V30 3651 O 352.419 -3.01792 -1.89209 0
M  V30 3652 O 351.278 -4.49186 -3.11279 0
M  V30 3653 H 348.372 -0.65886 -0.499832 0
M  V30 3654 H 350.918 -1.66484 -0.328826 0
M  V30 3655 H 349.69 -3.76061 -1.08139 0
M  V30 3656 H 349.313 -2.99441 -2.61574 0
M  V30 3657 N 350.31 0.590341 -1.46126 0
M  V30 3658 C 351.556 1.35082 -1.51264 0
M  V30 3659 C 351.889 1.93534 -0.160711 0
M  V30 3660 O 351.164 1.76045 0.826956 0
M  V30 3661 C 351.447 2.48588 -2.6053 0
M  V30 3662 C 351.3 1.95221 -4.05227 0
M  V30 3663 C 352.619 3.50662 -2.6594 0
M  V30 3664 H 349.738 0.489803 -0.550692 0
M  V30 3665 H 352.38 0.663887 -1.78024 0
M  V30 3666 H 350.53 3.07186 -2.37843 0
M  V30 3667 H 352.202 1.41139 -4.39178 0
M  V30 3668 H 350.445 1.26101 -4.15068 0
M  V30 3669 H 351.116 2.77121 -4.77397 0
M  V30 3670 H 353.592 3.01934 -2.86313 0
M  V30 3671 H 352.468 4.27551 -3.44226 0
M  V30 3672 H 352.729 4.07399 -1.71694 0
M  V30 3673 N 351.788 1.33704 0.83433 0
M  V30 3674 C 353.034 1.25603 1.59222 0
M  V30 3675 C 353.367 -0.176659 1.93395 0
M  V30 3676 O 352.642 -1.11915 1.59076 0
M  V30 3677 C 352.925 2.13576 2.89926 0
M  V30 3678 C 352.778 3.65326 2.62406 0
M  V30 3679 C 354.097 2.01238 3.91397 0
M  V30 3680 H 351.216 0.457613 0.577719 0
M  V30 3681 H 353.858 1.63848 0.961972 0
M  V30 3682 H 352.008 1.8109 3.43713 0
M  V30 3683 H 353.68 4.08124 2.15017 0
M  V30 3684 H 351.923 3.8698 1.96033 0
M  V30 3685 H 352.594 4.22232 3.55562 0
M  V30 3686 H 355.07 2.29738 3.46929 0
M  V30 3687 H 353.946 2.65036 4.80673 0
M  V30 3688 H 354.207 0.985951 4.30966 0
M  V30 3689 N 353.266 -1.05314 1.17247 0
M  V30 3690 C 354.512 -1.78557 0.961513 0
M  V30 3691 C 354.845 -1.87419 -0.508697 0
M  V30 3692 O 354.12 -1.37307 -1.37757 0
M  V30 3693 C 354.403 -3.22514 1.60176 0
M  V30 3694 C 354.256 -3.21673 3.14399 0
M  V30 3695 C 355.575 -4.20318 1.30463 0
M  V30 3696 H 352.694 -0.6482 0.350723 0
M  V30 3697 H 355.336 -1.23102 1.44727 0
M  V30 3698 H 353.486 -3.69867 1.18871 0
M  V30 3699 H 355.158 -2.82405 3.64753 0
M  V30 3700 H 353.401 -2.60048 3.47214 0
M  V30 3701 H 354.072 -4.23271 3.54324 0
M  V30 3702 H 356.548 -3.81454 1.66229 0
M  V30 3703 H 355.424 -5.19289 1.77848 0
M  V30 3704 H 355.685 -4.41526 0.22521 0
M  V30 3705 N 354.744 -0.972509 -1.24016 0
M  V30 3706 C 355.992 -0.635776 -1.91839 0
M  V30 3707 C 356.313 0.832312 -1.76345 0
M  V30 3708 O 355.583 1.5946 -1.13795 0
M  V30 3709 H 354.163 -0.232157 -0.710009 0
M  V30 3710 H 356.825 -1.23462 -1.50809 0
M  V30 3711 H 355.921 -0.880545 -2.99421 0
M  V30 3712 N 356.222 1.38976 -0.743202 0
M  V30 3713 C 357.47 1.99948 -0.29417 0
M  V30 3714 C 357.791 1.59279 1.12495 0
M  V30 3715 O 357.061 0.844808 1.76748 0
M  V30 3716 H 355.641 0.739473 -0.105774 0
M  V30 3717 H 358.303 1.699 -0.954986 0
M  V30 3718 H 357.399 3.10142 -0.349056 0
M  V30 3719 N 357.7 0.491464 1.49741 0
M  V30 3720 C 358.65 -0.311086 2.25868 0
M  V30 3721 C 359.634 -0.943857 1.30308 0
M  V30 3722 O 360.826 -0.853035 1.55088 0
M  V30 3723 C 357.955 -1.38059 3.14316 0
M  V30 3724 C 357.041 -0.754541 4.17334 0
M  V30 3725 N 357.432 0.137216 5.05614 0
M  V30 3726 C 355.73 -1.01621 4.34269 0
M  V30 3727 C 356.431 0.494614 5.79593 0
M  V30 3728 N 355.407 -0.135169 5.43432 0
M  V30 3729 H 359.209 0.37555 2.91491 0
M  V30 3730 H 356.723 0.306917 1.59473 0
M  V30 3731 H 358.72 -1.96891 3.67477 0
M  V30 3732 H 357.38 -2.06901 2.50244 0
M  V30 3733 H 358.391 0.50741 5.15408 0
M  V30 3734 H 355.068 -1.69808 3.81407 0
M  V30 3735 H 356.458 1.2236 6.60665 0
M  V30 3736 N 359.178 -1.55987 0.224894 0
M  V30 3737 C 360.403 -2.03232 -0.41369 0
M  V30 3738 C 360.828 -1.10359 -1.52323 0
M  V30 3739 O 360.186 -0.092395 -1.81064 0
M  V30 3740 C 360.234 -3.48682 -0.919405 0
M  V30 3741 O 359.338 -3.58947 -2.03054 0
M  V30 3742 H 358.679 -0.657428 -0.0931903 0
M  V30 3743 H 361.209 -2.01679 0.34451 0
M  V30 3744 H 361.219 -3.8907 -1.22835 0
M  V30 3745 H 359.894 -4.15761 -0.107339 0
M  V30 3746 H 358.471 -3.30448 -1.72796 0
M  V30 3747 N 360.656 0.0484629 -1.57525 0
M  V30 3748 C 361.604 1.07359 -2.06341 0
M  V30 3749 C 362.598 1.3865 -0.973269 0
M  V30 3750 O 363.804 1.37783 -1.15827 0
M  V30 3751 H 360.179 0.363662 -0.65822 0
M  V30 3752 H 362.15 0.635916 -2.91545 0
M  V30 3753 C 360.899 2.37198 -2.54229 0
M  V30 3754 H 360.222 2.13977 -3.37719 0
M  V30 3755 H 361.662 3.07319 -2.92115 0
M  V30 3756 C 360.121 3.04805 -1.43511 0
M  V30 3757 O 360.651 3.93848 -0.79034 0
M  V30 3758 N 358.857 2.65811 -1.17444 0
M  V30 3759 H 358.404 1.93488 -1.70059 0
M  V30 3760 H 358.362 3.11366 -0.435737 0
M  V30 3761 N 362.134 1.5431 0.320358 0
M  V30 3762 C 363.362 1.76636 1.07738 0
M  V30 3763 C 363.777 0.51649 1.81598 0
M  V30 3764 O 363.134 -0.512942 1.75143 0
M  V30 3765 C 363.185 2.96158 2.07299 0
M  V30 3766 O 362.906 4.16313 1.36438 0
M  V30 3767 C 364.407 3.3072 2.95193 0
M  V30 3768 H 361.627 0.589597 0.320339 0
M  V30 3769 H 364.171 2.01207 0.36551 0
M  V30 3770 H 362.326 2.73851 2.74016 0
M  V30 3771 H 362.74 4.83565 2.03138 0
M  V30 3772 H 364.214 4.17643 3.60941 0
M  V30 3773 H 364.691 2.48026 3.62463 0
M  V30 3774 H 365.297 3.55117 2.34034 0
M  V30 3775 N 363.613 -0.582584 1.46437 0
M  V30 3776 C 364.86 -1.34079 1.51753 0
M  V30 3777 C 365.188 -1.93762 0.169299 0
M  V30 3778 O 364.443 -1.76989 -0.835062 0
M  V30 3779 C 364.742 -2.48964 2.56421 0
M  V30 3780 C 364.408 -2.07273 4.00436 0
M  V30 3781 C 363.07 -1.95618 4.39644 0
M  V30 3782 C 365.422 -1.75111 4.90903 0
M  V30 3783 C 362.75 -1.5006 5.67185 0
M  V30 3784 C 365.102 -1.31032 6.18881 0
M  V30 3785 C 363.766 -1.17954 6.56996 0
M  V30 3786 H 363.036 -0.49063 0.555304 0
M  V30 3787 H 365.683 -0.656007 1.79913 0
M  V30 3788 H 363.988 -3.22889 2.21923 0
M  V30 3789 H 365.685 -3.07178 2.57765 0
M  V30 3790 H 362.275 -2.17279 3.69443 0
M  V30 3791 H 366.459 -1.83001 4.61329 0
M  V30 3792 H 361.715 -1.38577 5.95488 0
M  V30 3793 H 365.889 -1.052 6.88408 0
M  V30 3794 H 363.516 -0.824279 7.55718 0
M  V30 3795 N 365.091 -1.34144 -0.827227 0
M  V30 3796 C 366.021 -1.28005 -1.95287 0
M  V30 3797 C 367.002 -0.158321 -1.69362 0
M  V30 3798 O 368.187 -0.349987 -1.9102 0
M  V30 3799 C 365.317 -1.03036 -3.31664 0
M  V30 3800 C 364.271 -2.11628 -3.72019 0
M  V30 3801 C 363.597 -1.71854 -5.0633 0
M  V30 3802 C 364.897 -3.53417 -3.8457 0
M  V30 3803 H 366.591 -2.22187 -2.00682 0
M  V30 3804 H 364.137 -1.0696 -0.964135 0
M  V30 3805 H 366.09 -0.973863 -4.09993 0
M  V30 3806 H 364.814 -0.0529391 -3.26557 0
M  V30 3807 H 363.473 -2.16339 -2.95961 0
M  V30 3808 H 363.121 -0.727841 -4.97706 0
M  V30 3809 H 362.821 -2.44531 -5.34302 0
M  V30 3810 H 364.345 -1.67692 -5.87122 0
M  V30 3811 H 365.759 -3.51142 -4.5318 0
M  V30 3812 H 364.156 -4.24679 -4.2399 0
M  V30 3813 H 365.226 -3.91072 -2.86689 0
M  V30 3814 N 366.569 1.04691 -1.17803 0
M  V30 3815 C 367.799 1.81183 -0.992788 0
M  V30 3816 C 368.207 1.8347 0.462098 0
M  V30 3817 O 367.55 1.2643 1.33271 0
M  V30 3818 C 367.612 3.28363 -1.46349 0
M  V30 3819 C 367.276 3.49749 -2.94151 0
M  V30 3820 C 368.273 3.41456 -3.92051 0
M  V30 3821 C 365.958 3.76548 -3.32441 0
M  V30 3822 C 367.952 3.59656 -5.26238 0
M  V30 3823 C 365.639 3.94396 -4.66792 0
M  V30 3824 C 366.637 3.8595 -5.635 0
M  V30 3825 O 366.325 4.03294 -6.9542 0
M  V30 3826 H 366.057 0.577622 -0.351182 0
M  V30 3827 H 368.611 1.32876 -1.5663 0
M  V30 3828 H 366.841 3.77609 -0.833574 0
M  V30 3829 H 368.53 3.86395 -1.24313 0
M  V30 3830 H 369.296 3.20723 -3.63815 0
M  V30 3831 H 365.175 3.82224 -2.57732 0
M  V30 3832 H 368.719 3.52979 -6.01707 0
M  V30 3833 H 364.616 4.14622 -4.94731 0
M  V30 3834 H 365.384 4.2049 -7.02232 0
M  V30 3835 N 368.047 0.979072 1.23499 0
M  V30 3836 C 369.275 0.665202 1.95915 0
M  V30 3837 C 369.69 -0.767571 1.72493 0
M  V30 3838 O 369.047 -1.51635 1.01554 0
M  V30 3839 C 369.098 0.944438 3.48945 0
M  V30 3840 O 368.819 2.3209 3.71572 0
M  V30 3841 C 370.32 0.646336 4.38563 0
M  V30 3842 H 367.54 0.247218 0.623798 0
M  V30 3843 H 370.084 1.31009 1.57025 0
M  V30 3844 H 368.239 0.345575 3.85856 0
M  V30 3845 H 368.653 2.40957 4.65876 0
M  V30 3846 H 370.127 0.892091 5.44744 0
M  V30 3847 H 370.604 -0.419575 4.37191 0
M  V30 3848 H 371.21 1.22562 4.07258 0
M  V30 3849 N 369.525 -1.3858 0.750561 0
M  V30 3850 C 370.773 -1.99789 0.30477 0
M  V30 3851 C 371.094 -1.59874 -1.11649 0
M  V30 3852 O 370.364 -0.85417 -1.76297 0
M  V30 3853 H 368.944 -0.738902 0.109694 0
M  V30 3854 H 371.606 -1.69391 0.963983 0
M  V30 3855 H 370.702 -3.09952 0.365499 0
M  V30 3856 N 371.003 -0.499398 -1.49478 0
M  V30 3857 C 371.951 0.293604 -2.3074 0
M  V30 3858 C 372.945 0.96427 -1.39277 0
M  V30 3859 O 374.151 0.892141 -1.56336 0
M  V30 3860 H 370.526 0.113541 -0.743379 0
M  V30 3861 H 372.497 -0.411772 -2.95545 0
M  V30 3862 C 371.246 1.3462 -3.20582 0
M  V30 3863 H 370.569 0.83954 -3.90886 0
M  V30 3864 H 372.009 1.87308 -3.80384 0
M  V30 3865 C 370.468 2.36351 -2.40083 0
M  V30 3866 O 370.998 3.422 -2.10385 0
M  V30 3867 N 369.204 2.0878 -2.02137 0
M  V30 3868 H 368.751 1.22723 -2.26488 0
M  V30 3869 H 368.709 2.77075 -1.48583 0
M  V30 3870 N 372.481 1.55866 -0.233164 0
M  V30 3871 C 373.892 1.847 0.272554 0
M  V30 3872 C 374.243 1.15477 1.58617 0
M  V30 3873 O 373.368 0.42841 2.12117 0
M  V30 3874 C 373.963 3.35071 0.501299 0
M  V30 3875 C 372.522 3.6418 0.951304 0
M  V30 3876 C 371.669 2.77292 0.0208209 0
M  V30 3877 H 374.62 1.52005 -0.456074 0
M  V30 3878 H 374.641 3.55906 1.34577 0
M  V30 3879 H 374.153 3.85424 -0.454936 0
M  V30 3880 H 372.254 3.19293 1.92049 0
M  V30 3881 H 372.367 4.72071 0.817675 0
M  V30 3882 H 370.731 2.49131 0.529723 0
M  V30 3883 H 371.514 3.30448 -0.93054 0
M  V30 3884 N 373.959 -0.0401083 1.57549 0
M  V30 3885 C 375.37 -0.588097 1.77196 0
M  V30 3886 C 375.721 -1.76209 0.862832 0
M  V30 3887 O 374.846 -2.16331 0.0548389 0
M  V30 3888 C 375.441 -1.07363 3.21339 0
M  V30 3889 C 374 -1.56723 3.42221 0
M  V30 3890 C 373.147 -0.50041 2.72747 0
M  V30 3891 H 376.098 0.186119 1.57605 0
M  V30 3892 H 376.119 -1.94143 3.27244 0
M  V30 3893 H 375.631 -0.218975 3.87482 0
M  V30 3894 H 373.732 -2.4441 2.81237 0
M  V30 3895 H 373.845 -1.62234 4.50796 0
M  V30 3896 H 372.209 -0.952894 2.36203 0
M  V30 3897 H 372.992 0.344599 3.41566 0
M  V30 3898 N 375.437 -1.54477 -0.31217 0
M  V30 3899 C 376.662 -1.77526 -1.07235 0
M  V30 3900 C 377.087 -0.527775 -1.80544 0
M  V30 3901 O 376.445 0.52121 -1.73646 0
M  V30 3902 C 376.493 -2.97535 -2.03728 0
M  V30 3903 O 375.597 -2.69878 -3.11833 0
M  V30 3904 H 374.938 -0.58792 -0.30862 0
M  V30 3905 H 377.468 -2.01532 -0.352993 0
M  V30 3906 H 377.478 -3.25198 -2.46395 0
M  V30 3907 H 376.153 -3.87996 -1.49774 0
M  V30 3908 H 374.73 -2.53199 -2.7376 0
M  V30 3909 N 376.915 0.57481 -1.46744 0
M  V30 3910 C 377.862 1.68329 -1.57905 0
M  V30 3911 C 378.832 1.60625 -0.422927 0
M  V30 3912 O 380.017 1.79721 -0.640711 0
M  V30 3913 C 377.157 3.06665 -1.58274 0
M  V30 3914 C 376.27 3.24935 -2.84678 0
M  V30 3915 C 375.405 4.53566 -2.76499 0
M  V30 3916 C 374.444 4.65207 -3.97806 0
M  V30 3917 N 373.581 5.85172 -3.87967 0
M  V30 3918 H 378.421 1.58127 -2.52587 0
M  V30 3919 H 375.958 0.770552 -1.25303 0
M  V30 3920 H 377.916 3.86745 -1.56473 0
M  V30 3921 H 376.546 3.15745 -0.671194 0
M  V30 3922 H 375.598 2.38405 -2.96424 0
M  V30 3923 H 376.91 3.29403 -3.7456 0
M  V30 3924 H 376.064 5.41885 -2.72848 0
M  V30 3925 H 374.803 4.51548 -1.8427 0
M  V30 3926 H 373.808 3.75304 -4.0178 0
M  V30 3927 H 375.033 4.68997 -4.9114 0
M  V30 3928 H 372.979 5.84137 -2.98529 0
M  V30 3929 H 372.896 5.90943 -4.71511 0
M  V30 3930 H 374.164 6.759 -3.88303 0
M  V30 3931 N 378.394 1.34581 0.820102 0
M  V30 3932 C 379.304 1.28471 1.96297 0
M  V30 3933 C 380.32 0.191902 1.72939 0
M  V30 3934 O 381.496 0.418879 1.96996 0
M  V30 3935 C 378.561 1.04281 3.30645 0
M  V30 3936 C 377.622 2.22745 3.66992 0
M  V30 3937 C 376.855 1.997 4.9493 0
M  V30 3938 O 377.078 0.956656 5.6232 0
M  V30 3939 O 376.012 2.86723 5.2922 0
M  V30 3940 H 379.838 2.24624 2.04396 0
M  V30 3941 H 377.423 1.14816 0.955913 0
M  V30 3942 H 379.305 0.925841 4.11104 0
M  V30 3943 H 377.98 0.111697 3.23507 0
M  V30 3944 H 376.887 2.40003 2.86966 0
M  V30 3945 H 378.22 3.14257 3.78819 0
M  V30 3946 N 379.872 -1.04064 1.18357 0
M  V30 3947 C 381.118 -1.77528 0.980397 0
M  V30 3948 C 381.451 -1.87948 -0.48879 0
M  V30 3949 O 380.726 -1.3876 -1.36293 0
M  V30 3950 C 381.009 -3.20797 1.63588 0
M  V30 3951 C 380.862 -3.1832 3.17793 0
M  V30 3952 C 382.181 -4.18911 1.34914 0
M  V30 3953 H 379.3 -0.644443 0.357578 0
M  V30 3954 H 381.942 -1.2156 1.46024 0
M  V30 3955 H 380.092 -3.68586 1.22788 0
M  V30 3956 H 381.764 -2.78521 3.67728 0
M  V30 3957 H 380.007 -2.56351 3.49952 0
M  V30 3958 H 380.678 -4.19489 3.58794 0
M  V30 3959 H 383.154 -3.7967 1.70265 0
M  V30 3960 H 382.03 -5.17374 1.83346 0
M  V30 3961 H 382.291 -4.41262 0.272027 0
M  V30 3962 N 381.35 -0.985608 -1.22978 0
M  V30 3963 C 382.761 -0.693593 -1.73338 0
M  V30 3964 C 383.112 0.789935 -1.79595 0
M  V30 3965 O 382.237 1.61771 -1.43733 0
M  V30 3966 C 382.832 -1.25235 -3.14804 0
M  V30 3967 C 381.391 -1.00987 -3.626 0
M  V30 3968 C 380.538 -1.37695 -2.40698 0
M  V30 3969 H 383.489 -1.15884 -1.08428 0
M  V30 3970 H 383.51 -0.627329 -3.75293 0
M  V30 3971 H 383.022 -2.33209 -3.10218 0
M  V30 3972 H 381.123 0.0535565 -3.72562 0
M  V30 3973 H 381.236 -1.66812 -4.49122 0
M  V30 3974 H 379.6 -0.795459 -2.4196 0
M  V30 3975 H 380.383 -2.46657 -2.38779 0
M  V30 3976 N 382.828 1.3818 -0.7579 0
M  V30 3977 C 383.791 2.28764 -0.141286 0
M  V30 3978 C 384.791 1.47388 0.642907 0
M  V30 3979 O 385.981 1.67781 0.468536 0
M  V30 3980 C 383.113 3.31184 0.808069 0
M  V30 3981 H 384.306 2.848 -0.939633 0
M  V30 3982 H 381.859 1.47212 -0.525191 0
M  V30 3983 H 382.594 2.80247 1.63193 0
M  V30 3984 H 382.379 3.91314 0.248104 0
M  V30 3985 H 383.869 3.98909 1.23536 0
M  V30 3986 N 384.306 0.507319 1.49211 0
M  V30 3987 C 385.554 -0.0348839 2.0207 0
M  V30 3988 C 385.875 -1.36898 1.38866 0
M  V30 3989 O 385.145 -1.88133 0.546151 0
M  V30 3990 H 383.725 -0.0158812 0.746831 0
M  V30 3991 H 386.387 0.665998 1.83168 0
M  V30 3992 H 385.483 -0.159917 3.1169 0
M  V30 3993 N 385.784 -1.5574 0.241426 0
M  V30 3994 C 386.731 -2.21149 -0.660432 0
M  V30 3995 C 387.701 -1.17356 -1.17545 0
M  V30 3996 O 388.886 -1.45784 -1.23093 0
M  V30 3997 C 386.026 -2.91059 -1.85414 0
M  V30 3998 C 385.139 -4.09495 -1.37616 0
M  V30 3999 C 384.274 -4.67135 -2.529 0
M  V30 4000 C 383.313 -5.77831 -2.01936 0
M  V30 4001 N 382.45 -6.29677 -3.10566 0
M  V30 4002 H 387.29 -2.97845 -0.095955 0
M  V30 4003 H 384.827 -1.47057 -0.0356024 0
M  V30 4004 H 386.785 -3.29788 -2.5553 0
M  V30 4005 H 385.415 -2.16846 -2.39118 0
M  V30 4006 H 384.467 -3.76117 -0.569235 0
M  V30 4007 H 385.779 -4.89423 -0.962618 0
M  V30 4008 H 384.933 -5.08409 -3.31067 0
M  V30 4009 H 383.672 -3.86411 -2.97553 0
M  V30 4010 H 382.677 -5.36039 -1.22238 0
M  V30 4011 H 383.902 -6.60402 -1.58259 0
M  V30 4012 H 381.848 -5.5186 -3.54664 0
M  V30 4013 H 381.765 -7.04783 -2.73526 0
M  V30 4014 H 383.033 -6.75609 -3.88809 0
M  V30 4015 N 387.262 0.0317525 -1.57568 0
M  V30 4016 C 388.492 0.733884 -1.93126 0
M  V30 4017 C 388.9 1.69563 -0.839352 0
M  V30 4018 O 388.243 1.82681 0.193175 0
M  V30 4019 C 388.305 1.54798 -3.24465 0
M  V30 4020 C 387.969 0.751304 -4.50782 0
M  V30 4021 C 388.966 0.0527632 -5.19873 0
M  V30 4022 C 386.651 0.706639 -4.97305 0
M  V30 4023 C 388.645 -0.679774 -6.33765 0
M  V30 4024 C 386.332 -0.0296449 -6.11093 0
M  V30 4025 C 387.33 -0.721614 -6.79177 0
M  V30 4026 O 387.018 -1.44595 -7.90789 0
M  V30 4027 H 386.75 0.211459 -0.642076 0
M  V30 4028 H 389.304 -0.00585615 -2.05399 0
M  V30 4029 H 387.534 2.33147 -3.08512 0
M  V30 4030 H 389.223 2.13247 -3.4537 0
M  V30 4031 H 389.989 0.0783188 -4.84937 0
M  V30 4032 H 385.868 1.23474 -4.44157 0
M  V30 4033 H 389.412 -1.22042 -6.86842 0
M  V30 4034 H 385.309 -0.0571331 -6.45475 0
M  V30 4035 H 386.077 -1.35935 -8.07133 0
M  V30 4036 N 388.74 1.54641 0.303973 0
M  V30 4037 C 390.151 1.64811 0.877163 0
M  V30 4038 C 390.502 0.554838 1.88191 0
M  V30 4039 O 389.627 -0.309033 2.14182 0
M  V30 4040 C 390.222 2.9876 1.59775 0
M  V30 4041 C 388.781 3.11061 2.11938 0
M  V30 4042 C 387.928 2.60479 0.951097 0
M  V30 4043 H 390.879 1.58493 0.0810486 0
M  V30 4044 H 390.9 2.90017 2.46314 0
M  V30 4045 H 390.412 3.7831 0.866226 0
M  V30 4046 H 388.513 2.36225 2.88146 0
M  V30 4047 H 388.626 4.17171 2.35595 0
M  V30 4048 H 386.99 2.16859 1.33583 0
M  V30 4049 H 387.773 3.42504 0.233581 0
M  V30 4050 N 390.218 -0.567019 1.47046 0
M  V30 4051 C 391.465 -1.32462 1.53167 0
M  V30 4052 C 391.793 -1.93571 0.189841 0
M  V30 4053 O 391.048 -1.77865 -0.816243 0
M  V30 4054 C 391.347 -2.4623 2.59047 0
M  V30 4055 C 391.013 -2.03014 4.02612 0
M  V30 4056 C 389.675 -1.90944 4.41694 0
M  V30 4057 C 392.027 -1.69895 4.92732 0
M  V30 4058 C 389.355 -1.44035 5.68745 0
M  V30 4059 C 391.707 -1.2446 6.20236 0
M  V30 4060 C 390.371 -1.10979 6.5821 0
M  V30 4061 H 389.641 -0.484713 0.560477 0
M  V30 4062 H 392.288 -0.636888 1.80599 0
M  V30 4063 H 390.593 -3.20517 2.25335 0
M  V30 4064 H 392.29 -3.04427 2.61008 0
M  V30 4065 H 388.88 -2.13348 3.71726 0
M  V30 4066 H 393.064 -1.78098 4.63244 0
M  V30 4067 H 388.32 -1.32254 5.96925 0
M  V30 4068 H 392.494 -0.978924 6.89485 0
M  V30 4069 H 390.121 -0.744078 7.5655 0
M  V30 4070 N 391.696 -1.35014 -0.812953 0
M  V30 4071 C 392.945 -1.27269 -1.56479 0
M  V30 4072 C 393.258 0.152771 -1.95002 0
M  V30 4073 O 394.464 0.352451 -2.69203 0
M  V30 4074 C 392.92 -2.23159 -2.82362 0
M  V30 4075 C 392.528 -3.71016 -2.511 0
M  V30 4076 C 394.272 -2.24342 -3.60376 0
M  V30 4077 C 392.179 -4.58746 -3.73237 0
M  V30 4078 H 391.109 -0.472829 -0.587324 0
M  V30 4079 H 393.76 -1.6024 -0.894171 0
M  V30 4080 H 392.142 -1.83151 -3.51101 0
M  V30 4081 H 393.316 -4.1962 -1.90409 0
M  V30 4082 H 391.631 -3.72378 -1.86343 0
M  V30 4083 H 394.228 -2.87107 -4.51081 0
M  V30 4084 H 394.571 -1.24542 -3.97234 0
M  V30 4085 H 395.104 -2.62846 -2.98591 0
M  V30 4086 H 391.843 -5.59521 -3.41492 0
M  V30 4087 H 391.363 -4.14871 -4.33176 0
M  V30 4088 H 393.042 -4.73852 -4.40537 0
M  V30 4089 N 393.175 1.03435 -1.18907 0
M  V30 4090 C 394.421 1.77005 -0.989798 0
M  V30 4091 C 394.754 1.88205 0.478816 0
M  V30 4092 O 394.029 1.39481 1.35556 0
M  V30 4093 C 394.312 3.19925 -1.65287 0
M  V30 4094 C 394.165 3.1663 -3.19477 0
M  V30 4095 C 395.484 4.18189 -1.37134 0
M  V30 4096 H 392.603 0.642538 -0.360991 0
M  V30 4097 H 395.245 1.20784 -1.46667 0
M  V30 4098 H 393.395 3.67929 -1.24741 0
M  V30 4099 H 395.067 2.76567 -3.692 0
M  V30 4100 H 393.31 2.54491 -3.51307 0
M  V30 4101 H 393.981 4.1758 -3.61013 0
M  V30 4102 H 396.457 3.78761 -1.72276 0
M  V30 4103 H 395.333 5.16394 -1.86087 0
M  V30 4104 H 395.594 4.41112 -0.295424 0
M  V30 4105 N 394.653 0.992116 1.22453 0
M  V30 4106 C 395.881 0.685944 1.95198 0
M  V30 4107 C 396.296 -0.749233 1.73297 0
M  V30 4108 O 395.653 -1.50549 1.03156 0
M  V30 4109 C 395.704 0.981395 3.47924 0
M  V30 4110 O 395.425 2.36018 3.6909 0
M  V30 4111 C 396.926 0.692815 4.37853 0
M  V30 4112 H 394.146 0.253821 0.621141 0
M  V30 4113 H 396.69 1.32668 1.55626 0
M  V30 4114 H 394.845 0.386481 3.85467 0
M  V30 4115 H 395.259 2.45884 4.63294 0
M  V30 4116 H 396.733 0.949818 5.43767 0
M  V30 4117 H 397.21 -0.373181 4.37612 0
M  V30 4118 H 397.816 1.26874 4.05935 0
M  V30 4119 N 396.131 -1.37776 0.765217 0
M  V30 4120 C 397.356 -2.04651 0.336537 0
M  V30 4121 C 397.781 -1.57337 -1.03086 0
M  V30 4122 O 397.139 -0.730621 -1.65927 0
M  V30 4123 C 397.187 -3.58577 0.381468 0
M  V30 4124 O 396.291 -4.07706 -0.62042 0
M  V30 4125 H 395.632 -0.64756 0.146838 0
M  V30 4126 H 398.162 -1.76221 1.03959 0
M  V30 4127 H 398.172 -4.07314 0.236448 0
M  V30 4128 H 396.847 -3.9237 1.37907 0
M  V30 4129 H 395.424 -3.70306 -0.439056 0
M  V30 4130 N 397.609 -0.515225 -1.4894 0
M  V30 4131 C 398.886 0.0879088 -1.95402 0
M  V30 4132 C 399.266 1.52745 -1.45712 0
M  V30 4133 O 398.614 2.18238 -0.677093 0
M  V30 4134 C 398.824 -0.0141055 -3.48997 0
M  V30 4135 C 400.172 0.152646 -4.24326 0
M  V30 4136 O 401.196 0.0604025 -3.56149 0
M  V30 4137 O 400.055 0.34384 -5.45417 0
M  V30 4138 H 397.149 0.0874636 -0.822362 0
M  V30 4139 H 399.695 -0.578775 -1.59525 0
M  V30 4140 H 398.467 -1.01745 -3.77841 0
M  V30 4141 H 398.09 0.692091 -3.9153 0
M  V30 4142 N 399.087 1.5561 -0.249682 0
M  V30 4143 C 400.364 1.90932 0.424761 0
M  V30 4144 C 400.744 1.17078 1.75658 0
M  V30 4145 O 400.092 0.289176 2.26663 0
M  V30 4146 C 400.302 3.43975 0.590109 0
M  V30 4147 C 401.65 4.15281 0.884714 0
M  V30 4148 O 402.674 3.49729 0.67587 0
M  V30 4149 O 401.533 5.31236 1.28259 0
M  V30 4150 H 398.627 0.794815 0.228468 0
M  V30 4151 H 401.173 1.67135 -0.293954 0
M  V30 4152 H 399.945 3.89748 -0.34818 0
M  V30 4153 H 399.568 3.73644 1.35926 0
M  V30 4154 N 400.565 -0.0233959 1.57583 0
M  V30 4155 C 401.813 -0.711654 1.89156 0
M  V30 4156 C 402.134 -1.75591 0.848096 0
M  V30 4157 O 401.404 -1.95547 -0.117566 0
M  V30 4158 H 399.984 -0.265835 0.698098 0
M  V30 4159 H 402.646 0.0119948 1.94896 0
M  V30 4160 H 401.742 -1.19766 2.88206 0
M  V30 4161 N 402.043 -1.548 -0.295768 0
M  V30 4162 C 403.459 -1.4613 -0.641722 0
M  V30 4163 C 403.659 -0.656771 -1.90496 0
M  V30 4164 O 402.715 -0.166547 -2.5195 0
M  V30 4165 C 404.028 -2.90141 -0.789852 0
M  V30 4166 C 405.576 -3.00216 -0.885396 0
M  V30 4167 C 406.051 -4.45434 -1.06548 0
M  V30 4168 N 407.542 -4.49166 -1.13156 0
M  V30 4169 C 408.277 -5.58717 -1.28929 0
M  V30 4170 N 407.773 -6.78182 -1.41567 0
M  V30 4171 N 409.566 -5.46415 -1.31859 0
M  V30 4172 H 401.717 -2.05574 0.534147 0
M  V30 4173 H 403.98 -0.931259 0.177372 0
M  V30 4174 H 403.686 -3.51635 0.0675598 0
M  V30 4175 H 403.56 -3.37859 -1.67724 0
M  V30 4176 H 405.947 -2.38833 -1.73329 0
M  V30 4177 H 406.028 -2.55787 0.0261185 0
M  V30 4178 H 405.672 -5.07413 -0.222335 0
M  V30 4179 H 405.602 -4.87499 -1.9913 0
M  V30 4180 H 408.093 -3.631 -1.04721 0
M  V30 4181 H 408.406 -7.57428 -1.53372 0
M  V30 4182 H 406.751 -6.81037 -1.38613 0
M  V30 4183 H 409.942 -4.5203 -1.21601 0
M  V30 4184 H 410.115 -6.31841 -1.43808 0
M  V30 4185 N 403.521 0.559213 -1.47345 0
M  V30 4186 C 404.468 1.66645 -1.59682 0
M  V30 4187 C 405.438 1.60168 -0.43994 0
M  V30 4188 O 406.623 1.79031 -0.659736 0
M  V30 4189 C 403.763 3.04969 -1.61518 0
M  V30 4190 C 402.876 3.21897 -2.88108 0
M  V30 4191 C 402.011 4.50608 -2.81294 0
M  V30 4192 C 401.05 4.60961 -4.02717 0
M  V30 4193 N 400.187 5.81024 -3.94151 0
M  V30 4194 H 405.027 1.55439 -2.54249 0
M  V30 4195 H 402.564 0.757219 -1.26113 0
M  V30 4196 H 404.522 3.85064 -1.60566 0
M  V30 4197 H 403.152 3.15015 -0.704645 0
M  V30 4198 H 402.204 2.35248 -2.98936 0
M  V30 4199 H 403.516 3.25412 -3.78032 0
M  V30 4200 H 402.67 5.3896 -2.7858 0
M  V30 4201 H 401.409 4.49568 -1.89049 0
M  V30 4202 H 400.414 3.71021 -4.05738 0
M  V30 4203 H 401.639 4.63761 -4.96087 0
M  V30 4204 H 399.585 5.80938 -3.04708 0
M  V30 4205 H 399.502 5.85909 -4.77752 0
M  V30 4206 H 400.77 6.71744 -3.9545 0
M  V30 4207 N 404.999 1.35443 0.805782 0
M  V30 4208 C 406.245 1.28952 1.56522 0
M  V30 4209 C 406.578 -0.135597 1.93726 0
M  V30 4210 O 405.853 -1.08516 1.61414 0
M  V30 4211 C 406.136 2.19678 2.85331 0
M  V30 4212 C 405.989 3.7081 2.54598 0
M  V30 4213 C 407.308 2.09495 3.8704 0
M  V30 4214 H 404.427 0.469764 0.567883 0
M  V30 4215 H 407.069 1.65851 0.927001 0
M  V30 4216 H 405.219 1.8834 3.39795 0
M  V30 4217 H 406.891 4.12593 2.06312 0
M  V30 4218 H 405.134 3.91051 1.8778 0
M  V30 4219 H 405.805 4.29679 3.46525 0
M  V30 4220 H 408.281 2.37045 3.41978 0
M  V30 4221 H 407.157 2.75173 4.74943 0
M  V30 4222 H 407.418 1.07714 4.28777 0
M  V30 4223 N 406.477 -1.02803 1.19454 0
M  V30 4224 C 407.888 -1.57667 0.999899 0
M  V30 4225 C 408.239 -1.91041 -0.446956 0
M  V30 4226 O 407.364 -1.70978 -1.32648 0
M  V30 4227 C 407.959 -2.86477 1.80877 0
M  V30 4228 C 406.518 -3.37911 1.65811 0
M  V30 4229 C 405.665 -2.11343 1.79526 0
M  V30 4230 H 408.616 -0.853214 1.33813 0
M  V30 4231 H 408.637 -3.57408 1.30536 0
M  V30 4232 H 408.149 -2.62155 2.86175 0
M  V30 4233 H 406.25 -3.67218 0.63102 0
M  V30 4234 H 406.363 -4.10885 2.46395 0
M  V30 4235 H 404.727 -2.23254 1.22596 0
M  V30 4236 H 405.51 -1.89461 2.86285 0
M  V30 4237 N 407.956 -0.998596 -1.21925 0
M  V30 4238 C 409.202 -0.678667 -1.91107 0
M  V30 4239 C 409.535 0.78791 -1.77498 0
M  V30 4240 O 408.81 1.57043 -1.1475 0
M  V30 4241 C 409.093 -1.09245 -3.43129 0
M  V30 4242 C 408.946 -2.61801 -3.6576 0
M  V30 4243 C 410.265 -0.649984 -4.35274 0
M  V30 4244 H 407.384 -0.248025 -0.694012 0
M  V30 4245 H 410.026 -1.24314 -1.43688 0
M  V30 4246 H 408.176 -0.612171 -3.83647 0
M  V30 4247 H 409.848 -3.17543 -3.34611 0
M  V30 4248 H 408.091 -3.03609 -3.09845 0
M  V30 4249 H 408.762 -2.85804 -4.7225 0
M  V30 4250 H 411.238 -1.0626 -4.02303 0
M  V30 4251 H 410.114 -0.967743 -5.40302 0
M  V30 4252 H 410.375 0.449139 -4.39813 0
M  V30 4253 N 409.434 1.37368 -0.772513 0
M  V30 4254 C 410.68 1.99969 -0.337681 0
M  V30 4255 C 411.013 1.61184 1.08321 0
M  V30 4256 O 410.288 0.858395 1.74533 0
M  V30 4257 C 410.571 3.56858 -0.482121 0
M  V30 4258 C 410.424 4.0555 -1.94549 0
M  V30 4259 C 411.743 4.39955 0.113143 0
M  V30 4260 H 408.862 0.726464 -0.124171 0
M  V30 4261 H 411.504 1.63034 -0.975699 0
M  V30 4262 H 409.654 3.88452 0.0610361 0
M  V30 4263 H 411.326 3.84518 -2.54841 0
M  V30 4264 H 409.569 3.57715 -2.45403 0
M  V30 4265 H 410.24 5.14587 -1.9976 0
M  V30 4266 H 412.716 4.14623 -0.35031 0
M  V30 4267 H 411.592 5.48897 -0.0180514 0
M  V30 4268 H 411.853 4.25403 1.20354 0
M  V30 4269 N 410.912 0.523116 1.48665 0
M  V30 4270 C 411.844 -0.280421 2.27478 0
M  V30 4271 C 412.857 -0.910694 1.34945 0
M  V30 4272 O 414.046 -0.790295 1.60052 0
M  V30 4273 C 411.146 -1.41171 3.08097 0
M  V30 4274 C 410.319 -0.884642 4.28361 0
M  V30 4275 C 409.378 -1.89622 4.90846 0
M  V30 4276 O 408.404 -1.4559 5.50265 0
M  V30 4277 N 409.606 -3.22801 4.82472 0
M  V30 4278 H 412.371 0.395481 2.97079 0
M  V30 4279 H 409.932 0.357018 1.57915 0
M  V30 4280 H 411.924 -2.08645 3.4677 0
M  V30 4281 H 410.494 -1.99139 2.40961 0
M  V30 4282 H 409.714 -0.0341177 3.94185 0
M  V30 4283 H 411.002 -0.511268 5.06225 0
M  V30 4284 H 410.4 -3.61246 4.35336 0
M  V30 4285 H 408.957 -3.85927 5.25265 0
M  V30 4286 N 412.39 -1.55475 0.257931 0
M  V30 4287 C 413.353 -2.20551 -0.623706 0
M  V30 4288 C 414.353 -1.17809 -1.09443 0
M  V30 4289 O 415.543 -1.42823 -0.997362 0
M  V30 4290 C 412.675 -2.85784 -1.8585 0
M  V30 4291 H 413.868 -2.99848 -0.0557743 0
M  V30 4292 H 411.421 -1.56298 0.0084422 0
M  V30 4293 H 412.156 -2.10453 -2.46739 0
M  V30 4294 H 411.941 -3.61057 -1.52907 0
M  V30 4295 H 413.431 -3.35553 -2.48584 0
M  V30 4296 N 413.868 0.0150385 -1.57593 0
M  V30 4297 C 415.098 0.713359 -1.93894 0
M  V30 4298 C 415.506 1.68663 -0.857289 0
M  V30 4299 O 414.849 1.82876 0.173788 0
M  V30 4300 C 414.911 1.51348 -3.26089 0
M  V30 4301 C 414.575 0.703451 -4.51554 0
M  V30 4302 C 415.572 -0.00237924 -5.199 0
M  V30 4303 C 413.257 0.653854 -4.98026 0
M  V30 4304 C 415.251 -0.746955 -6.33008 0
M  V30 4305 C 412.938 -0.0944578 -6.11027 0
M  V30 4306 C 413.936 -0.793609 -6.78374 0
M  V30 4307 O 413.624 -1.52974 -7.89211 0
M  V30 4308 H 413.356 0.204637 -0.644282 0
M  V30 4309 H 415.91 -0.0276411 -2.05381 0
M  V30 4310 H 414.14 2.29862 -3.10967 0
M  V30 4311 H 415.829 2.09572 -3.47612 0
M  V30 4312 H 416.595 0.0268803 -4.84993 0
M  V30 4313 H 412.474 1.18756 -4.45441 0
M  V30 4314 H 416.018 -1.2932 -6.85509 0
M  V30 4315 H 411.915 -0.125591 -6.45378 0
M  V30 4316 H 412.683 -1.44488 -8.05646 0
M  V30 4317 N 415.346 1.54954 0.287554 0
M  V30 4318 C 416.309 1.86076 1.33823 0
M  V30 4319 C 417.309 0.734414 1.43049 0
M  V30 4320 O 418.499 1.00266 1.42452 0
M  V30 4321 C 415.631 2.05305 2.72144 0
M  V30 4322 H 416.824 2.79984 1.07465 0
M  V30 4323 H 414.377 1.47223 0.524902 0
M  V30 4324 H 415.112 1.1373 3.03704 0
M  V30 4325 H 414.897 2.873 2.66836 0
M  V30 4326 H 416.387 2.30706 3.48087 0
M  V30 4327 N 416.824 -0.551391 1.4764 0
M  V30 4328 C 418.071 -1.3083 1.54563 0
M  V30 4329 C 418.399 -1.93359 0.210361 0
M  V30 4330 O 417.654 -1.78721 -0.797332 0
M  V30 4331 C 417.953 -2.43469 2.61644 0
M  V30 4332 C 417.619 -1.98732 4.04742 0
M  V30 4333 C 416.281 -1.86248 4.43695 0
M  V30 4334 C 418.633 -1.64659 4.94507 0
M  V30 4335 C 415.961 -1.37995 5.70241 0
M  V30 4336 C 418.313 -1.17875 6.21521 0
M  V30 4337 C 416.977 -1.03992 6.5935 0
M  V30 4338 H 416.247 -0.478741 0.565587 0
M  V30 4339 H 418.894 -0.617697 1.81264 0
M  V30 4340 H 417.199 -3.18109 2.28722 0
M  V30 4341 H 418.896 -3.01642 2.64222 0
M  V30 4342 H 415.486 -2.09393 3.73968 0
M  V30 4343 H 419.67 -1.73174 4.65107 0
M  V30 4344 H 414.926 -1.25915 5.98294 0
M  V30 4345 H 419.1 -0.905739 6.90485 0
M  V30 4346 H 416.727 -0.663794 7.57296 0
M  V30 4347 N 418.302 -1.35869 -0.798587 0
M  V30 4348 C 419.55 -1.29332 -1.55298 0
M  V30 4349 C 419.871 0.129729 -1.94568 0
M  V30 4350 O 419.141 1.06796 -1.6423 0
M  V30 4351 H 417.721 -0.475737 -0.57592 0
M  V30 4352 H 420.383 -1.70062 -0.952093 0
M  V30 4353 H 419.479 -1.91458 -2.46476 0
M  V30 4354 N 419.78 1.02168 -1.19998 0
M  V30 4355 C 420.727 2.10601 -0.944228 0
M  V30 4356 C 421.697 1.65639 0.123664 0
M  V30 4357 O 422.882 1.9079 -0.0199941 0
M  V30 4358 C 420.022 3.41504 -0.496865 0
M  V30 4359 C 419.135 3.99973 -1.63234 0
M  V30 4360 C 418.27 5.18915 -1.13579 0
M  V30 4361 C 417.309 5.69456 -2.24468 0
M  V30 4362 N 416.446 6.79665 -1.76068 0
M  V30 4363 H 421.286 2.31814 -1.8726 0
M  V30 4364 H 418.823 1.13686 -0.933483 0
M  V30 4365 H 420.781 4.16626 -0.218843 0
M  V30 4366 H 419.411 3.2038 0.394508 0
M  V30 4367 H 418.463 3.21997 -2.0254 0
M  V30 4368 H 419.775 4.33492 -2.46752 0
M  V30 4369 H 418.929 6.01222 -0.813429 0
M  V30 4370 H 417.668 4.8695 -0.270434 0
M  V30 4371 H 416.673 4.85757 -2.57526 0
M  V30 4372 H 417.898 6.03459 -3.11472 0
M  V30 4373 H 415.844 6.49538 -0.918516 0
M  V30 4374 H 415.761 7.12349 -2.5317 0
M  V30 4375 H 417.029 7.65549 -1.46817 0
M  V30 4376 N 421.258 1.00505 1.21394 0
M  V30 4377 C 422.488 0.705584 1.94178 0
M  V30 4378 C 422.896 -0.735846 1.74304 0
M  V30 4379 O 422.239 -1.50954 1.04683 0
M  V30 4380 C 422.301 0.94689 3.46806 0
M  V30 4381 C 421.965 2.37517 3.90429 0
M  V30 4382 C 422.962 3.35539 3.97127 0
M  V30 4383 C 420.647 2.71284 4.22742 0
M  V30 4384 C 422.641 4.65395 4.3553 0
M  V30 4385 C 420.328 4.01356 4.60822 0
M  V30 4386 C 421.326 4.98223 4.67186 0
M  V30 4387 O 421.014 6.25969 5.04399 0
M  V30 4388 H 420.746 0.259216 0.624326 0
M  V30 4389 H 423.3 1.34592 1.55159 0
M  V30 4390 H 421.53 0.249386 3.85895 0
M  V30 4391 H 423.219 0.640804 4.0081 0
M  V30 4392 H 423.985 3.10786 3.7234 0
M  V30 4393 H 419.864 1.96581 4.16985 0
M  V30 4394 H 423.408 5.41002 4.40412 0
M  V30 4395 H 419.305 4.25893 4.85063 0
M  V30 4396 H 420.073 6.30085 5.22431 0
M  V30 4397 N 422.737 -1.36956 0.779787 0
M  V30 4398 C 423.667 -2.32761 0.185651 0
M  V30 4399 C 424.648 -1.56177 -0.673989 0
M  V30 4400 O 425.833 -1.84378 -0.609797 0
M  V30 4401 C 422.963 -3.40418 -0.687964 0
M  V30 4402 C 421.917 -4.27941 0.0710102 0
M  V30 4403 C 421.243 -5.26681 -0.922573 0
M  V30 4404 C 422.543 -5.07006 1.25467 0
M  V30 4405 H 424.237 -2.82698 0.986008 0
M  V30 4406 H 421.783 -1.3592 0.475592 0
M  V30 4407 H 423.736 -4.06423 -1.11348 0
M  V30 4408 H 422.46 -2.89025 -1.52093 0
M  V30 4409 H 421.119 -3.63478 0.47739 0
M  V30 4410 H 420.767 -4.71565 -1.7503 0
M  V30 4411 H 420.467 -5.86103 -0.419237 0
M  V30 4412 H 421.991 -5.9556 -1.34686 0
M  V30 4413 H 423.405 -5.66105 0.905401 0
M  V30 4414 H 421.802 -5.75793 1.69063 0
M  V30 4415 H 422.872 -4.3921 2.05481 0
M  V30 4416 N 424.215 -0.530993 -1.48385 0
M  V30 4417 C 425.463 0.00273189 -2.021 0
M  V30 4418 C 425.784 1.34672 -1.41027 0
M  V30 4419 O 425.054 1.8724 -0.576012 0
M  V30 4420 H 423.634 0.00399774 -0.746989 0
M  V30 4421 H 426.296 -0.695054 -1.82085 0
M  V30 4422 H 425.392 0.11031 -3.11905 0
M  V30 4423 N 425.693 1.55336 -0.266172 0
M  V30 4424 C 426.923 2.03506 0.356239 0
M  V30 4425 C 427.331 1.14426 1.50676 0
M  V30 4426 O 426.674 0.155043 1.83045 0
M  V30 4427 C 426.736 3.47848 0.90785 0
M  V30 4428 C 426.4 4.56861 -0.112888 0
M  V30 4429 C 427.397 5.11528 -0.929264 0
M  V30 4430 C 425.082 5.01704 -0.244546 0
M  V30 4431 C 427.076 6.09549 -1.86357 0
M  V30 4432 C 424.763 5.99553 -1.18234 0
M  V30 4433 C 425.761 6.53356 -1.99036 0
M  V30 4434 O 425.449 7.49293 -2.91231 0
M  V30 4435 H 425.181 0.670444 0.08649 0
M  V30 4436 H 427.735 2.01598 -0.39337 0
M  V30 4437 H 425.965 3.46967 1.70737 0
M  V30 4438 H 427.654 3.79407 1.44239 0
M  V30 4439 H 428.42 4.77701 -0.838237 0
M  V30 4440 H 424.299 4.59477 0.374359 0
M  V30 4441 H 427.843 6.51469 -2.49467 0
M  V30 4442 H 423.74 6.32799 -1.27421 0
M  V30 4443 H 424.508 7.66978 -2.8581 0
M  V30 4444 N 427.171 -0.0066808 1.57599 0
M  V30 4445 C 428.101 -0.999296 2.11036 0
M  V30 4446 C 429.082 -1.36278 1.01795 0
M  V30 4447 O 430.267 -1.4477 1.29442 0
M  V30 4448 C 427.397 -2.29328 2.60818 0
M  V30 4449 C 426.351 -2.07159 3.74525 0
M  V30 4450 C 425.677 -3.42512 4.10596 0
M  V30 4451 C 426.977 -1.43959 5.02069 0
M  V30 4452 H 428.671 -0.554382 2.94223 0
M  V30 4453 H 426.217 -0.265221 1.41536 0
M  V30 4454 H 428.17 -2.99117 2.96828 0
M  V30 4455 H 426.894 -2.7592 1.74745 0
M  V30 4456 H 425.553 -1.39797 3.38899 0
M  V30 4457 H 425.201 -3.86795 3.21556 0
M  V30 4458 H 424.901 -3.28498 4.87199 0
M  V30 4459 H 426.425 -4.13628 4.4916 0
M  V30 4460 H 427.839 -2.03696 5.35893 0
M  V30 4461 H 426.236 -1.40452 5.83432 0
M  V30 4462 H 427.306 -0.407992 4.83181 0
M  V30 4463 N 428.649 -1.55105 -0.279332 0
M  V30 4464 C 429.596 -1.8755 -1.34513 0
M  V30 4465 C 430.566 -0.726384 -1.49375 0
M  V30 4466 O 431.751 -0.977063 -1.63884 0
M  V30 4467 C 428.891 -2.14738 -2.70151 0
M  V30 4468 C 428.004 -3.42285 -2.63562 0
M  V30 4469 C 427.139 -3.59206 -3.91337 0
M  V30 4470 C 426.178 -4.80467 -3.79233 0
M  V30 4471 N 425.315 -4.94079 -4.98829 0
M  V30 4472 H 430.155 -2.78456 -1.06143 0
M  V30 4473 H 427.692 -1.37867 -0.512936 0
M  V30 4474 H 429.65 -2.28501 -3.49061 0
M  V30 4475 H 428.28 -1.27075 -2.96735 0
M  V30 4476 H 427.332 -3.37029 -1.76397 0
M  V30 4477 H 428.644 -4.31328 -2.50515 0
M  V30 4478 H 427.798 -3.72751 -4.78687 0
M  V30 4479 H 426.537 -2.68337 -4.07243 0
M  V30 4480 H 425.542 -4.66932 -2.90266 0
M  V30 4481 H 426.767 -5.72765 -3.64852 0
M  V30 4482 H 424.713 -4.06139 -5.15158 0
M  V30 4483 H 424.63 -5.77156 -4.8829 0
M  V30 4484 H 425.898 -5.12003 -5.8777 0
M  V30 4485 N 430.127 0.543554 -1.4793 0
M  V30 4486 C 431.376 1.29649 -1.54512 0
M  V30 4487 C 431.689 1.94382 -0.217973 0
M  V30 4488 O 432.895 2.71017 -0.161908 0
M  V30 4489 C 431.351 2.35175 -2.72435 0
M  V30 4490 C 430.959 1.76572 -4.11736 0
M  V30 4491 C 432.703 3.11564 -2.8832 0
M  V30 4492 C 430.61 2.79958 -5.20939 0
M  V30 4493 H 429.54 0.487541 -0.57517 0
M  V30 4494 H 432.191 0.575708 -1.74235 0
M  V30 4495 H 430.573 3.10229 -2.46118 0
M  V30 4496 H 431.747 1.07799 -4.48013 0
M  V30 4497 H 430.062 1.12722 -4.00852 0
M  V30 4498 H 432.659 3.88794 -3.67074 0
M  V30 4499 H 433.002 3.66594 -1.97268 0
M  V30 4500 H 433.535 2.43623 -3.14472 0
M  V30 4501 H 430.274 2.29766 -6.13912 0
M  V30 4502 H 429.794 3.47101 -4.89164 0
M  V30 4503 H 431.473 3.43198 -5.48474 0
M  V30 4504 N 431.605 1.3629 0.791371 0
M  V30 4505 C 432.515 1.32606 1.93527 0
M  V30 4506 C 433.531 0.228541 1.72493 0
M  V30 4507 O 434.707 0.460571 1.96063 0
M  V30 4508 C 431.772 1.11271 3.28359 0
M  V30 4509 C 430.833 2.3048 3.62185 0
M  V30 4510 C 430.066 2.10154 4.90583 0
M  V30 4511 O 430.289 1.07572 5.60165 0
M  V30 4512 O 429.223 2.97884 5.23019 0
M  V30 4513 H 433.049 2.28909 1.99585 0
M  V30 4514 H 430.634 1.16818 0.931344 0
M  V30 4515 H 432.516 1.01283 4.09047 0
M  V30 4516 H 431.191 0.180292 3.23198 0
M  V30 4517 H 430.098 2.46036 2.81811 0
M  V30 4518 H 431.431 3.22221 3.72068 0
M  V30 4519 N 433.083 -1.0153 1.20538 0
M  V30 4520 C 434.33 -1.75149 1.01633 0
M  V30 4521 C 434.658 -1.89189 -0.451399 0
M  V30 4522 O 433.913 -1.41551 -1.35136 0
M  V30 4523 C 434.212 -3.17213 1.64654 0
M  V30 4524 C 433.878 -3.23146 3.14464 0
M  V30 4525 C 432.54 -3.24472 3.55347 0
M  V30 4526 C 434.892 -3.21207 4.10458 0
M  V30 4527 C 432.22 -3.21532 4.90748 0
M  V30 4528 C 434.572 -3.19808 5.45807 0
M  V30 4529 C 433.236 -3.19439 5.86102 0
M  V30 4530 H 432.506 -0.640914 0.3719 0
M  V30 4531 H 435.153 -1.19071 1.49981 0
M  V30 4532 H 433.458 -3.76457 1.08571 0
M  V30 4533 H 435.155 -3.72871 1.4754 0
M  V30 4534 H 431.745 -3.2285 2.81897 0
M  V30 4535 H 435.929 -3.19351 3.79906 0
M  V30 4536 H 431.185 -3.19578 5.21229 0
M  V30 4537 H 435.359 -3.1726 6.19935 0
M  V30 4538 H 432.986 -3.16915 6.90991 0
M  V30 4539 N 434.561 -1.01147 -1.20859 0
M  V30 4540 C 435.838 -0.613136 -1.85742 0
M  V30 4541 C 436.218 0.909004 -1.90526 0
M  V30 4542 O 435.566 1.79862 -1.40932 0
M  V30 4543 C 435.776 -1.255 -3.25654 0
M  V30 4544 C 437.124 -1.3672 -4.01986 0
M  V30 4545 O 438.148 -1.21082 -3.34989 0
M  V30 4546 O 437.007 -1.6194 -5.21956 0
M  V30 4547 H 434.101 -0.210878 -0.799662 0
M  V30 4548 H 436.647 -1.10853 -1.2849 0
M  V30 4549 H 435.419 -2.29532 -3.16908 0
M  V30 4550 H 435.042 -0.746369 -3.90532 0
M  V30 4551 N 436.039 1.36541 -0.78704 0
M  V30 4552 C 436.949 2.3387 -0.184896 0
M  V30 4553 C 437.965 1.60927 0.661697 0
M  V30 4554 O 439.141 1.92927 0.57804 0
M  V30 4555 C 436.206 3.40122 0.672145 0
M  V30 4556 C 435.267 4.28867 -0.19267 0
M  V30 4557 C 434.5 5.30045 0.623561 0
M  V30 4558 O 434.723 5.39232 1.8597 0
M  V30 4559 O 433.657 6.01895 0.0247068 0
M  V30 4560 H 437.483 2.87126 -0.989562 0
M  V30 4561 H 435.068 1.38969 -0.548455 0
M  V30 4562 H 436.95 4.05093 1.16094 0
M  V30 4563 H 435.625 2.89169 1.45474 0
M  V30 4564 H 434.532 3.66945 -0.728166 0
M  V30 4565 H 435.865 4.83165 -0.938722 0
M  V30 4566 N 437.518 0.538854 1.48102 0
M  V30 4567 C 438.934 0.19732 1.58376 0
M  V30 4568 C 439.134 -1.29971 1.5398 0
M  V30 4569 O 438.19 -2.07861 1.43352 0
M  V30 4570 C 439.503 0.807716 2.89649 0
M  V30 4571 C 441.051 0.77726 3.03196 0
M  V30 4572 C 441.526 1.36639 4.37143 0
M  V30 4573 N 443.017 1.32875 4.43732 0
M  V30 4574 C 443.752 1.7544 5.45901 0
M  V30 4575 N 443.248 2.25776 6.54979 0
M  V30 4576 N 445.041 1.66623 5.36836 0
M  V30 4577 H 437.192 1.5117 1.49202 0
M  V30 4578 H 439.455 0.629327 0.708979 0
M  V30 4579 H 439.161 1.85909 2.98548 0
M  V30 4580 H 439.035 0.289975 3.76084 0
M  V30 4581 H 441.422 -0.265374 2.93904 0
M  V30 4582 H 441.503 1.33256 2.18349 0
M  V30 4583 H 441.147 2.408 4.47189 0
M  V30 4584 H 441.077 0.786689 5.20691 0
M  V30 4585 H 443.568 0.96037 3.65493 0
M  V30 4586 H 443.881 2.56226 7.29087 0
M  V30 4587 H 442.226 2.29775 6.55918 0
M  V30 4588 H 445.417 1.27089 4.50517 0
M  V30 4589 H 445.59 2.00115 6.16326 0
M  V30 4590 N 438.996 -1.55193 0.274407 0
M  V30 4591 C 440.244 -1.99187 -0.341902 0
M  V30 4592 C 440.565 -1.16422 -1.56431 0
M  V30 4593 O 439.835 -0.253573 -1.94252 0
M  V30 4594 H 438.415 -0.735721 -0.129317 0
M  V30 4595 H 441.077 -1.91168 0.379578 0
M  V30 4596 H 440.173 -3.05629 -0.632253 0
M  V30 4597 N 440.474 -0.00167713 -1.576 0
M  V30 4598 C 441.422 1.0074 -2.09652 0
M  V30 4599 C 442.416 1.35483 -1.01689 0
M  V30 4600 O 443.622 1.34028 -1.20152 0
M  V30 4601 H 439.997 0.342537 -0.669457 0
M  V30 4602 H 441.968 0.542841 -2.93421 0
M  V30 4603 C 440.717 2.2899 -2.61647 0
M  V30 4604 H 440.04 2.03124 -3.44355 0
M  V30 4605 H 441.48 2.9787 -3.01744 0
M  V30 4606 C 439.939 3.00085 -1.53136 0
M  V30 4607 O 440.469 3.91135 -0.91524 0
M  V30 4608 N 438.675 2.6194 -1.25841 0
M  V30 4609 H 438.222 1.8798 -1.76129 0
M  V30 4610 H 438.18 3.09822 -0.534576 0
M  V30 4611 N 441.952 1.55251 0.271103 0
M  V30 4612 C 443.198 1.76207 1.00394 0
M  V30 4613 C 443.531 0.562604 1.85872 0
M  V30 4614 O 442.806 -0.439785 1.89463 0
M  V30 4615 C 443.089 3.06828 1.8849 0
M  V30 4616 C 442.942 4.37134 1.05992 0
M  V30 4617 C 444.261 3.33503 2.87165 0
M  V30 4618 H 441.38 0.641086 0.363562 0
M  V30 4619 H 444.022 1.87982 0.276189 0
M  V30 4620 H 442.172 2.96921 2.5054 0
M  V30 4621 H 443.844 4.59001 0.459978 0
M  V30 4622 H 442.087 4.32275 0.363443 0
M  V30 4623 H 442.758 5.2486 1.70955 0
M  V30 4624 H 445.234 3.43215 2.3525 0
M  V30 4625 H 444.11 4.2616 3.45946 0
M  V30 4626 H 444.371 2.53235 3.62387 0
M  V30 4627 N 443.43 -0.535701 1.48216 0
M  V30 4628 C 444.679 -1.28828 1.55197 0
M  V30 4629 C 444.992 -1.94263 0.228278 0
M  V30 4630 O 446.198 -2.70927 0.176278 0
M  V30 4631 C 444.654 -2.33727 2.73678 0
M  V30 4632 C 444.262 -1.74386 4.12666 0
M  V30 4633 C 446.006 -3.1003 2.89968 0
M  V30 4634 C 443.913 -2.77192 5.22416 0
M  V30 4635 H 442.843 -0.484484 0.577747 0
M  V30 4636 H 445.494 -0.56646 1.74538 0
M  V30 4637 H 443.876 -3.08919 2.4776 0
M  V30 4638 H 445.05 -1.05421 4.48579 0
M  V30 4639 H 443.365 -1.10595 4.01445 0
M  V30 4640 H 445.962 -3.86842 3.6913 0
M  V30 4641 H 446.305 -3.65542 1.9921 0
M  V30 4642 H 446.838 -2.41952 3.15759 0
M  V30 4643 H 443.577 -2.26507 6.15122 0
M  V30 4644 H 443.097 -3.44502 4.90998 0
M  V30 4645 H 444.776 -3.40285 5.50286 0
M  V30 4646 N 444.908 -1.36708 -0.784132 0
M  V30 4647 C 446.133 -1.34565 -1.5782 0
M  V30 4648 C 446.558 0.0695257 -1.87971 0
M  V30 4649 O 445.916 1.04302 -1.48293 0
M  V30 4650 C 445.964 -2.17952 -2.87279 0
M  V30 4651 O 445.068 -1.57563 -3.81114 0
M  V30 4652 H 444.409 -0.460337 -0.478524 0
M  V30 4653 H 446.939 -1.80064 -0.971495 0
M  V30 4654 H 446.949 -2.30721 -3.365 0
M  V30 4655 H 445.624 -3.20823 -2.64661 0
M  V30 4656 H 444.201 -1.53764 -3.39722 0
M  V30 4657 N 446.386 1.0089 -1.21074 0
M  V30 4658 C 447.611 1.78727 -1.05221 0
M  V30 4659 C 448.036 1.83932 0.393795 0
M  V30 4660 O 447.394 1.28004 1.28393 0
M  V30 4661 C 447.442 3.20665 -1.64944 0
M  V30 4662 O 446.546 4.02632 -0.892273 0
M  V30 4663 H 445.887 0.550973 -0.370574 0
M  V30 4664 H 448.417 1.26847 -1.60534 0
M  V30 4665 H 448.427 3.71352 -1.69002 0
M  V30 4666 H 447.102 3.16191 -2.70177 0
M  V30 4667 H 445.679 3.61207 -0.926492 0
M  V30 4668 N 447.864 1.01787 1.20321 0
M  V30 4669 C 448.814 0.559976 2.21016 0
M  V30 4670 C 449.798 -0.385366 1.56217 0
M  V30 4671 O 450.99 -0.208126 1.75772 0
M  V30 4672 C 448.119 -0.0990553 3.43157 0
M  V30 4673 C 447.205 0.86807 4.15121 0
M  V30 4674 N 447.596 2.0261 4.63447 0
M  V30 4675 C 445.894 0.689162 4.40643 0
M  V30 4676 C 446.595 2.63518 5.18588 0
M  V30 4677 N 445.571 1.91569 5.08726 0
M  V30 4678 H 449.373 1.44281 2.56048 0
M  V30 4679 H 446.887 0.883381 1.36272 0
M  V30 4680 H 448.884 -0.444643 4.14522 0
M  V30 4681 H 447.544 -0.977709 3.0963 0
M  V30 4682 H 448.555 2.40598 4.58621 0
M  V30 4683 H 445.232 -0.14133 4.17261 0
M  V30 4684 H 446.622 3.61527 5.66346 0
M  V30 4685 N 449.342 -1.36122 0.79427 0
M  V30 4686 C 450.59 -1.98718 0.368177 0
M  V30 4687 C 450.911 -1.63345 -1.06506 0
M  V30 4688 O 450.181 -0.909825 -1.73491 0
M  V30 4689 H 448.761 -0.735038 0.133146 0
M  V30 4690 H 451.423 -1.66239 1.01739 0
M  V30 4691 H 450.519 -3.08633 0.463923 0
M  V30 4692 N 450.82 -0.546701 -1.47814 0
M  V30 4693 C 451.768 0.220048 -2.31557 0
M  V30 4694 C 452.762 0.919472 -1.42275 0
M  V30 4695 O 453.968 0.841953 -1.59095 0
M  V30 4696 H 450.343 0.0898334 -0.746615 0
M  V30 4697 H 452.314 -0.505589 -2.94086 0
M  V30 4698 C 451.063 1.24353 -3.24702 0
M  V30 4699 H 450.386 0.714758 -3.93359 0
M  V30 4700 H 451.826 1.75112 -3.8615 0
M  V30 4701 C 450.285 2.28593 -2.47481 0
M  V30 4702 O 450.815 3.35334 -2.21165 0
M  V30 4703 N 449.021 2.02244 -2.08676 0
M  V30 4704 H 448.568 1.15455 -2.30278 0
M  V30 4705 H 448.526 2.72207 -1.57323 0
M  V30 4706 N 452.299 1.55045 -0.282633 0
M  V30 4707 C 453.71 1.85473 0.213655 0
M  V30 4708 C 454.061 1.20465 1.54863 0
M  V30 4709 O 453.186 0.495676 2.10647 0
M  V30 4710 C 453.781 3.36496 0.394445 0
M  V30 4711 C 452.34 3.67022 0.834961 0
M  V30 4712 C 451.487 2.77218 -0.0674081 0
M  V30 4713 H 454.438 1.50478 -0.504202 0
M  V30 4714 H 454.459 3.60007 1.23186 0
M  V30 4715 H 453.971 3.83782 -0.577326 0
M  V30 4716 H 452.072 3.25241 1.81794 0
M  V30 4717 H 452.185 4.74433 0.667075 0
M  V30 4718 H 450.549 2.5069 0.450196 0
M  V30 4719 H 451.332 3.2732 -1.0352 0
M  V30 4720 N 453.777 0.010035 1.57597 0
M  V30 4721 C 455.026 -0.671945 1.90178 0
M  V30 4722 C 455.339 -1.74376 0.886131 0
M  V30 4723 O 456.545 -2.48107 1.10252 0
M  V30 4724 C 455.001 -1.24636 3.3763 0
M  V30 4725 C 454.609 -0.208838 4.47513 0
M  V30 4726 C 456.353 -1.90595 3.79307 0
M  V30 4727 C 454.26 -0.793814 5.86048 0
M  V30 4728 H 453.19 -0.25474 0.709665 0
M  V30 4729 H 455.841 0.0722206 1.83358 0
M  V30 4730 H 454.223 -2.04152 3.3932 0
M  V30 4731 H 455.397 0.562463 4.57354 0
M  V30 4732 H 453.712 0.350889 4.14919 0
M  V30 4733 H 456.309 -2.35284 4.80151 0
M  V30 4734 H 456.652 -2.74074 3.13352 0
M  V30 4735 H 457.185 -1.17798 3.79958 0
M  V30 4736 H 453.924 0.00240855 6.555 0
M  V30 4737 H 453.444 -1.53404 5.79851 0
M  V30 4738 H 455.123 -1.2894 6.34022 0
M  V30 4739 N 455.255 -1.55392 -0.262866 0
M  V30 4740 C 456.185 -1.91978 -1.32917 0
M  V30 4741 C 457.166 -0.7828 -1.51017 0
M  V30 4742 O 458.351 -1.04178 -1.63892 0
M  V30 4743 C 455.481 -2.20055 -2.68687 0
M  V30 4744 C 454.435 -3.35854 -2.65304 0
M  V30 4745 C 453.761 -3.49435 -4.04721 0
M  V30 4746 C 455.061 -4.71977 -2.23685 0
M  V30 4747 H 456.755 -2.81292 -1.02544 0
M  V30 4748 H 454.301 -1.3534 -0.491846 0
M  V30 4749 H 456.254 -2.44237 -3.43404 0
M  V30 4750 H 454.978 -1.27551 -3.00663 0
M  V30 4751 H 453.637 -3.11655 -1.93045 0
M  V30 4752 H 453.285 -2.54379 -4.33936 0
M  V30 4753 H 452.985 -4.27297 -4.0335 0
M  V30 4754 H 454.509 -3.7592 -4.81161 0
M  V30 4755 H 455.923 -4.95637 -2.88127 0
M  V30 4756 H 454.32 -5.52828 -2.33456 0
M  V30 4757 H 455.39 -4.70115 -1.18827 0
M  V30 4758 N 456.733 0.527833 -1.48498 0
M  V30 4759 C 457.663 1.64136 -1.66077 0
M  V30 4760 C 458.644 1.62286 -0.509625 0
M  V30 4761 O 459.829 1.79449 -0.742413 0
M  V30 4762 C 456.959 3.02717 -1.70234 0
M  V30 4763 C 455.913 3.19426 -2.8487 0
M  V30 4764 C 455.239 4.5909 -2.74118 0
M  V30 4765 C 456.539 3.01993 -4.26142 0
M  V30 4766 H 458.233 1.4968 -2.593 0
M  V30 4767 H 455.779 0.718654 -1.24785 0
M  V30 4768 H 457.732 3.80491 -1.8112 0
M  V30 4769 H 456.456 3.18201 -0.735911 0
M  V30 4770 H 455.115 2.4407 -2.73542 0
M  V30 4771 H 454.763 4.71413 -1.7544 0
M  V30 4772 H 454.463 4.71214 -3.51042 0
M  V30 4773 H 455.987 5.3896 -2.86974 0
M  V30 4774 H 457.401 3.69558 -4.38292 0
M  V30 4775 H 455.798 3.2561 -5.04082 0
M  V30 4776 H 456.868 1.98396 -4.42456 0
M  V30 4777 N 458.211 1.37122 0.776871 0
M  V30 4778 C 459.159 1.32549 1.91138 0
M  V30 4779 C 460.153 0.215119 1.68029 0
M  V30 4780 O 461.359 0.382852 1.75881 0
M  V30 4781 H 457.734 0.412952 0.62847 0
M  V30 4782 H 459.705 2.28332 1.92112 0
M  V30 4783 C 458.454 1.14422 3.28333 0
M  V30 4784 H 457.777 1.99115 3.46689 0
M  V30 4785 H 459.217 1.15272 4.0803 0
M  V30 4786 C 457.676 -0.150434 3.36564 0
M  V30 4787 O 458.206 -1.13584 3.85307 0
M  V30 4788 N 456.412 -0.19939 2.89915 0
M  V30 4789 H 455.959 0.603142 2.5044 0
M  V30 4790 H 455.917 -1.06526 2.95803 0
M  V30 4791 N 459.689 -1.00246 1.21608 0
M  V30 4792 C 460.914 -1.78167 1.06167 0
M  V30 4793 C 461.339 -1.84138 -0.384035 0
M  V30 4794 O 460.697 -1.28683 -1.27712 0
M  V30 4795 C 460.745 -3.19786 1.66642 0
M  V30 4796 O 459.849 -4.02153 0.913613 0
M  V30 4797 H 459.19 -0.549 0.37349 0
M  V30 4798 H 461.72 -1.25994 1.61204 0
M  V30 4799 H 461.73 -3.70451 1.70969 0
M  V30 4800 H 460.405 -3.14754 2.7185 0
M  V30 4801 H 458.982 -3.60711 0.945635 0
M  V30 4802 N 461.167 -1.02423 -1.1978 0
M  V30 4803 C 462.392 -0.7373 -1.93852 0
M  V30 4804 C 462.817 0.696923 -1.74713 0
M  V30 4805 O 462.175 1.48056 -1.04638 0
M  V30 4806 C 462.223 -1.08783 -3.438 0
M  V30 4807 O 461.327 -0.20383 -4.11896 0
M  V30 4808 H 460.668 -0.27284 -0.605355 0
M  V30 4809 H 463.198 -1.36966 -1.51992 0
M  V30 4810 H 463.208 -1.04276 -3.9445 0
M  V30 4811 H 461.883 -2.13274 -3.57053 0
M  V30 4812 H 460.46 -0.307091 -3.71633 0
M  V30 4813 N 462.645 1.35699 -0.801477 0
M  V30 4814 C 463.894 1.98165 -0.375979 0
M  V30 4815 C 464.207 1.64306 1.06127 0
M  V30 4816 O 465.413 2.20097 1.58964 0
M  V30 4817 C 463.869 3.54497 -0.621305 0
M  V30 4818 C 463.477 3.9727 -2.07076 0
M  V30 4819 C 465.221 4.23697 -0.26091 0
M  V30 4820 C 463.128 5.46427 -2.26211 0
M  V30 4821 H 462.058 0.741478 -0.136844 0
M  V30 4822 H 464.709 1.54834 -0.984814 0
M  V30 4823 H 463.091 3.95958 0.0574112 0
M  V30 4824 H 464.265 3.66974 -2.78687 0
M  V30 4825 H 462.58 3.40943 -2.39054 0
M  V30 4826 H 465.177 5.33334 -0.381994 0
M  V30 4827 H 465.52 4.0869 0.792344 0
M  V30 4828 H 466.053 3.87639 -0.893339 0
M  V30 4829 H 462.792 5.66396 -3.29963 0
M  V30 4830 H 462.312 5.78309 -1.59119 0
M  V30 4831 H 463.991 6.12819 -2.07513 0
M  V30 4832 N 464.123 0.554532 1.47522 0
M  V30 4833 C 465.534 0.120446 1.86311 0
M  V30 4834 C 465.885 -1.30904 1.46145 0
M  V30 4835 O 465.01 -1.98434 0.863294 0
M  V30 4836 C 465.605 0.211808 3.38137 0
M  V30 4837 C 464.164 -0.167224 3.76028 0
M  V30 4838 C 463.311 0.560576 2.71575 0
M  V30 4839 H 466.262 0.764408 1.39077 0
M  V30 4840 H 466.283 -0.570275 3.76202 0
M  V30 4841 H 465.795 1.25232 3.6734 0
M  V30 4842 H 463.896 -1.20894 3.52442 0
M  V30 4843 H 464.009 0.189473 4.78725 0
M  V30 4844 H 462.373 0.00396836 2.547 0
M  V30 4845 H 463.156 1.60219 3.0362 0
M  V30 4846 N 465.601 -1.54893 0.290851 0
M  V30 4847 C 466.511 -2.26812 -0.59945 0
M  V30 4848 C 467.527 -1.29963 -1.15696 0
M  V30 4849 O 468.703 -1.62928 -1.18391 0
M  V30 4850 C 465.768 -2.98716 -1.75982 0
M  V30 4851 C 464.829 -4.1108 -1.2374 0
M  V30 4852 C 464.062 -4.79546 -2.34246 0
M  V30 4853 O 464.285 -4.47309 -3.53936 0
M  V30 4854 O 463.219 -5.67165 -2.01512 0
M  V30 4855 H 467.045 -3.03696 -0.0163561 0
M  V30 4856 H 464.63 -1.49289 0.0576755 0
M  V30 4857 H 466.512 -3.43851 -2.43607 0
M  V30 4858 H 465.187 -2.24737 -2.3297 0
M  V30 4859 H 464.094 -3.70367 -0.527163 0
M  V30 4860 H 465.427 -4.87007 -0.71307 0
M  V30 4861 N 467.08 -0.0183926 -1.57589 0
M  V30 4862 C 468.357 0.700621 -1.82622 0
M  V30 4863 C 468.737 1.90951 -0.90005 0
M  V30 4864 O 468.085 2.28452 0.0469145 0
M  V30 4865 C 468.295 1.08899 -3.31575 0
M  V30 4866 C 469.643 1.48514 -3.9778 0
M  V30 4867 O 470.667 1.18227 -3.36007 0
M  V30 4868 O 469.526 2.04903 -5.06633 0
M  V30 4869 H 466.62 0.342743 -0.752633 0
M  V30 4870 H 469.166 -0.0452548 -1.6964 0
M  V30 4871 H 467.938 0.228113 -3.90635 0
M  V30 4872 H 467.561 1.89338 -3.49624 0
M  V30 4873 N 468.558 1.5553 0.254621 0
M  V30 4874 C 469.969 1.67518 0.824286 0
M  V30 4875 C 470.32 0.614429 1.86331 0
M  V30 4876 O 469.445 -0.240736 2.15057 0
M  V30 4877 C 470.04 3.03692 1.50189 0
M  V30 4878 C 468.599 3.17646 2.01935 0
M  V30 4879 C 467.746 2.63373 0.867746 0
M  V30 4880 H 470.697 1.58671 0.0305843 0
M  V30 4881 H 470.718 2.97706 2.36962 0
M  V30 4882 H 470.23 3.80874 0.745431 0
M  V30 4883 H 468.331 2.45273 2.80485 0
M  V30 4884 H 468.444 4.24455 2.22204 0
M  V30 4885 H 466.808 2.20999 1.26616 0
M  V30 4886 H 467.591 3.43074 0.124498 0
M  V30 4887 N 470.036 -0.519951 1.48776 0
M  V30 4888 C 471.261 -1.30447 1.6124 0
M  V30 4889 C 471.686 -1.86055 0.276591 0
M  V30 4890 O 471.044 -1.64915 -0.753183 0
M  V30 4891 C 471.092 -2.42406 2.66967 0
M  V30 4892 O 470.196 -3.45728 2.24824 0
M  V30 4893 H 469.537 -0.385924 0.540332 0
M  V30 4894 H 472.067 -0.624572 1.94834 0
M  V30 4895 H 472.077 -2.88447 2.88552 0
M  V30 4896 H 470.752 -2.01294 3.63941 0
M  V30 4897 H 469.329 -3.05737 2.13494 0
M  V30 4898 N 471.514 -1.37532 -0.769588 0
M  V30 4899 C 472.763 -1.32183 -1.5235 0
M  V30 4900 C 473.076 0.0906555 -1.9539 0
M  V30 4901 O 474.282 0.266628 -2.70188 0
M  V30 4902 C 472.738 -2.32029 -2.75119 0
M  V30 4903 C 472.346 -3.78816 -2.3917 0
M  V30 4904 C 474.09 -2.35694 -3.53056 0
M  V30 4905 C 471.997 -4.70388 -3.58453 0
M  V30 4906 H 470.927 -0.491275 -0.571984 0
M  V30 4907 H 473.578 -1.63004 -0.842739 0
M  V30 4908 H 471.96 -1.94229 -3.45096 0
M  V30 4909 H 473.134 -4.25466 -1.76962 0
M  V30 4910 H 471.449 -3.78117 -1.74402 0
M  V30 4911 H 474.046 -3.01312 -4.41718 0
M  V30 4912 H 474.389 -1.37117 -3.93071 0
M  V30 4913 H 474.922 -2.72212 -2.90078 0
M  V30 4914 H 471.661 -5.70102 -3.23518 0
M  V30 4915 H 471.181 -4.28442 -4.19758 0
M  V30 4916 H 472.86 -4.87628 -4.25239 0
M  V30 4917 N 472.992 0.995999 -1.22138 0
M  V30 4918 C 473.939 2.08551 -0.988687 0
M  V30 4919 C 474.909 1.65864 0.0885021 0
M  V30 4920 O 476.094 1.90704 -0.0604589 0
M  V30 4921 C 473.234 3.40374 -0.569191 0
M  V30 4922 C 472.347 3.96421 -1.71681 0
M  V30 4923 C 471.482 5.1639 -1.2456 0
M  V30 4924 C 470.521 5.64567 -2.36497 0
M  V30 4925 N 469.658 6.75777 -1.90445 0
M  V30 4926 H 474.498 2.2779 -1.92135 0
M  V30 4927 H 472.035 1.1168 -0.957388 0
M  V30 4928 H 473.993 4.16068 -0.307166 0
M  V30 4929 H 472.623 3.21145 0.326462 0
M  V30 4930 H 471.675 3.17628 -2.09324 0
M  V30 4931 H 472.987 4.2816 -2.55891 0
M  V30 4932 H 472.141 5.99362 -0.940774 0
M  V30 4933 H 470.88 4.86266 -0.373662 0
M  V30 4934 H 469.885 4.80185 -2.67772 0
M  V30 4935 H 471.11 5.96716 -3.24202 0
M  V30 4936 H 469.056 6.47443 -1.05609 0
M  V30 4937 H 468.973 7.06818 -2.68223 0
M  V30 4938 H 470.241 7.62262 -1.63022 0
M  V30 4939 N 474.47 1.03057 1.19235 0
M  V30 4940 C 475.433 0.617418 2.20727 0
M  V30 4941 C 476.433 -0.319856 1.57587 0
M  V30 4942 O 477.623 -0.106633 1.73873 0
M  V30 4943 C 474.755 -0.096296 3.40764 0
M  V30 4944 H 475.948 1.51544 2.58794 0
M  V30 4945 H 473.501 0.821949 1.32942 0
M  V30 4946 H 474.236 -1.00859 3.08217 0
M  V30 4947 H 474.021 0.577217 3.87828 0
M  V30 4948 H 475.511 -0.372219 4.15938 0
M  V30 4949 N 475.948 -1.35272 0.808662 0
M  V30 4950 C 477.225 -1.93077 0.313181 0
M  V30 4951 C 477.605 -1.73847 -1.19752 0
M  V30 4952 O 476.953 -1.1087 -1.998 0
M  V30 4953 C 477.163 -3.41347 0.726859 0
M  V30 4954 C 478.511 -4.18493 0.717532 0
M  V30 4955 O 479.535 -3.4987 0.668535 0
M  V30 4956 O 478.394 -5.40937 0.777779 0
M  V30 4957 H 475.488 -0.822885 0.0824018 0
M  V30 4958 H 478.034 -1.44335 0.892499 0
M  V30 4959 H 476.806 -3.49082 1.76797 0
M  V30 4960 H 476.429 -3.97411 0.122461 0
M  V30 4961 N 477.426 -0.562348 -1.47226 0
M  V30 4962 C 478.675 -0.038041 -2.01664 0
M  V30 4963 C 478.988 1.32199 -1.44162 0
M  V30 4964 O 480.194 1.9365 -1.90294 0
M  V30 4965 C 478.65 -0.0174958 -3.59896 0
M  V30 4966 C 478.258 -1.3746 -4.2639 0
M  V30 4967 C 480.002 0.453934 -4.22066 0
M  V30 4968 C 477.909 -1.31289 -5.76643 0
M  V30 4969 H 476.839 -0.0104511 -0.753928 0
M  V30 4970 H 479.49 -0.710966 -1.69167 0
M  V30 4971 H 477.872 0.721182 -3.89378 0
M  V30 4972 H 479.046 -2.1314 -4.08544 0
M  V30 4973 H 477.361 -1.78438 -3.7623 0
M  V30 4974 H 479.958 0.518584 -5.32179 0
M  V30 4975 H 480.301 1.46706 -3.89594 0
M  V30 4976 H 480.834 -0.230044 -3.97134 0
M  V30 4977 H 477.573 -2.30217 -6.13743 0
M  V30 4978 H 477.093 -0.597973 -5.96812 0
M  V30 4979 H 478.772 -1.01713 -6.38955 0
M  V30 4980 N 478.904 1.54736 -0.299062 0
M  V30 4981 C 479.852 2.24897 0.593658 0
M  V30 4982 C 480.846 1.25429 1.13859 0
M  V30 4983 O 482.052 1.43286 1.08945 0
M  V30 4984 H 478.427 0.72207 0.210046 0
M  V30 4985 H 480.398 2.98393 -0.0206421 0
M  V30 4986 C 479.147 3.00159 1.75499 0
M  V30 4987 H 478.47 3.76501 1.34489 0
M  V30 4988 H 479.91 3.52535 2.35574 0
M  V30 4989 C 478.369 2.07015 2.65794 0
M  V30 4990 O 478.899 1.63692 3.66835 0
M  V30 4991 N 477.105 1.73012 2.33485 0
M  V30 4992 H 476.652 2.08439 1.51364 0
M  V30 4993 H 476.61 1.10965 2.94167 0
M  V30 4994 N 480.382 0.0267497 1.57577 0
M  V30 4995 C 481.329 -0.955894 2.10075 0
M  V30 4996 C 482.299 -1.32453 1.00226 0
M  V30 4997 O 483.484 -1.41826 1.27632 0
M  V30 4998 C 480.624 -2.2338 2.6305 0
M  V30 4999 C 479.737 -1.92183 3.86898 0
M  V30 5000 C 478.872 -3.14251 4.28275 0
M  V30 5001 C 477.911 -2.78862 5.44888 0
M  V30 5002 N 477.048 -3.93548 5.81433 0
M  V30 5003 H 481.888 -0.501303 2.93753 0
M  V30 5004 H 479.425 -0.235847 1.45197 0
M  V30 5005 H 481.383 -2.98124 2.91853 0
M  V30 5006 H 480.013 -2.6646 1.82205 0
M  V30 5007 H 479.065 -1.07692 3.64838 0
M  V30 5008 H 480.377 -1.62117 4.7172 0
M  V30 5009 H 479.531 -3.97317 4.58502 0
M  V30 5010 H 478.27 -3.47476 3.42215 0
M  V30 5011 H 477.275 -1.94208 5.14357 0
M  V30 5012 H 478.5 -2.46855 6.32645 0
M  V30 5013 H 476.446 -4.2662 4.98328 0
M  V30 5014 H 476.363 -3.67098 6.6089 0
M  V30 5015 H 477.631 -4.77325 6.16264 0
M  V30 5016 N 481.861 -1.55662 -0.24637 0
M  V30 5017 C 483.107 -1.78698 -0.971525 0
M  V30 5018 C 483.462 -0.59577 -1.82944 0
M  V30 5019 O 482.755 0.41097 -1.87141 0
M  V30 5020 C 482.949 -3.04885 -1.86494 0
M  V30 5021 C 482.778 -4.36165 -1.09501 0
M  V30 5022 C 481.548 -4.98929 -0.799895 0
M  V30 5023 C 483.746 -5.12126 -0.472334 0
M  V30 5024 N 481.728 -6.139 -0.00595299 0
M  V30 5025 C 483.099 -6.1972 0.18616 0
M  V30 5026 C 485.154 -4.96426 -0.382854 0
M  V30 5027 C 483.857 -7.13321 0.925542 0
M  V30 5028 C 485.883 -5.90405 0.342999 0
M  V30 5029 C 485.245 -6.97407 0.990128 0
M  V30 5030 H 481.344 -0.705852 -0.336597 0
M  V30 5031 H 483.928 -1.93157 -0.244615 0
M  V30 5032 H 482.099 -2.91753 -2.56388 0
M  V30 5033 H 483.831 -3.16212 -2.5257 0
M  V30 5034 H 480.586 -4.60365 -1.11181 0
M  V30 5035 H 481.01 -6.75938 0.379127 0
M  V30 5036 H 485.652 -4.13777 -0.868834 0
M  V30 5037 H 483.37 -7.9547 1.42312 0
M  V30 5038 H 486.956 -5.80333 0.412907 0
M  V30 5039 H 485.836 -7.68874 1.54282 0
M  V30 5040 N 483.339 0.512053 -1.4905 0
M  V30 5041 C 484.755 0.84224 -1.35567 0
M  V30 5042 C 484.955 1.97878 -0.380319 0
M  V30 5043 O 484.011 2.51769 0.19201 0
M  V30 5044 C 485.324 1.19286 -2.76028 0
M  V30 5045 C 486.872 1.30171 -2.84648 0
M  V30 5046 C 487.347 1.68568 -4.25851 0
M  V30 5047 N 488.838 1.75638 -4.28609 0
M  V30 5048 C 489.573 2.06769 -5.34821 0
M  V30 5049 N 489.069 2.36201 -6.51292 0
M  V30 5050 N 490.862 2.07927 -5.22229 0
M  V30 5051 H 483.013 -0.237574 -2.11067 0
M  V30 5052 H 485.276 -0.0436747 -0.946993 0
M  V30 5053 H 484.982 0.431199 -3.49047 0
M  V30 5054 H 484.856 2.13889 -3.10695 0
M  V30 5055 H 487.243 2.05411 -2.11873 0
M  V30 5056 H 487.324 0.336457 -2.53578 0
M  V30 5057 H 486.968 0.938824 -4.99148 0
M  V30 5058 H 486.898 2.66174 -4.54377 0
M  V30 5059 H 489.389 1.55097 -3.44606 0
M  V30 5060 H 489.702 2.59112 -7.28066 0
M  V30 5061 H 488.047 2.33681 -6.54536 0
M  V30 5062 H 491.238 1.84403 -4.30248 0
M  V30 5063 H 491.411 2.31856 -6.05101 0
M  V30 5064 N 484.817 1.37938 0.762283 0
M  V30 5065 C 486.066 1.32989 1.51647 0
M  V30 5066 C 486.379 -0.0802922 1.95435 0
M  V30 5067 O 487.585 -0.252295 2.70325 0
M  V30 5068 C 486.041 2.33485 2.73885 0
M  V30 5069 C 485.649 3.80079 2.37157 0
M  V30 5070 C 487.393 2.37563 3.51801 0
M  V30 5071 C 485.3 4.72283 3.55954 0
M  V30 5072 H 484.23 0.494301 0.56937 0
M  V30 5073 H 486.881 1.63448 0.834083 0
M  V30 5074 H 485.263 1.96056 3.44061 0
M  V30 5075 H 486.437 4.26398 1.74704 0
M  V30 5076 H 484.752 3.79037 1.72395 0
M  V30 5077 H 487.349 3.0365 4.40114 0
M  V30 5078 H 487.692 1.39199 3.92338 0
M  V30 5079 H 488.225 2.73747 2.8863 0
M  V30 5080 H 484.964 5.7181 3.2049 0
M  V30 5081 H 484.484 4.30663 4.1748 0
M  V30 5082 H 486.163 4.89876 4.22647 0
M  V30 5083 N 486.295 -0.989507 1.22664 0
M  V30 5084 C 487.242 -2.08024 0.999733 0
M  V30 5085 C 488.212 -1.65909 -0.0797047 0
M  V30 5086 O 489.397 -1.90669 0.0705715 0
M  V30 5087 C 486.537 -3.40067 0.587234 0
M  V30 5088 C 485.65 -3.95505 1.73781 0
M  V30 5089 C 484.785 -5.15722 1.27297 0
M  V30 5090 C 483.824 -5.63305 2.39488 0
M  V30 5091 N 482.961 -6.74758 1.94026 0
M  V30 5092 H 487.801 -2.26768 1.9334 0
M  V30 5093 H 485.338 -1.11171 0.963297 0
M  V30 5094 H 487.296 -4.15899 0.329227 0
M  V30 5095 H 485.926 -3.21314 -0.309426 0
M  V30 5096 H 484.978 -3.16513 2.11006 0
M  V30 5097 H 486.29 -4.26797 2.58158 0
M  V30 5098 H 485.444 -5.98854 0.972546 0
M  V30 5099 H 484.183 -4.86061 0.399445 0
M  V30 5100 H 483.188 -4.78759 2.70315 0
M  V30 5101 H 484.413 -5.94988 3.27362 0
M  V30 5102 H 482.359 -6.46874 1.09041 0
M  V30 5103 H 482.276 -7.05386 2.71968 0
M  V30 5104 H 483.544 -7.61387 1.67062 0
M  V30 5105 N 487.773 -1.03688 -1.18687 0
M  V30 5106 C 488.703 -0.645407 -2.24403 0
M  V30 5107 C 489.684 0.349511 -1.66471 0
M  V30 5108 O 490.869 0.230453 -1.92828 0
M  V30 5109 C 487.999 -0.00365337 -3.473 0
M  V30 5110 C 486.953 -0.921705 -4.17958 0
M  V30 5111 C 486.279 -0.144629 -5.34504 0
M  V30 5112 C 487.579 -2.23909 -4.71871 0
M  V30 5113 H 489.273 -1.52917 -2.57404 0
M  V30 5114 H 486.819 -0.736711 -1.23728 0
M  V30 5115 H 488.772 0.281908 -4.20456 0
M  V30 5116 H 487.496 0.914963 -3.13522 0
M  V30 5117 H 486.155 -1.19159 -3.46694 0
M  V30 5118 H 485.803 0.776274 -4.96974 0
M  V30 5119 H 485.503 -0.756206 -5.82714 0
M  V30 5120 H 487.027 0.134004 -6.10453 0
M  V30 5121 H 488.441 -2.0145 -5.36741 0
M  V30 5122 H 486.838 -2.8033 -5.30599 0
M  V30 5123 H 487.908 -2.88822 -3.895 0
M  V30 5124 N 489.251 1.34841 -0.815825 0
M  V30 5125 C 490.528 1.92908 -0.323416 0
M  V30 5126 C 490.908 1.74479 1.18828 0
M  V30 5127 O 490.256 1.11928 1.99209 0
M  V30 5128 C 490.466 3.40957 -0.744952 0
M  V30 5129 C 491.814 4.18107 -0.739716 0
M  V30 5130 O 492.838 3.49511 -0.68708 0
M  V30 5131 O 491.697 5.40517 -0.806456 0
M  V30 5132 H 488.791 0.822436 -0.0867646 0
M  V30 5133 H 491.337 1.4386 -0.90014 0
M  V30 5134 H 490.109 3.4814 -1.78646 0
M  V30 5135 H 489.732 3.97341 -0.143535 0
M  V30 5136 N 490.729 0.570148 1.46925 0
M  V30 5137 C 491.677 -0.183181 2.31878 0
M  V30 5138 C 492.671 -0.896721 1.43719 0
M  V30 5139 O 493.877 -0.816536 1.60414 0
M  V30 5140 H 490.252 -0.077944 0.74795 0
M  V30 5141 H 492.223 0.552312 2.93244 0
M  V30 5142 C 490.972 -1.19172 3.2664 0
M  V30 5143 H 490.295 -0.652088 3.94446 0
M  V30 5144 H 491.735 -1.68946 3.88887 0
M  V30 5145 C 490.194 -2.24627 2.51086 0
M  V30 5146 O 490.724 -3.31773 2.26472 0
M  V30 5147 N 488.93 -1.98898 2.11867 0
M  V30 5148 H 488.477 -1.11777 2.32086 0
M  V30 5149 H 488.435 -2.6967 1.61634 0
M  V30 5150 N 492.207 -1.54576 0.307264 0
M  V30 5151 C 493.437 -2.04378 -0.302158 0
M  V30 5152 C 493.845 -1.18381 -1.47589 0
M  V30 5153 O 493.188 -0.20352 -1.82569 0
M  V30 5154 C 493.25 -3.50133 -0.815305 0
M  V30 5155 C 492.914 -4.56401 0.233977 0
M  V30 5156 C 493.911 -5.08884 1.06456 0
M  V30 5157 C 491.596 -5.0088 0.377478 0
M  V30 5158 C 493.59 -6.04394 2.02452 0
M  V30 5159 C 491.277 -5.96208 1.34088 0
M  V30 5160 C 492.275 -6.47849 2.16288 0
M  V30 5161 O 491.963 -7.41308 3.10994 0
M  V30 5162 H 491.695 -0.672502 -0.0686839 0
M  V30 5163 H 494.249 -2.00484 0.446682 0
M  V30 5164 H 492.479 -3.51371 -1.61478 0
M  V30 5165 H 494.168 -3.83098 -1.34129 0
M  V30 5166 H 494.934 -4.75311 0.964596 0
M  V30 5167 H 490.813 -4.60309 -0.252405 0
M  V30 5168 H 494.357 -6.44626 2.66652 0
M  V30 5169 H 490.254 -6.29198 1.44154 0
M  V30 5170 H 491.022 -7.5913 3.06045 0
M  V30 5171 N 493.685 -0.035106 -1.57561 0
M  V30 5172 C 494.91 0.655802 -1.96759 0
M  V30 5173 C 495.335 1.64523 -0.911809 0
M  V30 5174 O 494.693 1.80857 0.126673 0
M  V30 5175 C 494.741 1.33326 -3.35047 0
M  V30 5176 O 493.845 2.44866 -3.31835 0
M  V30 5177 H 493.186 0.171807 -0.641388 0
M  V30 5178 H 495.716 -0.0987369 -2.04362 0
M  V30 5179 H 495.726 1.68867 -3.71413 0
M  V30 5180 H 494.401 0.608033 -4.11431 0
M  V30 5181 H 492.978 2.11392 -3.07193 0
M  V30 5182 N 495.163 1.55791 0.238111 0
M  V30 5183 C 496.391 1.82098 0.982233 0
M  V30 5184 C 496.806 0.612025 1.78605 0
M  V30 5185 O 496.163 -0.419381 1.77616 0
M  V30 5186 C 496.214 3.0673 1.91309 0
M  V30 5187 O 495.935 4.2296 1.14179 0
M  V30 5188 C 497.436 3.45903 2.77248 0
M  V30 5189 H 494.656 0.605748 0.288635 0
M  V30 5190 H 497.2 2.02862 0.258341 0
M  V30 5191 H 495.355 2.87991 2.59114 0
M  V30 5192 H 495.769 4.93653 1.7722 0
M  V30 5193 H 497.243 4.36189 3.38295 0
M  V30 5194 H 497.72 2.66891 3.48806 0
M  V30 5195 H 498.326 3.67024 2.14881 0
M  V30 5196 N 496.642 -0.504142 1.49319 0
M  V30 5197 C 497.574 -1.62265 1.61872 0
M  V30 5198 C 498.587 -1.54881 0.501573 0
M  V30 5199 O 499.776 -1.6087 0.773497 0
M  V30 5200 C 496.876 -3.01042 1.55651 0
M  V30 5201 C 496.049 -3.33642 2.82845 0
M  V30 5202 C 495.108 -4.51816 2.69719 0
M  V30 5203 O 494.134 -4.53755 3.4365 0
M  V30 5204 N 495.336 -5.51543 1.81055 0
M  V30 5205 H 498.101 -1.51924 2.58339 0
M  V30 5206 H 495.662 -0.691954 1.46368 0
M  V30 5207 H 497.654 -3.78013 1.44528 0
M  V30 5208 H 496.224 -3.05323 0.670546 0
M  V30 5209 H 495.444 -2.45598 3.08343 0
M  V30 5210 H 496.732 -3.5222 3.67177 0
M  V30 5211 H 496.13 -5.52774 1.20241 0
M  V30 5212 H 494.687 -6.27629 1.75856 0
M  V30 5213 N 498.12 -1.38341 -0.754957 0
M  V30 5214 C 499.03 -1.3769 -1.89944 0
M  V30 5215 C 500.046 -0.274194 -1.71826 0
M  V30 5216 O 501.222 -0.512391 -1.94773 0
M  V30 5217 C 498.287 -1.19938 -3.25293 0
M  V30 5218 C 497.348 -2.40001 -3.55946 0
M  V30 5219 C 496.581 -2.23087 -4.84838 0
M  V30 5220 O 496.804 -1.22386 -5.57116 0
M  V30 5221 O 495.738 -3.11646 -5.14937 0
M  V30 5222 H 499.564 -2.3412 -1.93446 0
M  V30 5223 H 497.149 -1.19246 -0.900044 0
M  V30 5224 H 499.031 -1.12093 -4.06218 0
M  V30 5225 H 497.706 -0.265919 -3.22606 0
M  V30 5226 H 496.613 -2.53421 -2.75188 0
M  V30 5227 H 497.946 -3.31973 -3.63394 0
M  V30 5228 N 499.598 0.982988 -1.23187 0
M  V30 5229 C 500.528 2.09301 -1.03515 0
M  V30 5230 C 501.509 1.70035 0.0471136 0
M  V30 5231 O 502.694 1.93847 -0.117029 0
M  V30 5232 C 499.824 3.4167 -0.622791 0
M  V30 5233 C 498.778 3.94828 -1.65211 0
M  V30 5234 C 498.104 5.23362 -1.09527 0
M  V30 5235 C 499.404 4.2439 -3.04451 0
M  V30 5236 H 501.098 2.26016 -1.96359 0
M  V30 5237 H 498.644 1.08611 -0.945501 0
M  V30 5238 H 500.597 4.18746 -0.472233 0
M  V30 5239 H 499.321 3.24811 0.341329 0
M  V30 5240 H 497.98 3.19895 -1.79061 0
M  V30 5241 H 497.628 5.02852 -0.122211 0
M  V30 5242 H 497.328 5.59895 -1.783 0
M  V30 5243 H 498.852 6.03062 -0.956511 0
M  V30 5244 H 500.266 4.92225 -2.93917 0
M  V30 5245 H 498.663 4.72118 -3.70438 0
M  V30 5246 H 499.733 3.31765 -3.53638 0
M  V30 5247 N 501.076 1.04316 1.18135 0
M  V30 5248 C 502.324 0.746542 1.87806 0
M  V30 5249 C 502.645 -0.728082 1.80898 0
M  V30 5250 O 501.915 -1.52554 1.22899 0
M  V30 5251 H 500.495 0.273157 0.695265 0
M  V30 5252 H 503.157 1.32044 1.43354 0
M  V30 5253 H 502.253 1.05362 2.93778 0
M  V30 5254 N 502.554 -1.34406 0.822964 0
M  V30 5255 C 503.501 -2.29519 0.24284 0
M  V30 5256 C 504.471 -1.5359 -0.632397 0
M  V30 5257 O 505.656 -1.8196 -0.57403 0
M  V30 5258 C 502.796 -3.40032 -0.58925 0
M  V30 5259 C 501.909 -4.30899 0.308236 0
M  V30 5260 C 501.044 -5.28515 -0.533425 0
M  V30 5261 C 500.083 -6.1102 0.363444 0
M  V30 5262 N 499.22 -7.00725 -0.439147 0
M  V30 5263 H 504.06 -2.78537 1.05929 0
M  V30 5264 H 501.597 -1.3707 0.533872 0
M  V30 5265 H 503.555 -4.0279 -1.087 0
M  V30 5266 H 502.185 -2.92248 -1.37081 0
M  V30 5267 H 501.237 -3.69002 0.924203 0
M  V30 5268 H 502.549 -4.88717 0.997862 0
M  V30 5269 H 501.703 -5.96725 -1.09565 0
M  V30 5270 H 500.442 -4.71235 -1.25656 0
M  V30 5271 H 499.447 -5.41743 0.937812 0
M  V30 5272 H 500.672 -6.70381 1.08469 0
M  V30 5273 H 498.618 -6.45913 -1.14595 0
M  V30 5274 H 498.535 -7.55756 0.19209 0
M  V30 5275 H 499.803 -7.73263 -0.984124 0
M  V30 5276 N 504.032 -0.577932 -1.46621 0
M  V30 5277 C 505.26 -0.0671642 -2.06791 0
M  V30 5278 C 505.675 1.23571 -1.42743 0
M  V30 5279 O 505.032 1.74602 -0.531062 0
M  V30 5280 C 505.083 0.110357 -3.61332 0
M  V30 5281 O 504.804 -1.14095 -4.22982 0
M  V30 5282 C 506.305 0.656025 -4.38419 0
M  V30 5283 H 503.525 -0.0552732 -0.66872 0
M  V30 5284 H 506.069 -0.797242 -1.8832 0
M  V30 5285 H 504.224 0.790637 -3.79246 0
M  V30 5286 H 504.638 -0.951742 -5.15793 0
M  V30 5287 H 506.112 0.729438 -5.47159 0
M  V30 5288 H 506.589 1.67195 -4.06131 0
M  V30 5289 H 507.195 0.0107692 -4.25299 0
M  V30 5290 N 505.51 1.54411 -0.315457 0
M  V30 5291 C 506.759 1.99599 0.290395 0
M  V30 5292 C 507.072 1.20746 1.53882 0
M  V30 5293 O 508.278 1.56272 2.22017 0
M  V30 5294 C 506.734 3.5539 0.56797 0
M  V30 5295 C 506.342 4.43068 -0.662945 0
M  V30 5296 C 508.086 4.09067 1.13422 0
M  V30 5297 C 505.993 5.90317 -0.357722 0
M  V30 5298 H 504.923 0.745592 0.112286 0
M  V30 5299 H 507.574 1.78477 -0.426418 0
M  V30 5300 H 505.956 3.72468 1.34476 0
M  V30 5301 H 507.13 4.37765 -1.43869 0
M  V30 5302 H 505.445 4.00238 -1.14884 0
M  V30 5303 H 508.042 5.16663 1.37707 0
M  V30 5304 H 508.385 3.60552 2.08106 0
M  V30 5305 H 508.918 3.95589 0.418805 0
M  V30 5306 H 505.657 6.4301 -1.27351 0
M  V30 5307 H 505.177 5.98592 0.380472 0
M  V30 5308 H 506.856 6.4699 0.0354284 0
M  V30 5309 N 506.988 0.0434614 1.5754 0
M  V30 5310 C 508.234 -0.632971 1.92669 0
M  V30 5311 C 508.567 -1.70947 0.921446 0
M  V30 5312 O 507.842 -1.94426 -0.0537202 0
M  V30 5313 C 508.125 -1.23619 3.38216 0
M  V30 5314 C 507.978 -0.168274 4.49485 0
M  V30 5315 C 509.297 -2.15008 3.84005 0
M  V30 5316 H 506.416 -0.228629 0.700641 0
M  V30 5317 H 509.058 0.103651 1.89717 0
M  V30 5318 H 507.208 -1.864 3.40863 0
M  V30 5319 H 508.88 0.463196 4.58969 0
M  V30 5320 H 507.123 0.504581 4.30855 0
M  V30 5321 H 507.794 -0.630218 5.48391 0
M  V30 5322 H 510.27 -1.62198 3.83185 0
M  V30 5323 H 509.146 -2.54161 4.86511 0
M  V30 5324 H 509.407 -3.04707 3.20322 0
M  V30 5325 N 508.466 -1.55915 -0.229846 0
M  V30 5326 C 509.696 -1.82352 -0.971152 0
M  V30 5327 C 510.104 -0.619231 -1.7878 0
M  V30 5328 O 509.447 0.421597 -1.78797 0
M  V30 5329 C 509.509 -3.02399 -1.9441 0
M  V30 5330 C 509.173 -4.37739 -1.31277 0
M  V30 5331 C 510.17 -5.15074 -0.706757 0
M  V30 5332 C 507.855 -4.84454 -1.32702 0
M  V30 5333 C 509.849 -6.37281 -0.123413 0
M  V30 5334 C 507.536 -6.06605 -0.739831 0
M  V30 5335 C 508.534 -6.82858 -0.139071 0
M  V30 5336 O 508.222 -8.027 0.439007 0
M  V30 5337 H 507.954 -0.61035 -0.290601 0
M  V30 5338 H 510.508 -2.03839 -0.252746 0
M  V30 5339 H 508.738 -2.76709 -2.70128 0
M  V30 5340 H 510.427 -3.15779 -2.55026 0
M  V30 5341 H 511.193 -4.80093 -0.688131 0
M  V30 5342 H 507.072 -4.25081 -1.78402 0
M  V30 5343 H 510.616 -6.96741 0.346124 0
M  V30 5344 H 506.513 -6.4106 -0.755841 0
M  V30 5345 H 507.281 -8.17824 0.332521 0
M  V30 5346 N 509.944 0.496216 -1.49584 0
M  V30 5347 C 510.874 1.60576 -1.69521 0
M  V30 5348 C 511.855 1.61169 -0.543933 0
M  V30 5349 O 513.04 1.77834 -0.78031 0
M  V30 5350 C 510.17 2.99038 -1.76616 0
M  V30 5351 C 509.124 3.13312 -2.91581 0
M  V30 5352 C 508.45 4.53172 -2.83794 0
M  V30 5353 C 509.75 2.92886 -4.32452 0
M  V30 5354 H 511.444 1.44146 -2.62416 0
M  V30 5355 H 508.99 0.692024 -1.26282 0
M  V30 5356 H 510.943 3.76564 -1.8915 0
M  V30 5357 H 509.667 3.16568 -0.80324 0
M  V30 5358 H 508.326 2.38213 -2.78658 0
M  V30 5359 H 507.974 4.67585 -1.854 0
M  V30 5360 H 507.674 4.63662 -3.60958 0
M  V30 5361 H 509.198 5.32752 -2.98342 0
M  V30 5362 H 510.612 3.60178 -4.46032 0
M  V30 5363 H 509.009 3.14844 -5.10875 0
M  V30 5364 H 510.079 1.88966 -4.46565 0
M  V30 5365 N 511.423 1.38739 0.74761 0
M  V30 5366 C 512.7 1.25791 1.49786 0
M  V30 5367 C 513.08 -0.138075 2.10648 0
M  V30 5368 O 512.428 -1.14815 1.9756 0
M  V30 5369 C 512.638 2.37265 2.55942 0
M  V30 5370 C 513.986 2.75978 3.22679 0
M  V30 5371 O 515.01 2.36621 2.6625 0
M  V30 5372 O 513.869 3.43867 4.24756 0
M  V30 5373 H 510.963 0.492251 0.664543 0
M  V30 5374 H 513.509 1.50582 0.782511 0
M  V30 5375 H 512.281 3.30644 2.0926 0
M  V30 5376 H 511.904 2.14071 3.35051 0
M  V30 5377 N 512.901 -0.976442 1.23707 0
M  V30 5378 C 514.149 -1.71487 1.06942 0
M  V30 5379 C 514.47 -1.9098 -0.393897 0
M  V30 5380 O 513.74 -1.48128 -1.28198 0
M  V30 5381 H 512.32 -0.635425 0.392739 0
M  V30 5382 H 514.982 -1.17515 1.55487 0
M  V30 5383 H 514.078 -2.70286 1.56051 0
M  V30 5384 N 514.379 -1.04941 -1.1758 0
M  V30 5385 C 515.604 -0.778253 -1.92245 0
M  V30 5386 C 516.029 0.659707 -1.76152 0
M  V30 5387 O 515.387 1.45803 -1.07755 0
M  V30 5388 C 515.435 -1.16051 -3.41416 0
M  V30 5389 O 514.539 -0.291153 -4.11371 0
M  V30 5390 H 513.88 -0.285619 -0.599431 0
M  V30 5391 H 516.41 -1.40159 -1.49052 0
M  V30 5392 H 516.42 -1.12619 -3.92149 0
M  V30 5393 H 515.095 -2.208 -3.52449 0
M  V30 5394 H 513.672 -0.385851 -3.70898 0
M  V30 5395 N 515.857 1.33968 -0.830081 0
M  V30 5396 C 517.082 2.02813 -0.433796 0
M  V30 5397 C 517.507 1.62076 0.954614 0
M  V30 5398 O 516.865 0.808955 1.62252 0
M  V30 5399 C 516.913 3.56348 -0.552115 0
M  V30 5400 O 516.017 4.10202 0.425191 0
M  V30 5401 H 515.358 0.639817 -0.177567 0
M  V30 5402 H 517.888 1.7106 -1.12248 0
M  V30 5403 H 517.898 4.05722 -0.430513 0
M  V30 5404 H 516.573 3.85344 -1.56471 0
M  V30 5405 H 515.15 3.71979 0.261878 0
M  V30 5406 N 517.335 0.585699 1.46312 0
M  V30 5407 C 518.267 -0.183687 2.28463 0
M  V30 5408 C 519.28 -0.85264 1.38686 0
M  V30 5409 O 520.469 -0.721701 1.6326 0
M  V30 5410 C 517.569 -1.27977 3.13808 0
M  V30 5411 C 516.742 -0.702164 4.31727 0
M  V30 5412 C 515.801 -1.68633 4.98447 0
M  V30 5413 O 514.827 -1.22121 5.55945 0
M  V30 5414 N 516.029 -3.02047 4.95729 0
M  V30 5415 H 518.794 0.521127 2.95134 0
M  V30 5416 H 516.355 0.423673 1.56258 0
M  V30 5417 H 518.347 -1.9375 3.55307 0
M  V30 5418 H 516.917 -1.8874 2.4919 0
M  V30 5419 H 516.137 0.1331 3.93975 0
M  V30 5420 H 517.425 -0.296101 5.07938 0
M  V30 5421 H 516.823 -3.42457 4.50266 0
M  V30 5422 H 515.38 -3.63301 5.41161 0
M  V30 5423 N 518.813 -1.54241 0.323641 0
M  V30 5424 C 520.038 -2.05452 -0.283605 0
M  V30 5425 C 520.463 -1.19823 -1.44997 0
M  V30 5426 O 519.821 -0.207358 -1.8011 0
M  V30 5427 C 519.869 -3.53823 -0.695795 0
M  V30 5428 O 518.973 -3.71134 -1.79815 0
M  V30 5429 H 518.314 -0.662024 -0.0511917 0
M  V30 5430 H 520.844 -1.99079 0.472073 0
M  V30 5431 H 520.854 -3.96094 -0.978434 0
M  V30 5432 H 519.529 -4.15602 0.157287 0
M  V30 5433 H 518.106 -3.40768 -1.51431 0
M  V30 5434 N 520.291 -0.0518155 -1.57515 0
M  V30 5435 C 521.531 0.625712 -1.94587 0
M  V30 5436 C 521.895 1.6797 -0.930053 0
M  V30 5437 O 523.096 2.41135 -1.18774 0
M  V30 5438 C 521.367 1.20574 -3.36447 0
M  V30 5439 S 522.926 1.90118 -3.95475 0
M  V30 5440 H 519.744 0.205434 -0.680675 0
M  V30 5441 H 522.346 -0.120906 -1.95126 0
M  V30 5442 H 521.05 0.426521 -4.08178 0
M  V30 5443 H 520.581 1.98916 -3.39405 0
M  V30 5444 H 522.596 3.18184 -3.80753 0
M  V30 5445 N 521.769 1.56035 0.221574 0
M  V30 5446 C 523.185 1.49026 0.571271 0
M  V30 5447 C 523.385 0.746912 1.87146 0
M  V30 5448 O 522.441 0.286566 2.50869 0
M  V30 5449 C 523.754 2.93579 0.650522 0
M  V30 5450 C 525.302 3.04099 0.741151 0
M  V30 5451 C 525.777 4.5001 0.851747 0
M  V30 5452 N 527.268 4.54053 0.915968 0
M  V30 5453 C 528.003 5.64232 1.02125 0
M  V30 5454 N 527.499 6.84164 1.09049 0
M  V30 5455 N 529.292 5.52084 1.05639 0
M  V30 5456 H 521.443 2.02791 -0.63162 0
M  V30 5457 H 523.706 0.921736 -0.221602 0
M  V30 5458 H 523.412 3.50912 -0.235253 0
M  V30 5459 H 523.286 3.45476 1.51413 0
M  V30 5460 H 525.673 2.4683 1.61737 0
M  V30 5461 H 525.754 2.55371 -0.148128 0
M  V30 5462 H 525.398 5.07896 -0.0200117 0
M  V30 5463 H 525.328 4.96444 1.75644 0
M  V30 5464 H 527.819 3.67683 0.872782 0
M  V30 5465 H 528.132 7.63883 1.1706 0
M  V30 5466 H 526.477 6.86875 1.05962 0
M  V30 5467 H 529.668 4.57317 0.998953 0
M  V30 5468 H 529.841 6.37983 1.13498 0
M  V30 5469 N 523.247 -0.488276 1.49845 0
M  V30 5470 C 524.494 -1.24157 1.59973 0
M  V30 5471 C 524.822 -1.92293 0.292182 0
M  V30 5472 O 524.077 -1.81942 -0.720813 0
M  V30 5473 C 524.376 -2.32152 2.71735 0
M  V30 5474 C 524.042 -1.81387 4.12807 0
M  V30 5475 C 522.704 -1.67262 4.51195 0
M  V30 5476 C 525.056 -1.43537 5.01045 0
M  V30 5477 C 522.384 -1.13685 5.7558 0
M  V30 5478 C 524.736 -0.914081 6.25961 0
M  V30 5479 C 523.4 -0.759327 6.63167 0
M  V30 5480 H 522.67 -0.454322 0.585383 0
M  V30 5481 H 525.317 -0.540261 1.83721 0
M  V30 5482 H 523.622 -3.08122 2.42008 0
M  V30 5483 H 525.319 -2.90164 2.76778 0
M  V30 5484 H 521.909 -1.93344 3.82513 0
M  V30 5485 H 526.093 -1.53292 4.72033 0
M  V30 5486 H 521.349 -1.00426 6.03096 0
M  V30 5487 H 525.523 -0.612066 6.93705 0
M  V30 5488 H 523.15 -0.342002 7.5943 0
M  V30 5489 N 524.725 -1.39134 -0.740242 0
M  V30 5490 C 526.141 -1.20623 -1.0451 0
M  V30 5491 C 526.341 -0.0641651 -2.01398 0
M  V30 5492 O 525.397 0.585843 -2.4561 0
M  V30 5493 C 526.71 -2.53815 -1.6124 0
M  V30 5494 C 528.258 -2.60615 -1.73346 0
M  V30 5495 C 528.733 -3.94015 -2.33486 0
M  V30 5496 N 530.224 -3.95627 -2.40902 0
M  V30 5497 C 530.959 -4.95616 -2.88361 0
M  V30 5498 N 530.455 -6.06003 -3.35756 0
M  V30 5499 N 532.248 -4.82998 -2.87523 0
M  V30 5500 H 524.399 -2.12176 -0.0975576 0
M  V30 5501 H 526.662 -0.942066 -0.105904 0
M  V30 5502 H 526.368 -3.37911 -0.975144 0
M  V30 5503 H 526.242 -2.73162 -2.6012 0
M  V30 5504 H 528.629 -1.76906 -2.36195 0
M  V30 5505 H 528.71 -2.45123 -0.731336 0
M  V30 5506 H 528.354 -4.78153 -1.71267 0
M  V30 5507 H 528.284 -4.06825 -3.34366 0
M  V30 5508 H 530.775 -3.15903 -2.07398 0
M  V30 5509 H 531.088 -6.78215 -3.70464 0
M  V30 5510 H 529.433 -6.09604 -3.33778 0
M  V30 5511 H 532.624 -3.95866 -2.49816 0
M  V30 5512 H 532.797 -5.61072 -3.24196 0
M  V30 5513 N 526.204 0.969867 -1.24223 0
M  V30 5514 C 527.114 2.09806 -1.0497 0
M  V30 5515 C 528.13 1.73998 0.00886455 0
M  V30 5516 O 529.306 2.00513 -0.188848 0
M  V30 5517 C 526.371 3.40467 -0.654452 0
M  V30 5518 C 525.432 3.90236 -1.78926 0
M  V30 5519 C 524.665 5.14662 -1.41277 0
M  V30 5520 O 524.888 5.69602 -0.301632 0
M  V30 5521 O 523.822 5.58761 -2.23763 0
M  V30 5522 H 527.648 2.28942 -1.99548 0
M  V30 5523 H 525.233 1.08197 -1.03023 0
M  V30 5524 H 527.115 4.19039 -0.445452 0
M  V30 5525 H 525.79 3.22636 0.262216 0
M  V30 5526 H 524.697 3.12735 -2.05299 0
M  V30 5527 H 526.03 4.1254 -2.68462 0
M  V30 5528 N 527.682 1.05563 1.17022 0
M  V30 5529 C 528.922 0.777033 1.89054 0
M  V30 5530 C 529.286 -0.683617 1.79418 0
M  V30 5531 O 530.487 -1.07648 2.46303 0
M  V30 5532 C 528.758 1.24886 3.34871 0
M  V30 5533 S 530.317 1.0982 4.24835 0
M  V30 5534 H 527.135 0.282082 0.652649 0
M  V30 5535 H 529.737 1.35103 1.41306 0
M  V30 5536 H 528.441 2.30699 3.3942 0
M  V30 5537 H 527.972 0.669292 3.87665 0
M  V30 5538 H 529.987 0.02462 4.96194 0
M  V30 5539 N 529.16 -1.33526 0.837174 0
M  V30 5540 C 530.108 -2.31168 0.257698 0
M  V30 5541 C 531.102 -1.5806 -0.609388 0
M  V30 5542 O 532.308 -1.72941 -0.499139 0
M  V30 5543 H 528.683 -0.74922 0.0646058 0
M  V30 5544 H 530.654 -2.77552 1.09578 0
M  V30 5545 C 529.403 -3.4326 -0.553887 0
M  V30 5546 H 528.726 -3.99665 0.104008 0
M  V30 5547 H 530.166 -4.13782 -0.925219 0
M  V30 5548 C 528.625 -2.88965 -1.73207 0
M  V30 5549 O 529.155 -2.85013 -2.83073 0
M  V30 5550 N 527.361 -2.45596 -1.55342 0
M  V30 5551 H 526.908 -2.49009 -0.659705 0
M  V30 5552 H 526.866 -2.0962 -2.34322 0
M  V30 5553 N 530.638 -0.59345 -1.46 0
M  V30 5554 C 531.571 0.182196 -2.27472 0
M  V30 5555 C 532.549 0.886901 -1.36282 0
M  V30 5556 O 533.733 0.898627 -1.65701 0
M  V30 5557 C 530.86 1.26236 -3.14296 0
M  V30 5558 C 529.906 0.662331 -4.21326 0
M  V30 5559 S 530.739 -0.519017 -5.32979 0
M  V30 5560 C 531.895 0.562086 -6.23371 0
M  V30 5561 H 532.128 -0.509056 -2.92909 0
M  V30 5562 H 529.661 -0.380607 -1.49635 0
M  V30 5563 H 531.619 1.88075 -3.64881 0
M  V30 5564 H 530.28 1.92562 -2.48151 0
M  V30 5565 H 529.473 1.47461 -4.81945 0
M  V30 5566 H 529.075 0.119381 -3.73809 0
M  V30 5567 H 531.367 1.44494 -6.61912 0
M  V30 5568 H 532.31 -0.00760776 -7.081 0
M  V30 5569 H 532.718 0.871061 -5.57739 0
M  V30 5570 N 532.116 1.54067 -0.331816 0
M  V30 5571 C 533.364 2.00319 0.267739 0
M  V30 5572 C 533.685 1.22148 1.52003 0
M  V30 5573 O 532.955 0.325494 1.93177 0
M  V30 5574 H 531.535 0.740014 0.101922 0
M  V30 5575 H 534.197 1.89628 -0.450267 0
M  V30 5576 H 533.293 3.07765 0.518385 0
M  V30 5577 N 533.594 0.0601682 1.57485 0
M  V30 5578 C 534.542 -0.928899 2.13247 0
M  V30 5579 C 535.536 -1.31616 1.06647 0
M  V30 5580 O 536.742 -1.29476 1.25043 0
M  V30 5581 H 533.117 -0.317455 0.681708 0
M  V30 5582 H 535.088 -0.433566 2.95233 0
M  V30 5583 C 533.837 -2.19121 2.69965 0
M  V30 5584 H 533.16 -1.90204 3.51657 0
M  V30 5585 H 534.6 -2.86465 3.12592 0
M  V30 5586 C 533.059 -2.94195 1.64168 0
M  V30 5587 O 533.589 -3.87468 1.05978 0
M  V30 5588 N 531.795 -2.57089 1.35476 0
M  V30 5589 H 531.342 -1.81314 1.82984 0
M  V30 5590 H 531.3 -3.07624 0.649196 0
M  V30 5591 N 535.072 -1.5615 -0.213296 0
M  V30 5592 C 536.002 -1.96109 -1.26742 0
M  V30 5593 C 536.983 -0.830448 -1.48451 0
M  V30 5594 O 538.168 -1.09339 -1.60495 0
M  V30 5595 C 535.298 -2.28492 -2.61551 0
M  V30 5596 C 534.252 -3.44124 -2.54485 0
M  V30 5597 C 533.578 -3.62134 -3.93399 0
M  V30 5598 C 534.878 -4.78855 -2.08556 0
M  V30 5599 H 536.572 -2.84412 -0.935434 0
M  V30 5600 H 534.118 -1.36836 -0.44854 0
M  V30 5601 H 536.071 -2.55039 -3.3546 0
M  V30 5602 H 534.795 -1.37052 -2.96453 0
M  V30 5603 H 533.454 -3.17639 -1.83033 0
M  V30 5604 H 533.102 -2.68055 -4.25623 0
M  V30 5605 H 532.802 -4.39913 -3.89551 0
M  V30 5606 H 534.326 -3.91038 -4.68958 0
M  V30 5607 H 535.74 -5.04552 -2.72213 0
M  V30 5608 H 534.137 -5.59975 -2.1575 0
M  V30 5609 H 535.207 -4.73657 -1.03811 0
M  V30 5610 N 536.55 0.480323 -1.50102 0
M  V30 5611 C 537.799 1.22979 -1.59872 0
M  V30 5612 C 538.112 1.93282 -0.30022 0
M  V30 5613 O 539.318 2.70086 -0.276709 0
M  V30 5614 C 537.774 2.23408 -2.82164 0
M  V30 5615 C 537.382 1.5895 -4.18854 0
M  V30 5616 C 539.126 2.99055 -3.01275 0
M  V30 5617 C 537.033 2.57611 -5.32344 0
M  V30 5618 H 535.963 0.462707 -0.59533 0
M  V30 5619 H 538.614 0.501291 -1.7652 0
M  V30 5620 H 536.996 2.99511 -2.59055 0
M  V30 5621 H 538.17 0.887 -4.52182 0
M  V30 5622 H 536.485 0.956191 -4.05273 0
M  V30 5623 H 539.082 3.72876 -3.83233 0
M  V30 5624 H 539.425 3.57897 -2.12639 0
M  V30 5625 H 539.958 2.30066 -3.24522 0
M  V30 5626 H 536.697 2.03521 -6.23105 0
M  V30 5627 H 536.217 3.26041 -5.03445 0
M  V30 5628 H 537.896 3.19627 -5.62537 0
M  V30 5629 N 538.028 1.39524 0.732853 0
M  V30 5630 C 539.268 1.383 1.50508 0
M  V30 5631 C 539.632 -0.0208271 1.91989 0
M  V30 5632 O 540.833 -0.158091 2.68335 0
M  V30 5633 C 539.104 2.33007 2.71003 0
M  V30 5634 S 540.663 2.49989 3.60626 0
M  V30 5635 H 537.481 0.490417 0.514794 0
M  V30 5636 H 540.083 1.75641 0.858524 0
M  V30 5637 H 538.787 3.33862 2.38672 0
M  V30 5638 H 538.318 1.96889 3.40585 0
M  V30 5639 H 540.333 1.7394 4.64714 0
M  V30 5640 N 539.506 -0.963266 1.24736 0
M  V30 5641 C 540.783 -1.68248 0.9976 0
M  V30 5642 C 541.163 -2.05599 -0.478776 0
M  V30 5643 O 540.511 -1.7626 -1.45412 0
M  V30 5644 C 540.721 -2.91118 1.92487 0
M  V30 5645 C 542.069 -3.63261 2.19833 0
M  V30 5646 O 543.093 -3.01184 1.90176 0
M  V30 5647 O 541.952 -4.75019 2.7022 0
M  V30 5648 H 539.046 -0.735744 0.377637 0
M  V30 5649 H 541.592 -1.01696 1.35853 0
M  V30 5650 H 540.364 -2.60242 2.92215 0
M  V30 5651 H 539.987 -3.65402 1.56738 0
M  V30 5652 N 540.985 -1.06182 -1.16461 0
M  V30 5653 C 541.948 -0.675723 -2.19013 0
M  V30 5654 C 542.948 0.277963 -1.58379 0
M  V30 5655 O 544.138 0.0604962 -1.74095 0
M  V30 5656 C 541.27 0.00591459 -3.40899 0
M  V30 5657 H 542.463 -1.58353 -2.54685 0
M  V30 5658 H 540.016 -0.856908 -1.30716 0
M  V30 5659 H 540.751 0.92652 -3.10783 0
M  V30 5660 H 540.536 -0.67984 -3.86161 0
M  V30 5661 H 542.026 0.26181 -4.16778 0
M  V30 5662 N 542.463 1.3308 -0.844243 0
M  V30 5663 C 543.396 2.27075 -0.226279 0
M  V30 5664 C 544.374 1.49911 0.629716 0
M  V30 5665 O 545.558 1.79068 0.588803 0
M  V30 5666 C 542.685 3.31767 0.681782 0
M  V30 5667 C 541.731 4.26384 -0.0994565 0
M  V30 5668 S 542.564 5.15186 -1.46094 0
M  V30 5669 C 543.72 6.23405 -0.558319 0
M  V30 5670 H 543.953 2.79141 -1.02312 0
M  V30 5671 H 541.486 1.40452 -0.641292 0
M  V30 5672 H 543.444 3.92566 1.20008 0
M  V30 5673 H 542.105 2.78507 1.45234 0
M  V30 5674 H 541.298 5.00514 0.591733 0
M  V30 5675 H 540.9 3.69949 -0.548991 0
M  V30 5676 H 543.192 6.77069 0.241672 0
M  V30 5677 H 544.135 6.96619 -1.26995 0
M  V30 5678 H 544.543 5.64333 -0.13728 0
M  V30 5679 N 543.941 0.601185 1.45683 0
M  V30 5680 C 545.19 0.0914953 2.01492 0
M  V30 5681 C 545.503 -1.28331 1.47616 0
M  V30 5682 O 546.709 -1.88537 1.95362 0
M  V30 5683 C 545.165 0.11291 3.59723 0
M  V30 5684 C 544.773 1.48717 4.22596 0
M  V30 5685 C 546.517 -0.341871 4.23121 0
M  V30 5686 C 544.424 1.46531 5.7296 0
M  V30 5687 H 543.354 0.0304365 0.753385 0
M  V30 5688 H 546.005 0.755568 1.67223 0
M  V30 5689 H 544.387 -0.617692 3.91153 0
M  V30 5690 H 545.561 2.23897 4.02749 0
M  V30 5691 H 543.876 1.88351 3.71366 0
M  V30 5692 H 546.473 -0.377304 5.33367 0
M  V30 5693 H 546.816 -1.36325 3.93346 0
M  V30 5694 H 547.349 0.335256 3.96385 0
M  V30 5695 H 544.088 2.46408 6.07423 0
M  V30 5696 H 543.608 0.755997 5.95017 0
M  V30 5697 H 545.287 1.18618 6.36034 0
M  V30 5698 N 545.419 -1.53889 0.339982 0
M  V30 5699 C 546.367 -2.26391 -0.533822 0
M  V30 5700 C 547.361 -1.28404 -1.10493 0
M  V30 5701 O 548.567 -1.46124 -1.05108 0
M  V30 5702 H 544.942 -0.727385 -0.190828 0
M  V30 5703 H 546.913 -2.98233 0.0997484 0
M  V30 5704 C 545.662 -3.04707 -1.67479 0
M  V30 5705 H 544.985 -3.79934 -1.2446 0
M  V30 5706 H 546.425 -3.58657 -2.26144 0
M  V30 5707 C 544.884 -2.13989 -2.60212 0
M  V30 5708 O 545.414 -1.73361 -3.62366 0
M  V30 5709 N 543.62 -1.79141 -2.28816 0
M  V30 5710 H 543.167 -2.12378 -1.45785 0
M  V30 5711 H 543.125 -1.18725 -2.91121 0
M  V30 5712 N 546.897 -0.0685191 -1.57451 0
M  V30 5713 C 547.845 0.917577 -2.13736 0
M  V30 5714 C 548.839 1.31049 -1.07344 0
M  V30 5715 O 550.045 1.28811 -1.25728 0
M  V30 5716 H 546.42 0.313835 -0.683382 0
M  V30 5717 H 548.391 0.417903 -2.95459 0
M  V30 5718 C 547.14 2.17686 -2.71123 0
M  V30 5719 H 546.463 1.88336 -3.52661 0
M  V30 5720 H 547.903 2.84803 -3.14107 0
M  V30 5721 C 546.362 2.9332 -1.65726 0
M  V30 5722 O 546.892 3.86901 -1.08031 0
M  V30 5723 N 545.098 2.56367 -1.36837 0
M  V30 5724 H 544.645 1.80341 -1.83943 0
M  V30 5725 H 544.603 3.07276 -0.665501 0
M  V30 5726 N 548.375 1.56261 0.205012 0
M  V30 5727 C 549.323 1.94631 1.27364 0
M  V30 5728 C 550.317 0.830434 1.47649 0
M  V30 5729 O 551.523 1.01538 1.48627 0
M  V30 5730 H 547.898 0.618755 0.427371 0
M  V30 5731 H 549.869 2.83768 0.922941 0
M  V30 5732 C 548.618 2.29358 2.61324 0
M  V30 5733 H 547.941 3.14744 2.46528 0
M  V30 5734 H 549.381 2.60076 3.34868 0
M  V30 5735 C 547.84 1.12461 3.17575 0
M  V30 5736 O 548.37 0.394407 3.99759 0
M  V30 5737 N 546.576 0.904036 2.7618 0
M  V30 5738 H 546.123 1.49956 2.09454 0
M  V30 5739 H 546.081 0.123662 3.14157 0
M  V30 5740 N 549.853 -0.472356 1.50355 0
M  V30 5741 C 550.783 -1.57859 1.72055 0
M  V30 5742 C 551.764 -1.60283 0.569505 0
M  V30 5743 O 552.949 -1.7657 0.808503 0
M  V30 5744 C 550.079 -2.96191 1.81351 0
M  V30 5745 C 549.033 -3.08633 2.96529 0
M  V30 5746 C 548.359 -4.486 2.90968 0
M  V30 5747 C 549.659 -2.85969 4.37057 0
M  V30 5748 H 551.353 -1.39953 2.64676 0
M  V30 5749 H 548.899 -0.671846 1.27367 0
M  V30 5750 H 550.852 -3.73507 1.95117 0
M  V30 5751 H 549.576 -3.15251 0.853502 0
M  V30 5752 H 548.235 -2.33749 2.82413 0
M  V30 5753 H 547.883 -4.64577 1.92815 0
M  V30 5754 H 547.583 -4.57861 3.68289 0
M  V30 5755 H 549.107 -5.27938 3.0678 0
M  V30 5756 H 550.521 -3.53036 4.51706 0
M  V30 5757 H 548.918 -3.06677 5.15819 0
M  V30 5758 H 549.988 -1.81838 4.49514 0
M  V30 5759 N 551.331 -1.39911 -0.725443 0
M  V30 5760 C 552.747 -1.21725 -1.03224 0
M  V30 5761 C 552.947 -0.0855224 -2.01318 0
M  V30 5762 O 552.003 0.55976 -2.46217 0
M  V30 5763 C 553.316 -2.55511 -1.58539 0
M  V30 5764 C 554.864 -2.62439 -1.70572 0
M  V30 5765 C 555.339 -3.9647 -2.29294 0
M  V30 5766 N 556.83 -3.98159 -2.36692 0
M  V30 5767 C 557.565 -4.98647 -2.83088 0
M  V30 5768 N 557.061 -6.0953 -3.2931 0
M  V30 5769 N 558.854 -4.8602 -2.82384 0
M  V30 5770 H 551.005 -2.12267 -0.075048 0
M  V30 5771 H 553.268 -0.943136 -0.0959066 0
M  V30 5772 H 552.974 -3.38926 -0.939249 0
M  V30 5773 H 552.848 -2.75905 -2.57208 0
M  V30 5774 H 555.235 -1.79401 -2.34306 0
M  V30 5775 H 555.316 -2.45885 -0.705297 0
M  V30 5776 H 554.96 -4.79942 -1.66186 0
M  V30 5777 H 554.89 -4.10349 -3.30032 0
M  V30 5778 H 557.381 -3.18085 -2.04035 0
M  V30 5779 H 557.694 -6.82106 -3.6325 0
M  V30 5780 H 556.039 -6.1311 -3.27294 0
M  V30 5781 H 559.23 -3.98493 -2.45603 0
M  V30 5782 H 559.403 -5.64478 -3.18226 0
M  V30 5783 N 552.809 0.956637 -1.25245 0
M  V30 5784 C 553.759 2.03841 -1.02141 0
M  V30 5785 C 554.743 1.60848 0.0410058 0
M  V30 5786 O 555.935 1.76142 -0.174084 0
M  V30 5787 C 553.064 3.37282 -0.639963 0
M  V30 5788 C 552.15 3.86805 -1.73903 0
M  V30 5789 N 552.541 4.09143 -2.97381 0
M  V30 5790 C 550.839 4.15574 -1.61909 0
M  V30 5791 C 551.54 4.49923 -3.68707 0
M  V30 5792 N 550.516 4.55737 -2.96318 0
M  V30 5793 H 554.318 2.19102 -1.95886 0
M  V30 5794 H 551.832 1.1413 -1.15534 0
M  V30 5795 H 553.829 4.14403 -0.455643 0
M  V30 5796 H 552.489 3.23401 0.29018 0
M  V30 5797 H 553.5 3.96275 -3.33447 0
M  V30 5798 H 550.177 4.10566 -0.757764 0
M  V30 5799 H 551.567 4.75526 -4.74684 0
M  V30 5800 N 554.287 1.06798 1.15896 0
M  V30 5801 C 555.515 0.808694 1.90441 0
M  V30 5802 C 555.93 -0.637506 1.77711 0
M  V30 5803 O 555.287 -1.43684 1.12522 0
M  V30 5804 C 555.338 1.20068 3.40978 0
M  V30 5805 O 555.059 2.59013 3.53333 0
M  V30 5806 C 556.56 0.96987 4.3256 0
M  V30 5807 H 553.78 0.292809 0.603742 0
M  V30 5808 H 556.324 1.42296 1.46874 0
M  V30 5809 H 554.479 0.630842 3.82229 0
M  V30 5810 H 554.893 2.7485 4.46719 0
M  V30 5811 H 556.367 1.29371 5.36626 0
M  V30 5812 H 556.844 -0.0941209 4.39099 0
M  V30 5813 H 557.45 1.52433 3.97044 0
M  V30 5814 N 555.766 -1.3263 0.851289 0
M  V30 5815 C 557.043 -1.91982 0.374448 0
M  V30 5816 C 557.423 -1.77568 -1.14161 0
M  V30 5817 O 556.771 -1.1717 -1.96172 0
M  V30 5818 C 556.981 -3.38862 0.835088 0
M  V30 5819 C 558.329 -4.15999 0.850309 0
M  V30 5820 O 559.353 -3.47566 0.779505 0
M  V30 5821 O 558.212 -5.38189 0.949481 0
M  V30 5822 H 555.306 -0.819846 0.10854 0
M  V30 5823 H 557.852 -1.41422 0.937966 0
M  V30 5824 H 556.624 -3.43281 1.87814 0
M  V30 5825 H 556.247 -3.96821 0.248833 0
M  V30 5826 N 557.244 -0.608902 -1.45362 0
M  V30 5827 C 558.154 0.110969 -2.34337 0
M  V30 5828 C 559.17 0.859007 -1.51318 0
M  V30 5829 O 560.346 0.816296 -1.84116 0
M  V30 5830 C 557.411 1.09494 -3.28956 0
M  V30 5831 C 556.472 0.348718 -4.27881 0
M  V30 5832 C 555.705 1.28582 -5.17979 0
M  V30 5833 O 555.928 2.52369 -5.11533 0
M  V30 5834 O 554.862 0.782172 -5.96796 0
M  V30 5835 H 558.688 -0.620258 -2.97299 0
M  V30 5836 H 556.273 -0.36916 -1.44767 0
M  V30 5837 H 558.155 1.66163 -3.87257 0
M  V30 5838 H 556.83 1.80717 -2.68557 0
M  V30 5839 H 555.737 -0.260465 -3.73192 0
M  V30 5840 H 557.07 -0.323049 -4.91139 0
M  V30 5841 N 558.722 1.53707 -0.348139 0
M  V30 5842 C 559.655 2.21481 0.549667 0
M  V30 5843 C 560.633 1.20046 1.09671 0
M  V30 5844 O 561.817 1.48883 1.15612 0
M  V30 5845 C 558.944 2.89585 1.75664 0
M  V30 5846 C 557.99 4.04948 1.33864 0
M  V30 5847 S 558.823 5.34325 0.354577 0
M  V30 5848 C 559.979 6.05934 1.56828 0
M  V30 5849 H 560.212 2.97289 -0.0259755 0
M  V30 5850 H 557.745 1.53833 -0.132216 0
M  V30 5851 H 559.703 3.29441 2.44906 0
M  V30 5852 H 558.364 2.13535 2.30351 0
M  V30 5853 H 557.557 4.51552 2.23868 0
M  V30 5854 H 557.159 3.66893 0.725651 0
M  V30 5855 H 559.451 6.29606 2.50205 0
M  V30 5856 H 560.394 6.98799 1.14395 0
M  V30 5857 H 560.802 5.36151 1.76642 0
M  V30 5858 N 560.2 0.0768682 1.57412 0
M  V30 5859 C 561.447 -0.591085 1.93681 0
M  V30 5860 C 561.775 -1.69311 0.957286 0
M  V30 5861 O 561.03 -1.95682 -0.0262428 0
M  V30 5862 C 561.329 -1.20268 3.36557 0
M  V30 5863 C 560.995 -0.226286 4.50332 0
M  V30 5864 C 559.657 0.0423142 4.81181 0
M  V30 5865 C 562.009 0.441415 5.19327 0
M  V30 5866 C 559.337 0.985616 5.78362 0
M  V30 5867 C 561.689 1.37307 6.17519 0
M  V30 5868 C 560.353 1.65009 6.46783 0
M  V30 5869 H 559.623 -0.216293 0.70873 0
M  V30 5870 H 562.27 0.148824 1.90921 0
M  V30 5871 H 560.575 -2.01844 3.35807 0
M  V30 5872 H 562.272 -1.72688 3.61911 0
M  V30 5873 H 558.862 -0.445821 4.26275 0
M  V30 5874 H 563.046 0.247023 4.95685 0
M  V30 5875 H 558.302 1.20743 5.99359 0
M  V30 5876 H 562.476 1.89637 6.70083 0
M  V30 5877 H 560.103 2.38263 7.21897 0
M  V30 5878 N 561.678 -1.56367 -0.196722 0
M  V30 5879 C 562.924 -1.81698 -0.914182 0
M  V30 5880 C 563.279 -0.65367 -1.80956 0
M  V30 5881 O 562.572 0.351224 -1.88353 0
M  V30 5882 C 562.766 -3.10663 -1.767 0
M  V30 5883 C 562.595 -4.39428 -0.955689 0
M  V30 5884 C 561.365 -5.01221 -0.64076 0
M  V30 5885 C 563.563 -5.1337 -0.309165 0
M  V30 5886 N 561.545 -6.13608 0.189358 0
M  V30 5887 C 562.916 -6.18815 0.383225 0
M  V30 5888 C 564.971 -4.97393 -0.224726 0
M  V30 5889 C 563.674 -7.10015 1.15201 0
M  V30 5890 C 565.7 -5.89014 0.530658 0
M  V30 5891 C 565.062 -6.93903 1.2115 0
M  V30 5892 H 561.161 -0.716203 -0.31397 0
M  V30 5893 H 563.745 -1.93838 -0.18304 0
M  V30 5894 H 561.916 -2.99762 -2.46976 0
M  V30 5895 H 563.648 -3.24088 -2.42382 0
M  V30 5896 H 560.403 -4.63669 -0.96479 0
M  V30 5897 H 560.827 -6.74389 0.593979 0
M  V30 5898 H 565.469 -4.16331 -0.736754 0
M  V30 5899 H 563.187 -7.9054 1.67547 0
M  V30 5900 H 566.773 -5.78726 0.597326 0
M  V30 5901 H 565.653 -7.63576 1.78665 0
M  V30 5902 N 563.156 0.464375 -1.50603 0
M  V30 5903 C 564.104 1.58224 -1.70493 0
M  V30 5904 C 565.098 1.59492 -0.570836 0
M  V30 5905 O 566.304 1.63561 -0.751517 0
M  V30 5906 H 562.679 0.525161 -0.538247 0
M  V30 5907 H 564.65 1.38613 -2.64252 0
M  V30 5908 C 563.399 2.96113 -1.82243 0
M  V30 5909 H 562.722 2.95858 -2.68901 0
M  V30 5910 H 564.162 3.73769 -2.00182 0
M  V30 5911 C 562.621 3.31946 -0.575628 0
M  V30 5912 O 563.151 4.00708 0.282152 0
M  V30 5913 N 561.357 2.87436 -0.427665 0
M  V30 5914 H 560.904 2.31652 -1.12674 0
M  V30 5915 H 560.862 3.11776 0.405379 0
M  V30 5916 N 564.634 1.40294 0.718013 0
M  V30 5917 C 565.584 1.36847 1.82365 0
M  V30 5918 C 566.568 0.246424 1.59002 0
M  V30 5919 O 567.76 0.485336 1.70216 0
M  V30 5920 C 564.889 1.23105 3.20469 0
M  V30 5921 C 563.975 2.4008 3.49603 0
M  V30 5922 N 564.366 3.65562 3.49568 0
M  V30 5923 C 562.664 2.33407 3.80049 0
M  V30 5924 C 563.365 4.43015 3.76978 0
M  V30 5925 N 562.341 3.72823 3.95606 0
M  V30 5926 H 566.143 2.31811 1.80668 0
M  V30 5927 H 563.657 1.34031 0.91703 0
M  V30 5928 H 565.654 1.18718 3.9964 0
M  V30 5929 H 564.314 0.291056 3.23393 0
M  V30 5930 H 565.325 3.98756 3.30476 0
M  V30 5931 H 562.002 1.47762 3.90478 0
M  V30 5932 H 563.392 5.51859 3.83276 0
M  V30 5933 N 566.112 -0.949982 1.2575 0
M  V30 5934 C 567.358 -1.69766 1.10938 0
M  V30 5935 C 567.691 -1.91056 -0.348028 0
M  V30 5936 O 566.966 -1.48488 -1.25625 0
M  V30 5937 C 567.249 -3.07779 1.86933 0
M  V30 5938 C 567.102 -2.9387 3.4053 0
M  V30 5939 C 568.421 -4.07749 1.65616 0
M  V30 5940 H 565.54 -0.616144 0.404396 0
M  V30 5941 H 568.182 -1.10394 1.54639 0
M  V30 5942 H 566.332 -3.58462 1.4979 0
M  V30 5943 H 568.004 -2.50476 3.87375 0
M  V30 5944 H 566.247 -2.29686 3.68004 0
M  V30 5945 H 566.918 -3.91719 3.88922 0
M  V30 5946 H 569.394 -3.65994 1.97959 0
M  V30 5947 H 568.27 -5.02348 2.21218 0
M  V30 5948 H 568.531 -4.38029 0.598595 0
M  V30 5949 N 567.59 -1.07411 -1.15328 0
M  V30 5950 C 568.815 -0.818856 -1.90551 0
M  V30 5951 C 569.24 0.622194 -1.77512 0
M  V30 5952 O 568.598 1.43484 -1.10824 0
M  V30 5953 C 568.646 -1.23267 -3.38877 0
M  V30 5954 O 567.75 -0.378345 -4.10661 0
M  V30 5955 H 567.091 -0.29827 -0.593238 0
M  V30 5956 H 569.621 -1.43289 -1.46046 0
M  V30 5957 H 569.631 -1.20912 -3.89672 0
M  V30 5958 H 568.306 -2.28226 -3.47686 0
M  V30 5959 H 566.883 -0.464437 -3.69996 0
M  V30 5960 N 569.068 1.32177 -0.85831 0
M  V30 5961 C 570.001 2.26823 -0.25035 0
M  V30 5962 C 570.979 1.50571 0.61378 0
M  V30 5963 O 572.163 1.79682 0.569777 0
M  V30 5964 C 569.29 3.32472 0.646556 0
M  V30 5965 C 568.336 4.26255 -0.144675 0
M  V30 5966 S 569.169 5.13608 -1.5155 0
M  V30 5967 C 570.325 6.22778 -0.624408 0
M  V30 5968 H 570.558 2.7804 -1.05267 0
M  V30 5969 H 568.091 1.39764 -0.656152 0
M  V30 5970 H 570.049 3.93817 1.15837 0
M  V30 5971 H 568.71 2.80031 1.42272 0
M  V30 5972 H 567.903 5.01114 0.538613 0
M  V30 5973 H 567.505 3.69346 -0.588198 0
M  V30 5974 H 569.797 6.77287 0.169846 0
M  V30 5975 H 570.74 6.95233 -1.34376 0
M  V30 5976 H 571.148 5.64156 -0.197128 0
M  V30 5977 N 570.547 0.616602 1.45037 0
M  V30 5978 C 571.787 0.118453 2.04056 0
M  V30 5979 C 572.151 -1.23104 1.47341 0
M  V30 5980 O 573.352 -1.82044 1.97771 0
M  V30 5981 C 571.623 0.0892842 3.57288 0
M  V30 5982 S 573.182 -0.346361 4.37431 0
M  V30 5983 H 570 0.0539728 0.708948 0
M  V30 5984 H 572.602 0.816731 1.77623 0
M  V30 5985 H 571.306 1.07481 3.96076 0
M  V30 5986 H 570.837 -0.630703 3.88311 0
M  V30 5987 H 572.852 -1.59389 4.69904 0
M  V30 5988 N 572.025 -1.5352 0.356285 0
M  V30 5989 C 573.274 -2.00298 -0.237373 0
M  V30 5990 C 573.587 -1.24784 -1.50627 0
M  V30 5991 O 574.793 -1.62103 -2.17795 0
M  V30 5992 C 573.249 -3.56771 -0.473545 0
M  V30 5993 C 572.857 -4.41154 0.780183 0
M  V30 5994 C 574.601 -4.1193 -1.02537 0
M  V30 5995 C 572.508 -5.89161 0.514108 0
M  V30 5996 H 571.438 -0.748307 -0.092478 0
M  V30 5997 H 574.089 -1.77283 0.473588 0
M  V30 5998 H 572.471 -3.75902 -1.24553 0
M  V30 5999 H 573.645 -4.33797 1.55425 0
M  V30 6000 H 571.96 -3.97052 1.25455 0
M  V30 6001 H 574.557 -5.20133 -1.2396 0
M  V30 6002 H 574.9 -3.65943 -1.98473 0
M  V30 6003 H 575.433 -3.96561 -0.313775 0
M  V30 6004 H 572.172 -6.39408 1.44355 0
M  V30 6005 H 571.692 -5.9939 -0.221632 0
M  V30 6006 H 573.371 -6.46857 0.136122 0
M  V30 6007 N 573.503 -0.0852151 -1.57369 0
M  V30 6008 C 574.433 0.874556 -2.16503 0
M  V30 6009 C 575.414 1.30111 -1.09568 0
M  V30 6010 O 576.599 1.36977 -1.37662 0
M  V30 6011 C 573.729 2.13731 -2.73745 0
M  V30 6012 C 572.683 1.84971 -3.85966 0
M  V30 6013 C 572.009 3.17991 -4.29867 0
M  V30 6014 C 573.309 1.14442 -5.09608 0
M  V30 6015 H 575.003 0.381899 -2.96954 0
M  V30 6016 H 572.549 0.18225 -1.42842 0
M  V30 6017 H 574.502 2.81302 -3.13763 0
M  V30 6018 H 573.226 2.65263 -1.90534 0
M  V30 6019 H 571.885 1.19801 -3.46473 0
M  V30 6020 H 571.533 3.6739 -3.4356 0
M  V30 6021 H 571.233 2.99534 -5.05523 0
M  V30 6022 H 572.757 3.86737 -4.72511 0
M  V30 6023 H 574.171 1.72105 -5.46857 0
M  V30 6024 H 572.568 1.06197 -5.90629 0
M  V30 6025 H 573.638 0.12559 -4.84737 0
M  V30 6026 N 574.981 1.5647 0.188427 0
M  V30 6027 C 575.929 1.95971 1.25293 0
M  V30 6028 C 576.923 0.846047 1.4676 0
M  V30 6029 O 578.129 1.03109 1.47542 0
M  V30 6030 H 574.504 0.623253 0.420784 0
M  V30 6031 H 576.475 2.84731 0.892792 0
M  V30 6032 C 575.224 2.32116 2.58877 0
M  V30 6033 H 574.547 3.17341 2.43176 0
M  V30 6034 H 575.987 2.63613 3.3209 0
M  V30 6035 C 574.446 1.15823 3.16365 0
M  V30 6036 O 574.976 0.436785 3.99318 0
M  V30 6037 N 573.182 0.933278 2.75206 0
M  V30 6038 H 572.729 1.52169 2.07852 0
M  V30 6039 H 572.687 0.156976 3.14008 0
M  V30 6040 N 576.459 -0.456382 1.50847 0
M  V30 6041 C 577.707 -1.20497 1.62249 0
M  V30 6042 C 578.028 -1.92156 0.331839 0
M  V30 6043 O 577.298 -1.84751 -0.651443 0
M  V30 6044 H 575.878 -0.447775 0.597918 0
M  V30 6045 H 578.54 -0.525099 1.87693 0
M  V30 6046 H 577.636 -1.94492 2.44089 0
M  V30 6047 N 577.937 -1.40673 -0.710563 0
M  V30 6048 C 579.185 -1.38947 -1.46759 0
M  V30 6049 C 579.506 0.00572879 -1.94999 0
M  V30 6050 O 578.776 0.961358 -1.70689 0
M  V30 6051 H 577.356 -0.5114 -0.544499 0
M  V30 6052 H 580.018 -1.75773 -0.842012 0
M  V30 6053 H 579.114 -2.06745 -2.33801 0
M  V30 6054 N 579.415 0.9433 -1.26252 0
M  V30 6055 C 580.663 1.68592 -1.11451 0
M  V30 6056 C 580.984 1.91957 0.343123 0
M  V30 6057 O 580.254 1.51475 1.24226 0
M  V30 6058 H 578.834 0.624789 -0.409448 0
M  V30 6059 H 581.496 1.13351 -1.58548 0
M  V30 6060 H 580.592 2.66054 -1.63162 0
M  V30 6061 N 580.893 1.08022 1.14757 0
M  V30 6062 C 582.142 0.802468 1.8505 0
M  V30 6063 C 582.455 -0.674061 1.83619 0
M  V30 6064 O 583.661 -1.06683 2.49662 0
M  V30 6065 C 582.117 1.38551 3.32162 0
M  V30 6066 C 581.725 2.89354 3.42021 0
M  V30 6067 C 583.469 1.18608 4.07594 0
M  V30 6068 C 581.376 3.40815 4.83321 0
M  V30 6069 H 580.306 0.296518 0.693248 0
M  V30 6070 H 582.957 1.30114 1.29393 0
M  V30 6071 H 581.339 0.814556 3.87532 0
M  V30 6072 H 582.513 3.52552 2.96722 0
M  V30 6073 H 580.828 3.08165 2.80041 0
M  V30 6074 H 583.425 1.54525 5.11885 0
M  V30 6075 H 583.768 0.125599 4.1611 0
M  V30 6076 H 584.301 1.72375 3.58513 0
M  V30 6077 H 581.04 4.46418 4.79991 0
M  V30 6078 H 580.56 2.82374 5.29174 0
M  V30 6079 H 582.239 3.37171 5.522 0
M  V30 6080 N 582.371 -1.3172 0.865308 0
M  V30 6081 C 583.787 -1.4958 0.556596 0
M  V30 6082 C 583.987 -1.79763 -0.910353 0
M  V30 6083 O 583.043 -1.87351 -1.6928 0
M  V30 6084 C 584.356 -2.63277 1.45279 0
M  V30 6085 C 585.904 -2.77161 1.45433 0
M  V30 6086 C 586.379 -3.93949 2.33598 0
M  V30 6087 N 587.87 -4.01228 2.31453 0
M  V30 6088 C 588.605 -4.90855 2.96393 0
M  V30 6089 N 588.101 -5.85416 3.70486 0
M  V30 6090 N 589.894 -4.84063 2.85726 0
M  V30 6091 H 582.045 -1.10396 1.81456 0
M  V30 6092 H 584.308 -0.54507 0.775631 0
M  V30 6093 H 584.014 -2.47734 2.49641 0
M  V30 6094 H 583.888 -3.59309 1.14792 0
M  V30 6095 H 586.275 -2.9212 0.41831 0
M  V30 6096 H 586.356 -1.8181 1.79941 0
M  V30 6097 H 586 -3.79748 3.37274 0
M  V30 6098 H 585.93 -4.88598 1.96417 0
M  V30 6099 H 588.421 -3.3357 1.77593 0
M  V30 6100 H 588.734 -6.50525 4.17178 0
M  V30 6101 H 587.079 -5.85409 3.74594 0
M  V30 6102 H 590.27 -4.09163 2.27384 0
M  V30 6103 H 590.443 -5.53708 3.36617 0
M  V30 6104 N 583.85 -0.624285 -1.44708 0
M  V30 6105 C 585.075 -0.131171 -2.06985 0
M  V30 6106 C 585.5 1.18234 -1.46295 0
M  V30 6107 O 584.858 1.72375 -0.561842 0
M  V30 6108 C 584.906 -0.0226724 -3.60593 0
M  V30 6109 O 584.01 1.02314 -3.99507 0
M  V30 6110 H 583.351 -0.0816556 -0.65896 0
M  V30 6111 H 585.88 -0.859027 -1.85693 0
M  V30 6112 H 585.891 0.170138 -4.07645 0
M  V30 6113 H 584.566 -0.981685 -4.04148 0
M  V30 6114 H 583.143 0.805452 -3.64097 0
M  V30 6115 N 585.328 1.53329 -0.364422 0
M  V30 6116 C 586.739 1.86345 0.115039 0
M  V30 6117 C 587.09 1.28505 1.4826 0
M  V30 6118 O 586.215 0.606639 2.07723 0
M  V30 6119 C 586.81 3.38114 0.215522 0
M  V30 6120 C 585.369 3.70932 0.639237 0
M  V30 6121 C 584.516 2.76471 -0.214261 0
M  V30 6122 H 587.467 1.47593 -0.583258 0
M  V30 6123 H 587.488 3.66031 1.0393 0
M  V30 6124 H 587 3.80182 -0.779948 0
M  V30 6125 H 585.101 3.3442 1.64298 0
M  V30 6126 H 585.214 4.77302 0.41465 0
M  V30 6127 H 583.578 2.52724 0.316678 0
M  V30 6128 H 584.361 3.21373 -1.20725 0
M  V30 6129 N 586.806 0.0935595 1.57322 0
M  V30 6130 C 588.055 -0.570191 1.93473 0
M  V30 6131 C 588.368 -1.69434 0.977318 0
M  V30 6132 O 589.574 -2.41914 1.23248 0
M  V30 6133 C 588.03 -1.06564 3.43762 0
M  V30 6134 C 587.638 0.0286723 4.47991 0
M  V30 6135 C 589.382 -1.70221 3.88877 0
M  V30 6136 C 587.289 -0.482046 5.89432 0
M  V30 6137 H 586.219 -0.216764 0.72217 0
M  V30 6138 H 588.87 0.169313 1.82717 0
M  V30 6139 H 587.252 -1.85878 3.49664 0
M  V30 6140 H 588.426 0.804106 4.5373 0
M  V30 6141 H 586.741 0.570336 4.12476 0
M  V30 6142 H 589.338 -2.09502 4.91948 0
M  V30 6143 H 589.681 -2.57078 3.27439 0
M  V30 6144 H 590.214 -0.974919 3.85668 0
M  V30 6145 H 586.953 0.349871 6.54566 0
M  V30 6146 H 586.473 -1.22452 5.87167 0
M  V30 6147 H 588.152 -0.951508 6.39965 0
M  V30 6148 N 588.284 -1.56567 -0.180126 0
M  V30 6149 C 589.561 -1.7235 -0.924931 0
M  V30 6150 C 589.941 -0.652523 -2.00762 0
M  V30 6151 O 589.289 0.334115 -2.26044 0
M  V30 6152 C 589.499 -3.1523 -1.49771 0
M  V30 6153 C 590.847 -3.75921 -1.97405 0
M  V30 6154 O 591.871 -3.18452 -1.59583 0
M  V30 6155 O 590.73 -4.7681 -2.67048 0
M  V30 6156 H 587.824 -0.703502 -0.434758 0
M  V30 6157 H 590.37 -1.6886 -0.168647 0
M  V30 6158 H 589.142 -3.84656 -0.718027 0
M  V30 6159 H 588.765 -3.23009 -2.31842 0
M  V30 6160 N 589.762 0.448376 -1.51087 0
M  V30 6161 C 590.672 1.56882 -1.74428 0
M  V30 6162 C 591.688 1.62268 -0.62809 0
M  V30 6163 O 592.864 1.79716 -0.909075 0
M  V30 6164 C 589.929 2.92947 -1.85426 0
M  V30 6165 C 588.99 2.97766 -3.09247 0
M  V30 6166 C 588.223 4.27341 -3.19711 0
M  V30 6167 O 588.446 5.19112 -2.36387 0
M  V30 6168 O 587.38 4.38219 -4.12611 0
M  V30 6169 H 591.206 1.40104 -2.69452 0
M  V30 6170 H 588.791 0.630247 -1.35456 0
M  V30 6171 H 590.673 3.73719 -1.94709 0
M  V30 6172 H 589.348 3.09876 -0.935887 0
M  V30 6173 H 588.255 2.15989 -3.0545 0
M  V30 6174 H 589.588 2.8578 -4.00738 0
M  V30 6175 N 591.24 1.41047 0.703093 0
M  V30 6176 C 592.656 1.23351 1.01275 0
M  V30 6177 C 592.856 0.11754 2.01157 0
M  V30 6178 O 591.912 -0.520518 2.47077 0
M  V30 6179 C 593.225 2.58001 1.54454 0
M  V30 6180 C 594.773 2.65119 1.66376 0
M  V30 6181 C 595.248 4.00067 2.22958 0
M  V30 6182 N 596.739 4.01875 2.30328 0
M  V30 6183 C 597.474 5.03087 2.75119 0
M  V30 6184 N 596.97 6.14692 3.19571 0
M  V30 6185 N 598.763 4.90451 2.74616 0
M  V30 6186 H 590.914 2.1236 0.0412686 0
M  V30 6187 H 593.177 0.944543 0.08089 0
M  V30 6188 H 592.883 3.40378 0.88521 0
M  V30 6189 H 592.757 2.79962 2.52786 0
M  V30 6190 H 595.144 1.83106 2.31422 0
M  V30 6191 H 595.225 2.46975 0.666089 0
M  V30 6192 H 594.869 4.82526 1.58529 0
M  V30 6193 H 594.799 4.15547 3.23462 0
M  V30 6194 H 597.29 3.21291 1.98949 0
M  V30 6195 H 597.603 6.87799 3.52352 0
M  V30 6196 H 595.948 6.18239 3.17498 0
M  V30 6197 H 599.139 4.0235 2.39233 0
M  V30 6198 H 599.312 5.6947 3.09206 0
M  V30 6199 N 592.718 -0.936591 1.26751 0
M  V30 6200 C 593.666 -2.0573 1.08527 0
M  V30 6201 C 594.66 -1.69397 0.0108784 0
M  V30 6202 O 595.866 -1.79215 0.167915 0
M  V30 6203 H 592.241 -0.673691 0.334133 0
M  V30 6204 H 594.212 -2.1825 2.03493 0
M  V30 6205 C 592.961 -3.39738 0.739845 0
M  V30 6206 H 592.284 -3.68174 1.55845 0
M  V30 6207 H 593.724 -4.18955 0.652149 0
M  V30 6208 C 592.183 -3.32292 -0.555288 0
M  V30 6209 O 592.713 -3.68794 -1.59229 0
M  V30 6210 N 590.919 -2.85394 -0.54762 0
M  V30 6211 H 590.466 -2.55886 0.296667 0
M  V30 6212 H 590.424 -2.80795 -1.41427 0
M  V30 6213 N 594.196 -1.08629 -1.14182 0
M  V30 6214 C 595.144 -0.71284 -2.21408 0
M  V30 6215 C 596.138 0.282457 -1.67029 0
M  V30 6216 O 597.344 0.144783 -1.79417 0
M  V30 6217 H 593.719 -0.212497 -0.721352 0
M  V30 6218 H 595.69 -1.6265 -2.50175 0
M  V30 6219 C 594.439 -0.140704 -3.47415 0
M  V30 6220 H 593.762 -0.897739 -3.8959 0
M  V30 6221 H 595.202 0.0827677 -4.23919 0
M  V30 6222 C 593.661 1.122 -3.17668 0
M  V30 6223 O 594.191 2.20652 -3.35672 0
M  V30 6224 N 592.397 1.03328 -2.71609 0
M  V30 6225 H 591.944 0.150666 -2.57159 0
M  V30 6226 H 591.902 1.8789 -2.52081 0
M  V30 6227 N 595.674 1.31259 -0.872281 0
M  V30 6228 C 596.922 1.96233 -0.483409 0
M  V30 6229 C 597.243 1.69276 0.968012 0
M  V30 6230 O 596.513 1.00943 1.67891 0
M  V30 6231 H 595.093 0.726025 -0.175774 0
M  V30 6232 H 597.755 1.60024 -1.11258 0
M  V30 6233 H 596.851 3.05403 -0.643075 0
M  V30 6234 N 597.152 0.631951 1.44375 0
M  V30 6235 C 598.38 0.143867 2.06399 0
M  V30 6236 C 598.795 -1.18188 1.47231 0
M  V30 6237 O 598.152 -1.72511 0.595498 0
M  V30 6238 C 598.203 0.0238253 3.61492 0
M  V30 6239 O 597.924 1.29715 4.18456 0
M  V30 6240 C 599.425 -0.492856 4.40552 0
M  V30 6241 H 596.645 0.0800542 0.666207 0
M  V30 6242 H 599.189 0.866586 1.85231 0
M  V30 6243 H 597.344 -0.649338 3.81919 0
M  V30 6244 H 597.758 1.14252 5.11905 0
M  V30 6245 H 599.232 -0.525861 5.49489 0
M  V30 6246 H 599.709 -1.52006 4.12057 0
M  V30 6247 H 600.315 0.147085 4.25046 0
M  V30 6248 N 598.631 -1.53133 0.372548 0
M  V30 6249 C 599.88 -2.00539 -0.216115 0
M  V30 6250 C 600.193 -1.26374 -1.49295 0
M  V30 6251 O 601.399 -1.64404 -2.16064 0
M  V30 6252 C 599.855 -3.57253 -0.435678 0
M  V30 6253 C 599.463 -4.40302 0.82693 0
M  V30 6254 C 601.207 -4.12995 -0.981618 0
M  V30 6255 C 599.114 -5.88583 0.576567 0
M  V30 6256 H 598.044 -0.749246 -0.084536 0
M  V30 6257 H 600.695 -1.76771 0.492364 0
M  V30 6258 H 599.077 -3.77202 -1.20559 0
M  V30 6259 H 600.251 -4.32124 1.60017 0
M  V30 6260 H 598.566 -3.95699 1.29659 0
M  V30 6261 H 601.163 -5.21418 -1.18436 0
M  V30 6262 H 601.506 -3.68027 -1.94581 0
M  V30 6263 H 602.039 -3.96871 -0.271696 0
M  V30 6264 H 598.778 -6.37841 1.51128 0
M  V30 6265 H 598.298 -5.99592 -0.158047 0
M  V30 6266 H 599.977 -6.46676 0.204722 0
M  V30 6267 N 600.109 -0.101901 -1.5727 0
M  V30 6268 C 601.337 0.568392 -1.98939 0
M  V30 6269 C 601.752 1.61301 -0.981194 0
M  V30 6270 O 601.109 1.82478 0.0282869 0
M  V30 6271 C 601.16 1.20997 -3.40649 0
M  V30 6272 O 600.881 0.207129 -4.3761 0
M  V30 6273 C 602.382 1.96523 -3.97358 0
M  V30 6274 H 599.602 0.15186 -0.65359 0
M  V30 6275 H 602.146 -0.183198 -2.03678 0
M  V30 6276 H 600.301 1.91245 -3.36904 0
M  V30 6277 H 600.715 0.671071 -5.20189 0
M  V30 6278 H 602.189 2.36764 -4.98645 0
M  V30 6279 H 602.666 2.83376 -3.35552 0
M  V30 6280 H 603.272 1.31076 -4.04598 0
M  V30 6281 N 601.587 1.56661 0.17182 0
M  V30 6282 C 602.833 1.8313 0.88516 0
M  V30 6283 C 603.188 0.682376 1.79893 0
M  V30 6284 O 602.481 -0.321215 1.88888 0
M  V30 6285 C 602.675 3.13435 1.71736 0
M  V30 6286 C 602.504 4.40892 0.885659 0
M  V30 6287 C 601.274 5.02177 0.560939 0
M  V30 6288 C 603.472 5.13797 0.227454 0
M  V30 6289 N 601.454 6.13229 -0.286953 0
M  V30 6290 C 602.825 6.18127 -0.481625 0
M  V30 6291 C 604.88 4.97687 0.145567 0
M  V30 6292 C 603.583 7.08092 -1.26482 0
M  V30 6293 C 605.609 5.88096 -0.624298 0
M  V30 6294 C 604.971 6.91888 -1.32174 0
M  V30 6295 H 601.07 0.721107 0.302536 0
M  V30 6296 H 603.654 1.94104 0.152178 0
M  V30 6297 H 601.825 3.03653 2.42176 0
M  V30 6298 H 603.557 3.27903 2.37196 0
M  V30 6299 H 600.312 4.65145 0.890902 0
M  V30 6300 H 600.736 6.73359 -0.701193 0
M  V30 6301 H 605.378 4.17451 0.670426 0
M  V30 6302 H 603.096 7.87774 -1.80103 0
M  V30 6303 H 606.682 5.77702 -0.689321 0
M  V30 6304 H 605.562 7.60637 -1.90791 0
M  V30 6305 N 603.065 -0.440357 1.51323 0
M  V30 6306 C 603.975 -1.55955 1.75258 0
M  V30 6307 C 604.991 -1.61933 0.636687 0
M  V30 6308 O 606.167 -1.79231 0.918593 0
M  V30 6309 C 603.232 -2.9196 1.86977 0
M  V30 6310 C 602.293 -2.96122 3.10822 0
M  V30 6311 C 601.526 -4.2564 3.21973 0
M  V30 6312 O 601.749 -5.17851 2.39137 0
M  V30 6313 O 600.683 -4.36025 4.14929 0
M  V30 6314 H 604.509 -1.38673 2.70191 0
M  V30 6315 H 602.094 -0.623055 1.35788 0
M  V30 6316 H 603.976 -3.72682 1.96688 0
M  V30 6317 H 602.651 -3.09375 0.952307 0
M  V30 6318 H 601.558 -2.14366 3.06591 0
M  V30 6319 H 602.891 -2.83651 4.02247 0
M  V30 6320 N 604.543 -1.41418 -0.695603 0
M  V30 6321 C 605.491 -1.43467 -1.83084 0
M  V30 6322 C 606.485 -0.312719 -1.66489 0
M  V30 6323 O 607.691 -0.484744 -1.7335 0
M  V30 6324 H 604.066 -0.448891 -0.603325 0
M  V30 6325 H 606.037 -2.39144 -1.78473 0
M  V30 6326 C 604.786 -1.3337 -3.21104 0
M  V30 6327 H 604.109 -2.18989 -3.3449 0
M  V30 6328 H 605.549 -1.38865 -4.00615 0
M  V30 6329 C 604.008 -0.0460484 -3.36869 0
M  V30 6330 O 604.538 0.909258 -3.91274 0
M  V30 6331 N 602.744 0.0300222 -2.90584 0
M  V30 6332 H 602.291 -0.748129 -2.46497 0
M  V30 6333 H 602.249 0.890991 -3.01511 0
M  V30 6334 N 606.021 0.929856 -1.27246 0
M  V30 6335 C 606.951 2.04722 -1.12299 0
M  V30 6336 C 607.932 1.70082 -0.0250464 0
M  V30 6337 O 609.117 1.93176 -0.199141 0
M  V30 6338 C 606.247 3.38721 -0.767145 0
M  V30 6339 C 605.201 3.87466 -1.81808 0
M  V30 6340 C 604.527 5.18246 -1.31626 0
M  V30 6341 C 605.827 4.11095 -3.22177 0
M  V30 6342 H 607.521 2.17485 -2.05769 0
M  V30 6343 H 605.067 1.04503 -0.990715 0
M  V30 6344 H 607.02 4.16366 -0.649413 0
M  V30 6345 H 605.744 3.25967 0.203259 0
M  V30 6346 H 604.403 3.12012 -1.92468 0
M  V30 6347 H 604.051 5.01881 -0.335378 0
M  V30 6348 H 603.751 5.51829 -2.01887 0
M  V30 6349 H 605.275 5.98462 -1.21143 0
M  V30 6350 H 606.689 4.79316 -3.1453 0
M  V30 6351 H 605.086 4.55982 -3.90129 0
M  V30 6352 H 606.156 3.16468 -3.67391 0
M  V30 6353 N 607.499 1.09233 1.13605 0
M  V30 6354 C 608.462 0.733553 2.17144 0
M  V30 6355 C 609.462 -0.235873 1.59061 0
M  V30 6356 O 610.652 -0.0143167 1.74194 0
M  V30 6357 C 607.784 0.084471 3.40795 0
M  V30 6358 H 608.977 1.65049 2.50397 0
M  V30 6359 H 606.53 0.891264 1.28399 0
M  V30 6360 H 607.265 -0.843795 3.1313 0
M  V30 6361 H 607.05 0.781985 3.84223 0
M  V30 6362 H 608.54 -0.151216 4.17326 0
M  V30 6363 N 608.977 -1.30795 0.87923 0
M  V30 6364 C 609.94 -2.26563 0.346676 0
M  V30 6365 C 610.94 -1.52578 -0.507597 0
M  V30 6366 O 612.13 -1.71318 -0.315575 0
M  V30 6367 C 609.262 -3.37115 -0.506611 0
M  V30 6368 H 610.455 -2.75183 1.19223 0
M  V30 6369 H 608.008 -1.41886 0.655598 0
M  V30 6370 H 608.743 -2.93802 -1.37299 0
M  V30 6371 H 608.528 -3.91959 0.105218 0
M  V30 6372 H 610.018 -4.08412 -0.871192 0
M  V30 6373 N 610.455 -0.639598 -1.44038 0
M  V30 6374 C 611.701 -0.147698 -2.02261 0
M  V30 6375 C 612.034 1.23031 -1.50256 0
M  V30 6376 O 611.309 1.81847 -0.690068 0
M  V30 6377 C 611.592 -0.14362 -3.59813 0
M  V30 6378 C 611.445 -1.55458 -4.22082 0
M  V30 6379 C 612.764 0.527317 -4.36929 0
M  V30 6380 H 609.883 -0.0551453 -0.734934 0
M  V30 6381 H 612.525 -0.817688 -1.71505 0
M  V30 6382 H 610.675 0.426898 -3.86147 0
M  V30 6383 H 612.347 -2.17464 -4.06826 0
M  V30 6384 H 610.59 -2.10594 -3.79253 0
M  V30 6385 H 611.261 -1.50369 -5.31124 0
M  V30 6386 H 613.737 0.0420504 -4.16079 0
M  V30 6387 H 612.613 0.499389 -5.46624 0
M  V30 6388 H 612.874 1.59914 -4.12165 0
M  V30 6389 N 611.933 1.52934 -0.380664 0
M  V30 6390 C 612.863 2.29118 0.450268 0
M  V30 6391 C 613.844 1.32153 1.07096 0
M  V30 6392 O 615.029 1.61038 1.08537 0
M  V30 6393 C 612.159 3.09161 1.58231 0
M  V30 6394 C 611.113 4.13938 1.0881 0
M  V30 6395 C 610.439 4.82153 2.31155 0
M  V30 6396 C 611.739 5.22048 0.162146 0
M  V30 6397 H 613.433 2.98826 -0.185361 0
M  V30 6398 H 610.979 1.43715 -0.0905886 0
M  V30 6399 H 612.932 3.61211 2.17036 0
M  V30 6400 H 611.656 2.3717 2.2454 0
M  V30 6401 H 610.315 3.62855 0.522633 0
M  V30 6402 H 609.963 4.06719 2.95953 0
M  V30 6403 H 609.663 5.52966 1.98752 0
M  V30 6404 H 611.187 5.37004 2.90618 0
M  V30 6405 H 612.601 5.6951 0.658126 0
M  V30 6406 H 610.998 6.00057 -0.0717122 0
M  V30 6407 H 612.068 4.78398 -0.791438 0
M  V30 6408 N 613.412 0.11024 1.57214 0
M  V30 6409 C 614.823 -0.416527 1.81994 0
M  V30 6410 C 615.174 -1.67183 1.02686 0
M  V30 6411 O 614.299 -2.14823 0.260782 0
M  V30 6412 C 614.894 -0.762466 3.30109 0
M  V30 6413 C 613.453 -1.23391 3.556 0
M  V30 6414 C 612.6 -0.238166 2.76275 0
M  V30 6415 H 615.551 0.335491 1.55113 0
M  V30 6416 H 615.572 -1.62068 3.44259 0
M  V30 6417 H 615.084 0.151346 3.87805 0
M  V30 6418 H 613.185 -2.16492 3.03253 0
M  V30 6419 H 613.298 -1.18528 4.64207 0
M  V30 6420 H 611.662 -0.723421 2.4421 0
M  V30 6421 H 612.445 0.668591 3.36727 0
M  V30 6422 N 614.89 -1.56749 -0.16351 0
M  V30 6423 C 616.137 -1.82434 -0.878866 0
M  V30 6424 C 616.465 -0.688557 -1.81904 0
M  V30 6425 O 615.72 0.323644 -1.93005 0
M  V30 6426 C 616.019 -3.14342 -1.70071 0
M  V30 6427 C 615.685 -4.41647 -0.908775 0
M  V30 6428 C 614.347 -4.76224 -0.690236 0
M  V30 6429 C 616.699 -5.19998 -0.353815 0
M  V30 6430 C 614.027 -5.86624 0.0942374 0
M  V30 6431 C 616.379 -6.3122 0.41761 0
M  V30 6432 C 615.043 -6.64358 0.646879 0
M  V30 6433 H 614.313 -0.667574 -0.3216 0
M  V30 6434 H 616.96 -1.90963 -0.14337 0
M  V30 6435 H 615.265 -3.0119 -2.50583 0
M  V30 6436 H 616.962 -3.31426 -2.25738 0
M  V30 6437 H 613.552 -4.1453 -1.08916 0
M  V30 6438 H 617.736 -4.93673 -0.509975 0
M  V30 6439 H 612.992 -6.10751 0.281529 0
M  V30 6440 H 617.166 -6.91133 0.854849 0
M  V30 6441 H 614.793 -7.49742 1.25662 0
M  V30 6442 N 616.368 0.432326 -1.51554 0
M  V30 6443 C 617.616 1.17901 -1.64146 0
M  V30 6444 C 617.937 1.91604 -0.362367 0
M  V30 6445 O 617.207 1.85764 0.621968 0
M  V30 6446 H 615.787 0.438206 -0.604966 0
M  V30 6447 H 618.449 0.495172 -1.88505 0
M  V30 6448 H 617.545 1.90584 -2.47152 0
M  V30 6449 N 617.846 1.41785 0.688094 0
M  V30 6450 C 619.094 1.41264 1.4453 0
M  V30 6451 C 619.415 0.0252946 1.94984 0
M  V30 6452 O 618.685 -0.934081 1.72197 0
M  V30 6453 H 617.265 0.519998 0.536294 0
M  V30 6454 H 619.927 1.7709 0.813941 0
M  V30 6455 H 619.023 2.10439 2.30482 0
M  V30 6456 N 619.324 -0.923095 1.27737 0
M  V30 6457 C 620.552 -1.70525 1.17171 0
M  V30 6458 C 620.967 -1.86847 -0.270881 0
M  V30 6459 O 620.324 -1.38879 -1.18401 0
M  V30 6460 C 620.375 -3.10242 1.85559 0
M  V30 6461 O 620.096 -2.94683 3.24182 0
M  V30 6462 C 621.597 -4.04586 1.81176 0
M  V30 6463 H 618.817 -0.533347 0.407163 0
M  V30 6464 H 621.361 -1.15599 1.68692 0
M  V30 6465 H 619.516 -3.62014 1.3793 0
M  V30 6466 H 619.93 -3.83045 3.58297 0
M  V30 6467 H 621.404 -5.00119 2.33633 0
M  V30 6468 H 621.881 -4.3218 0.782099 0
M  V30 6469 H 622.487 -3.58741 2.2844 0
M  V30 6470 N 620.802 -1.09834 -1.13024 0
M  V30 6471 C 622.049 -0.83695 -1.84395 0
M  V30 6472 C 622.377 0.637463 -1.83757 0
M  V30 6473 O 621.632 1.48554 -1.27398 0
M  V30 6474 C 621.931 -1.32263 -3.32026 0
M  V30 6475 C 621.597 -2.80739 -3.52841 0
M  V30 6476 C 620.259 -3.21286 -3.5823 0
M  V30 6477 C 622.611 -3.76449 -3.60466 0
M  V30 6478 C 619.939 -4.56308 -3.68781 0
M  V30 6479 C 622.291 -5.11266 -3.72546 0
M  V30 6480 C 620.955 -5.51397 -3.76189 0
M  V30 6481 H 620.225 -0.306262 -0.674748 0
M  V30 6482 H 622.872 -1.37385 -1.33408 0
M  V30 6483 H 621.177 -0.705618 -3.85394 0
M  V30 6484 H 622.874 -1.09695 -3.85705 0
M  V30 6485 H 619.464 -2.48363 -3.49305 0
M  V30 6486 H 623.648 -3.46234 -3.55578 0
M  V30 6487 H 618.904 -4.86832 -3.69871 0
M  V30 6488 H 623.078 -5.85279 -3.77388 0
M  V30 6489 H 620.705 -6.56017 -3.84117 0
M  V30 6490 N 622.28 1.30327 -0.886154 0
M  V30 6491 C 623.557 1.90922 -0.425217 0
M  V30 6492 C 623.937 1.80533 1.09413 0
M  V30 6493 O 623.285 1.2233 1.92996 0
M  V30 6494 C 623.495 3.36529 -0.924638 0
M  V30 6495 C 624.843 4.13598 -0.960305 0
M  V30 6496 O 625.867 3.45377 -0.871382 0
M  V30 6497 O 624.726 5.35482 -1.09184 0
M  V30 6498 H 621.82 0.81668 -0.130238 0
M  V30 6499 H 624.366 1.38886 -0.975132 0
M  V30 6500 H 623.138 3.38181 -1.96849 0
M  V30 6501 H 622.761 3.96021 -0.353955 0
M  V30 6502 N 623.758 0.647228 1.43697 0
M  V30 6503 C 624.688 -0.0345631 2.33474 0
M  V30 6504 C 625.669 -0.818193 1.4913 0
M  V30 6505 O 626.854 -0.780867 1.77809 0
M  V30 6506 C 623.984 -1.00576 3.32418 0
M  V30 6507 C 622.938 -0.33266 4.26705 0
M  V30 6508 C 622.264 -1.41489 5.1564 0
M  V30 6509 C 623.564 0.771204 5.16575 0
M  V30 6510 H 625.258 0.715163 2.90733 0
M  V30 6511 H 622.804 0.345364 1.39797 0
M  V30 6512 H 624.757 -1.49159 3.94119 0
M  V30 6513 H 623.481 -1.78657 2.73403 0
M  V30 6514 H 622.14 0.13267 3.6636 0
M  V30 6515 H 621.788 -2.18698 4.52968 0
M  V30 6516 H 621.488 -0.969799 5.79542 0
M  V30 6517 H 623.012 -1.9022 5.80214 0
M  V30 6518 H 624.426 0.36779 5.72119 0
M  V30 6519 H 622.823 1.1404 5.89165 0
M  V30 6520 H 623.893 1.63169 4.56622 0
M  V30 6521 N 625.236 -1.5273 0.388769 0
M  V30 6522 C 626.482 -2.01871 -0.193877 0
M  V30 6523 C 626.815 -1.27475 -1.46505 0
M  V30 6524 O 626.09 -0.375063 -1.90849 0
M  V30 6525 C 626.373 -3.5712 -0.462336 0
M  V30 6526 C 626.226 -4.42186 0.824091 0
M  V30 6527 C 627.545 -4.21881 -1.25319 0
M  V30 6528 H 624.664 -0.733764 -0.0689899 0
M  V30 6529 H 627.306 -1.82796 0.518231 0
M  V30 6530 H 625.456 -3.73504 -1.06896 0
M  V30 6531 H 627.128 -4.37554 1.46096 0
M  V30 6532 H 625.371 -4.09219 1.43952 0
M  V30 6533 H 626.042 -5.48828 0.590905 0
M  V30 6534 H 628.518 -4.0947 -0.73981 0
M  V30 6535 H 627.394 -5.30487 -1.40977 0
M  V30 6536 H 627.655 -3.79478 -2.26824 0
M  V30 6537 N 626.714 -0.118576 -1.57153 0
M  V30 6538 C 627.646 0.862247 -2.12363 0
M  V30 6539 C 628.659 1.23025 -1.06625 0
M  V30 6540 O 629.848 1.17927 -1.33998 0
M  V30 6541 C 626.948 2.16425 -2.60794 0
M  V30 6542 C 626.121 1.96801 -3.90626 0
M  V30 6543 C 625.18 3.10726 -4.2466 0
M  V30 6544 O 624.206 2.83659 -4.93484 0
M  V30 6545 N 625.408 4.37147 -3.81946 0
M  V30 6546 H 628.173 0.390564 -2.97144 0
M  V30 6547 H 625.734 0.0658591 -1.61766 0
M  V30 6548 H 627.726 2.91633 -2.80593 0
M  V30 6549 H 626.296 2.54943 -1.80895 0
M  V30 6550 H 625.516 1.05787 -3.7974 0
M  V30 6551 H 626.804 1.80993 -4.7552 0
M  V30 6552 H 626.202 4.62014 -3.26435 0
M  V30 6553 H 624.759 5.09229 -4.06853 0
M  V30 6554 N 628.193 1.56834 0.155195 0
M  V30 6555 C 629.123 2.00678 1.19376 0
M  V30 6556 C 630.104 0.884973 1.45266 0
M  V30 6557 O 631.289 1.1522 1.56326 0
M  V30 6558 C 628.419 2.38042 2.5289 0
M  V30 6559 C 627.373 3.53332 2.41538 0
M  V30 6560 C 626.699 3.76485 3.79688 0
M  V30 6561 C 627.999 4.86265 1.9064 0
M  V30 6562 H 629.693 2.87688 0.829232 0
M  V30 6563 H 627.239 1.38407 0.397445 0
M  V30 6564 H 629.192 2.67314 3.25763 0
M  V30 6565 H 627.916 1.4796 2.91162 0
M  V30 6566 H 626.575 3.24213 1.71117 0
M  V30 6567 H 626.223 2.83667 4.15382 0
M  V30 6568 H 625.923 4.54068 3.72956 0
M  V30 6569 H 627.447 4.08174 4.54122 0
M  V30 6570 H 628.861 5.14308 2.53299 0
M  V30 6571 H 627.258 5.67597 1.94818 0
M  V30 6572 H 628.328 4.77184 0.861596 0
M  V30 6573 N 629.671 -0.424282 1.51781 0
M  V30 6574 C 630.618 -1.51591 1.74037 0
M  V30 6575 C 631.588 -1.55556 0.582358 0
M  V30 6576 O 632.773 -1.72364 0.818245 0
M  V30 6577 C 629.913 -2.89188 1.8832 0
M  V30 6578 C 629.026 -2.9465 3.1592 0
M  V30 6579 C 628.161 -4.23452 3.20721 0
M  V30 6580 C 627.2 -4.22831 4.42584 0
M  V30 6581 N 626.337 -5.43178 4.44862 0
M  V30 6582 H 631.177 -1.31917 2.67212 0
M  V30 6583 H 628.714 -0.640599 1.32419 0
M  V30 6584 H 630.672 -3.69044 1.94583 0
M  V30 6585 H 629.302 -3.07392 0.985402 0
M  V30 6586 H 628.354 -2.07378 3.18902 0
M  V30 6587 H 629.666 -2.90055 4.05795 0
M  V30 6588 H 628.82 -5.1169 3.25973 0
M  V30 6589 H 627.559 -4.30722 2.28757 0
M  V30 6590 H 626.564 -3.32984 4.37495 0
M  V30 6591 H 627.789 -4.17213 5.35826 0
M  V30 6592 H 625.735 -5.51145 3.55775 0
M  V30 6593 H 625.652 -5.40515 5.28563 0
M  V30 6594 H 626.92 -6.33412 4.54324 0
M  V30 6595 N 631.149 -1.42148 -0.680565 0
M  V30 6596 C 632.397 -1.42029 -1.43779 0
M  V30 6597 C 632.718 -0.0356347 -1.94967 0
M  V30 6598 O 631.988 0.924936 -1.7269 0
M  V30 6599 H 630.568 -0.522835 -0.533529 0
M  V30 6600 H 633.23 -1.7752 -0.804538 0
M  V30 6601 H 632.326 -2.11658 -2.29363 0
M  V30 6602 N 632.627 0.916307 -1.28225 0
M  V30 6603 C 633.852 1.7043 -1.18188 0
M  V30 6604 C 634.277 1.86346 0.256274 0
M  V30 6605 O 633.635 1.37175 1.18544 0
M  V30 6606 C 633.683 3.07546 -1.88275 0
M  V30 6607 O 632.787 3.94904 -1.18848 0
M  V30 6608 H 632.128 0.521967 -0.410423 0
M  V30 6609 H 634.658 1.14589 -1.69501 0
M  V30 6610 H 634.668 3.57793 -1.96082 0
M  V30 6611 H 633.343 2.95279 -2.92887 0
M  V30 6612 H 631.92 3.53339 -1.19187 0
M  V30 6613 N 634.105 1.10431 1.1244 0
M  V30 6614 C 635.333 0.868872 1.87772 0
M  V30 6615 C 635.748 -0.580645 1.7965 0
M  V30 6616 O 635.105 -1.40031 1.17036 0
M  V30 6617 C 635.156 1.30855 3.36986 0
M  V30 6618 O 634.877 2.70123 3.44914 0
M  V30 6619 C 636.378 1.107 4.29256 0
M  V30 6620 H 633.598 0.311868 0.59412 0
M  V30 6621 H 636.142 1.46897 1.42273 0
M  V30 6622 H 634.297 0.752126 3.80029 0
M  V30 6623 H 634.711 2.88923 4.37748 0
M  V30 6624 H 636.185 1.46378 5.32238 0
M  V30 6625 H 636.662 0.0456228 4.39176 0
M  V30 6626 H 637.268 1.64988 3.91994 0
M  V30 6627 N 635.583 -1.29855 0.893053 0
M  V30 6628 C 636.513 -2.3035 0.382249 0
M  V30 6629 C 637.494 -1.61328 -0.539203 0
M  V30 6630 O 638.679 -1.88882 -0.451342 0
M  V30 6631 C 635.809 -3.45024 -0.396983 0
M  V30 6632 C 634.763 -4.258 0.433437 0
M  V30 6633 C 634.089 -5.32605 -0.472889 0
M  V30 6634 C 635.389 -4.94549 1.67984 0
M  V30 6635 H 637.083 -2.73325 1.22205 0
M  V30 6636 H 634.629 -1.314 0.589073 0
M  V30 6637 H 636.582 -4.14398 -0.765024 0
M  V30 6638 H 635.306 -3.00875 -1.2705 0
M  V30 6639 H 633.965 -3.58125 0.783723 0
M  V30 6640 H 633.613 -4.84702 -1.34435 0
M  V30 6641 H 633.313 -5.87547 0.0789958 0
M  V30 6642 H 634.837 -6.04832 -0.837269 0
M  V30 6643 H 636.251 -5.56395 1.38192 0
M  V30 6644 H 634.648 -5.59393 2.17254 0
M  V30 6645 H 635.718 -4.20215 2.41965 0
M  V30 6646 N 637.061 -0.65484 -1.43351 0
M  V30 6647 C 638.008 0.0357713 -2.30772 0
M  V30 6648 C 638.978 0.813035 -1.44841 0
M  V30 6649 O 640.163 0.789314 -1.73708 0
M  V30 6650 C 637.303 0.995084 -3.30442 0
M  V30 6651 C 636.416 0.21375 -4.31471 0
M  V30 6652 C 635.551 1.16701 -5.18222 0
M  V30 6653 C 634.59 0.376201 -6.10943 0
M  V30 6654 N 633.727 1.28113 -6.90313 0
M  V30 6655 H 638.567 -0.71559 -2.89281 0
M  V30 6656 H 636.104 -0.364645 -1.42509 0
M  V30 6657 H 638.062 1.5649 -3.86739 0
M  V30 6658 H 636.692 1.7133 -2.7358 0
M  V30 6659 H 635.744 -0.472377 -3.77456 0
M  V30 6660 H 637.056 -0.401103 -4.97185 0
M  V30 6661 H 636.21 1.8074 -5.79153 0
M  V30 6662 H 634.949 1.81577 -4.52638 0
M  V30 6663 H 633.954 -0.277534 -5.49099 0
M  V30 6664 H 635.179 -0.268178 -6.7857 0
M  V30 6665 H 633.125 1.91666 -6.27376 0
M  V30 6666 H 633.042 0.720879 -7.52555 0
M  V30 6667 H 634.31 1.90962 -7.55747 0
M  V30 6668 N 638.539 1.52521 -0.396863 0
M  V30 6669 C 639.486 2.26671 0.434624 0
M  V30 6670 C 640.456 1.28584 1.05144 0
M  V30 6671 O 641.641 1.57426 1.07804 0
M  V30 6672 C 638.781 3.08234 1.55196 0
M  V30 6673 C 637.894 4.21261 0.957262 0
M  V30 6674 C 637.029 4.90205 2.04627 0
M  V30 6675 C 636.068 5.95213 1.42787 0
M  V30 6676 N 635.205 6.57723 2.45651 0
M  V30 6677 H 640.045 2.973 -0.204139 0
M  V30 6678 H 637.582 1.46669 -0.112505 0
M  V30 6679 H 639.54 3.53819 2.2106 0
M  V30 6680 H 638.17 2.398 2.16092 0
M  V30 6681 H 637.222 3.79935 0.188005 0
M  V30 6682 H 638.534 4.96624 0.465416 0
M  V30 6683 H 637.688 5.39133 2.78246 0
M  V30 6684 H 636.427 4.14383 2.57174 0
M  V30 6685 H 635.432 5.45616 0.676968 0
M  V30 6686 H 636.657 6.72972 0.910255 0
M  V30 6687 H 634.603 5.84737 2.97353 0
M  V30 6688 H 634.52 7.28723 2.01243 0
M  V30 6689 H 635.788 7.11293 3.18876 0
M  V30 6690 N 640.017 0.126909 1.57088 0
M  V30 6691 C 640.98 -0.806097 2.14557 0
M  V30 6692 C 641.98 -1.18918 1.08236 0
M  V30 6693 O 643.17 -1.11339 1.33975 0
M  V30 6694 C 640.302 -2.09116 2.69227 0
M  V30 6695 H 641.495 -0.306522 2.98329 0
M  V30 6696 H 639.048 -0.122393 1.5582 0
M  V30 6697 H 639.783 -2.63486 1.89065 0
M  V30 6698 H 639.568 -1.82588 3.46993 0
M  V30 6699 H 641.058 -2.75794 3.13572 0
M  V30 6700 N 641.495 -1.56914 -0.146875 0
M  V30 6701 C 642.742 -1.83356 -0.859467 0
M  V30 6702 C 643.07 -0.707811 -1.81164 0
M  V30 6703 O 642.325 0.303155 -1.93338 0
M  V30 6704 C 642.624 -3.16128 -1.66727 0
M  V30 6705 C 642.29 -4.42586 -0.861881 0
M  V30 6706 C 640.952 -4.76929 -0.639687 0
M  V30 6707 C 643.304 -5.20344 -0.298643 0
M  V30 6708 C 640.632 -5.86491 0.156451 0
M  V30 6709 C 642.984 -6.30742 0.484536 0
M  V30 6710 C 641.648 -6.63635 0.717306 0
M  V30 6711 H 640.918 -0.670947 -0.314501 0
M  V30 6712 H 643.565 -1.91104 -0.123108 0
M  V30 6713 H 641.87 -3.03831 -2.47374 0
M  V30 6714 H 643.567 -3.33802 -2.2221 0
M  V30 6715 H 640.157 -4.15662 -1.04513 0
M  V30 6716 H 644.341 -4.94186 -0.457585 0
M  V30 6717 H 639.597 -6.10419 0.346292 0
M  V30 6718 H 643.771 -6.90188 0.928105 0
M  V30 6719 H 641.398 -7.48367 1.33607 0
M  V30 6720 N 642.974 0.416227 -1.52004 0
M  V30 6721 C 643.884 1.53147 -1.77717 0
M  V30 6722 C 644.9 1.609 -0.662368 0
M  V30 6723 O 646.076 1.77747 -0.946991 0
M  V30 6724 C 643.141 2.88948 -1.91598 0
M  V30 6725 C 642.202 2.9114 -3.15493 0
M  V30 6726 C 641.435 4.20464 -3.28703 0
M  V30 6727 O 641.658 5.13981 -2.47345 0
M  V30 6728 O 640.592 4.29368 -4.21813 0
M  V30 6729 H 644.418 1.34357 -2.72363 0
M  V30 6730 H 642.003 0.601373 -1.36762 0
M  V30 6731 H 643.885 3.69505 -2.02593 0
M  V30 6732 H 642.56 3.07821 -1.00141 0
M  V30 6733 H 641.467 2.09461 -3.09962 0
M  V30 6734 H 642.8 2.77216 -4.06709 0
M  V30 6735 N 644.452 1.42507 0.673017 0
M  V30 6736 C 645.402 1.4258 1.77919 0
M  V30 6737 C 646.386 0.296885 1.58137 0
M  V30 6738 O 647.578 0.539243 1.68586 0
M  V30 6739 C 644.707 1.33238 3.1639 0
M  V30 6740 C 643.793 2.51081 3.41788 0
M  V30 6741 N 644.184 3.76498 3.37761 0
M  V30 6742 C 642.482 2.4538 3.72431 0
M  V30 6743 C 643.183 4.54784 3.62693 0
M  V30 6744 N 642.159 3.8522 3.83544 0
M  V30 6745 H 645.961 2.37442 1.73201 0
M  V30 6746 H 643.475 1.36881 0.873924 0
M  V30 6747 H 645.472 1.31372 3.9566 0
M  V30 6748 H 644.132 0.393794 3.22303 0
M  V30 6749 H 645.143 4.09068 3.17622 0
M  V30 6750 H 641.82 1.60109 3.85579 0
M  V30 6751 H 643.21 5.63774 3.65525 0
M  V30 6752 N 645.93 -0.909495 1.28709 0
M  V30 6753 C 647.155 -1.69801 1.1909 0
M  V30 6754 C 647.58 -1.86479 -0.246388 0
M  V30 6755 O 646.938 -1.37802 -1.17815 0
M  V30 6756 C 646.986 -3.06543 1.89904 0
M  V30 6757 O 646.09 -3.94268 1.2094 0
M  V30 6758 H 645.431 -0.519783 0.413185 0
M  V30 6759 H 647.961 -1.13689 1.70106 0
M  V30 6760 H 647.971 -3.56748 1.97977 0
M  V30 6761 H 646.646 -2.93722 2.94449 0
M  V30 6762 H 645.223 -3.52702 1.2106 0
M  V30 6763 N 647.408 -1.11026 -1.11852 0
M  V30 6764 C 648.654 -0.857729 -1.83768 0
M  V30 6765 C 648.987 0.615143 -1.842 0
M  V30 6766 O 648.262 1.45391 -1.29196 0
M  V30 6767 C 648.545 -1.41453 -3.31154 0
M  V30 6768 C 648.398 -2.95471 -3.39142 0
M  V30 6769 C 649.717 -1.0619 -4.27097 0
M  V30 6770 H 646.836 -0.313044 -0.667212 0
M  V30 6771 H 649.478 -1.37443 -1.31185 0
M  V30 6772 H 647.628 -0.975052 -3.76065 0
M  V30 6773 H 649.3 -3.4799 -3.02821 0
M  V30 6774 H 647.543 -3.31759 -2.79497 0
M  V30 6775 H 648.214 -3.29515 -4.42859 0
M  V30 6776 H 650.69 -1.44122 -3.90344 0
M  V30 6777 H 649.566 -1.47832 -5.28618 0
M  V30 6778 H 649.827 0.0278912 -4.42091 0
M  V30 6779 N 648.886 1.2938 -0.899927 0
M  V30 6780 C 649.836 2.25311 -0.349165 0
M  V30 6781 C 650.82 1.51889 0.530892 0
M  V30 6782 O 652.012 1.73028 0.372872 0
M  V30 6783 C 649.141 3.40696 0.422055 0
M  V30 6784 C 648.227 4.21455 -0.472935 0
M  V30 6785 N 648.618 4.8048 -1.58026 0
M  V30 6786 C 646.916 4.45177 -0.270767 0
M  V30 6787 C 647.617 5.41117 -2.13465 0
M  V30 6788 N 646.593 5.24518 -1.42766 0
M  V30 6789 H 650.395 2.68507 -1.19505 0
M  V30 6790 H 647.909 1.43992 -0.751006 0
M  V30 6791 H 649.906 4.08486 0.833369 0
M  V30 6792 H 648.566 2.99037 1.2652 0
M  V30 6793 H 649.577 4.79257 -1.96299 0
M  V30 6794 H 646.254 4.14071 0.533988 0
M  V30 6795 H 647.644 5.979 -3.06537 0
M  V30 6796 N 650.364 0.662433 1.43002 0
M  V30 6797 C 651.78 0.330835 1.56133 0
M  V30 6798 C 651.98 -1.16454 1.64441 0
M  V30 6799 O 651.036 -1.94964 1.60453 0
M  V30 6800 C 652.349 1.05029 2.81761 0
M  V30 6801 C 653.897 1.03142 2.95518 0
M  V30 6802 C 654.372 1.73196 4.2399 0
M  V30 6803 N 655.863 1.70004 4.30875 0
M  V30 6804 C 656.598 2.21074 5.29069 0
M  V30 6805 N 656.094 2.80473 6.33488 0
M  V30 6806 N 657.887 2.1152 5.20784 0
M  V30 6807 H 650.038 1.63272 1.35853 0
M  V30 6808 H 652.301 0.687149 0.653092 0
M  V30 6809 H 652.007 2.10542 2.81718 0
M  V30 6810 H 651.881 0.607664 3.72273 0
M  V30 6811 H 654.268 -0.0153339 2.95096 0
M  V30 6812 H 654.349 1.51282 2.0627 0
M  V30 6813 H 653.993 2.77833 4.25172 0
M  V30 6814 H 653.923 1.22515 5.1215 0
M  V30 6815 H 656.414 1.26667 3.56039 0
M  V30 6816 H 656.727 3.17094 7.04749 0
M  V30 6817 H 655.072 2.84538 6.34085 0
M  V30 6818 H 658.263 1.64814 4.38126 0
M  V30 6819 H 658.436 2.51629 5.97149 0
M  V30 6820 N 651.842 -1.52309 0.404946 0
M  V30 6821 C 653.072 -2.05886 -0.171569 0
M  V30 6822 C 653.48 -1.27527 -1.39762 0
M  V30 6823 O 652.823 -0.319215 -1.80905 0
M  V30 6824 C 652.885 -3.54609 -0.590983 0
M  V30 6825 C 652.549 -4.53989 0.523757 0
M  V30 6826 C 653.546 -5.01084 1.38604 0
M  V30 6827 C 651.231 -4.97465 0.695255 0
M  V30 6828 C 653.225 -5.90295 2.4048 0
M  V30 6829 C 650.912 -5.86473 1.71733 0
M  V30 6830 C 651.91 -6.32782 2.57051 0
M  V30 6831 O 651.598 -7.20029 3.57509 0
M  V30 6832 H 651.33 -0.675508 -0.0257763 0
M  V30 6833 H 653.884 -1.97238 0.573278 0
M  V30 6834 H 652.114 -3.60929 -1.38805 0
M  V30 6835 H 653.803 -3.90853 -1.09494 0
M  V30 6836 H 654.569 -4.68214 1.26492 0
M  V30 6837 H 650.448 -4.60982 0.0408447 0
M  V30 6838 H 653.992 -6.26363 3.07108 0
M  V30 6839 H 649.889 -6.18756 1.83877 0
M  V30 6840 H 650.657 -7.3813 3.53703 0
M  V30 6841 N 653.32 -0.135238 -1.57019 0
M  V30 6842 C 654.568 0.51777 -1.95355 0
M  V30 6843 C 654.889 1.6617 -1.02042 0
M  V30 6844 O 654.159 1.95738 -0.0797343 0
M  V30 6845 H 652.739 0.194264 -0.721298 0
M  V30 6846 H 655.401 -0.207983 -1.93787 0
M  V30 6847 H 654.497 0.901675 -2.98791 0
M  V30 6848 N 654.798 1.5699 0.138552 0
M  V30 6849 C 655.73 1.95515 1.1961 0
M  V30 6850 C 656.743 0.852002 1.38726 0
M  V30 6851 O 657.932 1.13038 1.38147 0
M  V30 6852 C 655.032 2.2213 2.55952 0
M  V30 6853 C 654.205 3.53424 2.57702 0
M  V30 6854 C 653.264 3.6848 3.75645 0
M  V30 6855 O 652.29 4.4079 3.60129 0
M  V30 6856 N 653.492 3.05777 4.93438 0
M  V30 6857 H 656.257 2.86838 0.868557 0
M  V30 6858 H 653.818 1.58542 0.328033 0
M  V30 6859 H 655.81 2.29435 3.33379 0
M  V30 6860 H 654.38 1.3703 2.80965 0
M  V30 6861 H 653.6 3.57484 1.6613 0
M  V30 6862 H 654.888 4.39759 2.55909 0
M  V30 6863 H 654.286 2.46961 5.08947 0
M  V30 6864 H 652.843 3.18631 5.6861 0
M  V30 6865 N 656.276 -0.40816 1.52223 0
M  V30 6866 C 657.501 -1.18127 1.70472 0
M  V30 6867 C 657.926 -1.83491 0.41384 0
M  V30 6868 O 657.284 -1.70047 -0.628778 0
M  V30 6869 C 657.332 -2.21935 2.84213 0
M  V30 6870 O 656.436 -3.28099 2.4985 0
M  V30 6871 H 655.777 -0.344781 0.56747 0
M  V30 6872 H 658.307 -0.478328 1.9893 0
M  V30 6873 H 658.317 -2.66248 3.09153 0
M  V30 6874 H 656.992 -1.73744 3.7787 0
M  V30 6875 H 655.569 -2.89058 2.35584 0
M  V30 6876 N 657.755 -1.42862 -0.66545 0
M  V30 6877 C 658.983 -1.47246 -1.45349 0
M  V30 6878 C 659.398 -0.0865944 -1.88601 0
M  V30 6879 O 658.755 0.900652 -1.58728 0
M  V30 6880 C 658.806 -2.40772 -2.6965 0
M  V30 6881 O 658.527 -3.73968 -2.2821 0
M  V30 6882 C 660.028 -2.54272 -3.63126 0
M  V30 6883 H 657.248 -0.500497 -0.446927 0
M  V30 6884 H 659.792 -1.87477 -0.816871 0
M  V30 6885 H 657.947 -2.0377 -3.29479 0
M  V30 6886 H 658.361 -4.24146 -3.08546 0
M  V30 6887 H 659.835 -3.23815 -4.47043 0
M  V30 6888 H 660.312 -1.58364 -4.09656 0
M  V30 6889 H 660.918 -2.92036 -3.09185 0
M  V30 6890 N 659.233 0.902656 -1.29189 0
M  V30 6891 C 660.481 1.6496 -1.16758 0
M  V30 6892 C 660.802 1.92952 0.28188 0
M  V30 6893 O 660.072 1.55351 1.19344 0
M  V30 6894 H 658.652 0.611447 -0.429118 0
M  V30 6895 H 661.314 1.0825 -1.62074 0
M  V30 6896 H 660.41 2.60728 -1.71544 0
M  V30 6897 N 660.711 1.11618 1.11262 0
M  V30 6898 C 661.621 0.78898 2.20935 0
M  V30 6899 C 662.637 -0.21867 1.7262 0
M  V30 6900 O 663.813 -0.0543826 2.01327 0
M  V30 6901 C 660.878 0.239014 3.45875 0
M  V30 6902 C 659.939 1.3055 4.08968 0
M  V30 6903 C 659.172 0.781687 5.27944 0
M  V30 6904 O 659.395 -0.387605 5.69082 0
M  V30 6905 O 658.329 1.54734 5.81671 0
M  V30 6906 H 662.155 1.70477 2.51339 0
M  V30 6907 H 659.74 0.892203 1.19834 0
M  V30 6908 H 661.622 -0.0632312 4.21353 0
M  V30 6909 H 660.297 -0.649454 3.17118 0
M  V30 6910 H 659.204 1.66079 3.35214 0
M  V30 6911 H 660.537 2.16743 4.41909 0
M  V30 6912 N 662.189 -1.289 0.906776 0
M  V30 6913 C 663.436 -1.95269 0.536326 0
M  V30 6914 C 663.764 -1.71435 -0.918711 0
M  V30 6915 O 663.019 -1.02431 -1.66752 0
M  V30 6916 C 663.318 -3.48704 0.783617 0
M  V30 6917 C 662.984 -3.92626 2.21711 0
M  V30 6918 C 661.646 -4.04329 2.60906 0
M  V30 6919 C 663.998 -4.15218 3.15029 0
M  V30 6920 C 661.326 -4.35998 3.92584 0
M  V30 6921 C 663.678 -4.48365 4.46264 0
M  V30 6922 C 662.342 -4.58278 4.85322 0
M  V30 6923 H 661.612 -0.714538 0.196256 0
M  V30 6924 H 664.259 -1.53366 1.14678 0
M  V30 6925 H 662.564 -3.91696 0.0903048 0
M  V30 6926 H 664.261 -3.98162 0.476267 0
M  V30 6927 H 660.851 -3.84038 1.90296 0
M  V30 6928 H 665.035 -4.05636 2.8596 0
M  V30 6929 H 660.291 -4.41878 4.22557 0
M  V30 6930 H 664.465 -4.64795 5.18593 0
M  V30 6931 H 662.092 -4.82573 5.87391 0
M  V30 6932 N 663.667 -0.670007 -1.42649 0
M  V30 6933 C 664.597 -0.00258501 -2.335 0
M  V30 6934 C 665.578 0.794364 -1.50412 0
M  V30 6935 O 666.763 0.75248 -1.79029 0
M  V30 6936 C 663.893 0.952748 -3.33976 0
M  V30 6937 C 662.847 0.264733 -4.2718 0
M  V30 6938 C 662.173 1.33267 -5.17826 0
M  V30 6939 C 663.473 -0.853289 -5.15283 0
M  V30 6940 H 665.167 -0.761326 -2.89559 0
M  V30 6941 H 662.713 -0.367561 -1.3923 0
M  V30 6942 H 664.666 1.4287 -3.96442 0
M  V30 6943 H 663.39 1.74285 -2.7621 0
M  V30 6944 H 662.049 -0.190938 -3.66102 0
M  V30 6945 H 661.697 2.11464 -4.5639 0
M  V30 6946 H 661.397 0.877476 -5.81011 0
M  V30 6947 H 662.921 1.80965 -5.83167 0
M  V30 6948 H 664.335 -0.458763 -5.71462 0
M  V30 6949 H 662.732 -1.23398 -5.87276 0
M  V30 6950 H 663.802 -1.70412 -4.53969 0
M  V30 6951 N 665.145 1.52092 -0.413018 0
M  V30 6952 C 666.077 2.24819 0.445994 0
M  V30 6953 C 667.09 1.27925 1.00692 0
M  V30 6954 O 668.279 1.53845 0.905204 0
M  V30 6955 C 665.379 2.96951 1.6332 0
M  V30 6956 C 664.552 4.20746 1.19548 0
M  V30 6957 C 663.611 4.75668 2.25003 0
M  V30 6958 O 662.637 5.38148 1.85434 0
M  V30 6959 N 663.839 4.57579 3.57214 0
M  V30 6960 H 666.604 2.99176 -0.177209 0
M  V30 6961 H 664.165 1.60102 -0.240601 0
M  V30 6962 H 666.157 3.30586 2.33441 0
M  V30 6963 H 664.727 2.25756 2.16225 0
M  V30 6964 H 663.947 3.92881 0.32224 0
M  V30 6965 H 665.235 5.01132 0.880033 0
M  V30 6966 H 664.633 4.07758 3.92109 0
M  V30 6967 H 663.19 4.95642 4.23299 0
M  V30 6968 N 666.623 0.143563 1.56945 0
M  V30 6969 C 667.869 -0.50916 1.96304 0
M  V30 6970 C 668.202 -1.64741 1.0283 0
M  V30 6971 O 667.477 -1.94374 0.0700361 0
M  V30 6972 C 667.76 -1.0186 3.45393 0
M  V30 6973 C 667.613 0.117923 4.49645 0
M  V30 6974 C 668.932 -1.90151 3.96901 0
M  V30 6975 H 666.051 -0.183608 0.713763 0
M  V30 6976 H 668.693 0.224095 1.88674 0
M  V30 6977 H 666.843 -1.64345 3.52027 0
M  V30 6978 H 668.515 0.754145 4.55094 0
M  V30 6979 H 666.758 0.777568 4.26774 0
M  V30 6980 H 667.429 -0.280187 5.51288 0
M  V30 6981 H 669.905 -1.375 3.92725 0
M  V30 6982 H 668.781 -2.22707 5.0169 0
M  V30 6983 H 669.042 -2.83718 3.39052 0
M  V30 6984 N 668.101 -1.57061 -0.130224 0
M  V30 6985 C 669.349 -1.83893 -0.838313 0
M  V30 6986 C 669.67 -0.727046 -1.80939 0
M  V30 6987 O 668.94 0.249927 -1.94299 0
M  V30 6988 H 667.52 -0.67846 -0.312573 0
M  V30 6989 H 670.182 -1.94529 -0.120224 0
M  V30 6990 H 669.278 -2.79419 -1.39038 0
M  V30 6991 N 669.579 0.400081 -1.52437 0
M  V30 6992 C 670.827 1.14392 -1.6661 0
M  V30 6993 C 671.148 1.90792 -0.402927 0
M  V30 6994 O 670.418 1.87042 0.582425 0
M  V30 6995 H 668.998 0.425275 -0.614125 0
M  V30 6996 H 671.66 0.455076 -1.89513 0
M  V30 6997 H 670.756 1.85298 -2.51139 0
M  V30 6998 N 671.057 1.43213 0.657864 0
M  V30 6999 C 672.306 1.43871 1.41365 0
M  V30 7000 C 672.619 0.064898 1.95492 0
M  V30 7001 O 673.825 -0.0510796 2.71452 0
M  V30 7002 C 672.281 2.53158 2.55811 0
M  V30 7003 C 671.889 3.96624 2.08311 0
M  V30 7004 C 673.633 2.63004 3.3321 0
M  V30 7005 C 671.54 4.97385 3.1994 0
M  V30 7006 H 670.47 0.535174 0.531136 0
M  V30 7007 H 673.121 1.69185 0.710543 0
M  V30 7008 H 671.503 2.21037 3.2857 0
M  V30 7009 H 672.677 4.38182 1.42593 0
M  V30 7010 H 670.992 3.90781 1.43804 0
M  V30 7011 H 673.589 3.3546 4.16378 0
M  V30 7012 H 673.932 1.67918 3.80932 0
M  V30 7013 H 674.465 2.94403 2.67529 0
M  V30 7014 H 671.204 5.94007 2.77192 0
M  V30 7015 H 670.724 4.60444 3.84385 0
M  V30 7016 H 672.403 5.19877 3.85145 0
M  V30 7017 N 672.536 -0.895792 1.29666 0
M  V30 7018 C 673.486 -1.98736 1.1175 0
M  V30 7019 C 674.47 -1.6086 0.0357834 0
M  V30 7020 O 675.662 -1.75111 0.257926 0
M  V30 7021 C 672.791 -3.33845 0.800156 0
M  V30 7022 C 671.877 -3.78068 1.9216 0
M  V30 7023 N 672.268 -3.94489 3.16563 0
M  V30 7024 C 670.566 -4.07376 1.81552 0
M  V30 7025 C 671.267 -4.31819 3.89753 0
M  V30 7026 N 670.243 -4.41081 3.17724 0
M  V30 7027 H 674.045 -2.09507 2.06117 0
M  V30 7028 H 671.559 -1.08488 1.20848 0
M  V30 7029 H 673.556 -4.11757 0.652841 0
M  V30 7030 H 672.216 -3.24417 -0.135551 0
M  V30 7031 H 673.227 -3.79914 3.51974 0
M  V30 7032 H 669.904 -4.06483 0.952787 0
M  V30 7033 H 671.294 -4.52337 4.96831 0
M  V30 7034 N 674.014 -1.12206 -1.10668 0
M  V30 7035 C 675.26 -0.877172 -1.82848 0
M  V30 7036 C 675.593 0.595571 -1.84842 0
M  V30 7037 O 674.868 1.44013 -1.30731 0
M  V30 7038 C 675.151 -1.44957 -3.29635 0
M  V30 7039 C 675.004 -2.99051 -3.35989 0
M  V30 7040 C 676.323 -1.10714 -4.25946 0
M  V30 7041 H 673.442 -0.320103 -0.663854 0
M  V30 7042 H 676.084 -1.38827 -1.2972 0
M  V30 7043 H 674.234 -1.01488 -3.7501 0
M  V30 7044 H 675.906 -3.51182 -2.99113 0
M  V30 7045 H 674.149 -3.34705 -2.75962 0
M  V30 7046 H 674.82 -3.34194 -4.39339 0
M  V30 7047 H 677.296 -1.48254 -3.88793 0
M  V30 7048 H 676.172 -1.5343 -5.2702 0
M  V30 7049 H 676.433 -0.019 -4.42096 0
M  V30 7050 N 675.492 1.28418 -0.913599 0
M  V30 7051 C 676.738 1.9527 -0.547484 0
M  V30 7052 C 677.071 1.71745 0.906486 0
M  V30 7053 O 676.346 1.03834 1.64465 0
M  V30 7054 C 676.629 3.49748 -0.857205 0
M  V30 7055 C 676.482 3.82675 -2.3639 0
M  V30 7056 C 677.801 4.3868 -0.353258 0
M  V30 7057 H 674.92 0.709236 -0.200381 0
M  V30 7058 H 677.562 1.51789 -1.14281 0
M  V30 7059 H 675.712 3.86915 -0.350548 0
M  V30 7060 H 677.384 3.55378 -2.94116 0
M  V30 7061 H 675.627 3.29724 -2.81894 0
M  V30 7062 H 676.298 4.90547 -2.53115 0
M  V30 7063 H 678.774 4.08584 -0.787288 0
M  V30 7064 H 677.65 5.45621 -0.599049 0
M  V30 7065 H 677.911 4.35753 0.746413 0
M  V30 7066 N 676.97 0.677563 1.42291 0
M  V30 7067 C 678.2 0.209155 2.05539 0
M  V30 7068 C 678.608 -1.13987 1.51009 0
M  V30 7069 O 677.951 -1.71976 0.645764 0
M  V30 7070 C 678.013 0.0697758 3.59432 0
M  V30 7071 C 677.677 1.34795 4.36668 0
M  V30 7072 C 678.674 2.28201 4.67141 0
M  V30 7073 C 676.359 1.59632 4.76259 0
M  V30 7074 C 678.353 3.44718 5.36142 0
M  V30 7075 C 676.04 2.76437 5.45 0
M  V30 7076 C 677.038 3.68805 5.74867 0
M  V30 7077 O 676.726 4.83567 6.42198 0
M  V30 7078 H 676.458 0.0986202 0.668768 0
M  V30 7079 H 679.012 0.925483 1.83368 0
M  V30 7080 H 677.242 -0.702157 3.80272 0
M  V30 7081 H 678.931 -0.359115 4.04308 0
M  V30 7082 H 679.697 2.10264 4.37052 0
M  V30 7083 H 675.576 0.886073 4.52404 0
M  V30 7084 H 679.12 4.16833 5.59371 0
M  V30 7085 H 675.017 2.94299 5.74507 0
M  V30 7086 H 675.785 4.83147 6.6069 0
M  V30 7087 N 678.448 -1.51871 0.421078 0
M  V30 7088 C 679.725 -1.9447 -0.20993 0
M  V30 7089 C 680.105 -1.35875 -1.61558 0
M  V30 7090 O 679.453 -0.539294 -2.22045 0
M  V30 7091 C 679.663 -3.48402 -0.204165 0
M  V30 7092 C 681.011 -4.2254 -0.417696 0
M  V30 7093 O 682.035 -3.55074 -0.282999 0
M  V30 7094 O 680.894 -5.422 -0.684239 0
M  V30 7095 H 677.988 -0.815283 -0.138718 0
M  V30 7096 H 680.534 -1.62832 0.477884 0
M  V30 7097 H 679.306 -3.83464 0.779183 0
M  V30 7098 H 678.929 -3.86436 -0.935576 0
M  V30 7099 N 679.926 -0.151884 -1.56866 0
M  V30 7100 C 680.856 0.781943 -2.20018 0
M  V30 7101 C 681.837 1.25347 -1.14987 0
M  V30 7102 O 683.022 1.31015 -1.43348 0
M  V30 7103 C 680.152 2.01928 -2.82564 0
M  V30 7104 C 679.106 1.68434 -3.93464 0
M  V30 7105 C 678.432 2.99472 -4.42968 0
M  V30 7106 C 679.732 0.927244 -5.14003 0
M  V30 7107 H 681.426 0.255607 -2.98307 0
M  V30 7108 H 678.972 0.121502 -1.43486 0
M  V30 7109 H 680.925 2.67741 -3.25411 0
M  V30 7110 H 679.649 2.56943 -2.01614 0
M  V30 7111 H 678.308 1.04998 -3.51242 0
M  V30 7112 H 677.956 3.52488 -3.58834 0
M  V30 7113 H 677.656 2.77823 -5.17772 0
M  V30 7114 H 679.18 3.66348 -4.88489 0
M  V30 7115 H 680.594 1.48756 -5.53665 0
M  V30 7116 H 678.991 0.810513 -5.94601 0
M  V30 7117 H 680.061 -0.0801163 -4.84834 0
M  V30 7118 N 681.404 1.57128 0.121893 0
M  V30 7119 C 682.629 1.89254 0.848385 0
M  V30 7120 C 683.054 0.743527 1.72781 0
M  V30 7121 O 682.412 -0.306056 1.78698 0
M  V30 7122 C 682.46 3.20113 1.66012 0
M  V30 7123 O 681.564 3.05815 2.76679 0
M  V30 7124 H 680.905 0.621103 0.234793 0
M  V30 7125 H 683.435 2.0433 0.10516 0
M  V30 7126 H 683.445 3.52761 2.04996 0
M  V30 7127 H 682.12 4.03336 1.01452 0
M  V30 7128 H 680.697 2.84627 2.40918 0
M  V30 7129 N 682.882 -0.391992 1.52647 0
M  V30 7130 C 684.298 -0.731848 1.41831 0
M  V30 7131 C 684.498 -1.9423 0.536361 0
M  V30 7132 O 683.554 -2.52499 0.00866571 0
M  V30 7133 C 684.867 -0.969743 2.84634 0
M  V30 7134 C 686.415 -1.0714 2.94092 0
M  V30 7135 C 686.89 -1.34195 4.37899 0
M  V30 7136 N 688.381 -1.41023 4.41211 0
M  V30 7137 C 689.116 -1.63616 5.49561 0
M  V30 7138 N 688.612 -1.83699 6.68002 0
M  V30 7139 N 690.405 -1.65771 5.371 0
M  V30 7140 H 682.556 0.404547 2.08512 0
M  V30 7141 H 684.819 0.11879 0.940528 0
M  V30 7142 H 684.525 -0.152465 3.51369 0
M  V30 7143 H 684.399 -1.88523 3.26709 0
M  V30 7144 H 686.786 -1.87925 2.27526 0
M  V30 7145 H 686.867 -0.133887 2.55449 0
M  V30 7146 H 686.511 -0.539207 5.0503 0
M  V30 7147 H 686.441 -2.29226 4.74092 0
M  V30 7148 H 688.932 -1.27223 3.55841 0
M  V30 7149 H 689.245 -2.00437 7.46354 0
M  V30 7150 H 687.59 -1.8093 6.71036 0
M  V30 7151 H 690.781 -1.4963 4.43541 0
M  V30 7152 H 690.954 -1.83038 6.21612 0
M  V30 7153 N 684.36 -1.4356 -0.65026 0
M  V30 7154 C 685.307 -1.48948 -1.76304 0
M  V30 7155 C 686.277 -0.338919 -1.62605 0
M  V30 7156 O 687.462 -0.54649 -1.82806 0
M  V30 7157 C 684.602 -1.42131 -3.14472 0
M  V30 7158 C 683.715 -2.67415 -3.39284 0
M  V30 7159 C 682.85 -2.52565 -4.67316 0
M  V30 7160 C 681.889 -3.73103 -4.85243 0
M  V30 7161 N 681.026 -3.57046 -6.04535 0
M  V30 7162 H 685.866 -2.44032 -1.71034 0
M  V30 7163 H 683.403 -1.21131 -0.834601 0
M  V30 7164 H 685.361 -1.36172 -3.94351 0
M  V30 7165 H 683.991 -0.506273 -3.18805 0
M  V30 7166 H 683.043 -2.8364 -2.53481 0
M  V30 7167 H 684.355 -3.56943 -3.48415 0
M  V30 7168 H 683.509 -2.44331 -5.55326 0
M  V30 7169 H 682.248 -1.60566 -4.60511 0
M  V30 7170 H 681.253 -3.81743 -3.95667 0
M  V30 7171 H 682.478 -4.66115 -4.93876 0
M  V30 7172 H 680.424 -2.67783 -5.98856 0
M  V30 7173 H 680.341 -4.40178 -6.14638 0
M  V30 7174 H 681.609 -3.52669 -6.95158 0
M  V30 7175 N 685.838 0.888903 -1.30139 0
M  V30 7176 C 687.249 1.45578 -1.16893 0
M  V30 7177 C 687.6 1.94825 0.231866 0
M  V30 7178 O 686.725 1.84661 1.12824 0
M  V30 7179 C 687.32 2.646 -2.11595 0
M  V30 7180 C 685.879 3.17389 -2.02339 0
M  V30 7181 C 685.026 1.90081 -2.01902 0
M  V30 7182 H 687.977 0.69921 -1.42467 0
M  V30 7183 H 687.998 3.40687 -1.69449 0
M  V30 7184 H 687.51 2.28726 -3.13538 0
M  V30 7185 H 685.611 3.5793 -1.03523 0
M  V30 7186 H 685.724 3.80955 -2.90534 0
M  V30 7187 H 684.088 2.08246 -1.46648 0
M  V30 7188 H 684.871 1.5647 -3.05568 0
M  V30 7189 N 687.317 1.12792 1.10072 0
M  V30 7190 C 688.565 0.883796 1.81751 0
M  V30 7191 C 688.886 -0.591891 1.858 0
M  V30 7192 O 688.156 -1.43017 1.33876 0
M  V30 7193 H 686.736 0.323978 0.673088 0
M  V30 7194 H 689.398 1.42314 1.33164 0
M  V30 7195 H 688.494 1.26863 2.85153 0
M  V30 7196 N 688.795 -1.27931 0.920396 0
M  V30 7197 C 690.072 -1.89728 0.475687 0
M  V30 7198 C 690.452 -1.8337 -1.04588 0
M  V30 7199 O 689.8 -1.27404 -1.89685 0
M  V30 7200 C 690.01 -3.33959 1.01354 0
M  V30 7201 C 691.358 -4.10907 1.06963 0
M  V30 7202 O 692.382 -3.42945 0.962646 0
M  V30 7203 O 691.241 -5.32399 1.23343 0
M  V30 7204 H 688.335 -0.81294 0.151845 0
M  V30 7205 H 690.881 -1.36252 1.01161 0
M  V30 7206 H 689.653 -3.32843 2.05746 0
M  V30 7207 H 689.276 -3.94944 0.458829 0
M  V30 7208 N 690.273 -0.685099 -1.4193 0
M  V30 7209 C 691.689 -0.355632 -1.55587 0
M  V30 7210 C 691.889 1.13823 -1.66273 0
M  V30 7211 O 690.945 1.92387 -1.63534 0
M  V30 7212 C 692.258 -1.09498 -2.80055 0
M  V30 7213 C 693.806 -1.07831 -2.93839 0
M  V30 7214 C 694.281 -1.79919 -4.21181 0
M  V30 7215 N 695.772 -1.76837 -4.28115 0
M  V30 7216 C 696.507 -2.29463 -5.25485 0
M  V30 7217 N 696.003 -2.90516 -6.28945 0
M  V30 7218 N 697.796 -2.19779 -5.17353 0
M  V30 7219 H 689.947 -1.65412 -1.33239 0
M  V30 7220 H 692.21 -0.697453 -0.642078 0
M  V30 7221 H 691.916 -2.14997 -2.78333 0
M  V30 7222 H 691.79 -0.666813 -3.71259 0
M  V30 7223 H 694.177 -0.0316152 -2.95083 0
M  V30 7224 H 694.258 -1.54545 -2.03837 0
M  V30 7225 H 693.902 -2.84562 -4.20698 0
M  V30 7226 H 693.832 -1.30647 -5.10136 0
M  V30 7227 H 696.323 -1.32315 -3.53979 0
M  V30 7228 H 696.636 -3.28266 -6.99615 0
M  V30 7229 H 694.981 -2.94589 -6.29478 0
M  V30 7230 H 698.172 -1.71763 -4.35448 0
M  V30 7231 H 698.345 -2.61097 -5.9307 0
M  V30 7232 N 691.751 1.51645 -0.429126 0
M  V30 7233 C 692.997 2.02314 0.140286 0
M  V30 7234 C 693.33 1.31314 1.43074 0
M  V30 7235 O 692.605 0.425531 1.89788 0
M  V30 7236 C 692.888 3.5822 0.36749 0
M  V30 7237 C 692.741 4.39846 -0.941039 0
M  V30 7238 C 694.06 4.25055 1.14089 0
M  V30 7239 H 691.179 0.735335 0.0495112 0
M  V30 7240 H 693.821 1.81358 -0.566514 0
M  V30 7241 H 691.971 3.76207 0.969556 0
M  V30 7242 H 693.643 4.33527 -1.57646 0
M  V30 7243 H 691.886 4.05259 -1.54751 0
M  V30 7244 H 692.557 5.47069 -0.73621 0
M  V30 7245 H 695.033 4.11288 0.630986 0
M  V30 7246 H 693.909 5.34038 1.26863 0
M  V30 7247 H 694.17 3.85358 2.16683 0
M  V30 7248 N 693.229 0.160201 1.56784 0
M  V30 7249 C 694.475 -0.48831 1.96833 0
M  V30 7250 C 694.808 -1.63641 1.04571 0
M  V30 7251 O 694.083 -1.94289 0.0906481 0
M  V30 7252 C 694.366 -0.981908 3.46454 0
M  V30 7253 C 694.219 0.165607 4.49495 0
M  V30 7254 C 695.538 -1.85931 3.98896 0
M  V30 7255 H 692.657 -0.176027 0.71567 0
M  V30 7256 H 695.299 0.244093 1.88426 0
M  V30 7257 H 693.449 -1.60602 3.5375 0
M  V30 7258 H 695.121 0.802372 4.54268 0
M  V30 7259 H 693.364 0.822789 4.25926 0
M  V30 7260 H 694.035 -0.221699 5.51555 0
M  V30 7261 H 696.511 -1.33327 3.94161 0
M  V30 7262 H 695.387 -2.17373 5.04024 0
M  V30 7263 H 695.648 -2.80106 3.42042 0
M  V30 7264 N 694.707 -1.5719 -0.113559 0
M  V30 7265 C 695.654 -2.00736 -1.13901 0
M  V30 7266 C 696.624 -0.88044 -1.40846 0
M  V30 7267 O 697.809 -1.14507 -1.5262 0
M  V30 7268 C 694.949 -2.42132 -2.45899 0
M  V30 7269 C 694.062 -3.68264 -2.25844 0
M  V30 7270 C 693.197 -3.98617 -3.5111 0
M  V30 7271 C 692.236 -5.17915 -3.26236 0
M  V30 7272 N 691.373 -5.44111 -4.4372 0
M  V30 7273 H 696.213 -2.88128 -0.760677 0
M  V30 7274 H 693.75 -1.42523 -0.364099 0
M  V30 7275 H 695.708 -2.6417 -3.22908 0
M  V30 7276 H 694.338 -1.57775 -2.81615 0
M  V30 7277 H 693.39 -3.53809 -1.39726 0
M  V30 7278 H 694.702 -4.55425 -2.03444 0
M  V30 7279 H 693.856 -4.21333 -4.36536 0
M  V30 7280 H 692.595 -3.09942 -3.76546 0
M  V30 7281 H 691.6 -4.95038 -2.39202 0
M  V30 7282 H 692.825 -6.08172 -3.02165 0
M  V30 7283 H 690.771 -4.58394 -4.69266 0
M  V30 7284 H 690.688 -6.25606 -4.24444 0
M  V30 7285 H 691.956 -5.71351 -5.30263 0
M  V30 7286 N 696.185 0.383891 -1.52853 0
M  V30 7287 C 697.115 1.47559 -1.80965 0
M  V30 7288 C 698.096 1.5669 -0.661986 0
M  V30 7289 O 699.281 1.71556 -0.910072 0
M  V30 7290 C 696.411 2.85114 -1.98312 0
M  V30 7291 C 695.365 2.9082 -3.14019 0
M  V30 7292 C 694.691 4.30873 -3.16627 0
M  V30 7293 C 695.991 2.60001 -4.52986 0
M  V30 7294 H 697.685 1.24283 -2.72386 0
M  V30 7295 H 695.231 0.596445 -1.31067 0
M  V30 7296 H 697.184 3.61496 -2.16561 0
M  V30 7297 H 695.908 3.09738 -1.03585 0
M  V30 7298 H 694.567 2.16886 -2.9556 0
M  V30 7299 H 694.215 4.52545 -2.19573 0
M  V30 7300 H 693.915 4.3561 -3.94357 0
M  V30 7301 H 695.439 5.09154 -3.37038 0
M  V30 7302 H 696.853 3.261 -4.71521 0
M  V30 7303 H 695.25 2.76081 -5.32822 0
M  V30 7304 H 696.32 1.5532 -4.59351 0
M  V30 7305 N 697.663 1.43903 0.642637 0
M  V30 7306 C 698.94 1.36556 1.40043 0
M  V30 7307 C 699.32 0.0185588 2.11092 0
M  V30 7308 O 698.668 -0.998438 2.05532 0
M  V30 7309 C 698.878 2.55596 2.37638 0
M  V30 7310 C 700.226 2.99153 3.01318 0
M  V30 7311 O 701.25 2.55719 2.47965 0
M  V30 7312 O 700.109 3.74427 3.98078 0
M  V30 7313 H 697.203 0.540189 0.626198 0
M  V30 7314 H 699.749 1.55971 0.668657 0
M  V30 7315 H 698.521 3.45256 1.84158 0
M  V30 7316 H 698.144 2.38334 3.18249 0
M  V30 7317 N 699.141 -0.881989 1.30609 0
M  V30 7318 C 700.387 -1.63647 1.19781 0
M  V30 7319 C 700.72 -1.92632 -0.246265 0
M  V30 7320 O 699.995 -1.54938 -1.17577 0
M  V30 7321 C 700.278 -2.97437 2.02985 0
M  V30 7322 C 700.131 -2.75406 3.55628 0
M  V30 7323 C 701.45 -3.98397 1.86997 0
M  V30 7324 H 698.569 -0.593841 0.436488 0
M  V30 7325 H 701.211 -1.02041 1.60273 0
M  V30 7326 H 699.361 -3.50018 1.68581 0
M  V30 7327 H 701.033 -2.2959 4.00107 0
M  V30 7328 H 699.276 -2.09856 3.79662 0
M  V30 7329 H 699.947 -3.70552 4.09139 0
M  V30 7330 H 702.423 -3.54986 2.17081 0
M  V30 7331 H 701.299 -4.89916 2.47536 0
M  V30 7332 H 701.56 -4.3424 0.829943 0
M  V30 7333 N 700.619 -1.13374 -1.09472 0
M  V30 7334 C 701.549 -0.833268 -2.18126 0
M  V30 7335 C 702.53 0.207169 -1.68834 0
M  V30 7336 O 703.715 0.0662012 -1.94087 0
M  V30 7337 C 700.845 -0.297979 -3.46019 0
M  V30 7338 C 699.799 -1.27261 -4.08642 0
M  V30 7339 C 699.125 -0.597104 -5.31356 0
M  V30 7340 C 700.425 -2.63095 -4.51197 0
M  V30 7341 H 702.119 -1.74182 -2.43518 0
M  V30 7342 H 699.665 -0.838921 -1.17039 0
M  V30 7343 H 701.618 -0.0754444 -4.21332 0
M  V30 7344 H 700.342 0.645959 -3.20148 0
M  V30 7345 H 699.001 -1.48113 -3.35348 0
M  V30 7346 H 698.649 0.352293 -5.01765 0
M  V30 7347 H 698.349 -1.24734 -5.74208 0
M  V30 7348 H 699.873 -0.38384 -6.09392 0
M  V30 7349 H 701.287 -2.46214 -5.17737 0
M  V30 7350 H 699.684 -3.2429 -5.04932 0
M  V30 7351 H 700.754 -3.20793 -3.6362 0
M  V30 7352 N 702.098 1.27442 -0.927168 0
M  V30 7353 C 703.338 1.96157 -0.574608 0
M  V30 7354 C 703.702 1.71265 0.867897 0
M  V30 7355 O 704.903 2.33664 1.3287 0
M  V30 7356 C 703.174 3.46115 -0.891009 0
M  V30 7357 S 704.733 4.34006 -0.646885 0
M  V30 7358 H 701.551 0.678619 -0.212125 0
M  V30 7359 H 704.153 1.54688 -1.19549 0
M  V30 7360 H 702.857 3.6173 -1.93854 0
M  V30 7361 H 702.388 3.92545 -0.259301 0
M  V30 7362 H 704.403 4.93719 0.495568 0
M  V30 7363 N 703.576 0.692616 1.41565 0
M  V30 7364 C 704.804 0.231279 2.05603 0
M  V30 7365 C 705.219 -1.11837 1.52111 0
M  V30 7366 O 704.576 -1.6983 0.66813 0
M  V30 7367 C 704.627 0.177125 3.61066 0
M  V30 7368 O 704.348 1.47346 4.12578 0
M  V30 7369 C 705.849 -0.30556 4.42246 0
M  V30 7370 H 703.069 0.108238 0.662213 0
M  V30 7371 H 705.613 0.944369 1.81389 0
M  V30 7372 H 703.768 -0.486769 3.8433 0
M  V30 7373 H 704.182 1.35861 5.06599 0
M  V30 7374 H 705.656 -0.29233 5.51225 0
M  V30 7375 H 706.133 -1.34393 4.18133 0
M  V30 7376 H 706.739 0.327229 4.24039 0
M  V30 7377 N 705.054 -1.51416 0.437162 0
M  V30 7378 C 706.001 -2.27743 -0.374374 0
M  V30 7379 C 706.971 -1.31327 -1.01698 0
M  V30 7380 O 708.156 -1.60229 -1.03592 0
M  V30 7381 C 705.296 -3.12241 -1.46969 0
M  V30 7382 C 704.409 -4.23651 -0.845236 0
M  V30 7383 C 703.544 -4.95458 -1.91559 0
M  V30 7384 C 702.583 -5.98789 -1.26956 0
M  V30 7385 N 701.72 -6.64005 -2.28126 0
M  V30 7386 H 706.56 -2.96654 0.282892 0
M  V30 7387 H 704.097 -1.46319 0.151352 0
M  V30 7388 H 706.055 -3.59556 -2.11602 0
M  V30 7389 H 704.685 -2.45445 -2.09659 0
M  V30 7390 H 703.737 -3.803 -0.0872059 0
M  V30 7391 H 705.049 -4.97683 -0.333582 0
M  V30 7392 H 704.203 -5.46321 -2.63854 0
M  V30 7393 H 702.942 -4.21055 -2.46097 0
M  V30 7394 H 701.947 -5.47219 -0.53207 0
M  V30 7395 H 703.172 -6.75149 -0.731509 0
M  V30 7396 H 701.118 -5.92415 -2.81745 0
M  V30 7397 H 701.035 -7.33802 -1.81852 0
M  V30 7398 H 702.303 -7.19498 -2.99905 0
M  V30 7399 N 706.532 -0.168513 -1.56696 0
M  V30 7400 C 707.772 0.479648 -1.98693 0
M  V30 7401 C 708.136 1.60609 -1.05209 0
M  V30 7402 O 709.337 2.3166 -1.36334 0
M  V30 7403 C 707.608 0.952852 -3.44464 0
M  V30 7404 S 709.167 1.60259 -4.08488 0
M  V30 7405 H 705.985 0.154377 -0.694038 0
M  V30 7406 H 708.587 -0.265312 -1.93691 0
M  V30 7407 H 707.291 0.12257 -4.10217 0
M  V30 7408 H 706.822 1.73192 -3.53225 0
M  V30 7409 H 708.837 2.89065 -4.03307 0
M  V30 7410 N 708.01 1.57248 0.105221 0
M  V30 7411 C 709.426 1.52853 0.459153 0
M  V30 7412 C 709.626 0.883674 1.8109 0
M  V30 7413 O 708.682 0.471864 2.48052 0
M  V30 7414 C 709.995 2.97596 0.43096 0
M  V30 7415 C 711.543 3.08758 0.513536 0
M  V30 7416 C 712.018 4.55089 0.515593 0
M  V30 7417 N 713.509 4.59597 0.576639 0
M  V30 7418 C 714.244 5.70253 0.599904 0
M  V30 7419 N 713.74 6.90368 0.579985 0
M  V30 7420 N 715.533 5.58399 0.643953 0
M  V30 7421 H 707.684 1.97547 -0.780306 0
M  V30 7422 H 709.947 0.902758 -0.289363 0
M  V30 7423 H 709.653 3.48201 -0.494903 0
M  V30 7424 H 709.527 3.55756 1.2537 0
M  V30 7425 H 711.914 2.58148 1.42982 0
M  V30 7426 H 711.995 2.53568 -0.337148 0
M  V30 7427 H 711.639 5.06348 -0.396701 0
M  V30 7428 H 711.569 5.08105 1.38335 0
M  V30 7429 H 714.06 3.73144 0.597639 0
M  V30 7430 H 714.373 7.70462 0.600741 0
M  V30 7431 H 712.718 6.92843 0.547191 0
M  V30 7432 H 715.909 4.63467 0.656975 0
M  V30 7433 H 716.082 6.44644 0.658616 0
M  V30 7434 N 709.488 -0.375779 1.53054 0
M  V30 7435 C 710.734 -1.12114 1.68992 0
M  V30 7436 C 711.067 -1.8926 0.435238 0
M  V30 7437 O 710.342 -1.86044 -0.567278 0
M  V30 7438 C 710.625 -2.08867 2.93337 0
M  V30 7439 C 710.478 -1.35397 4.28938 0
M  V30 7440 C 711.797 -3.09124 3.13257 0
M  V30 7441 H 708.916 -0.406207 0.614951 0
M  V30 7442 H 711.558 -0.403054 1.85676 0
M  V30 7443 H 709.708 -2.70102 2.79244 0
M  V30 7444 H 711.38 -0.770242 4.54824 0
M  V30 7445 H 709.623 -0.655801 4.28814 0
M  V30 7446 H 710.294 -2.06161 5.12056 0
M  V30 7447 H 712.77 -2.57987 3.26469 0
M  V30 7448 H 711.646 -3.74054 4.01715 0
M  V30 7449 H 711.907 -3.78729 2.28072 0
M  V30 7450 N 710.966 -1.44241 -0.634997 0
M  V30 7451 C 712.377 -1.41622 -1.21655 0
M  V30 7452 C 712.728 -0.129584 -1.95772 0
M  V30 7453 O 711.853 0.770225 -2.02229 0
M  V30 7454 C 712.448 -2.56557 -2.21278 0
M  V30 7455 C 711.007 -2.57145 -2.7487 0
M  V30 7456 C 710.154 -2.33354 -1.49804 0
M  V30 7457 H 713.105 -1.52878 -0.425905 0
M  V30 7458 H 713.126 -2.29089 -3.03807 0
M  V30 7459 H 712.638 -3.50186 -1.67306 0
M  V30 7460 H 710.739 -1.67447 -3.32855 0
M  V30 7461 H 710.852 -3.55507 -3.21172 0
M  V30 7462 H 709.216 -1.82372 -1.77799 0
M  V30 7463 H 709.999 -3.29092 -0.977402 0
M  V30 7464 N 712.444 0.87505 -1.31075 0
M  V30 7465 C 713.669 1.66583 -1.23551 0
M  V30 7466 C 714.094 1.87067 0.19686 0
M  V30 7467 O 713.452 1.40877 1.1412 0
M  V30 7468 C 713.5 3.01401 -1.97965 0
M  V30 7469 O 712.604 3.90923 -1.31351 0
M  V30 7470 H 711.945 0.508645 -0.426821 0
M  V30 7471 H 714.475 1.09139 -1.7306 0
M  V30 7472 H 714.485 3.51374 -2.07366 0
M  V30 7473 H 713.16 2.85812 -3.02133 0
M  V30 7474 H 711.737 3.49369 -1.30368 0
M  V30 7475 N 713.922 1.13953 1.08869 0
M  V30 7476 C 715.152 0.926825 1.84644 0
M  V30 7477 C 715.56 -0.527941 1.81685 0
M  V30 7478 O 714.903 -1.37742 1.21543 0
M  V30 7479 C 714.965 1.34416 3.33426 0
M  V30 7480 C 714.629 2.81351 3.60126 0
M  V30 7481 C 715.626 3.79486 3.55368 0
M  V30 7482 C 713.311 3.1865 3.88288 0
M  V30 7483 C 715.305 5.1293 3.78393 0
M  V30 7484 C 712.992 4.5227 4.10968 0
M  V30 7485 C 713.99 5.4922 4.06013 0
M  V30 7486 O 713.678 6.80429 4.28102 0
M  V30 7487 H 713.41 0.33013 0.589907 0
M  V30 7488 H 715.964 1.51738 1.38436 0
M  V30 7489 H 714.194 0.696901 3.80368 0
M  V30 7490 H 715.883 1.10302 3.90626 0
M  V30 7491 H 716.649 3.52017 3.3363 0
M  V30 7492 H 712.528 2.43785 3.91267 0
M  V30 7493 H 716.072 5.88591 3.74442 0
M  V30 7494 H 711.969 4.79462 4.32188 0
M  V30 7495 H 712.737 6.86617 4.45533 0
M  V30 7496 N 715.4 -1.26948 0.933913 0
M  V30 7497 C 716.677 -1.89212 0.495784 0
M  V30 7498 C 717.057 -1.84469 -1.02637 0
M  V30 7499 O 716.405 -1.29409 -1.88323 0
M  V30 7500 C 716.615 -3.32865 1.0489 0
M  V30 7501 C 717.963 -4.09749 1.11315 0
M  V30 7502 O 718.987 -3.41905 0.998966 0
M  V30 7503 O 717.846 -5.31061 1.28983 0
M  V30 7504 H 714.94 -0.811284 0.160459 0
M  V30 7505 H 717.486 -1.35171 1.02601 0
M  V30 7506 H 716.258 -3.30642 2.09265 0
M  V30 7507 H 715.881 -3.94435 0.500692 0
M  V30 7508 N 716.879 -0.700114 -1.41195 0
M  V30 7509 C 718.29 -0.307249 -1.84154 0
M  V30 7510 C 718.641 1.15539 -1.58572 0
M  V30 7511 O 717.766 1.88744 -1.05852 0
M  V30 7512 C 718.361 -0.550872 -3.34292 0
M  V30 7513 C 716.92 -0.211877 -3.75803 0
M  V30 7514 C 716.067 -0.830915 -2.64558 0
M  V30 7515 H 719.018 -0.900431 -1.30683 0
M  V30 7516 H 719.039 0.188954 -3.80031 0
M  V30 7517 H 718.551 -1.61548 -3.5288 0
M  V30 7518 H 716.652 0.848283 -3.62815 0
M  V30 7519 H 716.765 -0.67007 -4.74391 0
M  V30 7520 H 715.129 -0.260155 -2.53368 0
M  V30 7521 H 715.912 -1.89948 -2.85963 0
M  V30 7522 N 718.357 1.51182 -0.445186 0
M  V30 7523 C 719.287 2.30821 0.352686 0
M  V30 7524 C 720.268 1.36576 1.01395 0
M  V30 7525 O 721.453 1.65497 1.01609 0
M  V30 7526 C 718.583 3.15593 1.44976 0
M  V30 7527 C 717.537 4.1818 0.911553 0
M  V30 7528 C 716.863 4.91523 2.10497 0
M  V30 7529 C 718.163 5.22266 -0.059418 0
M  V30 7530 H 719.857 2.97771 -0.311936 0
M  V30 7531 H 717.403 1.43201 -0.151461 0
M  V30 7532 H 719.356 3.70091 2.01521 0
M  V30 7533 H 718.08 2.4648 2.14278 0
M  V30 7534 H 716.739 3.64746 0.368264 0
M  V30 7535 H 716.387 4.18906 2.78437 0
M  V30 7536 H 716.087 5.60898 1.7512 0
M  V30 7537 H 717.611 5.48847 2.6758 0
M  V30 7538 H 719.025 5.71789 0.415985 0
M  V30 7539 H 717.422 5.99213 -0.326152 0
M  V30 7540 H 718.492 4.7461 -0.993631 0
M  V30 7541 N 719.835 0.176821 1.56605 0
M  V30 7542 C 720.782 -0.751312 2.18229 0
M  V30 7543 C 721.752 -1.22297 1.12395 0
M  V30 7544 O 722.937 -1.29015 1.40569 0
M  V30 7545 C 720.077 -1.97291 2.83143 0
M  V30 7546 C 719.19 -1.54431 4.03454 0
M  V30 7547 C 718.325 -2.72 4.56278 0
M  V30 7548 C 717.364 -2.25657 5.68986 0
M  V30 7549 N 716.501 -3.36338 6.16296 0
M  V30 7550 H 721.341 -0.219033 2.97194 0
M  V30 7551 H 718.878 -0.0963803 1.46784 0
M  V30 7552 H 720.836 -2.68949 3.1894 0
M  V30 7553 H 719.466 -2.4788 2.06773 0
M  V30 7554 H 718.518 -0.724273 3.73441 0
M  V30 7555 H 719.83 -1.16417 4.85024 0
M  V30 7556 H 718.984 -3.51806 4.94285 0
M  V30 7557 H 717.723 -3.13277 3.73777 0
M  V30 7558 H 716.728 -1.44299 5.30526 0
M  V30 7559 H 717.953 -1.85432 6.53293 0
M  V30 7560 H 715.899 -3.7718 5.36723 0
M  V30 7561 H 715.816 -3.02435 6.9287 0
M  V30 7562 H 717.084 -4.16413 6.58954 0
M  V30 7563 N 721.313 -1.57302 -0.09688 0
M  V30 7564 C 722.246 -1.97179 -1.14872 0
M  V30 7565 C 723.224 -0.844734 -1.38935 0
M  V30 7566 O 724.408 -1.10487 -1.52725 0
M  V30 7567 C 721.535 -2.28703 -2.49826 0
M  V30 7568 C 720.581 -3.51158 -2.42054 0
M  V30 7569 S 721.414 -5.0294 -1.83879 0
M  V30 7570 C 722.57 -5.37639 -3.2046 0
M  V30 7571 H 722.803 -2.86088 -0.808771 0
M  V30 7572 H 720.336 -1.51368 -0.304492 0
M  V30 7573 H 722.294 -2.47541 -3.27466 0
M  V30 7574 H 720.955 -1.40368 -2.8099 0
M  V30 7575 H 720.148 -3.70651 -3.41517 0
M  V30 7576 H 719.75 -3.31821 -1.72543 0
M  V30 7577 H 722.042 -5.34175 -4.16729 0
M  V30 7578 H 722.985 -6.38677 -3.05773 0
M  V30 7579 H 723.393 -4.651 -3.19909 0
M  V30 7580 N 722.791 0.367657 -1.53252 0
M  V30 7581 C 724.068 1.12606 -1.59935 0
M  V30 7582 C 724.448 2.07167 -0.405606 0
M  V30 7583 O 723.796 2.20364 0.604323 0
M  V30 7584 C 724.006 1.86699 -2.94863 0
M  V30 7585 C 725.354 2.41306 -3.49366 0
M  V30 7586 O 726.378 1.96828 -2.96879 0
M  V30 7587 O 725.237 3.2261 -4.41118 0
M  V30 7588 H 722.331 0.516438 -0.645926 0
M  V30 7589 H 724.877 0.371088 -1.65593 0
M  V30 7590 H 723.649 1.17674 -3.73187 0
M  V30 7591 H 723.272 2.6911 -2.92687 0
M  V30 7592 N 724.269 1.44576 0.627338 0
M  V30 7593 C 725.179 1.54232 1.76776 0
M  V30 7594 C 726.195 0.427782 1.6866 0
M  V30 7595 O 727.371 0.685671 1.89369 0
M  V30 7596 C 724.436 1.48738 3.13174 0
M  V30 7597 C 723.497 2.71074 3.32893 0
M  V30 7598 C 722.73 2.65832 4.62784 0
M  V30 7599 O 722.953 1.72048 5.43834 0
M  V30 7600 O 721.887 3.56742 4.84787 0
M  V30 7601 H 725.713 2.50586 1.71582 0
M  V30 7602 H 723.298 1.26865 0.789028 0
M  V30 7603 H 725.18 1.48211 3.94476 0
M  V30 7604 H 723.855 0.555292 3.18902 0
M  V30 7605 H 722.762 2.77168 2.51254 0
M  V30 7606 H 724.095 3.63342 3.32029 0
M  V30 7607 N 725.747 -0.868086 1.31537 0
M  V30 7608 C 726.993 -1.62367 1.2151 0
M  V30 7609 C 727.326 -1.92883 -0.225819 0
M  V30 7610 O 726.601 -1.56176 -1.15927 0
M  V30 7611 C 726.884 -2.95268 2.06129 0
M  V30 7612 C 726.737 -2.71619 3.58529 0
M  V30 7613 C 728.056 -3.96391 1.91212 0
M  V30 7614 H 725.175 -0.589178 0.442762 0
M  V30 7615 H 727.817 -1.00336 1.61347 0
M  V30 7616 H 725.967 -3.4821 1.72284 0
M  V30 7617 H 727.639 -2.25334 4.0252 0
M  V30 7618 H 725.882 -2.05817 3.81866 0
M  V30 7619 H 726.553 -3.66192 4.13047 0
M  V30 7620 H 729.029 -3.52663 2.20834 0
M  V30 7621 H 727.905 -4.87263 2.52718 0
M  V30 7622 H 728.166 -4.33335 0.875953 0
M  V30 7623 N 727.225 -1.14528 -1.08264 0
M  V30 7624 C 728.455 -0.936604 -1.8415 0
M  V30 7625 C 728.863 0.518298 -1.81962 0
M  V30 7626 O 728.206 1.37096 -1.22272 0
M  V30 7627 C 728.268 -1.36182 -3.32708 0
M  V30 7628 C 727.932 -2.83257 -3.58629 0
M  V30 7629 C 728.929 -3.81366 -3.5335 0
M  V30 7630 C 726.614 -3.20704 -3.86593 0
M  V30 7631 C 728.608 -5.14929 -3.75668 0
M  V30 7632 C 726.295 -4.54443 -4.08564 0
M  V30 7633 C 727.293 -5.51365 -4.03095 0
M  V30 7634 O 726.981 -6.8269 -4.24488 0
M  V30 7635 H 726.713 -0.333254 -0.588148 0
M  V30 7636 H 729.267 -1.5247 -1.3763 0
M  V30 7637 H 727.497 -0.717063 -3.79994 0
M  V30 7638 H 729.186 -1.12372 -3.90035 0
M  V30 7639 H 729.952 -3.53781 -3.31759 0
M  V30 7640 H 725.831 -2.45857 -3.89969 0
M  V30 7641 H 729.375 -5.90568 -3.71315 0
M  V30 7642 H 725.272 -4.81747 -4.29639 0
M  V30 7643 H 726.04 -6.8897 -4.41886 0
M  V30 7644 N 728.703 1.26451 -0.940633 0
M  V30 7645 C 729.65 2.264 -0.448497 0
M  V30 7646 C 730.62 1.5866 0.491546 0
M  V30 7647 O 731.805 1.86389 0.407874 0
M  V30 7648 C 728.945 3.43956 0.280715 0
M  V30 7649 C 728.058 4.26374 -0.694937 0
M  V30 7650 C 727.193 5.31171 0.0554186 0
M  V30 7651 C 726.232 6.05266 -0.912091 0
M  V30 7652 N 725.369 7.01833 -0.193524 0
M  V30 7653 H 730.209 2.67869 -1.30576 0
M  V30 7654 H 727.746 1.31707 -0.655112 0
M  V30 7655 H 729.704 4.10941 0.71994 0
M  V30 7656 H 728.334 3.03403 1.10212 0
M  V30 7657 H 727.386 3.59183 -1.25267 0
M  V30 7658 H 728.698 4.77748 -1.43382 0
M  V30 7659 H 727.852 6.04166 0.553951 0
M  V30 7660 H 726.591 4.80634 0.827183 0
M  V30 7661 H 725.596 5.31099 -1.42175 0
M  V30 7662 H 726.821 6.57893 -1.68385 0
M  V30 7663 H 724.767 6.53607 0.559758 0
M  V30 7664 H 724.684 7.50957 -0.871744 0
M  V30 7665 H 725.952 7.78983 0.283932 0
M  V30 7666 N 730.181 0.707592 1.40822 0
M  V30 7667 C 731.427 0.244031 2.01326 0
M  V30 7668 C 731.76 -1.15722 1.55955 0
M  V30 7669 O 731.035 -1.78347 0.776044 0
M  V30 7670 C 731.318 0.315128 3.58718 0
M  V30 7671 C 731.171 1.75419 4.14184 0
M  V30 7672 C 732.49 -0.318251 4.38948 0
M  V30 7673 H 729.609 0.0901471 0.731466 0
M  V30 7674 H 732.251 0.898584 1.67408 0
M  V30 7675 H 730.401 -0.242176 3.87744 0
M  V30 7676 H 732.073 2.36626 3.95987 0
M  V30 7677 H 730.316 2.28449 3.68773 0
M  V30 7678 H 730.987 1.75538 5.23345 0
M  V30 7679 H 733.463 0.156514 4.15806 0
M  V30 7680 H 732.339 -0.238019 5.48384 0
M  V30 7681 H 732.6 -1.40067 4.19325 0
M  V30 7682 N 731.66 -1.50943 0.453197 0
M  V30 7683 C 732.909 -2.01402 -0.10951 0
M  V30 7684 C 733.222 -1.3411 -1.42386 0
M  V30 7685 O 734.428 -1.75626 -2.07045 0
M  V30 7686 C 732.884 -3.5906 -0.245693 0
M  V30 7687 C 732.492 -4.353 1.05916 0
M  V30 7688 C 734.236 -4.17617 -0.761318 0
M  V30 7689 C 732.143 -5.84699 0.887752 0
M  V30 7690 H 731.073 -0.752674 -0.0447013 0
M  V30 7691 H 733.724 -1.73913 0.585375 0
M  V30 7692 H 732.106 -3.83062 -1.00395 0
M  V30 7693 H 733.28 -4.23034 1.82698 0
M  V30 7694 H 731.595 -3.88269 1.50452 0
M  V30 7695 H 734.192 -5.26963 -0.906306 0
M  V30 7696 H 734.535 -3.77824 -1.74799 0
M  V30 7697 H 735.068 -3.97753 -0.0609416 0
M  V30 7698 H 731.807 -6.28933 1.84726 0
M  V30 7699 H 731.327 -5.99587 0.160006 0
M  V30 7700 H 733.006 -6.44682 0.547223 0
M  V30 7701 N 733.138 -0.185124 -1.56509 0
M  V30 7702 C 734.068 0.735098 -2.21627 0
M  V30 7703 C 735.049 1.2288 -1.1762 0
M  V30 7704 O 736.234 1.27945 -1.46095 0
M  V30 7705 C 733.364 1.95889 -2.86783 0
M  V30 7706 C 732.318 1.6005 -3.96948 0
M  V30 7707 C 731.644 2.90009 -4.4922 0
M  V30 7708 C 732.944 0.818008 -5.15855 0
M  V30 7709 H 734.638 0.192274 -2.98782 0
M  V30 7710 H 732.184 0.0910393 -1.43712 0
M  V30 7711 H 734.137 2.60779 -3.31017 0
M  V30 7712 H 732.861 2.52608 -2.07018 0
M  V30 7713 H 731.52 0.975237 -3.5339 0
M  V30 7714 H 731.168 3.44797 -3.6623 0
M  V30 7715 H 730.868 2.66778 -5.23549 0
M  V30 7716 H 732.392 3.55904 -4.9615 0
M  V30 7717 H 733.806 1.36979 -5.56695 0
M  V30 7718 H 732.203 0.684207 -5.96187 0
M  V30 7719 H 733.273 -0.182939 -4.84555 0
M  V30 7720 N 734.616 1.57351 0.0885366 0
M  V30 7721 C 736.027 1.75303 0.642308 0
M  V30 7722 C 736.378 0.808238 1.78779 0
M  V30 7723 O 735.503 -0.01171 2.16397 0
M  V30 7724 C 736.098 3.17885 1.17194 0
M  V30 7725 C 734.657 3.37239 1.67172 0
M  V30 7726 C 733.804 2.7108 0.584045 0
M  V30 7727 H 736.755 1.58103 -0.137567 0
M  V30 7728 H 736.776 3.2112 2.04114 0
M  V30 7729 H 736.288 3.86625 0.338024 0
M  V30 7730 H 734.389 2.73588 2.52943 0
M  V30 7731 H 734.502 4.45594 1.76019 0
M  V30 7732 H 732.866 2.33161 1.02508 0
M  V30 7733 H 733.649 3.42464 -0.239403 0
M  V30 7734 N 736.094 -0.359525 1.53444 0
M  V30 7735 C 737.042 -1.46104 1.80987 0
M  V30 7736 C 738.036 -1.55181 0.679351 0
M  V30 7737 O 739.242 -1.57995 0.862405 0
M  V30 7738 H 735.617 -0.486835 0.573145 0
M  V30 7739 H 737.588 -1.2008 2.73173 0
M  V30 7740 C 736.337 -2.82855 2.02208 0
M  V30 7741 H 735.66 -2.76631 2.88644 0
M  V30 7742 H 737.1 -3.59091 2.25455 0
M  V30 7743 C 735.559 -3.27192 0.802931 0
M  V30 7744 O 736.089 -4.017 -0.00544286 0
M  V30 7745 N 734.295 -2.83807 0.624657 0
M  V30 7746 H 733.842 -2.23339 1.28364 0
M  V30 7747 H 733.8 -3.13828 -0.189641 0
M  V30 7748 N 737.572 -1.44907 -0.619662 0
M  V30 7749 C 738.819 -1.48292 -1.37898 0
M  V30 7750 C 739.147 -0.119933 -1.9413 0
M  V30 7751 O 738.402 0.879834 -1.74807 0
M  V30 7752 C 738.701 -2.50002 -2.55409 0
M  V30 7753 C 738.367 -3.95031 -2.17397 0
M  V30 7754 C 737.029 -4.34524 -2.06743 0
M  V30 7755 C 739.381 -4.86287 -1.87548 0
M  V30 7756 C 736.709 -5.63183 -1.64445 0
M  V30 7757 C 739.061 -6.15346 -1.4674 0
M  V30 7758 C 737.725 -6.53781 -1.34636 0
M  V30 7759 H 736.995 -0.542638 -0.504603 0
M  V30 7760 H 739.642 -1.78186 -0.701581 0
M  V30 7761 H 737.947 -2.13634 -3.28433 0
M  V30 7762 H 739.644 -2.49864 -3.13639 0
M  V30 7763 H 736.234 -3.63793 -2.26611 0
M  V30 7764 H 740.418 -4.56522 -1.94682 0
M  V30 7765 H 735.674 -5.91769 -1.53687 0
M  V30 7766 H 739.848 -6.85508 -1.22685 0
M  V30 7767 H 737.475 -7.53375 -1.01634 0
M  V30 7768 N 739.05 0.861098 -1.31996 0
M  V30 7769 C 739.98 1.98482 -1.22993 0
M  V30 7770 C 740.961 1.6971 -0.115168 0
M  V30 7771 O 742.146 1.91849 -0.30126 0
M  V30 7772 C 739.276 3.34179 -0.945615 0
M  V30 7773 C 738.23 3.77284 -2.02091 0
M  V30 7774 C 737.556 5.1054 -1.58912 0
M  V30 7775 C 738.856 3.93439 -3.43515 0
M  V30 7776 H 740.55 2.06271 -2.17008 0
M  V30 7777 H 738.096 0.991043 -1.04472 0
M  V30 7778 H 740.049 4.12338 -0.869206 0
M  V30 7779 H 738.773 3.26586 0.0301849 0
M  V30 7780 H 737.432 3.01371 -2.08737 0
M  V30 7781 H 737.08 4.99397 -0.600942 0
M  V30 7782 H 736.78 5.40352 -2.30854 0
M  V30 7783 H 738.304 5.91199 -1.52696 0
M  V30 7784 H 739.718 4.6197 -3.39495 0
M  V30 7785 H 738.115 4.34661 -4.13751 0
M  V30 7786 H 739.185 2.96548 -3.8365 0
M  V30 7787 N 740.528 1.15101 1.07655 0
M  V30 7788 C 741.491 0.847625 2.12951 0
M  V30 7789 C 742.491 -0.151227 1.60087 0
M  V30 7790 O 743.681 0.0780399 1.74025 0
M  V30 7791 C 740.813 0.265 3.39868 0
M  V30 7792 H 742.006 1.7809 2.41296 0
M  V30 7793 H 739.559 0.958072 1.23494 0
M  V30 7794 H 740.294 -0.676625 3.17163 0
M  V30 7795 H 740.079 0.984554 3.79538 0
M  V30 7796 H 741.569 0.0702121 4.17541 0
M  V30 7797 N 742.006 -1.2595 0.947325 0
M  V30 7798 C 742.954 -2.28152 0.452687 0
M  V30 7799 C 743.948 -1.62655 -0.473239 0
M  V30 7800 O 745.154 -1.76549 -0.350774 0
M  V30 7801 H 741.529 -0.741049 0.12787 0
M  V30 7802 H 743.5 -2.67267 1.32707 0
M  V30 7803 C 742.249 -3.46719 -0.26098 0
M  V30 7804 H 741.572 -3.97345 0.442352 0
M  V30 7805 H 743.012 -4.20135 -0.571208 0
M  V30 7806 C 741.471 -3.02605 -1.48094 0
M  V30 7807 O 742.001 -3.07979 -2.57899 0
M  V30 7808 N 740.207 -2.57877 -1.33969 0
M  V30 7809 H 739.754 -2.53704 -0.446295 0
M  V30 7810 H 739.712 -2.28725 -2.15713 0
M  V30 7811 N 743.484 -0.715051 -1.40445 0
M  V30 7812 C 744.732 -0.253826 -2.005 0
M  V30 7813 C 745.053 1.15681 -1.5698 0
M  V30 7814 O 744.323 1.78414 -0.809027 0
M  V30 7815 H 742.903 -0.0908537 -0.741454 0
M  V30 7816 H 745.565 -0.920561 -1.7179 0
M  V30 7817 H 744.661 -0.286499 -3.10782 0
M  V30 7818 N 744.962 1.50701 -0.461195 0
M  V30 7819 C 746.21 2.01867 0.0970051 0
M  V30 7820 C 746.531 1.34591 1.41104 0
M  V30 7821 O 745.801 0.488041 1.89723 0
M  V30 7822 H 744.381 0.74599 0.0388392 0
M  V30 7823 H 747.043 1.85129 -0.609357 0
M  V30 7824 H 746.139 3.11051 0.255688 0
M  V30 7825 N 746.441 0.193421 1.56409 0
M  V30 7826 C 747.718 -0.493318 1.89277 0
M  V30 7827 C 748.098 -1.79765 1.10669 0
M  V30 7828 O 747.446 -2.27558 0.207274 0
M  V30 7829 C 747.656 -0.713732 3.41624 0
M  V30 7830 C 749.004 -1.03385 4.11821 0
M  V30 7831 O 750.028 -0.801511 3.47065 0
M  V30 7832 O 748.887 -1.47327 5.26267 0
M  V30 7833 H 745.981 -0.256973 0.786062 0
M  V30 7834 H 748.527 0.23351 1.68086 0
M  V30 7835 H 747.299 0.207446 3.9075 0
M  V30 7836 H 746.922 -1.49308 3.68501 0
M  V30 7837 N 747.919 -1.57396 -0.0801906 0
M  V30 7838 C 749.167 -1.86467 -0.779384 0
M  V30 7839 C 749.488 -0.784243 -1.78535 0
M  V30 7840 O 748.758 0.187986 -1.94996 0
M  V30 7841 H 747.338 -0.68806 -0.29083 0
M  V30 7842 H 750 -1.94813 -0.0582749 0
M  V30 7843 H 749.096 -2.83701 -1.30078 0
M  V30 7844 N 749.397 0.351382 -1.53633 0
M  V30 7845 C 750.644 1.0925 -1.70502 0
M  V30 7846 C 750.972 1.88881 -0.464123 0
M  V30 7847 O 750.227 1.87693 0.554077 0
M  V30 7848 C 750.526 2.06744 -2.91533 0
M  V30 7849 C 750.192 1.43484 -4.27461 0
M  V30 7850 C 748.854 1.2596 -4.64422 0
M  V30 7851 C 751.206 0.978436 -5.11934 0
M  V30 7852 C 748.534 0.614017 -5.83478 0
M  V30 7853 C 750.886 0.346795 -6.31649 0
M  V30 7854 C 749.55 0.15917 -6.6731 0
M  V30 7855 H 748.82 0.399773 -0.623909 0
M  V30 7856 H 751.467 0.372656 -1.87839 0
M  V30 7857 H 749.772 2.85082 -2.68767 0
M  V30 7858 H 751.469 2.64066 -3.01778 0
M  V30 7859 H 748.059 1.5812 -3.98367 0
M  V30 7860 H 752.243 1.1017 -4.83918 0
M  V30 7861 H 747.499 0.457194 -6.09688 0
M  V30 7862 H 751.673 -0.0149864 -6.96398 0
M  V30 7863 H 749.3 -0.343129 -7.59425 0
M  V30 7864 N 750.875 1.45233 0.611969 0
M  V30 7865 C 751.807 1.49575 1.73666 0
M  V30 7866 C 752.82 0.386987 1.58134 0
M  V30 7867 O 754.009 0.653804 1.66095 0
M  V30 7868 C 751.109 1.33223 3.11617 0
M  V30 7869 C 750.282 2.57694 3.5343 0
M  V30 7870 C 749.341 2.35962 4.70328 0
M  V30 7871 O 748.367 3.09553 4.77667 0
M  V30 7872 N 749.569 1.40243 5.63305 0
M  V30 7873 H 752.334 2.46539 1.70407 0
M  V30 7874 H 749.895 1.40917 0.79712 0
M  V30 7875 H 751.887 1.16502 3.87569 0
M  V30 7876 H 750.457 0.44551 3.09409 0
M  V30 7877 H 749.677 2.8956 2.67486 0
M  V30 7878 H 750.965 3.40441 3.78124 0
M  V30 7879 H 750.363 0.795023 5.60086 0
M  V30 7880 H 748.92 1.29496 6.38807 0
M  V30 7881 N 752.353 -0.854086 1.3245 0
M  V30 7882 C 753.286 -1.96654 1.15768 0
M  V30 7883 C 754.264 -1.625 0.0569975 0
M  V30 7884 O 755.448 -1.87254 0.216412 0
M  V30 7885 C 752.575 -3.29776 0.772361 0
M  V30 7886 C 751.621 -3.82909 1.87837 0
M  V30 7887 S 752.454 -4.0643 3.48675 0
M  V30 7888 C 753.61 -5.42526 3.12116 0
M  V30 7889 H 753.843 -2.10504 2.09942 0
M  V30 7890 H 751.376 -1.00612 1.17118 0
M  V30 7891 H 753.334 -4.06706 0.556809 0
M  V30 7892 H 751.995 -3.13739 -0.150519 0
M  V30 7893 H 751.188 -4.79192 1.56177 0
M  V30 7894 H 750.79 -3.12825 2.0498 0
M  V30 7895 H 753.082 -6.24792 2.61996 0
M  V30 7896 H 754.025 -5.79148 4.07422 0
M  V30 7897 H 754.433 -5.06556 2.49121 0
M  V30 7898 N 753.831 -1.1567 -1.07043 0
M  V30 7899 C 755.08 -0.928039 -1.79082 0
M  V30 7900 C 755.393 0.545968 -1.87826 0
M  V30 7901 O 756.599 0.892308 -2.56418 0
M  V30 7902 C 755.055 -1.61103 -3.21829 0
M  V30 7903 C 754.663 -3.12228 -3.21275 0
M  V30 7904 C 756.407 -1.46404 -3.98455 0
M  V30 7905 C 754.314 -3.733 -4.58695 0
M  V30 7906 H 753.244 -0.34357 -0.671175 0
M  V30 7907 H 755.895 -1.38718 -1.20123 0
M  V30 7908 H 754.277 -1.07958 -3.81 0
M  V30 7909 H 755.451 -3.72155 -2.71731 0
M  V30 7910 H 753.766 -3.26725 -2.58147 0
M  V30 7911 H 756.363 -1.8942 -5.00024 0
M  V30 7912 H 756.706 -0.41195 -4.14257 0
M  V30 7913 H 757.239 -1.96663 -3.45787 0
M  V30 7914 H 753.978 -4.78423 -4.48098 0
M  V30 7915 H 753.498 -3.18157 -5.08465 0
M  V30 7916 H 755.177 -3.7441 -5.27661 0
M  V30 7917 N 755.309 1.25446 -0.953992 0
M  V30 7918 C 756.256 2.25912 -0.472485 0
M  V30 7919 C 757.226 1.59173 0.47469 0
M  V30 7920 O 758.411 1.86812 0.388082 0
M  V30 7921 C 755.551 3.44235 0.244218 0
M  V30 7922 C 754.664 4.25613 -0.740121 0
M  V30 7923 C 753.799 5.312 -0.000922267 0
M  V30 7924 C 752.838 6.04265 -0.976236 0
M  V30 7925 N 751.975 7.01589 -0.267952 0
M  V30 7926 H 756.815 2.66469 -1.3341 0
M  V30 7927 H 754.352 1.31005 -0.669045 0
M  V30 7928 H 756.31 4.11682 0.676314 0
M  V30 7929 H 754.94 3.04554 1.06988 0
M  V30 7930 H 753.992 3.57834 -1.2907 0
M  V30 7931 H 755.304 4.762 -1.48441 0
M  V30 7932 H 754.458 6.04719 0.48984 0
M  V30 7933 H 753.197 4.81484 0.776159 0
M  V30 7934 H 752.202 5.29561 -1.478 0
M  V30 7935 H 753.427 6.5607 -1.75354 0
M  V30 7936 H 751.373 6.54164 0.490403 0
M  V30 7937 H 751.29 7.4999 -0.951344 0
M  V30 7938 H 752.558 7.7924 0.201294 0
M  V30 7939 N 756.787 0.722489 1.40064 0
M  V30 7940 C 758.064 0.191829 1.94657 0
M  V30 7941 C 758.444 -1.30389 1.66018 0
M  V30 7942 O 757.792 -2.06342 0.981588 0
M  V30 7943 C 758.002 0.511978 3.45224 0
M  V30 7944 C 759.35 0.454426 4.22161 0
M  V30 7945 O 760.374 0.448438 3.53366 0
M  V30 7946 O 759.233 0.437986 5.44742 0
M  V30 7947 H 756.327 0.0307821 0.826427 0
M  V30 7948 H 758.873 0.800493 1.49634 0
M  V30 7949 H 757.645 1.54622 3.59455 0
M  V30 7950 H 757.268 -0.126296 3.97399 0
M  V30 7951 N 758.265 -1.50454 0.469181 0
M  V30 7952 C 759.175 -2.32248 -0.331349 0
M  V30 7953 C 760.191 -1.42548 -0.997807 0
M  V30 7954 O 761.367 -1.75602 -0.9862 0
M  V30 7955 C 758.432 -3.17171 -1.40012 0
M  V30 7956 C 757.493 -4.2269 -0.750463 0
M  V30 7957 C 756.726 -5.03554 -1.76831 0
M  V30 7958 O 756.949 -4.85469 -2.99459 0
M  V30 7959 O 755.883 -5.86767 -1.3412 0
M  V30 7960 H 759.709 -3.01821 0.337279 0
M  V30 7961 H 757.294 -1.47602 0.231066 0
M  V30 7962 H 759.176 -3.69871 -2.01924 0
M  V30 7963 H 757.851 -2.50328 -2.05226 0
M  V30 7964 H 756.758 -3.73986 -0.0924446 0
M  V30 7965 H 758.091 -4.91997 -0.14131 0
M  V30 7966 N 759.743 -0.201713 -1.56304 0
M  V30 7967 C 760.673 0.71155 -2.22394 0
M  V30 7968 C 761.654 1.21625 -1.18917 0
M  V30 7969 O 762.839 1.26388 -1.47444 0
M  V30 7970 C 759.969 1.92837 -2.88845 0
M  V30 7971 C 758.923 1.55831 -3.98623 0
M  V30 7972 C 758.249 2.85228 -4.52271 0
M  V30 7973 C 759.549 0.763249 -5.16693 0
M  V30 7974 H 761.243 0.160573 -2.98969 0
M  V30 7975 H 758.789 0.0757916 -1.438 0
M  V30 7976 H 760.742 2.57253 -3.33764 0
M  V30 7977 H 759.466 2.50398 -2.09686 0
M  V30 7978 H 758.125 0.9377 -3.54405 0
M  V30 7979 H 757.773 3.40893 -3.69866 0
M  V30 7980 H 757.473 2.6121 -5.26349 0
M  V30 7981 H 758.997 3.50622 -4.99897 0
M  V30 7982 H 760.411 1.31066 -5.58117 0
M  V30 7983 H 758.808 0.620935 -5.96879 0
M  V30 7984 H 759.878 -0.234322 -4.84334 0
M  V30 7985 N 761.222 1.57436 0.0718424 0
M  V30 7986 C 762.152 2.06724 1.08571 0
M  V30 7987 C 763.133 0.960731 1.40371 0
M  V30 7988 O 764.318 1.23345 1.49999 0
M  V30 7989 C 761.448 2.51112 2.39916 0
M  V30 7990 C 760.402 3.65639 2.22469 0
M  V30 7991 C 759.728 3.96082 3.59198 0
M  V30 7992 C 761.028 4.95687 1.64596 0
M  V30 7993 H 762.722 2.91679 0.675569 0
M  V30 7994 H 760.268 1.40319 0.32352 0
M  V30 7995 H 762.221 2.84206 3.11135 0
M  V30 7996 H 760.945 1.63186 2.8291 0
M  V30 7997 H 759.604 3.32828 1.53691 0
M  V30 7998 H 759.252 3.05287 3.99761 0
M  V30 7999 H 758.952 4.73199 3.48362 0
M  V30 8000 H 760.476 4.31672 4.31847 0
M  V30 8001 H 761.89 5.27011 2.25681 0
M  V30 8002 H 760.287 5.77126 1.64457 0
M  V30 8003 H 761.357 4.8108 0.60744 0
M  V30 8004 N 762.7 -0.34323 1.53817 0
M  V30 8005 C 764.116 -0.686355 1.44088 0
M  V30 8006 C 764.316 -1.92426 0.597882 0
M  V30 8007 O 763.372 -2.52343 0.0889918 0
M  V30 8008 C 764.685 -0.878698 2.87575 0
M  V30 8009 C 766.233 -0.977296 2.97352 0
M  V30 8010 C 766.708 -1.20195 4.41947 0
M  V30 8011 N 768.199 -1.26915 4.45474 0
M  V30 8012 C 768.934 -1.46049 5.54488 0
M  V30 8013 N 768.43 -1.62354 6.73508 0
M  V30 8014 N 770.223 -1.48599 5.42102 0
M  V30 8015 H 762.374 0.470679 2.07119 0
M  V30 8016 H 764.637 0.148652 0.936273 0
M  V30 8017 H 764.343 -0.040602 3.51677 0
M  V30 8018 H 764.217 -1.78034 3.32541 0
M  V30 8019 H 766.604 -1.80591 2.3339 0
M  V30 8020 H 766.685 -0.0525498 2.55746 0
M  V30 8021 H 766.329 -0.378262 5.06489 0
M  V30 8022 H 766.259 -2.14027 4.81145 0
M  V30 8023 H 768.75 -1.15837 3.59708 0
M  V30 8024 H 769.063 -1.76591 7.52353 0
M  V30 8025 H 767.408 -1.5949 6.76453 0
M  V30 8026 H 770.599 -1.35443 4.48077 0
M  V30 8027 H 770.772 -1.6317 6.2712 0
M  V30 8028 N 764.178 -1.45556 -0.604258 0
M  V30 8029 C 765.128 -1.50906 -1.70913 0
M  V30 8030 C 766.112 -0.371996 -1.56541 0
M  V30 8031 O 767.304 -0.619064 -1.65821 0
M  V30 8032 C 764.433 -1.48181 -3.09673 0
M  V30 8033 C 763.519 -2.67102 -3.2942 0
M  V30 8034 N 763.91 -3.92184 -3.19414 0
M  V30 8035 C 762.208 -2.6287 -3.60299 0
M  V30 8036 C 762.909 -4.71571 -3.40581 0
M  V30 8037 N 761.885 -4.03081 -3.64728 0
M  V30 8038 H 765.687 -2.45435 -1.61675 0
M  V30 8039 H 763.201 -1.40894 -0.807622 0
M  V30 8040 H 765.198 -1.501 -3.88942 0
M  V30 8041 H 763.858 -0.54712 -3.20057 0
M  V30 8042 H 764.869 -4.23756 -2.97743 0
M  V30 8043 H 761.546 -1.78324 -3.77501 0
M  V30 8044 H 762.936 -5.80571 -3.38211 0
M  V30 8045 N 765.656 0.84705 -1.32902 0
M  V30 8046 C 766.933 1.58583 -1.14503 0
M  V30 8047 C 767.313 2.09075 0.291724 0
M  V30 8048 O 766.661 1.88636 1.28952 0
M  V30 8049 C 766.871 2.72605 -2.17916 0
M  V30 8050 C 768.219 3.41993 -2.51646 0
M  V30 8051 O 769.243 2.82838 -2.1652 0
M  V30 8052 O 768.102 4.48761 -3.1189 0
M  V30 8053 H 765.196 0.698756 -0.442345 0
M  V30 8054 H 767.742 0.890516 -1.44457 0
M  V30 8055 H 766.514 2.32876 -3.14459 0
M  V30 8056 H 766.137 3.49807 -1.89 0
M  V30 8057 N 767.134 1.16236 1.06428 0
M  V30 8058 C 768.359 0.967688 1.83441 0
M  V30 8059 C 768.784 -0.479167 1.81894 0
M  V30 8060 O 768.142 -1.34224 1.21875 0
M  V30 8061 C 768.19 1.49806 3.2801 0
M  V30 8062 O 767.294 0.703481 4.06356 0
M  V30 8063 H 766.635 0.344468 0.56766 0
M  V30 8064 H 769.165 1.54442 1.34197 0
M  V30 8065 H 769.175 1.51495 3.78831 0
M  V30 8066 H 767.85 2.55133 3.2845 0
M  V30 8067 H 766.427 0.756986 3.65136 0
M  V30 8068 N 768.612 -1.24939 0.960631 0
M  V30 8069 C 769.86 -1.92437 0.617441 0
M  V30 8070 C 770.181 -1.75543 -0.849101 0
M  V30 8071 O 769.451 -1.12269 -1.60538 0
M  V30 8072 H 768.031 -0.712192 0.225371 0
M  V30 8073 H 770.693 -1.5198 1.22017 0
M  V30 8074 H 769.789 -3.00247 0.851933 0
M  V30 8075 N 770.09 -0.729906 -1.39679 0
M  V30 8076 C 771.367 -0.202149 -1.94553 0
M  V30 8077 C 771.747 1.29507 -1.66707 0
M  V30 8078 O 771.095 2.05819 -0.992517 0
M  V30 8079 C 771.305 -0.530279 -3.44948 0
M  V30 8080 C 772.653 -0.476808 -4.21914 0
M  V30 8081 O 773.677 -0.467171 -3.53123 0
M  V30 8082 O 772.536 -0.466869 -5.44502 0
M  V30 8083 H 769.63 -0.0351644 -0.826252 0
M  V30 8084 H 772.176 -0.808417 -1.49207 0
M  V30 8085 H 770.948 -1.56526 -3.5863 0
M  V30 8086 H 770.571 0.10522 -3.97461 0
M  V30 8087 N 771.568 1.50203 -0.477153 0
M  V30 8088 C 772.5 2.26508 0.350239 0
M  V30 8089 C 773.513 1.32081 0.95176 0
M  V30 8090 O 774.702 1.57546 0.839139 0
M  V30 8091 C 771.802 3.0361 1.50579 0
M  V30 8092 C 770.975 4.25438 1.01595 0
M  V30 8093 C 770.034 4.84783 2.04626 0
M  V30 8094 O 769.06 5.45528 1.62442 0
M  V30 8095 N 770.262 4.72318 3.37485 0
M  V30 8096 H 773.027 2.98155 -0.30394 0
M  V30 8097 H 770.588 1.58938 -0.308289 0
M  V30 8098 H 772.58 3.4019 2.1921 0
M  V30 8099 H 771.15 2.34724 2.06455 0
M  V30 8100 H 770.37 3.93894 0.155316 0
M  V30 8101 H 771.658 5.04413 0.666694 0
M  V30 8102 H 771.056 4.24022 3.74462 0
M  V30 8103 H 769.613 5.13149 4.01897 0
M  V30 8104 N 773.046 0.209999 1.56195 0
M  V30 8105 C 774.323 -0.473214 1.89789 0
M  V30 8106 C 774.703 -1.78581 1.1257 0
M  V30 8107 O 774.051 -2.27325 0.231398 0
M  V30 8108 C 774.261 -0.677458 3.42362 0
M  V30 8109 C 775.609 -0.990114 4.12895 0
M  V30 8110 O 776.633 -0.764655 3.47896 0
M  V30 8111 O 775.492 -1.41737 5.278 0
M  V30 8112 H 772.586 -0.248622 0.788743 0
M  V30 8113 H 775.132 0.251324 1.67829 0
M  V30 8114 H 773.904 0.248878 3.90508 0
M  V30 8115 H 773.527 -1.45391 3.70064 0
M  V30 8116 N 774.524 -1.57472 -0.0634922 0
M  V30 8117 C 775.773 -1.86837 -0.759928 0
M  V30 8118 C 776.086 -0.803823 -1.7832 0
M  V30 8119 O 777.292 -0.985578 -2.52979 0
M  V30 8120 C 775.748 -3.31448 -1.4025 0
M  V30 8121 C 775.356 -4.46052 -0.417368 0
M  V30 8122 C 777.1 -3.70003 -2.08082 0
M  V30 8123 C 775.007 -5.81707 -1.06633 0
M  V30 8124 H 773.937 -0.697009 -0.287567 0
M  V30 8125 H 776.588 -1.83495 -0.0133914 0
M  V30 8126 H 774.97 -3.29427 -2.19759 0
M  V30 8127 H 776.144 -4.5948 0.348503 0
M  V30 8128 H 774.459 -4.16104 0.156955 0
M  V30 8129 H 777.056 -4.68653 -2.57426 0
M  V30 8130 H 777.399 -3.00226 -2.88393 0
M  V30 8131 H 777.932 -3.7405 -1.35394 0
M  V30 8132 H 774.671 -6.54798 -0.303374 0
M  V30 8133 H 774.191 -5.72064 -1.80286 0
M  V30 8134 H 775.87 -6.27317 -1.58376 0
M  V30 8135 N 776.003 0.335068 -1.53997 0
M  V30 8136 C 776.951 1.43206 -1.83289 0
M  V30 8137 C 777.945 1.54081 -0.703953 0
M  V30 8138 O 779.151 1.56603 -0.887432 0
M  V30 8139 H 775.526 0.477655 -0.580818 0
M  V30 8140 H 777.497 1.15719 -2.75049 0
M  V30 8141 C 776.246 2.79602 -2.06683 0
M  V30 8142 H 775.569 2.72004 -2.93008 0
M  V30 8143 H 777.009 3.55459 -2.31139 0
M  V30 8144 C 775.468 3.25873 -0.854883 0
M  V30 8145 O 775.998 4.01657 -0.0584648 0
M  V30 8146 N 774.204 2.82777 -0.669729 0
M  V30 8147 H 773.751 2.21269 -1.31901 0
M  V30 8148 H 773.709 3.1409 0.13969 0
M  V30 8149 N 777.481 1.45874 0.596531 0
M  V30 8150 C 778.727 1.5069 1.35722 0
M  V30 8151 C 779.06 0.152506 1.936 0
M  V30 8152 O 778.335 -0.834411 1.75692 0
M  V30 8153 C 778.618 2.59474 2.4969 0
M  V30 8154 C 778.471 4.04396 1.96937 0
M  V30 8155 C 779.79 2.64451 3.51787 0
M  V30 8156 H 776.909 0.548611 0.492133 0
M  V30 8157 H 779.551 1.77741 0.671428 0
M  V30 8158 H 777.701 2.36539 3.08191 0
M  V30 8159 H 779.373 4.38576 1.43 0
M  V30 8160 H 777.616 4.14529 1.27859 0
M  V30 8161 H 778.287 4.76218 2.79143 0
M  V30 8162 H 780.763 2.85031 3.03145 0
M  V30 8163 H 779.639 3.42411 4.29006 0
M  V30 8164 H 779.9 1.69965 4.08123 0
M  V30 8165 N 778.959 -0.83999 1.33349 0
M  V30 8166 C 780.205 -1.59753 1.24927 0
M  V30 8167 C 780.538 -1.93318 -0.184855 0
M  V30 8168 O 779.813 -1.586 -1.12589 0
M  V30 8169 C 780.096 -2.90829 2.12345 0
M  V30 8170 C 779.949 -2.63953 3.6421 0
M  V30 8171 C 781.268 -3.92246 1.99577 0
M  V30 8172 H 778.387 -0.579654 0.45516 0
M  V30 8173 H 781.029 -0.968909 1.63439 0
M  V30 8174 H 779.179 -3.44478 1.79631 0
M  V30 8175 H 780.851 -2.16745 4.07209 0
M  V30 8176 H 779.094 -1.97671 3.86146 0
M  V30 8177 H 779.765 -3.57348 4.20721 0
M  V30 8178 H 782.241 -3.479 2.28265 0
M  V30 8179 H 781.117 -4.81793 2.62996 0
M  V30 8180 H 781.378 -4.3138 0.967673 0
M  V30 8181 N 780.437 -1.16799 -1.0581 0
M  V30 8182 C 781.662 -0.977402 -1.82925 0
M  V30 8183 C 782.087 0.469514 -1.82146 0
M  V30 8184 O 781.445 1.33576 -1.22585 0
M  V30 8185 C 781.493 -1.51543 -3.27211 0
M  V30 8186 O 780.597 -0.725021 -4.05977 0
M  V30 8187 H 779.938 -0.347474 -0.565825 0
M  V30 8188 H 782.468 -1.55151 -1.33376 0
M  V30 8189 H 782.478 -1.53502 -3.78023 0
M  V30 8190 H 781.153 -2.56872 -3.27093 0
M  V30 8191 H 779.73 -0.77634 -3.64729 0
M  V30 8192 N 781.915 1.24427 -0.967243 0
M  V30 8193 C 783.143 1.96541 -0.646477 0
M  V30 8194 C 783.558 1.71753 0.783996 0
M  V30 8195 O 782.915 1.00102 1.52597 0
M  V30 8196 C 782.966 3.4983 -0.911098 0
M  V30 8197 O 782.687 3.7377 -2.28534 0
M  V30 8198 C 784.188 4.3916 -0.604458 0
M  V30 8199 H 781.408 0.626129 -0.241255 0
M  V30 8200 H 783.952 1.58268 -1.29505 0
M  V30 8201 H 782.107 3.86168 -0.308741 0
M  V30 8202 H 782.521 4.68154 -2.365 0
M  V30 8203 H 783.995 5.4557 -0.840069 0
M  V30 8204 H 784.472 4.36771 0.461273 0
M  V30 8205 H 785.078 4.08409 -1.1867 0
M  V30 8206 N 783.393 0.737304 1.3929 0
M  V30 8207 C 784.623 0.296143 2.04467 0
M  V30 8208 C 785.031 -1.0748 1.55707 0
M  V30 8209 O 784.374 -1.69082 0.718123 0
M  V30 8210 C 784.436 0.222161 3.58813 0
M  V30 8211 C 784.1 1.53195 4.30558 0
M  V30 8212 C 785.097 2.47809 4.57041 0
M  V30 8213 C 782.782 1.79688 4.6906 0
M  V30 8214 C 784.776 3.67147 5.21039 0
M  V30 8215 C 782.463 2.99304 5.32785 0
M  V30 8216 C 783.461 3.92855 5.58708 0
M  V30 8217 O 783.149 5.1037 6.2111 0
M  V30 8218 H 782.881 0.126896 0.663983 0
M  V30 8219 H 785.435 1.00242 1.79278 0
M  V30 8220 H 783.665 -0.540239 3.82908 0
M  V30 8221 H 785.354 -0.187311 4.05468 0
M  V30 8222 H 786.12 2.28611 4.2774 0
M  V30 8223 H 781.999 1.07716 4.48239 0
M  V30 8224 H 785.543 4.40183 5.41188 0
M  V30 8225 H 781.44 3.18401 5.61508 0
M  V30 8226 H 782.208 5.10735 6.39603 0
M  V30 8227 N 784.871 -1.49948 0.485112 0
M  V30 8228 C 786.12 -2.01589 -0.066765 0
M  V30 8229 C 786.433 -1.371 -1.39509 0
M  V30 8230 O 787.639 -1.79978 -2.03274 0
M  V30 8231 C 786.095 -3.59501 -0.169476 0
M  V30 8232 C 785.703 -4.32955 1.15126 0
M  V30 8233 C 787.447 -4.19138 -0.672564 0
M  V30 8234 C 785.354 -5.82684 1.01158 0
M  V30 8235 H 784.284 -0.753453 -0.0287259 0
M  V30 8236 H 786.935 -1.72632 0.622132 0
M  V30 8237 H 785.317 -3.85106 -0.922471 0
M  V30 8238 H 786.491 -4.19064 1.9163 0
M  V30 8239 H 784.806 -3.84991 1.58654 0
M  V30 8240 H 787.403 -5.28767 -0.794325 0
M  V30 8241 H 787.746 -3.81447 -1.66745 0
M  V30 8242 H 788.279 -3.97793 0.0234415 0
M  V30 8243 H 785.018 -6.24873 1.98025 0
M  V30 8244 H 784.538 -5.99112 0.287151 0
M  V30 8245 H 786.217 -6.43376 0.683847 0
M  V30 8246 N 786.349 -0.21828 -1.56081 0
M  V30 8247 C 787.574 0.422302 -2.03055 0
M  V30 8248 C 787.999 1.5279 -1.09713 0
M  V30 8249 O 787.357 1.81102 -0.0847187 0
M  V30 8250 C 787.405 0.934177 -3.48289 0
M  V30 8251 O 786.509 2.04574 -3.58083 0
M  V30 8252 H 785.85 0.0959764 -0.657027 0
M  V30 8253 H 788.38 -0.335958 -2.01823 0
M  V30 8254 H 788.39 1.24484 -3.88546 0
M  V30 8255 H 787.065 0.124963 -4.15712 0
M  V30 8256 H 785.642 1.74196 -3.29712 0
M  V30 8257 N 787.827 1.57504 0.0551401 0
M  V30 8258 C 788.774 2.04825 1.06373 0
M  V30 8259 C 789.744 0.932108 1.37481 0
M  V30 8260 O 790.929 1.20093 1.48265 0
M  V30 8261 C 788.069 2.51091 2.36743 0
M  V30 8262 C 787.182 3.76392 2.12021 0
M  V30 8263 C 786.317 4.11373 3.36074 0
M  V30 8264 C 785.356 5.29666 3.0679 0
M  V30 8265 N 784.493 5.60205 4.2322 0
M  V30 8266 H 789.333 2.90753 0.653216 0
M  V30 8267 H 786.87 1.43776 0.310951 0
M  V30 8268 H 788.828 2.75973 3.12881 0
M  V30 8269 H 787.458 1.68118 2.75565 0
M  V30 8270 H 786.51 3.58751 1.26498 0
M  V30 8271 H 787.822 4.62662 1.86401 0
M  V30 8272 H 786.976 4.37245 4.20597 0
M  V30 8273 H 785.715 3.23704 3.64784 0
M  V30 8274 H 784.72 5.03574 2.20664 0
M  V30 8275 H 785.945 6.18968 2.79385 0
M  V30 8276 H 783.891 4.75495 4.5193 0
M  V30 8277 H 783.808 6.40928 4.00933 0
M  V30 8278 H 785.076 5.90637 5.08692 0
M  V30 8279 N 789.305 -0.326896 1.54172 0
M  V30 8280 C 790.238 -1.42591 1.78166 0
M  V30 8281 C 791.216 -1.49837 0.631484 0
M  V30 8282 O 792.4 -1.67298 0.868544 0
M  V30 8283 C 789.527 -2.8071 1.89524 0
M  V30 8284 C 788.573 -2.91012 3.11792 0
M  V30 8285 S 789.406 -2.55763 4.70474 0
M  V30 8286 C 790.562 -3.9596 4.84733 0
M  V30 8287 H 790.795 -1.22024 2.71104 0
M  V30 8288 H 788.328 -0.523539 1.45253 0
M  V30 8289 H 790.286 -3.60276 1.96753 0
M  V30 8290 H 788.947 -2.98562 0.975696 0
M  V30 8291 H 788.14 -3.92258 3.16464 0
M  V30 8292 H 787.742 -2.19414 3.02876 0
M  V30 8293 H 790.034 -4.90676 4.67166 0
M  V30 8294 H 790.977 -3.96273 5.86833 0
M  V30 8295 H 791.385 -3.8476 4.13062 0
M  V30 8296 N 790.784 -1.46188 -0.588786 0
M  V30 8297 C 791.731 -1.56292 -1.69828 0
M  V30 8298 C 792.701 -0.407581 -1.61022 0
M  V30 8299 O 793.886 -0.623532 -1.80324 0
M  V30 8300 C 791.026 -1.55341 -3.08161 0
M  V30 8301 C 790.139 -2.81564 -3.27636 0
M  V30 8302 C 789.274 -2.72158 -4.56183 0
M  V30 8303 C 788.313 -3.93348 -4.68981 0
M  V30 8304 N 787.45 -3.82365 -5.88848 0
M  V30 8305 H 792.29 -2.51066 -1.6053 0
M  V30 8306 H 789.827 -1.24562 -0.782474 0
M  V30 8307 H 791.785 -1.52776 -3.88221 0
M  V30 8308 H 790.415 -0.641034 -3.16371 0
M  V30 8309 H 789.467 -2.94136 -2.41223 0
M  V30 8310 H 790.779 -3.714 -3.32962 0
M  V30 8311 H 789.933 -2.67665 -5.44464 0
M  V30 8312 H 788.672 -1.79953 -4.53286 0
M  V30 8313 H 787.677 -3.98181 -3.7912 0
M  V30 8314 H 788.902 -4.86643 -4.73662 0
M  V30 8315 H 786.848 -2.92942 -5.86959 0
M  V30 8316 H 786.765 -4.65851 -5.95415 0
M  V30 8317 H 788.033 -3.81836 -6.79575 0
M  V30 8318 N 792.262 0.832906 -1.33792 0
M  V30 8319 C 793.508 1.59089 -1.25772 0
M  V30 8320 C 793.841 1.93414 0.174601 0
M  V30 8321 O 793.116 1.59195 1.11746 0
M  V30 8322 C 793.399 2.89699 -2.13885 0
M  V30 8323 C 793.252 2.62017 -3.65605 0
M  V30 8324 C 794.571 3.91182 -2.01654 0
M  V30 8325 H 791.69 0.577232 -0.458227 0
M  V30 8326 H 794.332 0.960227 -1.6395 0
M  V30 8327 H 792.482 3.4352 -1.81456 0
M  V30 8328 H 794.154 2.14582 -4.08353 0
M  V30 8329 H 792.397 1.95621 -3.87189 0
M  V30 8330 H 793.068 3.55112 -4.2261 0
M  V30 8331 H 795.544 3.46684 -2.30107 0
M  V30 8332 H 794.42 4.80391 -2.65548 0
M  V30 8333 H 794.681 4.30861 -0.990536 0
M  V30 8334 N 793.74 1.17359 1.05189 0
M  V30 8335 C 794.989 0.956412 1.77583 0
M  V30 8336 C 795.302 -0.516018 1.88671 0
M  V30 8337 O 796.508 -0.851401 2.57805 0
M  V30 8338 C 794.964 1.66203 3.19225 0
M  V30 8339 C 794.572 3.17299 3.16267 0
M  V30 8340 C 796.316 1.52725 3.96075 0
M  V30 8341 C 794.223 3.8055 4.52698 0
M  V30 8342 H 793.153 0.354204 0.665624 0
M  V30 8343 H 795.804 1.40612 1.17901 0
M  V30 8344 H 794.186 1.14006 3.79234 0
M  V30 8345 H 795.36 3.76431 2.65776 0
M  V30 8346 H 793.675 3.3079 2.52917 0
M  V30 8347 H 796.272 1.97351 4.96947 0
M  V30 8348 H 796.615 0.477803 4.13549 0
M  V30 8349 H 797.148 2.02139 3.42614 0
M  V30 8350 H 793.887 4.85492 4.4043 0
M  V30 8351 H 793.407 3.26206 5.03339 0
M  V30 8352 H 795.086 3.82757 5.21638 0
M  V30 8353 N 795.218 -1.23913 0.973828 0
M  V30 8354 C 796.448 -1.95911 0.655938 0
M  V30 8355 C 796.856 -1.72375 -0.779967 0
M  V30 8356 O 796.199 -1.00807 -1.5357 0
M  V30 8357 C 796.261 -3.49103 0.858324 0
M  V30 8358 C 795.925 -3.96347 2.27504 0
M  V30 8359 C 796.922 -4.05537 3.25324 0
M  V30 8360 C 794.607 -4.29509 2.60437 0
M  V30 8361 C 796.601 -4.47233 4.5416 0
M  V30 8362 C 794.288 -4.70887 3.89498 0
M  V30 8363 C 795.286 -4.79714 4.86172 0
M  V30 8364 O 794.974 -5.20166 6.1293 0
M  V30 8365 H 794.706 -0.630721 0.243244 0
M  V30 8366 H 797.26 -1.58534 1.30599 0
M  V30 8367 H 795.49 -3.86405 0.151097 0
M  V30 8368 H 797.179 -4.02311 0.538592 0
M  V30 8369 H 797.945 -3.80128 3.0121 0
M  V30 8370 H 793.824 -4.21853 1.85906 0
M  V30 8371 H 797.368 -4.54038 5.29618 0
M  V30 8372 H 793.265 -4.95744 4.1341 0
M  V30 8373 H 794.033 -5.38298 6.16586 0
M  V30 8374 N 796.696 -0.74468 -1.38897 0
M  V30 8375 C 798.107 -0.36568 -1.83084 0
M  V30 8376 C 798.458 1.10436 -1.62168 0
M  V30 8377 O 797.583 1.85281 -1.11804 0
M  V30 8378 C 798.178 -0.656946 -3.3237 0
M  V30 8379 C 796.737 -0.331329 -3.74939 0
M  V30 8380 C 795.884 -0.914661 -2.61781 0
M  V30 8381 H 798.835 -0.941551 -1.27752 0
M  V30 8382 H 798.856 0.0679546 -3.80439 0
M  V30 8383 H 798.368 -1.72693 -3.47561 0
M  V30 8384 H 796.469 0.732426 -3.6533 0
M  V30 8385 H 796.582 -0.820655 -4.72019 0
M  V30 8386 H 794.946 -0.34063 -2.52412 0
M  V30 8387 H 795.729 -1.98949 -2.79775 0
M  V30 8388 N 798.174 1.49689 -0.493057 0
M  V30 8389 C 799.137 2.27502 0.278485 0
M  V30 8390 C 800.137 1.33184 0.901037 0
M  V30 8391 O 801.327 1.56415 0.766801 0
M  V30 8392 C 798.459 3.10881 1.39878 0
M  V30 8393 H 799.652 2.97163 -0.404219 0
M  V30 8394 H 797.205 1.54324 -0.247774 0
M  V30 8395 H 797.94 2.45767 2.11587 0
M  V30 8396 H 797.725 3.80219 0.957924 0
M  V30 8397 H 799.215 3.69673 1.94247 0
M  V30 8398 N 799.652 0.226554 1.55963 0
M  V30 8399 C 800.898 -0.404387 1.98727 0
M  V30 8400 C 801.231 -1.59059 1.11418 0
M  V30 8401 O 800.506 -1.93729 0.172971 0
M  V30 8402 C 800.789 -0.834081 3.50307 0
M  V30 8403 C 800.642 0.356104 4.48388 0
M  V30 8404 C 801.961 -1.68845 4.06423 0
M  V30 8405 H 799.08 -0.145515 0.722492 0
M  V30 8406 H 801.722 0.323791 1.87221 0
M  V30 8407 H 799.872 -1.45454 3.60244 0
M  V30 8408 H 801.544 0.99432 4.50456 0
M  V30 8409 H 799.787 1.0027 4.22053 0
M  V30 8410 H 800.458 0.0124333 5.51999 0
M  V30 8411 H 802.934 -1.16489 3.99461 0
M  V30 8412 H 801.81 -1.958 5.1279 0
M  V30 8413 H 802.071 -2.65347 3.53615 0
M  V30 8414 N 801.13 -1.57531 -0.0467866 0
M  V30 8415 C 802.04 -2.08768 -1.07018 0
M  V30 8416 C 803.056 -1.02245 -1.40791 0
M  V30 8417 O 804.232 -1.33873 -1.50466 0
M  V30 8418 C 801.297 -2.54221 -2.35738 0
M  V30 8419 C 800.358 -3.75152 -2.08709 0
M  V30 8420 C 799.591 -4.18428 -3.31291 0
M  V30 8421 O 799.814 -3.61365 -4.4133 0
M  V30 8422 O 798.748 -5.11018 -3.18032 0
M  V30 8423 H 802.574 -2.96334 -0.664812 0
M  V30 8424 H 800.159 -1.47074 -0.262605 0
M  V30 8425 H 802.041 -2.83866 -3.11445 0
M  V30 8426 H 800.716 -1.69774 -2.75605 0
M  V30 8427 H 799.623 -3.50553 -1.30627 0
M  V30 8428 H 800.956 -4.60528 -1.73708 0
M  V30 8429 N 802.608 0.318715 -1.54344 0
M  V30 8430 C 803.856 1.054 -1.72439 0
M  V30 8431 C 804.177 1.88388 -0.503495 0
M  V30 8432 O 803.447 1.89866 0.48246 0
M  V30 8433 H 802.027 0.392124 -0.635805 0
M  V30 8434 H 804.689 0.35398 -1.91659 0
M  V30 8435 H 803.785 1.71726 -2.60608 0
M  V30 8436 N 804.086 1.46499 0.581025 0
M  V30 8437 C 805.502 1.31491 0.904563 0
M  V30 8438 C 805.702 0.287598 1.99437 0
M  V30 8439 O 804.758 -0.309247 2.50599 0
M  V30 8440 C 806.071 2.70163 1.32032 0
M  V30 8441 C 807.619 2.78266 1.43308 0
M  V30 8442 C 808.094 4.17524 1.8825 0
M  V30 8443 N 809.585 4.19949 1.9544 0
M  V30 8444 C 810.32 5.24594 2.31493 0
M  V30 8445 N 809.816 6.39564 2.66326 0
M  V30 8446 N 811.609 5.11961 2.32062 0
M  V30 8447 H 803.76 2.11946 -0.138856 0
M  V30 8448 H 806.023 0.948 0.000548528 0
M  V30 8449 H 805.729 3.46655 0.593554 0
M  V30 8450 H 805.603 3.00379 2.2815 0
M  V30 8451 H 807.99 2.02061 2.15071 0
M  V30 8452 H 808.071 2.51732 0.45438 0
M  V30 8453 H 807.715 4.94225 1.17065 0
M  V30 8454 H 807.645 4.41466 2.87081 0
M  V30 8455 H 810.136 3.36996 1.71004 0
M  V30 8456 H 810.449 7.15187 2.92793 0
M  V30 8457 H 808.794 6.42923 2.6396 0
M  V30 8458 H 811.985 4.21177 2.04272 0
M  V30 8459 H 812.158 5.93626 2.5983 0
M  V30 8460 N 805.565 -0.825799 1.34232 0
M  V30 8461 C 806.814 -1.57686 1.2577 0
M  V30 8462 C 807.127 -1.94848 -0.171372 0
M  V30 8463 O 808.333 -2.68854 -0.378123 0
M  V30 8464 C 806.789 -2.84478 2.20454 0
M  V30 8465 C 806.397 -2.54629 3.68603 0
M  V30 8466 C 808.141 -3.625 2.20893 0
M  V30 8467 C 806.048 -3.77597 4.55164 0
M  V30 8468 H 804.978 -0.591809 0.467203 0
M  V30 8469 H 807.629 -0.909421 1.59379 0
M  V30 8470 H 806.011 -3.52832 1.79793 0
M  V30 8471 H 807.185 -1.94404 4.17784 0
M  V30 8472 H 805.5 -1.89888 3.70582 0
M  V30 8473 H 808.097 -4.538 2.82789 0
M  V30 8474 H 808.44 -3.98404 1.20746 0
M  V30 8475 H 808.973 -3.01086 2.59985 0
M  V30 8476 H 805.712 -3.46815 5.56237 0
M  V30 8477 H 805.232 -4.37116 4.10719 0
M  V30 8478 H 806.911 -4.45039 4.69627 0
M  V30 8479 N 807.043 -1.17915 -1.04565 0
M  V30 8480 C 807.99 -0.901605 -2.12461 0
M  V30 8481 C 808.96 0.157011 -1.65356 0
M  V30 8482 O 810.145 0.0184494 -1.90791 0
M  V30 8483 C 807.285 -0.42796 -3.42436 0
M  V30 8484 C 806.398 -1.55142 -4.03181 0
M  V30 8485 C 805.533 -1.03101 -5.21098 0
M  V30 8486 C 804.572 -2.1295 -5.73863 0
M  V30 8487 N 803.709 -1.62339 -6.83074 0
M  V30 8488 H 808.549 -1.82551 -2.3554 0
M  V30 8489 H 806.086 -0.910389 -1.15544 0
M  V30 8490 H 808.044 -0.134859 -4.16982 0
M  V30 8491 H 806.674 0.458977 -3.1952 0
M  V30 8492 H 805.726 -1.96011 -3.26012 0
M  V30 8493 H 807.038 -2.37968 -4.38375 0
M  V30 8494 H 806.192 -0.692132 -6.02739 0
M  V30 8495 H 804.931 -0.17227 -4.87396 0
M  V30 8496 H 803.936 -2.47687 -4.90847 0
M  V30 8497 H 805.161 -2.9925 -6.09611 0
M  V30 8498 H 803.107 -0.787464 -6.51256 0
M  V30 8499 H 803.024 -2.38767 -7.17305 0
M  V30 8500 H 804.292 -1.31363 -7.68351 0
M  V30 8501 N 808.521 1.23394 -0.980386 0
M  V30 8502 C 809.768 1.91809 -0.649261 0
M  V30 8503 C 810.096 1.765 0.817197 0
M  V30 8504 O 809.351 1.11979 1.60497 0
M  V30 8505 C 809.65 3.43542 -0.985588 0
M  V30 8506 C 809.316 3.79031 -2.44225 0
M  V30 8507 C 807.978 3.88429 -2.84035 0
M  V30 8508 C 810.33 3.96145 -3.38702 0
M  V30 8509 C 807.658 4.12368 -4.17336 0
M  V30 8510 C 810.01 4.21583 -4.71646 0
M  V30 8511 C 808.674 4.29203 -5.11215 0
M  V30 8512 H 807.944 0.70188 -0.237581 0
M  V30 8513 H 810.591 1.4642 -1.23424 0
M  V30 8514 H 808.896 3.90503 -0.318521 0
M  V30 8515 H 810.593 3.94708 -0.707596 0
M  V30 8516 H 807.183 3.7229 -2.12362 0
M  V30 8517 H 811.367 3.88274 -3.09123 0
M  V30 8518 H 806.623 4.1649 -4.47601 0
M  V30 8519 H 810.797 4.33769 -5.4481 0
M  V30 8520 H 808.424 4.47505 -6.14527 0
M  V30 8521 N 809.999 0.752036 1.385 0
M  V30 8522 C 811.224 0.316993 2.04963 0
M  V30 8523 C 811.649 -1.04582 1.56346 0
M  V30 8524 O 811.007 -1.66616 0.714755 0
M  V30 8525 C 811.055 0.347235 3.58924 0
M  V30 8526 O 810.159 -0.659296 4.07096 0
M  V30 8527 H 809.5 0.140652 0.648932 0
M  V30 8528 H 812.03 1.02272 1.77205 0
M  V30 8529 H 812.04 0.19757 4.07521 0
M  V30 8530 H 810.715 1.34157 3.93668 0
M  V30 8531 H 809.292 -0.474371 3.6987 0
M  V30 8532 N 811.477 -1.49425 0.500989 0
M  V30 8533 C 812.705 -2.06861 -0.0403443 0
M  V30 8534 C 813.12 -1.36132 -1.30819 0
M  V30 8535 O 812.477 -0.439647 -1.77125 0
M  V30 8536 C 812.528 -3.6027 -0.297902 0
M  V30 8537 O 812.249 -4.28338 0.919686 0
M  V30 8538 C 813.75 -4.34419 -0.882876 0
M  V30 8539 H 810.97 -0.670688 0.0204619 0
M  V30 8540 H 813.514 -1.92207 0.698342 0
M  V30 8541 H 811.669 -3.74627 -0.98657 0
M  V30 8542 H 812.083 -5.2004 0.682528 0
M  V30 8543 H 813.557 -5.42631 -1.01268 0
M  V30 8544 H 814.034 -3.96898 -1.88066 0
M  V30 8545 H 814.64 -4.24669 -0.231677 0
M  V30 8546 N 812.955 -0.234822 -1.55841 0
M  V30 8547 C 814.203 0.392483 -1.98252 0
M  V30 8548 C 814.524 1.59344 -1.12404 0
M  V30 8549 O 813.794 1.94834 -0.204055 0
M  V30 8550 H 812.374 0.147999 -0.732192 0
M  V30 8551 H 815.036 -0.330804 -1.92072 0
M  V30 8552 H 814.132 0.709829 -3.03921 0
M  V30 8553 N 814.433 1.57553 0.0384317 0
M  V30 8554 C 815.658 1.93485 0.746872 0
M  V30 8555 C 816.083 0.834069 1.68597 0
M  V30 8556 O 815.441 -0.210902 1.80069 0
M  V30 8557 C 815.489 3.28463 1.4881 0
M  V30 8558 O 814.593 3.20051 2.60079 0
M  V30 8559 H 813.934 0.632675 0.201539 0
M  V30 8560 H 816.464 2.046 -0.00329815 0
M  V30 8561 H 816.474 3.63132 1.86009 0
M  V30 8562 H 815.149 4.08147 0.799297 0
M  V30 8563 H 813.726 2.96998 2.25492 0
M  V30 8564 N 815.911 -0.310526 1.54511 0
M  V30 8565 C 816.861 -1.38405 1.81185 0
M  V30 8566 C 817.845 -1.46355 0.668499 0
M  V30 8567 O 819.037 -1.50668 0.928873 0
M  V30 8568 C 816.166 -2.75059 2.0542 0
M  V30 8569 C 815.252 -2.7137 3.25913 0
M  V30 8570 N 815.643 -2.37298 4.4668 0
M  V30 8571 C 813.941 -3.02484 3.27749 0
M  V30 8572 C 814.642 -2.42669 5.28665 0
M  V30 8573 N 813.618 -2.79639 4.66158 0
M  V30 8574 H 817.42 -1.11012 2.72128 0
M  V30 8575 H 814.934 -0.519068 1.53881 0
M  V30 8576 H 816.931 -3.52451 2.22674 0
M  V30 8577 H 815.591 -3.03372 1.15739 0
M  V30 8578 H 816.602 -2.09917 4.73451 0
M  V30 8579 H 813.279 -3.35754 2.48144 0
M  V30 8580 H 814.669 -2.19206 6.35136 0
M  V30 8581 N 817.389 -1.46805 -0.573248 0
M  V30 8582 C 818.629 -1.5417 -1.34205 0
M  V30 8583 C 818.993 -0.192675 -1.91031 0
M  V30 8584 O 820.194 -0.141111 -2.68429 0
M  V30 8585 C 818.465 -2.61682 -2.43428 0
M  V30 8586 S 820.024 -2.88519 -3.30609 0
M  V30 8587 H 816.842 -0.544592 -0.4571 0
M  V30 8588 H 819.444 -1.84094 -0.658001 0
M  V30 8589 H 818.148 -3.58319 -2.00088 0
M  V30 8590 H 817.679 -2.33521 -3.16594 0
M  V30 8591 H 819.694 -2.2451 -4.42504 0
M  V30 8592 N 818.867 0.818669 -1.34668 0
M  V30 8593 C 819.817 1.91882 -1.23147 0
M  V30 8594 C 820.801 1.60378 -0.129509 0
M  V30 8595 O 821.993 1.73309 -0.359581 0
M  V30 8596 C 819.122 3.28612 -0.993436 0
M  V30 8597 C 818.208 3.66221 -2.13876 0
M  V30 8598 N 818.599 3.75361 -3.39024 0
M  V30 8599 C 816.897 3.96098 -2.04994 0
M  V30 8600 C 817.598 4.0836 -4.14266 0
M  V30 8601 N 816.574 4.21806 -3.429 0
M  V30 8602 H 820.376 1.97133 -2.17981 0
M  V30 8603 H 817.89 1.01257 -1.26967 0
M  V30 8604 H 819.887 4.0725 -0.891797 0
M  V30 8605 H 818.547 3.24655 -0.053824 0
M  V30 8606 H 819.558 3.58747 -3.73525 0
M  V30 8607 H 816.235 4.00236 -1.18816 0
M  V30 8608 H 817.625 4.226 -5.22359 0
M  V30 8609 N 820.346 1.18468 1.03938 0
M  V30 8610 C 821.594 0.978895 1.76811 0
M  V30 8611 C 821.915 -0.49257 1.88676 0
M  V30 8612 O 821.185 -1.3572 1.41269 0
M  V30 8613 H 819.765 0.359201 0.654968 0
M  V30 8614 H 822.427 1.49173 1.25433 0
M  V30 8615 H 821.523 1.418 2.78027 0
M  V30 8616 N 821.824 -1.22873 0.986916 0
M  V30 8617 C 823.049 -1.96028 0.677341 0
M  V30 8618 C 823.474 -1.72487 -0.750319 0
M  V30 8619 O 822.832 -1.00036 -1.51203 0
M  V30 8620 C 822.88 -3.46983 0.981593 0
M  V30 8621 O 821.984 -4.12328 0.0770729 0
M  V30 8622 H 821.325 -0.613458 0.254096 0
M  V30 8623 H 823.855 -1.56132 1.32227 0
M  V30 8624 H 823.865 -3.9747 0.920969 0
M  V30 8625 H 822.54 -3.63442 2.02194 0
M  V30 8626 H 821.117 -3.72402 0.192666 0
M  V30 8627 N 823.302 -0.75937 -1.38099 0
M  V30 8628 C 824.549 -0.318113 -1.99986 0
M  V30 8629 C 824.877 1.10184 -1.6028 0
M  V30 8630 O 824.132 1.77015 -0.834524 0
M  V30 8631 C 824.431 -0.394999 -3.55211 0
M  V30 8632 C 824.097 -1.77143 -4.14646 0
M  V30 8633 C 822.759 -2.14811 -4.30592 0
M  V30 8634 C 825.111 -2.67407 -4.47373 0
M  V30 8635 C 822.439 -3.42203 -4.76565 0
M  V30 8636 C 824.791 -3.94196 -4.94765 0
M  V30 8637 C 823.455 -4.31925 -5.08918 0
M  V30 8638 H 822.725 -0.116406 -0.7318 0
M  V30 8639 H 825.372 -0.97098 -1.65058 0
M  V30 8640 H 823.677 0.341426 -3.9031 0
M  V30 8641 H 825.374 -0.0350722 -4.00985 0
M  V30 8642 H 821.964 -1.46864 -4.02652 0
M  V30 8643 H 826.148 -2.39569 -4.3465 0
M  V30 8644 H 821.404 -3.71346 -4.85708 0
M  V30 8645 H 825.578 -4.64276 -5.19057 0
M  V30 8646 H 823.205 -5.30699 -5.443 0
M  V30 8647 N 824.78 1.49157 -0.508906 0
M  V30 8648 C 826.005 2.07376 0.0315182 0
M  V30 8649 C 826.43 1.36575 1.2934 0
M  V30 8650 O 825.788 0.424963 1.76249 0
M  V30 8651 C 825.836 3.59661 0.260118 0
M  V30 8652 O 824.94 3.90255 1.33322 0
M  V30 8653 H 824.281 0.663334 -0.029739 0
M  V30 8654 H 826.811 1.91857 -0.710791 0
M  V30 8655 H 826.821 4.05056 0.489225 0
M  V30 8656 H 825.496 4.10601 -0.661794 0
M  V30 8657 H 824.073 3.56661 1.08844 0
M  V30 8658 N 826.258 0.243083 1.55714 0
M  V30 8659 C 827.188 -0.652336 2.24203 0
M  V30 8660 C 828.169 -1.1843 1.221 0
M  V30 8661 O 829.354 -1.22435 1.50743 0
M  V30 8662 C 826.484 -1.85111 2.93856 0
M  V30 8663 C 825.438 -1.45208 4.02615 0
M  V30 8664 C 824.764 -2.73137 4.59674 0
M  V30 8665 C 826.064 -0.625988 5.18535 0
M  V30 8666 H 827.758 -0.0812504 2.9929 0
M  V30 8667 H 825.304 -0.0376388 1.43951 0
M  V30 8668 H 827.257 -2.48314 3.40468 0
M  V30 8669 H 825.981 -2.44751 2.16251 0
M  V30 8670 H 824.64 -0.843406 3.56766 0
M  V30 8671 H 824.288 -3.30967 3.78774 0
M  V30 8672 H 823.988 -2.47163 5.33089 0
M  V30 8673 H 825.512 -3.37245 5.09017 0
M  V30 8674 H 826.926 -1.16223 5.61396 0
M  V30 8675 H 825.323 -0.462465 5.98315 0
M  V30 8676 H 826.393 0.362652 4.83542 0
M  V30 8677 N 827.736 -1.57571 -0.0300757 0
M  V30 8678 C 828.985 -1.88407 -0.720126 0
M  V30 8679 C 829.298 -0.841466 -1.76575 0
M  V30 8680 O 830.504 -1.03902 -2.50832 0
M  V30 8681 C 828.96 -3.34348 -1.33188 0
M  V30 8682 C 828.568 -4.46837 -0.32266 0
M  V30 8683 C 830.312 -3.74333 -2.00187 0
M  V30 8684 C 828.219 -5.83838 -0.942703 0
M  V30 8685 H 827.149 -0.702952 -0.272718 0
M  V30 8686 H 829.8 -1.83482 0.0255337 0
M  V30 8687 H 828.182 -3.34014 -2.12721 0
M  V30 8688 H 829.356 -4.58638 0.445887 0
M  V30 8689 H 827.671 -4.15678 0.245181 0
M  V30 8690 H 830.268 -4.74008 -2.47428 0
M  V30 8691 H 830.611 -3.06275 -2.81959 0
M  V30 8692 H 831.144 -3.76837 -1.2743 0
M  V30 8693 H 827.883 -6.55294 -0.164413 0
M  V30 8694 H 827.403 -5.75759 -1.68111 0
M  V30 8695 H 829.082 -6.30535 -1.45034 0
M  V30 8696 N 829.214 0.302327 -1.54673 0
M  V30 8697 C 830.461 1.0377 -1.73891 0
M  V30 8698 C 830.789 1.87309 -0.523979 0
M  V30 8699 O 830.044 1.8936 0.494084 0
M  V30 8700 C 830.343 1.97365 -2.97963 0
M  V30 8701 C 830.009 1.29812 -4.3181 0
M  V30 8702 C 828.671 1.11121 -4.68194 0
M  V30 8703 C 831.023 0.815073 -5.14787 0
M  V30 8704 C 828.351 0.428077 -5.85136 0
M  V30 8705 C 830.703 0.145665 -6.32432 0
M  V30 8706 C 829.367 -0.0532098 -6.67479 0
M  V30 8707 H 828.637 0.379721 -0.636312 0
M  V30 8708 H 831.284 0.312708 -1.8893 0
M  V30 8709 H 829.589 2.76387 -2.777 0
M  V30 8710 H 831.286 2.54331 -3.10027 0
M  V30 8711 H 827.876 1.45366 -4.03196 0
M  V30 8712 H 832.06 0.947191 -4.87178 0
M  V30 8713 H 827.316 0.262995 -6.10834 0
M  V30 8714 H 831.49 -0.236533 -6.95998 0
M  V30 8715 H 829.117 -0.58456 -7.57949 0
M  V30 8716 N 830.692 1.47107 0.565454 0
M  V30 8717 C 831.622 1.61846 1.68309 0
M  V30 8718 C 832.603 0.468159 1.63531 0
M  V30 8719 O 833.788 0.696504 1.8128 0
M  V30 8720 C 830.918 1.62474 3.06952 0
M  V30 8721 C 829.872 2.76649 3.26572 0
M  V30 8722 C 829.198 2.62345 4.65917 0
M  V30 8723 C 830.498 4.18319 3.12741 0
M  V30 8724 H 832.192 2.55407 1.5623 0
M  V30 8725 H 829.738 1.22916 0.750179 0
M  V30 8726 H 831.691 1.71378 3.84977 0
M  V30 8727 H 830.415 0.654692 3.19971 0
M  V30 8728 H 829.074 2.67242 2.50952 0
M  V30 8729 H 828.722 1.63386 4.75725 0
M  V30 8730 H 828.422 3.38936 4.79996 0
M  V30 8731 H 829.946 2.73165 5.46089 0
M  V30 8732 H 831.36 4.28745 3.80593 0
M  V30 8733 H 829.757 4.95632 3.38333 0
M  V30 8734 H 830.827 4.37263 2.09592 0
M  V30 8735 N 832.17 -0.811516 1.35101 0
M  V30 8736 C 833.395 -1.60499 1.31358 0
M  V30 8737 C 833.82 -1.87793 -0.107383 0
M  V30 8738 O 833.178 -1.46161 -1.07268 0
M  V30 8739 C 833.226 -2.91612 2.12119 0
M  V30 8740 O 832.33 -3.84211 1.49853 0
M  V30 8741 H 831.671 -0.487702 0.450603 0
M  V30 8742 H 834.201 -1.00758 1.7807 0
M  V30 8743 H 834.211 -3.4108 2.23894 0
M  V30 8744 H 832.886 -2.71071 3.15426 0
M  V30 8745 H 831.463 -3.42751 1.46889 0
M  V30 8746 N 833.648 -1.19017 -1.03309 0
M  V30 8747 C 834.578 -0.94772 -2.13402 0
M  V30 8748 C 835.559 0.117383 -1.69694 0
M  V30 8749 O 836.744 -0.0367733 -1.94165 0
M  V30 8750 C 833.874 -0.480977 -3.43953 0
M  V30 8751 C 832.828 -1.48743 -4.01322 0
M  V30 8752 C 832.154 -0.877924 -5.27443 0
M  V30 8753 C 833.454 -2.86642 -4.36616 0
M  V30 8754 H 835.148 -1.86846 -2.33942 0
M  V30 8755 H 832.694 -0.899781 -1.12427 0
M  V30 8756 H 834.647 -0.298677 -4.2034 0
M  V30 8757 H 833.371 0.475348 -3.23122 0
M  V30 8758 H 832.03 -1.65681 -3.27025 0
M  V30 8759 H 831.678 0.0858232 -5.02927 0
M  V30 8760 H 831.378 -1.54996 -5.66789 0
M  V30 8761 H 832.902 -0.706326 -6.06501 0
M  V30 8762 H 834.316 -2.73312 -5.03958 0
M  V30 8763 H 832.713 -3.50599 -4.87032 0
M  V30 8764 H 833.783 -3.39617 -3.46105 0
M  V30 8765 N 835.127 1.22348 -0.993418 0
M  V30 8766 C 836.373 1.91689 -0.680217 0
M  V30 8767 C 836.728 1.75912 0.779269 0
M  V30 8768 O 836.021 1.11761 1.55628 0
M  V30 8769 C 836.215 3.42477 -1.02197 0
M  V30 8770 C 836.044 3.72923 -2.51313 0
M  V30 8771 C 834.814 3.9291 -3.17726 0
M  V30 8772 C 837.012 3.7736 -3.49434 0
M  V30 8773 N 834.994 4.10672 -4.56313 0
M  V30 8774 C 836.365 4.00269 -4.73481 0
M  V30 8775 C 838.42 3.60211 -3.43733 0
M  V30 8776 C 837.123 4.0781 -5.92523 0
M  V30 8777 C 839.149 3.69011 -4.62152 0
M  V30 8778 C 838.511 3.92371 -5.85 0
M  V30 8779 H 834.61 0.722086 -0.300193 0
M  V30 8780 H 837.194 1.47273 -1.27353 0
M  V30 8781 H 835.365 3.85699 -0.457223 0
M  V30 8782 H 837.097 3.99204 -0.664702 0
M  V30 8783 H 833.852 3.90345 -2.68193 0
M  V30 8784 H 834.276 4.2348 -5.28199 0
M  V30 8785 H 838.918 3.41137 -2.49771 0
M  V30 8786 H 836.636 4.25688 -6.86888 0
M  V30 8787 H 840.222 3.5708 -4.59331 0
M  V30 8788 H 839.102 3.9901 -6.75101 0
M  V30 8789 N 836.605 0.766683 1.37694 0
M  V30 8790 C 837.568 0.155849 2.2867 0
M  V30 8791 C 838.568 -0.633509 1.47795 0
M  V30 8792 O 839.758 -0.457844 1.68076 0
M  V30 8793 C 836.89 -0.786965 3.31692 0
M  V30 8794 H 838.083 0.957748 2.84196 0
M  V30 8795 H 835.636 0.534554 1.46875 0
M  V30 8796 H 836.371 -1.61406 2.8128 0
M  V30 8797 H 836.156 -0.223182 3.91464 0
M  V30 8798 H 837.646 -1.20994 3.99688 0
M  V30 8799 N 838.083 -1.48885 0.516809 0
M  V30 8800 C 839.329 -2.02788 -0.0220928 0
M  V30 8801 C 839.662 -1.39433 -1.35175 0
M  V30 8802 O 838.937 -0.535459 -1.86984 0
M  V30 8803 C 839.22 -3.59753 -0.158012 0
M  V30 8804 C 839.073 -4.33611 1.19588 0
M  V30 8805 C 840.392 -4.30984 -0.891133 0
M  V30 8806 H 837.511 -0.736971 -0.00655488 0
M  V30 8807 H 840.153 -1.77746 0.671287 0
M  V30 8808 H 838.303 -3.8122 -0.748568 0
M  V30 8809 H 839.975 -4.23598 1.82653 0
M  V30 8810 H 838.218 -3.95547 1.78116 0
M  V30 8811 H 838.889 -5.41846 1.05391 0
M  V30 8812 H 841.365 -4.14267 -0.39012 0
M  V30 8813 H 840.241 -5.40527 -0.955107 0
M  V30 8814 H 840.502 -3.97336 -1.93847 0
M  V30 8815 N 839.561 -0.251338 -1.55583 0
M  V30 8816 C 840.81 0.372681 -1.98227 0
M  V30 8817 C 841.123 1.58743 -1.1428 0
M  V30 8818 O 842.329 2.28289 -1.46957 0
M  V30 8819 C 840.785 0.714439 -3.52738 0
M  V30 8820 C 840.393 -0.479168 -4.4543 0
M  V30 8821 C 842.137 1.3024 -4.04027 0
M  V30 8822 C 840.044 -0.113318 -5.91291 0
M  V30 8823 H 838.974 0.14302 -0.740312 0
M  V30 8824 H 841.625 -0.352253 -1.80087 0
M  V30 8825 H 840.007 1.49762 -3.66589 0
M  V30 8826 H 841.181 -1.25644 -4.4334 0
M  V30 8827 H 839.496 -0.982359 -4.04646 0
M  V30 8828 H 842.093 1.58953 -5.10527 0
M  V30 8829 H 842.436 2.22837 -3.51638 0
M  V30 8830 H 842.969 0.582024 -3.93519 0
M  V30 8831 H 839.708 -1.00654 -6.47726 0
M  V30 8832 H 839.228 0.627666 -5.96507 0
M  V30 8833 H 840.907 0.30293 -6.4629 0
M  V30 8834 N 841.039 1.57585 0.0217189 0
M  V30 8835 C 842.286 1.89606 0.711045 0
M  V30 8836 C 842.614 0.849535 1.74966 0
M  V30 8837 O 841.869 -0.14856 1.95135 0
M  V30 8838 C 842.168 3.28377 1.41079 0
M  V30 8839 C 841.834 4.48035 0.507454 0
M  V30 8840 C 840.496 4.80504 0.258672 0
M  V30 8841 C 842.848 5.21071 -0.115793 0
M  V30 8842 C 840.176 5.83393 -0.622013 0
M  V30 8843 C 842.528 6.24897 -0.984224 0
M  V30 8844 C 841.192 6.55836 -1.2424 0
M  V30 8845 H 840.462 0.693817 0.26019 0
M  V30 8846 H 843.109 1.91478 -0.0291424 0
M  V30 8847 H 841.414 3.22528 2.22448 0
M  V30 8848 H 843.111 3.50404 1.94982 0
M  V30 8849 H 839.701 4.22653 0.711516 0
M  V30 8850 H 843.885 4.96259 0.0634327 0
M  V30 8851 H 839.141 6.05736 -0.830267 0
M  V30 8852 H 843.315 6.8063 -1.47363 0
M  V30 8853 H 840.942 7.35383 -1.92653 0
M  V30 8854 N 842.517 -0.29412 1.54831 0
M  V30 8855 C 843.763 -1.02999 1.74697 0
M  V30 8856 C 844.096 -1.86687 0.534949 0
M  V30 8857 O 843.371 -1.88789 -0.467863 0
M  V30 8858 C 843.654 -1.93024 3.03996 0
M  V30 8859 C 843.507 -1.1247 4.35512 0
M  V30 8860 C 844.826 -2.92085 3.29203 0
M  V30 8861 H 841.945 -0.373039 0.635618 0
M  V30 8862 H 844.587 -0.304065 1.87551 0
M  V30 8863 H 842.737 -2.5492 2.93169 0
M  V30 8864 H 844.409 -0.528067 4.58268 0
M  V30 8865 H 842.652 -0.427574 4.31688 0
M  V30 8866 H 843.323 -1.78728 5.22265 0
M  V30 8867 H 845.799 -2.40319 3.39685 0
M  V30 8868 H 844.675 -3.52234 4.20978 0
M  V30 8869 H 844.936 -3.66107 2.47827 0
M  V30 8870 N 843.995 -1.47404 -0.557645 0
M  V30 8871 C 844.925 -1.62736 -1.67449 0
M  V30 8872 C 845.906 -0.476824 -1.6328 0
M  V30 8873 O 847.091 -0.706108 -1.80908 0
M  V30 8874 C 844.221 -1.641 -3.06086 0
M  V30 8875 C 843.175 -2.78377 -3.25101 0
M  V30 8876 C 842.501 -2.64812 -4.6452 0
M  V30 8877 C 843.801 -4.19971 -3.10518 0
M  V30 8878 H 845.495 -2.56232 -1.54873 0
M  V30 8879 H 843.041 -1.23312 -0.743649 0
M  V30 8880 H 844.994 -1.73417 -3.84063 0
M  V30 8881 H 843.718 -0.671652 -3.19619 0
M  V30 8882 H 842.377 -2.6857 -2.49531 0
M  V30 8883 H 842.025 -1.65906 -4.74852 0
M  V30 8884 H 841.725 -3.41477 -4.78191 0
M  V30 8885 H 843.249 -2.76057 -5.44633 0
M  V30 8886 H 844.663 -4.30757 -3.78313 0
M  V30 8887 H 843.06 -4.97419 -3.35699 0
M  V30 8888 H 844.13 -4.38369 -2.0727 0
M  V30 8889 N 845.473 0.80434 -1.35529 0
M  V30 8890 C 846.703 1.59052 -1.31856 0
M  V30 8891 C 847.111 1.88905 0.105549 0
M  V30 8892 O 846.454 1.49422 1.06858 0
M  V30 8893 C 846.516 2.94626 -2.06 0
M  V30 8894 C 846.18 2.87576 -3.55175 0
M  V30 8895 C 847.177 2.60856 -4.49722 0
M  V30 8896 C 844.862 3.06623 -3.97854 0
M  V30 8897 C 846.856 2.53262 -5.84925 0
M  V30 8898 C 844.543 2.98652 -5.33151 0
M  V30 8899 C 845.541 2.72007 -6.26499 0
M  V30 8900 O 845.229 2.64003 -7.59314 0
M  V30 8901 H 844.961 0.500486 -0.454411 0
M  V30 8902 H 847.515 1.0074 -1.78999 0
M  V30 8903 H 845.745 3.5493 -1.53498 0
M  V30 8904 H 847.434 3.55785 -1.95376 0
M  V30 8905 H 848.2 2.45858 -4.18066 0
M  V30 8906 H 844.079 3.26372 -3.2558 0
M  V30 8907 H 847.623 2.32386 -6.57756 0
M  V30 8908 H 843.52 3.13208 -5.64421 0
M  V30 8909 H 844.288 2.79595 -7.69265 0
M  V30 8910 N 846.951 1.19563 1.02676 0
M  V30 8911 C 847.883 0.893054 2.11086 0
M  V30 8912 C 848.896 -0.115101 1.62393 0
M  V30 8913 O 850.085 0.11459 1.78132 0
M  V30 8914 C 847.185 0.315533 3.37428 0
M  V30 8915 C 846.358 1.37276 4.153 0
M  V30 8916 C 845.417 0.808398 5.19953 0
M  V30 8917 O 844.443 1.48661 5.49444 0
M  V30 8918 N 845.645 -0.387253 5.79207 0
M  V30 8919 H 848.41 1.82622 2.37633 0
M  V30 8920 H 845.971 1.09792 1.18984 0
M  V30 8921 H 847.963 -0.0759166 4.04629 0
M  V30 8922 H 846.533 -0.521961 3.08211 0
M  V30 8923 H 845.753 1.93897 3.43217 0
M  V30 8924 H 847.041 2.08509 4.64114 0
M  V30 8925 H 846.439 -0.955725 5.57568 0
M  V30 8926 H 844.996 -0.720457 6.47806 0
M  V30 8927 O 848.468 -1.15601 1.12777 0
M  V30 8928 H 849.159 -1.74498 0.840847 0
M  V30 END ATOM
M  V30 BEGIN BOND
M  V30 END BOND
M  V30 END CTAB
M  END
$$$$
