drugbank_target|P21631 Uroporphyrinogen-III C-methyltransferase (DB01752)
 OpenBabel12092120223D

  0  0  0     0  0            999 V3000
M  V30 BEGIN CTAB
M  V30 COUNTS 4174 4215 0 0 0
M  V30 BEGIN ATOM
M  V30 1 H -0.908 1.98254 -0.117106 0
M  V30 2 N 0 1.576 0 0
M  V30 3 C 0.933 2.03868 1.02534 0
M  V30 4 C 1.911 0.928543 1.3348 0
M  V30 5 O 3.095 1.19667 1.45644 0
M  V30 6 C 0.222 2.43627 2.35294 0
M  V30 7 C -0.732 3.65373 2.2001 0
M  V30 8 S 0.101 5.13292 1.52614 0
M  V30 9 C 1.257 5.56322 2.86805 0
M  V30 10 H 1.49 2.90518 0.631377 0
M  V30 11 H -0.977 1.52953 0.210867 0
M  V30 12 H 0.981 2.67203 3.11629 0
M  V30 13 H -0.358 1.57376 2.7183 0
M  V30 14 H -1.165 3.90944 3.18086 0
M  V30 15 H -1.563 3.418 1.51819 0
M  V30 16 H 0.729 5.58782 3.83104 0
M  V30 17 H 1.672 6.56266 2.65933 0
M  V30 18 H 2.08 4.83886 2.90714 0
M  V30 19 N 1.4781 -0.272755 1.55222 0
M  V30 20 C 2.7271 -1.00211 1.75045 0
M  V30 21 C 3.0401 -1.87441 0.559046 0
M  V30 22 O 4.2461 -2.63856 0.639698 0
M  V30 23 C 2.7021 -1.83165 3.09804 0
M  V30 24 C 2.3101 -1.008 4.36513 0
M  V30 25 C 4.0541 -2.55529 3.38977 0
M  V30 26 C 1.9611 -1.83194 5.62311 0
M  V30 27 H 0.8911 -0.377878 0.652476 0
M  V30 28 H 3.5421 -0.257776 1.8168 0
M  V30 29 H 1.9241 -2.61694 2.97207 0
M  V30 30 H 3.0981 -0.266855 4.60027 0
M  V30 31 H 1.4131 -0.398897 4.14485 0
M  V30 32 H 4.0101 -3.17578 4.30172 0
M  V30 33 H 4.3531 -3.25825 2.59121 0
M  V30 34 H 4.8861 -1.84029 3.52673 0
M  V30 35 H 1.6251 -1.17318 6.44916 0
M  V30 36 H 1.1451 -2.54905 5.4294 0
M  V30 37 H 2.8241 -2.40552 6.00619 0
M  V30 38 N 2.9562 -1.48159 -0.537278 0
M  V30 39 C 4.2332 -1.46291 -1.29839 0
M  V30 40 C 4.6132 -0.170613 -2.10409 0
M  V30 41 O 3.9612 0.847746 -2.12192 0
M  V30 42 C 4.1712 -2.72055 -2.18603 0
M  V30 43 C 5.5192 -3.20087 -2.7898 0
M  V30 44 O 6.5432 -2.72921 -2.28894 0
M  V30 45 O 5.4022 -4.02138 -3.70064 0
M  V30 46 H 2.4962 -0.583906 -0.585647 0
M  V30 47 H 5.0422 -1.60384 -0.554534 0
M  V30 48 H 3.8142 -3.57628 -1.58801 0
M  V30 49 H 3.4372 -2.60646 -3.00249 0
M  V30 50 N 4.4343 0.785586 -1.36625 0
M  V30 51 C 5.7113 1.53198 -1.21613 0
M  V30 52 C 6.0913 2.10187 0.196113 0
M  V30 53 O 5.4393 1.94318 1.20219 0
M  V30 54 C 5.6493 2.62388 -2.30116 0
M  V30 55 C 6.9973 3.30167 -2.66974 0
M  V30 56 O 8.0213 2.72674 -2.29188 0
M  V30 57 O 6.8803 4.34077 -3.32023 0
M  V30 58 H 3.9743 0.677865 -0.473738 0
M  V30 59 H 6.5203 0.823739 -1.48367 0
M  V30 60 H 5.2923 2.18299 -3.24748 0
M  V30 61 H 4.9153 3.40827 -2.0475 0
M  V30 62 N 5.9124 1.20967 1.01018 0
M  V30 63 C 6.8424 0.988272 2.11555 0
M  V30 64 C 7.8234 -0.0849778 1.69888 0
M  V30 65 O 9.0084 0.0738202 1.9406 0
M  V30 66 C 6.1384 0.546528 3.42973 0
M  V30 67 C 5.0924 1.56375 3.9841 0
M  V30 68 C 4.4184 0.97842 5.25672 0
M  V30 69 C 5.7184 2.94922 4.31066 0
M  V30 70 H 7.4124 1.91276 2.30334 0
M  V30 71 H 4.9584 0.921073 1.1069 0
M  V30 72 H 6.9114 0.378839 4.19694 0
M  V30 73 H 5.6354 -0.413598 3.23971 0
M  V30 74 H 4.2944 1.71891 3.23804 0
M  V30 75 H 3.9424 0.0101688 5.02999 0
M  V30 76 H 3.6424 1.65784 5.63728 0
M  V30 77 H 5.1664 0.821939 6.05043 0
M  V30 78 H 6.5804 2.8288 4.9865 0
M  V30 79 H 4.9774 3.5983 4.80253 0
M  V30 80 H 6.0474 3.4616 3.39561 0
M  V30 81 N 7.3905 -1.2043 1.01659 0
M  V30 82 C 8.6375 -1.89797 0.705917 0
M  V30 83 C 8.9655 -1.78848 -0.764439 0
M  V30 84 O 8.2205 -1.16694 -1.57102 0
M  V30 85 C 8.5195 -3.40464 1.08714 0
M  V30 86 C 8.1855 -3.71614 2.5537 0
M  V30 87 C 6.8475 -3.79826 2.95441 0
M  V30 88 C 9.1995 -3.85915 3.50313 0
M  V30 89 C 6.5275 -3.99797 4.29394 0
M  V30 90 C 8.8795 -4.07396 4.83954 0
M  V30 91 C 7.5435 -4.13837 5.23732 0
M  V30 92 H 6.8135 -0.694518 0.258313 0
M  V30 93 H 9.4605 -1.42691 1.27717 0
M  V30 94 H 7.7655 -3.89385 0.434309 0
M  V30 95 H 9.4625 -3.92433 0.824461 0
M  V30 96 H 6.0525 -3.65822 2.23321 0
M  V30 97 H 10.2365 -3.78926 3.20513 0
M  V30 98 H 5.4925 -4.03018 4.59768 0
M  V30 99 H 9.6665 -4.17404 5.57447 0
M  V30 100 H 7.2935 -4.29064 6.27541 0
M  V30 101 N 8.8686 -0.792821 -1.36206 0
M  V30 102 C 9.8316 -0.199459 -2.2833 0
M  V30 103 C 10.8316 0.605189 -1.48977 0
M  V30 104 O 12.0216 0.425685 -1.68919 0
M  V30 105 C 9.1536 0.723523 -3.33134 0
M  V30 106 H 10.3466 -1.01181 -2.82316 0
M  V30 107 H 7.8996 -0.562485 -1.45828 0
M  V30 108 H 8.6346 1.56008 -2.84309 0
M  V30 109 H 8.4196 0.148436 -3.91819 0
M  V30 110 H 9.9096 1.13344 -4.01924 0
M  V30 111 N 10.3467 1.47872 -0.545128 0
M  V30 112 C 11.5947 2.02093 -0.016553 0
M  V30 113 C 11.9157 1.42305 1.3332 0
M  V30 114 O 11.1857 0.593853 1.86682 0
M  V30 115 H 9.7657 0.746993 -0.00313038 0
M  V30 116 H 12.4277 1.81414 -0.712397 0
M  V30 117 H 11.5237 3.11996 0.0805422 0
M  V30 118 N 11.8248 0.280983 1.55075 0
M  V30 119 C 12.7548 -0.597469 2.25727 0
M  V30 120 C 13.7358 -1.15417 1.24952 0
M  V30 121 O 14.9208 -1.18722 1.53684 0
M  V30 122 C 12.0508 -1.7789 2.98283 0
M  V30 123 C 11.0048 -1.35347 4.06036 0
M  V30 124 C 10.3308 -2.61846 4.66198 0
M  V30 125 C 11.6308 -0.499354 5.19907 0
M  V30 126 H 13.3248 -0.00824265 2.99399 0
M  V30 127 H 10.8708 -0.0025244 1.44 0
M  V30 128 H 12.8238 -2.39937 3.46422 0
M  V30 129 H 11.5478 -2.39405 2.22155 0
M  V30 130 H 10.2068 -0.756156 3.58717 0
M  V30 131 H 9.8548 -3.21632 3.86732 0
M  V30 132 H 9.5548 -2.3409 5.38958 0
M  V30 133 H 11.0788 -3.24732 5.1709 0
M  V30 134 H 12.4928 -1.02498 5.64063 0
M  V30 135 H 10.8898 -0.316424 5.99265 0
M  V30 136 H 11.9598 0.480459 4.82514 0
M  V30 137 N 13.3029 -1.57598 0.00835791 0
M  V30 138 C 14.7139 -1.7892 -0.53333 0
M  V30 139 C 15.0649 -0.916609 -1.73473 0
M  V30 140 O 14.1899 -0.121336 -2.1606 0
M  V30 141 C 14.7849 -3.24488 -0.974313 0
M  V30 142 C 13.3439 -3.46878 -1.46125 0
M  V30 143 C 12.4909 -2.74157 -0.416302 0
M  V30 144 H 15.4419 -1.56958 0.234495 0
M  V30 145 H 15.4629 -3.3306 -1.83988 0
M  V30 146 H 14.9749 -3.87972 -0.099718 0
M  V30 147 H 13.0759 -2.8862 -2.35646 0
M  V30 148 H 13.1889 -4.55572 -1.48295 0
M  V30 149 H 11.5529 -2.39022 -0.87981 0
M  V30 150 H 12.3359 -3.40345 0.44947 0
M  V30 151 N 14.781 0.264519 -1.55364 0
M  V30 152 C 15.744 1.31046 -1.88042 0
M  V30 153 C 16.744 1.41943 -0.755569 0
M  V30 154 O 17.934 1.40947 -1.02369 0
M  V30 155 C 15.066 2.69067 -2.09323 0
M  V30 156 H 16.259 1.03297 -2.81549 0
M  V30 157 H 13.812 0.502989 -1.47986 0
M  V30 158 H 14.547 3.01982 -1.18226 0
M  V30 159 H 14.332 2.62542 -2.91229 0
M  V30 160 H 15.822 3.44623 -2.35848 0
M  V30 161 N 16.2591 1.48442 0.529413 0
M  V30 162 C 17.1891 1.65902 1.64313 0
M  V30 163 C 18.1701 0.507897 1.6234 0
M  V30 164 O 19.3551 0.740503 1.79528 0
M  V30 165 C 16.4851 1.69911 3.02898 0
M  V30 166 C 15.4391 2.8453 3.19729 0
M  V30 167 C 14.7651 2.73629 4.59381 0
M  V30 168 C 16.0651 4.25821 3.02447 0
M  V30 169 H 17.7591 2.5914 1.49955 0
M  V30 170 H 15.3051 1.24709 0.719982 0
M  V30 171 H 17.2581 1.80715 3.80684 0
M  V30 172 H 15.9821 0.732524 3.18279 0
M  V30 173 H 14.6411 2.73283 2.44361 0
M  V30 174 H 14.2891 1.74938 4.71599 0
M  V30 175 H 13.9891 3.50541 4.71588 0
M  V30 176 H 15.5131 2.86401 5.39265 0
M  V30 177 H 16.9271 4.37898 3.70024 0
M  V30 178 H 15.3241 5.03735 3.26146 0
M  V30 179 H 16.3941 4.42244 1.98867 0
M  V30 180 N 17.7372 -0.778329 1.37039 0
M  V30 181 C 18.6472 -1.92253 1.34446 0
M  V30 182 C 19.6632 -1.72267 0.244991 0
M  V30 183 O 20.8392 -1.95615 0.479258 0
M  V30 184 C 17.9042 -3.27282 1.144 0
M  V30 185 C 16.9652 -3.59969 2.33925 0
M  V30 186 C 16.1982 -4.88555 2.14825 0
M  V30 187 O 16.4212 -5.59113 1.12912 0
M  V30 188 O 15.3552 -5.20153 3.02861 0
M  V30 189 H 19.1812 -1.97392 2.30803 0
M  V30 190 H 16.7662 -0.920154 1.17701 0
M  V30 191 H 18.6482 -4.08062 1.05182 0
M  V30 192 H 17.3232 -3.23011 0.211124 0
M  V30 193 H 16.2302 -2.7945 2.48714 0
M  V30 194 H 17.5632 -3.68976 3.25757 0
M  V30 195 N 19.2153 -1.21501 -1.00376 0
M  V30 196 C 20.1623 -0.975387 -2.09177 0
M  V30 197 C 21.1323 0.0990615 -1.65804 0
M  V30 198 O 22.3173 -0.0483147 -1.90739 0
M  V30 199 C 19.4573 -0.547507 -3.40729 0
M  V30 200 C 18.5703 -1.69153 -3.97506 0
M  V30 201 C 17.7053 -1.2127 -5.17172 0
M  V30 202 C 16.7443 -2.32897 -5.66061 0
M  V30 203 N 15.8813 -1.86138 -6.76976 0
M  V30 204 H 20.7213 -1.9068 -2.29009 0
M  V30 205 H 18.2583 -0.950257 -1.12288 0
M  V30 206 H 20.2163 -0.280667 -4.16255 0
M  V30 207 H 18.8463 0.346904 -3.20931 0
M  V30 208 H 17.8983 -2.07298 -3.18954 0
M  V30 209 H 19.2103 -2.5316 -4.29781 0
M  V30 210 H 18.3643 -0.902591 -5.99948 0
M  V30 211 H 17.1033 -0.342692 -4.86495 0
M  V30 212 H 16.1083 -2.64709 -4.81881 0
M  V30 213 H 17.3333 -3.20396 -5.98768 0
M  V30 214 H 15.2793 -1.01484 -6.48103 0
M  V30 215 H 15.1963 -2.63717 -7.08512 0
M  V30 216 H 16.4643 -1.58165 -7.63285 0
M  V30 217 N 20.6934 1.19889 -1.02296 0
M  V30 218 C 21.9414 1.89046 -0.714558 0
M  V30 219 C 22.2624 1.79636 0.758681 0
M  V30 220 O 21.5324 1.20292 1.54618 0
M  V30 221 H 20.1124 0.699802 -0.261317 0
M  V30 222 H 22.7744 1.45574 -1.29592 0
M  V30 223 H 21.8704 2.95524 -1.0036 0
M  V30 224 N 22.1715 0.800033 1.35784 0
M  V30 225 C 23.3965 0.388511 2.03729 0
M  V30 226 C 23.8215 -0.990481 1.5991 0
M  V30 227 O 23.1795 -1.64013 0.772612 0
M  V30 228 C 23.2275 0.4726 3.5749 0
M  V30 229 O 22.3315 -0.51646 4.09153 0
M  V30 230 H 21.6725 0.163271 0.643614 0
M  V30 231 H 24.2025 1.0841 1.73518 0
M  V30 232 H 24.2125 0.34003 4.06581 0
M  V30 233 H 22.8875 1.47848 3.88734 0
M  V30 234 H 21.4645 -0.344673 3.71304 0
M  V30 235 N 23.6496 -1.47581 0.552962 0
M  V30 236 C 24.8956 -2.02782 0.0273648 0
M  V30 237 C 25.2286 -1.42687 -1.31734 0
M  V30 238 O 24.5036 -0.580897 -1.85623 0
M  V30 239 C 24.7866 -3.60031 -0.0702371 0
M  V30 240 C 24.6396 -4.30566 1.30126 0
M  V30 241 C 25.9586 -4.33028 -0.785771 0
M  V30 242 H 23.0776 -0.736912 0.0114185 0
M  V30 243 H 25.7196 -1.76056 0.714432 0
M  V30 244 H 23.8696 -3.82932 -0.655382 0
M  V30 245 H 25.5416 -4.19018 1.92929 0
M  V30 246 H 23.7846 -3.91086 1.87709 0
M  V30 247 H 24.4556 -5.39114 1.18573 0
M  V30 248 H 26.9316 -4.15095 -0.288982 0
M  V30 249 H 25.8076 -5.42695 -0.823013 0
M  V30 250 H 26.0686 -4.01945 -1.841 0
M  V30 251 N 25.1277 -0.289203 -1.54924 0
M  V30 252 C 26.3737 0.316922 -2.00916 0
M  V30 253 C 26.7287 1.52424 -1.17408 0
M  V30 254 O 26.0217 1.90097 -0.239536 0
M  V30 255 C 26.2157 0.736119 -3.49737 0
M  V30 256 C 26.0447 -0.429036 -4.47649 0
M  V30 257 C 24.8147 -0.917311 -4.96904 0
M  V30 258 C 27.0127 -1.27016 -4.98369 0
M  V30 259 N 24.9947 -2.05046 -5.78644 0
M  V30 260 C 26.3657 -2.25097 -5.77695 0
M  V30 261 C 28.4207 -1.30188 -4.80578 0
M  V30 262 C 27.1237 -3.26114 -6.41126 0
M  V30 263 C 29.1497 -2.30057 -5.44819 0
M  V30 264 C 28.5117 -3.2687 -6.23968 0
M  V30 265 H 24.6107 0.0807535 -0.777819 0
M  V30 266 H 27.1947 -0.416434 -1.90194 0
M  V30 267 H 25.3657 1.43867 -3.60773 0
M  V30 268 H 27.0977 1.32078 -3.82541 0
M  V30 269 H 23.8527 -0.494248 -4.71014 0
M  V30 270 H 24.2767 -2.62108 -6.24202 0
M  V30 271 H 28.9187 -0.567163 -4.18979 0
M  V30 272 H 26.6367 -4.00512 -7.01866 0
M  V30 273 H 30.2227 -2.33271 -5.32988 0
M  V30 274 H 29.1027 -4.02883 -6.72796 0
M  V30 275 N 26.6058 1.57591 -0.0167156 0
M  V30 276 C 27.5358 2.12496 0.967858 0
M  V30 277 C 28.5168 1.03807 1.34752 0
M  V30 278 O 29.7018 1.31577 1.42833 0
M  V30 279 C 26.8318 2.64194 2.25431 0
M  V30 280 C 25.7858 3.77559 2.01576 0
M  V30 281 C 25.1118 4.15636 3.36379 0
M  V30 282 C 26.4118 5.04151 1.36489 0
M  V30 283 H 28.1058 2.95013 0.510643 0
M  V30 284 H 25.6518 1.41915 0.244181 0
M  V30 285 H 27.6048 3.01236 2.94678 0
M  V30 286 H 26.3288 1.78821 2.73296 0
M  V30 287 H 24.9878 3.40937 1.34751 0
M  V30 288 H 24.6358 3.27263 3.81979 0
M  V30 289 H 24.3358 4.92022 3.21229 0
M  V30 290 H 25.8598 4.5525 4.06915 0
M  V30 291 H 27.2738 5.38857 1.95718 0
M  V30 292 H 25.6708 5.85453 1.31776 0
M  V30 293 H 26.7408 4.83733 0.336219 0
M  V30 294 N 28.0839 -0.256276 1.55502 0
M  V30 295 C 29.3299 -0.987079 1.77157 0
M  V30 296 C 29.6629 -1.85327 0.580315 0
M  V30 297 O 28.9379 -1.89874 -0.421686 0
M  V30 298 C 29.2209 -1.85553 3.08613 0
M  V30 299 C 29.0739 -1.01816 4.38125 0
M  V30 300 C 30.3929 -2.8397 3.36228 0
M  V30 301 H 27.5119 -0.357428 0.644526 0
M  V30 302 H 30.1539 -0.258239 1.88237 0
M  V30 303 H 28.3039 -2.47695 2.99298 0
M  V30 304 H 29.9759 -0.416159 4.59419 0
M  V30 305 H 28.2189 -0.322178 4.32602 0
M  V30 306 H 28.8899 -1.65939 5.26468 0
M  V30 307 H 31.3659 -2.31964 3.45445 0
M  V30 308 H 30.2419 -3.41864 4.29442 0
M  V30 309 H 30.5029 -3.59955 2.56681 0
M  V30 310 N 29.562 -1.4872 -0.521534 0
M  V30 311 C 30.81 -1.56857 -1.27437 0
M  V30 312 C 31.131 -0.247982 -1.93417 0
M  V30 313 O 30.401 0.731151 -1.81744 0
M  V30 314 H 28.981 -0.577885 -0.473347 0
M  V30 315 H 31.643 -1.85233 -0.606205 0
M  V30 316 H 30.739 -2.35402 -2.0492 0
M  V30 317 N 31.0401 0.771051 -1.3745 0
M  V30 318 C 32.0031 1.86598 -1.33093 0
M  V30 319 C 33.0031 1.59076 -0.234845 0
M  V30 320 O 34.1931 1.67145 -0.490732 0
M  V30 321 C 31.3251 3.23747 -1.06773 0
M  V30 322 H 32.5181 1.91873 -2.30488 0
M  V30 323 H 30.0711 0.970876 -1.2249 0
M  V30 324 H 30.8061 3.24148 -0.099129 0
M  V30 325 H 30.5911 3.45115 -1.86112 0
M  V30 326 H 32.0811 4.03824 -1.06377 0
M  V30 327 N 32.5182 1.22032 0.997298 0
M  V30 328 C 33.7662 1.04016 1.73278 0
M  V30 329 C 34.0872 -0.426255 1.90284 0
M  V30 330 O 33.3572 -1.30694 1.45931 0
M  V30 331 H 31.9372 0.381897 0.642 0
M  V30 332 H 34.5992 1.5347 1.20137 0
M  V30 333 H 33.6952 1.51441 2.72896 0
M  V30 334 N 33.9963 -1.19345 1.0293 0
M  V30 335 C 35.4073 -1.70725 0.755633 0
M  V30 336 C 35.7583 -1.82326 -0.724676 0
M  V30 337 O 34.8833 -1.49471 -1.56484 0
M  V30 338 C 35.4783 -3.10084 1.36503 0
M  V30 339 C 34.0373 -3.58723 1.13994 0
M  V30 340 C 33.1843 -2.35577 1.46283 0
M  V30 341 H 36.1353 -1.0418 1.19718 0
M  V30 342 H 36.1563 -3.72787 0.762217 0
M  V30 343 H 35.6683 -3.01609 2.44241 0
M  V30 344 H 33.7693 -3.72512 0.0807901 0
M  V30 345 H 33.8823 -4.42816 1.82894 0
M  V30 346 H 32.2463 -2.38935 0.88217 0
M  V30 347 H 33.0293 -2.29731 2.55105 0
M  V30 348 N 35.4744 -0.807222 -1.35358 0
M  V30 349 C 36.7224 -0.387122 -1.98358 0
M  V30 350 C 37.0434 1.04942 -1.64354 0
M  V30 351 O 36.3134 1.72615 -0.926339 0
M  V30 352 H 34.8934 -0.140154 -0.733734 0
M  V30 353 H 37.5554 -1.0332 -1.6526 0
M  V30 354 H 36.6514 -0.493352 -3.08176 0
M  V30 355 N 36.9525 1.47285 -0.560781 0
M  V30 356 C 38.2295 1.9558 0.0277798 0
M  V30 357 C 38.6095 1.5034 1.48192 0
M  V30 358 O 37.9575 0.743882 2.16052 0
M  V30 359 C 38.1675 3.48789 -0.121418 0
M  V30 360 C 39.5155 4.24594 0.0220912 0
M  V30 361 O 40.5395 3.56166 -0.0491439 0
M  V30 362 O 39.3985 5.46217 0.175958 0
M  V30 363 H 36.4925 0.824663 0.0621342 0
M  V30 364 H 39.0385 1.5767 -0.627556 0
M  V30 365 H 37.8105 3.74533 -1.13316 0
M  V30 366 H 37.4335 3.93473 0.571366 0
M  V30 367 N 38.4306 0.297415 1.54768 0
M  V30 368 C 39.8416 -0.195947 1.85669 0
M  V30 369 C 40.1926 -1.53707 1.21937 0
M  V30 370 O 39.3176 -2.10164 0.515754 0
M  V30 371 C 39.9126 -0.362318 3.36857 0
M  V30 372 C 38.4716 -0.799901 3.67802 0
M  V30 373 C 37.6186 0.0938578 2.77141 0
M  V30 374 H 40.5696 0.518538 1.4999 0
M  V30 375 H 40.5906 -1.19745 3.61167 0
M  V30 376 H 40.1026 0.613921 3.83214 0
M  V30 377 H 38.2036 -1.78682 3.26961 0
M  V30 378 H 38.3166 -0.621773 4.75048 0
M  V30 379 H 36.6806 -0.426254 2.51108 0
M  V30 380 H 37.4636 1.06639 3.26318 0
M  V30 381 N 39.9087 -1.5758 0.0250728 0
M  V30 382 C 41.1567 -1.91255 -0.653151 0
M  V30 383 C 41.4777 -0.901691 -1.729 0
M  V30 384 O 40.7477 0.0573785 -1.95816 0
M  V30 385 H 39.3277 -0.705942 -0.244243 0
M  V30 386 H 41.9897 -1.94767 0.0719209 0
M  V30 387 H 41.0857 -2.91752 -1.10847 0
M  V30 388 N 41.3868 0.248026 -1.55636 0
M  V30 389 C 42.3168 1.31079 -1.93237 0
M  V30 390 C 43.2978 1.50264 -0.797174 0
M  V30 391 O 44.4828 1.62891 -1.05737 0
M  V30 392 C 41.6128 2.66575 -2.22609 0
M  V30 393 C 40.5668 2.62087 -3.3837 0
M  V30 394 C 39.8928 4.01369 -3.53281 0
M  V30 395 C 41.1928 2.19171 -4.7409 0
M  V30 396 H 42.8868 0.998556 -2.82257 0
M  V30 397 H 40.4328 0.47891 -1.35803 0
M  V30 398 H 42.3858 3.41057 -2.47503 0
M  V30 399 H 41.1098 2.99432 -1.30414 0
M  V30 400 H 39.7688 1.90063 -3.13483 0
M  V30 401 H 39.4168 4.31489 -2.58508 0
M  V30 402 H 39.1168 3.99254 -4.31127 0
M  V30 403 H 40.6408 4.77552 -3.80495 0
M  V30 404 H 42.0548 2.83384 -4.98363 0
M  V30 405 H 40.4518 2.2817 -5.5503 0
M  V30 406 H 41.5218 1.14336 -4.71227 0
M  V30 407 N 42.8649 1.48995 0.513639 0
M  V30 408 C 43.7949 1.67636 1.62544 0
M  V30 409 C 44.7759 0.525087 1.61793 0
M  V30 410 O 45.9609 0.759502 1.78732 0
M  V30 411 C 43.0909 1.73114 3.01079 0
M  V30 412 C 42.0449 2.87905 3.16693 0
M  V30 413 C 41.3709 2.78486 4.56453 0
M  V30 414 C 42.6709 4.29005 2.97913 0
M  V30 415 H 44.3649 2.60716 1.47198 0
M  V30 416 H 41.9109 1.25465 0.706714 0
M  V30 417 H 43.8639 1.84742 3.78746 0
M  V30 418 H 42.5879 0.766241 3.17484 0
M  V30 419 H 41.2469 2.75859 2.41448 0
M  V30 420 H 40.8949 1.7993 4.69717 0
M  V30 421 H 40.5949 3.55523 4.67843 0
M  V30 422 H 42.1189 2.92104 5.36197 0
M  V30 423 H 43.5329 4.41798 3.65359 0
M  V30 424 H 41.9299 5.07166 3.20785 0
M  V30 425 H 42.9999 4.44329 1.94165 0
M  V30 426 N 44.343 -0.763751 1.37857 0
M  V30 427 C 45.571 -1.55293 1.36718 0
M  V30 428 C 45.986 -1.88745 -0.0455434 0
M  V30 429 O 45.343 -1.52039 -1.00947 0
M  V30 430 C 45.394 -2.85831 2.2132 0
M  V30 431 O 45.115 -2.5381 3.57089 0
M  V30 432 C 46.616 -3.80023 2.28249 0
M  V30 433 H 43.836 -0.480841 0.468009 0
M  V30 434 H 46.38 -0.946009 1.81303 0
M  V30 435 H 44.535 -3.42926 1.80223 0
M  V30 436 H 44.949 -3.37459 4.01524 0
M  V30 437 H 46.423 -4.68599 2.91752 0
M  V30 438 H 46.9 -4.1973 1.2932 0
M  V30 439 H 47.506 -3.28855 2.69693 0
M  V30 440 N 45.8211 -1.22559 -0.990812 0
M  V30 441 C 46.7511 -1.0218 -2.09956 0
M  V30 442 C 47.7321 0.0579394 -1.70001 0
M  V30 443 O 48.9171 -0.104684 -1.93918 0
M  V30 444 C 46.0471 -0.601023 -3.4206 0
M  V30 445 C 45.0011 -1.62694 -3.95872 0
M  V30 446 C 44.3271 -1.06193 -5.24049 0
M  V30 447 C 45.6271 -3.01743 -4.2632 0
M  V30 448 H 47.3211 -1.94916 -2.27262 0
M  V30 449 H 44.8671 -0.938566 -1.09211 0
M  V30 450 H 46.8201 -0.445561 -4.19038 0
M  V30 451 H 45.5441 0.362005 -3.24588 0
M  V30 452 H 44.2031 -1.77021 -3.21028 0
M  V30 453 H 43.8511 -0.0901903 -5.02919 0
M  V30 454 H 43.5511 -1.74732 -5.61019 0
M  V30 455 H 45.0751 -0.918092 -6.03658 0
M  V30 456 H 46.4891 -2.90777 -4.94087 0
M  V30 457 H 44.8861 -3.67425 -4.74467 0
M  V30 458 H 45.9561 -3.51518 -3.34011 0
M  V30 459 N 47.2992 1.18797 -1.03562 0
M  V30 460 C 48.2492 2.20161 -0.592724 0
M  V30 461 C 49.2332 1.56772 0.362133 0
M  V30 462 O 50.4252 1.76062 0.182009 0
M  V30 463 C 47.5542 3.43266 0.0481024 0
M  V30 464 C 46.6402 4.13786 -0.9296 0
M  V30 465 N 47.0312 4.60388 -2.09467 0
M  V30 466 C 45.3292 4.39572 -0.754499 0
M  V30 467 C 46.0302 5.14619 -2.71187 0
M  V30 468 N 45.0062 5.05826 -1.991 0
M  V30 469 H 48.8082 2.53877 -1.48066 0
M  V30 470 H 46.3222 1.34946 -0.903514 0
M  V30 471 H 48.3192 4.15136 0.383058 0
M  V30 472 H 46.9792 3.11048 0.931636 0
M  V30 473 H 47.9902 4.54999 -2.47379 0
M  V30 474 H 44.6672 4.17425 0.0793713 0
M  V30 475 H 46.0572 5.60917 -3.69895 0
M  V30 476 N 48.7773 0.814389 1.34928 0
M  V30 477 C 49.7403 0.235759 2.27984 0
M  V30 478 C 50.7403 -0.581412 1.49921 0
M  V30 479 O 51.9303 -0.398758 1.69575 0
M  V30 480 C 49.0623 -0.670433 3.34242 0
M  V30 481 H 50.2553 1.05659 2.80671 0
M  V30 482 H 47.8083 0.585614 1.44915 0
M  V30 483 H 48.5433 -1.51466 2.86755 0
M  V30 484 H 48.3283 -0.0860822 3.92005 0
M  V30 485 H 49.8183 -1.06935 4.03676 0
M  V30 486 N 50.2554 -1.46986 0.568584 0
M  V30 487 C 51.2184 -2.28624 -0.162366 0
M  V30 488 C 52.2184 -1.37596 -0.832103 0
M  V30 489 O 53.4084 -1.60115 -0.68622 0
M  V30 490 C 50.5404 -3.17596 -1.23878 0
M  V30 491 H 51.7334 -2.94722 0.554899 0
M  V30 492 H 49.2864 -1.52863 0.325976 0
M  V30 493 H 50.0214 -2.56214 -1.98808 0
M  V30 494 H 49.8064 -3.846 -0.763219 0
M  V30 495 H 51.2964 -3.79078 -1.75185 0
M  V30 496 N 51.7335 -0.305618 -1.54608 0
M  V30 497 C 52.6815 0.584119 -2.25146 0
M  V30 498 C 53.6755 1.13326 -1.25911 0
M  V30 499 O 54.8815 1.08337 -1.43747 0
M  V30 500 H 51.2565 0.206983 -0.722954 0
M  V30 501 H 53.2275 -0.033291 -2.98381 0
M  V30 502 C 51.9765 1.74225 -3.009 0
M  V30 503 H 51.2995 1.32892 -3.77067 0
M  V30 504 H 52.7395 2.34077 -3.53531 0
M  V30 505 C 51.1985 2.64914 -2.0814 0
M  V30 506 O 51.7285 3.66137 -1.65246 0
M  V30 507 N 49.9345 2.3275 -1.74 0
M  V30 508 H 49.4815 1.50479 -2.09078 0
M  V30 509 H 49.4395 2.93694 -1.12211 0
M  V30 510 N 53.2116 1.57565 -0.0334293 0
M  V30 511 C 54.1746 2.09393 0.932048 0
M  V30 512 C 55.1746 1.00986 1.25134 0
M  V30 513 O 56.3646 1.27129 1.19096 0
M  V30 514 C 53.4966 2.56338 2.2473 0
M  V30 515 H 54.6896 2.95984 0.483085 0
M  V30 516 H 52.2426 1.54819 0.21468 0
M  V30 517 H 52.9776 1.7309 2.74245 0
M  V30 518 H 52.7626 3.35542 2.02865 0
M  V30 519 H 54.2526 2.96646 2.93923 0
M  V30 520 N 54.6897 -0.239769 1.55765 0
M  V30 521 C 55.6197 -1.30052 1.9393 0
M  V30 522 C 56.6007 -1.49839 0.805132 0
M  V30 523 O 57.7857 -1.62328 1.06599 0
M  V30 524 C 54.9157 -2.65391 2.2402 0
M  V30 525 C 53.8697 -2.60289 3.39755 0
M  V30 526 C 53.1957 -3.99489 3.55405 0
M  V30 527 C 54.4957 -2.16654 4.75246 0
M  V30 528 H 56.1897 -0.983573 2.82783 0
M  V30 529 H 53.7357 -0.471701 1.36055 0
M  V30 530 H 55.6887 -3.3974 2.49308 0
M  V30 531 H 54.4127 -2.98736 1.32 0
M  V30 532 H 53.0717 -1.88398 3.14487 0
M  V30 533 H 52.7197 -4.30112 2.60793 0
M  V30 534 H 52.4197 -3.96962 4.33238 0
M  V30 535 H 53.9437 -4.75528 3.83022 0
M  V30 536 H 55.3577 -2.80737 4.99859 0
M  V30 537 H 53.7547 -2.25223 5.56232 0
M  V30 538 H 54.8247 -1.11835 4.71827 0
M  V30 539 N 56.1678 -1.49265 -0.50573 0
M  V30 540 C 57.5838 -1.35923 -0.836486 0
M  V30 541 C 57.7838 -0.388704 -1.97715 0
M  V30 542 O 56.8398 0.181336 -2.51848 0
M  V30 543 C 58.1528 -2.76531 -1.18115 0
M  V30 544 C 59.7008 -2.85197 -1.28964 0
M  V30 545 C 60.1758 -4.26561 -1.66761 0
M  V30 546 N 61.6668 -4.2935 -1.73819 0
M  V30 547 C 62.4018 -5.35693 -2.045 0
M  V30 548 N 61.8978 -6.52287 -2.33438 0
M  V30 549 N 63.6908 -5.23105 -2.05711 0
M  V30 550 H 55.8418 -2.10965 0.246519 0
M  V30 551 H 58.1048 -0.9468 0.0476887 0
M  V30 552 H 57.8108 -3.49226 -0.416398 0
M  V30 553 H 57.6848 -3.11599 -2.1257 0
M  V30 554 H 60.0718 -2.12742 -2.04511 0
M  V30 555 H 60.1528 -2.53718 -0.325704 0
M  V30 556 H 59.7968 -4.99541 -0.917656 0
M  V30 557 H 59.7268 -4.55502 -2.64246 0
M  V30 558 H 62.2178 -3.4526 -1.53635 0
M  V30 559 H 62.5308 -7.29158 -2.56024 0
M  V30 560 H 60.8758 -6.55521 -2.30905 0
M  V30 561 H 64.0668 -4.31026 -1.82577 0
M  V30 562 H 64.2398 -6.06078 -2.29289 0
M  V30 563 N 57.6459 0.756429 -1.3826 0
M  V30 564 C 58.5779 1.87971 -1.31147 0
M  V30 565 C 59.5909 1.61248 -0.224239 0
M  V30 566 O 60.7799 1.71881 -0.481581 0
M  V30 567 C 57.8799 3.23545 -1.00857 0
M  V30 568 C 57.0529 3.77794 -2.20432 0
M  V30 569 C 56.1119 4.91877 -1.86931 0
M  V30 570 O 55.1379 5.06659 -2.59395 0
M  V30 571 N 56.3399 5.74643 -0.822568 0
M  V30 572 H 59.1049 1.94585 -2.2794 0
M  V30 573 H 56.6659 0.936234 -1.32084 0
M  V30 574 H 58.6579 3.97403 -0.765021 0
M  V30 575 H 57.2279 3.12335 -0.128687 0
M  V30 576 H 56.4479 2.95534 -2.6087 0
M  V30 577 H 57.7359 4.10771 -3.00241 0
M  V30 578 H 57.1339 5.65266 -0.221575 0
M  V30 579 H 55.6909 6.48661 -0.638899 0
M  V30 580 N 59.124 1.23083 0.984299 0
M  V30 581 C 60.087 1.00979 2.05757 0
M  V30 582 C 61.087 -0.0269573 1.60777 0
M  V30 583 O 62.277 0.212403 1.729 0
M  V30 584 C 59.409 0.527072 3.36801 0
M  V30 585 H 60.602 1.9622 2.26799 0
M  V30 586 H 58.155 1.05072 1.15714 0
M  V30 587 H 58.89 -0.429294 3.21446 0
M  V30 588 H 58.675 1.27515 3.70786 0
M  V30 589 H 60.165 0.392942 4.15747 0
M  V30 590 N 60.6021 -1.18246 1.0419 0
M  V30 591 C 61.8791 -1.84121 0.660208 0
M  V30 592 C 62.2591 -1.92778 -0.860221 0
M  V30 593 O 61.6071 -1.45464 -1.76217 0
M  V30 594 C 61.8171 -3.22355 1.33747 0
M  V30 595 C 63.1651 -3.98376 1.46906 0
M  V30 596 O 64.1891 -3.31799 1.29568 0
M  V30 597 O 63.0481 -5.17665 1.75171 0
M  V30 598 H 60.1421 -0.794036 0.231161 0
M  V30 599 H 62.6881 -1.25628 1.14087 0
M  V30 600 H 61.4601 -3.10964 2.37522 0
M  V30 601 H 61.0831 -3.88506 0.845515 0
M  V30 602 N 62.0802 -0.821533 -1.34494 0
M  V30 603 C 63.3262 -0.409552 -1.98622 0
M  V30 604 C 63.6592 1.0244 -1.64984 0
M  V30 605 O 62.9342 1.71325 -0.920758 0
M  V30 606 C 63.2172 -0.610458 -3.54888 0
M  V30 607 C 63.0702 -2.09043 -3.98273 0
M  V30 608 C 64.3892 -0.0455379 -4.40076 0
M  V30 609 H 61.5082 -0.15028 -0.721516 0
M  V30 610 H 64.1502 -1.03384 -1.59411 0
M  V30 611 H 62.3002 -0.079044 -3.8842 0
M  V30 612 H 63.9722 -2.68537 -3.75081 0
M  V30 613 H 62.2152 -2.58139 -3.48635 0
M  V30 614 H 62.8862 -2.18182 -5.07051 0
M  V30 615 H 65.3622 -0.499557 -4.1309 0
M  V30 616 H 64.2382 -0.215922 -5.48475 0
M  V30 617 H 64.4992 1.04939 -4.29465 0
M  V30 618 N 63.5583 1.46682 -0.576371 0
M  V30 619 C 64.8073 2.01619 -0.0572825 0
M  V30 620 C 65.1203 1.45417 1.30818 0
M  V30 621 O 66.3263 1.92133 1.91825 0
M  V30 622 C 64.7823 3.59863 -0.0518371 0
M  V30 623 C 64.3903 4.25059 -1.41523 0
M  V30 624 C 66.1343 4.2248 0.413639 0
M  V30 625 C 64.0413 5.75364 -1.36785 0
M  V30 626 H 62.9713 0.753794 -0.0176448 0
M  V30 627 H 65.6223 1.68481 -0.727076 0
M  V30 628 H 64.0043 3.90048 0.683994 0
M  V30 629 H 65.1783 4.06491 -2.17029 0
M  V30 630 H 63.4933 3.7451 -1.8202 0
M  V30 631 H 66.0903 5.3265 0.467779 0
M  V30 632 H 66.4333 3.90976 1.42982 0
M  V30 633 H 66.9663 3.96897 -0.267929 0
M  V30 634 H 63.7053 6.11518 -2.36063 0
M  V30 635 H 63.2253 5.96214 -0.654895 0
M  V30 636 H 64.9043 6.37955 -1.07805 0
M  V30 637 N 65.0364 0.313813 1.54444 0
M  V30 638 C 66.2824 -0.292108 2.00685 0
M  V30 639 C 66.6154 -1.52548 1.20177 0
M  V30 640 O 65.8904 -1.92452 0.281531 0
M  V30 641 C 66.1734 -0.635968 3.5444 0
M  V30 642 C 66.0264 0.607437 4.4568 0
M  V30 643 C 67.3454 -1.45747 4.15266 0
M  V30 644 H 64.4644 -0.104697 0.729526 0
M  V30 645 H 67.1064 0.428457 1.85106 0
M  V30 646 H 65.2564 -1.24986 3.67846 0
M  V30 647 H 66.9284 1.24581 4.44159 0
M  V30 648 H 65.1714 1.23822 4.15753 0
M  V30 649 H 65.8424 0.322515 5.51057 0
M  V30 650 H 68.3184 -0.938645 4.05375 0
M  V30 651 H 67.1944 -1.66683 5.2298 0
M  V30 652 H 67.4554 -2.45063 3.67963 0
M  V30 653 N 66.5145 -1.57545 0.0417849 0
M  V30 654 C 67.4645 -2.07483 -0.945247 0
M  V30 655 C 68.4485 -0.977983 -1.27767 0
M  V30 656 O 69.6405 -1.24142 -1.26166 0
M  V30 657 C 66.7695 -2.61576 -2.22335 0
M  V30 658 C 65.8555 -3.78213 -1.91874 0
M  V30 659 N 66.2465 -4.88344 -1.31733 0
M  V30 660 C 64.5445 -3.8694 -2.21796 0
M  V30 661 C 65.2455 -5.69462 -1.1869 0
M  V30 662 N 64.2215 -5.16771 -1.68666 0
M  V30 663 H 68.0235 -2.90029 -0.475441 0
M  V30 664 H 65.5375 -1.61581 -0.162911 0
M  V30 665 H 67.5345 -2.95651 -2.93932 0
M  V30 666 H 66.1945 -1.80465 -2.69931 0
M  V30 667 H 67.2055 -5.08335 -0.990729 0
M  V30 668 H 63.8825 -3.16757 -2.71977 0
M  V30 669 H 65.2725 -6.68023 -0.720793 0
M  V30 670 N 67.9926 0.231505 -1.5589 0
M  V30 671 C 69.2696 0.981096 -1.69215 0
M  V30 672 C 69.6496 2.02799 -0.586164 0
M  V30 673 O 68.9976 2.24823 0.408253 0
M  V30 674 C 69.2076 1.60054 -3.10135 0
M  V30 675 C 70.5556 2.09658 -3.69227 0
M  V30 676 O 71.5796 1.69967 -3.13033 0
M  V30 677 O 70.4386 2.8258 -4.67772 0
M  V30 678 H 67.5326 0.457653 -0.688827 0
M  V30 679 H 70.0786 0.224073 -1.68214 0
M  V30 680 H 68.8506 0.844105 -3.82087 0
M  V30 681 H 68.4736 2.42336 -3.15212 0
M  V30 682 N 69.4707 1.49531 0.497807 0
M  V30 683 C 70.4337 1.65916 1.58128 0
M  V30 684 C 71.4337 0.530825 1.51786 0
M  V30 685 O 72.6237 0.797342 1.54881 0
M  V30 686 C 69.7557 1.65951 2.9778 0
M  V30 687 H 70.9487 2.62556 1.44929 0
M  V30 688 H 68.5017 1.38611 0.722275 0
M  V30 689 H 69.2367 0.709065 3.16453 0
M  V30 690 H 69.0217 2.47897 3.03792 0
M  V30 691 H 70.5117 1.80673 3.76493 0
M  V30 692 N 70.9488 -0.749086 1.3866 0
M  V30 693 C 71.8788 -1.8764 1.38973 0
M  V30 694 C 72.8598 -1.68178 0.255004 0
M  V30 695 O 74.0448 -1.88704 0.458754 0
M  V30 696 C 71.1748 -3.25222 1.21851 0
M  V30 697 C 70.1288 -3.59295 2.32575 0
M  V30 698 C 69.4548 -4.95663 2.00555 0
M  V30 699 C 70.7548 -3.63709 3.7485 0
M  V30 700 H 72.4488 -1.87635 2.3331 0
M  V30 701 H 69.9948 -0.901329 1.12303 0
M  V30 702 H 71.9478 -4.03746 1.20695 0
M  V30 703 H 70.6718 -3.25719 0.239775 0
M  V30 704 H 69.3308 -2.83093 2.32925 0
M  V30 705 H 68.9788 -4.92724 1.01154 0
M  V30 706 H 68.6788 -5.19429 2.74714 0
M  V30 707 H 70.2028 -5.7656 2.01024 0
M  V30 708 H 71.6168 -4.32338 3.76506 0
M  V30 709 H 70.0138 -3.98986 4.48252 0
M  V30 710 H 71.0838 -2.63834 4.06841 0
M  V30 711 N 72.4269 -1.23603 -0.977757 0
M  V30 712 C 73.6729 -1.07129 -1.72195 0
M  V30 713 C 74.0059 0.390501 -1.90233 0
M  V30 714 O 73.2809 1.28902 -1.45653 0
M  V30 715 C 73.5639 -1.80031 -3.11867 0
M  V30 716 C 73.4169 -3.33899 -3.01383 0
M  V30 717 C 74.7359 -1.56492 -4.11337 0
M  V30 718 H 71.8549 -0.390571 -0.624999 0
M  V30 719 H 74.4969 -1.52142 -1.13811 0
M  V30 720 H 72.6469 -1.41768 -3.6171 0
M  V30 721 H 74.3189 -3.81699 -2.59043 0
M  V30 722 H 72.5619 -3.62796 -2.37827 0
M  V30 723 H 73.2329 -3.801 -4.00285 0
M  V30 724 H 75.7089 -1.89757 -3.70313 0
M  V30 725 H 74.5849 -2.09973 -5.07151 0
M  V30 726 H 74.8459 -0.500874 -4.39254 0
M  V30 727 N 73.905 1.17692 -1.04816 0
M  V30 728 C 74.853 2.23632 -0.63966 0
M  V30 729 C 75.847 1.6601 0.337219 0
M  V30 730 O 77.053 1.78844 0.203693 0
M  V30 731 H 73.428 0.727949 -0.188665 0
M  V30 732 H 75.399 2.55387 -1.54337 0
M  V30 733 C 74.148 3.4769 -0.0264051 0
M  V30 734 H 73.471 3.92331 -0.769164 0
M  V30 735 H 74.911 4.23418 0.222098 0
M  V30 736 C 73.37 3.13807 1.22584 0
M  V30 737 O 73.9 3.28236 2.31569 0
M  V30 738 N 72.106 2.68065 1.12202 0
M  V30 739 H 71.653 2.56525 0.235133 0
M  V30 740 H 71.611 2.45767 1.96076 0
M  V30 741 N 75.3831 0.828654 1.34056 0
M  V30 742 C 76.2931 0.256725 2.33191 0
M  V30 743 C 77.3091 -0.611898 1.62886 0
M  V30 744 O 78.4851 -0.51844 1.94613 0
M  V30 745 C 75.5501 -0.567238 3.42028 0
M  V30 746 C 74.6111 0.324458 4.28072 0
M  V30 747 C 73.8441 -0.460274 5.31712 0
M  V30 748 O 74.0671 -1.693 5.44696 0
M  V30 749 O 73.0011 0.160391 6.01686 0
M  V30 750 H 76.8271 1.07739 2.83947 0
M  V30 751 H 74.4121 0.59093 1.37217 0
M  V30 752 H 76.2941 -1.03582 4.08471 0
M  V30 753 H 74.9691 -1.36513 2.93506 0
M  V30 754 H 73.8761 0.840659 3.64532 0
M  V30 755 H 75.2091 1.08685 4.8005 0
M  V30 756 N 76.8612 -1.46375 0.584142 0
M  V30 757 C 78.1382 -1.956 0.0033388 0
M  V30 758 C 78.5182 -1.52679 -1.45782 0
M  V30 759 O 77.8662 -0.77816 -2.14842 0
M  V30 760 C 78.0762 -3.48551 0.176891 0
M  V30 761 C 79.4242 -4.24576 0.0454609 0
M  V30 762 O 80.4482 -3.56043 0.105801 0
M  V30 763 O 79.3072 -5.46427 -0.0890376 0
M  V30 764 H 76.4012 -0.825547 -0.0490066 0
M  V30 765 H 78.9472 -1.56652 0.65256 0
M  V30 766 H 77.7192 -3.72683 1.1926 0
M  V30 767 H 77.3422 -3.94332 -0.508695 0
M  V30 768 N 78.3393 -0.321999 -1.54275 0
M  V30 769 C 79.5793 0.281657 -2.0245 0
M  V30 770 C 79.9433 1.49468 -1.20513 0
M  V30 771 O 81.1443 2.17109 -1.58484 0
M  V30 772 C 79.4153 0.609014 -3.52173 0
M  V30 773 S 80.9743 1.19255 -4.22284 0
M  V30 774 H 77.7923 0.0852825 -0.705867 0
M  V30 775 H 80.3943 -0.454758 -1.90137 0
M  V30 776 H 79.0983 -0.281982 -4.0943 0
M  V30 777 H 78.6293 1.37567 -3.68563 0
M  V30 778 H 80.6443 2.47944 -4.29812 0
M  V30 779 N 79.8174 1.5752 -0.0501392 0
M  V30 780 C 80.7474 2.14502 0.922566 0
M  V30 781 C 81.7284 1.06642 1.3252 0
M  V30 782 O 82.9134 1.34577 1.4001 0
M  V30 783 C 80.0434 2.68916 2.19776 0
M  V30 784 C 78.9974 3.8175 1.93523 0
M  V30 785 C 78.3234 4.22677 3.27487 0
M  V30 786 C 79.6234 5.06932 1.25765 0
M  V30 787 H 81.3174 2.9603 0.447952 0
M  V30 788 H 78.8634 1.42401 0.214024 0
M  V30 789 H 80.8164 3.07419 2.88222 0
M  V30 790 H 79.5404 1.84578 2.69441 0
M  V30 791 H 78.1994 3.43718 1.27489 0
M  V30 792 H 77.8474 3.35291 3.74952 0
M  V30 793 H 77.5474 4.98725 3.1072 0
M  V30 794 H 79.0714 4.63779 3.97166 0
M  V30 795 H 80.4854 5.42888 1.84244 0
M  V30 796 H 78.8824 5.88116 1.19328 0
M  V30 797 H 79.9524 4.84337 0.233536 0
M  V30 798 N 81.2955 -0.223234 1.56011 0
M  V30 799 C 82.2425 -1.27664 1.92277 0
M  V30 800 C 83.2125 -1.46659 0.779763 0
M  V30 801 O 84.3975 -1.60256 1.03551 0
M  V30 802 C 81.5375 -2.62234 2.24338 0
M  V30 803 C 80.6505 -2.51051 3.51564 0
M  V30 804 C 79.7855 -3.78133 3.7308 0
M  V30 805 C 78.8245 -3.61665 4.93827 0
M  V30 806 N 77.9615 -4.80693 5.11741 0
M  V30 807 H 82.8015 -0.960358 2.82101 0
M  V30 808 H 80.3385 -0.462901 1.39627 0
M  V30 809 H 82.2965 -3.40596 2.40936 0
M  V30 810 H 80.9265 -2.91961 1.3769 0
M  V30 811 H 79.9785 -1.64132 3.43169 0
M  V30 812 H 81.2905 -2.34803 4.40079 0
M  V30 813 H 80.4445 -4.64938 3.89766 0
M  V30 814 H 79.1835 -3.97304 2.82844 0
M  V30 815 H 78.1885 -2.73244 4.77093 0
M  V30 816 H 79.4135 -3.43966 5.85546 0
M  V30 817 H 77.3595 -5.00181 4.24446 0
M  V30 818 H 77.2765 -4.67165 5.94384 0
M  V30 819 H 78.5445 -5.6893 5.3286 0
M  V30 820 N 82.7736 -1.49793 -0.48987 0
M  V30 821 C 83.7036 -1.70201 -1.59856 0
M  V30 822 C 84.6846 -0.55076 -1.60937 0
M  V30 823 O 85.8696 -0.787841 -1.77501 0
M  V30 824 C 82.9996 -1.77882 -2.98287 0
M  V30 825 C 81.9536 -2.92907 -3.12073 0
M  V30 826 C 81.2796 -2.85712 -4.51965 0
M  V30 827 C 82.5796 -4.3369 -2.91051 0
M  V30 828 H 84.2736 -2.63025 -1.43032 0
M  V30 829 H 81.8196 -1.26574 -0.686664 0
M  V30 830 H 83.7726 -1.90744 -3.75759 0
M  V30 831 H 82.4966 -0.816653 -3.16225 0
M  V30 832 H 81.1556 -2.79665 -2.37029 0
M  V30 833 H 80.8036 -1.8738 -4.66795 0
M  V30 834 H 80.5036 -3.62921 -4.62128 0
M  V30 835 H 82.0276 -3.00598 -5.31482 0
M  V30 836 H 83.4416 -4.47555 -3.58284 0
M  V30 837 H 81.8386 -5.12205 -3.12675 0
M  V30 838 H 82.9086 -4.47362 -1.87071 0
M  V30 839 N 84.2517 0.741722 -1.39055 0
M  V30 840 C 85.2147 1.83733 -1.37021 0
M  V30 841 C 86.2147 1.58542 -0.268534 0
M  V30 842 O 87.4047 1.66067 -0.526076 0
M  V30 843 C 84.5367 3.2141 -1.13617 0
M  V30 844 H 85.7297 1.86941 -2.34506 0
M  V30 845 H 83.2827 0.944676 -1.24521 0
M  V30 846 H 84.0177 3.23865 -0.167863 0
M  V30 847 H 83.8027 3.4109 -1.93391 0
M  V30 848 H 85.2927 4.01477 -1.14918 0
M  V30 849 N 85.7298 1.2412 0.971189 0
M  V30 850 C 87.1458 1.00584 1.23916 0
M  V30 851 C 87.3458 -0.287481 1.99439 0
M  V30 852 O 86.4018 -1.00454 2.31658 0
M  V30 853 C 87.7148 2.21864 2.0297 0
M  V30 854 C 89.2628 2.26452 2.16076 0
M  V30 855 C 89.7378 3.47343 2.98524 0
M  V30 856 N 91.2288 3.47639 3.06107 0
M  V30 857 C 91.9638 4.37837 3.70251 0
M  V30 858 N 91.4598 5.38286 4.36142 0
M  V30 859 N 93.2528 4.25558 3.67228 0
M  V30 860 H 85.4038 2.07236 0.465499 0
M  V30 861 H 87.6668 0.909236 0.268315 0
M  V30 862 H 87.3728 3.15771 1.54861 0
M  V30 863 H 87.2468 2.23698 3.03709 0
M  V30 864 H 89.6338 1.33078 2.6339 0
M  V30 865 H 89.7148 2.28645 1.14696 0
M  V30 866 H 89.3588 4.41029 2.51905 0
M  V30 867 H 89.2888 3.42393 4.00093 0
M  V30 868 H 91.7798 2.74966 2.59233 0
M  V30 869 H 92.0928 6.03352 4.82894 0
M  V30 870 H 90.4378 5.42176 4.34822 0
M  V30 871 H 93.6288 3.46322 3.14927 0
M  V30 872 H 93.8018 4.96054 4.16935 0
M  V30 873 N 87.2079 -1.17134 1.05439 0
M  V30 874 C 88.6189 -1.69084 0.791676 0
M  V30 875 C 88.9699 -1.83822 -0.685839 0
M  V30 876 O 88.0949 -1.52757 -1.53278 0
M  V30 877 C 88.6899 -3.07119 1.4305 0
M  V30 878 C 87.2489 -3.56225 1.21577 0
M  V30 879 C 86.3959 -2.32421 1.51247 0
M  V30 880 H 89.3469 -1.01617 1.219 0
M  V30 881 H 89.3679 -3.71087 0.84112 0
M  V30 882 H 88.8799 -2.9636 2.50584 0
M  V30 883 H 86.9809 -3.72257 0.159787 0
M  V30 884 H 87.0939 -4.38837 1.92246 0
M  V30 885 H 85.4579 -2.3701 0.932653 0
M  V30 886 H 86.2409 -2.24268 2.5992 0
M  V30 887 N 88.686 -0.835752 -1.33615 0
M  V30 888 C 89.934 -0.429109 -1.97492 0
M  V30 889 C 90.255 1.01433 -1.66543 0
M  V30 890 O 89.525 1.70611 -0.962744 0
M  V30 891 H 88.105 -0.155686 -0.730596 0
M  V30 892 H 90.767 -1.06802 -1.63031 0
M  V30 893 H 89.863 -0.55861 -3.0706 0
M  V30 894 N 90.1641 1.46063 -0.591896 0
M  V30 895 C 91.1271 2.28854 0.125973 0
M  V30 896 C 92.1271 1.38903 0.810107 0
M  V30 897 O 93.3171 1.61186 0.66066 0
M  V30 898 C 90.4491 3.19526 1.1881 0
M  V30 899 H 91.6421 2.93802 -0.601717 0
M  V30 900 H 89.1951 1.52325 -0.350254 0
M  V30 901 H 89.9301 2.59345 1.94707 0
M  V30 902 H 89.7151 3.85766 0.701936 0
M  V30 903 H 91.2051 3.81817 1.69132 0
M  V30 904 N 91.6422 0.330177 1.54103 0
M  V30 905 C 92.8882 -0.270806 2.00984 0
M  V30 906 C 93.2212 -1.51265 1.21789 0
M  V30 907 O 92.4962 -1.92142 0.301927 0
M  V30 908 C 92.7792 -0.598339 3.55094 0
M  V30 909 C 92.6322 0.654674 4.4501 0
M  V30 910 C 93.9512 -1.41334 4.16789 0
M  V30 911 H 91.0702 -0.0969531 0.730595 0
M  V30 912 H 93.7122 0.448066 1.84641 0
M  V30 913 H 91.8622 -1.21078 3.69151 0
M  V30 914 H 93.5342 1.29285 4.42813 0
M  V30 915 H 91.7772 1.28224 4.14416 0
M  V30 916 H 92.4482 0.380944 5.50684 0
M  V30 917 H 94.9242 -0.895597 4.06347 0
M  V30 918 H 93.8002 -1.61127 5.24718 0
M  V30 919 H 94.0612 -2.41146 3.70541 0
M  V30 920 N 93.1203 -1.57491 0.0584922 0
M  V30 921 C 94.0503 -2.14988 -0.911178 0
M  V30 922 C 95.0313 -1.07343 -1.31952 0
M  V30 923 O 96.2163 -1.35318 -1.39294 0
M  V30 924 C 93.3463 -2.70078 -2.18347 0
M  V30 925 C 92.3003 -3.82771 -1.91495 0
M  V30 926 C 91.6263 -4.24408 -3.25241 0
M  V30 927 C 92.9263 -5.07592 -1.23075 0
M  V30 928 H 94.6203 -2.96263 -0.432246 0
M  V30 929 H 92.1663 -1.42512 -0.206469 0
M  V30 930 H 94.1193 -3.08943 -2.86587 0
M  V30 931 H 92.8433 -1.86005 -2.68458 0
M  V30 932 H 91.5023 -3.44389 -1.25664 0
M  V30 933 H 91.1503 -3.37275 -3.73168 0
M  V30 934 H 90.8503 -5.00366 -3.08071 0
M  V30 935 H 92.3743 -4.65879 -3.94701 0
M  V30 936 H 93.7883 -5.43857 -1.81362 0
M  V30 937 H 92.1853 -5.88741 -1.16207 0
M  V30 938 H 93.2553 -4.84454 -0.207847 0
M  V30 939 N 94.5984 0.214957 -1.56127 0
M  V30 940 C 95.5084 1.28727 -1.96129 0
M  V30 941 C 96.5244 1.50916 -0.866044 0
M  V30 942 O 97.7004 1.63918 -1.17016 0
M  V30 943 C 94.7654 2.61569 -2.27558 0
M  V30 944 C 93.8264 2.47625 -3.50685 0
M  V30 945 C 93.0594 3.74132 -3.80606 0
M  V30 946 O 93.2824 4.77438 -3.12104 0
M  V30 947 O 92.2164 3.70849 -4.74083 0
M  V30 948 H 96.0424 0.977855 -2.87527 0
M  V30 949 H 93.6274 0.418358 -1.43423 0
M  V30 950 H 95.5094 3.40012 -2.48938 0
M  V30 951 H 94.1844 2.92178 -1.39332 0
M  V30 952 H 93.0914 1.67361 -3.34576 0
M  V30 953 H 94.4244 2.21954 -4.39315 0
M  V30 954 N 96.0765 1.50051 0.48192 0
M  V30 955 C 97.3235 1.60498 1.23477 0
M  V30 956 C 97.6515 0.300331 1.92167 0
M  V30 957 O 96.9065 -0.713094 1.82246 0
M  V30 958 C 97.2055 2.72717 2.30998 0
M  V30 959 C 96.8715 4.13572 1.79636 0
M  V30 960 C 95.5335 4.519 1.65348 0
M  V30 961 C 97.8855 5.01649 1.41412 0
M  V30 962 C 95.2135 5.76057 1.11244 0
M  V30 963 C 97.5655 6.26343 0.887538 0
M  V30 964 C 96.2295 6.63483 0.731207 0
M  V30 965 H 95.4995 0.587303 0.451836 0
M  V30 966 H 98.1465 1.83948 0.532468 0
M  V30 967 H 96.4515 2.43312 3.07094 0
M  V30 968 H 98.1485 2.78006 2.88988 0
M  V30 969 H 94.7385 3.83329 1.91721 0
M  V30 970 H 98.9225 4.72679 1.51289 0
M  V30 971 H 94.1785 6.03516 0.978686 0
M  V30 972 H 98.3525 6.93958 0.582654 0
M  V30 973 H 95.9795 7.59568 0.309806 0
M  V30 974 N 97.5546 -0.734337 1.39446 0
M  V30 975 C 98.5176 -1.83004 1.37994 0
M  V30 976 C 99.5176 -1.58397 0.276938 0
M  V30 977 O 100.708 -1.65785 0.534875 0
M  V30 978 C 97.8396 -3.20802 1.1532 0
M  V30 979 H 99.0326 -1.85694 2.35494 0
M  V30 980 H 96.5856 -0.938059 1.25021 0
M  V30 981 H 97.3206 -3.23772 0.185036 0
M  V30 982 H 97.1056 -3.4006 1.95197 0
M  V30 983 H 98.5956 -4.00862 1.17046 0
M  V30 984 N 99.0327 -1.24633 -0.964593 0
M  V30 985 C 100.281 -1.08573 -1.70459 0
M  V30 986 C 100.602 0.375655 -1.91347 0
M  V30 987 O 99.8717 1.26779 -1.49345 0
M  V30 988 H 98.4517 -0.398784 -0.631649 0
M  V30 989 H 101.114 -1.56601 -1.16026 0
M  V30 990 H 100.21 -1.58623 -2.68785 0
M  V30 991 N 100.511 1.16574 -1.06058 0
M  V30 992 C 101.458 2.20883 -0.669263 0
M  V30 993 C 102.428 1.62729 0.332918 0
M  V30 994 O 103.613 1.895 0.222346 0
M  V30 995 C 100.753 3.45049 -0.0593572 0
M  V30 996 C 99.8658 4.17458 -1.11143 0
M  V30 997 C 99.0008 5.29135 -0.467916 0
M  V30 998 C 98.0398 5.93343 -1.50369 0
M  V30 999 N 97.1768 6.96516 -0.883706 0
M  V30 1000 H 102.017 2.53709 -1.5632 0
M  V30 1001 H 99.5538 1.24616 -0.781625 0
M  V30 1002 H 101.512 4.16033 0.311771 0
M  V30 1003 H 100.142 3.12781 0.797992 0
M  V30 1004 H 99.1938 3.45101 -1.60029 0
M  V30 1005 H 100.506 4.61307 -1.89731 0
M  V30 1006 H 99.6598 6.06684 -0.0436871 0
M  V30 1007 H 98.3988 4.86443 0.349864 0
M  V30 1008 H 97.4038 5.14517 -1.93784 0
M  V30 1009 H 98.6288 6.38114 -2.32352 0
M  V30 1010 H 96.5748 6.55943 -0.086595 0
M  V30 1011 H 96.4918 7.38723 -1.607 0
M  V30 1012 H 97.7598 7.77993 -0.484543 0
M  V30 1013 N 101.989 0.842826 1.3317 0
M  V30 1014 C 103.405 0.531128 1.50503 0
M  V30 1015 C 103.605 -0.940734 1.78192 0
M  V30 1016 O 102.661 -1.72436 1.84451 0
M  V30 1017 C 103.974 1.40789 2.65705 0
M  V30 1018 C 105.522 1.40708 2.79589 0
M  V30 1019 C 105.997 2.26878 3.97857 0
M  V30 1020 N 107.488 2.24609 4.05099 0
M  V30 1021 C 108.223 2.88019 4.95815 0
M  V30 1022 N 107.719 3.60496 5.9162 0
M  V30 1023 N 109.512 2.77469 4.88843 0
M  V30 1024 H 101.663 1.79557 1.1346 0
M  V30 1025 H 103.926 0.766267 0.558156 0
M  V30 1026 H 103.632 2.454 2.51936 0
M  V30 1027 H 103.506 1.08677 3.61205 0
M  V30 1028 H 105.893 0.368668 2.92788 0
M  V30 1029 H 105.974 1.76829 1.84838 0
M  V30 1030 H 105.618 3.3078 3.85418 0
M  V30 1031 H 105.548 1.88096 4.91861 0
M  V30 1032 H 108.039 1.71906 3.36536 0
M  V30 1033 H 108.352 4.06076 6.57512 0
M  V30 1034 H 106.697 3.64604 5.91683 0
M  V30 1035 H 109.888 2.20406 4.12963 0
M  V30 1036 H 110.061 3.2717 5.59342 0
M  V30 1037 N 103.467 -1.45747 0.599634 0
M  V30 1038 C 104.715 -2.01893 0.0915472 0
M  V30 1039 C 105.036 -1.47155 -1.27946 0
M  V30 1040 O 104.306 -0.66273 -1.84349 0
M  V30 1041 H 102.886 -0.746363 0.0308524 0
M  V30 1042 H 105.548 -1.78645 0.779237 0
M  V30 1043 H 104.644 -3.1208 0.0353086 0
M  V30 1044 N 104.945 -0.338344 -1.53925 0
M  V30 1045 C 106.193 0.259245 -2.0043 0
M  V30 1046 C 106.514 1.51484 -1.22791 0
M  V30 1047 O 105.784 1.93037 -0.33368 0
M  V30 1048 H 104.364 0.0987845 -0.740439 0
M  V30 1049 H 107.026 -0.458302 -1.89435 0
M  V30 1050 H 106.122 0.505334 -3.07982 0
M  V30 1051 N 106.423 1.57458 -0.0668435 0
M  V30 1052 C 107.37 2.12439 0.902122 0
M  V30 1053 C 108.34 1.03565 1.2986 0
M  V30 1054 O 109.525 1.312 1.38532 0
M  V30 1055 C 106.665 2.6865 2.16614 0
M  V30 1056 C 105.778 3.91663 1.82274 0
M  V30 1057 C 104.913 4.36134 3.0325 0
M  V30 1058 C 103.952 5.51808 2.64904 0
M  V30 1059 N 103.089 5.9126 3.78624 0
M  V30 1060 H 107.929 2.94934 0.426382 0
M  V30 1061 H 105.466 1.4575 0.198819 0
M  V30 1062 H 107.424 2.99346 2.90599 0
M  V30 1063 H 106.054 1.88928 2.61737 0
M  V30 1064 H 105.106 3.6746 0.983719 0
M  V30 1065 H 106.418 4.75693 1.50059 0
M  V30 1066 H 105.572 4.68465 3.85519 0
M  V30 1067 H 104.311 3.50948 3.38655 0
M  V30 1068 H 103.316 5.19133 1.81055 0
M  V30 1069 H 104.541 6.38722 2.30675 0
M  V30 1070 H 102.487 5.09024 4.138 0
M  V30 1071 H 102.404 6.70018 3.5016 0
M  V30 1072 H 103.672 6.28212 4.61486 0
M  V30 1073 N 107.901 -0.206675 1.56239 0
M  V30 1074 C 109.312 -0.772383 1.69974 0
M  V30 1075 C 109.663 -1.84353 0.671436 0
M  V30 1076 O 108.788 -2.15695 -0.174491 0
M  V30 1077 C 109.383 -1.40779 3.08167 0
M  V30 1078 C 107.942 -1.92072 3.23706 0
M  V30 1079 C 107.089 -0.786347 2.65917 0
M  V30 1080 H 110.04 0.0182223 1.5869 0
M  V30 1081 H 110.061 -2.27696 3.04852 0
M  V30 1082 H 109.573 -0.627958 3.82986 0
M  V30 1083 H 107.674 -2.7281 2.53782 0
M  V30 1084 H 107.787 -2.09046 4.31087 0
M  V30 1085 H 106.151 -1.1976 2.24788 0
M  V30 1086 H 106.934 -0.0189416 3.43295 0
M  V30 1087 N 109.379 -1.50304 -0.473955 0
M  V30 1088 C 110.604 -1.65175 -1.25427 0
M  V30 1089 C 111.029 -0.333673 -1.85117 0
M  V30 1090 O 110.387 0.702114 -1.67153 0
M  V30 1091 C 110.435 -2.74295 -2.34082 0
M  V30 1092 O 109.539 -2.35349 -3.38651 0
M  V30 1093 H 108.88 -0.551944 -0.369126 0
M  V30 1094 H 111.41 -1.96662 -0.564364 0
M  V30 1095 H 111.42 -2.97285 -2.79438 0
M  V30 1096 H 110.095 -3.69959 -1.90008 0
M  V30 1097 H 108.672 -2.22794 -2.99027 0
M  V30 1098 N 110.857 0.726932 -1.39834 0
M  V30 1099 C 112.268 1.30558 -1.3346 0
M  V30 1100 C 112.619 1.962 -0.00273003 0
M  V30 1101 O 111.744 1.96826 0.899371 0
M  V30 1102 C 112.339 2.37404 -2.41713 0
M  V30 1103 C 110.898 2.90921 -2.38835 0
M  V30 1104 C 110.045 1.64578 -2.2318 0
M  V30 1105 H 112.996 0.523862 -1.49804 0
M  V30 1106 H 113.017 3.17984 -2.08966 0
M  V30 1107 H 112.529 1.89599 -3.38635 0
M  V30 1108 H 110.63 3.42985 -1.45575 0
M  V30 1109 H 110.743 3.43487 -3.33997 0
M  V30 1110 H 109.107 1.89219 -1.70494 0
M  V30 1111 H 109.89 1.18814 -3.22084 0
M  V30 1112 N 112.336 1.25143 0.95797 0
M  V30 1113 C 113.283 1.05235 2.05412 0
M  V30 1114 C 114.253 -0.0374561 1.66058 0
M  V30 1115 O 115.438 0.119073 1.90428 0
M  V30 1116 C 112.578 0.673589 3.38462 0
M  V30 1117 C 111.691 1.8379 3.90954 0
M  V30 1118 C 110.826 1.40381 5.12315 0
M  V30 1119 C 109.865 2.53746 5.57027 0
M  V30 1120 N 109.002 2.11136 6.69601 0
M  V30 1121 H 113.842 1.99048 2.21774 0
M  V30 1122 H 111.379 0.991277 1.08683 0
M  V30 1123 H 113.337 0.434964 4.14926 0
M  V30 1124 H 111.967 -0.227554 3.21997 0
M  V30 1125 H 111.019 2.18992 3.11041 0
M  V30 1126 H 112.331 2.68937 4.20089 0
M  V30 1127 H 111.485 1.12464 5.96185 0
M  V30 1128 H 110.224 0.523015 4.84887 0
M  V30 1129 H 109.229 2.82412 4.71724 0
M  V30 1130 H 110.454 3.42398 5.86464 0
M  V30 1131 H 108.4 1.25468 6.4389 0
M  V30 1132 H 108.317 2.89832 6.98236 0
M  V30 1133 H 109.585 1.86385 7.56889 0
M  V30 1134 N 113.814 -1.1601 1.06675 0
M  V30 1135 C 114.746 -2.20115 0.638921 0
M  V30 1136 C 115.759 -1.59916 -0.305057 0
M  V30 1137 O 116.948 -1.78245 -0.0954446 0
M  V30 1138 C 114.048 -3.38798 -0.0830083 0
M  V30 1139 C 113.221 -4.2855 0.875426 0
M  V30 1140 C 112.28 -5.25849 0.192042 0
M  V30 1141 O 111.306 -5.63102 0.830921 0
M  V30 1142 N 112.508 -5.70648 -1.06493 0
M  V30 1143 H 115.273 -2.57439 1.53444 0
M  V30 1144 H 112.834 -1.31057 0.950557 0
M  V30 1145 H 114.826 -4.00936 -0.550685 0
M  V30 1146 H 113.396 -2.99947 -0.880386 0
M  V30 1147 H 112.616 -3.63617 1.52238 0
M  V30 1148 H 113.904 -4.85393 1.52548 0
M  V30 1149 H 113.302 -5.42482 -1.60405 0
M  V30 1150 H 111.859 -6.34859 -1.47641 0
M  V30 1151 N 115.292 -0.849877 -1.32721 0
M  V30 1152 C 116.708 -0.539102 -1.50219 0
M  V30 1153 C 116.908 0.931271 -1.78689 0
M  V30 1154 O 115.964 1.71455 -1.85363 0
M  V30 1155 C 117.277 -1.42196 -2.64954 0
M  V30 1156 C 118.825 -1.42189 -2.78839 0
M  V30 1157 C 119.3 -2.28985 -3.96648 0
M  V30 1158 N 120.791 -2.26754 -4.03902 0
M  V30 1159 C 121.526 -2.90644 -4.94281 0
M  V30 1160 N 121.022 -3.63629 -5.897 0
M  V30 1161 N 122.815 -2.80057 -4.87365 0
M  V30 1162 H 114.966 -1.80156 -1.12506 0
M  V30 1163 H 117.229 -0.769217 -0.554085 0
M  V30 1164 H 116.935 -2.46733 -2.50631 0
M  V30 1165 H 116.809 -1.10591 -3.60624 0
M  V30 1166 H 119.196 -0.38419 -2.92588 0
M  V30 1167 H 119.277 -1.77807 -1.83898 0
M  V30 1168 H 118.921 -3.32819 -3.83658 0
M  V30 1169 H 118.851 -1.90702 -4.90857 0
M  V30 1170 H 121.342 -1.73688 -3.3562 0
M  V30 1171 H 121.655 -4.09558 -6.55349 0
M  V30 1172 H 120 -3.67737 -5.89741 0
M  V30 1173 H 123.191 -2.22593 -4.11789 0
M  V30 1174 H 123.364 -3.30132 -5.57599 0
M  V30 1175 N 116.77 1.45427 -0.607355 0
M  V30 1176 C 118.047 1.9557 -0.0344566 0
M  V30 1177 C 118.427 1.54979 1.43334 0
M  V30 1178 O 117.775 0.812241 2.13576 0
M  V30 1179 C 117.985 3.48226 -0.232321 0
M  V30 1180 C 119.333 4.2445 -0.113001 0
M  V30 1181 O 120.357 3.55829 -0.162431 0
M  V30 1182 O 119.216 5.465 0.00209442 0
M  V30 1183 H 116.31 0.826222 0.0358667 0
M  V30 1184 H 118.856 1.55594 -0.6774 0
M  V30 1185 H 117.628 3.70739 -1.25174 0
M  V30 1186 H 117.251 3.95092 0.445896 0
M  V30 1187 N 118.248 0.346503 1.53744 0
M  V30 1188 C 119.497 -0.250122 2.00143 0
M  V30 1189 C 119.81 -1.51418 1.23822 0
M  V30 1190 O 121.016 -2.18823 1.60713 0
M  V30 1191 C 119.472 -0.496252 3.56462 0
M  V30 1192 C 119.08 0.752077 4.41642 0
M  V30 1193 C 120.824 -1.05157 4.11269 0
M  V30 1194 C 118.731 0.476583 5.89477 0
M  V30 1195 H 117.661 -0.0972409 0.747703 0
M  V30 1196 H 120.312 0.46229 1.77581 0
M  V30 1197 H 118.694 -1.26944 3.75102 0
M  V30 1198 H 119.868 1.5266 4.34778 0
M  V30 1199 H 118.183 1.22925 3.97842 0
M  V30 1200 H 120.78 -1.27269 5.19333 0
M  V30 1201 H 121.123 -2.00799 3.64672 0
M  V30 1202 H 121.656 -0.339019 3.96353 0
M  V30 1203 H 118.395 1.4028 6.40314 0
M  V30 1204 H 117.915 -0.259794 5.99237 0
M  V30 1205 H 119.594 0.0949315 6.4693 0
M  V30 1206 N 119.726 -1.57421 0.075193 0
M  V30 1207 C 120.951 -1.98364 -0.605515 0
M  V30 1208 C 121.376 -0.953383 -1.62149 0
M  V30 1209 O 120.734 0.0806053 -1.81121 0
M  V30 1210 C 120.782 -3.38332 -1.24756 0
M  V30 1211 O 119.886 -3.37959 -2.36342 0
M  V30 1212 H 119.227 -0.645553 -0.155428 0
M  V30 1213 H 121.757 -2.04044 0.150714 0
M  V30 1214 H 121.767 -3.75591 -1.5936 0
M  V30 1215 H 120.442 -4.12846 -0.503129 0
M  V30 1216 H 119.019 -3.12474 -2.03506 0
M  V30 1217 N 121.204 0.198386 -1.56346 0
M  V30 1218 C 122.134 1.24865 -1.9731 0
M  V30 1219 C 123.115 1.47651 -0.844576 0
M  V30 1220 O 124.3 1.59444 -1.10866 0
M  V30 1221 C 121.43 2.59358 -2.30977 0
M  V30 1222 C 120.384 2.5119 -3.46537 0
M  V30 1223 C 119.71 3.89926 -3.65871 0
M  V30 1224 C 121.01 2.03977 -4.80823 0
M  V30 1225 H 122.704 0.908252 -2.85291 0
M  V30 1226 H 120.25 0.435462 -1.37258 0
M  V30 1227 H 122.203 3.33011 -2.58228 0
M  V30 1228 H 120.927 2.95132 -1.39874 0
M  V30 1229 H 119.586 1.79993 -3.19371 0
M  V30 1230 H 119.234 4.23046 -2.72105 0
M  V30 1231 H 118.934 3.85336 -4.4361 0
M  V30 1232 H 120.458 4.65205 -3.95495 0
M  V30 1233 H 121.872 2.67386 -5.07127 0
M  V30 1234 H 120.269 2.10397 -5.62008 0
M  V30 1235 H 121.339 0.992861 -4.74626 0
M  V30 1236 N 122.682 1.50554 0.465978 0
M  V30 1237 C 124.098 1.38093 0.800154 0
M  V30 1238 C 124.298 0.440988 1.96615 0
M  V30 1239 O 123.354 -0.114499 2.5224 0
M  V30 1240 C 124.667 2.79565 1.10742 0
M  V30 1241 C 126.215 2.88516 1.21357 0
M  V30 1242 C 126.69 4.30833 1.55393 0
M  V30 1243 N 128.181 4.33807 1.62375 0
M  V30 1244 C 128.916 5.40927 1.90225 0
M  V30 1245 N 128.412 6.58247 2.16062 0
M  V30 1246 N 130.205 5.28376 1.9177 0
M  V30 1247 H 122.356 2.10237 -0.302366 0
M  V30 1248 H 124.619 0.945203 -0.0727746 0
M  V30 1249 H 124.325 3.50208 0.323661 0
M  V30 1250 H 124.199 3.17125 2.04234 0
M  V30 1251 H 126.586 2.1809 1.98799 0
M  V30 1252 H 126.667 2.54492 0.258321 0
M  V30 1253 H 126.311 5.01799 0.784889 0
M  V30 1254 H 126.241 4.62347 2.52076 0
M  V30 1255 H 128.732 3.49212 1.44427 0
M  V30 1256 H 129.045 7.3569 2.36601 0
M  V30 1257 H 127.39 6.61413 2.13444 0
M  V30 1258 H 130.581 4.35715 1.71085 0
M  V30 1259 H 130.754 6.11944 2.13139 0
M  V30 1260 N 124.16 -0.719506 1.40217 0
M  V30 1261 C 125.09 -1.8465 1.42922 0
M  V30 1262 C 126.071 -1.67599 0.29062 0
M  V30 1263 O 127.256 -1.87688 0.498677 0
M  V30 1264 C 124.386 -3.22565 1.28722 0
M  V30 1265 C 123.34 -3.54281 2.40144 0
M  V30 1266 C 122.666 -4.91298 2.11023 0
M  V30 1267 C 123.966 -3.55676 3.82481 0
M  V30 1268 H 125.66 -1.82644 2.37237 0
M  V30 1269 H 123.206 -0.877305 1.1419 0
M  V30 1270 H 125.159 -4.01095 1.29232 0
M  V30 1271 H 123.883 -3.25137 0.308811 0
M  V30 1272 H 122.542 -2.78088 2.38877 0
M  V30 1273 H 122.19 -4.90468 1.11582 0
M  V30 1274 H 121.89 -5.13485 2.8567 0
M  V30 1275 H 123.414 -5.72166 2.13209 0
M  V30 1276 H 124.828 -4.24254 3.85592 0
M  V30 1277 H 123.225 -3.89388 4.56614 0
M  V30 1278 H 124.295 -2.55144 4.12346 0
M  V30 1279 N 125.638 -1.25649 -0.95132 0
M  V30 1280 C 126.884 -1.10757 -1.69884 0
M  V30 1281 C 127.217 0.350061 -1.91019 0
M  V30 1282 O 126.492 1.25783 -1.48354 0
M  V30 1283 C 126.775 -1.86606 -3.07978 0
M  V30 1284 C 126.628 -3.40217 -2.94232 0
M  V30 1285 C 127.947 -1.65182 -4.07925 0
M  V30 1286 H 125.066 -0.40374 -0.616574 0
M  V30 1287 H 127.708 -1.54521 -1.10558 0
M  V30 1288 H 125.858 -1.49409 -3.58621 0
M  V30 1289 H 127.53 -3.87108 -2.50889 0
M  V30 1290 H 125.773 -3.67759 -2.30078 0
M  V30 1291 H 126.444 -3.88505 -3.92133 0
M  V30 1292 H 128.92 -1.9757 -3.66204 0
M  V30 1293 H 127.796 -2.20683 -5.02583 0
M  V30 1294 H 128.057 -0.593933 -4.38092 0
M  V30 1295 N 127.117 1.15442 -1.07289 0
M  V30 1296 C 128.027 2.23786 -0.704057 0
M  V30 1297 C 129.043 1.7166 0.284413 0
M  V30 1298 O 130.219 2.00972 0.131205 0
M  V30 1299 C 127.284 3.46535 -0.106792 0
M  V30 1300 C 126.345 4.13654 -1.14842 0
M  V30 1301 C 125.578 5.30544 -0.57956 0
M  V30 1302 O 125.801 5.67187 0.604585 0
M  V30 1303 O 124.735 5.87154 -1.32414 0
M  V30 1304 H 128.561 2.57664 -1.60757 0
M  V30 1305 H 126.146 1.23152 -0.845803 0
M  V30 1306 H 128.028 4.20804 0.224048 0
M  V30 1307 H 126.703 3.14407 0.770049 0
M  V30 1308 H 125.61 3.4131 -1.5316 0
M  V30 1309 H 126.943 4.49861 -1.99714 0
M  V30 1310 N 128.595 0.856903 1.32268 0
M  V30 1311 C 129.525 0.31858 2.31316 0
M  V30 1312 C 130.506 -0.583487 1.59779 0
M  V30 1313 O 131.691 -0.503259 1.87566 0
M  V30 1314 C 128.821 -0.491979 3.43798 0
M  V30 1315 C 127.775 0.315849 4.26833 0
M  V30 1316 C 127.101 -0.619586 5.31098 0
M  V30 1317 C 128.401 1.54282 4.98993 0
M  V30 1318 H 130.095 1.14621 2.76591 0
M  V30 1319 H 127.641 0.552613 1.32974 0
M  V30 1320 H 129.594 -0.879012 4.1213 0
M  V30 1321 H 128.318 -1.35299 2.97257 0
M  V30 1322 H 126.977 0.684664 3.6015 0
M  V30 1323 H 126.625 -1.47751 4.8081 0
M  V30 1324 H 126.325 -0.0830621 5.87541 0
M  V30 1325 H 127.849 -1.00375 6.02293 0
M  V30 1326 H 129.263 1.22796 5.59995 0
M  V30 1327 H 127.66 2.01745 5.65172 0
M  V30 1328 H 128.73 2.30285 4.26728 0
M  V30 1329 N 130.073 -1.45103 0.615059 0
M  V30 1330 C 131.036 -2.29025 -0.0895485 0
M  V30 1331 C 132.036 -1.40174 -0.787906 0
M  V30 1332 O 133.226 -1.62217 -0.634933 0
M  V30 1333 C 130.358 -3.21376 -1.13711 0
M  V30 1334 H 131.551 -2.92807 0.648382 0
M  V30 1335 H 129.104 -1.51749 0.374444 0
M  V30 1336 H 129.839 -2.6241 -1.90556 0
M  V30 1337 H 129.624 -3.86834 -0.640475 0
M  V30 1338 H 131.114 -3.84459 -1.63036 0
M  V30 1339 N 131.551 -0.354651 -1.53558 0
M  V30 1340 C 132.967 -0.00315426 -1.596 0
M  V30 1341 C 133.167 1.47741 -1.37021 0
M  V30 1342 O 132.223 2.23759 -1.16996 0
M  V30 1343 C 133.536 -0.44929 -2.97325 0
M  V30 1344 C 135.084 -0.402578 -3.104 0
M  V30 1345 C 135.559 -0.824355 -4.5052 0
M  V30 1346 N 137.05 -0.778979 -4.56603 0
M  V30 1347 C 137.785 -1.07715 -5.63192 0
M  V30 1348 N 137.281 -1.44405 -6.77583 0
M  V30 1349 N 139.074 -1.00066 -5.53121 0
M  V30 1350 H 131.225 -1.31893 -1.66487 0
M  V30 1351 H 133.488 -0.538388 -0.780284 0
M  V30 1352 H 133.194 -1.48202 -3.1895 0
M  V30 1353 H 133.068 0.169772 -3.76818 0
M  V30 1354 H 135.455 0.621004 -2.88492 0
M  V30 1355 H 135.536 -1.05699 -2.32941 0
M  V30 1356 H 135.18 -1.846 -4.73165 0
M  V30 1357 H 135.11 -0.147304 -5.26394 0
M  V30 1358 H 137.601 -0.508528 -3.74463 0
M  V30 1359 H 137.914 -1.65612 -7.54846 0
M  V30 1360 H 136.259 -1.4826 -6.79002 0
M  V30 1361 H 139.45 -0.713293 -4.62633 0
M  V30 1362 H 139.623 -1.23638 -6.36096 0
M  V30 1363 N 133.029 1.57378 -0.0835403 0
M  V30 1364 C 133.992 2.12252 0.864959 0
M  V30 1365 C 134.992 1.04916 1.21858 0
M  V30 1366 O 136.182 1.30853 1.14991 0
M  V30 1367 C 133.314 2.63358 2.16461 0
M  V30 1368 H 134.507 2.97371 0.388676 0
M  V30 1369 H 132.06 1.55423 0.165317 0
M  V30 1370 H 132.795 1.81727 2.686 0
M  V30 1371 H 132.58 3.41826 1.92087 0
M  V30 1372 H 134.07 3.05847 2.84337 0
M  V30 1373 N 134.507 -0.190092 1.56449 0
M  V30 1374 C 135.755 -0.907908 1.80559 0
M  V30 1375 C 136.076 -1.83583 0.657438 0
M  V30 1376 O 135.346 -1.93203 -0.323924 0
M  V30 1377 H 133.926 -0.338247 0.666032 0
M  V30 1378 H 136.588 -0.194403 1.93928 0
M  V30 1379 H 135.684 -1.49604 2.73907 0
M  V30 1380 N 135.985 -1.50799 -0.457987 0
M  V30 1381 C 136.933 -1.71162 -1.575 0
M  V30 1382 C 137.927 -0.577592 -1.59249 0
M  V30 1383 O 139.133 -0.758443 -1.63241 0
M  V30 1384 H 135.508 -0.540468 -0.522875 0
M  V30 1385 H 137.479 -2.64837 -1.37492 0
M  V30 1386 C 136.228 -1.83496 -2.95338 0
M  V30 1387 H 135.551 -2.70153 -2.94716 0
M  V30 1388 H 136.991 -2.01765 -3.72917 0
M  V30 1389 C 135.45 -0.589694 -3.31699 0
M  V30 1390 O 135.98 0.265163 -4.00824 0
M  V30 1391 N 134.186 -0.439845 -2.87252 0
M  V30 1392 H 133.733 -1.13655 -2.31172 0
M  V30 1393 H 133.691 0.392159 -3.11945 0
M  V30 1394 N 137.463 0.71206 -1.40597 0
M  V30 1395 C 138.879 1.02058 -1.22704 0
M  V30 1396 C 139.079 2.01228 -0.104729 0
M  V30 1397 O 138.135 2.4674 0.53624 0
M  V30 1398 C 139.448 1.56094 -2.57012 0
M  V30 1399 C 140.996 1.6806 -2.64054 0
M  V30 1400 C 141.471 2.25501 -3.9864 0
M  V30 1401 N 142.962 2.32882 -4.004 0
M  V30 1402 C 143.697 2.78317 -5.01325 0
M  V30 1403 N 143.193 3.23478 -6.12645 0
M  V30 1404 N 144.986 2.77733 -4.88693 0
M  V30 1405 H 137.137 0.0547896 -2.12329 0
M  V30 1406 H 139.4 0.0869027 -0.944008 0
M  V30 1407 H 139.106 0.906865 -3.39807 0
M  V30 1408 H 138.98 2.54564 -2.78347 0
M  V30 1409 H 141.367 2.32583 -1.81629 0
M  V30 1410 H 141.448 0.681802 -2.46546 0
M  V30 1411 H 141.092 1.61598 -4.81506 0
M  V30 1412 H 141.022 3.26102 -4.13479 0
M  V30 1413 H 143.513 2.00991 -3.20017 0
M  V30 1414 H 143.826 3.56725 -6.85542 0
M  V30 1415 H 142.171 3.21429 -6.16205 0
M  V30 1416 H 145.362 2.4179 -4.00818 0
M  V30 1417 H 145.535 3.12826 -5.67489 0
M  V30 1418 N 138.941 1.26152 0.944643 0
M  V30 1419 C 140.187 1.11657 1.69294 0
M  V30 1420 C 140.52 -0.339926 1.91202 0
M  V30 1421 O 139.795 -1.24994 1.49019 0
M  V30 1422 C 140.078 1.88236 3.06984 0
M  V30 1423 C 139.931 3.41772 2.92424 0
M  V30 1424 C 141.25 1.67343 4.07043 0
M  V30 1425 H 138.369 0.407004 0.614424 0
M  V30 1426 H 141.011 1.55106 1.09737 0
M  V30 1427 H 139.161 1.51308 3.57824 0
M  V30 1428 H 140.833 3.88433 2.48832 0
M  V30 1429 H 139.076 3.68974 2.28124 0
M  V30 1430 H 139.747 3.90579 3.90067 0
M  V30 1431 H 142.223 1.99509 3.65151 0
M  V30 1432 H 141.099 2.23346 5.01406 0
M  V30 1433 H 141.36 0.617158 4.37771 0
M  V30 1434 N 140.419 -1.14872 1.07899 0
M  V30 1435 C 141.349 -2.2193 0.725887 0
M  V30 1436 C 142.33 -1.67622 -0.28927 0
M  V30 1437 O 143.515 -1.93533 -0.160787 0
M  V30 1438 C 140.645 -3.47061 0.128856 0
M  V30 1439 C 139.599 -4.14363 1.07178 0
M  V30 1440 C 138.925 -5.33636 0.337229 0
M  V30 1441 C 140.225 -4.63492 2.40775 0
M  V30 1442 H 141.919 -2.51724 1.62097 0
M  V30 1443 H 139.465 -1.20991 0.780838 0
M  V30 1444 H 141.418 -4.21199 -0.130147 0
M  V30 1445 H 140.142 -3.16617 -0.80134 0
M  V30 1446 H 138.801 -3.42173 1.3158 0
M  V30 1447 H 138.449 -4.99449 -0.596606 0
M  V30 1448 H 138.149 -5.79609 0.965788 0
M  V30 1449 H 139.673 -6.10539 0.0861567 0
M  V30 1450 H 141.087 -5.2913 2.20669 0
M  V30 1451 H 139.484 -5.20148 2.99276 0
M  V30 1452 H 140.554 -3.78834 3.02676 0
M  V30 1453 N 141.898 -0.863906 -1.31812 0
M  V30 1454 C 143.314 -0.555004 -1.49639 0
M  V30 1455 C 143.514 0.912266 -1.79666 0
M  V30 1456 O 142.57 1.69479 -1.87171 0
M  V30 1457 C 143.883 -1.44998 -2.63431 0
M  V30 1458 C 145.431 -1.45138 -2.77316 0
M  V30 1459 C 145.906 -2.33179 -3.94197 0
M  V30 1460 N 147.397 -2.31025 -4.01474 0
M  V30 1461 C 148.132 -2.95871 -4.9117 0
M  V30 1462 N 147.628 -3.69863 -5.8581 0
M  V30 1463 N 149.421 -2.85211 -4.84367 0
M  V30 1464 H 141.572 -1.81339 -1.10589 0
M  V30 1465 H 143.835 -0.77505 -0.545895 0
M  V30 1466 H 143.541 -2.49377 -2.48 0
M  V30 1467 H 143.415 -1.14409 -3.59431 0
M  V30 1468 H 145.802 -0.415201 -2.92164 0
M  V30 1469 H 145.883 -1.79747 -1.82001 0
M  V30 1470 H 145.527 -3.3687 -3.80107 0
M  V30 1471 H 145.457 -1.95897 -4.88807 0
M  V30 1472 H 147.948 -1.77238 -3.33759 0
M  V30 1473 H 148.261 -4.16486 -6.50968 0
M  V30 1474 H 146.606 -3.73971 -5.85808 0
M  V30 1475 H 149.797 -2.26948 -4.09405 0
M  V30 1476 H 149.97 -3.36027 -5.54066 0
M  V30 1477 N 143.376 1.44774 -0.622745 0
M  V30 1478 C 144.306 2.33382 0.0741861 0
M  V30 1479 C 145.287 1.47719 0.843387 0
M  V30 1480 O 146.472 1.76458 0.810934 0
M  V30 1481 C 143.602 3.30663 1.06204 0
M  V30 1482 C 142.556 4.26079 0.405037 0
M  V30 1483 C 141.882 5.13165 1.5022 0
M  V30 1484 C 143.182 5.1781 -0.683414 0
M  V30 1485 H 144.876 2.91905 -0.665713 0
M  V30 1486 H 142.422 1.40363 -0.321587 0
M  V30 1487 H 144.375 3.9153 1.55827 0
M  V30 1488 H 143.099 2.70331 1.83272 0
M  V30 1489 H 141.758 3.66532 -0.0704683 0
M  V30 1490 H 141.406 4.49191 2.26355 0
M  V30 1491 H 141.106 5.77812 1.06803 0
M  V30 1492 H 142.63 5.76902 2.00041 0
M  V30 1493 H 144.044 5.72661 -0.270631 0
M  V30 1494 H 142.441 5.91015 -1.04023 0
M  V30 1495 H 143.511 4.59326 -1.55395 0
M  V30 1496 N 144.854 0.36279 1.53368 0
M  V30 1497 C 145.801 -0.485008 2.25646 0
M  V30 1498 C 146.771 -1.07982 1.2621 0
M  V30 1499 O 147.956 -1.11284 1.54986 0
M  V30 1500 C 145.096 -1.62023 3.04701 0
M  V30 1501 C 144.209 -1.05086 4.19024 0
M  V30 1502 C 143.344 -2.15496 4.85525 0
M  V30 1503 C 142.383 -1.5601 5.91884 0
M  V30 1504 N 141.52 -2.60241 6.52088 0
M  V30 1505 H 146.36 0.137864 2.97681 0
M  V30 1506 H 143.897 0.0798061 1.46883 0
M  V30 1507 H 145.855 -2.28887 3.48807 0
M  V30 1508 H 144.485 -2.2138 2.34927 0
M  V30 1509 H 143.537 -0.27259 3.79422 0
M  V30 1510 H 144.849 -0.575926 4.95464 0
M  V30 1511 H 144.003 -2.90186 5.32801 0
M  V30 1512 H 142.742 -2.66341 4.08551 0
M  V30 1513 H 141.747 -0.798338 5.43973 0
M  V30 1514 H 142.972 -1.05994 6.70777 0
M  V30 1515 H 140.918 -3.10304 5.77968 0
M  V30 1516 H 140.835 -2.17426 7.24059 0
M  V30 1517 H 142.103 -3.34641 7.04014 0
M  V30 1518 N 146.332 -1.57332 0.0918853 0
M  V30 1519 C 147.58 -1.93853 -0.571446 0
M  V30 1520 C 147.901 -0.974212 -1.6892 0
M  V30 1521 O 147.171 -0.0257254 -1.95883 0
M  V30 1522 H 145.751 -0.715666 -0.214082 0
M  V30 1523 H 148.413 -1.94287 0.154464 0
M  V30 1524 H 147.509 -2.96191 -0.983729 0
M  V30 1525 N 147.81 0.181792 -1.56548 0
M  V30 1526 C 149.058 0.89832 -1.81038 0
M  V30 1527 C 149.379 1.83232 -0.667164 0
M  V30 1528 O 148.649 1.93372 0.313673 0
M  V30 1529 H 147.229 0.33471 -0.667816 0
M  V30 1530 H 149.891 0.184116 -1.94028 0
M  V30 1531 H 148.987 1.4815 -2.74696 0
M  V30 1532 N 149.288 1.51039 0.449983 0
M  V30 1533 C 150.565 1.53612 1.21089 0
M  V30 1534 C 150.945 0.292997 2.09057 0
M  V30 1535 O 150.293 -0.72259 2.16774 0
M  V30 1536 C 150.503 2.84337 2.0237 0
M  V30 1537 C 151.851 3.35807 2.59843 0
M  V30 1538 O 152.875 2.85802 2.12593 0
M  V30 1539 O 151.734 4.23029 3.45989 0
M  V30 1540 H 148.828 0.617057 0.550608 0
M  V30 1541 H 151.374 1.63344 0.460082 0
M  V30 1542 H 150.146 3.66278 1.37681 0
M  V30 1543 H 149.769 2.77708 2.84542 0
M  V30 1544 N 150.766 -0.704594 1.40972 0
M  V30 1545 C 152.177 -1.28418 1.3552 0
M  V30 1546 C 152.528 -1.96171 0.0339434 0
M  V30 1547 O 151.653 -1.98231 -0.867944 0
M  V30 1548 C 152.248 -2.33528 2.45459 0
M  V30 1549 C 150.807 -2.87085 2.43433 0
M  V30 1550 C 149.954 -1.61007 2.2577 0
M  V30 1551 H 152.905 -0.499963 1.50619 0
M  V30 1552 H 152.926 -3.14619 2.13998 0
M  V30 1553 H 152.438 -1.84187 3.41609 0
M  V30 1554 H 150.539 -3.40626 1.51013 0
M  V30 1555 H 150.652 -3.3813 3.39419 0
M  V30 1556 H 149.016 -1.86482 1.73483 0
M  V30 1557 H 149.799 -1.13675 3.23933 0
M  V30 1558 N 152.244 -1.26651 -0.937939 0
M  V30 1559 C 153.491 -1.12387 -1.6845 0
M  V30 1560 C 153.819 0.332208 -1.91642 0
M  V30 1561 O 153.074 1.2602 -1.49725 0
M  V30 1562 C 153.373 -1.84168 -3.06295 0
M  V30 1563 C 153.039 -3.34056 -3.02849 0
M  V30 1564 C 151.701 -3.74942 -3.01616 0
M  V30 1565 C 154.053 -4.29741 -2.9491 0
M  V30 1566 C 151.381 -5.09894 -2.90215 0
M  V30 1567 C 153.733 -5.64738 -2.8505 0
M  V30 1568 C 152.397 -6.0493 -2.82162 0
M  V30 1569 H 151.667 -0.411252 -0.616403 0
M  V30 1570 H 154.314 -1.57134 -1.09459 0
M  V30 1571 H 152.619 -1.319 -3.6893 0
M  V30 1572 H 154.316 -1.70569 -3.62915 0
M  V30 1573 H 150.906 -3.01534 -3.0459 0
M  V30 1574 H 155.09 -3.99133 -2.94969 0
M  V30 1575 H 150.346 -5.40194 -2.86358 0
M  V30 1576 H 154.52 -6.38561 -2.77872 0
M  V30 1577 H 152.147 -7.09457 -2.73084 0
M  V30 1578 N 153.722 1.14298 -1.08507 0
M  V30 1579 C 154.968 1.85633 -0.816581 0
M  V30 1580 C 155.301 1.82784 0.656021 0
M  V30 1581 O 154.576 1.25926 1.48233 0
M  V30 1582 C 154.859 3.34223 -1.34041 0
M  V30 1583 C 154.712 3.45639 -2.87843 0
M  V30 1584 C 156.031 4.29356 -0.9665 0
M  V30 1585 H 153.15 0.67402 -0.298104 0
M  V30 1586 H 155.792 1.34214 -1.34487 0
M  V30 1587 H 153.942 3.78144 -0.89104 0
M  V30 1588 H 155.614 3.10498 -3.41158 0
M  V30 1589 H 153.857 2.86817 -3.25451 0
M  V30 1590 H 154.528 4.50089 -3.19569 0
M  V30 1591 H 157.004 3.93457 -1.35391 0
M  V30 1592 H 155.88 5.3178 -1.3602 0
M  V30 1593 H 156.141 4.41919 0.126362 0
M  V30 1594 N 155.201 0.870884 1.31352 0
M  V30 1595 C 156.448 0.482273 1.96673 0
M  V30 1596 C 156.776 -0.965638 1.68836 0
M  V30 1597 O 156.031 -1.69514 0.977937 0
M  V30 1598 C 156.33 0.687157 3.50732 0
M  V30 1599 C 155.996 2.108 3.9859 0
M  V30 1600 C 154.658 2.49656 4.1137 0
M  V30 1601 C 157.01 3.03459 4.23748 0
M  V30 1602 C 154.338 3.80412 4.46659 0
M  V30 1603 C 156.69 4.3373 4.60501 0
M  V30 1604 C 155.354 4.725 4.71487 0
M  V30 1605 H 154.624 0.176476 0.719679 0
M  V30 1606 H 157.271 1.10405 1.56471 0
M  V30 1607 H 155.576 -0.0177476 3.91796 0
M  V30 1608 H 157.273 0.366284 3.99324 0
M  V30 1609 H 153.863 1.79633 3.8914 0
M  V30 1610 H 158.047 2.74665 4.13368 0
M  V30 1611 H 153.303 4.1021 4.53362 0
M  V30 1612 H 157.477 5.05578 4.78919 0
M  V30 1613 H 155.104 5.73859 4.98588 0
M  V30 1614 N 156.679 -1.44442 0.630414 0
M  V30 1615 C 157.927 -2.01653 0.134351 0
M  V30 1616 C 158.248 -1.49836 -1.24796 0
M  V30 1617 O 157.518 -0.701684 -1.82902 0
M  V30 1618 H 156.098 -0.74554 0.0466769 0
M  V30 1619 H 158.76 -1.76952 0.816955 0
M  V30 1620 H 157.856 -3.11935 0.101498 0
M  V30 1621 N 158.157 -0.370918 -1.53173 0
M  V30 1622 C 159.573 -0.0200818 -1.59587 0
M  V30 1623 C 159.773 1.46279 -1.38581 0
M  V30 1624 O 158.829 2.22506 -1.19363 0
M  V30 1625 C 160.142 -0.4808 -2.96831 0
M  V30 1626 C 161.69 -0.435477 -3.09956 0
M  V30 1627 C 162.165 -0.872092 -4.4962 0
M  V30 1628 N 163.656 -0.827364 -4.55751 0
M  V30 1629 C 164.391 -1.13683 -5.62018 0
M  V30 1630 N 163.887 -1.51584 -6.76014 0
M  V30 1631 N 165.68 -1.05927 -5.52029 0
M  V30 1632 H 157.831 -1.33652 -1.65079 0
M  V30 1633 H 160.094 -0.546634 -0.774529 0
M  V30 1634 H 159.8 -1.51577 -3.1736 0
M  V30 1635 H 159.674 0.129796 -3.76977 0
M  V30 1636 H 162.061 0.590371 -2.89134 0
M  V30 1637 H 162.142 -1.08164 -2.31806 0
M  V30 1638 H 161.786 -1.89608 -4.71181 0
M  V30 1639 H 161.716 -0.203127 -5.26208 0
M  V30 1640 H 164.207 -0.548216 -3.73902 0
M  V30 1641 H 164.52 -1.73609 -7.53047 0
M  V30 1642 H 162.865 -1.55454 -6.77391 0
M  V30 1643 H 166.056 -0.762321 -4.61851 0
M  V30 1644 H 166.229 -1.30378 -6.34749 0
M  V30 1645 N 159.635 1.57281 -0.100228 0
M  V30 1646 C 160.883 1.94153 0.561157 0
M  V30 1647 C 161.204 0.983157 1.68401 0
M  V30 1648 O 160.474 0.0361132 1.95867 0
M  V30 1649 H 159.054 0.716791 0.210283 0
M  V30 1650 H 161.716 1.94202 -0.164765 0
M  V30 1651 H 160.812 2.96709 0.968008 0
M  V30 1652 N 161.113 -0.173488 1.56642 0
M  V30 1653 C 162.361 -0.888706 1.81512 0
M  V30 1654 C 162.682 -1.82875 0.676872 0
M  V30 1655 O 161.952 -1.93536 -0.303414 0
M  V30 1656 H 160.532 -0.331164 0.669582 0
M  V30 1657 H 163.194 -0.173823 1.94123 0
M  V30 1658 H 162.29 -1.46691 2.75478 0
M  V30 1659 N 162.591 -1.51276 -0.441967 0
M  V30 1660 C 163.501 -1.75092 -1.56141 0
M  V30 1661 C 164.517 -0.634963 -1.62001 0
M  V30 1662 O 165.693 -0.916686 -1.79329 0
M  V30 1663 C 162.758 -1.86666 -2.92158 0
M  V30 1664 C 161.819 -3.10506 -2.96453 0
M  V30 1665 C 161.052 -3.21519 -4.25982 0
M  V30 1666 O 161.275 -2.38586 -5.18105 0
M  V30 1667 O 160.209 -4.14465 -4.36466 0
M  V30 1668 H 164.035 -2.70044 -1.38961 0
M  V30 1669 H 161.62 -1.35722 -0.624499 0
M  V30 1670 H 163.502 -1.96292 -3.72891 0
M  V30 1671 H 162.177 -0.949014 -3.09476 0
M  V30 1672 H 161.084 -3.06363 -2.14692 0
M  V30 1673 H 162.417 -4.01945 -2.84079 0
M  V30 1674 N 164.069 0.697108 -1.41344 0
M  V30 1675 C 164.979 1.84088 -1.45427 0
M  V30 1676 C 165.995 1.70545 -0.34501 0
M  V30 1677 O 167.171 1.92488 -0.592492 0
M  V30 1678 C 164.236 3.20056 -1.33286 0
M  V30 1679 C 163.297 3.45718 -2.54514 0
M  V30 1680 C 162.53 4.75199 -2.42944 0
M  V30 1681 O 162.753 5.51579 -1.45318 0
M  V30 1682 O 161.687 5.0161 -3.32672 0
M  V30 1683 H 165.513 1.836 -2.41919 0
M  V30 1684 H 163.098 0.849966 -1.22866 0
M  V30 1685 H 164.98 4.01236 -1.28794 0
M  V30 1686 H 163.655 3.2123 -0.39909 0
M  V30 1687 H 162.562 2.64474 -2.64583 0
M  V30 1688 H 163.895 3.49356 -3.46715 0
M  V30 1689 N 165.547 1.27147 0.931209 0
M  V30 1690 C 166.51 1.09615 2.01289 0
M  V30 1691 C 167.51 0.0412581 1.60747 0
M  V30 1692 O 168.7 0.285545 1.71844 0
M  V30 1693 C 165.832 0.669447 3.34262 0
M  V30 1694 H 167.025 2.05662 2.18273 0
M  V30 1695 H 164.578 1.09885 1.11153 0
M  V30 1696 H 165.313 -0.292572 3.22978 0
M  V30 1697 H 165.098 1.43127 3.65044 0
M  V30 1698 H 166.588 0.568921 4.13706 0
M  V30 1699 N 167.025 -1.13721 1.09112 0
M  V30 1700 C 167.955 -2.21148 0.749385 0
M  V30 1701 C 168.936 -1.6792 -0.271475 0
M  V30 1702 O 170.121 -1.93693 -0.140251 0
M  V30 1703 C 167.251 -3.46905 0.165659 0
M  V30 1704 C 166.205 -4.13203 1.11567 0
M  V30 1705 C 165.531 -5.33248 0.393809 0
M  V30 1706 C 166.831 -4.60912 2.45678 0
M  V30 1707 H 168.525 -2.4999 1.64758 0
M  V30 1708 H 166.071 -1.20156 0.793626 0
M  V30 1709 H 168.024 -4.21313 -0.085466 0
M  V30 1710 H 166.748 -3.17449 -0.767714 0
M  V30 1711 H 165.407 -3.40758 1.35202 0
M  V30 1712 H 165.055 -5.00054 -0.543599 0
M  V30 1713 H 164.755 -5.78552 1.02721 0
M  V30 1714 H 166.279 -6.10413 0.150908 0
M  V30 1715 H 167.693 -5.26759 2.26269 0
M  V30 1716 H 166.09 -5.16944 3.04776 0
M  V30 1717 H 167.16 -3.75603 3.06677 0
M  V30 1718 N 168.503 -0.877838 -1.30888 0
M  V30 1719 C 169.731 -0.507414 -2.00581 0
M  V30 1720 C 170.146 0.902216 -1.65848 0
M  V30 1721 O 169.503 1.59225 -0.891831 0
M  V30 1722 C 169.554 -0.664162 -3.55347 0
M  V30 1723 O 169.275 -2.01829 -3.8884 0
M  V30 1724 C 170.776 -0.295787 -4.42312 0
M  V30 1725 H 167.996 -0.196866 -0.641471 0
M  V30 1726 H 170.54 -1.18117 -1.66939 0
M  V30 1727 H 168.695 -0.0378619 -3.87381 0
M  V30 1728 H 169.109 -2.03174 -4.8355 0
M  V30 1729 H 170.583 -0.456388 -5.5011 0
M  V30 1730 H 171.06 0.765663 -4.32475 0
M  V30 1731 H 171.666 -0.898113 -4.15709 0
M  V30 1732 N 169.982 1.44106 -0.638065 0
M  V30 1733 C 170.912 2.33448 0.0494287 0
M  V30 1734 C 171.893 1.48606 0.827672 0
M  V30 1735 O 173.078 1.77308 0.792173 0
M  V30 1736 C 170.208 3.31771 1.02691 0
M  V30 1737 C 169.162 4.26485 0.359823 0
M  V30 1738 C 168.488 5.14729 1.44769 0
M  V30 1739 C 169.788 5.17056 -0.738296 0
M  V30 1740 H 171.482 2.91183 -0.696636 0
M  V30 1741 H 169.028 1.40014 -0.336456 0
M  V30 1742 H 170.981 3.93161 1.51666 0
M  V30 1743 H 169.705 2.7226 1.80395 0
M  V30 1744 H 168.364 3.66437 -0.10934 0
M  V30 1745 H 168.012 4.51566 2.21578 0
M  V30 1746 H 167.712 5.78913 1.00668 0
M  V30 1747 H 169.236 5.78991 1.93911 0
M  V30 1748 H 170.65 5.72342 -0.331354 0
M  V30 1749 H 169.047 5.89879 -1.10286 0
M  V30 1750 H 170.117 4.57652 -1.60258 0
M  V30 1751 N 171.46 0.379036 1.52974 0
M  V30 1752 C 172.706 -0.206727 2.01744 0
M  V30 1753 C 173.039 -1.47314 1.26539 0
M  V30 1754 O 172.314 -1.91084 0.362903 0
M  V30 1755 C 172.597 -0.485066 3.56818 0
M  V30 1756 C 172.45 0.795919 4.42702 0
M  V30 1757 C 173.769 -1.28003 4.21074 0
M  V30 1758 H 170.888 -0.0736607 0.73331 0
M  V30 1759 H 173.53 0.506581 1.83122 0
M  V30 1760 H 171.68 -1.09272 3.72816 0
M  V30 1761 H 173.352 1.43307 4.38476 0
M  V30 1762 H 171.595 1.41344 4.10127 0
M  V30 1763 H 172.266 0.555947 5.49193 0
M  V30 1764 H 174.742 -0.765867 4.08991 0
M  V30 1765 H 173.618 -1.44352 5.29579 0
M  V30 1766 H 173.879 -2.29236 3.78026 0
M  V30 1767 N 172.938 -1.57226 0.108567 0
M  V30 1768 C 173.848 -2.18292 -0.859401 0
M  V30 1769 C 174.864 -1.15612 -1.30038 0
M  V30 1770 O 176.04 -1.48039 -1.36552 0
M  V30 1771 C 173.105 -2.762 -2.09558 0
M  V30 1772 C 172.166 -3.93881 -1.70752 0
M  V30 1773 C 171.399 -4.49018 -2.88477 0
M  V30 1774 O 171.622 -4.03068 -4.036 0
M  V30 1775 O 170.556 -5.39852 -2.66164 0
M  V30 1776 H 174.382 -3.01441 -0.369769 0
M  V30 1777 H 171.967 -1.48945 -0.1165 0
M  V30 1778 H 173.849 -3.13156 -2.81978 0
M  V30 1779 H 172.524 -1.96089 -2.57548 0
M  V30 1780 H 171.431 -3.61713 -0.954714 0
M  V30 1781 H 172.764 -4.75396 -1.27513 0
M  V30 1782 N 174.416 0.165178 -1.56732 0
M  V30 1783 C 175.366 1.20917 -1.93295 0
M  V30 1784 C 176.35 1.39488 -0.801985 0
M  V30 1785 O 177.542 1.41356 -1.06525 0
M  V30 1786 C 174.671 2.54718 -2.3016 0
M  V30 1787 C 173.757 2.39815 -3.49785 0
M  V30 1788 N 174.148 1.94637 -4.66851 0
M  V30 1789 C 172.446 2.70623 -3.54513 0
M  V30 1790 C 173.147 1.92344 -5.4898 0
M  V30 1791 N 172.123 2.34978 -4.9019 0
M  V30 1792 H 175.925 0.851675 -2.81289 0
M  V30 1793 H 173.439 0.373399 -1.58049 0
M  V30 1794 H 175.436 3.30165 -2.54552 0
M  V30 1795 H 174.096 2.91265 -1.43508 0
M  V30 1796 H 175.107 1.6488 -4.90953 0
M  V30 1797 H 171.784 3.11167 -2.78354 0
M  V30 1798 H 173.174 1.5906 -6.52801 0
M  V30 1799 N 175.894 1.51508 0.433938 0
M  V30 1800 C 176.826 1.69266 1.54537 0
M  V30 1801 C 177.839 0.573276 1.52373 0
M  V30 1802 O 179.028 0.847698 1.57087 0
M  V30 1803 C 176.128 1.69524 2.93453 0
M  V30 1804 C 175.301 2.98101 3.20085 0
M  V30 1805 C 174.36 2.90502 4.38742 0
M  V30 1806 O 173.386 3.64442 4.3723 0
M  V30 1807 N 174.588 2.06586 5.42496 0
M  V30 1808 H 177.353 2.65145 1.39708 0
M  V30 1809 H 174.914 1.49437 0.622922 0
M  V30 1810 H 176.906 1.62004 3.70859 0
M  V30 1811 H 175.476 0.812245 3.01863 0
M  V30 1812 H 174.696 3.19464 2.30947 0
M  V30 1813 H 175.984 3.83207 3.34708 0
M  V30 1814 H 175.382 1.45896 5.46563 0
M  V30 1815 H 173.939 2.04943 6.18742 0
M  V30 1816 N 177.372 -0.689602 1.41712 0
M  V30 1817 C 178.618 -1.45181 1.41599 0
M  V30 1818 C 178.951 -1.94181 0.0270081 0
M  V30 1819 O 178.226 -1.6993 -0.946265 0
M  V30 1820 C 178.509 -2.65945 2.42787 0
M  V30 1821 C 178.362 -2.22672 3.90816 0
M  V30 1822 C 179.681 -3.68149 2.41151 0
M  V30 1823 H 176.8 -0.526576 0.515642 0
M  V30 1824 H 179.442 -0.784947 1.73028 0
M  V30 1825 H 177.592 -3.2284 2.16116 0
M  V30 1826 H 179.264 -1.71058 4.28412 0
M  V30 1827 H 177.507 -1.54394 4.05395 0
M  V30 1828 H 178.178 -3.0935 4.57172 0
M  V30 1829 H 180.654 -3.2094 2.64834 0
M  V30 1830 H 179.53 -4.50248 3.13955 0
M  V30 1831 H 179.791 -4.18259 1.43221 0
M  V30 1832 N 178.85 -1.27639 -0.924453 0
M  V30 1833 C 180.261 -1.12834 -1.48746 0
M  V30 1834 C 180.612 0.285505 -1.94112 0
M  V30 1835 O 179.737 1.17874 -1.81479 0
M  V30 1836 C 180.332 -2.04217 -2.70334 0
M  V30 1837 C 178.891 -1.93509 -3.22848 0
M  V30 1838 C 178.038 -1.96583 -1.95577 0
M  V30 1839 H 180.989 -1.40484 -0.738233 0
M  V30 1840 H 181.01 -1.59989 -3.4523 0
M  V30 1841 H 180.522 -3.07111 -2.37285 0
M  V30 1842 H 178.623 -0.936131 -3.60649 0
M  V30 1843 H 178.736 -2.79917 -3.88823 0
M  V30 1844 H 177.1 -1.4085 -2.12211 0
M  V30 1845 H 177.883 -3.01137 -1.64837 0
M  V30 1846 N 180.328 1.1314 -1.09713 0
M  V30 1847 C 181.575 1.84484 -0.834987 0
M  V30 1848 C 181.903 1.83689 0.639418 0
M  V30 1849 O 181.158 1.2724 1.4869 0
M  V30 1850 C 181.457 3.32167 -1.3191 0
M  V30 1851 C 181.123 3.53139 -2.80363 0
M  V30 1852 C 179.785 3.58571 -3.20905 0
M  V30 1853 C 182.137 3.60866 -3.76065 0
M  V30 1854 C 179.465 3.69267 -4.55916 0
M  V30 1855 C 181.817 3.73089 -5.10869 0
M  V30 1856 C 180.481 3.76775 -5.50996 0
M  V30 1857 H 179.751 0.675073 -0.305544 0
M  V30 1858 H 182.398 1.33554 -1.37243 0
M  V30 1859 H 180.703 3.85469 -0.701517 0
M  V30 1860 H 182.4 3.85821 -1.09284 0
M  V30 1861 H 178.99 3.49569 -2.47991 0
M  V30 1862 H 183.174 3.55946 -3.45855 0
M  V30 1863 H 178.43 3.70388 -4.86438 0
M  V30 1864 H 182.604 3.78011 -5.84877 0
M  V30 1865 H 180.231 3.84815 -6.55608 0
M  V30 1866 N 181.806 0.884767 1.30421 0
M  V30 1867 C 183.222 0.57874 1.48737 0
M  V30 1868 C 183.422 -0.883567 1.81095 0
M  V30 1869 O 182.478 -1.6648 1.89844 0
M  V30 1870 C 183.791 1.49171 2.61091 0
M  V30 1871 C 185.339 1.49532 2.74971 0
M  V30 1872 C 185.814 2.39421 3.90438 0
M  V30 1873 N 187.305 2.37383 3.97748 0
M  V30 1874 C 188.04 3.03647 4.86401 0
M  V30 1875 N 187.536 3.79136 5.79852 0
M  V30 1876 N 189.329 2.9288 4.79768 0
M  V30 1877 H 181.48 1.83075 1.0769 0
M  V30 1878 H 183.743 0.783637 0.533495 0
M  V30 1879 H 183.449 2.53291 2.44001 0
M  V30 1880 H 183.323 1.20113 3.57565 0
M  V30 1881 H 185.71 0.46163 2.91467 0
M  V30 1882 H 185.791 1.8262 1.79119 0
M  V30 1883 H 185.435 3.42874 3.74699 0
M  V30 1884 H 185.365 2.03649 4.85628 0
M  V30 1885 H 187.856 1.82525 3.30897 0
M  V30 1886 H 188.169 4.26789 6.4426 0
M  V30 1887 H 186.514 3.83243 5.79784 0
M  V30 1888 H 189.705 2.33433 4.05742 0
M  V30 1889 H 189.878 3.448 5.4865 0
M  V30 1890 N 183.284 -1.43765 0.645699 0
M  V30 1891 C 184.533 -2.01116 0.153412 0
M  V30 1892 C 184.846 -1.51493 -1.23731 0
M  V30 1893 O 186.052 -2.01067 -1.8244 0
M  V30 1894 C 184.508 -3.59206 0.223473 0
M  V30 1895 C 184.116 -4.17823 1.61642 0
M  V30 1896 C 185.86 -4.23972 -0.211597 0
M  V30 1897 C 183.767 -5.68183 1.64081 0
M  V30 1898 H 182.697 -0.752093 0.0535891 0
M  V30 1899 H 185.348 -1.6482 0.806633 0
M  V30 1900 H 183.73 -3.92867 -0.497118 0
M  V30 1901 H 184.904 -3.95674 2.36176 0
M  V30 1902 H 183.219 -3.65399 1.99681 0
M  V30 1903 H 185.816 -5.34275 -0.213112 0
M  V30 1904 H 186.159 -3.97352 -1.24165 0
M  V30 1905 H 186.692 -3.95166 0.456988 0
M  V30 1906 H 183.431 -5.99559 2.64971 0
M  V30 1907 H 182.951 -5.9241 0.938611 0
M  V30 1908 H 184.63 -6.32085 1.3812 0
M  V30 1909 N 184.763 -0.387143 -1.52771 0
M  V30 1910 C 186.009 0.196025 -2.0185 0
M  V30 1911 C 186.342 1.46641 -1.27319 0
M  V30 1912 O 185.617 1.90889 -0.373032 0
M  V30 1913 C 185.9 0.466136 -3.5707 0
M  V30 1914 C 185.753 -0.819385 -4.42274 0
M  V30 1915 C 187.072 1.25768 -4.21747 0
M  V30 1916 H 184.191 0.0697708 -0.73369 0
M  V30 1917 H 186.833 -0.516286 -1.82851 0
M  V30 1918 H 184.983 1.07293 -3.7339 0
M  V30 1919 H 186.655 -1.4563 -4.37709 0
M  V30 1920 H 184.898 -1.43517 -4.09372 0
M  V30 1921 H 185.569 -0.585065 -5.48891 0
M  V30 1922 H 188.045 0.744167 -4.09391 0
M  V30 1923 H 186.921 1.41541 -5.30337 0
M  V30 1924 H 187.182 2.27228 -3.79236 0
M  V30 1925 N 186.241 1.57166 -0.116904 0
M  V30 1926 C 187.652 1.82169 0.408809 0
M  V30 1927 C 188.003 1.03393 1.66746 0
M  V30 1928 O 187.128 0.269886 2.1471 0
M  V30 1929 C 187.723 3.30429 0.748466 0
M  V30 1930 C 186.282 3.5612 1.21882 0
M  V30 1931 C 185.429 2.76374 0.226452 0
M  V30 1932 H 188.38 1.5497 -0.342063 0
M  V30 1933 H 188.401 3.44943 1.60607 0
M  V30 1934 H 187.913 3.87737 -0.167784 0
M  V30 1935 H 186.014 3.04168 2.15204 0
M  V30 1936 H 186.127 4.64705 1.16559 0
M  V30 1937 H 184.491 2.44515 0.713063 0
M  V30 1938 H 185.274 3.3644 -0.682859 0
M  V30 1939 N 187.719 -0.156864 1.56817 0
M  V30 1940 C 188.967 -0.869404 1.82444 0
M  V30 1941 C 189.288 -1.82147 0.69623 0
M  V30 1942 O 188.558 -1.93847 -0.28287 0
M  V30 1943 H 187.138 -0.324043 0.673056 0
M  V30 1944 H 189.8 -0.153224 1.94297 0
M  V30 1945 H 188.896 -1.43761 2.77019 0
M  V30 1946 N 189.197 -1.51736 -0.425897 0
M  V30 1947 C 190.446 -1.64201 -1.17136 0
M  V30 1948 C 190.759 -0.369705 -1.92074 0
M  V30 1949 O 191.965 -0.373898 -2.68913 0
M  V30 1950 C 190.421 -2.90035 -2.13091 0
M  V30 1951 C 190.029 -4.24312 -1.43747 0
M  V30 1952 C 191.773 -3.1186 -2.87999 0
M  V30 1953 C 189.68 -5.41285 -2.38253 0
M  V30 1954 H 188.61 -0.611624 -0.440944 0
M  V30 1955 H 191.261 -1.78212 -0.437328 0
M  V30 1956 H 189.643 -2.69684 -2.89977 0
M  V30 1957 H 190.817 -4.55086 -0.723408 0
M  V30 1958 H 189.132 -4.08456 -0.809465 0
M  V30 1959 H 191.729 -3.96427 -3.58817 0
M  V30 1960 H 192.072 -2.25403 -3.49999 0
M  V30 1961 H 192.605 -3.32605 -2.18217 0
M  V30 1962 H 189.344 -6.30037 -1.80925 0
M  V30 1963 H 188.864 -5.14872 -3.0768 0
M  V30 1964 H 190.543 -5.73694 -2.99139 0
M  V30 1965 N 190.675 0.682077 -1.42076 0
M  V30 1966 C 191.903 1.47057 -1.4554 0
M  V30 1967 C 192.318 1.8869 -0.0645779 0
M  V30 1968 O 191.675 1.57666 0.919115 0
M  V30 1969 C 191.726 2.72442 -2.37609 0
M  V30 1970 O 191.447 2.32559 -3.71279 0
M  V30 1971 C 192.948 3.66069 -2.50017 0
M  V30 1972 H 190.168 0.452737 -0.495248 0
M  V30 1973 H 192.712 0.838695 -1.8651 0
M  V30 1974 H 190.867 3.31835 -1.9991 0
M  V30 1975 H 191.281 3.13475 -4.20516 0
M  V30 1976 H 192.755 4.50792 -3.18576 0
M  V30 1977 H 193.232 4.11476 -1.53572 0
M  V30 1978 H 193.838 3.12572 -2.88407 0
M  V30 1979 N 192.153 1.28127 0.917671 0
M  V30 1980 C 193.116 1.11744 2.00115 0
M  V30 1981 C 194.116 0.0583052 1.60694 0
M  V30 1982 O 195.306 0.303755 1.71531 0
M  V30 1983 C 192.438 0.704862 3.33533 0
M  V30 1984 H 193.631 2.07966 2.16079 0
M  V30 1985 H 191.184 1.11058 1.09981 0
M  V30 1986 H 191.919 -0.258299 3.2327 0
M  V30 1987 H 191.704 1.4699 3.63505 0
M  V30 1988 H 193.194 0.612768 4.1308 0
M  V30 1989 N 193.631 -1.12557 1.10312 0
M  V30 1990 C 194.879 -1.83675 0.843091 0
M  V30 1991 C 195.2 -1.84435 -0.633131 0
M  V30 1992 O 194.47 -1.30657 -1.45964 0
M  V30 1993 H 193.05 -0.680138 0.308904 0
M  V30 1994 H 195.712 -1.36301 1.39313 0
M  V30 1995 H 194.808 -2.87908 1.2048 0
M  V30 1996 N 195.109 -0.891671 -1.2995 0
M  V30 1997 C 196.358 -0.509521 -1.95158 0
M  V30 1998 C 196.671 0.947388 -1.71125 0
M  V30 1999 O 197.877 1.43669 -2.30372 0
M  V30 2000 C 196.333 -0.860315 -3.49466 0
M  V30 2001 C 195.941 -2.33545 -3.8231 0
M  V30 2002 C 197.685 -0.547687 -4.20952 0
M  V30 2003 C 195.592 -2.62752 -5.29826 0
M  V30 2004 H 194.522 -0.18682 -0.730489 0
M  V30 2005 H 197.173 -1.08756 -1.47798 0
M  V30 2006 H 195.555 -0.211285 -3.95436 0
M  V30 2007 H 196.729 -3.02936 -3.47227 0
M  V30 2008 H 195.044 -2.61629 -3.23944 0
M  V30 2009 H 197.641 -0.742854 -5.29515 0
M  V30 2010 H 197.984 0.51332 -4.13123 0
M  V30 2011 H 198.517 -1.1542 -3.80688 0
M  V30 2012 H 195.256 -3.6762 -5.42712 0
M  V30 2013 H 194.776 -1.97977 -5.66185 0
M  V30 2014 H 196.455 -2.48601 -5.97333 0
M  V30 2015 N 196.587 1.43421 -0.653314 0
M  V30 2016 C 197.835 2.01414 -0.166415 0
M  V30 2017 C 198.156 1.51803 1.22397 0
M  V30 2018 O 197.426 0.730693 1.81763 0
M  V30 2019 H 196.006 0.744703 -0.0585319 0
M  V30 2020 H 198.668 1.75629 -0.845003 0
M  V30 2021 H 197.764 3.11734 -0.151111 0
M  V30 2022 N 198.065 0.39524 1.52563 0
M  V30 2023 C 199.313 -0.184678 2.01254 0
M  V30 2024 C 199.634 -1.46822 1.28329 0
M  V30 2025 O 198.904 -1.91666 0.405094 0
M  V30 2026 H 197.484 -0.0712355 0.743596 0
M  V30 2027 H 200.146 0.528293 1.87603 0
M  V30 2028 H 199.242 -0.390681 3.09645 0
M  V30 2029 N 199.544 -1.57102 0.125237 0
M  V30 2030 C 200.474 -2.18659 -0.819174 0
M  V30 2031 C 201.455 -1.12843 -1.27281 0
M  V30 2032 O 202.64 -1.41104 -1.33429 0
M  V30 2033 C 199.77 -2.79096 -2.06695 0
M  V30 2034 C 198.724 -3.90548 -1.75088 0
M  V30 2035 C 198.05 -4.37821 -3.06948 0
M  V30 2036 C 199.35 -5.12356 -1.01435 0
M  V30 2037 H 201.044 -2.9783 -0.306202 0
M  V30 2038 H 198.59 -1.4326 -0.145839 0
M  V30 2039 H 200.543 -3.2082 -2.73226 0
M  V30 2040 H 199.267 -1.97223 -2.60328 0
M  V30 2041 H 197.926 -3.49409 -1.10944 0
M  V30 2042 H 197.574 -3.52799 -3.58527 0
M  V30 2043 H 197.274 -5.12982 -2.86571 0
M  V30 2044 H 198.798 -4.822 -3.74587 0
M  V30 2045 H 200.212 -5.5106 -1.58132 0
M  V30 2046 H 198.609 -5.9314 -0.911319 0
M  V30 2047 H 199.679 -4.849 -0.00218681 0
M  V30 2048 N 201.022 0.148545 -1.56898 0
M  V30 2049 C 201.985 1.16736 -1.97244 0
M  V30 2050 C 202.985 1.35947 -0.858777 0
M  V30 2051 O 204.175 1.32966 -1.12542 0
M  V30 2052 C 201.307 2.52798 -2.28705 0
M  V30 2053 H 202.5 0.821279 -2.88435 0
M  V30 2054 H 200.053 0.391831 -1.51309 0
M  V30 2055 H 200.788 2.92381 -1.403 0
M  V30 2056 H 200.573 2.40216 -3.09901 0
M  V30 2057 H 202.063 3.26179 -2.60762 0
M  V30 2058 N 202.5 1.5196 0.417844 0
M  V30 2059 C 203.73 1.69181 1.18581 0
M  V30 2060 C 204.138 0.397104 1.84986 0
M  V30 2061 O 203.481 -0.636011 1.72339 0
M  V30 2062 C 203.543 2.76497 2.29759 0
M  V30 2063 C 203.207 4.18514 1.83563 0
M  V30 2064 C 204.204 5.02648 1.32821 0
M  V30 2065 C 201.889 4.64708 1.90661 0
M  V30 2066 C 203.883 6.31044 0.897894 0
M  V30 2067 C 201.57 5.93096 1.47241 0
M  V30 2068 C 202.568 6.76093 0.968891 0
M  V30 2069 O 202.256 8.02078 0.540924 0
M  V30 2070 H 201.988 0.570457 0.362705 0
M  V30 2071 H 204.542 1.99249 0.498885 0
M  V30 2072 H 202.772 2.41786 3.01789 0
M  V30 2073 H 204.461 2.82403 2.91553 0
M  V30 2074 H 205.227 4.68154 1.26716 0
M  V30 2075 H 201.106 4.00216 2.28797 0
M  V30 2076 H 204.65 6.95776 0.504192 0
M  V30 2077 H 200.547 6.271 1.53022 0
M  V30 2078 H 201.315 8.15794 0.66502 0
M  V30 2079 N 203.978 -0.674533 1.42435 0
M  V30 2080 C 204.941 -1.76986 1.45632 0
M  V30 2081 C 205.941 -1.5708 0.343871 0
M  V30 2082 O 207.131 -1.63367 0.604709 0
M  V30 2083 C 204.263 -3.15623 1.28822 0
M  V30 2084 H 205.456 -1.75539 2.43158 0
M  V30 2085 H 203.009 -0.884189 1.28887 0
M  V30 2086 H 203.744 -3.22696 0.322193 0
M  V30 2087 H 203.529 -3.31475 2.09444 0
M  V30 2088 H 205.019 -3.95537 1.33942 0
M  V30 2089 N 205.456 -1.28612 -0.910864 0
M  V30 2090 C 206.704 -1.15705 -1.65701 0
M  V30 2091 C 207.025 0.29416 -1.92769 0
M  V30 2092 O 206.295 1.20331 -1.54588 0
M  V30 2093 H 204.875 -0.425216 -0.614167 0
M  V30 2094 H 207.537 -1.61381 -1.0928 0
M  V30 2095 H 206.633 -1.6988 -2.61815 0
M  V30 2096 N 206.934 1.1197 -1.10907 0
M  V30 2097 C 208.183 1.82947 -0.849302 0
M  V30 2098 C 208.496 1.85275 0.627112 0
M  V30 2099 O 209.702 2.52296 1.00295 0
M  V30 2100 C 208.158 3.28529 -1.46959 0
M  V30 2101 C 207.766 3.34546 -2.97965 0
M  V30 2102 C 209.51 4.04443 -1.28942 0
M  V30 2103 C 207.417 4.74491 -3.53004 0
M  V30 2104 H 206.347 0.685477 -0.314065 0
M  V30 2105 H 208.998 1.2604 -1.33365 0
M  V30 2106 H 207.38 3.85333 -0.912917 0
M  V30 2107 H 208.554 2.87654 -3.59989 0
M  V30 2108 H 206.869 2.72108 -3.15192 0
M  V30 2109 H 209.466 5.07787 -1.67502 0
M  V30 2110 H 209.809 4.15656 -0.231456 0
M  V30 2111 H 210.342 3.5401 -1.81443 0
M  V30 2112 H 207.081 4.68474 -4.58489 0
M  V30 2113 H 206.601 5.21816 -2.9575 0
M  V30 2114 H 208.28 5.4344 -3.51115 0
M  V30 2115 N 208.412 0.89855 1.29475 0
M  V30 2116 C 209.823 0.572537 1.77705 0
M  V30 2117 C 210.174 -0.911778 1.73727 0
M  V30 2118 O 209.299 -1.71288 1.32247 0
M  V30 2119 C 209.894 1.03252 3.22683 0
M  V30 2120 C 208.453 0.757687 3.68695 0
M  V30 2121 C 207.6 1.20787 2.49612 0
M  V30 2122 H 210.551 1.08139 1.16153 0
M  V30 2123 H 210.572 0.367307 3.78723 0
M  V30 2124 H 210.084 2.11285 3.25546 0
M  V30 2125 H 208.185 -0.310079 3.71308 0
M  V30 2126 H 208.298 1.35476 4.59547 0
M  V30 2127 H 206.662 0.626888 2.46865 0
M  V30 2128 H 207.445 2.29622 2.55203 0
M  V30 2129 N 209.89 -1.43072 0.660911 0
M  V30 2130 C 211.136 -2.0202 0.177708 0
M  V30 2131 C 211.469 -1.52066 -1.20787 0
M  V30 2132 O 210.744 -0.716987 -1.80802 0
M  V30 2133 C 211.027 -3.59561 0.197019 0
M  V30 2134 C 210.88 -4.19727 1.61706 0
M  V30 2135 C 212.199 -4.37664 -0.462396 0
M  V30 2136 H 209.318 -0.734034 0.0660494 0
M  V30 2137 H 211.96 -1.70272 0.843058 0
M  V30 2138 H 210.11 -3.86739 -0.369527 0
M  V30 2139 H 211.782 -4.03553 2.23479 0
M  V30 2140 H 210.025 -3.76084 2.16201 0
M  V30 2141 H 210.696 -5.28834 1.58237 0
M  V30 2142 H 213.172 -4.16095 0.0197215 0
M  V30 2143 H 212.048 -5.47305 -0.418188 0
M  V30 2144 H 212.309 -4.14493 -1.53778 0
M  V30 2145 N 211.368 -0.403325 -1.52352 0
M  V30 2146 C 212.596 0.174012 -2.06167 0
M  V30 2147 C 213.011 1.39347 -1.27388 0
M  V30 2148 O 212.368 1.79597 -0.324201 0
M  V30 2149 C 212.419 0.530223 -3.5759 0
M  V30 2150 O 212.14 -0.640806 -4.33388 0
M  V30 2151 C 213.641 1.16192 -4.27802 0
M  V30 2152 H 210.861 0.0229464 -0.670608 0
M  V30 2153 H 213.405 -0.572604 -1.9632 0
M  V30 2154 H 211.56 1.22673 -3.67464 0
M  V30 2155 H 211.974 -0.344851 -5.23365 0
M  V30 2156 H 213.448 1.36141 -5.34948 0
M  V30 2157 H 213.925 2.13335 -3.83907 0
M  V30 2158 H 214.531 0.505775 -4.22282 0
M  V30 2159 N 212.846 1.57033 -0.133567 0
M  V30 2160 C 213.796 2.12641 0.822671 0
M  V30 2161 C 214.78 1.05081 1.21847 0
M  V30 2162 O 215.972 1.31287 1.18713 0
M  V30 2163 C 213.101 2.74094 2.06706 0
M  V30 2164 C 212.187 3.88757 1.69497 0
M  V30 2165 N 212.578 4.95194 1.03037 0
M  V30 2166 C 210.876 3.99213 1.98859 0
M  V30 2167 C 211.577 5.75414 0.852873 0
M  V30 2168 N 210.553 5.25726 1.3825 0
M  V30 2169 H 214.355 2.92308 0.305537 0
M  V30 2170 H 211.869 1.62256 0.0684276 0
M  V30 2171 H 213.866 3.12285 2.76195 0
M  V30 2172 H 212.526 1.95896 2.5895 0
M  V30 2173 H 213.537 5.13247 0.692669 0
M  V30 2174 H 210.214 3.32075 2.53047 0
M  V30 2175 H 211.604 6.71089 0.330091 0
M  V30 2176 N 214.325 -0.140222 1.56975 0
M  V30 2177 C 215.741 -0.493088 1.51792 0
M  V30 2178 C 215.941 -1.83013 0.843116 0
M  V30 2179 O 214.997 -2.49041 0.416493 0
M  V30 2180 C 216.31 -0.497144 2.96562 0
M  V30 2181 C 217.858 -0.582186 3.07538 0
M  V30 2182 C 218.333 -0.616838 4.53827 0
M  V30 2183 N 219.824 -0.678873 4.58198 0
M  V30 2184 C 220.559 -0.726782 5.68775 0
M  V30 2185 N 220.055 -0.733623 6.88905 0
M  V30 2186 N 221.848 -0.768179 5.56826 0
M  V30 2187 H 213.999 0.736108 1.99237 0
M  V30 2188 H 216.262 0.269182 0.90898 0
M  V30 2189 H 215.968 0.417217 3.49217 0
M  V30 2190 H 215.842 -1.33263 3.52875 0
M  V30 2191 H 218.229 -1.48697 2.54899 0
M  V30 2192 H 218.31 0.280581 2.54257 0
M  V30 2193 H 217.954 0.283812 5.07106 0
M  V30 2194 H 217.884 -1.49619 5.04898 0
M  V30 2195 H 220.375 -0.68061 3.7172 0
M  V30 2196 H 220.688 -0.772215 7.68932 0
M  V30 2197 H 219.033 -0.701389 6.91452 0
M  V30 2198 H 222.224 -0.760051 4.61888 0
M  V30 2199 H 222.397 -0.80205 6.43017 0
M  V30 2200 N 215.803 -1.52179 -0.40978 0
M  V30 2201 C 216.713 -1.78364 -1.52392 0
M  V30 2202 C 217.729 -0.669183 -1.60617 0
M  V30 2203 O 218.905 -0.954518 -1.77344 0
M  V30 2204 C 215.97 -1.92822 -2.88133 0
M  V30 2205 C 215.031 -3.16725 -2.898 0
M  V30 2206 C 214.264 -3.30483 -4.19067 0
M  V30 2207 O 214.487 -2.49522 -5.12928 0
M  V30 2208 O 213.421 -4.2363 -4.27576 0
M  V30 2209 H 217.247 -2.72931 -1.33201 0
M  V30 2210 H 214.832 -1.37016 -0.59557 0
M  V30 2211 H 216.714 -2.04157 -3.68643 0
M  V30 2212 H 215.389 -1.01444 -3.07393 0
M  V30 2213 H 214.296 -3.10848 -2.08146 0
M  V30 2214 H 215.629 -4.07881 -2.75489 0
M  V30 2215 N 217.281 0.66697 -1.42791 0
M  V30 2216 C 218.527 1.4291 -1.43891 0
M  V30 2217 C 218.86 1.94114 -0.0578972 0
M  V30 2218 O 218.135 1.71414 0.91911 0
M  V30 2219 C 218.418 2.62049 -2.46987 0
M  V30 2220 C 218.271 2.16426 -3.94309 0
M  V30 2221 C 219.59 3.64266 -2.46978 0
M  V30 2222 H 216.709 0.518306 -0.523954 0
M  V30 2223 H 219.351 0.757321 -1.74255 0
M  V30 2224 H 217.501 3.19361 -2.21225 0
M  V30 2225 H 219.173 1.64221 -4.31079 0
M  V30 2226 H 217.416 1.47925 -4.078 0
M  V30 2227 H 218.087 3.02038 -4.62036 0
M  V30 2228 H 220.563 3.16686 -2.69906 0
M  V30 2229 H 219.439 4.45196 -3.21079 0
M  V30 2230 H 219.7 4.15927 -1.49857 0
M  V30 2231 N 218.759 1.29093 0.90403 0
M  V30 2232 C 219.707 1.13727 2.02901 0
M  V30 2233 C 220.701 0.0539853 1.69314 0
M  V30 2234 O 221.907 0.213469 1.7873 0
M  V30 2235 H 218.282 0.35117 0.664969 0
M  V30 2236 H 220.253 2.08982 2.13001 0
M  V30 2237 C 219.002 0.826066 3.37745 0
M  V30 2238 H 218.325 1.65164 3.64089 0
M  V30 2239 H 219.765 0.758559 4.17159 0
M  V30 2240 C 218.224 -0.470541 3.33598 0
M  V30 2241 O 218.754 -1.49792 3.72727 0
M  V30 2242 N 216.96 -0.474812 2.86695 0
M  V30 2243 H 216.507 0.361692 2.55048 0
M  V30 2244 H 216.465 -1.34236 2.84303 0
M  V30 2245 N 220.237 -1.11381 1.11499 0
M  V30 2246 C 221.187 -2.15555 0.74298 0
M  V30 2247 C 222.171 -1.58894 -0.253276 0
M  V30 2248 O 223.363 -1.76897 -0.0602918 0
M  V30 2249 C 220.492 -3.42782 0.188481 0
M  V30 2250 C 219.578 -4.064 1.21244 0
M  V30 2251 N 219.969 -4.44864 2.40685 0
M  V30 2252 C 218.267 -4.3333 1.05552 0
M  V30 2253 C 218.968 -4.94715 3.05994 0
M  V30 2254 N 217.944 -4.90909 2.33472 0
M  V30 2255 H 221.746 -2.43074 1.65203 0
M  V30 2256 H 219.26 -1.28401 0.994329 0
M  V30 2257 H 221.257 -4.16789 -0.0961693 0
M  V30 2258 H 219.917 -3.16727 -0.715149 0
M  V30 2259 H 220.928 -4.36876 2.78136 0
M  V30 2260 H 217.605 -4.1698 0.208372 0
M  V30 2261 H 218.995 -5.34103 4.07656 0
M  V30 2262 N 221.715 -0.905404 -1.28997 0
M  V30 2263 C 222.678 -0.392253 -2.25819 0
M  V30 2264 C 223.678 0.476753 -1.5357 0
M  V30 2265 O 224.868 0.280994 -1.71919 0
M  V30 2266 C 222 0.438588 -3.38067 0
M  V30 2267 H 223.193 -1.24743 -2.72725 0
M  V30 2268 H 220.746 -0.684051 -1.40536 0
M  V30 2269 H 221.481 1.31352 -2.96508 0
M  V30 2270 H 221.266 -0.184167 -3.91667 0
M  V30 2271 H 222.756 0.78873 -4.10084 0
M  V30 2272 N 223.193 1.4272 -0.668489 0
M  V30 2273 C 224.439 2.01923 -0.188419 0
M  V30 2274 C 224.772 1.52704 1.19979 0
M  V30 2275 O 224.047 0.726566 1.8042 0
M  V30 2276 C 224.33 3.59451 -0.216085 0
M  V30 2277 C 224.183 4.18864 -1.6393 0
M  V30 2278 C 225.502 4.37903 0.439179 0
M  V30 2279 H 222.621 0.733674 -0.0699412 0
M  V30 2280 H 225.263 1.69822 -0.852076 0
M  V30 2281 H 223.413 3.86929 0.349012 0
M  V30 2282 H 225.085 4.02362 -2.25616 0
M  V30 2283 H 223.328 3.74933 -2.18193 0
M  V30 2284 H 223.999 5.27987 -1.61039 0
M  V30 2285 H 226.475 4.16079 -0.0417878 0
M  V30 2286 H 225.351 5.47519 0.389157 0
M  V30 2287 H 225.612 4.15303 1.51577 0
M  V30 2288 N 224.671 0.411399 1.52136 0
M  V30 2289 C 225.899 -0.163076 2.06256 0
M  V30 2290 C 226.314 -1.3867 1.28125 0
M  V30 2291 O 225.671 -1.79423 0.333721 0
M  V30 2292 C 225.722 -0.511252 3.57867 0
M  V30 2293 O 225.443 0.66378 4.33042 0
M  V30 2294 C 226.944 -1.13921 4.28412 0
M  V30 2295 H 224.164 -0.0193897 0.67072 0
M  V30 2296 H 226.708 0.583007 1.96013 0
M  V30 2297 H 224.863 -1.20723 3.6811 0
M  V30 2298 H 225.277 0.372601 5.23175 0
M  V30 2299 H 226.751 -1.33302 5.35663 0
M  V30 2300 H 227.228 -2.11296 3.85033 0
M  V30 2301 H 227.834 -0.483373 4.22544 0
M  V30 2302 N 226.149 -1.5696 0.141893 0
M  V30 2303 C 227.396 -1.9596 -0.510492 0
M  V30 2304 C 227.724 -1.02648 -1.65208 0
M  V30 2305 O 226.979 -0.0546947 -1.95624 0
M  V30 2306 C 227.278 -3.41242 -1.06249 0
M  V30 2307 C 226.944 -4.50882 -0.0398791 0
M  V30 2308 C 225.606 -4.80595 0.241247 0
M  V30 2309 C 227.958 -5.17058 0.65578 0
M  V30 2310 C 225.286 -5.73792 1.22393 0
M  V30 2311 C 227.638 -6.11313 1.62724 0
M  V30 2312 C 226.302 -6.39407 1.91612 0
M  V30 2313 H 225.572 -0.717068 -0.186802 0
M  V30 2314 H 228.219 -1.90142 0.227643 0
M  V30 2315 H 226.524 -3.43866 -1.87785 0
M  V30 2316 H 228.221 -3.68742 -1.57576 0
M  V30 2317 H 224.811 -4.27754 -0.269174 0
M  V30 2318 H 228.995 -4.94239 0.451779 0
M  V30 2319 H 224.251 -5.93853 1.45424 0
M  V30 2320 H 228.425 -6.61668 2.17183 0
M  V30 2321 H 226.052 -7.11427 2.6791 0
M  V30 2322 N 227.627 0.131896 -1.57047 0
M  V30 2323 C 228.557 1.16384 -2.02428 0
M  V30 2324 C 229.538 1.43936 -0.90644 0
M  V30 2325 O 230.723 1.54599 -1.17528 0
M  V30 2326 C 227.853 2.49328 -2.4177 0
M  V30 2327 C 226.807 2.36266 -3.56879 0
M  V30 2328 C 226.133 3.74057 -3.8208 0
M  V30 2329 C 227.433 1.834 -4.89042 0
M  V30 2330 H 229.127 0.786433 -2.88887 0
M  V30 2331 H 226.673 0.376855 -1.38981 0
M  V30 2332 H 228.626 3.21759 -2.7212 0
M  V30 2333 H 227.35 2.88934 -1.52266 0
M  V30 2334 H 226.009 1.66286 -3.26718 0
M  V30 2335 H 225.657 4.11125 -2.89803 0
M  V30 2336 H 225.357 3.66174 -4.59554 0
M  V30 2337 H 226.881 4.48012 -4.1487 0
M  V30 2338 H 228.295 2.45636 -5.18011 0
M  V30 2339 H 226.692 1.8637 -5.70426 0
M  V30 2340 H 227.762 0.790662 -4.7841 0
M  V30 2341 N 229.106 1.52395 0.401703 0
M  V30 2342 C 230.334 1.70676 1.16949 0
M  V30 2343 C 230.749 0.419503 1.8408 0
M  V30 2344 O 230.106 -0.605061 1.72178 0
M  V30 2345 C 230.157 2.84753 2.22706 0
M  V30 2346 O 229.878 4.08495 1.58314 0
M  V30 2347 C 231.379 3.14608 3.12309 0
M  V30 2348 H 228.599 0.571787 0.351142 0
M  V30 2349 H 231.143 1.98987 0.471652 0
M  V30 2350 H 229.298 2.58941 2.88147 0
M  V30 2351 H 229.712 4.72117 2.28485 0
M  V30 2352 H 231.186 3.97923 3.82572 0
M  V30 2353 H 231.663 2.28464 3.75101 0
M  V30 2354 H 232.269 3.42212 2.52529 0
M  V30 2355 N 230.584 -0.659388 1.43143 0
M  V30 2356 C 231.832 -1.41654 1.44147 0
M  V30 2357 C 232.153 -1.94893 0.0645739 0
M  V30 2358 O 231.423 -1.74044 -0.899198 0
M  V30 2359 H 230.003 -0.525708 0.530697 0
M  V30 2360 H 232.665 -0.778097 1.78694 0
M  V30 2361 H 231.761 -2.26195 2.1504 0
M  V30 2362 N 232.062 -1.29571 -0.897171 0
M  V30 2363 C 233.012 -1.11539 -1.98855 0
M  V30 2364 C 233.996 -0.0340716 -1.60864 0
M  V30 2365 O 235.188 -0.256062 -1.75138 0
M  V30 2366 C 232.317 -0.796603 -3.3393 0
M  V30 2367 C 231.403 -1.91758 -3.78272 0
M  V30 2368 N 231.794 -3.16143 -3.94826 0
M  V30 2369 C 230.092 -1.81119 -4.07568 0
M  V30 2370 C 230.793 -3.89293 -4.32233 0
M  V30 2371 N 229.769 -3.17255 -4.41419 0
M  V30 2372 H 233.571 -2.05894 -2.09726 0
M  V30 2373 H 231.085 -1.20732 -1.08616 0
M  V30 2374 H 233.082 -0.648459 -4.11826 0
M  V30 2375 H 231.742 0.139003 -3.24402 0
M  V30 2376 H 232.753 -3.5157 -3.80288 0
M  V30 2377 H 229.43 -0.948461 -4.06584 0
M  V30 2378 H 230.82 -4.9635 -4.52865 0
M  V30 2379 N 233.54 1.10788 -1.12088 0
M  V30 2380 C 234.817 1.79136 -0.785476 0
M  V30 2381 C 235.197 1.98246 0.725377 0
M  V30 2382 O 234.545 1.57258 1.65778 0
M  V30 2383 C 234.755 3.12375 -1.55636 0
M  V30 2384 C 236.103 3.8731 -1.74001 0
M  V30 2385 O 237.127 3.22085 -1.52117 0
M  V30 2386 O 235.986 5.04369 -2.10415 0
M  V30 2387 H 233.08 0.776226 -0.285311 0
M  V30 2388 H 235.626 1.1747 -1.2247 0
M  V30 2389 H 234.398 2.93863 -2.5838 0
M  V30 2390 H 234.021 3.81758 -1.11114 0
M  V30 2391 N 235.018 0.912232 1.28515 0
M  V30 2392 C 236.243 0.559774 1.99703 0
M  V30 2393 C 236.668 -0.851393 1.67729 0
M  V30 2394 O 236.026 -1.56875 0.908834 0
M  V30 2395 C 236.074 0.773874 3.52198 0
M  V30 2396 O 235.178 -0.167842 4.12058 0
M  V30 2397 H 234.519 0.21723 0.627461 0
M  V30 2398 H 237.049 1.22725 1.63706 0
M  V30 2399 H 237.059 0.683386 4.02236 0
M  V30 2400 H 235.734 1.80261 3.74805 0
M  V30 2401 H 234.311 -0.0287509 3.72889 0
M  V30 2402 N 236.496 -1.42363 0.676048 0
M  V30 2403 C 237.721 -2.06377 0.205705 0
M  V30 2404 C 238.146 -1.50463 -1.12883 0
M  V30 2405 O 237.504 -0.623619 -1.70237 0
M  V30 2406 C 237.552 -3.60277 0.152655 0
M  V30 2407 O 236.656 -4.02935 -0.87845 0
M  V30 2408 H 235.997 -0.655588 0.105359 0
M  V30 2409 H 238.527 -1.82475 0.925412 0
M  V30 2410 H 238.537 -4.07993 -0.0230675 0
M  V30 2411 H 237.212 -4.00346 1.12675 0
M  V30 2412 H 235.789 -3.66764 -0.673668 0
M  V30 2413 N 237.974 -0.419461 -1.51915 0
M  V30 2414 C 239.222 0.152637 -2.01523 0
M  V30 2415 C 239.543 1.44762 -1.30649 0
M  V30 2416 O 238.813 1.90997 -0.435535 0
M  V30 2417 H 237.393 0.0593966 -0.744635 0
M  V30 2418 H 240.055 -0.558073 -1.86739 0
M  V30 2419 H 239.151 0.341369 -3.10227 0
M  V30 2420 N 239.452 1.56882 -0.150215 0
M  V30 2421 C 240.382 2.19935 0.784284 0
M  V30 2422 C 241.363 1.14854 1.25469 0
M  V30 2423 O 242.548 1.43209 1.31168 0
M  V30 2424 C 239.678 2.82349 2.02229 0
M  V30 2425 C 238.632 3.93285 1.68853 0
M  V30 2426 C 237.958 4.42649 2.99944 0
M  V30 2427 C 239.258 5.13904 0.932714 0
M  V30 2428 H 240.952 2.9828 0.258781 0
M  V30 2429 H 238.498 1.43473 0.123029 0
M  V30 2430 H 240.451 3.25126 2.68088 0
M  V30 2431 H 239.175 2.0134 2.57157 0
M  V30 2432 H 237.834 3.5113 1.05371 0
M  V30 2433 H 237.482 3.58458 3.52869 0
M  V30 2434 H 237.182 5.17476 2.78374 0
M  V30 2435 H 238.706 4.88099 3.66868 0
M  V30 2436 H 240.12 5.53506 1.49345 0
M  V30 2437 H 238.517 5.94515 0.81684 0
M  V30 2438 H 239.587 4.84842 -0.0749568 0
M  V30 2439 N 240.93 -0.123565 1.57115 0
M  V30 2440 C 242.176 -0.833386 1.84885 0
M  V30 2441 C 242.509 -1.79742 0.735292 0
M  V30 2442 O 241.784 -1.92764 -0.25925 0
M  V30 2443 C 242.067 -1.5873 3.23228 0
M  V30 2444 C 241.92 -0.643183 4.45178 0
M  V30 2445 C 243.239 -2.54453 3.59085 0
M  V30 2446 H 240.358 -0.301518 0.6725 0
M  V30 2447 H 243 -0.097778 1.89748 0
M  V30 2448 H 241.15 -2.21438 3.19214 0
M  V30 2449 H 242.822 -0.0253015 4.61293 0
M  V30 2450 H 241.065 0.0456139 4.33776 0
M  V30 2451 H 241.736 -1.20724 5.38637 0
M  V30 2452 H 244.212 -2.01853 3.63861 0
M  V30 2453 H 243.088 -3.04238 4.5687 0
M  V30 2454 H 243.349 -3.36906 2.86264 0
M  V30 2455 N 242.408 -1.52605 -0.393616 0
M  V30 2456 C 243.819 -1.59417 -0.971761 0
M  V30 2457 C 244.17 -0.444173 -1.91106 0
M  V30 2458 O 243.295 0.433382 -2.12016 0
M  V30 2459 C 243.89 -2.88936 -1.76921 0
M  V30 2460 C 242.449 -2.98175 -2.29714 0
M  V30 2461 C 241.596 -2.54491 -1.10135 0
M  V30 2462 H 244.547 -1.57751 -0.173317 0
M  V30 2463 H 244.568 -2.75163 -2.62804 0
M  V30 2464 H 244.08 -3.72616 -1.08532 0
M  V30 2465 H 242.181 -2.19024 -3.01429 0
M  V30 2466 H 242.294 -4.02726 -2.59517 0
M  V30 2467 H 240.658 -2.08702 -1.45999 0
M  V30 2468 H 241.441 -3.4056 -0.432874 0
M  V30 2469 N 243.887 0.651787 -1.4349 0
M  V30 2470 C 245.164 1.40909 -1.35661 0
M  V30 2471 C 245.544 2.11099 -0.00511733 0
M  V30 2472 O 244.892 2.04892 1.0115 0
M  V30 2473 C 245.102 2.3926 -2.54078 0
M  V30 2474 C 246.45 3.03217 -2.97228 0
M  V30 2475 O 247.474 2.49588 -2.54135 0
M  V30 2476 O 246.333 4.00455 -3.71885 0
M  V30 2477 H 243.427 0.629625 -0.536191 0
M  V30 2478 H 245.973 0.678575 -1.55542 0
M  V30 2479 H 244.745 1.86352 -3.44076 0
M  V30 2480 H 244.368 3.1976 -2.36303 0
M  V30 2481 N 245.365 1.30045 0.890287 0
M  V30 2482 C 246.781 1.08261 1.17268 0
M  V30 2483 C 246.981 -0.160063 2.00863 0
M  V30 2484 O 246.037 -0.855181 2.37577 0
M  V30 2485 C 247.35 2.34323 1.8845 0
M  V30 2486 C 248.898 2.39735 2.01237 0
M  V30 2487 C 249.373 3.65625 2.7583 0
M  V30 2488 N 250.864 3.66402 2.83379 0
M  V30 2489 C 251.599 4.60498 3.41657 0
M  V30 2490 N 251.095 5.64933 4.01026 0
M  V30 2491 N 252.888 4.48051 3.39421 0
M  V30 2492 H 245.039 2.09777 0.332762 0
M  V30 2493 H 247.302 0.92446 0.209948 0
M  V30 2494 H 247.008 3.2498 1.34465 0
M  V30 2495 H 246.882 2.4256 2.88867 0
M  V30 2496 H 249.269 1.4956 2.54393 0
M  V30 2497 H 249.35 2.35476 0.999232 0
M  V30 2498 H 248.994 4.56156 2.23347 0
M  V30 2499 H 248.924 3.67144 3.77509 0
M  V30 2500 H 251.415 2.90896 2.41222 0
M  V30 2501 H 251.728 6.32841 4.43545 0
M  V30 2502 H 250.073 5.68732 3.99461 0
M  V30 2503 H 253.264 3.65649 2.92264 0
M  V30 2504 H 253.437 5.21565 3.84544 0
M  V30 2505 N 246.843 -1.10192 1.12674 0
M  V30 2506 C 248.092 -1.81573 0.8783 0
M  V30 2507 C 248.405 -1.86249 -0.597557 0
M  V30 2508 O 249.611 -2.5386 -0.962681 0
M  V30 2509 C 248.067 -3.26149 1.52167 0
M  V30 2510 C 247.675 -3.29763 3.03249 0
M  V30 2511 C 249.419 -4.0234 1.3536 0
M  V30 2512 C 247.326 -4.68815 3.60508 0
M  V30 2513 H 246.256 -0.680394 0.324931 0
M  V30 2514 H 248.907 -1.23902 1.35353 0
M  V30 2515 H 247.289 -3.83832 0.974104 0
M  V30 2516 H 248.463 -2.8189 3.6452 0
M  V30 2517 H 246.778 -2.67059 3.19481 0
M  V30 2518 H 249.375 -5.05058 1.75559 0
M  V30 2519 H 249.718 -4.15235 0.297554 0
M  V30 2520 H 250.251 -3.51079 1.87052 0
M  V30 2521 H 246.99 -4.61121 4.65884 0
M  V30 2522 H 246.51 -5.17045 3.04014 0
M  V30 2523 H 248.189 -5.37785 3.59717 0
M  V30 2524 N 248.321 -0.919034 -1.28029 0
M  V30 2525 C 249.269 -0.401753 -2.29104 0
M  V30 2526 C 250.263 0.509354 -1.61561 0
M  V30 2527 O 251.469 0.390014 -1.75724 0
M  V30 2528 H 247.844 -0.111331 -0.743713 0
M  V30 2529 H 249.815 -1.2672 -2.70156 0
M  V30 2530 C 248.564 0.338148 -3.46052 0
M  V30 2531 H 247.887 -0.353732 -3.98232 0
M  V30 2532 H 249.327 0.664653 -4.18758 0
M  V30 2533 C 247.786 1.54798 -2.99231 0
M  V30 2534 O 248.316 2.64696 -3.02157 0
M  V30 2535 N 246.522 1.3968 -2.54829 0
M  V30 2536 H 246.069 0.502698 -2.52647 0
M  V30 2537 H 246.027 2.20755 -2.23863 0
M  V30 2538 N 249.799 1.42003 -0.683588 0
M  V30 2539 C 251.045 2.02223 -0.218536 0
M  V30 2540 C 251.4 1.53126 1.16492 0
M  V30 2541 O 250.693 0.727459 1.77253 0
M  V30 2542 C 250.887 3.56827 -0.202357 0
M  V30 2543 C 250.716 4.20928 -1.5827 0
M  V30 2544 C 249.486 4.5573 -2.18262 0
M  V30 2545 C 251.684 4.47933 -2.52706 0
M  V30 2546 N 249.666 5.05056 -3.48986 0
M  V30 2547 C 251.037 4.98906 -3.68094 0
M  V30 2548 C 253.092 4.29931 -2.51125 0
M  V30 2549 C 251.795 5.33768 -4.82166 0
M  V30 2550 C 253.821 4.65875 -3.643 0
M  V30 2551 C 253.183 5.17008 -4.78417 0
M  V30 2552 H 249.282 0.771931 -0.125088 0
M  V30 2553 H 251.866 1.72729 -0.898479 0
M  V30 2554 H 250.037 3.85819 0.447029 0
M  V30 2555 H 251.769 4.03755 0.276399 0
M  V30 2556 H 248.524 4.41781 -1.70665 0
M  V30 2557 H 248.948 5.34139 -4.15962 0
M  V30 2558 H 253.59 3.89647 -1.6412 0
M  V30 2559 H 251.308 5.72981 -5.6984 0
M  V30 2560 H 254.894 4.53615 -3.64314 0
M  V30 2561 H 253.774 5.44301 -5.64541 0
M  V30 2562 N 251.277 0.427512 1.51691 0
M  V30 2563 C 252.209 -0.424521 2.25234 0
M  V30 2564 C 253.222 -0.994671 1.2888 0
M  V30 2565 O 254.411 -0.890483 1.54702 0
M  V30 2566 C 251.511 -1.60479 2.98496 0
M  V30 2567 C 250.684 -1.15527 4.21868 0
M  V30 2568 C 249.743 -2.20454 4.77793 0
M  V30 2569 O 248.769 -1.8029 5.39893 0
M  V30 2570 N 249.971 -3.52831 4.60967 0
M  V30 2571 H 252.736 0.205749 2.98993 0
M  V30 2572 H 250.297 0.255867 1.59865 0
M  V30 2573 H 252.289 -2.30276 3.32799 0
M  V30 2574 H 250.859 -2.14061 2.27809 0
M  V30 2575 H 250.079 -0.284736 3.9317 0
M  V30 2576 H 251.367 -0.832173 5.01949 0
M  V30 2577 H 250.765 -3.88201 4.11481 0
M  V30 2578 H 249.322 -4.18551 4.99658 0
M  V30 2579 N 252.755 -1.56801 0.158532 0
M  V30 2580 C 254.003 -1.96102 -0.488712 0
M  V30 2581 C 254.324 -1.04498 -1.64636 0
M  V30 2582 O 253.594 -0.108783 -1.95598 0
M  V30 2583 H 252.174 -0.724102 -0.183535 0
M  V30 2584 H 254.836 -1.93457 0.236728 0
M  V30 2585 H 253.932 -3.00097 -0.857219 0
M  V30 2586 N 254.233 0.115231 -1.57178 0
M  V30 2587 C 255.482 0.820945 -1.84237 0
M  V30 2588 C 255.795 1.80866 -0.744761 0
M  V30 2589 O 257.001 2.56083 -0.901871 0
M  V30 2590 C 255.457 1.51072 -3.26658 0
M  V30 2591 C 255.065 0.563795 -4.44438 0
M  V30 2592 C 256.809 2.20134 -3.62962 0
M  V30 2593 C 254.716 1.25701 -5.77887 0
M  V30 2594 H 253.646 0.310328 -0.687177 0
M  V30 2595 H 256.297 0.0737134 -1.83352 0
M  V30 2596 H 254.679 2.30471 -3.22024 0
M  V30 2597 H 255.853 -0.197247 -4.60378 0
M  V30 2598 H 254.168 -0.0200638 -4.16395 0
M  V30 2599 H 256.765 2.72696 -4.59936 0
M  V30 2600 H 257.108 2.98107 -2.90582 0
M  V30 2601 H 257.641 1.47619 -3.69396 0
M  V30 2602 H 254.38 0.518493 -6.53446 0
M  V30 2603 H 253.9 1.98997 -5.65827 0
M  V30 2604 H 255.579 1.78915 -6.2177 0
M  V30 2605 N 255.711 1.52812 0.385517 0
M  V30 2606 C 256.674 1.77188 1.45386 0
M  V30 2607 C 257.674 0.641953 1.4743 0
M  V30 2608 O 258.864 0.910033 1.4854 0
M  V30 2609 C 255.996 1.87582 2.8465 0
M  V30 2610 H 257.189 2.72583 1.25054 0
M  V30 2611 H 254.742 1.43586 0.617467 0
M  V30 2612 H 255.477 0.941849 3.10322 0
M  V30 2613 H 255.262 2.69748 2.84567 0
M  V30 2614 H 256.752 2.08102 3.62054 0
M  V30 2615 N 257.189 -0.644168 1.43834 0
M  V30 2616 C 258.414 -1.43642 1.49605 0
M  V30 2617 C 258.839 -1.8773 0.117913 0
M  V30 2618 O 258.197 -1.57938 -0.890239 0
M  V30 2619 C 258.245 -2.6416 2.45463 0
M  V30 2620 O 257.349 -3.63538 1.94714 0
M  V30 2621 H 256.69 -0.430329 0.50568 0
M  V30 2622 H 259.22 -0.787448 1.8884 0
M  V30 2623 H 259.23 -3.11864 2.63068 0
M  V30 2624 H 257.905 -2.31414 3.45572 0
M  V30 2625 H 256.482 -3.2273 1.86814 0
M  V30 2626 N 258.668 -1.30515 -0.883378 0
M  V30 2627 C 259.916 -1.19194 -1.63209 0
M  V30 2628 C 260.237 0.253205 -1.93349 0
M  V30 2629 O 259.507 1.17025 -1.57105 0
M  V30 2630 H 258.087 -0.438148 -0.605009 0
M  V30 2631 H 260.749 -1.63663 -1.05832 0
M  V30 2632 H 259.845 -1.75396 -2.58153 0
M  V30 2633 N 260.146 1.09593 -1.13257 0
M  V30 2634 C 261.371 1.8604 -0.916732 0
M  V30 2635 C 261.796 1.80504 0.529146 0
M  V30 2636 O 261.154 1.18127 1.37534 0
M  V30 2637 C 261.202 3.32017 -1.40703 0
M  V30 2638 O 260.306 4.08141 -0.591153 0
M  V30 2639 H 259.647 0.576943 -0.328683 0
M  V30 2640 H 262.177 1.38405 -1.50682 0
M  V30 2641 H 262.187 3.82865 -1.4099 0
M  V30 2642 H 260.862 3.35361 -2.45979 0
M  V30 2643 H 259.439 3.67084 -0.656005 0
M  V30 2644 N 261.624 0.925811 1.2754 0
M  V30 2645 C 263.035 0.610102 1.7645 0
M  V30 2646 C 263.386 -0.874723 1.75622 0
M  V30 2647 O 262.511 -1.68444 1.35851 0
M  V30 2648 C 263.106 1.10073 3.20421 0
M  V30 2649 C 261.665 0.835723 3.67005 0
M  V30 2650 C 260.812 1.26054 2.46993 0
M  V30 2651 H 263.763 1.10579 1.13833 0
M  V30 2652 H 263.784 0.447557 3.77859 0
M  V30 2653 H 263.296 2.18143 3.20991 0
M  V30 2654 H 261.397 -0.231249 3.71882 0
M  V30 2655 H 261.51 1.45193 4.56569 0
M  V30 2656 H 259.874 0.679111 2.45479 0
M  V30 2657 H 260.657 2.34984 2.50275 0
M  V30 2658 N 263.102 -1.41638 0.69111 0
M  V30 2659 C 264.348 -2.01598 0.220519 0
M  V30 2660 C 264.681 -1.54594 -1.17535 0
M  V30 2661 O 263.956 -0.755177 -1.79241 0
M  V30 2662 C 264.239 -3.59062 0.273243 0
M  V30 2663 C 264.092 -4.16203 1.70573 0
M  V30 2664 C 265.411 -4.38546 -0.369457 0
M  V30 2665 H 262.53 -0.732468 0.0816045 0
M  V30 2666 H 265.172 -1.68445 0.878986 0
M  V30 2667 H 263.322 -3.87435 -0.287411 0
M  V30 2668 H 264.994 -3.98722 2.31989 0
M  V30 2669 H 263.237 -3.71414 2.2413 0
M  V30 2670 H 263.908 -5.25358 1.69419 0
M  V30 2671 H 266.384 -4.1596 0.107977 0
M  V30 2672 H 265.26 -5.48069 -0.302002 0
M  V30 2673 H 265.521 -4.17662 -1.44951 0
M  V30 2674 N 264.58 -0.43555 -1.51462 0
M  V30 2675 C 265.829 0.133007 -2.01261 0
M  V30 2676 C 266.142 1.43942 -1.32439 0
M  V30 2677 O 267.348 2.09081 -1.73198 0
M  V30 2678 C 265.804 0.287581 -3.58749 0
M  V30 2679 C 265.412 -1.00829 -4.36506 0
M  V30 2680 C 267.156 0.810004 -4.167 0
M  V30 2681 C 265.063 -0.819454 -5.85695 0
M  V30 2682 H 263.993 0.0534822 -0.752101 0
M  V30 2683 H 266.644 -0.565038 -1.74584 0
M  V30 2684 H 265.026 1.04859 -3.81865 0
M  V30 2685 H 266.2 -1.77749 -4.25138 0
M  V30 2686 H 264.515 -1.45911 -3.89999 0
M  V30 2687 H 267.112 0.967743 -5.2587 0
M  V30 2688 H 267.455 1.79196 -3.75758 0
M  V30 2689 H 267.988 0.107357 -3.97655 0
M  V30 2690 H 264.727 -1.77374 -6.31046 0
M  V30 2691 H 264.247 -0.0900208 -5.99732 0
M  V30 2692 H 265.926 -0.471949 -6.45276 0
M  V30 2693 N 266.058 1.56714 -0.166846 0
M  V30 2694 C 267.304 1.97039 0.479962 0
M  V30 2695 C 267.637 1.05264 1.63197 0
M  V30 2696 O 266.912 0.0988833 1.94248 0
M  V30 2697 C 267.195 3.46867 0.967212 0
M  V30 2698 C 267.048 4.49421 -0.18466 0
M  V30 2699 C 268.367 3.9968 1.84238 0
M  V30 2700 H 265.486 0.71641 0.172992 0
M  V30 2701 H 268.128 1.8832 -0.252079 0
M  V30 2702 H 266.278 3.54428 1.59101 0
M  V30 2703 H 267.95 4.53924 -0.821621 0
M  V30 2704 H 266.193 4.25573 -0.840837 0
M  V30 2705 H 266.864 5.51644 0.198317 0
M  V30 2706 H 269.34 3.94723 1.31655 0
M  V30 2707 H 268.216 5.04941 2.15234 0
M  V30 2708 H 268.477 3.43226 2.78654 0
M  V30 2709 N 267.536 -0.106894 1.57237 0
M  V30 2710 C 268.469 -1.16125 1.96444 0
M  V30 2711 C 269.447 -1.3947 0.835871 0
M  V30 2712 O 270.631 -1.53425 1.09513 0
M  V30 2713 C 267.758 -2.51277 2.27107 0
M  V30 2714 C 266.804 -2.44285 3.4961 0
M  V30 2715 S 267.637 -1.87077 5.01759 0
M  V30 2716 C 268.793 -3.23877 5.35588 0
M  V30 2717 H 269.026 -0.826971 2.85567 0
M  V30 2718 H 266.559 -0.314124 1.51171 0
M  V30 2719 H 268.517 -3.29035 2.45451 0
M  V30 2720 H 267.178 -2.81879 1.38576 0
M  V30 2721 H 266.371 -3.4387 3.68469 0
M  V30 2722 H 265.973 -1.74652 3.30715 0
M  V30 2723 H 268.265 -4.20122 5.31511 0
M  V30 2724 H 269.208 -3.09833 6.36717 0
M  V30 2725 H 269.616 -3.22864 4.63054 0
M  V30 2726 N 269.014 -1.53014 -0.377408 0
M  V30 2727 C 270.244 -1.72265 -1.14054 0
M  V30 2728 C 270.652 -0.44601 -1.83868 0
M  V30 2729 O 269.995 0.590095 -1.73964 0
M  V30 2730 C 270.057 -2.82492 -2.22348 0
M  V30 2731 C 269.721 -4.23233 -1.72402 0
M  V30 2732 C 270.718 -5.05992 -1.19448 0
M  V30 2733 C 268.403 -4.696 -1.78273 0
M  V30 2734 C 270.397 -6.33203 -0.730268 0
M  V30 2735 C 268.084 -5.96792 -1.31464 0
M  V30 2736 C 269.082 -6.78424 -0.789297 0
M  V30 2737 O 268.77 -8.0323 -0.328077 0
M  V30 2738 H 268.502 -0.579873 -0.347453 0
M  V30 2739 H 271.056 -2.00502 -0.445882 0
M  V30 2740 H 269.286 -2.49702 -2.95272 0
M  V30 2741 H 270.975 -2.90034 -2.83963 0
M  V30 2742 H 271.741 -4.71349 -1.14259 0
M  V30 2743 H 267.62 -4.06142 -2.18106 0
M  V30 2744 H 271.164 -6.96868 -0.319542 0
M  V30 2745 H 267.061 -6.30937 -1.36342 0
M  V30 2746 H 267.829 -8.1727 -0.448493 0
M  V30 2747 N 270.492 0.636531 -1.44174 0
M  V30 2748 C 271.425 1.76139 -1.45087 0
M  V30 2749 C 272.403 1.59611 -0.310326 0
M  V30 2750 O 273.587 1.81568 -0.506477 0
M  V30 2751 C 270.714 3.13648 -1.27839 0
M  V30 2752 C 269.76 3.48838 -2.45386 0
M  V30 2753 S 270.593 3.46927 -4.07924 0
M  V30 2754 C 271.749 4.87064 -3.9309 0
M  V30 2755 H 271.982 1.75096 -2.40268 0
M  V30 2756 H 269.515 0.810666 -1.31406 0
M  V30 2757 H 271.473 3.93002 -1.18575 0
M  V30 2758 H 270.134 3.12235 -0.341787 0
M  V30 2759 H 269.327 4.48886 -2.29167 0
M  V30 2760 H 268.929 2.76935 -2.51362 0
M  V30 2761 H 271.221 5.76153 -3.56446 0
M  V30 2762 H 272.164 5.08337 -4.92949 0
M  V30 2763 H 272.572 4.61384 -3.25246 0
M  V30 2764 N 271.97 1.30982 0.876444 0
M  V30 2765 C 272.933 1.18054 1.96459 0
M  V30 2766 C 273.933 0.109399 1.60427 0
M  V30 2767 O 275.123 0.358173 1.70478 0
M  V30 2768 C 272.255 0.810616 3.31122 0
M  V30 2769 H 273.448 2.14735 2.09354 0
M  V30 2770 H 271.001 1.145 1.06392 0
M  V30 2771 H 271.736 -0.155322 3.23928 0
M  V30 2772 H 271.521 1.58481 3.58645 0
M  V30 2773 H 273.011 0.743876 4.10921 0
M  V30 2774 N 273.449 -1.08991 1.13837 0
M  V30 2775 C 274.382 -2.15049 0.763477 0
M  V30 2776 C 275.36 -1.60629 -0.252398 0
M  V30 2777 O 276.544 -1.87958 -0.142853 0
M  V30 2778 C 273.671 -3.38441 0.132545 0
M  V30 2779 C 272.717 -4.11596 1.11763 0
M  V30 2780 S 273.55 -4.6521 2.65216 0
M  V30 2781 C 274.706 -5.91896 2.03495 0
M  V30 2782 H 274.939 -2.46518 1.66182 0
M  V30 2783 H 272.472 -1.21008 0.958976 0
M  V30 2784 H 274.43 -4.09883 -0.225074 0
M  V30 2785 H 273.091 -3.05182 -0.743135 0
M  V30 2786 H 272.284 -5.00121 0.624076 0
M  V30 2787 H 271.886 -3.46038 1.41894 0
M  V30 2788 H 274.178 -6.63156 1.38675 0
M  V30 2789 H 275.121 -6.45938 2.9012 0
M  V30 2790 H 275.529 -5.44625 1.48471 0
M  V30 2791 N 274.927 -0.932562 -1.27047 0
M  V30 2792 C 275.874 -0.434072 -2.26681 0
M  V30 2793 C 276.844 0.501639 -1.58344 0
M  V30 2794 O 278.029 0.419734 -1.86126 0
M  V30 2795 C 275.169 0.30261 -3.43771 0
M  V30 2796 C 274.282 -0.667774 -4.26808 0
M  V30 2797 C 273.417 0.0892393 -5.31125 0
M  V30 2798 C 272.456 -0.873532 -6.05835 0
M  V30 2799 N 271.593 -0.148832 -7.01942 0
M  V30 2800 H 276.433 -1.28868 -2.68695 0
M  V30 2801 H 273.97 -0.646713 -1.32121 0
M  V30 2802 H 275.928 0.746092 -4.10474 0
M  V30 2803 H 274.558 1.12142 -3.02695 0
M  V30 2804 H 273.61 -1.22978 -3.59973 0
M  V30 2805 H 274.922 -1.40337 -4.78651 0
M  V30 2806 H 274.076 0.592409 -6.03801 0
M  V30 2807 H 272.815 0.85777 -4.80097 0
M  V30 2808 H 271.82 -1.38791 -5.31994 0
M  V30 2809 H 273.045 -1.64193 -6.58952 0
M  V30 2810 H 270.991 0.601365 -6.53238 0
M  V30 2811 H 270.908 -0.82391 -7.51497 0
M  V30 2812 H 272.176 0.333527 -7.78786 0
M  V30 2813 N 276.405 1.4127 -0.698611 0
M  V30 2814 C 277.355 2.27997 -0.0119836 0
M  V30 2815 C 278.339 1.42363 0.749765 0
M  V30 2816 O 279.531 1.65607 0.624758 0
M  V30 2817 C 276.66 3.30702 0.921458 0
M  V30 2818 C 275.746 4.23814 0.155796 0
M  V30 2819 N 276.137 4.98572 -0.852015 0
M  V30 2820 C 274.435 4.44284 0.390836 0
M  V30 2821 C 275.136 5.66744 -1.3106 0
M  V30 2822 N 274.112 5.39867 -0.635944 0
M  V30 2823 H 277.914 2.83232 -0.784649 0
M  V30 2824 H 275.428 1.53518 -0.529711 0
M  V30 2825 H 277.425 3.91661 1.42854 0
M  V30 2826 H 276.085 2.77028 1.69369 0
M  V30 2827 H 277.096 5.03024 -1.23235 0
M  V30 2828 H 273.773 4.01614 1.14071 0
M  V30 2829 H 275.163 6.36672 -2.14707 0
M  V30 2830 N 277.883 0.443576 1.51229 0
M  V30 2831 C 279.132 -0.122332 2.01329 0
M  V30 2832 C 279.445 -1.43237 1.33201 0
M  V30 2833 O 280.651 -2.0816 1.74304 0
M  V30 2834 C 279.107 -0.268551 3.58897 0
M  V30 2835 C 278.715 1.03142 4.35965 0
M  V30 2836 C 280.459 -0.787894 4.17124 0
M  V30 2837 C 278.366 0.850504 5.85252 0
M  V30 2838 H 277.296 -0.0494929 0.752374 0
M  V30 2839 H 279.947 0.574289 1.74282 0
M  V30 2840 H 278.329 -1.02832 3.82415 0
M  V30 2841 H 279.503 1.80001 4.24189 0
M  V30 2842 H 277.818 1.47977 3.89219 0
M  V30 2843 H 280.415 -0.939841 5.26375 0
M  V30 2844 H 280.758 -1.77201 3.76703 0
M  V30 2845 H 281.291 -0.0862669 3.97706 0
M  V30 2846 H 278.03 1.80718 6.30096 0
M  V30 2847 H 277.55 0.121825 5.99676 0
M  V30 2848 H 279.229 0.506163 6.45017 0
M  V30 2849 N 279.361 -1.56624 0.175154 0
M  V30 2850 C 280.609 -1.96609 -0.467885 0
M  V30 2851 C 280.93 -1.06238 -1.63519 0
M  V30 2852 O 280.2 -0.129523 -1.95471 0
M  V30 2853 H 278.78 -0.726008 -0.175845 0
M  V30 2854 H 281.442 -1.93195 0.257234 0
M  V30 2855 H 280.538 -3.00989 -0.825342 0
M  V30 2856 N 280.839 0.0985539 -1.57292 0
M  V30 2857 C 281.802 1.10402 -2.00858 0
M  V30 2858 C 282.802 1.33146 -0.901593 0
M  V30 2859 O 283.992 1.29318 -1.16716 0
M  V30 2860 C 281.124 2.45394 -2.36632 0
M  V30 2861 H 282.317 0.729099 -2.90902 0
M  V30 2862 H 279.87 0.343495 -1.52479 0
M  V30 2863 H 280.605 2.87769 -1.49531 0
M  V30 2864 H 280.39 2.30235 -3.17387 0
M  V30 2865 H 281.88 3.17718 -2.71007 0
M  V30 2866 N 282.317 1.53212 0.369288 0
M  V30 2867 C 283.566 1.68436 1.10961 0
M  V30 2868 C 283.879 0.440738 1.9057 0
M  V30 2869 O 285.085 0.473446 2.6734 0
M  V30 2870 C 283.541 2.97744 2.0218 0
M  V30 2871 C 283.149 4.29355 1.279 0
M  V30 2872 C 284.893 3.22334 2.76226 0
M  V30 2873 C 282.8 5.49755 2.17999 0
M  V30 2874 H 281.73 0.627568 0.41794 0
M  V30 2875 H 284.381 1.79713 0.370884 0
M  V30 2876 H 282.763 2.8026 2.79768 0
M  V30 2877 H 283.937 4.57458 0.554007 0
M  V30 2878 H 282.252 4.11179 0.657311 0
M  V30 2879 H 284.849 4.09471 3.43857 0
M  V30 2880 H 285.192 2.38238 3.41392 0
M  V30 2881 H 285.725 3.40475 2.05723 0
M  V30 2882 H 282.464 6.36318 1.57417 0
M  V30 2883 H 281.984 5.25937 2.88359 0
M  V30 2884 H 283.663 5.84401 2.77641 0
M  V30 2885 N 283.795 -0.628877 1.44509 0
M  V30 2886 C 285.023 -1.41554 1.50897 0
M  V30 2887 C 285.438 -1.8832 0.134564 0
M  V30 2888 O 284.795 -1.60969 -0.859965 0
M  V30 2889 C 284.846 -2.63435 2.47556 0
M  V30 2890 O 284.567 -2.18619 3.79654 0
M  V30 2891 C 286.068 -3.56537 2.63431 0
M  V30 2892 H 283.288 -0.434044 0.511709 0
M  V30 2893 H 285.832 -0.768895 1.89495 0
M  V30 2894 H 283.987 -3.24187 2.12089 0
M  V30 2895 H 284.401 -2.97652 4.31861 0
M  V30 2896 H 285.875 -4.38657 3.35088 0
M  V30 2897 H 286.352 -4.05493 1.68738 0
M  V30 2898 H 286.958 -3.01653 2.9981 0
M  V30 2899 N 285.273 -1.31445 -0.869486 0
M  V30 2900 C 286.236 -1.19094 -1.9583 0
M  V30 2901 C 287.236 -0.117906 -1.60367 0
M  V30 2902 O 288.426 -0.367208 -1.70286 0
M  V30 2903 C 285.558 -0.828165 -3.30688 0
M  V30 2904 H 286.751 -2.15842 -2.08212 0
M  V30 2905 H 284.304 -1.15063 -1.05784 0
M  V30 2906 H 285.039 0.138142 -3.24006 0
M  V30 2907 H 284.824 -1.6038 -3.578 0
M  V30 2908 H 286.314 -0.765658 -4.10521 0
M  V30 2909 N 286.751 1.08385 -1.14413 0
M  V30 2910 C 287.699 2.17406 -0.826888 0
M  V30 2911 C 288.693 1.6827 0.195312 0
M  V30 2912 O 289.899 1.79927 0.0513892 0
M  V30 2913 H 286.274 0.70934 -0.249681 0
M  V30 2914 H 288.245 2.41388 -1.75426 0
M  V30 2915 C 286.994 3.46215 -0.320979 0
M  V30 2916 H 286.317 3.84401 -1.0989 0
M  V30 2917 H 287.757 4.23777 -0.137549 0
M  V30 2918 C 286.216 3.23067 0.955472 0
M  V30 2919 O 286.746 3.4668 2.02918 0
M  V30 2920 N 284.952 2.7661 0.890798 0
M  V30 2921 H 284.499 2.57594 0.0168815 0
M  V30 2922 H 284.457 2.61501 1.74542 0
M  V30 2923 N 288.23 0.939286 1.26551 0
M  V30 2924 C 289.16 0.465044 2.28822 0
M  V30 2925 C 290.141 -0.480692 1.63167 0
M  V30 2926 O 291.326 -0.382955 1.90387 0
M  V30 2927 C 288.456 -0.27234 3.46231 0
M  V30 2928 C 287.41 0.58666 4.2396 0
M  V30 2929 C 286.736 -0.280573 5.33963 0
M  V30 2930 C 288.036 1.85704 4.88171 0
M  V30 2931 H 289.73 1.31979 2.68741 0
M  V30 2932 H 287.276 0.636061 1.29191 0
M  V30 2933 H 289.229 -0.615133 4.16886 0
M  V30 2934 H 287.953 -1.16121 3.0526 0
M  V30 2935 H 286.612 0.91232 3.55067 0
M  V30 2936 H 286.26 -1.16874 4.89234 0
M  V30 2937 H 285.96 0.29076 5.8688 0
M  V30 2938 H 287.484 -0.618678 6.07458 0
M  V30 2939 H 288.898 1.58161 5.51052 0
M  V30 2940 H 287.295 2.37279 5.51197 0
M  V30 2941 H 288.365 2.56957 4.11219 0
M  V30 2942 N 289.708 -1.40897 0.706093 0
M  V30 2943 C 290.957 -2.00284 0.238574 0
M  V30 2944 C 291.27 -1.56604 -1.17194 0
M  V30 2945 O 292.476 -2.08624 -1.73748 0
M  V30 2946 C 290.932 -3.57934 0.375623 0
M  V30 2947 C 290.54 -4.10591 1.79217 0
M  V30 2948 C 292.284 -4.24488 -0.0315857 0
M  V30 2949 C 290.191 -5.60712 1.88032 0
M  V30 2950 H 289.121 -0.749144 0.0854398 0
M  V30 2951 H 291.772 -1.61251 0.875813 0
M  V30 2952 H 290.154 -3.94622 -0.330042 0
M  V30 2953 H 291.328 -3.85301 2.52745 0
M  V30 2954 H 289.643 -3.56601 2.15 0
M  V30 2955 H 292.24 -5.34698 0.0136842 0
M  V30 2956 H 292.583 -4.02261 -1.072 0
M  V30 2957 H 293.116 -3.92873 0.624181 0
M  V30 2958 H 289.855 -5.87781 2.90161 0
M  V30 2959 H 289.375 -5.87896 1.18903 0
M  V30 2960 H 291.054 -6.25658 1.64805 0
M  V30 2961 N 291.186 -0.45159 -1.50991 0
M  V30 2962 C 292.149 0.341117 -2.26647 0
M  V30 2963 C 293.149 0.937422 -1.30649 0
M  V30 2964 O 294.339 0.809644 -1.54241 0
M  V30 2965 C 291.471 1.48398 -3.06905 0
M  V30 2966 H 292.664 -0.322117 -2.98165 0
M  V30 2967 H 290.217 -0.205122 -1.54948 0
M  V30 2968 H 290.952 2.18284 -2.39838 0
M  V30 2969 H 290.737 1.06241 -3.77432 0
M  V30 2970 H 292.227 2.04367 -3.64176 0
M  V30 2971 N 292.664 1.56529 -0.183458 0
M  V30 2972 C 293.912 1.96855 0.457452 0
M  V30 2973 C 294.233 1.07104 1.62953 0
M  V30 2974 O 293.503 0.139887 1.954 0
M  V30 2975 H 292.083 0.72693 0.171992 0
M  V30 2976 H 294.745 1.93056 -0.267476 0
M  V30 2977 H 293.841 3.01423 0.809368 0
M  V30 2978 N 294.142 -0.090211 1.57342 0
M  V30 2979 C 295.39 -0.791241 1.85967 0
M  V30 2980 C 295.711 -1.7903 0.772859 0
M  V30 2981 O 294.981 -1.94872 -0.200398 0
M  V30 2982 H 293.561 -0.295205 0.686195 0
M  V30 2983 H 296.223 -0.0706782 1.94772 0
M  V30 2984 H 295.319 -1.31882 2.82867 0
M  V30 2985 N 295.62 -1.53406 -0.361157 0
M  V30 2986 C 297.036 -1.43277 -0.703124 0
M  V30 2987 C 297.236 -0.575384 -1.9311 0
M  V30 2988 O 296.292 -0.0595362 -2.5243 0
M  V30 2989 C 297.605 -2.8653 -0.9122 0
M  V30 2990 C 299.153 -2.96191 -1.01193 0
M  V30 2991 C 299.628 -4.40514 -1.25345 0
M  V30 2992 N 301.119 -4.43962 -1.32105 0
M  V30 2993 C 301.854 -5.52746 -1.5251 0
M  V30 2994 N 301.35 -6.71567 -1.70203 0
M  V30 2995 N 303.143 -5.40331 -1.54916 0
M  V30 2996 H 295.294 -2.07654 0.446475 0
M  V30 2997 H 297.557 -0.937944 0.137715 0
M  V30 2998 H 297.263 -3.51605 -0.0816414 0
M  V30 2999 H 297.137 -3.30441 -1.81903 0
M  V30 3000 H 299.524 -2.31266 -1.83303 0
M  V30 3001 H 299.605 -2.55667 -0.0823929 0
M  V30 3002 H 299.249 -5.06014 -0.437346 0
M  V30 3003 H 299.179 -4.78614 -2.19627 0
M  V30 3004 H 301.67 -3.58332 -1.20028 0
M  V30 3005 H 301.983 -7.50241 -1.85359 0
M  V30 3006 H 300.328 -6.74545 -1.67373 0
M  V30 3007 H 303.519 -4.46465 -1.40663 0
M  V30 3008 H 303.692 -6.25173 -1.70477 0
M  V30 3009 N 297.098 0.621204 -1.44841 0
M  V30 3010 C 298.323 1.41244 -1.51871 0
M  V30 3011 C 298.748 1.87519 -0.147764 0
M  V30 3012 O 298.106 1.59334 0.865 0
M  V30 3013 C 298.154 2.60221 -2.49634 0
M  V30 3014 O 297.258 3.60395 -2.00473 0
M  V30 3015 H 296.599 0.42223 -0.512463 0
M  V30 3016 H 299.129 0.757305 -1.90069 0
M  V30 3017 H 299.139 3.0764 -2.67996 0
M  V30 3018 H 297.814 2.25887 -3.4921 0
M  V30 3019 H 296.391 3.19717 -1.91925 0
M  V30 3020 N 298.576 1.31904 0.862503 0
M  V30 3021 C 299.987 1.19803 1.43193 0
M  V30 3022 C 300.338 -0.192567 1.95253 0
M  V30 3023 O 299.463 -1.09081 1.86896 0
M  V30 3024 C 300.058 2.16883 2.60283 0
M  V30 3025 C 298.617 2.08692 3.13248 0
M  V30 3026 C 297.764 2.05691 1.85975 0
M  V30 3027 H 300.715 1.43846 0.670365 0
M  V30 3028 H 300.736 1.76278 3.37204 0
M  V30 3029 H 300.248 3.18083 2.22363 0
M  V30 3030 H 298.349 1.10713 3.55771 0
M  V30 3031 H 298.462 2.9815 3.75025 0
M  V30 3032 H 296.826 1.50814 2.05249 0
M  V30 3033 H 297.609 3.08659 1.50282 0
M  V30 3034 N 300.054 -1.07777 1.14986 0
M  V30 3035 C 301.331 -1.7699 0.832695 0
M  V30 3036 C 301.711 -2.001 -0.672561 0
M  V30 3037 O 301.059 -1.61598 -1.6155 0
M  V30 3038 C 301.269 -3.08139 1.63863 0
M  V30 3039 C 302.617 -3.8256 1.84208 0
M  V30 3040 O 303.641 -3.17939 1.60603 0
M  V30 3041 O 302.5 -4.98612 2.23714 0
M  V30 3042 H 299.594 -0.768389 0.305791 0
M  V30 3043 H 302.14 -1.14182 1.25541 0
M  V30 3044 H 300.912 -2.86909 2.6608 0
M  V30 3045 H 300.535 -3.78678 1.21197 0
M  V30 3046 N 301.532 -0.945985 -1.26051 0
M  V30 3047 C 302.442 -0.465633 -2.29933 0
M  V30 3048 C 303.458 0.462761 -1.67733 0
M  V30 3049 O 304.634 0.341118 -1.9849 0
M  V30 3050 C 301.699 0.256994 -3.45746 0
M  V30 3051 C 300.76 -0.708549 -4.23412 0
M  V30 3052 C 299.993 -0.0203135 -5.33696 0
M  V30 3053 O 300.216 1.19571 -5.57726 0
M  V30 3054 O 299.15 -0.701459 -5.97799 0
M  V30 3055 H 302.976 -1.32866 -2.73094 0
M  V30 3056 H 300.561 -0.712071 -1.31339 0
M  V30 3057 H 302.443 0.663852 -4.16138 0
M  V30 3058 H 301.118 1.09533 -3.04605 0
M  V30 3059 H 300.025 -1.16545 -3.55483 0
M  V30 3060 H 301.358 -1.51465 -4.68315 0
M  V30 3061 N 303.011 1.40521 -0.713556 0
M  V30 3062 C 304.422 1.83853 -0.324807 0
M  V30 3063 C 304.773 1.59667 1.14021 0
M  V30 3064 O 303.898 1.07649 1.87725 0
M  V30 3065 C 304.493 3.33751 -0.582746 0
M  V30 3066 C 303.052 3.75584 -0.247727 0
M  V30 3067 C 302.199 2.63753 -0.856121 0
M  V30 3068 H 305.15 1.29817 -0.91286 0
M  V30 3069 H 305.171 3.80194 0.152682 0
M  V30 3070 H 304.683 3.51322 -1.64908 0
M  V30 3071 H 302.784 3.63608 0.813624 0
M  V30 3072 H 302.897 4.7373 -0.715307 0
M  V30 3073 H 301.261 2.53108 -0.28432 0
M  V30 3074 H 302.044 2.84137 -1.92668 0
M  V30 3075 N 304.489 0.459591 1.5075 0
M  V30 3076 C 305.735 -0.0994966 2.02556 0
M  V30 3077 C 306.068 -1.40399 1.3417 0
M  V30 3078 O 305.343 -1.88892 0.463683 0
M  V30 3079 C 305.626 -0.295242 3.58888 0
M  V30 3080 C 305.479 1.02947 4.37861 0
M  V30 3081 C 306.798 -1.05502 4.27267 0
M  V30 3082 H 303.917 -0.034686 0.736183 0
M  V30 3083 H 306.559 0.602938 1.8018 0
M  V30 3084 H 304.709 -0.893563 3.78084 0
M  V30 3085 H 306.381 1.66348 4.30263 0
M  V30 3086 H 304.624 1.62885 4.02058 0
M  V30 3087 H 305.295 0.846281 5.45474 0
M  V30 3088 H 307.771 -0.547993 4.12476 0
M  V30 3089 H 306.647 -1.16077 5.36486 0
M  V30 3090 H 306.908 -2.08875 3.89645 0
M  V30 3091 N 305.967 -1.56429 0.191757 0
M  V30 3092 C 306.93 -2.17707 -0.716688 0
M  V30 3093 C 307.93 -1.13061 -1.14341 0
M  V30 3094 O 309.12 -1.38464 -1.05704 0
M  V30 3095 C 306.252 -2.77644 -1.97804 0
M  V30 3096 H 307.445 -2.99342 -0.1829 0
M  V30 3097 H 304.998 -1.56193 -0.0578566 0
M  V30 3098 H 305.733 -1.99799 -2.55443 0
M  V30 3099 H 305.518 -3.54246 -1.68083 0
M  V30 3100 H 307.008 -3.24708 -2.62592 0
M  V30 3101 N 307.445 0.0818655 -1.57387 0
M  V30 3102 C 308.692 0.782914 -1.86753 0
M  V30 3103 C 309.02 1.78082 -0.782118 0
M  V30 3104 O 308.275 1.94426 0.22295 0
M  V30 3105 C 308.574 1.53513 -3.22752 0
M  V30 3106 C 308.24 0.678134 -4.45771 0
M  V30 3107 C 306.902 0.441929 -4.79166 0
M  V30 3108 C 309.254 0.0832243 -5.21134 0
M  V30 3109 C 306.582 -0.398833 -5.85343 0
M  V30 3110 C 308.934 -0.744935 -6.28199 0
M  V30 3111 C 307.598 -0.991107 -6.60101 0
M  V30 3112 H 306.868 0.286489 -0.683378 0
M  V30 3113 H 309.515 0.0439808 -1.91449 0
M  V30 3114 H 307.82 2.34599 -3.138 0
M  V30 3115 H 309.517 2.08218 -3.42705 0
M  V30 3116 H 306.107 0.872357 -4.19628 0
M  V30 3117 H 310.291 0.252847 -4.95655 0
M  V30 3118 H 305.547 -0.598405 -6.08465 0
M  V30 3119 H 309.721 -1.21271 -6.8576 0
M  V30 3120 H 307.348 -1.64437 -7.42202 0
M  V30 3121 N 308.923 1.53595 0.353017 0
M  V30 3122 C 310.169 1.70638 1.09593 0
M  V30 3123 C 310.502 0.463286 1.88593 0
M  V30 3124 O 309.777 -0.539597 1.86865 0
M  V30 3125 C 310.06 2.96406 2.04489 0
M  V30 3126 C 309.913 4.30901 1.29014 0
M  V30 3127 C 311.232 3.17812 3.0444 0
M  V30 3128 H 308.351 0.620913 0.397034 0
M  V30 3129 H 310.993 1.86254 0.375446 0
M  V30 3130 H 309.143 2.83223 2.65927 0
M  V30 3131 H 310.815 4.55917 0.702638 0
M  V30 3132 H 309.058 4.29741 0.592071 0
M  V30 3133 H 309.729 5.1506 1.98537 0
M  V30 3134 H 312.205 3.30263 2.53112 0
M  V30 3135 H 311.081 4.07223 3.6805 0
M  V30 3136 H 311.342 2.33669 3.75301 0
M  V30 3137 N 310.401 -0.613514 1.45168 0
M  V30 3138 C 311.641 -1.38405 1.5041 0
M  V30 3139 C 312.005 -1.91489 0.139922 0
M  V30 3140 O 313.206 -2.68716 0.067033 0
M  V30 3141 C 311.477 -2.50552 2.5487 0
M  V30 3142 S 313.036 -3.38439 2.79292 0
M  V30 3143 H 309.854 -0.471945 0.531779 0
M  V30 3144 H 312.456 -0.708518 1.82209 0
M  V30 3145 H 311.16 -2.09894 3.52665 0
M  V30 3146 H 310.691 -3.22913 2.24701 0
M  V30 3147 H 312.706 -4.48527 2.12222 0
M  V30 3148 N 311.879 -1.3236 -0.855495 0
M  V30 3149 C 312.827 -1.2118 -1.9854 0
M  V30 3150 C 313.821 -0.116788 -1.68997 0
M  V30 3151 O 315.027 -0.279657 -1.77814 0
M  V30 3152 H 311.402 -0.375608 -0.651477 0
M  V30 3153 H 313.373 -2.16743 -2.05098 0
M  V30 3154 C 312.122 -0.950849 -3.34446 0
M  V30 3155 H 311.445 -1.78563 -3.57708 0
M  V30 3156 H 312.885 -0.912863 -4.14057 0
M  V30 3157 C 311.344 0.346404 -3.35114 0
M  V30 3158 O 311.874 1.35855 -3.7803 0
M  V30 3159 N 310.08 0.36808 -2.88259 0
M  V30 3160 H 309.627 -0.456102 -2.5353 0
M  V30 3161 H 309.585 1.23591 -2.89089 0
M  V30 3162 N 313.357 1.07166 -1.15556 0
M  V30 3163 C 314.32 2.12589 -0.856644 0
M  V30 3164 C 315.32 1.6015 0.14444 0
M  V30 3165 O 316.51 1.7399 -0.0854163 0
M  V30 3166 C 313.642 3.39753 -0.279405 0
M  V30 3167 H 314.835 2.40539 -1.79112 0
M  V30 3168 H 312.388 1.23086 -0.963298 0
M  V30 3169 H 313.123 3.17447 0.663174 0
M  V30 3170 H 312.908 3.79117 -1.00063 0
M  V30 3171 H 314.398 4.17507 -0.0879113 0
M  V30 3172 N 314.835 0.952656 1.25548 0
M  V30 3173 C 315.798 0.475794 2.24207 0
M  V30 3174 C 316.798 -0.419428 1.55234 0
M  V30 3175 O 317.988 -0.216994 1.72843 0
M  V30 3176 C 315.12 -0.312814 3.39462 0
M  V30 3177 H 316.313 1.34779 2.67908 0
M  V30 3178 H 313.866 0.735739 1.37901 0
M  V30 3179 H 314.601 -1.20257 3.01179 0
M  V30 3180 H 314.386 0.329404 3.90714 0
M  V30 3181 H 315.876 -0.635986 4.12729 0
M  V30 3182 N 316.313 -1.40141 0.720998 0
M  V30 3183 C 317.541 -2.05096 0.272656 0
M  V30 3184 C 317.956 -1.54334 -1.0875 0
M  V30 3185 O 317.313 -0.702211 -1.6845 0
M  V30 3186 C 317.364 -3.60636 0.249835 0
M  V30 3187 O 317.085 -4.09526 1.55629 0
M  V30 3188 C 318.586 -4.42772 -0.216396 0
M  V30 3189 H 315.806 -0.659897 0.121558 0
M  V30 3190 H 318.35 -1.79449 0.980723 0
M  V30 3191 H 316.505 -3.85232 -0.409237 0
M  V30 3192 H 316.919 -5.03758 1.4604 0
M  V30 3193 H 318.393 -5.51702 -0.181212 0
M  V30 3194 H 318.87 -4.20756 -1.25941 0
M  V30 3195 H 319.476 -4.23294 0.412596 0
M  V30 3196 N 317.792 -0.46758 -1.50504 0
M  V30 3197 C 319.203 -0.0116166 -1.86696 0
M  V30 3198 C 319.554 1.39202 -1.38265 0
M  V30 3199 O 318.679 2.0313 -0.746132 0
M  V30 3200 C 319.274 -0.0143044 -3.38797 0
M  V30 3201 C 317.833 0.386175 -3.74414 0
M  V30 3202 C 316.98 -0.401287 -2.74381 0
M  V30 3203 H 319.931 -0.682022 -1.43297 0
M  V30 3204 H 319.952 0.788641 -3.72237 0
M  V30 3205 H 319.464 -1.03602 -3.74016 0
M  V30 3206 H 317.565 1.41237 -3.44794 0
M  V30 3207 H 317.678 0.0899596 -4.79016 0
M  V30 3208 H 316.042 0.144536 -2.5429 0
M  V30 3209 H 316.825 -1.42244 -3.12444 0
M  V30 3210 N 319.27 1.56325 -0.20005 0
M  V30 3211 C 320.202 2.16555 0.750771 0
M  V30 3212 C 321.215 1.12871 1.1732 0
M  V30 3213 O 322.404 1.39943 1.10807 0
M  V30 3214 C 319.504 2.71684 2.02586 0
M  V30 3215 C 318.677 4.00321 1.76244 0
M  V30 3216 C 317.736 4.40227 2.88248 0
M  V30 3217 O 316.762 5.07552 2.57642 0
M  V30 3218 N 317.964 4.04138 4.16717 0
M  V30 3219 H 320.729 2.98772 0.235685 0
M  V30 3220 H 318.29 1.6189 -0.0182594 0
M  V30 3221 H 320.282 2.95363 2.76664 0
M  V30 3222 H 318.852 1.93893 2.45202 0
M  V30 3223 H 318.072 3.84723 0.85919 0
M  V30 3224 H 319.36 4.84279 1.56048 0
M  V30 3225 H 318.758 3.49993 4.44434 0
M  V30 3226 H 317.315 4.32756 4.87407 0
M  V30 3227 N 320.748 -0.0735177 1.57428 0
M  V30 3228 C 321.68 -1.11423 2.00294 0
M  V30 3229 C 322.693 -1.35084 0.908637 0
M  V30 3230 O 323.882 -1.33355 1.18654 0
M  V30 3231 C 320.982 -2.46548 2.32523 0
M  V30 3232 C 320.155 -2.42867 3.63778 0
M  V30 3233 C 319.214 -3.60087 3.83697 0
M  V30 3234 O 318.24 -3.41595 4.55304 0
M  V30 3235 N 319.442 -4.80372 3.25919 0
M  V30 3236 H 322.207 -0.749206 2.90184 0
M  V30 3237 H 319.768 -0.262195 1.59763 0
M  V30 3238 H 321.76 -3.23607 2.43024 0
M  V30 3239 H 320.33 -2.75059 1.48531 0
M  V30 3240 H 319.55 -1.51206 3.64047 0
M  V30 3241 H 320.838 -2.37506 4.49965 0
M  V30 3242 H 320.236 -4.983 2.67795 0
M  V30 3243 H 318.793 -5.54948 3.41871 0
M  V30 3244 N 322.226 -1.5378 -0.344866 0
M  V30 3245 C 323.189 -1.80981 -1.40637 0
M  V30 3246 C 324.189 -0.680816 -1.45676 0
M  V30 3247 O 325.379 -0.949095 -1.46075 0
M  V30 3248 C 322.511 -1.95063 -2.79577 0
M  V30 3249 H 323.704 -2.75803 -1.17783 0
M  V30 3250 H 321.257 -1.45173 -0.579181 0
M  V30 3251 H 321.992 -1.02379 -3.07716 0
M  V30 3252 H 321.777 -2.77198 -2.77315 0
M  V30 3253 H 323.267 -2.17629 -3.56409 0
M  V30 3254 N 323.704 0.605807 -1.45491 0
M  V30 3255 C 324.95 1.36679 -1.49823 0
M  V30 3256 C 325.283 1.93693 -0.140175 0
M  V30 3257 O 324.558 1.75158 0.845581 0
M  V30 3258 C 324.841 2.51337 -2.57879 0
M  V30 3259 C 324.694 1.99508 -4.03134 0
M  V30 3260 C 326.013 3.53463 -2.62205 0
M  V30 3261 H 323.132 0.495617 -0.545466 0
M  V30 3262 H 325.774 0.682732 -1.7731 0
M  V30 3263 H 323.924 3.09691 -2.34571 0
M  V30 3264 H 325.596 1.45789 -4.37656 0
M  V30 3265 H 323.839 1.30496 -4.13707 0
M  V30 3266 H 324.51 2.82169 -4.74431 0
M  V30 3267 H 326.986 3.04953 -2.83095 0
M  V30 3268 H 325.862 4.31178 -3.39672 0
M  V30 3269 H 326.123 4.09197 -1.67363 0
M  V30 3270 N 325.182 1.32811 0.848464 0
M  V30 3271 C 326.112 1.24882 1.97299 0
M  V30 3272 C 327.093 0.131357 1.69592 0
M  V30 3273 O 328.278 0.319553 1.91553 0
M  V30 3274 C 325.408 0.97746 3.33261 0
M  V30 3275 C 324.362 2.05682 3.75338 0
M  V30 3276 C 323.688 1.63777 5.09 0
M  V30 3277 C 324.988 3.47254 3.90144 0
M  V30 3278 H 326.682 2.18966 2.04191 0
M  V30 3279 H 324.228 1.05413 0.981029 0
M  V30 3280 H 326.181 0.908513 4.1149 0
M  V30 3281 H 324.905 0.000980011 3.266 0
M  V30 3282 H 323.564 2.11603 2.99366 0
M  V30 3283 H 323.212 0.648569 4.98801 0
M  V30 3284 H 322.912 2.36 5.38124 0
M  V30 3285 H 324.436 1.5833 5.89715 0
M  V30 3286 H 325.85 3.43888 4.58709 0
M  V30 3287 H 324.247 4.1788 4.30693 0
M  V30 3288 H 325.317 3.86462 2.92874 0
M  V30 3289 N 326.66 -1.06551 1.16123 0
M  V30 3290 C 327.57 -2.17484 0.879662 0
M  V30 3291 C 328.586 -1.73377 -0.147104 0
M  V30 3292 O 329.762 -2.01379 0.0289128 0
M  V30 3293 C 326.827 -3.44591 0.381829 0
M  V30 3294 C 325.888 -4.0322 1.4735 0
M  V30 3295 C 325.121 -5.24261 0.999324 0
M  V30 3296 O 325.344 -5.70198 -0.151957 0
M  V30 3297 O 324.278 -5.74775 1.78653 0
M  V30 3298 H 328.104 -2.44075 1.80724 0
M  V30 3299 H 325.689 -1.16042 0.940992 0
M  V30 3300 H 327.571 -4.21254 0.111053 0
M  V30 3301 H 326.246 -3.19532 -0.51777 0
M  V30 3302 H 325.153 -3.2806 1.79798 0
M  V30 3303 H 326.486 -4.32568 2.34831 0
M  V30 3304 N 328.138 -0.959301 -1.25041 0
M  V30 3305 C 329.366 -0.633949 -1.96948 0
M  V30 3306 C 329.781 0.794916 -1.7125 0
M  V30 3307 O 329.138 1.53231 -0.991287 0
M  V30 3308 C 329.189 -0.888805 -3.50403 0
M  V30 3309 O 328.91 -2.26149 -3.75218 0
M  V30 3310 C 330.411 -0.576482 -4.39536 0
M  V30 3311 H 327.631 -0.237263 -0.627652 0
M  V30 3312 H 330.175 -1.28495 -1.59089 0
M  V30 3313 H 328.33 -0.284145 -3.86357 0
M  V30 3314 H 328.744 -2.33514 -4.6965 0
M  V30 3315 H 330.218 -0.805314 -5.46094 0
M  V30 3316 H 330.695 0.489075 -4.36468 0
M  V30 3317 H 331.301 -1.16067 -4.09156 0
M  V30 3318 N 329.616 1.39756 -0.72842 0
M  V30 3319 C 330.844 2.04948 -0.283528 0
M  V30 3320 C 331.259 1.54908 1.0793 0
M  V30 3321 O 330.616 0.711135 1.68075 0
M  V30 3322 C 330.667 3.60498 -0.268957 0
M  V30 3323 O 330.388 4.08695 -1.57798 0
M  V30 3324 C 331.889 4.4288 0.192912 0
M  V30 3325 H 329.109 0.659243 -0.125056 0
M  V30 3326 H 331.653 1.78927 -0.990226 0
M  V30 3327 H 329.808 3.85444 0.388801 0
M  V30 3328 H 330.222 5.02977 -1.48709 0
M  V30 3329 H 331.696 5.51791 0.151952 0
M  V30 3330 H 332.173 4.21418 1.23708 0
M  V30 3331 H 332.779 4.23069 -0.435039 0
M  V30 3332 N 331.094 0.475555 1.50254 0
M  V30 3333 C 332.024 -0.30611 2.31485 0
M  V30 3334 C 333.005 -0.986228 1.38591 0
M  V30 3335 O 334.19 -0.982541 1.67511 0
M  V30 3336 C 331.32 -1.38588 3.1845 0
M  V30 3337 C 330.274 -0.827115 4.19932 0
M  V30 3338 C 329.6 -2.00551 4.95665 0
M  V30 3339 C 330.9 0.16463 5.2204 0
M  V30 3340 H 332.594 0.371866 2.97082 0
M  V30 3341 H 330.14 0.180282 1.42867 0
M  V30 3342 H 332.093 -1.94023 3.74076 0
M  V30 3343 H 330.817 -2.09269 2.50747 0
M  V30 3344 H 329.476 -0.294702 3.65414 0
M  V30 3345 H 329.124 -2.6994 4.2443 0
M  V30 3346 H 328.824 -1.63784 5.64313 0
M  V30 3347 H 330.348 -2.56468 5.54127 0
M  V30 3348 H 331.762 -0.300699 5.72511 0
M  V30 3349 H 330.159 0.446813 5.98434 0
M  V30 3350 H 331.229 1.08905 4.72512 0
M  V30 3351 N 332.573 -1.56217 0.208337 0
M  V30 3352 C 333.536 -2.18455 -0.693557 0
M  V30 3353 C 334.536 -1.14268 -1.13135 0
M  V30 3354 O 335.726 -1.39577 -1.0423 0
M  V30 3355 C 332.858 -2.79727 -1.94848 0
M  V30 3356 H 334.051 -2.99519 -0.15114 0
M  V30 3357 H 331.604 -1.56245 -0.041287 0
M  V30 3358 H 332.339 -2.02497 -2.53309 0
M  V30 3359 H 332.124 -3.56009 -1.64316 0
M  V30 3360 H 333.614 -3.27475 -2.59133 0
M  V30 3361 N 334.051 0.0651679 -1.57465 0
M  V30 3362 C 335.467 0.420105 -1.53972 0
M  V30 3363 C 335.667 1.78782 -0.929474 0
M  V30 3364 O 334.723 2.46771 -0.534839 0
M  V30 3365 C 336.036 0.355084 -2.98596 0
M  V30 3366 C 337.584 0.434792 -3.09965 0
M  V30 3367 C 338.059 0.399609 -4.56253 0
M  V30 3368 N 339.55 0.459488 -4.60915 0
M  V30 3369 C 340.285 0.454584 -5.71595 0
M  V30 3370 N 339.781 0.404102 -6.9162 0
M  V30 3371 N 341.574 0.501635 -5.59857 0
M  V30 3372 H 333.725 -0.830328 -1.95498 0
M  V30 3373 H 335.988 -0.312244 -0.895102 0
M  V30 3374 H 335.694 -0.583357 -3.46828 0
M  V30 3375 H 335.568 1.16275 -3.58831 0
M  V30 3376 H 337.955 1.36366 -2.61703 0
M  V30 3377 H 338.036 -0.40157 -2.52628 0
M  V30 3378 H 337.68 -0.525436 -5.05175 0
M  V30 3379 H 337.61 1.25359 -5.11461 0
M  V30 3380 H 340.101 0.502482 -3.74544 0
M  V30 3381 H 340.414 0.404468 -7.71741 0
M  V30 3382 H 338.759 0.37069 -6.94011 0
M  V30 3383 H 341.95 0.538812 -4.64989 0
M  V30 3384 H 342.123 0.494345 -6.46112 0
M  V30 3385 N 335.529 1.53961 0.336706 0
M  V30 3386 C 336.492 1.81724 1.39675 0
M  V30 3387 C 337.492 0.688532 1.45313 0
M  V30 3388 O 338.682 0.956829 1.45569 0
M  V30 3389 C 335.814 1.96543 2.78538 0
M  V30 3390 H 337.007 2.76424 1.16318 0
M  V30 3391 H 334.56 1.45478 0.571474 0
M  V30 3392 H 335.295 1.0401 3.07168 0
M  V30 3393 H 335.08 2.78665 2.75841 0
M  V30 3394 H 336.57 2.19516 3.5525 0
M  V30 3395 N 337.007 -0.598083 1.45811 0
M  V30 3396 C 337.917 -1.73632 1.57763 0
M  V30 3397 C 338.933 -1.67763 0.461676 0
M  V30 3398 O 340.109 -1.87949 0.723685 0
M  V30 3399 C 337.174 -3.10114 1.55018 0
M  V30 3400 C 336.235 -3.27364 2.77726 0
M  V30 3401 C 335.468 -4.57334 2.75102 0
M  V30 3402 O 335.691 -5.40258 1.8297 0
M  V30 3403 O 334.625 -4.77502 3.66437 0
M  V30 3404 H 338.451 -1.66498 2.53992 0
M  V30 3405 H 336.036 -0.763308 1.28429 0
M  V30 3406 H 337.918 -3.9141 1.56129 0
M  V30 3407 H 336.593 -3.17718 0.619431 0
M  V30 3408 H 335.5 -2.45619 2.82174 0
M  V30 3409 H 336.833 -3.24641 3.69958 0
M  V30 3410 N 338.485 -1.33259 -0.841409 0
M  V30 3411 C 339.448 -1.23221 -1.9326 0
M  V30 3412 C 340.448 -0.151895 -1.60081 0
M  V30 3413 O 341.638 -0.403246 -1.69468 0
M  V30 3414 C 338.77 -0.898123 -3.28856 0
M  V30 3415 H 339.963 -2.2021 -2.03587 0
M  V30 3416 H 337.516 -1.17281 -1.03319 0
M  V30 3417 H 338.251 0.0693841 -3.24226 0
M  V30 3418 H 338.036 -1.67934 -3.54317 0
M  V30 3419 H 339.526 -0.852563 -4.08805 0
M  V30 3420 N 339.963 1.05934 -1.16686 0
M  V30 3421 C 341.24 1.75643 -0.860747 0
M  V30 3422 C 341.62 2.01144 0.640641 0
M  V30 3423 O 340.968 1.64147 1.58959 0
M  V30 3424 C 341.178 3.05493 -1.68745 0
M  V30 3425 C 342.526 3.79581 -1.90271 0
M  V30 3426 O 343.55 3.15344 -1.65641 0
M  V30 3427 O 342.409 4.9499 -2.31618 0
M  V30 3428 H 339.503 0.763426 -0.317977 0
M  V30 3429 H 342.049 1.1217 -1.27342 0
M  V30 3430 H 340.821 2.8264 -2.70611 0
M  V30 3431 H 340.444 3.76702 -1.27206 0
M  V30 3432 N 341.441 0.965919 1.2453 0
M  V30 3433 C 342.687 0.62776 1.92839 0
M  V30 3434 C 343.02 -0.834694 1.75347 0
M  V30 3435 O 342.295 -1.60031 1.10546 0
M  V30 3436 C 342.578 1.00109 3.45905 0
M  V30 3437 C 342.431 2.52011 3.72573 0
M  V30 3438 C 343.75 0.53435 4.36844 0
M  V30 3439 H 340.869 0.229537 0.700344 0
M  V30 3440 H 343.511 1.2046 1.46933 0
M  V30 3441 H 341.661 0.510238 3.85135 0
M  V30 3442 H 343.333 3.08559 3.42912 0
M  V30 3443 H 341.576 2.95287 3.17786 0
M  V30 3444 H 342.247 2.73183 4.79661 0
M  V30 3445 H 344.723 0.955565 4.04979 0
M  V30 3446 H 343.599 0.824152 5.42678 0
M  V30 3447 H 343.86 -0.565589 4.38467 0
M  V30 3448 N 342.919 -1.39368 0.735821 0
M  V30 3449 C 343.882 -2.2896 0.104874 0
M  V30 3450 C 344.882 -1.46347 -0.666274 0
M  V30 3451 O 346.072 -1.67014 -0.49517 0
M  V30 3452 C 343.204 -3.29857 -0.860656 0
M  V30 3453 H 344.397 -2.86259 0.894205 0
M  V30 3454 H 341.95 -1.48029 0.501704 0
M  V30 3455 H 342.685 -2.77615 -1.67631 0
M  V30 3456 H 342.47 -3.9087 -0.310327 0
M  V30 3457 H 343.96 -3.96893 -1.29867 0
M  V30 3458 N 344.397 -0.483516 -1.5 0
M  V30 3459 C 345.36 0.292965 -2.2732 0
M  V30 3460 C 346.36 0.909499 -1.32608 0
M  V30 3461 O 347.55 0.776745 -1.55924 0
M  V30 3462 C 344.682 1.41854 -3.09984 0
M  V30 3463 H 345.875 -0.385289 -2.97415 0
M  V30 3464 H 343.428 -0.237942 -1.54478 0
M  V30 3465 H 344.163 2.13148 -2.44414 0
M  V30 3466 H 343.948 0.982114 -3.79601 0
M  V30 3467 H 345.438 1.96597 -3.68429 0
M  V30 3468 N 345.875 1.56104 -0.216619 0
M  V30 3469 C 346.838 2.18819 0.681962 0
M  V30 3470 C 347.838 1.14866 1.12528 0
M  V30 3471 O 349.028 1.40128 1.03488 0
M  V30 3472 C 346.16 2.80756 1.93362 0
M  V30 3473 H 347.353 2.99595 0.135254 0
M  V30 3474 H 344.906 1.56265 0.0330003 0
M  V30 3475 H 345.641 2.03837 2.52232 0
M  V30 3476 H 345.426 3.56876 1.62426 0
M  V30 3477 H 346.916 3.28844 2.57393 0
M  V30 3478 N 347.353 -0.0568162 1.57498 0
M  V30 3479 C 348.601 -0.751617 1.87604 0
M  V30 3480 C 348.922 -1.77351 0.81066 0
M  V30 3481 O 348.192 -1.95254 -0.159018 0
M  V30 3482 H 346.772 -0.280583 0.692302 0
M  V30 3483 H 349.434 -0.0293483 1.94878 0
M  V30 3484 H 348.53 -1.25852 2.856 0
M  V30 3485 N 348.832 -1.54138 -0.328536 0
M  V30 3486 C 349.762 -1.86167 -1.40939 0
M  V30 3487 C 350.743 -0.718044 -1.54202 0
M  V30 3488 O 351.928 -0.971328 -1.68163 0
M  V30 3489 C 349.058 -2.08461 -2.77779 0
M  V30 3490 C 348.012 -3.24299 -2.7931 0
M  V30 3491 C 347.338 -3.31955 -4.19178 0
M  V30 3492 C 348.638 -4.62065 -2.43502 0
M  V30 3493 H 350.332 -2.76689 -1.14383 0
M  V30 3494 H 347.878 -1.33132 -0.548806 0
M  V30 3495 H 349.831 -2.29453 -3.53454 0
M  V30 3496 H 348.555 -1.14684 -3.05802 0
M  V30 3497 H 347.214 -3.03187 -2.0609 0
M  V30 3498 H 346.862 -2.35745 -4.44335 0
M  V30 3499 H 346.562 -4.09805 -4.2111 0
M  V30 3500 H 348.086 -3.55175 -4.96672 0
M  V30 3501 H 349.5 -4.8297 -3.08889 0
M  V30 3502 H 347.897 -5.42429 -2.56693 0
M  V30 3503 H 348.967 -4.64652 -1.38659 0
M  V30 3504 N 350.31 0.590341 -1.46126 0
M  V30 3505 C 351.22 1.72793 -1.58681 0
M  V30 3506 C 352.236 1.67516 -0.470566 0
M  V30 3507 O 353.412 1.87562 -0.733642 0
M  V30 3508 C 350.477 3.09287 -1.5666 0
M  V30 3509 C 349.538 3.25886 -2.79458 0
M  V30 3510 C 348.771 4.55869 -2.77524 0
M  V30 3511 O 348.994 5.3928 -1.85832 0
M  V30 3512 O 347.928 4.75552 -3.68964 0
M  V30 3513 H 351.754 1.65149 -2.54872 0
M  V30 3514 H 349.339 0.756486 -1.28832 0
M  V30 3515 H 351.221 3.90577 -1.58202 0
M  V30 3516 H 349.896 3.17385 -0.636271 0
M  V30 3517 H 348.803 2.44119 -2.83472 0
M  V30 3518 H 350.136 3.22675 -3.71674 0
M  V30 3519 N 351.788 1.33704 0.83433 0
M  V30 3520 C 353.199 1.22813 1.4062 0
M  V30 3521 C 353.55 -0.151107 1.95617 0
M  V30 3522 O 352.675 -1.05092 1.89168 0
M  V30 3523 C 353.27 2.22355 2.55624 0
M  V30 3524 C 351.829 2.1529 3.08751 0
M  V30 3525 C 350.976 2.09589 1.8157 0
M  V30 3526 H 353.927 1.45236 0.639702 0
M  V30 3527 H 353.948 1.83391 3.33389 0
M  V30 3528 H 353.46 3.22728 2.15566 0
M  V30 3529 H 351.561 1.18235 3.53343 0
M  V30 3530 H 351.674 3.06038 3.68616 0
M  V30 3531 H 350.038 1.55134 2.02004 0
M  V30 3532 H 350.821 3.11777 1.43701 0
M  V30 3533 N 353.266 -1.05314 1.17247 0
M  V30 3534 C 354.677 -1.59753 0.96623 0
M  V30 3535 C 355.028 -1.9005 -0.487378 0
M  V30 3536 O 354.153 -1.68126 -1.36245 0
M  V30 3537 C 354.748 -2.90249 1.74759 0
M  V30 3538 C 353.307 -3.41352 1.58606 0
M  V30 3539 C 352.454 -2.15103 1.75002 0
M  V30 3540 H 355.405 -0.881406 1.31973 0
M  V30 3541 H 355.426 -3.60097 1.22925 0
M  V30 3542 H 354.938 -2.68166 2.8055 0
M  V30 3543 H 353.039 -3.68474 0.552985 0
M  V30 3544 H 353.152 -4.16019 2.37624 0
M  V30 3545 H 351.516 -2.25804 1.17833 0
M  V30 3546 H 352.299 -1.95491 2.82202 0
M  V30 3547 N 354.744 -0.972509 -1.24016 0
M  V30 3548 C 355.707 -0.511403 -2.23422 0
M  V30 3549 C 356.707 0.394679 -1.55881 0
M  V30 3550 O 357.897 0.189469 -1.73167 0
M  V30 3551 C 355.029 0.258769 -3.39916 0
M  V30 3552 H 356.222 -1.39024 -2.6573 0
M  V30 3553 H 353.775 -0.757585 -1.36713 0
M  V30 3554 H 354.51 1.1545 -3.03054 0
M  V30 3555 H 354.295 -0.391522 -3.9014 0
M  V30 3556 H 355.785 0.570244 -4.13688 0
M  V30 3557 N 356.222 1.38976 -0.743202 0
M  V30 3558 C 357.471 1.99581 -0.291592 0
M  V30 3559 C 357.784 1.59656 1.13001 0
M  V30 3560 O 358.99 2.13157 1.68156 0
M  V30 3561 C 357.446 3.56813 -0.470391 0
M  V30 3562 C 357.054 4.05695 -1.90041 0
M  V30 3563 C 358.798 4.24423 -0.0809709 0
M  V30 3564 C 356.705 5.5553 -2.02832 0
M  V30 3565 H 355.635 0.746615 -0.105272 0
M  V30 3566 H 358.286 1.58872 -0.918258 0
M  V30 3567 H 356.668 3.95359 0.225299 0
M  V30 3568 H 357.842 3.78464 -2.62872 0
M  V30 3569 H 356.157 3.50775 -2.24379 0
M  V30 3570 H 358.754 5.34474 -0.155445 0
M  V30 3571 H 359.097 4.04962 0.96497 0
M  V30 3572 H 359.63 3.9108 -0.728124 0
M  V30 3573 H 356.369 5.79881 -3.05643 0
M  V30 3574 H 355.889 5.84537 -1.34448 0
M  V30 3575 H 357.568 6.21069 -1.81335 0
M  V30 3576 N 357.7 0.491464 1.49741 0
M  V30 3577 C 358.946 -0.0565092 2.02721 0
M  V30 3578 C 359.279 -1.37522 1.37118 0
M  V30 3579 O 358.554 -1.87866 0.503645 0
M  V30 3580 C 358.837 -0.219051 3.59433 0
M  V30 3581 C 358.69 1.12211 4.35579 0
M  V30 3582 C 360.009 -0.964157 4.29409 0
M  V30 3583 H 357.128 -0.0190627 0.736753 0
M  V30 3584 H 359.77 0.641021 1.7886 0
M  V30 3585 H 357.92 -0.813165 3.79895 0
M  V30 3586 H 359.592 1.75437 4.26637 0
M  V30 3587 H 357.835 1.71377 3.98513 0
M  V30 3588 H 358.506 0.961794 5.43556 0
M  V30 3589 H 360.982 -0.460378 4.13545 0
M  V30 3590 H 359.858 -1.04671 5.38828 0
M  V30 3591 H 360.119 -2.00563 3.93988 0
M  V30 3592 N 359.178 -1.55987 0.224894 0
M  V30 3593 C 360.424 -1.98684 -0.406502 0
M  V30 3594 C 360.757 -1.11248 -1.59177 0
M  V30 3595 O 360.032 -0.170909 -1.93748 0
M  V30 3596 C 360.315 -3.50218 -0.837808 0
M  V30 3597 C 360.168 -4.48426 0.351332 0
M  V30 3598 C 361.487 -4.06243 -1.69278 0
M  V30 3599 H 358.606 -0.722337 -0.146283 0
M  V30 3600 H 361.248 -1.87255 0.321799 0
M  V30 3601 H 359.398 -3.60089 -1.45837 0
M  V30 3602 H 361.07 -4.50562 0.989526 0
M  V30 3603 H 359.313 -4.22159 0.998207 0
M  V30 3604 H 359.984 -5.52 0.00655905 0
M  V30 3605 H 362.46 -3.99337 -1.16914 0
M  V30 3606 H 361.336 -5.12581 -1.96346 0
M  V30 3607 H 361.597 -3.53332 -2.65723 0
M  V30 3608 N 360.656 0.0484629 -1.57525 0
M  V30 3609 C 361.902 0.744226 -1.88651 0
M  V30 3610 C 362.235 1.76029 -0.820212 0
M  V30 3611 O 361.51 1.93782 0.166985 0
M  V30 3612 C 361.793 1.43128 -3.30434 0
M  V30 3613 C 361.646 0.43005 -4.47739 0
M  V30 3614 C 362.965 2.37031 -3.70816 0
M  V30 3615 H 360.084 0.269089 -0.68612 0
M  V30 3616 H 362.726 0.00713532 -1.89999 0
M  V30 3617 H 360.876 2.05956 -3.29415 0
M  V30 3618 H 362.548 -0.194816 -4.60888 0
M  V30 3619 H 360.791 -0.252522 -4.33064 0
M  V30 3620 H 361.462 0.948874 -5.43783 0
M  V30 3621 H 363.938 1.84263 -3.73077 0
M  V30 3622 H 362.814 2.82094 -4.70865 0
M  V30 3623 H 363.075 3.22864 -3.02012 0
M  V30 3624 N 362.134 1.5431 0.320358 0
M  V30 3625 C 363.382 1.72327 1.05583 0
M  V30 3626 C 363.703 0.50149 1.88441 0
M  V30 3627 O 362.973 -0.48448 1.89815 0
M  V30 3628 H 361.553 0.635387 0.3928 0
M  V30 3629 H 364.215 1.91621 0.356019 0
M  V30 3630 H 363.311 2.60426 1.72003 0
M  V30 3631 N 363.613 -0.582584 1.46437 0
M  V30 3632 C 364.523 -1.71949 1.59595 0
M  V30 3633 C 365.539 -1.67264 0.479443 0
M  V30 3634 O 366.715 -1.87171 0.743579 0
M  V30 3635 C 363.78 -3.08452 1.58298 0
M  V30 3636 C 362.841 -3.244 2.81182 0
M  V30 3637 C 362.074 -4.54391 2.79937 0
M  V30 3638 O 362.297 -5.38287 1.8869 0
M  V30 3639 O 361.231 -4.73588 3.71481 0
M  V30 3640 H 365.057 -1.63795 2.55744 0
M  V30 3641 H 362.642 -0.749643 1.29231 0
M  V30 3642 H 364.524 -3.89732 1.60271 0
M  V30 3643 H 363.199 -3.17043 0.653094 0
M  V30 3644 H 362.106 -2.42613 2.84763 0
M  V30 3645 H 363.439 -3.20699 3.7338 0
M  V30 3646 N 365.091 -1.34144 -0.827227 0
M  V30 3647 C 366.337 -1.26446 -1.58554 0
M  V30 3648 C 366.67 0.1664 -1.93486 0
M  V30 3649 O 365.945 1.1107 -1.59667 0
M  V30 3650 C 366.228 -2.15111 -2.8879 0
M  V30 3651 C 366.081 -3.66712 -2.60465 0
M  V30 3652 C 367.4 -2.03311 -3.90324 0
M  V30 3653 H 364.519 -0.46067 -0.575284 0
M  V30 3654 H 367.161 -1.64356 -0.953269 0
M  V30 3655 H 365.311 -1.8291 -3.42748 0
M  V30 3656 H 366.983 -4.09259 -2.1285 0
M  V30 3657 H 365.226 -3.88014 -1.93978 0
M  V30 3658 H 365.897 -4.24112 -3.53317 0
M  V30 3659 H 368.373 -2.31574 -3.45706 0
M  V30 3660 H 367.249 -2.67582 -4.79261 0
M  V30 3661 H 367.51 -1.00879 -4.30437 0
M  V30 3662 N 366.569 1.04691 -1.17803 0
M  V30 3663 C 367.815 1.78045 -0.970969 0
M  V30 3664 C 368.148 1.87686 0.498751 0
M  V30 3665 O 367.423 1.38035 1.37027 0
M  V30 3666 C 367.706 3.2166 -1.61884 0
M  V30 3667 C 367.559 3.20001 -3.161 0
M  V30 3668 C 368.878 4.1962 -1.3269 0
M  V30 3669 H 365.997 0.64633 -0.354155 0
M  V30 3670 H 368.639 1.22333 -1.45378 0
M  V30 3671 H 366.789 3.69232 -1.20831 0
M  V30 3672 H 368.461 2.80467 -3.66246 0
M  V30 3673 H 366.704 2.58203 -3.48588 0
M  V30 3674 H 367.375 4.21386 -3.56564 0
M  V30 3675 H 369.851 3.80567 -1.68249 0
M  V30 3676 H 368.727 5.18339 -1.80599 0
M  V30 3677 H 368.988 4.414 -0.248622 0
M  V30 3678 N 368.047 0.979072 1.23499 0
M  V30 3679 C 369.463 0.687475 1.44034 0
M  V30 3680 C 369.663 -0.746801 1.8715 0
M  V30 3681 O 368.719 -1.51939 2.0167 0
M  V30 3682 C 370.032 1.68127 2.49307 0
M  V30 3683 C 371.58 1.69516 2.63122 0
M  V30 3684 C 372.055 2.67723 3.71603 0
M  V30 3685 N 373.546 2.66233 3.79044 0
M  V30 3686 C 374.281 3.38891 4.62537 0
M  V30 3687 N 373.777 4.21103 5.50131 0
M  V30 3688 N 375.57 3.27661 4.56721 0
M  V30 3689 H 367.721 1.90559 0.938135 0
M  V30 3690 H 369.984 0.821051 0.473897 0
M  V30 3691 H 369.69 2.70693 2.2454 0
M  V30 3692 H 369.564 1.46306 3.4767 0
M  V30 3693 H 371.951 0.676561 2.8724 0
M  V30 3694 H 372.032 1.95404 1.65079 0
M  V30 3695 H 371.676 3.69724 3.48233 0
M  V30 3696 H 371.606 2.39111 4.69184 0
M  V30 3697 H 374.097 2.06568 3.16446 0
M  V30 3698 H 374.41 4.73403 6.10827 0
M  V30 3699 H 372.755 4.25195 5.49759 0
M  V30 3700 H 375.946 2.62887 3.87309 0
M  V30 3701 H 376.119 3.84547 5.21562 0
M  V30 3702 N 369.525 -1.3858 0.750561 0
M  V30 3703 C 370.455 -2.33102 0.136237 0
M  V30 3704 C 371.436 -1.54713 -0.706965 0
M  V30 3705 O 372.621 -1.83043 -0.648769 0
M  V30 3706 C 369.751 -3.38882 -0.760017 0
M  V30 3707 C 368.705 -4.27995 -0.0197785 0
M  V30 3708 C 368.031 -5.24605 -1.03408 0
M  V30 3709 C 369.331 -5.09554 1.14684 0
M  V30 3710 H 371.025 -2.84726 0.925822 0
M  V30 3711 H 368.571 -1.36898 0.446654 0
M  V30 3712 H 370.524 -4.0397 -1.19943 0
M  V30 3713 H 369.248 -2.85734 -1.58189 0
M  V30 3714 H 367.907 -3.64409 0.400184 0
M  V30 3715 H 367.555 -4.67746 -1.84994 0
M  V30 3716 H 367.255 -5.85081 -0.543464 0
M  V30 3717 H 368.779 -5.9257 -1.47288 0
M  V30 3718 H 370.193 -5.67899 0.785118 0
M  V30 3719 H 368.59 -5.7925 1.56812 0
M  V30 3720 H 369.66 -4.4347 1.96118 0
M  V30 3721 N 371.003 -0.499398 -1.49478 0
M  V30 3722 C 372.419 -0.155261 -1.58843 0
M  V30 3723 C 372.619 1.34008 -1.50479 0
M  V30 3724 O 371.675 2.11589 -1.37791 0
M  V30 3725 C 372.988 -0.730636 -2.91689 0
M  V30 3726 C 374.536 -0.696599 -3.0515 0
M  V30 3727 C 375.011 -1.25001 -4.40612 0
M  V30 3728 N 376.502 -1.21064 -4.47099 0
M  V30 3729 C 377.237 -1.60905 -5.50361 0
M  V30 3730 N 376.733 -2.08331 -6.60735 0
M  V30 3731 N 378.526 -1.52331 -5.41065 0
M  V30 3732 H 370.677 -1.47162 -1.53158 0
M  V30 3733 H 372.94 -0.610309 -0.725415 0
M  V30 3734 H 372.646 -1.77928 -3.03372 0
M  V30 3735 H 372.52 -0.190161 -3.7672 0
M  V30 3736 H 374.907 0.343204 -2.93097 0
M  V30 3737 H 374.988 -1.2742 -2.21806 0
M  V30 3738 H 374.632 -2.28859 -4.53416 0
M  V30 3739 H 374.562 -0.64836 -5.22593 0
M  V30 3740 H 377.053 -0.863128 -3.67911 0
M  V30 3741 H 377.366 -2.36805 -7.35624 0
M  V30 3742 H 375.711 -2.12304 -6.6178 0
M  V30 3743 H 378.902 -1.151 -4.53729 0
M  V30 3744 H 379.075 -1.83704 -6.21415 0
M  V30 3745 N 372.481 1.55866 -0.233164 0
M  V30 3746 C 373.444 2.1953 0.658715 0
M  V30 3747 C 374.444 1.16053 1.11303 0
M  V30 3748 O 375.634 1.41218 1.01996 0
M  V30 3749 C 372.766 2.82791 1.90373 0
M  V30 3750 H 373.959 2.99721 0.10347 0
M  V30 3751 H 371.512 1.56291 0.0164245 0
M  V30 3752 H 372.247 2.06501 2.50056 0
M  V30 3753 H 372.032 3.58578 1.58632 0
M  V30 3754 H 373.522 3.31556 2.53891 0
M  V30 3755 N 373.959 -0.0401083 1.57549 0
M  V30 3756 C 374.922 -1.02871 2.04817 0
M  V30 3757 C 375.922 -1.29708 0.950388 0
M  V30 3758 O 377.112 -1.24897 1.21435 0
M  V30 3759 C 374.244 -2.36443 2.45576 0
M  V30 3760 H 375.437 -0.620631 2.93408 0
M  V30 3761 H 372.99 -0.286667 1.53649 0
M  V30 3762 H 373.725 -2.82021 1.60108 0
M  V30 3763 H 373.51 -2.18296 3.25713 0
M  V30 3764 H 375 -3.07441 2.82612 0
M  V30 3765 N 375.437 -1.54477 -0.31217 0
M  V30 3766 C 376.367 -1.87652 -1.38957 0
M  V30 3767 C 377.348 -0.734358 -1.53431 0
M  V30 3768 O 378.533 -0.98911 -1.67123 0
M  V30 3769 C 375.663 -2.11396 -2.75552 0
M  V30 3770 C 374.617 -3.27243 -2.75855 0
M  V30 3771 C 373.943 -3.36382 -4.15633 0
M  V30 3772 C 375.243 -4.64622 -2.38587 0
M  V30 3773 H 376.937 -2.77887 -1.11442 0
M  V30 3774 H 374.483 -1.33707 -0.534655 0
M  V30 3775 H 376.436 -2.33189 -3.51 0
M  V30 3776 H 375.16 -1.17921 -3.04569 0
M  V30 3777 H 373.819 -3.05356 -2.02863 0
M  V30 3778 H 373.467 -2.40445 -4.41809 0
M  V30 3779 H 373.167 -4.14249 -4.1674 0
M  V30 3780 H 374.691 -3.60422 -4.92877 0
M  V30 3781 H 376.105 -4.86219 -3.03749 0
M  V30 3782 H 374.502 -5.45121 -2.50925 0
M  V30 3783 H 375.572 -4.66097 -1.33723 0
M  V30 3784 N 376.915 0.57481 -1.46744 0
M  V30 3785 C 378.192 1.3352 -1.4294 0
M  V30 3786 C 378.572 2.10775 -0.117009 0
M  V30 3787 O 377.92 2.09966 0.901474 0
M  V30 3788 C 378.13 2.25456 -2.66403 0
M  V30 3789 C 379.478 2.87035 -3.12883 0
M  V30 3790 O 380.502 2.35766 -2.67007 0
M  V30 3791 O 379.361 3.80179 -3.92589 0
M  V30 3792 H 376.455 0.600318 -0.568812 0
M  V30 3793 H 379.001 0.595171 -1.58921 0
M  V30 3794 H 377.773 1.67851 -3.53471 0
M  V30 3795 H 377.396 3.06785 -2.52921 0
M  V30 3796 N 378.394 1.34581 0.820102 0
M  V30 3797 C 379.64 1.28294 1.57836 0
M  V30 3798 C 379.995 -0.145099 1.91852 0
M  V30 3799 O 379.288 -1.09209 1.57429 0
M  V30 3800 C 379.482 2.10997 2.8847 0
M  V30 3801 C 379.311 3.61698 2.67216 0
M  V30 3802 C 378.081 4.3097 2.63805 0
M  V30 3803 C 380.279 4.55638 2.38534 0
M  V30 3804 N 378.261 5.67502 2.34126 0
M  V30 3805 C 379.632 5.80194 2.18574 0
M  V30 3806 C 381.687 4.44523 2.24285 0
M  V30 3807 C 380.39 6.94886 1.8581 0
M  V30 3808 C 382.416 5.5905 1.92916 0
M  V30 3809 C 381.778 6.82627 1.73782 0
M  V30 3810 H 377.877 0.524697 0.579842 0
M  V30 3811 H 380.461 1.69323 0.961139 0
M  V30 3812 H 378.632 1.7226 3.48111 0
M  V30 3813 H 380.364 1.96333 3.53886 0
M  V30 3814 H 377.119 3.83438 2.77978 0
M  V30 3815 H 377.543 6.39525 2.22118 0
M  V30 3816 H 382.185 3.49599 2.37782 0
M  V30 3817 H 379.903 7.89789 1.7105 0
M  V30 3818 H 383.489 5.52396 1.82619 0
M  V30 3819 H 382.369 7.69748 1.49861 0
M  V30 3820 N 379.872 -1.04064 1.18357 0
M  V30 3821 C 381.121 -1.76662 0.973313 0
M  V30 3822 C 381.434 -1.89154 -0.497991 0
M  V30 3823 O 382.64 -2.58606 -0.826762 0
M  V30 3824 C 381.096 -3.17624 1.69242 0
M  V30 3825 C 380.704 -3.13225 3.20303 0
M  V30 3826 C 382.448 -3.946 1.56497 0
M  V30 3827 C 380.355 -4.49046 3.84853 0
M  V30 3828 H 379.285 -0.662214 0.36054 0
M  V30 3829 H 381.936 -1.16553 1.41731 0
M  V30 3830 H 380.318 -3.78129 1.1762 0
M  V30 3831 H 381.492 -2.62172 3.78949 0
M  V30 3832 H 379.807 -2.49749 3.33189 0
M  V30 3833 H 382.404 -4.95042 2.02084 0
M  V30 3834 H 382.747 -4.13074 0.517243 0
M  V30 3835 H 383.28 -3.4067 2.05399 0
M  V30 3836 H 380.019 -4.35777 4.89672 0
M  V30 3837 H 379.539 -5.00203 3.30994 0
M  V30 3838 H 381.218 -5.17961 3.87718 0
M  V30 3839 N 381.35 -0.985608 -1.22978 0
M  V30 3840 C 382.598 -0.656087 -1.91154 0
M  V30 3841 C 382.919 0.813561 -1.77218 0
M  V30 3842 O 382.189 1.58244 -1.1548 0
M  V30 3843 H 380.769 -0.239674 -0.707506 0
M  V30 3844 H 383.431 -1.25054 -1.49491 0
M  V30 3845 H 382.527 -0.912253 -2.9847 0
M  V30 3846 N 382.828 1.3818 -0.7579 0
M  V30 3847 C 383.791 2.28764 -0.141286 0
M  V30 3848 C 384.791 1.47388 0.642907 0
M  V30 3849 O 385.981 1.67781 0.468536 0
M  V30 3850 C 383.113 3.31184 0.808069 0
M  V30 3851 H 384.306 2.848 -0.939633 0
M  V30 3852 H 381.859 1.47212 -0.525191 0
M  V30 3853 H 382.594 2.80247 1.63193 0
M  V30 3854 H 382.379 3.91314 0.248104 0
M  V30 3855 H 383.869 3.98909 1.23536 0
M  V30 3856 N 384.306 0.507319 1.49211 0
M  V30 3857 C 385.236 -0.256939 2.32082 0
M  V30 3858 C 386.217 -0.956609 1.40652 0
M  V30 3859 O 387.402 -0.946788 1.69557 0
M  V30 3860 C 384.532 -1.31802 3.21318 0
M  V30 3861 C 383.486 -0.737855 4.21592 0
M  V30 3862 C 382.812 -1.89992 4.99807 0
M  V30 3863 C 384.112 0.275325 5.21574 0
M  V30 3864 H 385.806 0.434798 2.96226 0
M  V30 3865 H 383.352 0.210546 1.42452 0
M  V30 3866 H 385.305 -1.86045 3.78107 0
M  V30 3867 H 384.029 -2.03903 2.5513 0
M  V30 3868 H 382.688 -0.217126 3.65956 0
M  V30 3869 H 382.336 -2.60877 4.30061 0
M  V30 3870 H 382.036 -1.51777 5.6766 0
M  V30 3871 H 383.56 -2.44657 5.59442 0
M  V30 3872 H 384.974 -0.179193 5.7302 0
M  V30 3873 H 383.371 0.573649 5.97352 0
M  V30 3874 H 384.441 1.18903 4.70096 0
M  V30 3875 N 385.784 -1.5574 0.241426 0
M  V30 3876 C 387.061 -1.90704 -0.434881 0
M  V30 3877 C 387.441 -1.16145 -1.76277 0
M  V30 3878 O 386.789 -0.277152 -2.26813 0
M  V30 3879 C 386.999 -3.43657 -0.608343 0
M  V30 3880 C 388.347 -4.14806 -0.906725 0
M  V30 3881 O 389.371 -3.49366 -0.694408 0
M  V30 3882 O 388.23 -5.30548 -1.31075 0
M  V30 3883 H 385.324 -0.793592 -0.23268 0
M  V30 3884 H 387.87 -1.67288 0.285086 0
M  V30 3885 H 386.642 -3.89927 0.327505 0
M  V30 3886 H 386.265 -3.72918 -1.37906 0
M  V30 3887 N 387.262 0.0317525 -1.57568 0
M  V30 3888 C 388.51 0.721676 -1.88776 0
M  V30 3889 C 388.831 1.76039 -0.838772 0
M  V30 3890 O 388.101 1.95482 0.127935 0
M  V30 3891 H 386.681 0.269534 -0.696678 0
M  V30 3892 H 389.343 -0.00165879 -1.949 0
M  V30 3893 H 388.439 1.21293 -2.87566 0
M  V30 3894 N 388.74 1.54641 0.303973 0
M  V30 3895 C 390.156 1.45788 0.649463 0
M  V30 3896 C 390.356 0.64666 1.90842 0
M  V30 3897 O 389.412 0.153183 2.52035 0
M  V30 3898 C 390.725 2.89718 0.805227 0
M  V30 3899 C 392.273 2.99742 0.901305 0
M  V30 3900 C 392.748 4.44863 1.08909 0
M  V30 3901 N 394.239 4.48559 1.15536 0
M  V30 3902 C 394.974 5.58026 1.3189 0
M  V30 3903 N 394.47 6.77422 1.45161 0
M  V30 3904 N 396.263 5.45708 1.34755 0
M  V30 3905 H 388.414 2.05854 -0.523237 0
M  V30 3906 H 390.677 0.932186 -0.172431 0
M  V30 3907 H 390.383 3.51666 -0.0489108 0
M  V30 3908 H 390.257 3.36964 1.69513 0
M  V30 3909 H 392.644 2.3791 1.74593 0
M  V30 3910 H 392.725 2.55797 -0.0125531 0
M  V30 3911 H 392.369 5.07288 0.249241 0
M  V30 3912 H 392.299 4.86436 2.01713 0
M  V30 3913 H 394.79 3.6254 1.06646 0
M  V30 3914 H 395.103 7.56604 1.57387 0
M  V30 3915 H 393.448 6.80292 1.42223 0
M  V30 3916 H 396.639 4.51378 1.23996 0
M  V30 3917 H 396.812 6.3107 1.47157 0
M  V30 3918 N 390.218 -0.567019 1.47046 0
M  V30 3919 C 391.165 -1.67489 1.58796 0
M  V30 3920 C 392.135 -1.60399 0.43144 0
M  V30 3921 O 393.32 -1.79378 0.650233 0
M  V30 3922 C 390.46 -3.05821 1.59899 0
M  V30 3923 C 389.573 -3.2342 2.86397 0
M  V30 3924 C 388.708 -4.52093 2.789 0
M  V30 3925 C 387.747 -4.6309 4.00267 0
M  V30 3926 N 386.884 -5.83106 3.91064 0
M  V30 3927 H 391.724 -1.56785 2.53422 0
M  V30 3928 H 389.261 -0.763896 1.2571 0
M  V30 3929 H 391.219 -3.8591 1.58522 0
M  V30 3930 H 389.849 -3.15384 0.687929 0
M  V30 3931 H 388.901 -2.3683 2.97684 0
M  V30 3932 H 390.213 -3.27412 3.76301 0
M  V30 3933 H 389.367 -5.4043 2.75718 0
M  V30 3934 H 388.106 -4.50565 1.86662 0
M  V30 3935 H 387.111 -3.73168 4.03765 0
M  V30 3936 H 388.336 -4.66386 4.93621 0
M  V30 3937 H 386.282 -5.82546 3.01623 0
M  V30 3938 H 386.199 -5.88434 4.74638 0
M  V30 3939 H 387.467 -6.73831 3.91882 0
M  V30 3940 N 391.696 -1.35014 -0.812953 0
M  V30 3941 C 392.626 -1.30069 -1.93919 0
M  V30 3942 C 393.607 -0.176275 -1.69184 0
M  V30 3943 O 394.792 -0.370227 -1.90638 0
M  V30 3944 C 391.922 -1.06547 -3.30552 0
M  V30 3945 C 390.876 -2.15561 -3.69753 0
M  V30 3946 C 390.202 -1.77214 -5.04479 0
M  V30 3947 C 391.502 -3.57476 -3.808 0
M  V30 3948 H 393.196 -2.24303 -1.98314 0
M  V30 3949 H 390.742 -1.07977 -0.952736 0
M  V30 3950 H 392.695 -1.01729 -4.08937 0
M  V30 3951 H 391.419 -0.0875719 -3.26483 0
M  V30 3952 H 390.078 -2.19466 -2.9365 0
M  V30 3953 H 389.726 -0.780589 -4.96906 0
M  V30 3954 H 389.426 -2.50184 -5.31678 0
M  V30 3955 H 390.95 -1.7391 -5.8531 0
M  V30 3956 H 392.364 -3.55929 -4.4943 0
M  V30 3957 H 390.761 -4.29152 -4.19462 0
M  V30 3958 H 391.831 -3.94091 -2.82525 0
M  V30 3959 N 393.175 1.03435 -1.18907 0
M  V30 3960 C 394.138 2.09756 -0.923844 0
M  V30 3961 C 395.138 1.60528 0.093416 0
M  V30 3962 O 396.328 1.73631 -0.140727 0
M  V30 3963 C 393.46 3.38692 -0.387354 0
M  V30 3964 H 394.653 2.34719 -1.86674 0
M  V30 3965 H 392.206 1.19959 -1.00197 0
M  V30 3966 H 392.941 3.19396 0.561845 0
M  V30 3967 H 392.726 3.75742 -1.12074 0
M  V30 3968 H 394.216 4.17016 -0.220694 0
M  V30 3969 N 394.653 0.992116 1.22453 0
M  V30 3970 C 395.616 0.546883 2.2258 0
M  V30 3971 C 396.616 -0.369829 1.56489 0
M  V30 3972 O 397.806 -0.161896 1.73446 0
M  V30 3973 C 394.938 -0.204659 3.40285 0
M  V30 3974 H 396.131 1.43234 2.63484 0
M  V30 3975 H 393.684 0.779239 1.3549 0
M  V30 3976 H 394.419 -1.10614 3.04853 0
M  V30 3977 H 394.204 0.45354 3.89468 0
M  V30 3978 H 395.694 -0.504358 4.14543 0
M  V30 3979 N 396.131 -1.37776 0.765217 0
M  V30 3980 C 397.408 -1.93975 0.251596 0
M  V30 3981 C 397.788 -1.69949 -1.25222 0
M  V30 3982 O 397.136 -1.04457 -2.03226 0
M  V30 3983 C 397.346 -3.43487 0.617895 0
M  V30 3984 C 398.694 -4.20564 0.584029 0
M  V30 3985 O 399.718 -3.5182 0.556888 0
M  V30 3986 O 398.577 -5.43138 0.605291 0
M  V30 3987 H 395.671 -0.82509 0.0561806 0
M  V30 3988 H 398.217 -1.47101 0.846128 0
M  V30 3989 H 396.989 -3.5453 1.65602 0
M  V30 3990 H 396.612 -3.976 -0.00403411 0
M  V30 3991 N 397.609 -0.515225 -1.4894 0
M  V30 3992 C 399.02 -0.0710067 -1.86565 0
M  V30 3993 C 399.371 1.34733 -1.42623 0
M  V30 3994 O 398.496 2.00653 -0.810379 0
M  V30 3995 C 399.091 -0.122083 -3.3858 0
M  V30 3996 C 397.65 0.266863 -3.75453 0
M  V30 3997 C 396.797 -0.488376 -2.72966 0
M  V30 3998 H 399.748 -0.727266 -1.41055 0
M  V30 3999 H 399.769 0.669818 -3.74558 0
M  V30 4000 H 399.281 -1.15448 -3.70531 0
M  V30 4001 H 397.382 1.30196 -3.49113 0
M  V30 4002 H 397.495 -0.0624811 -4.79059 0
M  V30 4003 H 395.859 0.0635622 -2.54621 0
M  V30 4004 H 396.642 -1.52113 -3.07761 0
M  V30 4005 N 399.087 1.5561 -0.249682 0
M  V30 4006 C 400.334 1.99011 0.374287 0
M  V30 4007 C 400.662 1.13785 1.57744 0
M  V30 4008 O 399.917 0.189326 1.94782 0
M  V30 4009 C 400.216 3.4775 0.824887 0
M  V30 4010 C 399.882 4.50086 -0.270819 0
M  V30 4011 C 398.544 4.77791 -0.571746 0
M  V30 4012 C 400.896 5.11312 -1.01041 0
M  V30 4013 C 398.224 5.63997 -1.61629 0
M  V30 4014 C 400.576 5.98651 -2.0445 0
M  V30 4015 C 399.24 6.24688 -2.35204 0
M  V30 4016 H 398.51 0.728233 0.136961 0
M  V30 4017 H 401.157 1.88122 -0.358087 0
M  V30 4018 H 399.462 3.55985 1.63651 0
M  V30 4019 H 401.159 3.78721 1.31799 0
M  V30 4020 H 397.749 4.28592 -0.026136 0
M  V30 4021 H 401.933 4.89953 -0.791177 0
M  V30 4022 H 397.189 5.82425 -1.85988 0
M  V30 4023 H 401.363 6.45135 -2.62248 0
M  V30 4024 H 398.99 6.91281 -3.16282 0
M  V30 4025 N 400.565 -0.0233959 1.57583 0
M  V30 4026 C 401.528 -1.00693 2.05897 0
M  V30 4027 C 402.528 -1.28693 0.964092 0
M  V30 4028 O 403.718 -1.23602 1.22753 0
M  V30 4029 C 400.85 -2.33825 2.4807 0
M  V30 4030 H 402.043 -0.589476 2.9405 0
M  V30 4031 H 399.596 -0.270354 1.53944 0
M  V30 4032 H 400.331 -2.80307 1.6309 0
M  V30 4033 H 400.116 -2.1483 3.2801 0
M  V30 4034 H 401.606 -3.04426 2.85857 0
M  V30 4035 N 402.043 -1.548 -0.295768 0
M  V30 4036 C 402.991 -1.86874 -1.38495 0
M  V30 4037 C 403.985 -0.742938 -1.52239 0
M  V30 4038 O 405.191 -0.926999 -1.54294 0
M  V30 4039 H 401.566 -0.592786 -0.462719 0
M  V30 4040 H 403.537 -2.77904 -1.08682 0
M  V30 4041 C 402.286 -2.13732 -2.74252 0
M  V30 4042 H 401.609 -2.99835 -2.64459 0
M  V30 4043 H 403.049 -2.4011 -3.49461 0
M  V30 4044 C 401.508 -0.937539 -3.23592 0
M  V30 4045 O 402.038 -0.160665 -4.01379 0
M  V30 4046 N 400.244 -0.741478 -2.80981 0
M  V30 4047 H 399.791 -1.37489 -2.1784 0
M  V30 4048 H 399.749 0.0597103 -3.14343 0
M  V30 4049 N 403.521 0.559213 -1.47345 0
M  V30 4050 C 404.937 0.884943 -1.32819 0
M  V30 4051 C 405.137 1.98988 -0.317173 0
M  V30 4052 O 404.193 2.51031 0.272011 0
M  V30 4053 C 405.506 1.28007 -2.72093 0
M  V30 4054 C 407.054 1.39161 -2.80363 0
M  V30 4055 C 407.529 1.82031 -4.20272 0
M  V30 4056 N 409.02 1.89185 -4.22804 0
M  V30 4057 C 409.755 2.2368 -5.27973 0
M  V30 4058 N 409.251 2.56802 -6.43447 0
M  V30 4059 N 411.044 2.24436 -5.15349 0
M  V30 4060 H 403.195 -0.170304 -2.11716 0
M  V30 4061 H 405.458 -0.0135247 -0.947904 0
M  V30 4062 H 405.164 0.542027 -3.47498 0
M  V30 4063 H 405.038 2.23665 -3.03733 0
M  V30 4064 H 407.425 2.12048 -2.05231 0
M  V30 4065 H 407.506 0.41696 -2.52379 0
M  V30 4066 H 407.15 1.09715 -4.95908 0
M  V30 4067 H 407.08 2.80495 -4.45679 0
M  V30 4068 H 409.571 1.65982 -3.39497 0
M  V30 4069 H 409.884 2.82144 -7.19454 0
M  V30 4070 H 408.229 2.54387 -6.46771 0
M  V30 4071 H 411.42 1.97998 -4.24163 0
M  V30 4072 H 411.593 2.50989 -5.97418 0
M  V30 4073 N 404.999 1.35443 0.805782 0
M  V30 4074 C 406.248 1.28097 1.55801 0
M  V30 4075 C 406.561 -0.142428 1.95081 0
M  V30 4076 O 407.767 -0.33817 2.69386 0
M  V30 4077 C 406.223 2.24653 2.81174 0
M  V30 4078 C 405.831 3.72342 2.49129 0
M  V30 4079 C 407.575 2.2625 3.59181 0
M  V30 4080 C 405.482 4.60719 3.70799 0
M  V30 4081 H 404.412 0.475937 0.584808 0
M  V30 4082 H 407.063 1.60712 0.885661 0
M  V30 4083 H 405.445 1.85011 3.50124 0
M  V30 4084 H 406.619 4.20624 1.88181 0
M  V30 4085 H 404.934 3.73361 1.84366 0
M  V30 4086 H 407.531 2.89495 4.49552 0
M  V30 4087 H 407.874 1.26647 3.96568 0
M  V30 4088 H 408.407 2.64426 2.97193 0
M  V30 4089 H 405.146 5.61324 3.3852 0
M  V30 4090 H 404.666 4.17163 4.3097 0
M  V30 4091 H 406.345 4.76182 4.38018 0
M  V30 4092 N 406.477 -1.02803 1.19454 0
M  V30 4093 C 407.407 -2.12999 0.956758 0
M  V30 4094 C 408.388 -1.69743 -0.110188 0
M  V30 4095 O 409.573 -1.94148 0.0450038 0
M  V30 4096 C 406.703 -3.43746 0.495553 0
M  V30 4097 C 405.657 -4.00688 1.50443 0
M  V30 4098 C 404.983 -5.27067 0.900275 0
M  V30 4099 C 406.283 -4.35397 2.8849 0
M  V30 4100 H 407.977 -2.33148 1.87836 0
M  V30 4101 H 405.523 -1.12045 0.904539 0
M  V30 4102 H 407.476 -4.2021 0.316493 0
M  V30 4103 H 406.2 -3.23321 -0.461646 0
M  V30 4104 H 404.859 -3.2632 1.67065 0
M  V30 4105 H 404.507 -5.02959 -0.064503 0
M  V30 4106 H 404.207 -5.66127 1.57397 0
M  V30 4107 H 405.731 -6.06196 0.73203 0
M  V30 4108 H 407.145 -5.02795 2.75446 0
M  V30 4109 H 405.542 -4.85541 3.52661 0
M  V30 4110 H 406.612 -3.44662 3.41081 0
M  V30 4111 N 407.956 -0.998596 -1.21925 0
M  V30 4112 C 409.372 -0.710303 -1.42923 0
M  V30 4113 C 409.572 0.716933 -1.88314 0
M  V30 4114 O 408.628 1.48712 -2.04062 0
M  V30 4115 C 409.941 -1.72072 -2.466 0
M  V30 4116 C 411.489 -1.73681 -2.60392 0
M  V30 4117 C 411.964 -2.73601 -3.67296 0
M  V30 4118 N 413.455 -2.7223 -3.7476 0
M  V30 4119 C 414.19 -3.46206 -4.57087 0
M  V30 4120 N 413.686 -4.29802 -5.43362 0
M  V30 4121 N 415.479 -3.34886 -4.51451 0
M  V30 4122 H 407.63 -1.92028 -0.9077 0
M  V30 4123 H 409.893 -0.828487 -0.460775 0
M  V30 4124 H 409.599 -2.74231 -2.20206 0
M  V30 4125 H 409.473 -1.51818 -3.45299 0
M  V30 4126 H 411.86 -0.722173 -2.86127 0
M  V30 4127 H 411.941 -1.98005 -1.61949 0
M  V30 4128 H 411.585 -3.75217 -3.42307 0
M  V30 4129 H 411.515 -2.46545 -4.65321 0
M  V30 4130 H 414.006 -2.11576 -3.1312 0
M  V30 4131 H 414.319 -4.83061 -6.03218 0
M  V30 4132 H 412.664 -4.33887 -5.42925 0
M  V30 4133 H 415.855 -2.69015 -3.83078 0
M  V30 4134 H 416.028 -3.92796 -5.15379 0
M  V30 4135 N 409.434 1.37368 -0.772513 0
M  V30 4136 C 410.382 2.32134 -0.147111 0
M  V30 4137 C 411.376 1.54972 0.684106 0
M  V30 4138 O 412.582 1.70363 0.581083 0
M  V30 4139 H 408.957 0.751449 -0.028786 0
M  V30 4140 H 410.928 2.82464 -0.962112 0
M  V30 4141 C 409.677 3.40226 0.71703 0
M  V30 4142 H 409 3.99706 0.0867951 0
M  V30 4143 H 410.44 4.08897 1.12159 0
M  V30 4144 C 408.899 2.80372 1.86797 0
M  V30 4145 O 409.429 2.71183 2.96349 0
M  V30 4146 N 407.635 2.37904 1.66883 0
M  V30 4147 H 407.182 2.45578 0.777759 0
M  V30 4148 H 407.14 1.98202 2.44056 0
M  V30 4149 N 410.912 0.523116 1.48665 0
M  V30 4150 C 412.323 0.0808997 1.86525 0
M  V30 4151 C 412.674 -1.33975 1.43336 0
M  V30 4152 O 411.799 -2.00221 0.821009 0
M  V30 4153 C 412.394 0.140037 3.3851 0
M  V30 4154 C 410.953 -0.246948 3.75589 0
M  V30 4155 C 410.1 0.502845 2.72703 0
M  V30 4156 H 413.051 0.734736 1.40667 0
M  V30 4157 H 413.072 -0.649945 3.74908 0
M  V30 4158 H 412.584 1.17412 3.69914 0
M  V30 4159 H 410.685 -1.28343 3.49798 0
M  V30 4160 H 410.798 0.0878859 4.79019 0
M  V30 4161 H 409.162 -0.0500581 2.54651 0
M  V30 4162 H 409.945 1.53743 3.0695 0
M  V30 4163 N 412.39 -1.55475 0.257931 0
M  V30 4164 C 413.353 -2.20551 -0.623706 0
M  V30 4165 C 414.353 -1.17809 -1.09443 0
M  V30 4166 O 415.543 -1.42823 -0.997362 0
M  V30 4167 C 412.675 -2.85784 -1.8585 0
M  V30 4168 H 413.868 -2.99848 -0.0557743 0
M  V30 4169 H 411.421 -1.56298 0.0084422 0
M  V30 4170 H 412.156 -2.10453 -2.46739 0
M  V30 4171 H 411.941 -3.61057 -1.52907 0
M  V30 4172 H 413.431 -3.35553 -2.48584 0
M  V30 4173 O 413.907 -0.12294 -1.61031 0
M  V30 4174 H 414.598 0.475096 -1.87783 0
M  V30 END ATOM
M  V30 BEGIN BOND
M  V30 END BOND
M  V30 END CTAB
M  END
$$$$
