drugbank_target|P21638 Precorrin-8X methylmutase (DB02460)
 OpenBabel12092120003D

  0  0  0     0  0            999 V3000
M  V30 BEGIN CTAB
M  V30 COUNTS 3108 3136 0 0 0
M  V30 BEGIN ATOM
M  V30 1 H -0.908 1.98254 -0.117106 0
M  V30 2 N 0 1.576 0 0
M  V30 3 C 0.933 2.03868 1.02534 0
M  V30 4 C 1.911 0.928543 1.3348 0
M  V30 5 O 3.095 1.19667 1.45644 0
M  V30 6 C 0.222 2.43627 2.35294 0
M  V30 7 C -0.732 3.65373 2.2001 0
M  V30 8 S 0.101 5.13292 1.52614 0
M  V30 9 C 1.257 5.56322 2.86805 0
M  V30 10 H 1.49 2.90518 0.631377 0
M  V30 11 H -0.977 1.52953 0.210867 0
M  V30 12 H 0.981 2.67203 3.11629 0
M  V30 13 H -0.358 1.57376 2.7183 0
M  V30 14 H -1.165 3.90944 3.18086 0
M  V30 15 H -1.563 3.418 1.51819 0
M  V30 16 H 0.729 5.58782 3.83104 0
M  V30 17 H 1.672 6.56266 2.65933 0
M  V30 18 H 2.08 4.83886 2.90714 0
M  V30 19 N 1.4781 -0.272755 1.55222 0
M  V30 20 C 2.8891 -0.84378 1.66545 0
M  V30 21 C 3.2401 -1.87035 0.592641 0
M  V30 22 O 2.3651 -2.14761 -0.265818 0
M  V30 23 C 2.9601 -1.53723 3.01918 0
M  V30 24 C 1.5191 -2.05628 3.15268 0
M  V30 25 C 0.6661 -0.898424 2.62343 0
M  V30 26 H 3.6171 -0.0490998 1.58624 0
M  V30 27 H 3.6381 -2.40421 2.94921 0
M  V30 28 H 3.1501 -0.78983 3.79978 0
M  V30 29 H 1.2511 -2.83329 2.41983 0
M  V30 30 H 1.3641 -2.27142 4.21833 0
M  V30 31 H -0.2719 -1.29186 2.19506 0
M  V30 32 H 0.5111 -0.164528 3.42906 0
M  V30 33 N 2.9562 -1.48159 -0.537278 0
M  V30 34 C 3.8662 -1.64807 -1.6696 0
M  V30 35 C 4.8822 -0.530651 -1.65711 0
M  V30 36 O 6.0582 -0.800784 -1.84796 0
M  V30 37 C 3.1232 -1.67708 -3.03438 0
M  V30 38 C 2.1842 -2.91025 -3.156 0
M  V30 39 C 1.4172 -2.93778 -4.45567 0
M  V30 40 O 1.6402 -2.05153 -5.3223 0
M  V30 41 O 0.5742 -3.85868 -4.61941 0
M  V30 42 H 4.4002 -2.6066 -1.55853 0
M  V30 43 H 1.9852 -1.31475 -0.709549 0
M  V30 44 H 3.8672 -1.7218 -3.84619 0
M  V30 45 H 2.5422 -0.750278 -3.14885 0
M  V30 46 H 1.4492 -2.92089 -2.33741 0
M  V30 47 H 2.7822 -3.83065 -3.09066 0
M  V30 48 N 4.4343 0.785586 -1.36625 0
M  V30 49 C 5.6643 1.5722 -1.34036 0
M  V30 50 C 6.0723 1.89033 0.0795062 0
M  V30 51 O 5.4153 1.50881 1.04789 0
M  V30 52 C 5.4773 2.91759 -2.10041 0
M  V30 53 C 5.1413 2.82654 -3.59104 0
M  V30 54 C 6.1383 2.54634 -4.53274 0
M  V30 55 C 3.8233 3.01111 -4.02042 0
M  V30 56 C 5.8173 2.45177 -5.88359 0
M  V30 57 C 3.5043 2.91276 -5.37216 0
M  V30 58 C 4.5023 2.63348 -6.30188 0
M  V30 59 O 4.1903 2.53514 -7.6288 0
M  V30 60 H 3.9223 0.494177 -0.461265 0
M  V30 61 H 6.4763 0.982632 -1.8037 0
M  V30 62 H 4.7063 3.52781 -1.58375 0
M  V30 63 H 6.3953 3.53059 -2.00261 0
M  V30 64 H 7.1613 2.40073 -4.21414 0
M  V30 65 H 3.0403 3.21854 -3.30047 0
M  V30 66 H 6.5843 2.23299 -6.60896 0
M  V30 67 H 2.4813 3.054 -5.68684 0
M  V30 68 H 3.2493 2.68967 -7.73045 0
M  V30 69 N 5.9124 1.20967 1.01018 0
M  V30 70 C 7.1894 0.93264 1.71934 0
M  V30 71 C 7.5694 -0.55692 2.03621 0
M  V30 72 O 6.9174 -1.52035 1.7058 0
M  V30 73 C 7.1274 1.81233 2.98254 0
M  V30 74 C 8.4754 2.05804 3.71389 0
M  V30 75 O 9.4994 1.78539 3.08225 0
M  V30 76 O 8.3584 2.51888 4.84989 0
M  V30 77 H 5.4524 0.349272 0.749625 0
M  V30 78 H 7.9984 1.31871 1.06808 0
M  V30 79 H 6.7704 2.82067 2.71208 0
M  V30 80 H 6.3934 1.42674 3.7112 0
M  V30 81 N 7.3905 -1.2043 1.01659 0
M  V30 82 C 8.6205 -1.93496 0.724081 0
M  V30 83 C 9.0285 -1.74998 -0.71918 0
M  V30 84 O 8.3715 -1.06118 -1.49949 0
M  V30 85 C 8.4335 -3.45886 0.97994 0
M  V30 86 C 8.0975 -3.88145 2.41232 0
M  V30 87 C 9.0945 -3.93907 3.39313 0
M  V30 88 C 6.7795 -4.20134 2.75305 0
M  V30 89 C 8.7735 -4.31069 4.6953 0
M  V30 90 C 6.4605 -4.56971 4.05735 0
M  V30 91 C 7.4585 -4.62411 5.02658 0
M  V30 92 O 7.1465 -4.98403 6.30754 0
M  V30 93 H 6.8785 -0.621824 0.265162 0
M  V30 94 H 9.4325 -1.53867 1.36066 0
M  V30 95 H 7.6625 -3.85639 0.286198 0
M  V30 96 H 9.3515 -4.0018 0.679021 0
M  V30 97 H 10.1175 -3.69357 3.14325 0
M  V30 98 H 5.9965 -4.1509 2.00551 0
M  V30 99 H 9.5405 -4.3523 5.45179 0
M  V30 100 H 5.4375 -4.80977 4.30502 0
M  V30 101 H 6.2055 -5.16395 6.35042 0
M  V30 102 N 8.8686 -0.792821 -1.36206 0
M  V30 103 C 10.1176 -0.363353 -1.984 0
M  V30 104 C 10.4306 1.07172 -1.63626 0
M  V30 105 O 11.6366 1.60362 -2.19081 0
M  V30 106 C 10.0926 -0.59872 -3.54885 0
M  V30 107 C 9.7006 -2.04543 -3.9858 0
M  V30 108 C 11.4446 -0.233926 -4.23855 0
M  V30 109 C 9.3516 -2.22727 -5.47856 0
M  V30 110 H 8.2816 -0.13212 -0.742334 0
M  V30 111 H 10.9326 -0.974935 -1.55458 0
M  V30 112 H 9.3146 0.0826222 -3.95914 0
M  V30 113 H 10.4886 -2.76345 -3.68741 0
M  V30 114 H 8.8036 -2.36879 -3.42458 0
M  V30 115 H 11.4006 -0.348027 -5.33566 0
M  V30 116 H 11.7436 0.818351 -4.08177 0
M  V30 117 H 12.2766 -0.868639 -3.882 0
M  V30 118 H 9.0156 -3.2635 -5.68486 0
M  V30 119 H 8.5356 -1.55434 -5.7931 0
M  V30 120 H 10.2146 -2.03607 -6.14128 0
M  V30 121 N 10.3467 1.47872 -0.545128 0
M  V30 122 C 11.7627 1.5829 -0.204032 0
M  V30 123 C 11.9627 1.54529 1.29317 0
M  V30 124 O 11.0187 1.44232 2.07252 0
M  V30 125 C 12.3317 2.89304 -0.819987 0
M  V30 126 C 13.8797 3.02864 -0.790105 0
M  V30 127 C 14.3547 4.3656 -1.38491 0
M  V30 128 N 15.8457 4.43165 -1.34755 0
M  V30 129 C 16.5807 5.45153 -1.77753 0
M  V30 130 N 16.0767 6.54016 -2.2855 0
M  V30 131 N 17.8697 5.36125 -1.68897 0
M  V30 132 H 10.0207 1.4856 -1.51802 0
M  V30 133 H 12.2837 0.706305 -0.632327 0
M  V30 134 H 11.9897 2.97757 -1.87173 0
M  V30 135 H 11.8637 3.75957 -0.305915 0
M  V30 136 H 14.2507 2.94014 0.252913 0
M  V30 137 H 14.3317 2.17782 -1.34181 0
M  V30 138 H 13.9757 4.46164 -2.42693 0
M  V30 139 H 13.9057 5.20353 -0.808754 0
M  V30 140 H 16.3967 3.65083 -0.975855 0
M  V30 141 H 16.7097 7.27994 -2.59314 0
M  V30 142 H 15.0547 6.54938 -2.32553 0
M  V30 143 H 18.2457 4.49975 -1.28998 0
M  V30 144 H 18.4187 6.15472 -2.02726 0
M  V30 145 N 11.8248 0.280983 1.55075 0
M  V30 146 C 13.1018 -0.386207 1.91749 0
M  V30 147 C 13.4818 -1.73264 1.20594 0
M  V30 148 O 12.8298 -2.26034 0.334784 0
M  V30 149 C 13.0398 -0.520687 3.45094 0
M  V30 150 C 14.3878 -0.800865 4.16979 0
M  V30 151 O 15.4118 -0.605271 3.5102 0
M  V30 152 O 14.2708 -1.1753 5.33712 0
M  V30 153 H 11.3648 -0.212408 0.799257 0
M  V30 154 H 13.9108 0.327568 1.66509 0
M  V30 155 H 12.6828 0.426633 3.88967 0
M  V30 156 H 12.3058 -1.2837 3.76307 0
M  V30 157 N 13.3029 -1.57598 0.00835791 0
M  V30 158 C 14.5509 -1.90551 -0.6734 0
M  V30 159 C 14.8719 -0.883301 -1.73847 0
M  V30 160 O 14.1419 0.0781442 -1.95744 0
M  V30 161 H 12.7219 -0.703312 -0.251717 0
M  V30 162 H 15.3839 -1.94833 0.0512592 0
M  V30 163 H 14.4799 -2.9056 -1.13935 0
M  V30 164 N 14.781 0.264519 -1.55364 0
M  V30 165 C 15.729 1.34702 -1.89626 0
M  V30 166 C 16.723 1.50712 -0.773459 0
M  V30 167 O 17.929 1.52395 -0.957897 0
M  V30 168 H 14.304 0.450682 -0.601988 0
M  V30 169 H 16.275 1.0306 -2.80038 0
M  V30 170 C 15.024 2.6989 -2.19214 0
M  V30 171 H 14.347 2.58365 -3.05103 0
M  V30 172 H 15.787 3.44553 -2.47102 0
M  V30 173 C 14.246 3.21637 -1.00254 0
M  V30 174 O 14.776 4.00973 -0.241501 0
M  V30 175 N 12.982 2.7943 -0.797938 0
M  V30 176 H 12.529 2.15026 -1.4185 0
M  V30 177 H 12.487 3.144 -0.00363422 0
M  V30 178 N 16.2591 1.48442 0.529413 0
M  V30 179 C 17.2221 1.62524 1.61612 0
M  V30 180 C 18.2221 0.498509 1.52877 0
M  V30 181 O 19.4121 0.76431 1.56537 0
M  V30 182 C 16.5441 1.59597 3.01233 0
M  V30 183 H 17.7371 2.59423 1.50465 0
M  V30 184 H 15.2901 1.37047 0.751514 0
M  V30 185 H 16.0251 0.641781 3.17886 0
M  V30 186 H 15.8101 2.41397 3.08982 0
M  V30 187 H 17.3001 1.72646 3.80241 0
M  V30 188 N 17.7372 -0.778329 1.37039 0
M  V30 189 C 18.9862 -1.53189 1.3121 0
M  V30 190 C 19.2992 -1.95328 -0.103095 0
M  V30 191 O 20.5052 -2.70012 -0.283826 0
M  V30 192 C 18.9612 -2.76591 2.30272 0
M  V30 193 C 18.5692 -2.41577 3.77286 0
M  V30 194 C 20.3132 -3.5455 2.33441 0
M  V30 195 C 18.2202 -3.61441 4.68096 0
M  V30 196 H 17.1502 -0.5751 0.487622 0
M  V30 197 H 19.8012 -0.853101 1.62464 0
M  V30 198 H 18.1832 -3.46326 1.92027 0
M  V30 199 H 19.3572 -1.79668 4.2433 0
M  V30 200 H 17.6722 -1.76806 3.76999 0
M  V30 201 H 20.2692 -4.43628 2.98493 0
M  V30 202 H 20.6122 -3.93936 1.34611 0
M  V30 203 H 21.1452 -2.91805 2.7036 0
M  V30 204 H 17.8842 -3.27142 5.6803 0
M  V30 205 H 17.4042 -4.22478 4.25761 0
M  V30 206 H 19.0832 -4.28335 4.8491 0
M  V30 207 N 19.2153 -1.21501 -1.00376 0
M  V30 208 C 20.4453 -1.05746 -1.77486 0
M  V30 209 C 20.8533 0.395655 -1.85017 0
M  V30 210 O 20.1963 1.28626 -1.31152 0
M  V30 211 C 20.2583 -1.58092 -3.22873 0
M  V30 212 C 19.9223 -3.06568 -3.38917 0
M  V30 213 C 20.9193 -4.04106 -3.271 0
M  V30 214 C 18.6043 -3.45799 -3.64319 0
M  V30 215 C 20.5983 -5.38862 -3.40451 0
M  V30 216 C 18.2853 -4.80707 -3.77311 0
M  V30 217 C 19.2833 -5.77047 -3.65384 0
M  V30 218 O 18.9713 -7.09507 -3.77961 0
M  V30 219 H 18.7033 -0.371778 -0.564586 0
M  V30 220 H 21.2573 -1.61319 -1.27143 0
M  V30 221 H 19.4873 -0.969163 -3.74358 0
M  V30 222 H 21.1763 -1.38162 -3.81662 0
M  V30 223 H 21.9423 -3.75141 -3.07399 0
M  V30 224 H 17.8213 -2.71344 -3.72684 0
M  V30 225 H 21.3653 -6.14041 -3.31058 0
M  V30 226 H 17.2623 -5.09357 -3.96517 0
M  V30 227 H 18.0303 -7.16935 -3.94901 0
M  V30 228 N 20.6934 1.19889 -1.02296 0
M  V30 229 C 21.6034 2.26571 -0.608508 0
M  V30 230 C 22.6194 1.70299 0.356964 0
M  V30 231 O 23.7954 2.00235 0.216326 0
M  V30 232 C 20.8604 3.46677 0.0402814 0
M  V30 233 C 19.9214 4.18153 -0.97194 0
M  V30 234 C 19.1544 5.32525 -0.354016 0
M  V30 235 O 19.3774 5.64112 0.844604 0
M  V30 236 O 18.3114 5.92242 -1.07391 0
M  V30 237 H 22.1374 2.64251 -1.49684 0
M  V30 238 H 19.7224 1.26629 -0.792809 0
M  V30 239 H 21.6044 4.19475 0.402324 0
M  V30 240 H 20.2794 3.10858 0.902707 0
M  V30 241 H 19.1864 3.47499 -1.38546 0
M  V30 242 H 20.5194 4.57927 -1.80454 0
M  V30 243 N 22.1715 0.800033 1.35784 0
M  V30 244 C 23.5875 0.482977 1.52117 0
M  V30 245 C 23.7875 -0.996948 1.75109 0
M  V30 246 O 22.8435 -1.78216 1.78872 0
M  V30 247 C 24.1565 1.32264 2.70049 0
M  V30 248 C 25.7045 1.31742 2.83924 0
M  V30 249 C 26.1795 2.14106 4.04874 0
M  V30 250 N 27.6705 2.11607 4.12039 0
M  V30 251 C 28.4055 2.72099 5.04727 0
M  V30 252 N 27.9015 3.41492 6.02789 0
M  V30 253 N 29.6945 2.61776 4.97423 0
M  V30 254 H 21.8455 1.75856 1.19115 0
M  V30 255 H 24.1085 0.748122 0.582252 0
M  V30 256 H 23.8145 2.37261 2.59616 0
M  V30 257 H 23.6885 0.971303 3.6448 0
M  V30 258 H 26.0755 0.275333 2.93813 0
M  V30 259 H 26.1565 1.70859 1.9037 0
M  V30 260 H 25.8005 3.18351 3.95746 0
M  V30 261 H 25.7305 1.72353 4.97596 0
M  V30 262 H 28.2215 1.61112 3.41835 0
M  V30 263 H 28.5345 3.84953 6.70098 0
M  V30 264 H 26.8795 3.45596 6.02983 0
M  V30 265 H 30.0705 2.07157 4.19766 0
M  V30 266 H 30.2435 3.0921 5.69468 0
M  V30 267 N 23.6496 -1.47581 0.552962 0
M  V30 268 C 24.8746 -2.07378 0.0300593 0
M  V30 269 C 25.2996 -1.40355 -1.25229 0
M  V30 270 O 24.6576 -0.477099 -1.7491 0
M  V30 271 C 24.7056 -3.60274 -0.153231 0
M  V30 272 O 23.8096 -3.94041 -1.21678 0
M  V30 273 H 23.1506 -0.662158 0.0494182 0
M  V30 274 H 25.6806 -1.89662 0.767434 0
M  V30 275 H 25.6906 -4.0633 -0.368761 0
M  V30 276 H 24.3656 -4.08455 0.783397 0
M  V30 277 H 22.9426 -3.59735 -0.982079 0
M  V30 278 N 25.1277 -0.289203 -1.54924 0
M  V30 279 C 26.3747 0.323519 -1.99899 0
M  V30 280 C 26.7027 1.54797 -1.17762 0
M  V30 281 O 25.9577 1.94237 -0.238835 0
M  V30 282 C 26.2567 0.736119 -3.49737 0
M  V30 283 C 25.9227 -0.385276 -4.49251 0
M  V30 284 C 24.5847 -0.693156 -4.76181 0
M  V30 285 C 26.9367 -1.14021 -5.08575 0
M  V30 286 C 24.2647 -1.7593 -5.59701 0
M  V30 287 C 26.6167 -2.19619 -5.93254 0
M  V30 288 C 25.2807 -2.51026 -6.185 0
M  V30 289 H 24.5507 0.118384 -0.731482 0
M  V30 290 H 27.1977 -0.405847 -1.8715 0
M  V30 291 H 25.5027 1.54539 -3.60035 0
M  V30 292 H 27.1997 1.22118 -3.81953 0
M  V30 293 H 23.7897 -0.135202 -4.28387 0
M  V30 294 H 27.9737 -0.915611 -4.87781 0
M  V30 295 H 23.2297 -2.0075 -5.77503 0
M  V30 296 H 27.4037 -2.78581 -6.38252 0
M  V30 297 H 25.0307 -3.33772 -6.83008 0
M  V30 298 N 26.6058 1.57591 -0.0167156 0
M  V30 299 C 27.5688 2.08393 0.954204 0
M  V30 300 C 28.5688 0.996531 1.26198 0
M  V30 301 O 29.7588 1.25858 1.20438 0
M  V30 302 C 26.8908 2.5394 2.27436 0
M  V30 303 H 28.0838 2.95455 0.514451 0
M  V30 304 H 25.6368 1.54582 0.231089 0
M  V30 305 H 26.3718 1.70171 2.76066 0
M  V30 306 H 26.1568 3.33371 2.06412 0
M  V30 307 H 27.6468 2.93512 2.97053 0
M  V30 308 N 28.0839 -0.256276 1.55502 0
M  V30 309 C 29.3329 -0.983486 1.76098 0
M  V30 310 C 29.6459 -1.86837 0.578896 0
M  V30 311 O 30.8519 -2.63163 0.667648 0
M  V30 312 C 29.3079 -1.79868 3.1173 0
M  V30 313 C 28.9159 -0.961648 4.37557 0
M  V30 314 C 30.6599 -2.51919 3.41668 0
M  V30 315 C 28.5669 -1.77219 5.64223 0
M  V30 316 H 27.4969 -0.370936 0.656447 0
M  V30 317 H 30.1479 -0.238492 1.81944 0
M  V30 318 H 28.5299 -2.58527 2.99966 0
M  V30 319 H 29.7039 -0.218048 4.60284 0
M  V30 320 H 28.0189 -0.354913 4.14885 0
M  V30 321 H 30.6159 -3.12998 4.33516 0
M  V30 322 H 30.9589 -3.23059 2.62562 0
M  V30 323 H 31.4919 -1.80278 3.54605 0
M  V30 324 H 28.2309 -1.10471 6.46124 0
M  V30 325 H 27.7509 -2.49132 5.45613 0
M  V30 326 H 29.4299 -2.34169 6.03137 0
M  V30 327 N 29.562 -1.4872 -0.521534 0
M  V30 328 C 30.811 -1.56419 -1.27341 0
M  V30 329 C 31.124 -0.246805 -1.94037 0
M  V30 330 O 32.33 -0.202122 -2.70747 0
M  V30 331 C 30.786 -2.75896 -2.31105 0
M  V30 332 C 30.394 -4.14311 -1.70441 0
M  V30 333 C 32.138 -2.92913 -3.07249 0
M  V30 334 C 30.045 -5.25038 -2.72194 0
M  V30 335 H 28.975 -0.582344 -0.478949 0
M  V30 336 H 31.626 -1.75071 -0.549779 0
M  V30 337 H 30.008 -2.50697 -3.06541 0
M  V30 338 H 31.182 -4.49564 -1.01136 0
M  V30 339 H 29.497 -4.02482 -1.06759 0
M  V30 340 H 32.094 -3.72805 -3.83302 0
M  V30 341 H 32.437 -2.02689 -3.63625 0
M  V30 342 H 32.97 -3.18054 -2.38928 0
M  V30 343 H 29.709 -6.17255 -2.20627 0
M  V30 344 H 29.229 -4.94263 -3.39801 0
M  V30 345 H 30.908 -5.53508 -3.35019 0
M  V30 346 N 31.0401 0.771051 -1.3745 0
M  V30 347 C 32.4561 1.07171 -1.18265 0
M  V30 348 C 32.6561 2.01491 -0.019287 0
M  V30 349 O 31.7121 2.44244 0.640408 0
M  V30 350 C 33.0251 1.66854 -2.50161 0
M  V30 351 C 34.5731 1.79109 -2.56689 0
M  V30 352 C 35.0481 2.42205 -3.88717 0
M  V30 353 N 36.5391 2.49655 -3.90162 0
M  V30 354 C 37.2741 2.9933 -4.8907 0
M  V30 355 N 36.7701 3.49172 -5.98374 0
M  V30 356 N 38.5631 2.9821 -4.76474 0
M  V30 357 H 30.7141 0.144796 -2.11906 0
M  V30 358 H 32.9771 0.126863 -0.939473 0
M  V30 359 H 32.6831 1.05017 -3.35655 0
M  V30 360 H 32.5571 2.6614 -2.673 0
M  V30 361 H 34.9441 2.40077 -1.71601 0
M  V30 362 H 35.0251 0.785757 -2.43433 0
M  V30 363 H 34.6691 1.81875 -4.74219 0
M  V30 364 H 34.5991 3.43345 -3.99276 0
M  V30 365 H 37.0901 2.14383 -3.11205 0
M  V30 366 H 37.4031 3.8548 -6.69795 0
M  V30 367 H 35.7481 3.47275 -6.02018 0
M  V30 368 H 38.9391 2.58572 -3.90203 0
M  V30 369 H 39.1121 3.36613 -5.53711 0
M  V30 370 N 32.5182 1.22032 0.997298 0
M  V30 371 C 33.4812 0.987909 2.06816 0
M  V30 372 C 34.4812 -0.0440084 1.6074 0
M  V30 373 O 35.6712 0.194053 1.73116 0
M  V30 374 C 32.8032 0.49132 3.37341 0
M  V30 375 H 33.9962 1.93803 2.28868 0
M  V30 376 H 31.5492 1.03838 1.16822 0
M  V30 377 H 32.2842 -0.463364 3.20973 0
M  V30 378 H 32.0692 1.23575 3.72118 0
M  V30 379 H 33.5592 0.348824 4.16141 0
M  V30 380 N 33.9963 -1.19345 1.0293 0
M  V30 381 C 34.9063 -2.26245 0.620515 0
M  V30 382 C 35.9223 -1.70486 -0.347928 0
M  V30 383 O 37.0983 -2.00347 -0.205704 0
M  V30 384 C 34.1633 -3.46693 -0.0218957 0
M  V30 385 C 33.2243 -4.17632 0.994102 0
M  V30 386 C 32.4573 -5.32329 0.382253 0
M  V30 387 O 32.6803 -5.64552 -0.814676 0
M  V30 388 O 31.6143 -5.91664 1.10531 0
M  V30 389 H 35.4403 -2.63453 1.51083 0
M  V30 390 H 33.0253 -1.26207 0.799513 0
M  V30 391 H 34.9073 -4.19683 -0.380072 0
M  V30 392 H 33.5823 -3.11333 -0.886209 0
M  V30 393 H 32.4893 -3.4676 1.40387 0
M  V30 394 H 33.8223 -4.56964 1.8288 0
M  V30 395 N 35.4744 -0.807222 -1.35358 0
M  V30 396 C 36.4374 -0.223665 -2.28106 0
M  V30 397 C 37.4374 0.589354 -1.4961 0
M  V30 398 O 38.6274 0.407745 -1.69361 0
M  V30 399 C 35.7594 0.688149 -3.33882 0
M  V30 400 H 36.9524 -1.04169 -2.81227 0
M  V30 401 H 34.5054 -0.577921 -1.45223 0
M  V30 402 H 35.2404 1.52984 -2.85948 0
M  V30 403 H 35.0254 0.10687 -3.91954 0
M  V30 404 H 36.5154 1.09075 -4.03104 0
M  V30 405 N 36.9525 1.47285 -0.560781 0
M  V30 406 C 38.2295 1.9558 0.0277798 0
M  V30 407 C 38.6095 1.5034 1.48192 0
M  V30 408 O 37.9575 0.743882 2.16052 0
M  V30 409 C 38.1675 3.48789 -0.121418 0
M  V30 410 C 39.5155 4.24594 0.0220912 0
M  V30 411 O 40.5395 3.56166 -0.0491439 0
M  V30 412 O 39.3985 5.46217 0.175958 0
M  V30 413 H 36.4925 0.824663 0.0621342 0
M  V30 414 H 39.0385 1.5767 -0.627556 0
M  V30 415 H 37.8105 3.74533 -1.13316 0
M  V30 416 H 37.4335 3.93473 0.571366 0
M  V30 417 N 38.4306 0.297415 1.54768 0
M  V30 418 C 39.3606 -0.573494 2.26348 0
M  V30 419 C 40.3416 -1.14085 1.26169 0
M  V30 420 O 41.5266 -1.17086 1.54934 0
M  V30 421 C 38.6566 -1.74716 3.00153 0
M  V30 422 C 37.6106 -1.31032 4.07449 0
M  V30 423 C 36.9366 -2.56887 4.68949 0
M  V30 424 C 38.2366 -0.444183 5.20408 0
M  V30 425 H 39.9306 0.0235131 2.99391 0
M  V30 426 H 37.4766 0.0127488 1.43994 0
M  V30 427 H 39.4296 -2.3625 3.48947 0
M  V30 428 H 38.1536 -2.37035 2.24682 0
M  V30 429 H 36.8126 -0.718066 3.59499 0
M  V30 430 H 36.4606 -3.17512 3.90122 0
M  V30 431 H 36.1606 -2.2836 5.41411 0
M  V30 432 H 37.6846 -3.19229 5.20505 0
M  V30 433 H 39.0986 -0.9651 5.65118 0
M  V30 434 H 37.4956 -0.252846 5.99567 0
M  V30 435 H 38.5656 0.531609 4.81977 0
M  V30 436 N 39.9087 -1.5758 0.0250728 0
M  V30 437 C 41.1337 -1.96337 -0.668317 0
M  V30 438 C 41.5587 -0.901314 -1.651 0
M  V30 439 O 40.9167 0.138187 -1.80773 0
M  V30 440 C 40.9647 -3.34191 -1.35457 0
M  V30 441 O 40.0687 -3.30269 -2.46974 0
M  V30 442 H 39.4097 -0.640281 -0.175887 0
M  V30 443 H 41.9397 -2.0442 0.0857224 0
M  V30 444 H 41.9497 -3.70331 -1.71228 0
M  V30 445 H 40.6247 -4.11036 -0.634218 0
M  V30 446 H 39.2017 -3.05841 -2.13344 0
M  V30 447 N 41.3868 0.248026 -1.55636 0
M  V30 448 C 42.8028 0.596483 -1.48035 0
M  V30 449 C 43.0028 1.88386 -0.715039 0
M  V30 450 O 42.0588 2.51319 -0.243944 0
M  V30 451 C 43.3718 0.700258 -2.92433 0
M  V30 452 C 44.9198 0.792659 -3.02797 0
M  V30 453 C 45.3948 0.928005 -4.485 0
M  V30 454 N 46.8858 0.992903 -4.52433 0
M  V30 455 C 47.6208 1.11687 -5.62418 0
M  V30 456 N 47.1168 1.20645 -6.82214 0
M  V30 457 N 48.9098 1.14994 -5.50212 0
M  V30 458 H 41.0608 -0.597109 -2.03834 0
M  V30 459 H 43.3238 -0.205925 -0.925364 0
M  V30 460 H 43.0298 -0.175658 -3.51261 0
M  V30 461 H 42.9038 1.57255 -3.42857 0
M  V30 462 H 45.2908 1.65903 -2.4405 0
M  V30 463 H 45.3718 -0.104762 -2.55585 0
M  V30 464 H 45.0158 0.0661971 -5.07857 0
M  V30 465 H 44.9458 1.84045 -4.93391 0
M  V30 466 H 47.4368 0.935064 -3.66149 0
M  V30 467 H 47.7498 1.30008 -7.61786 0
M  V30 468 H 46.0948 1.17605 -6.84977 0
M  V30 469 H 49.2858 1.07643 -4.55555 0
M  V30 470 H 49.4588 1.24311 -6.35965 0
M  V30 471 N 42.8649 1.48995 0.513639 0
M  V30 472 C 44.1119 1.57843 1.26854 0
M  V30 473 C 44.4399 0.259501 1.92761 0
M  V30 474 O 43.6949 -0.75159 1.80692 0
M  V30 475 C 43.9939 2.67756 2.36731 0
M  V30 476 C 43.6599 4.09669 1.88368 0
M  V30 477 C 42.3219 4.48291 1.74896 0
M  V30 478 C 44.6739 4.98537 1.52021 0
M  V30 479 C 42.0019 5.73568 1.23438 0
M  V30 480 C 44.3539 6.24319 1.0202 0
M  V30 481 C 43.0179 6.61783 0.871778 0
M  V30 482 H 42.2879 0.577587 0.464192 0
M  V30 483 H 44.9349 1.82778 0.571366 0
M  V30 484 H 43.2399 2.36743 3.12185 0
M  V30 485 H 44.9369 2.71813 2.9482 0
M  V30 486 H 41.5269 3.79176 1.99808 0
M  V30 487 H 45.7109 4.69363 1.61281 0
M  V30 488 H 40.9669 6.01304 1.10648 0
M  V30 489 H 45.1409 6.92566 0.729722 0
M  V30 490 H 42.7679 7.5874 0.470852 0
M  V30 491 N 44.343 -0.763751 1.37857 0
M  V30 492 C 45.568 -1.55805 1.36893 0
M  V30 493 C 45.993 -1.88054 -0.0416135 0
M  V30 494 O 45.351 -1.49825 -1.02089 0
M  V30 495 C 45.399 -2.84012 2.22192 0
M  V30 496 O 44.503 -3.78732 1.63204 0
M  V30 497 H 43.844 -0.471638 0.46739 0
M  V30 498 H 46.374 -0.944657 1.81487 0
M  V30 499 H 46.384 -3.33037 2.35691 0
M  V30 500 H 45.059 -2.59869 3.24716 0
M  V30 501 H 43.636 -3.37402 1.58791 0
M  V30 502 N 45.8211 -1.22559 -0.990812 0
M  V30 503 C 46.7311 -1.01394 -2.11557 0
M  V30 504 C 47.7471 0.0383962 -1.73958 0
M  V30 505 O 48.9231 -0.154787 -2.00804 0
M  V30 506 C 45.9881 -0.596569 -3.41529 0
M  V30 507 C 45.0491 -1.72276 -3.93217 0
M  V30 508 C 44.2821 -1.32521 -5.16985 0
M  V30 509 O 44.5051 -0.204909 -5.70032 0
M  V30 510 O 43.4391 -2.14247 -5.62478 0
M  V30 511 H 47.2651 -1.95633 -2.32296 0
M  V30 512 H 44.8501 -1.01172 -1.0993 0
M  V30 513 H 46.7321 -0.374263 -4.19735 0
M  V30 514 H 45.4071 0.316939 -3.22145 0
M  V30 515 H 44.3141 -1.99961 -3.16174 0
M  V30 516 H 45.6471 -2.61421 -4.17037 0
M  V30 517 N 47.2992 1.18797 -1.03562 0
M  V30 518 C 48.2092 2.25913 -0.632505 0
M  V30 519 C 49.2252 1.70668 0.338882 0
M  V30 520 O 50.4012 2.00453 0.195076 0
M  V30 521 C 47.4662 3.467 0.00350942 0
M  V30 522 C 46.5272 4.17098 -1.01624 0
M  V30 523 C 45.7602 5.32119 -0.410478 0
M  V30 524 O 45.9832 5.64976 0.784725 0
M  V30 525 O 44.9172 5.9107 -1.13667 0
M  V30 526 H 48.7432 2.62648 -1.52478 0
M  V30 527 H 46.3282 1.25781 -0.806195 0
M  V30 528 H 48.2102 4.19878 0.35781 0
M  V30 529 H 46.8852 3.11798 0.869686 0
M  V30 530 H 45.7922 3.4601 -1.42224 0
M  V30 531 H 47.1252 4.55987 -1.85301 0
M  V30 532 N 48.7773 0.814389 1.34928 0
M  V30 533 C 49.6873 0.231978 2.3345 0
M  V30 534 C 50.7033 -0.629139 1.62228 0
M  V30 535 O 51.8793 -0.539052 1.94052 0
M  V30 536 C 48.9443 -0.603482 3.41407 0
M  V30 537 C 48.0053 0.279037 4.28392 0
M  V30 538 C 47.2383 -0.516643 5.31193 0
M  V30 539 O 47.4613 -1.75068 5.4287 0
M  V30 540 O 46.3953 0.0965652 6.01823 0
M  V30 541 H 50.2213 1.04721 2.85074 0
M  V30 542 H 47.8063 0.576343 1.37836 0
M  V30 543 H 49.6883 -1.07908 4.0735 0
M  V30 544 H 48.3633 -1.39618 2.92042 0
M  V30 545 H 47.2703 0.801948 3.65403 0
M  V30 546 H 48.6033 1.03588 4.81176 0
M  V30 547 N 50.2554 -1.46986 0.568584 0
M  V30 548 C 51.2184 -2.28624 -0.162366 0
M  V30 549 C 52.2184 -1.37596 -0.832103 0
M  V30 550 O 53.4084 -1.60115 -0.68622 0
M  V30 551 C 50.5404 -3.17596 -1.23878 0
M  V30 552 H 51.7334 -2.94722 0.554899 0
M  V30 553 H 49.2864 -1.52863 0.325976 0
M  V30 554 H 50.0214 -2.56214 -1.98808 0
M  V30 555 H 49.8064 -3.846 -0.763219 0
M  V30 556 H 51.2964 -3.79078 -1.75185 0
M  V30 557 N 51.7335 -0.305618 -1.54608 0
M  V30 558 C 53.0105 0.355652 -1.92339 0
M  V30 559 C 53.3905 1.71324 -1.23335 0
M  V30 560 O 52.7385 2.25473 -0.370702 0
M  V30 561 C 52.9485 0.46572 -3.45879 0
M  V30 562 C 54.2965 0.734426 -4.182 0
M  V30 563 O 55.3205 0.54935 -3.51938 0
M  V30 564 O 54.1795 1.09024 -5.35515 0
M  V30 565 H 51.2735 0.199666 -0.802535 0
M  V30 566 H 53.8195 -0.354017 -1.65966 0
M  V30 567 H 52.5915 -0.488461 -3.88239 0
M  V30 568 H 52.2145 1.22367 -3.78301 0
M  V30 569 N 53.2116 1.57565 -0.0334293 0
M  V30 570 C 54.1416 2.13511 0.945265 0
M  V30 571 C 55.1226 1.05231 1.33643 0
M  V30 572 O 56.3076 1.33084 1.41429 0
M  V30 573 C 53.4376 2.6657 2.22616 0
M  V30 574 C 52.3916 3.79676 1.97561 0
M  V30 575 C 51.7176 4.1918 3.31952 0
M  V30 576 C 53.0176 5.0557 1.31135 0
M  V30 577 H 54.7116 2.95538 0.479325 0
M  V30 578 H 52.2576 1.42166 0.229115 0
M  V30 579 H 54.2106 3.04344 2.91466 0
M  V30 580 H 52.9346 1.8171 2.71384 0
M  V30 581 H 51.5936 3.42347 1.31127 0
M  V30 582 H 51.2416 3.31296 3.78487 0
M  V30 583 H 50.9416 4.95402 3.15992 0
M  V30 584 H 52.4656 4.59541 4.02063 0
M  V30 585 H 53.8796 5.40903 1.89992 0
M  V30 586 H 52.2766 5.86818 1.25559 0
M  V30 587 H 53.3466 4.84062 0.284894 0
M  V30 588 N 54.6897 -0.239769 1.55765 0
M  V30 589 C 55.6527 -1.28038 1.90103 0
M  V30 590 C 56.6527 -1.40723 0.778055 0
M  V30 591 O 57.8427 -1.39301 1.04599 0
M  V30 592 C 54.9747 -2.65702 2.13577 0
M  V30 593 H 56.1677 -0.988048 2.83157 0
M  V30 594 H 53.7207 -0.479382 1.48767 0
M  V30 595 H 54.4557 -3.00063 1.23015 0
M  V30 596 H 54.2407 -2.57875 2.95369 0
M  V30 597 H 55.7307 -3.40828 2.41301 0
M  V30 598 N 56.1678 -1.49265 -0.50573 0
M  V30 599 C 57.4138 -1.58748 -1.26202 0
M  V30 600 C 57.7468 -0.271227 -1.92297 0
M  V30 601 O 57.0218 0.724831 -1.80489 0
M  V30 602 C 57.3048 -2.74332 -2.33268 0
M  V30 603 C 57.1578 -4.15737 -1.71705 0
M  V30 604 C 58.4768 -2.85576 -3.34865 0
M  V30 605 H 55.5958 -0.577826 -0.457478 0
M  V30 606 H 58.2378 -1.81532 -0.560897 0
M  V30 607 H 56.3878 -2.55036 -2.93068 0
M  V30 608 H 58.0598 -4.46537 -1.15769 0
M  V30 609 H 56.3028 -4.21605 -1.02135 0
M  V30 610 H 56.9738 -4.92477 -2.49341 0
M  V30 611 H 59.4498 -3.03127 -2.8505 0
M  V30 612 H 58.3258 -3.68135 -4.07146 0
M  V30 613 H 58.5868 -1.94732 -3.96903 0
M  V30 614 N 57.6459 0.756429 -1.3826 0
M  V30 615 C 59.0619 1.0591 -1.19395 0
M  V30 616 C 59.2619 2.01459 -0.0406567 0
M  V30 617 O 58.3179 2.44909 0.614467 0
M  V30 618 C 59.6309 1.64191 -2.51916 0
M  V30 619 C 61.1789 1.76376 -2.58574 0
M  V30 620 C 61.6539 2.38069 -3.91264 0
M  V30 621 N 63.1449 2.45503 -3.92788 0
M  V30 622 C 63.8799 2.94126 -4.92217 0
M  V30 623 N 63.3759 3.42805 -6.02043 0
M  V30 624 N 65.1689 2.9314 -4.7961 0
M  V30 625 H 57.3199 0.122313 -2.12048 0
M  V30 626 H 59.5829 0.116892 -0.940766 0
M  V30 627 H 59.2889 1.01451 -3.3675 0
M  V30 628 H 59.1629 2.6329 -2.70108 0
M  V30 629 H 61.5499 2.38244 -1.74137 0
M  V30 630 H 61.6309 0.759894 -2.44252 0
M  V30 631 H 61.2749 1.76835 -4.76121 0
M  V30 632 H 61.2049 3.39091 -4.02895 0
M  V30 633 H 63.6959 2.1107 -3.13461 0
M  V30 634 H 64.0089 3.78354 -6.73846 0
M  V30 635 H 62.3539 3.4087 -6.05667 0
M  V30 636 H 65.5449 2.54419 -3.92923 0
M  V30 637 H 65.7179 3.30721 -5.5725 0
M  V30 638 N 59.124 1.23083 0.984299 0
M  V30 639 C 60.057 0.951786 2.07404 0
M  V30 640 C 61.035 -0.10848 1.62238 0
M  V30 641 O 62.219 0.0249467 1.88483 0
M  V30 642 C 59.346 0.433142 3.35919 0
M  V30 643 C 58.392 1.47941 4.0002 0
M  V30 644 S 59.225 3.05556 4.39768 0
M  V30 645 C 60.381 2.55351 5.71442 0
M  V30 646 H 60.614 1.87456 2.30754 0
M  V30 647 H 58.147 1.06284 1.11996 0
M  V30 648 H 60.105 0.140506 4.10259 0
M  V30 649 H 58.766 -0.468656 3.10584 0
M  V30 650 H 57.959 1.06658 4.92585 0
M  V30 651 H 57.561 1.7212 3.3204 0
M  V30 652 H 59.853 1.97128 6.48187 0
M  V30 653 H 60.796 3.46441 6.17563 0
M  V30 654 H 61.204 1.96339 5.29255 0
M  V30 655 N 60.6021 -1.18246 1.0419 0
M  V30 656 C 61.8481 -1.88536 0.747122 0
M  V30 657 C 62.1811 -1.80223 -0.723409 0
M  V30 658 O 61.4561 -1.20337 -1.52804 0
M  V30 659 C 61.7391 -3.38968 1.21544 0
M  V30 660 C 61.5921 -3.56084 2.74816 0
M  V30 661 C 62.9111 -4.32648 0.806482 0
M  V30 662 H 60.0301 -0.684619 0.272883 0
M  V30 663 H 62.6721 -1.39113 1.29413 0
M  V30 664 H 60.8221 -3.8119 0.750081 0
M  V30 665 H 62.4941 -3.22946 3.29399 0
M  V30 666 H 60.7371 -2.98699 3.14582 0
M  V30 667 H 61.4081 -4.61639 3.02644 0
M  V30 668 H 63.8841 -3.98211 1.20695 0
M  V30 669 H 62.7601 -5.36462 1.1619 0
M  V30 670 H 63.0211 -4.41146 -0.29029 0
M  V30 671 N 62.0802 -0.821533 -1.34494 0
M  V30 672 C 63.0302 -0.214793 -2.26986 0
M  V30 673 C 64.0142 0.620125 -1.4847 0
M  V30 674 O 65.2062 0.474933 -1.70509 0
M  V30 675 C 62.3352 0.623566 -3.37589 0
M  V30 676 C 61.4212 -0.221904 -4.23519 0
M  V30 677 N 61.8122 -1.29223 -4.89014 0
M  V30 678 C 60.1102 -0.00600922 -4.46 0
M  V30 679 C 60.8112 -1.80965 -5.52835 0
M  V30 680 N 59.7872 -1.11376 -5.32068 0
M  V30 681 H 63.5892 -1.03354 -2.75128 0
M  V30 682 H 61.1032 -0.6642 -1.48196 0
M  V30 683 H 63.1002 1.0744 -4.02818 0
M  V30 684 H 61.7602 1.44049 -2.90998 0
M  V30 685 H 62.7712 -1.67502 -4.90065 0
M  V30 686 H 59.4482 0.77886 -4.10171 0
M  V30 687 H 60.8382 -2.70502 -6.15043 0
M  V30 688 N 63.5583 1.46682 -0.576371 0
M  V30 689 C 64.5213 2.28707 0.150239 0
M  V30 690 C 65.5213 1.38035 0.824794 0
M  V30 691 O 66.7113 1.60476 0.677719 0
M  V30 692 C 63.8433 3.18248 1.22192 0
M  V30 693 H 65.0363 2.94423 -0.570521 0
M  V30 694 H 62.5893 1.52688 -0.334078 0
M  V30 695 H 63.3243 2.57265 1.97447 0
M  V30 696 H 63.1093 3.85 0.742812 0
M  V30 697 H 64.5993 3.80001 1.73172 0
M  V30 698 N 65.0364 0.313813 1.54444 0
M  V30 699 C 66.2764 -0.292389 2.02298 0
M  V30 700 C 66.6404 -1.50105 1.19719 0
M  V30 701 O 67.8414 -2.17947 1.5733 0
M  V30 702 C 66.1124 -0.627682 3.51845 0
M  V30 703 S 67.6714 -1.21493 4.21646 0
M  V30 704 H 64.4894 -0.0890247 0.705405 0
M  V30 705 H 67.0914 0.444668 1.90376 0
M  V30 706 H 65.7954 0.260265 4.09574 0
M  V30 707 H 65.3264 -1.39519 3.67829 0
M  V30 708 H 67.3414 -2.5022 4.28491 0
M  V30 709 N 66.5145 -1.57545 0.0417849 0
M  V30 710 C 67.7625 -1.91937 -0.632829 0
M  V30 711 C 68.0835 -0.919978 -1.71934 0
M  V30 712 O 67.3535 0.0366064 -1.95866 0
M  V30 713 H 65.9335 -0.708493 -0.236742 0
M  V30 714 H 68.5955 -1.9468 0.0925745 0
M  V30 715 H 67.6915 -2.92912 -1.07746 0
M  V30 716 N 67.9926 0.231505 -1.5589 0
M  V30 717 C 69.2176 0.978689 -1.82856 0
M  V30 718 C 69.6426 1.77559 -0.620846 0
M  V30 719 O 69.0006 1.76119 0.430305 0
M  V30 720 C 69.0486 1.87997 -3.07716 0
M  V30 721 O 68.1526 2.97393 -2.85712 0
M  V30 722 H 67.4936 0.277663 -0.603158 0
M  V30 723 H 70.0236 0.24783 -2.03093 0
M  V30 724 H 70.0336 2.2917 -3.37558 0
M  V30 725 H 68.7086 1.29417 -3.95252 0
M  V30 726 H 67.2856 2.60238 -2.67078 0
M  V30 727 N 69.4707 1.49531 0.497807 0
M  V30 728 C 70.7167 1.59415 1.25358 0
M  V30 729 C 71.0497 0.281422 1.9215 0
M  V30 730 O 70.3247 -0.715249 1.80871 0
M  V30 731 C 70.6077 2.75566 2.3181 0
M  V30 732 C 70.4607 4.16642 1.69498 0
M  V30 733 C 71.7797 2.87347 3.33346 0
M  V30 734 H 68.8987 0.580244 0.454408 0
M  V30 735 H 71.5407 1.81827 0.551262 0
M  V30 736 H 69.6907 2.56587 2.91711 0
M  V30 737 H 71.3627 4.47145 1.13399 0
M  V30 738 H 69.6057 4.22141 0.998978 0
M  V30 739 H 70.2767 4.93792 2.46725 0
M  V30 740 H 72.7527 3.04634 2.83438 0
M  V30 741 H 71.6287 3.70289 4.05188 0
M  V30 742 H 71.8897 1.96834 3.95865 0
M  V30 743 N 70.9488 -0.749086 1.3866 0
M  V30 744 C 71.8588 -1.89358 1.38494 0
M  V30 745 C 72.8748 -1.71708 0.281476 0
M  V30 746 O 74.0508 -1.94554 0.520643 0
M  V30 747 C 71.1158 -3.24782 1.21316 0
M  V30 748 C 70.1768 -3.54926 2.41508 0
M  V30 749 C 69.4098 -4.83888 2.2514 0
M  V30 750 O 69.6328 -5.56592 1.24746 0
M  V30 751 O 68.5668 -5.13612 3.13826 0
M  V30 752 H 72.3928 -1.92452 2.34938 0
M  V30 753 H 69.9778 -0.894981 1.19626 0
M  V30 754 H 71.8598 -4.05739 1.13814 0
M  V30 755 H 70.5348 -3.2249 0.279592 0
M  V30 756 H 69.4418 -2.74112 2.54585 0
M  V30 757 H 70.7748 -3.61983 3.3351 0
M  V30 758 N 72.4269 -1.23603 -0.977757 0
M  V30 759 C 73.3899 -1.02069 -2.05218 0
M  V30 760 C 74.3899 0.0184305 -1.60789 0
M  V30 761 O 75.5799 -0.221569 -1.72785 0
M  V30 762 C 72.7119 -0.544926 -3.36517 0
M  V30 763 H 73.9049 -1.9742 -2.25755 0
M  V30 764 H 71.4579 -1.05684 -1.15155 0
M  V30 765 H 72.1929 0.412241 -3.21669 0
M  V30 766 H 71.9779 -1.2948 -3.70105 0
M  V30 767 H 73.4679 -0.414985 -4.15533 0
M  V30 768 N 73.905 1.17692 -1.04816 0
M  V30 769 C 75.133 1.91786 -0.776254 0
M  V30 770 C 75.548 1.76604 0.667577 0
M  V30 771 O 74.905 1.10067 1.45573 0
M  V30 772 C 74.956 3.42967 -1.14263 0
M  V30 773 O 74.677 3.57678 -2.52978 0
M  V30 774 C 76.178 4.34144 -0.896311 0
M  V30 775 H 73.398 0.608624 -0.282519 0
M  V30 776 H 75.942 1.49268 -1.39783 0
M  V30 777 H 74.097 3.83245 -0.565874 0
M  V30 778 H 74.511 4.51319 -2.67229 0
M  V30 779 H 75.985 5.38744 -1.20244 0
M  V30 780 H 76.462 4.38876 0.168636 0
M  V30 781 H 77.068 3.99574 -1.45672 0
M  V30 782 N 75.3831 0.828654 1.34056 0
M  V30 783 C 76.7991 0.515135 1.51058 0
M  V30 784 C 76.9991 -0.959581 1.77184 0
M  V30 785 O 76.0551 -1.74382 1.82612 0
M  V30 786 C 77.3681 1.37963 2.67183 0
M  V30 787 C 78.9161 1.37735 2.81066 0
M  V30 788 C 79.3911 2.22645 4.00241 0
M  V30 789 N 80.8821 2.203 4.07458 0
M  V30 790 C 81.6171 2.82744 4.98842 0
M  V30 791 N 81.1131 3.54201 5.9541 0
M  V30 792 N 82.9061 2.72268 4.91759 0
M  V30 793 H 75.0571 1.78343 1.15358 0
M  V30 794 H 77.3201 0.760304 0.566252 0
M  V30 795 H 77.0261 2.42714 2.54525 0
M  V30 796 H 76.9001 1.0484 3.62338 0
M  V30 797 H 79.2871 0.337593 2.93163 0
M  V30 798 H 79.3681 1.74859 1.86703 0
M  V30 799 H 79.0121 3.26674 3.88905 0
M  V30 800 H 78.9421 1.82869 4.93829 0
M  V30 801 H 81.4331 1.68327 3.38341 0
M  V30 802 H 81.7461 3.9908 6.61782 0
M  V30 803 H 80.0911 3.58308 5.95517 0
M  V30 804 H 83.2821 2.16014 4.15278 0
M  V30 805 H 83.4551 3.21219 5.62781 0
M  V30 806 N 76.8612 -1.46375 0.584142 0
M  V30 807 C 77.7932 -2.28443 -0.186119 0
M  V30 808 C 78.8062 -1.38596 -0.854115 0
M  V30 809 O 79.9952 -1.63183 -0.723438 0
M  V30 810 C 77.0952 -3.13671 -1.28311 0
M  V30 811 C 76.2682 -4.31652 -0.706758 0
M  V30 812 C 75.3272 -4.98267 -1.69163 0
M  V30 813 O 74.3532 -5.55815 -1.22712 0
M  V30 814 N 75.5552 -4.95408 -3.02575 0
M  V30 815 H 78.3202 -2.9519 0.517986 0
M  V30 816 H 75.8812 -1.56303 0.42201 0
M  V30 817 H 77.8732 -3.55101 -1.94128 0
M  V30 818 H 76.4432 -2.48989 -1.89005 0
M  V30 819 H 75.6632 -3.93989 0.128908 0
M  V30 820 H 76.9512 -5.07906 -0.301506 0
M  V30 821 H 76.3492 -4.49902 -3.42936 0
M  V30 822 H 74.9062 -5.40774 -3.63877 0
M  V30 823 N 78.3393 -0.321999 -1.54275 0
M  V30 824 C 79.5863 0.281044 -2.0054 0
M  V30 825 C 79.9143 1.52265 -1.21019 0
M  V30 826 O 79.1693 1.93687 -0.279982 0
M  V30 827 C 79.4683 0.661769 -3.5122 0
M  V30 828 C 79.1343 -0.480482 -4.48333 0
M  V30 829 C 77.7963 -0.794005 -4.74604 0
M  V30 830 C 80.1483 -1.24783 -5.06042 0
M  V30 831 C 77.4763 -1.87763 -5.55844 0
M  V30 832 C 79.8283 -2.32153 -5.88462 0
M  V30 833 C 78.4923 -2.64089 -6.13036 0
M  V30 834 H 77.7623 0.102841 -0.733829 0
M  V30 835 H 80.4093 -0.445453 -1.86247 0
M  V30 836 H 78.7143 1.46867 -3.63232 0
M  V30 837 H 80.4113 1.13989 -3.84457 0
M  V30 838 H 77.0013 -0.226039 -4.28004 0
M  V30 839 H 81.1853 -1.01887 -4.85729 0
M  V30 840 H 76.4413 -2.12954 -5.73115 0
M  V30 841 H 80.6153 -2.92057 -6.32199 0
M  V30 842 H 78.2423 -3.48185 -6.75775 0
M  V30 843 N 79.8174 1.5752 -0.0501392 0
M  V30 844 C 81.0634 1.92936 0.624798 0
M  V30 845 C 81.3964 0.928685 1.70555 0
M  V30 846 O 80.6714 -0.0454779 1.94447 0
M  V30 847 C 80.9544 3.38737 1.22185 0
M  V30 848 C 80.8074 4.49552 0.149218 0
M  V30 849 C 82.1264 3.84913 2.13378 0
M  V30 850 H 79.2454 0.701604 0.225657 0
M  V30 851 H 81.8874 1.89671 -0.111693 0
M  V30 852 H 80.0374 3.4165 1.84953 0
M  V30 853 H 81.7094 4.58768 -0.482648 0
M  V30 854 H 79.9524 4.30638 -0.522841 0
M  V30 855 H 80.6234 5.48653 0.606966 0
M  V30 856 H 83.0994 3.8387 1.60572 0
M  V30 857 H 81.9754 4.87584 2.52097 0
M  V30 858 H 82.2364 3.21611 3.03346 0
M  V30 859 N 81.2955 -0.223234 1.56011 0
M  V30 860 C 82.5425 -0.947875 1.78946 0
M  V30 861 C 82.8705 -1.844 0.618608 0
M  V30 862 O 82.1255 -1.91629 -0.397093 0
M  V30 863 C 82.4245 -1.81948 3.0762 0
M  V30 864 C 82.0905 -1.07672 4.37856 0
M  V30 865 C 80.7525 -0.871544 4.73242 0
M  V30 866 C 83.1045 -0.552081 5.18268 0
M  V30 867 C 80.4325 -0.129791 5.86556 0
M  V30 868 C 82.7845 0.17632 6.32354 0
M  V30 869 C 81.4485 0.39277 6.66343 0
M  V30 870 H 80.7185 -0.346852 0.654809 0
M  V30 871 H 83.3655 -0.216171 1.90276 0
M  V30 872 H 81.6705 -2.61899 2.91404 0
M  V30 873 H 83.3675 -2.38227 3.22566 0
M  V30 874 H 79.9575 -1.24662 4.1007 0
M  V30 875 H 84.1415 -0.698076 4.91366 0
M  V30 876 H 79.3975 0.048153 6.11381 0
M  V30 877 H 83.5715 0.590367 6.93893 0
M  V30 878 H 81.1985 0.969466 7.53993 0
M  V30 879 N 82.7736 -1.49793 -0.48987 0
M  V30 880 C 83.9986 -1.63836 -1.27172 0
M  V30 881 C 84.4236 -0.31402 -1.8546 0
M  V30 882 O 83.7816 0.719803 -1.66399 0
M  V30 883 C 83.8296 -2.71797 -2.36978 0
M  V30 884 O 82.9336 -2.31744 -3.41128 0
M  V30 885 H 82.2746 -0.547997 -0.37496 0
M  V30 886 H 84.8046 -1.96053 -0.585191 0
M  V30 887 H 84.8146 -2.94305 -2.82575 0
M  V30 888 H 83.4896 -3.67923 -1.93921 0
M  V30 889 H 82.0666 -2.1961 -3.01373 0
M  V30 890 N 84.2517 0.741722 -1.39055 0
M  V30 891 C 85.6627 1.31966 -1.32068 0
M  V30 892 C 86.0137 1.96192 0.0180797 0
M  V30 893 O 85.1387 1.95861 0.920196 0
M  V30 894 C 85.7337 2.39954 -2.39181 0
M  V30 895 C 84.2927 2.93438 -2.35735 0
M  V30 896 C 83.4397 1.66936 -2.21422 0
M  V30 897 H 86.3907 0.539721 -1.4924 0
M  V30 898 H 86.4117 3.20182 -2.05581 0
M  V30 899 H 85.9237 1.9318 -3.36605 0
M  V30 900 H 84.0247 3.4451 -1.41929 0
M  V30 901 H 84.1377 3.4701 -3.30335 0
M  V30 902 H 82.5017 1.91016 -1.68478 0
M  V30 903 H 83.2847 1.22224 -3.20806 0
M  V30 904 N 85.7298 1.2412 0.971189 0
M  V30 905 C 87.0068 0.986867 1.6888 0
M  V30 906 C 87.3868 -0.491857 2.0529 0
M  V30 907 O 86.7348 -1.46531 1.75331 0
M  V30 908 C 86.9448 1.9063 2.92338 0
M  V30 909 C 88.2928 2.17515 3.64654 0
M  V30 910 O 89.3168 1.88254 3.02388 0
M  V30 911 O 88.1758 2.6719 4.7673 0
M  V30 912 H 85.2698 0.372944 0.738134 0
M  V30 913 H 87.8158 1.35203 1.02559 0
M  V30 914 H 86.5878 2.90552 2.62097 0
M  V30 915 H 86.2108 1.54408 3.66393 0
M  V30 916 N 87.2079 -1.17134 1.05439 0
M  V30 917 C 88.4549 -1.87456 0.765942 0
M  V30 918 C 88.7829 -1.81189 -0.707153 0
M  V30 919 O 88.0379 -1.21633 -1.5331 0
M  V30 920 C 88.3369 -3.36833 1.19491 0
M  V30 921 C 88.0029 -3.63301 2.67063 0
M  V30 922 C 86.6649 -3.70234 3.07376 0
M  V30 923 C 89.0169 -3.74575 3.62413 0
M  V30 924 C 86.3449 -3.85933 4.41896 0
M  V30 925 C 88.6969 -3.91793 4.9667 0
M  V30 926 C 87.3609 -3.96966 5.36633 0
M  V30 927 H 86.6309 -0.685948 0.280278 0
M  V30 928 H 89.2779 -1.38556 1.32192 0
M  V30 929 H 87.5829 -3.87807 0.557969 0
M  V30 930 H 89.2799 -3.89611 0.948893 0
M  V30 931 H 85.8699 -3.58532 2.34846 0
M  V30 932 H 90.0539 -3.68537 3.32406 0
M  V30 933 H 85.3099 -3.88187 4.72357 0
M  V30 934 H 89.4839 -3.99458 5.70444 0
M  V30 935 H 87.1109 -4.08883 6.40874 0
M  V30 936 N 88.686 -0.835752 -1.33615 0
M  V30 937 C 89.932 -0.430596 -1.98176 0
M  V30 938 C 90.265 1.00684 -1.66061 0
M  V30 939 O 89.54 1.70339 -0.938877 0
M  V30 940 C 89.823 -0.648065 -3.5422 0
M  V30 941 C 89.676 -2.13255 -3.96033 0
M  V30 942 C 90.995 -0.0922113 -4.40003 0
M  V30 943 H 88.114 -0.157924 -0.719881 0
M  V30 944 H 90.756 -1.05069 -1.58305 0
M  V30 945 H 88.906 -0.120237 -3.88314 0
M  V30 946 H 90.578 -2.725 -3.72211 0
M  V30 947 H 88.821 -2.61823 -3.45878 0
M  V30 948 H 89.492 -2.23547 -5.04708 0
M  V30 949 H 91.968 -0.543343 -4.12537 0
M  V30 950 H 90.844 -0.274083 -5.48215 0
M  V30 951 H 91.105 1.00378 -4.30554 0
M  V30 952 N 90.1641 1.46063 -0.591896 0
M  V30 953 C 91.3891 2.07226 -0.0850314 0
M  V30 954 C 91.8141 1.43625 1.21463 0
M  V30 955 O 91.1721 0.523305 1.73583 0
M  V30 956 C 91.2201 3.60554 0.0576567 0
M  V30 957 O 90.3241 3.97128 1.11188 0
M  V30 958 H 89.6651 0.660615 -0.0669568 0
M  V30 959 H 92.1951 1.8756 -0.81745 0
M  V30 960 H 92.2051 4.07165 0.2609 0
M  V30 961 H 90.8801 4.06235 -0.891416 0
M  V30 962 H 89.4571 3.62213 0.886356 0
M  V30 963 N 91.6422 0.330177 1.54103 0
M  V30 964 C 92.8672 -0.274893 2.0557 0
M  V30 965 C 93.2922 -1.44487 1.20437 0
M  V30 966 O 92.6502 -1.80021 0.214991 0
M  V30 967 C 92.6982 -0.68079 3.54115 0
M  V30 968 O 91.8022 -1.7824 3.71893 0
M  V30 969 H 91.1432 -0.0483849 0.662235 0
M  V30 970 H 93.6732 0.480508 1.98878 0
M  V30 971 H 93.6832 -0.961635 3.96505 0
M  V30 972 H 92.3582 0.174903 4.15532 0
M  V30 973 H 90.9352 -1.49985 3.41407 0
M  V30 974 N 93.1203 -1.57491 0.0584922 0
M  V30 975 C 94.0833 -2.1085 -0.898617 0
M  V30 976 C 95.0833 -1.02964 -1.23511 0
M  V30 977 O 96.2733 -1.29007 -1.17059 0
M  V30 978 C 93.4053 -2.59881 -2.20623 0
M  V30 979 H 94.5983 -2.96715 -0.435936 0
M  V30 980 H 92.1513 -1.55141 -0.190023 0
M  V30 981 H 92.8863 -1.77431 -2.71457 0
M  V30 982 H 92.6713 -3.38727 -1.97501 0
M  V30 983 H 94.1613 -3.01285 -2.89166 0
M  V30 984 N 94.5984 0.214957 -1.56127 0
M  V30 985 C 96.0144 0.564948 -1.49267 0
M  V30 986 C 96.2144 1.86827 -0.754838 0
M  V30 987 O 95.2704 2.50745 -0.297198 0
M  V30 988 C 96.5834 0.638071 -2.93852 0
M  V30 989 C 98.1314 0.728253 -3.0441 0
M  V30 990 C 98.6064 0.832663 -4.50367 0
M  V30 991 N 100.097 0.896712 -4.54437 0
M  V30 992 C 100.832 0.997324 -5.6466 0
M  V30 993 N 100.328 1.06147 -6.8462 0
M  V30 994 N 102.121 1.03297 -5.52527 0
M  V30 995 H 94.2724 -0.640211 -2.02522 0
M  V30 996 H 96.5354 -0.225507 -0.920788 0
M  V30 997 H 96.2414 -0.250126 -3.50809 0
M  V30 998 H 96.1154 1.49947 -3.46115 0
M  V30 999 H 98.5024 1.60689 -2.47514 0
M  V30 1000 H 98.5834 -0.158952 -2.55306 0
M  V30 1001 H 98.2274 -0.0415417 -5.07883 0
M  V30 1002 H 98.1574 1.73538 -4.97184 0
M  V30 1003 H 100.648 0.857188 -3.6805 0
M  V30 1004 H 100.961 1.1382 -7.64372 0
M  V30 1005 H 99.3064 1.03049 -6.87318 0
M  V30 1006 H 102.497 0.979558 -4.57736 0
M  V30 1007 H 102.67 1.10793 -6.38458 0
M  V30 1008 N 96.0765 1.50051 0.48192 0
M  V30 1009 C 97.0395 1.67584 1.5636 0
M  V30 1010 C 98.0395 0.546894 1.51214 0
M  V30 1011 O 99.2295 0.813725 1.54026 0
M  V30 1012 C 96.3615 1.691 2.96003 0
M  V30 1013 H 97.5545 2.64078 1.42136 0
M  V30 1014 H 95.1075 1.39369 0.707533 0
M  V30 1015 H 95.8425 0.742589 3.15684 0
M  V30 1016 H 95.6275 2.51105 3.01146 0
M  V30 1017 H 97.1175 1.84656 3.74556 0
M  V30 1018 N 97.5546 -0.734337 1.39446 0
M  V30 1019 C 98.5176 -1.83004 1.37994 0
M  V30 1020 C 99.5176 -1.58397 0.276938 0
M  V30 1021 O 100.708 -1.65785 0.534875 0
M  V30 1022 C 97.8396 -3.20802 1.1532 0
M  V30 1023 H 99.0326 -1.85694 2.35494 0
M  V30 1024 H 96.5856 -0.938059 1.25021 0
M  V30 1025 H 97.3206 -3.23772 0.185036 0
M  V30 1026 H 97.1056 -3.4006 1.95197 0
M  V30 1027 H 98.5956 -4.00862 1.17046 0
M  V30 1028 N 99.0327 -1.24633 -0.964593 0
M  V30 1029 C 99.9627 -1.06611 -2.07741 0
M  V30 1030 C 100.944 0.0218666 -1.70086 0
M  V30 1031 O 102.129 -0.145793 -1.93652 0
M  V30 1032 C 99.2587 -0.673444 -3.40708 0
M  V30 1033 C 98.2127 -1.71054 -3.92332 0
M  V30 1034 C 97.5387 -1.17285 -5.21678 0
M  V30 1035 C 98.8387 -3.10718 -4.19824 0
M  V30 1036 H 100.533 -1.99693 -2.23076 0
M  V30 1037 H 98.0787 -0.96152 -1.07195 0
M  V30 1038 H 100.032 -0.534345 -4.17998 0
M  V30 1039 H 98.7557 0.293073 -3.25282 0
M  V30 1040 H 97.4147 -1.83791 -3.17201 0
M  V30 1041 H 97.0627 -0.196847 -5.02615 0
M  V30 1042 H 96.7627 -1.86592 -5.57187 0
M  V30 1043 H 98.2867 -1.04593 -6.01575 0
M  V30 1044 H 99.7007 -3.01192 -4.87808 0
M  V30 1045 H 98.0977 -3.77406 -4.66567 0
M  V30 1046 H 99.1677 -3.58524 -3.26479 0
M  V30 1047 N 100.511 1.16574 -1.06058 0
M  V30 1048 C 101.458 2.20883 -0.669263 0
M  V30 1049 C 102.428 1.62729 0.332918 0
M  V30 1050 O 103.613 1.895 0.222346 0
M  V30 1051 C 100.753 3.45049 -0.0593572 0
M  V30 1052 C 99.8658 4.17458 -1.11143 0
M  V30 1053 C 99.0008 5.29135 -0.467916 0
M  V30 1054 C 98.0398 5.93343 -1.50369 0
M  V30 1055 N 97.1768 6.96516 -0.883706 0
M  V30 1056 H 102.017 2.53709 -1.5632 0
M  V30 1057 H 99.5538 1.24616 -0.781625 0
M  V30 1058 H 101.512 4.16033 0.311771 0
M  V30 1059 H 100.142 3.12781 0.797992 0
M  V30 1060 H 99.1938 3.45101 -1.60029 0
M  V30 1061 H 100.506 4.61307 -1.89731 0
M  V30 1062 H 99.6598 6.06684 -0.0436871 0
M  V30 1063 H 98.3988 4.86443 0.349864 0
M  V30 1064 H 97.4038 5.14517 -1.93784 0
M  V30 1065 H 98.6288 6.38114 -2.32352 0
M  V30 1066 H 96.5748 6.55943 -0.086595 0
M  V30 1067 H 96.4918 7.38723 -1.607 0
M  V30 1068 H 97.7598 7.77993 -0.484543 0
M  V30 1069 N 101.989 0.842826 1.3317 0
M  V30 1070 C 102.952 0.284065 2.27433 0
M  V30 1071 C 103.952 -0.54948 1.5112 0
M  V30 1072 O 105.142 -0.362699 1.70382 0
M  V30 1073 C 102.274 -0.599384 3.35589 0
M  V30 1074 H 103.467 1.11589 2.78366 0
M  V30 1075 H 101.02 0.616221 1.4364 0
M  V30 1076 H 101.755 -1.45349 2.89904 0
M  V30 1077 H 101.54 -0.00291266 3.921 0
M  V30 1078 H 103.03 -0.983488 4.05854 0
M  V30 1079 N 103.467 -1.45747 0.599634 0
M  V30 1080 C 104.715 -2.01893 0.0915472 0
M  V30 1081 C 105.036 -1.47155 -1.27946 0
M  V30 1082 O 104.306 -0.66273 -1.84349 0
M  V30 1083 H 102.886 -0.746363 0.0308524 0
M  V30 1084 H 105.548 -1.78645 0.779237 0
M  V30 1085 H 104.644 -3.1208 0.0353086 0
M  V30 1086 N 104.945 -0.338344 -1.53925 0
M  V30 1087 C 105.908 0.508299 -2.23493 0
M  V30 1088 C 106.908 1.03175 -1.23335 0
M  V30 1089 O 108.098 0.921826 -1.47811 0
M  V30 1090 C 105.23 1.70754 -2.95052 0
M  V30 1091 H 106.423 -0.100058 -2.99733 0
M  V30 1092 H 103.976 -0.0896198 -1.56043 0
M  V30 1093 H 104.711 2.35474 -2.22986 0
M  V30 1094 H 104.496 1.33946 -3.68512 0
M  V30 1095 H 105.986 2.30818 -3.48013 0
M  V30 1096 N 106.423 1.57458 -0.0668435 0
M  V30 1097 C 107.834 1.80776 0.466558 0
M  V30 1098 C 108.185 0.980361 1.69951 0
M  V30 1099 O 107.31 0.201441 2.1546 0
M  V30 1100 C 107.905 3.27881 0.85321 0
M  V30 1101 C 106.464 3.52062 1.3315 0
M  V30 1102 C 105.611 2.75513 0.314264 0
M  V30 1103 H 108.562 1.5598 -0.292588 0
M  V30 1104 H 108.583 3.39659 1.715 0
M  V30 1105 H 108.095 3.88075 -0.0443439 0
M  V30 1106 H 106.196 2.97167 2.24772 0
M  V30 1107 H 106.309 4.60762 1.31285 0
M  V30 1108 H 104.673 2.42123 0.790492 0
M  V30 1109 H 105.456 3.38442 -0.575477 0
M  V30 1110 N 107.901 -0.206675 1.56239 0
M  V30 1111 C 109.15 -0.926964 1.79138 0
M  V30 1112 C 109.463 -1.84901 0.638043 0
M  V30 1113 O 110.669 -2.60906 0.751033 0
M  V30 1114 C 109.125 -1.6986 3.17294 0
M  V30 1115 C 108.733 -0.821956 4.40395 0
M  V30 1116 C 110.477 -2.40922 3.4951 0
M  V30 1117 C 108.384 -1.59179 5.69575 0
M  V30 1118 H 107.314 -0.349864 0.667915 0
M  V30 1119 H 109.965 -0.180487 1.8261 0
M  V30 1120 H 108.347 -2.48853 3.08039 0
M  V30 1121 H 109.521 -0.0715019 4.60745 0
M  V30 1122 H 107.836 -0.222741 4.15804 0
M  V30 1123 H 110.433 -2.99047 4.43255 0
M  V30 1124 H 110.776 -3.14542 2.72707 0
M  V30 1125 H 111.309 -1.68905 3.60161 0
M  V30 1126 H 108.048 -0.898589 6.49312 0
M  V30 1127 H 107.568 -2.31648 5.53262 0
M  V30 1128 H 109.247 -2.14862 6.10281 0
M  V30 1129 N 109.379 -1.50304 -0.473955 0
M  V30 1130 C 110.309 -1.71886 -1.58042 0
M  V30 1131 C 111.29 -0.567799 -1.60344 0
M  V30 1132 O 112.475 -0.806623 -1.76656 0
M  V30 1133 C 109.605 -1.81036 -2.96384 0
M  V30 1134 C 108.559 -2.962 -3.08949 0
M  V30 1135 C 107.885 -2.9049 -4.48909 0
M  V30 1136 C 109.185 -4.36752 -2.86434 0
M  V30 1137 H 110.879 -2.64527 -1.40234 0
M  V30 1138 H 108.425 -1.27295 -0.673201 0
M  V30 1139 H 110.378 -1.94719 -3.73714 0
M  V30 1140 H 109.102 -0.850147 -3.15341 0
M  V30 1141 H 107.761 -2.82164 -2.3405 0
M  V30 1142 H 107.409 -1.92321 -4.64781 0
M  V30 1143 H 107.109 -3.67802 -4.58253 0
M  V30 1144 H 108.633 -3.06218 -5.28264 0
M  V30 1145 H 110.047 -4.5133 -3.53517 0
M  V30 1146 H 108.444 -5.15493 -3.07225 0
M  V30 1147 H 109.514 -4.49321 -1.82316 0
M  V30 1148 N 110.857 0.726932 -1.39834 0
M  V30 1149 C 112.097 1.4992 -1.38936 0
M  V30 1150 C 112.461 1.91996 0.0126883 0
M  V30 1151 O 113.662 2.68399 0.146715 0
M  V30 1152 C 111.933 2.70013 -2.34153 0
M  V30 1153 S 113.492 3.59563 -2.51515 0
M  V30 1154 H 110.31 0.51271 -0.492595 0
M  V30 1155 H 112.912 0.85107 -1.76003 0
M  V30 1156 H 111.616 2.37254 -3.34871 0
M  V30 1157 H 111.147 3.39748 -1.98331 0
M  V30 1158 H 113.162 4.63973 -1.75909 0
M  V30 1159 N 112.336 1.25143 0.95797 0
M  V30 1160 C 113.613 1.00472 1.67823 0
M  V30 1161 C 113.993 -0.470056 2.058 0
M  V30 1162 O 113.341 -1.44663 1.76875 0
M  V30 1163 C 113.551 1.9372 2.90299 0
M  V30 1164 C 114.899 2.21371 3.62326 0
M  V30 1165 O 115.923 1.91451 3.00375 0
M  V30 1166 O 114.782 2.72231 4.7387 0
M  V30 1167 H 111.876 0.380752 0.734137 0
M  V30 1168 H 114.422 1.36283 1.01119 0
M  V30 1169 H 113.194 2.93316 2.59001 0
M  V30 1170 H 112.817 1.58286 3.64735 0
M  V30 1171 N 113.814 -1.1601 1.06675 0
M  V30 1172 C 114.777 -2.18724 0.685001 0
M  V30 1173 C 115.777 -1.58496 -0.271246 0
M  V30 1174 O 116.967 -1.74119 -0.0531156 0
M  V30 1175 C 114.099 -3.40899 0.00853648 0
M  V30 1176 H 115.292 -2.54011 1.59431 0
M  V30 1177 H 112.845 -1.30352 0.862441 0
M  V30 1178 H 113.58 -3.11173 -0.913337 0
M  V30 1179 H 113.365 -3.8587 0.696204 0
M  V30 1180 H 114.855 -4.16886 -0.24414 0
M  V30 1181 N 115.292 -0.849877 -1.32721 0
M  V30 1182 C 116.202 -0.293791 -2.32753 0
M  V30 1183 C 117.218 0.585906 -1.63839 0
M  V30 1184 O 118.394 0.487413 -1.95413 0
M  V30 1185 C 115.459 0.512752 -3.42887 0
M  V30 1186 C 114.52 -0.39252 -4.27502 0
M  V30 1187 C 113.753 0.375625 -5.32377 0
M  V30 1188 O 113.976 1.60613 -5.4732 0
M  V30 1189 O 112.91 -0.256094 -6.01355 0
M  V30 1190 H 116.736 -1.12242 -2.82197 0
M  V30 1191 H 114.321 -0.612685 -1.36259 0
M  V30 1192 H 116.203 0.970704 -4.10067 0
M  V30 1193 H 114.878 1.31826 -2.95641 0
M  V30 1194 H 113.785 -0.898547 -3.63149 0
M  V30 1195 H 115.118 -1.16309 -4.7826 0
M  V30 1196 N 116.77 1.45427 -0.607355 0
M  V30 1197 C 117.703 2.27635 0.160482 0
M  V30 1198 C 118.681 1.37122 0.873857 0
M  V30 1199 O 119.865 1.66551 0.882775 0
M  V30 1200 C 116.992 3.15486 1.23231 0
M  V30 1201 C 116.038 4.21939 0.622097 0
M  V30 1202 S 116.871 5.32459 -0.569852 0
M  V30 1203 C 118.027 6.23879 0.502577 0
M  V30 1204 H 118.26 2.9241 -0.536983 0
M  V30 1205 H 115.793 1.49265 -0.394868 0
M  V30 1206 H 117.751 3.66659 1.84585 0
M  V30 1207 H 116.412 2.49977 1.90185 0
M  V30 1208 H 115.605 4.8333 1.42856 0
M  V30 1209 H 115.207 3.73906 0.0837063 0
M  V30 1210 H 117.499 6.63261 1.38171 0
M  V30 1211 H 118.442 7.0806 -0.0751759 0
M  V30 1212 H 118.85 5.58545 0.8178 0
M  V30 1213 N 118.248 0.346503 1.53744 0
M  V30 1214 C 119.494 -0.249473 2.0126 0
M  V30 1215 C 119.827 -1.49965 1.23386 0
M  V30 1216 O 119.102 -1.91811 0.32229 0
M  V30 1217 C 119.385 -0.560643 3.55709 0
M  V30 1218 C 119.238 0.701836 4.44291 0
M  V30 1219 C 120.557 -1.36905 4.18264 0
M  V30 1220 H 117.676 -0.0891987 0.731582 0
M  V30 1221 H 120.318 0.467624 1.84156 0
M  V30 1222 H 118.468 -1.17156 3.70414 0
M  V30 1223 H 120.14 1.33974 4.41417 0
M  V30 1224 H 118.383 1.32612 4.13033 0
M  V30 1225 H 119.054 0.43933 5.50249 0
M  V30 1226 H 121.53 -0.852448 4.07275 0
M  V30 1227 H 120.406 -1.55553 5.26398 0
M  V30 1228 H 120.667 -2.37203 3.73078 0
M  V30 1229 N 119.726 -1.57421 0.075193 0
M  V30 1230 C 120.689 -2.11791 -0.876203 0
M  V30 1231 C 121.689 -1.04268 -1.22412 0
M  V30 1232 O 122.879 -1.30242 -1.15684 0
M  V30 1233 C 120.011 -2.62207 -2.17854 0
M  V30 1234 H 121.204 -2.9716 -0.40444 0
M  V30 1235 H 118.757 -1.55333 -0.173557 0
M  V30 1236 H 119.492 -1.803 -2.6956 0
M  V30 1237 H 119.277 -3.40802 -1.93897 0
M  V30 1238 H 120.767 -3.04335 -2.85955 0
M  V30 1239 N 121.204 0.198386 -1.56346 0
M  V30 1240 C 122.154 1.2499 -1.90687 0
M  V30 1241 C 123.138 1.41158 -0.772217 0
M  V30 1242 O 124.33 1.43584 -1.03502 0
M  V30 1243 C 121.459 2.59542 -2.24706 0
M  V30 1244 C 120.545 2.47181 -3.44619 0
M  V30 1245 N 120.936 2.04495 -4.62618 0
M  V30 1246 C 119.234 2.78082 -3.48692 0
M  V30 1247 C 119.935 2.03945 -5.44776 0
M  V30 1248 N 118.911 2.45323 -4.85095 0
M  V30 1249 H 122.713 0.911149 -2.7942 0
M  V30 1250 H 120.227 0.40684 -1.57221 0
M  V30 1251 H 122.224 3.3549 -2.47491 0
M  V30 1252 H 120.884 2.94244 -1.37298 0
M  V30 1253 H 121.895 1.75256 -4.87345 0
M  V30 1254 H 118.572 3.17002 -2.71691 0
M  V30 1255 H 119.962 1.72872 -6.4928 0
M  V30 1256 N 122.682 1.50554 0.465978 0
M  V30 1257 C 123.93 1.61479 1.21528 0
M  V30 1258 C 124.251 0.319596 1.92363 0
M  V30 1259 O 123.521 -0.663194 1.84333 0
M  V30 1260 H 122.101 0.595055 0.451573 0
M  V30 1261 H 124.763 1.87355 0.53704 0
M  V30 1262 H 123.859 2.42846 1.96042 0
M  V30 1263 N 124.16 -0.719506 1.40217 0
M  V30 1264 C 125.406 -1.48152 1.38488 0
M  V30 1265 C 125.739 -1.94195 -0.0141867 0
M  V30 1266 O 125.014 -1.67884 -0.982096 0
M  V30 1267 C 125.297 -2.71035 2.37091 0
M  V30 1268 C 125.15 -2.30912 3.86005 0
M  V30 1269 C 126.469 -3.73182 2.33288 0
M  V30 1270 H 123.588 -0.537395 0.504357 0
M  V30 1271 H 126.23 -0.821472 1.71324 0
M  V30 1272 H 124.38 -3.27352 2.0922 0
M  V30 1273 H 126.052 -1.80107 4.24687 0
M  V30 1274 H 124.295 -1.62958 4.02029 0
M  V30 1275 H 124.966 -3.18978 4.50508 0
M  V30 1276 H 127.442 -3.26485 2.57966 0
M  V30 1277 H 126.318 -4.56806 3.04334 0
M  V30 1278 H 126.579 -4.21202 1.34317 0
M  V30 1279 N 125.638 -1.25649 -0.95132 0
M  V30 1280 C 126.866 -1.13343 -1.73092 0
M  V30 1281 C 127.281 0.312434 -1.86197 0
M  V30 1282 O 126.638 1.21465 -1.36207 0
M  V30 1283 C 126.689 -1.78602 -3.14299 0
M  V30 1284 O 126.41 -3.17537 -3.01831 0
M  V30 1285 C 127.911 -1.72119 -4.08522 0
M  V30 1286 H 125.131 -0.395181 -0.542285 0
M  V30 1287 H 127.675 -1.66076 -1.19328 0
M  V30 1288 H 125.83 -1.29832 -3.64996 0
M  V30 1289 H 126.244 -3.49676 -3.90931 0
M  V30 1290 H 127.718 -2.22435 -5.052 0
M  V30 1291 H 128.195 -0.685635 -4.33815 0
M  V30 1292 H 128.801 -2.20393 -3.63741 0
M  V30 1293 N 127.117 1.15442 -1.07289 0
M  V30 1294 C 128.533 1.38201 -0.798288 0
M  V30 1295 C 128.733 1.92429 0.597769 0
M  V30 1296 O 127.789 2.12962 1.3566 0
M  V30 1297 C 129.102 2.35357 -1.87156 0
M  V30 1298 C 130.65 2.49021 -1.89624 0
M  V30 1299 C 131.125 3.49468 -2.96034 0
M  V30 1300 N 132.616 3.57003 -2.95132 0
M  V30 1301 C 133.351 4.34543 -3.74112 0
M  V30 1302 N 132.847 5.15421 -4.6294 0
M  V30 1303 N 134.64 4.29625 -3.62462 0
M  V30 1304 H 126.791 0.78584 -1.97328 0
M  V30 1305 H 129.054 0.408065 -0.855679 0
M  V30 1306 H 128.76 2.02626 -2.87464 0
M  V30 1307 H 128.634 3.35129 -1.73114 0
M  V30 1308 H 131.021 2.81051 -0.899687 0
M  V30 1309 H 131.102 1.4925 -2.07745 0
M  V30 1310 H 130.746 3.18173 -3.95889 0
M  V30 1311 H 130.676 4.48992 -2.75161 0
M  V30 1312 H 133.167 2.99276 -2.30743 0
M  V30 1313 H 133.48 5.7183 -5.19837 0
M  V30 1314 H 131.825 5.14729 -4.66989 0
M  V30 1315 H 135.016 3.65505 -2.92444 0
M  V30 1316 H 135.189 4.89807 -4.24256 0
M  V30 1317 N 128.595 0.856903 1.32268 0
M  V30 1318 C 129.558 0.308171 2.27119 0
M  V30 1319 C 130.558 -0.533421 1.51695 0
M  V30 1320 O 131.748 -0.344607 1.70757 0
M  V30 1321 C 128.88 -0.563757 3.36206 0
M  V30 1322 H 130.073 1.14535 2.77167 0
M  V30 1323 H 127.626 0.631421 1.42978 0
M  V30 1324 H 128.361 -1.42266 2.91429 0
M  V30 1325 H 128.146 0.0386749 3.92081 0
M  V30 1326 H 129.636 -0.940386 4.06874 0
M  V30 1327 N 130.073 -1.45103 0.615059 0
M  V30 1328 C 131.489 -1.57137 0.279322 0
M  V30 1329 C 131.689 -1.60523 -1.21797 0
M  V30 1330 O 130.745 -1.53956 -2.00134 0
M  V30 1331 C 132.058 -2.85062 0.957083 0
M  V30 1332 C 133.606 -2.98749 0.933706 0
M  V30 1333 C 134.081 -4.29455 1.59162 0
M  V30 1334 N 135.572 -4.36231 1.55746 0
M  V30 1335 C 136.307 -5.36051 2.0356 0
M  V30 1336 N 135.803 -6.42367 2.59494 0
M  V30 1337 N 137.596 -5.27456 1.94284 0
M  V30 1338 H 129.747 -1.41148 1.58717 0
M  V30 1339 H 132.01 -0.675331 0.665306 0
M  V30 1340 H 131.716 -2.88488 2.01166 0
M  V30 1341 H 131.59 -3.7407 0.48494 0
M  V30 1342 H 133.977 -2.94886 -0.112347 0
M  V30 1343 H 134.058 -2.11132 1.44419 0
M  V30 1344 H 133.702 -4.34077 2.63704 0
M  V30 1345 H 133.632 -5.15901 1.0561 0
M  V30 1346 H 136.123 -3.60011 1.14893 0
M  V30 1347 H 136.436 -7.14793 2.93752 0
M  V30 1348 H 134.781 -6.43097 2.63537 0
M  V30 1349 H 137.972 -4.43308 1.5032 0
M  V30 1350 H 138.145 -6.05099 2.3186 0
M  V30 1351 N 131.551 -0.354651 -1.53558 0
M  V30 1352 C 132.481 0.489091 -2.2832 0
M  V30 1353 C 133.462 1.09324 -1.30316 0
M  V30 1354 O 134.647 1.11255 -1.59173 0
M  V30 1355 C 131.777 1.63456 -3.0643 0
M  V30 1356 C 130.731 1.1582 -4.12031 0
M  V30 1357 C 130.057 2.39305 -4.7816 0
M  V30 1358 C 131.357 0.250731 -5.21698 0
M  V30 1359 H 133.051 -0.134614 -2.99097 0
M  V30 1360 H 130.597 -0.0661826 -1.43848 0
M  V30 1361 H 132.55 2.23136 -3.57475 0
M  V30 1362 H 131.274 2.28533 -2.33325 0
M  V30 1363 H 129.933 0.584146 -3.61916 0
M  V30 1364 H 129.581 3.02814 -4.01637 0
M  V30 1365 H 129.281 2.08109 -5.49513 0
M  V30 1366 H 130.805 2.99691 -5.31994 0
M  V30 1367 H 132.219 0.754695 -5.68311 0
M  V30 1368 H 130.616 0.0301468 -6.00092 0
M  V30 1369 H 131.686 -0.710125 -4.79672 0
M  V30 1370 N 133.029 1.57378 -0.0835403 0
M  V30 1371 C 134.44 1.81261 0.447358 0
M  V30 1372 C 134.791 0.998331 1.68902 0
M  V30 1373 O 133.916 0.224282 2.15235 0
M  V30 1374 C 134.511 3.28767 0.818386 0
M  V30 1375 C 133.07 3.53455 1.29409 0
M  V30 1376 C 132.217 2.75831 0.285024 0
M  V30 1377 H 135.168 1.5566 -0.309115 0
M  V30 1378 H 135.189 3.41459 1.67887 0
M  V30 1379 H 134.701 3.88006 -0.0855019 0
M  V30 1380 H 132.802 2.99534 2.21608 0
M  V30 1381 H 132.915 4.62128 1.2639 0
M  V30 1382 H 131.279 2.42947 0.764767 0
M  V30 1383 H 132.062 3.37813 -0.611341 0
M  V30 1384 N 134.507 -0.190092 1.56449 0
M  V30 1385 C 135.47 -1.21925 1.9408 0
M  V30 1386 C 136.47 -1.38176 0.822431 0
M  V30 1387 O 137.66 -1.35903 1.08977 0
M  V30 1388 C 134.792 -2.58773 2.21922 0
M  V30 1389 H 135.985 -0.897464 2.86157 0
M  V30 1390 H 133.538 -0.43181 1.50217 0
M  V30 1391 H 134.273 -2.95998 1.32499 0
M  V30 1392 H 134.058 -2.48348 3.03424 0
M  V30 1393 H 135.548 -3.32978 2.52022 0
M  V30 1394 N 135.985 -1.50799 -0.457987 0
M  V30 1395 C 137.233 -1.62121 -1.2067 0
M  V30 1396 C 137.554 -0.329793 -1.92191 0
M  V30 1397 O 136.824 0.653409 -1.84682 0
M  V30 1398 H 135.404 -0.597441 -0.448411 0
M  V30 1399 H 138.066 -1.87637 -0.527096 0
M  V30 1400 H 137.162 -2.43882 -1.94751 0
M  V30 1401 N 137.463 0.71206 -1.40597 0
M  V30 1402 C 138.411 1.84746 -1.41321 0
M  V30 1403 C 139.405 1.66842 -0.293268 0
M  V30 1404 O 140.611 1.73904 -0.464481 0
M  V30 1405 H 136.986 0.608522 -0.441819 0
M  V30 1406 H 138.957 1.81252 -2.37045 0
M  V30 1407 C 137.706 3.22638 -1.29614 0
M  V30 1408 H 137.029 3.37023 -2.15071 0
M  V30 1409 H 138.469 4.02209 -1.3418 0
M  V30 1410 C 136.928 3.36899 -0.00673121 0
M  V30 1411 O 137.458 3.90186 0.954859 0
M  V30 1412 N 135.664 2.9053 0.0639327 0
M  V30 1413 H 135.211 2.47353 -0.719311 0
M  V30 1414 H 135.169 3.0045 0.926118 0
M  V30 1415 N 138.941 1.26152 0.944643 0
M  V30 1416 C 139.851 1.09176 2.07648 0
M  V30 1417 C 140.867 0.0261935 1.7398 0
M  V30 1418 O 142.043 0.229208 2.00091 0
M  V30 1419 C 139.108 0.722915 3.39079 0
M  V30 1420 C 138.169 1.86752 3.86552 0
M  V30 1421 C 137.402 1.51617 5.11711 0
M  V30 1422 O 137.625 0.416331 5.68879 0
M  V30 1423 O 136.559 2.34975 5.54139 0
M  V30 1424 H 140.385 2.0412 2.24875 0
M  V30 1425 H 137.97 1.05182 1.061 0
M  V30 1426 H 139.852 0.529787 4.18056 0
M  V30 1427 H 138.527 -0.197159 3.23099 0
M  V30 1428 H 137.434 2.11558 3.08535 0
M  V30 1429 H 138.767 2.76719 4.07047 0
M  V30 1430 N 140.419 -1.14872 1.07899 0
M  V30 1431 C 141.665 -1.86064 0.806725 0
M  V30 1432 C 141.998 -1.82434 -0.665706 0
M  V30 1433 O 141.273 -1.25138 -1.48899 0
M  V30 1434 C 141.556 -3.34929 1.32267 0
M  V30 1435 C 141.409 -3.47161 2.86006 0
M  V30 1436 C 142.728 -4.29863 0.943717 0
M  V30 1437 H 139.847 -0.675591 0.294526 0
M  V30 1438 H 142.489 -1.34925 1.33773 0
M  V30 1439 H 140.639 -3.78611 0.870974 0
M  V30 1440 H 142.311 -3.12302 3.39507 0
M  V30 1441 H 140.554 -2.88539 3.23925 0
M  V30 1442 H 141.225 -4.51777 3.17177 0
M  V30 1443 H 143.701 -3.9417 1.33302 0
M  V30 1444 H 142.577 -5.32494 1.33198 0
M  V30 1445 H 142.838 -4.41846 -0.149796 0
M  V30 1446 N 141.898 -0.863906 -1.31812 0
M  V30 1447 C 143.147 -0.46801 -1.96195 0
M  V30 1448 C 143.46 0.983474 -1.69077 0
M  V30 1449 O 144.666 1.48523 -2.27273 0
M  V30 1450 C 143.122 -0.785995 -3.51212 0
M  V30 1451 C 142.73 -2.25383 -3.87178 0
M  V30 1452 C 144.474 -0.458274 -4.22019 0
M  V30 1453 C 142.381 -2.51455 -5.3528 0
M  V30 1454 H 141.311 -0.171283 -0.734287 0
M  V30 1455 H 143.962 -1.05597 -1.50072 0
M  V30 1456 H 142.344 -0.127359 -3.95795 0
M  V30 1457 H 143.518 -2.95502 -3.53575 0
M  V30 1458 H 141.833 -2.54698 -3.2942 0
M  V30 1459 H 144.43 -0.630369 -5.30971 0
M  V30 1460 H 144.773 0.600834 -4.11941 0
M  V30 1461 H 145.306 -1.07319 -3.8305 0
M  V30 1462 H 142.045 -3.56025 -5.50387 0
M  V30 1463 H 141.565 -1.85923 -5.70257 0
M  V30 1464 H 143.244 -2.35874 -6.02472 0
M  V30 1465 N 143.376 1.44774 -0.622745 0
M  V30 1466 C 144.616 2.04004 -0.127102 0
M  V30 1467 C 144.98 1.47862 1.22478 0
M  V30 1468 O 146.181 1.98541 1.81204 0
M  V30 1469 C 144.452 3.57247 -0.104429 0
M  V30 1470 S 146.011 4.37574 0.327814 0
M  V30 1471 H 142.829 0.708713 -0.0569776 0
M  V30 1472 H 145.431 1.77275 -0.824253 0
M  V30 1473 H 144.135 3.95616 -1.09159 0
M  V30 1474 H 143.666 3.88575 0.614236 0
M  V30 1475 H 145.681 4.70575 1.57395 0
M  V30 1476 N 144.854 0.36279 1.53368 0
M  V30 1477 C 146.082 -0.228613 2.05633 0
M  V30 1478 C 146.497 -1.42676 1.23649 0
M  V30 1479 O 145.854 -1.80394 0.27647 0
M  V30 1480 C 145.905 -0.624845 3.56059 0
M  V30 1481 O 145.626 0.525675 4.34935 0
M  V30 1482 C 147.127 -1.27493 4.24571 0
M  V30 1483 H 144.347 -0.0407183 0.669763 0
M  V30 1484 H 146.891 0.520352 1.97769 0
M  V30 1485 H 145.046 -1.32373 3.64083 0
M  V30 1486 H 145.46 0.205969 5.24095 0
M  V30 1487 H 146.934 -1.50277 5.31151 0
M  V30 1488 H 147.411 -2.23439 3.78116 0
M  V30 1489 H 148.017 -0.617558 4.20792 0
M  V30 1490 N 146.332 -1.57332 0.0918853 0
M  V30 1491 C 147.262 -2.16872 -0.865371 0
M  V30 1492 C 148.243 -1.10118 -1.29646 0
M  V30 1493 O 149.428 -1.38242 -1.36392 0
M  V30 1494 C 146.558 -2.74649 -2.12569 0
M  V30 1495 C 145.512 -3.86747 -1.83333 0
M  V30 1496 C 144.838 -4.31212 -3.16166 0
M  V30 1497 C 146.138 -5.10089 -1.1228 0
M  V30 1498 H 147.832 -2.97114 -0.369307 0
M  V30 1499 H 145.378 -1.42918 -0.176194 0
M  V30 1500 H 147.331 -3.14952 -2.7997 0
M  V30 1501 H 146.055 -1.91657 -2.64452 0
M  V30 1502 H 144.714 -3.46978 -1.18331 0
M  V30 1503 H 144.362 -3.45115 -3.6593 0
M  V30 1504 H 144.062 -5.06788 -2.97388 0
M  V30 1505 H 145.586 -4.74146 -3.84731 0
M  V30 1506 H 147 -5.47582 -1.69785 0
M  V30 1507 H 145.397 -5.91073 -1.03693 0
M  V30 1508 H 146.467 -4.84786 -0.105041 0
M  V30 1509 N 147.81 0.181792 -1.56548 0
M  V30 1510 C 149.226 0.53316 -1.50431 0
M  V30 1511 C 149.426 1.85184 -0.794297 0
M  V30 1512 O 148.482 2.50058 -0.350318 0
M  V30 1513 C 149.795 0.575597 -2.9514 0
M  V30 1514 C 151.343 0.663519 -3.05886 0
M  V30 1515 C 151.818 0.736946 -4.52032 0
M  V30 1516 N 153.309 0.800118 -4.56237 0
M  V30 1517 C 154.044 0.877327 -5.66649 0
M  V30 1518 N 153.54 0.916016 -6.86718 0
M  V30 1519 N 155.333 0.915542 -5.54594 0
M  V30 1520 H 147.484 -0.683025 -2.01118 0
M  V30 1521 H 149.747 -0.244988 -0.915797 0
M  V30 1522 H 149.453 -0.324482 -3.502 0
M  V30 1523 H 149.327 1.42572 -3.49218 0
M  V30 1524 H 151.714 1.55403 -2.50867 0
M  V30 1525 H 151.795 -0.21307 -2.54911 0
M  V30 1526 H 151.439 -0.149262 -5.07681 0
M  V30 1527 H 151.369 1.62953 -5.00753 0
M  V30 1528 H 153.86 0.778926 -3.69785 0
M  V30 1529 H 154.173 0.975813 -7.66614 0
M  V30 1530 H 152.518 0.884469 -6.89349 0
M  V30 1531 H 155.709 0.882245 -4.59711 0
M  V30 1532 H 155.882 0.972253 -6.40665 0
M  V30 1533 N 149.288 1.51039 0.449983 0
M  V30 1534 C 150.565 1.53612 1.21089 0
M  V30 1535 C 150.945 0.292997 2.09057 0
M  V30 1536 O 150.293 -0.72259 2.16774 0
M  V30 1537 C 150.503 2.84337 2.0237 0
M  V30 1538 C 151.851 3.35807 2.59843 0
M  V30 1539 O 152.875 2.85802 2.12593 0
M  V30 1540 O 151.734 4.23029 3.45989 0
M  V30 1541 H 148.828 0.617057 0.550608 0
M  V30 1542 H 151.374 1.63344 0.460082 0
M  V30 1543 H 150.146 3.66278 1.37681 0
M  V30 1544 H 149.769 2.77708 2.84542 0
M  V30 1545 N 150.766 -0.704594 1.40972 0
M  V30 1546 C 152.177 -1.28418 1.3552 0
M  V30 1547 C 152.528 -1.96171 0.0339434 0
M  V30 1548 O 151.653 -1.98231 -0.867944 0
M  V30 1549 C 152.248 -2.33528 2.45459 0
M  V30 1550 C 150.807 -2.87085 2.43433 0
M  V30 1551 C 149.954 -1.61007 2.2577 0
M  V30 1552 H 152.905 -0.499963 1.50619 0
M  V30 1553 H 152.926 -3.14619 2.13998 0
M  V30 1554 H 152.438 -1.84187 3.41609 0
M  V30 1555 H 150.539 -3.40626 1.51013 0
M  V30 1556 H 150.652 -3.3813 3.39419 0
M  V30 1557 H 149.016 -1.86482 1.73483 0
M  V30 1558 H 149.799 -1.13675 3.23933 0
M  V30 1559 N 152.244 -1.26651 -0.937939 0
M  V30 1560 C 153.66 -1.03834 -1.21205 0
M  V30 1561 C 153.86 0.234502 -2.00131 0
M  V30 1562 O 152.916 0.942767 -2.3424 0
M  V30 1563 C 154.229 -2.27167 -1.97017 0
M  V30 1564 C 155.777 -2.32101 -2.09996 0
M  V30 1565 C 156.252 -3.55136 -2.8921 0
M  V30 1566 N 157.743 -3.55632 -2.96783 0
M  V30 1567 C 158.478 -4.475 -3.58512 0
M  V30 1568 N 157.974 -5.4966 -4.21717 0
M  V30 1569 N 159.767 -4.35145 -3.55816 0
M  V30 1570 H 151.918 -2.08398 -0.410391 0
M  V30 1571 H 154.181 -0.916031 -0.244114 0
M  V30 1572 H 153.887 -3.19765 -1.46434 0
M  V30 1573 H 153.761 -2.31672 -2.97671 0
M  V30 1574 H 156.148 -1.40015 -2.59769 0
M  V30 1575 H 156.229 -2.31605 -1.08594 0
M  V30 1576 H 155.873 -4.47553 -2.40123 0
M  V30 1577 H 155.803 -3.5288 -3.90875 0
M  V30 1578 H 158.294 -2.81743 -2.51852 0
M  V30 1579 H 158.607 -6.15943 -4.66727 0
M  V30 1580 H 156.952 -5.53514 -4.20294 0
M  V30 1581 H 160.143 -3.5455 -3.05634 0
M  V30 1582 H 160.316 -5.06934 -4.03636 0
M  V30 1583 N 153.722 1.14298 -1.08507 0
M  V30 1584 C 154.95 1.89219 -0.836876 0
M  V30 1585 C 155.365 1.78638 0.611054 0
M  V30 1586 O 154.722 1.14643 1.41998 0
M  V30 1587 C 154.773 3.39158 -1.25116 0
M  V30 1588 O 154.494 3.49449 -2.64229 0
M  V30 1589 C 155.995 4.31073 -1.03398 0
M  V30 1590 H 153.215 0.599328 -0.301739 0
M  V30 1591 H 155.759 1.44746 -1.44461 0
M  V30 1592 H 153.914 3.81251 -0.687514 0
M  V30 1593 H 154.328 4.42589 -2.81452 0
M  V30 1594 H 155.802 5.34646 -1.37323 0
M  V30 1595 H 156.279 4.3919 0.0289259 0
M  V30 1596 H 156.885 3.94738 -1.58311 0
M  V30 1597 N 155.201 0.870884 1.31352 0
M  V30 1598 C 156.612 0.534714 1.78879 0
M  V30 1599 C 156.963 -0.948423 1.71754 0
M  V30 1600 O 156.088 -1.74055 1.28584 0
M  V30 1601 C 156.683 0.963839 3.24801 0
M  V30 1602 C 155.242 0.679311 3.70219 0
M  V30 1603 C 154.389 1.15465 2.52117 0
M  V30 1604 H 157.34 1.05651 1.18421 0
M  V30 1605 H 157.361 0.286892 3.79417 0
M  V30 1606 H 156.873 2.04332 3.29955 0
M  V30 1607 H 154.974 -0.388769 3.70566 0
M  V30 1608 H 155.087 1.25698 4.62317 0
M  V30 1609 H 153.451 0.574383 2.48139 0
M  V30 1610 H 154.234 2.24157 2.60016 0
M  V30 1611 N 156.679 -1.44442 0.630414 0
M  V30 1612 C 157.642 -2.29107 -0.0652523 0
M  V30 1613 C 158.642 -1.41002 -0.772995 0
M  V30 1614 O 159.832 -1.62881 -0.617692 0
M  V30 1615 C 156.964 -3.22564 -1.10296 0
M  V30 1616 H 158.157 -2.92103 0.679401 0
M  V30 1617 H 155.71 -1.51343 0.390517 0
M  V30 1618 H 156.445 -2.64416 -1.87762 0
M  V30 1619 H 156.23 -3.87491 -0.59941 0
M  V30 1620 H 157.72 -3.86167 -1.5895 0
M  V30 1621 N 158.157 -0.370918 -1.53173 0
M  V30 1622 C 159.087 0.464847 -2.28826 0
M  V30 1623 C 160.068 1.07936 -1.31468 0
M  V30 1624 O 161.253 1.0956 -1.60344 0
M  V30 1625 C 158.383 1.60196 -3.08147 0
M  V30 1626 C 157.337 1.11443 -4.13237 0
M  V30 1627 C 156.663 2.3422 -4.80672 0
M  V30 1628 C 157.963 0.195384 -5.21934 0
M  V30 1629 H 159.657 -0.166329 -2.98938 0
M  V30 1630 H 157.203 -0.0814359 -1.4377 0
M  V30 1631 H 159.156 2.19332 -3.59822 0
M  V30 1632 H 157.88 2.26045 -2.35735 0
M  V30 1633 H 156.539 0.545727 -3.62515 0
M  V30 1634 H 156.187 2.98537 -4.04827 0
M  V30 1635 H 155.887 2.02269 -5.51689 0
M  V30 1636 H 157.411 2.94032 -5.35143 0
M  V30 1637 H 158.825 0.694375 -5.69079 0
M  V30 1638 H 157.222 -0.0335027 -6.00091 0
M  V30 1639 H 158.292 -0.760961 -4.78892 0
M  V30 1640 N 159.635 1.57281 -0.100228 0
M  V30 1641 C 160.598 2.13158 0.842398 0
M  V30 1642 C 161.598 1.06202 1.20738 0
M  V30 1643 O 162.788 1.32066 1.13597 0
M  V30 1644 C 159.92 2.65639 2.13655 0
M  V30 1645 H 161.113 2.97766 0.357114 0
M  V30 1646 H 158.666 1.5559 0.148823 0
M  V30 1647 H 159.401 1.84566 2.66657 0
M  V30 1648 H 159.186 3.43844 1.88451 0
M  V30 1649 H 160.676 3.08846 2.81077 0
M  V30 1650 N 161.113 -0.173488 1.56642 0
M  V30 1651 C 162.076 -1.19859 1.95362 0
M  V30 1652 C 163.076 -1.37296 0.83704 0
M  V30 1653 O 164.266 -1.34739 1.10413 0
M  V30 1654 C 161.398 -2.56405 2.24654 0
M  V30 1655 H 162.591 -0.867062 2.87092 0
M  V30 1656 H 160.144 -0.415853 1.50666 0
M  V30 1657 H 160.879 -2.94576 1.35631 0
M  V30 1658 H 160.664 -2.45115 3.06041 0
M  V30 1659 H 162.154 -3.30287 2.5554 0
M  V30 1660 N 162.591 -1.51276 -0.441967 0
M  V30 1661 C 163.501 -1.75092 -1.56141 0
M  V30 1662 C 164.517 -0.634963 -1.62001 0
M  V30 1663 O 165.693 -0.916686 -1.79329 0
M  V30 1664 C 162.758 -1.86666 -2.92158 0
M  V30 1665 C 161.819 -3.10506 -2.96453 0
M  V30 1666 C 161.052 -3.21519 -4.25982 0
M  V30 1667 O 161.275 -2.38586 -5.18105 0
M  V30 1668 O 160.209 -4.14465 -4.36466 0
M  V30 1669 H 164.035 -2.70044 -1.38961 0
M  V30 1670 H 161.62 -1.35722 -0.624499 0
M  V30 1671 H 163.502 -1.96292 -3.72891 0
M  V30 1672 H 162.177 -0.949014 -3.09476 0
M  V30 1673 H 161.084 -3.06363 -2.14692 0
M  V30 1674 H 162.417 -4.01945 -2.84079 0
M  V30 1675 N 164.069 0.697108 -1.41344 0
M  V30 1676 C 165.318 1.45279 -1.39918 0
M  V30 1677 C 165.631 1.95597 -0.0109624 0
M  V30 1678 O 166.837 2.71208 0.125919 0
M  V30 1679 C 165.293 2.62695 -2.46007 0
M  V30 1680 C 164.901 2.19169 -3.90729 0
M  V30 1681 C 166.645 3.40336 -2.53715 0
M  V30 1682 C 164.552 3.33535 -4.88373 0
M  V30 1683 H 163.482 0.545692 -0.520323 0
M  V30 1684 H 166.133 0.756929 -1.67161 0
M  V30 1685 H 164.515 3.34541 -2.11892 0
M  V30 1686 H 165.689 1.54623 -4.34083 0
M  V30 1687 H 164.004 1.54525 -3.86666 0
M  V30 1688 H 166.601 4.2547 -3.2385 0
M  V30 1689 H 166.944 3.85418 -1.5735 0
M  V30 1690 H 167.477 2.75546 -2.86913 0
M  V30 1691 H 164.216 2.93468 -5.86137 0
M  V30 1692 H 163.736 3.96936 -4.49668 0
M  V30 1693 H 165.415 3.99335 -5.09059 0
M  V30 1694 N 165.547 1.27147 0.931209 0
M  V30 1695 C 166.795 1.13055 1.6752 0
M  V30 1696 C 167.116 -0.324791 1.92276 0
M  V30 1697 O 166.386 -1.22775 1.52654 0
M  V30 1698 H 164.966 0.415391 0.620854 0
M  V30 1699 H 167.628 1.59623 1.11833 0
M  V30 1700 H 166.724 1.65694 2.64485 0
M  V30 1701 N 167.025 -1.13721 1.09112 0
M  V30 1702 C 167.973 -2.21103 0.722219 0
M  V30 1703 C 168.967 -1.67147 -0.275374 0
M  V30 1704 O 170.173 -1.79477 -0.137176 0
M  V30 1705 H 166.548 -0.720445 0.215553 0
M  V30 1706 H 168.519 -2.49483 1.63709 0
M  V30 1707 C 167.268 -3.47352 0.15543 0
M  V30 1708 H 166.591 -3.89206 0.914246 0
M  V30 1709 H 168.031 -4.2395 -0.0647967 0
M  V30 1710 C 166.49 -3.1814 -1.10852 0
M  V30 1711 O 167.02 -3.36604 -2.19227 0
M  V30 1712 N 165.226 -2.72045 -1.02176 0
M  V30 1713 H 164.773 -2.57221 -0.139764 0
M  V30 1714 H 164.731 -2.52875 -1.8682 0
M  V30 1715 N 168.503 -0.877838 -1.30888 0
M  V30 1716 C 169.731 -0.507414 -2.00581 0
M  V30 1717 C 170.146 0.902216 -1.65848 0
M  V30 1718 O 169.503 1.59225 -0.891831 0
M  V30 1719 C 169.554 -0.664162 -3.55347 0
M  V30 1720 O 169.275 -2.01829 -3.8884 0
M  V30 1721 C 170.776 -0.295787 -4.42312 0
M  V30 1722 H 167.996 -0.196866 -0.641471 0
M  V30 1723 H 170.54 -1.18117 -1.66939 0
M  V30 1724 H 168.695 -0.0378619 -3.87381 0
M  V30 1725 H 169.109 -2.03174 -4.8355 0
M  V30 1726 H 170.583 -0.456388 -5.5011 0
M  V30 1727 H 171.06 0.765663 -4.32475 0
M  V30 1728 H 171.666 -0.898113 -4.15709 0
M  V30 1729 N 169.982 1.44106 -0.638065 0
M  V30 1730 C 171.398 1.56672 -0.304286 0
M  V30 1731 C 171.598 1.6244 1.19228 0
M  V30 1732 O 170.654 1.57121 1.9766 0
M  V30 1733 C 171.967 2.83503 -1.00231 0
M  V30 1734 C 173.515 2.97226 -0.981116 0
M  V30 1735 C 173.99 4.26868 -1.65974 0
M  V30 1736 N 175.481 4.33698 -1.62666 0
M  V30 1737 C 176.216 5.32745 -2.12063 0
M  V30 1738 N 175.712 6.38157 -2.6968 0
M  V30 1739 N 177.505 5.24299 -2.02651 0
M  V30 1740 H 169.656 1.38605 -1.60942 0
M  V30 1741 H 171.919 0.664661 -0.675965 0
M  V30 1742 H 171.625 2.85251 -2.0573 0
M  V30 1743 H 171.499 3.73251 -0.54439 0
M  V30 1744 H 173.886 2.95027 0.0654188 0
M  V30 1745 H 173.967 2.08808 -1.47759 0
M  V30 1746 H 173.611 4.29826 -2.70576 0
M  V30 1747 H 173.541 5.14156 -1.13804 0
M  V30 1748 H 176.032 3.58138 -1.20606 0
M  V30 1749 H 176.345 7.10029 -3.05087 0
M  V30 1750 H 174.69 6.38823 -2.73734 0
M  V30 1751 H 177.881 4.4086 -1.57353 0
M  V30 1752 H 178.054 6.01334 -2.41457 0
M  V30 1753 N 171.46 0.379036 1.52974 0
M  V30 1754 C 172.685 -0.209353 2.06341 0
M  V30 1755 C 173.11 -1.40583 1.24972 0
M  V30 1756 O 172.468 -1.79246 0.272155 0
M  V30 1757 C 172.516 -0.567786 3.56102 0
M  V30 1758 O 171.62 -1.66318 3.77375 0
M  V30 1759 H 170.961 -0.0272919 0.663439 0
M  V30 1760 H 173.491 0.543536 1.97248 0
M  V30 1761 H 173.501 -0.835003 3.99364 0
M  V30 1762 H 172.176 0.307013 4.14765 0
M  V30 1763 H 170.753 -1.39048 3.46006 0
M  V30 1764 N 172.938 -1.57226 0.108567 0
M  V30 1765 C 173.901 -2.13602 -0.831082 0
M  V30 1766 C 174.901 -1.06841 -1.20173 0
M  V30 1767 O 176.091 -1.32666 -1.12895 0
M  V30 1768 C 173.223 -2.66769 -2.12243 0
M  V30 1769 H 174.416 -2.97951 -0.341317 0
M  V30 1770 H 171.969 -1.55667 -0.14057 0
M  V30 1771 H 172.704 -1.85977 -2.65675 0
M  V30 1772 H 172.489 -3.44839 -1.86625 0
M  V30 1773 H 173.979 -3.10332 -2.79435 0
M  V30 1774 N 174.416 0.165178 -1.56732 0
M  V30 1775 C 175.379 1.18822 -1.95995 0
M  V30 1776 C 176.379 1.3685 -0.84431 0
M  V30 1777 O 177.569 1.34152 -1.11126 0
M  V30 1778 C 174.701 2.5521 -2.26011 0
M  V30 1779 H 175.894 0.851825 -2.87548 0
M  V30 1780 H 173.447 0.407857 -1.50885 0
M  V30 1781 H 174.182 2.93852 -1.37191 0
M  V30 1782 H 173.967 2.43489 -3.07336 0
M  V30 1783 H 175.457 3.28927 -2.57288 0
M  V30 1784 N 175.894 1.51508 0.433938 0
M  V30 1785 C 176.857 1.72473 1.50949 0
M  V30 1786 C 177.857 0.594725 1.49398 0
M  V30 1787 O 179.047 0.862315 1.5136 0
M  V30 1788 C 176.179 1.78431 2.90474 0
M  V30 1789 H 177.372 2.68467 1.33662 0
M  V30 1790 H 174.925 1.41549 0.662836 0
M  V30 1791 H 175.66 0.842645 3.13161 0
M  V30 1792 H 175.445 2.60558 2.93005 0
M  V30 1793 H 176.935 1.96479 3.68491 0
M  V30 1794 N 177.372 -0.689602 1.41712 0
M  V30 1795 C 178.302 -1.81577 1.46806 0
M  V30 1796 C 179.283 -1.66945 0.326105 0
M  V30 1797 O 180.468 -1.86588 0.538377 0
M  V30 1798 C 177.598 -3.19762 1.35535 0
M  V30 1799 C 176.552 -3.49107 2.47605 0
M  V30 1800 C 175.878 -4.86711 2.21397 0
M  V30 1801 C 177.178 -3.47483 3.89939 0
M  V30 1802 H 178.872 -1.7757 2.41058 0
M  V30 1803 H 176.418 -0.852887 1.16025 0
M  V30 1804 H 178.371 -3.98263 1.3771 0
M  V30 1805 H 177.095 -3.24409 0.377708 0
M  V30 1806 H 175.754 -2.72959 2.44722 0
M  V30 1807 H 175.402 -4.8799 1.21961 0
M  V30 1808 H 175.102 -5.0731 2.96497 0
M  V30 1809 H 176.626 -5.67515 2.25297 0
M  V30 1810 H 178.04 -4.1598 3.94505 0
M  V30 1811 H 176.437 -3.79615 4.64771 0
M  V30 1812 H 177.507 -2.46341 4.17665 0
M  V30 1813 N 178.85 -1.27639 -0.924453 0
M  V30 1814 C 179.797 -1.10644 -2.0255 0
M  V30 1815 C 180.767 -0.00658438 -1.66099 0
M  V30 1816 O 181.952 -0.16952 -1.90045 0
M  V30 1817 C 179.092 -0.76309 -3.36557 0
M  V30 1818 C 178.205 -1.94091 -3.85944 0
M  V30 1819 C 177.34 -1.53914 -5.08413 0
M  V30 1820 C 176.379 -2.68425 -5.50104 0
M  V30 1821 N 175.516 -2.28815 -6.63768 0
M  V30 1822 H 180.356 -2.04858 -2.16419 0
M  V30 1823 H 177.893 -1.01974 -1.06017 0
M  V30 1824 H 179.851 -0.544822 -4.13627 0
M  V30 1825 H 178.481 0.142102 -3.22487 0
M  V30 1826 H 177.533 -2.27162 -3.05125 0
M  V30 1827 H 178.845 -2.7998 -4.12811 0
M  V30 1828 H 177.999 -1.28231 -5.92994 0
M  V30 1829 H 176.738 -0.651391 -4.8333 0
M  V30 1830 H 175.743 -2.94819 -4.64071 0
M  V30 1831 H 176.968 -3.57826 -5.7718 0
M  V30 1832 H 174.914 -1.42495 -6.40337 0
M  V30 1833 H 174.831 -3.08242 -6.90306 0
M  V30 1834 H 176.099 -2.06387 -7.51681 0
M  V30 1835 N 180.328 1.1314 -1.09713 0
M  V30 1836 C 181.258 2.20748 -0.761102 0
M  V30 1837 C 182.239 1.68061 0.262566 0
M  V30 1838 O 183.424 1.93765 0.129977 0
M  V30 1839 C 180.554 3.46812 -0.184054 0
M  V30 1840 C 179.508 4.12606 -1.13757 0
M  V30 1841 C 178.834 5.33031 -0.422083 0
M  V30 1842 C 180.134 4.59603 -2.48118 0
M  V30 1843 H 181.828 2.49113 -1.66082 0
M  V30 1844 H 179.374 1.19734 -0.799987 0
M  V30 1845 H 181.327 4.21353 0.0631215 0
M  V30 1846 H 180.051 3.17851 0.750868 0
M  V30 1847 H 178.71 3.40036 -1.37007 0
M  V30 1848 H 178.358 5.00335 0.517072 0
M  V30 1849 H 178.058 5.77999 -1.05788 0
M  V30 1850 H 179.582 6.10325 -0.183277 0
M  V30 1851 H 180.996 5.25552 -2.29059 0
M  V30 1852 H 179.393 5.15321 -3.07514 0
M  V30 1853 H 180.463 3.73971 -3.08665 0
M  V30 1854 N 181.806 0.884767 1.30421 0
M  V30 1855 C 183.052 0.513218 1.96819 0
M  V30 1856 C 183.407 -0.927347 1.68577 0
M  V30 1857 O 182.7 -1.64644 0.979941 0
M  V30 1858 C 182.894 0.724318 3.49983 0
M  V30 1859 C 182.723 2.18385 3.93113 0
M  V30 1860 C 181.493 2.82839 4.18725 0
M  V30 1861 C 183.691 3.15763 4.05953 0
M  V30 1862 N 181.673 4.1939 4.48314 0
M  V30 1863 C 183.044 4.37387 4.39423 0
M  V30 1864 C 185.099 3.11555 3.88379 0
M  V30 1865 C 183.802 5.55343 4.5715 0
M  V30 1866 C 185.828 4.28782 4.07308 0
M  V30 1867 C 185.19 5.49172 4.41123 0
M  V30 1868 H 181.289 0.237123 0.745182 0
M  V30 1869 H 183.873 1.14246 1.57658 0
M  V30 1870 H 182.044 0.124565 3.882 0
M  V30 1871 H 183.776 0.31969 4.03435 0
M  V30 1872 H 180.531 2.33708 4.11919 0
M  V30 1873 H 180.955 4.89911 4.67243 0
M  V30 1874 H 185.597 2.19576 3.61312 0
M  V30 1875 H 183.315 6.47826 4.8306 0
M  V30 1876 H 186.901 4.26995 3.95179 0
M  V30 1877 H 185.781 6.38371 4.55469 0
M  V30 1878 N 183.284 -1.43765 0.645699 0
M  V30 1879 C 184.509 -2.06767 0.161883 0
M  V30 1880 C 184.934 -1.48034 -1.16049 0
M  V30 1881 O 184.292 -0.587369 -1.71522 0
M  V30 1882 C 184.34 -3.60519 0.0762003 0
M  V30 1883 O 183.444 -4.00982 -0.963721 0
M  V30 1884 H 182.785 -0.657675 0.091429 0
M  V30 1885 H 185.315 -1.84397 0.886499 0
M  V30 1886 H 185.325 -4.07853 -0.109604 0
M  V30 1887 H 184 -4.02646 1.04157 0
M  V30 1888 H 182.577 -3.65253 -0.751312 0
M  V30 1889 N 184.763 -0.387143 -1.52771 0
M  V30 1890 C 185.673 0.456442 -2.30117 0
M  V30 1891 C 186.689 1.07342 -1.36944 0
M  V30 1892 O 187.865 1.07971 -1.70013 0
M  V30 1893 C 184.93 1.56957 -3.09136 0
M  V30 1894 C 183.991 0.977916 -4.18014 0
M  V30 1895 C 183.224 2.038 -4.93256 0
M  V30 1896 O 183.447 3.25271 -4.68567 0
M  V30 1897 O 182.381 1.6565 -5.78657 0
M  V30 1898 H 186.207 -0.17359 -3.03203 0
M  V30 1899 H 183.792 -0.150919 -1.48636 0
M  V30 1900 H 185.674 2.21628 -3.58412 0
M  V30 1901 H 184.349 2.18461 -2.38865 0
M  V30 1902 H 183.256 0.294525 -3.72939 0
M  V30 1903 H 184.589 0.407128 -4.90513 0
M  V30 1904 N 186.241 1.57166 -0.116904 0
M  V30 1905 C 187.657 1.5779 0.239693 0
M  V30 1906 C 187.857 1.1295 1.66867 0
M  V30 1907 O 186.913 0.81592 2.38954 0
M  V30 1908 C 188.226 3.00699 0.00828202 0
M  V30 1909 C 189.774 3.12912 0.0743438 0
M  V30 1910 C 190.249 4.57817 -0.129348 0
M  V30 1911 N 191.74 4.63139 -0.075247 0
M  V30 1912 C 192.475 5.73023 -0.207788 0
M  V30 1913 N 191.971 6.91665 -0.396382 0
M  V30 1914 N 193.764 5.61906 -0.14751 0
M  V30 1915 H 185.915 1.84615 -1.05029 0
M  V30 1916 H 188.178 0.85311 -0.41341 0
M  V30 1917 H 187.884 3.37784 -0.979531 0
M  V30 1918 H 187.758 3.69848 0.741077 0
M  V30 1919 H 190.145 2.75686 1.05268 0
M  V30 1920 H 190.226 2.4631 -0.690297 0
M  V30 1921 H 189.87 4.95742 -1.10465 0
M  V30 1922 H 189.8 5.22507 0.655253 0
M  V30 1923 H 192.291 3.7784 0.0670898 0
M  V30 1924 H 192.604 7.71255 -0.488437 0
M  V30 1925 H 190.949 6.93654 -0.432329 0
M  V30 1926 H 194.14 4.681 -0.00115036 0
M  V30 1927 H 194.313 6.47501 -0.254247 0
M  V30 1928 N 187.719 -0.156864 1.56817 0
M  V30 1929 C 188.649 -1.19589 2.00551 0
M  V30 1930 C 189.63 -1.4536 0.883426 0
M  V30 1931 O 190.815 -1.56449 1.15054 0
M  V30 1932 C 187.945 -2.53143 2.37773 0
M  V30 1933 C 186.899 -2.41913 3.53075 0
M  V30 1934 C 186.225 -3.80088 3.76081 0
M  V30 1935 C 187.525 -1.91157 4.86062 0
M  V30 1936 H 189.219 -0.832293 2.87599 0
M  V30 1937 H 186.765 -0.398918 1.38364 0
M  V30 1938 H 188.718 -3.26047 2.66967 0
M  V30 1939 H 187.442 -2.91319 1.4765 0
M  V30 1940 H 186.101 -1.71462 3.24031 0
M  V30 1941 H 185.749 -4.15683 2.83225 0
M  V30 1942 H 185.449 -3.73439 4.53671 0
M  V30 1943 H 186.973 -4.54556 4.0769 0
M  V30 1944 H 188.387 -2.53846 5.14038 0
M  V30 1945 H 186.784 -1.95422 5.67389 0
M  V30 1946 H 187.854 -0.866673 4.77092 0
M  V30 1947 N 189.197 -1.51736 -0.425897 0
M  V30 1948 C 190.16 -1.73271 -1.50032 0
M  V30 1949 C 191.16 -0.602639 -1.4908 0
M  V30 1950 O 192.35 -0.87033 -1.509 0
M  V30 1951 C 189.482 -1.79969 -2.89523 0
M  V30 1952 H 190.675 -2.69172 -1.32237 0
M  V30 1953 H 188.228 -1.41899 -0.65532 0
M  V30 1954 H 188.963 -0.859241 -3.1271 0
M  V30 1955 H 188.748 -2.62109 -2.91619 0
M  V30 1956 H 190.238 -1.9843 -3.67444 0
M  V30 1957 N 190.675 0.682077 -1.42076 0
M  V30 1958 C 191.923 1.4393 -1.41876 0
M  V30 1959 C 192.244 1.94971 -0.0335599 0
M  V30 1960 O 191.514 1.72591 0.926773 0
M  V30 1961 H 190.094 0.534085 -0.522267 0
M  V30 1962 H 192.756 0.806427 -1.77434 0
M  V30 1963 H 191.852 2.29588 -2.11414 0
M  V30 1964 N 192.153 1.28127 0.917671 0
M  V30 1965 C 193.378 1.18007 1.70555 0
M  V30 1966 C 193.803 -0.258257 1.86319 0
M  V30 1967 O 193.161 -1.1869 1.37049 0
M  V30 1968 C 193.209 1.87948 3.07746 0
M  V30 1969 O 192.313 1.18427 3.9503 0
M  V30 1970 H 191.654 0.409867 0.522403 0
M  V30 1971 H 194.184 1.69379 1.1477 0
M  V30 1972 H 194.194 1.95701 3.58001 0
M  V30 1973 H 192.869 2.92573 2.95591 0
M  V30 1974 H 191.446 1.18811 3.53466 0
M  V30 1975 N 193.631 -1.12557 1.10312 0
M  V30 1976 C 194.877 -1.84311 0.846011 0
M  V30 1977 C 195.21 -1.83805 -0.626859 0
M  V30 1978 O 194.485 -1.28268 -1.46211 0
M  V30 1979 C 194.768 -3.32048 1.39341 0
M  V30 1980 C 194.621 -3.41016 2.93305 0
M  V30 1981 C 195.94 -4.27764 1.03468 0
M  V30 1982 H 193.059 -0.669192 0.30879 0
M  V30 1983 H 195.701 -1.32057 1.36605 0
M  V30 1984 H 193.851 -3.76678 0.951087 0
M  V30 1985 H 195.523 -3.05031 3.46055 0
M  V30 1986 H 193.766 -2.81603 3.29973 0
M  V30 1987 H 194.437 -4.44948 3.26689 0
M  V30 1988 H 196.913 -3.91253 1.41633 0
M  V30 1989 H 195.789 -5.29549 1.44463 0
M  V30 1990 H 196.05 -4.42064 -0.0560404 0
M  V30 1991 N 195.109 -0.891671 -1.2995 0
M  V30 1992 C 196.355 -0.514261 -1.96171 0
M  V30 1993 C 196.688 0.935506 -1.70182 0
M  V30 1994 O 195.963 1.66204 -1.01028 0
M  V30 1995 C 196.246 -0.797719 -3.51153 0
M  V30 1996 C 196.099 -2.2986 -3.86632 0
M  V30 1997 C 197.418 -0.278749 -4.39216 0
M  V30 1998 H 194.537 -0.188314 -0.712535 0
M  V30 1999 H 197.179 -1.11689 -1.53706 0
M  V30 2000 H 195.329 -0.284826 -3.87455 0
M  V30 2001 H 197.001 -2.88042 -3.60319 0
M  V30 2002 H 195.244 -2.76257 -3.34462 0
M  V30 2003 H 195.915 -2.44753 -4.94773 0
M  V30 2004 H 198.391 -0.717825 -4.09862 0
M  V30 2005 H 197.267 -0.506353 -5.46559 0
M  V30 2006 H 197.528 0.820266 -4.34424 0
M  V30 2007 N 196.587 1.43421 -0.653314 0
M  V30 2008 C 197.55 2.29182 0.0287951 0
M  V30 2009 C 198.55 1.42213 0.750465 0
M  V30 2010 O 199.74 1.63843 0.591701 0
M  V30 2011 C 196.872 3.24278 1.05151 0
M  V30 2012 H 198.065 2.90985 -0.725786 0
M  V30 2013 H 195.618 1.50702 -0.414545 0
M  V30 2014 H 196.353 2.6737 1.83532 0
M  V30 2015 H 196.138 3.88396 0.537687 0
M  V30 2016 H 197.628 3.88647 1.52786 0
M  V30 2017 N 198.065 0.39524 1.52563 0
M  V30 2018 C 199.314 -0.186321 2.00838 0
M  V30 2019 C 199.627 -1.47402 1.28577 0
M  V30 2020 O 200.833 -2.13599 1.67593 0
M  V30 2021 C 199.289 -0.382595 3.57861 0
M  V30 2022 C 198.897 0.892202 4.39026 0
M  V30 2023 C 200.641 -0.9202 4.14406 0
M  V30 2024 C 198.548 0.66388 5.87662 0
M  V30 2025 H 197.478 -0.0734041 0.750418 0
M  V30 2026 H 200.129 0.518552 1.76021 0
M  V30 2027 H 198.511 -1.14946 3.7895 0
M  V30 2028 H 199.685 1.66414 4.29701 0
M  V30 2029 H 198 1.35519 3.9373 0
M  V30 2030 H 200.597 -1.10683 5.23119 0
M  V30 2031 H 200.94 -1.89096 3.70875 0
M  V30 2032 H 201.473 -0.212751 3.97231 0
M  V30 2033 H 198.212 1.6058 6.35527 0
M  V30 2034 H 197.732 -0.0690193 5.9976 0
M  V30 2035 H 199.411 0.300699 6.46301 0
M  V30 2036 N 199.544 -1.57102 0.125237 0
M  V30 2037 C 200.792 -1.95021 -0.530198 0
M  V30 2038 C 201.113 -1.00982 -1.66816 0
M  V30 2039 O 200.383 -0.0672693 -1.95784 0
M  V30 2040 H 198.963 -0.720046 -0.198853 0
M  V30 2041 H 201.625 -1.93916 0.19564 0
M  V30 2042 H 200.721 -2.98211 -0.920681 0
M  V30 2043 N 201.022 0.148545 -1.56898 0
M  V30 2044 C 201.97 1.20265 -1.99096 0
M  V30 2045 C 202.964 1.44559 -0.883123 0
M  V30 2046 O 204.17 1.4487 -1.0683 0
M  V30 2047 H 200.545 0.404786 -0.63376 0
M  V30 2048 H 202.516 0.82004 -2.86911 0
M  V30 2049 C 201.265 2.52886 -2.3863 0
M  V30 2050 H 200.588 2.35021 -3.23427 0
M  V30 2051 H 202.028 3.25274 -2.7198 0
M  V30 2052 C 200.487 3.13315 -1.23837 0
M  V30 2053 O 201.017 3.98077 -0.538268 0
M  V30 2054 N 199.223 2.72742 -1.00301 0
M  V30 2055 H 198.77 2.03912 -1.5741 0
M  V30 2056 H 198.728 3.13507 -0.236838 0
M  V30 2057 N 202.5 1.5196 0.417844 0
M  V30 2058 C 203.463 1.74065 1.49111 0
M  V30 2059 C 204.463 0.610537 1.48758 0
M  V30 2060 O 205.653 0.87832 1.50437 0
M  V30 2061 C 202.785 1.81502 2.88565 0
M  V30 2062 H 203.978 2.69869 1.30807 0
M  V30 2063 H 201.531 1.42244 0.647785 0
M  V30 2064 H 202.266 0.875813 3.1225 0
M  V30 2065 H 202.051 2.63651 2.90225 0
M  V30 2066 H 203.541 2.00376 3.66387 0
M  V30 2067 N 203.978 -0.674533 1.42435 0
M  V30 2068 C 205.389 -1.25514 1.38214 0
M  V30 2069 C 205.74 -1.96055 0.0755464 0
M  V30 2070 O 204.865 -2.00028 -0.8257 0
M  V30 2071 C 205.46 -2.28269 2.50357 0
M  V30 2072 C 204.019 -2.81856 2.49467 0
M  V30 2073 C 203.166 -1.56182 2.29134 0
M  V30 2074 H 206.117 -0.467902 1.51646 0
M  V30 2075 H 206.138 -3.10009 2.20624 0
M  V30 2076 H 205.65 -1.769 3.45439 0
M  V30 2077 H 203.751 -3.37346 1.58204 0
M  V30 2078 H 203.864 -3.30854 3.46515 0
M  V30 2079 H 202.228 -1.82761 1.774 0
M  V30 2080 H 203.011 -1.06778 3.26272 0
M  V30 2081 N 205.456 -1.28612 -0.910864 0
M  V30 2082 C 206.684 -1.18792 -1.69399 0
M  V30 2083 C 207.099 0.253039 -1.87097 0
M  V30 2084 O 206.456 1.17071 -1.40003 0
M  V30 2085 C 206.507 -1.88511 -3.08457 0
M  V30 2086 O 206.228 -3.26979 -2.91576 0
M  V30 2087 C 207.729 -1.85029 -4.02839 0
M  V30 2088 H 204.949 -0.412233 -0.529438 0
M  V30 2089 H 207.493 -1.69788 -1.13984 0
M  V30 2090 H 205.648 -1.41379 -3.60681 0
M  V30 2091 H 206.062 -3.61936 -3.79608 0
M  V30 2092 H 207.536 -2.38395 -4.97867 0
M  V30 2093 H 208.013 -0.823303 -4.31414 0
M  V30 2094 H 208.619 -2.31853 -3.56545 0
M  V30 2095 N 206.934 1.1197 -1.10907 0
M  V30 2096 C 207.897 2.16031 -0.765707 0
M  V30 2097 C 208.897 1.59393 0.212235 0
M  V30 2098 O 210.087 1.74196 -0.0115441 0
M  V30 2099 C 207.219 3.40632 -0.135053 0
M  V30 2100 H 208.412 2.47919 -1.68748 0
M  V30 2101 H 205.965 1.27061 -0.910226 0
M  V30 2102 H 206.7 3.14348 0.797218 0
M  V30 2103 H 206.485 3.8302 -0.838937 0
M  V30 2104 H 207.975 4.17505 0.0892469 0
M  V30 2105 N 208.412 0.89855 1.29475 0
M  V30 2106 C 209.342 0.39201 2.30186 0
M  V30 2107 C 210.323 -0.532359 1.61555 0
M  V30 2108 O 211.508 -0.443331 1.89072 0
M  V30 2109 C 208.638 -0.382353 3.45189 0
M  V30 2110 C 207.592 0.451483 4.25612 0
M  V30 2111 C 206.918 -0.450307 5.328 0
M  V30 2112 C 208.218 1.70079 4.93832 0
M  V30 2113 H 209.912 1.23362 2.72804 0
M  V30 2114 H 207.458 0.594638 1.31149 0
M  V30 2115 H 209.411 -0.747451 4.14718 0
M  V30 2116 H 208.135 -1.25774 3.01411 0
M  V30 2117 H 206.794 0.798897 3.57789 0
M  V30 2118 H 206.442 -1.32379 4.85268 0
M  V30 2119 H 206.142 0.103902 5.87508 0
M  V30 2120 H 207.666 -0.811623 6.05182 0
M  V30 2121 H 209.08 1.40549 5.55805 0
M  V30 2122 H 207.477 2.19623 5.58467 0
M  V30 2123 H 208.547 2.43744 4.19186 0
M  V30 2124 N 209.89 -1.43072 0.660911 0
M  V30 2125 C 211.137 -2.01721 0.177445 0
M  V30 2126 C 211.465 -1.5218 -1.21126 0
M  V30 2127 O 210.72 -0.708659 -1.82419 0
M  V30 2128 C 211.019 -3.57103 0.145563 0
M  V30 2129 C 210.685 -4.26021 1.47705 0
M  V30 2130 C 209.347 -4.44563 1.84165 0
M  V30 2131 C 211.699 -4.64983 2.35458 0
M  V30 2132 C 209.027 -4.99334 3.0803 0
M  V30 2133 C 211.379 -5.21127 3.58622 0
M  V30 2134 C 210.043 -5.37884 3.95268 0
M  V30 2135 H 209.313 -0.73815 0.0649317 0
M  V30 2136 H 211.96 -1.71446 0.853144 0
M  V30 2137 H 210.265 -3.86965 -0.61361 0
M  V30 2138 H 211.962 -4.00248 -0.2455 0
M  V30 2139 H 208.552 -4.11939 1.18339 0
M  V30 2140 H 212.736 -4.50343 2.08579 0
M  V30 2141 H 207.992 -5.10493 3.36462 0
M  V30 2142 H 212.166 -5.50262 4.26831 0
M  V30 2143 H 209.793 -5.80089 4.91325 0
M  V30 2144 N 211.368 -0.403325 -1.52352 0
M  V30 2145 C 212.615 0.174347 -2.01748 0
M  V30 2146 C 212.943 1.45636 -1.2892 0
M  V30 2147 O 212.198 1.9193 -0.382258 0
M  V30 2148 C 212.497 0.474665 -3.54234 0
M  V30 2149 C 212.163 -0.717458 -4.45155 0
M  V30 2150 C 210.825 -1.04447 -4.69728 0
M  V30 2151 C 213.177 -1.51432 -4.98716 0
M  V30 2152 C 210.505 -2.16963 -5.45109 0
M  V30 2153 C 212.857 -2.6302 -5.75329 0
M  V30 2154 C 211.521 -2.96213 -5.98175 0
M  V30 2155 H 210.791 0.0637981 -0.738248 0
M  V30 2156 H 213.438 -0.543553 -1.83624 0
M  V30 2157 H 211.743 1.27406 -3.70506 0
M  V30 2158 H 213.44 0.934496 -3.89959 0
M  V30 2159 H 210.03 -0.452596 -4.26204 0
M  V30 2160 H 214.214 -1.27491 -4.79645 0
M  V30 2161 H 209.47 -2.43034 -5.61021 0
M  V30 2162 H 213.644 -3.25158 -6.15829 0
M  V30 2163 H 211.271 -3.83516 -6.56368 0
M  V30 2164 N 212.846 1.57033 -0.133567 0
M  V30 2165 C 213.776 2.1909 0.807567 0
M  V30 2166 C 214.757 1.13517 1.26681 0
M  V30 2167 O 215.942 1.41809 1.32679 0
M  V30 2168 C 213.072 2.80188 2.05212 0
M  V30 2169 C 212.026 3.91471 1.73015 0
M  V30 2170 C 211.352 4.39443 3.04622 0
M  V30 2171 C 212.652 5.12886 0.987168 0
M  V30 2172 H 214.346 2.97988 0.290403 0
M  V30 2173 H 211.892 1.43335 0.138239 0
M  V30 2174 H 213.845 3.22264 2.71521 0
M  V30 2175 H 212.569 1.98601 2.59278 0
M  V30 2176 H 211.228 3.49993 1.0909 0
M  V30 2177 H 210.876 3.54695 3.56651 0
M  V30 2178 H 210.576 5.14495 2.83847 0
M  V30 2179 H 212.1 4.8418 3.72024 0
M  V30 2180 H 213.514 5.51891 1.55208 0
M  V30 2181 H 211.911 5.93615 0.87985 0
M  V30 2182 H 212.981 4.84894 -0.0235286 0
M  V30 2183 N 214.325 -0.140222 1.56975 0
M  V30 2184 C 215.255 -1.17456 2.01808 0
M  V30 2185 C 216.236 -1.44415 0.898794 0
M  V30 2186 O 217.421 -1.5522 1.16707 0
M  V30 2187 C 214.551 -2.50607 2.40444 0
M  V30 2188 C 213.505 -2.38155 3.55621 0
M  V30 2189 C 212.831 -3.76078 3.80091 0
M  V30 2190 C 214.131 -1.85991 4.88062 0
M  V30 2191 H 215.825 -0.801743 2.88466 0
M  V30 2192 H 213.371 -0.38422 1.38779 0
M  V30 2193 H 215.324 -3.23197 2.7041 0
M  V30 2194 H 214.048 -2.89737 1.50732 0
M  V30 2195 H 212.707 -1.68016 3.25832 0
M  V30 2196 H 212.355 -4.12656 2.87618 0
M  V30 2197 H 212.055 -3.68606 4.57606 0
M  V30 2198 H 213.579 -4.50206 4.12488 0
M  V30 2199 H 214.993 -2.4838 5.16701 0
M  V30 2200 H 213.39 -1.89393 5.6943 0
M  V30 2201 H 214.46 -0.816023 4.77984 0
M  V30 2202 N 215.803 -1.52179 -0.40978 0
M  V30 2203 C 216.713 -1.78364 -1.52392 0
M  V30 2204 C 217.729 -0.669183 -1.60617 0
M  V30 2205 O 218.905 -0.954518 -1.77344 0
M  V30 2206 C 215.97 -1.92822 -2.88133 0
M  V30 2207 C 215.031 -3.16725 -2.898 0
M  V30 2208 C 214.264 -3.30483 -4.19067 0
M  V30 2209 O 214.487 -2.49522 -5.12928 0
M  V30 2210 O 213.421 -4.2363 -4.27576 0
M  V30 2211 H 217.247 -2.72931 -1.33201 0
M  V30 2212 H 214.832 -1.37016 -0.59557 0
M  V30 2213 H 216.714 -2.04157 -3.68643 0
M  V30 2214 H 215.389 -1.01444 -3.07393 0
M  V30 2215 H 214.296 -3.10848 -2.08146 0
M  V30 2216 H 215.629 -4.07881 -2.75489 0
M  V30 2217 N 217.281 0.66697 -1.42791 0
M  V30 2218 C 218.214 1.79177 -1.41318 0
M  V30 2219 C 219.192 1.60234 -0.276401 0
M  V30 2220 O 220.376 1.82602 -0.46785 0
M  V30 2221 C 217.503 3.16289 -1.21157 0
M  V30 2222 C 216.549 3.53964 -2.37932 0
M  V30 2223 S 217.382 3.55501 -4.00474 0
M  V30 2224 C 218.538 4.95292 -3.8267 0
M  V30 2225 H 218.771 1.80153 -2.365 0
M  V30 2226 H 216.304 0.838357 -1.29657 0
M  V30 2227 H 218.262 3.95428 -1.10212 0
M  V30 2228 H 216.923 3.1289 -0.275481 0
M  V30 2229 H 216.116 4.53646 -2.19594 0
M  V30 2230 H 215.718 2.82204 -2.45432 0
M  V30 2231 H 218.01 5.83584 -3.44145 0
M  V30 2232 H 218.953 5.18679 -4.82055 0
M  V30 2233 H 219.361 4.68179 -3.15386 0
M  V30 2234 N 218.759 1.29093 0.90403 0
M  V30 2235 C 219.689 1.16401 2.02418 0
M  V30 2236 C 220.67 0.0593085 1.69997 0
M  V30 2237 O 221.855 0.238021 1.92736 0
M  V30 2238 C 218.985 0.835233 3.37107 0
M  V30 2239 C 217.939 1.89578 3.83724 0
M  V30 2240 C 217.265 1.42041 5.15489 0
M  V30 2241 C 218.565 3.30394 4.04521 0
M  V30 2242 H 220.259 2.10109 2.13295 0
M  V30 2243 H 217.805 1.01157 1.02486 0
M  V30 2244 H 219.758 0.733169 4.14973 0
M  V30 2245 H 218.482 -0.137543 3.2631 0
M  V30 2246 H 217.141 1.98715 3.08071 0
M  V30 2247 H 216.789 0.436426 5.01103 0
M  V30 2248 H 216.489 2.12964 5.4765 0
M  V30 2249 H 218.013 1.33176 5.959 0
M  V30 2250 H 219.427 3.24123 4.72882 0
M  V30 2251 H 217.824 3.99237 4.48029 0
M  V30 2252 H 218.894 3.73692 3.09002 0
M  V30 2253 N 220.237 -1.11381 1.11499 0
M  V30 2254 C 221.653 -1.35143 0.849031 0
M  V30 2255 C 221.853 -1.94515 -0.525938 0
M  V30 2256 O 220.909 -2.1785 -1.27662 0
M  V30 2257 C 222.222 -2.28249 1.95762 0
M  V30 2258 C 223.77 -2.41812 1.98736 0
M  V30 2259 C 224.245 -3.3824 3.088 0
M  V30 2260 N 225.736 -3.45803 3.08179 0
M  V30 2261 C 226.471 -4.20358 3.89982 0
M  V30 2262 N 225.967 -4.97884 4.8175 0
M  V30 2263 N 227.76 -4.15877 3.78157 0
M  V30 2264 H 219.911 -0.712062 2.00109 0
M  V30 2265 H 222.174 -0.376025 0.870235 0
M  V30 2266 H 221.88 -1.91817 2.94787 0
M  V30 2267 H 221.754 -3.28473 1.85433 0
M  V30 2268 H 224.141 -2.77518 1.00338 0
M  V30 2269 H 224.222 -1.41437 2.13141 0
M  V30 2270 H 223.866 -3.03261 4.07425 0
M  V30 2271 H 223.796 -4.38471 2.91635 0
M  V30 2272 H 226.287 -2.90506 2.41691 0
M  V30 2273 H 226.6 -5.52142 5.40702 0
M  V30 2274 H 224.945 -4.97043 4.85771 0
M  V30 2275 H 228.136 -3.544 3.05808 0
M  V30 2276 H 228.309 -4.73723 4.42143 0
M  V30 2277 N 221.715 -0.905404 -1.28997 0
M  V30 2278 C 222.992 -0.453513 -1.9027 0
M  V30 2279 C 223.372 1.06721 -1.82137 0
M  V30 2280 O 222.72 1.91159 -1.25182 0
M  V30 2281 C 222.93 -0.974494 -3.35119 0
M  V30 2282 C 224.278 -1.0216 -4.12127 0
M  V30 2283 O 225.302 -0.922557 -3.44046 0
M  V30 2284 O 224.161 -1.17121 -5.33802 0
M  V30 2285 H 221.255 -0.142347 -0.814657 0
M  V30 2286 H 223.801 -0.995642 -1.37423 0
M  V30 2287 H 222.573 -2.01848 -3.35221 0
M  V30 2288 H 222.196 -0.412706 -3.95452 0
M  V30 2289 N 223.193 1.4272 -0.668489 0
M  V30 2290 C 224.441 2.01226 -0.187769 0
M  V30 2291 C 224.762 1.53092 1.2078 0
M  V30 2292 O 224.032 0.74993 1.80977 0
M  V30 2293 H 222.612 0.744041 -0.0664272 0
M  V30 2294 H 225.274 1.74723 -0.863583 0
M  V30 2295 H 224.37 3.11556 -0.184166 0
M  V30 2296 N 224.671 0.411399 1.52136 0
M  V30 2297 C 225.634 -0.401089 2.25663 0
M  V30 2298 C 226.634 -0.971732 1.28117 0
M  V30 2299 O 227.824 -0.850254 1.52041 0
M  V30 2300 C 224.956 -1.56483 3.02863 0
M  V30 2301 H 226.149 0.24295 2.98914 0
M  V30 2302 H 223.702 0.163968 1.55438 0
M  V30 2303 H 224.437 -2.24567 2.33967 0
M  V30 2304 H 224.222 -1.16211 3.74483 0
M  V30 2305 H 225.712 -2.13951 3.58629 0
M  V30 2306 N 226.149 -1.5696 0.141893 0
M  V30 2307 C 227.56 -1.82797 -0.379776 0
M  V30 2308 C 227.911 -1.06033 -1.6508 0
M  V30 2309 O 227.036 -0.304011 -2.14254 0
M  V30 2310 C 227.631 -3.31578 -0.695802 0
M  V30 2311 C 226.19 -3.58014 -1.16201 0
M  V30 2312 C 225.337 -2.76699 -0.182455 0
M  V30 2313 H 228.288 -1.54406 0.366675 0
M  V30 2314 H 228.309 -3.47454 -1.55099 0
M  V30 2315 H 227.821 -3.87421 0.229449 0
M  V30 2316 H 225.922 -3.07553 -2.10338 0
M  V30 2317 H 226.035 -4.66501 -1.09151 0
M  V30 2318 H 224.399 -2.45618 -0.674072 0
M  V30 2319 H 225.182 -3.35311 0.736297 0
M  V30 2320 N 227.627 0.131896 -1.57047 0
M  V30 2321 C 228.574 1.16236 -1.99393 0
M  V30 2322 C 229.544 1.41863 -0.863943 0
M  V30 2323 O 230.729 1.53946 -1.12718 0
M  V30 2324 C 227.869 2.48708 -2.39245 0
M  V30 2325 C 226.982 2.30127 -3.65603 0
M  V30 2326 C 226.117 3.55738 -3.94492 0
M  V30 2327 C 225.156 3.32259 -5.14073 0
M  V30 2328 N 224.293 4.50039 -5.38896 0
M  V30 2329 H 229.133 0.794251 -2.87221 0
M  V30 2330 H 226.67 0.380707 -1.42088 0
M  V30 2331 H 228.628 3.25969 -2.60384 0
M  V30 2332 H 227.258 2.83437 -1.54478 0
M  V30 2333 H 226.31 1.43845 -3.52154 0
M  V30 2334 H 227.622 2.08746 -4.5302 0
M  V30 2335 H 226.776 4.41423 -4.1621 0
M  V30 2336 H 225.515 3.80138 -3.05526 0
M  V30 2337 H 224.52 2.44963 -4.92212 0
M  V30 2338 H 225.745 3.09242 -6.04604 0
M  V30 2339 H 223.691 4.74584 -4.52886 0
M  V30 2340 H 223.608 4.31716 -6.2061 0
M  V30 2341 H 224.876 5.36895 -5.65123 0
M  V30 2342 N 229.106 1.52395 0.401703 0
M  V30 2343 C 230.517 1.58899 0.980202 0
M  V30 2344 C 230.868 0.434032 1.91339 0
M  V30 2345 O 229.993 -0.444619 2.11783 0
M  V30 2346 C 230.588 2.87994 1.78451 0
M  V30 2347 C 229.147 2.96953 2.31292 0
M  V30 2348 C 228.294 2.53903 1.11483 0
M  V30 2349 H 231.245 1.57657 0.18168 0
M  V30 2350 H 231.266 2.73765 2.64259 0
M  V30 2351 H 230.778 3.72035 1.10506 0
M  V30 2352 H 228.879 2.17422 3.02586 0
M  V30 2353 H 228.992 4.01344 2.61649 0
M  V30 2354 H 227.356 2.07925 1.47104 0
M  V30 2355 H 228.139 3.40326 0.450928 0
M  V30 2356 N 230.584 -0.659388 1.43143 0
M  V30 2357 C 231.547 -1.75432 1.47501 0
M  V30 2358 C 232.547 -1.56707 0.360512 0
M  V30 2359 O 233.737 -1.62717 0.622002 0
M  V30 2360 C 230.869 -3.14239 1.32162 0
M  V30 2361 H 232.062 -1.7295 2.45006 0
M  V30 2362 H 229.615 -0.870469 1.29817 0
M  V30 2363 H 230.35 -3.22336 0.356401 0
M  V30 2364 H 230.135 -3.29235 2.12948 0
M  V30 2365 H 231.625 -3.94094 1.3813 0
M  V30 2366 N 232.062 -1.29571 -0.897171 0
M  V30 2367 C 233.025 -1.14913 -1.98312 0
M  V30 2368 C 234.025 -0.0838629 -1.60581 0
M  V30 2369 O 235.215 -0.331006 -1.71026 0
M  V30 2370 C 232.347 -0.757835 -3.3237 0
M  V30 2371 H 233.54 -2.11377 -2.12743 0
M  V30 2372 H 231.093 -1.12793 -1.08201 0
M  V30 2373 H 231.828 0.206837 -3.2364 0
M  V30 2374 H 231.613 -1.52755 -3.61121 0
M  V30 2375 H 233.103 -0.678408 -4.12053 0
M  V30 2376 N 233.54 1.10788 -1.12088 0
M  V30 2377 C 234.789 1.82036 -0.868659 0
M  V30 2378 C 235.102 1.85929 0.607426 0
M  V30 2379 O 236.308 2.53346 0.97613 0
M  V30 2380 C 234.764 3.26951 -1.50435 0
M  V30 2381 C 234.372 3.31367 -3.01496 0
M  V30 2382 C 236.116 4.03053 -1.33225 0
M  V30 2383 C 234.023 4.7072 -3.58017 0
M  V30 2384 H 232.953 0.682108 -0.321318 0
M  V30 2385 H 235.604 1.24618 -1.34694 0
M  V30 2386 H 233.986 3.84343 -0.953735 0
M  V30 2387 H 235.16 2.83819 -3.6302 0
M  V30 2388 H 233.475 2.6875 -3.18061 0
M  V30 2389 H 236.072 5.05981 -1.72878 0
M  V30 2390 H 236.415 4.15387 -0.275529 0
M  V30 2391 H 236.948 3.52066 -1.85188 0
M  V30 2392 H 233.687 4.63585 -4.63432 0
M  V30 2393 H 233.207 5.1865 -3.01268 0
M  V30 2394 H 234.886 5.39685 -3.56859 0
M  V30 2395 N 235.018 0.912232 1.28515 0
M  V30 2396 C 235.948 0.416403 2.29757 0
M  V30 2397 C 236.929 -0.515194 1.6211 0
M  V30 2398 O 238.114 -0.423253 1.89532 0
M  V30 2399 C 235.244 -0.34572 3.45575 0
M  V30 2400 C 234.198 0.496599 4.25109 0
M  V30 2401 C 233.524 -0.393771 5.33248 0
M  V30 2402 C 234.824 1.75307 4.92001 0
M  V30 2403 H 236.518 1.26249 2.7148 0
M  V30 2404 H 234.064 0.608515 1.30511 0
M  V30 2405 H 236.017 -0.703422 4.15488 0
M  V30 2406 H 234.741 -1.2257 3.02728 0
M  V30 2407 H 233.4 0.8368 3.56922 0
M  V30 2408 H 233.048 -1.27225 4.86644 0
M  V30 2409 H 232.748 0.166209 5.87365 0
M  V30 2410 H 234.272 -0.747389 6.06009 0
M  V30 2411 H 235.686 1.46437 5.54283 0
M  V30 2412 H 234.083 2.25534 5.56106 0
M  V30 2413 H 235.153 2.48176 4.16577 0
M  V30 2414 N 236.496 -1.42363 0.676048 0
M  V30 2415 C 237.744 -2.01123 0.198437 0
M  V30 2416 C 238.065 -1.53731 -1.19966 0
M  V30 2417 O 237.335 -0.759518 -1.80577 0
M  V30 2418 H 235.915 -0.743678 0.0703721 0
M  V30 2419 H 238.577 -1.74263 0.872837 0
M  V30 2420 H 237.673 -3.11454 0.200686 0
M  V30 2421 N 237.974 -0.419461 -1.51915 0
M  V30 2422 C 238.907 0.445751 -2.23804 0
M  V30 2423 C 239.885 1.03951 -1.25031 0
M  V30 2424 O 241.069 1.08541 -1.54114 0
M  V30 2425 C 238.196 1.61964 -2.97465 0
M  V30 2426 C 237.242 1.14828 -4.10751 0
M  V30 2427 S 238.075 0.104938 -5.35397 0
M  V30 2428 C 239.231 1.28391 -6.1259 0
M  V30 2429 H 239.464 -0.164627 -2.96844 0
M  V30 2430 H 236.997 -0.203833 -1.53049 0
M  V30 2431 H 238.955 2.29271 -3.40507 0
M  V30 2432 H 237.616 2.20139 -2.24048 0
M  V30 2433 H 236.809 2.02561 -4.61503 0
M  V30 2434 H 236.411 0.553712 -3.69878 0
M  V30 2435 H 238.703 2.20563 -6.40592 0
M  V30 2436 H 239.646 0.816724 -7.03374 0
M  V30 2437 H 240.054 1.51439 -5.43807 0
M  V30 2438 N 239.452 1.56882 -0.150215 0
M  V30 2439 C 240.863 1.82995 0.370076 0
M  V30 2440 C 241.214 1.06907 1.64515 0
M  V30 2441 O 240.339 0.315369 2.1409 0
M  V30 2442 C 240.934 3.31942 0.678208 0
M  V30 2443 C 239.493 3.58625 1.14301 0
M  V30 2444 C 238.64 2.76792 0.167778 0
M  V30 2445 H 241.591 1.54209 -0.374858 0
M  V30 2446 H 241.612 3.48272 1.53254 0
M  V30 2447 H 241.124 3.87294 -0.249991 0
M  V30 2448 H 239.225 3.08664 2.08704 0
M  V30 2449 H 239.338 4.67073 1.06676 0
M  V30 2450 H 237.702 2.45972 0.661037 0
M  V30 2451 H 238.485 3.34916 -0.754069 0
M  V30 2452 N 240.93 -0.123565 1.57115 0
M  V30 2453 C 242.176 -0.833386 1.84885 0
M  V30 2454 C 242.509 -1.79742 0.735292 0
M  V30 2455 O 241.784 -1.92764 -0.25925 0
M  V30 2456 C 242.067 -1.5873 3.23228 0
M  V30 2457 C 241.92 -0.643183 4.45178 0
M  V30 2458 C 243.239 -2.54453 3.59085 0
M  V30 2459 H 240.358 -0.301518 0.6725 0
M  V30 2460 H 243 -0.097778 1.89748 0
M  V30 2461 H 241.15 -2.21438 3.19214 0
M  V30 2462 H 242.822 -0.0253015 4.61293 0
M  V30 2463 H 241.065 0.0456139 4.33776 0
M  V30 2464 H 241.736 -1.20724 5.38637 0
M  V30 2465 H 244.212 -2.01853 3.63861 0
M  V30 2466 H 243.088 -3.04238 4.5687 0
M  V30 2467 H 243.349 -3.36906 2.86264 0
M  V30 2468 N 242.408 -1.52605 -0.393616 0
M  V30 2469 C 243.656 -1.67093 -1.13685 0
M  V30 2470 C 243.977 -0.411011 -1.90619 0
M  V30 2471 O 243.247 0.574491 -1.87287 0
M  V30 2472 H 241.827 -0.615923 -0.422668 0
M  V30 2473 H 244.489 -1.89704 -0.447039 0
M  V30 2474 H 243.585 -2.51922 -1.84232 0
M  V30 2475 N 243.887 0.651787 -1.4349 0
M  V30 2476 C 245.134 1.41167 -1.45183 0
M  V30 2477 C 245.462 1.94349 -0.0766601 0
M  V30 2478 O 244.717 1.72804 0.918555 0
M  V30 2479 C 245.016 2.60914 -2.44251 0
M  V30 2480 C 244.682 2.26142 -3.9009 0
M  V30 2481 C 243.344 2.16371 -4.2981 0
M  V30 2482 C 245.696 1.98334 -4.81989 0
M  V30 2483 C 243.024 1.7695 -5.5938 0
M  V30 2484 C 245.376 1.6041 -6.11924 0
M  V30 2485 C 244.04 1.49166 -6.5062 0
M  V30 2486 H 243.31 0.516566 -0.531263 0
M  V30 2487 H 245.957 0.741099 -1.76579 0
M  V30 2488 H 244.262 3.3311 -2.06265 0
M  V30 2489 H 245.959 3.19127 -2.42815 0
M  V30 2490 H 242.549 2.34658 -3.58655 0
M  V30 2491 H 246.733 2.04803 -4.52072 0
M  V30 2492 H 241.989 1.66831 -5.88198 0
M  V30 2493 H 246.163 1.37925 -6.82605 0
M  V30 2494 H 243.79 1.1839 -7.50925 0
M  V30 2495 N 245.365 1.30045 0.890287 0
M  V30 2496 C 246.611 1.18737 1.64406 0
M  V30 2497 C 246.944 -0.258525 1.92472 0
M  V30 2498 O 246.219 -1.18562 1.54186 0
M  V30 2499 C 246.502 2.01087 2.98724 0
M  V30 2500 C 246.355 3.53867 2.77665 0
M  V30 2501 C 247.674 1.84457 3.9958 0
M  V30 2502 H 244.793 0.432698 0.596608 0
M  V30 2503 H 247.435 1.5962 1.0306 0
M  V30 2504 H 245.585 1.66349 3.51084 0
M  V30 2505 H 247.257 3.98637 2.32133 0
M  V30 2506 H 245.5 3.78318 2.12269 0
M  V30 2507 H 246.171 4.06772 3.7315 0
M  V30 2508 H 248.647 2.14817 3.56361 0
M  V30 2509 H 247.523 2.44411 4.91482 0
M  V30 2510 H 247.784 0.802276 4.3476 0
M  V30 2511 N 246.843 -1.10192 1.12674 0
M  V30 2512 C 248.091 -1.81845 0.881861 0
M  V30 2513 C 248.412 -1.85737 -0.593867 0
M  V30 2514 O 247.682 -1.33724 -1.4316 0
M  V30 2515 H 246.262 -0.673432 0.323261 0
M  V30 2516 H 248.924 -1.33316 1.42172 0
M  V30 2517 H 248.02 -2.85288 1.2656 0
M  V30 2518 N 248.321 -0.919034 -1.28029 0
M  V30 2519 C 249.284 -0.416182 -2.2539 0
M  V30 2520 C 250.284 0.460438 -1.54067 0
M  V30 2521 O 251.474 0.262744 -1.72207 0
M  V30 2522 C 248.606 0.402707 -3.38513 0
M  V30 2523 H 249.799 -1.27629 -2.71387 0
M  V30 2524 H 247.352 -0.698919 -1.39803 0
M  V30 2525 H 248.087 1.282 -2.97885 0
M  V30 2526 H 247.872 -0.225698 -3.9145 0
M  V30 2527 H 249.362 0.745191 -4.10897 0
M  V30 2528 N 249.799 1.42003 -0.683588 0
M  V30 2529 C 250.762 2.29191 -0.0198243 0
M  V30 2530 C 251.762 1.43773 0.72013 0
M  V30 2531 O 252.952 1.65061 0.556815 0
M  V30 2532 C 250.084 3.26435 0.982487 0
M  V30 2533 H 251.277 2.8938 -0.787345 0
M  V30 2534 H 248.83 1.49789 -0.446418 0
M  V30 2535 H 249.565 2.71203 1.77819 0
M  V30 2536 H 249.35 3.89449 0.455182 0
M  V30 2537 H 250.84 3.918 1.44508 0
M  V30 2538 N 251.277 0.427512 1.51691 0
M  V30 2539 C 252.187 -0.39527 2.31246 0
M  V30 2540 C 253.203 -1.03674 1.39742 0
M  V30 2541 O 254.379 -1.03425 1.72816 0
M  V30 2542 C 251.444 -1.48706 3.13189 0
M  V30 2543 C 250.505 -0.866743 4.20459 0
M  V30 2544 C 249.738 -1.90651 4.98486 0
M  V30 2545 O 249.961 -3.12733 4.77026 0
M  V30 2546 O 248.895 -1.5025 5.82845 0
M  V30 2547 H 252.721 0.253918 3.02637 0
M  V30 2548 H 250.306 0.190274 1.48183 0
M  V30 2549 H 252.188 -2.12047 3.64162 0
M  V30 2550 H 250.863 -2.12051 2.44573 0
M  V30 2551 H 249.77 -0.195544 3.73589 0
M  V30 2552 H 251.103 -0.276934 4.9142 0
M  V30 2553 N 252.755 -1.56801 0.158532 0
M  V30 2554 C 253.98 -2.01295 -0.499516 0
M  V30 2555 C 254.405 -1.03799 -1.56867 0
M  V30 2556 O 253.763 -0.0155162 -1.81293 0
M  V30 2557 C 253.811 -3.44469 -1.06647 0
M  V30 2558 O 252.915 -3.50012 -2.18095 0
M  V30 2559 H 252.256 -0.652884 -0.12099 0
M  V30 2560 H 254.786 -2.02958 0.258661 0
M  V30 2561 H 254.796 -3.8351 -1.39227 0
M  V30 2562 H 253.471 -4.14932 -0.283581 0
M  V30 2563 H 252.048 -3.22822 -1.86656 0
M  V30 2564 N 254.233 0.115231 -1.57178 0
M  V30 2565 C 255.18 1.14115 -2.00615 0
M  V30 2566 C 256.15 1.40939 -0.878941 0
M  V30 2567 O 257.335 1.52741 -1.14345 0
M  V30 2568 C 254.475 2.46156 -2.4187 0
M  V30 2569 C 253.588 2.26236 -3.68024 0
M  V30 2570 C 252.723 3.51534 -3.98243 0
M  V30 2571 C 251.762 3.26787 -5.17568 0
M  V30 2572 N 250.899 4.44298 -5.43639 0
M  V30 2573 H 255.739 0.763743 -2.88047 0
M  V30 2574 H 253.276 0.365615 -1.42484 0
M  V30 2575 H 255.234 3.23189 -2.63827 0
M  V30 2576 H 253.864 2.81783 -1.57475 0
M  V30 2577 H 252.916 1.40102 -3.5366 0
M  V30 2578 H 254.228 2.03929 -4.55208 0
M  V30 2579 H 253.382 4.36984 -4.20868 0
M  V30 2580 H 252.121 3.76876 -3.09541 0
M  V30 2581 H 251.126 2.39729 -4.94783 0
M  V30 2582 H 252.351 3.02812 -6.0785 0
M  V30 2583 H 250.297 4.69754 -4.57895 0
M  V30 2584 H 250.214 4.25109 -6.25154 0
M  V30 2585 H 251.482 5.3087 -5.70786 0
M  V30 2586 N 255.711 1.52812 0.385517 0
M  V30 2587 C 256.988 1.5861 1.14465 0
M  V30 2588 C 257.368 0.381402 2.07626 0
M  V30 2589 O 256.716 -0.629999 2.19643 0
M  V30 2590 C 256.926 2.92664 1.90128 0
M  V30 2591 C 258.274 3.46526 2.45367 0
M  V30 2592 O 259.298 2.94562 2.0028 0
M  V30 2593 O 258.157 4.37323 3.27736 0
M  V30 2594 H 255.251 0.639855 0.523941 0
M  V30 2595 H 257.797 1.65149 0.390389 0
M  V30 2596 H 256.569 3.71788 1.22022 0
M  V30 2597 H 256.192 2.89527 2.72507 0
M  V30 2598 N 257.189 -0.644168 1.43834 0
M  V30 2599 C 258.152 -1.73857 1.49353 0
M  V30 2600 C 259.152 -1.56315 0.377112 0
M  V30 2601 O 260.342 -1.62048 0.639226 0
M  V30 2602 C 257.474 -3.12819 1.35488 0
M  V30 2603 H 258.667 -1.70342 2.46827 0
M  V30 2604 H 256.22 -0.856652 1.30733 0
M  V30 2605 H 256.955 -3.2194 0.390569 0
M  V30 2606 H 256.74 -3.26958 2.16428 0
M  V30 2607 H 258.23 -3.92606 1.42302 0
M  V30 2608 N 258.668 -1.30515 -0.883378 0
M  V30 2609 C 259.598 -1.19607 -2.00541 0
M  V30 2610 C 260.579 -0.086346 -1.69881 0
M  V30 2611 O 261.764 -0.268654 -1.92333 0
M  V30 2612 C 258.894 -0.888758 -3.35736 0
M  V30 2613 C 257.848 -1.95659 -3.8066 0
M  V30 2614 C 257.174 -1.50224 -5.13164 0
M  V30 2615 C 258.474 -3.36788 -3.99213 0
M  V30 2616 H 260.168 -2.13476 -2.09925 0
M  V30 2617 H 257.714 -1.02775 -1.00863 0
M  V30 2618 H 259.667 -0.799094 -4.13754 0
M  V30 2619 H 258.391 0.0856125 -3.26488 0
M  V30 2620 H 257.05 -2.03591 -3.04871 0
M  V30 2621 H 256.698 -0.516092 -5.00345 0
M  V30 2622 H 256.398 -2.2165 -5.44192 0
M  V30 2623 H 257.922 -1.42639 -5.93706 0
M  V30 2624 H 259.336 -3.31605 -4.67665 0
M  V30 2625 H 257.733 -4.06314 -4.41621 0
M  V30 2626 H 258.803 -3.78561 -3.03017 0
M  V30 2627 N 260.146 1.09593 -1.13257 0
M  V30 2628 C 261.109 2.14359 -0.811358 0
M  V30 2629 C 262.109 1.59808 0.178377 0
M  V30 2630 O 263.299 1.74132 -0.0484911 0
M  V30 2631 C 260.431 3.40269 -0.207276 0
M  V30 2632 H 261.624 2.44284 -1.73969 0
M  V30 2633 H 259.177 1.25102 -0.936973 0
M  V30 2634 H 259.912 3.15969 0.73036 0
M  V30 2635 H 259.697 3.81154 -0.919992 0
M  V30 2636 H 261.187 4.176 0.000667944 0
M  V30 2637 N 261.624 0.925811 1.2754 0
M  V30 2638 C 262.534 0.428993 2.30644 0
M  V30 2639 C 263.55 -0.489387 1.66976 0
M  V30 2640 O 264.726 -0.372653 1.97922 0
M  V30 2641 C 261.791 -0.311967 3.45294 0
M  V30 2642 C 260.852 0.641098 4.24486 0
M  V30 2643 C 260.085 -0.0645955 5.33661 0
M  V30 2644 O 260.308 -1.28429 5.55754 0
M  V30 2645 O 259.242 0.606265 5.98839 0
M  V30 2646 H 263.068 1.28504 2.75173 0
M  V30 2647 H 260.653 0.691086 1.32455 0
M  V30 2648 H 262.535 -0.729972 4.15029 0
M  V30 2649 H 261.21 -1.14365 3.02824 0
M  V30 2650 H 260.117 1.10874 3.57292 0
M  V30 2651 H 261.45 1.43995 4.70666 0
M  V30 2652 N 263.102 -1.41638 0.69111 0
M  V30 2653 C 264.05 -2.32597 0.0115199 0
M  V30 2654 C 265.044 -1.5072 -0.773296 0
M  V30 2655 O 266.25 -1.66685 -0.67942 0
M  V30 2656 H 262.625 -0.751849 -0.0150746 0
M  V30 2657 H 264.596 -2.87593 0.795791 0
M  V30 2658 C 263.345 -3.35467 -0.914172 0
M  V30 2659 H 262.668 -3.9852 -0.319687 0
M  V30 2660 H 264.108 -4.01662 -1.35808 0
M  V30 2661 C 262.567 -2.69004 -2.02826 0
M  V30 2662 O 263.097 -2.53444 -3.11655 0
M  V30 2663 N 261.303 -2.2777 -1.80469 0
M  V30 2664 H 260.85 -2.40626 -0.919615 0
M  V30 2665 H 260.808 -1.83635 -2.55197 0
M  V30 2666 N 264.58 -0.43555 -1.51462 0
M  V30 2667 C 265.805 0.132627 -2.06976 0
M  V30 2668 C 266.23 1.35848 -1.30104 0
M  V30 2669 O 265.588 1.78112 -0.338493 0
M  V30 2670 C 265.636 0.43523 -3.57964 0
M  V30 2671 O 264.74 1.52198 -3.83288 0
M  V30 2672 H 264.081 0.00265 -0.663995 0
M  V30 2673 H 266.611 -0.616369 -1.95095 0
M  V30 2674 H 266.621 0.686206 -4.02188 0
M  V30 2675 H 265.296 -0.460739 -4.1334 0
M  V30 2676 H 263.873 1.2611 -3.50928 0
M  V30 2677 N 266.058 1.56714 -0.166846 0
M  V30 2678 C 267.288 2.00828 0.48494 0
M  V30 2679 C 267.696 1.04612 1.57648 0
M  V30 2680 O 267.039 0.0383201 1.8366 0
M  V30 2681 C 267.101 3.4137 1.12723 0
M  V30 2682 C 266.765 4.56654 0.177886 0
M  V30 2683 C 267.762 5.16402 -0.60207 0
M  V30 2684 C 265.447 5.02244 0.0750139 0
M  V30 2685 C 267.441 6.20167 -1.47215 0
M  V30 2686 C 265.128 6.05859 -0.798649 0
M  V30 2687 C 266.126 6.64691 -1.57082 0
M  V30 2688 O 265.814 7.66297 -2.42989 0
M  V30 2689 H 265.546 0.663587 0.128953 0
M  V30 2690 H 268.1 2.03692 -0.264365 0
M  V30 2691 H 266.33 3.35406 1.92457 0
M  V30 2692 H 268.019 3.69466 1.68076 0
M  V30 2693 H 268.785 4.82065 -0.53274 0
M  V30 2694 H 264.664 4.56167 0.665812 0
M  V30 2695 H 268.208 6.66016 -2.07531 0
M  V30 2696 H 264.105 6.39621 -0.869199 0
M  V30 2697 H 264.873 7.83601 -2.36455 0
M  V30 2698 N 267.536 -0.106894 1.57237 0
M  V30 2699 C 268.784 -0.810921 1.85117 0
M  V30 2700 C 269.105 -1.7984 0.753827 0
M  V30 2701 O 268.375 -1.94649 -0.221056 0
M  V30 2702 H 266.955 -0.302466 0.683025 0
M  V30 2703 H 269.617 -0.0913324 1.94686 0
M  V30 2704 H 268.713 -1.34875 2.81452 0
M  V30 2705 N 269.014 -1.53014 -0.377408 0
M  V30 2706 C 270.26 -1.68872 -1.12294 0
M  V30 2707 C 270.593 -0.433224 -1.89306 0
M  V30 2708 O 269.868 0.569258 -1.85983 0
M  V30 2709 C 270.151 -2.93115 -2.09179 0
M  V30 2710 C 270.004 -4.28794 -1.35853 0
M  V30 2711 C 271.323 -3.12928 -3.09458 0
M  V30 2712 H 268.442 -0.614518 -0.406862 0
M  V30 2713 H 271.084 -1.85633 -0.40503 0
M  V30 2714 H 269.234 -2.78956 -2.70399 0
M  V30 2715 H 270.906 -4.54742 -0.775082 0
M  V30 2716 H 269.149 -4.28744 -0.660364 0
M  V30 2717 H 269.82 -5.11837 -2.06706 0
M  V30 2718 H 272.296 -3.26194 -2.58334 0
M  V30 2719 H 271.172 -4.01316 -3.74482 0
M  V30 2720 H 271.433 -2.27669 -3.78971 0
M  V30 2721 N 270.492 0.636531 -1.44174 0
M  V30 2722 C 271.903 1.21806 -1.41493 0
M  V30 2723 C 272.254 1.95785 -0.1275 0
M  V30 2724 O 271.379 2.02147 0.772376 0
M  V30 2725 C 271.974 2.21551 -2.56321 0
M  V30 2726 C 270.533 2.75143 -2.56853 0
M  V30 2727 C 269.68 1.50052 -2.33195 0
M  V30 2728 H 272.631 0.427531 -1.52833 0
M  V30 2729 H 272.652 3.0405 -2.28765 0
M  V30 2730 H 272.164 1.67679 -3.50008 0
M  V30 2731 H 270.265 3.33033 -1.67093 0
M  V30 2732 H 270.378 3.2155 -3.55165 0
M  V30 2733 H 268.742 1.77993 -1.82183 0
M  V30 2734 H 269.525 0.980903 -3.28988 0
M  V30 2735 N 271.97 1.30982 0.876444 0
M  V30 2736 C 273.217 1.20296 1.62896 0
M  V30 2737 C 273.545 -0.240395 1.93009 0
M  V30 2738 O 272.8 -1.18733 1.55567 0
M  V30 2739 C 273.099 1.98572 2.9716 0
M  V30 2740 C 272.765 3.48125 2.86566 0
M  V30 2741 C 271.427 3.88905 2.83383 0
M  V30 2742 C 273.779 4.43322 2.74071 0
M  V30 2743 C 271.107 5.2316 2.65556 0
M  V30 2744 C 273.459 5.77695 2.57781 0
M  V30 2745 C 272.123 6.17704 2.52979 0
M  V30 2746 H 271.393 0.440193 0.59608 0
M  V30 2747 H 274.04 1.62177 1.01837 0
M  V30 2748 H 272.345 1.49352 3.62217 0
M  V30 2749 H 274.042 1.8769 3.54364 0
M  V30 2750 H 270.632 3.15723 2.89856 0
M  V30 2751 H 274.816 4.12752 2.75589 0
M  V30 2752 H 270.072 5.53241 2.60259 0
M  V30 2753 H 274.246 6.51091 2.47089 0
M  V30 2754 H 271.873 7.21678 2.38924 0
M  V30 2755 N 273.449 -1.08991 1.13837 0
M  V30 2756 C 274.412 -2.13925 0.822715 0
M  V30 2757 C 275.412 -1.599 -0.1699 0
M  V30 2758 O 276.602 -1.74104 0.0577251 0
M  V30 2759 C 273.734 -3.40155 0.225318 0
M  V30 2760 H 274.927 -2.43358 1.75262 0
M  V30 2761 H 272.48 -1.24603 0.943594 0
M  V30 2762 H 273.215 -3.16352 -0.713594 0
M  V30 2763 H 273 -3.80661 0.940193 0
M  V30 2764 H 274.49 -4.17594 0.0214784 0
M  V30 2765 N 274.927 -0.932562 -1.27047 0
M  V30 2766 C 276.176 -0.571351 -1.93439 0
M  V30 2767 C 276.489 0.892467 -1.74053 0
M  V30 2768 O 277.695 1.36267 -2.34826 0
M  V30 2769 C 276.151 -0.97106 -3.46552 0
M  V30 2770 C 275.759 -2.4559 -3.74686 0
M  V30 2771 C 277.503 -0.681333 -4.18997 0
M  V30 2772 C 275.41 -2.79475 -5.21198 0
M  V30 2773 H 274.34 -0.209966 -0.724176 0
M  V30 2774 H 276.991 -1.13403 -1.44263 0
M  V30 2775 H 275.373 -0.336983 -3.94564 0
M  V30 2776 H 276.547 -3.13829 -3.37414 0
M  V30 2777 H 274.862 -2.71802 -3.15456 0
M  V30 2778 H 277.459 -0.910939 -5.26883 0
M  V30 2779 H 277.802 0.381628 -4.14547 0
M  V30 2780 H 278.335 -1.27473 -3.76823 0
M  V30 2781 H 275.074 -3.847 -5.30741 0
M  V30 2782 H 274.594 -2.1589 -5.596 0
M  V30 2783 H 276.273 -2.67478 -5.89122 0
M  V30 2784 N 276.405 1.4127 -0.698611 0
M  V30 2785 C 277.651 2.01478 -0.231207 0
M  V30 2786 C 277.984 1.55215 1.16713 0
M  V30 2787 O 277.259 0.764672 1.78838 0
M  V30 2788 C 277.542 3.58912 -0.292281 0
M  V30 2789 C 277.395 4.15293 -1.72778 0
M  V30 2790 C 278.714 4.38736 0.346194 0
M  V30 2791 H 275.833 0.732025 -0.0854878 0
M  V30 2792 H 278.475 1.67977 -0.887906 0
M  V30 2793 H 276.625 3.87582 0.26686 0
M  V30 2794 H 278.297 3.97486 -2.341 0
M  V30 2795 H 276.54 3.7022 -2.26096 0
M  V30 2796 H 277.211 5.24452 -1.72202 0
M  V30 2797 H 279.687 4.15897 -0.130035 0
M  V30 2798 H 278.563 5.48221 0.272932 0
M  V30 2799 H 278.824 4.18425 1.42734 0
M  V30 2800 N 277.883 0.443576 1.51229 0
M  V30 2801 C 279.299 0.0962001 1.5931 0
M  V30 2802 C 279.499 -1.39501 1.45402 0
M  V30 2803 O 278.555 -2.16557 1.29843 0
M  V30 2804 C 279.868 0.621875 2.94199 0
M  V30 2805 C 281.416 0.582865 3.07525 0
M  V30 2806 C 281.891 1.08562 4.44948 0
M  V30 2807 N 283.382 1.04387 4.51284 0
M  V30 2808 C 284.117 1.40368 5.55954 0
M  V30 2809 N 283.613 1.83664 6.68011 0
M  V30 2810 N 285.406 1.32145 5.46346 0
M  V30 2811 H 277.557 1.41376 1.58514 0
M  V30 2812 H 279.82 0.582965 0.747567 0
M  V30 2813 H 279.526 1.66546 3.09767 0
M  V30 2814 H 279.4 0.0502125 3.77167 0
M  V30 2815 H 281.787 -0.451749 2.91622 0
M  V30 2816 H 281.868 1.191 2.26382 0
M  V30 2817 H 281.512 2.11873 4.61598 0
M  V30 2818 H 281.442 0.453956 5.2464 0
M  V30 2819 H 283.933 0.725986 3.70861 0
M  V30 2820 H 284.246 2.0934 7.43906 0
M  V30 2821 H 282.591 1.87596 6.69203 0
M  V30 2822 H 285.782 0.981808 4.57688 0
M  V30 2823 H 285.955 1.60514 6.27805 0
M  V30 2824 N 279.361 -1.56624 0.175154 0
M  V30 2825 C 280.609 -1.96609 -0.467885 0
M  V30 2826 C 280.93 -1.06238 -1.63519 0
M  V30 2827 O 280.2 -0.129523 -1.95471 0
M  V30 2828 H 278.78 -0.726008 -0.175845 0
M  V30 2829 H 281.442 -1.93195 0.257234 0
M  V30 2830 H 280.538 -3.00989 -0.825342 0
M  V30 2831 N 280.839 0.0985539 -1.57292 0
M  V30 2832 C 282.255 0.45267 -1.53046 0
M  V30 2833 C 282.455 1.80713 -0.891342 0
M  V30 2834 O 281.511 2.4785 -0.482375 0
M  V30 2835 C 282.824 0.418341 -2.97776 0
M  V30 2836 C 284.372 0.500443 -3.08973 0
M  V30 2837 C 284.847 0.496297 -4.55303 0
M  V30 2838 N 286.338 0.557151 -4.59837 0
M  V30 2839 C 287.073 0.575726 -5.70502 0
M  V30 2840 N 286.569 0.550714 -6.90608 0
M  V30 2841 N 288.362 0.620277 -5.58667 0
M  V30 2842 H 280.513 -0.788673 -1.97215 0
M  V30 2843 H 282.776 -0.293188 -0.901524 0
M  V30 2844 H 282.482 -0.509659 -3.47988 0
M  V30 2845 H 282.356 1.2386 -3.56284 0
M  V30 2846 H 284.743 1.41886 -2.58751 0
M  V30 2847 H 284.824 -0.347894 -2.53423 0
M  V30 2848 H 284.468 -0.418162 -5.06176 0
M  V30 2849 H 284.398 1.3618 -5.08687 0
M  V30 2850 H 286.889 0.581816 -3.73394 0
M  V30 2851 H 287.202 0.568075 -7.70709 0
M  V30 2852 H 285.547 0.517816 -6.93068 0
M  V30 2853 H 288.738 0.637322 -4.63741 0
M  V30 2854 H 288.911 0.631283 -6.44918 0
M  V30 2855 N 282.317 1.53212 0.369288 0
M  V30 2856 C 283.247 1.82365 1.45826 0
M  V30 2857 C 284.228 0.676907 1.56051 0
M  V30 2858 O 285.413 0.926401 1.70679 0
M  V30 2859 C 282.543 2.01023 2.83208 0
M  V30 2860 C 281.497 3.1678 2.8781 0
M  V30 2861 C 280.823 3.20724 4.27832 0
M  V30 2862 C 282.123 4.55447 2.55667 0
M  V30 2863 H 283.817 2.73559 1.21678 0
M  V30 2864 H 281.363 1.3163 0.583911 0
M  V30 2865 H 283.316 2.20001 3.59413 0
M  V30 2866 H 282.04 1.06536 3.08736 0
M  V30 2867 H 280.699 2.97616 2.14056 0
M  V30 2868 H 280.347 2.23882 4.50429 0
M  V30 2869 H 280.047 3.98496 4.31827 0
M  V30 2870 H 281.571 3.41881 5.05915 0
M  V30 2871 H 282.985 4.74611 3.21586 0
M  V30 2872 H 281.382 5.35432 2.70984 0
M  V30 2873 H 282.452 4.60812 1.5093 0
M  V30 2874 N 283.795 -0.628877 1.44509 0
M  V30 2875 C 285.043 -1.38565 1.4712 0
M  V30 2876 C 285.364 -1.94712 0.105899 0
M  V30 2877 O 284.634 -1.75912 -0.862079 0
M  V30 2878 H 283.214 -0.514333 0.541729 0
M  V30 2879 H 285.876 -0.740018 1.80305 0
M  V30 2880 H 284.972 -2.21583 2.19789 0
M  V30 2881 N 285.273 -1.31445 -0.869486 0
M  V30 2882 C 286.521 -1.20918 -1.61936 0
M  V30 2883 C 286.842 0.232683 -1.93607 0
M  V30 2884 O 286.112 1.15352 -1.58338 0
M  V30 2885 H 284.692 -0.44454 -0.600328 0
M  V30 2886 H 287.354 -1.64776 -1.0409 0
M  V30 2887 H 286.45 -1.78124 -2.56278 0
M  V30 2888 N 286.751 1.08385 -1.14413 0
M  V30 2889 C 287.976 1.85057 -0.936413 0
M  V30 2890 C 288.401 1.81055 0.509971 0
M  V30 2891 O 287.759 1.1958 1.36273 0
M  V30 2892 C 287.807 3.30505 -1.44217 0
M  V30 2893 O 286.911 4.07491 -0.634409 0
M  V30 2894 H 286.252 0.573425 -0.334784 0
M  V30 2895 H 288.782 1.36799 -1.52142 0
M  V30 2896 H 288.792 3.81348 -1.45043 0
M  V30 2897 H 287.467 3.32734 -2.49522 0
M  V30 2898 H 286.044 3.66368 -0.694902 0
M  V30 2899 N 288.23 0.939286 1.26551 0
M  V30 2900 C 289.193 0.451987 2.24699 0
M  V30 2901 C 290.193 -0.435869 1.5478 0
M  V30 2902 O 291.383 -0.235314 1.72603 0
M  V30 2903 C 288.515 -0.348801 3.39111 0
M  V30 2904 H 289.708 1.3193 2.69322 0
M  V30 2905 H 287.261 0.721072 1.38673 0
M  V30 2906 H 287.996 -1.23444 2.99887 0
M  V30 2907 H 287.781 0.287945 3.91041 0
M  V30 2908 H 289.271 -0.679726 4.12031 0
M  V30 2909 N 289.708 -1.40897 0.706093 0
M  V30 2910 C 290.641 -2.282 -0.00328781 0
M  V30 2911 C 291.619 -1.42816 -0.77732 0
M  V30 2912 O 292.803 -1.72237 -0.765944 0
M  V30 2913 C 289.93 -3.23226 -1.01205 0
M  V30 2914 C 288.976 -4.25222 -0.329955 0
M  V30 2915 S 289.809 -5.27269 0.935298 0
M  V30 2916 C 290.965 -6.25859 -0.0716061 0
M  V30 2917 H 291.198 -2.88016 0.737143 0
M  V30 2918 H 288.731 -1.46191 0.496756 0
M  V30 2919 H 290.689 -3.78503 -1.58888 0
M  V30 2920 H 289.35 -2.62485 -1.72513 0
M  V30 2921 H 288.543 -4.92023 -1.09221 0
M  V30 2922 H 288.145 -3.73595 0.174069 0
M  V30 2923 H 290.437 -6.71204 -0.921521 0
M  V30 2924 H 291.38 -7.0586 0.562765 0
M  V30 2925 H 291.788 -5.62852 -0.431088 0
M  V30 2926 N 291.186 -0.45159 -1.50991 0
M  V30 2927 C 292.414 0.108334 -2.06616 0
M  V30 2928 C 292.829 1.35224 -1.31757 0
M  V30 2929 O 292.186 1.78475 -0.381174 0
M  V30 2930 C 292.237 0.41619 -3.59096 0
M  V30 2931 O 291.958 -0.778361 -4.3113 0
M  V30 2932 C 293.459 1.02523 -4.31282 0
M  V30 2933 H 290.679 0.00159995 -0.670998 0
M  V30 2934 H 293.223 -0.634771 -1.94399 0
M  V30 2935 H 291.378 1.10921 -3.71181 0
M  V30 2936 H 291.792 -0.511181 -5.22003 0
M  V30 2937 H 293.266 1.19053 -5.39009 0
M  V30 2938 H 293.743 2.01013 -3.905 0
M  V30 2939 H 294.349 0.371173 -4.23677 0
M  V30 2940 N 292.664 1.56529 -0.183458 0
M  V30 2941 C 293.627 2.17324 0.728223 0
M  V30 2942 C 294.627 1.12453 1.14939 0
M  V30 2943 O 295.817 1.37902 1.06437 0
M  V30 2944 C 292.949 2.76591 1.99274 0
M  V30 2945 H 294.142 2.99241 0.198772 0
M  V30 2946 H 291.695 1.5616 0.0661391 0
M  V30 2947 H 292.43 1.98441 2.56499 0
M  V30 2948 H 292.215 3.5335 1.69959 0
M  V30 2949 H 293.705 3.23311 2.6431 0
M  V30 2950 N 294.142 -0.090211 1.57342 0
M  V30 2951 C 295.105 -1.09335 2.01441 0
M  V30 2952 C 296.105 -1.32666 0.908641 0
M  V30 2953 O 297.295 -1.28697 1.174 0
M  V30 2954 C 294.427 -2.44136 2.3793 0
M  V30 2955 H 295.62 -0.713662 2.91285 0
M  V30 2956 H 293.173 -0.335404 1.52659 0
M  V30 2957 H 293.908 -2.86972 1.51055 0
M  V30 2958 H 293.693 -2.28548 3.18603 0
M  V30 2959 H 295.183 -3.16277 2.72688 0
M  V30 2960 N 295.62 -1.53406 -0.361157 0
M  V30 2961 C 296.583 -1.79479 -1.42548 0
M  V30 2962 C 297.583 -0.665327 -1.4639 0
M  V30 2963 O 298.773 -0.933549 -1.47073 0
M  V30 2964 C 295.905 -1.92087 -2.8163 0
M  V30 2965 H 297.098 -2.74538 -1.20701 0
M  V30 2966 H 294.651 -1.4455 -0.594546 0
M  V30 2967 H 295.386 -0.991099 -3.08784 0
M  V30 2968 H 295.171 -2.74241 -2.80239 0
M  V30 2969 H 296.661 -2.13836 -3.58697 0
M  V30 2970 N 297.098 0.621204 -1.44841 0
M  V30 2971 C 298.028 1.74366 -1.55303 0
M  V30 2972 C 299.009 1.65199 -0.405385 0
M  V30 2973 O 300.194 1.83807 -0.626787 0
M  V30 2974 C 297.324 3.12931 -1.50637 0
M  V30 2975 C 296.278 3.36896 -2.63979 0
M  V30 2976 C 295.604 4.75594 -2.44366 0
M  V30 2977 C 296.904 3.28483 -4.06074 0
M  V30 2978 H 298.598 1.65867 -2.49256 0
M  V30 2979 H 296.144 0.796558 -1.19962 0
M  V30 2980 H 298.097 3.9124 -1.56555 0
M  V30 2981 H 296.821 3.22237 -0.532057 0
M  V30 2982 H 295.48 2.60972 -2.57467 0
M  V30 2983 H 295.128 4.81616 -1.45105 0
M  V30 2984 H 294.828 4.92586 -3.20364 0
M  V30 2985 H 296.352 5.5612 -2.52117 0
M  V30 2986 H 297.766 3.96684 -4.13902 0
M  V30 2987 H 296.163 3.57008 -4.82354 0
M  V30 2988 H 297.233 2.26133 -4.28943 0
M  V30 2989 N 298.576 1.31904 0.862503 0
M  V30 2990 C 299.524 1.20125 1.9918 0
M  V30 2991 C 300.518 0.107824 1.69056 0
M  V30 2992 O 301.724 0.270223 1.7796 0
M  V30 2993 H 298.099 0.372148 0.65346 0
M  V30 2994 H 300.07 2.15652 2.06244 0
M  V30 2995 C 298.819 0.933099 3.34946 0
M  V30 2996 H 298.142 1.76664 3.5865 0
M  V30 2997 H 299.582 0.890892 4.14535 0
M  V30 2998 C 298.041 -0.364172 3.34926 0
M  V30 2999 O 298.571 -1.37858 3.77304 0
M  V30 3000 N 296.777 -0.383362 2.8806 0
M  V30 3001 H 296.324 0.442651 2.53768 0
M  V30 3002 H 296.282 -1.25123 2.8843 0
M  V30 3003 N 300.054 -1.07777 1.14986 0
M  V30 3004 C 301.279 -1.84558 0.946213 0
M  V30 3005 C 301.704 -1.81323 -0.500362 0
M  V30 3006 O 301.062 -1.20301 -1.35637 0
M  V30 3007 C 301.11 -3.29736 1.45968 0
M  V30 3008 O 300.214 -4.07149 0.65601 0
M  V30 3009 H 299.555 -0.571641 0.33782 0
M  V30 3010 H 302.085 -1.35991 1.52865 0
M  V30 3011 H 302.095 -3.80574 1.47063 0
M  V30 3012 H 300.77 -3.31406 2.51283 0
M  V30 3013 H 299.347 -3.65994 0.714322 0
M  V30 3014 N 301.532 -0.945985 -1.26051 0
M  V30 3015 C 302.462 -0.477172 -2.28572 0
M  V30 3016 C 303.443 0.472032 -1.63419 0
M  V30 3017 O 304.628 0.372853 -1.90587 0
M  V30 3018 C 301.758 0.253975 -3.4637 0
M  V30 3019 C 300.712 -0.609135 -4.23643 0
M  V30 3020 C 300.038 0.252252 -5.34105 0
M  V30 3021 C 301.338 -1.8829 -4.8718 0
M  V30 3022 H 303.032 -1.33402 -2.68038 0
M  V30 3023 H 300.578 -0.642904 -1.28852 0
M  V30 3024 H 302.531 0.593016 -4.17207 0
M  V30 3025 H 301.255 1.145 -3.05871 0
M  V30 3026 H 299.914 -0.931138 -3.54578 0
M  V30 3027 H 299.562 1.14278 -4.89846 0
M  V30 3028 H 299.262 -0.32188 -5.86718 0
M  V30 3029 H 300.786 0.586454 -6.07777 0
M  V30 3030 H 302.2 -1.61081 -5.50205 0
M  V30 3031 H 300.597 -2.40199 -5.49931 0
M  V30 3032 H 301.667 -2.59134 -4.09851 0
M  V30 3033 N 303.011 1.40521 -0.713556 0
M  V30 3034 C 303.974 2.29098 -0.0684347 0
M  V30 3035 C 304.974 1.45268 0.689472 0
M  V30 3036 O 306.164 1.66205 0.521677 0
M  V30 3037 C 303.296 3.28446 0.913024 0
M  V30 3038 H 304.489 2.87645 -0.84855 0
M  V30 3039 H 302.042 1.48809 -0.47809 0
M  V30 3040 H 302.777 2.74913 1.72027 0
M  V30 3041 H 302.562 3.90327 0.372472 0
M  V30 3042 H 304.052 3.94777 1.36165 0
M  V30 3043 N 304.489 0.459591 1.5075 0
M  V30 3044 C 305.905 0.113092 1.59199 0
M  V30 3045 C 306.105 -1.37951 1.46874 0
M  V30 3046 O 305.161 -2.15168 1.32132 0
M  V30 3047 C 306.474 0.653043 2.93523 0
M  V30 3048 C 308.022 0.615449 3.0689 0
M  V30 3049 C 308.497 1.13275 4.43771 0
M  V30 3050 N 309.988 1.09167 4.50152 0
M  V30 3051 C 310.723 1.46256 5.54434 0
M  V30 3052 N 310.219 1.90739 6.66026 0
M  V30 3053 N 312.012 1.37932 5.44914 0
M  V30 3054 H 304.163 1.43049 1.57005 0
M  V30 3055 H 306.426 0.590861 0.741341 0
M  V30 3056 H 306.132 1.69822 3.07983 0
M  V30 3057 H 306.006 0.0902132 3.77092 0
M  V30 3058 H 308.393 -0.420793 2.92084 0
M  V30 3059 H 308.474 1.21495 2.25106 0
M  V30 3060 H 308.118 2.16757 4.59324 0
M  V30 3061 H 308.048 0.509576 5.24129 0
M  V30 3062 H 310.539 0.76528 3.7007 0
M  V30 3063 H 310.852 2.17218 7.41644 0
M  V30 3064 H 309.197 1.94683 6.67176 0
M  V30 3065 H 312.388 1.0303 4.56621 0
M  V30 3066 H 312.561 1.67164 6.26067 0
M  V30 3067 N 305.967 -1.56429 0.191757 0
M  V30 3068 C 307.378 -1.83912 -0.321428 0
M  V30 3069 C 307.729 -1.11231 -1.61623 0
M  V30 3070 O 306.854 -0.37202 -2.13178 0
M  V30 3071 C 307.449 -3.33624 -0.589961 0
M  V30 3072 C 306.008 -3.6153 -1.04753 0
M  V30 3073 C 305.155 -2.7714 -0.0943327 0
M  V30 3074 H 308.106 -1.53161 0.415612 0
M  V30 3075 H 308.127 -3.52213 -1.43966 0
M  V30 3076 H 307.639 -3.86495 0.352588 0
M  V30 3077 H 305.74 -3.14089 -2.00447 0
M  V30 3078 H 305.853 -4.69737 -0.942549 0
M  V30 3079 H 304.217 -2.47638 -0.595589 0
M  V30 3080 H 305 -3.32799 0.842601 0
M  V30 3081 N 307.445 0.0818655 -1.57387 0
M  V30 3082 C 308.693 0.781368 -1.86384 0
M  V30 3083 C 309.014 1.78618 -0.782342 0
M  V30 3084 O 308.284 1.94976 0.190061 0
M  V30 3085 H 306.864 0.291562 -0.687751 0
M  V30 3086 H 309.526 0.060348 -1.94807 0
M  V30 3087 H 308.622 1.3038 -2.83562 0
M  V30 3088 N 308.923 1.53595 0.353017 0
M  V30 3089 C 309.853 1.83902 1.43883 0
M  V30 3090 C 310.834 0.693421 1.55324 0
M  V30 3091 O 312.019 0.944452 1.69687 0
M  V30 3092 C 309.149 2.04016 2.8106 0
M  V30 3093 C 308.103 3.19814 2.84434 0
M  V30 3094 C 307.429 3.25244 4.24406 0
M  V30 3095 C 308.729 4.58133 2.50822 0
M  V30 3096 H 310.423 2.74835 1.1877 0
M  V30 3097 H 307.969 1.32242 0.569917 0
M  V30 3098 H 309.922 2.238 3.57059 0
M  V30 3099 H 308.646 1.09804 3.07588 0
M  V30 3100 H 307.305 2.9987 2.10887 0
M  V30 3101 H 306.953 2.28646 4.48029 0
M  V30 3102 H 306.653 4.03054 4.27576 0
M  V30 3103 H 308.177 3.47228 5.0226 0
M  V30 3104 H 309.591 4.77995 3.16534 0
M  V30 3105 H 307.988 5.38276 2.6529 0
M  V30 3106 H 309.058 4.62387 1.46034 0
M  V30 3107 O 310.44 -0.498996 1.53598 0
M  V30 3108 H 311.131 -1.15384 1.55584 0
M  V30 END ATOM
M  V30 BEGIN BOND
M  V30 END BOND
M  V30 END CTAB
M  END
$$$$
