drugbank_target|P21796 Voltage-dependent anion-selective channel protein 1 (DB01375; DB09061; DB14009; DB14011)
 OpenBabel12092120223D

  0  0  0     0  0            999 V3000
M  V30 BEGIN CTAB
M  V30 COUNTS 4316 4357 0 0 0
M  V30 BEGIN ATOM
M  V30 1 H -0.908 1.98254 -0.117106 0
M  V30 2 N 0 1.576 0 0
M  V30 3 C 0.933 2.03868 1.02534 0
M  V30 4 C 1.911 0.928543 1.3348 0
M  V30 5 O 3.095 1.19667 1.45644 0
M  V30 6 C 0.222 2.43627 2.35294 0
M  V30 7 C -0.732 3.65373 2.2001 0
M  V30 8 S 0.101 5.13292 1.52614 0
M  V30 9 C 1.257 5.56322 2.86805 0
M  V30 10 H 1.49 2.90518 0.631377 0
M  V30 11 H -0.977 1.52953 0.210867 0
M  V30 12 H 0.981 2.67203 3.11629 0
M  V30 13 H -0.358 1.57376 2.7183 0
M  V30 14 H -1.165 3.90944 3.18086 0
M  V30 15 H -1.563 3.418 1.51819 0
M  V30 16 H 0.729 5.58782 3.83104 0
M  V30 17 H 1.672 6.56266 2.65933 0
M  V30 18 H 2.08 4.83886 2.90714 0
M  V30 19 N 1.4781 -0.272755 1.55222 0
M  V30 20 C 2.4411 -1.32041 1.87344 0
M  V30 21 C 3.4411 -1.42342 0.74803 0
M  V30 22 O 4.6311 -1.41488 1.0162 0
M  V30 23 C 1.7631 -2.70173 2.07893 0
M  V30 24 H 2.9561 -1.04789 2.80997 0
M  V30 25 H 0.5091 -0.51083 1.47717 0
M  V30 26 H 1.2441 -3.02605 1.16622 0
M  V30 27 H 1.0291 -2.64082 2.89833 0
M  V30 28 H 2.5191 -3.45869 2.34017 0
M  V30 29 N 2.9562 -1.48159 -0.537278 0
M  V30 30 C 4.2022 -1.56035 -1.29541 0
M  V30 31 C 4.5352 -0.230377 -1.92829 0
M  V30 32 O 3.8102 0.762952 -1.78911 0
M  V30 33 C 4.0932 -2.69323 -2.39034 0
M  V30 34 C 3.9462 -4.12002 -1.80485 0
M  V30 35 C 5.2652 -2.78408 -3.40847 0
M  V30 36 H 2.3842 -0.567992 -0.469632 0
M  V30 37 H 5.0262 -1.80302 -0.599277 0
M  V30 38 H 3.1762 -2.48763 -2.98412 0
M  V30 39 H 4.8482 -4.43981 -1.25215 0
M  V30 40 H 3.0912 -4.19344 -1.11055 0
M  V30 41 H 3.7622 -4.87077 -2.59731 0
M  V30 42 H 6.2382 -2.97012 -2.91416 0
M  V30 43 H 5.1142 -3.59416 -4.14863 0
M  V30 44 H 5.3752 -1.86269 -4.00944 0
M  V30 45 N 4.4343 0.785586 -1.36625 0
M  V30 46 C 5.8453 1.36101 -1.27803 0
M  V30 47 C 6.1963 1.96035 0.0804875 0
M  V30 48 O 5.3213 1.92834 0.982042 0
M  V30 49 C 5.9163 2.47442 -2.31426 0
M  V30 50 C 4.4753 3.00789 -2.26281 0
M  V30 51 C 3.6223 1.73896 -2.15999 0
M  V30 52 H 6.5733 0.586928 -1.47448 0
M  V30 53 H 6.5943 3.2656 -1.95291 0
M  V30 54 H 6.1063 2.03791 -3.30289 0
M  V30 55 H 4.2073 3.48851 -1.30896 0
M  V30 56 H 4.3203 3.57343 -3.19128 0
M  V30 57 H 2.6843 1.9628 -1.62316 0
M  V30 58 H 3.4673 1.32368 -3.16755 0
M  V30 59 N 5.9124 1.20967 1.01018 0
M  V30 60 C 7.3234 1.02319 1.56165 0
M  V30 61 C 7.6744 -0.418546 1.91684 0
M  V30 62 O 6.7994 -1.30096 1.72928 0
M  V30 63 C 7.3944 1.85109 2.8376 0
M  V30 64 C 5.9534 1.70809 3.35412 0
M  V30 65 C 5.1004 1.82643 2.08655 0
M  V30 66 H 8.0514 1.35065 0.833255 0
M  V30 67 H 8.0724 1.35827 3.55431 0
M  V30 68 H 7.5844 2.90035 2.57878 0
M  V30 69 H 5.6854 0.685464 3.66241 0
M  V30 70 H 5.7984 2.52467 4.07182 0
M  V30 71 H 4.1624 1.25896 2.21409 0
M  V30 72 H 4.9454 2.89066 1.85191 0
M  V30 73 N 7.3905 -1.2043 1.01659 0
M  V30 74 C 8.6185 -1.93777 0.725132 0
M  V30 75 C 9.0335 -1.74772 -0.714166 0
M  V30 76 O 8.3905 -1.06169 -1.4844 0
M  V30 77 C 8.4415 -3.45876 1.05129 0
M  V30 78 O 8.1625 -3.6426 2.43406 0
M  V30 79 C 9.6635 -4.36368 0.780891 0
M  V30 80 H 6.8835 -0.615901 0.266284 0
M  V30 81 H 9.4275 -1.52922 1.35776 0
M  V30 82 H 7.5825 -3.8461 0.464065 0
M  V30 83 H 7.9965 -4.58246 2.55169 0
M  V30 84 H 9.4705 -5.41743 1.05918 0
M  V30 85 H 9.9475 -4.38275 -0.284937 0
M  V30 86 H 10.5535 -4.03296 1.35027 0
M  V30 87 N 8.8686 -0.792821 -1.36206 0
M  V30 88 C 10.0986 -0.378275 -2.03107 0
M  V30 89 C 10.5066 1.01119 -1.59911 0
M  V30 90 O 9.8496 1.66052 -0.785658 0
M  V30 91 C 9.9116 -0.366535 -3.57627 0
M  V30 92 C 9.5756 -1.70416 -4.24037 0
M  V30 93 C 10.5726 -2.6602 -4.46687 0
M  V30 94 C 8.2576 -1.98439 -4.6144 0
M  V30 95 C 10.2516 -3.8784 -5.05825 0
M  V30 96 C 7.9386 -3.20525 -5.20295 0
M  V30 97 C 8.9366 -4.15044 -5.42427 0
M  V30 98 O 8.6246 -5.34978 -6.00045 0
M  V30 99 H 8.3566 -0.153543 -0.658332 0
M  V30 100 H 10.9106 -1.07383 -1.75094 0
M  V30 101 H 9.1406 0.385539 -3.84773 0
M  V30 102 H 10.8296 0.0238088 -4.05893 0
M  V30 103 H 11.5956 -2.45658 -4.18183 0
M  V30 104 H 7.4746 -1.25686 -4.43536 0
M  V30 105 H 11.0186 -4.61628 -5.23015 0
M  V30 106 H 6.9156 -3.40764 -5.48225 0
M  V30 107 H 7.6836 -5.36088 -6.18508 0
M  V30 108 N 10.3467 1.47872 -0.545128 0
M  V30 109 C 11.3097 2.28337 0.198717 0
M  V30 110 C 12.3097 1.36255 0.853888 0
M  V30 111 O 13.4997 1.59003 0.711606 0
M  V30 112 C 10.6317 3.15585 1.28915 0
M  V30 113 H 11.8247 2.95567 -0.507941 0
M  V30 114 H 9.3777 1.53362 -0.301616 0
M  V30 115 H 10.1127 2.53019 2.02859 0
M  V30 116 H 9.8977 3.83337 0.824309 0
M  V30 117 H 11.3877 3.76243 1.81194 0
M  V30 118 N 11.8248 0.280983 1.55075 0
M  V30 119 C 13.1018 -0.386207 1.91749 0
M  V30 120 C 13.4818 -1.73264 1.20594 0
M  V30 121 O 12.8298 -2.26034 0.334784 0
M  V30 122 C 13.0398 -0.520687 3.45094 0
M  V30 123 C 14.3878 -0.800865 4.16979 0
M  V30 124 O 15.4118 -0.605271 3.5102 0
M  V30 125 O 14.2708 -1.1753 5.33712 0
M  V30 126 H 11.3648 -0.212408 0.799257 0
M  V30 127 H 13.9108 0.327568 1.66509 0
M  V30 128 H 12.6828 0.426633 3.88967 0
M  V30 129 H 12.3058 -1.2837 3.76307 0
M  V30 130 N 13.3029 -1.57598 0.00835791 0
M  V30 131 C 14.2329 -2.1198 -0.979113 0
M  V30 132 C 15.2139 -1.03091 -1.35301 0
M  V30 133 O 16.3989 -1.30818 -1.43528 0
M  V30 134 C 13.5289 -2.62995 -2.26828 0
M  V30 135 C 12.4829 -3.76485 -2.03576 0
M  V30 136 C 11.8089 -4.13846 -3.38579 0
M  V30 137 C 13.1089 -5.0342 -1.39161 0
M  V30 138 H 14.8029 -2.94738 -0.526281 0
M  V30 139 H 12.3489 -1.41783 -0.251704 0
M  V30 140 H 14.3019 -2.99669 -2.96271 0
M  V30 141 H 13.0259 -1.7737 -2.7424 0
M  V30 142 H 11.6849 -3.40217 -1.36557 0
M  V30 143 H 11.3329 -3.25232 -3.83709 0
M  V30 144 H 11.0329 -4.90312 -3.23834 0
M  V30 145 H 12.5569 -4.53086 -4.09323 0
M  V30 146 H 13.9709 -5.37812 -1.98573 0
M  V30 147 H 12.3679 -5.84746 -1.34878 0
M  V30 148 H 13.4379 -4.83548 -0.361868 0
M  V30 149 N 14.781 0.264519 -1.55364 0
M  V30 150 C 16.029 0.993021 -1.76021 0
M  V30 151 C 16.35 1.86511 -0.569099 0
M  V30 152 O 15.62 1.91438 0.415735 0
M  V30 153 H 14.2 0.369639 -0.649135 0
M  V30 154 H 16.862 0.286707 -1.9278 0
M  V30 155 H 15.958 1.62502 -2.66457 0
M  V30 156 N 16.2591 1.48442 0.529413 0
M  V30 157 C 17.2061 1.63007 1.63394 0
M  V30 158 C 18.1761 0.47212 1.59249 0
M  V30 159 O 19.3611 0.695673 1.77666 0
M  V30 160 C 16.5011 1.6763 3.01653 0
M  V30 161 C 15.6141 2.94535 3.16027 0
M  V30 162 C 14.7491 2.90316 4.44849 0
M  V30 163 C 13.7881 4.11923 4.52754 0
M  V30 164 N 12.9251 4.05777 5.72965 0
M  V30 165 H 17.7651 2.5733 1.50285 0
M  V30 166 H 15.3021 1.27613 0.731656 0
M  V30 167 H 17.2601 1.68292 3.81751 0
M  V30 168 H 15.8901 0.76797 3.13532 0
M  V30 169 H 14.9421 3.03615 2.29177 0
M  V30 170 H 16.2541 3.84512 3.17729 0
M  V30 171 H 15.4081 2.89382 5.33238 0
M  V30 172 H 14.1471 1.98068 4.45668 0
M  V30 173 H 13.1521 4.13131 3.62771 0
M  V30 174 H 14.3771 5.0533 4.53672 0
M  V30 175 H 12.3231 3.16351 5.74681 0
M  V30 176 H 12.2401 4.8946 5.76164 0
M  V30 177 H 13.5081 4.08904 6.6364 0
M  V30 178 N 17.7372 -0.778329 1.37039 0
M  V30 179 C 18.9622 -1.57248 1.35233 0
M  V30 180 C 19.3872 -1.87999 -0.0615568 0
M  V30 181 O 18.7452 -1.48734 -1.03672 0
M  V30 182 C 18.7932 -2.86353 2.19167 0
M  V30 183 O 17.8972 -3.80442 1.59178 0
M  V30 184 H 17.2382 -0.476569 0.462362 0
M  V30 185 H 19.7682 -0.963853 1.80474 0
M  V30 186 H 19.7782 -3.35519 2.32145 0
M  V30 187 H 18.4532 -2.63299 3.21942 0
M  V30 188 H 17.0302 -3.39067 1.55203 0
M  V30 189 N 19.2153 -1.21501 -1.00376 0
M  V30 190 C 20.1783 -0.976927 -2.07337 0
M  V30 191 C 21.1783 0.0525322 -1.60714 0
M  V30 192 O 22.3683 -0.184869 -1.73216 0
M  V30 193 C 19.5003 -0.473423 -3.37597 0
M  V30 194 H 20.6933 -1.92587 -2.29892 0
M  V30 195 H 18.2463 -1.03217 -1.17371 0
M  V30 196 H 18.9813 0.480379 -3.20722 0
M  V30 197 H 18.7663 -1.216 -3.72768 0
M  V30 198 H 20.2563 -0.32675 -4.1632 0
M  V30 199 N 20.6934 1.19889 -1.02296 0
M  V30 200 C 22.1094 1.41462 -0.738954 0
M  V30 201 C 22.3094 1.89721 0.678846 0
M  V30 202 O 21.3654 2.07016 1.4457 0
M  V30 203 C 22.6784 2.43083 -1.77005 0
M  V30 204 C 24.2264 2.5684 -1.78892 0
M  V30 205 C 24.7014 3.61709 -2.80945 0
M  V30 206 N 26.1924 3.69199 -2.79725 0
M  V30 207 C 26.9274 4.50019 -3.55345 0
M  V30 208 N 26.4234 5.34592 -4.40662 0
M  V30 209 N 28.2164 4.44612 -3.43914 0
M  V30 210 H 20.3674 0.868827 -1.93817 0
M  V30 211 H 22.6304 0.44399 -0.837602 0
M  V30 212 H 22.3364 2.14636 -2.78612 0
M  V30 213 H 22.2104 3.4217 -1.58744 0
M  V30 214 H 24.5974 2.84614 -0.779674 0
M  V30 215 H 24.6784 1.57927 -2.01228 0
M  V30 216 H 24.3224 3.34678 -3.82038 0
M  V30 217 H 24.2524 4.60259 -2.5587 0
M  V30 218 H 26.7434 3.08794 -2.17842 0
M  V30 219 H 27.0564 5.93363 -4.95116 0
M  V30 220 H 25.4014 5.34073 -4.44737 0
M  V30 221 H 28.5924 3.7758 -2.76679 0
M  V30 222 H 28.7654 5.0736 -4.031 0
M  V30 223 N 22.1715 0.800033 1.35784 0
M  V30 224 C 23.4485 0.30088 1.93272 0
M  V30 225 C 23.8285 -1.20857 1.73081 0
M  V30 226 O 23.1765 -2.00502 1.09596 0
M  V30 227 C 23.3865 0.70511 3.41803 0
M  V30 228 C 24.7345 0.690871 4.18942 0
M  V30 229 O 25.7585 0.646244 3.50289 0
M  V30 230 O 24.6175 0.74332 5.41421 0
M  V30 231 H 21.7115 0.0771605 0.823393 0
M  V30 232 H 24.2575 0.88329 1.449 0
M  V30 233 H 23.0295 1.74571 3.50201 0
M  V30 234 H 22.6525 0.0971541 3.97481 0
M  V30 235 N 23.6496 -1.47581 0.552962 0
M  V30 236 C 24.8956 -2.02782 0.0273648 0
M  V30 237 C 25.2286 -1.42687 -1.31734 0
M  V30 238 O 24.5036 -0.580897 -1.85623 0
M  V30 239 C 24.7866 -3.60031 -0.0702371 0
M  V30 240 C 24.6396 -4.30566 1.30126 0
M  V30 241 C 25.9586 -4.33028 -0.785771 0
M  V30 242 H 23.0776 -0.736912 0.0114185 0
M  V30 243 H 25.7196 -1.76056 0.714432 0
M  V30 244 H 23.8696 -3.82932 -0.655382 0
M  V30 245 H 25.5416 -4.19018 1.92929 0
M  V30 246 H 23.7846 -3.91086 1.87709 0
M  V30 247 H 24.4556 -5.39114 1.18573 0
M  V30 248 H 26.9316 -4.15095 -0.288982 0
M  V30 249 H 25.8076 -5.42695 -0.823013 0
M  V30 250 H 26.0686 -4.01945 -1.841 0
M  V30 251 N 25.1277 -0.289203 -1.54924 0
M  V30 252 C 26.3747 0.323519 -1.99899 0
M  V30 253 C 26.7027 1.54797 -1.17762 0
M  V30 254 O 25.9577 1.94237 -0.238835 0
M  V30 255 C 26.2567 0.736119 -3.49737 0
M  V30 256 C 25.9227 -0.385276 -4.49251 0
M  V30 257 C 24.5847 -0.693156 -4.76181 0
M  V30 258 C 26.9367 -1.14021 -5.08575 0
M  V30 259 C 24.2647 -1.7593 -5.59701 0
M  V30 260 C 26.6167 -2.19619 -5.93254 0
M  V30 261 C 25.2807 -2.51026 -6.185 0
M  V30 262 H 24.5507 0.118384 -0.731482 0
M  V30 263 H 27.1977 -0.405847 -1.8715 0
M  V30 264 H 25.5027 1.54539 -3.60035 0
M  V30 265 H 27.1997 1.22118 -3.81953 0
M  V30 266 H 23.7897 -0.135202 -4.28387 0
M  V30 267 H 27.9737 -0.915611 -4.87781 0
M  V30 268 H 23.2297 -2.0075 -5.77503 0
M  V30 269 H 27.4037 -2.78581 -6.38252 0
M  V30 270 H 25.0307 -3.33772 -6.83008 0
M  V30 271 N 26.6058 1.57591 -0.0167156 0
M  V30 272 C 27.8338 1.95575 0.675128 0
M  V30 273 C 28.2488 0.892542 1.6637 0
M  V30 274 O 27.6058 -0.126912 1.82058 0
M  V30 275 C 27.6568 3.33608 1.39239 0
M  V30 276 O 27.3778 4.3585 0.443444 0
M  V30 277 C 28.8788 3.86151 2.17721 0
M  V30 278 H 26.0988 0.644423 0.186978 0
M  V30 279 H 28.6428 2.0437 -0.0728 0
M  V30 280 H 26.7978 3.2607 2.09182 0
M  V30 281 H 27.2118 5.158 0.951358 0
M  V30 282 H 28.6858 4.85114 2.63379 0
M  V30 283 H 29.1628 3.19738 3.01105 0
M  V30 284 H 29.7688 3.96918 1.52761 0
M  V30 285 N 28.0839 -0.256276 1.55502 0
M  V30 286 C 29.0309 -1.31714 1.89526 0
M  V30 287 C 30.0009 -1.4828 0.748479 0
M  V30 288 O 31.1859 -1.62416 1.00128 0
M  V30 289 C 28.3259 -2.66933 2.18725 0
M  V30 290 C 27.4389 -2.58452 3.4616 0
M  V30 291 C 26.5739 -3.85961 3.64976 0
M  V30 292 C 25.6129 -3.72059 4.86044 0
M  V30 293 N 24.7499 -4.9144 5.01429 0
M  V30 294 H 29.5899 -1.01998 2.80001 0
M  V30 295 H 27.1269 -0.492413 1.38613 0
M  V30 296 H 29.0849 -3.4563 2.33657 0
M  V30 297 H 27.7149 -2.94816 1.31466 0
M  V30 298 H 26.7669 -1.71374 3.3961 0
M  V30 299 H 28.0789 -2.44085 4.34999 0
M  V30 300 H 27.2329 -4.73101 3.79816 0
M  V30 301 H 25.9719 -4.03215 2.74353 0
M  V30 302 H 24.9769 -2.83302 4.7119 0
M  V30 303 H 26.2019 -3.56309 5.78118 0
M  V30 304 H 24.1479 -5.09072 4.13741 0
M  V30 305 H 24.0649 -4.79668 5.84341 0
M  V30 306 H 25.3329 -5.80104 5.20672 0
M  V30 307 N 29.562 -1.4872 -0.521534 0
M  V30 308 C 30.81 -1.56857 -1.27437 0
M  V30 309 C 31.131 -0.247982 -1.93417 0
M  V30 310 O 30.401 0.731151 -1.81744 0
M  V30 311 H 28.981 -0.577885 -0.473347 0
M  V30 312 H 31.643 -1.85233 -0.606205 0
M  V30 313 H 30.739 -2.35402 -2.0492 0
M  V30 314 N 31.0401 0.771051 -1.3745 0
M  V30 315 C 32.2701 1.55789 -1.35696 0
M  V30 316 C 32.6781 1.89107 0.0594523 0
M  V30 317 O 32.0211 1.51984 1.03183 0
M  V30 318 C 32.0831 2.89515 -2.13123 0
M  V30 319 C 31.7471 2.78829 -3.62082 0
M  V30 320 C 32.7441 2.49812 -4.5595 0
M  V30 321 C 30.4291 2.9683 -4.05213 0
M  V30 322 C 32.4231 2.38923 -5.90927 0
M  V30 323 C 30.1101 2.85562 -5.40276 0
M  V30 324 C 31.1081 2.56649 -6.32946 0
M  V30 325 O 30.7961 2.45408 -7.65526 0
M  V30 326 H 30.5281 0.489257 -0.466481 0
M  V30 327 H 33.0821 0.963446 -1.81403 0
M  V30 328 H 31.3121 3.51081 -1.62107 0
M  V30 329 H 33.0011 3.50915 -2.03994 0
M  V30 330 H 33.7671 2.3559 -4.23937 0
M  V30 331 H 29.6461 3.18335 -3.33442 0
M  V30 332 H 33.1901 2.16277 -6.63227 0
M  V30 333 H 29.0871 2.99351 -5.71891 0
M  V30 334 H 29.8551 2.60753 -7.75855 0
M  V30 335 N 32.5182 1.22032 0.997298 0
M  V30 336 C 33.7662 1.04016 1.73278 0
M  V30 337 C 34.0872 -0.426255 1.90284 0
M  V30 338 O 33.3572 -1.30694 1.45931 0
M  V30 339 H 31.9372 0.381897 0.642 0
M  V30 340 H 34.5992 1.5347 1.20137 0
M  V30 341 H 33.6952 1.51441 2.72896 0
M  V30 342 N 33.9963 -1.19345 1.0293 0
M  V30 343 C 35.2433 -1.89038 0.726008 0
M  V30 344 C 35.5713 -1.79649 -0.745427 0
M  V30 345 O 34.8263 -1.18354 -1.55855 0
M  V30 346 C 35.1253 -3.39292 1.12319 0
M  V30 347 C 34.7913 -3.68885 2.59297 0
M  V30 348 C 33.4533 -3.76671 2.99453 0
M  V30 349 C 35.8053 -3.82178 3.54386 0
M  V30 350 C 33.1333 -3.9522 4.33611 0
M  V30 351 C 35.4853 -4.0224 4.88248 0
M  V30 352 C 34.1493 -4.08259 5.28092 0
M  V30 353 H 33.4193 -0.691739 0.265665 0
M  V30 354 H 36.0663 -1.41328 1.29223 0
M  V30 355 H 34.3713 -3.88903 0.475584 0
M  V30 356 H 36.0683 -3.91536 0.866037 0
M  V30 357 H 32.6583 -3.63433 2.27189 0
M  V30 358 H 36.8423 -3.75505 3.24514 0
M  V30 359 H 32.0983 -3.98119 4.64016 0
M  V30 360 H 36.2723 -4.11468 5.61843 0
M  V30 361 H 33.8993 -4.22384 6.32057 0
M  V30 362 N 35.4744 -0.807222 -1.35358 0
M  V30 363 C 36.7224 -0.387122 -1.98358 0
M  V30 364 C 37.0434 1.04942 -1.64354 0
M  V30 365 O 36.3134 1.72615 -0.926339 0
M  V30 366 H 34.8934 -0.140154 -0.733734 0
M  V30 367 H 37.5554 -1.0332 -1.6526 0
M  V30 368 H 36.6514 -0.493352 -3.08176 0
M  V30 369 N 36.9525 1.47285 -0.560781 0
M  V30 370 C 37.8825 2.32857 0.173105 0
M  V30 371 C 38.8635 1.44009 0.905281 0
M  V30 372 O 40.0485 1.7286 0.885046 0
M  V30 373 C 37.1785 3.25861 1.20133 0
M  V30 374 C 36.1325 4.23978 0.585388 0
M  V30 375 C 35.4585 5.06332 1.7185 0
M  V30 376 C 36.7585 5.20242 -0.463178 0
M  V30 377 H 38.4525 2.94466 -0.541307 0
M  V30 378 H 35.9985 1.41601 -0.261764 0
M  V30 379 H 37.9515 3.84569 1.72293 0
M  V30 380 H 36.6755 2.62315 1.94573 0
M  V30 381 H 35.3345 3.66501 0.085054 0
M  V30 382 H 34.9825 4.39186 2.45203 0
M  V30 383 H 34.6825 5.72762 1.31213 0
M  V30 384 H 36.2065 5.67899 2.24329 0
M  V30 385 H 37.6205 5.73293 -0.027502 0
M  V30 386 H 36.0175 5.94896 -0.788627 0
M  V30 387 H 37.0875 4.65504 -1.35773 0
M  V30 388 N 38.4306 0.297415 1.54768 0
M  V30 389 C 39.6796 -0.313669 1.99246 0
M  V30 390 C 39.9926 -1.55281 1.18942 0
M  V30 391 O 41.1986 -2.23825 1.5367 0
M  V30 392 C 39.6546 -0.609407 3.54703 0
M  V30 393 C 39.2626 0.611192 4.43811 0
M  V30 394 C 41.0066 -1.18188 4.07715 0
M  V30 395 C 38.9136 0.288805 5.90694 0
M  V30 396 H 37.8436 -0.120979 0.744231 0
M  V30 397 H 40.4946 0.40556 1.78962 0
M  V30 398 H 38.8766 -1.38813 3.70873 0
M  V30 399 H 40.0506 1.3875 4.39414 0
M  V30 400 H 38.3656 1.10205 4.01552 0
M  V30 401 H 40.9626 -1.43727 5.15021 0
M  V30 402 H 41.3056 -2.12299 3.58099 0
M  V30 403 H 41.8386 -0.464944 3.95074 0
M  V30 404 H 38.5776 1.19838 6.44453 0
M  V30 405 H 38.0976 -0.450305 5.98107 0
M  V30 406 H 39.7766 -0.110933 6.46905 0
M  V30 407 N 39.9087 -1.5758 0.0250728 0
M  V30 408 C 40.8557 -2.09973 -0.958129 0
M  V30 409 C 41.8257 -1.00085 -1.3256 0
M  V30 410 O 43.0107 -1.27481 -1.41962 0
M  V30 411 C 40.1507 -2.62812 -2.2366 0
M  V30 412 C 39.2637 -3.86693 -1.92594 0
M  V30 413 C 38.3987 -4.27941 -3.14707 0
M  V30 414 C 37.4377 -5.44591 -2.79442 0
M  V30 415 N 36.5747 -5.81014 -3.94167 0
M  V30 416 H 41.4147 -2.937 -0.504428 0
M  V30 417 H 38.9517 -1.45172 -0.237392 0
M  V30 418 H 40.9097 -2.91536 -2.98434 0
M  V30 419 H 39.5397 -1.81922 -2.66654 0
M  V30 420 H 38.5917 -3.64723 -1.0808 0
M  V30 421 H 39.9037 -4.71547 -1.62619 0
M  V30 422 H 39.0577 -4.58079 -3.97804 0
M  V30 423 H 37.7967 -3.41845 -3.4784 0
M  V30 424 H 36.8017 -5.1415 -1.94755 0
M  V30 425 H 38.0267 -6.32382 -2.47528 0
M  V30 426 H 35.9727 -4.97874 -4.2715 0
M  V30 427 H 35.8897 -6.60498 -3.67801 0
M  V30 428 H 37.1577 -6.15756 -4.7798 0
M  V30 429 N 41.3868 0.248026 -1.55636 0
M  V30 430 C 42.3168 1.31079 -1.93237 0
M  V30 431 C 43.2978 1.50264 -0.797174 0
M  V30 432 O 44.4828 1.62891 -1.05737 0
M  V30 433 C 41.6128 2.66575 -2.22609 0
M  V30 434 C 40.5668 2.62087 -3.3837 0
M  V30 435 C 39.8928 4.01369 -3.53281 0
M  V30 436 C 41.1928 2.19171 -4.7409 0
M  V30 437 H 42.8868 0.998556 -2.82257 0
M  V30 438 H 40.4328 0.47891 -1.35803 0
M  V30 439 H 42.3858 3.41057 -2.47503 0
M  V30 440 H 41.1098 2.99432 -1.30414 0
M  V30 441 H 39.7688 1.90063 -3.13483 0
M  V30 442 H 39.4168 4.31489 -2.58508 0
M  V30 443 H 39.1168 3.99254 -4.31127 0
M  V30 444 H 40.6408 4.77552 -3.80495 0
M  V30 445 H 42.0548 2.83384 -4.98363 0
M  V30 446 H 40.4518 2.2817 -5.5503 0
M  V30 447 H 41.5218 1.14336 -4.71227 0
M  V30 448 N 42.8649 1.48995 0.513639 0
M  V30 449 C 44.1419 1.48338 1.27495 0
M  V30 450 C 44.5219 0.204065 2.10111 0
M  V30 451 O 43.8699 -0.813881 2.13514 0
M  V30 452 C 44.0799 2.75498 2.14247 0
M  V30 453 C 45.4279 3.24484 2.73852 0
M  V30 454 O 46.4519 2.76528 2.24523 0
M  V30 455 O 45.3109 4.07974 3.6362 0
M  V30 456 H 42.4049 0.593149 0.576284 0
M  V30 457 H 44.9509 1.61246 0.528948 0
M  V30 458 H 43.7229 3.60109 1.53092 0
M  V30 459 H 43.3459 2.6539 2.96064 0
M  V30 460 N 44.343 -0.763751 1.37857 0
M  V30 461 C 45.273 -1.89103 1.36975 0
M  V30 462 C 46.254 -1.68439 0.237152 0
M  V30 463 O 47.439 -1.8918 0.438713 0
M  V30 464 C 44.569 -3.26496 1.18395 0
M  V30 465 C 43.523 -3.61741 2.28751 0
M  V30 466 C 42.849 -4.97762 1.95286 0
M  V30 467 C 44.149 -3.67665 3.70972 0
M  V30 468 H 45.843 -1.90099 2.31307 0
M  V30 469 H 43.389 -0.91319 1.11341 0
M  V30 470 H 45.342 -4.05003 1.16406 0
M  V30 471 H 44.066 -3.25955 0.205215 0
M  V30 472 H 42.725 -2.85547 2.29909 0
M  V30 473 H 42.373 -4.93769 0.959221 0
M  V30 474 H 42.073 -5.22313 2.69189 0
M  V30 475 H 43.597 -5.7866 1.94898 0
M  V30 476 H 45.011 -4.36307 3.719 0
M  V30 477 H 43.408 -4.03718 4.43995 0
M  V30 478 H 44.478 -2.68134 4.0402 0
M  V30 479 N 45.8211 -1.22559 -0.990812 0
M  V30 480 C 46.7681 -0.997519 -2.0813 0
M  V30 481 C 47.7381 0.0814702 -1.659 0
M  V30 482 O 48.9231 -0.0685424 -1.90677 0
M  V30 483 C 46.0631 -0.583615 -3.40129 0
M  V30 484 C 45.1761 -1.7336 -3.9569 0
M  V30 485 C 44.3111 -1.26748 -5.15857 0
M  V30 486 C 43.3501 -2.38888 -5.63559 0
M  V30 487 N 42.4871 -1.93308 -6.74964 0
M  V30 488 H 47.3271 -1.93099 -2.26973 0
M  V30 489 H 44.8641 -0.962114 -1.11273 0
M  V30 490 H 46.8221 -0.324801 -4.15934 0
M  V30 491 H 45.4521 0.312845 -3.2128 0
M  V30 492 H 44.5041 -2.10669 -3.16738 0
M  V30 493 H 45.8161 -2.57704 -4.27071 0
M  V30 494 H 44.9701 -0.966173 -5.98957 0
M  V30 495 H 43.7091 -0.394272 -4.86104 0
M  V30 496 H 42.7141 -2.69805 -4.79046 0
M  V30 497 H 43.9391 -3.26728 -5.95336 0
M  V30 498 H 41.8851 -1.08352 -6.4699 0
M  V30 499 H 41.8021 -2.71217 -7.05675 0
M  V30 500 H 43.0701 -1.66252 -7.61564 0
M  V30 501 N 47.2992 1.18797 -1.03562 0
M  V30 502 C 48.5272 1.92599 -0.755869 0
M  V30 503 C 48.9422 1.75886 0.686271 0
M  V30 504 O 48.2992 1.08517 1.46732 0
M  V30 505 C 48.3502 3.44159 -1.10619 0
M  V30 506 O 48.0712 3.60341 -2.4917 0
M  V30 507 C 49.5722 4.3507 -0.850214 0
M  V30 508 H 46.7922 0.611587 -0.276048 0
M  V30 509 H 49.3362 1.50742 -1.38192 0
M  V30 510 H 47.4912 3.83823 -0.525194 0
M  V30 511 H 47.9052 4.54128 -2.62427 0
M  V30 512 H 49.3792 5.39989 -1.14523 0
M  V30 513 H 49.8562 4.38673 0.215176 0
M  V30 514 H 50.4622 4.01097 -1.41426 0
M  V30 515 N 48.7773 0.814389 1.34928 0
M  V30 516 C 49.7243 0.22822 2.29669 0
M  V30 517 C 50.6943 -0.642164 1.53184 0
M  V30 518 O 51.8793 -0.585605 1.81591 0
M  V30 519 C 49.0193 -0.61089 3.3965 0
M  V30 520 C 48.1323 0.280792 4.31086 0
M  V30 521 C 47.2673 -0.567067 5.28165 0
M  V30 522 C 46.3063 0.324531 6.11239 0
M  V30 523 N 45.4433 -0.483756 7.00431 0
M  V30 524 H 50.2833 1.04153 2.79206 0
M  V30 525 H 47.8203 0.525133 1.37407 0
M  V30 526 H 49.7783 -1.11263 4.0209 0
M  V30 527 H 48.4083 -1.38939 2.91369 0
M  V30 528 H 47.4603 0.900688 3.69583 0
M  V30 529 H 48.7723 0.966723 4.89342 0
M  V30 530 H 47.9263 -1.13363 5.96015 0
M  V30 531 H 46.6653 -1.28654 4.70425 0
M  V30 532 H 45.6703 0.903298 5.42329 0
M  V30 533 H 46.8953 1.04198 6.71059 0
M  V30 534 H 44.8413 -1.18706 6.45171 0
M  V30 535 H 44.7583 0.143965 7.55863 0
M  V30 536 H 46.0263 -1.03334 7.7262 0
M  V30 537 N 50.2554 -1.46986 0.568584 0
M  V30 538 C 51.4804 -2.07335 0.0520528 0
M  V30 539 C 51.9054 -1.41675 -1.23733 0
M  V30 540 O 51.2634 -0.495623 -1.74394 0
M  V30 541 C 51.3114 -3.60417 -0.11501 0
M  V30 542 O 50.4154 -3.95309 -1.17492 0
M  V30 543 H 49.7564 -0.661597 0.0564385 0
M  V30 544 H 52.2864 -1.88837 0.787507 0
M  V30 545 H 52.2964 -4.06698 -0.325644 0
M  V30 546 H 50.9714 -4.07601 0.826675 0
M  V30 547 H 49.5484 -3.60757 -0.943869 0
M  V30 548 N 51.7335 -0.305618 -1.54608 0
M  V30 549 C 52.6435 0.57778 -2.27374 0
M  V30 550 C 53.6595 1.14451 -1.31061 0
M  V30 551 O 54.8355 1.16831 -1.6405 0
M  V30 552 C 51.9005 1.73123 -3.00382 0
M  V30 553 C 50.9615 1.19812 -4.12242 0
M  V30 554 C 50.1945 2.2966 -4.81759 0
M  V30 555 O 50.4175 3.49651 -4.50666 0
M  V30 556 O 49.3515 1.96091 -5.69062 0
M  V30 557 H 53.1775 -0.012624 -3.03697 0
M  V30 558 H 50.7625 -0.0719184 -1.49227 0
M  V30 559 H 52.6445 2.40315 -3.4616 0
M  V30 560 H 51.3195 2.30815 -2.26949 0
M  V30 561 H 50.2265 0.491798 -3.70853 0
M  V30 562 H 51.5595 0.666566 -4.87666 0
M  V30 563 N 53.2116 1.57565 -0.0334293 0
M  V30 564 C 54.1596 2.1164 0.96496 0
M  V30 565 C 55.1536 1.04398 1.33407 0
M  V30 566 O 56.3596 1.22828 1.3158 0
M  V30 567 H 52.7346 0.676222 0.32898 0
M  V30 568 H 54.7056 2.94455 0.483614 0
M  V30 569 C 53.4546 2.66207 2.23672 0
M  V30 570 H 52.7776 3.48378 1.96145 0
M  V30 571 H 54.2176 3.07685 2.9173 0
M  V30 572 C 52.6766 1.59151 2.96939 0
M  V30 573 O 53.2066 0.993858 3.89211 0
M  V30 574 N 51.4126 1.31093 2.59351 0
M  V30 575 H 50.9596 1.7988 1.84393 0
M  V30 576 H 50.9176 0.596889 3.08682 0
M  V30 577 N 54.6897 -0.239769 1.55765 0
M  V30 578 C 55.9377 -0.964892 1.77579 0
M  V30 579 C 56.2587 -1.85582 0.598699 0
M  V30 580 O 55.5287 -1.92075 -0.385226 0
M  V30 581 H 54.1087 -0.359265 0.654933 0
M  V30 582 H 56.7707 -0.256001 1.93211 0
M  V30 583 H 55.8667 -1.58243 2.69009 0
M  V30 584 N 56.1678 -1.49265 -0.50573 0
M  V30 585 C 57.0978 -1.68495 -1.61653 0
M  V30 586 C 58.0788 -0.53366 -1.61512 0
M  V30 587 O 59.2638 -0.76897 -1.78327 0
M  V30 588 C 56.3938 -1.74709 -3.00157 0
M  V30 589 C 55.3478 -2.89581 -3.15162 0
M  V30 590 C 54.6738 -2.80903 -4.5497 0
M  V30 591 C 55.9738 -4.30578 -2.95634 0
M  V30 592 H 57.6678 -2.61493 -1.45814 0
M  V30 593 H 55.2138 -1.25838 -0.70005 0
M  V30 594 H 57.1668 -1.86748 -3.77761 0
M  V30 595 H 55.8908 -0.783067 -3.17074 0
M  V30 596 H 54.5498 -2.77136 -2.39982 0
M  V30 597 H 54.1978 -1.82419 -4.68756 0
M  V30 598 H 53.8978 -3.57999 -4.65951 0
M  V30 599 H 55.4218 -2.94944 -5.34641 0
M  V30 600 H 56.8358 -4.4373 -3.63011 0
M  V30 601 H 55.2328 -5.0886 -3.18091 0
M  V30 602 H 56.3028 -4.45352 -1.91806 0
M  V30 603 N 57.6459 0.756429 -1.3826 0
M  V30 604 C 58.5559 1.9009 -1.37488 0
M  V30 605 C 59.5719 1.71855 -0.272366 0
M  V30 606 O 60.7479 1.94827 -0.510318 0
M  V30 607 C 57.8129 3.25421 -1.19592 0
M  V30 608 C 56.8739 3.56202 -2.39622 0
M  V30 609 C 56.1069 4.85075 -2.2257 0
M  V30 610 O 56.3299 5.57246 -1.21793 0
M  V30 611 O 55.2639 5.15269 -3.11098 0
M  V30 612 H 59.0899 1.93695 -2.33914 0
M  V30 613 H 56.6749 0.901313 -1.1915 0
M  V30 614 H 58.5569 4.06337 -1.11661 0
M  V30 615 H 57.2319 3.22634 -0.262486 0
M  V30 616 H 56.1389 2.75458 -2.53128 0
M  V30 617 H 57.4719 3.63747 -3.31586 0
M  V30 618 N 59.124 1.23083 0.984299 0
M  V30 619 C 60.371 1.06057 1.72505 0
M  V30 620 C 60.699 -0.403105 1.90277 0
M  V30 621 O 59.954 -1.3149 1.44944 0
M  V30 622 C 60.253 1.72673 3.1292 0
M  V30 623 C 59.919 3.22586 3.15038 0
M  V30 624 C 58.581 3.63489 3.15324 0
M  V30 625 C 60.933 4.185 3.10657 0
M  V30 626 C 58.261 4.98772 3.08939 0
M  V30 627 C 60.613 5.53769 3.05814 0
M  V30 628 C 59.277 5.94041 3.04419 0
M  V30 629 H 58.547 0.388091 0.631242 0
M  V30 630 H 61.194 1.52963 1.15215 0
M  V30 631 H 59.499 1.18116 3.73572 0
M  V30 632 H 61.196 1.56982 3.68996 0
M  V30 633 H 57.786 2.90022 3.15571 0
M  V30 634 H 61.97 3.87911 3.09579 0
M  V30 635 H 57.226 5.29193 3.0621 0
M  V30 636 H 61.4 6.27808 3.0138 0
M  V30 637 H 59.027 6.98833 2.99227 0
M  V30 638 N 60.6021 -1.18246 1.0419 0
M  V30 639 C 61.8301 -1.92195 0.766072 0
M  V30 640 C 62.2451 -1.76247 -0.676933 0
M  V30 641 O 61.6021 -1.09293 -1.46155 0
M  V30 642 C 61.6531 -3.43568 1.12442 0
M  V30 643 O 61.3741 -3.59015 2.51078 0
M  V30 644 C 62.8751 -4.34613 0.873275 0
M  V30 645 H 60.0951 -0.610114 0.279288 0
M  V30 646 H 62.6391 -1.50007 1.38989 0
M  V30 647 H 60.7941 -3.8354 0.545542 0
M  V30 648 H 61.2081 -4.5273 2.64831 0
M  V30 649 H 62.6821 -5.39374 1.17385 0
M  V30 650 H 63.1591 -4.38781 -0.191909 0
M  V30 651 H 63.7651 -4.00341 1.43551 0
M  V30 652 N 62.0802 -0.821533 -1.34494 0
M  V30 653 C 63.3052 -0.420873 -2.03085 0
M  V30 654 C 63.7302 0.964915 -1.61465 0
M  V30 655 O 63.0882 1.62763 -0.798607 0
M  V30 656 C 63.1362 -0.529414 -3.56693 0
M  V30 657 O 62.2402 0.451302 -4.09923 0
M  V30 658 H 61.5812 -0.173489 -0.640935 0
M  V30 659 H 64.1112 -1.11157 -1.71771 0
M  V30 660 H 64.1212 -0.404671 -4.05988 0
M  V30 661 H 62.7962 -1.54014 -3.86332 0
M  V30 662 H 61.3732 0.285558 -3.71805 0
M  V30 663 N 63.5583 1.46682 -0.576371 0
M  V30 664 C 64.7833 2.07304 -0.0630475 0
M  V30 665 C 65.2083 1.42329 1.2298 0
M  V30 666 O 64.5663 0.504865 1.74129 0
M  V30 667 C 64.6143 3.60472 0.095895 0
M  V30 668 O 63.7183 3.95927 1.15394 0
M  V30 669 H 63.0593 0.661288 -0.0599463 0
M  V30 670 H 65.5893 1.88417 -0.797511 0
M  V30 671 H 65.5993 4.06865 0.304071 0
M  V30 672 H 64.2743 4.07157 -0.84828 0
M  V30 673 H 62.8513 3.61252 0.924724 0
M  V30 674 N 65.0364 0.313813 1.54444 0
M  V30 675 C 66.2844 -0.291099 1.99993 0
M  V30 676 C 66.6054 -1.53418 1.20366 0
M  V30 677 O 65.8754 -1.93544 0.302927 0
M  V30 678 H 64.4554 -0.110552 0.738774 0
M  V30 679 H 67.1174 0.428106 1.9014 0
M  V30 680 H 66.2134 -0.554268 3.07139 0
M  V30 681 N 66.5145 -1.57545 0.0417849 0
M  V30 682 C 67.7395 -1.97035 -0.647455 0
M  V30 683 C 68.1645 -0.918775 -1.64135 0
M  V30 684 O 67.5225 0.119006 -1.80909 0
M  V30 685 C 67.5705 -3.35609 -1.31905 0
M  V30 686 O 66.6745 -3.3287 -2.43457 0
M  V30 687 H 66.0155 -0.64211 -0.169086 0
M  V30 688 H 68.5455 -2.04318 0.107399 0
M  V30 689 H 68.5555 -3.72126 -1.67291 0
M  V30 690 H 67.2305 -4.11685 -0.590586 0
M  V30 691 H 65.8075 -3.08087 -2.10088 0
M  V30 692 N 67.9926 0.231505 -1.5589 0
M  V30 693 C 68.9556 1.27028 -1.90779 0
M  V30 694 C 69.9556 1.40308 -0.785507 0
M  V30 695 O 71.1456 1.38744 -1.05336 0
M  V30 696 C 68.2776 2.64566 -2.14983 0
M  V30 697 H 69.4706 0.973017 -2.83677 0
M  V30 698 H 67.0236 0.471486 -1.49019 0
M  V30 699 H 67.7586 2.99406 -1.24604 0
M  V30 700 H 67.5436 2.56305 -2.96732 0
M  V30 701 H 69.0336 3.39543 -2.43105 0
M  V30 702 N 69.4707 1.49531 0.497807 0
M  V30 703 C 70.4187 1.66926 1.61983 0
M  V30 704 C 71.4127 0.535167 1.60724 0
M  V30 705 O 72.6187 0.714896 1.65195 0
M  V30 706 H 68.9937 0.526415 0.537021 0
M  V30 707 H 70.9647 2.61098 1.44465 0
M  V30 708 C 69.7137 1.75602 3.00099 0
M  V30 709 H 69.0367 2.62244 3.01775 0
M  V30 710 H 70.4767 1.91807 3.78135 0
M  V30 711 C 68.9357 0.501543 3.33146 0
M  V30 712 O 69.4657 -0.371342 3.9998 0
M  V30 713 N 67.6717 0.363531 2.88317 0
M  V30 714 H 67.2187 1.07485 2.34104 0
M  V30 715 H 67.1767 -0.474728 3.10795 0
M  V30 716 N 70.9488 -0.749086 1.3866 0
M  V30 717 C 72.1768 -1.53834 1.38358 0
M  V30 718 C 72.5918 -1.88783 -0.0255219 0
M  V30 719 O 71.9488 -1.53101 -0.993292 0
M  V30 720 C 71.9998 -2.83468 2.2434 0
M  V30 721 O 71.7208 -2.50008 3.5976 0
M  V30 722 C 73.2218 -3.7758 2.32267 0
M  V30 723 H 70.4418 -0.47585 0.473083 0
M  V30 724 H 72.9858 -0.926726 1.82297 0
M  V30 725 H 71.1408 -3.40995 1.83851 0
M  V30 726 H 71.5548 -3.33182 4.05081 0
M  V30 727 H 73.0288 -4.65478 2.96706 0
M  V30 728 H 73.5058 -4.18334 1.33765 0
M  V30 729 H 74.1118 -3.25976 2.73166 0
M  V30 730 N 72.4269 -1.23603 -0.977757 0
M  V30 731 C 73.3369 -1.03632 -2.1047 0
M  V30 732 C 74.3529 0.0199435 -1.73989 0
M  V30 733 O 75.5289 -0.176076 -2.00629 0
M  V30 734 C 72.5939 -0.63276 -3.40877 0
M  V30 735 C 71.6549 -1.76437 -3.91367 0
M  V30 736 C 70.8879 -1.37997 -5.15551 0
M  V30 737 O 71.1109 -0.265357 -5.69782 0
M  V30 738 O 70.0449 -2.20201 -5.60174 0
M  V30 739 H 73.8709 -1.98086 -2.30208 0
M  V30 740 H 71.4559 -1.02332 -1.08851 0
M  V30 741 H 73.3379 -0.418761 -4.19314 0
M  V30 742 H 72.0129 0.282754 -3.22463 0
M  V30 743 H 70.9199 -2.03304 -3.14036 0
M  V30 744 H 72.2529 -2.6583 -4.14241 0
M  V30 745 N 73.905 1.17692 -1.04816 0
M  V30 746 C 75.133 1.91786 -0.776254 0
M  V30 747 C 75.548 1.76604 0.667577 0
M  V30 748 O 74.905 1.10067 1.45573 0
M  V30 749 C 74.956 3.42967 -1.14263 0
M  V30 750 O 74.677 3.57678 -2.52978 0
M  V30 751 C 76.178 4.34144 -0.896311 0
M  V30 752 H 73.398 0.608624 -0.282519 0
M  V30 753 H 75.942 1.49268 -1.39783 0
M  V30 754 H 74.097 3.83245 -0.565874 0
M  V30 755 H 74.511 4.51319 -2.67229 0
M  V30 756 H 75.985 5.38744 -1.20244 0
M  V30 757 H 76.462 4.38876 0.168636 0
M  V30 758 H 77.068 3.99574 -1.45672 0
M  V30 759 N 75.3831 0.828654 1.34056 0
M  V30 760 C 76.6111 0.43262 2.02326 0
M  V30 761 C 77.0261 -0.963147 1.62385 0
M  V30 762 O 76.3831 -1.62425 0.832121 0
M  V30 763 C 76.4341 0.53182 3.57567 0
M  V30 764 O 76.1551 1.87258 3.96063 0
M  V30 765 C 77.6561 0.131422 4.43105 0
M  V30 766 H 74.8761 0.172923 0.648335 0
M  V30 767 H 77.4201 1.1184 1.71208 0
M  V30 768 H 75.5751 -0.105938 3.87255 0
M  V30 769 H 75.9891 1.85087 4.90758 0
M  V30 770 H 77.4631 0.251904 5.51425 0
M  V30 771 H 77.9401 -0.925645 4.29335 0
M  V30 772 H 78.5461 0.743207 4.18756 0
M  V30 773 N 76.8612 -1.46375 0.584142 0
M  V30 774 C 77.8082 -2.30323 -0.148286 0
M  V30 775 C 78.7782 -1.40703 -0.882713 0
M  V30 776 O 79.9632 -1.69651 -0.873099 0
M  V30 777 C 77.1032 -3.25196 -1.15507 0
M  V30 778 C 76.2162 -4.29915 -0.423943 0
M  V30 779 C 75.3512 -5.11914 -1.41838 0
M  V30 780 C 74.3902 -6.08381 -0.673736 0
M  V30 781 N 73.5272 -6.83242 -1.6163 0
M  V30 782 H 78.3672 -2.92427 0.573644 0
M  V30 783 H 75.9042 -1.44118 0.294703 0
M  V30 784 H 77.8622 -3.78646 -1.75166 0
M  V30 785 H 76.4922 -2.64898 -1.8447 0
M  V30 786 H 75.5442 -3.7931 0.287714 0
M  V30 787 H 76.8562 -4.98549 0.158128 0
M  V30 788 H 76.0102 -5.69648 -2.08773 0
M  V30 789 H 74.7492 -4.43243 -2.03438 0
M  V30 790 H 73.7542 -5.49799 0.00938483 0
M  V30 791 H 74.9792 -6.79071 -0.0631082 0
M  V30 792 H 72.9252 -6.1728 -2.22038 0
M  V30 793 H 72.8422 -7.48144 -1.08707 0
M  V30 794 H 74.1102 -7.45534 -2.27596 0
M  V30 795 N 78.3393 -0.321999 -1.54275 0
M  V30 796 C 79.5853 0.281461 -2.00837 0
M  V30 797 C 79.9183 1.51909 -1.20985 0
M  V30 798 O 79.1933 1.923 -0.291733 0
M  V30 799 C 79.4763 0.617162 -3.54772 0
M  V30 800 C 79.3293 -0.631064 -4.45351 0
M  V30 801 C 80.6483 1.43542 -4.16033 0
M  V30 802 H 77.7673 0.100826 -0.730071 0
M  V30 803 H 80.4093 -0.438268 -1.84876 0
M  V30 804 H 78.5593 1.23034 -3.68504 0
M  V30 805 H 80.2313 -1.26934 -4.43492 0
M  V30 806 H 78.4743 -1.26025 -4.15091 0
M  V30 807 H 79.1453 -0.351735 -5.50878 0
M  V30 808 H 81.6213 0.917134 -4.05867 0
M  V30 809 H 80.4973 1.63907 -5.23856 0
M  V30 810 H 80.7583 2.43108 -3.69257 0
M  V30 811 N 79.8174 1.5752 -0.0501392 0
M  V30 812 C 81.0454 1.96963 0.633492 0
M  V30 813 C 81.4604 0.927631 1.6444 0
M  V30 814 O 80.8174 -0.0882665 1.82286 0
M  V30 815 C 80.8684 3.36487 1.32132 0
M  V30 816 O 80.5894 4.36693 0.350894 0
M  V30 817 C 82.0904 3.90682 2.09481 0
M  V30 818 H 79.3104 0.648244 0.173266 0
M  V30 819 H 81.8544 2.0417 -0.116134 0
M  V30 820 H 80.0094 3.30434 2.02218 0
M  V30 821 H 80.4234 5.17702 0.841735 0
M  V30 822 H 81.8974 4.90591 2.5303 0
M  V30 823 H 82.3744 3.26053 2.94255 0
M  V30 824 H 82.9804 4.00069 1.44307 0
M  V30 825 N 81.2955 -0.223234 1.56011 0
M  V30 826 C 82.5435 -0.946003 1.78592 0
M  V30 827 C 82.8645 -1.84936 0.618349 0
M  V30 828 O 82.1345 -1.92473 -0.364833 0
M  V30 829 H 80.7145 -0.352298 0.658707 0
M  V30 830 H 83.3765 -0.235494 1.93472 0
M  V30 831 H 82.4725 -1.55381 2.70672 0
M  V30 832 N 82.7736 -1.49793 -0.48987 0
M  V30 833 C 83.9986 -1.63836 -1.27172 0
M  V30 834 C 84.4236 -0.31402 -1.8546 0
M  V30 835 O 83.7816 0.719803 -1.66399 0
M  V30 836 C 83.8296 -2.71797 -2.36978 0
M  V30 837 O 82.9336 -2.31744 -3.41128 0
M  V30 838 H 82.2746 -0.547997 -0.37496 0
M  V30 839 H 84.8046 -1.96053 -0.585191 0
M  V30 840 H 84.8146 -2.94305 -2.82575 0
M  V30 841 H 83.4896 -3.67923 -1.93921 0
M  V30 842 H 82.0666 -2.1961 -3.01373 0
M  V30 843 N 84.2517 0.741722 -1.39055 0
M  V30 844 C 85.1817 1.869 -1.39966 0
M  V30 845 C 86.1627 1.6804 -0.26392 0
M  V30 846 O 87.3477 1.88458 -0.468755 0
M  V30 847 C 84.4777 3.24572 -1.23574 0
M  V30 848 C 83.4317 3.58056 -2.34477 0
M  V30 849 C 82.7577 4.94593 -2.0318 0
M  V30 850 C 84.0577 3.61716 -3.76774 0
M  V30 851 H 85.7517 1.86395 -2.34302 0
M  V30 852 H 83.2977 0.895361 -1.1278 0
M  V30 853 H 85.2507 4.031 -1.22834 0
M  V30 854 H 83.9747 3.25587 -0.257045 0
M  V30 855 H 82.6337 2.81854 -2.34423 0
M  V30 856 H 82.2817 4.92181 -1.03765 0
M  V30 857 H 81.9817 5.17964 -2.77465 0
M  V30 858 H 83.5057 5.75486 -2.04079 0
M  V30 859 H 84.9197 4.30335 -3.78794 0
M  V30 860 H 83.3167 3.96603 -4.50362 0
M  V30 861 H 84.3867 2.61672 -4.08235 0
M  V30 862 N 85.7298 1.2412 0.971189 0
M  V30 863 C 86.6398 1.04747 2.09917 0
M  V30 864 C 87.6558 -0.0107162 1.73997 0
M  V30 865 O 88.8318 0.186714 2.00533 0
M  V30 866 C 85.8968 0.650828 3.40537 0
M  V30 867 C 84.9578 1.7851 3.90426 0
M  V30 868 C 84.1908 1.40729 5.14812 0
M  V30 869 O 84.4138 0.29557 5.69634 0
M  V30 870 O 83.3478 2.23168 5.58999 0
M  V30 871 H 87.1738 1.99304 2.29154 0
M  V30 872 H 84.7588 1.02908 1.08307 0
M  V30 873 H 86.6408 0.440992 4.19086 0
M  V30 874 H 85.3158 -0.265649 3.22608 0
M  V30 875 H 84.2228 2.04966 3.12953 0
M  V30 876 H 85.5558 2.68023 4.12825 0
M  V30 877 N 87.2079 -1.17134 1.05439 0
M  V30 878 C 88.4359 -1.91372 0.786414 0
M  V30 879 C 88.8509 -1.76955 -0.658202 0
M  V30 880 O 88.2079 -1.10838 -1.44987 0
M  V30 881 C 88.2589 -3.42356 1.1608 0
M  V30 882 O 87.9799 -3.56332 2.54871 0
M  V30 883 C 89.4809 -4.33663 0.919322 0
M  V30 884 H 86.7009 -0.607118 0.285743 0
M  V30 885 H 89.2449 -1.48525 1.40572 0
M  V30 886 H 87.3999 -3.82939 0.586191 0
M  V30 887 H 87.8139 -4.49896 2.69618 0
M  V30 888 H 89.2879 -5.38099 1.231 0
M  V30 889 H 89.7649 -4.38959 -0.145359 0
M  V30 890 H 90.3709 -3.98796 1.47789 0
M  V30 891 N 88.686 -0.835752 -1.33615 0
M  V30 892 C 89.633 -0.26473 -2.29277 0
M  V30 893 C 90.603 0.617712 -1.54187 0
M  V30 894 O 91.788 0.556641 -1.825 0
M  V30 895 C 88.928 0.556777 -3.40579 0
M  V30 896 C 88.041 -0.349339 -4.30585 0
M  V30 897 C 87.176 0.482969 -5.29 0
M  V30 898 C 86.215 -0.421732 -6.10645 0
M  V30 899 N 85.352 0.372262 -7.01112 0
M  V30 900 H 90.192 -1.08582 -2.77514 0
M  V30 901 H 87.729 -0.546927 -1.36554 0
M  V30 902 H 89.687 1.04852 -4.03809 0
M  V30 903 H 88.317 1.34286 -2.93542 0
M  V30 904 H 87.369 -0.959372 -3.68104 0
M  V30 905 H 88.681 -1.04445 -4.87742 0
M  V30 906 H 87.835 1.03866 -5.97743 0
M  V30 907 H 86.574 1.21153 -4.72412 0
M  V30 908 H 85.579 -0.989464 -5.40823 0
M  V30 909 H 86.804 -1.14861 -6.69316 0
M  V30 910 H 84.75 1.08426 -6.46977 0
M  V30 911 H 84.667 -0.264198 -7.55538 0
M  V30 912 H 85.935 0.910293 -7.74167 0
M  V30 913 N 90.1641 1.46063 -0.591896 0
M  V30 914 C 91.3941 2.06418 -0.0867676 0
M  V30 915 C 91.8021 1.43975 1.22751 0
M  V30 916 O 91.1451 0.542531 1.75506 0
M  V30 917 C 91.2071 3.59213 0.143725 0
M  V30 918 C 90.8711 4.439 -1.08635 0
M  V30 919 C 91.8681 4.79864 -2.00067 0
M  V30 920 C 89.5531 4.84896 -1.31077 0
M  V30 921 C 91.5471 5.55661 -3.12282 0
M  V30 922 C 89.2341 5.6045 -2.43596 0
M  V30 923 C 90.2321 5.95747 -3.34027 0
M  V30 924 O 89.9201 6.69772 -4.4459 0
M  V30 925 H 89.6521 0.673443 -0.0587447 0
M  V30 926 H 92.2061 1.88539 -0.814994 0
M  V30 927 H 90.4361 3.75433 0.926668 0
M  V30 928 H 92.1251 4.01463 0.5985 0
M  V30 929 H 92.8911 4.48763 -1.83947 0
M  V30 930 H 88.7701 4.56867 -0.61594 0
M  V30 931 H 92.3141 5.8313 -3.82891 0
M  V30 932 H 88.2111 5.90965 -2.59674 0
M  V30 933 H 88.9791 6.88207 -4.43073 0
M  V30 934 N 91.6422 0.330177 1.54103 0
M  V30 935 C 93.0582 -0.0222371 1.59585 0
M  V30 936 C 93.2582 -1.49902 1.34654 0
M  V30 937 O 92.3142 -2.25592 1.13421 0
M  V30 938 C 93.6272 0.401932 2.98002 0
M  V30 939 C 95.1752 0.353145 3.11001 0
M  V30 940 C 95.6502 0.752576 4.51775 0
M  V30 941 N 97.1412 0.706239 4.57784 0
M  V30 942 C 97.8762 0.987417 5.64834 0
M  V30 943 N 97.3722 1.33607 6.79795 0
M  V30 944 N 99.1652 0.91254 5.54643 0
M  V30 945 H 91.3162 1.29228 1.68564 0
M  V30 946 H 93.5792 0.525906 0.78875 0
M  V30 947 H 93.2852 1.4311 3.21267 0
M  V30 948 H 93.1592 -0.229699 3.765 0
M  V30 949 H 95.5462 -0.666822 2.87467 0
M  V30 950 H 95.6272 1.0198 2.34593 0
M  V30 951 H 95.2712 1.77049 4.76042 0
M  V30 952 H 95.2012 0.0635409 5.26562 0
M  V30 953 H 97.6922 0.44889 3.75224 0
M  V30 954 H 98.0052 1.53582 7.57385 0
M  V30 955 H 96.3502 1.37439 6.81275 0
M  V30 956 H 99.5412 0.639601 4.6371 0
M  V30 957 H 99.7142 1.13503 6.37982 0
M  V30 958 N 93.1203 -1.57491 0.0584922 0
M  V30 959 C 94.3663 -1.94081 -0.608617 0
M  V30 960 C 94.7213 -0.937438 -1.68017 0
M  V30 961 O 94.0143 0.0423034 -1.91553 0
M  V30 962 C 94.2083 -3.3513 -1.24188 0
M  V30 963 C 94.0373 -4.49095 -0.233187 0
M  V30 964 C 92.8073 -5.04988 0.177439 0
M  V30 965 C 95.0053 -5.1162 0.524306 0
M  V30 966 N 92.9873 -6.02487 1.17823 0
M  V30 967 C 94.3583 -6.04493 1.37796 0
M  V30 968 C 96.4133 -4.94489 0.581822 0
M  V30 969 C 95.1163 -6.82075 2.28399 0
M  V30 970 C 97.1423 -5.72703 1.47531 0
M  V30 971 C 96.5043 -6.65214 2.31667 0
M  V30 972 H 92.6033 -0.75752 -0.194134 0
M  V30 973 H 95.1873 -1.94248 0.132533 0
M  V30 974 H 93.3583 -3.35726 -1.95302 0
M  V30 975 H 95.0903 -3.5899 -1.86838 0
M  V30 976 H 91.8453 -4.73165 -0.203004 0
M  V30 977 H 92.2693 -6.55933 1.67573 0
M  V30 978 H 96.9113 -4.22765 -0.054443 0
M  V30 979 H 94.6293 -7.53085 2.93067 0
M  V30 980 H 98.2153 -5.61472 1.52448 0
M  V30 981 H 97.0953 -7.24679 2.99683 0
M  V30 982 N 94.5984 0.214957 -1.56127 0
M  V30 983 C 95.8264 0.955092 -1.83536 0
M  V30 984 C 96.2414 1.77677 -0.638472 0
M  V30 985 O 95.5984 1.78219 0.392968 0
M  V30 986 C 95.6494 1.86734 -3.09536 0
M  V30 987 O 95.3704 1.07887 -4.24608 0
M  V30 988 C 96.8714 2.72082 -3.4998 0
M  V30 989 H 94.0914 0.279611 -0.609966 0
M  V30 990 H 96.6354 0.228197 -2.03223 0
M  V30 991 H 94.7904 2.5481 -2.91806 0
M  V30 992 H 95.2044 1.69872 -4.9623 0
M  V30 993 H 96.6784 3.31782 -4.41163 0
M  V30 994 H 97.1554 3.44806 -2.7204 0
M  V30 995 H 97.7614 2.09409 -3.70173 0
M  V30 996 N 96.0765 1.50051 0.48192 0
M  V30 997 C 96.9865 1.7089 1.60728 0
M  V30 998 C 98.0025 0.591788 1.63627 0
M  V30 999 O 99.1785 0.868817 1.81696 0
M  V30 1000 C 96.2435 1.78855 2.97005 0
M  V30 1001 C 95.3045 3.02537 3.04581 0
M  V30 1002 C 94.5375 3.10112 4.34357 0
M  V30 1003 O 94.7605 2.24765 5.24249 0
M  V30 1004 O 93.6945 4.02747 4.47301 0
M  V30 1005 H 97.5205 2.66264 1.46072 0
M  V30 1006 H 95.1055 1.34018 0.660264 0
M  V30 1007 H 96.9875 1.86336 3.77964 0
M  V30 1008 H 95.6625 0.866628 3.11883 0
M  V30 1009 H 94.5695 3.00563 2.22739 0
M  V30 1010 H 95.9025 3.94272 2.94636 0
M  V30 1011 N 97.5546 -0.734337 1.39446 0
M  V30 1012 C 98.7846 -1.52137 1.39778 0
M  V30 1013 C 99.1926 -1.89198 -0.00929312 0
M  V30 1014 O 98.5356 -1.54666 -0.991168 0
M  V30 1015 C 98.5976 -2.83762 2.20724 0
M  V30 1016 C 98.2616 -2.69131 3.69347 0
M  V30 1017 C 99.2586 -2.37635 4.62413 0
M  V30 1018 C 96.9436 -2.85982 4.1294 0
M  V30 1019 C 98.9376 -2.23172 5.97054 0
M  V30 1020 C 96.6246 -2.71137 5.47657 0
M  V30 1021 C 97.6226 -2.39777 6.39528 0
M  V30 1022 O 97.3106 -2.25026 7.71763 0
M  V30 1023 H 97.0426 -0.476717 0.479288 0
M  V30 1024 H 99.5966 -0.915012 1.83893 0
M  V30 1025 H 97.8266 -3.4666 1.71359 0
M  V30 1026 H 99.5156 -3.45383 2.13226 0
M  V30 1027 H 100.282 -2.24267 4.30034 0
M  V30 1028 H 96.1606 -3.09383 3.41765 0
M  V30 1029 H 99.7046 -1.98617 6.68728 0
M  V30 1030 H 95.6016 -2.84083 5.79626 0
M  V30 1031 H 96.3696 -2.40091 7.82495 0
M  V30 1032 N 99.0327 -1.24633 -0.964593 0
M  V30 1033 C 100.281 -1.08573 -1.70459 0
M  V30 1034 C 100.602 0.375655 -1.91347 0
M  V30 1035 O 99.8717 1.26779 -1.49345 0
M  V30 1036 H 98.4517 -0.398784 -0.631649 0
M  V30 1037 H 101.114 -1.56601 -1.16026 0
M  V30 1038 H 100.21 -1.58623 -2.68785 0
M  V30 1039 N 100.511 1.16574 -1.06058 0
M  V30 1040 C 101.441 2.23057 -0.690488 0
M  V30 1041 C 102.422 1.67141 0.315901 0
M  V30 1042 O 103.607 1.93253 0.191556 0
M  V30 1043 C 100.737 3.47222 -0.073625 0
M  V30 1044 C 99.6908 4.16016 -1.00573 0
M  V30 1045 C 99.0168 5.34104 -0.252289 0
M  V30 1046 C 100.317 4.67264 -2.33371 0
M  V30 1047 H 102.011 2.54271 -1.58072 0
M  V30 1048 H 99.5568 1.22218 -0.76149 0
M  V30 1049 H 101.51 4.20939 0.19714 0
M  V30 1050 H 100.234 3.15302 0.85161 0
M  V30 1051 H 98.8928 3.44223 -1.2612 0
M  V30 1052 H 98.5408 4.98437 0.675988 0
M  V30 1053 H 98.2408 5.81072 -0.873455 0
M  V30 1054 H 99.7648 6.10599 0.0109857 0
M  V30 1055 H 101.179 5.32573 -2.12223 0
M  V30 1056 H 99.5758 5.24843 -2.90963 0
M  V30 1057 H 100.646 3.83602 -2.96611 0
M  V30 1058 N 101.989 0.842826 1.3317 0
M  V30 1059 C 103.217 0.454055 2.01856 0
M  V30 1060 C 103.632 -0.94587 1.63397 0
M  V30 1061 O 102.989 -1.61534 0.849302 0
M  V30 1062 C 103.04 0.569715 3.56982 0
M  V30 1063 O 102.761 1.91448 3.94055 0
M  V30 1064 C 104.262 0.178412 4.42941 0
M  V30 1065 H 101.482 0.17979 0.646465 0
M  V30 1066 H 104.026 1.1365 1.70012 0
M  V30 1067 H 102.181 -0.0648587 3.87346 0
M  V30 1068 H 102.595 1.90282 4.88767 0
M  V30 1069 H 104.069 0.310376 5.51127 0
M  V30 1070 H 104.546 -0.880056 4.30293 0
M  V30 1071 H 105.152 0.787579 4.17944 0
M  V30 1072 N 103.467 -1.45747 0.599634 0
M  V30 1073 C 104.714 -2.02292 0.0917284 0
M  V30 1074 C 105.042 -1.46906 -1.27472 0
M  V30 1075 O 104.297 -0.630652 -1.8526 0
M  V30 1076 C 104.596 -3.57399 -0.00602758 0
M  V30 1077 C 104.262 -4.31902 1.29503 0
M  V30 1078 C 102.924 -4.51974 1.65144 0
M  V30 1079 C 105.276 -4.74551 2.15525 0
M  V30 1080 C 102.604 -5.11949 2.86574 0
M  V30 1081 C 104.956 -5.35868 3.36196 0
M  V30 1082 C 103.62 -5.54165 3.72099 0
M  V30 1083 H 102.89 -0.740239 0.0335658 0
M  V30 1084 H 105.537 -1.7491 0.779661 0
M  V30 1085 H 103.842 -3.84014 -0.777183 0
M  V30 1086 H 105.539 -3.98846 -0.415038 0
M  V30 1087 H 102.129 -4.16588 1.00761 0
M  V30 1088 H 106.313 -4.58784 1.8929 0
M  V30 1089 H 101.569 -5.24305 3.14507 0
M  V30 1090 H 105.743 -5.6787 4.03109 0
M  V30 1091 H 103.37 -6.00406 4.6628 0
M  V30 1092 N 104.945 -0.338344 -1.53925 0
M  V30 1093 C 106.173 0.261298 -2.05243 0
M  V30 1094 C 106.588 1.44625 -1.21363 0
M  V30 1095 O 105.945 1.80811 -0.247736 0
M  V30 1096 C 105.996 0.681412 -3.5502 0
M  V30 1097 O 105.717 -0.456414 -4.35716 0
M  V30 1098 C 107.218 1.34232 -4.22489 0
M  V30 1099 H 104.438 0.0513685 -0.669031 0
M  V30 1100 H 106.982 -0.488822 -1.98572 0
M  V30 1101 H 105.137 1.38148 -3.61931 0
M  V30 1102 H 105.551 -0.122564 -5.24357 0
M  V30 1103 H 107.025 1.58708 -5.28693 0
M  V30 1104 H 107.502 2.29426 -3.74514 0
M  V30 1105 H 108.108 0.684424 -4.19757 0
M  V30 1106 N 106.423 1.57458 -0.0668435 0
M  V30 1107 C 107.333 2.15937 0.916975 0
M  V30 1108 C 108.349 1.12123 1.33058 0
M  V30 1109 O 109.525 1.44366 1.40429 0
M  V30 1110 C 106.59 2.70547 2.16807 0
M  V30 1111 C 105.651 3.89215 1.81135 0
M  V30 1112 C 104.884 4.41211 3.0028 0
M  V30 1113 O 105.107 3.92225 4.14144 0
M  V30 1114 O 104.041 5.32605 2.80384 0
M  V30 1115 H 107.867 3.00354 0.449561 0
M  V30 1116 H 105.452 1.48584 0.155949 0
M  V30 1117 H 107.334 3.0557 2.90181 0
M  V30 1118 H 106.009 1.89192 2.62656 0
M  V30 1119 H 104.916 3.59054 1.05028 0
M  V30 1120 H 106.249 4.71848 1.40073 0
M  V30 1121 N 107.901 -0.206675 1.56239 0
M  V30 1122 C 108.848 -1.25617 1.93621 0
M  V30 1123 C 109.818 -1.45824 0.795274 0
M  V30 1124 O 111.003 -1.59148 1.05245 0
M  V30 1125 C 108.143 -2.59839 2.27107 0
M  V30 1126 C 107.256 -2.47308 3.54207 0
M  V30 1127 C 106.391 -3.74155 3.7707 0
M  V30 1128 C 105.43 -3.56407 4.97635 0
M  V30 1129 N 104.567 -4.75238 5.1681 0
M  V30 1130 H 109.407 -0.930383 2.83104 0
M  V30 1131 H 106.944 -0.448065 1.4011 0
M  V30 1132 H 108.902 -3.38021 2.44535 0
M  V30 1133 H 107.532 -2.90485 1.40778 0
M  V30 1134 H 106.584 -1.60483 3.4489 0
M  V30 1135 H 107.896 -2.30122 4.42544 0
M  V30 1136 H 107.05 -4.60778 3.94675 0
M  V30 1137 H 105.789 -3.94282 2.87042 0
M  V30 1138 H 104.794 -2.68168 4.79964 0
M  V30 1139 H 106.019 -3.37736 5.89161 0
M  V30 1140 H 103.965 -4.95651 4.29728 0
M  V30 1141 H 103.882 -4.60835 5.99306 0
M  V30 1142 H 105.15 -5.63246 5.38864 0
M  V30 1143 N 109.379 -1.50304 -0.473955 0
M  V30 1144 C 110.625 -1.62358 -1.22521 0
M  V30 1145 C 110.98 -0.318555 -1.89745 0
M  V30 1146 O 110.273 0.683315 -1.79001 0
M  V30 1147 C 110.467 -2.73938 -2.29549 0
M  V30 1148 C 110.296 -4.15165 -1.72825 0
M  V30 1149 C 109.066 -4.81604 -1.52924 0
M  V30 1150 C 111.264 -4.99503 -1.22481 0
M  V30 1151 N 109.246 -6.07056 -0.91413 0
M  V30 1152 C 110.617 -6.15655 -0.732743 0
M  V30 1153 C 112.672 -4.85299 -1.11308 0
M  V30 1154 C 111.375 -7.19164 -0.139976 0
M  V30 1155 C 113.401 -5.88982 -0.534258 0
M  V30 1156 C 112.763 -7.0438 -0.0525562 0
M  V30 1157 H 108.862 -0.648286 -0.437321 0
M  V30 1158 H 111.446 -1.87413 -0.527692 0
M  V30 1159 H 109.617 -2.50611 -2.9673 0
M  V30 1160 H 111.349 -2.75366 -2.96573 0
M  V30 1161 H 108.104 -4.3885 -1.78067 0
M  V30 1162 H 108.528 -6.74108 -0.625071 0
M  V30 1163 H 113.17 -3.96369 -1.47144 0
M  V30 1164 H 110.888 -8.07771 0.230591 0
M  V30 1165 H 114.474 -5.80055 -0.450219 0
M  V30 1166 H 113.354 -7.83238 0.388324 0
M  V30 1167 N 110.857 0.726932 -1.39834 0
M  V30 1168 C 111.805 1.86235 -1.39353 0
M  V30 1169 C 112.799 1.67144 -0.275555 0
M  V30 1170 O 114.005 1.74387 -0.44601 0
M  V30 1171 H 110.38 0.613174 -0.43534 0
M  V30 1172 H 112.351 1.83756 -2.35109 0
M  V30 1173 C 111.1 3.23995 -1.26185 0
M  V30 1174 H 110.423 3.39285 -2.11484 0
M  V30 1175 H 111.863 4.03609 -1.29907 0
M  V30 1176 C 110.322 3.36888 0.0290018 0
M  V30 1177 O 110.852 3.89152 0.99619 0
M  V30 1178 N 109.058 2.90446 0.0947437 0
M  V30 1179 H 108.605 2.48102 -0.693035 0
M  V30 1180 H 108.563 2.99451 0.957932 0
M  V30 1181 N 112.336 1.25143 0.95797 0
M  V30 1182 C 113.564 1.12424 1.73691 0
M  V30 1183 C 113.979 -0.322304 1.86029 0
M  V30 1184 O 113.336 -1.22186 1.35561 0
M  V30 1185 C 113.387 1.76933 3.15241 0
M  V30 1186 O 113.108 3.15932 3.03511 0
M  V30 1187 C 114.609 1.6995 4.09429 0
M  V30 1188 H 111.829 0.3923 0.544373 0
M  V30 1189 H 114.373 1.6544 1.20207 0
M  V30 1190 H 112.528 1.27895 3.6568 0
M  V30 1191 H 112.942 3.47598 3.9278 0
M  V30 1192 H 114.416 2.19753 5.06372 0
M  V30 1193 H 114.893 0.662619 4.34173 0
M  V30 1194 H 115.499 2.18461 3.64904 0
M  V30 1195 N 113.814 -1.1601 1.06675 0
M  V30 1196 C 115.091 -1.82679 0.699114 0
M  V30 1197 C 115.471 -1.94559 -0.819137 0
M  V30 1198 O 114.819 -1.49169 -1.73092 0
M  V30 1199 C 115.029 -3.19445 1.40555 0
M  V30 1200 C 116.377 -3.95171 1.55323 0
M  V30 1201 O 117.401 -3.28976 1.36577 0
M  V30 1202 O 116.26 -5.13833 1.86112 0
M  V30 1203 H 113.354 -0.788954 0.247951 0
M  V30 1204 H 115.9 -1.23179 1.16726 0
M  V30 1205 H 114.672 -3.05856 2.44065 0
M  V30 1206 H 114.295 -3.86625 0.927733 0
M  V30 1207 N 115.292 -0.849877 -1.32721 0
M  V30 1208 C 116.24 -0.279745 -2.30912 0
M  V30 1209 C 117.234 0.594278 -1.58634 0
M  V30 1210 O 118.44 0.482613 -1.73409 0
M  V30 1211 H 114.815 -0.0717521 -0.748569 0
M  V30 1212 H 116.786 -1.12222 -2.76494 0
M  V30 1213 C 115.535 0.521108 -3.43773 0
M  V30 1214 H 114.858 -0.142141 -3.99547 0
M  V30 1215 H 116.298 0.885693 -4.14646 0
M  V30 1216 C 114.757 1.70442 -2.90605 0
M  V30 1217 O 115.287 2.8034 -2.87702 0
M  V30 1218 N 113.493 1.52991 -2.47067 0
M  V30 1219 H 113.04 0.635914 -2.49628 0
M  V30 1220 H 112.998 2.32311 -2.11847 0
M  V30 1221 N 116.77 1.45427 -0.607355 0
M  V30 1222 C 117.998 2.06614 -0.108814 0
M  V30 1223 C 118.413 1.45204 1.2067 0
M  V30 1224 O 117.77 0.566132 1.73497 0
M  V30 1225 C 117.821 3.61481 0.0375347 0
M  V30 1226 O 117.542 4.20598 -1.22593 0
M  V30 1227 C 119.043 4.39652 0.567561 0
M  V30 1228 H 116.263 0.66747 -0.0687351 0
M  V30 1229 H 118.807 1.86675 -0.835022 0
M  V30 1230 H 116.962 3.80762 0.714068 0
M  V30 1231 H 117.376 5.1377 -1.05547 0
M  V30 1232 H 118.85 5.48518 0.61905 0
M  V30 1233 H 119.327 4.09417 1.58978 0
M  V30 1234 H 119.933 4.25234 -0.0749202 0
M  V30 1235 N 118.248 0.346503 1.53744 0
M  V30 1236 C 119.178 -0.501193 2.28058 0
M  V30 1237 C 120.159 -1.10014 1.29734 0
M  V30 1238 O 121.344 -1.12097 1.58581 0
M  V30 1239 C 118.474 -1.65078 3.05559 0
M  V30 1240 C 117.428 -1.18003 4.11411 0
M  V30 1241 C 116.754 -2.41837 4.76884 0
M  V30 1242 C 118.054 -0.278394 5.21558 0
M  V30 1243 H 119.748 0.11875 2.99164 0
M  V30 1244 H 117.294 0.0585531 1.43881 0
M  V30 1245 H 119.247 -2.25028 3.56287 0
M  V30 1246 H 117.971 -2.29767 2.32109 0
M  V30 1247 H 116.63 -0.603331 3.61601 0
M  V30 1248 H 116.278 -3.0494 4.00026 0
M  V30 1249 H 115.978 -2.1102 5.48402 0
M  V30 1250 H 117.502 -3.02508 5.30397 0
M  V30 1251 H 118.916 -0.784823 5.67903 0
M  V30 1252 H 117.313 -0.0619707 6.00068 0
M  V30 1253 H 118.383 0.684677 4.80042 0
M  V30 1254 N 119.726 -1.57421 0.075193 0
M  V30 1255 C 120.974 -1.93236 -0.591974 0
M  V30 1256 C 121.295 -0.956241 -1.69944 0
M  V30 1257 O 120.565 -0.00494792 -1.95899 0
M  V30 1258 H 119.145 -0.713355 -0.22166 0
M  V30 1259 H 121.807 -1.9444 0.133848 0
M  V30 1260 H 120.903 -2.95131 -1.01509 0
M  V30 1261 N 121.204 0.198386 -1.56346 0
M  V30 1262 C 122.432 0.935572 -1.84539 0
M  V30 1263 C 122.847 1.76989 -0.657281 0
M  V30 1264 O 122.204 1.78626 0.374043 0
M  V30 1265 C 122.255 1.8344 -3.11499 0
M  V30 1266 O 121.976 1.03377 -4.25728 0
M  V30 1267 C 123.477 2.68355 -3.52846 0
M  V30 1268 H 120.697 0.273126 -0.612897 0
M  V30 1269 H 123.241 0.20663 -2.03453 0
M  V30 1270 H 121.396 2.51701 -2.94492 0
M  V30 1271 H 121.81 1.64599 -4.98003 0
M  V30 1272 H 123.284 3.27085 -4.44657 0
M  V30 1273 H 123.761 3.41901 -2.75681 0
M  V30 1274 H 124.367 2.05471 -3.72373 0
M  V30 1275 N 122.682 1.50554 0.465978 0
M  V30 1276 C 123.592 1.72585 1.58907 0
M  V30 1277 C 124.608 0.60911 1.6299 0
M  V30 1278 O 125.784 0.88804 1.80765 0
M  V30 1279 C 122.849 1.81995 2.95091 0
M  V30 1280 C 121.91 3.05751 3.01355 0
M  V30 1281 C 121.143 3.14702 4.31043 0
M  V30 1282 O 121.366 2.30313 5.21835 0
M  V30 1283 O 120.3 4.07468 4.43005 0
M  V30 1284 H 124.126 2.67799 1.43239 0
M  V30 1285 H 121.711 1.34711 0.646013 0
M  V30 1286 H 123.593 1.90335 3.75966 0
M  V30 1287 H 122.268 0.899659 3.10947 0
M  V30 1288 H 121.175 3.02908 2.19539 0
M  V30 1289 H 122.508 3.97375 2.90437 0
M  V30 1290 N 124.16 -0.719506 1.40217 0
M  V30 1291 C 125.409 -1.47486 1.37589 0
M  V30 1292 C 125.722 -1.9559 -0.0201568 0
M  V30 1293 O 126.928 -2.70973 -0.169049 0
M  V30 1294 C 125.384 -2.66575 2.41796 0
M  V30 1295 C 124.992 -2.25358 3.87192 0
M  V30 1296 C 126.736 -3.4433 2.48269 0
M  V30 1297 C 124.643 -3.41262 4.83005 0
M  V30 1298 H 123.573 -0.553901 0.511576 0
M  V30 1299 H 126.224 -0.783427 1.65936 0
M  V30 1300 H 124.606 -3.3787 2.06543 0
M  V30 1301 H 125.78 -1.61509 4.31569 0
M  V30 1302 H 124.095 -1.60657 3.84159 0
M  V30 1303 H 126.692 -4.30569 3.17041 0
M  V30 1304 H 127.035 -3.87872 1.51198 0
M  V30 1305 H 127.568 -2.80076 2.82493 0
M  V30 1306 H 124.307 -3.02755 5.81394 0
M  V30 1307 H 123.827 -4.0404 4.43297 0
M  V30 1308 H 125.506 -4.07383 5.02641 0
M  V30 1309 N 125.638 -1.25649 -0.95132 0
M  V30 1310 C 126.866 -1.13343 -1.73092 0
M  V30 1311 C 127.281 0.312434 -1.86197 0
M  V30 1312 O 126.638 1.21465 -1.36207 0
M  V30 1313 C 126.689 -1.78602 -3.14299 0
M  V30 1314 O 126.41 -3.17537 -3.01831 0
M  V30 1315 C 127.911 -1.72119 -4.08522 0
M  V30 1316 H 125.131 -0.395181 -0.542285 0
M  V30 1317 H 127.675 -1.66076 -1.19328 0
M  V30 1318 H 125.83 -1.29832 -3.64996 0
M  V30 1319 H 126.244 -3.49676 -3.90931 0
M  V30 1320 H 127.718 -2.22435 -5.052 0
M  V30 1321 H 128.195 -0.685635 -4.33815 0
M  V30 1322 H 128.801 -2.20393 -3.63741 0
M  V30 1323 N 127.117 1.15442 -1.07289 0
M  V30 1324 C 128.363 1.86489 -0.796846 0
M  V30 1325 C 128.696 1.82078 0.675371 0
M  V30 1326 O 127.971 1.24346 1.4956 0
M  V30 1327 C 128.254 3.35626 -1.30489 0
M  V30 1328 C 128.107 3.48673 -2.84161 0
M  V30 1329 C 129.426 4.30357 -0.920907 0
M  V30 1330 H 126.545 0.677144 -0.290939 0
M  V30 1331 H 129.187 1.35633 -1.33056 0
M  V30 1332 H 127.337 3.79068 -0.850883 0
M  V30 1333 H 129.009 3.14099 -3.37846 0
M  V30 1334 H 127.252 2.90253 -3.22391 0
M  V30 1335 H 127.923 4.53453 -3.14777 0
M  V30 1336 H 130.399 3.94871 -1.3121 0
M  V30 1337 H 129.275 5.33193 -1.30372 0
M  V30 1338 H 129.536 4.4176 0.173226 0
M  V30 1339 N 128.595 0.856903 1.32268 0
M  V30 1340 C 129.505 0.306131 2.32594 0
M  V30 1341 C 130.521 -0.577209 1.64147 0
M  V30 1342 O 131.697 -0.477043 1.95669 0
M  V30 1343 C 128.762 -0.494561 3.43154 0
M  V30 1344 C 127.823 0.415186 4.27288 0
M  V30 1345 C 127.056 -0.347387 5.32568 0
M  V30 1346 O 127.279 -1.57708 5.48165 0
M  V30 1347 O 126.213 0.287982 6.01211 0
M  V30 1348 H 130.039 1.13737 2.81598 0
M  V30 1349 H 127.624 0.619902 1.35932 0
M  V30 1350 H 129.506 -0.948944 4.10576 0
M  V30 1351 H 128.181 -1.30257 2.96336 0
M  V30 1352 H 127.088 0.917793 3.62667 0
M  V30 1353 H 128.421 1.18844 4.77637 0
M  V30 1354 N 130.073 -1.45103 0.615059 0
M  V30 1355 C 131.35 -1.95549 0.0448276 0
M  V30 1356 C 131.73 -1.55737 -1.4251 0
M  V30 1357 O 131.078 -0.823556 -2.13143 0
M  V30 1358 C 131.288 -3.48098 0.250785 0
M  V30 1359 C 132.636 -4.24384 0.135509 0
M  V30 1360 O 133.66 -3.55738 0.181299 0
M  V30 1361 O 132.519 -5.46493 0.0268878 0
M  V30 1362 H 129.613 -0.8264 -0.0314845 0
M  V30 1363 H 132.159 -1.55232 0.685642 0
M  V30 1364 H 130.931 -3.7007 1.27139 0
M  V30 1365 H 130.554 -3.95323 -0.424937 0
M  V30 1366 N 131.551 -0.354651 -1.53558 0
M  V30 1367 C 132.483 0.5315 -2.22952 0
M  V30 1368 C 133.496 1.05503 -1.23988 0
M  V30 1369 O 134.685 0.963279 -1.50277 0
M  V30 1370 C 131.785 1.74538 -2.90499 0
M  V30 1371 C 130.958 1.35524 -4.15875 0
M  V30 1372 C 130.017 2.42999 -4.66731 0
M  V30 1373 O 129.043 2.05844 -5.30676 0
M  V30 1374 N 130.245 3.74423 -4.43608 0
M  V30 1375 H 133.01 -0.0628615 -2.99634 0
M  V30 1376 H 130.571 -0.179302 -1.60904 0
M  V30 1377 H 132.563 2.45892 -3.21433 0
M  V30 1378 H 131.133 2.24686 -2.17336 0
M  V30 1379 H 130.353 0.471998 -3.91364 0
M  V30 1380 H 131.641 1.07071 -4.97406 0
M  V30 1381 H 131.039 4.07391 -3.92491 0
M  V30 1382 H 129.596 4.41913 -4.7912 0
M  V30 1383 N 133.029 1.57378 -0.0835403 0
M  V30 1384 C 133.959 2.1641 0.87686 0
M  V30 1385 C 134.94 1.09429 1.30228 0
M  V30 1386 O 136.125 1.37516 1.37124 0
M  V30 1387 C 133.255 2.73517 2.14022 0
M  V30 1388 C 132.209 3.85769 1.85381 0
M  V30 1389 C 131.535 4.29529 3.18448 0
M  V30 1390 C 132.835 5.09486 1.14984 0
M  V30 1391 H 134.529 2.96914 0.385059 0
M  V30 1392 H 132.075 1.42823 0.18377 0
M  V30 1393 H 134.028 3.13463 2.81636 0
M  V30 1394 H 132.752 1.90252 2.65465 0
M  V30 1395 H 131.411 3.46345 1.20169 0
M  V30 1396 H 131.059 3.43169 3.67755 0
M  V30 1397 H 130.759 5.05204 3.00071 0
M  V30 1398 H 132.283 4.72099 3.8724 0
M  V30 1399 H 133.697 5.46674 1.72687 0
M  V30 1400 H 132.094 5.90515 1.06826 0
M  V30 1401 H 133.164 4.84724 0.130749 0
M  V30 1402 N 134.507 -0.190092 1.56449 0
M  V30 1403 C 135.47 -1.21925 1.9408 0
M  V30 1404 C 136.47 -1.38176 0.822431 0
M  V30 1405 O 137.66 -1.35903 1.08977 0
M  V30 1406 C 134.792 -2.58773 2.21922 0
M  V30 1407 H 135.985 -0.897464 2.86157 0
M  V30 1408 H 133.538 -0.43181 1.50217 0
M  V30 1409 H 134.273 -2.95998 1.32499 0
M  V30 1410 H 134.058 -2.48348 3.03424 0
M  V30 1411 H 135.548 -3.32978 2.52022 0
M  V30 1412 N 135.985 -1.50799 -0.457987 0
M  V30 1413 C 137.401 -1.38515 -0.792819 0
M  V30 1414 C 137.601 -0.451409 -1.96379 0
M  V30 1415 O 136.657 0.10112 -2.52297 0
M  V30 1416 C 137.97 -2.80149 -1.09258 0
M  V30 1417 C 139.518 -2.89156 -1.19825 0
M  V30 1418 C 139.993 -4.31651 -1.53106 0
M  V30 1419 N 141.484 -4.34662 -1.60072 0
M  V30 1420 C 142.219 -5.41928 -1.87354 0
M  V30 1421 N 141.715 -6.59384 -2.12568 0
M  V30 1422 N 143.508 -5.29385 -1.88965 0
M  V30 1423 H 135.659 -2.10073 0.313511 0
M  V30 1424 H 137.922 -0.944803 0.0777862 0
M  V30 1425 H 137.628 -3.50374 -0.305084 0
M  V30 1426 H 137.502 -3.18204 -2.02549 0
M  V30 1427 H 139.889 -2.19141 -1.97639 0
M  V30 1428 H 139.97 -2.54626 -0.244821 0
M  V30 1429 H 139.614 -5.02208 -0.758266 0
M  V30 1430 H 139.544 -4.63678 -2.49621 0
M  V30 1431 H 142.035 -3.49973 -1.42573 0
M  V30 1432 H 142.348 -7.36934 -2.32696 0
M  V30 1433 H 140.693 -6.62535 -2.09933 0
M  V30 1434 H 143.884 -4.36616 -1.68772 0
M  V30 1435 H 144.057 -6.13066 -2.09891 0
M  V30 1436 N 137.463 0.71206 -1.40597 0
M  V30 1437 C 138.711 1.46907 -1.38791 0
M  V30 1438 C 139.032 1.94998 0.00780391 0
M  V30 1439 O 138.302 1.70587 0.963174 0
M  V30 1440 H 136.882 0.545043 -0.51082 0
M  V30 1441 H 139.544 0.843882 -1.75683 0
M  V30 1442 H 138.64 2.34021 -2.06496 0
M  V30 1443 N 138.941 1.26152 0.944643 0
M  V30 1444 C 139.871 1.09902 2.06019 0
M  V30 1445 C 140.852 0.00519538 1.70099 0
M  V30 1446 O 142.037 0.176583 1.93396 0
M  V30 1447 C 139.167 0.727562 3.39594 0
M  V30 1448 C 138.121 1.77274 3.89561 0
M  V30 1449 C 137.447 1.25569 5.19747 0
M  V30 1450 C 138.747 3.17357 4.14827 0
M  V30 1451 H 140.441 2.03217 2.19871 0
M  V30 1452 H 137.987 0.978452 1.05652 0
M  V30 1453 H 139.94 0.600777 4.17095 0
M  V30 1454 H 138.664 -0.241287 3.25707 0
M  V30 1455 H 137.323 1.88814 3.14237 0
M  V30 1456 H 136.971 0.276783 5.02238 0
M  V30 1457 H 136.671 1.95433 5.54148 0
M  V30 1458 H 138.195 1.1415 5.99835 0
M  V30 1459 H 139.609 3.08914 4.82954 0
M  V30 1460 H 138.006 3.84781 4.60504 0
M  V30 1461 H 139.076 3.63673 3.20734 0
M  V30 1462 N 140.419 -1.14872 1.07899 0
M  V30 1463 C 141.366 -2.19791 0.704319 0
M  V30 1464 C 142.336 -1.63238 -0.306987 0
M  V30 1465 O 143.521 -1.8983 -0.192171 0
M  V30 1466 C 140.661 -3.44911 0.114244 0
M  V30 1467 C 139.774 -4.15637 1.1777 0
M  V30 1468 C 138.909 -5.28324 0.552037 0
M  V30 1469 C 137.948 -5.90875 1.59789 0
M  V30 1470 N 137.085 -6.95022 0.994404 0
M  V30 1471 H 141.925 -2.5119 1.60336 0
M  V30 1472 H 139.462 -1.23356 0.801352 0
M  V30 1473 H 141.42 -4.16477 -0.245544 0
M  V30 1474 H 140.05 -3.14011 -0.74813 0
M  V30 1475 H 139.102 -3.42512 1.65499 0
M  V30 1476 H 140.414 -4.5823 1.97046 0
M  V30 1477 H 139.568 -6.06538 0.1402 0
M  V30 1478 H 138.307 -4.86939 -0.272431 0
M  V30 1479 H 137.312 -5.11369 2.01945 0
M  V30 1480 H 138.537 -6.34337 2.42474 0
M  V30 1481 H 136.483 -6.55722 0.190939 0
M  V30 1482 H 136.4 -7.36073 1.72432 0
M  V30 1483 H 137.668 -7.77123 0.608253 0
M  V30 1484 N 141.898 -0.863906 -1.31812 0
M  V30 1485 C 142.828 -0.330843 -2.31144 0
M  V30 1486 C 143.809 0.575005 -1.60087 0
M  V30 1487 O 144.994 0.493304 -1.8783 0
M  V30 1488 C 142.124 0.47374 -3.44054 0
M  V30 1489 C 141.078 -0.338481 -4.26659 0
M  V30 1490 C 140.404 0.591412 -5.31419 0
M  V30 1491 C 141.704 -1.56926 -4.98168 0
M  V30 1492 H 143.398 -1.16086 -2.75979 0
M  V30 1493 H 140.944 -0.559657 -1.32679 0
M  V30 1494 H 142.897 0.857143 -4.12591 0
M  V30 1495 H 141.621 1.33721 -2.9797 0
M  V30 1496 H 140.28 -0.703754 -3.59782 0
M  V30 1497 H 139.928 1.45199 -4.81587 0
M  V30 1498 H 139.628 0.0519022 -5.87577 0
M  V30 1499 H 141.152 0.97179 -6.02817 0
M  V30 1500 H 142.566 -1.25764 -5.59336 0
M  V30 1501 H 140.963 -2.04739 -5.64094 0
M  V30 1502 H 142.033 -2.32544 -4.25501 0
M  V30 1503 N 143.376 1.44774 -0.622745 0
M  V30 1504 C 144.604 2.06487 -0.130722 0
M  V30 1505 C 145.019 1.46476 1.19123 0
M  V30 1506 O 144.376 0.584502 1.72887 0
M  V30 1507 C 144.427 3.615 -0.000807207 0
M  V30 1508 O 144.148 4.19274 -1.27048 0
M  V30 1509 C 145.649 4.40229 0.520898 0
M  V30 1510 H 142.869 0.666704 -0.0758106 0
M  V30 1511 H 145.413 1.85779 -0.854774 0
M  V30 1512 H 143.568 3.81498 0.673643 0
M  V30 1513 H 143.982 5.12622 -1.1099 0
M  V30 1514 H 145.456 5.49144 0.560838 0
M  V30 1515 H 145.933 4.1108 1.54627 0
M  V30 1516 H 146.539 4.25131 -0.120018 0
M  V30 1517 N 144.854 0.36279 1.53368 0
M  V30 1518 C 146.101 -0.227776 2.01215 0
M  V30 1519 C 146.429 -1.49003 1.25014 0
M  V30 1520 O 145.684 -1.92876 0.331236 0
M  V30 1521 C 145.983 -0.568417 3.52851 0
M  V30 1522 C 145.649 0.59918 4.46901 0
M  V30 1523 C 144.311 0.919559 4.72332 0
M  V30 1524 C 146.663 1.38156 5.02556 0
M  V30 1525 C 143.991 2.02434 5.5067 0
M  V30 1526 C 146.343 2.47674 5.821 0
M  V30 1527 C 145.007 2.8025 6.05819 0
M  V30 1528 H 144.277 -0.083349 0.736297 0
M  V30 1529 H 146.924 0.494677 1.85001 0
M  V30 1530 H 145.229 -1.37185 3.66998 0
M  V30 1531 H 146.926 -1.03756 3.87344 0
M  V30 1532 H 143.516 0.339437 4.27254 0
M  V30 1533 H 147.7 1.14729 4.82857 0
M  V30 1534 H 142.956 2.28075 5.67267 0
M  V30 1535 H 147.13 3.08716 6.24234 0
M  V30 1536 H 144.757 3.65979 6.66306 0
M  V30 1537 N 146.332 -1.57332 0.0918853 0
M  V30 1538 C 147.609 -1.85691 -0.614668 0
M  V30 1539 C 147.989 -0.988146 -1.86545 0
M  V30 1540 O 147.337 -0.0597055 -2.28422 0
M  V30 1541 C 147.547 -3.36294 -0.933126 0
M  V30 1542 C 148.895 -4.04275 -1.29796 0
M  V30 1543 O 149.919 -3.41157 -1.02424 0
M  V30 1544 O 148.778 -5.1564 -1.81047 0
M  V30 1545 H 145.872 -0.767802 -0.307261 0
M  V30 1546 H 148.418 -1.69244 0.12434 0
M  V30 1547 H 147.19 -3.91273 -0.0456404 0
M  V30 1548 H 146.813 -3.58076 -1.72822 0
M  V30 1549 N 147.81 0.181792 -1.56548 0
M  V30 1550 C 149.035 0.920019 -1.85877 0
M  V30 1551 C 149.46 1.75494 -0.677021 0
M  V30 1552 O 148.818 1.77399 0.374056 0
M  V30 1553 C 148.866 1.78112 -3.13542 0
M  V30 1554 O 147.97 2.88152 -2.95029 0
M  V30 1555 H 147.311 0.258334 -0.611686 0
M  V30 1556 H 149.841 0.183092 -2.03779 0
M  V30 1557 H 149.851 2.18314 -3.44678 0
M  V30 1558 H 148.526 1.16777 -3.99169 0
M  V30 1559 H 147.103 2.51609 -2.75222 0
M  V30 1560 N 149.288 1.51039 0.449983 0
M  V30 1561 C 150.513 1.6715 1.22783 0
M  V30 1562 C 150.938 0.363081 1.84563 0
M  V30 1563 O 150.296 -0.675433 1.68249 0
M  V30 1564 C 150.344 2.77985 2.29689 0
M  V30 1565 O 149.448 2.40707 3.34864 0
M  V30 1566 H 148.789 0.557746 0.360299 0
M  V30 1567 H 151.319 1.97535 0.533005 0
M  V30 1568 H 151.329 3.01693 2.74673 0
M  V30 1569 H 150.004 3.72935 1.84098 0
M  V30 1570 H 148.581 2.27523 2.95445 0
M  V30 1571 N 150.766 -0.704594 1.40972 0
M  V30 1572 C 152.013 -1.46458 1.39844 0
M  V30 1573 C 152.341 -1.94499 0.00447594 0
M  V30 1574 O 151.596 -1.69275 -0.982057 0
M  V30 1575 C 151.895 -2.698 2.34399 0
M  V30 1576 C 151.561 -2.40464 3.81429 0
M  V30 1577 C 150.223 -2.32174 4.21484 0
M  V30 1578 C 152.575 -2.16086 4.74296 0
M  V30 1579 C 149.903 -1.97589 5.52427 0
M  V30 1580 C 152.255 -1.83011 6.05549 0
M  V30 1581 C 150.919 -1.7321 6.44635 0
M  V30 1582 H 150.189 -0.535927 0.511725 0
M  V30 1583 H 152.836 -0.806124 1.73706 0
M  V30 1584 H 151.141 -3.40536 1.93759 0
M  V30 1585 H 152.838 -3.27919 2.30804 0
M  V30 1586 H 149.428 -2.47808 3.49699 0
M  V30 1587 H 153.612 -2.2144 4.4416 0
M  V30 1588 H 148.868 -1.88547 5.81601 0
M  V30 1589 H 153.042 -1.63164 6.77016 0
M  V30 1590 H 150.669 -1.46179 7.46013 0
M  V30 1591 N 152.244 -1.26651 -0.937939 0
M  V30 1592 C 153.469 -1.15279 -1.72411 0
M  V30 1593 C 153.894 0.287866 -1.85884 0
M  V30 1594 O 153.252 1.20855 -1.35143 0
M  V30 1595 C 153.3 -1.83028 -3.10698 0
M  V30 1596 O 152.404 -1.12128 -3.96864 0
M  V30 1597 H 151.745 -0.401504 -0.528858 0
M  V30 1598 H 154.275 -1.67531 -1.1745 0
M  V30 1599 H 154.285 -1.89981 -3.6107 0
M  V30 1600 H 152.96 -2.87833 -3.00208 0
M  V30 1601 H 151.537 -1.13173 -3.55312 0
M  V30 1602 N 153.722 1.14298 -1.08507 0
M  V30 1603 C 155.133 1.66926 -0.836227 0
M  V30 1604 C 155.484 1.85576 0.63686 0
M  V30 1605 O 154.609 1.56767 1.49175 0
M  V30 1606 C 155.204 3.03219 -1.51142 0
M  V30 1607 C 153.763 3.52876 -1.30979 0
M  V30 1608 C 152.91 2.2833 -1.57356 0
M  V30 1609 H 155.861 0.983491 -1.24552 0
M  V30 1610 H 155.882 3.68726 -0.939211 0
M  V30 1611 H 155.394 2.89612 -2.58353 0
M  V30 1612 H 153.495 3.71703 -0.258429 0
M  V30 1613 H 153.608 4.33586 -2.03814 0
M  V30 1614 H 151.972 2.34454 -0.995164 0
M  V30 1615 H 152.755 2.17298 -2.65775 0
M  V30 1616 N 155.201 0.870884 1.31352 0
M  V30 1617 C 156.149 0.316445 2.30437 0
M  V30 1618 C 157.143 -0.568965 1.59559 0
M  V30 1619 O 158.349 -0.454964 1.74155 0
M  V30 1620 H 154.724 0.0836521 0.747333 0
M  V30 1621 H 156.695 1.16606 2.74673 0
M  V30 1622 C 155.444 -0.46635 3.44558 0
M  V30 1623 H 154.767 0.205687 3.99271 0
M  V30 1624 H 156.207 -0.819614 4.16003 0
M  V30 1625 C 154.666 -1.65797 2.9328 0
M  V30 1626 O 155.196 -2.75728 2.92125 0
M  V30 1627 N 153.402 -1.49041 2.4947 0
M  V30 1628 H 152.949 -0.59612 2.50608 0
M  V30 1629 H 152.907 -2.28911 2.15516 0
M  V30 1630 N 156.679 -1.44442 0.630414 0
M  V30 1631 C 157.907 -2.06414 0.141671 0
M  V30 1632 C 158.322 -1.47105 -1.18345 0
M  V30 1633 O 157.679 -0.593662 -1.72574 0
M  V30 1634 C 157.73 -3.61494 0.0199784 0
M  V30 1635 O 157.451 -4.18594 1.29269 0
M  V30 1636 C 158.952 -4.40499 -0.497544 0
M  V30 1637 H 156.172 -0.666292 0.0793452 0
M  V30 1638 H 158.716 -1.85323 0.864614 0
M  V30 1639 H 156.871 -3.8185 -0.653402 0
M  V30 1640 H 157.285 -5.12026 1.13707 0
M  V30 1641 H 158.759 -5.49433 -0.531708 0
M  V30 1642 H 159.236 -4.11895 -1.52445 0
M  V30 1643 H 159.842 -4.25061 0.142562 0
M  V30 1644 N 158.157 -0.370918 -1.53173 0
M  V30 1645 C 159.405 0.216673 -2.00935 0
M  V30 1646 C 159.726 1.48845 -1.25977 0
M  V30 1647 O 158.996 1.92286 -0.374551 0
M  V30 1648 H 157.576 0.0830565 -0.742368 0
M  V30 1649 H 160.238 -0.49838 -1.8842 0
M  V30 1650 H 159.334 0.439893 -3.08984 0
M  V30 1651 N 159.635 1.57281 -0.100228 0
M  V30 1652 C 160.582 2.14305 0.856858 0
M  V30 1653 C 161.552 1.06296 1.27634 0
M  V30 1654 O 162.737 1.34109 1.35718 0
M  V30 1655 C 159.877 2.73184 2.10866 0
M  V30 1656 C 158.99 3.95442 1.73925 0
M  V30 1657 C 158.125 4.42468 2.93931 0
M  V30 1658 C 157.164 5.57303 2.5314 0
M  V30 1659 N 156.301 5.99158 3.65997 0
M  V30 1660 H 161.141 2.95772 0.363726 0
M  V30 1661 H 158.678 1.46139 0.167858 0
M  V30 1662 H 160.636 3.05442 2.84185 0
M  V30 1663 H 159.266 1.94437 2.57671 0
M  V30 1664 H 158.318 3.69464 0.905554 0
M  V30 1665 H 159.63 4.78769 1.39935 0
M  V30 1666 H 158.784 4.76537 3.75496 0
M  V30 1667 H 157.523 3.58052 3.31134 0
M  V30 1668 H 156.528 5.22857 1.70003 0
M  V30 1669 H 157.753 6.43471 2.17075 0
M  V30 1670 H 155.699 5.17687 4.02909 0
M  V30 1671 H 155.616 6.77295 3.35869 0
M  V30 1672 H 156.884 6.3786 4.48057 0
M  V30 1673 N 161.113 -0.173488 1.56642 0
M  V30 1674 C 162.06 -1.21482 1.96242 0
M  V30 1675 C 163.03 -1.44104 0.826027 0
M  V30 1676 O 164.215 -1.5688 1.08597 0
M  V30 1677 C 161.355 -2.54964 2.32567 0
M  V30 1678 C 160.468 -2.39739 3.59373 0
M  V30 1679 C 159.603 -3.66072 3.84921 0
M  V30 1680 C 158.642 -3.45771 5.05083 0
M  V30 1681 N 157.779 -4.64169 5.26775 0
M  V30 1682 H 162.619 -0.870123 2.85014 0
M  V30 1683 H 160.156 -0.418245 1.41029 0
M  V30 1684 H 162.114 -3.32758 2.5165 0
M  V30 1685 H 160.744 -2.87433 1.46908 0
M  V30 1686 H 159.796 -1.53131 3.48217 0
M  V30 1687 H 161.108 -2.20683 4.47326 0
M  V30 1688 H 160.262 -4.52303 4.0436 0
M  V30 1689 H 159.001 -3.88105 2.9534 0
M  V30 1690 H 158.006 -2.57927 4.85545 0
M  V30 1691 H 159.231 -3.25163 5.96193 0
M  V30 1692 H 157.177 -4.86425 4.40144 0
M  V30 1693 H 157.094 -4.48019 6.08946 0
M  V30 1694 H 158.362 -5.51689 5.5069 0
M  V30 1695 N 162.591 -1.51276 -0.441967 0
M  V30 1696 C 163.539 -1.72823 -1.55676 0
M  V30 1697 C 164.533 -0.59445 -1.58627 0
M  V30 1698 O 165.739 -0.775715 -1.62427 0
M  V30 1699 H 162.114 -0.545983 -0.517113 0
M  V30 1700 H 164.085 -2.6628 -1.34675 0
M  V30 1701 C 162.834 -1.86619 -2.93375 0
M  V30 1702 H 162.157 -2.73264 -2.91834 0
M  V30 1703 H 163.597 -2.05709 -3.70756 0
M  V30 1704 C 162.056 -0.624842 -3.31055 0
M  V30 1705 O 162.586 0.222636 -4.01083 0
M  V30 1706 N 160.792 -0.470288 -2.86769 0
M  V30 1707 H 160.339 -1.161 -2.29953 0
M  V30 1708 H 160.297 0.359051 -3.12343 0
M  V30 1709 N 164.069 0.697108 -1.41344 0
M  V30 1710 C 165.032 1.79281 -1.42797 0
M  V30 1711 C 166.032 1.57607 -0.318837 0
M  V30 1712 O 167.222 1.64309 -0.578642 0
M  V30 1713 C 164.354 3.17632 -1.23785 0
M  V30 1714 H 165.547 1.79385 -2.40335 0
M  V30 1715 H 163.1 0.904582 -1.27464 0
M  V30 1716 H 163.835 3.23167 -0.270814 0
M  V30 1717 H 163.62 3.34765 -2.04144 0
M  V30 1718 H 165.11 3.97617 -1.27633 0
M  V30 1719 N 165.547 1.27147 0.931209 0
M  V30 1720 C 166.494 1.09568 2.03134 0
M  V30 1721 C 167.464 -0.00222433 1.661 0
M  V30 1722 O 168.649 0.159439 1.90133 0
M  V30 1723 C 165.789 0.745231 3.36957 0
M  V30 1724 C 164.902 1.92041 3.86968 0
M  V30 1725 C 164.037 1.51216 5.09222 0
M  V30 1726 C 163.076 2.65504 5.5152 0
M  V30 1727 N 162.213 2.25291 6.64972 0
M  V30 1728 H 167.053 2.03708 2.17502 0
M  V30 1729 H 164.59 1.01411 1.06556 0
M  V30 1730 H 166.548 0.522878 4.1391 0
M  V30 1731 H 165.178 -0.159202 3.22407 0
M  V30 1732 H 164.23 2.25541 3.06326 0
M  V30 1733 H 165.542 2.77787 4.1429 0
M  V30 1734 H 164.696 1.25084 5.93666 0
M  V30 1735 H 163.435 0.625749 4.83669 0
M  V30 1736 H 162.44 2.92354 4.65628 0
M  V30 1737 H 163.665 3.54761 5.7907 0
M  V30 1738 H 161.611 1.39098 6.41083 0
M  V30 1739 H 161.528 3.04577 6.91931 0
M  V30 1740 H 162.796 2.02398 7.52765 0
M  V30 1741 N 167.025 -1.13721 1.09112 0
M  V30 1742 C 168.274 -1.84275 0.82009 0
M  V30 1743 C 168.587 -1.84253 -0.656509 0
M  V30 1744 O 169.793 -2.50668 -1.04296 0
M  V30 1745 C 168.249 -3.30825 1.41714 0
M  V30 1746 C 167.857 -3.39244 2.92605 0
M  V30 1747 C 169.601 -4.06443 1.22492 0
M  V30 1748 C 167.508 -4.80047 3.45411 0
M  V30 1749 H 166.438 -0.690387 0.30312 0
M  V30 1750 H 169.089 -1.28146 1.31343 0
M  V30 1751 H 167.471 -3.86737 0.851498 0
M  V30 1752 H 168.645 -2.93344 3.55367 0
M  V30 1753 H 166.96 -2.77088 3.10823 0
M  V30 1754 H 169.557 -5.10387 1.59402 0
M  V30 1755 H 169.9 -4.15972 0.165299 0
M  V30 1756 H 170.433 -3.56852 1.75788 0
M  V30 1757 H 167.172 -4.75709 4.50978 0
M  V30 1758 H 166.692 -5.26455 2.87411 0
M  V30 1759 H 168.371 -5.48957 3.42425 0
M  V30 1760 N 168.503 -0.877838 -1.30888 0
M  V30 1761 C 169.45 -0.337538 -2.28318 0
M  V30 1762 C 170.42 0.568346 -1.56074 0
M  V30 1763 O 171.605 0.498298 -1.84178 0
M  V30 1764 C 168.745 0.448142 -3.42178 0
M  V30 1765 C 167.858 -0.48615 -4.29256 0
M  V30 1766 C 166.993 0.314427 -5.30269 0
M  V30 1767 C 166.032 -0.615791 -6.08995 0
M  V30 1768 N 165.169 0.14902 -7.01942 0
M  V30 1769 H 170.009 -1.17356 -2.73919 0
M  V30 1770 H 167.546 -0.590094 -1.34745 0
M  V30 1771 H 169.504 0.919517 -4.06941 0
M  V30 1772 H 168.134 1.24879 -2.97666 0
M  V30 1773 H 167.186 -1.076 -3.64865 0
M  V30 1774 H 168.498 -1.19909 -4.84173 0
M  V30 1775 H 167.652 0.847969 -6.00745 0
M  V30 1776 H 166.391 1.06062 -4.76027 0
M  V30 1777 H 165.396 -1.16102 -5.37401 0
M  V30 1778 H 166.621 -1.36097 -6.65323 0
M  V30 1779 H 164.567 0.877884 -6.50099 0
M  V30 1780 H 164.484 -0.504433 -7.54315 0
M  V30 1781 H 165.752 0.663537 -7.76671 0
M  V30 1782 N 169.982 1.44106 -0.638065 0
M  V30 1783 C 171.21 2.06336 -0.152615 0
M  V30 1784 C 171.625 1.47731 1.17563 0
M  V30 1785 O 170.982 0.602806 1.72257 0
M  V30 1786 C 171.033 3.61479 -0.0391491 0
M  V30 1787 O 170.754 4.17903 -1.31487 0
M  V30 1788 C 172.255 4.40757 0.474176 0
M  V30 1789 H 169.475 0.665862 -0.0828776 0
M  V30 1790 H 172.019 1.84862 -0.87443 0
M  V30 1791 H 170.174 3.82191 0.633142 0
M  V30 1792 H 170.588 5.11416 -1.16421 0
M  V30 1793 H 172.062 5.49707 0.502562 0
M  V30 1794 H 172.539 4.12697 1.50258 0
M  V30 1795 H 173.145 4.24979 -0.165102 0
M  V30 1796 N 171.46 0.379036 1.52974 0
M  V30 1797 C 172.708 -0.206014 2.01047 0
M  V30 1798 C 173.029 -1.48175 1.26765 0
M  V30 1799 O 172.299 -1.92085 0.384743 0
M  V30 1800 H 170.879 -0.0791184 0.742798 0
M  V30 1801 H 173.541 0.508366 1.88153 0
M  V30 1802 H 172.637 -0.423501 3.09213 0
M  V30 1803 N 172.938 -1.57226 0.108567 0
M  V30 1804 C 174.168 -1.9889 -0.559142 0
M  V30 1805 C 174.576 -0.986889 -1.61422 0
M  V30 1806 O 173.919 0.0298705 -1.83676 0
M  V30 1807 C 173.981 -3.36952 -1.25315 0
M  V30 1808 C 173.645 -4.55679 -0.347248 0
M  V30 1809 C 174.642 -5.18281 0.409996 0
M  V30 1810 C 172.327 -5.0162 -0.261367 0
M  V30 1811 C 174.321 -6.25203 1.24096 0
M  V30 1812 C 172.008 -6.08405 0.573238 0
M  V30 1813 C 173.006 -6.70063 1.32304 0
M  V30 1814 O 172.694 -7.74788 2.14381 0
M  V30 1815 H 172.426 -0.658343 -0.153492 0
M  V30 1816 H 174.98 -2.04532 0.188584 0
M  V30 1817 H 173.21 -3.28032 -2.04773 0
M  V30 1818 H 174.899 -3.62974 -1.81673 0
M  V30 1819 H 175.665 -4.8371 0.353457 0
M  V30 1820 H 171.544 -4.53381 -0.834656 0
M  V30 1821 H 175.088 -6.73259 1.82669 0
M  V30 1822 H 170.985 -6.42406 0.631208 0
M  V30 1823 H 171.753 -7.91837 2.07209 0
M  V30 1824 N 174.416 0.165178 -1.56732 0
M  V30 1825 C 175.363 1.2044 -1.96883 0
M  V30 1826 C 176.333 1.43664 -0.833657 0
M  V30 1827 O 177.518 1.56302 -1.09427 0
M  V30 1828 C 174.658 2.53727 -2.33916 0
M  V30 1829 C 173.771 2.3783 -3.6064 0
M  V30 1830 C 172.906 3.64026 -3.86857 0
M  V30 1831 C 171.945 3.43088 -5.06909 0
M  V30 1832 N 171.082 4.61369 -5.29229 0
M  V30 1833 H 175.922 0.854996 -2.85471 0
M  V30 1834 H 173.459 0.41076 -1.41249 0
M  V30 1835 H 175.417 3.31419 -2.53411 0
M  V30 1836 H 174.047 2.8665 -1.48431 0
M  V30 1837 H 173.099 1.51282 -3.49024 0
M  V30 1838 H 174.411 2.18308 -4.4849 0
M  V30 1839 H 173.565 4.50152 -4.06753 0
M  V30 1840 H 172.304 3.86533 -2.97394 0
M  V30 1841 H 171.309 2.55349 -4.86906 0
M  V30 1842 H 172.534 3.21997 -5.97909 0
M  V30 1843 H 170.48 4.84084 -4.42718 0
M  V30 1844 H 170.397 4.44783 -6.11313 0
M  V30 1845 H 171.665 5.48761 -5.53608 0
M  V30 1846 N 175.894 1.51508 0.433938 0
M  V30 1847 C 177.31 1.39759 0.770682 0
M  V30 1848 C 177.51 0.482594 1.95636 0
M  V30 1849 O 176.566 -0.0609691 2.52426 0
M  V30 1850 C 177.879 2.81851 1.04787 0
M  V30 1851 C 179.427 2.91025 1.1521 0
M  V30 1852 C 179.902 4.34032 1.46219 0
M  V30 1853 N 181.393 4.37154 1.53136 0
M  V30 1854 C 182.128 5.4484 1.78709 0
M  V30 1855 N 181.624 6.62682 2.02051 0
M  V30 1856 N 183.417 5.32324 1.80519 0
M  V30 1857 H 175.568 2.09548 -0.346892 0
M  V30 1858 H 177.831 0.943446 -0.0928074 0
M  V30 1859 H 177.537 3.50815 0.249304 0
M  V30 1860 H 177.411 3.21386 1.97461 0
M  V30 1861 H 179.798 2.22257 1.94128 0
M  V30 1862 H 179.879 2.54983 0.204281 0
M  V30 1863 H 179.523 5.03351 0.678274 0
M  V30 1864 H 179.453 4.6759 2.42212 0
M  V30 1865 H 181.944 3.52197 1.36987 0
M  V30 1866 H 182.257 7.40543 2.20943 0
M  V30 1867 H 180.602 6.65791 1.99366 0
M  V30 1868 H 183.793 4.39246 1.61805 0
M  V30 1869 H 183.966 6.16328 2.00111 0
M  V30 1870 N 177.372 -0.689602 1.41712 0
M  V30 1871 C 178.282 -1.83314 1.46401 0
M  V30 1872 C 179.298 -1.7036 0.35405 0
M  V30 1873 O 180.474 -1.92171 0.602692 0
M  V30 1874 C 177.539 -3.19344 1.34982 0
M  V30 1875 C 176.6 -3.44363 2.56344 0
M  V30 1876 C 175.833 -4.73904 2.45461 0
M  V30 1877 O 176.056 -5.508 1.48241 0
M  V30 1878 O 174.99 -4.99839 3.35328 0
M  V30 1879 H 178.816 -1.82314 2.42889 0
M  V30 1880 H 176.401 -0.843438 1.23315 0
M  V30 1881 H 178.283 -4.00547 1.3092 0
M  V30 1882 H 176.958 -3.21014 0.41612 0
M  V30 1883 H 175.865 -2.63067 2.65982 0
M  V30 1884 H 177.198 -3.47512 3.48563 0
M  V30 1885 N 178.85 -1.27639 -0.924453 0
M  V30 1886 C 179.8 -1.07295 -2.01176 0
M  V30 1887 C 180.784 5.77352e-05 -1.609 0
M  V30 1888 O 181.976 -0.218855 -1.75642 0
M  V30 1889 C 179.105 -0.725592 -3.35544 0
M  V30 1890 C 178.191 -1.83691 -3.82254 0
M  V30 1891 N 178.582 -3.07697 -4.01443 0
M  V30 1892 C 176.88 -1.72433 -4.11319 0
M  V30 1893 C 177.581 -3.80037 -4.40394 0
M  V30 1894 N 176.557 -3.0782 -4.48049 0
M  V30 1895 H 180.359 -2.01399 -2.14046 0
M  V30 1896 H 177.873 -1.18401 -1.11153 0
M  V30 1897 H 179.87 -0.560959 -4.13109 0
M  V30 1898 H 178.53 0.207782 -3.24034 0
M  V30 1899 H 179.541 -3.43424 -3.8766 0
M  V30 1900 H 176.218 -0.862005 -4.08504 0
M  V30 1901 H 177.608 -4.86632 -4.63291 0
M  V30 1902 N 180.328 1.1314 -1.09713 0
M  V30 1903 C 181.577 1.83838 -0.829851 0
M  V30 1904 C 181.89 1.84599 0.646728 0
M  V30 1905 O 183.096 2.51218 1.02965 0
M  V30 1906 C 181.552 3.30069 -1.43466 0
M  V30 1907 C 181.16 3.37688 -2.94399 0
M  V30 1908 C 182.904 4.05788 -1.24645 0
M  V30 1909 C 180.811 4.78209 -3.47952 0
M  V30 1910 H 179.741 0.68877 -0.306777 0
M  V30 1911 H 182.392 1.27448 -1.3202 0
M  V30 1912 H 180.774 3.8628 -0.871996 0
M  V30 1913 H 181.948 2.91456 -3.56918 0
M  V30 1914 H 180.263 2.75436 -3.12289 0
M  V30 1915 H 182.86 5.09535 -1.62107 0
M  V30 1916 H 183.203 4.15878 -0.187357 0
M  V30 1917 H 183.736 3.55915 -1.77678 0
M  V30 1918 H 180.475 4.73311 -4.53495 0
M  V30 1919 H 179.995 5.24924 -2.90198 0
M  V30 1920 H 181.674 5.47133 -3.45332 0
M  V30 1921 N 181.806 0.884767 1.30421 0
M  V30 1922 C 182.754 0.340869 2.30089 0
M  V30 1923 C 183.748 -0.55201 1.60154 0
M  V30 1924 O 184.954 -0.436467 1.74628 0
M  V30 1925 H 181.329 0.0915739 0.746404 0
M  V30 1926 H 183.3 1.19513 2.73421 0
M  V30 1927 C 182.049 -0.429779 3.45034 0
M  V30 1928 H 181.372 0.248024 3.9903 0
M  V30 1929 H 182.812 -0.775445 4.16849 0
M  V30 1930 C 181.271 -1.62677 2.95022 0
M  V30 1931 O 181.801 -2.72614 2.95033 0
M  V30 1932 N 180.007 -1.46387 2.51036 0
M  V30 1933 H 179.554 -0.569506 2.51226 0
M  V30 1934 H 179.512 -2.26612 2.17932 0
M  V30 1935 N 183.284 -1.43765 0.645699 0
M  V30 1936 C 184.214 -2.33471 -0.0370477 0
M  V30 1937 C 185.195 -1.49042 -0.819779 0
M  V30 1938 O 186.38 -1.77726 -0.782758 0
M  V30 1939 C 183.51 -3.32311 -1.0093 0
M  V30 1940 C 182.464 -4.2667 -0.337201 0
M  V30 1941 C 181.79 -5.1549 -1.42037 0
M  V30 1942 C 183.09 -5.16657 0.765706 0
M  V30 1943 H 184.784 -2.90809 0.712069 0
M  V30 1944 H 182.33 -1.39834 0.343876 0
M  V30 1945 H 184.283 -3.9396 -1.49578 0
M  V30 1946 H 183.007 -2.73213 -1.78948 0
M  V30 1947 H 181.666 -3.66374 0.128771 0
M  V30 1948 H 181.314 -4.52735 -2.1918 0
M  V30 1949 H 181.014 -5.79438 -0.975966 0
M  V30 1950 H 182.538 -5.80012 -1.90838 0
M  V30 1951 H 183.952 -5.72158 0.361702 0
M  V30 1952 H 182.349 -5.89286 1.13413 0
M  V30 1953 H 183.419 -4.56796 1.62683 0
M  V30 1954 N 184.763 -0.387143 -1.52771 0
M  V30 1955 C 186.011 0.195349 -2.01154 0
M  V30 1956 C 186.332 1.475 -1.27549 0
M  V30 1957 O 185.602 1.91878 -0.394924 0
M  V30 1958 H 184.182 0.075178 -0.743207 0
M  V30 1959 H 186.844 -0.518337 -1.87881 0
M  V30 1960 H 185.94 0.407096 -3.09434 0
M  V30 1961 N 186.241 1.57166 -0.116904 0
M  V30 1962 C 187.481 1.97008 0.544715 0
M  V30 1963 C 187.845 0.998713 1.63981 0
M  V30 1964 O 189.046 1.28644 2.36018 0
M  V30 1965 C 187.317 3.41145 1.06559 0
M  V30 1966 S 188.876 4.02998 1.73603 0
M  V30 1967 H 185.694 0.688587 0.177112 0
M  V30 1968 H 188.296 1.94459 -0.201487 0
M  V30 1969 H 187 4.09592 0.257374 0
M  V30 1970 H 186.531 3.4734 1.84712 0
M  V30 1971 H 188.546 3.93585 3.02168 0
M  V30 1972 N 187.719 -0.156864 1.56817 0
M  V30 1973 C 188.996 -0.899244 1.73704 0
M  V30 1974 C 189.376 -1.99771 0.682254 0
M  V30 1975 O 188.724 -2.26515 -0.300522 0
M  V30 1976 C 188.934 -1.45075 3.17418 0
M  V30 1977 C 190.282 -1.91802 3.7881 0
M  V30 1978 O 191.306 -1.54838 3.20786 0
M  V30 1979 O 190.165 -2.5994 4.80722 0
M  V30 1980 H 187.259 -0.424267 0.709878 0
M  V30 1981 H 189.805 -0.143561 1.69092 0
M  V30 1982 H 188.577 -0.660846 3.85679 0
M  V30 1983 H 188.2 -2.27021 3.26416 0
M  V30 1984 N 189.197 -1.51736 -0.425897 0
M  V30 1985 C 190.13 -1.68574 -1.53812 0
M  V30 1986 C 191.108 -0.53328 -1.53606 0
M  V30 1987 O 192.292 -0.758555 -1.72564 0
M  V30 1988 C 189.419 -1.70977 -2.92377 0
M  V30 1989 C 188.465 -2.92324 -3.10563 0
M  V30 1990 S 189.298 -4.52952 -2.85648 0
M  V30 1991 C 190.454 -4.58117 -4.26474 0
M  V30 1992 H 190.687 -2.62647 -1.39298 0
M  V30 1993 H 188.22 -1.41564 -0.616361 0
M  V30 1994 H 190.178 -1.73047 -3.72243 0
M  V30 1995 H 188.839 -0.78061 -3.04245 0
M  V30 1996 H 188.032 -2.90439 -4.11899 0
M  V30 1997 H 187.634 -2.88055 -2.38538 0
M  V30 1998 H 189.926 -4.34462 -5.19855 0
M  V30 1999 H 190.869 -5.59983 -4.33388 0
M  V30 2000 H 191.277 -3.8732 -4.10662 0
M  V30 2001 N 190.675 0.682077 -1.42076 0
M  V30 2002 C 191.952 1.43755 -1.32642 0
M  V30 2003 C 192.332 2.11063 0.0396611 0
M  V30 2004 O 191.68 2.02701 1.05474 0
M  V30 2005 C 191.89 2.44596 -2.48946 0
M  V30 2006 C 193.238 3.09454 -2.9073 0
M  V30 2007 O 194.262 2.54922 -2.48783 0
M  V30 2008 O 193.121 4.08253 -3.63307 0
M  V30 2009 H 190.215 0.640857 -0.522715 0
M  V30 2010 H 192.761 0.711415 -1.54068 0
M  V30 2011 H 191.533 1.93609 -3.40046 0
M  V30 2012 H 191.156 3.24701 -2.29467 0
M  V30 2013 N 192.153 1.28127 0.917671 0
M  V30 2014 C 193.4 1.15052 1.66641 0
M  V30 2015 C 193.728 -0.301677 1.92146 0
M  V30 2016 O 192.983 -1.23622 1.51711 0
M  V30 2017 C 193.282 1.89018 3.03327 0
M  V30 2018 C 192.948 3.38832 2.97496 0
M  V30 2019 C 191.61 3.79693 2.95613 0
M  V30 2020 C 193.962 4.34378 2.88036 0
M  V30 2021 C 191.29 5.14447 2.82066 0
M  V30 2022 C 193.642 5.69201 2.7603 0
M  V30 2023 C 192.306 6.09343 2.72502 0
M  V30 2024 H 191.576 0.421006 0.609783 0
M  V30 2025 H 194.223 1.58855 1.06945 0
M  V30 2026 H 192.528 1.37752 3.66785 0
M  V30 2027 H 194.225 1.76321 3.60156 0
M  V30 2028 H 190.815 3.06342 2.99754 0
M  V30 2029 H 194.999 4.03775 2.88581 0
M  V30 2030 H 190.255 5.44681 2.77728 0
M  V30 2031 H 194.429 6.42901 2.67678 0
M  V30 2032 H 192.056 7.13712 2.61762 0
M  V30 2033 N 193.631 -1.12557 1.10312 0
M  V30 2034 C 194.908 -1.80363 0.756878 0
M  V30 2035 C 195.288 -1.97067 -0.756824 0
M  V30 2036 O 194.636 -1.54601 -1.68259 0
M  V30 2037 C 194.846 -3.14812 1.50647 0
M  V30 2038 C 196.194 -3.90029 1.67817 0
M  V30 2039 O 197.218 -3.24464 1.46974 0
M  V30 2040 O 196.077 -5.07652 2.02365 0
M  V30 2041 H 193.171 -0.780667 0.272926 0
M  V30 2042 H 195.717 -1.19404 1.20586 0
M  V30 2043 H 194.489 -2.97936 2.53672 0
M  V30 2044 H 194.112 -3.83478 1.05026 0
M  V30 2045 N 195.109 -0.891671 -1.2995 0
M  V30 2046 C 196.358 -0.509521 -1.95158 0
M  V30 2047 C 196.671 0.947388 -1.71125 0
M  V30 2048 O 197.877 1.43669 -2.30372 0
M  V30 2049 C 196.333 -0.860315 -3.49466 0
M  V30 2050 C 195.941 -2.33545 -3.8231 0
M  V30 2051 C 197.685 -0.547687 -4.20952 0
M  V30 2052 C 195.592 -2.62752 -5.29826 0
M  V30 2053 H 194.522 -0.18682 -0.730489 0
M  V30 2054 H 197.173 -1.08756 -1.47798 0
M  V30 2055 H 195.555 -0.211285 -3.95436 0
M  V30 2056 H 196.729 -3.02936 -3.47227 0
M  V30 2057 H 195.044 -2.61629 -3.23944 0
M  V30 2058 H 197.641 -0.742854 -5.29515 0
M  V30 2059 H 197.984 0.51332 -4.13123 0
M  V30 2060 H 198.517 -1.1542 -3.80688 0
M  V30 2061 H 195.256 -3.6762 -5.42712 0
M  V30 2062 H 194.776 -1.97977 -5.66185 0
M  V30 2063 H 196.455 -2.48601 -5.97333 0
M  V30 2064 N 196.587 1.43421 -0.653314 0
M  V30 2065 C 197.55 2.29182 0.0287951 0
M  V30 2066 C 198.55 1.42213 0.750465 0
M  V30 2067 O 199.74 1.63843 0.591701 0
M  V30 2068 C 196.872 3.24278 1.05151 0
M  V30 2069 H 198.065 2.90985 -0.725786 0
M  V30 2070 H 195.618 1.50702 -0.414545 0
M  V30 2071 H 196.353 2.6737 1.83532 0
M  V30 2072 H 196.138 3.88396 0.537687 0
M  V30 2073 H 197.628 3.88647 1.52786 0
M  V30 2074 N 198.065 0.39524 1.52563 0
M  V30 2075 C 199.313 -0.184678 2.01254 0
M  V30 2076 C 199.634 -1.46822 1.28329 0
M  V30 2077 O 198.904 -1.91666 0.405094 0
M  V30 2078 H 197.484 -0.0712355 0.743596 0
M  V30 2079 H 200.146 0.528293 1.87603 0
M  V30 2080 H 199.242 -0.390681 3.09645 0
M  V30 2081 N 199.544 -1.57102 0.125237 0
M  V30 2082 C 200.955 -1.82384 -0.399142 0
M  V30 2083 C 201.306 -1.04276 -1.66195 0
M  V30 2084 O 200.431 -0.281269 -2.14564 0
M  V30 2085 C 201.026 -3.30821 -0.730932 0
M  V30 2086 C 199.585 -3.56762 -1.19992 0
M  V30 2087 C 198.732 -2.7649 -0.211792 0
M  V30 2088 H 201.683 -1.54786 0.350277 0
M  V30 2089 H 201.704 -3.4579 -1.58775 0
M  V30 2090 H 201.216 -3.87643 0.188345 0
M  V30 2091 H 199.317 -3.05305 -2.13588 0
M  V30 2092 H 199.43 -4.65317 -1.14093 0
M  V30 2093 H 197.794 -2.4489 -0.700085 0
M  V30 2094 H 198.577 -3.36073 0.700691 0
M  V30 2095 N 201.022 0.148545 -1.56898 0
M  V30 2096 C 202.247 0.880385 -1.87787 0
M  V30 2097 C 202.672 1.74018 -0.714093 0
M  V30 2098 O 202.03 1.78153 0.336343 0
M  V30 2099 C 202.078 1.71422 -3.17249 0
M  V30 2100 O 201.182 2.8183 -3.01074 0
M  V30 2101 H 200.523 0.245301 -0.617028 0
M  V30 2102 H 203.053 0.139826 -2.04122 0
M  V30 2103 H 203.063 2.10954 -3.49231 0
M  V30 2104 H 201.738 1.08284 -4.01556 0
M  V30 2105 H 200.315 2.45715 -2.80497 0
M  V30 2106 N 202.5 1.5196 0.417844 0
M  V30 2107 C 203.749 1.6482 1.16264 0
M  V30 2108 C 204.062 0.379886 1.91876 0
M  V30 2109 O 205.268 0.388154 2.68711 0
M  V30 2110 C 203.724 2.91161 2.1155 0
M  V30 2111 C 203.332 4.25068 1.41495 0
M  V30 2112 C 205.076 3.13383 2.86341 0
M  V30 2113 C 202.983 5.42541 2.35379 0
M  V30 2114 H 201.913 0.613954 0.437694 0
M  V30 2115 H 204.564 1.78442 0.427871 0
M  V30 2116 H 202.946 2.71218 2.88543 0
M  V30 2117 H 204.12 4.55463 0.699263 0
M  V30 2118 H 202.435 4.0888 0.787792 0
M  V30 2119 H 205.032 3.98324 3.5671 0
M  V30 2120 H 205.375 2.27256 3.48798 0
M  V30 2121 H 205.908 3.33757 2.1645 0
M  V30 2122 H 202.647 6.30987 1.77582 0
M  V30 2123 H 202.167 5.16497 3.04945 0
M  V30 2124 H 203.846 5.75272 2.96093 0
M  V30 2125 N 203.978 -0.674533 1.42435 0
M  V30 2126 C 205.394 -0.98769 1.25367 0
M  V30 2127 C 205.594 -2.00879 0.158044 0
M  V30 2128 O 204.65 -2.48075 -0.470633 0
M  V30 2129 C 205.963 -1.49224 2.6106 0
M  V30 2130 C 207.511 -1.61 2.68417 0
M  V30 2131 C 207.986 -2.14852 4.04478 0
M  V30 2132 N 209.477 -2.22185 4.06434 0
M  V30 2133 C 210.212 -2.64928 5.08528 0
M  V30 2134 N 209.708 -3.07121 6.21006 0
M  V30 2135 N 211.501 -2.64679 4.95885 0
M  V30 2136 H 203.652 0.00152503 2.124 0
M  V30 2137 H 205.915 -0.0618434 0.945981 0
M  V30 2138 H 205.621 -0.816453 3.42092 0
M  V30 2139 H 205.495 -2.47094 2.84999 0
M  V30 2140 H 207.882 -2.27686 1.87732 0
M  V30 2141 H 207.963 -0.616195 2.48267 0
M  V30 2142 H 207.607 -1.48775 4.85622 0
M  V30 2143 H 207.537 -3.15024 4.2198 0
M  V30 2144 H 210.028 -1.92435 3.25234 0
M  V30 2145 H 210.341 -3.38423 6.94759 0
M  V30 2146 H 208.686 -3.04978 6.24511 0
M  V30 2147 H 211.877 -2.31078 4.07088 0
M  V30 2148 H 212.05 -2.9767 5.75584 0
M  V30 2149 N 205.456 -1.28612 -0.910864 0
M  V30 2150 C 206.704 -1.15705 -1.65701 0
M  V30 2151 C 207.025 0.29416 -1.92769 0
M  V30 2152 O 206.295 1.20331 -1.54588 0
M  V30 2153 H 204.875 -0.425216 -0.614167 0
M  V30 2154 H 207.537 -1.61381 -1.0928 0
M  V30 2155 H 206.633 -1.6988 -2.61815 0
M  V30 2156 N 206.934 1.1197 -1.10907 0
M  V30 2157 C 207.897 2.16031 -0.765707 0
M  V30 2158 C 208.897 1.59393 0.212235 0
M  V30 2159 O 210.087 1.74196 -0.0115441 0
M  V30 2160 C 207.219 3.40632 -0.135053 0
M  V30 2161 H 208.412 2.47919 -1.68748 0
M  V30 2162 H 205.965 1.27061 -0.910226 0
M  V30 2163 H 206.7 3.14348 0.797218 0
M  V30 2164 H 206.485 3.8302 -0.838937 0
M  V30 2165 H 207.975 4.17505 0.0892469 0
M  V30 2166 N 208.412 0.89855 1.29475 0
M  V30 2167 C 209.342 0.39201 2.30186 0
M  V30 2168 C 210.323 -0.532359 1.61555 0
M  V30 2169 O 211.508 -0.443331 1.89072 0
M  V30 2170 C 208.638 -0.382353 3.45189 0
M  V30 2171 C 207.592 0.451483 4.25612 0
M  V30 2172 C 206.918 -0.450307 5.328 0
M  V30 2173 C 208.218 1.70079 4.93832 0
M  V30 2174 H 209.912 1.23362 2.72804 0
M  V30 2175 H 207.458 0.594638 1.31149 0
M  V30 2176 H 209.411 -0.747451 4.14718 0
M  V30 2177 H 208.135 -1.25774 3.01411 0
M  V30 2178 H 206.794 0.798897 3.57789 0
M  V30 2179 H 206.442 -1.32379 4.85268 0
M  V30 2180 H 206.142 0.103902 5.87508 0
M  V30 2181 H 207.666 -0.811623 6.05182 0
M  V30 2182 H 209.08 1.40549 5.55805 0
M  V30 2183 H 207.477 2.19623 5.58467 0
M  V30 2184 H 208.547 2.43744 4.19186 0
M  V30 2185 N 209.89 -1.43072 0.660911 0
M  V30 2186 C 211.136 -2.0202 0.177708 0
M  V30 2187 C 211.469 -1.52066 -1.20787 0
M  V30 2188 O 210.744 -0.716987 -1.80802 0
M  V30 2189 C 211.027 -3.59561 0.197019 0
M  V30 2190 C 210.88 -4.19727 1.61706 0
M  V30 2191 C 212.199 -4.37664 -0.462396 0
M  V30 2192 H 209.318 -0.734034 0.0660494 0
M  V30 2193 H 211.96 -1.70272 0.843058 0
M  V30 2194 H 210.11 -3.86739 -0.369527 0
M  V30 2195 H 211.782 -4.03553 2.23479 0
M  V30 2196 H 210.025 -3.76084 2.16201 0
M  V30 2197 H 210.696 -5.28834 1.58237 0
M  V30 2198 H 213.172 -4.16095 0.0197215 0
M  V30 2199 H 212.048 -5.47305 -0.418188 0
M  V30 2200 H 212.309 -4.14493 -1.53778 0
M  V30 2201 N 211.368 -0.403325 -1.52352 0
M  V30 2202 C 212.298 0.416205 -2.29761 0
M  V30 2203 C 213.279 1.05123 -1.33728 0
M  V30 2204 O 214.464 1.06134 -1.62632 0
M  V30 2205 C 211.594 1.53624 -3.11475 0
M  V30 2206 C 210.548 1.02653 -4.15507 0
M  V30 2207 C 209.874 2.23971 -4.85532 0
M  V30 2208 C 211.174 0.08463 -5.22231 0
M  V30 2209 H 212.868 -0.229701 -2.98518 0
M  V30 2210 H 210.414 -0.111913 -1.43564 0
M  V30 2211 H 212.367 2.1165 -3.64393 0
M  V30 2212 H 211.091 2.20994 -2.40477 0
M  V30 2213 H 209.75 0.46871 -3.63591 0
M  V30 2214 H 209.398 2.89883 -4.11068 0
M  V30 2215 H 209.098 1.90521 -5.55856 0
M  V30 2216 H 210.622 2.82614 -5.41259 0
M  V30 2217 H 212.036 0.573509 -5.70424 0
M  V30 2218 H 210.433 -0.160783 -5.99885 0
M  V30 2219 H 211.503 -0.86237 -4.7717 0
M  V30 2220 N 212.846 1.57033 -0.133567 0
M  V30 2221 C 214.094 1.953 0.519848 0
M  V30 2222 C 214.415 1.01866 1.66278 0
M  V30 2223 O 213.685 0.0776513 1.95746 0
M  V30 2224 H 212.265 0.721091 0.195032 0
M  V30 2225 H 214.927 1.93809 -0.205921 0
M  V30 2226 H 214.023 2.98695 0.904854 0
M  V30 2227 N 214.325 -0.140222 1.56975 0
M  V30 2228 C 215.555 -0.865181 1.87612 0
M  V30 2229 C 215.963 -1.74942 0.72055 0
M  V30 2230 O 215.306 -1.80917 -0.318561 0
M  V30 2231 C 215.368 -1.76782 3.13031 0
M  V30 2232 C 215.032 -1.06005 4.44536 0
M  V30 2233 C 216.029 -0.410768 5.18275 0
M  V30 2234 C 213.714 -1.04754 4.91255 0
M  V30 2235 C 215.708 0.241572 6.36942 0
M  V30 2236 C 213.395 -0.391394 6.09845 0
M  V30 2237 C 214.393 0.252029 6.82535 0
M  V30 2238 O 214.081 0.897757 7.98871 0
M  V30 2239 H 213.813 -0.255188 0.625983 0
M  V30 2240 H 216.367 -0.135653 2.04952 0
M  V30 2241 H 214.597 -2.53846 2.91718 0
M  V30 2242 H 216.286 -2.36533 3.29859 0
M  V30 2243 H 217.052 -0.412195 4.83245 0
M  V30 2244 H 212.931 -1.53777 4.34596 0
M  V30 2245 H 216.475 0.744375 6.93617 0
M  V30 2246 H 212.372 -0.387656 6.44335 0
M  V30 2247 H 213.14 0.800102 8.1458 0
M  V30 2248 N 215.803 -1.52179 -0.40978 0
M  V30 2249 C 216.713 -1.78364 -1.52392 0
M  V30 2250 C 217.729 -0.669183 -1.60617 0
M  V30 2251 O 218.905 -0.954518 -1.77344 0
M  V30 2252 C 215.97 -1.92822 -2.88133 0
M  V30 2253 C 215.031 -3.16725 -2.898 0
M  V30 2254 C 214.264 -3.30483 -4.19067 0
M  V30 2255 O 214.487 -2.49522 -5.12928 0
M  V30 2256 O 213.421 -4.2363 -4.27576 0
M  V30 2257 H 217.247 -2.72931 -1.33201 0
M  V30 2258 H 214.832 -1.37016 -0.59557 0
M  V30 2259 H 216.714 -2.04157 -3.68643 0
M  V30 2260 H 215.389 -1.01444 -3.07393 0
M  V30 2261 H 214.296 -3.10848 -2.08146 0
M  V30 2262 H 215.629 -4.07881 -2.75489 0
M  V30 2263 N 217.281 0.66697 -1.42791 0
M  V30 2264 C 218.529 1.42417 -1.43394 0
M  V30 2265 C 218.85 1.94925 -0.0542373 0
M  V30 2266 O 218.12 1.73564 0.908415 0
M  V30 2267 H 216.7 0.528515 -0.527902 0
M  V30 2268 H 219.362 0.787562 -1.78279 0
M  V30 2269 H 218.458 2.27333 -2.13837 0
M  V30 2270 N 218.759 1.29093 0.90403 0
M  V30 2271 C 220.005 1.17996 1.65676 0
M  V30 2272 C 220.36 -0.266816 1.90541 0
M  V30 2273 O 219.653 -1.19 1.50165 0
M  V30 2274 C 219.847 1.92224 3.01305 0
M  V30 2275 C 219.676 3.43972 2.89678 0
M  V30 2276 C 218.446 4.1332 2.90679 0
M  V30 2277 C 220.644 4.39546 2.67028 0
M  V30 2278 N 218.626 5.51463 2.69743 0
M  V30 2279 C 219.997 5.65119 2.5503 0
M  V30 2280 C 222.052 4.29359 2.52101 0
M  V30 2281 C 220.755 6.81663 2.29626 0
M  V30 2282 C 222.781 5.4565 2.28079 0
M  V30 2283 C 222.143 6.70193 2.16843 0
M  V30 2284 H 218.242 0.486759 0.612037 0
M  V30 2285 H 220.826 1.62868 1.06688 0
M  V30 2286 H 218.997 1.49773 3.58361 0
M  V30 2287 H 220.729 1.73429 3.65656 0
M  V30 2288 H 217.484 3.64984 3.01801 0
M  V30 2289 H 217.908 6.24105 2.6234 0
M  V30 2290 H 222.55 3.33769 2.59534 0
M  V30 2291 H 220.268 7.77313 2.20932 0
M  V30 2292 H 223.854 5.39664 2.1738 0
M  V30 2293 H 222.734 7.58659 1.98511 0
M  V30 2294 N 220.237 -1.11381 1.11499 0
M  V30 2295 C 221.167 -2.19509 0.796125 0
M  V30 2296 C 222.148 -1.68458 -0.235796 0
M  V30 2297 O 223.333 -1.93947 -0.0991344 0
M  V30 2298 C 220.463 -3.46475 0.239205 0
M  V30 2299 C 219.417 -4.10744 1.20307 0
M  V30 2300 C 218.743 -5.32293 0.50683 0
M  V30 2301 C 220.043 -4.55597 2.55399 0
M  V30 2302 H 221.737 -2.46439 1.70024 0
M  V30 2303 H 219.283 -1.18446 0.818935 0
M  V30 2304 H 221.236 -4.214 0.00392006 0
M  V30 2305 H 219.96 -3.19006 -0.700206 0
M  V30 2306 H 218.619 -3.37813 1.42399 0
M  V30 2307 H 218.267 -5.01095 -0.437408 0
M  V30 2308 H 217.967 -5.76243 1.1497 0
M  V30 2309 H 219.491 -6.09956 0.280351 0
M  V30 2310 H 220.905 -5.21841 2.37391 0
M  V30 2311 H 219.302 -5.10363 3.15673 0
M  V30 2312 H 220.372 -3.69013 3.14575 0
M  V30 2313 N 221.715 -0.905404 -1.28997 0
M  V30 2314 C 222.678 -0.392253 -2.25819 0
M  V30 2315 C 223.678 0.476753 -1.5357 0
M  V30 2316 O 224.868 0.280994 -1.71919 0
M  V30 2317 C 222 0.438588 -3.38067 0
M  V30 2318 H 223.193 -1.24743 -2.72725 0
M  V30 2319 H 220.746 -0.684051 -1.40536 0
M  V30 2320 H 221.481 1.31352 -2.96508 0
M  V30 2321 H 221.266 -0.184167 -3.91667 0
M  V30 2322 H 222.756 0.78873 -4.10084 0
M  V30 2323 N 223.193 1.4272 -0.668489 0
M  V30 2324 C 224.441 2.01226 -0.187769 0
M  V30 2325 C 224.762 1.53092 1.2078 0
M  V30 2326 O 224.032 0.74993 1.80977 0
M  V30 2327 H 222.612 0.744041 -0.0664272 0
M  V30 2328 H 225.274 1.74723 -0.863583 0
M  V30 2329 H 224.37 3.11556 -0.184166 0
M  V30 2330 N 224.671 0.411399 1.52136 0
M  V30 2331 C 225.901 -0.16284 2.05957 0
M  V30 2332 C 226.309 -1.3922 1.28119 0
M  V30 2333 O 225.652 -1.80768 0.326881 0
M  V30 2334 C 225.714 -0.575946 3.54856 0
M  V30 2335 C 225.378 0.542998 4.53763 0
M  V30 2336 C 226.375 1.40726 5.00492 0
M  V30 2337 C 224.06 0.716337 4.97166 0
M  V30 2338 C 226.054 2.4298 5.8927 0
M  V30 2339 C 223.741 1.74218 5.8574 0
M  V30 2340 C 224.739 2.59731 6.31687 0
M  V30 2341 O 224.427 3.60558 7.18507 0
M  V30 2342 H 224.159 -0.0229125 0.675612 0
M  V30 2343 H 226.713 0.581634 1.96993 0
M  V30 2344 H 224.943 -1.37274 3.61515 0
M  V30 2345 H 226.632 -1.07836 3.91313 0
M  V30 2346 H 227.398 1.28476 4.67674 0
M  V30 2347 H 223.277 0.0603857 4.6096 0
M  V30 2348 H 226.821 3.0976 6.25055 0
M  V30 2349 H 222.718 1.86498 6.17971 0
M  V30 2350 H 223.486 3.56829 7.36624 0
M  V30 2351 N 226.149 -1.5696 0.141893 0
M  V30 2352 C 227.081 -2.13619 -0.830627 0
M  V30 2353 C 228.094 -1.08439 -1.21428 0
M  V30 2354 O 229.283 -1.35734 -1.15925 0
M  V30 2355 C 226.383 -2.63978 -2.12529 0
M  V30 2356 C 225.556 -3.93504 -1.9098 0
M  V30 2357 C 224.615 -4.29225 -3.04388 0
M  V30 2358 O 223.641 -4.97641 -2.76302 0
M  V30 2359 N 224.843 -3.88393 -4.31429 0
M  V30 2360 H 227.608 -2.97691 -0.34641 0
M  V30 2361 H 225.169 -1.61846 -0.0418375 0
M  V30 2362 H 227.161 -2.84891 -2.87436 0
M  V30 2363 H 225.731 -1.84659 -2.52229 0
M  V30 2364 H 224.951 -3.81269 -1.00139 0
M  V30 2365 H 226.239 -4.78154 -1.73914 0
M  V30 2366 H 225.637 -3.33257 -4.57117 0
M  V30 2367 H 224.194 -4.14368 -5.03133 0
M  V30 2368 N 227.627 0.131896 -1.57047 0
M  V30 2369 C 228.56 1.19236 -1.94571 0
M  V30 2370 C 229.538 1.40782 -0.813576 0
M  V30 2371 O 230.722 1.55148 -1.07058 0
M  V30 2372 C 227.849 2.54858 -2.23081 0
M  V30 2373 C 226.895 2.49817 -3.45679 0
M  V30 2374 S 227.728 1.95036 -4.98719 0
M  V30 2375 C 228.884 3.32357 -5.30367 0
M  V30 2376 H 229.117 0.872297 -2.84215 0
M  V30 2377 H 226.65 0.338134 -1.50652 0
M  V30 2378 H 228.608 3.32898 -2.40185 0
M  V30 2379 H 227.269 2.84047 -1.34074 0
M  V30 2380 H 226.462 3.49688 -3.62952 0
M  V30 2381 H 226.064 1.79892 -3.27895 0
M  V30 2382 H 228.356 4.28525 -5.2476 0
M  V30 2383 H 229.299 3.19923 -6.31708 0
M  V30 2384 H 229.707 3.3019 -4.57859 0
M  V30 2385 N 229.106 1.52395 0.401703 0
M  V30 2386 C 230.054 1.7689 1.51039 0
M  V30 2387 C 231.048 0.636298 1.56996 0
M  V30 2388 O 232.254 0.818507 1.60314 0
M  V30 2389 H 228.629 0.559502 0.502456 0
M  V30 2390 H 230.6 2.69757 1.27568 0
M  V30 2391 C 229.349 1.94331 2.88324 0
M  V30 2392 H 228.672 2.80905 2.84486 0
M  V30 2393 H 230.112 2.15466 3.65172 0
M  V30 2394 C 228.571 0.712396 3.29282 0
M  V30 2395 O 229.101 -0.116218 4.01532 0
M  V30 2396 N 227.307 0.546154 2.85422 0
M  V30 2397 H 226.854 1.22156 2.26794 0
M  V30 2398 H 226.812 -0.276113 3.13185 0
M  V30 2399 N 230.584 -0.659388 1.43143 0
M  V30 2400 C 231.831 -1.41935 1.44433 0
M  V30 2401 C 232.159 -1.94387 0.0663522 0
M  V30 2402 O 231.414 -1.72314 -0.927706 0
M  V30 2403 C 231.713 -2.62206 2.42864 0
M  V30 2404 C 231.379 -2.28208 3.88886 0
M  V30 2405 C 230.041 -2.18647 4.28657 0
M  V30 2406 C 232.393 -2.00887 4.8093 0
M  V30 2407 C 229.721 -1.79914 5.58433 0
M  V30 2408 C 232.073 -1.63653 6.11065 0
M  V30 2409 C 230.737 -1.52614 6.49819 0
M  V30 2410 H 230.007 -0.519376 0.528517 0
M  V30 2411 H 232.654 -0.750453 1.76183 0
M  V30 2412 H 230.959 -3.34199 2.04495 0
M  V30 2413 H 232.656 -3.2041 2.41119 0
M  V30 2414 H 229.246 -2.36557 3.57406 0
M  V30 2415 H 233.43 -2.07198 4.5098 0
M  V30 2416 H 228.686 -1.69948 5.87305 0
M  V30 2417 H 232.86 -1.41543 6.81864 0
M  V30 2418 H 230.487 -1.22371 7.50286 0
M  V30 2419 N 232.062 -1.29571 -0.897171 0
M  V30 2420 C 232.972 -1.16808 -2.03453 0
M  V30 2421 C 233.988 -0.0907471 -1.73763 0
M  V30 2422 O 235.164 -0.303312 -1.99103 0
M  V30 2423 C 232.229 -0.848264 -3.36163 0
M  V30 2424 C 231.29 -2.0097 -3.79354 0
M  V30 2425 C 230.523 -1.70505 -5.05731 0
M  V30 2426 O 230.746 -0.62718 -5.66941 0
M  V30 2427 O 229.68 -2.5538 -5.45036 0
M  V30 2428 H 233.506 -2.12325 -2.17144 0
M  V30 2429 H 231.091 -1.09047 -1.02123 0
M  V30 2430 H 232.973 -0.684581 -4.15802 0
M  V30 2431 H 231.648 0.0771071 -3.23608 0
M  V30 2432 H 230.555 -2.22863 -3.00471 0
M  V30 2433 H 231.888 -2.91636 -3.96496 0
M  V30 2434 N 233.54 1.10788 -1.12088 0
M  V30 2435 C 234.768 1.86461 -0.896651 0
M  V30 2436 C 235.183 1.80492 0.553912 0
M  V30 2437 O 234.54 1.19102 1.38278 0
M  V30 2438 C 234.591 3.35006 -1.35843 0
M  V30 2439 O 234.312 3.40866 -2.75213 0
M  V30 2440 C 235.813 4.27565 -1.1706 0
M  V30 2441 H 233.033 0.589425 -0.320654 0
M  V30 2442 H 235.577 1.40076 -1.48993 0
M  V30 2443 H 233.732 3.7887 -0.808458 0
M  V30 2444 H 234.146 4.33411 -2.9539 0
M  V30 2445 H 235.62 5.30007 -1.54263 0
M  V30 2446 H 236.097 4.3906 -0.110814 0
M  V30 2447 H 236.703 3.89501 -1.70789 0
M  V30 2448 N 235.018 0.912232 1.28515 0
M  V30 2449 C 235.981 0.404223 2.25607 0
M  V30 2450 C 236.981 -0.468602 1.53821 0
M  V30 2451 O 238.171 -0.271873 1.72065 0
M  V30 2452 C 235.303 -0.420653 3.38295 0
M  V30 2453 H 236.496 1.26188 2.7206 0
M  V30 2454 H 234.049 0.691495 1.40171 0
M  V30 2455 H 234.784 -1.29777 2.97201 0
M  V30 2456 H 234.569 0.204935 3.91564 0
M  V30 2457 H 236.059 -0.766971 4.10496 0
M  V30 2458 N 236.496 -1.42363 0.676048 0
M  V30 2459 C 237.443 -2.308 -0.00150904 0
M  V30 2460 C 238.413 -1.46032 -0.791444 0
M  V30 2461 O 239.598 -1.74861 -0.76344 0
M  V30 2462 C 236.738 -3.31883 -0.945919 0
M  V30 2463 C 235.851 -4.31741 -0.149675 0
M  V30 2464 C 234.986 -5.19898 -1.08995 0
M  V30 2465 C 234.025 -6.11434 -0.285465 0
M  V30 2466 N 233.162 -6.92138 -1.17851 0
M  V30 2467 H 238.002 -2.88187 0.758455 0
M  V30 2468 H 235.539 -1.41952 0.38576 0
M  V30 2469 H 237.497 -3.89019 -1.50731 0
M  V30 2470 H 236.127 -2.76093 -1.6725 0
M  V30 2471 H 235.179 -3.76713 0.528359 0
M  V30 2472 H 236.491 -4.96534 0.474866 0
M  V30 2473 H 235.645 -5.81772 -1.72123 0
M  V30 2474 H 234.384 -4.55284 -1.74837 0
M  V30 2475 H 233.389 -5.48627 0.359018 0
M  V30 2476 H 234.614 -6.78097 0.368883 0
M  V30 2477 H 232.56 -6.30152 -1.82332 0
M  V30 2478 H 232.477 -7.53542 -0.609082 0
M  V30 2479 H 233.745 -7.58499 -1.79722 0
M  V30 2480 N 237.974 -0.419461 -1.51915 0
M  V30 2481 C 239.199 0.154572 -2.06823 0
M  V30 2482 C 239.624 1.3722 -1.28656 0
M  V30 2483 O 238.982 1.78461 -0.319583 0
M  V30 2484 C 239.03 0.473172 -3.57482 0
M  V30 2485 O 238.134 1.56255 -3.81652 0
M  V30 2486 H 237.475 0.0096924 -0.663929 0
M  V30 2487 H 240.005 -0.595642 -1.95738 0
M  V30 2488 H 240.015 0.728825 -4.01438 0
M  V30 2489 H 238.69 -0.416873 -4.13805 0
M  V30 2490 H 237.267 1.29825 -3.49571 0
M  V30 2491 N 239.452 1.56882 -0.150215 0
M  V30 2492 C 240.868 1.58263 0.20617 0
M  V30 2493 C 241.068 1.16464 1.64434 0
M  V30 2494 O 240.124 0.866422 2.3717 0
M  V30 2495 C 241.437 3.00649 -0.0555025 0
M  V30 2496 C 242.985 3.12999 0.00795388 0
M  V30 2497 C 243.46 4.5744 -0.226429 0
M  V30 2498 N 244.951 4.62875 -0.173469 0
M  V30 2499 C 245.686 5.72454 -0.329288 0
M  V30 2500 N 245.182 6.90669 -0.543005 0
M  V30 2501 N 246.975 5.61467 -0.266666 0
M  V30 2502 H 239.126 1.82345 -1.08922 0
M  V30 2503 H 241.389 0.844149 -0.431413 0
M  V30 2504 H 241.095 3.3563 -1.05096 0
M  V30 2505 H 240.969 3.71337 0.66246 0
M  V30 2506 H 243.356 2.77857 0.993966 0
M  V30 2507 H 243.437 2.4479 -0.742388 0
M  V30 2508 H 243.081 4.93287 -1.20956 0
M  V30 2509 H 243.011 5.2378 0.544274 0
M  V30 2510 H 245.502 3.77898 -0.0130709 0
M  V30 2511 H 245.815 7.70045 -0.651922 0
M  V30 2512 H 244.16 6.92581 -0.579366 0
M  V30 2513 H 247.351 4.67992 -0.100441 0
M  V30 2514 H 247.524 6.46816 -0.391535 0
M  V30 2515 N 240.93 -0.123565 1.57115 0
M  V30 2516 C 242.176 -0.833386 1.84885 0
M  V30 2517 C 242.509 -1.79742 0.735292 0
M  V30 2518 O 241.784 -1.92764 -0.25925 0
M  V30 2519 C 242.067 -1.5873 3.23228 0
M  V30 2520 C 241.92 -0.643183 4.45178 0
M  V30 2521 C 243.239 -2.54453 3.59085 0
M  V30 2522 H 240.358 -0.301518 0.6725 0
M  V30 2523 H 243 -0.097778 1.89748 0
M  V30 2524 H 241.15 -2.21438 3.19214 0
M  V30 2525 H 242.822 -0.0253015 4.61293 0
M  V30 2526 H 241.065 0.0456139 4.33776 0
M  V30 2527 H 241.736 -1.20724 5.38637 0
M  V30 2528 H 244.212 -2.01853 3.63861 0
M  V30 2529 H 243.088 -3.04238 4.5687 0
M  V30 2530 H 243.349 -3.36906 2.86264 0
M  V30 2531 N 242.408 -1.52605 -0.393616 0
M  V30 2532 C 243.636 -1.71294 -1.16043 0
M  V30 2533 C 244.051 -0.429259 -1.83855 0
M  V30 2534 O 243.408 0.595921 -1.72496 0
M  V30 2535 C 243.459 -2.8593 -2.21193 0
M  V30 2536 O 243.18 -4.09329 -1.56146 0
M  V30 2537 C 244.681 -3.16259 -3.10636 0
M  V30 2538 H 241.901 -0.573641 -0.348104 0
M  V30 2539 H 244.445 -1.99234 -0.461092 0
M  V30 2540 H 242.6 -2.60465 -2.86769 0
M  V30 2541 H 243.014 -4.73323 -2.25978 0
M  V30 2542 H 244.488 -3.99946 -3.80456 0
M  V30 2543 H 244.965 -2.3045 -3.73884 0
M  V30 2544 H 245.571 -3.43547 -2.50711 0
M  V30 2545 N 243.887 0.651787 -1.4349 0
M  V30 2546 C 244.819 1.77725 -1.44729 0
M  V30 2547 C 245.832 1.59141 -0.343231 0
M  V30 2548 O 247.021 1.67835 -0.607751 0
M  V30 2549 C 244.121 3.15172 -1.24579 0
M  V30 2550 C 243.294 3.60402 -2.47849 0
M  V30 2551 C 242.353 4.76656 -2.22902 0
M  V30 2552 O 241.379 4.86022 -2.96263 0
M  V30 2553 N 242.581 5.66958 -1.24656 0
M  V30 2554 H 245.346 1.77141 -2.41746 0
M  V30 2555 H 242.907 0.835678 -1.38665 0
M  V30 2556 H 244.899 3.90634 -1.0577 0
M  V30 2557 H 243.469 3.1052 -0.360015 0
M  V30 2558 H 242.689 2.75369 -2.82073 0
M  V30 2559 H 243.977 3.87368 -3.29884 0
M  V30 2560 H 243.375 5.62065 -0.640265 0
M  V30 2561 H 241.932 6.42135 -1.1183 0
M  V30 2562 N 245.365 1.30045 0.890287 0
M  V30 2563 C 246.59 1.21598 1.68014 0
M  V30 2564 C 247.015 -0.218678 1.86825 0
M  V30 2565 O 246.373 -1.15756 1.39536 0
M  V30 2566 C 246.421 1.94434 3.03691 0
M  V30 2567 O 245.525 1.2678 3.92429 0
M  V30 2568 H 244.866 0.420856 0.513592 0
M  V30 2569 H 247.396 1.71775 1.11151 0
M  V30 2570 H 247.406 2.03251 3.5377 0
M  V30 2571 H 246.081 2.98777 2.89318 0
M  V30 2572 H 244.658 1.26282 3.50866 0
M  V30 2573 N 246.843 -1.10192 1.12674 0
M  V30 2574 C 247.791 -2.18694 0.792196 0
M  V30 2575 C 248.785 -1.67938 -0.222058 0
M  V30 2576 O 249.991 -1.79822 -0.0800074 0
M  V30 2577 H 246.366 -0.713223 0.238364 0
M  V30 2578 H 248.337 -2.44149 1.71564 0
M  V30 2579 C 247.086 -3.46682 0.265859 0
M  V30 2580 H 246.409 -3.86101 1.03761 0
M  V30 2581 H 247.849 -4.23942 0.0701128 0
M  V30 2582 C 246.308 -3.21506 -1.00675 0
M  V30 2583 O 246.838 -3.43408 -2.08408 0
M  V30 2584 N 245.044 -2.75158 -0.934692 0
M  V30 2585 H 244.591 -2.57535 -0.0578604 0
M  V30 2586 H 244.549 -2.58691 -1.7868 0
M  V30 2587 N 248.321 -0.919034 -1.28029 0
M  V30 2588 C 249.568 -0.554934 -1.94748 0
M  V30 2589 C 249.896 0.90231 -1.72304 0
M  V30 2590 O 249.151 1.65767 -1.04018 0
M  V30 2591 C 249.45 -0.816855 -3.4794 0
M  V30 2592 C 249.116 -2.25448 -3.90492 0
M  V30 2593 C 247.778 -2.64752 -4.01821 0
M  V30 2594 C 250.13 -3.18977 -4.12193 0
M  V30 2595 C 247.458 -3.96727 -4.32232 0
M  V30 2596 C 249.81 -4.50523 -4.44086 0
M  V30 2597 C 248.474 -4.89673 -4.53626 0
M  V30 2598 H 247.744 -0.203065 -0.712633 0
M  V30 2599 H 250.391 -1.16136 -1.52265 0
M  V30 2600 H 248.696 -0.127677 -3.91592 0
M  V30 2601 H 250.393 -0.514238 -3.97689 0
M  V30 2602 H 246.983 -1.93952 -3.82205 0
M  V30 2603 H 251.167 -2.89817 -4.02889 0
M  V30 2604 H 246.423 -4.26754 -4.37825 0
M  V30 2605 H 250.597 -5.23005 -4.59825 0
M  V30 2606 H 248.224 -5.91969 -4.76946 0
M  V30 2607 N 249.799 1.42003 -0.683588 0
M  V30 2608 C 250.762 2.29191 -0.0198243 0
M  V30 2609 C 251.762 1.43773 0.72013 0
M  V30 2610 O 252.952 1.65061 0.556815 0
M  V30 2611 C 250.084 3.26435 0.982487 0
M  V30 2612 H 251.277 2.8938 -0.787345 0
M  V30 2613 H 248.83 1.49789 -0.446418 0
M  V30 2614 H 249.565 2.71203 1.77819 0
M  V30 2615 H 249.35 3.89449 0.455182 0
M  V30 2616 H 250.84 3.918 1.44508 0
M  V30 2617 N 251.277 0.427512 1.51691 0
M  V30 2618 C 252.523 -0.142439 2.02299 0
M  V30 2619 C 252.856 -1.43214 1.31162 0
M  V30 2620 O 252.131 -1.89833 0.423511 0
M  V30 2621 C 252.414 -0.371301 3.58181 0
M  V30 2622 C 252.267 0.936358 4.39946 0
M  V30 2623 C 253.586 -1.14542 4.24933 0
M  V30 2624 H 250.705 -0.0502937 0.735282 0
M  V30 2625 H 253.347 0.564584 1.81418 0
M  V30 2626 H 251.497 -0.973559 3.76104 0
M  V30 2627 H 253.169 1.57184 4.33694 0
M  V30 2628 H 251.412 1.5432 4.05423 0
M  V30 2629 H 252.083 0.730388 5.47147 0
M  V30 2630 H 254.559 -0.635362 4.11221 0
M  V30 2631 H 253.435 -1.27431 5.33903 0
M  V30 2632 H 253.696 -2.17093 3.85127 0
M  V30 2633 N 252.755 -1.56801 0.158532 0
M  V30 2634 C 254.003 -1.96102 -0.488712 0
M  V30 2635 C 254.324 -1.04498 -1.64636 0
M  V30 2636 O 253.594 -0.108783 -1.95598 0
M  V30 2637 H 252.174 -0.724102 -0.183535 0
M  V30 2638 H 254.836 -1.93457 0.236728 0
M  V30 2639 H 253.932 -3.00097 -0.857219 0
M  V30 2640 N 254.233 0.115231 -1.57178 0
M  V30 2641 C 255.463 0.835224 -1.88964 0
M  V30 2642 C 255.871 1.73774 -0.74829 0
M  V30 2643 O 255.214 1.81401 0.289739 0
M  V30 2644 C 255.276 1.7178 -3.15804 0
M  V30 2645 C 254.94 0.989198 -4.46166 0
M  V30 2646 C 255.937 0.328263 -5.18863 0
M  V30 2647 C 253.622 0.969256 -4.9286 0
M  V30 2648 C 255.616 -0.342873 -6.36477 0
M  V30 2649 C 253.303 0.294324 -6.10391 0
M  V30 2650 C 254.301 -0.360582 -6.82048 0
M  V30 2651 O 253.989 -1.02474 -7.97342 0
M  V30 2652 H 253.721 0.245197 -0.629964 0
M  V30 2653 H 256.275 0.10303 -2.05141 0
M  V30 2654 H 254.505 2.49173 -2.95719 0
M  V30 2655 H 256.194 2.31255 -3.33581 0
M  V30 2656 H 256.96 0.335263 -4.8384 0
M  V30 2657 H 252.839 1.46844 -4.36987 0
M  V30 2658 H 256.383 -0.854629 -6.92345 0
M  V30 2659 H 252.28 0.285099 -6.4487 0
M  V30 2660 H 253.048 -0.929594 -8.13204 0
M  V30 2661 N 255.711 1.52812 0.385517 0
M  V30 2662 C 256.658 1.77838 1.47113 0
M  V30 2663 C 257.628 0.621757 1.54024 0
M  V30 2664 O 258.813 0.861846 1.70226 0
M  V30 2665 C 255.953 1.95618 2.84302 0
M  V30 2666 C 255.066 3.23316 2.86515 0
M  V30 2667 C 254.201 3.31394 4.15152 0
M  V30 2668 C 253.24 4.53201 4.1143 0
M  V30 2669 N 252.377 4.58542 5.3168 0
M  V30 2670 H 257.217 2.70482 1.25073 0
M  V30 2671 H 254.754 1.34006 0.606692 0
M  V30 2672 H 256.712 2.03912 3.63972 0
M  V30 2673 H 255.342 1.06331 3.04784 0
M  V30 2674 H 254.394 3.24076 1.99195 0
M  V30 2675 H 255.706 4.13045 2.79634 0
M  V30 2676 H 254.86 3.3889 5.03228 0
M  V30 2677 H 253.599 2.39645 4.24761 0
M  V30 2678 H 252.604 4.45827 3.21742 0
M  V30 2679 H 253.829 5.46271 4.03442 0
M  V30 2680 H 251.775 3.69686 5.41912 0
M  V30 2681 H 251.692 5.42148 5.26889 0
M  V30 2682 H 252.96 4.70296 6.21644 0
M  V30 2683 N 257.189 -0.644168 1.43834 0
M  V30 2684 C 258.417 -1.43147 1.49387 0
M  V30 2685 C 258.832 -1.88452 0.114583 0
M  V30 2686 O 258.189 -1.60047 -0.876989 0
M  V30 2687 C 258.24 -2.66046 2.44748 0
M  V30 2688 O 257.961 -2.22633 3.77314 0
M  V30 2689 C 259.462 -3.59311 2.59635 0
M  V30 2690 H 256.682 -0.439447 0.507077 0
M  V30 2691 H 259.226 -0.78895 1.88669 0
M  V30 2692 H 257.381 -3.26418 2.08638 0
M  V30 2693 H 257.795 -3.02216 4.28679 0
M  V30 2694 H 259.269 -4.42187 3.30416 0
M  V30 2695 H 259.746 -4.07259 1.64427 0
M  V30 2696 H 260.352 -3.04816 2.96593 0
M  V30 2697 N 258.668 -1.30515 -0.883378 0
M  V30 2698 C 259.945 -1.10086 -1.6168 0
M  V30 2699 C 260.325 0.349269 -2.08191 0
M  V30 2700 O 259.673 1.34105 -1.85008 0
M  V30 2701 C 259.883 -2.10315 -2.78511 0
M  V30 2702 C 261.231 -2.42119 -3.48803 0
M  V30 2703 O 262.255 -2.08638 -2.88702 0
M  V30 2704 O 261.114 -2.99396 -4.57192 0
M  V30 2705 H 258.208 -0.422907 -0.710689 0
M  V30 2706 H 260.754 -1.41947 -0.930015 0
M  V30 2707 H 259.526 -3.07917 -2.41459 0
M  V30 2708 H 259.149 -1.79282 -3.54886 0
M  V30 2709 N 260.146 1.09593 -1.13257 0
M  V30 2710 C 261.056 2.19739 -0.821691 0
M  V30 2711 C 262.072 1.72926 0.19302 0
M  V30 2712 O 263.248 2.01385 0.0244895 0
M  V30 2713 C 260.313 3.45482 -0.290333 0
M  V30 2714 C 259.374 4.06985 -1.36607 0
M  V30 2715 C 258.607 5.26726 -0.859975 0
M  V30 2716 O 258.83 5.69594 0.303082 0
M  V30 2717 O 257.764 5.7931 -1.63351 0
M  V30 2718 H 261.59 2.48781 -1.74189 0
M  V30 2719 H 259.175 1.18496 -0.909894 0
M  V30 2720 H 261.057 4.214 0.000674022 0
M  V30 2721 H 259.732 3.18047 0.602306 0
M  V30 2722 H 258.639 3.32712 -1.71037 0
M  V30 2723 H 259.972 4.38643 -2.23279 0
M  V30 2724 N 261.624 0.925811 1.2754 0
M  V30 2725 C 262.871 0.565255 1.94451 0
M  V30 2726 C 263.199 -0.89316 1.7278 0
M  V30 2727 O 262.454 -1.65213 1.04895 0
M  V30 2728 C 262.753 0.835296 3.47502 0
M  V30 2729 C 262.419 2.27515 3.89291 0
M  V30 2730 C 261.081 2.66879 4.00411 0
M  V30 2731 C 263.433 3.21158 4.10496 0
M  V30 2732 C 260.761 3.99014 4.30122 0
M  V30 2733 C 263.113 4.52871 4.4169 0
M  V30 2734 C 261.777 4.92072 4.51023 0
M  V30 2735 H 261.047 0.206841 0.711546 0
M  V30 2736 H 263.694 1.16942 1.51647 0
M  V30 2737 H 261.999 0.148442 3.91519 0
M  V30 2738 H 263.696 0.535322 3.97411 0
M  V30 2739 H 260.286 1.95976 3.81171 0
M  V30 2740 H 264.47 2.9195 4.01346 0
M  V30 2741 H 259.726 4.2907 4.35556 0
M  V30 2742 H 263.9 5.25436 4.57045 0
M  V30 2743 H 261.527 5.9449 4.738 0
M  V30 2744 N 263.102 -1.41638 0.69111 0
M  V30 2745 C 264.034 -2.29194 -0.0161523 0
M  V30 2746 C 265.047 -1.44549 -0.748955 0
M  V30 2747 O 266.236 -1.681 -0.6004 0
M  V30 2748 C 263.336 -3.22325 -1.0469 0
M  V30 2749 C 262.509 -4.35706 -0.384621 0
M  V30 2750 C 261.568 -5.09443 -1.31737 0
M  V30 2751 O 260.594 -5.63386 -0.811451 0
M  V30 2752 N 261.796 -5.16487 -2.64993 0
M  V30 2753 H 264.561 -2.90534 0.735523 0
M  V30 2754 H 262.122 -1.52742 0.53679 0
M  V30 2755 H 264.114 -3.68522 -1.67252 0
M  V30 2756 H 262.684 -2.62323 -1.70015 0
M  V30 2757 H 261.904 -3.91948 0.420804 0
M  V30 2758 H 263.192 -5.08743 0.0760765 0
M  V30 2759 H 262.59 -4.741 -3.08619 0
M  V30 2760 H 261.147 -5.66276 -3.22761 0
M  V30 2761 N 264.58 -0.43555 -1.51462 0
M  V30 2762 C 265.51 0.367376 -2.30592 0
M  V30 2763 C 266.491 1.02263 -1.35928 0
M  V30 2764 O 267.676 1.02661 -1.64847 0
M  V30 2765 C 264.806 1.46983 -3.14664 0
M  V30 2766 C 263.76 0.938161 -4.17591 0
M  V30 2767 C 263.086 2.13622 -4.90173 0
M  V30 2768 C 264.386 -0.0261621 -5.22293 0
M  V30 2769 H 266.08 -0.292969 -2.97963 0
M  V30 2770 H 263.626 -0.14234 -1.43295 0
M  V30 2771 H 265.579 2.03873 -3.688 0
M  V30 2772 H 264.303 2.15843 -2.4511 0
M  V30 2773 H 262.962 0.391481 -3.64504 0
M  V30 2774 H 262.61 2.81098 -4.17124 0
M  V30 2775 H 262.31 1.78688 -5.59772 0
M  V30 2776 H 263.834 2.7107 -5.47132 0
M  V30 2777 H 265.248 0.452384 -5.71512 0
M  V30 2778 H 263.645 -0.287992 -5.99409 0
M  V30 2779 H 264.715 -0.963391 -4.75233 0
M  V30 2780 N 266.058 1.56714 -0.166846 0
M  V30 2781 C 267.008 2.14338 0.777382 0
M  V30 2782 C 267.992 1.07642 1.19591 0
M  V30 2783 O 269.184 1.33775 1.15902 0
M  V30 2784 C 266.313 2.78417 2.00846 0
M  V30 2785 C 265.399 3.92264 1.61212 0
M  V30 2786 N 265.79 4.97268 0.925104 0
M  V30 2787 C 264.088 4.03342 1.90346 0
M  V30 2788 C 264.789 5.77093 0.730627 0
M  V30 2789 N 263.765 5.2854 1.27067 0
M  V30 2790 H 267.567 2.9289 0.243466 0
M  V30 2791 H 265.081 1.62364 0.0339954 0
M  V30 2792 H 267.078 3.18073 2.69509 0
M  V30 2793 H 265.738 2.01344 2.54736 0
M  V30 2794 H 266.749 5.14601 0.583646 0
M  V30 2795 H 263.426 3.37368 2.45946 0
M  V30 2796 H 264.816 6.71638 0.187668 0
M  V30 2797 N 267.536 -0.106894 1.57237 0
M  V30 2798 C 268.764 -0.826389 1.8968 0
M  V30 2799 C 269.179 -1.72856 0.759353 0
M  V30 2800 O 268.536 -1.80503 -0.269263 0
M  V30 2801 C 268.587 -1.64967 3.21665 0
M  V30 2802 O 268.308 -0.783804 4.31031 0
M  V30 2803 C 269.809 -2.47326 3.67892 0
M  V30 2804 H 267.029 -0.236927 0.627779 0
M  V30 2805 H 269.573 -0.0876593 2.04312 0
M  V30 2806 H 267.728 -2.34103 3.08666 0
M  V30 2807 H 268.142 -1.35284 5.06753 0
M  V30 2808 H 269.616 -3.00604 4.6297 0
M  V30 2809 H 270.093 -3.25247 2.95146 0
M  V30 2810 H 270.699 -1.83411 3.83719 0
M  V30 2811 N 269.014 -1.53014 -0.377408 0
M  V30 2812 C 269.962 -1.7927 -1.48206 0
M  V30 2813 C 270.956 -0.661195 -1.55963 0
M  V30 2814 O 272.162 -0.843908 -1.58991 0
M  V30 2815 H 268.537 -0.567425 -0.493491 0
M  V30 2816 H 270.508 -2.71753 -1.2326 0
M  V30 2817 C 269.257 -1.98894 -2.85196 0
M  V30 2818 H 268.58 -2.85395 -2.79981 0
M  V30 2819 H 270.02 -2.21249 -3.61698 0
M  V30 2820 C 268.479 -0.764691 -3.28107 0
M  V30 2821 O 269.009 0.0523226 -4.01666 0
M  V30 2822 N 267.215 -0.591493 -2.84517 0
M  V30 2823 H 266.762 -1.25749 -2.24822 0
M  V30 2824 H 266.72 0.226253 -3.13585 0
M  V30 2825 N 270.492 0.636531 -1.44174 0
M  V30 2826 C 271.738 1.39826 -1.4689 0
M  V30 2827 C 272.071 1.93947 -0.0990585 0
M  V30 2828 O 271.346 1.73325 0.882544 0
M  V30 2829 C 271.629 2.56751 -2.5249 0
M  V30 2830 C 271.482 2.08014 -3.98811 0
M  V30 2831 C 272.801 3.58946 -2.54649 0
M  V30 2832 H 269.92 0.507075 -0.53483 0
M  V30 2833 H 272.562 0.720188 -1.75822 0
M  V30 2834 H 270.712 3.14597 -2.2795 0
M  V30 2835 H 272.384 1.5504 -4.34466 0
M  V30 2836 H 270.627 1.39242 -4.10846 0
M  V30 2837 H 271.298 2.92169 -4.68339 0
M  V30 2838 H 273.774 3.1089 -2.76563 0
M  V30 2839 H 272.65 4.38286 -3.3045 0
M  V30 2840 H 272.911 4.12655 -1.58646 0
M  V30 2841 N 271.97 1.30982 0.876444 0
M  V30 2842 C 272.918 1.18006 2.00443 0
M  V30 2843 C 273.912 0.0898871 1.69161 0
M  V30 2844 O 275.118 0.251333 1.78237 0
M  V30 2845 H 271.493 0.365196 0.65737 0
M  V30 2846 H 273.464 2.13453 2.0852 0
M  V30 2847 C 272.213 0.897521 3.35916 0
M  V30 2848 H 271.536 1.7285 3.60504 0
M  V30 2849 H 272.976 0.846874 4.15456 0
M  V30 2850 C 271.435 -0.399674 3.34521 0
M  V30 2851 O 271.965 -1.41852 3.7582 0
M  V30 2852 N 270.171 -0.413893 2.87637 0
M  V30 2853 H 269.718 0.41571 2.54224 0
M  V30 2854 H 269.676 -1.28175 2.87086 0
M  V30 2855 N 273.449 -1.08991 1.13837 0
M  V30 2856 C 274.726 -1.77863 0.813876 0
M  V30 2857 C 275.106 -1.99375 -0.693746 0
M  V30 2858 O 274.454 -1.59875 -1.63255 0
M  V30 2859 C 274.664 -3.0986 1.60586 0
M  V30 2860 C 276.012 -3.84493 1.8014 0
M  V30 2861 O 277.036 -3.19624 1.57222 0
M  V30 2862 O 275.895 -5.00957 2.18413 0
M  V30 2863 H 272.989 -0.771589 0.297624 0
M  V30 2864 H 275.535 -1.15507 1.24323 0
M  V30 2865 H 274.307 -2.89715 2.63022 0
M  V30 2866 H 273.93 -3.79942 1.17173 0
M  V30 2867 N 274.927 -0.932562 -1.27047 0
M  V30 2868 C 276.175 -0.574422 -1.93765 0
M  V30 2869 C 276.496 0.887993 -1.73608 0
M  V30 2870 O 275.766 1.62999 -1.08665 0
M  V30 2871 H 274.346 -0.209451 -0.717035 0
M  V30 2872 H 277.008 -1.18601 -1.5466 0
M  V30 2873 H 276.104 -0.784841 -3.02071 0
M  V30 2874 N 276.405 1.4127 -0.698611 0
M  V30 2875 C 277.633 2.05503 -0.239992 0
M  V30 2876 C 278.048 1.52584 1.11191 0
M  V30 2877 O 277.405 0.675323 1.69545 0
M  V30 2878 C 277.456 3.60987 -0.192429 0
M  V30 2879 O 277.177 4.1195 -1.49094 0
M  V30 2880 C 278.678 4.42371 0.28681 0
M  V30 2881 H 275.898 0.661748 -0.111045 0
M  V30 2882 H 278.442 1.80987 -0.95205 0
M  V30 2883 H 276.597 3.84533 0.470472 0
M  V30 2884 H 277.011 5.06018 -1.38007 0
M  V30 2885 H 278.485 5.51344 0.26896 0
M  V30 2886 H 278.962 4.18699 1.32619 0
M  V30 2887 H 279.568 4.23897 -0.345201 0
M  V30 2888 N 277.883 0.443576 1.51229 0
M  V30 2889 C 278.793 -0.370721 2.31652 0
M  V30 2890 C 279.809 -1.02186 1.40833 0
M  V30 2891 O 280.985 -1.01586 1.73903 0
M  V30 2892 C 278.05 -1.45376 3.14749 0
M  V30 2893 C 277.111 -0.822099 4.21355 0
M  V30 2894 C 276.344 -1.85353 5.0048 0
M  V30 2895 O 276.567 -3.07656 4.80316 0
M  V30 2896 O 275.501 -1.4406 5.84406 0
M  V30 2897 H 279.327 0.286002 3.0235 0
M  V30 2898 H 276.912 0.20598 1.47973 0
M  V30 2899 H 278.794 -2.08173 3.66391 0
M  V30 2900 H 277.469 -2.09445 2.46809 0
M  V30 2901 H 276.376 -0.155909 3.73775 0
M  V30 2902 H 277.709 -0.224797 4.91686 0
M  V30 2903 N 279.361 -1.56624 0.175154 0
M  V30 2904 C 280.608 -1.96999 -0.468811 0
M  V30 2905 C 280.936 -1.06129 -1.62994 0
M  V30 2906 O 280.191 -0.0961771 -1.95464 0
M  V30 2907 C 280.49 -3.43419 -0.989864 0
M  V30 2908 C 280.156 -4.50866 0.0557687 0
M  V30 2909 C 278.818 -4.79975 0.343134 0
M  V30 2910 C 281.17 -5.15551 0.765308 0
M  V30 2911 C 278.498 -5.71066 1.34536 0
M  V30 2912 C 280.85 -6.07724 1.75654 0
M  V30 2913 C 279.514 -6.35199 2.05132 0
M  V30 2914 H 278.784 -0.720869 -0.17155 0
M  V30 2915 H 281.431 -1.89616 0.267924 0
M  V30 2916 H 279.736 -3.47772 -1.80449 0
M  V30 2917 H 281.433 -3.72002 -1.49719 0
M  V30 2918 H 278.023 -4.28229 -0.178381 0
M  V30 2919 H 282.207 -4.9317 0.556513 0
M  V30 2920 H 277.463 -5.90635 1.57988 0
M  V30 2921 H 281.637 -6.56912 2.31169 0
M  V30 2922 H 279.264 -7.05584 2.8294 0
M  V30 2923 N 280.839 0.0985539 -1.57292 0
M  V30 2924 C 282.087 0.801092 -1.85545 0
M  V30 2925 C 282.408 1.79438 -0.763353 0
M  V30 2926 O 281.678 1.94763 0.21073 0
M  V30 2927 H 280.258 0.29884 -0.684619 0
M  V30 2928 H 282.92 0.0810064 -1.94732 0
M  V30 2929 H 282.016 1.3338 -2.82163 0
M  V30 2930 N 282.317 1.53212 0.369288 0
M  V30 2931 C 283.565 1.68881 1.11012 0
M  V30 2932 C 283.886 0.441285 1.89941 0
M  V30 2933 O 283.156 -0.544623 1.88177 0
M  V30 2934 H 281.736 0.622569 0.412816 0
M  V30 2935 H 284.398 1.90391 0.416802 0
M  V30 2936 H 283.494 2.54822 1.80201 0
M  V30 2937 N 283.795 -0.628877 1.44509 0
M  V30 2938 C 285.02 -1.42048 1.5112 0
M  V30 2939 C 285.445 -1.87594 0.137818 0
M  V30 2940 O 284.803 -1.58873 -0.873437 0
M  V30 2941 C 284.851 -2.61541 2.48251 0
M  V30 2942 O 283.955 -3.61453 1.98559 0
M  V30 2943 H 283.296 -0.424942 0.510216 0
M  V30 2944 H 285.826 -0.767374 1.89664 0
M  V30 2945 H 285.836 -3.09057 2.66361 0
M  V30 2946 H 284.511 -2.27736 3.48007 0
M  V30 2947 H 283.088 -3.20731 1.90227 0
M  V30 2948 N 285.273 -1.31445 -0.869486 0
M  V30 2949 C 286.522 -1.20517 -1.61736 0
M  V30 2950 C 286.835 0.235341 -1.94179 0
M  V30 2951 O 288.041 0.466312 -2.67465 0
M  V30 2952 C 286.497 -2.10982 -2.91573 0
M  V30 2953 C 286.105 -3.60032 -2.66611 0
M  V30 2954 C 287.849 -2.08856 -3.69567 0
M  V30 2955 C 285.756 -4.42503 -3.92358 0
M  V30 2956 H 284.686 -0.447493 -0.606849 0
M  V30 2957 H 287.337 -1.56303 -0.96133 0
M  V30 2958 H 285.719 -1.68095 -3.58553 0
M  V30 2959 H 286.893 -4.11167 -2.08035 0
M  V30 2960 H 285.208 -3.64139 -2.0197 0
M  V30 2961 H 287.805 -2.67716 -4.62852 0
M  V30 2962 H 288.148 -1.07582 -4.02159 0
M  V30 2963 H 288.681 -2.49945 -3.09471 0
M  V30 2964 H 285.42 -5.44533 -3.64916 0
M  V30 2965 H 284.94 -3.96125 -4.50383 0
M  V30 2966 H 286.619 -4.54741 -4.60238 0
M  V30 2967 N 286.751 1.08385 -1.14413 0
M  V30 2968 C 287.981 1.8425 -0.934644 0
M  V30 2969 C 288.389 1.81907 0.520234 0
M  V30 2970 O 287.732 1.22126 1.37226 0
M  V30 2971 C 287.794 3.32853 -1.35828 0
M  V30 2972 C 287.458 3.5893 -2.82875 0
M  V30 2973 C 288.455 3.53756 -3.80989 0
M  V30 2974 C 286.14 3.86934 -3.20293 0
M  V30 2975 C 288.134 3.76216 -5.14529 0
M  V30 2976 C 285.821 4.09047 -4.54008 0
M  V30 2977 C 286.819 4.03682 -5.50936 0
M  V30 2978 O 286.507 4.25214 -6.82238 0
M  V30 2979 H 286.239 0.588502 -0.332628 0
M  V30 2980 H 288.793 1.37792 -1.52324 0
M  V30 2981 H 287.023 3.8007 -0.713019 0
M  V30 2982 H 288.712 3.90154 -1.11957 0
M  V30 2983 H 289.478 3.32135 -3.53428 0
M  V30 2984 H 285.357 3.9023 -2.45442 0
M  V30 2985 H 288.901 3.71943 -5.90173 0
M  V30 2986 H 284.798 4.30151 -4.8129 0
M  V30 2987 H 285.566 4.42619 -6.88499 0
M  V30 2988 N 288.23 0.939286 1.26551 0
M  V30 2989 C 289.162 0.404704 2.25599 0
M  V30 2990 C 290.175 -0.470983 1.55838 0
M  V30 2991 O 291.364 -0.281734 1.76263 0
M  V30 2992 C 288.464 -0.43764 3.36062 0
M  V30 2993 C 287.637 0.421449 4.35365 0
M  V30 2994 C 286.696 -0.36015 5.24966 0
M  V30 2995 O 285.722 0.236167 5.6871 0
M  V30 2996 N 286.924 -1.65715 5.56344 0
M  V30 2997 H 289.689 1.25618 2.72103 0
M  V30 2998 H 287.25 0.807963 1.40298 0
M  V30 2999 H 289.242 -0.967866 3.92956 0
M  V30 3000 H 287.812 -1.18991 2.89067 0
M  V30 3001 H 287.032 1.1329 3.7757 0
M  V30 3002 H 288.32 1.00835 4.98708 0
M  V30 3003 H 287.718 -2.16378 5.22682 0
M  V30 3004 H 286.275 -2.13366 6.15888 0
M  V30 3005 N 289.708 -1.40897 0.706093 0
M  V30 3006 C 290.655 -2.30751 0.0474474 0
M  V30 3007 C 291.625 -1.47678 -0.76029 0
M  V30 3008 O 292.81 -1.76441 -0.726177 0
M  V30 3009 C 289.95 -3.33815 -0.875309 0
M  V30 3010 C 289.063 -4.31961 -0.0580623 0
M  V30 3011 C 288.198 -5.22093 -0.979425 0
M  V30 3012 C 287.237 -6.11902 -0.155706 0
M  V30 3013 N 286.374 -6.94482 -1.03144 0
M  V30 3014 H 291.214 -2.86513 0.819413 0
M  V30 3015 H 288.751 -1.41102 0.415783 0
M  V30 3016 H 290.709 -3.92129 -1.42446 0
M  V30 3017 H 289.339 -2.79579 -1.61356 0
M  V30 3018 H 288.391 -3.75507 0.608147 0
M  V30 3019 H 289.703 -4.95415 0.580082 0
M  V30 3020 H 288.857 -5.85292 -1.59744 0
M  V30 3021 H 287.596 -4.5889 -1.65141 0
M  V30 3022 H 286.601 -5.47742 0.475309 0
M  V30 3023 H 287.826 -6.77162 0.512635 0
M  V30 3024 H 285.772 -6.33877 -1.68924 0
M  V30 3025 H 285.689 -7.54665 -0.449108 0
M  V30 3026 H 286.957 -7.6214 -1.63593 0
M  V30 3027 N 291.186 -0.45159 -1.50991 0
M  V30 3028 C 292.432 0.110237 -2.025 0
M  V30 3029 C 292.765 1.41109 -1.33424 0
M  V30 3030 O 292.04 1.89135 -0.453659 0
M  V30 3031 C 292.323 0.314271 -3.58726 0
M  V30 3032 C 292.176 -1.00623 -4.38401 0
M  V30 3033 C 293.495 1.07767 -4.26702 0
M  V30 3034 H 290.614 0.0385897 -0.735989 0
M  V30 3035 H 293.256 -0.593374 -1.80497 0
M  V30 3036 H 291.406 0.913601 -3.77605 0
M  V30 3037 H 293.078 -1.64064 -4.31139 0
M  V30 3038 H 291.321 -1.6075 -4.02917 0
M  V30 3039 H 291.992 -0.817341 -5.45915 0
M  V30 3040 H 294.468 0.56986 -4.12179 0
M  V30 3041 H 293.344 1.18921 -5.35863 0
M  V30 3042 H 293.605 2.10939 -3.88532 0
M  V30 3043 N 292.664 1.56529 -0.183458 0
M  V30 3044 C 293.612 2.19873 0.758845 0
M  V30 3045 C 294.606 1.16638 1.22849 0
M  V30 3046 O 295.812 1.3481 1.19274 0
M  V30 3047 H 292.187 0.7045 0.263029 0
M  V30 3048 H 294.158 2.97724 0.200755 0
M  V30 3049 C 292.907 2.86314 1.9728 0
M  V30 3050 H 292.23 3.65487 1.62047 0
M  V30 3051 H 293.67 3.3409 2.61075 0
M  V30 3052 C 292.129 1.86729 2.80418 0
M  V30 3053 O 292.659 1.36031 3.77966 0
M  V30 3054 N 290.865 1.55216 2.45675 0
M  V30 3055 H 290.412 1.96636 1.66409 0
M  V30 3056 H 290.37 0.888388 3.01588 0
M  V30 3057 N 294.142 -0.090211 1.57342 0
M  V30 3058 C 295.089 -1.10909 2.02405 0
M  V30 3059 C 296.059 -1.39523 0.901252 0
M  V30 3060 O 297.244 -1.50903 1.1676 0
M  V30 3061 C 294.384 -2.42277 2.45755 0
M  V30 3062 C 293.497 -2.20352 3.71576 0
M  V30 3063 C 292.632 -3.45154 4.03785 0
M  V30 3064 C 291.671 -3.18512 5.22701 0
M  V30 3065 N 290.808 -4.35593 5.50639 0
M  V30 3066 H 295.648 -0.71782 2.89225 0
M  V30 3067 H 293.185 -0.342901 1.43048 0
M  V30 3068 H 295.143 -3.18951 2.68935 0
M  V30 3069 H 293.773 -2.79242 1.61938 0
M  V30 3070 H 292.825 -1.34458 3.55844 0
M  V30 3071 H 294.137 -1.96661 4.58395 0
M  V30 3072 H 293.291 -4.30233 4.27767 0
M  V30 3073 H 292.03 -3.71904 3.15498 0
M  V30 3074 H 291.035 -2.31827 4.98534 0
M  V30 3075 H 292.26 -2.93103 6.12591 0
M  V30 3076 H 290.206 -4.6241 4.6531 0
M  V30 3077 H 290.123 -4.1511 6.31838 0
M  V30 3078 H 291.391 -5.21723 5.7916 0
M  V30 3079 N 295.62 -1.53406 -0.361157 0
M  V30 3080 C 296.567 -1.80156 -1.44265 0
M  V30 3081 C 297.537 -0.646183 -1.53015 0
M  V30 3082 O 298.722 -0.888818 -1.68833 0
M  V30 3083 C 295.862 -2.00116 -2.81154 0
M  V30 3084 C 294.975 -3.27833 -2.81335 0
M  V30 3085 C 294.11 -3.37957 -4.09828 0
M  V30 3086 C 293.149 -4.59689 -4.04168 0
M  V30 3087 N 292.286 -4.66942 -5.24318 0
M  V30 3088 H 297.126 -2.72438 -1.20754 0
M  V30 3089 H 294.663 -1.34954 -0.585296 0
M  V30 3090 H 296.621 -2.09677 -3.60682 0
M  V30 3091 H 295.251 -1.11167 -3.03054 0
M  V30 3092 H 294.303 -3.27204 -1.94014 0
M  V30 3093 H 295.615 -4.17442 -2.73027 0
M  V30 3094 H 294.769 -3.46853 -4.97773 0
M  V30 3095 H 293.508 -2.46372 -4.20894 0
M  V30 3096 H 292.513 -4.50889 -3.14609 0
M  V30 3097 H 293.738 -5.5262 -3.947 0
M  V30 3098 H 291.684 -3.7826 -5.35962 0
M  V30 3099 H 291.601 -5.50462 -5.18197 0
M  V30 3100 H 292.869 -4.80127 -6.14084 0
M  V30 3101 N 297.098 0.621204 -1.44841 0
M  V30 3102 C 298.028 1.74366 -1.55303 0
M  V30 3103 C 299.009 1.65199 -0.405385 0
M  V30 3104 O 300.194 1.83807 -0.626787 0
M  V30 3105 C 297.324 3.12931 -1.50637 0
M  V30 3106 C 296.278 3.36896 -2.63979 0
M  V30 3107 C 295.604 4.75594 -2.44366 0
M  V30 3108 C 296.904 3.28483 -4.06074 0
M  V30 3109 H 298.598 1.65867 -2.49256 0
M  V30 3110 H 296.144 0.796558 -1.19962 0
M  V30 3111 H 298.097 3.9124 -1.56555 0
M  V30 3112 H 296.821 3.22237 -0.532057 0
M  V30 3113 H 295.48 2.60972 -2.57467 0
M  V30 3114 H 295.128 4.81616 -1.45105 0
M  V30 3115 H 294.828 4.92586 -3.20364 0
M  V30 3116 H 296.352 5.5612 -2.52117 0
M  V30 3117 H 297.766 3.96684 -4.13902 0
M  V30 3118 H 296.163 3.57008 -4.82354 0
M  V30 3119 H 297.233 2.26133 -4.28943 0
M  V30 3120 N 298.576 1.31904 0.862503 0
M  V30 3121 C 299.486 1.22161 2.00285 0
M  V30 3122 C 300.502 0.136785 1.73462 0
M  V30 3123 O 301.678 0.355994 1.98229 0
M  V30 3124 C 298.743 0.937093 3.33796 0
M  V30 3125 C 297.804 2.10957 3.73893 0
M  V30 3126 C 297.037 1.83853 5.01033 0
M  V30 3127 O 297.26 0.777274 5.65079 0
M  V30 3128 O 296.194 2.69741 5.38074 0
M  V30 3129 H 300.02 2.18008 2.11439 0
M  V30 3130 H 297.605 1.11716 0.991957 0
M  V30 3131 H 299.487 0.794583 4.13841 0
M  V30 3132 H 298.162 0.00871894 3.23699 0
M  V30 3133 H 297.069 2.30752 2.94456 0
M  V30 3134 H 298.402 3.02046 3.88625 0
M  V30 3135 N 300.054 -1.07777 1.14986 0
M  V30 3136 C 301.282 -1.84018 0.945773 0
M  V30 3137 C 301.697 -1.81897 -0.505863 0
M  V30 3138 O 301.054 -1.22726 -1.35072 0
M  V30 3139 C 301.105 -3.31287 1.44677 0
M  V30 3140 O 300.826 -3.33449 2.84154 0
M  V30 3141 C 302.327 -4.24311 1.28355 0
M  V30 3142 H 299.547 -0.580716 0.336169 0
M  V30 3143 H 302.091 -1.36077 1.52654 0
M  V30 3144 H 300.246 -3.76594 0.908625 0
M  V30 3145 H 300.66 -4.25427 3.06777 0
M  V30 3146 H 302.134 -5.2573 1.68261 0
M  V30 3147 H 302.611 -4.38612 0.227184 0
M  V30 3148 H 303.217 -3.84836 1.81056 0
M  V30 3149 N 301.532 -0.945985 -1.26051 0
M  V30 3150 C 302.495 -0.463897 -2.24456 0
M  V30 3151 C 303.495 0.427655 -1.55009 0
M  V30 3152 O 304.685 0.226157 -1.72726 0
M  V30 3153 C 301.817 0.330812 -3.39291 0
M  V30 3154 H 303.01 -1.33357 -2.68619 0
M  V30 3155 H 300.563 -0.728416 -1.38289 0
M  V30 3156 H 301.298 1.21852 -3.00537 0
M  V30 3157 H 301.083 -0.308679 -3.90883 0
M  V30 3158 H 302.573 0.657865 -4.12386 0
M  V30 3159 N 303.011 1.40521 -0.713556 0
M  V30 3160 C 304.257 2.01221 -0.252564 0
M  V30 3161 C 304.59 1.56444 1.1506 0
M  V30 3162 O 303.865 0.783597 1.78017 0
M  V30 3163 C 304.148 3.58582 -0.330332 0
M  V30 3164 C 304.001 4.13437 -1.77173 0
M  V30 3165 C 305.32 4.39079 0.299641 0
M  V30 3166 H 302.439 0.731077 -0.0932471 0
M  V30 3167 H 305.081 1.67026 -0.905673 0
M  V30 3168 H 303.231 3.87844 0.225737 0
M  V30 3169 H 304.903 3.9498 -2.38303 0
M  V30 3170 H 303.146 3.67801 -2.3001 0
M  V30 3171 H 303.817 5.22597 -1.77755 0
M  V30 3172 H 306.293 4.15735 -0.174139 0
M  V30 3173 H 305.169 5.4848 0.214771 0
M  V30 3174 H 305.43 4.19915 1.38288 0
M  V30 3175 N 304.489 0.459591 1.5075 0
M  V30 3176 C 305.437 -0.354678 2.2988 0
M  V30 3177 C 306.431 -1.00086 1.36672 0
M  V30 3178 O 307.637 -0.933277 1.53915 0
M  V30 3179 H 304.012 -0.13321 0.740107 0
M  V30 3180 H 305.983 0.333269 2.96533 0
M  V30 3181 C 304.732 -1.43073 3.169 0
M  V30 3182 H 304.055 -0.942882 3.88523 0
M  V30 3183 H 305.495 -1.97328 3.75284 0
M  V30 3184 C 303.954 -2.42633 2.33732 0
M  V30 3185 O 304.484 -3.47658 2.01238 0
M  V30 3186 N 302.69 -2.14066 1.9653 0
M  V30 3187 H 302.237 -1.28685 2.23155 0
M  V30 3188 H 302.195 -2.80917 1.41185 0
M  V30 3189 N 305.967 -1.56429 0.191757 0
M  V30 3190 C 306.897 -2.21937 -0.725696 0
M  V30 3191 C 307.878 -1.1814 -1.2238 0
M  V30 3192 O 309.063 -1.46636 -1.27325 0
M  V30 3193 C 306.193 -2.87611 -1.94672 0
M  V30 3194 C 305.147 -3.97623 -1.58366 0
M  V30 3195 C 304.473 -4.50446 -2.88102 0
M  V30 3196 C 305.773 -5.16197 -0.796133 0
M  V30 3197 H 307.467 -2.98861 -0.179606 0
M  V30 3198 H 305.013 -1.43749 -0.0849464 0
M  V30 3199 H 306.966 -3.3212 -2.59373 0
M  V30 3200 H 305.69 -2.08087 -2.51728 0
M  V30 3201 H 304.349 -3.53801 -0.960247 0
M  V30 3202 H 303.997 -3.67688 -3.43241 0
M  V30 3203 H 303.697 -5.24675 -2.64556 0
M  V30 3204 H 305.221 -4.97654 -3.53798 0
M  V30 3205 H 306.635 -5.57271 -1.34618 0
M  V30 3206 H 305.032 -5.96471 -0.658928 0
M  V30 3207 H 306.102 -4.84473 0.203478 0
M  V30 3208 N 307.445 0.0818655 -1.57387 0
M  V30 3209 C 308.408 1.08265 -2.02018 0
M  V30 3210 C 309.408 1.32183 -0.915664 0
M  V30 3211 O 310.598 1.28073 -1.18081 0
M  V30 3212 C 307.73 2.42871 -2.39221 0
M  V30 3213 H 308.923 0.698204 -2.91659 0
M  V30 3214 H 306.476 0.327303 -1.52835 0
M  V30 3215 H 307.211 2.86167 -1.52575 0
M  V30 3216 H 306.996 2.26855 -3.19811 0
M  V30 3217 H 308.486 3.14826 -2.74362 0
M  V30 3218 N 308.923 1.53595 0.353017 0
M  V30 3219 C 310.169 1.71581 1.09232 0
M  V30 3220 C 310.524 0.468328 1.86613 0
M  V30 3221 O 309.817 -0.538911 1.83865 0
M  V30 3222 C 310.011 2.91313 2.07054 0
M  V30 3223 C 309.84 4.27585 1.39287 0
M  V30 3224 C 308.61 4.92233 1.1417 0
M  V30 3225 C 310.808 5.07656 0.824005 0
M  V30 3226 N 308.79 6.124 0.428841 0
M  V30 3227 C 310.161 6.19531 0.241195 0
M  V30 3228 C 312.216 4.92609 0.723922 0
M  V30 3229 C 310.919 7.18002 -0.431952 0
M  V30 3230 C 312.945 5.91365 0.0645334 0
M  V30 3231 C 312.307 7.02571 -0.507347 0
M  V30 3232 H 308.406 0.680987 0.384422 0
M  V30 3233 H 310.99 1.91013 0.377096 0
M  V30 3234 H 309.161 2.73398 2.75877 0
M  V30 3235 H 310.893 2.98062 2.73753 0
M  V30 3236 H 307.648 4.51612 1.42631 0
M  V30 3237 H 308.072 6.76944 0.0874131 0
M  V30 3238 H 312.714 4.06808 1.15181 0
M  V30 3239 H 310.432 8.03384 -0.871758 0
M  V30 3240 H 314.018 5.81799 -0.0121469 0
M  V30 3241 H 312.898 7.77675 -1.0095 0
M  V30 3242 N 310.401 -0.613514 1.45168 0
M  V30 3243 C 311.629 -1.39946 1.5239 0
M  V30 3244 C 312.044 -1.88167 0.154531 0
M  V30 3245 O 311.401 -1.61872 -0.842843 0
M  V30 3246 C 311.452 -2.60795 2.50337 0
M  V30 3247 O 311.173 -2.1458 3.81952 0
M  V30 3248 C 312.674 -3.53723 2.67198 0
M  V30 3249 H 309.894 -0.428593 0.516284 0
M  V30 3250 H 312.438 -0.748753 1.903 0
M  V30 3251 H 310.593 -3.21919 2.15515 0
M  V30 3252 H 311.007 -2.93055 4.34993 0
M  V30 3253 H 312.481 -4.35079 3.39721 0
M  V30 3254 H 312.958 -4.0368 1.73029 0
M  V30 3255 H 313.564 -2.98456 3.02992 0
M  V30 3256 N 311.879 -1.3236 -0.855495 0
M  V30 3257 C 312.842 -1.21164 -1.94556 0
M  V30 3258 C 313.842 -0.134908 -1.60233 0
M  V30 3259 O 315.032 -0.385249 -1.69887 0
M  V30 3260 C 312.164 -0.863192 -3.29791 0
M  V30 3261 H 313.357 -2.18038 -2.05911 0
M  V30 3262 H 310.91 -1.16179 -1.04557 0
M  V30 3263 H 311.645 0.103769 -3.24134 0
M  V30 3264 H 311.43 -1.64166 -3.56078 0
M  V30 3265 H 312.92 -0.809156 -4.09686 0
M  V30 3266 N 313.357 1.07166 -1.15556 0
M  V30 3267 C 314.605 1.79443 -0.929764 0
M  V30 3268 C 314.926 1.87246 0.544414 0
M  V30 3269 O 314.196 1.37473 1.39564 0
M  V30 3270 H 312.776 0.664625 -0.341003 0
M  V30 3271 H 315.438 1.29499 -1.45657 0
M  V30 3272 H 314.534 2.81832 -1.34079 0
M  V30 3273 N 314.835 0.952656 1.25548 0
M  V30 3274 C 315.783 0.462354 2.27958 0
M  V30 3275 C 316.777 -0.46634 1.62855 0
M  V30 3276 O 317.983 -0.343287 1.76696 0
M  V30 3277 H 314.358 0.13101 0.7405 0
M  V30 3278 H 316.329 1.33839 2.66702 0
M  V30 3279 C 315.078 -0.24628 3.46827 0
M  V30 3280 H 314.401 0.459192 3.97154 0
M  V30 3281 H 315.841 -0.553393 4.20373 0
M  V30 3282 C 314.3 -1.4681 3.0323 0
M  V30 3283 O 314.83 -2.56591 3.09069 0
M  V30 3284 N 313.036 -1.32874 2.58443 0
M  V30 3285 H 312.583 -0.435536 2.53891 0
M  V30 3286 H 312.541 -2.14742 2.29637 0
M  V30 3287 N 316.313 -1.40141 0.720998 0
M  V30 3288 C 317.538 -2.05618 0.271258 0
M  V30 3289 C 317.963 -1.53978 -1.08039 0
M  V30 3290 O 317.321 -0.677463 -1.68167 0
M  V30 3291 C 317.369 -3.59609 0.267197 0
M  V30 3292 O 316.473 -4.05526 -0.749814 0
M  V30 3293 H 315.814 -0.651904 0.126162 0
M  V30 3294 H 318.344 -1.79439 0.982997 0
M  V30 3295 H 318.354 -4.0786 0.106744 0
M  V30 3296 H 317.029 -3.96559 1.25354 0
M  V30 3297 H 315.606 -3.68722 -0.556644 0
M  V30 3298 N 317.792 -0.46758 -1.50504 0
M  V30 3299 C 318.74 0.342482 -2.30065 0
M  V30 3300 C 319.734 0.993596 -1.37201 0
M  V30 3301 O 320.94 0.925102 -1.54408 0
M  V30 3302 H 317.315 0.129283 -0.740803 0
M  V30 3303 H 319.286 -0.34899 -2.96352 0
M  V30 3304 C 318.035 1.4139 -3.17654 0
M  V30 3305 H 317.358 0.922264 -3.89017 0
M  V30 3306 H 318.798 1.95335 -3.76325 0
M  V30 3307 C 317.257 2.4139 -2.35016 0
M  V30 3308 O 317.787 3.46586 -2.03079 0
M  V30 3309 N 315.993 2.13021 -1.97662 0
M  V30 3310 H 315.54 1.27499 -2.23834 0
M  V30 3311 H 315.498 2.80164 -1.42673 0
M  V30 3312 N 319.27 1.56325 -0.20005 0
M  V30 3313 C 320.498 2.02105 0.442874 0
M  V30 3314 C 320.913 1.08014 1.5485 0
M  V30 3315 O 320.27 0.0858797 1.82298 0
M  V30 3316 C 320.321 3.47549 0.994583 0
M  V30 3317 O 320.042 4.38049 -0.0669322 0
M  V30 3318 C 321.543 4.0887 1.7129 0
M  V30 3319 H 318.763 0.661807 0.110691 0
M  V30 3320 H 321.307 2.02134 -0.310207 0
M  V30 3321 H 319.462 3.48204 1.69803 0
M  V30 3322 H 319.876 5.23368 0.344462 0
M  V30 3323 H 321.35 5.12475 2.05118 0
M  V30 3324 H 321.827 3.52615 2.61838 0
M  V30 3325 H 322.433 4.12002 1.05518 0
M  V30 3326 N 320.748 -0.0735177 1.57428 0
M  V30 3327 C 322.164 -0.428264 1.53747 0
M  V30 3328 C 322.364 -1.79272 0.91998 0
M  V30 3329 O 321.42 -2.47051 0.521745 0
M  V30 3330 C 322.733 -0.370914 2.98404 0
M  V30 3331 C 324.281 -0.451224 3.0973 0
M  V30 3332 C 324.756 -0.4238 4.56035 0
M  V30 3333 N 326.247 -0.483925 4.60665 0
M  V30 3334 C 326.982 -0.484891 5.71346 0
M  V30 3335 N 326.478 -0.440775 6.91396 0
M  V30 3336 N 328.271 -0.531319 5.59583 0
M  V30 3337 H 320.422 0.819949 1.95935 0
M  V30 3338 H 322.685 0.307493 0.896745 0
M  V30 3339 H 322.391 0.564956 3.47133 0
M  V30 3340 H 322.265 -1.18176 3.5821 0
M  V30 3341 H 324.652 -1.37752 2.60976 0
M  V30 3342 H 324.733 0.388167 2.52838 0
M  V30 3343 H 324.377 0.498638 5.05446 0
M  V30 3344 H 324.307 -1.2807 5.10789 0
M  V30 3345 H 326.798 -0.522338 3.74273 0
M  V30 3346 H 327.111 -0.44539 7.71515 0
M  V30 3347 H 325.456 -0.40749 6.93804 0
M  V30 3348 H 328.647 -0.563464 4.64696 0
M  V30 3349 H 328.82 -0.528603 6.4584 0
M  V30 3350 N 322.226 -1.5378 -0.344866 0
M  V30 3351 C 323.473 -1.70963 -1.08526 0
M  V30 3352 C 323.801 -0.472126 -1.88683 0
M  V30 3353 O 323.056 0.546116 -1.87926 0
M  V30 3354 C 323.355 -2.92407 -2.05506 0
M  V30 3355 C 323.021 -4.28066 -1.41671 0
M  V30 3356 C 321.683 -4.64951 -1.2399 0
M  V30 3357 C 324.035 -5.12344 -0.956726 0
M  V30 3358 C 321.363 -5.83733 -0.589277 0
M  V30 3359 C 323.715 -6.3179 -0.320015 0
M  V30 3360 C 322.379 -6.67372 -0.130881 0
M  V30 3361 H 321.649 -0.625598 -0.397124 0
M  V30 3362 H 324.296 -1.87995 -0.36469 0
M  V30 3363 H 322.601 -2.69973 -2.8394 0
M  V30 3364 H 324.298 -3.02895 -2.62784 0
M  V30 3365 H 320.888 -3.99034 -1.56429 0
M  V30 3366 H 325.072 -4.8438 -1.08118 0
M  V30 3367 H 320.328 -6.09877 -0.431344 0
M  V30 3368 H 324.502 -6.96386 0.0445072 0
M  V30 3369 H 322.129 -7.59273 0.375318 0
M  V30 3370 N 323.704 0.605807 -1.45491 0
M  V30 3371 C 324.952 1.36207 -1.49305 0
M  V30 3372 C 325.273 1.94519 -0.136863 0
M  V30 3373 O 324.543 1.77261 0.833983 0
M  V30 3374 H 323.123 0.50565 -0.549843 0
M  V30 3375 H 325.785 0.711239 -1.81459 0
M  V30 3376 H 324.881 2.18058 -2.23287 0
M  V30 3377 N 325.182 1.32811 0.848464 0
M  V30 3378 C 326.431 1.23075 1.59798 0
M  V30 3379 C 326.744 -0.204419 1.94529 0
M  V30 3380 O 327.95 -0.423701 2.68173 0
M  V30 3381 C 326.406 2.15594 2.88179 0
M  V30 3382 C 326.014 3.64228 2.60849 0
M  V30 3383 C 327.758 2.14709 3.66197 0
M  V30 3384 C 325.665 4.48689 3.85269 0
M  V30 3385 H 324.595 0.457091 0.599653 0
M  V30 3386 H 327.246 1.57813 0.936342 0
M  V30 3387 H 325.628 1.73778 3.55833 0
M  V30 3388 H 326.802 4.14424 2.01467 0
M  V30 3389 H 325.117 3.67306 1.96151 0
M  V30 3390 H 327.714 2.75046 4.58534 0
M  V30 3391 H 328.057 1.13966 4.00397 0
M  V30 3392 H 328.59 2.54837 3.05455 0
M  V30 3393 H 325.329 5.5027 3.56207 0
M  V30 3394 H 324.849 4.03241 4.44024 0
M  V30 3395 H 326.528 4.62006 4.52946 0
M  V30 3396 N 326.66 -1.06551 1.16123 0
M  V30 3397 C 327.623 -2.12132 0.867906 0
M  V30 3398 C 328.623 -1.60224 -0.135944 0
M  V30 3399 O 329.813 -1.73943 0.0946422 0
M  V30 3400 C 326.945 -3.396 0.297419 0
M  V30 3401 H 328.138 -2.39586 1.80385 0
M  V30 3402 H 325.691 -1.22574 0.969812 0
M  V30 3403 H 326.426 -3.17794 -0.64633 0
M  V30 3404 H 326.211 -3.78581 1.02073 0
M  V30 3405 H 327.701 -4.17455 0.110052 0
M  V30 3406 N 328.138 -0.959301 -1.25041 0
M  V30 3407 C 329.101 -0.487677 -2.23952 0
M  V30 3408 C 330.101 0.41119 -1.55454 0
M  V30 3409 O 331.291 0.207825 -1.72956 0
M  V30 3410 C 328.423 0.294807 -3.39623 0
M  V30 3411 H 329.616 -1.36198 -2.67189 0
M  V30 3412 H 327.169 -0.743042 -1.37508 0
M  V30 3413 H 327.904 1.18658 -3.01813 0
M  V30 3414 H 327.689 -0.35012 -3.90534 0
M  V30 3415 H 329.179 0.614089 -4.1306 0
M  V30 3416 N 329.616 1.39756 -0.72842 0
M  V30 3417 C 330.563 2.30647 -0.0841519 0
M  V30 3418 C 331.533 1.48869 0.7367 0
M  V30 3419 O 332.718 1.77574 0.698015 0
M  V30 3420 C 329.858 3.35165 0.822091 0
M  V30 3421 C 328.971 4.31999 -0.0106663 0
M  V30 3422 C 328.106 5.23585 0.896241 0
M  V30 3423 C 327.145 6.12072 0.0583381 0
M  V30 3424 N 326.282 6.96035 0.920818 0
M  V30 3425 H 331.122 2.85173 -0.864891 0
M  V30 3426 H 328.659 1.40422 -0.438179 0
M  V30 3427 H 330.617 3.94345 1.36189 0
M  V30 3428 H 329.247 2.8211 1.56888 0
M  V30 3429 H 328.299 3.74492 -0.66781 0
M  V30 3430 H 329.611 4.9443 -0.658825 0
M  V30 3431 H 328.765 5.87759 1.50412 0
M  V30 3432 H 327.504 4.61459 1.57819 0
M  V30 3433 H 326.509 5.46916 -0.562389 0
M  V30 3434 H 327.734 6.76261 -0.6203 0
M  V30 3435 H 325.68 6.36485 1.58818 0
M  V30 3436 H 325.597 7.55284 0.32899 0
M  V30 3437 H 326.865 7.64646 1.51447 0
M  V30 3438 N 331.094 0.475555 1.50254 0
M  V30 3439 C 332.324 -0.0753399 2.06463 0
M  V30 3440 C 332.732 -1.33661 1.33908 0
M  V30 3441 O 332.075 -1.79219 0.403257 0
M  V30 3442 C 332.137 -0.424921 3.5698 0
M  V30 3443 C 331.801 0.734965 4.51051 0
M  V30 3444 C 332.798 1.61827 4.94073 0
M  V30 3445 C 330.483 0.926557 4.9368 0
M  V30 3446 C 332.477 2.67754 5.78434 0
M  V30 3447 C 330.164 1.98904 5.77824 0
M  V30 3448 C 331.162 2.8629 6.20103 0
M  V30 3449 O 330.85 3.90708 7.02568 0
M  V30 3450 H 330.582 0.00576308 0.675975 0
M  V30 3451 H 333.136 0.664662 1.94349 0
M  V30 3452 H 331.366 -1.21817 3.67012 0
M  V30 3453 H 333.055 -0.911422 3.95535 0
M  V30 3454 H 333.821 1.48196 4.61804 0
M  V30 3455 H 329.7 0.25584 4.6029 0
M  V30 3456 H 333.244 3.35992 6.11355 0
M  V30 3457 H 329.141 2.12541 6.09505 0
M  V30 3458 H 329.909 3.87751 7.20827 0
M  V30 3459 N 332.573 -1.56217 0.208337 0
M  V30 3460 C 333.505 -2.1695 -0.739276 0
M  V30 3461 C 334.518 -1.13492 -1.1672 0
M  V30 3462 O 335.707 -1.40529 -1.10063 0
M  V30 3463 C 332.807 -2.72755 -2.01142 0
M  V30 3464 C 331.98 -4.0125 -1.74118 0
M  V30 3465 C 331.039 -4.41749 -2.85909 0
M  V30 3466 O 330.065 -5.08912 -2.54946 0
M  V30 3467 N 331.267 -4.06342 -4.14568 0
M  V30 3468 H 334.032 -2.98893 -0.219837 0
M  V30 3469 H 331.593 -1.61878 0.0268445 0
M  V30 3470 H 333.585 -2.96826 -2.75094 0
M  V30 3471 H 332.155 -1.95191 -2.4417 0
M  V30 3472 H 331.375 -3.85173 -0.838775 0
M  V30 3473 H 332.663 -4.851 -1.53477 0
M  V30 3474 H 332.061 -3.52345 -4.42571 0
M  V30 3475 H 330.618 -4.35335 -4.85105 0
M  V30 3476 N 334.051 0.0651679 -1.57465 0
M  V30 3477 C 335.3 0.761916 -1.86756 0
M  V30 3478 C 335.613 1.78406 -0.801925 0
M  V30 3479 O 336.819 2.53084 -0.982885 0
M  V30 3480 C 335.275 1.40603 -3.31299 0
M  V30 3481 C 334.883 0.422115 -4.46007 0
M  V30 3482 C 336.627 2.08476 -3.69781 0
M  V30 3483 C 334.534 1.07252 -5.81593 0
M  V30 3484 H 333.464 0.288308 -0.696702 0
M  V30 3485 H 336.115 0.015344 -1.83494 0
M  V30 3486 H 334.497 2.20109 -3.29193 0
M  V30 3487 H 335.671 -0.343613 -4.59517 0
M  V30 3488 H 333.986 -0.152527 -4.16121 0
M  V30 3489 H 336.583 2.57925 -4.68379 0
M  V30 3490 H 336.926 2.88712 -2.99919 0
M  V30 3491 H 337.459 1.35792 -3.73905 0
M  V30 3492 H 334.198 0.310342 -6.54765 0
M  V30 3493 H 333.718 1.80895 -5.71872 0
M  V30 3494 H 335.397 1.59043 -6.27148 0
M  V30 3495 N 335.529 1.53961 0.336706 0
M  V30 3496 C 336.806 1.62171 1.09361 0
M  V30 3497 C 337.186 0.447263 2.06307 0
M  V30 3498 O 336.534 -0.559802 2.21537 0
M  V30 3499 C 336.744 2.98565 1.80721 0
M  V30 3500 C 338.092 3.54157 2.34218 0
M  V30 3501 O 339.116 3.00784 1.90807 0
M  V30 3502 O 337.975 4.47528 3.13657 0
M  V30 3503 H 335.069 0.6562 0.503319 0
M  V30 3504 H 337.615 1.66307 0.33765 0
M  V30 3505 H 336.387 3.75482 1.10132 0
M  V30 3506 H 336.01 2.9805 2.63158 0
M  V30 3507 N 337.007 -0.598083 1.45811 0
M  V30 3508 C 338.418 -1.18011 1.44673 0
M  V30 3509 C 338.769 -1.95378 0.179364 0
M  V30 3510 O 337.894 -2.04124 -0.718509 0
M  V30 3511 C 338.489 -2.14677 2.62105 0
M  V30 3512 C 337.048 -2.68236 2.64057 0
M  V30 3513 C 336.195 -1.43816 2.37091 0
M  V30 3514 H 339.146 -0.38686 1.53913 0
M  V30 3515 H 339.167 -2.97878 2.36746 0
M  V30 3516 H 338.679 -1.5834 3.5433 0
M  V30 3517 H 336.78 -3.28486 1.75864 0
M  V30 3518 H 336.893 -3.12021 3.63566 0
M  V30 3519 H 335.257 -1.731 1.86838 0
M  V30 3520 H 336.04 -0.893333 3.31473 0
M  V30 3521 N 338.485 -1.33259 -0.841409 0
M  V30 3522 C 339.762 -1.15174 -1.58096 0
M  V30 3523 C 340.142 0.282858 -2.09196 0
M  V30 3524 O 339.49 1.28151 -1.89181 0
M  V30 3525 C 339.7 -2.1907 -2.71679 0
M  V30 3526 C 341.048 -2.53093 -3.40924 0
M  V30 3527 O 342.072 -2.17717 -2.81918 0
M  V30 3528 O 340.931 -3.1379 -4.47435 0
M  V30 3529 H 338.025 -0.445303 -0.696875 0
M  V30 3530 H 340.571 -1.44833 -0.884385 0
M  V30 3531 H 339.343 -3.15443 -2.31541 0
M  V30 3532 H 338.966 -1.90481 -3.49002 0
M  V30 3533 N 339.963 1.05934 -1.16686 0
M  V30 3534 C 340.926 2.11669 -0.879144 0
M  V30 3535 C 341.926 1.60294 0.127445 0
M  V30 3536 O 343.116 1.7389 -0.103865 0
M  V30 3537 C 340.248 3.39438 -0.315425 0
M  V30 3538 H 341.441 2.38626 -1.81653 0
M  V30 3539 H 338.994 1.22058 -0.976299 0
M  V30 3540 H 339.729 3.18132 0.629468 0
M  V30 3541 H 339.514 3.78034 -1.04079 0
M  V30 3542 H 341.004 4.17391 -0.132189 0
M  V30 3543 N 341.441 0.965919 1.2453 0
M  V30 3544 C 342.681 0.634656 1.94297 0
M  V30 3545 C 343.045 -0.814822 1.73852 0
M  V30 3546 O 344.246 -1.25622 2.3764 0
M  V30 3547 C 342.517 0.99702 3.43212 0
M  V30 3548 S 344.076 0.780038 4.31811 0
M  V30 3549 H 340.894 0.232893 0.671775 0
M  V30 3550 H 343.496 1.24249 1.50938 0
M  V30 3551 H 342.2 2.04886 3.55598 0
M  V30 3552 H 341.731 0.379888 3.91562 0
M  V30 3553 H 343.746 -0.343512 4.9501 0
M  V30 3554 N 342.919 -1.39368 0.735821 0
M  V30 3555 C 344.166 -2.00497 0.284123 0
M  V30 3556 C 344.494 -1.58387 -1.12889 0
M  V30 3557 O 343.749 -0.804359 -1.78406 0
M  V30 3558 C 344.048 -3.5583 0.334651 0
M  V30 3559 C 343.714 -4.17593 1.7008 0
M  V30 3560 C 342.376 -4.34176 2.07472 0
M  V30 3561 C 344.728 -4.51848 2.59775 0
M  V30 3562 C 342.056 -4.82304 3.34065 0
M  V30 3563 C 344.408 -5.01384 3.85741 0
M  V30 3564 C 343.072 -5.16175 4.23225 0
M  V30 3565 H 342.342 -0.73367 0.103968 0
M  V30 3566 H 344.989 -1.66683 0.942825 0
M  V30 3567 H 343.294 -3.89674 -0.407625 0
M  V30 3568 H 344.991 -4.00986 -0.0329927 0
M  V30 3569 H 341.581 -4.05087 1.40008 0
M  V30 3570 H 345.765 -4.38653 2.32157 0
M  V30 3571 H 341.021 -4.91941 3.63049 0
M  V30 3572 H 345.195 -5.26863 4.55399 0
M  V30 3573 H 342.822 -5.5323 5.21384 0
M  V30 3574 N 344.397 -0.483516 -1.5 0
M  V30 3575 C 345.622 0.0667119 -2.07293 0
M  V30 3576 C 346.047 1.3164 -1.3436 0
M  V30 3577 O 345.405 1.76945 -0.394987 0
M  V30 3578 C 345.453 0.321126 -3.59167 0
M  V30 3579 O 344.557 1.39927 -3.87936 0
M  V30 3580 H 343.898 -0.0184758 -0.663743 0
M  V30 3581 H 346.428 -0.678125 -1.93035 0
M  V30 3582 H 346.438 0.557906 -4.04168 0
M  V30 3583 H 345.113 -0.592007 -4.11665 0
M  V30 3584 H 343.69 1.14882 -3.54763 0
M  V30 3585 N 345.875 1.56104 -0.216619 0
M  V30 3586 C 346.838 2.18819 0.681962 0
M  V30 3587 C 347.838 1.14866 1.12528 0
M  V30 3588 O 349.028 1.40128 1.03488 0
M  V30 3589 C 346.16 2.80756 1.93362 0
M  V30 3590 H 347.353 2.99595 0.135254 0
M  V30 3591 H 344.906 1.56265 0.0330003 0
M  V30 3592 H 345.641 2.03837 2.52232 0
M  V30 3593 H 345.426 3.56876 1.62426 0
M  V30 3594 H 346.916 3.28844 2.57393 0
M  V30 3595 N 347.353 -0.0568162 1.57498 0
M  V30 3596 C 348.3 -1.06591 2.04712 0
M  V30 3597 C 349.27 -1.3758 0.930644 0
M  V30 3598 O 350.455 -1.48392 1.19935 0
M  V30 3599 C 347.595 -2.3701 2.50839 0
M  V30 3600 C 346.708 -2.12421 3.76167 0
M  V30 3601 C 345.843 -3.36511 4.11015 0
M  V30 3602 C 344.882 -3.07353 5.2934 0
M  V30 3603 N 344.019 -4.23816 5.59754 0
M  V30 3604 H 348.859 -0.65631 2.90683 0
M  V30 3605 H 346.396 -0.312481 1.43743 0
M  V30 3606 H 348.354 -3.13175 2.7564 0
M  V30 3607 H 346.984 -2.75744 1.67825 0
M  V30 3608 H 346.036 -1.2688 3.58616 0
M  V30 3609 H 347.348 -1.86894 4.62463 0
M  V30 3610 H 346.502 -4.21062 4.36797 0
M  V30 3611 H 345.241 -3.65128 3.23315 0
M  V30 3612 H 344.246 -2.212 5.03339 0
M  V30 3613 H 345.471 -2.80043 6.1867 0
M  V30 3614 H 343.417 -4.52436 4.75014 0
M  V30 3615 H 343.334 -4.01614 6.40501 0
M  V30 3616 H 344.602 -5.0932 5.90096 0
M  V30 3617 N 348.832 -1.54138 -0.328536 0
M  V30 3618 C 350.078 -1.7236 -1.06865 0
M  V30 3619 C 350.411 -0.493231 -1.87832 0
M  V30 3620 O 349.686 0.5098 -1.877 0
M  V30 3621 C 349.969 -2.99621 -1.99747 0
M  V30 3622 C 349.822 -4.32899 -1.22143 0
M  V30 3623 C 351.141 -3.22615 -2.99345 0
M  V30 3624 H 348.26 -0.627151 -0.387105 0
M  V30 3625 H 350.902 -1.86827 -0.345767 0
M  V30 3626 H 349.052 -2.87418 -2.61387 0
M  V30 3627 H 350.724 -4.56978 -0.630017 0
M  V30 3628 H 348.967 -4.30628 -0.523628 0
M  V30 3629 H 349.638 -5.18154 -1.90318 0
M  V30 3630 H 352.114 -3.34248 -2.47826 0
M  V30 3631 H 350.99 -4.13027 -3.61524 0
M  V30 3632 H 351.251 -2.3961 -3.71536 0
M  V30 3633 N 350.31 0.590341 -1.46126 0
M  V30 3634 C 351.258 1.72105 -1.5647 0
M  V30 3635 C 352.252 1.63756 -0.433612 0
M  V30 3636 O 353.458 1.69342 -0.610194 0
M  V30 3637 H 349.833 0.568889 -0.491802 0
M  V30 3638 H 351.804 1.6051 -2.51553 0
M  V30 3639 C 350.553 3.10493 -1.56491 0
M  V30 3640 H 349.876 3.17583 -2.4286 0
M  V30 3641 H 351.316 3.8939 -1.67785 0
M  V30 3642 C 349.775 3.3563 -0.292231 0
M  V30 3643 O 350.305 3.96875 0.620739 0
M  V30 3644 N 348.511 2.90026 -0.182523 0
M  V30 3645 H 348.058 2.40367 -0.926356 0
M  V30 3646 H 348.016 3.07218 0.668152 0
M  V30 3647 N 351.788 1.33704 0.83433 0
M  V30 3648 C 352.736 1.24323 1.96587 0
M  V30 3649 C 353.73 0.143659 1.6879 0
M  V30 3650 O 354.936 0.30791 1.77347 0
M  V30 3651 H 351.311 0.385925 0.645419 0
M  V30 3652 H 353.282 2.19978 2.01624 0
M  V30 3653 C 352.031 1.00394 3.32891 0
M  V30 3654 H 351.354 1.84231 3.54822 0
M  V30 3655 H 352.794 0.97862 4.12552 0
M  V30 3656 C 351.253 -0.293047 3.35623 0
M  V30 3657 O 351.783 -1.29823 3.80143 0
M  V30 3658 N 349.989 -0.322174 2.88809 0
M  V30 3659 H 349.536 0.496379 2.52772 0
M  V30 3660 H 349.494 -1.18977 2.91019 0
M  V30 3661 N 353.266 -1.05314 1.17247 0
M  V30 3662 C 354.491 -1.82509 0.985148 0
M  V30 3663 C 354.916 -1.82343 -0.461788 0
M  V30 3664 O 354.274 -1.23151 -1.33055 0
M  V30 3665 C 354.322 -3.26566 1.52929 0
M  V30 3666 O 353.426 -4.05666 0.742225 0
M  V30 3667 H 352.767 -0.564347 0.349869 0
M  V30 3668 H 355.297 -1.32718 1.55715 0
M  V30 3669 H 355.307 -3.77369 1.55103 0
M  V30 3670 H 353.982 -3.26001 2.58256 0
M  V30 3671 H 352.559 -3.64397 0.791794 0
M  V30 3672 N 354.744 -0.972509 -1.24016 0
M  V30 3673 C 355.969 -0.654417 -1.96805 0
M  V30 3674 C 356.394 0.770398 -1.716 0
M  V30 3675 O 355.752 1.52361 -0.982647 0
M  V30 3676 C 355.8 -0.941031 -3.48105 0
M  V30 3677 O 354.904 -0.0289472 -4.1239 0
M  V30 3678 H 354.245 -0.24692 -0.616382 0
M  V30 3679 H 356.775 -1.30396 -1.57664 0
M  V30 3680 H 356.785 -0.87452 -3.98517 0
M  V30 3681 H 355.46 -1.97939 -3.65777 0
M  V30 3682 H 354.037 -0.149192 -3.72601 0
M  V30 3683 N 356.222 1.38976 -0.743202 0
M  V30 3684 C 357.152 2.33171 -0.123873 0
M  V30 3685 C 358.133 1.54336 0.71516 0
M  V30 3686 O 359.318 1.82696 0.658467 0
M  V30 3687 C 356.448 3.38474 0.777978 0
M  V30 3688 C 355.402 4.27979 0.0424758 0
M  V30 3689 C 354.728 5.2405 1.06189 0
M  V30 3690 C 356.028 5.10155 -1.1198 0
M  V30 3691 H 357.722 2.85213 -0.910709 0
M  V30 3692 H 355.268 1.37133 -0.439388 0
M  V30 3693 H 357.221 4.03328 1.22084 0
M  V30 3694 H 355.945 2.84891 1.59702 0
M  V30 3695 H 354.604 3.64616 -0.380853 0
M  V30 3696 H 354.252 4.66758 1.87472 0
M  V30 3697 H 353.952 5.84785 0.574485 0
M  V30 3698 H 355.476 5.9178 1.50428 0
M  V30 3699 H 356.89 5.68307 -0.75499 0
M  V30 3700 H 355.287 5.80073 -1.53738 0
M  V30 3701 H 356.357 4.44504 -1.93764 0
M  V30 3702 N 357.7 0.491464 1.49741 0
M  V30 3703 C 358.949 -0.0582189 2.01616 0
M  V30 3704 C 359.262 -1.38927 1.3769 0
M  V30 3705 O 360.468 -2.02509 1.80838 0
M  V30 3706 C 358.924 -0.154235 3.59569 0
M  V30 3707 C 358.532 1.1696 4.32463 0
M  V30 3708 C 360.276 -0.65479 4.1942 0
M  V30 3709 C 358.183 1.03627 5.8225 0
M  V30 3710 H 357.113 -0.0255317 0.753568 0
M  V30 3711 H 359.764 0.629445 1.72367 0
M  V30 3712 H 358.146 -0.906138 3.85493 0
M  V30 3713 H 359.32 1.93405 4.18248 0
M  V30 3714 H 357.635 1.60285 3.84315 0
M  V30 3715 H 360.232 -0.771903 5.29099 0
M  V30 3716 H 360.575 -1.65127 3.8215 0
M  V30 3717 H 361.108 0.040304 3.9778 0
M  V30 3718 H 357.847 2.00672 6.24028 0
M  V30 3719 H 357.367 0.312546 5.98985 0
M  V30 3720 H 359.046 0.711114 6.4308 0
M  V30 3721 N 359.178 -1.55987 0.224894 0
M  V30 3722 C 360.426 -1.97998 -0.405099 0
M  V30 3723 C 360.747 -1.11387 -1.60056 0
M  V30 3724 O 360.017 -0.191645 -1.9496 0
M  V30 3725 H 358.597 -0.731235 -0.152658 0
M  V30 3726 H 361.259 -1.92279 0.318567 0
M  V30 3727 H 360.355 -3.03463 -0.729167 0
M  V30 3728 N 360.656 0.0484629 -1.57525 0
M  V30 3729 C 361.586 1.0549 -2.08313 0
M  V30 3730 C 362.567 1.38929 -0.981463 0
M  V30 3731 O 363.752 1.48151 -1.25558 0
M  V30 3732 C 360.882 2.36162 -2.54646 0
M  V30 3733 C 359.836 2.17016 -3.68901 0
M  V30 3734 C 359.162 3.53278 -4.01371 0
M  V30 3735 C 360.462 1.57219 -4.98076 0
M  V30 3736 H 362.156 0.632195 -2.92649 0
M  V30 3737 H 359.702 0.302654 -1.40784 0
M  V30 3738 H 361.655 3.06882 -2.88793 0
M  V30 3739 H 360.379 2.80456 -1.67368 0
M  V30 3740 H 359.038 1.48733 -3.35073 0
M  V30 3741 H 358.686 3.95185 -3.11188 0
M  V30 3742 H 358.386 3.41299 -4.78318 0
M  V30 3743 H 359.91 4.25391 -4.38035 0
M  V30 3744 H 361.324 2.17832 -5.30304 0
M  V30 3745 H 359.721 1.55871 -5.79503 0
M  V30 3746 H 360.791 0.535956 -4.81929 0
M  V30 3747 N 362.134 1.5431 0.320358 0
M  V30 3748 C 363.382 1.72327 1.05583 0
M  V30 3749 C 363.703 0.50149 1.88441 0
M  V30 3750 O 362.973 -0.48448 1.89815 0
M  V30 3751 H 361.553 0.635387 0.3928 0
M  V30 3752 H 364.215 1.91621 0.356019 0
M  V30 3753 H 363.311 2.60426 1.72003 0
M  V30 3754 N 363.613 -0.582584 1.46437 0
M  V30 3755 C 364.843 -1.36484 1.55099 0
M  V30 3756 C 365.251 -1.88233 0.191056 0
M  V30 3757 O 364.594 -1.6429 -0.821858 0
M  V30 3758 C 364.656 -2.588 2.49525 0
M  V30 3759 C 364.32 -2.28517 3.95764 0
M  V30 3760 C 365.317 -1.87346 4.84972 0
M  V30 3761 C 363.002 -2.40658 4.40896 0
M  V30 3762 C 364.996 -1.5871 6.17325 0
M  V30 3763 C 362.683 -2.11635 5.73284 0
M  V30 3764 C 363.681 -1.70725 6.61318 0
M  V30 3765 O 363.369 -1.42057 7.91249 0
M  V30 3766 H 363.101 -0.423297 0.527063 0
M  V30 3767 H 365.655 -0.715188 1.92547 0
M  V30 3768 H 363.885 -3.26571 2.07095 0
M  V30 3769 H 365.574 -3.20868 2.48593 0
M  V30 3770 H 366.34 -1.77481 4.5136 0
M  V30 3771 H 362.219 -2.71463 3.72598 0
M  V30 3772 H 365.763 -1.26704 6.85997 0
M  V30 3773 H 361.66 -2.21124 6.06444 0
M  V30 3774 H 362.428 -1.55901 8.03515 0
M  V30 3775 N 365.091 -1.34144 -0.827227 0
M  V30 3776 C 366.319 -1.29325 -1.61501 0
M  V30 3777 C 366.734 0.13354 -1.88327 0
M  V30 3778 O 366.091 1.0793 -1.47164 0
M  V30 3779 C 366.142 -2.07746 -2.95844 0
M  V30 3780 O 365.863 -3.4486 -2.70191 0
M  V30 3781 C 367.364 -2.10273 -3.90256 0
M  V30 3782 H 364.584 -0.445069 -0.50215 0
M  V30 3783 H 367.128 -1.76693 -1.02955 0
M  V30 3784 H 365.283 -1.6403 -3.5096 0
M  V30 3785 H 365.697 -3.85345 -3.55822 0
M  V30 3786 H 367.171 -2.69575 -4.81698 0
M  V30 3787 H 367.648 -1.096 -4.25305 0
M  V30 3788 H 368.254 -2.54059 -3.41078 0
M  V30 3789 N 366.569 1.04691 -1.17803 0
M  V30 3790 C 367.501 2.12571 -0.857097 0
M  V30 3791 C 368.514 1.62174 0.142647 0
M  V30 3792 O 369.703 1.78301 -0.0843387 0
M  V30 3793 C 366.803 3.37915 -0.258216 0
M  V30 3794 C 365.976 4.1757 -1.30207 0
M  V30 3795 C 365.035 5.2125 -0.720029 0
M  V30 3796 O 364.061 5.51888 -1.39314 0
M  V30 3797 N 365.263 5.78466 0.485507 0
M  V30 3798 H 368.028 2.40698 -1.78562 0
M  V30 3799 H 365.589 1.20831 -1.07757 0
M  V30 3800 H 367.581 4.04442 0.144584 0
M  V30 3801 H 366.151 3.07281 0.574199 0
M  V30 3802 H 365.371 3.46458 -1.88043 0
M  V30 3803 H 366.659 4.67586 -2.00601 0
M  V30 3804 H 366.057 5.55866 1.05022 0
M  V30 3805 H 364.614 6.4649 0.830307 0
M  V30 3806 N 368.047 0.979072 1.23499 0
M  V30 3807 C 369.275 0.665202 1.95915 0
M  V30 3808 C 369.69 -0.767571 1.72493 0
M  V30 3809 O 369.047 -1.51635 1.01554 0
M  V30 3810 C 369.098 0.944438 3.48945 0
M  V30 3811 O 368.819 2.3209 3.71572 0
M  V30 3812 C 370.32 0.646336 4.38563 0
M  V30 3813 H 367.54 0.247218 0.623798 0
M  V30 3814 H 370.084 1.31009 1.57025 0
M  V30 3815 H 368.239 0.345575 3.85856 0
M  V30 3816 H 368.653 2.40957 4.65876 0
M  V30 3817 H 370.127 0.892091 5.44744 0
M  V30 3818 H 370.604 -0.419575 4.37191 0
M  V30 3819 H 371.21 1.22562 4.07258 0
M  V30 3820 N 369.525 -1.3858 0.750561 0
M  V30 3821 C 370.455 -2.33102 0.136237 0
M  V30 3822 C 371.436 -1.54713 -0.706965 0
M  V30 3823 O 372.621 -1.83043 -0.648769 0
M  V30 3824 C 369.751 -3.38882 -0.760017 0
M  V30 3825 C 368.705 -4.27995 -0.0197785 0
M  V30 3826 C 368.031 -5.24605 -1.03408 0
M  V30 3827 C 369.331 -5.09554 1.14684 0
M  V30 3828 H 371.025 -2.84726 0.925822 0
M  V30 3829 H 368.571 -1.36898 0.446654 0
M  V30 3830 H 370.524 -4.0397 -1.19943 0
M  V30 3831 H 369.248 -2.85734 -1.58189 0
M  V30 3832 H 367.907 -3.64409 0.400184 0
M  V30 3833 H 367.555 -4.67746 -1.84994 0
M  V30 3834 H 367.255 -5.85081 -0.543464 0
M  V30 3835 H 368.779 -5.9257 -1.47288 0
M  V30 3836 H 370.193 -5.67899 0.785118 0
M  V30 3837 H 368.59 -5.7925 1.56812 0
M  V30 3838 H 369.66 -4.4347 1.96118 0
M  V30 3839 N 371.003 -0.499398 -1.49478 0
M  V30 3840 C 371.95 0.279881 -2.29097 0
M  V30 3841 C 372.92 0.961805 -1.3542 0
M  V30 3842 O 374.105 0.968777 -1.64376 0
M  V30 3843 C 371.245 1.33932 -3.18051 0
M  V30 3844 C 370.358 0.669333 -4.26783 0
M  V30 3845 C 369.493 1.70907 -5.02955 0
M  V30 3846 C 368.532 1.02087 -6.03527 0
M  V30 3847 N 367.669 2.00474 -6.7287 0
M  V30 3848 H 372.509 -0.405317 -2.95231 0
M  V30 3849 H 370.046 -0.211726 -1.45568 0
M  V30 3850 H 372.004 1.96553 -3.67998 0
M  V30 3851 H 370.634 1.9933 -2.53904 0
M  V30 3852 H 369.686 -0.0701234 -3.80335 0
M  V30 3853 H 370.998 0.127503 -4.98637 0
M  V30 3854 H 370.152 2.41037 -5.56764 0
M  V30 3855 H 368.891 2.28476 -4.30871 0
M  V30 3856 H 367.896 0.305338 -5.48951 0
M  V30 3857 H 369.121 0.451708 -6.77596 0
M  V30 3858 H 367.067 2.57007 -6.03559 0
M  V30 3859 H 366.984 1.51353 -7.40694 0
M  V30 3860 H 368.252 2.69897 -7.31284 0
M  V30 3861 N 372.481 1.55866 -0.233164 0
M  V30 3862 C 373.892 1.847 0.272554 0
M  V30 3863 C 374.243 1.15477 1.58617 0
M  V30 3864 O 373.368 0.42841 2.12117 0
M  V30 3865 C 373.963 3.35071 0.501299 0
M  V30 3866 C 372.522 3.6418 0.951304 0
M  V30 3867 C 371.669 2.77292 0.0208209 0
M  V30 3868 H 374.62 1.52005 -0.456074 0
M  V30 3869 H 374.641 3.55906 1.34577 0
M  V30 3870 H 374.153 3.85424 -0.454936 0
M  V30 3871 H 372.254 3.19293 1.92049 0
M  V30 3872 H 372.367 4.72071 0.817675 0
M  V30 3873 H 370.731 2.49131 0.529723 0
M  V30 3874 H 371.514 3.30448 -0.93054 0
M  V30 3875 N 373.959 -0.0401083 1.57549 0
M  V30 3876 C 375.207 -0.731677 1.8839 0
M  V30 3877 C 375.528 -1.76481 0.829425 0
M  V30 3878 O 374.798 -1.95411 -0.1383 0
M  V30 3879 H 373.378 -0.273225 0.695239 0
M  V30 3880 H 376.04 -0.00867725 1.94898 0
M  V30 3881 H 375.136 -1.22816 2.86919 0
M  V30 3882 N 375.437 -1.54477 -0.31217 0
M  V30 3883 C 376.686 -1.72438 -1.04633 0
M  V30 3884 C 376.999 -0.511163 -1.88803 0
M  V30 3885 O 378.205 -0.572341 -2.65399 0
M  V30 3886 C 376.661 -3.05043 -1.9099 0
M  V30 3887 C 376.269 -4.33806 -1.11877 0
M  V30 3888 C 378.013 -3.32364 -2.64073 0
M  V30 3889 C 375.92 -5.57467 -1.97445 0
M  V30 3890 H 374.85 -0.642647 -0.394361 0
M  V30 3891 H 377.501 -1.80966 -0.303929 0
M  V30 3892 H 375.883 -2.90451 -2.69173 0
M  V30 3893 H 377.057 -4.59199 -0.383843 0
M  V30 3894 H 375.372 -4.13336 -0.504252 0
M  V30 3895 H 377.969 -4.21951 -3.28423 0
M  V30 3896 H 378.312 -2.50745 -3.32314 0
M  V30 3897 H 378.845 -3.47875 -1.92944 0
M  V30 3898 H 375.584 -6.41722 -1.33692 0
M  V30 3899 H 375.104 -5.36277 -2.6864 0
M  V30 3900 H 376.783 -5.94303 -2.5576 0
M  V30 3901 N 376.915 0.57481 -1.46744 0
M  V30 3902 C 377.862 1.68329 -1.57905 0
M  V30 3903 C 378.832 1.60625 -0.422927 0
M  V30 3904 O 380.017 1.79721 -0.640711 0
M  V30 3905 C 377.157 3.06665 -1.58274 0
M  V30 3906 C 376.27 3.24935 -2.84678 0
M  V30 3907 C 375.405 4.53566 -2.76499 0
M  V30 3908 C 374.444 4.65207 -3.97806 0
M  V30 3909 N 373.581 5.85172 -3.87967 0
M  V30 3910 H 378.421 1.58127 -2.52587 0
M  V30 3911 H 375.958 0.770552 -1.25303 0
M  V30 3912 H 377.916 3.86745 -1.56473 0
M  V30 3913 H 376.546 3.15745 -0.671194 0
M  V30 3914 H 375.598 2.38405 -2.96424 0
M  V30 3915 H 376.91 3.29403 -3.7456 0
M  V30 3916 H 376.064 5.41885 -2.72848 0
M  V30 3917 H 374.803 4.51548 -1.8427 0
M  V30 3918 H 373.808 3.75304 -4.0178 0
M  V30 3919 H 375.033 4.68997 -4.9114 0
M  V30 3920 H 372.979 5.84137 -2.98529 0
M  V30 3921 H 372.896 5.90943 -4.71511 0
M  V30 3922 H 374.164 6.759 -3.88303 0
M  V30 3923 N 378.394 1.34581 0.820102 0
M  V30 3924 C 379.324 1.29038 1.94606 0
M  V30 3925 C 380.305 0.1673 1.69275 0
M  V30 3926 O 381.49 0.360112 1.90832 0
M  V30 3927 C 378.62 1.04793 3.31113 0
M  V30 3928 C 377.574 2.13597 3.70891 0
M  V30 3929 C 376.9 1.74537 5.05412 0
M  V30 3930 C 378.2 3.55451 3.8269 0
M  V30 3931 H 379.894 2.23248 1.99501 0
M  V30 3932 H 377.44 1.0747 0.958449 0
M  V30 3933 H 379.393 0.995592 4.0947 0
M  V30 3934 H 378.117 0.0702565 3.26524 0
M  V30 3935 H 376.776 2.17905 2.9481 0
M  V30 3936 H 376.424 0.754226 4.97313 0
M  V30 3937 H 376.124 2.47361 5.32997 0
M  V30 3938 H 377.648 1.70803 5.86224 0
M  V30 3939 H 379.062 3.5354 4.51312 0
M  V30 3940 H 377.459 4.26922 4.21732 0
M  V30 3941 H 378.529 3.92587 2.84611 0
M  V30 3942 N 379.872 -1.04064 1.18357 0
M  V30 3943 C 381.1 -1.80916 1.00384 0
M  V30 3944 C 381.515 -1.83414 -0.447738 0
M  V30 3945 O 380.872 -1.26962 -1.31099 0
M  V30 3946 C 380.923 -3.26516 1.55144 0
M  V30 3947 O 380.644 -3.2424 2.94618 0
M  V30 3948 C 382.145 -4.20013 1.41789 0
M  V30 3949 H 379.365 -0.569728 0.354474 0
M  V30 3950 H 381.909 -1.31151 1.56906 0
M  V30 3951 H 380.064 -3.73512 1.02798 0
M  V30 3952 H 380.478 -4.15452 3.20156 0
M  V30 3953 H 381.952 -5.20111 1.84901 0
M  V30 3954 H 382.429 -4.37667 0.36661 0
M  V30 3955 H 383.035 -3.78881 1.93207 0
M  V30 3956 N 381.35 -0.985608 -1.22978 0
M  V30 3957 C 382.28 -0.549649 -2.26939 0
M  V30 3958 C 383.261 0.419803 -1.64838 0
M  V30 3959 O 384.446 0.31203 -1.91677 0
M  V30 3960 C 381.576 0.143652 -3.47003 0
M  V30 3961 C 380.53 -0.743606 -4.21491 0
M  V30 3962 C 379.856 0.0822027 -5.34637 0
M  V30 3963 C 381.156 -2.03694 -4.80943 0
M  V30 3964 H 382.85 -1.41862 -2.63658 0
M  V30 3965 H 380.396 -0.683571 -1.26741 0
M  V30 3966 H 382.349 0.459985 -4.18882 0
M  V30 3967 H 381.073 1.04711 -3.09359 0
M  V30 3968 H 379.732 -1.04347 -3.51436 0
M  V30 3969 H 379.38 0.986359 -4.93234 0
M  V30 3970 H 379.08 -0.508377 -5.85397 0
M  V30 3971 H 380.604 0.392797 -6.09335 0
M  V30 3972 H 382.018 -1.78504 -5.44802 0
M  V30 3973 H 380.415 -2.57573 -5.42011 0
M  V30 3974 H 381.485 -2.72042 -4.01399 0
M  V30 3975 N 382.828 1.3818 -0.7579 0
M  V30 3976 C 384.053 2.04827 -0.325679 0
M  V30 3977 C 384.478 1.56788 1.03919 0
M  V30 3978 O 383.836 0.721811 1.66312 0
M  V30 3979 C 383.884 3.58774 -0.362447 0
M  V30 3980 O 382.988 4.07372 0.642033 0
M  V30 3981 H 382.329 0.64833 -0.143402 0
M  V30 3982 H 384.859 1.7677 -1.03023 0
M  V30 3983 H 384.869 4.07434 -0.214844 0
M  V30 3984 H 383.544 3.93096 -1.35824 0
M  V30 3985 H 382.121 3.70068 0.458688 0
M  V30 3986 N 384.306 0.507319 1.49211 0
M  V30 3987 C 385.269 -0.256763 2.27757 0
M  V30 3988 C 386.269 -0.888287 1.34038 0
M  V30 3989 O 387.459 -0.751841 1.5714 0
M  V30 3990 C 384.591 -1.36905 3.12202 0
M  V30 3991 H 385.784 0.432557 2.96764 0
M  V30 3992 H 383.337 0.262488 1.5408 0
M  V30 3993 H 384.072 -2.09233 2.47775 0
M  V30 3994 H 383.857 -0.921599 3.81115 0
M  V30 3995 H 385.347 -1.9071 3.7151 0
M  V30 3996 N 385.784 -1.5574 0.241426 0
M  V30 3997 C 386.714 -2.24133 -0.654722 0
M  V30 3998 C 387.695 -1.21974 -1.1856 0
M  V30 3999 O 388.88 -1.50612 -1.22595 0
M  V30 4000 C 386.01 -2.93659 -1.85423 0
M  V30 4001 C 384.964 -4.0246 -1.45636 0
M  V30 4002 C 384.29 -4.59383 -2.73626 0
M  V30 4003 C 385.59 -5.18468 -0.631506 0
M  V30 4004 H 387.284 -2.99281 -0.0844353 0
M  V30 4005 H 384.83 -1.43947 -0.0391707 0
M  V30 4006 H 386.783 -3.40203 -2.48676 0
M  V30 4007 H 385.507 -2.15991 -2.44981 0
M  V30 4008 H 384.166 -3.56676 -0.847202 0
M  V30 4009 H 383.814 -3.78422 -3.3137 0
M  V30 4010 H 383.514 -5.32826 -2.4773 0
M  V30 4011 H 385.038 -5.08658 -3.37786 0
M  V30 4012 H 386.452 -5.61272 -1.1682 0
M  V30 4013 H 384.849 -5.98266 -0.468831 0
M  V30 4014 H 385.919 -4.8358 0.357506 0
M  V30 4015 N 387.262 0.0317525 -1.57568 0
M  V30 4016 C 388.192 1.03274 -2.0942 0
M  V30 4017 C 389.173 1.3788 -0.996143 0
M  V30 4018 O 390.358 1.46811 -1.27122 0
M  V30 4019 C 387.488 2.33448 -2.57137 0
M  V30 4020 C 386.442 2.13091 -3.71182 0
M  V30 4021 C 385.768 3.49001 -4.05095 0
M  V30 4022 C 387.068 1.51928 -4.99715 0
M  V30 4023 H 388.762 0.60112 -2.93303 0
M  V30 4024 H 386.308 0.287705 -1.41097 0
M  V30 4025 H 388.261 3.03802 -2.92032 0
M  V30 4026 H 386.985 2.78665 -1.70333 0
M  V30 4027 H 385.644 1.45171 -3.36632 0
M  V30 4028 H 385.292 3.91862 -3.15362 0
M  V30 4029 H 384.992 3.36207 -4.81911 0
M  V30 4030 H 386.516 4.20721 -4.42522 0
M  V30 4031 H 387.93 2.12196 -5.32584 0
M  V30 4032 H 386.327 1.49716 -5.81124 0
M  V30 4033 H 387.397 0.484811 -4.8247 0
M  V30 4034 N 388.74 1.54641 0.303973 0
M  V30 4035 C 390.017 1.64455 1.05896 0
M  V30 4036 C 390.397 0.490923 2.05312 0
M  V30 4037 O 389.745 -0.512685 2.22674 0
M  V30 4038 C 389.955 3.02331 1.74347 0
M  V30 4039 C 391.303 3.59045 2.26653 0
M  V30 4040 O 392.327 3.04764 1.84384 0
M  V30 4041 O 391.186 4.54081 3.04093 0
M  V30 4042 H 388.28 0.666729 0.489287 0
M  V30 4043 H 390.826 1.66986 0.302298 0
M  V30 4044 H 389.598 3.77734 1.02142 0
M  V30 4045 H 389.221 3.03565 2.56777 0
M  V30 4046 N 390.218 -0.567019 1.47046 0
M  V30 4047 C 391.466 -1.322 1.52864 0
M  V30 4048 C 391.787 -1.94088 0.188388 0
M  V30 4049 O 391.057 -1.7941 -0.786693 0
M  V30 4050 H 389.637 -0.490894 0.563056 0
M  V30 4051 H 392.299 -0.662879 1.83281 0
M  V30 4052 H 391.395 -2.12062 2.2899 0
M  V30 4053 N 391.696 -1.35014 -0.812953 0
M  V30 4054 C 392.643 -1.27412 -1.92444 0
M  V30 4055 C 393.613 -0.14733 -1.65445 0
M  V30 4056 O 394.798 -0.329974 -1.87925 0
M  V30 4057 C 391.938 -1.04558 -3.28879 0
M  V30 4058 C 391.051 -2.26101 -3.68106 0
M  V30 4059 C 390.186 -1.96449 -4.9354 0
M  V30 4060 C 389.225 -3.14081 -5.25376 0
M  V30 4061 N 388.362 -2.84246 -6.41988 0
M  V30 4062 H 393.202 -2.22463 -1.98278 0
M  V30 4063 H 390.739 -1.10593 -0.969933 0
M  V30 4064 H 392.697 -0.893413 -4.07522 0
M  V30 4065 H 391.327 -0.131719 -3.22531 0
M  V30 4066 H 390.379 -2.52204 -2.84775 0
M  V30 4067 H 391.691 -3.13959 -3.87597 0
M  V30 4068 H 390.845 -1.78026 -5.79993 0
M  V30 4069 H 389.584 -1.05867 -4.76071 0
M  V30 4070 H 388.589 -3.33089 -4.37415 0
M  V30 4071 H 389.814 -4.05455 -5.44778 0
M  V30 4072 H 387.76 -1.96252 -6.25956 0
M  V30 4073 H 387.677 -3.65637 -6.61699 0
M  V30 4074 H 388.945 -2.6935 -7.31485 0
M  V30 4075 N 393.175 1.03435 -1.18907 0
M  V30 4076 C 394.123 2.13703 -0.918353 0
M  V30 4077 C 395.117 1.68947 0.123767 0
M  V30 4078 O 396.323 1.79983 -0.0249701 0
M  V30 4079 H 392.698 0.698112 -0.279542 0
M  V30 4080 H 394.669 2.33731 -1.85506 0
M  V30 4081 C 393.418 3.44542 -0.467532 0
M  V30 4082 H 392.741 3.79394 -1.26095 0
M  V30 4083 H 394.181 4.22812 -0.317164 0
M  V30 4084 C 392.64 3.26829 0.817588 0
M  V30 4085 O 393.17 3.54975 1.88031 0
M  V30 4086 N 391.376 2.80139 0.772677 0
M  V30 4087 H 390.923 2.57434 -0.0923883 0
M  V30 4088 H 390.881 2.68668 1.63294 0
M  V30 4089 N 394.653 0.992116 1.22453 0
M  V30 4090 C 395.899 0.668523 1.91464 0
M  V30 4091 C 396.232 -0.797313 1.77078 0
M  V30 4092 O 395.507 -1.5765 1.13916 0
M  V30 4093 C 395.79 1.07424 3.43703 0
M  V30 4094 C 395.643 2.59857 3.67143 0
M  V30 4095 C 396.962 0.626891 4.35612 0
M  V30 4096 H 394.081 0.244341 0.695318 0
M  V30 4097 H 396.723 1.2355 1.44345 0
M  V30 4098 H 394.873 0.591816 3.83966 0
M  V30 4099 H 396.545 3.15764 3.3629 0
M  V30 4100 H 394.788 3.01961 3.11451 0
M  V30 4101 H 395.459 2.83296 4.73759 0
M  V30 4102 H 397.935 1.04125 4.02861 0
M  V30 4103 H 396.811 0.939076 5.40807 0
M  V30 4104 H 397.072 -0.472457 4.39568 0
M  V30 4105 N 396.131 -1.37776 0.765217 0
M  V30 4106 C 397.079 -2.32209 0.134798 0
M  V30 4107 C 398.073 -1.54607 -0.692315 0
M  V30 4108 O 399.279 -1.70052 -0.590109 0
M  V30 4109 H 395.654 -0.751591 0.0248005 0
M  V30 4110 H 397.625 -2.8297 0.947119 0
M  V30 4111 C 396.374 -3.39841 -0.735063 0
M  V30 4112 H 395.697 -3.99654 -0.107991 0
M  V30 4113 H 397.137 -4.08296 -1.14326 0
M  V30 4114 C 395.596 -2.79378 -1.88281 0
M  V30 4115 O 396.126 -2.69608 -2.97783 0
M  V30 4116 N 394.332 -2.37016 -1.68142 0
M  V30 4117 H 393.879 -2.45162 -0.790772 0
M  V30 4118 H 393.837 -1.96905 -2.45104 0
M  V30 4119 N 397.609 -0.515225 -1.4894 0
M  V30 4120 C 398.572 0.244681 -2.2789 0
M  V30 4121 C 399.572 0.881166 -1.34507 0
M  V30 4122 O 400.762 0.743497 -1.57537 0
M  V30 4123 C 397.894 1.35247 -3.12923 0
M  V30 4124 H 399.087 -0.448289 -2.96531 0
M  V30 4125 H 396.64 -0.270656 -1.53939 0
M  V30 4126 H 397.375 2.07916 -2.48881 0
M  V30 4127 H 397.16 0.901374 -3.81599 0
M  V30 4128 H 398.65 1.88737 -3.72516 0
M  V30 4129 N 399.087 1.5561 -0.249682 0
M  V30 4130 C 400.335 1.98618 0.373548 0
M  V30 4131 C 400.656 1.13919 1.58264 0
M  V30 4132 O 399.926 0.222637 1.94631 0
M  V30 4133 H 398.506 0.733571 0.141006 0
M  V30 4134 H 401.168 1.91748 -0.349117 0
M  V30 4135 H 400.264 3.04584 0.680796 0
M  V30 4136 N 400.565 -0.0233959 1.57583 0
M  V30 4137 C 401.813 -0.711654 1.89156 0
M  V30 4138 C 402.134 -1.75591 0.848096 0
M  V30 4139 O 401.404 -1.95547 -0.117566 0
M  V30 4140 H 399.984 -0.265835 0.698098 0
M  V30 4141 H 402.646 0.0119948 1.94896 0
M  V30 4142 H 401.742 -1.19766 2.88206 0
M  V30 4143 N 402.043 -1.548 -0.295768 0
M  V30 4144 C 402.993 -1.82497 -1.3667 0
M  V30 4145 C 403.977 -0.682434 -1.45711 0
M  V30 4146 O 405.169 -0.943207 -1.49775 0
M  V30 4147 C 402.298 -2.08036 -2.73086 0
M  V30 4148 C 401.384 -3.28488 -2.68247 0
M  V30 4149 N 401.775 -4.48924 -2.33025 0
M  V30 4150 C 400.073 -3.3062 -2.99343 0
M  V30 4151 C 400.774 -5.30956 -2.37613 0
M  V30 4152 N 399.75 -4.68805 -2.75178 0
M  V30 4153 H 403.552 -2.73175 -1.0841 0
M  V30 4154 H 401.066 -1.5437 -0.504361 0
M  V30 4155 H 403.063 -2.26027 -3.5031 0
M  V30 4156 H 401.723 -1.18629 -3.02254 0
M  V30 4157 H 402.734 -4.75432 -2.05389 0
M  V30 4158 H 399.411 -2.51336 -3.33371 0
M  V30 4159 H 400.801 -6.37199 -2.13135 0
M  V30 4160 N 403.521 0.559213 -1.47345 0
M  V30 4161 C 404.468 1.66645 -1.59682 0
M  V30 4162 C 405.438 1.60168 -0.43994 0
M  V30 4163 O 406.623 1.79031 -0.659736 0
M  V30 4164 C 403.763 3.04969 -1.61518 0
M  V30 4165 C 402.876 3.21897 -2.88108 0
M  V30 4166 C 402.011 4.50608 -2.81294 0
M  V30 4167 C 401.05 4.60961 -4.02717 0
M  V30 4168 N 400.187 5.81024 -3.94151 0
M  V30 4169 H 405.027 1.55439 -2.54249 0
M  V30 4170 H 402.564 0.757219 -1.26113 0
M  V30 4171 H 404.522 3.85064 -1.60566 0
M  V30 4172 H 403.152 3.15015 -0.704645 0
M  V30 4173 H 402.204 2.35248 -2.98936 0
M  V30 4174 H 403.516 3.25412 -3.78032 0
M  V30 4175 H 402.67 5.3896 -2.7858 0
M  V30 4176 H 401.409 4.49568 -1.89049 0
M  V30 4177 H 400.414 3.71021 -4.05738 0
M  V30 4178 H 401.639 4.63761 -4.96087 0
M  V30 4179 H 399.585 5.80938 -3.04708 0
M  V30 4180 H 399.502 5.85909 -4.77752 0
M  V30 4181 H 400.77 6.71744 -3.9545 0
M  V30 4182 N 404.999 1.35443 0.805782 0
M  V30 4183 C 405.929 1.31095 1.93226 0
M  V30 4184 C 406.91 0.185244 1.69088 0
M  V30 4185 O 408.095 0.380332 1.90439 0
M  V30 4186 C 405.225 1.08299 3.29983 0
M  V30 4187 C 404.179 2.17519 3.68605 0
M  V30 4188 C 403.505 1.79887 5.03532 0
M  V30 4189 C 404.805 3.5949 3.78898 0
M  V30 4190 H 406.499 2.25352 1.97122 0
M  V30 4191 H 404.045 1.0848 0.946996 0
M  V30 4192 H 405.998 1.03897 4.08391 0
M  V30 4193 H 404.722 0.104885 3.26432 0
M  V30 4194 H 403.381 2.2102 2.92482 0
M  V30 4195 H 403.029 0.80693 4.96485 0
M  V30 4196 H 402.729 2.53001 5.30344 0
M  V30 4197 H 404.253 1.77011 5.84379 0
M  V30 4198 H 405.667 3.58307 4.47536 0
M  V30 4199 H 404.064 4.31371 4.1718 0
M  V30 4200 H 405.134 3.95584 2.80431 0
M  V30 4201 N 406.477 -1.02803 1.19454 0
M  V30 4202 C 407.725 -1.75869 0.995722 0
M  V30 4203 C 408.046 -1.89138 -0.474543 0
M  V30 4204 O 407.316 -1.42558 -1.34366 0
M  V30 4205 H 405.896 -0.651511 0.365435 0
M  V30 4206 H 408.558 -1.24004 1.50363 0
M  V30 4207 H 407.654 -2.76661 1.44447 0
M  V30 4208 N 407.956 -0.998596 -1.21925 0
M  V30 4209 C 408.886 -0.573688 -2.26343 0
M  V30 4210 C 409.867 0.402296 -1.65274 0
M  V30 4211 O 411.052 0.291683 -1.91997 0
M  V30 4212 C 408.182 0.106839 -3.47136 0
M  V30 4213 C 407.136 -0.788269 -4.20678 0
M  V30 4214 C 406.462 0.0254927 -5.34694 0
M  V30 4215 C 407.762 -2.08784 -4.78755 0
M  V30 4216 H 409.456 -1.44651 -2.62138 0
M  V30 4217 H 407.002 -0.696975 -1.26009 0
M  V30 4218 H 408.955 0.415531 -4.19346 0
M  V30 4219 H 407.679 1.01424 -3.10452 0
M  V30 4220 H 406.338 -1.08069 -3.50309 0
M  V30 4221 H 405.986 0.933989 -4.94253 0
M  V30 4222 H 405.686 -0.570437 -5.84825 0
M  V30 4223 H 407.21 0.328147 -6.09718 0
M  V30 4224 H 408.624 -1.84272 -5.42878 0
M  V30 4225 H 407.021 -2.63307 -5.39249 0
M  V30 4226 H 408.091 -2.76284 -3.98491 0
M  V30 4227 N 409.434 1.37368 -0.772513 0
M  V30 4228 C 410.682 1.99279 -0.336516 0
M  V30 4229 C 411.003 1.6163 1.09091 0
M  V30 4230 O 410.273 0.882109 1.74916 0
M  V30 4231 H 408.853 0.737063 -0.121435 0
M  V30 4232 H 411.515 1.67836 -0.990809 0
M  V30 4233 H 410.611 3.09332 -0.414763 0
M  V30 4234 N 410.912 0.523116 1.48665 0
M  V30 4235 C 411.842 -0.23231 2.32342 0
M  V30 4236 C 412.823 -0.941637 1.41659 0
M  V30 4237 O 414.008 -0.928751 1.70552 0
M  V30 4238 C 411.138 -1.28387 3.22698 0
M  V30 4239 C 410.092 -0.693098 4.22351 0
M  V30 4240 C 409.418 -1.8468 5.01794 0
M  V30 4241 C 410.718 0.33063 5.21252 0
M  V30 4242 H 412.412 0.466192 2.95748 0
M  V30 4243 H 409.958 0.225643 1.42221 0
M  V30 4244 H 411.911 -1.82024 3.80059 0
M  V30 4245 H 410.635 -2.01186 2.57278 0
M  V30 4246 H 409.294 -0.178299 3.66166 0
M  V30 4247 H 408.942 -2.56301 4.32804 0
M  V30 4248 H 408.642 -1.45747 5.69238 0
M  V30 4249 H 410.166 -2.38709 5.62006 0
M  V30 4250 H 411.58 -0.118407 5.73178 0
M  V30 4251 H 409.977 0.636974 5.9671 0
M  V30 4252 H 411.047 1.23883 4.68808 0
M  V30 4253 N 412.39 -1.55475 0.257931 0
M  V30 4254 C 413.3 -2.2549 -0.647425 0
M  V30 4255 C 414.316 -1.2748 -1.18427 0
M  V30 4256 O 415.492 -1.6038 -1.2182 0
M  V30 4257 C 412.557 -2.94916 -1.82278 0
M  V30 4258 C 411.618 -4.08363 -1.32432 0
M  V30 4259 C 410.851 -4.74469 -2.44366 0
M  V30 4260 O 411.074 -4.39701 -3.63344 0
M  V30 4261 O 410.008 -5.62763 -2.13497 0
M  V30 4262 H 413.834 -3.03593 -0.0807707 0
M  V30 4263 H 411.419 -1.49377 0.0259962 0
M  V30 4264 H 413.301 -3.38606 -2.50846 0
M  V30 4265 H 411.976 -2.19744 -2.37685 0
M  V30 4266 H 410.883 -3.69166 -0.605605 0
M  V30 4267 H 412.216 -4.85385 -0.816211 0
M  V30 4268 N 413.868 0.0150385 -1.57593 0
M  V30 4269 C 415.115 0.703001 -1.89906 0
M  V30 4270 C 415.443 1.74604 -0.856944 0
M  V30 4271 O 414.698 1.95197 0.140287 0
M  V30 4272 C 414.997 1.39686 -3.28972 0
M  V30 4273 C 414.663 0.488457 -4.48246 0
M  V30 4274 C 413.325 0.2383 -4.8061 0
M  V30 4275 C 415.677 -0.137881 -5.21018 0
M  V30 4276 C 413.005 -0.646738 -5.83125 0
M  V30 4277 C 415.357 -1.0107 -6.24474 0
M  V30 4278 C 414.021 -1.27019 -6.55303 0
M  V30 4279 H 413.291 0.257246 -0.694914 0
M  V30 4280 H 415.938 -0.037259 -1.91464 0
M  V30 4281 H 414.243 2.21079 -3.23468 0
M  V30 4282 H 415.94 1.93495 -3.51227 0
M  V30 4283 H 412.53 0.693593 -4.22951 0
M  V30 4284 H 416.714 0.0423953 -4.96282 0
M  V30 4285 H 411.97 -0.855937 -6.05379 0
M  V30 4286 H 416.144 -1.50247 -6.79999 0
M  V30 4287 H 413.771 -1.95769 -7.3456 0
M  V30 4288 N 415.346 1.54954 0.287554 0
M  V30 4289 C 416.278 1.83224 1.37701 0
M  V30 4290 C 417.291 0.715898 1.46215 0
M  V30 4291 O 418.48 0.993565 1.48292 0
M  V30 4292 C 415.58 1.96723 2.75959 0
M  V30 4293 C 414.753 3.27253 2.90215 0
M  V30 4294 C 413.812 3.30998 4.09056 0
M  V30 4295 O 412.838 4.04457 4.00503 0
M  V30 4296 N 414.04 2.57353 5.20336 0
M  V30 4297 H 416.805 2.77254 1.138 0
M  V30 4298 H 414.366 1.54694 0.477652 0
M  V30 4299 H 416.358 1.96615 3.5373 0
M  V30 4300 H 414.928 1.09626 2.92747 0
M  V30 4301 H 414.148 3.40022 1.99447 0
M  V30 4302 H 415.436 4.13365 2.96659 0
M  V30 4303 H 414.834 1.97327 5.30169 0
M  V30 4304 H 413.391 2.62984 5.96391 0
M  V30 4305 N 416.824 -0.551391 1.4764 0
M  V30 4306 C 417.787 -1.64007 1.60107 0
M  V30 4307 C 418.787 -1.53601 0.47576 0
M  V30 4308 O 419.977 -1.57655 0.740988 0
M  V30 4309 C 417.109 -3.03569 1.55108 0
M  V30 4310 H 418.302 -1.543 2.57161 0
M  V30 4311 H 415.855 -0.771776 1.35917 0
M  V30 4312 H 416.59 -3.18804 0.594519 0
M  V30 4313 H 416.375 -3.12532 2.36783 0
M  V30 4314 H 417.865 -3.82762 1.66982 0
M  V30 4315 O 418.341 -1.45728 -0.696113 0
M  V30 4316 H 419.032 -1.39109 -1.3479 0
M  V30 END ATOM
M  V30 BEGIN BOND
M  V30 END BOND
M  V30 END CTAB
M  END
$$$$
