drugbank_target|P21860 Receptor tyrosine-protein kinase erbB-3 (DB11652)
 OpenBabel12092121223D

  0  0  0     0  0            999 V3000
M  V30 BEGIN CTAB
M  V30 COUNTS 20466 20710 0 0 0
M  V30 BEGIN ATOM
M  V30 1 H -0.908 1.98254 -0.117106 0
M  V30 2 N 0 1.576 0 0
M  V30 3 C 0.933 2.03868 1.02534 0
M  V30 4 C 1.911 0.928543 1.3348 0
M  V30 5 O 3.095 1.19667 1.45644 0
M  V30 6 C 0.222 2.43627 2.35294 0
M  V30 7 C -0.732 3.65373 2.2001 0
M  V30 8 S 0.101 5.13292 1.52614 0
M  V30 9 C 1.257 5.56322 2.86805 0
M  V30 10 H 1.49 2.90518 0.631377 0
M  V30 11 H -0.977 1.52953 0.210867 0
M  V30 12 H 0.981 2.67203 3.11629 0
M  V30 13 H -0.358 1.57376 2.7183 0
M  V30 14 H -1.165 3.90944 3.18086 0
M  V30 15 H -1.563 3.418 1.51819 0
M  V30 16 H 0.729 5.58782 3.83104 0
M  V30 17 H 1.672 6.56266 2.65933 0
M  V30 18 H 2.08 4.83886 2.90714 0
M  V30 19 N 1.4781 -0.272755 1.55222 0
M  V30 20 C 2.8941 -0.619959 1.47067 0
M  V30 21 C 3.0941 -1.895 0.684978 0
M  V30 22 O 2.1501 -2.51675 0.203931 0
M  V30 23 C 3.4631 -0.746693 2.91282 0
M  V30 24 C 5.0111 -0.840731 3.01497 0
M  V30 25 C 5.4861 -0.99924 4.46967 0
M  V30 26 N 6.9771 -1.06476 4.50796 0
M  V30 27 C 7.7121 -1.20621 5.6057 0
M  V30 28 N 7.2081 -1.31483 6.80209 0
M  V30 29 N 9.0011 -1.23733 5.48312 0
M  V30 30 H 1.1521 0.564606 2.04758 0
M  V30 31 H 3.4151 0.191177 0.928523 0
M  V30 32 H 3.1211 0.119753 3.51496 0
M  V30 33 H 2.9951 -1.6269 3.40311 0
M  V30 34 H 5.3821 -1.69764 2.41379 0
M  V30 35 H 5.4631 0.0640874 2.5572 0
M  V30 36 H 5.1071 -0.146984 5.07687 0
M  V30 37 H 5.0371 -1.91871 4.90401 0
M  V30 38 H 7.5281 -0.993196 3.64615 0
M  V30 39 H 7.8411 -1.42111 7.59621 0
M  V30 40 H 6.1861 -1.28487 6.8302 0
M  V30 41 H 9.3771 -1.14877 4.53785 0
M  V30 42 H 9.5501 -1.34412 6.33906 0
M  V30 43 N 2.9562 -1.48159 -0.537278 0
M  V30 44 C 3.9192 -1.61665 -1.62472 0
M  V30 45 C 4.9192 -0.490395 -1.5314 0
M  V30 46 O 6.1092 -0.755998 -1.5694 0
M  V30 47 C 3.2412 -1.57997 -3.02076 0
M  V30 48 H 4.4342 -2.58621 -1.51839 0
M  V30 49 H 1.9872 -1.36647 -0.758771 0
M  V30 50 H 2.7222 -0.624913 -3.18222 0
M  V30 51 H 2.5072 -2.39755 -3.10258 0
M  V30 52 H 3.9972 -1.70627 -3.81151 0
M  V30 53 N 4.4343 0.785586 -1.36625 0
M  V30 54 C 5.3823 1.91978 -1.31329 0
M  V30 55 C 6.3763 1.68162 -0.204416 0
M  V30 56 O 7.5823 1.76122 -0.371645 0
M  V30 57 H 3.9573 0.631087 -0.408942 0
M  V30 58 H 5.9283 1.93562 -2.27104 0
M  V30 59 C 4.6773 3.29055 -1.12329 0
M  V30 60 H 4.0003 3.4795 -1.96903 0
M  V30 61 H 5.4403 4.08756 -1.12671 0
M  V30 62 C 3.8993 3.36461 0.171861 0
M  V30 63 O 4.4293 3.84576 1.16035 0
M  V30 64 N 2.6353 2.89782 0.217846 0
M  V30 65 H 2.1823 2.50819 -0.587183 0
M  V30 66 H 2.1403 2.95119 1.08408 0
M  V30 67 N 5.9124 1.20967 1.01018 0
M  V30 68 C 7.1894 0.93264 1.71934 0
M  V30 69 C 7.5694 -0.55692 2.03621 0
M  V30 70 O 6.9174 -1.52035 1.7058 0
M  V30 71 C 7.1274 1.81233 2.98254 0
M  V30 72 C 8.4754 2.05804 3.71389 0
M  V30 73 O 9.4994 1.78539 3.08225 0
M  V30 74 O 8.3584 2.51888 4.84989 0
M  V30 75 H 5.4524 0.349272 0.749625 0
M  V30 76 H 7.9984 1.31871 1.06808 0
M  V30 77 H 6.7704 2.82067 2.71208 0
M  V30 78 H 6.3934 1.42674 3.7112 0
M  V30 79 N 7.3905 -1.2043 1.01659 0
M  V30 80 C 8.3535 -2.21433 0.591616 0
M  V30 81 C 9.3535 -1.57203 -0.338226 0
M  V30 82 O 10.5435 -1.73737 -0.126918 0
M  V30 83 C 7.6755 -3.40628 -0.136058 0
M  V30 84 H 8.8685 -2.60545 1.48514 0
M  V30 85 H 6.4215 -1.33893 0.806379 0
M  V30 86 H 7.1565 -3.07019 -1.04449 0
M  V30 87 H 6.9415 -3.88475 0.531917 0
M  V30 88 H 8.4315 -4.15475 -0.420735 0
M  V30 89 N 8.8686 -0.792821 -1.36206 0
M  V30 90 C 9.7986 -0.207853 -2.32573 0
M  V30 91 C 10.7796 0.659055 -1.56813 0
M  V30 92 O 11.9646 0.592176 -1.84951 0
M  V30 93 C 9.0946 0.655449 -3.41059 0
M  V30 94 C 8.0486 -0.111842 -4.27854 0
M  V30 95 C 7.3746 0.872274 -5.27537 0
M  V30 96 C 8.6746 -1.30299 -5.05786 0
M  V30 97 H 10.3686 -1.01294 -2.81744 0
M  V30 98 H 7.9146 -0.48854 -1.3546 0
M  V30 99 H 9.8676 1.07464 -4.07467 0
M  V30 100 H 8.5916 1.49328 -2.90463 0
M  V30 101 H 7.2506 -0.512053 -3.63006 0
M  V30 102 H 6.8986 1.70523 -4.73214 0
M  V30 103 H 6.5986 0.363291 -5.86476 0
M  V30 104 H 8.1226 1.28996 -5.96818 0
M  V30 105 H 9.5366 -0.959379 -5.65216 0
M  V30 106 H 7.9336 -1.7455 -5.74154 0
M  V30 107 H 9.0036 -2.09663 -4.37229 0
M  V30 108 N 10.3467 1.47872 -0.545128 0
M  V30 109 C 11.2787 2.27869 0.246621 0
M  V30 110 C 12.2917 1.36282 0.890561 0
M  V30 111 O 13.4807 1.61207 0.766449 0
M  V30 112 C 10.5807 3.10159 1.36582 0
M  V30 113 C 9.7537 4.29627 0.820954 0
M  V30 114 C 8.8127 4.93607 1.82314 0
M  V30 115 O 7.8387 5.52366 1.37406 0
M  V30 116 N 9.0407 4.87211 3.15603 0
M  V30 117 H 11.8057 2.96459 -0.439539 0
M  V30 118 H 9.3667 1.57367 -0.380421 0
M  V30 119 H 11.3587 3.49829 2.03474 0
M  V30 120 H 9.9287 2.43891 1.9554 0
M  V30 121 H 9.1487 3.94192 -0.0244032 0
M  V30 122 H 10.4367 5.06928 0.436063 0
M  V30 123 H 9.8347 4.40651 3.54744 0
M  V30 124 H 8.3917 5.30937 3.78087 0
M  V30 125 N 11.8248 0.280983 1.55075 0
M  V30 126 C 13.0708 -0.33461 2.00021 0
M  V30 127 C 13.4038 -1.55063 1.16915 0
M  V30 128 O 12.6788 -1.93006 0.240646 0
M  V30 129 C 12.9618 -0.711007 3.53011 0
M  V30 130 C 12.8148 0.512766 4.46868 0
M  V30 131 C 14.1338 -1.54522 4.12081 0
M  V30 132 H 11.2528 -0.120147 0.727141 0
M  V30 133 H 13.8948 0.389097 1.85973 0
M  V30 134 H 12.0448 -1.32761 3.65112 0
M  V30 135 H 13.7168 1.15131 4.46702 0
M  V30 136 H 11.9598 1.14975 4.18286 0
M  V30 137 H 12.6308 0.205556 5.51617 0
M  V30 138 H 15.1068 -1.02442 4.03293 0
M  V30 139 H 13.9828 -1.77739 5.19327 0
M  V30 140 H 14.2438 -2.52813 3.62682 0
M  V30 141 N 13.3029 -1.57598 0.00835791 0
M  V30 142 C 14.2329 -2.1198 -0.979113 0
M  V30 143 C 15.2139 -1.03091 -1.35301 0
M  V30 144 O 16.3989 -1.30818 -1.43528 0
M  V30 145 C 13.5289 -2.62995 -2.26828 0
M  V30 146 C 12.4829 -3.76485 -2.03576 0
M  V30 147 C 11.8089 -4.13846 -3.38579 0
M  V30 148 C 13.1089 -5.0342 -1.39161 0
M  V30 149 H 14.8029 -2.94738 -0.526281 0
M  V30 150 H 12.3489 -1.41783 -0.251704 0
M  V30 151 H 14.3019 -2.99669 -2.96271 0
M  V30 152 H 13.0259 -1.7737 -2.7424 0
M  V30 153 H 11.6849 -3.40217 -1.36557 0
M  V30 154 H 11.3329 -3.25232 -3.83709 0
M  V30 155 H 11.0329 -4.90312 -3.23834 0
M  V30 156 H 12.5569 -4.53086 -4.09323 0
M  V30 157 H 13.9709 -5.37812 -1.98573 0
M  V30 158 H 12.3679 -5.84746 -1.34878 0
M  V30 159 H 13.4379 -4.83548 -0.361868 0
M  V30 160 N 14.781 0.264519 -1.55364 0
M  V30 161 C 16.029 0.993021 -1.76021 0
M  V30 162 C 16.35 1.86511 -0.569099 0
M  V30 163 O 15.62 1.91438 0.415735 0
M  V30 164 H 14.2 0.369639 -0.649135 0
M  V30 165 H 16.862 0.286707 -1.9278 0
M  V30 166 H 15.958 1.62502 -2.66457 0
M  V30 167 N 16.2591 1.48442 0.529413 0
M  V30 168 C 17.1891 1.65902 1.64313 0
M  V30 169 C 18.1701 0.507897 1.6234 0
M  V30 170 O 19.3551 0.740503 1.79528 0
M  V30 171 C 16.4851 1.69911 3.02898 0
M  V30 172 C 15.4391 2.8453 3.19729 0
M  V30 173 C 14.7651 2.73629 4.59381 0
M  V30 174 C 16.0651 4.25821 3.02447 0
M  V30 175 H 17.7591 2.5914 1.49955 0
M  V30 176 H 15.3051 1.24709 0.719982 0
M  V30 177 H 17.2581 1.80715 3.80684 0
M  V30 178 H 15.9821 0.732524 3.18279 0
M  V30 179 H 14.6411 2.73283 2.44361 0
M  V30 180 H 14.2891 1.74938 4.71599 0
M  V30 181 H 13.9891 3.50541 4.71588 0
M  V30 182 H 15.5131 2.86401 5.39265 0
M  V30 183 H 16.9271 4.37898 3.70024 0
M  V30 184 H 15.3241 5.03735 3.26146 0
M  V30 185 H 16.3941 4.42244 1.98867 0
M  V30 186 N 17.7372 -0.778329 1.37039 0
M  V30 187 C 18.6672 -1.90546 1.34962 0
M  V30 188 C 19.6482 -1.68681 0.219274 0
M  V30 189 O 20.8332 -1.89634 0.418624 0
M  V30 190 C 17.9632 -3.27734 1.14925 0
M  V30 191 C 16.9172 -3.64147 2.24902 0
M  V30 192 C 16.2432 -4.99806 1.89996 0
M  V30 193 C 17.5432 -3.71579 3.67051 0
M  V30 194 H 19.2372 -1.92541 2.29277 0
M  V30 195 H 16.7832 -0.924948 1.10366 0
M  V30 196 H 18.7362 -4.06215 1.12104 0
M  V30 197 H 17.4602 -3.26154 0.170631 0
M  V30 198 H 16.1192 -2.8797 2.26868 0
M  V30 199 H 15.7672 -4.94759 0.906796 0
M  V30 200 H 15.4672 -5.25139 2.63634 0
M  V30 201 H 16.9912 -5.80694 1.88749 0
M  V30 202 H 18.4052 -4.40227 3.67251 0
M  V30 203 H 16.8022 -4.08405 4.39688 0
M  V30 204 H 17.8722 -2.72404 4.01154 0
M  V30 205 N 19.2153 -1.21501 -1.00376 0
M  V30 206 C 20.4623 -1.03299 -1.74171 0
M  V30 207 C 20.7903 0.433326 -1.89612 0
M  V30 208 O 20.0453 1.33779 -1.42834 0
M  V30 209 C 20.3443 -1.67673 -3.15627 0
M  V30 210 C 20.0103 -3.17533 -3.2013 0
M  V30 211 C 18.6723 -3.58427 -3.21067 0
M  V30 212 C 21.0243 -4.13504 -3.17275 0
M  V30 213 C 18.3523 -4.93794 -3.16835 0
M  V30 214 C 20.7043 -5.48834 -3.14585 0
M  V30 215 C 19.3683 -5.89123 -3.13831 0
M  V30 216 H 18.6383 -0.377999 -0.637336 0
M  V30 217 H 21.2853 -1.51111 -1.17634 0
M  V30 218 H 19.5903 -1.12158 -3.75404 0
M  V30 219 H 21.2873 -1.51091 -3.71446 0
M  V30 220 H 17.8773 -2.84965 -3.20145 0
M  V30 221 H 22.0613 -3.82936 -3.15711 0
M  V30 222 H 17.3173 -5.24255 -3.1459 0
M  V30 223 H 21.4913 -6.22934 -3.1133 0
M  V30 224 H 19.1183 -6.93984 -3.10307 0
M  V30 225 N 20.6934 1.19889 -1.02296 0
M  V30 226 C 21.9184 1.9393 -0.735237 0
M  V30 227 C 22.3434 1.74639 0.698782 0
M  V30 228 O 21.7014 1.04481 1.48167 0
M  V30 229 C 21.7494 3.43916 -1.08417 0
M  V30 230 O 20.8534 4.11917 -0.199446 0
M  V30 231 H 20.1944 0.605645 -0.272196 0
M  V30 232 H 22.7244 1.52137 -1.36804 0
M  V30 233 H 22.7344 3.9456 -1.03856 0
M  V30 234 H 21.4094 3.5728 -2.12894 0
M  V30 235 H 19.9864 3.71666 -0.303136 0
M  V30 236 N 22.1715 0.800033 1.35784 0
M  V30 237 C 23.1015 0.220184 2.3246 0
M  V30 238 C 24.0825 -0.65073 1.57161 0
M  V30 239 O 25.2675 -0.582359 1.85263 0
M  V30 240 C 22.3975 -0.637353 3.41402 0
M  V30 241 C 21.3515 0.134531 4.27789 0
M  V30 242 C 20.6775 -0.844285 5.27992 0
M  V30 243 C 21.9775 1.32979 5.05088 0
M  V30 244 H 23.6715 1.02787 2.81203 0
M  V30 245 H 21.2175 0.495717 1.35199 0
M  V30 246 H 23.1705 -1.05302 4.08031 0
M  V30 247 H 21.8945 -1.47785 2.91251 0
M  V30 248 H 20.5535 0.531296 3.6273 0
M  V30 249 H 20.2015 -1.68011 4.74111 0
M  V30 250 H 19.9015 -0.332184 5.8666 0
M  V30 251 H 21.4255 -1.2583 5.97494 0
M  V30 252 H 22.8395 0.98934 5.64699 0
M  V30 253 H 21.2365 1.77593 5.7322 0
M  V30 254 H 22.3065 2.11978 4.36111 0
M  V30 255 N 23.6496 -1.47581 0.552962 0
M  V30 256 C 24.6126 -2.28439 -0.186605 0
M  V30 257 C 25.6126 -1.36706 -0.84665 0
M  V30 258 O 26.8026 -1.59378 -0.703164 0
M  V30 259 C 23.9346 -3.16264 -1.2724 0
M  V30 260 H 25.1276 -2.95294 0.523609 0
M  V30 261 H 22.6806 -1.532 0.309745 0
M  V30 262 H 23.4156 -2.54091 -2.01514 0
M  V30 263 H 23.2006 -3.83769 -0.803968 0
M  V30 264 H 24.6906 -3.77198 -1.79196 0
M  V30 265 N 25.1277 -0.289203 -1.54924 0
M  V30 266 C 26.5437 0.0645403 -1.59469 0
M  V30 267 C 26.7437 1.53419 -1.30632 0
M  V30 268 O 25.7997 2.2852 -1.074 0
M  V30 269 C 27.1127 -0.32278 -2.98963 0
M  V30 270 C 28.6607 -0.270564 -3.11828 0
M  V30 271 C 29.1357 -0.632532 -4.53611 0
M  V30 272 N 30.6267 -0.584617 -4.59496 0
M  V30 273 C 31.3617 -0.837314 -5.67254 0
M  V30 274 N 30.8577 -1.15536 -6.83098 0
M  V30 275 N 32.6507 -0.765166 -5.56868 0
M  V30 276 H 24.8017 -1.24714 -1.71931 0
M  V30 277 H 27.0647 -0.504809 -0.802416 0
M  V30 278 H 26.7707 -1.34541 -3.24948 0
M  V30 279 H 26.6447 0.32944 -3.75759 0
M  V30 280 H 29.0317 0.742805 -2.85598 0
M  V30 281 H 29.1127 -0.957242 -2.37214 0
M  V30 282 H 28.7567 -1.64365 -4.80569 0
M  V30 283 H 28.6867 0.07609 -5.26545 0
M  V30 284 H 31.1777 -0.349248 -3.76283 0
M  V30 285 H 31.4907 -1.33447 -7.61191 0
M  V30 286 H 29.8357 -1.19328 -6.84679 0
M  V30 287 H 33.0267 -0.516432 -4.65243 0
M  V30 288 H 33.1997 -0.965477 -6.40767 0
M  V30 289 N 26.6058 1.57591 -0.0167156 0
M  V30 290 C 27.8538 1.90906 0.663285 0
M  V30 291 C 28.1748 0.892509 1.73376 0
M  V30 292 O 27.4448 -0.0677623 1.95783 0
M  V30 293 H 26.0248 0.704637 0.247983 0
M  V30 294 H 28.6868 1.94803 -0.0615909 0
M  V30 295 H 27.7828 2.9116 1.12393 0
M  V30 296 N 28.0839 -0.256276 1.55502 0
M  V30 297 C 29.3089 -1.00766 1.81276 0
M  V30 298 C 29.7339 -1.78524 0.59252 0
M  V30 299 O 29.0919 -1.75413 -0.45827 0
M  V30 300 C 29.1399 -1.92869 3.04687 0
M  V30 301 O 28.2439 -3.019 2.80945 0
M  V30 302 H 27.5849 -0.287224 0.598664 0
M  V30 303 H 30.1149 -0.280109 2.02674 0
M  V30 304 H 30.1249 -2.34511 3.33869 0
M  V30 305 H 28.7999 -1.35689 3.93143 0
M  V30 306 H 27.3769 -2.64454 2.62904 0
M  V30 307 N 29.562 -1.4872 -0.521534 0
M  V30 308 C 30.472 -1.66569 -1.65203 0
M  V30 309 C 31.488 -0.548197 -1.65139 0
M  V30 310 O 32.664 -0.820339 -1.83936 0
M  V30 311 C 29.729 -1.70917 -3.01642 0
M  V30 312 C 28.79 -2.94356 -3.12495 0
M  V30 313 C 28.023 -2.98487 -4.42426 0
M  V30 314 O 28.246 -2.10786 -5.30024 0
M  V30 315 O 27.18 -3.90746 -4.57822 0
M  V30 316 H 31.006 -2.62298 -1.5308 0
M  V30 317 H 28.591 -1.3222 -0.695565 0
M  V30 318 H 30.473 -1.7625 -3.82771 0
M  V30 319 H 29.148 -0.783633 -3.14071 0
M  V30 320 H 28.055 -2.94552 -2.3063 0
M  V30 321 H 29.388 -3.86322 -3.04986 0
M  V30 322 N 31.0401 0.771051 -1.3745 0
M  V30 323 C 32.2861 1.5319 -1.32894 0
M  V30 324 C 32.6191 1.94008 0.0862511 0
M  V30 325 O 31.8941 1.64124 1.04373 0
M  V30 326 C 32.1771 2.79648 -2.26868 0
M  V30 327 C 32.0301 2.45079 -3.77169 0
M  V30 328 C 33.3491 3.81583 -2.19277 0
M  V30 329 H 30.4681 0.555744 -0.484064 0
M  V30 330 H 33.1101 0.884492 -1.68157 0
M  V30 331 H 31.2601 3.34891 -1.96926 0
M  V30 332 H 32.9321 1.95745 -4.1771 0
M  V30 333 H 31.1751 1.77767 -3.95704 0
M  V30 334 H 31.8461 3.35478 -4.38359 0
M  V30 335 H 34.3221 3.35835 -2.45671 0
M  V30 336 H 33.1981 4.67787 -2.87171 0
M  V30 337 H 33.4591 4.25897 -1.18592 0
M  V30 338 N 32.5182 1.22032 0.997298 0
M  V30 339 C 33.7662 1.04016 1.73278 0
M  V30 340 C 34.0872 -0.426255 1.90284 0
M  V30 341 O 33.3572 -1.30694 1.45931 0
M  V30 342 H 31.9372 0.381897 0.642 0
M  V30 343 H 34.5992 1.5347 1.20137 0
M  V30 344 H 33.6952 1.51441 2.72896 0
M  V30 345 N 33.9963 -1.19345 1.0293 0
M  V30 346 C 34.9443 -2.24621 0.604001 0
M  V30 347 C 35.9383 -1.65452 -0.363587 0
M  V30 348 O 37.1443 -1.78497 -0.23212 0
M  V30 349 H 33.5193 -0.730858 0.177061 0
M  V30 350 H 35.4903 -2.5781 1.50255 0
M  V30 351 C 34.2393 -3.47688 -0.0289127 0
M  V30 352 H 33.5623 -3.93505 0.706651 0
M  V30 353 H 35.0023 -4.23011 -0.289432 0
M  V30 354 C 33.4613 -3.11817 -1.2756 0
M  V30 355 O 33.9913 -3.2451 -2.36762 0
M  V30 356 N 32.1973 -2.66246 -1.16453 0
M  V30 357 H 31.7443 -2.56118 -0.275914 0
M  V30 358 H 31.7023 -2.42617 -1.99961 0
M  V30 359 N 35.4744 -0.807222 -1.35358 0
M  V30 360 C 36.6994 -0.399309 -2.0352 0
M  V30 361 C 37.1244 0.981986 -1.60433 0
M  V30 362 O 36.4824 1.63601 -0.781299 0
M  V30 363 C 36.5304 -0.491552 -3.57234 0
M  V30 364 O 35.6344 0.494754 -4.09421 0
M  V30 365 H 34.9754 -0.166682 -0.642739 0
M  V30 366 H 37.5054 -1.09328 -1.72941 0
M  V30 367 H 37.5154 -0.361588 -4.06395 0
M  V30 368 H 36.1904 -1.49907 -3.87944 0
M  V30 369 H 34.7674 0.324977 -3.71481 0
M  V30 370 N 36.9525 1.47285 -0.560781 0
M  V30 371 C 37.8845 2.28118 0.222438 0
M  V30 372 C 38.8975 1.37219 0.876056 0
M  V30 373 O 40.0865 1.62011 0.749307 0
M  V30 374 C 37.1865 3.1159 1.33285 0
M  V30 375 C 36.3595 4.30473 0.77534 0
M  V30 376 C 35.4185 4.95513 1.77069 0
M  V30 377 O 34.4445 5.53792 1.31539 0
M  V30 378 N 35.6465 4.90531 3.10418 0
M  V30 379 H 38.4115 2.95976 -0.470958 0
M  V30 380 H 35.9725 1.56955 -0.39709 0
M  V30 381 H 37.9645 3.51967 1.99752 0
M  V30 382 H 36.5345 2.45951 1.92943 0
M  V30 383 H 35.7545 3.94144 -0.0662113 0
M  V30 384 H 37.0425 5.07362 0.382272 0
M  V30 385 H 36.4405 4.44389 3.5005 0
M  V30 386 H 34.9975 5.34917 3.72434 0
M  V30 387 N 38.4306 0.297415 1.54768 0
M  V30 388 C 39.3936 -0.567375 2.22066 0
M  V30 389 C 40.3936 -1.06409 1.20556 0
M  V30 390 O 41.5836 -0.960691 1.45315 0
M  V30 391 C 38.7156 -1.78517 2.90421 0
M  V30 392 H 39.9086 0.0205534 2.99893 0
M  V30 393 H 37.4616 0.0482163 1.56226 0
M  V30 394 H 38.1966 -2.41303 2.16664 0
M  V30 395 H 37.9816 -1.43669 3.64831 0
M  V30 396 H 39.4716 -2.39964 3.41771 0
M  V30 397 N 39.9087 -1.5758 0.0250728 0
M  V30 398 C 41.1547 -1.91917 -0.655413 0
M  V30 399 C 41.4877 -0.901433 -1.72011 0
M  V30 400 O 40.7627 0.0764069 -1.9435 0
M  V30 401 C 41.0457 -3.36751 -1.27558 0
M  V30 402 C 40.8987 -4.49258 -0.220719 0
M  V30 403 C 42.2177 -3.81469 -2.19475 0
M  V30 404 H 39.3367 -0.697925 -0.23679 0
M  V30 405 H 41.9787 -1.89825 0.0815036 0
M  V30 406 H 40.1287 -3.38664 -1.90365 0
M  V30 407 H 41.8007 -4.59478 0.409601 0
M  V30 408 H 40.0437 -4.31415 0.454264 0
M  V30 409 H 40.7147 -5.47618 -0.694175 0
M  V30 410 H 43.1907 -3.81266 -1.66659 0
M  V30 411 H 42.0667 -4.83512 -2.59822 0
M  V30 412 H 42.3277 -3.16744 -3.08424 0
M  V30 413 N 41.3868 0.248026 -1.55636 0
M  V30 414 C 42.6268 0.983592 -1.79178 0
M  V30 415 C 42.9908 1.82567 -0.594414 0
M  V30 416 O 44.1918 2.59292 -0.708583 0
M  V30 417 C 42.4628 1.82228 -3.07454 0
M  V30 418 S 44.0218 2.61709 -3.52213 0
M  V30 419 H 40.8398 0.330866 -0.629324 0
M  V30 420 H 43.4418 0.251562 -1.93875 0
M  V30 421 H 42.1458 1.19333 -3.92668 0
M  V30 422 H 41.6768 2.59708 -2.95492 0
M  V30 423 H 43.6918 3.84655 -3.13457 0
M  V30 424 N 42.8649 1.48995 0.513639 0
M  V30 425 C 44.2759 1.5119 1.09537 0
M  V30 426 C 44.6269 0.290906 1.94031 0
M  V30 427 O 43.7519 -0.60049 2.07902 0
M  V30 428 C 44.3469 2.73964 1.99322 0
M  V30 429 C 42.9059 2.78978 2.52682 0
M  V30 430 C 42.0529 2.44934 1.30009 0
M  V30 431 H 45.0039 1.55875 0.298125 0
M  V30 432 H 45.0249 2.53409 2.83838 0
M  V30 433 H 44.5369 3.62813 1.37799 0
M  V30 434 H 42.6379 1.94378 3.1788 0
M  V30 435 H 42.7509 3.8083 2.90698 0
M  V30 436 H 41.1149 1.9644 1.62122 0
M  V30 437 H 41.8979 3.36043 0.702131 0
M  V30 438 N 44.343 -0.763751 1.37857 0
M  V30 439 C 45.591 -1.51957 1.33243 0
M  V30 440 C 45.912 -1.94835 -0.0801709 0
M  V30 441 O 45.182 -1.66894 -1.02582 0
M  V30 442 H 43.762 -0.563626 0.49024 0
M  V30 443 H 46.424 -0.908504 1.7243 0
M  V30 444 H 45.52 -2.41523 1.97669 0
M  V30 445 N 45.8211 -1.22559 -0.990812 0
M  V30 446 C 47.0491 -1.07779 -1.76611 0
M  V30 447 C 47.4641 0.371513 -1.85109 0
M  V30 448 O 46.8211 1.25737 -1.32274 0
M  V30 449 C 46.8721 -1.68512 -3.19822 0
M  V30 450 O 46.5931 -3.07774 -3.1178 0
M  V30 451 C 48.0941 -1.59035 -4.13791 0
M  V30 452 H 45.3141 -0.377729 -0.554583 0
M  V30 453 H 47.8581 -1.62195 -1.24551 0
M  V30 454 H 46.0131 -1.18154 -3.68942 0
M  V30 455 H 46.4271 -3.37062 -4.01858 0
M  V30 456 H 47.9011 -2.0625 -5.1202 0
M  V30 457 H 48.3781 -0.547273 -4.35777 0
M  V30 458 H 48.9841 -2.08709 -3.70568 0
M  V30 459 N 47.2992 1.18797 -1.03562 0
M  V30 460 C 48.2292 2.24472 -0.643019 0
M  V30 461 C 49.2102 1.66433 0.351283 0
M  V30 462 O 50.3952 1.92803 0.232505 0
M  V30 463 C 47.5252 3.473 4.24935e-05 0
M  V30 464 C 46.4792 4.18055 -0.917257 0
M  V30 465 C 45.8052 5.34519 -0.138941 0
M  V30 466 C 47.1052 4.72109 -2.23407 0
M  V30 467 H 48.7992 2.57566 -1.52643 0
M  V30 468 H 46.3452 1.23806 -0.735394 0
M  V30 469 H 48.2982 4.20426 0.286383 0
M  V30 470 H 47.0222 3.13424 0.918299 0
M  V30 471 H 45.6812 3.46821 -1.1879 0
M  V30 472 H 45.3292 4.96891 0.781562 0
M  V30 473 H 45.0292 5.82794 -0.750005 0
M  V30 474 H 46.5532 6.10438 0.1405 0
M  V30 475 H 47.9672 5.36955 -2.00879 0
M  V30 476 H 46.3642 5.30897 -2.79765 0
M  V30 477 H 47.4342 3.89807 -2.88407 0
M  V30 478 N 48.7773 0.814389 1.34928 0
M  V30 479 C 49.7253 0.218424 2.31572 0
M  V30 480 C 50.7193 -0.636128 1.57002 0
M  V30 481 O 51.9253 -0.52842 1.72069 0
M  V30 482 H 48.3003 0.0518799 0.750208 0
M  V30 483 H 50.2713 1.04852 2.79372 0
M  V30 484 C 49.0203 -0.61207 3.4227 0
M  V30 485 H 48.3433 0.0361578 3.99784 0
M  V30 486 H 49.7833 -0.995317 4.12152 0
M  V30 487 C 48.2423 -1.78087 2.85984 0
M  V30 488 O 48.7723 -2.8787 2.80168 0
M  V30 489 N 46.9783 -1.59488 2.42924 0
M  V30 490 H 46.5253 -0.701874 2.47854 0
M  V30 491 H 46.4833 -2.37846 2.05613 0
M  V30 492 N 50.2554 -1.46986 0.568584 0
M  V30 493 C 51.5034 -2.02041 0.0487022 0
M  V30 494 C 51.8244 -1.44408 -1.31039 0
M  V30 495 O 51.0944 -0.623477 -1.85714 0
M  V30 496 H 49.6744 -0.746849 0.015014 0
M  V30 497 H 52.3364 -1.80257 0.741168 0
M  V30 498 H 51.4324 -3.12085 -0.0308961 0
M  V30 499 N 51.7335 -0.305618 -1.54608 0
M  V30 500 C 52.6635 0.561482 -2.26649 0
M  V30 501 C 53.6445 1.13415 -1.26772 0
M  V30 502 O 54.8295 1.16262 -1.55553 0
M  V30 503 C 51.9595 1.73122 -3.01075 0
M  V30 504 C 50.9135 1.2887 -4.08138 0
M  V30 505 C 50.2395 2.54396 -4.70305 0
M  V30 506 C 51.5395 0.416578 -5.20636 0
M  V30 507 H 53.2335 -0.0393902 -2.99374 0
M  V30 508 H 50.7795 -0.020385 -1.43986 0
M  V30 509 H 52.7325 2.34396 -3.50195 0
M  V30 510 H 51.4565 2.3584 -2.25936 0
M  V30 511 H 50.1155 0.698991 -3.59875 0
M  V30 512 H 49.7635 3.15439 -3.918 0
M  V30 513 H 49.4635 2.25486 -5.42614 0
M  V30 514 H 50.9875 3.16464 -5.2219 0
M  V30 515 H 52.4015 0.935116 -5.65622 0
M  V30 516 H 50.7985 0.221046 -5.99693 0
M  V30 517 H 51.8685 -0.557162 -4.81688 0
M  V30 518 N 53.2116 1.57565 -0.0334293 0
M  V30 519 C 54.4366 1.96689 0.657895 0
M  V30 520 C 54.8616 0.910057 1.64619 0
M  V30 521 O 54.2196 -0.128598 1.80843 0
M  V30 522 C 54.2676 3.34905 1.33683 0
M  V30 523 O 53.3716 3.31574 2.45219 0
M  V30 524 H 52.7126 0.641205 0.172489 0
M  V30 525 H 55.2426 2.04372 -0.0965621 0
M  V30 526 H 55.2526 3.71234 1.69262 0
M  V30 527 H 53.9276 4.11366 0.612411 0
M  V30 528 H 52.5046 3.06968 2.11719 0
M  V30 529 N 54.6897 -0.239769 1.55765 0
M  V30 530 C 55.9357 -0.968234 1.78194 0
M  V30 531 C 56.2687 -1.84701 0.599938 0
M  V30 532 O 55.5437 -1.9031 -0.401524 0
M  V30 533 C 55.8267 -1.8227 3.10564 0
M  V30 534 C 55.6797 -0.971633 4.3918 0
M  V30 535 C 56.9987 -2.80388 3.39221 0
M  V30 536 H 54.1177 -0.350572 0.648281 0
M  V30 537 H 56.7597 -0.238259 1.885 0
M  V30 538 H 54.9097 -2.44507 3.01908 0
M  V30 539 H 56.5817 -0.367408 4.59835 0
M  V30 540 H 54.8247 -0.276276 4.32919 0
M  V30 541 H 55.4957 -1.60346 5.28198 0
M  V30 542 H 57.9717 -2.28287 3.47885 0
M  V30 543 H 56.8477 -3.3729 4.33044 0
M  V30 544 H 57.1087 -3.57212 2.60484 0
M  V30 545 N 56.1678 -1.49265 -0.50573 0
M  V30 546 C 57.3958 -1.62215 -1.28429 0
M  V30 547 C 57.8108 -0.291697 -1.86533 0
M  V30 548 O 57.1678 0.722233 -1.67601 0
M  V30 549 C 57.2188 -2.68735 -2.41793 0
M  V30 550 O 56.9398 -3.96619 -1.86078 0
M  V30 551 C 58.4408 -2.92346 -3.3324 0
M  V30 552 H 55.6608 -0.546239 -0.389697 0
M  V30 553 H 58.2048 -1.95265 -0.607609 0
M  V30 554 H 56.3598 -2.38476 -3.053 0
M  V30 555 H 56.7738 -4.55256 -2.60465 0
M  V30 556 H 58.2478 -3.70623 -4.09075 0
M  V30 557 H 58.7248 -2.02081 -3.89948 0
M  V30 558 H 59.3308 -3.24003 -2.75503 0
M  V30 559 N 57.6459 0.756429 -1.3826 0
M  V30 560 C 58.8939 1.51248 -1.34047 0
M  V30 561 C 59.2149 1.94875 0.0698372 0
M  V30 562 O 58.4849 1.67436 1.01696 0
M  V30 563 H 57.0649 0.561018 -0.493222 0
M  V30 564 H 59.7269 0.899347 -1.7291 0
M  V30 565 H 58.8229 2.40472 -1.98947 0
M  V30 566 N 59.124 1.23083 0.984299 0
M  V30 567 C 60.401 0.9689 1.69917 0
M  V30 568 C 60.781 -0.513604 2.04757 0
M  V30 569 O 60.129 -1.48383 1.73767 0
M  V30 570 C 60.339 1.87518 2.94343 0
M  V30 571 C 61.687 2.13636 3.6694 0
M  V30 572 O 62.711 1.85036 3.04368 0
M  V30 573 O 61.57 2.62119 4.79537 0
M  V30 574 H 58.664 0.365095 0.742048 0
M  V30 575 H 61.21 1.34107 1.03987 0
M  V30 576 H 59.982 2.87756 2.65164 0
M  V30 577 H 59.605 1.50514 3.6801 0
M  V30 578 N 60.6021 -1.18246 1.0419 0
M  V30 579 C 61.5651 -2.20128 0.638452 0
M  V30 580 C 62.5651 -1.57885 -0.304805 0
M  V30 581 O 63.7551 -1.73967 -0.0900369 0
M  V30 582 C 60.8871 -3.4084 -0.0637751 0
M  V30 583 H 62.0801 -2.57336 1.54007 0
M  V30 584 H 59.6331 -1.32152 0.834598 0
M  V30 585 H 60.3681 -3.09166 -0.979136 0
M  V30 586 H 60.1531 -3.8726 0.614198 0
M  V30 587 H 61.6431 -4.16274 -0.332512 0
M  V30 588 N 62.0802 -0.821533 -1.34494 0
M  V30 589 C 62.9902 -0.244355 -2.33324 0
M  V30 590 C 64.0062 0.620527 -1.62559 0
M  V30 591 O 65.1822 0.528754 -1.94335 0
M  V30 592 C 62.2472 0.585368 -3.41723 0
M  V30 593 C 61.3082 -0.301752 -4.28238 0
M  V30 594 C 60.5412 0.488466 -5.3146 0
M  V30 595 O 60.7642 1.72186 -5.4379 0
M  V30 596 O 59.6982 -0.12848 -6.01763 0
M  V30 597 H 63.5242 -1.06231 -2.84515 0
M  V30 598 H 61.1092 -0.583645 -1.37528 0
M  V30 599 H 62.9912 1.05747 -4.07916 0
M  V30 600 H 61.6662 1.38068 -2.92778 0
M  V30 601 H 60.5732 -0.821315 -3.64973 0
M  V30 602 H 61.9062 -1.06138 -4.8062 0
M  V30 603 N 63.5583 1.46682 -0.576371 0
M  V30 604 C 64.5063 2.31953 0.17335 0
M  V30 605 C 65.5003 1.44098 0.89062 0
M  V30 606 O 66.7063 1.60759 0.809728 0
M  V30 607 H 63.0813 0.748273 0.0747727 0
M  V30 608 H 65.0523 2.93007 -0.564738 0
M  V30 609 C 63.8013 3.27142 1.17786 0
M  V30 610 H 63.1243 3.94719 0.635361 0
M  V30 611 H 64.5643 3.896 1.67296 0
M  V30 612 C 63.0233 2.52036 2.23561 0
M  V30 613 O 63.5533 2.27877 3.3081 0
M  V30 614 N 61.7593 2.12709 1.97998 0
M  V30 615 H 61.3063 2.32557 1.10792 0
M  V30 616 H 61.2643 1.62776 2.68982 0
M  V30 617 N 65.0364 0.313813 1.54444 0
M  V30 618 C 65.9684 -0.590425 2.21465 0
M  V30 619 C 66.9814 -1.08753 1.21147 0
M  V30 620 O 68.1704 -1.00278 1.4767 0
M  V30 621 C 65.2704 -1.82179 2.85769 0
M  V30 622 C 64.4434 -1.46502 4.12136 0
M  V30 623 C 63.5024 -2.55288 4.60124 0
M  V30 624 O 62.5284 -2.19842 5.25032 0
M  V30 625 N 63.7304 -3.86053 4.33525 0
M  V30 626 H 66.4954 -0.0166033 2.99695 0
M  V30 627 H 64.0564 0.136578 1.61323 0
M  V30 628 H 66.0484 -2.54328 3.14801 0
M  V30 629 H 64.6184 -2.30369 2.11303 0
M  V30 630 H 63.8384 -0.575595 3.89975 0
M  V30 631 H 65.1264 -1.20221 4.94393 0
M  V30 632 H 64.5244 -4.17654 3.81552 0
M  V30 633 H 63.0814 -4.54461 4.67235 0
M  V30 634 N 66.5145 -1.57545 0.0417849 0
M  V30 635 C 67.7445 -1.96339 -0.642995 0
M  V30 636 C 68.1525 -0.917536 -1.65463 0
M  V30 637 O 67.4955 0.107747 -1.83384 0
M  V30 638 C 67.5575 -3.31333 -1.39494 0
M  V30 639 C 67.2215 -4.53796 -0.540204 0
M  V30 640 C 68.2185 -5.19553 0.189806 0
M  V30 641 C 65.9035 -5.0006 -0.473886 0
M  V30 642 C 67.8975 -6.29904 0.974674 0
M  V30 643 C 65.5845 -6.10289 0.314677 0
M  V30 644 C 66.5825 -6.75072 1.03765 0
M  V30 645 O 66.2705 -7.83183 1.81327 0
M  V30 646 H 66.0025 -0.651241 -0.181277 0
M  V30 647 H 68.5565 -2.05148 0.101665 0
M  V30 648 H 66.7865 -3.19052 -2.18502 0
M  V30 649 H 68.4755 -3.54942 -1.96904 0
M  V30 650 H 69.2415 -4.84774 0.147981 0
M  V30 651 H 65.1205 -4.49433 -1.0262 0
M  V30 652 H 68.6645 -6.80401 1.5395 0
M  V30 653 H 64.5615 -6.44506 0.358174 0
M  V30 654 H 65.3295 -7.99913 1.73438 0
M  V30 655 N 67.9926 0.231505 -1.5589 0
M  V30 656 C 68.9246 1.31006 -1.8807 0
M  V30 657 C 69.9376 1.43539 -0.768145 0
M  V30 658 O 71.1266 1.44614 -1.04638 0
M  V30 659 C 68.2266 2.68688 -2.06543 0
M  V30 660 C 67.3996 2.78228 -3.37502 0
M  V30 661 C 66.4586 3.96857 -3.4553 0
M  V30 662 O 65.4846 3.85662 -4.18633 0
M  V30 663 N 66.6866 5.1072 -2.75944 0
M  V30 664 H 69.4516 1.03731 -2.81176 0
M  V30 665 H 67.0126 0.421573 -1.56315 0
M  V30 666 H 69.0046 3.46412 -2.09239 0
M  V30 667 H 67.5746 2.88605 -1.20109 0
M  V30 668 H 66.7946 1.87059 -3.46991 0
M  V30 669 H 68.0826 2.81564 -4.23791 0
M  V30 670 H 67.4806 5.2271 -2.16311 0
M  V30 671 H 66.0376 5.86523 -2.84314 0
M  V30 672 N 69.4707 1.49531 0.497807 0
M  V30 673 C 70.6987 1.62893 1.27567 0
M  V30 674 C 71.1137 0.301585 1.86376 0
M  V30 675 O 70.4707 -0.713335 1.67982 0
M  V30 676 C 70.5217 2.70013 2.40364 0
M  V30 677 O 70.2427 3.976 1.83972 0
M  V30 678 C 71.7437 2.94109 3.31685 0
M  V30 679 H 68.9637 0.548298 0.386794 0
M  V30 680 H 71.5077 1.95584 0.597245 0
M  V30 681 H 69.6627 2.40092 3.04031 0
M  V30 682 H 70.0767 4.56631 2.58047 0
M  V30 683 H 71.5507 3.72788 4.07104 0
M  V30 684 H 72.0277 2.04147 3.88871 0
M  V30 685 H 72.6337 3.2546 2.73781 0
M  V30 686 N 70.9488 -0.749086 1.3866 0
M  V30 687 C 71.8788 -1.8764 1.38973 0
M  V30 688 C 72.8598 -1.68178 0.255004 0
M  V30 689 O 74.0448 -1.88704 0.458754 0
M  V30 690 C 71.1748 -3.25222 1.21851 0
M  V30 691 C 70.1288 -3.59295 2.32575 0
M  V30 692 C 69.4548 -4.95663 2.00555 0
M  V30 693 C 70.7548 -3.63709 3.7485 0
M  V30 694 H 72.4488 -1.87635 2.3331 0
M  V30 695 H 69.9948 -0.901329 1.12303 0
M  V30 696 H 71.9478 -4.03746 1.20695 0
M  V30 697 H 70.6718 -3.25719 0.239775 0
M  V30 698 H 69.3308 -2.83093 2.32925 0
M  V30 699 H 68.9788 -4.92724 1.01154 0
M  V30 700 H 68.6788 -5.19429 2.74714 0
M  V30 701 H 70.2028 -5.7656 2.01024 0
M  V30 702 H 71.6168 -4.32338 3.76506 0
M  V30 703 H 70.0138 -3.98986 4.48252 0
M  V30 704 H 71.0838 -2.63834 4.06841 0
M  V30 705 N 72.4269 -1.23603 -0.977757 0
M  V30 706 C 73.6569 -1.09487 -1.75203 0
M  V30 707 C 74.0649 0.356321 -1.85814 0
M  V30 708 O 73.4079 1.25816 -1.33851 0
M  V30 709 C 73.4699 -1.64905 -3.19447 0
M  V30 710 C 73.1339 -3.13688 -3.32338 0
M  V30 711 C 74.1309 -4.10953 -3.18455 0
M  V30 712 C 71.8159 -3.53449 -3.56902 0
M  V30 713 C 73.8099 -5.45962 -3.28944 0
M  V30 714 C 71.4969 -4.88602 -3.6703 0
M  V30 715 C 72.4949 -5.84668 -3.53062 0
M  V30 716 O 72.1829 -7.17365 -3.62826 0
M  V30 717 H 71.9149 -0.38367 -0.556573 0
M  V30 718 H 74.4689 -1.6398 -1.23693 0
M  V30 719 H 72.6989 -1.04835 -3.72218 0
M  V30 720 H 74.3879 -1.46226 -3.78646 0
M  V30 721 H 75.1539 -3.81577 -2.99372 0
M  V30 722 H 71.0329 -2.79188 -3.66844 0
M  V30 723 H 74.5769 -6.20925 -3.17958 0
M  V30 724 H 70.4739 -5.17653 -3.85623 0
M  V30 725 H 71.2419 -7.2515 -3.79605 0
M  V30 726 N 73.905 1.17692 -1.04816 0
M  V30 727 C 74.852 2.21581 -0.645797 0
M  V30 728 C 75.822 1.62367 0.350159 0
M  V30 729 O 77.007 1.89254 0.242433 0
M  V30 730 C 74.147 3.45092 -0.0227568 0
M  V30 731 C 73.26 4.18613 -1.06709 0
M  V30 732 C 72.395 5.29602 -0.411767 0
M  V30 733 C 71.434 5.94904 -1.44067 0
M  V30 734 N 70.571 6.97414 -0.809781 0
M  V30 735 H 75.411 2.55353 -1.5362 0
M  V30 736 H 72.948 1.25438 -0.768364 0
M  V30 737 H 74.906 4.15679 0.35588 0
M  V30 738 H 73.536 3.11917 0.831122 0
M  V30 739 H 72.588 3.46779 -1.5636 0
M  V30 740 H 73.9 4.63293 -1.84827 0
M  V30 741 H 73.054 6.06696 0.0206623 0
M  V30 742 H 71.793 4.86045 0.401438 0
M  V30 743 H 70.798 5.16544 -1.88316 0
M  V30 744 H 72.023 6.40542 -2.25571 0
M  V30 745 H 69.969 6.55998 -0.0170186 0
M  V30 746 H 69.886 7.40386 -1.52856 0
M  V30 747 H 71.154 7.78463 -0.401999 0
M  V30 748 N 75.3831 0.828654 1.34056 0
M  V30 749 C 76.3131 0.269443 2.3194 0
M  V30 750 C 77.2941 -0.617247 1.58506 0
M  V30 751 O 78.4791 -0.542931 1.86456 0
M  V30 752 C 75.6091 -0.564793 3.42677 0
M  V30 753 C 74.5631 0.225241 4.27407 0
M  V30 754 C 73.8891 -0.7321 5.29664 0
M  V30 755 C 75.1891 1.43663 5.02154 0
M  V30 756 H 76.8831 1.08728 2.7896 0
M  V30 757 H 74.4291 0.524283 1.34117 0
M  V30 758 H 76.3821 -0.966233 4.10173 0
M  V30 759 H 75.1061 -1.41574 2.9432 0
M  V30 760 H 73.7651 0.608117 3.61521 0
M  V30 761 H 73.4131 -1.57916 4.77568 0
M  V30 762 H 73.1131 -0.20767 5.87233 0
M  V30 763 H 74.6371 -1.13128 6.00029 0
M  V30 764 H 76.0511 1.1089 5.62473 0
M  V30 765 H 74.4481 1.89711 5.69324 0
M  V30 766 H 75.5181 2.21181 4.31517 0
M  V30 767 N 76.8612 -1.46375 0.584142 0
M  V30 768 C 78.0912 -2.06461 0.0758195 0
M  V30 769 C 78.4992 -1.43322 -1.23512 0
M  V30 770 O 77.8422 -0.533216 -1.75791 0
M  V30 771 C 77.9042 -3.59131 -0.162773 0
M  V30 772 C 77.5682 -4.4447 1.06279 0
M  V30 773 C 78.5652 -4.80918 1.97519 0
M  V30 774 C 76.2502 -4.85584 1.28504 0
M  V30 775 C 78.2442 -5.57309 3.09331 0
M  V30 776 C 75.9312 -5.61734 2.4062 0
M  V30 777 C 76.9292 -5.9751 3.30863 0
M  V30 778 O 76.6172 -6.72121 4.41032 0
M  V30 779 H 76.3492 -0.673745 0.0551725 0
M  V30 780 H 78.9032 -1.88969 0.804984 0
M  V30 781 H 77.1332 -3.74936 -0.946565 0
M  V30 782 H 78.8222 -4.0114 -0.619782 0
M  V30 783 H 79.5882 -4.49732 1.81565 0
M  V30 784 H 75.4672 -4.57187 0.591702 0
M  V30 785 H 79.0112 -5.85152 3.79793 0
M  V30 786 H 74.9082 -5.92334 2.56537 0
M  V30 787 H 75.6762 -6.90547 4.39417 0
M  V30 788 N 78.3393 -0.321999 -1.54275 0
M  V30 789 C 79.2493 0.553631 -2.27974 0
M  V30 790 C 80.2653 1.13054 -1.32268 0
M  V30 791 O 81.4413 1.15084 -1.6528 0
M  V30 792 C 78.5063 1.69927 -3.02201 0
M  V30 793 C 77.5673 1.15433 -4.1349 0
M  V30 794 C 76.8003 2.24537 -4.84168 0
M  V30 795 O 77.0233 3.44852 -4.5435 0
M  V30 796 O 75.9573 1.90044 -5.7111 0
M  V30 797 H 79.7833 -0.0448345 -3.03667 0
M  V30 798 H 77.3683 -0.0877418 -1.49142 0
M  V30 799 H 79.2503 2.3663 -3.48689 0
M  V30 800 H 77.9253 2.28395 -2.29385 0
M  V30 801 H 76.8323 0.452436 -3.71354 0
M  V30 802 H 78.1653 0.614805 -4.88345 0
M  V30 803 N 79.8174 1.5752 -0.0501392 0
M  V30 804 C 81.2334 1.56631 0.306402 0
M  V30 805 C 81.4334 1.0577 1.71508 0
M  V30 806 O 80.4894 0.713837 2.422 0
M  V30 807 C 81.8024 3.00393 0.135811 0
M  V30 808 C 83.3504 3.12315 0.206993 0
M  V30 809 C 83.8254 4.57954 0.064944 0
M  V30 810 N 85.3164 4.63041 0.121254 0
M  V30 811 C 86.0514 5.73389 0.0354381 0
M  V30 812 N 85.5474 6.92724 -0.102666 0
M  V30 813 N 87.3404 5.62026 0.090946 0
M  V30 814 H 79.4914 1.88903 -0.971046 0
M  V30 815 H 81.7544 0.869876 -0.376855 0
M  V30 816 H 81.4604 3.41635 -0.835384 0
M  V30 817 H 81.3344 3.66373 0.897275 0
M  V30 818 H 83.7214 2.70973 1.16866 0
M  V30 819 H 83.8024 2.49016 -0.585208 0
M  V30 820 H 83.4464 4.99981 -0.893394 0
M  V30 821 H 83.3764 5.19258 0.876277 0
M  V30 822 H 85.8674 3.77216 0.227284 0
M  V30 823 H 86.1804 7.72633 -0.160882 0
M  V30 824 H 84.5254 6.94864 -0.137737 0
M  V30 825 H 87.7164 4.67684 0.197388 0
M  V30 826 H 87.8894 6.47997 0.0206089 0
M  V30 827 N 81.2955 -0.223234 1.56011 0
M  V30 828 C 82.5355 -0.954962 1.8072 0
M  V30 829 C 82.8995 -1.81598 0.623384 0
M  V30 830 O 84.1005 -2.58132 0.749745 0
M  V30 831 C 82.3715 -1.77313 3.10314 0
M  V30 832 S 83.9305 -2.56073 3.56332 0
M  V30 833 H 80.7485 -0.320812 0.634508 0
M  V30 834 H 83.3505 -0.220686 1.9425 0
M  V30 835 H 82.0545 -1.13071 3.94516 0
M  V30 836 H 81.5855 -2.54974 2.99586 0
M  V30 837 H 83.6005 -3.79619 3.19536 0
M  V30 838 N 82.7736 -1.49793 -0.48987 0
M  V30 839 C 83.6836 -1.70036 -1.61632 0
M  V30 840 C 84.6996 -0.583102 -1.63939 0
M  V30 841 O 85.8756 -0.859169 -1.82154 0
M  V30 842 C 82.9406 -1.77277 -2.97949 0
M  V30 843 C 82.0016 -3.00918 -3.06181 0
M  V30 844 C 81.2346 -3.07804 -4.35996 0
M  V30 845 O 81.4576 -2.21982 -5.25433 0
M  V30 846 O 80.3916 -4.00369 -4.49431 0
M  V30 847 H 84.2176 -2.65486 -1.47482 0
M  V30 848 H 81.8026 -1.33666 -0.667362 0
M  V30 849 H 83.6846 -1.84329 -3.78947 0
M  V30 850 H 82.3596 -0.850076 -3.12339 0
M  V30 851 H 81.2666 -2.99377 -2.2433 0
M  V30 852 H 82.5996 -3.92704 -2.96723 0
M  V30 853 N 84.2517 0.741722 -1.39055 0
M  V30 854 C 85.4977 1.50336 -1.36113 0
M  V30 855 C 85.8307 1.94148 0.0450796 0
M  V30 856 O 85.1057 1.66301 1.00868 0
M  V30 857 C 85.3887 2.74773 -2.32749 0
M  V30 858 C 85.2417 2.37023 -3.82283 0
M  V30 859 C 86.5607 3.76846 -2.27322 0
M  V30 860 H 83.6797 0.545351 -0.495743 0
M  V30 861 H 86.3217 0.848624 -1.69995 0
M  V30 862 H 84.4717 3.30639 -2.03986 0
M  V30 863 H 86.1437 1.8684 -4.21768 0
M  V30 864 H 84.3867 1.69334 -3.99385 0
M  V30 865 H 85.0577 3.26104 -4.45376 0
M  V30 866 H 87.5337 3.30548 -2.5274 0
M  V30 867 H 86.4097 4.6159 -2.97028 0
M  V30 868 H 86.6707 4.23286 -1.27599 0
M  V30 869 N 85.7298 1.2412 0.971189 0
M  V30 870 C 86.9758 1.08041 1.71625 0
M  V30 871 C 87.3088 -0.380407 1.90438 0
M  V30 872 O 86.5838 -1.28127 1.46334 0
M  V30 873 C 86.8668 1.81682 3.10908 0
M  V30 874 C 86.7198 3.35493 2.99608 0
M  V30 875 C 88.0388 1.58671 4.10501 0
M  V30 876 H 85.1578 0.39388 0.622919 0
M  V30 877 H 87.7998 1.52743 1.13003 0
M  V30 878 H 85.9498 1.43684 3.60953 0
M  V30 879 H 87.6218 3.83068 2.57015 0
M  V30 880 H 85.8648 3.64052 2.35899 0
M  V30 881 H 86.5358 3.82217 3.98264 0
M  V30 882 H 89.0118 1.91719 3.69301 0
M  V30 883 H 87.8878 2.1266 5.06031 0
M  V30 884 H 88.1488 0.524161 4.38982 0
M  V30 885 N 87.2079 -1.17134 1.05439 0
M  V30 886 C 88.1409 -2.2012 0.601855 0
M  V30 887 C 89.1189 -1.58314 -0.370854 0
M  V30 888 O 90.3029 -1.8638 -0.281882 0
M  V30 889 C 87.4299 -3.38491 -0.118868 0
M  V30 890 C 86.4759 -4.18752 0.809242 0
M  V30 891 S 87.3089 -4.83602 2.29977 0
M  V30 892 C 88.4649 -6.0536 1.59029 0
M  V30 893 H 88.6979 -2.58165 1.47438 0
M  V30 894 H 86.2309 -1.27788 0.866573 0
M  V30 895 H 88.1889 -4.07084 -0.528495 0
M  V30 896 H 86.8499 -2.98829 -0.967465 0
M  V30 897 H 86.0429 -5.03373 0.251379 0
M  V30 898 H 85.6449 -3.5561 1.15835 0
M  V30 899 H 87.9369 -6.71615 0.891017 0
M  V30 900 H 88.8799 -6.65679 2.41407 0
M  V30 901 H 89.2879 -5.54138 1.07663 0
M  V30 902 N 88.686 -0.835752 -1.33615 0
M  V30 903 C 89.934 -0.429109 -1.97492 0
M  V30 904 C 90.255 1.01433 -1.66543 0
M  V30 905 O 89.525 1.70611 -0.962744 0
M  V30 906 H 88.105 -0.155686 -0.730596 0
M  V30 907 H 90.767 -1.06802 -1.63031 0
M  V30 908 H 89.863 -0.55861 -3.0706 0
M  V30 909 N 90.1641 1.46063 -0.591896 0
M  V30 910 C 91.1121 2.32124 0.148739 0
M  V30 911 C 92.1061 1.45035 0.875286 0
M  V30 912 O 93.3121 1.61609 0.792632 0
M  V30 913 H 89.6871 0.749024 0.066832 0
M  V30 914 H 91.6581 2.92392 -0.595783 0
M  V30 915 C 90.4071 3.28373 1.1431 0
M  V30 916 H 89.7301 3.95371 0.59346 0
M  V30 917 H 91.1701 3.91352 1.63155 0
M  V30 918 C 89.6291 2.54393 2.20875 0
M  V30 919 O 90.1591 2.31373 3.28374 0
M  V30 920 N 88.3651 2.14797 1.95731 0
M  V30 921 H 87.9121 2.33719 1.08319 0
M  V30 922 H 87.8701 1.65619 2.67241 0
M  V30 923 N 91.6422 0.330177 1.54103 0
M  V30 924 C 92.5722 -0.525353 2.27513 0
M  V30 925 C 93.5532 -1.11383 1.2856 0
M  V30 926 O 94.7382 -1.13773 1.57383 0
M  V30 927 C 91.8682 -1.6831 3.03791 0
M  V30 928 C 90.8222 -1.2236 4.10137 0
M  V30 929 C 90.1482 -2.46882 4.74293 0
M  V30 930 C 91.4482 -0.333697 5.21233 0
M  V30 931 H 93.1422 0.087013 2.99274 0
M  V30 932 H 90.6882 0.0432893 1.43935 0
M  V30 933 H 92.6412 -2.28795 3.5388 0
M  V30 934 H 91.3652 -2.32216 2.29659 0
M  V30 935 H 90.0242 -0.64165 3.60941 0
M  V30 936 H 89.6722 -3.09165 3.96769 0
M  V30 937 H 89.3722 -2.16825 5.46133 0
M  V30 938 H 90.8962 -3.08117 5.27159 0
M  V30 939 H 92.3102 -0.845013 5.67038 0
M  V30 940 H 90.7072 -0.125612 5.99969 0
M  V30 941 H 91.7772 0.633724 4.80741 0
M  V30 942 N 93.1203 -1.57491 0.0584922 0
M  V30 943 C 94.0303 -2.15448 -0.928414 0
M  V30 944 C 95.0463 -1.11416 -1.3365 0
M  V30 945 O 96.2223 -1.4362 -1.41193 0
M  V30 946 C 93.2873 -2.69393 -2.18239 0
M  V30 947 C 92.3483 -3.88249 -1.83196 0
M  V30 948 C 91.5813 -4.39613 -3.02616 0
M  V30 949 O 91.8043 -3.90023 -4.16219 0
M  V30 950 O 90.7383 -5.31111 -2.83204 0
M  V30 951 H 94.5643 -3.00112 -0.465483 0
M  V30 952 H 92.1493 -1.48499 -0.163826 0
M  V30 953 H 94.0313 -3.04026 -2.91798 0
M  V30 954 H 92.7063 -1.87796 -2.63656 0
M  V30 955 H 91.6133 -3.58492 -1.06931 0
M  V30 956 H 92.9463 -4.71098 -1.42573 0
M  V30 957 N 94.5984 0.214957 -1.56127 0
M  V30 958 C 95.8474 0.936451 -1.78643 0
M  V30 959 C 96.1604 1.85237 -0.628229 0
M  V30 960 O 97.3664 2.613 -0.737186 0
M  V30 961 C 95.8224 1.7154 -3.16389 0
M  V30 962 C 95.4304 0.845299 -4.39953 0
M  V30 963 C 97.1744 2.42772 -3.48227 0
M  V30 964 C 95.0814 1.62198 -5.68723 0
M  V30 965 H 94.0114 0.353401 -0.666051 0
M  V30 966 H 96.6624 0.190169 -1.82512 0
M  V30 967 H 95.0444 2.50484 -3.06715 0
M  V30 968 H 96.2184 0.0959353 -4.607 0
M  V30 969 H 94.5334 0.244789 -4.1568 0
M  V30 970 H 97.1304 3.01394 -4.41663 0
M  V30 971 H 97.4734 3.15984 -2.71035 0
M  V30 972 H 98.0064 1.70813 -3.5926 0
M  V30 973 H 94.7454 0.933011 -6.48826 0
M  V30 974 H 94.2654 2.34579 -5.52026 0
M  V30 975 H 95.9444 2.18095 -6.09133 0
M  V30 976 N 96.0765 1.50051 0.48192 0
M  V30 977 C 97.3225 1.60736 1.2366 0
M  V30 978 C 97.6555 0.301786 1.91841 0
M  V30 979 O 96.9305 -0.696025 1.8162 0
M  V30 980 C 97.2135 2.78009 2.28874 0
M  V30 981 C 97.0665 4.18416 1.65069 0
M  V30 982 C 98.3855 2.90867 3.30279 0
M  V30 983 H 95.5045 0.585031 0.448228 0
M  V30 984 H 98.1465 1.82402 0.531946 0
M  V30 985 H 96.2965 2.59667 2.88973 0
M  V30 986 H 97.9685 4.48322 1.0865 0
M  V30 987 H 96.2115 4.23177 0.954148 0
M  V30 988 H 96.8825 4.96381 2.41474 0
M  V30 989 H 99.3585 3.07623 2.80191 0
M  V30 990 H 98.2345 3.74566 4.01238 0
M  V30 991 H 98.4955 2.01021 3.93755 0
M  V30 992 N 97.5546 -0.734337 1.39446 0
M  V30 993 C 98.4846 -1.86155 1.40955 0
M  V30 994 C 99.4656 -1.67898 0.272827 0
M  V30 995 O 100.651 -1.88207 0.478743 0
M  V30 996 C 97.7806 -3.23912 1.25294 0
M  V30 997 C 96.7346 -3.56808 2.36373 0
M  V30 998 C 96.0606 -4.93508 2.058 0
M  V30 999 C 97.3606 -3.59713 3.78687 0
M  V30 1000 H 99.0546 -1.8515 2.35287 0
M  V30 1001 H 96.6006 -0.889367 1.13253 0
M  V30 1002 H 98.5536 -4.02443 1.2497 0
M  V30 1003 H 97.2776 -3.25446 0.274308 0
M  V30 1004 H 95.9366 -2.80606 2.35914 0
M  V30 1005 H 95.5846 -4.91623 1.06374 0
M  V30 1006 H 95.2846 -5.16486 2.80208 0
M  V30 1007 H 96.8086 -5.74396 2.07128 0
M  V30 1008 H 98.2226 -4.2832 3.81071 0
M  V30 1009 H 96.6196 -3.94209 4.52459 0
M  V30 1010 H 97.6896 -2.59504 4.09617 0
M  V30 1011 N 99.0327 -1.24633 -0.964593 0
M  V30 1012 C 100.261 -1.11501 -1.74285 0
M  V30 1013 C 100.676 0.332165 -1.85855 0
M  V30 1014 O 100.033 1.22903 -1.34911 0
M  V30 1015 C 100.084 -1.75258 -3.16175 0
M  V30 1016 O 99.8047 -3.14318 -3.05182 0
M  V30 1017 C 101.306 -1.67776 -4.10324 0
M  V30 1018 H 98.5257 -0.389407 -0.546446 0
M  V30 1019 H 101.07 -1.64801 -1.21083 0
M  V30 1020 H 99.2247 -1.25954 -3.66353 0
M  V30 1021 H 99.6387 -3.4551 -3.94618 0
M  V30 1022 H 101.113 -2.17064 -5.0753 0
M  V30 1023 H 101.59 -0.639584 -4.34518 0
M  V30 1024 H 102.196 -2.16522 -3.66058 0
M  V30 1025 N 100.511 1.16574 -1.06058 0
M  V30 1026 C 101.759 1.86677 -0.77434 0
M  V30 1027 C 102.08 1.81959 0.701147 0
M  V30 1028 O 101.35 1.2515 1.50713 0
M  V30 1029 H 99.9298 0.691134 -0.283449 0
M  V30 1030 H 102.592 1.41378 -1.34158 0
M  V30 1031 H 101.688 2.92181 -1.09711 0
M  V30 1032 N 101.989 0.842826 1.3317 0
M  V30 1033 C 102.939 0.250877 2.26616 0
M  V30 1034 C 103.923 -0.596427 1.49437 0
M  V30 1035 O 105.115 -0.447747 1.71243 0
M  V30 1036 C 102.244 -0.569779 3.38539 0
M  V30 1037 C 101.33 0.289254 4.23112 0
M  V30 1038 N 101.721 1.36987 4.86897 0
M  V30 1039 C 100.019 0.0769631 4.45934 0
M  V30 1040 C 100.72 1.89737 5.49886 0
M  V30 1041 N 99.6959 1.19827 5.30229 0
M  V30 1042 H 103.498 1.07718 2.73448 0
M  V30 1043 H 101.012 0.687693 1.47121 0
M  V30 1044 H 103.009 -1.01018 4.04476 0
M  V30 1045 H 101.669 -1.39401 2.93253 0
M  V30 1046 H 102.68 1.75277 4.87338 0
M  V30 1047 H 99.3569 -0.713507 4.11358 0
M  V30 1048 H 100.747 2.80253 6.10662 0
M  V30 1049 N 103.467 -1.45747 0.599634 0
M  V30 1050 C 104.415 -2.322 -0.136426 0
M  V30 1051 C 105.409 -1.45497 -0.867583 0
M  V30 1052 O 106.615 -1.62027 -0.78405 0
M  V30 1053 H 102.99 -0.749368 -0.0628588 0
M  V30 1054 H 104.961 -2.92072 0.611281 0
M  V30 1055 C 103.71 -3.28974 -1.12567 0
M  V30 1056 H 103.033 -3.9568 -0.572484 0
M  V30 1057 H 104.473 -3.92212 -1.61077 0
M  V30 1058 C 102.932 -2.55561 -2.19523 0
M  V30 1059 O 103.462 -2.33111 -3.27143 0
M  V30 1060 N 101.668 -2.15832 -1.94589 0
M  V30 1061 H 101.215 -2.3429 -1.07078 0
M  V30 1062 H 101.173 -1.67034 -2.66359 0
M  V30 1063 N 104.945 -0.338344 -1.53925 0
M  V30 1064 C 105.908 0.508299 -2.23493 0
M  V30 1065 C 106.908 1.03175 -1.23335 0
M  V30 1066 O 108.098 0.921826 -1.47811 0
M  V30 1067 C 105.23 1.70754 -2.95052 0
M  V30 1068 H 106.423 -0.100058 -2.99733 0
M  V30 1069 H 103.976 -0.0896198 -1.56043 0
M  V30 1070 H 104.711 2.35474 -2.22986 0
M  V30 1071 H 104.496 1.33946 -3.68512 0
M  V30 1072 H 105.986 2.30818 -3.48013 0
M  V30 1073 N 106.423 1.57458 -0.0668435 0
M  V30 1074 C 107.7 1.8469 0.644132 0
M  V30 1075 C 108.08 0.958343 1.88093 0
M  V30 1076 O 107.428 0.0233579 2.28488 0
M  V30 1077 C 107.638 3.34767 0.986509 0
M  V30 1078 C 108.986 4.02159 1.36212 0
M  V30 1079 O 110.01 3.39484 1.07839 0
M  V30 1080 O 108.869 5.12694 1.89227 0
M  V30 1081 H 105.963 0.762816 0.319437 0
M  V30 1082 H 108.509 1.6942 -0.0973986 0
M  V30 1083 H 107.281 3.91151 0.107883 0
M  V30 1084 H 106.904 3.55281 1.78497 0
M  V30 1085 N 107.901 -0.206675 1.56239 0
M  V30 1086 C 108.831 -1.25909 1.96645 0
M  V30 1087 C 109.812 -1.48097 0.836734 0
M  V30 1088 O 110.997 -1.6003 1.10019 0
M  V30 1089 C 108.127 -2.6058 2.29599 0
M  V30 1090 C 107.081 -2.53024 3.452 0
M  V30 1091 C 106.407 -3.91861 3.63798 0
M  V30 1092 C 107.707 -2.06524 4.79734 0
M  V30 1093 H 109.401 -0.923369 2.84806 0
M  V30 1094 H 106.947 -0.442735 1.37025 0
M  V30 1095 H 108.9 -3.34375 2.56459 0
M  V30 1096 H 107.624 -2.95869 1.38307 0
M  V30 1097 H 106.283 -1.81684 3.18412 0
M  V30 1098 H 105.931 -4.24483 2.69857 0
M  V30 1099 H 105.631 -3.87683 4.4156 0
M  V30 1100 H 107.155 -4.67296 3.93022 0
M  V30 1101 H 108.569 -2.70072 5.05702 0
M  V30 1102 H 106.966 -2.13374 5.60885 0
M  V30 1103 H 108.036 -1.01802 4.74093 0
M  V30 1104 N 109.379 -1.50304 -0.473955 0
M  V30 1105 C 110.604 -1.65175 -1.25427 0
M  V30 1106 C 111.029 -0.333673 -1.85117 0
M  V30 1107 O 110.387 0.702114 -1.67153 0
M  V30 1108 C 110.435 -2.74295 -2.34082 0
M  V30 1109 O 109.539 -2.35349 -3.38651 0
M  V30 1110 H 108.88 -0.551944 -0.369126 0
M  V30 1111 H 111.41 -1.96662 -0.564364 0
M  V30 1112 H 111.42 -2.97285 -2.79438 0
M  V30 1113 H 110.095 -3.69959 -1.90008 0
M  V30 1114 H 108.672 -2.22794 -2.99027 0
M  V30 1115 N 110.857 0.726932 -1.39834 0
M  V30 1116 C 112.104 1.48664 -1.37496 0
M  V30 1117 C 112.432 1.94482 0.0264678 0
M  V30 1118 O 111.687 1.67692 1.00886 0
M  V30 1119 C 111.986 2.73495 -2.30077 0
M  V30 1120 C 111.652 2.46502 -3.77555 0
M  V30 1121 C 110.314 2.3885 -4.17737 0
M  V30 1122 C 112.666 2.23604 -4.70798 0
M  V30 1123 C 109.994 2.06352 -5.49214 0
M  V30 1124 C 112.346 1.92622 -6.02561 0
M  V30 1125 C 111.01 1.83444 -6.41798 0
M  V30 1126 H 110.28 0.544001 -0.503135 0
M  V30 1127 H 112.927 0.833657 -1.72402 0
M  V30 1128 H 111.232 3.43575 -1.88317 0
M  V30 1129 H 112.929 3.31549 -2.25558 0
M  V30 1130 H 109.519 2.5334 -3.45712 0
M  V30 1131 H 113.703 2.28479 -4.40581 0
M  V30 1132 H 108.959 1.97776 -5.78528 0
M  V30 1133 H 113.133 1.73914 -6.74334 0
M  V30 1134 H 110.76 1.58029 -7.43593 0
M  V30 1135 N 112.336 1.25143 0.95797 0
M  V30 1136 C 113.266 1.07711 2.07173 0
M  V30 1137 C 114.247 -0.0128462 1.70095 0
M  V30 1138 O 115.432 0.156061 1.93572 0
M  V30 1139 C 112.562 0.691503 3.40346 0
M  V30 1140 C 111.516 1.73132 3.9142 0
M  V30 1141 C 110.842 1.20049 5.21049 0
M  V30 1142 C 112.142 3.1294 4.1817 0
M  V30 1143 H 113.836 2.00873 2.22014 0
M  V30 1144 H 111.382 0.967191 1.06684 0
M  V30 1145 H 113.335 0.556505 4.17709 0
M  V30 1146 H 112.059 -0.275819 3.25433 0
M  V30 1147 H 110.718 1.8547 3.16222 0
M  V30 1148 H 110.366 0.223499 5.02503 0
M  V30 1149 H 110.066 1.89545 5.56189 0
M  V30 1150 H 111.59 1.07782 6.01012 0
M  V30 1151 H 113.004 3.03775 4.86203 0
M  V30 1152 H 111.401 3.79875 4.64559 0
M  V30 1153 H 112.471 3.6025 3.24573 0
M  V30 1154 N 113.814 -1.1601 1.06675 0
M  V30 1155 C 114.746 -2.20115 0.638921 0
M  V30 1156 C 115.759 -1.59916 -0.305057 0
M  V30 1157 O 116.948 -1.78245 -0.0954446 0
M  V30 1158 C 114.048 -3.38798 -0.0830083 0
M  V30 1159 C 113.221 -4.2855 0.875426 0
M  V30 1160 C 112.28 -5.25849 0.192042 0
M  V30 1161 O 111.306 -5.63102 0.830921 0
M  V30 1162 N 112.508 -5.70648 -1.06493 0
M  V30 1163 H 115.273 -2.57439 1.53444 0
M  V30 1164 H 112.834 -1.31057 0.950557 0
M  V30 1165 H 114.826 -4.00936 -0.550685 0
M  V30 1166 H 113.396 -2.99947 -0.880386 0
M  V30 1167 H 112.616 -3.63617 1.52238 0
M  V30 1168 H 113.904 -4.85393 1.52548 0
M  V30 1169 H 113.302 -5.42482 -1.60405 0
M  V30 1170 H 111.859 -6.34859 -1.47641 0
M  V30 1171 N 115.292 -0.849877 -1.32721 0
M  V30 1172 C 116.538 -0.460855 -1.9811 0
M  V30 1173 C 116.893 0.971716 -1.66059 0
M  V30 1174 O 116.186 1.67184 -0.935944 0
M  V30 1175 C 116.38 -0.631272 -3.51781 0
M  V30 1176 C 116.209 -2.07886 -3.98765 0
M  V30 1177 C 114.979 -2.71637 -4.26077 0
M  V30 1178 C 117.177 -3.04889 -4.14182 0
M  V30 1179 N 115.159 -4.07356 -4.59276 0
M  V30 1180 C 116.53 -4.25583 -4.50865 0
M  V30 1181 C 118.585 -3.01148 -3.96503 0
M  V30 1182 C 117.288 -5.43027 -4.71714 0
M  V30 1183 C 119.314 -4.17832 -4.18533 0
M  V30 1184 C 118.676 -5.37284 -4.55528 0
M  V30 1185 H 114.775 -0.217283 -0.751207 0
M  V30 1186 H 117.359 -1.10026 -1.60631 0
M  V30 1187 H 115.53 -0.0215966 -3.88394 0
M  V30 1188 H 117.262 -0.212614 -4.04141 0
M  V30 1189 H 114.017 -2.22705 -4.17971 0
M  V30 1190 H 114.441 -4.77351 -4.80068 0
M  V30 1191 H 119.083 -2.0992 -3.67006 0
M  V30 1192 H 116.801 -6.34791 -5.00066 0
M  V30 1193 H 120.387 -4.16368 -4.06361 0
M  V30 1194 H 119.267 -6.26071 -4.72234 0
M  V30 1195 N 116.77 1.45427 -0.607355 0
M  V30 1196 C 118.019 2.01452 -0.100036 0
M  V30 1197 C 118.332 1.48159 1.27704 0
M  V30 1198 O 119.538 1.96159 1.87707 0
M  V30 1199 C 117.994 3.59672 -0.128158 0
M  V30 1200 C 117.602 4.21962 -1.50507 0
M  V30 1201 C 119.346 4.23262 0.323932 0
M  V30 1202 C 117.253 5.72333 -1.48959 0
M  V30 1203 H 116.183 0.75325 -0.0336299 0
M  V30 1204 H 118.834 1.66901 -0.76265 0
M  V30 1205 H 117.216 3.91411 0.601105 0
M  V30 1206 H 118.39 4.01796 -2.25602 0
M  V30 1207 H 116.705 3.70565 -1.89923 0
M  V30 1208 H 119.302 5.33522 0.354691 0
M  V30 1209 H 119.645 3.93921 1.34656 0
M  V30 1210 H 120.178 3.96239 -0.352056 0
M  V30 1211 H 116.917 6.06373 -2.48981 0
M  V30 1212 H 116.437 5.94691 -0.781214 0
M  V30 1213 H 118.116 6.35525 -1.21313 0
M  V30 1214 N 118.248 0.346503 1.53744 0
M  V30 1215 C 119.664 -0.00530975 1.59599 0
M  V30 1216 C 119.864 -1.48465 1.36236 0
M  V30 1217 O 118.92 -2.24376 1.15808 0
M  V30 1218 C 120.233 0.433516 2.97559 0
M  V30 1219 C 121.781 0.386111 3.10609 0
M  V30 1220 C 122.256 0.800451 4.50951 0
M  V30 1221 N 123.747 0.754753 4.5701 0
M  V30 1222 C 124.482 1.04727 5.63755 0
M  V30 1223 N 123.978 1.4081 6.7834 0
M  V30 1224 N 125.771 0.971316 5.53644 0
M  V30 1225 H 117.922 1.31009 1.67184 0
M  V30 1226 H 120.185 0.534242 0.783128 0
M  V30 1227 H 119.891 1.46509 3.19731 0
M  V30 1228 H 119.765 -0.189753 3.76722 0
M  V30 1229 H 122.152 -0.636295 2.88158 0
M  V30 1230 H 122.233 1.04462 2.33498 0
M  V30 1231 H 121.877 1.82088 4.74137 0
M  V30 1232 H 121.807 0.119386 5.26465 0
M  V30 1233 H 124.298 0.488662 3.74727 0
M  V30 1234 H 124.611 1.61607 7.55714 0
M  V30 1235 H 122.956 1.44657 6.79779 0
M  V30 1236 H 126.147 0.688748 4.63005 0
M  V30 1237 H 126.32 1.20263 6.36742 0
M  V30 1238 N 119.726 -1.57421 0.075193 0
M  V30 1239 C 120.636 -2.1642 -0.905511 0
M  V30 1240 C 121.652 -1.12828 -1.32461 0
M  V30 1241 O 122.828 -1.45109 -1.39661 0
M  V30 1242 C 119.893 -2.71693 -2.15369 0
M  V30 1243 C 118.954 -3.90171 -1.79068 0
M  V30 1244 C 118.187 -4.42798 -2.97936 0
M  V30 1245 O 118.41 -3.94416 -4.12058 0
M  V30 1246 O 117.344 -5.34085 -2.77555 0
M  V30 1247 H 121.17 -3.00588 -0.433626 0
M  V30 1248 H 118.755 -1.48664 -0.148067 0
M  V30 1249 H 120.637 -3.07104 -2.88557 0
M  V30 1250 H 119.312 -1.90582 -2.61649 0
M  V30 1251 H 118.219 -3.59606 -1.03122 0
M  V30 1252 H 119.552 -4.72584 -1.37569 0
M  V30 1253 N 121.204 0.198386 -1.56346 0
M  V30 1254 C 122.45 0.920648 -1.80698 0
M  V30 1255 C 122.783 1.83045 -0.648697 0
M  V30 1256 O 122.058 1.91308 0.350925 0
M  V30 1257 C 122.341 1.73971 -3.15287 0
M  V30 1258 C 122.194 0.85485 -4.41602 0
M  V30 1259 C 123.513 2.71296 -3.46535 0
M  V30 1260 H 120.632 0.333261 -0.657348 0
M  V30 1261 H 123.274 0.188198 -1.89066 0
M  V30 1262 H 121.424 2.36416 -3.08285 0
M  V30 1263 H 123.096 0.245362 -4.60647 0
M  V30 1264 H 121.339 0.161398 -4.335 0
M  V30 1265 H 122.01 1.46286 -5.32264 0
M  V30 1266 H 124.486 2.18983 -3.53816 0
M  V30 1267 H 123.362 3.2569 -4.41834 0
M  V30 1268 H 123.623 3.5018 -2.69864 0
M  V30 1269 N 122.682 1.50554 0.465978 0
M  V30 1270 C 123.91 1.65563 1.24083 0
M  V30 1271 C 124.325 0.341051 1.85694 0
M  V30 1272 O 123.682 -0.677543 1.69457 0
M  V30 1273 C 123.733 2.75051 2.34583 0
M  V30 1274 O 123.454 4.01413 1.75497 0
M  V30 1275 C 124.955 3.01078 3.25372 0
M  V30 1276 H 122.175 0.55638 0.375077 0
M  V30 1277 H 124.719 1.96807 0.555624 0
M  V30 1278 H 122.874 2.46486 2.9887 0
M  V30 1279 H 123.288 4.62002 2.48303 0
M  V30 1280 H 124.762 3.81339 3.99105 0
M  V30 1281 H 125.239 2.12349 3.84453 0
M  V30 1282 H 125.845 3.31194 2.66816 0
M  V30 1283 N 124.16 -0.719506 1.40217 0
M  V30 1284 C 125.408 -1.47641 1.3801 0
M  V30 1285 C 125.729 -1.94992 -0.018145 0
M  V30 1286 O 124.999 -1.70073 -0.972207 0
M  V30 1287 H 123.579 -0.547744 0.507923 0
M  V30 1288 H 126.241 -0.853187 1.75233 0
M  V30 1289 H 125.337 -2.35112 2.05253 0
M  V30 1290 N 125.638 -1.25649 -0.95132 0
M  V30 1291 C 126.868 -1.13179 -1.72841 0
M  V30 1292 C 127.276 0.316827 -1.86528 0
M  V30 1293 O 126.619 1.22948 -1.3649 0
M  V30 1294 C 126.681 -1.71644 -3.15878 0
M  V30 1295 C 126.345 -3.20667 -3.25609 0
M  V30 1296 C 127.342 -4.17616 -3.09666 0
M  V30 1297 C 125.027 -3.6094 -3.49324 0
M  V30 1298 C 127.021 -5.52817 -3.17289 0
M  V30 1299 C 124.708 -4.96278 -3.56584 0
M  V30 1300 C 125.706 -5.92025 -3.40581 0
M  V30 1301 O 125.394 -7.24899 -3.47528 0
M  V30 1302 H 125.126 -0.395389 -0.54831 0
M  V30 1303 H 127.68 -1.66566 -1.20187 0
M  V30 1304 H 125.91 -1.12707 -3.69911 0
M  V30 1305 H 127.599 -1.54225 -3.75459 0
M  V30 1306 H 128.365 -3.87842 -2.91211 0
M  V30 1307 H 124.244 -2.86907 -3.6084 0
M  V30 1308 H 127.788 -6.2753 -3.04716 0
M  V30 1309 H 123.685 -5.25716 -3.74556 0
M  V30 1310 H 124.453 -7.33039 -3.64138 0
M  V30 1311 N 127.117 1.15442 -1.07289 0
M  V30 1312 C 128.363 1.86489 -0.796846 0
M  V30 1313 C 128.696 1.82078 0.675371 0
M  V30 1314 O 127.971 1.24346 1.4956 0
M  V30 1315 C 128.254 3.35626 -1.30489 0
M  V30 1316 C 128.107 3.48673 -2.84161 0
M  V30 1317 C 129.426 4.30357 -0.920907 0
M  V30 1318 H 126.545 0.677144 -0.290939 0
M  V30 1319 H 129.187 1.35633 -1.33056 0
M  V30 1320 H 127.337 3.79068 -0.850883 0
M  V30 1321 H 129.009 3.14099 -3.37846 0
M  V30 1322 H 127.252 2.90253 -3.22391 0
M  V30 1323 H 127.923 4.53453 -3.14777 0
M  V30 1324 H 130.399 3.94871 -1.3121 0
M  V30 1325 H 129.275 5.33193 -1.30372 0
M  V30 1326 H 129.536 4.4176 0.173226 0
M  V30 1327 N 128.595 0.856903 1.32268 0
M  V30 1328 C 129.525 0.31858 2.31316 0
M  V30 1329 C 130.506 -0.583487 1.59779 0
M  V30 1330 O 131.691 -0.503259 1.87566 0
M  V30 1331 C 128.821 -0.491979 3.43798 0
M  V30 1332 C 127.775 0.315849 4.26833 0
M  V30 1333 C 127.101 -0.619586 5.31098 0
M  V30 1334 C 128.401 1.54282 4.98993 0
M  V30 1335 H 130.095 1.14621 2.76591 0
M  V30 1336 H 127.641 0.552613 1.32974 0
M  V30 1337 H 129.594 -0.879012 4.1213 0
M  V30 1338 H 128.318 -1.35299 2.97257 0
M  V30 1339 H 126.977 0.684664 3.6015 0
M  V30 1340 H 126.625 -1.47751 4.8081 0
M  V30 1341 H 126.325 -0.0830621 5.87541 0
M  V30 1342 H 127.849 -1.00375 6.02293 0
M  V30 1343 H 129.263 1.22796 5.59995 0
M  V30 1344 H 127.66 2.01745 5.65172 0
M  V30 1345 H 128.73 2.30285 4.26728 0
M  V30 1346 N 130.073 -1.45103 0.615059 0
M  V30 1347 C 131.319 -2.02483 0.113347 0
M  V30 1348 C 131.652 -1.48146 -1.25564 0
M  V30 1349 O 130.927 -0.659104 -1.82992 0
M  V30 1350 C 131.21 -3.60005 0.0825278 0
M  V30 1351 C 131.063 -4.2466 1.48271 0
M  V30 1352 C 132.382 -4.35972 -0.601401 0
M  V30 1353 H 129.501 -0.735764 0.0426632 0
M  V30 1354 H 132.143 -1.72868 0.788461 0
M  V30 1355 H 130.293 -3.85367 -0.492378 0
M  V30 1356 H 131.965 -4.10458 2.10527 0
M  V30 1357 H 130.208 -3.82772 2.04127 0
M  V30 1358 H 130.879 -5.336 1.41332 0
M  V30 1359 H 133.355 -4.15947 -0.112666 0
M  V30 1360 H 132.231 -5.45697 -0.592097 0
M  V30 1361 H 132.492 -4.09391 -1.66887 0
M  V30 1362 N 131.551 -0.354651 -1.53558 0
M  V30 1363 C 132.514 0.484566 -2.24019 0
M  V30 1364 C 133.514 1.01861 -1.24422 0
M  V30 1365 O 134.704 0.906097 -1.4878 0
M  V30 1366 C 131.836 1.67615 -2.96847 0
M  V30 1367 H 133.029 -0.131843 -2.9961 0
M  V30 1368 H 130.582 -0.106165 -1.55939 0
M  V30 1369 H 131.317 2.33095 -2.25471 0
M  V30 1370 H 131.102 1.30029 -3.69912 0
M  V30 1371 H 132.592 2.27114 -3.50441 0
M  V30 1372 N 133.029 1.57378 -0.0835403 0
M  V30 1373 C 133.962 2.09016 0.915833 0
M  V30 1374 C 134.94 0.997993 1.2837 0
M  V30 1375 O 136.124 1.27219 1.39096 0
M  V30 1376 C 133.251 2.55757 2.22049 0
M  V30 1377 C 132.297 3.76522 2.00333 0
M  V30 1378 S 133.13 5.20661 1.25191 0
M  V30 1379 C 134.286 5.70743 2.56912 0
M  V30 1380 H 134.519 2.93457 0.476492 0
M  V30 1381 H 132.052 1.53856 0.129493 0
M  V30 1382 H 134.01 2.83346 2.97027 0
M  V30 1383 H 132.671 1.71564 2.63106 0
M  V30 1384 H 131.864 4.07256 2.96916 0
M  V30 1385 H 131.466 3.49367 1.33488 0
M  V30 1386 H 133.758 5.78304 3.52946 0
M  V30 1387 H 134.701 6.6944 2.30772 0
M  V30 1388 H 135.109 4.98616 2.64655 0
M  V30 1389 N 134.507 -0.190092 1.56449 0
M  V30 1390 C 135.455 -1.25501 1.95837 0
M  V30 1391 C 136.449 -1.4685 0.844485 0
M  V30 1392 O 137.655 -1.47651 1.02952 0
M  V30 1393 H 134.03 -0.421447 0.622805 0
M  V30 1394 H 136.001 -0.895821 2.84636 0
M  V30 1395 C 134.75 -2.59124 2.31841 0
M  V30 1396 H 134.073 -2.43514 3.17082 0
M  V30 1397 H 135.513 -3.32371 2.6326 0
M  V30 1398 C 133.972 -3.16488 1.15486 0
M  V30 1399 O 134.502 -3.99365 0.432535 0
M  V30 1400 N 132.708 -2.75305 0.930349 0
M  V30 1401 H 132.255 -2.08013 1.51948 0
M  V30 1402 H 132.213 -3.14024 0.153634 0
M  V30 1403 N 135.985 -1.50799 -0.457987 0
M  V30 1404 C 136.895 -1.73426 -1.57989 0
M  V30 1405 C 137.911 -0.617745 -1.62665 0
M  V30 1406 O 139.087 -0.897614 -1.80291 0
M  V30 1407 C 136.152 -1.83557 -2.94122 0
M  V30 1408 C 135.213 -3.07345 -2.99729 0
M  V30 1409 C 134.446 -3.16983 -4.29368 0
M  V30 1410 O 134.669 -2.33077 -5.20607 0
M  V30 1411 O 133.603 -4.09812 -4.40837 0
M  V30 1412 H 137.429 -2.68555 -1.41817 0
M  V30 1413 H 135.014 -1.35052 -0.638859 0
M  V30 1414 H 136.896 -1.92326 -3.74952 0
M  V30 1415 H 135.571 -0.916137 -3.10465 0
M  V30 1416 H 134.478 -3.04068 -2.1793 0
M  V30 1417 H 135.811 -3.9891 -2.88326 0
M  V30 1418 N 137.463 0.71206 -1.40597 0
M  V30 1419 C 138.71 1.47197 -1.39065 0
M  V30 1420 C 139.038 1.94499 0.00583891 0
M  V30 1421 O 138.293 1.68752 0.99102 0
M  V30 1422 C 138.592 2.71039 -2.32965 0
M  V30 1423 C 138.258 2.42484 -3.80148 0
M  V30 1424 C 136.92 2.34406 -4.20247 0
M  V30 1425 C 139.272 2.18598 -4.73143 0
M  V30 1426 C 136.6 2.00516 -5.51371 0
M  V30 1427 C 138.952 1.8622 -6.0457 0
M  V30 1428 C 137.616 1.76626 -6.43708 0
M  V30 1429 H 136.886 0.538634 -0.508876 0
M  V30 1430 H 139.533 0.815325 -1.73276 0
M  V30 1431 H 137.838 3.41558 -1.91951 0
M  V30 1432 H 139.535 3.29138 -2.29061 0
M  V30 1433 H 136.125 2.49659 -3.4838 0
M  V30 1434 H 140.309 2.23793 -4.42979 0
M  V30 1435 H 135.565 1.91628 -5.80593 0
M  V30 1436 H 139.739 1.66752 -6.76141 0
M  V30 1437 H 137.366 1.50133 -7.45228 0
M  V30 1438 N 138.941 1.26152 0.944643 0
M  V30 1439 C 140.166 1.14363 1.7302 0
M  V30 1440 C 140.591 -0.29772 1.85729 0
M  V30 1441 O 139.949 -1.2157 1.34501 0
M  V30 1442 C 139.997 1.81378 3.11664 0
M  V30 1443 O 139.101 1.10022 3.97453 0
M  V30 1444 H 138.442 0.398694 0.53098 0
M  V30 1445 H 140.972 1.66906 1.18337 0
M  V30 1446 H 140.982 1.88064 3.62072 0
M  V30 1447 H 139.657 2.86237 3.0173 0
M  V30 1448 H 138.234 1.11287 3.55907 0
M  V30 1449 N 140.419 -1.14872 1.07899 0
M  V30 1450 C 141.647 -1.89661 0.82683 0
M  V30 1451 C 142.062 -1.78312 -0.620519 0
M  V30 1452 O 141.419 -1.13888 -1.42604 0
M  V30 1453 C 141.47 -3.39817 1.23316 0
M  V30 1454 O 141.191 -3.50845 2.62372 0
M  V30 1455 C 142.692 -4.31615 1.0111 0
M  V30 1456 H 139.912 -0.60092 0.298557 0
M  V30 1457 H 142.456 -1.4551 1.43691 0
M  V30 1458 H 140.611 -3.8161 0.667286 0
M  V30 1459 H 141.025 -4.44076 2.79101 0
M  V30 1460 H 142.499 -5.35367 1.34486 0
M  V30 1461 H 142.976 -4.39169 -0.0522168 0
M  V30 1462 H 143.582 -3.95572 1.56215 0
M  V30 1463 N 141.898 -0.863906 -1.31812 0
M  V30 1464 C 142.828 -0.330843 -2.31144 0
M  V30 1465 C 143.809 0.575005 -1.60087 0
M  V30 1466 O 144.994 0.493304 -1.8783 0
M  V30 1467 C 142.124 0.47374 -3.44054 0
M  V30 1468 C 141.078 -0.338481 -4.26659 0
M  V30 1469 C 140.404 0.591412 -5.31419 0
M  V30 1470 C 141.704 -1.56926 -4.98168 0
M  V30 1471 H 143.398 -1.16086 -2.75979 0
M  V30 1472 H 140.944 -0.559657 -1.32679 0
M  V30 1473 H 142.897 0.857143 -4.12591 0
M  V30 1474 H 141.621 1.33721 -2.9797 0
M  V30 1475 H 140.28 -0.703754 -3.59782 0
M  V30 1476 H 139.928 1.45199 -4.81587 0
M  V30 1477 H 139.628 0.0519022 -5.87577 0
M  V30 1478 H 141.152 0.97179 -6.02817 0
M  V30 1479 H 142.566 -1.25764 -5.59336 0
M  V30 1480 H 140.963 -2.04739 -5.64094 0
M  V30 1481 H 142.033 -2.32544 -4.25501 0
M  V30 1482 N 143.376 1.44774 -0.622745 0
M  V30 1483 C 144.787 1.85546 -0.207226 0
M  V30 1484 C 145.138 1.52093 1.23944 0
M  V30 1485 O 144.263 0.95492 1.94191 0
M  V30 1486 C 144.858 3.36781 -0.369313 0
M  V30 1487 C 143.417 3.76399 -0.00836847 0
M  V30 1488 C 142.564 2.68664 -0.686651 0
M  V30 1489 H 145.515 1.3536 -0.828454 0
M  V30 1490 H 145.536 3.78453 0.394162 0
M  V30 1491 H 145.048 3.61098 -1.42231 0
M  V30 1492 H 143.149 3.57698 1.04322 0
M  V30 1493 H 143.262 4.7732 -0.412584 0
M  V30 1494 H 141.626 2.54404 -0.122777 0
M  V30 1495 H 142.409 2.95815 -1.74208 0
M  V30 1496 N 144.854 0.36279 1.53368 0
M  V30 1497 C 145.784 -0.476976 2.28576 0
M  V30 1498 C 146.765 -1.08631 1.30894 0
M  V30 1499 O 147.95 -1.10409 1.59761 0
M  V30 1500 C 145.08 -1.61828 3.07293 0
M  V30 1501 C 144.034 -1.13633 4.1264 0
M  V30 1502 C 143.36 -2.36766 4.79423 0
M  V30 1503 C 144.66 -0.223061 5.21823 0
M  V30 1504 H 146.354 0.150474 2.99022 0
M  V30 1505 H 143.9 0.0738103 1.43811 0
M  V30 1506 H 145.853 -2.21237 3.58653 0
M  V30 1507 H 144.577 -2.27292 2.34533 0
M  V30 1508 H 143.236 -0.564945 3.62221 0
M  V30 1509 H 142.884 -3.0068 4.03238 0
M  V30 1510 H 142.584 -2.05192 5.50609 0
M  V30 1511 H 144.108 -2.96865 5.33576 0
M  V30 1512 H 145.522 -0.724545 5.68703 0
M  V30 1513 H 143.919 0.001678 6.001 0
M  V30 1514 H 144.989 0.735553 4.79289 0
M  V30 1515 N 146.332 -1.57332 0.0918853 0
M  V30 1516 C 147.743 -1.81496 -0.437739 0
M  V30 1517 C 148.094 -1.00727 -1.6837 0
M  V30 1518 O 147.219 -0.235694 -2.15113 0
M  V30 1519 C 147.814 -3.29197 -0.800939 0
M  V30 1520 C 146.373 -3.54136 -1.27532 0
M  V30 1521 C 145.52 -2.75979 -0.270392 0
M  V30 1522 H 148.471 -1.55494 0.317366 0
M  V30 1523 H 148.492 -3.42344 -1.66074 0
M  V30 1524 H 148.004 -3.87955 0.106078 0
M  V30 1525 H 146.105 -3.00705 -2.20016 0
M  V30 1526 H 146.218 -4.62792 -1.23938 0
M  V30 1527 H 144.582 -2.43349 -0.751872 0
M  V30 1528 H 145.365 -3.37484 0.629248 0
M  V30 1529 N 147.81 0.181792 -1.56548 0
M  V30 1530 C 148.758 1.24461 -1.965 0
M  V30 1531 C 149.752 1.464 -0.852261 0
M  V30 1532 O 150.958 1.47103 -1.03733 0
M  V30 1533 H 147.333 0.418138 -0.625031 0
M  V30 1534 H 149.304 0.880714 -2.85107 0
M  V30 1535 C 148.053 2.57891 -2.33212 0
M  V30 1536 H 147.376 2.41829 -3.18369 0
M  V30 1537 H 148.816 3.3097 -2.65019 0
M  V30 1538 C 147.275 3.15871 -1.17163 0
M  V30 1539 O 147.805 3.9913 -0.453708 0
M  V30 1540 N 146.011 2.74808 -0.944936 0
M  V30 1541 H 145.558 2.07205 -1.53049 0
M  V30 1542 H 145.516 3.13939 -0.170286 0
M  V30 1543 N 149.288 1.51039 0.449983 0
M  V30 1544 C 150.218 1.74379 1.55288 0
M  V30 1545 C 151.199 0.593236 1.5942 0
M  V30 1546 O 152.384 0.834625 1.7535 0
M  V30 1547 C 149.514 1.85728 2.93466 0
M  V30 1548 C 148.468 3.01078 3.04197 0
M  V30 1549 C 147.794 2.97595 4.44231 0
M  V30 1550 C 149.094 4.41254 2.7945 0
M  V30 1551 H 150.788 2.66725 1.36008 0
M  V30 1552 H 148.334 1.2835 0.652864 0
M  V30 1553 H 150.287 2.0064 3.70569 0
M  V30 1554 H 149.011 0.900207 3.13949 0
M  V30 1555 H 147.67 2.85851 2.29531 0
M  V30 1556 H 147.318 1.99691 4.61663 0
M  V30 1557 H 147.018 3.75046 4.52343 0
M  V30 1558 H 148.542 3.14583 5.23326 0
M  V30 1559 H 149.956 4.56897 3.46292 0
M  V30 1560 H 148.353 5.20315 2.98985 0
M  V30 1561 H 149.423 4.52164 1.75144 0
M  V30 1562 N 150.766 -0.704594 1.40972 0
M  V30 1563 C 152.182 -1.01406 1.23244 0
M  V30 1564 C 152.382 -2.01169 0.115399 0
M  V30 1565 O 151.438 -2.47021 -0.523147 0
M  V30 1566 C 152.751 -1.54728 2.57836 0
M  V30 1567 C 154.299 -1.66658 2.64942 0
M  V30 1568 C 154.774 -2.23383 3.9983 0
M  V30 1569 N 156.265 -2.30756 4.01629 0
M  V30 1570 C 157 -2.75655 5.02794 0
M  V30 1571 N 156.496 -3.20225 6.14352 0
M  V30 1572 N 158.289 -2.75138 4.90159 0
M  V30 1573 H 150.44 -0.0435285 2.12355 0
M  V30 1574 H 152.703 -0.0818951 0.944456 0
M  V30 1575 H 152.409 -0.888832 3.40283 0
M  V30 1576 H 152.283 -2.53084 2.79693 0
M  V30 1577 H 154.67 -2.31617 1.8286 0
M  V30 1578 H 154.751 -0.668717 2.46904 0
M  V30 1579 H 154.395 -1.59043 4.82357 0
M  V30 1580 H 154.325 -3.23904 4.15203 0
M  V30 1581 H 156.816 -1.99291 3.21079 0
M  V30 1582 H 157.129 -3.53084 6.87424 0
M  V30 1583 H 155.474 -3.18156 6.17901 0
M  V30 1584 H 158.665 -2.39661 4.02095 0
M  V30 1585 H 158.838 -3.09812 5.6914 0
M  V30 1586 N 152.244 -1.26651 -0.937939 0
M  V30 1587 C 153.49 -1.12553 -1.687 0
M  V30 1588 C 153.823 0.329782 -1.91379 0
M  V30 1589 O 153.098 1.24202 -1.4968 0
M  V30 1590 C 153.381 -1.89862 -3.05981 0
M  V30 1591 C 153.234 -3.43318 -2.90607 0
M  V30 1592 C 154.553 -1.69499 -4.0615 0
M  V30 1593 H 151.672 -0.410257 -0.612257 0
M  V30 1594 H 154.314 -1.55685 -1.08913 0
M  V30 1595 H 152.464 -1.53204 -3.57017 0
M  V30 1596 H 154.136 -3.89747 -2.46769 0
M  V30 1597 H 152.379 -3.70179 -2.26164 0
M  V30 1598 H 153.05 -3.92642 -3.8799 0
M  V30 1599 H 155.526 -2.01442 -3.64088 0
M  V30 1600 H 154.402 -2.26002 -5.00214 0
M  V30 1601 H 154.663 -0.640365 -4.37438 0
M  V30 1602 N 153.722 1.14298 -1.08507 0
M  V30 1603 C 154.968 1.85633 -0.816581 0
M  V30 1604 C 155.301 1.82784 0.656021 0
M  V30 1605 O 154.576 1.25926 1.48233 0
M  V30 1606 C 154.859 3.34223 -1.34041 0
M  V30 1607 C 154.712 3.45639 -2.87843 0
M  V30 1608 C 156.031 4.29356 -0.9665 0
M  V30 1609 H 153.15 0.67402 -0.298104 0
M  V30 1610 H 155.792 1.34214 -1.34487 0
M  V30 1611 H 153.942 3.78144 -0.89104 0
M  V30 1612 H 155.614 3.10498 -3.41158 0
M  V30 1613 H 153.857 2.86817 -3.25451 0
M  V30 1614 H 154.528 4.50089 -3.19569 0
M  V30 1615 H 157.004 3.93457 -1.35391 0
M  V30 1616 H 155.88 5.3178 -1.3602 0
M  V30 1617 H 156.141 4.41919 0.126362 0
M  V30 1618 N 155.201 0.870884 1.31352 0
M  V30 1619 C 156.617 0.562932 1.49343 0
M  V30 1620 C 156.817 -0.902725 1.80148 0
M  V30 1621 O 155.873 -1.68484 1.88067 0
M  V30 1622 C 157.186 1.46393 2.62659 0
M  V30 1623 C 158.734 1.46607 2.76542 0
M  V30 1624 C 159.209 2.35266 3.92955 0
M  V30 1625 N 160.7 2.33151 4.00243 0
M  V30 1626 C 161.435 2.98471 4.89594 0
M  V30 1627 N 160.931 3.72964 5.8384 0
M  V30 1628 N 162.724 2.87775 4.82848 0
M  V30 1629 H 154.875 1.81923 1.09626 0
M  V30 1630 H 157.138 0.777934 0.541777 0
M  V30 1631 H 156.844 2.50689 2.46674 0
M  V30 1632 H 156.718 1.16314 3.58819 0
M  V30 1633 H 159.105 0.43069 2.9194 0
M  V30 1634 H 159.186 1.8071 1.81046 0
M  V30 1635 H 158.83 3.38881 3.78315 0
M  V30 1636 H 158.76 1.98487 4.87761 0
M  V30 1637 H 161.251 1.79006 3.32814 0
M  V30 1638 H 161.564 4.19932 6.4875 0
M  V30 1639 H 159.909 3.77073 5.83816 0
M  V30 1640 H 163.1 2.29116 4.08195 0
M  V30 1641 H 163.273 3.38961 5.52277 0
M  V30 1642 N 156.679 -1.44442 0.630414 0
M  V30 1643 C 157.927 -2.01653 0.134351 0
M  V30 1644 C 158.248 -1.49836 -1.24796 0
M  V30 1645 O 157.518 -0.701684 -1.82902 0
M  V30 1646 H 156.098 -0.74554 0.0466769 0
M  V30 1647 H 158.76 -1.76952 0.816955 0
M  V30 1648 H 157.856 -3.11935 0.101498 0
M  V30 1649 N 158.157 -0.370918 -1.53173 0
M  V30 1650 C 159.385 0.217704 -2.05751 0
M  V30 1651 C 159.8 1.42018 -1.24404 0
M  V30 1652 O 159.157 1.80245 -0.286033 0
M  V30 1653 C 159.208 0.605954 -3.56385 0
M  V30 1654 O 158.929 -0.548734 -4.3465 0
M  V30 1655 C 160.43 1.2524 -4.25241 0
M  V30 1656 H 157.65 0.0371659 -0.66997 0
M  V30 1657 H 160.194 -0.530832 -1.9749 0
M  V30 1658 H 158.349 1.3044 -3.6478 0
M  V30 1659 H 158.763 -0.23376 -5.23979 0
M  V30 1660 H 160.237 1.47458 -5.3194 0
M  V30 1661 H 160.714 2.2143 -3.79296 0
M  V30 1662 H 161.32 0.595233 -4.21114 0
M  V30 1663 N 159.635 1.57281 -0.100228 0
M  V30 1664 C 160.567 2.11342 0.886972 0
M  V30 1665 C 161.58 1.05182 1.24261 0
M  V30 1666 O 162.769 1.32613 1.19483 0
M  V30 1667 C 159.869 2.5825 2.19454 0
M  V30 1668 C 159.042 3.88302 2.01346 0
M  V30 1669 C 158.101 4.21004 3.15661 0
M  V30 1670 O 157.127 4.9014 2.89398 0
M  V30 1671 N 158.329 3.76818 4.41575 0
M  V30 1672 H 161.094 2.96668 0.425216 0
M  V30 1673 H 158.655 1.61678 0.0847334 0
M  V30 1674 H 160.647 2.7717 2.94888 0
M  V30 1675 H 159.217 1.77907 2.57037 0
M  V30 1676 H 158.437 3.7848 1.10212 0
M  V30 1677 H 159.725 4.73375 1.8653 0
M  V30 1678 H 159.123 3.2102 4.65792 0
M  V30 1679 H 157.68 4.00882 5.13942 0
M  V30 1680 N 161.113 -0.173488 1.56642 0
M  V30 1681 C 162.359 -0.891784 1.8214 0
M  V30 1682 C 162.692 -1.8199 0.677736 0
M  V30 1683 O 161.967 -1.91842 -0.320446 0
M  V30 1684 C 162.25 -1.68933 3.18015 0
M  V30 1685 C 162.103 -0.784487 4.42906 0
M  V30 1686 C 163.422 -2.65748 3.50808 0
M  V30 1687 H 160.541 -0.322761 0.662567 0
M  V30 1688 H 163.183 -0.158095 1.89341 0
M  V30 1689 H 161.333 -2.31482 3.12007 0
M  V30 1690 H 163.005 -0.172046 4.60979 0
M  V30 1691 H 161.248 -0.0924117 4.33702 0
M  V30 1692 H 161.919 -1.37799 5.34524 0
M  V30 1693 H 164.395 -2.13327 3.57255 0
M  V30 1694 H 163.271 -3.18619 4.4696 0
M  V30 1695 H 163.532 -3.45842 2.75401 0
M  V30 1696 N 162.591 -1.51276 -0.441967 0
M  V30 1697 C 163.821 -1.67273 -1.21257 0
M  V30 1698 C 164.229 -0.367624 -1.85594 0
M  V30 1699 O 163.572 0.663349 -1.71305 0
M  V30 1700 C 163.634 -2.72807 -2.34129 0
M  V30 1701 C 163.298 -4.1554 -1.90198 0
M  V30 1702 C 164.295 -5.00471 -1.40801 0
M  V30 1703 C 161.98 -4.61616 -1.9803 0
M  V30 1704 C 163.974 -6.29536 -0.998174 0
M  V30 1705 C 161.661 -5.90679 -1.56658 0
M  V30 1706 C 162.659 -6.74466 -1.07633 0
M  V30 1707 O 162.347 -8.01116 -0.668459 0
M  V30 1708 H 162.079 -0.564614 -0.371734 0
M  V30 1709 H 164.633 -1.9843 -0.530521 0
M  V30 1710 H 162.863 -2.36954 -3.05597 0
M  V30 1711 H 164.552 -2.77729 -2.96009 0
M  V30 1712 H 165.318 -4.66079 -1.34148 0
M  V30 1713 H 161.197 -3.96526 -2.35135 0
M  V30 1714 H 164.741 -6.94885 -0.61482 0
M  V30 1715 H 160.638 -6.24586 -1.62979 0
M  V30 1716 H 161.406 -8.14633 -0.794722 0
M  V30 1717 N 164.069 0.697108 -1.41344 0
M  V30 1718 C 165.346 1.45154 -1.31109 0
M  V30 1719 C 165.726 2.11009 0.0620449 0
M  V30 1720 O 165.074 2.01571 1.07618 0
M  V30 1721 C 165.284 2.47223 -2.46337 0
M  V30 1722 C 166.632 3.1252 -2.87431 0
M  V30 1723 O 167.656 2.57547 -2.46065 0
M  V30 1724 O 166.515 4.12083 -3.58957 0
M  V30 1725 H 163.609 0.646365 -0.515889 0
M  V30 1726 H 166.155 0.727716 -1.53305 0
M  V30 1727 H 164.927 1.97204 -3.37974 0
M  V30 1728 H 164.55 3.27116 -2.2601 0
M  V30 1729 N 165.547 1.27147 0.931209 0
M  V30 1730 C 166.795 1.13055 1.6752 0
M  V30 1731 C 167.116 -0.324791 1.92276 0
M  V30 1732 O 166.386 -1.22775 1.52654 0
M  V30 1733 H 164.966 0.415391 0.620854 0
M  V30 1734 H 167.628 1.59623 1.11833 0
M  V30 1735 H 166.724 1.65694 2.64485 0
M  V30 1736 N 167.025 -1.13721 1.09112 0
M  V30 1737 C 167.972 -2.19031 0.727591 0
M  V30 1738 C 168.942 -1.63555 -0.289656 0
M  V30 1739 O 170.127 -1.90023 -0.172026 0
M  V30 1740 C 167.267 -3.4477 0.15082 0
M  V30 1741 C 166.38 -4.14365 1.22172 0
M  V30 1742 C 165.515 -5.27709 0.608042 0
M  V30 1743 C 164.554 -5.89147 1.66047 0
M  V30 1744 N 163.691 -6.93929 1.06806 0
M  V30 1745 H 168.531 -2.49475 1.62991 0
M  V30 1746 H 166.068 -1.22499 0.81439 0
M  V30 1747 H 168.026 -4.16714 -0.201358 0
M  V30 1748 H 166.656 -3.14787 -0.714783 0
M  V30 1749 H 165.708 -3.40737 1.69122 0
M  V30 1750 H 167.02 -4.56114 2.01895 0
M  V30 1751 H 166.174 -6.06355 0.204523 0
M  V30 1752 H 164.913 -4.872 -0.220769 0
M  V30 1753 H 163.918 -5.09198 2.07357 0
M  V30 1754 H 165.143 -6.31729 2.49189 0
M  V30 1755 H 163.089 -6.55483 0.260476 0
M  V30 1756 H 163.006 -7.34202 1.8023 0
M  V30 1757 H 164.274 -7.76434 0.690644 0
M  V30 1758 N 168.503 -0.877838 -1.30888 0
M  V30 1759 C 169.75 -0.492696 -1.96415 0
M  V30 1760 C 170.078 0.956671 -1.69346 0
M  V30 1761 O 169.333 1.68993 -0.986913 0
M  V30 1762 C 169.632 -0.705748 -3.50363 0
M  V30 1763 C 169.298 -2.1291 -3.97467 0
M  V30 1764 C 167.96 -2.51834 -4.1004 0
M  V30 1765 C 170.312 -3.05702 -4.22132 0
M  V30 1766 C 167.64 -3.82775 -4.44635 0
M  V30 1767 C 169.992 -4.36166 -4.58194 0
M  V30 1768 C 168.656 -4.74993 -4.68975 0
M  V30 1769 H 167.926 -0.18029 -0.718733 0
M  V30 1770 H 170.573 -1.11233 -1.55883 0
M  V30 1771 H 168.878 -0.00303058 -3.918 0
M  V30 1772 H 170.575 -0.387456 -3.99124 0
M  V30 1773 H 167.165 -1.81694 -3.88182 0
M  V30 1774 H 171.349 -2.76853 -4.11906 0
M  V30 1775 H 166.605 -4.12609 -4.51181 0
M  V30 1776 H 170.779 -5.08111 -4.76231 0
M  V30 1777 H 168.406 -5.76495 -4.95537 0
M  V30 1778 N 169.982 1.44106 -0.638065 0
M  V30 1779 C 170.945 2.29138 0.0531013 0
M  V30 1780 C 171.945 1.41409 0.765506 0
M  V30 1781 O 173.135 1.63206 0.609046 0
M  V30 1782 C 170.267 3.23144 1.08584 0
M  V30 1783 H 171.46 2.91739 -0.694883 0
M  V30 1784 H 169.013 1.51134 -0.398538 0
M  V30 1785 H 169.748 2.65408 1.86357 0
M  V30 1786 H 169.533 3.87804 0.578852 0
M  V30 1787 H 171.023 3.87004 1.56899 0
M  V30 1788 N 171.46 0.379036 1.52974 0
M  V30 1789 C 172.709 -0.207612 2.00629 0
M  V30 1790 C 173.022 -1.48758 1.27006 0
M  V30 1791 O 174.228 -2.15365 1.65318 0
M  V30 1792 C 172.684 -0.42053 3.57435 0
M  V30 1793 C 172.292 0.845587 4.39948 0
M  V30 1794 C 174.036 -0.964102 4.13407 0
M  V30 1795 C 171.943 0.601513 5.88333 0
M  V30 1796 H 170.873 -0.0813591 0.749598 0
M  V30 1797 H 173.524 0.499853 1.76561 0
M  V30 1798 H 171.906 -1.18959 3.7771 0
M  V30 1799 H 173.08 1.61848 4.31442 0
M  V30 1800 H 171.395 1.31336 3.95145 0
M  V30 1801 H 173.992 -1.16225 5.21916 0
M  V30 1802 H 174.335 -1.93019 3.68849 0
M  V30 1803 H 174.868 -0.25487 3.96983 0
M  V30 1804 H 171.607 1.53831 6.37194 0
M  V30 1805 H 171.127 -0.132628 5.99653 0
M  V30 1806 H 172.806 0.232134 6.46583 0
M  V30 1807 N 172.938 -1.57226 0.108567 0
M  V30 1808 C 174.185 -1.94833 -0.551943 0
M  V30 1809 C 174.513 -0.991204 -1.67348 0
M  V30 1810 O 173.768 -0.0131878 -1.95696 0
M  V30 1811 C 174.067 -3.38911 -1.13463 0
M  V30 1812 C 173.733 -4.50696 -0.135509 0
M  V30 1813 C 172.395 -4.80998 0.139252 0
M  V30 1814 C 174.747 -5.18333 0.545957 0
M  V30 1815 C 172.075 -5.76259 1.10194 0
M  V30 1816 C 174.427 -6.14627 1.49721 0
M  V30 1817 C 173.091 -6.43327 1.78006 0
M  V30 1818 H 172.361 -0.712944 -0.20197 0
M  V30 1819 H 175.008 -1.90582 0.18726 0
M  V30 1820 H 173.313 -3.39805 -1.95037 0
M  V30 1821 H 175.01 -3.65317 -1.65362 0
M  V30 1822 H 171.6 -4.27087 -0.359846 0
M  V30 1823 H 175.784 -4.95087 0.346842 0
M  V30 1824 H 171.04 -5.96804 1.32795 0
M  V30 1825 H 175.214 -6.66126 2.03099 0
M  V30 1826 H 172.841 -7.1695 2.52759 0
M  V30 1827 N 174.416 0.165178 -1.56732 0
M  V30 1828 C 175.662 0.882112 -1.82611 0
M  V30 1829 C 175.995 1.81628 -0.687378 0
M  V30 1830 O 175.27 1.92009 0.310267 0
M  V30 1831 C 175.553 1.67245 -3.18906 0
M  V30 1832 C 175.406 0.760987 -4.43316 0
M  V30 1833 C 176.725 2.63884 -3.52212 0
M  V30 1834 H 173.844 0.319242 -0.664269 0
M  V30 1835 H 176.486 0.148052 -1.89422 0
M  V30 1836 H 174.636 2.29824 -3.1323 0
M  V30 1837 H 176.308 0.147596 -4.61064 0
M  V30 1838 H 174.551 0.0694102 -4.33744 0
M  V30 1839 H 175.222 1.34962 -5.35247 0
M  V30 1840 H 177.698 2.11429 -3.58381 0
M  V30 1841 H 176.574 3.16245 -4.48643 0
M  V30 1842 H 176.835 3.44377 -2.77231 0
M  V30 1843 N 175.894 1.51508 0.433938 0
M  V30 1844 C 176.827 1.67756 1.54704 0
M  V30 1845 C 177.805 0.525127 1.53887 0
M  V30 1846 O 178.989 0.749393 1.72963 0
M  V30 1847 C 176.116 1.69424 2.9328 0
M  V30 1848 C 175.162 2.90673 3.12108 0
M  V30 1849 S 175.995 4.51431 2.88046 0
M  V30 1850 C 177.151 4.55849 4.28897 0
M  V30 1851 H 177.384 2.61904 1.40689 0
M  V30 1852 H 174.917 1.41235 0.62386 0
M  V30 1853 H 176.875 1.7107 3.73156 0
M  V30 1854 H 175.536 0.764464 3.04655 0
M  V30 1855 H 174.729 2.88251 4.13434 0
M  V30 1856 H 174.331 2.86786 2.40062 0
M  V30 1857 H 176.623 4.31699 5.22152 0
M  V30 1858 H 177.566 5.57676 4.36351 0
M  V30 1859 H 177.974 3.85137 4.12711 0
M  V30 1860 N 177.372 -0.689602 1.41712 0
M  V30 1861 C 178.302 -1.81577 1.46806 0
M  V30 1862 C 179.283 -1.66945 0.326105 0
M  V30 1863 O 180.468 -1.86588 0.538377 0
M  V30 1864 C 177.598 -3.19762 1.35535 0
M  V30 1865 C 176.552 -3.49107 2.47605 0
M  V30 1866 C 175.878 -4.86711 2.21397 0
M  V30 1867 C 177.178 -3.47483 3.89939 0
M  V30 1868 H 178.872 -1.7757 2.41058 0
M  V30 1869 H 176.418 -0.852887 1.16025 0
M  V30 1870 H 178.371 -3.98263 1.3771 0
M  V30 1871 H 177.095 -3.24409 0.377708 0
M  V30 1872 H 175.754 -2.72959 2.44722 0
M  V30 1873 H 175.402 -4.8799 1.21961 0
M  V30 1874 H 175.102 -5.0731 2.96497 0
M  V30 1875 H 176.626 -5.67515 2.25297 0
M  V30 1876 H 178.04 -4.1598 3.94505 0
M  V30 1877 H 176.437 -3.79615 4.64771 0
M  V30 1878 H 177.507 -2.46341 4.17665 0
M  V30 1879 N 178.85 -1.27639 -0.924453 0
M  V30 1880 C 179.798 -1.10485 -2.04685 0
M  V30 1881 C 180.792 -0.0270421 -1.69378 0
M  V30 1882 O 181.998 -0.185008 -1.79047 0
M  V30 1883 H 178.373 -0.340546 -0.670472 0
M  V30 1884 H 180.344 -2.05566 -2.16298 0
M  V30 1885 C 179.093 -0.772229 -3.39016 0
M  V30 1886 H 178.416 -1.59351 -3.66671 0
M  V30 1887 H 179.856 -0.692097 -4.18313 0
M  V30 1888 C 178.315 0.523554 -3.32807 0
M  V30 1889 O 178.845 1.55702 -3.70297 0
M  V30 1890 N 177.051 0.520363 -2.85903 0
M  V30 1891 H 176.598 -0.32107 -2.55591 0
M  V30 1892 H 176.556 1.38742 -2.82131 0
M  V30 1893 N 180.328 1.1314 -1.09713 0
M  V30 1894 C 181.558 1.88048 -0.855656 0
M  V30 1895 C 181.966 1.79537 0.596919 0
M  V30 1896 O 181.309 1.16196 1.42282 0
M  V30 1897 C 181.371 3.38314 -1.21589 0
M  V30 1898 C 181.035 3.70605 -2.67397 0
M  V30 1899 C 182.032 3.69596 -3.65643 0
M  V30 1900 C 179.717 4.0017 -3.03593 0
M  V30 1901 C 181.711 3.977 -4.9811 0
M  V30 1902 C 179.398 4.27935 -4.36251 0
M  V30 1903 C 180.396 4.26685 -5.33318 0
M  V30 1904 O 180.084 4.53767 -6.63589 0
M  V30 1905 H 179.816 0.60208 -0.307368 0
M  V30 1906 H 182.37 1.44128 -1.46343 0
M  V30 1907 H 180.6 3.82752 -0.551177 0
M  V30 1908 H 182.289 3.94552 -0.953083 0
M  V30 1909 H 183.055 3.46826 -3.39023 0
M  V30 1910 H 178.934 4.00289 -2.2867 0
M  V30 1911 H 182.478 3.9664 -5.73866 0
M  V30 1912 H 178.375 4.50178 -4.62613 0
M  V30 1913 H 179.143 4.71422 -6.69107 0
M  V30 1914 N 181.806 0.884767 1.30421 0
M  V30 1915 C 182.754 0.340869 2.30089 0
M  V30 1916 C 183.748 -0.55201 1.60154 0
M  V30 1917 O 184.954 -0.436467 1.74628 0
M  V30 1918 H 181.329 0.0915739 0.746404 0
M  V30 1919 H 183.3 1.19513 2.73421 0
M  V30 1920 C 182.049 -0.429779 3.45034 0
M  V30 1921 H 181.372 0.248024 3.9903 0
M  V30 1922 H 182.812 -0.775445 4.16849 0
M  V30 1923 C 181.271 -1.62677 2.95022 0
M  V30 1924 O 181.801 -2.72614 2.95033 0
M  V30 1925 N 180.007 -1.46387 2.51036 0
M  V30 1926 H 179.554 -0.569506 2.51226 0
M  V30 1927 H 179.512 -2.26612 2.17932 0
M  V30 1928 N 183.284 -1.43765 0.645699 0
M  V30 1929 C 184.512 -2.06253 0.163556 0
M  V30 1930 C 184.927 -1.48352 -1.16778 0
M  V30 1931 O 184.284 -0.611932 -1.71935 0
M  V30 1932 C 184.335 -3.61453 0.0583186 0
M  V30 1933 O 184.056 -4.172 1.33702 0
M  V30 1934 C 185.557 -4.41002 -0.450795 0
M  V30 1935 H 182.777 -0.665413 0.0864077 0
M  V30 1936 H 185.321 -1.84396 0.884222 0
M  V30 1937 H 183.476 -3.82522 -0.612865 0
M  V30 1938 H 183.89 -5.10791 1.19131 0
M  V30 1939 H 185.364 -5.49966 -0.473403 0
M  V30 1940 H 185.841 -4.13488 -1.48068 0
M  V30 1941 H 186.447 -4.24886 0.187637 0
M  V30 1942 N 184.763 -0.387143 -1.52771 0
M  V30 1943 C 185.711 0.463953 -2.27926 0
M  V30 1944 C 186.705 1.06493 -1.31741 0
M  V30 1945 O 187.911 1.00565 -1.49287 0
M  V30 1946 H 184.286 0.16837 -0.732909 0
M  V30 1947 H 186.257 -0.19141 -2.97785 0
M  V30 1948 C 185.006 1.5803 -3.09713 0
M  V30 1949 H 184.329 1.12718 -3.83581 0
M  V30 1950 H 185.769 2.15008 -3.65442 0
M  V30 1951 C 184.228 2.53509 -2.2189 0
M  V30 1952 O 184.758 3.56863 -1.84422 0
M  V30 1953 N 182.964 2.23199 -1.86093 0
M  V30 1954 H 182.511 1.39185 -2.16761 0
M  V30 1955 H 182.469 2.87333 -1.27621 0
M  V30 1956 N 186.241 1.57166 -0.116904 0
M  V30 1957 C 187.466 1.999 0.55271 0
M  V30 1958 C 187.891 0.996039 1.59564 0
M  V30 1959 O 187.249 -0.032556 1.81271 0
M  V30 1960 C 187.297 3.4152 1.15742 0
M  V30 1961 O 186.401 3.44106 2.27299 0
M  V30 1962 H 185.742 0.649447 0.138258 0
M  V30 1963 H 188.272 2.03573 -0.204759 0
M  V30 1964 H 188.282 3.79684 1.49346 0
M  V30 1965 H 186.957 4.14034 0.393493 0
M  V30 1966 H 185.534 3.17759 1.9515 0
M  V30 1967 N 187.719 -0.156864 1.56817 0
M  V30 1968 C 188.944 -0.890331 1.87318 0
M  V30 1969 C 189.369 -1.74394 0.704855 0
M  V30 1970 O 188.727 -1.77972 -0.345786 0
M  V30 1971 C 188.775 -1.73102 3.16336 0
M  V30 1972 O 187.879 -2.83422 2.99576 0
M  V30 1973 H 187.22 -0.24857 0.615718 0
M  V30 1974 H 189.75 -0.150649 2.04045 0
M  V30 1975 H 189.76 -2.12803 3.48107 0
M  V30 1976 H 188.435 -1.10412 4.00976 0
M  V30 1977 H 187.012 -2.47199 2.7919 0
M  V30 1978 N 189.197 -1.51736 -0.425897 0
M  V30 1979 C 190.147 -1.70258 -1.51645 0
M  V30 1980 C 191.131 -0.556488 -1.5097 0
M  V30 1981 O 192.323 -0.812879 -1.5723 0
M  V30 1982 C 189.452 -1.84143 -2.89735 0
M  V30 1983 C 188.538 -3.04572 -2.95122 0
M  V30 1984 N 188.929 -4.2756 -2.70233 0
M  V30 1985 C 187.227 -3.04061 -3.26286 0
M  V30 1986 C 187.928 -5.08908 -2.81757 0
M  V30 1987 N 186.904 -4.43797 -3.13919 0
M  V30 1988 H 190.706 -2.63004 -1.31172 0
M  V30 1989 H 188.22 -1.4954 -0.633375 0
M  V30 1990 H 190.217 -1.95525 -3.68206 0
M  V30 1991 H 188.877 -0.925857 -3.1122 0
M  V30 1992 H 189.888 -4.56315 -2.44943 0
M  V30 1993 H 186.565 -2.22179 -3.53473 0
M  V30 1994 H 187.955 -6.16843 -2.66372 0
M  V30 1995 N 190.675 0.682077 -1.42076 0
M  V30 1996 C 191.638 1.77756 -1.44691 0
M  V30 1997 C 192.638 1.5726 -0.335535 0
M  V30 1998 O 193.828 1.63686 -0.596037 0
M  V30 1999 C 190.96 3.16301 -1.27146 0
M  V30 2000 H 192.153 1.76826 -2.42224 0
M  V30 2001 H 189.706 0.891012 -1.28416 0
M  V30 2002 H 190.441 3.22862 -0.305075 0
M  V30 2003 H 190.226 3.32581 -2.07683 0
M  V30 2004 H 191.716 3.96241 -1.31843 0
M  V30 2005 N 192.153 1.28127 0.917671 0
M  V30 2006 C 193.083 1.14248 2.03641 0
M  V30 2007 C 194.064 0.0412748 1.7005 0
M  V30 2008 O 195.249 0.217566 1.92977 0
M  V30 2009 C 192.379 0.799431 3.37974 0
M  V30 2010 C 191.333 1.85497 3.85713 0
M  V30 2011 C 190.659 1.36565 5.16966 0
M  V30 2012 C 191.959 3.26085 4.08002 0
M  V30 2013 H 193.653 2.07835 2.15511 0
M  V30 2014 H 191.199 1.00064 1.03553 0
M  V30 2015 H 193.152 0.689114 4.15727 0
M  V30 2016 H 191.876 -0.172145 3.26146 0
M  V30 2017 H 190.535 1.95437 3.10161 0
M  V30 2018 H 190.183 0.383253 5.01538 0
M  V30 2019 H 189.883 2.07143 5.49878 0
M  V30 2020 H 191.407 1.26848 5.97279 0
M  V30 2021 H 192.821 3.19089 4.76293 0
M  V30 2022 H 191.218 3.94462 4.52238 0
M  V30 2023 H 192.288 3.70394 3.12948 0
M  V30 2024 N 193.631 -1.12557 1.10312 0
M  V30 2025 C 195.047 -1.36036 0.834649 0
M  V30 2026 C 195.247 -1.93946 -0.546539 0
M  V30 2027 O 194.303 -2.16484 -1.29966 0
M  V30 2028 C 195.616 -2.30312 1.9333 0
M  V30 2029 C 197.164 -2.43906 1.9616 0
M  V30 2030 C 197.639 -3.41496 3.05195 0
M  V30 2031 N 199.13 -3.49053 3.04494 0
M  V30 2032 C 199.865 -4.24471 3.85502 0
M  V30 2033 N 199.361 -5.02966 4.76442 0
M  V30 2034 N 201.154 -4.19864 3.73725 0
M  V30 2035 H 193.305 -0.733246 1.99342 0
M  V30 2036 H 195.568 -0.385234 0.866198 0
M  V30 2037 H 195.274 -1.94933 2.92735 0
M  V30 2038 H 195.148 -3.30421 1.81939 0
M  V30 2039 H 197.535 -2.78567 0.973886 0
M  V30 2040 H 197.616 -1.4369 2.11629 0
M  V30 2041 H 197.26 -3.07565 4.04186 0
M  V30 2042 H 197.19 -4.41539 2.86968 0
M  V30 2043 H 199.681 -2.93053 2.38596 0
M  V30 2044 H 199.994 -5.57846 5.34815 0
M  V30 2045 H 198.339 -5.02167 4.80472 0
M  V30 2046 H 201.53 -3.57623 3.02032 0
M  V30 2047 H 201.703 -4.78386 4.37093 0
M  V30 2048 N 195.109 -0.891671 -1.2995 0
M  V30 2049 C 196.041 -0.320695 -2.26945 0
M  V30 2050 C 197.054 0.528497 -1.53983 0
M  V30 2051 O 198.243 0.346959 -1.75096 0
M  V30 2052 C 195.343 0.562066 -3.34207 0
M  V30 2053 C 194.516 -0.259576 -4.36629 0
M  V30 2054 C 193.575 0.554739 -5.23268 0
M  V30 2055 O 192.601 -0.0249311 -5.69195 0
M  V30 2056 N 193.803 1.8625 -5.4981 0
M  V30 2057 H 196.568 -1.15432 -2.76578 0
M  V30 2058 H 194.129 -0.755336 -1.432 0
M  V30 2059 H 196.121 1.11304 -3.89093 0
M  V30 2060 H 194.691 1.29637 -2.84452 0
M  V30 2061 H 193.911 -0.991986 -3.81514 0
M  V30 2062 H 195.199 -0.822564 -5.02107 0
M  V30 2063 H 194.597 2.35628 -5.14292 0
M  V30 2064 H 193.154 2.36078 -6.07545 0
M  V30 2065 N 196.587 1.43421 -0.653314 0
M  V30 2066 C 197.517 2.33487 0.0246656 0
M  V30 2067 C 198.498 1.49475 0.811863 0
M  V30 2068 O 199.683 1.78139 0.773322 0
M  V30 2069 C 196.813 3.32841 0.99166 0
M  V30 2070 C 195.767 4.26842 0.314568 0
M  V30 2071 C 195.093 5.16236 1.39302 0
M  V30 2072 C 196.393 5.16243 -0.793095 0
M  V30 2073 H 198.087 2.90427 -0.727481 0
M  V30 2074 H 195.633 1.39649 -0.351287 0
M  V30 2075 H 197.586 3.94747 1.47487 0
M  V30 2076 H 196.31 2.74158 1.77497 0
M  V30 2077 H 194.969 3.663 -0.148199 0
M  V30 2078 H 194.617 4.53891 2.16776 0
M  V30 2079 H 194.317 5.79948 0.945223 0
M  V30 2080 H 195.841 5.81015 1.87759 0
M  V30 2081 H 197.255 5.71958 -0.392039 0
M  V30 2082 H 195.652 5.88676 -1.16536 0
M  V30 2083 H 196.722 4.55927 -1.65103 0
M  V30 2084 N 198.065 0.39524 1.52563 0
M  V30 2085 C 199.481 0.0454682 1.59535 0
M  V30 2086 C 199.681 -1.44056 1.4089 0
M  V30 2087 O 198.737 -2.20579 1.22888 0
M  V30 2088 C 200.05 0.527963 2.96029 0
M  V30 2089 C 201.598 0.484733 3.09224 0
M  V30 2090 C 202.073 0.943512 4.48176 0
M  V30 2091 N 203.564 0.899765 4.54377 0
M  V30 2092 C 204.299 1.22609 5.60138 0
M  V30 2093 N 203.795 1.62319 6.73516 0
M  V30 2094 N 205.588 1.14696 5.50274 0
M  V30 2095 H 197.739 1.36261 1.62931 0
M  V30 2096 H 200.002 0.558887 0.765735 0
M  V30 2097 H 199.708 1.56607 3.14908 0
M  V30 2098 H 199.582 -0.0698056 3.77135 0
M  V30 2099 H 201.969 -0.544298 2.90037 0
M  V30 2100 H 202.05 1.11838 2.30056 0
M  V30 2101 H 201.694 1.9708 4.68104 0
M  V30 2102 H 201.624 0.286817 5.25818 0
M  V30 2103 H 204.115 0.607632 3.72983 0
M  V30 2104 H 204.428 1.85567 7.5019 0
M  V30 2105 H 202.773 1.66211 6.74833 0
M  V30 2106 H 205.964 0.835701 4.6058 0
M  V30 2107 H 206.137 1.40459 6.32594 0
M  V30 2108 N 199.544 -1.57102 0.125237 0
M  V30 2109 C 200.474 -2.18659 -0.819174 0
M  V30 2110 C 201.455 -1.12843 -1.27281 0
M  V30 2111 O 202.64 -1.41104 -1.33429 0
M  V30 2112 C 199.77 -2.79096 -2.06695 0
M  V30 2113 C 198.724 -3.90548 -1.75088 0
M  V30 2114 C 198.05 -4.37821 -3.06948 0
M  V30 2115 C 199.35 -5.12356 -1.01435 0
M  V30 2116 H 201.044 -2.9783 -0.306202 0
M  V30 2117 H 198.59 -1.4326 -0.145839 0
M  V30 2118 H 200.543 -3.2082 -2.73226 0
M  V30 2119 H 199.267 -1.97223 -2.60328 0
M  V30 2120 H 197.926 -3.49409 -1.10944 0
M  V30 2121 H 197.574 -3.52799 -3.58527 0
M  V30 2122 H 197.274 -5.12982 -2.86571 0
M  V30 2123 H 198.798 -4.822 -3.74587 0
M  V30 2124 H 200.212 -5.5106 -1.58132 0
M  V30 2125 H 198.609 -5.9314 -0.911319 0
M  V30 2126 H 199.679 -4.849 -0.00218681 0
M  V30 2127 N 201.022 0.148545 -1.56898 0
M  V30 2128 C 202.25 0.876389 -1.87422 0
M  V30 2129 C 202.665 1.74809 -0.713256 0
M  V30 2130 O 202.022 1.79725 0.317025 0
M  V30 2131 C 202.073 1.73438 -3.17178 0
M  V30 2132 O 201.794 0.897809 -4.28802 0
M  V30 2133 C 203.295 2.56993 -3.61205 0
M  V30 2134 H 200.515 0.253489 -0.621277 0
M  V30 2135 H 203.059 0.141798 -2.04008 0
M  V30 2136 H 201.214 2.42205 -3.0235 0
M  V30 2137 H 201.628 1.48672 -5.02988 0
M  V30 2138 H 203.102 3.12773 -4.54838 0
M  V30 2139 H 203.579 3.32958 -2.86419 0
M  V30 2140 H 204.185 1.9352 -3.78722 0
M  V30 2141 N 202.5 1.5196 0.417844 0
M  V30 2142 C 203.432 1.70895 1.52733 0
M  V30 2143 C 204.445 0.589405 1.51756 0
M  V30 2144 O 205.634 0.864312 1.56179 0
M  V30 2145 C 202.734 1.72627 2.91639 0
M  V30 2146 C 201.907 3.01479 3.16905 0
M  V30 2147 C 200.966 2.95139 4.35637 0
M  V30 2148 O 199.992 3.69059 4.3334 0
M  V30 2149 N 201.194 2.12328 5.40275 0
M  V30 2150 H 203.959 2.66612 1.36888 0
M  V30 2151 H 201.52 1.50089 0.607037 0
M  V30 2152 H 203.512 1.65928 3.6912 0
M  V30 2153 H 202.082 0.844216 3.00985 0
M  V30 2154 H 201.302 3.21895 2.27546 0
M  V30 2155 H 202.59 3.86736 3.30625 0
M  V30 2156 H 201.988 1.51685 5.44985 0
M  V30 2157 H 200.545 2.11494 6.16534 0
M  V30 2158 N 203.978 -0.674533 1.42435 0
M  V30 2159 C 204.908 -1.80009 1.48724 0
M  V30 2160 C 205.889 -1.6659 0.343793 0
M  V30 2161 O 207.074 -1.86007 0.558137 0
M  V30 2162 C 204.204 -3.18306 1.38919 0
M  V30 2163 C 203.158 -3.46461 2.51294 0
M  V30 2164 C 202.484 -4.84335 2.26547 0
M  V30 2165 C 203.784 -3.43328 3.93603 0
M  V30 2166 H 205.478 -1.75004 2.42928 0
M  V30 2167 H 203.024 -0.840533 1.16923 0
M  V30 2168 H 204.977 -3.9678 1.41927 0
M  V30 2169 H 203.701 -3.2399 0.412094 0
M  V30 2170 H 202.36 -2.70348 2.47604 0
M  V30 2171 H 202.008 -4.86669 1.2713 0
M  V30 2172 H 201.708 -5.04136 3.01861 0
M  V30 2173 H 203.232 -5.65094 2.31304 0
M  V30 2174 H 204.646 -4.11772 3.98894 0
M  V30 2175 H 203.043 -3.74664 4.68771 0
M  V30 2176 H 204.113 -2.41897 4.20255 0
M  V30 2177 N 205.456 -1.28612 -0.910864 0
M  V30 2178 C 206.684 -1.18792 -1.69399 0
M  V30 2179 C 207.099 0.253039 -1.87097 0
M  V30 2180 O 206.456 1.17071 -1.40003 0
M  V30 2181 C 206.507 -1.88511 -3.08457 0
M  V30 2182 O 206.228 -3.26979 -2.91576 0
M  V30 2183 C 207.729 -1.85029 -4.02839 0
M  V30 2184 H 204.949 -0.412233 -0.529438 0
M  V30 2185 H 207.493 -1.69788 -1.13984 0
M  V30 2186 H 205.648 -1.41379 -3.60681 0
M  V30 2187 H 206.062 -3.61936 -3.79608 0
M  V30 2188 H 207.536 -2.38395 -4.97867 0
M  V30 2189 H 208.013 -0.823303 -4.31414 0
M  V30 2190 H 208.619 -2.31853 -3.56545 0
M  V30 2191 N 206.934 1.1197 -1.10907 0
M  V30 2192 C 207.844 2.21433 -0.774896 0
M  V30 2193 C 208.86 1.72478 0.229657 0
M  V30 2194 O 210.036 2.01288 0.0672008 0
M  V30 2195 C 207.101 3.4602 -0.216986 0
M  V30 2196 C 206.162 4.09791 -1.27944 0
M  V30 2197 C 205.395 5.28431 -0.748055 0
M  V30 2198 O 205.618 5.68823 0.423833 0
M  V30 2199 O 204.552 5.82644 -1.51027 0
M  V30 2200 H 208.378 2.5242 -1.68873 0
M  V30 2201 H 205.963 1.20399 -0.884555 0
M  V30 2202 H 207.845 4.21304 0.090059 0
M  V30 2203 H 206.52 3.16698 0.669633 0
M  V30 2204 H 205.427 3.36265 -1.63941 0
M  V30 2205 H 206.76 4.4328 -2.13925 0
M  V30 2206 N 208.412 0.89855 1.29475 0
M  V30 2207 C 209.661 0.519863 1.94885 0
M  V30 2208 C 209.974 -0.9383 1.71625 0
M  V30 2209 O 211.18 -1.42445 2.31131 0
M  V30 2210 C 209.636 0.878836 3.49005 0
M  V30 2211 C 209.244 2.35569 3.81066 0
M  V30 2212 C 210.988 0.570004 4.20656 0
M  V30 2213 C 208.895 2.65558 5.28425 0
M  V30 2214 H 207.825 0.190692 0.729488 0
M  V30 2215 H 210.476 1.09539 1.47219 0
M  V30 2216 H 208.858 0.232253 3.95318 0
M  V30 2217 H 210.032 3.04773 3.45616 0
M  V30 2218 H 208.347 2.63343 3.22552 0
M  V30 2219 H 210.944 0.770925 5.29113 0
M  V30 2220 H 211.287 -0.491404 4.1339 0
M  V30 2221 H 211.82 1.17438 3.8007 0
M  V30 2222 H 208.559 3.70493 5.40754 0
M  V30 2223 H 208.079 2.00977 5.65127 0
M  V30 2224 H 209.758 2.51765 5.96006 0
M  V30 2225 N 209.89 -1.43072 0.660911 0
M  V30 2226 C 210.82 -2.33497 -0.0122829 0
M  V30 2227 C 211.801 -1.49903 -0.803925 0
M  V30 2228 O 212.986 -1.78546 -0.763864 0
M  V30 2229 C 210.116 -3.33363 -0.973994 0
M  V30 2230 C 209.07 -4.27003 -0.291928 0
M  V30 2231 C 208.396 -5.16967 -1.36562 0
M  V30 2232 C 209.696 -5.15816 0.820462 0
M  V30 2233 H 211.39 -2.90038 0.742873 0
M  V30 2234 H 208.936 -1.39461 0.358688 0
M  V30 2235 H 210.889 -3.95524 -1.45392 0
M  V30 2236 H 209.613 -2.75095 -1.7604 0
M  V30 2237 H 208.272 -3.66217 0.167623 0
M  V30 2238 H 207.92 -4.55034 -2.14366 0
M  V30 2239 H 207.62 -5.80441 -0.914454 0
M  V30 2240 H 209.144 -5.82003 -1.84675 0
M  V30 2241 H 210.558 -5.71742 0.422366 0
M  V30 2242 H 208.955 -5.8805 1.19656 0
M  V30 2243 H 210.025 -4.55045 1.67518 0
M  V30 2244 N 211.368 -0.403325 -1.52352 0
M  V30 2245 C 212.593 0.176499 -2.06648 0
M  V30 2246 C 213.018 1.38577 -1.27193 0
M  V30 2247 O 212.376 1.7879 -0.300637 0
M  V30 2248 C 212.424 0.511061 -3.5696 0
M  V30 2249 O 211.528 1.60294 -3.79973 0
M  V30 2250 H 210.869 0.0167337 -0.663789 0
M  V30 2251 H 213.399 -0.574848 -1.96359 0
M  V30 2252 H 213.409 0.771362 -4.00642 0
M  V30 2253 H 212.084 -0.37296 -4.14224 0
M  V30 2254 H 210.661 1.33526 -3.48174 0
M  V30 2255 N 212.846 1.57033 -0.133567 0
M  V30 2256 C 214.094 1.953 0.519848 0
M  V30 2257 C 214.415 1.01866 1.66278 0
M  V30 2258 O 213.685 0.0776513 1.95746 0
M  V30 2259 H 212.265 0.721091 0.195032 0
M  V30 2260 H 214.927 1.93809 -0.205921 0
M  V30 2261 H 214.023 2.98695 0.904854 0
M  V30 2262 N 214.325 -0.140222 1.56975 0
M  V30 2263 C 215.573 -0.850005 1.83356 0
M  V30 2264 C 215.894 -1.81399 0.71551 0
M  V30 2265 O 215.164 -1.94136 -0.262294 0
M  V30 2266 H 213.744 -0.316886 0.676456 0
M  V30 2267 H 216.406 -0.132608 1.94448 0
M  V30 2268 H 215.502 -1.40814 2.78528 0
M  V30 2269 N 215.803 -1.52179 -0.40978 0
M  V30 2270 C 217.049 -1.66453 -1.15851 0
M  V30 2271 C 217.382 -0.392972 -1.90182 0
M  V30 2272 O 216.657 0.608579 -1.84734 0
M  V30 2273 C 216.94 -2.88612 -2.15349 0
M  V30 2274 C 216.793 -4.25815 -1.44918 0
M  V30 2275 C 218.112 -3.06294 -3.16026 0
M  V30 2276 H 215.231 -0.60575 -0.419805 0
M  V30 2277 H 217.873 -1.84732 -0.444314 0
M  V30 2278 H 216.023 -2.73158 -2.76255 0
M  V30 2279 H 217.695 -4.52995 -0.871365 0
M  V30 2280 H 215.938 -4.27247 -0.751159 0
M  V30 2281 H 216.609 -5.07337 -2.17516 0
M  V30 2282 H 219.085 -3.20641 -2.65195 0
M  V30 2283 H 217.961 -3.93283 -3.8291 0
M  V30 2284 H 218.222 -2.19579 -3.83715 0
M  V30 2285 N 217.281 0.66697 -1.42791 0
M  V30 2286 C 218.511 1.45294 -1.46878 0
M  V30 2287 C 218.919 1.89027 -0.0809861 0
M  V30 2288 O 218.262 1.59219 0.916246 0
M  V30 2289 C 218.324 2.72908 -2.34012 0
M  V30 2290 C 217.988 2.51203 -3.81767 0
M  V30 2291 C 218.985 2.15302 -4.73224 0
M  V30 2292 C 216.67 2.65954 -4.26115 0
M  V30 2293 C 218.664 1.94431 -6.07022 0
M  V30 2294 C 216.351 2.44699 -5.59969 0
M  V30 2295 C 217.349 2.08992 -6.5024 0
M  V30 2296 O 217.037 1.87948 -7.81621 0
M  V30 2297 H 216.769 0.453306 -0.501487 0
M  V30 2298 H 219.323 0.826232 -1.88049 0
M  V30 2299 H 217.553 3.38089 -1.87703 0
M  V30 2300 H 219.242 3.34816 -2.29462 0
M  V30 2301 H 220.008 2.03495 -4.40244 0
M  V30 2302 H 215.887 2.92724 -3.56137 0
M  V30 2303 H 219.431 1.66484 -6.77443 0
M  V30 2304 H 215.328 2.56105 -5.9252 0
M  V30 2305 H 216.096 2.02483 -7.93059 0
M  V30 2306 N 218.759 1.29093 0.90403 0
M  V30 2307 C 220.008 1.16187 1.64874 0
M  V30 2308 C 220.321 -0.286742 1.93487 0
M  V30 2309 O 221.527 -0.537062 2.66135 0
M  V30 2310 C 219.983 2.03177 2.97064 0
M  V30 2311 C 219.591 3.52836 2.76062 0
M  V30 2312 C 221.335 1.98984 3.74974 0
M  V30 2313 C 219.242 4.31945 4.03952 0
M  V30 2314 H 218.172 0.431246 0.618501 0
M  V30 2315 H 220.823 1.53699 1.00243 0
M  V30 2316 H 219.205 1.5853 3.62883 0
M  V30 2317 H 220.379 4.05507 2.18863 0
M  V30 2318 H 218.694 3.58656 2.11553 0
M  V30 2319 H 221.291 2.55351 4.69787 0
M  V30 2320 H 221.634 0.968815 4.0487 0
M  V30 2321 H 222.167 2.41652 3.15989 0
M  V30 2322 H 218.906 5.34667 3.79225 0
M  V30 2323 H 218.426 3.84045 4.60727 0
M  V30 2324 H 220.105 4.42379 4.72133 0
M  V30 2325 N 220.237 -1.11381 1.11499 0
M  V30 2326 C 221.147 -2.21019 0.786628 0
M  V30 2327 C 222.163 -1.72597 -0.220507 0
M  V30 2328 O 223.339 -2.01321 -0.0565251 0
M  V30 2329 C 220.404 -3.459 0.235333 0
M  V30 2330 C 219.465 -4.09107 1.30115 0
M  V30 2331 C 218.698 -5.28027 0.776068 0
M  V30 2332 O 218.921 -5.6904 -0.393661 0
M  V30 2333 O 217.855 -5.81835 1.54114 0
M  V30 2334 H 221.681 -2.51521 1.70209 0
M  V30 2335 H 219.266 -1.19928 0.890928 0
M  V30 2336 H 221.148 -4.21346 -0.067715 0
M  V30 2337 H 219.823 -3.17049 -0.652828 0
M  V30 2338 H 218.73 -3.35391 1.65722 0
M  V30 2339 H 220.063 -4.42139 2.16273 0
M  V30 2340 N 221.715 -0.905404 -1.28997 0
M  V30 2341 C 222.662 -0.385892 -2.27551 0
M  V30 2342 C 223.632 0.535113 -1.57244 0
M  V30 2343 O 224.817 0.459119 -1.85194 0
M  V30 2344 C 221.957 0.375461 -3.43051 0
M  V30 2345 C 221.07 -0.577092 -4.28128 0
M  V30 2346 C 220.205 0.201879 -5.30816 0
M  V30 2347 C 219.244 -0.744829 -6.07551 0
M  V30 2348 N 218.381 9.42587e-05 -7.021 0
M  V30 2349 H 223.221 -1.23139 -2.71368 0
M  V30 2350 H 220.758 -0.618542 -1.33463 0
M  V30 2351 H 222.716 0.832992 -4.088 0
M  V30 2352 H 221.346 1.18537 -3.00248 0
M  V30 2353 H 220.398 -1.15315 -3.62501 0
M  V30 2354 H 221.71 -1.30152 -4.8152 0
M  V30 2355 H 220.864 0.720351 -6.02408 0
M  V30 2356 H 219.603 0.959413 -4.7817 0
M  V30 2357 H 218.608 -1.27475 -5.34818 0
M  V30 2358 H 219.833 -1.50178 -6.62286 0
M  V30 2359 H 217.779 0.739791 -6.51815 0
M  V30 2360 H 217.696 -0.664321 -7.53076 0
M  V30 2361 H 218.964 0.498644 -7.77903 0
M  V30 2362 N 223.193 1.4272 -0.668489 0
M  V30 2363 C 224.141 2.32586 0.0254857 0
M  V30 2364 C 225.135 1.49471 0.797176 0
M  V30 2365 O 226.341 1.65583 0.705853 0
M  V30 2366 H 222.716 0.751514 0.0270339 0
M  V30 2367 H 224.687 2.88823 -0.749936 0
M  V30 2368 C 223.436 3.3397 0.967427 0
M  V30 2369 H 222.759 3.97961 0.383048 0
M  V30 2370 H 224.199 3.9945 1.42181 0
M  V30 2371 C 222.658 2.65744 2.0708 0
M  V30 2372 O 223.188 2.48454 3.15648 0
M  V30 2373 N 221.394 2.2487 1.8407 0
M  V30 2374 H 220.941 2.39132 0.95778 0
M  V30 2375 H 220.899 1.79552 2.58086 0
M  V30 2376 N 224.671 0.411399 1.52136 0
M  V30 2377 C 225.948 -0.222308 1.94333 0
M  V30 2378 C 226.328 -1.6242 1.34844 0
M  V30 2379 O 225.676 -2.22384 0.525145 0
M  V30 2380 C 225.886 -0.226345 3.48265 0
M  V30 2381 C 227.234 -0.444592 4.22266 0
M  V30 2382 O 228.258 -0.305602 3.54887 0
M  V30 2383 O 227.117 -0.718749 5.41753 0
M  V30 2384 H 224.211 -0.143907 0.814383 0
M  V30 2385 H 226.757 0.467506 1.63133 0
M  V30 2386 H 225.529 0.75475 3.83952 0
M  V30 2387 H 225.152 -0.960163 3.85832 0
M  V30 2388 N 226.149 -1.5696 0.141893 0
M  V30 2389 C 227.096 -2.16501 -0.799737 0
M  V30 2390 C 228.066 -1.09643 -1.24771 0
M  V30 2391 O 229.251 -1.3766 -1.32115 0
M  V30 2392 C 226.391 -2.78679 -2.03549 0
M  V30 2393 C 225.504 -3.99914 -1.6338 0
M  V30 2394 C 224.639 -4.50106 -2.82096 0
M  V30 2395 C 223.678 -5.63819 -2.38275 0
M  V30 2396 N 222.815 -6.08651 -3.49983 0
M  V30 2397 H 227.655 -2.96632 -0.285179 0
M  V30 2398 H 225.192 -1.46533 -0.129053 0
M  V30 2399 H 227.15 -3.1287 -2.75986 0
M  V30 2400 H 225.78 -2.012 -2.52425 0
M  V30 2401 H 224.832 -3.71735 -0.807279 0
M  V30 2402 H 226.144 -4.82311 -1.27192 0
M  V30 2403 H 225.298 -4.86325 -3.62729 0
M  V30 2404 H 224.037 -3.66706 -3.21525 0
M  V30 2405 H 223.042 -5.2718 -1.56081 0
M  V30 2406 H 224.267 -6.49 -1.99938 0
M  V30 2407 H 222.213 -5.28188 -3.89042 0
M  V30 2408 H 222.13 -6.85961 -3.17794 0
M  V30 2409 H 223.398 -6.49515 -4.30988 0
M  V30 2410 N 227.627 0.131896 -1.57047 0
M  V30 2411 C 228.557 1.16384 -2.02428 0
M  V30 2412 C 229.538 1.43936 -0.90644 0
M  V30 2413 O 230.723 1.54599 -1.17528 0
M  V30 2414 C 227.853 2.49328 -2.4177 0
M  V30 2415 C 226.807 2.36266 -3.56879 0
M  V30 2416 C 226.133 3.74057 -3.8208 0
M  V30 2417 C 227.433 1.834 -4.89042 0
M  V30 2418 H 229.127 0.786433 -2.88887 0
M  V30 2419 H 226.673 0.376855 -1.38981 0
M  V30 2420 H 228.626 3.21759 -2.7212 0
M  V30 2421 H 227.35 2.88934 -1.52266 0
M  V30 2422 H 226.009 1.66286 -3.26718 0
M  V30 2423 H 225.657 4.11125 -2.89803 0
M  V30 2424 H 225.357 3.66174 -4.59554 0
M  V30 2425 H 226.881 4.48012 -4.1487 0
M  V30 2426 H 228.295 2.45636 -5.18011 0
M  V30 2427 H 226.692 1.8637 -5.70426 0
M  V30 2428 H 227.762 0.790662 -4.7841 0
M  V30 2429 N 229.106 1.52395 0.401703 0
M  V30 2430 C 230.346 1.68498 1.15705 0
M  V30 2431 C 230.71 0.409748 1.87577 0
M  V30 2432 O 231.911 0.446983 2.65058 0
M  V30 2433 C 230.182 2.87789 2.11924 0
M  V30 2434 S 231.741 3.24415 2.95466 0
M  V30 2435 H 228.559 0.593267 0.391862 0
M  V30 2436 H 231.161 1.90408 0.443282 0
M  V30 2437 H 229.865 3.7884 1.57824 0
M  V30 2438 H 229.396 2.68175 2.87829 0
M  V30 2439 H 231.411 2.73614 4.13944 0
M  V30 2440 N 230.584 -0.659388 1.43143 0
M  V30 2441 C 231.534 -1.7655 1.44271 0
M  V30 2442 C 232.518 -1.57847 0.311961 0
M  V30 2443 O 233.71 -1.68064 0.555306 0
M  V30 2444 C 230.839 -3.15104 1.36251 0
M  V30 2445 C 229.925 -3.39377 2.54331 0
M  V30 2446 N 230.316 -3.34153 3.79704 0
M  V30 2447 C 228.614 -3.70072 2.48922 0
M  V30 2448 C 229.315 -3.58337 4.58225 0
M  V30 2449 N 228.291 -3.79851 3.88863 0
M  V30 2450 H 232.093 -1.70928 2.39083 0
M  V30 2451 H 229.607 -0.860823 1.37708 0
M  V30 2452 H 231.604 -3.94389 1.35141 0
M  V30 2453 H 230.264 -3.21913 0.424531 0
M  V30 2454 H 231.275 -3.13704 4.1208 0
M  V30 2455 H 227.952 -3.84034 1.63781 0
M  V30 2456 H 229.342 -3.60129 5.67236 0
M  V30 2457 N 232.062 -1.29571 -0.897171 0
M  V30 2458 C 232.995 -1.0924 -2.00354 0
M  V30 2459 C 233.973 -0.00354011 -1.626 0
M  V30 2460 O 235.157 -0.15473 -1.87864 0
M  V30 2461 C 232.284 -0.66352 -3.32137 0
M  V30 2462 C 231.33 -1.75146 -3.88878 0
M  V30 2463 S 232.163 -3.35124 -4.17674 0
M  V30 2464 C 233.319 -2.9411 -5.52494 0
M  V30 2465 H 233.552 -2.02907 -2.17292 0
M  V30 2466 H 231.085 -1.13746 -1.04408 0
M  V30 2467 H 233.043 -0.422791 -4.08317 0
M  V30 2468 H 231.704 0.253588 -3.13075 0
M  V30 2469 H 230.897 -1.40337 -4.84068 0
M  V30 2470 H 230.499 -1.94584 -3.19395 0
M  V30 2471 H 232.791 -2.41312 -6.33068 0
M  V30 2472 H 233.734 -3.88161 -5.9223 0
M  V30 2473 H 234.142 -2.32332 -5.14473 0
M  V30 2474 N 233.54 1.10788 -1.12088 0
M  V30 2475 C 234.817 1.79136 -0.785476 0
M  V30 2476 C 235.197 1.98246 0.725377 0
M  V30 2477 O 234.545 1.57258 1.65778 0
M  V30 2478 C 234.755 3.12375 -1.55636 0
M  V30 2479 C 236.103 3.8731 -1.74001 0
M  V30 2480 O 237.127 3.22085 -1.52117 0
M  V30 2481 O 235.986 5.04369 -2.10415 0
M  V30 2482 H 233.08 0.776226 -0.285311 0
M  V30 2483 H 235.626 1.1747 -1.2247 0
M  V30 2484 H 234.398 2.93863 -2.5838 0
M  V30 2485 H 234.021 3.81758 -1.11114 0
M  V30 2486 N 235.018 0.912232 1.28515 0
M  V30 2487 C 236.246 0.560416 1.99166 0
M  V30 2488 C 236.661 -0.857927 1.68182 0
M  V30 2489 O 236.018 -1.56805 0.933733 0
M  V30 2490 C 236.069 0.758142 3.53461 0
M  V30 2491 O 235.79 2.12067 3.83352 0
M  V30 2492 C 237.291 0.412954 4.41372 0
M  V30 2493 H 234.511 0.213805 0.636026 0
M  V30 2494 H 237.055 1.22502 1.63749 0
M  V30 2495 H 235.21 0.140556 3.87145 0
M  V30 2496 H 235.624 2.15923 4.77993 0
M  V30 2497 H 237.098 0.60208 5.48707 0
M  V30 2498 H 237.575 -0.65073 4.34353 0
M  V30 2499 H 238.181 1.00802 4.13182 0
M  V30 2500 N 236.496 -1.42363 0.676048 0
M  V30 2501 C 237.745 -2.00745 0.196037 0
M  V30 2502 C 238.058 -1.54083 -1.20489 0
M  V30 2503 O 239.264 -2.04891 -1.78134 0
M  V30 2504 C 237.72 -3.58651 0.299616 0
M  V30 2505 C 237.328 -4.143 1.70468 0
M  V30 2506 C 239.072 -4.24326 -0.121619 0
M  V30 2507 C 236.979 -5.64574 1.76096 0
M  V30 2508 H 235.909 -0.750787 0.0695301 0
M  V30 2509 H 238.56 -1.63072 0.841412 0
M  V30 2510 H 236.942 -3.93833 -0.413673 0
M  V30 2511 H 238.116 -3.90575 2.44515 0
M  V30 2512 H 236.431 -3.61081 2.07387 0
M  V30 2513 H 239.028 -5.34607 -0.0997362 0
M  V30 2514 H 239.371 -3.99897 -1.15708 0
M  V30 2515 H 239.904 -3.94108 0.540706 0
M  V30 2516 H 236.643 -5.93804 2.77628 0
M  V30 2517 H 236.163 -5.90286 1.06406 0
M  V30 2518 H 237.842 -6.29013 1.51496 0
M  V30 2519 N 237.974 -0.419461 -1.51915 0
M  V30 2520 C 239.251 0.211999 -1.94448 0
M  V30 2521 C 239.631 1.61703 -1.35703 0
M  V30 2522 O 238.979 2.22102 -0.536931 0
M  V30 2523 C 239.189 0.207872 -3.4838 0
M  V30 2524 C 240.537 0.422192 -4.22496 0
M  V30 2525 O 241.561 0.286778 -3.55044 0
M  V30 2526 O 240.42 0.690009 -5.42126 0
M  V30 2527 H 237.514 0.139586 -0.815135 0
M  V30 2528 H 240.06 -0.476151 -1.62883 0
M  V30 2529 H 238.832 -0.775102 -3.83546 0
M  V30 2530 H 238.455 0.939688 -3.86336 0
M  V30 2531 N 239.452 1.56882 -0.150215 0
M  V30 2532 C 240.698 1.97299 0.494427 0
M  V30 2533 C 241.053 1.0338 1.62266 0
M  V30 2534 O 240.346 0.0694497 1.91474 0
M  V30 2535 C 240.54 3.41801 1.04437 0
M  V30 2536 C 240.369 4.49691 -0.0290451 0
M  V30 2537 C 239.139 5.03095 -0.47156 0
M  V30 2538 C 241.337 5.07693 -0.821703 0
M  V30 2539 N 239.319 5.94593 -1.52749 0
M  V30 2540 C 240.69 5.95431 -1.72805 0
M  V30 2541 C 242.745 4.90256 -0.869134 0
M  V30 2542 C 241.448 6.67599 -2.67777 0
M  V30 2543 C 243.474 5.63127 -1.8067 0
M  V30 2544 C 242.836 6.50576 -2.70057 0
M  V30 2545 H 238.935 0.76755 0.149639 0
M  V30 2546 H 241.519 1.93145 -0.24556 0
M  V30 2547 H 239.69 3.46541 1.75396 0
M  V30 2548 H 241.422 3.69272 1.6559 0
M  V30 2549 H 238.177 4.73543 -0.0732101 0
M  V30 2550 H 238.601 6.45047 -2.05531 0
M  V30 2551 H 243.243 4.22363 -0.192134 0
M  V30 2552 H 240.961 7.34717 -3.36476 0
M  V30 2553 H 244.547 5.51629 -1.84924 0
M  V30 2554 H 243.427 7.05974 -3.41424 0
M  V30 2555 N 240.93 -0.123565 1.57115 0
M  V30 2556 C 242.346 -0.476961 1.52306 0
M  V30 2557 C 242.546 -1.82109 0.86248 0
M  V30 2558 O 241.602 -2.48586 0.442884 0
M  V30 2559 C 242.915 -0.465661 2.97073 0
M  V30 2560 C 244.463 -0.549534 3.08138 0
M  V30 2561 C 244.938 -0.568669 4.54456 0
M  V30 2562 N 246.429 -0.630237 4.58892 0
M  V30 2563 C 247.164 -0.666415 5.69514 0
M  V30 2564 N 246.66 -0.660514 6.89644 0
M  V30 2565 N 248.453 -0.709077 5.5761 0
M  V30 2566 H 240.604 0.757198 1.98445 0
M  V30 2567 H 242.867 0.278808 0.906074 0
M  V30 2568 H 242.573 0.454232 3.48754 0
M  V30 2569 H 242.447 -1.29513 3.54269 0
M  V30 2570 H 244.834 -1.45985 2.56461 0
M  V30 2571 H 244.915 0.307532 2.53945 0
M  V30 2572 H 244.559 0.337581 5.06777 0
M  V30 2573 H 244.489 -1.44256 5.06456 0
M  V30 2574 H 246.98 -0.641146 3.72421 0
M  V30 2575 H 247.293 -0.690616 7.69708 0
M  V30 2576 H 245.638 -0.628012 6.92157 0
M  V30 2577 H 248.829 -0.711019 4.62668 0
M  V30 2578 H 249.002 -0.733804 6.43832 0
M  V30 2579 N 242.408 -1.52605 -0.393616 0
M  V30 2580 C 243.685 -1.58001 -1.15304 0
M  V30 2581 C 244.065 -0.370385 -2.07825 0
M  V30 2582 O 243.413 0.641638 -2.19306 0
M  V30 2583 C 243.623 -2.91652 -1.91677 0
M  V30 2584 C 244.971 -3.4522 -2.47201 0
M  V30 2585 O 245.995 -2.93495 -2.01839 0
M  V30 2586 O 244.854 -4.35579 -3.3005 0
M  V30 2587 H 241.948 -0.637068 -0.527327 0
M  V30 2588 H 244.494 -1.64939 -0.399141 0
M  V30 2589 H 243.266 -3.71136 -1.23992 0
M  V30 2590 H 242.889 -2.88077 -2.74039 0
M  V30 2591 N 243.887 0.651787 -1.4349 0
M  V30 2592 C 245.136 1.40754 -1.44469 0
M  V30 2593 C 245.449 1.95463 -0.0731845 0
M  V30 2594 O 246.655 2.71471 0.0395721 0
M  V30 2595 C 245.111 2.54735 -2.5424 0
M  V30 2596 C 244.719 2.06628 -3.97504 0
M  V30 2597 C 246.463 3.32092 -2.64414 0
M  V30 2598 C 244.37 3.17829 -4.98737 0
M  V30 2599 H 243.3 0.528862 -0.53742 0
M  V30 2600 H 245.951 0.703365 -1.69485 0
M  V30 2601 H 244.333 3.2763 -2.22428 0
M  V30 2602 H 245.507 1.40734 -4.38783 0
M  V30 2603 H 243.822 1.42146 -3.91387 0
M  V30 2604 H 246.419 4.14952 -3.37223 0
M  V30 2605 H 246.762 3.80217 -1.69532 0
M  V30 2606 H 247.295 2.66279 -2.95534 0
M  V30 2607 H 244.034 2.74671 -5.95177 0
M  V30 2608 H 243.554 3.82429 -4.62069 0
M  V30 2609 H 245.233 3.82937 -5.21505 0
M  V30 2610 N 245.365 1.30045 0.890287 0
M  V30 2611 C 246.611 1.18737 1.64406 0
M  V30 2612 C 246.944 -0.258525 1.92472 0
M  V30 2613 O 246.219 -1.18562 1.54186 0
M  V30 2614 C 246.502 2.01087 2.98724 0
M  V30 2615 C 246.355 3.53867 2.77665 0
M  V30 2616 C 247.674 1.84457 3.9958 0
M  V30 2617 H 244.793 0.432698 0.596608 0
M  V30 2618 H 247.435 1.5962 1.0306 0
M  V30 2619 H 245.585 1.66349 3.51084 0
M  V30 2620 H 247.257 3.98637 2.32133 0
M  V30 2621 H 245.5 3.78318 2.12269 0
M  V30 2622 H 246.171 4.06772 3.7315 0
M  V30 2623 H 248.647 2.14817 3.56361 0
M  V30 2624 H 247.523 2.44411 4.91482 0
M  V30 2625 H 247.784 0.802276 4.3476 0
M  V30 2626 N 246.843 -1.10192 1.12674 0
M  V30 2627 C 248.259 -1.34235 0.863317 0
M  V30 2628 C 248.459 -1.95062 -0.505277 0
M  V30 2629 O 247.515 -2.19192 -1.25345 0
M  V30 2630 C 248.828 -2.2616 1.98172 0
M  V30 2631 C 250.376 -2.3969 2.0129 0
M  V30 2632 C 250.851 -3.34946 3.1237 0
M  V30 2633 N 252.342 -3.42515 3.11829 0
M  V30 2634 C 253.077 -4.16199 3.94419 0
M  V30 2635 N 252.573 -4.92747 4.87004 0
M  V30 2636 N 254.366 -4.11843 3.82547 0
M  V30 2637 H 246.517 -0.690798 2.00853 0
M  V30 2638 H 248.78 -0.366774 0.874174 0
M  V30 2639 H 248.486 -1.8868 2.96804 0
M  V30 2640 H 248.36 -3.26488 1.88906 0
M  V30 2641 H 250.747 -2.76438 1.03276 0
M  V30 2642 H 250.828 -1.39169 2.14629 0
M  V30 2643 H 250.472 -2.98923 4.10619 0
M  V30 2644 H 250.402 -4.35353 2.96269 0
M  V30 2645 H 252.893 -2.87926 2.44759 0
M  V30 2646 H 253.206 -5.46376 5.46528 0
M  V30 2647 H 251.551 -4.91862 4.91016 0
M  V30 2648 H 254.742 -3.51136 3.0955 0
M  V30 2649 H 254.915 -4.69007 4.47142 0
M  V30 2650 N 248.321 -0.919034 -1.28029 0
M  V30 2651 C 249.598 -0.473668 -1.89778 0
M  V30 2652 C 249.978 1.04783 -1.83259 0
M  V30 2653 O 249.326 1.8982 -1.27202 0
M  V30 2654 C 249.536 -1.00998 -3.34066 0
M  V30 2655 C 250.884 -1.06525 -4.1102 0
M  V30 2656 O 251.908 -0.958996 -3.43048 0
M  V30 2657 O 250.767 -1.22776 -5.3253 0
M  V30 2658 H 247.861 -0.15098 -0.813101 0
M  V30 2659 H 250.407 -1.01016 -1.36359 0
M  V30 2660 H 249.179 -2.05392 -3.33061 0
M  V30 2661 H 248.802 -0.454626 -3.94992 0
M  V30 2662 N 249.799 1.42003 -0.683588 0
M  V30 2663 C 251.215 1.55625 -0.353976 0
M  V30 2664 C 251.415 1.66151 1.14 0
M  V30 2665 O 250.471 1.63329 1.92561 0
M  V30 2666 C 251.784 2.80171 -1.092 0
M  V30 2667 C 253.332 2.93954 -1.07518 0
M  V30 2668 C 253.807 4.21372 -1.79471 0
M  V30 2669 N 255.298 4.28303 -1.76381 0
M  V30 2670 C 256.033 5.25729 -2.28904 0
M  V30 2671 N 255.529 6.29254 -2.89846 0
M  V30 2672 N 257.322 5.17586 -2.19228 0
M  V30 2673 H 249.473 1.33415 -1.6527 0
M  V30 2674 H 251.736 0.64282 -0.696769 0
M  V30 2675 H 251.442 2.78561 -2.14701 0
M  V30 2676 H 251.316 3.7133 -0.662862 0
M  V30 2677 H 253.703 2.95086 -0.028475 0
M  V30 2678 H 253.784 2.04002 -1.54328 0
M  V30 2679 H 253.428 4.21001 -2.84114 0
M  V30 2680 H 253.358 5.10275 -1.30104 0
M  V30 2681 H 255.849 3.54119 -1.31939 0
M  V30 2682 H 256.162 6.99964 -3.27522 0
M  V30 2683 H 254.507 6.29791 -2.93919 0
M  V30 2684 H 257.698 4.35631 -1.71299 0
M  V30 2685 H 257.871 5.93348 -2.60466 0
M  V30 2686 N 251.277 0.427512 1.51691 0
M  V30 2687 C 252.554 -0.201684 1.94557 0
M  V30 2688 C 252.934 -1.60981 1.36559 0
M  V30 2689 O 252.282 -2.21814 0.548702 0
M  V30 2690 C 252.492 -0.189394 3.48486 0
M  V30 2691 C 253.84 -0.39978 4.22714 0
M  V30 2692 O 254.864 -0.267945 3.55191 0
M  V30 2693 O 253.723 -0.661249 5.42485 0
M  V30 2694 H 250.817 -0.135261 0.815864 0
M  V30 2695 H 253.363 0.484782 1.62628 0
M  V30 2696 H 252.135 0.795431 3.8313 0
M  V30 2697 H 251.758 -0.919187 3.86829 0
M  V30 2698 N 252.755 -1.56801 0.158532 0
M  V30 2699 C 253.718 -2.16138 -0.762705 0
M  V30 2700 C 254.718 -1.1061 -1.16713 0
M  V30 2701 O 255.908 -1.36191 -1.08617 0
M  V30 2702 C 253.04 -2.73386 -2.03649 0
M  V30 2703 H 254.233 -2.98886 -0.246354 0
M  V30 2704 H 251.786 -1.56035 -0.0909744 0
M  V30 2705 H 252.521 -1.94335 -2.59623 0
M  V30 2706 H 252.306 -3.50601 -1.75559 0
M  V30 2707 H 253.796 -3.19065 -2.6942 0
M  V30 2708 N 254.233 0.115231 -1.57178 0
M  V30 2709 C 255.143 1.15994 -2.03918 0
M  V30 2710 C 256.159 1.45103 -0.960268 0
M  V30 2711 O 257.335 1.56144 -1.27204 0
M  V30 2712 C 254.4 2.46568 -2.43732 0
M  V30 2713 C 253.461 2.24822 -3.65723 0
M  V30 2714 C 252.694 3.4917 -4.03629 0
M  V30 2715 O 252.917 4.56623 -3.41835 0
M  V30 2716 O 251.851 3.39949 -4.96708 0
M  V30 2717 H 255.677 0.793019 -2.93164 0
M  V30 2718 H 253.262 0.3263 -1.45793 0
M  V30 2719 H 255.144 3.23492 -2.70057 0
M  V30 2720 H 253.819 2.82726 -1.57631 0
M  V30 2721 H 252.726 1.45744 -3.44542 0
M  V30 2722 H 254.059 1.93566 -4.52541 0
M  V30 2723 N 255.711 1.52812 0.385517 0
M  V30 2724 C 256.96 1.67249 1.12741 0
M  V30 2725 C 257.273 0.4205 1.91027 0
M  V30 2726 O 258.479 0.445064 2.67827 0
M  V30 2727 C 256.935 2.95583 2.05326 0
M  V30 2728 C 256.543 4.27974 1.32447 0
M  V30 2729 C 258.287 3.19386 2.7963 0
M  V30 2730 C 256.194 5.47412 2.23818 0
M  V30 2731 H 255.124 0.6231 0.424573 0
M  V30 2732 H 257.775 1.79309 0.389924 0
M  V30 2733 H 256.157 2.77277 2.82725 0
M  V30 2734 H 257.331 4.56844 0.602495 0
M  V30 2735 H 255.646 4.10459 0.700885 0
M  V30 2736 H 258.243 4.05801 3.48181 0
M  V30 2737 H 258.586 2.34604 3.43899 0
M  V30 2738 H 259.119 3.38274 2.09322 0
M  V30 2739 H 255.858 6.34612 1.64157 0
M  V30 2740 H 255.378 5.22849 2.93921 0
M  V30 2741 H 257.057 5.81423 2.83824 0
M  V30 2742 N 257.189 -0.644168 1.43834 0
M  V30 2743 C 258.435 -1.40603 1.46146 0
M  V30 2744 C 258.768 -1.93997 0.0887717 0
M  V30 2745 O 258.043 -1.72854 -0.891724 0
M  V30 2746 C 258.326 -2.58086 2.51124 0
M  V30 2747 C 258.179 -2.10126 3.97702 0
M  V30 2748 C 259.498 -3.60291 2.52742 0
M  V30 2749 H 256.617 -0.509905 0.532134 0
M  V30 2750 H 259.259 -0.729502 1.75437 0
M  V30 2751 H 257.409 -3.15801 2.26278 0
M  V30 2752 H 259.081 -1.57342 4.33637 0
M  V30 2753 H 257.324 -1.41419 4.10101 0
M  V30 2754 H 257.995 -2.94649 4.66783 0
M  V30 2755 H 260.471 -3.12352 2.7491 0
M  V30 2756 H 259.347 -4.40032 3.28121 0
M  V30 2757 H 259.608 -4.1349 1.56455 0
M  V30 2758 N 258.668 -1.30515 -0.883378 0
M  V30 2759 C 259.914 -1.19607 -1.63774 0
M  V30 2760 C 260.247 0.248314 -1.92606 0
M  V30 2761 O 259.522 1.17742 -1.54813 0
M  V30 2762 C 259.805 -2.02669 -2.97653 0
M  V30 2763 C 259.658 -3.55335 -2.75784 0
M  V30 2764 C 260.977 -1.86573 -3.98596 0
M  V30 2765 H 258.096 -0.435856 -0.594305 0
M  V30 2766 H 260.738 -1.60165 -1.02212 0
M  V30 2767 H 258.888 -1.68208 -3.50197 0
M  V30 2768 H 260.56 -3.99863 -2.30016 0
M  V30 2769 H 258.803 -3.79438 -2.1026 0
M  V30 2770 H 259.474 -4.08745 -3.70988 0
M  V30 2771 H 261.95 -2.16703 -3.55217 0
M  V30 2772 H 260.826 -2.47014 -4.90179 0
M  V30 2773 H 261.087 -0.825321 -4.34328 0
M  V30 2774 N 260.146 1.09593 -1.13257 0
M  V30 2775 C 261.093 2.1618 -0.808381 0
M  V30 2776 C 262.063 1.64517 0.228754 0
M  V30 2777 O 263.248 1.9053 0.101381 0
M  V30 2778 C 260.388 3.43973 -0.278675 0
M  V30 2779 C 259.501 4.09545 -1.37466 0
M  V30 2780 C 258.636 5.25088 -0.803479 0
M  V30 2781 C 257.675 5.82579 -1.87799 0
M  V30 2782 N 256.812 6.89486 -1.32488 0
M  V30 2783 H 261.652 2.43254 -1.72138 0
M  V30 2784 H 259.189 1.19392 -0.859294 0
M  V30 2785 H 261.147 4.17174 0.0465583 0
M  V30 2786 H 259.777 3.17223 0.597459 0
M  V30 2787 H 258.829 3.34226 -1.81652 0
M  V30 2788 H 260.141 4.48307 -2.18684 0
M  V30 2789 H 259.295 6.05178 -0.429427 0
M  V30 2790 H 258.034 4.87684 0.0397956 0
M  V30 2791 H 257.039 5.01152 -2.26113 0
M  V30 2792 H 258.264 6.22045 -2.72463 0
M  V30 2793 H 256.21 6.54064 -0.503575 0
M  V30 2794 H 256.127 7.27007 -2.07355 0
M  V30 2795 H 257.395 7.73336 -0.978336 0
M  V30 2796 N 261.624 0.925811 1.2754 0
M  V30 2797 C 262.901 0.483726 1.89524 0
M  V30 2798 C 263.281 -1.03809 1.83812 0
M  V30 2799 O 262.629 -1.89143 1.28207 0
M  V30 2800 C 262.839 1.02769 3.33526 0
M  V30 2801 C 264.187 1.08703 4.10449 0
M  V30 2802 O 265.211 0.977175 3.42534 0
M  V30 2803 O 264.07 1.25599 5.31871 0
M  V30 2804 H 261.164 0.15529 0.812289 0
M  V30 2805 H 263.71 1.01738 1.35822 0
M  V30 2806 H 262.482 2.07155 3.31967 0
M  V30 2807 H 262.105 0.475567 3.94746 0
M  V30 2808 N 263.102 -1.41638 0.69111 0
M  V30 2809 C 264.05 -2.32597 0.0115199 0
M  V30 2810 C 265.044 -1.5072 -0.773296 0
M  V30 2811 O 266.25 -1.66685 -0.67942 0
M  V30 2812 H 262.625 -0.751849 -0.0150746 0
M  V30 2813 H 264.596 -2.87593 0.795791 0
M  V30 2814 C 263.345 -3.35467 -0.914172 0
M  V30 2815 H 262.668 -3.9852 -0.319687 0
M  V30 2816 H 264.108 -4.01662 -1.35808 0
M  V30 2817 C 262.567 -2.69004 -2.02826 0
M  V30 2818 O 263.097 -2.53444 -3.11655 0
M  V30 2819 N 261.303 -2.2777 -1.80469 0
M  V30 2820 H 260.85 -2.40626 -0.919615 0
M  V30 2821 H 260.808 -1.83635 -2.55197 0
M  V30 2822 N 264.58 -0.43555 -1.51462 0
M  V30 2823 C 265.828 0.131254 -2.01673 0
M  V30 2824 C 266.149 1.43368 -1.32177 0
M  V30 2825 O 265.419 1.90524 -0.455769 0
M  V30 2826 H 263.999 0.0514954 -0.745223 0
M  V30 2827 H 266.661 -0.577847 -1.86137 0
M  V30 2828 H 265.757 0.308446 -3.10572 0
M  V30 2829 N 266.058 1.56714 -0.166846 0
M  V30 2830 C 267.474 1.58473 0.189372 0
M  V30 2831 C 267.674 1.18201 1.63189 0
M  V30 2832 O 266.73 0.891528 2.36237 0
M  V30 2833 C 268.043 3.00573 -0.0873872 0
M  V30 2834 C 269.591 3.1299 -0.0252443 0
M  V30 2835 C 270.066 4.57174 -0.274934 0
M  V30 2836 N 271.557 4.62665 -0.222553 0
M  V30 2837 C 272.292 5.72072 -0.389985 0
M  V30 2838 N 271.788 6.90054 -0.616229 0
M  V30 2839 N 273.581 5.61153 -0.326202 0
M  V30 2840 H 265.732 1.8118 -1.10849 0
M  V30 2841 H 267.995 0.839525 -0.440342 0
M  V30 2842 H 267.701 3.34497 -1.0865 0
M  V30 2843 H 267.575 3.72019 0.623037 0
M  V30 2844 H 269.962 2.78895 0.96444 0
M  V30 2845 H 270.043 2.43989 -0.768309 0
M  V30 2846 H 269.687 4.91976 -1.26181 0
M  V30 2847 H 269.617 5.24328 0.48869 0
M  V30 2848 H 272.108 3.77863 -0.0531512 0
M  V30 2849 H 272.421 7.69311 -0.733559 0
M  V30 2850 H 270.766 6.91927 -0.652791 0
M  V30 2851 H 273.957 4.67859 -0.150072 0
M  V30 2852 H 274.13 6.46364 -0.460116 0
M  V30 2853 N 267.536 -0.106894 1.57237 0
M  V30 2854 C 268.761 -0.830287 1.90055 0
M  V30 2855 C 269.186 -1.72064 0.75998 0
M  V30 2856 O 268.544 -1.78982 -0.288991 0
M  V30 2857 C 268.592 -1.6295 3.21683 0
M  V30 2858 O 267.696 -2.73748 3.08441 0
M  V30 2859 H 267.037 -0.228855 0.623315 0
M  V30 2860 H 269.567 -0.085658 2.04421 0
M  V30 2861 H 269.577 -2.01621 3.54701 0
M  V30 2862 H 268.252 -0.975989 4.04286 0
M  V30 2863 H 266.829 -2.38192 2.86913 0
M  V30 2864 N 269.014 -1.53014 -0.377408 0
M  V30 2865 C 270.254 -1.70318 -1.1301 0
M  V30 2866 C 270.618 -0.439538 -1.86901 0
M  V30 2867 O 271.819 -0.489095 -2.64313 0
M  V30 2868 C 270.09 -2.91125 -2.07319 0
M  V30 2869 S 271.649 -3.29075 -2.90268 0
M  V30 2870 H 268.467 -0.599426 -0.382374 0
M  V30 2871 H 271.069 -1.91089 -0.412933 0
M  V30 2872 H 269.773 -3.81303 -1.51777 0
M  V30 2873 H 269.304 -2.7272 -2.83526 0
M  V30 2874 H 271.319 -2.80165 -4.09539 0
M  V30 2875 N 270.492 0.636531 -1.44174 0
M  V30 2876 C 271.903 1.21806 -1.41493 0
M  V30 2877 C 272.254 1.95785 -0.1275 0
M  V30 2878 O 271.379 2.02147 0.772376 0
M  V30 2879 C 271.974 2.21551 -2.56321 0
M  V30 2880 C 270.533 2.75143 -2.56853 0
M  V30 2881 C 269.68 1.50052 -2.33195 0
M  V30 2882 H 272.631 0.427531 -1.52833 0
M  V30 2883 H 272.652 3.0405 -2.28765 0
M  V30 2884 H 272.164 1.67679 -3.50008 0
M  V30 2885 H 270.265 3.33033 -1.67093 0
M  V30 2886 H 270.378 3.2155 -3.55165 0
M  V30 2887 H 268.742 1.77993 -1.82183 0
M  V30 2888 H 269.525 0.980903 -3.28988 0
M  V30 2889 N 271.97 1.30982 0.876444 0
M  V30 2890 C 273.381 1.18277 1.44456 0
M  V30 2891 C 273.732 -0.213265 1.95037 0
M  V30 2892 O 272.857 -1.11057 1.85729 0
M  V30 2893 C 273.452 2.1411 2.62569 0
M  V30 2894 C 272.011 2.05358 3.15444 0
M  V30 2895 C 271.158 2.03706 1.88146 0
M  V30 2896 H 274.109 1.43127 0.685584 0
M  V30 2897 H 274.13 1.72692 3.39054 0
M  V30 2898 H 273.642 3.15706 2.25724 0
M  V30 2899 H 271.743 1.06934 3.56926 0
M  V30 2900 H 271.856 2.94156 3.78166 0
M  V30 2901 H 270.22 1.48629 2.06837 0
M  V30 2902 H 271.003 3.07047 1.53547 0
M  V30 2903 N 273.449 -1.08991 1.13837 0
M  V30 2904 C 274.689 -1.82867 0.913183 0
M  V30 2905 C 275.053 -1.83936 -0.550604 0
M  V30 2906 O 276.254 -2.53515 -0.893515 0
M  V30 2907 C 274.525 -3.24843 1.49036 0
M  V30 2908 S 276.084 -4.15669 1.40588 0
M  V30 2909 H 272.902 -0.630278 0.329046 0
M  V30 2910 H 275.504 -1.31049 1.45073 0
M  V30 2911 H 274.208 -3.21644 2.54899 0
M  V30 2912 H 273.739 -3.81734 0.950947 0
M  V30 2913 H 275.754 -4.94686 0.387353 0
M  V30 2914 N 274.927 -0.932562 -1.27047 0
M  V30 2915 C 275.877 -0.406392 -2.24349 0
M  V30 2916 C 276.861 0.492066 -1.53191 0
M  V30 2917 O 278.053 0.328717 -1.73921 0
M  V30 2918 C 275.182 0.335214 -3.41659 0
M  V30 2919 C 274.268 -0.58004 -4.20115 0
M  V30 2920 N 274.659 -1.70203 -4.76303 0
M  V30 2921 C 272.957 -0.383974 -4.44344 0
M  V30 2922 C 273.658 -2.27167 -5.35509 0
M  V30 2923 N 272.634 -1.56068 -5.20715 0
M  V30 2924 H 276.436 -1.26299 -2.65378 0
M  V30 2925 H 273.95 -0.787408 -1.42034 0
M  V30 2926 H 275.947 0.729142 -4.10474 0
M  V30 2927 H 274.607 1.18868 -3.0216 0
M  V30 2928 H 275.618 -2.08433 -4.74106 0
M  V30 2929 H 272.295 0.428436 -4.15296 0
M  V30 2930 H 273.685 -3.21654 -5.89905 0
M  V30 2931 N 276.405 1.4127 -0.698611 0
M  V30 2932 C 277.315 2.34573 -0.0357891 0
M  V30 2933 C 278.331 1.56393 0.762701 0
M  V30 2934 O 279.507 1.8886 0.699564 0
M  V30 2935 C 276.572 3.35159 0.887089 0
M  V30 2936 C 275.633 4.29225 0.0804634 0
M  V30 2937 C 274.866 5.25006 0.959387 0
M  V30 2938 O 275.089 5.26314 2.19886 0
M  V30 2939 O 274.023 6.00519 0.407439 0
M  V30 2940 H 277.849 2.92838 -0.804957 0
M  V30 2941 H 275.434 1.42175 -0.458966 0
M  V30 2942 H 277.316 3.9689 1.41621 0
M  V30 2943 H 275.991 2.79333 1.6357 0
M  V30 2944 H 274.898 3.70833 -0.493328 0
M  V30 2945 H 276.231 4.88157 -0.629547 0
M  V30 2946 N 277.883 0.443576 1.51229 0
M  V30 2947 C 279.129 -0.120975 2.02439 0
M  V30 2948 C 279.462 -1.41815 1.32674 0
M  V30 2949 O 278.737 -1.89373 0.443622 0
M  V30 2950 C 279.02 -0.333291 3.58554 0
M  V30 2951 C 278.873 0.982968 4.38928 0
M  V30 2952 C 280.192 -1.10028 4.26124 0
M  V30 2953 H 277.311 -0.0424923 0.735774 0
M  V30 2954 H 279.953 0.583794 1.80809 0
M  V30 2955 H 278.103 -0.933614 3.77115 0
M  V30 2956 H 279.775 1.61775 4.32003 0
M  V30 2957 H 278.018 1.58611 4.03763 0
M  V30 2958 H 278.689 0.788379 5.46341 0
M  V30 2959 H 281.165 -0.591711 4.11871 0
M  V30 2960 H 280.041 -1.21761 5.35225 0
M  V30 2961 H 280.302 -2.12996 3.87408 0
M  V30 2962 N 279.361 -1.56624 0.175154 0
M  V30 2963 C 280.601 -1.98894 -0.471221 0
M  V30 2964 C 280.965 -1.05889 -1.60161 0
M  V30 2965 O 282.166 -1.37315 -2.3108 0
M  V30 2966 C 280.437 -3.44865 -0.938241 0
M  V30 2967 S 281.996 -4.09164 -1.58526 0
M  V30 2968 H 278.814 -0.694686 -0.151434 0
M  V30 2969 H 281.416 -1.93577 0.27352 0
M  V30 2970 H 280.12 -4.10265 -0.10518 0
M  V30 2971 H 279.651 -3.53956 -1.71693 0
M  V30 2972 H 281.666 -4.04528 -2.87352 0
M  V30 2973 N 280.839 0.0985539 -1.57292 0
M  V30 2974 C 281.786 1.11981 -2.01814 0
M  V30 2975 C 282.756 1.39999 -0.89384 0
M  V30 2976 O 283.941 1.5152 -1.15958 0
M  V30 2977 C 281.081 2.43577 -2.44467 0
M  V30 2978 C 280.194 2.2232 -3.70402 0
M  V30 2979 C 279.329 3.4729 -4.01949 0
M  V30 2980 C 278.368 3.2128 -5.21005 0
M  V30 2981 N 277.505 4.38507 -5.48321 0
M  V30 2982 H 282.345 0.733149 -2.88841 0
M  V30 2983 H 279.882 0.350482 -1.42864 0
M  V30 2984 H 281.84 3.20373 -2.6724 0
M  V30 2985 H 280.47 2.80097 -1.60455 0
M  V30 2986 H 279.522 1.36343 -3.55126 0
M  V30 2987 H 280.834 1.99089 -4.57345 0
M  V30 2988 H 279.988 4.32495 -4.25479 0
M  V30 2989 H 278.727 3.73572 -3.13521 0
M  V30 2990 H 277.732 2.34468 -4.97298 0
M  V30 2991 H 278.957 2.96348 -6.11028 0
M  V30 2992 H 276.903 4.64871 -4.62851 0
M  V30 2993 H 276.82 4.18455 -6.29628 0
M  V30 2994 H 278.088 5.24787 -5.76385 0
M  V30 2995 N 282.317 1.53212 0.369288 0
M  V30 2996 C 283.565 1.68881 1.11012 0
M  V30 2997 C 283.886 0.441285 1.89941 0
M  V30 2998 O 283.156 -0.544623 1.88177 0
M  V30 2999 H 281.736 0.622569 0.412816 0
M  V30 3000 H 284.398 1.90391 0.416802 0
M  V30 3001 H 283.494 2.54822 1.80201 0
M  V30 3002 N 283.795 -0.628877 1.44509 0
M  V30 3003 C 285.211 -0.947305 1.28446 0
M  V30 3004 C 285.411 -2.00275 0.221872 0
M  V30 3005 O 284.467 -2.49447 -0.391471 0
M  V30 3006 C 285.78 -1.40843 2.65676 0
M  V30 3007 C 287.328 -1.52379 2.73404 0
M  V30 3008 C 287.803 -2.01875 4.11109 0
M  V30 3009 N 289.294 -2.09142 4.13296 0
M  V30 3010 C 290.029 -2.48615 5.16699 0
M  V30 3011 N 289.525 -2.87209 6.30462 0
M  V30 3012 N 291.318 -2.48768 5.04054 0
M  V30 3013 H 283.469 0.0690977 2.12288 0
M  V30 3014 H 285.732 -0.0317164 0.947469 0
M  V30 3015 H 285.438 -0.707206 3.44516 0
M  V30 3016 H 285.312 -2.37902 2.92716 0
M  V30 3017 H 287.699 -2.21598 1.9488 0
M  V30 3018 H 287.78 -0.536898 2.50102 0
M  V30 3019 H 287.424 -1.3325 4.90109 0
M  V30 3020 H 287.354 -3.0144 4.31789 0
M  V30 3021 H 289.845 -1.81991 3.31191 0
M  V30 3022 H 290.158 -3.16149 7.05174 0
M  V30 3023 H 288.503 -2.84955 6.33897 0
M  V30 3024 H 291.694 -2.18009 4.14234 0
M  V30 3025 H 291.867 -2.79207 5.84763 0
M  V30 3026 N 285.273 -1.31445 -0.869486 0
M  V30 3027 C 286.513 -1.22458 -1.63656 0
M  V30 3028 C 286.877 0.213846 -1.90805 0
M  V30 3029 O 288.078 0.427212 -2.65383 0
M  V30 3030 C 286.349 -2.04564 -2.93067 0
M  V30 3031 S 287.908 -2.12445 -3.83944 0
M  V30 3032 H 284.726 -0.436145 -0.561514 0
M  V30 3033 H 287.328 -1.66114 -1.03085 0
M  V30 3034 H 286.032 -3.0816 -2.71045 0
M  V30 3035 H 285.563 -1.6163 -3.58663 0
M  V30 3036 H 287.578 -1.26312 -4.79854 0
M  V30 3037 N 286.751 1.08385 -1.14413 0
M  V30 3038 C 287.997 1.81212 -0.923793 0
M  V30 3039 C 288.352 1.84555 0.543814 0
M  V30 3040 O 287.645 1.31056 1.39767 0
M  V30 3041 C 287.839 3.26273 -1.45879 0
M  V30 3042 C 287.668 3.37063 -2.97689 0
M  V30 3043 C 286.438 3.4824 -3.66138 0
M  V30 3044 C 288.636 3.28698 -3.95553 0
M  V30 3045 N 286.618 3.47824 -5.05858 0
M  V30 3046 C 287.989 3.35276 -5.21527 0
M  V30 3047 C 290.044 3.12437 -3.8767 0
M  V30 3048 C 288.747 3.27267 -6.40538 0
M  V30 3049 C 290.773 3.05757 -5.06228 0
M  V30 3050 C 290.135 3.12938 -6.3107 0
M  V30 3051 H 286.234 0.6769 -0.391574 0
M  V30 3052 H 288.818 1.29455 -1.45429 0
M  V30 3053 H 286.989 3.76474 -0.95507 0
M  V30 3054 H 288.721 3.87165 -1.17835 0
M  V30 3055 H 285.476 3.52141 -3.16692 0
M  V30 3056 H 285.9 3.51171 -5.78798 0
M  V30 3057 H 290.542 3.05747 -2.92025 0
M  V30 3058 H 288.26 3.32718 -7.36427 0
M  V30 3059 H 291.846 2.94295 -5.01878 0
M  V30 3060 H 290.726 3.078 -7.21269 0
M  V30 3061 N 288.23 0.939286 1.26551 0
M  V30 3062 C 289.478 0.58469 1.93457 0
M  V30 3063 C 289.799 -0.878774 1.74076 0
M  V30 3064 O 289.069 -1.62421 1.09528 0
M  V30 3065 H 287.649 0.21325 0.715914 0
M  V30 3066 H 290.311 1.1942 1.54029 0
M  V30 3067 H 289.407 0.800849 3.0165 0
M  V30 3068 N 289.708 -1.40897 0.706093 0
M  V30 3069 C 291.119 -1.84023 0.315052 0
M  V30 3070 C 291.47 -1.5906 -1.14866 0
M  V30 3071 O 290.595 -1.06651 -1.88293 0
M  V30 3072 C 291.19 -3.34055 0.565038 0
M  V30 3073 C 289.749 -3.7571 0.227806 0
M  V30 3074 C 288.896 -2.64204 0.842122 0
M  V30 3075 H 291.847 -1.303 0.905963 0
M  V30 3076 H 291.868 -3.80107 -0.172843 0
M  V30 3077 H 291.38 -3.52192 1.63042 0
M  V30 3078 H 289.481 -3.63172 -0.832895 0
M  V30 3079 H 289.594 -4.74103 0.690174 0
M  V30 3080 H 287.958 -2.53255 0.270893 0
M  V30 3081 H 288.741 -2.85155 1.91158 0
M  V30 3082 N 291.186 -0.45159 -1.50991 0
M  V30 3083 C 292.434 0.109857 -2.01801 0
M  V30 3084 C 292.755 1.41958 -1.3369 0
M  V30 3085 O 292.025 1.9003 -0.475951 0
M  V30 3086 H 290.605 0.0435884 -0.745727 0
M  V30 3087 H 293.267 -0.597557 -1.85514 0
M  V30 3088 H 292.363 0.275489 -3.10882 0
M  V30 3089 N 292.664 1.56529 -0.183458 0
M  V30 3090 C 293.889 2.02064 0.467428 0
M  V30 3091 C 294.314 1.06282 1.55196 0
M  V30 3092 O 293.672 0.0443565 1.81246 0
M  V30 3093 C 293.72 3.46122 1.01153 0
M  V30 3094 O 292.824 3.53437 2.12499 0
M  V30 3095 H 292.165 0.654726 0.110588 0
M  V30 3096 H 294.695 2.02521 -0.290917 0
M  V30 3097 H 294.705 3.85676 1.33108 0
M  V30 3098 H 293.38 4.15331 0.217533 0
M  V30 3099 H 291.957 3.2575 1.81497 0
M  V30 3100 N 294.142 -0.090211 1.57342 0
M  V30 3101 C 295.052 -1.12735 2.05738 0
M  V30 3102 C 296.068 -1.43557 0.983231 0
M  V30 3103 O 297.244 -1.54101 1.29672 0
M  V30 3104 C 294.309 -2.42659 2.47624 0
M  V30 3105 C 293.37 -2.18975 3.69254 0
M  V30 3106 C 292.603 -3.42704 4.09133 0
M  V30 3107 O 292.826 -4.51127 3.49057 0
M  V30 3108 O 291.76 -3.32003 5.02053 0
M  V30 3109 H 295.586 -0.746279 2.94388 0
M  V30 3110 H 293.171 -0.303064 1.46294 0
M  V30 3111 H 295.053 -3.19155 2.7517 0
M  V30 3112 H 293.728 -2.80182 1.62109 0
M  V30 3113 H 292.635 -1.40244 3.46818 0
M  V30 3114 H 293.968 -1.86342 4.55563 0
M  V30 3115 N 295.62 -1.53406 -0.361157 0
M  V30 3116 C 296.897 -1.60411 -1.11927 0
M  V30 3117 C 297.277 -0.414385 -2.06993 0
M  V30 3118 O 296.625 0.594976 -2.20618 0
M  V30 3119 C 296.835 -2.95652 -1.85448 0
M  V30 3120 C 298.183 -3.50386 -2.39823 0
M  V30 3121 O 299.207 -2.97711 -1.95568 0
M  V30 3122 O 298.066 -4.42482 -3.20737 0
M  V30 3123 H 295.16 -0.64811 -0.513695 0
M  V30 3124 H 297.706 -1.65749 -0.364065 0
M  V30 3125 H 296.478 -3.73682 -1.16091 0
M  V30 3126 H 296.101 -2.93825 -2.67866 0
M  V30 3127 N 297.098 0.621204 -1.44841 0
M  V30 3128 C 298.338 1.39201 -1.49674 0
M  V30 3129 C 298.702 1.91561 -0.129764 0
M  V30 3130 O 299.903 2.68748 -0.0527814 0
M  V30 3131 C 298.174 2.519 -2.53537 0
M  V30 3132 S 299.733 3.39916 -2.77494 0
M  V30 3133 H 296.551 0.474758 -0.529269 0
M  V30 3134 H 299.153 0.718171 -1.81831 0
M  V30 3135 H 297.857 2.11761 -3.51547 0
M  V30 3136 H 297.388 3.241 -2.22986 0
M  V30 3137 H 299.403 4.49646 -2.0984 0
M  V30 3138 N 298.576 1.31904 0.862503 0
M  V30 3139 C 299.508 1.16005 1.97675 0
M  V30 3140 C 300.521 0.0971234 1.6251 0
M  V30 3141 O 301.71 0.345337 1.75128 0
M  V30 3142 C 298.81 0.751791 3.30456 0
M  V30 3143 C 297.983 1.90133 3.93914 0
M  V30 3144 C 297.042 1.4779 5.05019 0
M  V30 3145 O 296.068 2.18872 5.25437 0
M  V30 3146 N 297.27 0.369491 5.79323 0
M  V30 3147 H 300.035 2.11982 2.11857 0
M  V30 3148 H 297.596 1.24337 1.03691 0
M  V30 3149 H 299.588 0.451084 4.02178 0
M  V30 3150 H 298.158 -0.116593 3.12382 0
M  V30 3151 H 297.378 2.36896 3.15078 0
M  V30 3152 H 298.666 2.67111 4.33047 0
M  V30 3153 H 298.064 -0.222299 5.65263 0
M  V30 3154 H 296.621 0.128354 6.51674 0
M  V30 3155 N 300.054 -1.07777 1.14986 0
M  V30 3156 C 301.282 -1.84018 0.945773 0
M  V30 3157 C 301.697 -1.81897 -0.505863 0
M  V30 3158 O 301.054 -1.22726 -1.35072 0
M  V30 3159 C 301.105 -3.31287 1.44677 0
M  V30 3160 O 300.826 -3.33449 2.84154 0
M  V30 3161 C 302.327 -4.24311 1.28355 0
M  V30 3162 H 299.547 -0.580716 0.336169 0
M  V30 3163 H 302.091 -1.36077 1.52654 0
M  V30 3164 H 300.246 -3.76594 0.908625 0
M  V30 3165 H 300.66 -4.25427 3.06777 0
M  V30 3166 H 302.134 -5.2573 1.68261 0
M  V30 3167 H 302.611 -4.38612 0.227184 0
M  V30 3168 H 303.217 -3.84836 1.81056 0
M  V30 3169 N 301.532 -0.945985 -1.26051 0
M  V30 3170 C 302.462 -0.477172 -2.28572 0
M  V30 3171 C 303.443 0.472032 -1.63419 0
M  V30 3172 O 304.628 0.372853 -1.90587 0
M  V30 3173 C 301.758 0.253975 -3.4637 0
M  V30 3174 C 300.712 -0.609135 -4.23643 0
M  V30 3175 C 300.038 0.252252 -5.34105 0
M  V30 3176 C 301.338 -1.8829 -4.8718 0
M  V30 3177 H 303.032 -1.33402 -2.68038 0
M  V30 3178 H 300.578 -0.642904 -1.28852 0
M  V30 3179 H 302.531 0.593016 -4.17207 0
M  V30 3180 H 301.255 1.145 -3.05871 0
M  V30 3181 H 299.914 -0.931138 -3.54578 0
M  V30 3182 H 299.562 1.14278 -4.89846 0
M  V30 3183 H 299.262 -0.32188 -5.86718 0
M  V30 3184 H 300.786 0.586454 -6.07777 0
M  V30 3185 H 302.2 -1.61081 -5.50205 0
M  V30 3186 H 300.597 -2.40199 -5.49931 0
M  V30 3187 H 301.667 -2.59134 -4.09851 0
M  V30 3188 N 303.011 1.40521 -0.713556 0
M  V30 3189 C 304.239 2.05237 -0.261775 0
M  V30 3190 C 304.654 1.53755 1.09567 0
M  V30 3191 O 304.011 0.693268 1.6882 0
M  V30 3192 C 304.062 3.60763 -0.230706 0
M  V30 3193 O 303.783 4.10345 -1.53455 0
M  V30 3194 C 305.284 4.42651 0.239874 0
M  V30 3195 H 302.504 0.660533 -0.118057 0
M  V30 3196 H 305.048 1.79967 -0.971192 0
M  V30 3197 H 303.203 3.8501 0.429661 0
M  V30 3198 H 303.617 5.04526 -1.43366 0
M  V30 3199 H 305.091 5.51599 0.210468 0
M  V30 3200 H 305.568 4.20082 1.28171 0
M  V30 3201 H 306.174 4.23507 -0.390142 0
M  V30 3202 N 304.489 0.459591 1.5075 0
M  V30 3203 C 305.436 -0.340524 2.28274 0
M  V30 3204 C 306.406 -0.997371 1.32822 0
M  V30 3205 O 307.591 -1.01202 1.61749 0
M  V30 3206 C 304.731 -1.42317 3.14388 0
M  V30 3207 C 303.844 -0.782251 4.24859 0
M  V30 3208 C 302.979 -1.84182 4.98247 0
M  V30 3209 C 302.018 -1.18053 6.00608 0
M  V30 3210 N 301.155 -2.18244 6.67319 0
M  V30 3211 H 305.995 0.326899 2.96202 0
M  V30 3212 H 303.532 0.173057 1.46078 0
M  V30 3213 H 305.49 -2.06241 3.62658 0
M  V30 3214 H 304.12 -2.05992 2.4853 0
M  V30 3215 H 303.172 -0.0307404 3.80388 0
M  V30 3216 H 304.484 -0.259663 4.98124 0
M  V30 3217 H 303.638 -2.55714 5.50177 0
M  V30 3218 H 302.377 -2.39819 4.24662 0
M  V30 3219 H 301.382 -0.450776 5.47949 0
M  V30 3220 H 302.607 -0.631202 6.7616 0
M  V30 3221 H 300.553 -2.72919 5.96533 0
M  V30 3222 H 300.47 -1.70938 7.36421 0
M  V30 3223 H 301.738 -2.89191 7.23871 0
M  V30 3224 N 305.967 -1.56429 0.191757 0
M  V30 3225 C 307.195 -2.01867 -0.453586 0
M  V30 3226 C 307.61 -1.07191 -1.5542 0
M  V30 3227 O 306.967 -0.0762108 -1.82341 0
M  V30 3228 C 307.018 -3.47017 -1.013 0
M  V30 3229 O 306.739 -4.38078 0.0437005 0
M  V30 3230 C 308.24 -4.07956 -1.73456 0
M  V30 3231 H 305.46 -0.661211 -0.114199 0
M  V30 3232 H 308.004 -2.02295 0.299483 0
M  V30 3233 H 306.159 -3.47298 -1.71647 0
M  V30 3234 H 306.573 -5.23178 -0.372212 0
M  V30 3235 H 308.047 -5.1138 -2.07833 0
M  V30 3236 H 308.524 -3.51222 -2.63704 0
M  V30 3237 H 309.13 -4.11437 -1.07702 0
M  V30 3238 N 307.445 0.0818655 -1.57387 0
M  V30 3239 C 308.694 0.781681 -1.85937 0
M  V30 3240 C 309.007 1.79246 -0.782957 0
M  V30 3241 O 310.213 2.54112 -0.955987 0
M  V30 3242 C 308.669 1.44109 -3.29789 0
M  V30 3243 C 308.277 0.469396 -4.45534 0
M  V30 3244 C 310.021 2.12386 -3.67549 0
M  V30 3245 C 307.928 1.13415 -5.80423 0
M  V30 3246 H 306.858 0.295682 -0.693605 0
M  V30 3247 H 309.509 0.0348051 -1.83467 0
M  V30 3248 H 307.891 2.23588 -3.2684 0
M  V30 3249 H 309.065 -0.294856 -4.59856 0
M  V30 3250 H 307.38 -0.108383 -4.16259 0
M  V30 3251 H 309.977 2.62878 -4.65617 0
M  V30 3252 H 310.32 2.91877 -2.96839 0
M  V30 3253 H 310.853 1.39751 -3.72444 0
M  V30 3254 H 307.592 0.379771 -6.54399 0
M  V30 3255 H 307.112 1.8695 -5.69921 0
M  V30 3256 H 308.791 1.65686 -6.25426 0
M  V30 3257 N 308.923 1.53595 0.353017 0
M  V30 3258 C 310.163 1.72094 1.10286 0
M  V30 3259 C 310.527 0.469217 1.86178 0
M  V30 3260 O 311.728 0.531083 2.63501 0
M  V30 3261 C 309.999 2.94386 2.02661 0
M  V30 3262 S 311.558 3.33651 2.84996 0
M  V30 3263 H 308.376 0.605433 0.372789 0
M  V30 3264 H 310.978 1.91722 0.38248 0
M  V30 3265 H 309.682 3.83669 1.45691 0
M  V30 3266 H 309.213 2.77197 2.79152 0
M  V30 3267 H 311.228 2.86645 4.0503 0
M  V30 3268 N 310.401 -0.613514 1.45168 0
M  V30 3269 C 311.364 -1.7065 1.53007 0
M  V30 3270 C 312.364 -1.5548 0.410184 0
M  V30 3271 O 313.554 -1.60656 0.673455 0
M  V30 3272 C 310.686 -3.09875 1.42093 0
M  V30 3273 H 311.879 -1.65068 2.50385 0
M  V30 3274 H 309.432 -0.828728 1.32521 0
M  V30 3275 H 310.167 -3.21039 0.458769 0
M  V30 3276 H 309.952 -3.22293 2.23315 0
M  V30 3277 H 311.442 -3.895 1.50598 0
M  V30 3278 N 311.879 -1.3236 -0.855495 0
M  V30 3279 C 313.29 -1.2056 -1.42556 0
M  V30 3280 C 313.641 0.182209 -1.95352 0
M  V30 3281 O 312.766 1.08088 -1.87472 0
M  V30 3282 C 313.361 -2.1826 -2.59129 0
M  V30 3283 C 311.92 -2.10351 -3.12137 0
M  V30 3284 C 311.067 -2.06674 -1.84882 0
M  V30 3285 H 314.018 -1.442 -0.662727 0
M  V30 3286 H 314.039 -1.78064 -3.36264 0
M  V30 3287 H 313.551 -3.19257 -2.20673 0
M  V30 3288 H 311.652 -1.12599 -3.55179 0
M  V30 3289 H 311.765 -3.00135 -3.73438 0
M  V30 3290 H 310.129 -1.51901 -2.04446 0
M  V30 3291 H 310.912 -3.09451 -1.48643 0
M  V30 3292 N 313.357 1.07166 -1.15556 0
M  V30 3293 C 314.289 2.14341 -0.811815 0
M  V30 3294 C 315.302 1.61835 0.177015 0
M  V30 3295 O 316.491 1.78439 -0.0464996 0
M  V30 3296 C 313.591 3.38387 -0.186481 0
M  V30 3297 C 312.764 4.20238 -1.21321 0
M  V30 3298 C 311.823 5.2266 -0.609302 0
M  V30 3299 O 310.849 5.54719 -1.27576 0
M  V30 3300 N 312.051 5.77306 0.608099 0
M  V30 3301 H 314.816 2.44431 -1.73417 0
M  V30 3302 H 312.377 1.23089 -1.0517 0
M  V30 3303 H 314.369 4.04044 0.230339 0
M  V30 3304 H 312.939 3.05994 0.639249 0
M  V30 3305 H 312.159 3.50369 -1.80652 0
M  V30 3306 H 313.447 4.71736 -1.90638 0
M  V30 3307 H 312.845 5.53513 1.1679 0
M  V30 3308 H 311.402 6.44583 0.96725 0
M  V30 3309 N 314.835 0.952656 1.25548 0
M  V30 3310 C 316.075 0.614013 1.9496 0
M  V30 3311 C 316.439 -0.833215 1.72978 0
M  V30 3312 O 317.64 -1.28135 2.36294 0
M  V30 3313 C 315.911 0.960562 3.4425 0
M  V30 3314 S 317.47 0.734195 4.32614 0
M  V30 3315 H 314.288 0.225754 0.674208 0
M  V30 3316 H 316.89 1.22641 1.52248 0
M  V30 3317 H 315.594 2.01103 3.57751 0
M  V30 3318 H 315.125 0.338336 3.91942 0
M  V30 3319 H 317.14 -0.395995 4.94617 0
M  V30 3320 N 316.313 -1.40141 0.720998 0
M  V30 3321 C 317.261 -2.3252 0.0608547 0
M  V30 3322 C 318.255 -1.52326 -0.741152 0
M  V30 3323 O 319.461 -1.68089 -0.643911 0
M  V30 3324 H 315.836 -0.751999 0.000876664 0
M  V30 3325 H 317.807 -2.8584 0.856614 0
M  V30 3326 C 316.556 -3.37331 -0.842809 0
M  V30 3327 H 315.879 -3.99108 -0.235084 0
M  V30 3328 H 317.319 -4.04452 -1.27257 0
M  V30 3329 C 315.778 -2.73246 -1.97074 0
M  V30 3330 O 316.308 -2.59998 -3.06209 0
M  V30 3331 N 314.514 -2.31547 -1.75597 0
M  V30 3332 H 314.061 -2.42522 -0.868368 0
M  V30 3333 H 314.019 -1.89007 -2.51244 0
M  V30 3334 N 317.792 -0.46758 -1.50504 0
M  V30 3335 C 319.04 0.0884469 -2.01906 0
M  V30 3336 C 319.361 1.40532 -1.35188 0
M  V30 3337 O 318.631 1.89515 -0.496079 0
M  V30 3338 H 317.211 0.0356765 -0.746148 0
M  V30 3339 H 319.873 -0.6172 -1.84869 0
M  V30 3340 H 318.969 0.2425 -3.11156 0
M  V30 3341 N 319.27 1.56325 -0.20005 0
M  V30 3342 C 320.22 2.15939 0.731743 0
M  V30 3343 C 321.204 1.10154 1.17281 0
M  V30 3344 O 322.396 1.36203 1.13038 0
M  V30 3345 C 319.525 2.82614 1.94895 0
M  V30 3346 C 318.611 3.95596 1.52855 0
M  V30 3347 N 319.002 4.99118 0.819418 0
M  V30 3348 C 317.3 4.07288 1.81748 0
M  V30 3349 C 318.001 5.78513 0.608053 0
M  V30 3350 N 316.977 5.31117 1.15828 0
M  V30 3351 H 320.779 2.9334 0.181285 0
M  V30 3352 H 318.293 1.624 -0.000452172 0
M  V30 3353 H 320.29 3.23718 2.62702 0
M  V30 3354 H 318.95 2.06702 2.50408 0
M  V30 3355 H 319.961 5.15723 0.47436 0
M  V30 3356 H 316.638 3.42509 2.38734 0
M  V30 3357 H 318.028 6.71885 0.0451619 0
M  V30 3358 N 320.748 -0.0735177 1.57428 0
M  V30 3359 C 321.988 -0.778363 1.89 0
M  V30 3360 C 322.352 -1.7483 0.793634 0
M  V30 3361 O 323.553 -2.49811 0.992367 0
M  V30 3362 C 321.824 -1.46929 3.25802 0
M  V30 3363 S 323.383 -2.20943 3.79117 0
M  V30 3364 H 320.201 -0.258874 0.662197 0
M  V30 3365 H 322.803 -0.0345338 1.95469 0
M  V30 3366 H 321.507 -0.749532 4.03497 0
M  V30 3367 H 321.038 -2.25258 3.22525 0
M  V30 3368 H 323.053 -3.47435 3.54265 0
M  V30 3369 N 322.226 -1.5378 -0.344866 0
M  V30 3370 C 323.473 -1.70963 -1.08526 0
M  V30 3371 C 323.801 -0.472126 -1.88683 0
M  V30 3372 O 323.056 0.546116 -1.87926 0
M  V30 3373 C 323.355 -2.92407 -2.05506 0
M  V30 3374 C 323.021 -4.28066 -1.41671 0
M  V30 3375 C 321.683 -4.64951 -1.2399 0
M  V30 3376 C 324.035 -5.12344 -0.956726 0
M  V30 3377 C 321.363 -5.83733 -0.589277 0
M  V30 3378 C 323.715 -6.3179 -0.320015 0
M  V30 3379 C 322.379 -6.67372 -0.130881 0
M  V30 3380 H 321.649 -0.625598 -0.397124 0
M  V30 3381 H 324.296 -1.87995 -0.36469 0
M  V30 3382 H 322.601 -2.69973 -2.8394 0
M  V30 3383 H 324.298 -3.02895 -2.62784 0
M  V30 3384 H 320.888 -3.99034 -1.56429 0
M  V30 3385 H 325.072 -4.8438 -1.08118 0
M  V30 3386 H 320.328 -6.09877 -0.431344 0
M  V30 3387 H 324.502 -6.96386 0.0445072 0
M  V30 3388 H 322.129 -7.59273 0.375318 0
M  V30 3389 N 323.704 0.605807 -1.45491 0
M  V30 3390 C 324.952 1.36207 -1.49305 0
M  V30 3391 C 325.273 1.94519 -0.136863 0
M  V30 3392 O 324.543 1.77261 0.833983 0
M  V30 3393 H 323.123 0.50565 -0.549843 0
M  V30 3394 H 325.785 0.711239 -1.81459 0
M  V30 3395 H 324.881 2.18058 -2.23287 0
M  V30 3396 N 325.182 1.32811 0.848464 0
M  V30 3397 C 326.593 1.21315 1.41914 0
M  V30 3398 C 326.944 -0.171847 1.95446 0
M  V30 3399 O 326.069 -1.07093 1.88043 0
M  V30 3400 C 326.664 2.19631 2.57968 0
M  V30 3401 C 325.223 2.12003 3.11017 0
M  V30 3402 C 324.37 2.07651 1.83783 0
M  V30 3403 H 327.321 1.44549 0.655071 0
M  V30 3404 H 327.342 1.79845 3.35315 0
M  V30 3405 H 326.854 3.20423 2.18976 0
M  V30 3406 H 324.955 1.14481 3.54577 0
M  V30 3407 H 325.068 3.02111 3.71841 0
M  V30 3408 H 323.432 1.52983 2.03638 0
M  V30 3409 H 324.215 3.10235 1.47 0
M  V30 3410 N 326.66 -1.06551 1.16123 0
M  V30 3411 C 327.608 -2.16063 0.861371 0
M  V30 3412 C 328.602 -1.6856 -0.168517 0
M  V30 3413 O 329.808 -1.79986 -0.0227579 0
M  V30 3414 H 326.183 -0.705278 0.260934 0
M  V30 3415 H 328.154 -2.38567 1.79244 0
M  V30 3416 C 326.903 -3.45661 0.376018 0
M  V30 3417 H 326.226 -3.82604 1.15992 0
M  V30 3418 H 327.666 -4.23504 0.204951 0
M  V30 3419 C 326.125 -3.24546 -0.903954 0
M  V30 3420 O 326.655 -3.49865 -1.97377 0
M  V30 3421 N 324.861 -2.77992 -0.846679 0
M  V30 3422 H 324.408 -2.57589 0.0241017 0
M  V30 3423 H 324.366 -2.64244 -1.70359 0
M  V30 3424 N 328.138 -0.959301 -1.25041 0
M  V30 3425 C 329.549 -0.65667 -1.74771 0
M  V30 3426 C 329.9 0.827852 -1.77879 0
M  V30 3427 O 329.025 1.64783 -1.40269 0
M  V30 3428 C 329.62 -1.1853 -3.1739 0
M  V30 3429 C 328.179 -0.932734 -3.6466 0
M  V30 3430 C 327.326 -1.32558 -2.43564 0
M  V30 3431 H 330.277 -1.13558 -1.10862 0
M  V30 3432 H 330.298 -0.547582 -3.76539 0
M  V30 3433 H 329.81 -2.26576 -3.15095 0
M  V30 3434 H 327.911 0.13257 -3.72364 0
M  V30 3435 H 328.024 -1.57248 -4.52559 0
M  V30 3436 H 326.388 -0.743956 -2.43593 0
M  V30 3437 H 327.171 -2.41537 -2.43957 0
M  V30 3438 N 329.616 1.39756 -0.72842 0
M  V30 3439 C 330.564 2.32485 -0.0731849 0
M  V30 3440 C 331.558 1.52717 0.733063 0
M  V30 3441 O 332.764 1.68428 0.634988 0
M  V30 3442 H 329.139 0.751984 -0.00486469 0
M  V30 3443 H 331.11 2.85382 -0.871761 0
M  V30 3444 C 329.859 3.37773 0.824908 0
M  V30 3445 H 329.182 3.99227 0.213915 0
M  V30 3446 H 330.622 4.05121 1.25111 0
M  V30 3447 C 329.081 2.74287 1.95622 0
M  V30 3448 O 329.611 2.61618 3.04826 0
M  V30 3449 N 327.817 2.32475 1.74367 0
M  V30 3450 H 327.364 2.4298 0.855494 0
M  V30 3451 H 327.322 1.90337 2.50238 0
M  V30 3452 N 331.094 0.475555 1.50254 0
M  V30 3453 C 332.026 -0.352649 2.26471 0
M  V30 3454 C 333.039 -0.953165 1.3198 0
M  V30 3455 O 334.228 -0.840815 1.57457 0
M  V30 3456 C 331.328 -1.50902 3.0345 0
M  V30 3457 C 330.501 -1.02047 4.25329 0
M  V30 3458 C 329.56 -2.05142 4.84565 0
M  V30 3459 O 328.586 -1.63023 5.45355 0
M  V30 3460 N 329.788 -3.37987 4.71959 0
M  V30 3461 H 332.553 0.300767 2.98187 0
M  V30 3462 H 330.114 0.306598 1.5897 0
M  V30 3463 H 332.106 -2.19572 3.39956 0
M  V30 3464 H 330.676 -2.06705 2.34504 0
M  V30 3465 H 329.896 -0.159507 3.93877 0
M  V30 3466 H 331.184 -0.672061 5.04342 0
M  V30 3467 H 330.582 -3.74913 4.23623 0
M  V30 3468 H 329.139 -4.02443 5.12721 0
M  V30 3469 N 332.573 -1.56217 0.208337 0
M  V30 3470 C 333.813 -1.99849 -0.428927 0
M  V30 3471 C 334.177 -1.09262 -1.57879 0
M  V30 3472 O 335.378 -1.42185 -2.28116 0
M  V30 3473 C 333.649 -3.46777 -0.864879 0
M  V30 3474 S 335.208 -4.12434 -1.49811 0
M  V30 3475 H 332.026 -0.697742 -0.136665 0
M  V30 3476 H 334.628 -1.92953 0.314519 0
M  V30 3477 H 333.332 -4.10396 -0.0181326 0
M  V30 3478 H 332.863 -3.57518 -1.64147 0
M  V30 3479 H 334.878 -4.10532 -2.78707 0
M  V30 3480 N 334.051 0.0651679 -1.57465 0
M  V30 3481 C 335.291 0.768329 -1.8941 0
M  V30 3482 C 335.655 1.74406 -0.802894 0
M  V30 3483 O 336.856 2.49281 -1.0056 0
M  V30 3484 C 335.127 1.45199 -3.26576 0
M  V30 3485 S 336.686 2.1893 -3.80283 0
M  V30 3486 H 333.504 0.255359 -0.663561 0
M  V30 3487 H 336.106 0.024167 -1.95485 0
M  V30 3488 H 334.81 0.728123 -4.03889 0
M  V30 3489 H 334.341 2.23545 -3.23715 0
M  V30 3490 H 336.356 3.45551 -3.56102 0
M  V30 3491 N 335.529 1.53961 0.336706 0
M  V30 3492 C 336.479 1.7881 1.41461 0
M  V30 3493 C 337.463 0.643561 1.47469 0
M  V30 3494 O 338.655 0.903166 1.52223 0
M  V30 3495 C 335.784 2.00722 2.78506 0
M  V30 3496 C 334.87 3.2126 2.76862 0
M  V30 3497 N 335.261 4.42588 2.44845 0
M  V30 3498 C 333.559 3.22568 3.08004 0
M  V30 3499 C 334.26 5.2447 2.51607 0
M  V30 3500 N 333.236 4.61344 2.87511 0
M  V30 3501 H 337.038 2.70205 1.15615 0
M  V30 3502 H 334.552 1.52978 0.545112 0
M  V30 3503 H 336.549 2.1666 3.5618 0
M  V30 3504 H 335.209 1.10573 3.05293 0
M  V30 3505 H 336.22 4.69819 2.17922 0
M  V30 3506 H 332.897 2.42409 3.39918 0
M  V30 3507 H 334.287 6.31324 2.29955 0
M  V30 3508 N 337.007 -0.598083 1.45811 0
M  V30 3509 C 338.284 -1.35777 1.40797 0
M  V30 3510 C 338.664 -2.10935 0.083462 0
M  V30 3511 O 338.012 -2.08505 -0.934763 0
M  V30 3512 C 338.222 -2.29666 2.62783 0
M  V30 3513 C 339.57 -2.91977 3.08277 0
M  V30 3514 O 340.594 -2.39984 2.63223 0
M  V30 3515 O 339.453 -3.86376 3.86491 0
M  V30 3516 H 336.547 -0.609291 0.55919 0
M  V30 3517 H 339.093 -0.620379 1.57954 0
M  V30 3518 H 337.865 -1.73454 3.50756 0
M  V30 3519 H 337.488 -3.1077 2.48008 0
M  V30 3520 N 338.485 -1.33259 -0.841409 0
M  V30 3521 C 339.395 -1.25332 -1.98316 0
M  V30 3522 C 340.411 -0.164364 -1.73222 0
M  V30 3523 O 341.587 -0.387486 -1.97637 0
M  V30 3524 C 338.652 -0.990078 -3.32262 0
M  V30 3525 C 337.713 -2.16879 -3.70489 0
M  V30 3526 C 336.946 -1.91801 -4.98044 0
M  V30 3527 O 337.169 -0.867075 -5.63771 0
M  V30 3528 O 336.103 -2.78267 -5.33714 0
M  V30 3529 H 339.929 -2.21344 -2.07944 0
M  V30 3530 H 337.514 -1.1328 -0.974058 0
M  V30 3531 H 339.396 -0.860321 -4.12524 0
M  V30 3532 H 338.071 -0.0602155 -3.23644 0
M  V30 3533 H 336.978 -2.35407 -2.90748 0
M  V30 3534 H 338.311 -3.0819 -3.8377 0
M  V30 3535 N 339.963 1.05934 -1.16686 0
M  V30 3536 C 341.203 1.80382 -0.961345 0
M  V30 3537 C 341.567 1.85331 0.501643 0
M  V30 3538 O 342.768 2.55795 0.825986 0
M  V30 3539 C 341.039 3.20777 -1.57596 0
M  V30 3540 S 342.598 4.11795 -1.51559 0
M  V30 3541 H 339.416 0.621332 -0.345641 0
M  V30 3542 H 342.018 1.27157 -1.48497 0
M  V30 3543 H 340.722 3.14773 -2.63337 0
M  V30 3544 H 340.253 3.79078 -1.05182 0
M  V30 3545 H 342.268 4.93485 -0.518374 0
M  V30 3546 N 341.441 0.965919 1.2453 0
M  V30 3547 C 342.404 0.499547 2.2369 0
M  V30 3548 C 343.404 -0.40294 1.5567 0
M  V30 3549 O 344.594 -0.19865 1.73064 0
M  V30 3550 C 341.726 -0.276792 3.39774 0
M  V30 3551 H 342.919 1.37613 2.66463 0
M  V30 3552 H 340.472 0.750324 1.37112 0
M  V30 3553 H 341.207 -1.17055 3.02438 0
M  V30 3554 H 340.992 0.370826 3.90343 0
M  V30 3555 H 342.482 -0.592175 4.1338 0
M  V30 3556 N 342.919 -1.39368 0.735821 0
M  V30 3557 C 344.167 -2.00101 0.283562 0
M  V30 3558 C 344.488 -1.5868 -1.13338 0
M  V30 3559 O 343.758 -0.835423 -1.77193 0
M  V30 3560 H 342.338 -0.740024 0.101851 0
M  V30 3561 H 345 -1.70404 0.945962 0
M  V30 3562 H 344.096 -3.10323 0.332604 0
M  V30 3563 N 344.397 -0.483516 -1.5 0
M  V30 3564 C 345.645 0.067027 -2.01989 0
M  V30 3565 C 345.966 1.3909 -1.36671 0
M  V30 3566 O 345.236 1.88978 -0.516152 0
M  V30 3567 H 343.816 0.0277606 -0.746484 0
M  V30 3568 H 346.478 -0.636773 -1.84204 0
M  V30 3569 H 345.574 0.209484 -3.11396 0
M  V30 3570 N 345.875 1.56104 -0.216619 0
M  V30 3571 C 347.115 2.00074 0.418322 0
M  V30 3572 C 347.479 1.10098 1.57297 0
M  V30 3573 O 348.68 1.43393 2.27359 0
M  V30 3574 C 346.951 3.47231 0.846477 0
M  V30 3575 S 348.51 4.13223 1.47622 0
M  V30 3576 H 345.328 0.698457 0.132962 0
M  V30 3577 H 347.93 1.92784 -0.324748 0
M  V30 3578 H 346.634 4.104 -0.0036319 0
M  V30 3579 H 346.165 3.58384 1.62248 0
M  V30 3580 H 348.18 4.12005 2.76526 0
M  V30 3581 N 347.353 -0.0568162 1.57498 0
M  V30 3582 C 348.578 -0.769402 1.92601 0
M  V30 3583 C 349.003 -1.69559 0.814336 0
M  V30 3584 O 348.361 -1.79811 -0.231903 0
M  V30 3585 C 348.409 -1.52634 3.26704 0
M  V30 3586 O 347.513 -2.63797 3.16994 0
M  V30 3587 H 346.854 -0.208909 0.63028 0
M  V30 3588 H 349.384 -0.0205798 2.0459 0
M  V30 3589 H 349.394 -1.90234 3.60936 0
M  V30 3590 H 348.069 -0.846875 4.07186 0
M  V30 3591 H 346.646 -2.28943 2.94346 0
M  V30 3592 N 348.832 -1.54138 -0.328536 0
M  V30 3593 C 350.08 -1.71765 -1.06496 0
M  V30 3594 C 350.401 -0.49149 -1.88704 0
M  V30 3595 O 349.671 0.494539 -1.89555 0
M  V30 3596 H 348.251 -0.633295 -0.396164 0
M  V30 3597 H 350.913 -1.91429 -0.366176 0
M  V30 3598 H 350.009 -2.5951 -1.73381 0
M  V30 3599 N 350.31 0.590341 -1.46126 0
M  V30 3600 C 351.721 1.17243 -1.45296 0
M  V30 3601 C 352.072 1.95281 -0.189723 0
M  V30 3602 O 351.197 2.04502 0.707674 0
M  V30 3603 C 351.792 2.13284 -2.6324 0
M  V30 3604 C 350.351 2.66832 -2.65476 0
M  V30 3605 C 349.498 1.42557 -2.3785 0
M  V30 3606 H 352.449 0.378692 -1.54116 0
M  V30 3607 H 352.47 2.96619 -2.38323 0
M  V30 3608 H 351.982 1.56459 -3.55165 0
M  V30 3609 H 350.083 3.27548 -1.77603 0
M  V30 3610 H 350.196 3.10088 -3.65215 0
M  V30 3611 H 348.56 1.72107 -1.87753 0
M  V30 3612 H 349.343 0.875741 -3.31942 0
M  V30 3613 N 351.788 1.33704 0.83433 0
M  V30 3614 C 352.72 1.20172 1.9517 0
M  V30 3615 C 353.733 0.131572 1.62267 0
M  V30 3616 O 354.922 0.382406 1.74356 0
M  V30 3617 C 352.022 0.821716 3.28787 0
M  V30 3618 C 351.195 1.98446 3.89792 0
M  V30 3619 C 350.254 1.58469 5.01771 0
M  V30 3620 O 349.28 2.29968 5.20676 0
M  V30 3621 N 350.482 0.492291 5.78409 0
M  V30 3622 H 353.247 2.16429 2.07313 0
M  V30 3623 H 350.808 1.26509 1.0103 0
M  V30 3624 H 352.8 0.536291 4.01131 0
M  V30 3625 H 351.37 -0.0503058 3.1256 0
M  V30 3626 H 350.59 2.43526 3.09982 0
M  V30 3627 H 351.878 2.76236 4.27283 0
M  V30 3628 H 351.276 -0.102349 5.65607 0
M  V30 3629 H 349.833 0.266555 6.51255 0
M  V30 3630 N 353.266 -1.05314 1.17247 0
M  V30 3631 C 354.543 -1.75184 0.87005 0
M  V30 3632 C 354.923 -2.01481 -0.629965 0
M  V30 3633 O 354.271 -1.64988 -1.58086 0
M  V30 3634 C 354.481 -3.04594 1.70363 0
M  V30 3635 C 355.829 -3.78567 1.92281 0
M  V30 3636 O 356.853 -3.14461 1.67311 0
M  V30 3637 O 355.712 -4.93755 2.3424 0
M  V30 3638 H 352.806 -0.761729 0.322021 0
M  V30 3639 H 355.352 -1.11493 1.27935 0
M  V30 3640 H 354.124 -2.81201 2.72106 0
M  V30 3641 H 353.747 -3.76022 1.29202 0
M  V30 3642 N 354.744 -0.972509 -1.24016 0
M  V30 3643 C 355.972 -0.654803 -1.96265 0
M  V30 3644 C 356.387 0.776708 -1.72083 0
M  V30 3645 O 355.744 1.52171 -1.00748 0
M  V30 3646 C 355.795 -0.92592 -3.49441 0
M  V30 3647 O 355.516 -2.30116 -3.72798 0
M  V30 3648 C 357.017 -0.623068 -4.38899 0
M  V30 3649 H 354.237 -0.243907 -0.6251 0
M  V30 3650 H 356.781 -1.30175 -1.57717 0
M  V30 3651 H 354.936 -0.325108 -3.86033 0
M  V30 3652 H 355.35 -2.38483 -4.67147 0
M  V30 3653 H 356.824 -0.863189 -5.45209 0
M  V30 3654 H 357.301 0.442754 -4.36963 0
M  V30 3655 H 357.907 -1.204 -4.07902 0
M  V30 3656 N 356.222 1.38976 -0.743202 0
M  V30 3657 C 357.499 1.94351 -0.220705 0
M  V30 3658 C 357.879 1.67935 1.2791 0
M  V30 3659 O 357.227 1.01211 2.04862 0
M  V30 3660 C 357.437 3.44426 -0.563171 0
M  V30 3661 C 358.785 4.2144 -0.517046 0
M  V30 3662 O 359.809 3.52661 -0.500846 0
M  V30 3663 O 358.668 5.44032 -0.518806 0
M  V30 3664 H 355.762 0.825879 -0.043047 0
M  V30 3665 H 358.308 1.48429 -0.822618 0
M  V30 3666 H 357.08 3.5712 -1.59941 0
M  V30 3667 H 356.703 3.97543 0.0672883 0
M  V30 3668 N 357.7 0.491464 1.49741 0
M  V30 3669 C 358.94 -0.0549118 2.04326 0
M  V30 3670 C 359.304 -1.35148 1.36378 0
M  V30 3671 O 360.505 -1.9815 1.81631 0
M  V30 3672 C 358.776 -0.213841 3.5676 0
M  V30 3673 S 360.335 -0.715839 4.32922 0
M  V30 3674 H 357.153 -0.00630513 0.710972 0
M  V30 3675 H 359.755 0.663257 1.83905 0
M  V30 3676 H 358.459 0.73527 4.0376 0
M  V30 3677 H 357.99 -0.957529 3.81569 0
M  V30 3678 H 360.005 -1.9864 4.54705 0
M  V30 3679 N 359.178 -1.55987 0.224894 0
M  V30 3680 C 360.425 -1.9839 -0.4059 0
M  V30 3681 C 360.753 -1.11261 -1.59535 0
M  V30 3682 O 360.008 -0.158314 -1.95059 0
M  V30 3683 C 360.307 -3.46394 -0.880106 0
M  V30 3684 C 359.973 -4.5046 0.19918 0
M  V30 3685 C 358.635 -4.7864 0.495661 0
M  V30 3686 C 360.987 -5.12855 0.928939 0
M  V30 3687 C 358.315 -5.66497 1.52636 0
M  V30 3688 C 360.667 -6.01828 1.949 0
M  V30 3689 C 359.331 -6.28351 2.25236 0
M  V30 3690 H 358.601 -0.725961 -0.148529 0
M  V30 3691 H 361.248 -1.88668 0.328113 0
M  V30 3692 H 359.553 -3.53337 -1.69294 0
M  V30 3693 H 361.25 -3.76577 -1.37808 0
M  V30 3694 H 357.84 -4.28579 -0.0420526 0
M  V30 3695 H 362.024 -4.9115 0.713129 0
M  V30 3696 H 357.28 -5.8531 1.76698 0
M  V30 3697 H 361.454 -6.49225 2.51951 0
M  V30 3698 H 359.081 -6.96226 3.05244 0
M  V30 3699 N 360.656 0.0484629 -1.57525 0
M  V30 3700 C 361.619 1.03956 -2.04269 0
M  V30 3701 C 362.619 1.30211 -0.943496 0
M  V30 3702 O 363.809 1.25539 -1.20771 0
M  V30 3703 C 360.941 2.37742 -2.44319 0
M  V30 3704 H 362.134 0.636182 -2.93075 0
M  V30 3705 H 359.687 0.294811 -1.53494 0
M  V30 3706 H 360.422 2.82866 -1.5861 0
M  V30 3707 H 360.207 2.20021 -3.24551 0
M  V30 3708 H 361.697 3.08936 -2.80978 0
M  V30 3709 N 362.134 1.5431 0.320358 0
M  V30 3710 C 363.374 1.74395 1.0661 0
M  V30 3711 C 363.738 0.508602 1.85141 0
M  V30 3712 O 364.939 0.586856 2.62316 0
M  V30 3713 C 363.21 2.98619 1.96371 0
M  V30 3714 S 364.769 3.39621 2.77854 0
M  V30 3715 H 361.587 0.613204 0.359863 0
M  V30 3716 H 364.189 1.9249 0.341727 0
M  V30 3717 H 362.893 3.86673 1.3752 0
M  V30 3718 H 362.424 2.83055 2.73209 0
M  V30 3719 H 364.439 2.95172 3.98858 0
M  V30 3720 N 363.613 -0.582584 1.46437 0
M  V30 3721 C 365.029 -0.905962 1.31394 0
M  V30 3722 C 365.229 -1.99468 0.285476 0
M  V30 3723 O 364.285 -2.50566 -0.311914 0
M  V30 3724 C 365.598 -1.3232 2.70022 0
M  V30 3725 C 367.146 -1.43604 2.78113 0
M  V30 3726 C 367.621 -1.88694 4.17323 0
M  V30 3727 N 369.112 -1.95887 4.19741 0
M  V30 3728 C 369.847 -2.32051 5.24347 0
M  V30 3729 N 369.343 -2.67006 6.39281 0
M  V30 3730 N 371.136 -2.32606 5.11713 0
M  V30 3731 H 363.287 0.1366 2.1196 0
M  V30 3732 H 365.55 -0.00155736 0.947999 0
M  V30 3733 H 365.256 -0.597242 3.46592 0
M  V30 3734 H 365.13 -2.28469 3.00136 0
M  V30 3735 H 367.517 -2.15286 2.01832 0
M  V30 3736 H 367.598 -0.457059 2.51684 0
M  V30 3737 H 367.242 -1.1759 4.941 0
M  V30 3738 H 367.172 -2.8755 4.4116 0
M  V30 3739 H 369.663 -1.71362 3.36814 0
M  V30 3740 H 369.976 -2.93554 7.14875 0
M  V30 3741 H 368.321 -2.64644 6.42642 0
M  V30 3742 H 371.512 -2.04721 4.2096 0
M  V30 3743 H 371.685 -2.60462 5.93349 0
M  V30 3744 N 365.091 -1.34144 -0.827227 0
M  V30 3745 C 366.041 -1.21923 -1.92663 0
M  V30 3746 C 367.025 -0.119294 -1.60457 0
M  V30 3747 O 368.217 -0.348539 -1.73534 0
M  V30 3748 C 365.346 -0.972492 -3.29238 0
M  V30 3749 C 364.432 -2.1154 -3.67576 0
M  V30 3750 N 364.823 -3.36627 -3.77512 0
M  V30 3751 C 363.121 -2.02468 -3.97395 0
M  V30 3752 C 363.822 -4.11658 -4.1099 0
M  V30 3753 N 362.798 -3.40207 -4.23981 0
M  V30 3754 H 366.6 -2.16721 -1.98517 0
M  V30 3755 H 364.114 -1.2632 -1.02064 0
M  V30 3756 H 366.111 -0.865847 -4.0781 0
M  V30 3757 H 364.771 -0.0331509 -3.24683 0
M  V30 3758 H 365.782 -3.71234 -3.61118 0
M  V30 3759 H 362.459 -1.16265 -4.00985 0
M  V30 3760 H 363.849 -5.19657 -4.25918 0
M  V30 3761 N 366.569 1.04691 -1.17803 0
M  V30 3762 C 367.816 1.77782 -0.969532 0
M  V30 3763 C 368.144 1.87926 0.501401 0
M  V30 3764 O 367.399 1.37918 1.38842 0
M  V30 3765 C 367.698 3.21467 -1.56186 0
M  V30 3766 C 367.364 3.3137 -3.05786 0
M  V30 3767 C 366.026 3.3378 -3.46619 0
M  V30 3768 C 368.378 3.31976 -4.01797 0
M  V30 3769 C 365.706 3.34431 -4.82051 0
M  V30 3770 C 368.058 3.34167 -5.37136 0
M  V30 3771 C 366.722 3.34866 -5.77426 0
M  V30 3772 H 365.992 0.650549 -0.354777 0
M  V30 3773 H 368.639 1.23006 -1.46772 0
M  V30 3774 H 366.944 3.79203 -0.985515 0
M  V30 3775 H 368.641 3.76652 -1.37602 0
M  V30 3776 H 365.231 3.3021 -2.73238 0
M  V30 3777 H 369.415 3.29311 -3.71306 0
M  V30 3778 H 364.671 3.33285 -5.12573 0
M  V30 3779 H 368.845 3.33585 -6.11305 0
M  V30 3780 H 366.472 3.35124 -6.82346 0
M  V30 3781 N 368.047 0.979072 1.23499 0
M  V30 3782 C 368.995 0.510604 2.26926 0
M  V30 3783 C 369.989 -0.431691 1.63807 0
M  V30 3784 O 371.195 -0.30573 1.77385 0
M  V30 3785 H 367.57 0.146688 0.737554 0
M  V30 3786 H 369.541 1.39466 2.63803 0
M  V30 3787 C 368.29 -0.172658 3.47271 0
M  V30 3788 H 367.613 0.543331 3.96091 0
M  V30 3789 H 369.053 -0.464101 4.21452 0
M  V30 3790 C 367.512 -1.40345 3.06276 0
M  V30 3791 O 368.042 -2.49978 3.14442 0
M  V30 3792 N 366.248 -1.27362 2.61203 0
M  V30 3793 H 365.795 -0.381584 2.54758 0
M  V30 3794 H 365.753 -2.09822 2.34141 0
M  V30 3795 N 369.525 -1.3858 0.750561 0
M  V30 3796 C 370.802 -1.94231 0.231009 0
M  V30 3797 C 371.182 -1.68611 -1.27018 0
M  V30 3798 O 370.53 -1.02296 -2.04323 0
M  V30 3799 C 370.74 -3.44123 0.581428 0
M  V30 3800 C 372.088 -4.2116 0.539389 0
M  V30 3801 O 373.112 -3.52391 0.519541 0
M  V30 3802 O 371.971 -5.43749 0.54765 0
M  V30 3803 H 369.065 -0.825639 0.0474263 0
M  V30 3804 H 371.611 -1.4799 0.830478 0
M  V30 3805 H 370.383 -3.56267 1.61833 0
M  V30 3806 H 370.006 -3.97573 -0.0462047 0
M  V30 3807 N 371.003 -0.499398 -1.49478 0
M  V30 3808 C 372.228 0.044722 -2.07352 0
M  V30 3809 C 372.653 1.30207 -1.35749 0
M  V30 3810 O 372.011 1.76516 -0.413732 0
M  V30 3811 C 372.059 0.283013 -3.59488 0
M  V30 3812 O 371.163 1.35804 -3.89398 0
M  V30 3813 H 370.504 -0.0255147 -0.66351 0
M  V30 3814 H 373.034 -0.698561 -1.92305 0
M  V30 3815 H 373.044 0.515007 -4.04737 0
M  V30 3816 H 371.719 -0.635636 -4.11014 0
M  V30 3817 H 370.296 1.11113 -3.55961 0
M  V30 3818 N 372.481 1.55866 -0.233164 0
M  V30 3819 C 373.729 1.9821 0.394593 0
M  V30 3820 C 374.05 1.12234 1.59463 0
M  V30 3821 O 373.32 0.201981 1.94856 0
M  V30 3822 H 371.9 0.732034 0.148778 0
M  V30 3823 H 374.562 1.92107 -0.32876 0
M  V30 3824 H 373.658 3.03845 0.713063 0
M  V30 3825 N 373.959 -0.0401083 1.57549 0
M  V30 3826 C 374.922 -1.02871 2.04817 0
M  V30 3827 C 375.922 -1.29708 0.950388 0
M  V30 3828 O 377.112 -1.24897 1.21435 0
M  V30 3829 C 374.244 -2.36443 2.45576 0
M  V30 3830 H 375.437 -0.620631 2.93408 0
M  V30 3831 H 372.99 -0.286667 1.53649 0
M  V30 3832 H 373.725 -2.82021 1.60108 0
M  V30 3833 H 373.51 -2.18296 3.25713 0
M  V30 3834 H 375 -3.07441 2.82612 0
M  V30 3835 N 375.437 -1.54477 -0.31217 0
M  V30 3836 C 376.677 -1.74958 -1.05684 0
M  V30 3837 C 377.041 -0.518414 -1.84869 0
M  V30 3838 O 378.242 -0.600759 -2.62001 0
M  V30 3839 C 376.513 -2.99656 -1.94785 0
M  V30 3840 S 378.072 -3.4109 -2.76049 0
M  V30 3841 H 374.89 -0.615104 -0.356606 0
M  V30 3842 H 377.492 -1.92669 -0.331514 0
M  V30 3843 H 376.196 -3.87397 -1.35468 0
M  V30 3844 H 375.727 -2.845 -2.71704 0
M  V30 3845 H 377.742 -2.97283 -3.97287 0
M  V30 3846 N 376.915 0.57481 -1.46744 0
M  V30 3847 C 378.161 1.3347 -1.52688 0
M  V30 3848 C 378.494 1.93353 -0.181229 0
M  V30 3849 O 377.769 1.76912 0.808237 0
M  V30 3850 C 378.052 2.45811 -2.63152 0
M  V30 3851 C 377.905 1.90912 -4.07275 0
M  V30 3852 C 379.224 3.47822 -2.69644 0
M  V30 3853 H 376.343 0.483935 -0.555856 0
M  V30 3854 H 378.985 0.644968 -1.78718 0
M  V30 3855 H 377.135 3.04646 -2.41088 0
M  V30 3856 H 378.807 1.36473 -4.4065 0
M  V30 3857 H 377.05 1.21691 -4.16382 0
M  V30 3858 H 377.721 2.72042 -4.80309 0
M  V30 3859 H 380.197 2.9888 -2.895 0
M  V30 3860 H 379.073 4.23876 -3.48742 0
M  V30 3861 H 379.334 4.05555 -1.76005 0
M  V30 3862 N 378.394 1.34581 0.820102 0
M  V30 3863 C 379.805 1.24298 1.39309 0
M  V30 3864 C 380.156 -0.130351 1.95767 0
M  V30 3865 O 379.281 -1.0308 1.90272 0
M  V30 3866 C 379.876 2.25054 2.53251 0
M  V30 3867 C 378.435 2.18552 3.0645 0
M  V30 3868 C 377.582 2.11503 1.79337 0
M  V30 3869 H 380.533 1.45906 0.624262 0
M  V30 3870 H 380.554 1.86917 3.31425 0
M  V30 3871 H 380.066 3.24996 2.1213 0
M  V30 3872 H 378.167 1.21976 3.52069 0
M  V30 3873 H 378.28 3.0993 3.65349 0
M  V30 3874 H 376.644 1.57268 2.00347 0
M  V30 3875 H 377.427 3.13284 1.40386 0
M  V30 3876 N 379.872 -1.04064 1.18357 0
M  V30 3877 C 381.288 -1.2947 0.933258 0
M  V30 3878 C 381.488 -1.97466 -0.401169 0
M  V30 3879 O 380.544 -2.25528 -1.13549 0
M  V30 3880 C 381.857 -2.15337 2.09882 0
M  V30 3881 C 383.405 -2.28683 2.13712 0
M  V30 3882 C 383.88 -3.17917 3.29686 0
M  V30 3883 N 385.371 -3.25504 3.29547 0
M  V30 3884 C 386.106 -3.94706 4.15926 0
M  V30 3885 N 385.602 -4.66239 5.12439 0
M  V30 3886 N 387.395 -3.90986 4.0384 0
M  V30 3887 H 379.546 -0.583359 2.04232 0
M  V30 3888 H 381.809 -0.319921 0.892387 0
M  V30 3889 H 381.515 -1.72682 3.06389 0
M  V30 3890 H 381.389 -3.16015 2.05947 0
M  V30 3891 H 383.776 -2.70575 1.17784 0
M  V30 3892 H 383.857 -1.27596 2.21705 0
M  V30 3893 H 383.501 -2.76736 4.25887 0
M  V30 3894 H 383.431 -4.19036 3.1893 0
M  V30 3895 H 385.922 -2.74547 2.59677 0
M  V30 3896 H 386.235 -5.16638 5.74722 0
M  V30 3897 H 384.58 -4.65143 5.16398 0
M  V30 3898 H 387.771 -3.34234 3.27727 0
M  V30 3899 H 387.944 -4.44646 4.71375 0
M  V30 3900 N 381.35 -0.985608 -1.22978 0
M  V30 3901 C 382.59 -0.665487 -1.93263 0
M  V30 3902 C 382.954 0.78706 -1.75127 0
M  V30 3903 O 384.155 1.21826 -2.39608 0
M  V30 3904 C 382.426 -1.0515 -3.41582 0
M  V30 3905 S 383.985 -0.848637 -4.30516 0
M  V30 3906 H 380.803 -0.24355 -0.667985 0
M  V30 3907 H 383.405 -1.26635 -1.48942 0
M  V30 3908 H 382.109 -2.10517 -3.52293 0
M  V30 3909 H 381.64 -0.442134 -3.90908 0
M  V30 3910 H 383.655 0.264717 -4.95493 0
M  V30 3911 N 382.828 1.3818 -0.7579 0
M  V30 3912 C 384.239 1.82726 -0.383134 0
M  V30 3913 C 384.59 1.63214 1.08884 0
M  V30 3914 O 383.715 1.13566 1.84205 0
M  V30 3915 C 384.31 3.31728 -0.688631 0
M  V30 3916 C 382.869 3.74606 -0.367091 0
M  V30 3917 C 382.016 2.60896 -0.939599 0
M  V30 3918 H 384.967 1.26847 -0.953699 0
M  V30 3919 H 384.988 3.80487 0.0316492 0
M  V30 3920 H 384.5 3.45898 -1.76001 0
M  V30 3921 H 382.601 3.66013 0.697532 0
M  V30 3922 H 382.714 4.71215 -0.865658 0
M  V30 3923 H 381.078 2.52075 -0.3647 0
M  V30 3924 H 381.861 2.77864 -2.0161 0
M  V30 3925 N 384.306 0.507319 1.49211 0
M  V30 3926 C 385.238 -0.304532 2.27168 0
M  V30 3927 C 386.251 -0.924956 1.33972 0
M  V30 3928 O 387.44 -0.807227 1.59205 0
M  V30 3929 C 384.54 -1.44431 3.06583 0
M  V30 3930 C 383.713 -0.930026 4.27398 0
M  V30 3931 C 382.772 -1.94817 4.88807 0
M  V30 3932 O 381.798 -1.51418 5.4869 0
M  V30 3933 N 383 -3.279 4.79022 0
M  V30 3934 H 385.765 0.36395 2.97482 0
M  V30 3935 H 383.326 0.340249 1.58284 0
M  V30 3936 H 385.318 -2.12311 3.44537 0
M  V30 3937 H 383.888 -2.01684 2.38835 0
M  V30 3938 H 383.108 -0.0759244 3.94127 0
M  V30 3939 H 384.396 -0.564932 5.05654 0
M  V30 3940 H 383.794 -3.65843 4.3148 0
M  V30 3941 H 382.351 -3.91476 5.21142 0
M  V30 3942 N 385.784 -1.5574 0.241426 0
M  V30 3943 C 387.195 -1.84842 -0.262755 0
M  V30 3944 C 387.546 -1.16317 -1.58003 0
M  V30 3945 O 386.671 -0.439653 -2.11887 0
M  V30 3946 C 387.266 -3.35332 -0.483523 0
M  V30 3947 C 385.825 -3.6468 -0.931977 0
M  V30 3948 C 384.972 -2.77299 -0.0061151 0
M  V30 3949 H 387.923 -1.51761 0.464129 0
M  V30 3950 H 387.944 -3.56615 -1.32688 0
M  V30 3951 H 387.456 -3.85178 0.47537 0
M  V30 3952 H 385.557 -3.20307 -1.90353 0
M  V30 3953 H 385.67 -4.72498 -0.792628 0
M  V30 3954 H 384.034 -2.49408 -0.516503 0
M  V30 3955 H 384.817 -3.2995 0.948052 0
M  V30 3956 N 387.262 0.0317525 -1.57568 0
M  V30 3957 C 388.192 1.03274 -2.0942 0
M  V30 3958 C 389.173 1.3788 -0.996143 0
M  V30 3959 O 390.358 1.46811 -1.27122 0
M  V30 3960 C 387.488 2.33448 -2.57137 0
M  V30 3961 C 386.442 2.13091 -3.71182 0
M  V30 3962 C 385.768 3.49001 -4.05095 0
M  V30 3963 C 387.068 1.51928 -4.99715 0
M  V30 3964 H 388.762 0.60112 -2.93303 0
M  V30 3965 H 386.308 0.287705 -1.41097 0
M  V30 3966 H 388.261 3.03802 -2.92032 0
M  V30 3967 H 386.985 2.78665 -1.70333 0
M  V30 3968 H 385.644 1.45171 -3.36632 0
M  V30 3969 H 385.292 3.91862 -3.15362 0
M  V30 3970 H 384.992 3.36207 -4.81911 0
M  V30 3971 H 386.516 4.20721 -4.42522 0
M  V30 3972 H 387.93 2.12196 -5.32584 0
M  V30 3973 H 386.327 1.49716 -5.81124 0
M  V30 3974 H 387.397 0.484811 -4.8247 0
M  V30 3975 N 388.74 1.54641 0.303973 0
M  V30 3976 C 389.986 1.74038 1.04109 0
M  V30 3977 C 390.319 0.523051 1.87024 0
M  V30 3978 O 389.594 -0.479874 1.88487 0
M  V30 3979 C 389.877 3.02761 1.94955 0
M  V30 3980 C 389.73 4.34787 1.1524 0
M  V30 3981 C 391.049 3.27336 2.94175 0
M  V30 3982 H 388.168 0.63323 0.377079 0
M  V30 3983 H 390.81 1.87354 0.316001 0
M  V30 3984 H 388.96 2.9154 2.56782 0
M  V30 3985 H 390.632 4.57922 0.557236 0
M  V30 3986 H 388.875 4.31407 0.455053 0
M  V30 3987 H 389.546 5.21116 1.8205 0
M  V30 3988 H 392.022 3.38148 2.42477 0
M  V30 3989 H 390.898 4.18726 3.54908 0
M  V30 3990 H 391.159 2.45491 3.67677 0
M  V30 3991 N 390.218 -0.567019 1.47046 0
M  V30 3992 C 391.448 -1.34831 1.56538 0
M  V30 3993 C 391.856 -1.8802 0.21101 0
M  V30 3994 O 391.199 -1.65152 -0.804387 0
M  V30 3995 C 391.261 -2.56139 2.52256 0
M  V30 3996 C 390.925 -2.24307 3.98165 0
M  V30 3997 C 391.922 -1.82192 4.86931 0
M  V30 3998 C 389.607 -2.35968 4.43423 0
M  V30 3999 C 391.601 -1.52153 6.18973 0
M  V30 4000 C 389.288 -2.05542 5.75496 0
M  V30 4001 C 390.286 -1.63701 6.63092 0
M  V30 4002 O 389.974 -1.33657 7.92711 0
M  V30 4003 H 389.706 -0.417683 0.531523 0
M  V30 4004 H 392.26 -0.694726 1.93294 0
M  V30 4005 H 390.49 -3.24356 2.10548 0
M  V30 4006 H 392.179 -3.18214 2.51982 0
M  V30 4007 H 392.945 -1.72684 4.53217 0
M  V30 4008 H 388.824 -2.67495 3.75456 0
M  V30 4009 H 392.368 -1.19421 6.87302 0
M  V30 4010 H 388.265 -2.14679 6.08755 0
M  V30 4011 H 389.033 -1.4737 8.05124 0
M  V30 4012 N 391.696 -1.35014 -0.812953 0
M  V30 4013 C 392.644 -1.27435 -1.94585 0
M  V30 4014 C 393.638 -0.170494 -1.6854 0
M  V30 4015 O 394.844 -0.336085 -1.76835 0
M  V30 4016 H 391.219 -0.396144 -0.639198 0
M  V30 4017 H 393.19 -2.23158 -1.98098 0
M  V30 4018 C 391.939 -1.05677 -3.31252 0
M  V30 4019 H 391.262 -1.89853 -3.51846 0
M  V30 4020 H 392.702 -1.04413 -4.10943 0
M  V30 4021 C 391.161 0.239615 -3.36047 0
M  V30 4022 O 391.691 1.23759 -3.8216 0
M  V30 4023 N 389.897 0.276186 -2.89285 0
M  V30 4024 H 389.444 -0.53653 -2.51951 0
M  V30 4025 H 389.402 1.14332 -2.92875 0
M  V30 4026 N 393.175 1.03435 -1.18907 0
M  V30 4027 C 394.122 2.11591 -0.921837 0
M  V30 4028 C 395.092 1.65499 0.141226 0
M  V30 4029 O 396.277 1.908 0.000242829 0
M  V30 4030 C 393.417 3.42012 -0.460616 0
M  V30 4031 C 392.53 4.01682 -1.58982 0
M  V30 4032 C 391.665 5.20091 -1.08069 0
M  V30 4033 C 390.704 5.71805 -2.18416 0
M  V30 4034 N 389.841 6.81494 -1.68849 0
M  V30 4035 H 394.681 2.33787 -1.8479 0
M  V30 4036 H 392.218 1.1467 -0.921373 0
M  V30 4037 H 394.176 4.16834 -0.174642 0
M  V30 4038 H 392.806 3.19944 0.428467 0
M  V30 4039 H 391.858 3.24127 -1.99113 0
M  V30 4040 H 393.17 4.36084 -2.4214 0
M  V30 4041 H 392.324 6.02051 -0.749615 0
M  V30 4042 H 391.063 4.87209 -0.218771 0
M  V30 4043 H 390.068 4.88461 -2.5236 0
M  V30 4044 H 391.293 6.06728 -3.05054 0
M  V30 4045 H 389.239 6.50475 -0.849572 0
M  V30 4046 H 389.156 7.14994 -2.45601 0
M  V30 4047 H 390.424 7.67063 -1.38689 0
M  V30 4048 N 394.653 0.992116 1.22453 0
M  V30 4049 C 395.583 0.561677 2.26644 0
M  V30 4050 C 396.564 -0.411055 1.65059 0
M  V30 4051 O 397.749 -0.301861 1.9184 0
M  V30 4052 C 394.879 -0.125247 3.47074 0
M  V30 4053 C 393.833 0.765948 4.21091 0
M  V30 4054 C 393.159 -0.0538484 5.34673 0
M  V30 4055 C 394.459 2.06242 4.79856 0
M  V30 4056 H 396.153 1.43259 2.62902 0
M  V30 4057 H 393.699 0.690283 1.26377 0
M  V30 4058 H 395.652 -0.437764 4.1912 0
M  V30 4059 H 394.376 -1.03069 3.0991 0
M  V30 4060 H 393.035 1.0621 3.50878 0
M  V30 4061 H 392.683 -0.960188 4.9375 0
M  V30 4062 H 392.383 0.539415 5.85119 0
M  V30 4063 H 393.907 -0.360477 6.09535 0
M  V30 4064 H 395.321 1.8139 5.43848 0
M  V30 4065 H 393.718 2.60444 5.40638 0
M  V30 4066 H 394.788 2.74167 3.99951 0
M  V30 4067 N 396.131 -1.37776 0.765217 0
M  V30 4068 C 397.359 -2.04124 0.337767 0
M  V30 4069 C 397.774 -1.57715 -1.03785 0
M  V30 4070 O 397.131 -0.755447 -1.6613 0
M  V30 4071 C 397.182 -3.59658 0.364442 0
M  V30 4072 O 396.903 -4.04367 1.68579 0
M  V30 4073 C 398.404 -4.43236 -0.0754221 0
M  V30 4074 H 395.624 -0.655696 0.142491 0
M  V30 4075 H 398.168 -1.76238 1.03732 0
M  V30 4076 H 396.323 -3.86339 -0.286471 0
M  V30 4077 H 396.737 -4.98857 1.61993 0
M  V30 4078 H 398.211 -5.52 -0.00560067 0
M  V30 4079 H 398.688 -4.2455 -1.12491 0
M  V30 4080 H 399.294 -4.21767 0.547055 0
M  V30 4081 N 397.609 -0.515225 -1.4894 0
M  V30 4082 C 398.856 0.024215 -2.02486 0
M  V30 4083 C 399.184 1.35671 -1.39368 0
M  V30 4084 O 398.439 1.88566 -0.523574 0
M  V30 4085 C 398.738 0.210595 -3.56779 0
M  V30 4086 C 398.404 -1.04569 -4.38607 0
M  V30 4087 C 397.066 -1.39002 -4.60686 0
M  V30 4088 C 399.418 -1.88008 -4.86109 0
M  V30 4089 C 396.746 -2.568 -5.27514 0
M  V30 4090 C 399.098 -3.04972 -5.54234 0
M  V30 4091 C 397.762 -3.39768 -5.74555 0
M  V30 4092 H 397.032 0.00886088 -0.740947 0
M  V30 4093 H 399.679 -0.678263 -1.79086 0
M  V30 4094 H 397.984 0.99572 -3.78936 0
M  V30 4095 H 399.681 0.642659 -3.95817 0
M  V30 4096 H 396.271 -0.767497 -4.21672 0
M  V30 4097 H 400.455 -1.62719 -4.68867 0
M  V30 4098 H 395.711 -2.8398 -5.41447 0
M  V30 4099 H 399.885 -3.69943 -5.90013 0
M  V30 4100 H 397.512 -4.31148 -6.26112 0
M  V30 4101 N 399.087 1.5561 -0.249682 0
M  V30 4102 C 400.019 2.18834 0.681496 0
M  V30 4103 C 401.032 1.16546 1.1367 0
M  V30 4104 O 402.221 1.43397 1.06299 0
M  V30 4105 C 399.321 2.77992 1.9384 0
M  V30 4106 C 398.494 4.05725 1.63419 0
M  V30 4107 C 397.553 4.49174 2.74096 0
M  V30 4108 O 396.579 5.15492 2.41364 0
M  V30 4109 N 397.781 4.17191 4.03649 0
M  V30 4110 H 400.546 2.9937 0.140514 0
M  V30 4111 H 398.107 1.6175 -0.0697541 0
M  V30 4112 H 400.099 3.04015 2.67127 0
M  V30 4113 H 398.669 2.01596 2.38909 0
M  V30 4114 H 397.889 3.87261 0.736358 0
M  V30 4115 H 399.177 4.88999 1.40562 0
M  V30 4116 H 398.575 3.63955 4.33074 0
M  V30 4117 H 397.132 4.48043 4.73393 0
M  V30 4118 N 400.565 -0.0233959 1.57583 0
M  V30 4119 C 401.495 -1.02162 2.09965 0
M  V30 4120 C 402.476 -1.3735 1.00344 0
M  V30 4121 O 403.661 -1.46135 1.27899 0
M  V30 4122 C 400.791 -2.32081 2.58371 0
M  V30 4123 C 399.745 -2.1112 3.72307 0
M  V30 4124 C 399.071 -3.46848 4.06941 0
M  V30 4125 C 400.371 -1.49276 5.00514 0
M  V30 4126 H 402.065 -0.585557 2.93618 0
M  V30 4127 H 399.611 -0.280218 1.41247 0
M  V30 4128 H 401.564 -3.02249 2.93639 0
M  V30 4129 H 400.288 -2.77758 1.71808 0
M  V30 4130 H 398.947 -1.43384 3.37397 0
M  V30 4131 H 398.595 -3.90184 3.17436 0
M  V30 4132 H 398.295 -3.33646 4.83688 0
M  V30 4133 H 399.819 -4.18369 4.44747 0
M  V30 4134 H 401.233 -2.09368 5.33702 0
M  V30 4135 H 399.63 -1.46632 5.8191 0
M  V30 4136 H 400.7 -0.459217 4.82721 0
M  V30 4137 N 402.043 -1.548 -0.295768 0
M  V30 4138 C 402.953 -1.89177 -1.38742 0
M  V30 4139 C 403.969 -0.786481 -1.55211 0
M  V30 4140 O 405.145 -1.08344 -1.69775 0
M  V30 4141 C 402.21 -2.13663 -2.73036 0
M  V30 4142 C 401.271 -3.37349 -2.65508 0
M  V30 4143 C 400.504 -3.60658 -3.93398 0
M  V30 4144 O 400.727 -2.86882 -4.93006 0
M  V30 4145 O 399.661 -4.54179 -3.94975 0
M  V30 4146 H 403.487 -2.82059 -1.12589 0
M  V30 4147 H 401.072 -1.41056 -0.492295 0
M  V30 4148 H 402.954 -2.3094 -3.52484 0
M  V30 4149 H 401.629 -1.23967 -2.99022 0
M  V30 4150 H 400.536 -3.25431 -1.84514 0
M  V30 4151 H 401.869 -4.27192 -2.44474 0
M  V30 4152 N 403.521 0.559213 -1.47345 0
M  V30 4153 C 404.932 1.14134 -1.47751 0
M  V30 4154 C 405.283 1.94834 -0.231103 0
M  V30 4155 O 404.408 2.05957 0.664137 0
M  V30 4156 C 405.003 2.07653 -2.67705 0
M  V30 4157 C 403.562 2.61141 -2.71076 0
M  V30 4158 C 402.709 1.3748 -2.40821 0
M  V30 4159 H 405.66 0.345917 -1.54884 0
M  V30 4160 H 405.681 2.91497 -2.44561 0
M  V30 4161 H 405.193 1.4889 -3.58404 0
M  V30 4162 H 403.294 3.23707 -1.84511 0
M  V30 4163 H 403.407 3.02272 -3.7171 0
M  V30 4164 H 401.771 1.68086 -1.91362 0
M  V30 4165 H 402.554 0.805135 -3.33725 0
M  V30 4166 N 404.999 1.35443 0.805782 0
M  V30 4167 C 405.947 1.28465 1.93906 0
M  V30 4168 C 406.941 0.17943 1.68447 0
M  V30 4169 O 408.147 0.345459 1.76654 0
M  V30 4170 H 404.522 0.399528 0.637088 0
M  V30 4171 H 406.493 2.24206 1.96912 0
M  V30 4172 C 405.242 1.07432 3.30687 0
M  V30 4173 H 404.565 1.91716 3.50835 0
M  V30 4174 H 406.005 1.06591 4.10383 0
M  V30 4175 C 404.464 -0.22179 3.36169 0
M  V30 4176 O 404.994 -1.21731 3.82811 0
M  V30 4177 N 403.2 -0.260841 2.89427 0
M  V30 4178 H 402.747 0.549884 2.51663 0
M  V30 4179 H 402.705 -1.12777 2.93477 0
M  V30 4180 N 406.477 -1.02803 1.19454 0
M  V30 4181 C 407.888 -1.57667 0.999899 0
M  V30 4182 C 408.239 -1.91041 -0.446956 0
M  V30 4183 O 407.364 -1.70978 -1.32648 0
M  V30 4184 C 407.959 -2.86477 1.80877 0
M  V30 4185 C 406.518 -3.37911 1.65811 0
M  V30 4186 C 405.665 -2.11343 1.79526 0
M  V30 4187 H 408.616 -0.853214 1.33813 0
M  V30 4188 H 408.637 -3.57408 1.30536 0
M  V30 4189 H 408.149 -2.62155 2.86175 0
M  V30 4190 H 406.25 -3.67218 0.63102 0
M  V30 4191 H 406.363 -4.10885 2.46395 0
M  V30 4192 H 404.727 -2.23254 1.22596 0
M  V30 4193 H 405.51 -1.89461 2.86285 0
M  V30 4194 N 407.956 -0.998596 -1.21925 0
M  V30 4195 C 408.906 -0.524743 -2.21879 0
M  V30 4196 C 409.89 0.41017 -1.55584 0
M  V30 4197 O 411.082 0.236063 -1.75419 0
M  V30 4198 C 408.211 0.153636 -3.42956 0
M  V30 4199 C 407.297 -0.801918 -4.16449 0
M  V30 4200 N 407.688 -1.95211 -4.66611 0
M  V30 4201 C 405.986 -0.618972 -4.41684 0
M  V30 4202 C 406.687 -2.55234 -5.22715 0
M  V30 4203 N 405.663 -1.83451 -5.1171 0
M  V30 4204 H 409.465 -1.40189 -2.58311 0
M  V30 4205 H 406.979 -0.86159 -1.3766 0
M  V30 4206 H 408.976 0.510534 -4.13762 0
M  V30 4207 H 407.636 1.02684 -3.08036 0
M  V30 4208 H 408.647 -2.33271 -4.62391 0
M  V30 4209 H 405.324 0.207694 -4.16983 0
M  V30 4210 H 406.714 -3.52471 -5.72026 0
M  V30 4211 N 409.434 1.37368 -0.772513 0
M  V30 4212 C 410.662 2.03942 -0.348588 0
M  V30 4213 C 411.077 1.58264 1.02947 0
M  V30 4214 O 410.434 0.764246 1.65727 0
M  V30 4215 C 410.485 3.5946 -0.38351 0
M  V30 4216 O 410.206 4.03468 -1.70721 0
M  V30 4217 C 411.707 4.4327 0.0519152 0
M  V30 4218 H 408.927 0.654931 -0.145966 0
M  V30 4219 H 411.471 1.75686 -1.04665 0
M  V30 4220 H 409.626 3.86486 0.265978 0
M  V30 4221 H 410.04 4.97991 -1.64636 0
M  V30 4222 H 411.514 5.51995 -0.0236733 0
M  V30 4223 H 411.991 4.2514 1.10238 0
M  V30 4224 H 412.597 4.21471 -0.569415 0
M  V30 4225 N 410.912 0.523116 1.48665 0
M  V30 4226 C 411.859 -0.243398 2.29513 0
M  V30 4227 C 412.829 -0.940139 1.36933 0
M  V30 4228 O 414.014 -0.942503 1.65896 0
M  V30 4229 C 411.154 -1.28855 3.20141 0
M  V30 4230 C 410.267 -0.60135 4.27794 0
M  V30 4231 C 409.402 -1.62884 5.05611 0
M  V30 4232 C 408.441 -0.924726 6.05075 0
M  V30 4233 N 407.578 -1.89744 6.75975 0
M  V30 4234 H 412.418 0.452234 2.94549 0
M  V30 4235 H 409.955 0.234858 1.45213 0
M  V30 4236 H 411.913 -1.90674 3.71079 0
M  V30 4237 H 410.543 -1.95266 2.57043 0
M  V30 4238 H 409.595 0.130623 3.80176 0
M  V30 4239 H 410.907 -0.0481585 4.98777 0
M  V30 4240 H 410.061 -2.32149 5.60528 0
M  V30 4241 H 408.8 -2.21592 4.34452 0
M  V30 4242 H 407.805 -0.217966 5.49368 0
M  V30 4243 H 409.03 -0.343851 6.78229 0
M  V30 4244 H 406.976 -2.47373 6.07571 0
M  V30 4245 H 406.893 -1.3955 7.43009 0
M  V30 4246 H 408.161 -2.58229 7.35485 0
M  V30 4247 N 412.39 -1.55475 0.257931 0
M  V30 4248 C 413.62 -2.03314 -0.367026 0
M  V30 4249 C 414.028 -1.13625 -1.51281 0
M  V30 4250 O 413.371 -0.145334 -1.83124 0
M  V30 4251 C 413.433 -3.47362 -0.926284 0
M  V30 4252 C 413.097 -4.56914 0.0886584 0
M  V30 4253 C 414.094 -5.12013 0.902123 0
M  V30 4254 C 411.779 -5.01827 0.217936 0
M  V30 4255 C 413.773 -6.10529 1.83122 0
M  V30 4256 C 411.46 -6.00172 1.15052 0
M  V30 4257 C 412.458 -6.54402 1.95568 0
M  V30 4258 O 412.146 -7.50827 2.87253 0
M  V30 4259 H 411.878 -0.669976 -0.0900443 0
M  V30 4260 H 414.432 -2.01804 0.382673 0
M  V30 4261 H 412.662 -3.46056 -1.72575 0
M  V30 4262 H 414.351 -3.78637 -1.46249 0
M  V30 4263 H 415.117 -4.78139 0.812891 0
M  V30 4264 H 410.996 -4.59272 -0.398721 0
M  V30 4265 H 414.54 -6.52783 2.46008 0
M  V30 4266 H 410.437 -6.33465 1.24064 0
M  V30 4267 H 411.205 -7.68483 2.81739 0
M  V30 4268 N 413.868 0.0150385 -1.57593 0
M  V30 4269 C 414.8 1.03912 -2.04291 0
M  V30 4270 C 415.813 1.31618 -0.958146 0
M  V30 4271 O 417.002 1.28859 -1.23522 0
M  V30 4272 C 414.102 2.37749 -2.41514 0
M  V30 4273 C 413.275 2.29198 -3.72541 0
M  V30 4274 C 412.334 3.45598 -3.96797 0
M  V30 4275 O 411.36 3.24461 -4.67668 0
M  V30 4276 N 412.562 4.67945 -3.43523 0
M  V30 4277 H 415.327 0.64099 -2.92765 0
M  V30 4278 H 412.888 0.20272 -1.60626 0
M  V30 4279 H 414.88 3.14364 -2.54867 0
M  V30 4280 H 413.45 2.69357 -1.58637 0
M  V30 4281 H 412.67 1.3759 -3.69408 0
M  V30 4282 H 413.958 2.20642 -4.5847 0
M  V30 4283 H 413.356 4.88017 -2.86104 0
M  V30 4284 H 411.913 5.41878 -3.62232 0
M  V30 4285 N 415.346 1.54954 0.287554 0
M  V30 4286 C 416.576 1.78622 1.03816 0
M  V30 4287 C 416.984 0.552451 1.80955 0
M  V30 4288 O 416.327 -0.487665 1.77109 0
M  V30 4289 C 416.389 2.94975 2.055 0
M  V30 4290 C 416.053 4.32565 1.47433 0
M  V30 4291 C 417.05 5.12096 0.897436 0
M  V30 4292 C 414.735 4.79195 1.50591 0
M  V30 4293 C 416.729 6.36383 0.359851 0
M  V30 4294 C 414.416 6.03441 0.964459 0
M  V30 4295 C 415.414 6.81872 0.392413 0
M  V30 4296 O 415.102 8.03777 -0.140788 0
M  V30 4297 H 414.834 0.599144 0.313053 0
M  V30 4298 H 417.388 2.02761 0.328225 0
M  V30 4299 H 415.618 2.66493 2.80211 0
M  V30 4300 H 417.307 3.06097 2.6657 0
M  V30 4301 H 418.073 4.77209 0.865841 0
M  V30 4302 H 413.952 4.18167 1.94055 0
M  V30 4303 H 417.496 6.97545 -0.0872951 0
M  V30 4304 H 413.393 6.37813 0.993246 0
M  V30 4305 H 414.161 8.18495 -0.0287617 0
M  V30 4306 N 416.824 -0.551391 1.4764 0
M  V30 4307 C 418.072 -1.30572 1.54258 0
M  V30 4308 C 418.393 -1.93877 0.208963 0
M  V30 4309 O 417.663 -1.80234 -0.767619 0
M  V30 4310 H 416.243 -0.484894 0.568231 0
M  V30 4311 H 418.905 -0.643402 1.83974 0
M  V30 4312 H 418.001 -2.09621 2.31226 0
M  V30 4313 N 418.302 -1.35869 -0.798587 0
M  V30 4314 C 419.55 -1.29332 -1.55298 0
M  V30 4315 C 419.871 0.129729 -1.94568 0
M  V30 4316 O 419.141 1.06796 -1.6423 0
M  V30 4317 H 417.721 -0.475737 -0.57592 0
M  V30 4318 H 420.383 -1.70062 -0.952093 0
M  V30 4319 H 419.479 -1.91458 -2.46476 0
M  V30 4320 N 419.78 1.02168 -1.19998 0
M  V30 4321 C 421.026 1.75945 -1.00852 0
M  V30 4322 C 421.359 1.88702 0.458828 0
M  V30 4323 O 420.634 1.40911 1.34069 0
M  V30 4324 C 420.917 3.18154 -1.68671 0
M  V30 4325 C 420.77 3.13224 -3.22817 0
M  V30 4326 C 422.089 4.16711 -1.41561 0
M  V30 4327 H 419.208 0.638673 -0.367785 0
M  V30 4328 H 421.85 1.19222 -1.4794 0
M  V30 4329 H 420 3.66586 -1.28636 0
M  V30 4330 H 421.672 2.72635 -3.72112 0
M  V30 4331 H 419.915 2.50751 -3.53986 0
M  V30 4332 H 420.586 4.13728 -3.65422 0
M  V30 4333 H 423.062 3.76913 -1.76284 0
M  V30 4334 H 421.938 5.14391 -1.91553 0
M  V30 4335 H 422.199 4.40774 -0.342193 0
M  V30 4336 N 421.258 1.00505 1.21394 0
M  V30 4337 C 422.498 0.696149 1.9218 0
M  V30 4338 C 422.862 -0.759099 1.76357 0
M  V30 4339 O 424.063 -1.17998 2.41516 0
M  V30 4340 C 422.334 1.10571 3.39866 0
M  V30 4341 S 423.893 0.91702 4.29111 0
M  V30 4342 H 420.711 0.254147 0.664026 0
M  V30 4343 H 423.313 1.28988 1.46909 0
M  V30 4344 H 422.017 2.16096 3.489 0
M  V30 4345 H 421.548 0.504268 3.90155 0
M  V30 4346 H 423.563 -0.185855 4.95852 0
M  V30 4347 N 422.737 -1.36956 0.779787 0
M  V30 4348 C 423.983 -1.99787 0.348281 0
M  V30 4349 C 424.316 -1.61756 -1.07465 0
M  V30 4350 O 423.591 -0.867639 -1.74075 0
M  V30 4351 C 423.874 -3.56597 0.50104 0
M  V30 4352 C 423.727 -4.04513 1.96697 0
M  V30 4353 C 425.046 -4.40008 -0.0898097 0
M  V30 4354 H 422.165 -0.725796 0.128022 0
M  V30 4355 H 424.807 -1.62514 0.984331 0
M  V30 4356 H 422.957 -3.88479 -0.0404347 0
M  V30 4357 H 424.629 -3.83161 2.56876 0
M  V30 4358 H 422.872 -3.56408 2.47297 0
M  V30 4359 H 423.543 -5.1352 2.02486 0
M  V30 4360 H 426.019 -4.14431 0.372293 0
M  V30 4361 H 424.895 -5.4888 0.0471605 0
M  V30 4362 H 425.156 -4.26035 -1.18096 0
M  V30 4363 N 424.215 -0.530993 -1.48385 0
M  V30 4364 C 425.178 0.220497 -2.28137 0
M  V30 4365 C 426.178 0.866851 -1.35434 0
M  V30 4366 O 427.368 0.726746 -1.58316 0
M  V30 4367 C 424.5 1.31921 -3.1434 0
M  V30 4368 H 425.693 -0.479714 -2.96038 0
M  V30 4369 H 423.246 -0.286968 -1.53643 0
M  V30 4370 H 423.981 2.05264 -2.51072 0
M  V30 4371 H 423.766 0.86085 -3.82533 0
M  V30 4372 H 425.256 1.84776 -3.74497 0
M  V30 4373 N 425.693 1.55336 -0.266172 0
M  V30 4374 C 426.918 2.04258 0.359661 0
M  V30 4375 C 427.343 1.14359 1.49344 0
M  V30 4376 O 426.701 0.140369 1.80756 0
M  V30 4377 C 426.749 3.50997 0.826635 0
M  V30 4378 O 425.853 3.64204 1.93466 0
M  V30 4379 H 425.194 0.659668 0.075727 0
M  V30 4380 H 427.724 2.00694 -0.39786 0
M  V30 4381 H 427.734 3.9219 1.12477 0
M  V30 4382 H 426.409 4.159 -0.00293032 0
M  V30 4383 H 424.986 3.34913 1.63974 0
M  V30 4384 N 427.171 -0.0066808 1.57599 0
M  V30 4385 C 428.411 -0.697501 1.92131 0
M  V30 4386 C 428.775 -1.71306 0.867071 0
M  V30 4387 O 429.976 -2.45377 1.09743 0
M  V30 4388 C 428.247 -1.32978 3.3174 0
M  V30 4389 S 429.806 -2.04665 3.88146 0
M  V30 4390 H 426.624 -0.230555 0.672581 0
M  V30 4391 H 429.226 0.0484026 1.9544 0
M  V30 4392 H 427.93 -0.57772 4.06313 0
M  V30 4393 H 427.461 -2.11376 3.31789 0
M  V30 4394 H 429.476 -3.32097 3.68682 0
M  V30 4395 N 428.649 -1.55105 -0.279332 0
M  V30 4396 C 430.06 -1.66186 -0.850832 0
M  V30 4397 C 430.411 -0.584707 -1.87285 0
M  V30 4398 O 429.536 0.274919 -2.14647 0
M  V30 4399 C 430.131 -3.01264 -1.55001 0
M  V30 4400 C 428.69 -3.14394 -2.06963 0
M  V30 4401 C 427.837 -2.61959 -0.909536 0
M  V30 4402 H 430.788 -1.58602 -0.0558235 0
M  V30 4403 H 430.809 -2.93899 -2.41669 0
M  V30 4404 H 430.321 -3.7964 -0.805931 0
M  V30 4405 H 428.422 -2.4078 -2.84352 0
M  V30 4406 H 428.535 -4.20867 -2.28928 0
M  V30 4407 H 426.899 -2.18957 -1.30116 0
M  V30 4408 H 427.682 -3.42833 -0.179062 0
M  V30 4409 N 430.127 0.543554 -1.4793 0
M  V30 4410 C 431.077 1.64527 -1.57844 0
M  V30 4411 C 432.061 1.54869 -0.436408 0
M  V30 4412 O 433.253 1.63119 -0.687101 0
M  V30 4413 C 430.382 3.03281 -1.6086 0
M  V30 4414 C 429.468 3.18093 -2.80495 0
M  V30 4415 N 429.859 3.02923 -4.05057 0
M  V30 4416 C 428.157 3.49121 -2.77543 0
M  V30 4417 C 428.858 3.20791 -4.85251 0
M  V30 4418 N 427.834 3.47749 -4.17818 0
M  V30 4419 H 431.636 1.51388 -2.5191 0
M  V30 4420 H 429.15 0.748671 -1.44113 0
M  V30 4421 H 431.147 3.82403 -1.66054 0
M  V30 4422 H 429.807 3.17521 -0.678996 0
M  V30 4423 H 430.818 2.79966 -4.35705 0
M  V30 4424 H 427.495 3.69804 -1.93781 0
M  V30 4425 H 428.885 3.13915 -5.9406 0
M  V30 4426 N 431.605 1.3629 0.791371 0
M  V30 4427 C 432.553 1.30514 1.92533 0
M  V30 4428 C 433.547 0.197285 1.68247 0
M  V30 4429 O 434.753 0.364176 1.76278 0
M  V30 4430 H 431.128 0.406263 0.632815 0
M  V30 4431 H 433.099 2.26282 1.94523 0
M  V30 4432 C 431.848 1.10933 3.29529 0
M  V30 4433 H 431.171 1.95427 3.48781 0
M  V30 4434 H 432.611 1.10937 4.0923 0
M  V30 4435 C 431.07 -0.186123 3.36385 0
M  V30 4436 O 431.6 -1.17664 3.84081 0
M  V30 4437 N 429.806 -0.230128 2.89687 0
M  V30 4438 H 429.353 0.576545 2.51065 0
M  V30 4439 H 429.311 -1.09658 2.94657 0
M  V30 4440 N 433.083 -1.0153 1.20538 0
M  V30 4441 C 434.33 -1.75149 1.01633 0
M  V30 4442 C 434.658 -1.89189 -0.451399 0
M  V30 4443 O 433.913 -1.41551 -1.35136 0
M  V30 4444 C 434.212 -3.17213 1.64654 0
M  V30 4445 C 433.878 -3.23146 3.14464 0
M  V30 4446 C 432.54 -3.24472 3.55347 0
M  V30 4447 C 434.892 -3.21207 4.10458 0
M  V30 4448 C 432.22 -3.21532 4.90748 0
M  V30 4449 C 434.572 -3.19808 5.45807 0
M  V30 4450 C 433.236 -3.19439 5.86102 0
M  V30 4451 H 432.506 -0.640914 0.3719 0
M  V30 4452 H 435.153 -1.19071 1.49981 0
M  V30 4453 H 433.458 -3.76457 1.08571 0
M  V30 4454 H 435.155 -3.72871 1.4754 0
M  V30 4455 H 431.745 -3.2285 2.81897 0
M  V30 4456 H 435.929 -3.19351 3.79906 0
M  V30 4457 H 431.185 -3.19578 5.21229 0
M  V30 4458 H 435.359 -3.1726 6.19935 0
M  V30 4459 H 432.986 -3.16915 6.90991 0
M  V30 4460 N 434.561 -1.01147 -1.20859 0
M  V30 4461 C 435.807 -0.698899 -1.90377 0
M  V30 4462 C 436.14 0.76904 -1.78324 0
M  V30 4463 O 435.415 1.55817 -1.16409 0
M  V30 4464 C 435.698 -1.12878 -3.41951 0
M  V30 4465 C 435.551 -2.65665 -3.62963 0
M  V30 4466 C 436.87 -0.696114 -4.3456 0
M  V30 4467 H 433.989 -0.255372 -0.691342 0
M  V30 4468 H 436.631 -1.25831 -1.42361 0
M  V30 4469 H 434.781 -0.652827 -3.82976 0
M  V30 4470 H 436.453 -3.21074 -3.31224 0
M  V30 4471 H 434.696 -3.06878 -3.06608 0
M  V30 4472 H 435.367 -2.90797 -4.69192 0
M  V30 4473 H 437.843 -1.10521 -4.01154 0
M  V30 4474 H 436.719 -1.025 -5.39245 0
M  V30 4475 H 436.98 0.402465 -4.40264 0
M  V30 4476 N 436.039 1.36541 -0.78704 0
M  V30 4477 C 437.285 1.99599 -0.358872 0
M  V30 4478 C 437.618 1.62323 1.06606 0
M  V30 4479 O 436.893 0.876858 1.73613 0
M  V30 4480 C 437.176 3.56327 -0.519944 0
M  V30 4481 C 437.029 4.03464 -1.98839 0
M  V30 4482 C 438.348 4.4005 0.0664737 0
M  V30 4483 H 435.467 0.725107 -0.131869 0
M  V30 4484 H 438.109 1.6199 -0.992936 0
M  V30 4485 H 436.259 3.88495 0.0198321 0
M  V30 4486 H 437.931 3.81793 -2.58905 0
M  V30 4487 H 436.174 3.55092 -2.49183 0
M  V30 4488 H 436.845 5.12439 -2.05207 0
M  V30 4489 H 439.321 4.14228 -0.394267 0
M  V30 4490 H 438.197 5.48847 -0.0762682 0
M  V30 4491 H 438.458 4.26655 1.15835 0
M  V30 4492 N 437.518 0.538854 1.48102 0
M  V30 4493 C 438.795 -0.0568108 1.95517 0
M  V30 4494 C 439.175 -1.50408 1.48124 0
M  V30 4495 O 438.523 -2.17133 0.711727 0
M  V30 4496 C 438.733 0.0696262 3.48931 0
M  V30 4497 C 440.081 -0.0851202 4.24515 0
M  V30 4498 O 441.105 -0.0037347 3.562 0
M  V30 4499 O 439.964 -0.257025 5.45895 0
M  V30 4500 H 437.058 -0.0743695 0.823649 0
M  V30 4501 H 439.604 0.604081 1.58584 0
M  V30 4502 H 438.376 1.07744 3.76174 0
M  V30 4503 H 437.999 -0.629714 3.92582 0
M  V30 4504 N 438.996 -1.55193 0.274407 0
M  V30 4505 C 439.928 -2.1989 -0.646595 0
M  V30 4506 C 440.941 -1.1834 -1.11801 0
M  V30 4507 O 442.13 -1.4507 -1.04004 0
M  V30 4508 C 439.23 -2.8104 -1.89393 0
M  V30 4509 C 438.403 -4.08274 -1.56943 0
M  V30 4510 C 437.462 -4.53478 -2.66916 0
M  V30 4511 O 436.488 -5.19267 -2.33132 0
M  V30 4512 N 437.69 -4.2356 -3.9696 0
M  V30 4513 H 440.455 -2.99556 -0.0928686 0
M  V30 4514 H 438.016 -1.61618 0.0954783 0
M  V30 4515 H 440.008 -3.08226 -2.62257 0
M  V30 4516 H 438.578 -2.05372 -2.35672 0
M  V30 4517 H 437.798 -3.88384 -0.674655 0
M  V30 4518 H 439.086 -4.91173 -1.32764 0
M  V30 4519 H 438.484 -3.70799 -4.27229 0
M  V30 4520 H 437.041 -4.55518 -4.66205 0
M  V30 4521 N 440.474 -0.00167713 -1.576 0
M  V30 4522 C 441.702 0.693759 -1.94922 0
M  V30 4523 C 442.117 1.67215 -0.876626 0
M  V30 4524 O 441.474 1.81929 0.144279 0
M  V30 4525 C 441.525 1.42416 -3.32265 0
M  V30 4526 O 441.246 0.485014 -4.35407 0
M  V30 4527 C 442.747 2.21395 -3.84056 0
M  V30 4528 H 439.967 0.193118 -0.642609 0
M  V30 4529 H 442.511 -0.0532952 -2.04431 0
M  V30 4530 H 440.666 2.12284 -3.24059 0
M  V30 4531 H 441.08 1.00053 -5.14868 0
M  V30 4532 H 442.554 2.67996 -4.82578 0
M  V30 4533 H 443.031 3.04142 -3.16851 0
M  V30 4534 H 443.637 1.56542 -3.95443 0
M  V30 4535 N 441.952 1.55251 0.271103 0
M  V30 4536 C 443.177 1.80306 1.02491 0
M  V30 4537 C 443.602 0.575457 1.79081 0
M  V30 4538 O 442.96 -0.474987 1.74967 0
M  V30 4539 C 443.008 3.02832 1.95768 0
M  V30 4540 O 442.112 2.78051 3.04568 0
M  V30 4541 H 441.453 0.595896 0.292923 0
M  V30 4542 H 443.983 2.02397 0.299436 0
M  V30 4543 H 443.993 3.31616 2.37686 0
M  V30 4544 H 442.668 3.9183 1.39434 0
M  V30 4545 H 441.245 2.60369 2.66951 0
M  V30 4546 N 443.43 -0.535701 1.48216 0
M  V30 4547 C 444.67 -1.30238 1.57536 0
M  V30 4548 C 445.034 -1.90479 0.241229 0
M  V30 4549 O 446.235 -2.67983 0.20938 0
M  V30 4550 C 444.506 -2.3669 2.67792 0
M  V30 4551 S 446.065 -3.23159 2.9684 0
M  V30 4552 H 442.883 -0.443093 0.556048 0
M  V30 4553 H 445.485 -0.610937 1.85709 0
M  V30 4554 H 444.189 -1.90905 3.63296 0
M  V30 4555 H 443.72 -3.10548 2.41502 0
M  V30 4556 H 445.735 -4.36647 2.35699 0
M  V30 4557 N 444.908 -1.36708 -0.784132 0
M  V30 4558 C 446.154 -1.31426 -1.54451 0
M  V30 4559 C 446.487 0.10476 -1.93917 0
M  V30 4560 O 445.762 1.05934 -1.6312 0
M  V30 4561 C 446.045 -2.24189 -2.818 0
M  V30 4562 C 445.898 -3.74813 -2.48667 0
M  V30 4563 C 447.217 -2.15626 -3.83658 0
M  V30 4564 H 444.336 -0.478739 -0.560337 0
M  V30 4565 H 446.978 -1.67305 -0.900498 0
M  V30 4566 H 445.128 -1.93722 -3.36755 0
M  V30 4567 H 446.8 -4.15823 -1.99722 0
M  V30 4568 H 445.043 -3.93989 -1.81535 0
M  V30 4569 H 445.714 -4.35138 -3.39646 0
M  V30 4570 H 448.19 -2.42456 -3.38163 0
M  V30 4571 H 447.066 -2.82694 -4.70506 0
M  V30 4572 H 447.327 -1.14522 -4.27009 0
M  V30 4573 N 446.386 1.0089 -1.21074 0
M  V30 4574 C 447.802 1.2695 -0.967257 0
M  V30 4575 C 448.002 1.9846 0.348673 0
M  V30 4576 O 447.058 2.28459 1.0753 0
M  V30 4577 C 448.371 2.09697 -2.15517 0
M  V30 4578 C 449.919 2.22937 -2.197 0
M  V30 4579 C 450.394 3.09064 -3.37999 0
M  V30 4580 N 451.885 3.16653 -3.38061 0
M  V30 4581 C 452.62 3.8354 -4.26245 0
M  V30 4582 N 452.116 4.52488 -5.2462 0
M  V30 4583 N 453.909 3.80141 -4.14064 0
M  V30 4584 H 446.06 0.529005 -2.05707 0
M  V30 4585 H 448.323 0.296148 -0.900556 0
M  V30 4586 H 448.029 1.64497 -3.10859 0
M  V30 4587 H 447.903 3.10444 -2.14253 0
M  V30 4588 H 450.29 2.67357 -1.24916 0
M  V30 4589 H 450.371 1.21673 -2.2501 0
M  V30 4590 H 450.015 2.65347 -4.33074 0
M  V30 4591 H 449.945 4.10433 -3.29928 0
M  V30 4592 H 452.436 2.67566 -2.66865 0
M  V30 4593 H 452.749 5.01219 -5.88217 0
M  V30 4594 H 451.094 4.51288 -5.28549 0
M  V30 4595 H 454.285 3.25427 -3.36474 0
M  V30 4596 H 454.458 4.31992 -4.82998 0
M  V30 4597 N 447.864 1.01787 1.20321 0
M  V30 4598 C 448.827 0.593972 2.2137 0
M  V30 4599 C 449.827 -0.336553 1.57239 0
M  V30 4600 O 451.017 -0.125069 1.7375 0
M  V30 4601 C 448.149 -0.132433 3.40643 0
M  V30 4602 H 449.342 1.48791 2.60387 0
M  V30 4603 H 446.895 0.807803 1.33807 0
M  V30 4604 H 447.63 -1.04123 3.0713 0
M  V30 4605 H 447.415 0.53605 3.88418 0
M  V30 4606 H 448.905 -0.416314 4.1552 0
M  V30 4607 N 449.342 -1.36122 0.79427 0
M  V30 4608 C 450.582 -2.00942 0.374376 0
M  V30 4609 C 450.946 -1.61666 -1.03577 0
M  V30 4610 O 452.147 -2.19113 -1.55701 0
M  V30 4611 C 450.418 -3.53323 0.538327 0
M  V30 4612 S 451.977 -4.38311 0.20703 0
M  V30 4613 H 448.795 -0.696515 0.142785 0
M  V30 4614 H 451.397 -1.65929 1.03382 0
M  V30 4615 H 450.101 -3.79395 1.56484 0
M  V30 4616 H 449.632 -3.93162 -0.136882 0
M  V30 4617 H 451.647 -4.8623 -0.989695 0
M  V30 4618 N 450.82 -0.546701 -1.47814 0
M  V30 4619 C 452.231 -0.110564 -1.86372 0
M  V30 4620 C 452.582 1.31678 -1.45449 0
M  V30 4621 O 451.707 1.98889 -0.852758 0
M  V30 4622 C 452.302 -0.193873 -3.38245 0
M  V30 4623 C 450.861 0.187164 -3.75934 0
M  V30 4624 C 450.008 -0.546166 -2.71868 0
M  V30 4625 H 452.959 -0.757022 -1.39481 0
M  V30 4626 H 452.98 0.590218 -3.75895 0
M  V30 4627 H 452.492 -1.23282 -3.67999 0
M  V30 4628 H 450.593 1.22762 -3.51796 0
M  V30 4629 H 450.706 -0.164083 -4.78819 0
M  V30 4630 H 449.07 0.00953904 -2.54698 0
M  V30 4631 H 449.853 -1.58606 -3.04465 0
M  V30 4632 N 452.299 1.55045 -0.282633 0
M  V30 4633 C 453.71 1.85473 0.213655 0
M  V30 4634 C 454.061 1.20465 1.54863 0
M  V30 4635 O 453.186 0.495676 2.10647 0
M  V30 4636 C 453.781 3.36496 0.394445 0
M  V30 4637 C 452.34 3.67022 0.834961 0
M  V30 4638 C 451.487 2.77218 -0.0674081 0
M  V30 4639 H 454.438 1.50478 -0.504202 0
M  V30 4640 H 454.459 3.60007 1.23186 0
M  V30 4641 H 453.971 3.83782 -0.577326 0
M  V30 4642 H 452.072 3.25241 1.81794 0
M  V30 4643 H 452.185 4.74433 0.667075 0
M  V30 4644 H 450.549 2.5069 0.450196 0
M  V30 4645 H 451.332 3.2732 -1.0352 0
M  V30 4646 N 453.777 0.010035 1.57597 0
M  V30 4647 C 455.054 -0.710296 1.82248 0
M  V30 4648 C 455.434 -1.91426 0.889911 0
M  V30 4649 O 454.782 -2.28424 -0.0590292 0
M  V30 4650 C 454.992 -1.10655 3.30993 0
M  V30 4651 C 456.34 -1.50621 3.96987 0
M  V30 4652 O 457.364 -1.20007 3.35375 0
M  V30 4653 O 456.223 -2.07587 5.05539 0
M  V30 4654 H 453.317 -0.34673 0.750804 0
M  V30 4655 H 455.863 0.0362578 1.69661 0
M  V30 4656 H 454.635 -0.248826 3.90508 0
M  V30 4657 H 454.258 -1.91189 3.48615 0
M  V30 4658 N 455.255 -1.55392 -0.262866 0
M  V30 4659 C 456.202 -1.88966 -1.32516 0
M  V30 4660 C 457.172 -0.742187 -1.48596 0
M  V30 4661 O 458.357 -0.99439 -1.62839 0
M  V30 4662 C 455.497 -2.17592 -2.67858 0
M  V30 4663 C 454.61 -3.45061 -2.59917 0
M  V30 4664 C 453.745 -3.63336 -3.87505 0
M  V30 4665 C 452.784 -4.84462 -3.74116 0
M  V30 4666 N 451.921 -4.99342 -4.93561 0
M  V30 4667 H 456.761 -2.79566 -1.03184 0
M  V30 4668 H 454.298 -1.38404 -0.498285 0
M  V30 4669 H 456.256 -2.3219 -3.46617 0
M  V30 4670 H 454.886 -1.30215 -2.95371 0
M  V30 4671 H 453.938 -3.38881 -1.72812 0
M  V30 4672 H 455.25 -4.3396 -2.45926 0
M  V30 4673 H 454.404 -3.77807 -4.74707 0
M  V30 4674 H 453.143 -2.72641 -4.04374 0
M  V30 4675 H 452.148 -4.69985 -2.85297 0
M  V30 4676 H 453.373 -5.76603 -3.58757 0
M  V30 4677 H 451.319 -4.1158 -5.10821 0
M  V30 4678 H 451.236 -5.82303 -4.82141 0
M  V30 4679 H 452.504 -5.18208 -5.82306 0
M  V30 4680 N 456.733 0.527833 -1.48498 0
M  V30 4681 C 457.666 1.64892 -1.57753 0
M  V30 4682 C 458.644 1.5687 -0.427867 0
M  V30 4683 O 459.828 1.77311 -0.639764 0
M  V30 4684 C 456.955 3.03301 -1.50752 0
M  V30 4685 C 456.001 3.29675 -2.70586 0
M  V30 4686 S 456.834 3.15712 -4.32535 0
M  V30 4687 C 457.99 4.56564 -4.28136 0
M  V30 4688 H 458.223 1.56792 -2.52594 0
M  V30 4689 H 455.756 0.710959 -1.37057 0
M  V30 4690 H 457.714 3.83123 -1.474 0
M  V30 4691 H 456.375 3.08839 -0.572454 0
M  V30 4692 H 455.568 4.3065 -2.61833 0
M  V30 4693 H 455.17 2.57526 -2.71212 0
M  V30 4694 H 457.462 5.48126 -3.98201 0
M  V30 4695 H 458.405 4.70371 -5.29298 0
M  V30 4696 H 458.813 4.35987 -3.58574 0
M  V30 4697 N 458.211 1.37122 0.776871 0
M  V30 4698 C 459.121 1.34651 1.9211 0
M  V30 4699 C 460.137 0.246824 1.7224 0
M  V30 4700 O 461.313 0.48134 1.95563 0
M  V30 4701 C 458.378 1.14748 3.2716 0
M  V30 4702 C 457.439 2.34308 3.5972 0
M  V30 4703 C 456.672 2.15345 4.88326 0
M  V30 4704 O 456.895 1.13507 5.58992 0
M  V30 4705 O 455.829 3.03414 5.1983 0
M  V30 4706 H 459.655 2.31013 1.97146 0
M  V30 4707 H 457.24 1.17799 0.918901 0
M  V30 4708 H 459.122 1.05616 4.0795 0
M  V30 4709 H 457.797 0.214562 3.22988 0
M  V30 4710 H 456.704 2.49011 2.79185 0
M  V30 4711 H 458.037 3.26149 3.68629 0
M  V30 4712 N 459.689 -1.00246 1.21608 0
M  V30 4713 C 460.935 -1.74319 1.03638 0
M  V30 4714 C 461.268 -1.89408 -0.428749 0
M  V30 4715 O 460.543 -1.43026 -1.3181 0
M  V30 4716 C 460.826 -3.15431 1.73711 0
M  V30 4717 C 460.679 -3.08049 3.27759 0
M  V30 4718 C 461.998 -4.14407 1.48173 0
M  V30 4719 H 459.117 -0.632741 0.377899 0
M  V30 4720 H 461.759 -1.16853 1.49818 0
M  V30 4721 H 459.909 -3.64493 1.34452 0
M  V30 4722 H 461.581 -2.66681 3.76403 0
M  V30 4723 H 459.824 -2.45088 3.57931 0
M  V30 4724 H 460.495 -4.07862 3.71958 0
M  V30 4725 H 462.971 -3.74061 1.82258 0
M  V30 4726 H 461.847 -5.11279 1.99713 0
M  V30 4727 H 462.108 -4.40174 0.412273 0
M  V30 4728 N 461.167 -1.02423 -1.1978 0
M  V30 4729 C 462.444 -0.632802 -1.85081 0
M  V30 4730 C 462.824 0.888745 -1.9148 0
M  V30 4731 O 462.172 1.78357 -1.42832 0
M  V30 4732 C 462.382 -1.28947 -3.24305 0
M  V30 4733 C 463.73 -1.40976 -4.00513 0
M  V30 4734 O 464.754 -1.24628 -3.33686 0
M  V30 4735 O 463.613 -1.67467 -5.20209 0
M  V30 4736 H 460.707 -0.219348 -0.79738 0
M  V30 4737 H 463.253 -1.12209 -1.27307 0
M  V30 4738 H 462.025 -2.3288 -3.14456 0
M  V30 4739 H 461.648 -0.787748 -3.89718 0
M  V30 4740 N 462.645 1.35699 -0.801477 0
M  V30 4741 C 463.592 2.29876 -0.206294 0
M  V30 4742 C 464.562 1.52565 0.656752 0
M  V30 4743 O 465.747 1.81024 0.602906 0
M  V30 4744 C 462.887 3.39052 0.643272 0
M  V30 4745 C 462 4.31335 -0.239644 0
M  V30 4746 C 461.135 5.27599 0.61744 0
M  V30 4747 C 460.174 6.11521 -0.26619 0
M  V30 4748 N 459.311 6.99938 0.550571 0
M  V30 4749 H 464.151 2.80187 -1.01484 0
M  V30 4750 H 461.688 1.37902 -0.511997 0
M  V30 4751 H 463.646 4.0101 1.15094 0
M  V30 4752 H 462.276 2.9003 1.41713 0
M  V30 4753 H 461.328 3.70426 -0.865381 0
M  V30 4754 H 462.64 4.90243 -0.919985 0
M  V30 4755 H 461.794 5.94906 1.19045 0
M  V30 4756 H 460.533 4.69176 1.33137 0
M  V30 4757 H 459.538 5.43166 -0.851507 0
M  V30 4758 H 460.763 6.72022 -0.9779 0
M  V30 4759 H 458.709 6.44008 1.24856 0
M  V30 4760 H 458.626 7.55966 -0.071832 0
M  V30 4761 H 459.894 7.71599 1.10702 0
M  V30 4762 N 464.123 0.554532 1.47522 0
M  V30 4763 C 465.071 -0.207765 2.3167 0
M  V30 4764 C 466.065 -0.911914 1.4276 0
M  V30 4765 O 467.271 -0.833504 1.59539 0
M  V30 4766 H 463.646 -0.0858726 0.747081 0
M  V30 4767 H 465.617 0.521178 2.93813 0
M  V30 4768 C 464.366 -1.2263 3.25357 0
M  V30 4769 H 463.689 -0.693887 3.93732 0
M  V30 4770 H 465.129 -1.73062 3.87073 0
M  V30 4771 C 463.588 -2.27278 2.4869 0
M  V30 4772 O 464.118 -3.34156 2.22941 0
M  V30 4773 N 462.324 -2.01134 2.09746 0
M  V30 4774 H 461.871 -1.14232 2.30887 0
M  V30 4775 H 461.829 -2.71369 1.58765 0
M  V30 4776 N 465.601 -1.54893 0.290851 0
M  V30 4777 C 466.849 -1.99538 -0.320756 0
M  V30 4778 C 467.17 -1.18075 -1.55188 0
M  V30 4779 O 466.44 -0.274162 -1.93972 0
M  V30 4780 H 465.02 -0.737052 -0.121507 0
M  V30 4781 H 467.682 -1.90755 0.399832 0
M  V30 4782 H 466.778 -3.06282 -0.599802 0
M  V30 4783 N 467.08 -0.0183926 -1.57589 0
M  V30 4784 C 468.01 0.965596 -2.12599 0
M  V30 4785 C 468.991 1.34641 -1.0395 0
M  V30 4786 O 470.176 1.42693 -1.31729 0
M  V30 4787 C 467.306 2.25149 -2.64434 0
M  V30 4788 C 466.26 2.01175 -3.77773 0
M  V30 4789 C 465.586 3.35937 -4.15994 0
M  V30 4790 C 466.886 1.35953 -5.04296 0
M  V30 4791 H 468.58 0.507504 -2.95067 0
M  V30 4792 H 466.126 0.242671 -1.41941 0
M  V30 4793 H 468.079 2.94357 -3.01549 0
M  V30 4794 H 466.803 2.73105 -1.79112 0
M  V30 4795 H 465.462 1.34388 -3.4108 0
M  V30 4796 H 465.11 3.81631 -3.27669 0
M  V30 4797 H 464.81 3.20705 -4.92364 0
M  V30 4798 H 466.334 4.0643 -4.55683 0
M  V30 4799 H 467.748 1.95144 -5.39065 0
M  V30 4800 H 466.145 1.31152 -5.85593 0
M  V30 4801 H 467.215 0.331071 -4.83768 0
M  V30 4802 N 468.558 1.5553 0.254621 0
M  V30 4803 C 469.505 1.89666 1.31512 0
M  V30 4804 C 470.475 0.750057 1.482 0
M  V30 4805 O 471.66 1.00301 1.62309 0
M  V30 4806 C 468.8 2.19009 2.667 0
M  V30 4807 C 467.913 3.46435 2.58083 0
M  V30 4808 C 467.048 3.65386 3.85573 0
M  V30 4809 C 466.087 4.8644 3.71541 0
M  V30 4810 N 465.224 5.01952 4.90906 0
M  V30 4811 H 470.064 2.80109 1.017 0
M  V30 4812 H 467.601 1.38666 0.490938 0
M  V30 4813 H 469.559 2.34025 3.45381 0
M  V30 4814 H 468.189 1.31779 2.94676 0
M  V30 4815 H 467.241 3.39792 1.71013 0
M  V30 4816 H 468.553 4.35258 2.43622 0
M  V30 4817 H 467.707 3.80319 4.72697 0
M  V30 4818 H 466.446 2.74781 4.02922 0
M  V30 4819 H 465.451 4.71491 2.82801 0
M  V30 4820 H 466.676 5.78497 3.55694 0
M  V30 4821 H 464.622 4.14283 5.08631 0
M  V30 4822 H 464.539 5.84851 4.79046 0
M  V30 4823 H 465.807 5.21289 5.7955 0
M  V30 4824 N 470.036 -0.519951 1.48776 0
M  V30 4825 C 470.969 -1.64053 1.58625 0
M  V30 4826 C 471.947 -1.5664 0.43618 0
M  V30 4827 O 473.131 -1.76969 0.649159 0
M  V30 4828 C 470.258 -3.02497 1.52359 0
M  V30 4829 C 469.304 -3.28235 2.72331 0
M  V30 4830 S 470.137 -3.13414 4.34203 0
M  V30 4831 C 471.293 -4.54287 4.30551 0
M  V30 4832 H 471.526 -1.5545 2.53422 0
M  V30 4833 H 469.059 -0.703681 1.37433 0
M  V30 4834 H 471.017 -3.82336 1.4943 0
M  V30 4835 H 469.678 -3.08531 0.588824 0
M  V30 4836 H 468.871 -4.29256 2.64113 0
M  V30 4837 H 468.473 -2.56085 2.72574 0
M  V30 4838 H 470.765 -5.46006 4.01103 0
M  V30 4839 H 471.708 -4.67558 5.31785 0
M  V30 4840 H 472.116 -4.34079 3.60881 0
M  V30 4841 N 471.514 -1.37532 -0.769588 0
M  V30 4842 C 472.754 -1.34261 -1.54122 0
M  V30 4843 C 473.118 0.0717222 -1.91866 0
M  V30 4844 O 474.319 0.22918 -2.67821 0
M  V30 4845 C 472.59 -2.2574 -2.77086 0
M  V30 4846 S 474.149 -2.40339 -3.67127 0
M  V30 4847 H 470.967 -0.476595 -0.527615 0
M  V30 4848 H 473.569 -1.73303 -0.90479 0
M  V30 4849 H 472.273 -3.27417 -2.4744 0
M  V30 4850 H 471.804 -1.87789 -3.45686 0
M  V30 4851 H 473.819 -1.61558 -4.69163 0
M  V30 4852 N 472.992 0.995999 -1.22138 0
M  V30 4853 C 473.902 2.11985 -1.00496 0
M  V30 4854 C 474.918 1.7394 0.0457701 0
M  V30 4855 O 476.094 2.00868 -0.146273 0
M  V30 4856 C 473.159 3.41779 -0.582086 0
M  V30 4857 C 472.22 3.93943 -1.70608 0
M  V30 4858 C 471.453 5.17542 -1.30328 0
M  V30 4859 O 471.676 5.70114 -0.180743 0
M  V30 4860 O 470.61 5.63382 -2.11861 0
M  V30 4861 H 474.436 2.33123 -1.94647 0
M  V30 4862 H 472.021 1.10358 -1.00705 0
M  V30 4863 H 473.903 4.1989 -0.356467 0
M  V30 4864 H 472.578 3.22007 0.330592 0
M  V30 4865 H 471.485 3.17019 -1.98619 0
M  V30 4866 H 472.818 4.18141 -2.59651 0
M  V30 4867 N 474.47 1.03057 1.19235 0
M  V30 4868 C 475.881 0.757449 1.70645 0
M  V30 4869 C 476.232 -0.722735 1.82403 0
M  V30 4870 O 475.357 -1.56325 1.49638 0
M  V30 4871 C 475.952 1.36833 3.09939 0
M  V30 4872 C 474.511 1.14375 3.58602 0
M  V30 4873 C 473.658 1.46533 2.35422 0
M  V30 4874 H 476.609 1.19828 1.04052 0
M  V30 4875 H 476.63 0.766184 3.72706 0
M  V30 4876 H 476.142 2.44562 3.01349 0
M  V30 4877 H 474.243 0.0847542 3.72504 0
M  V30 4878 H 474.356 1.83366 4.42622 0
M  V30 4879 H 472.72 0.884712 2.38841 0
M  V30 4880 H 473.503 2.55349 2.2946 0
M  V30 4881 N 475.948 -1.35272 0.808662 0
M  V30 4882 C 477.188 -2.00534 0.395668 0
M  V30 4883 C 477.552 -1.62755 -1.01857 0
M  V30 4884 O 478.753 -2.20752 -1.53368 0
M  V30 4885 C 477.024 -3.52732 0.575771 0
M  V30 4886 S 478.583 -4.38067 0.253507 0
M  V30 4887 H 475.401 -0.694962 0.150165 0
M  V30 4888 H 478.003 -1.64823 1.05137 0
M  V30 4889 H 476.707 -3.77714 1.60499 0
M  V30 4890 H 476.238 -3.93285 -0.0951739 0
M  V30 4891 H 478.253 -4.87252 -0.938068 0
M  V30 4892 N 477.426 -0.562348 -1.47226 0
M  V30 4893 C 478.674 -0.0401371 -2.0206 0
M  V30 4894 C 478.995 1.3165 -1.43852 0
M  V30 4895 O 478.265 1.85976 -0.615599 0
M  V30 4896 H 476.845 -0.0118479 -0.746906 0
M  V30 4897 H 479.507 -0.73352 -1.8057 0
M  V30 4898 H 478.603 0.0441254 -3.12069 0
M  V30 4899 N 478.904 1.54736 -0.299062 0
M  V30 4900 C 480.152 1.99706 0.31017 0
M  V30 4901 C 480.473 1.18896 1.54559 0
M  V30 4902 O 479.743 0.284445 1.93824 0
M  V30 4903 H 478.323 0.737686 0.117596 0
M  V30 4904 H 480.985 1.9054 -0.409943 0
M  V30 4905 H 480.081 3.06596 0.58355 0
M  V30 4906 N 480.382 0.0267497 1.57577 0
M  V30 4907 C 481.312 -0.954308 2.13108 0
M  V30 4908 C 482.293 -1.34088 1.04663 0
M  V30 4909 O 483.478 -1.41992 1.32484 0
M  V30 4910 C 480.608 -2.23744 2.65624 0
M  V30 4911 C 479.562 -1.99168 3.78835 0
M  V30 4912 C 478.888 -3.33726 4.17769 0
M  V30 4913 C 480.188 -1.33277 5.0501 0
M  V30 4914 H 481.882 -0.491848 2.95332 0
M  V30 4915 H 479.428 -0.23514 1.42067 0
M  V30 4916 H 481.381 -2.92754 3.03106 0
M  V30 4917 H 480.105 -2.72151 1.80558 0
M  V30 4918 H 478.764 -1.32577 3.41788 0
M  V30 4919 H 478.412 -3.79888 3.29688 0
M  V30 4920 H 478.112 -3.18089 4.94058 0
M  V30 4921 H 479.636 -4.04008 4.57832 0
M  V30 4922 H 481.05 -1.92283 5.40093 0
M  V30 4923 H 479.447 -1.28045 5.8628 0
M  V30 4924 H 480.517 -0.305411 4.83937 0
M  V30 4925 N 481.861 -1.55662 -0.24637 0
M  V30 4926 C 483.101 -1.79283 -0.981685 0
M  V30 4927 C 483.465 -0.596356 -1.82504 0
M  V30 4928 O 484.666 -0.711342 -2.59217 0
M  V30 4929 C 482.937 -3.07648 -1.819 0
M  V30 4930 S 484.496 -3.52491 -2.61334 0
M  V30 4931 H 481.314 -0.629676 -0.330196 0
M  V30 4932 H 483.916 -1.93901 -0.249498 0
M  V30 4933 H 482.62 -3.92794 -1.18915 0
M  V30 4934 H 482.151 -2.95768 -2.59393 0
M  V30 4935 H 484.166 -3.13866 -3.84321 0
M  V30 4936 N 483.339 0.512053 -1.4905 0
M  V30 4937 C 484.75 1.09376 -1.51307 0
M  V30 4938 C 485.101 1.94 -0.292971 0
M  V30 4939 O 484.226 2.07965 0.598277 0
M  V30 4940 C 484.821 1.99031 -2.74176 0
M  V30 4941 C 483.38 2.52385 -2.79247 0
M  V30 4942 C 482.527 1.29749 -2.45073 0
M  V30 4943 H 485.478 0.296467 -1.55906 0
M  V30 4944 H 485.499 2.83569 -2.53711 0
M  V30 4945 H 485.011 1.37412 -3.62959 0
M  V30 4946 H 483.112 3.17673 -1.94716 0
M  V30 4947 H 483.225 2.90293 -3.81139 0
M  V30 4948 H 481.589 1.61912 -1.96612 0
M  V30 4949 H 482.372 0.698555 -3.36118 0
M  V30 4950 N 484.817 1.37938 0.762283 0
M  V30 4951 C 485.764 1.34467 1.87583 0
M  V30 4952 C 486.734 0.208633 1.64785 0
M  V30 4953 O 487.919 0.399494 1.86571 0
M  V30 4954 C 485.059 1.16692 3.24772 0
M  V30 4955 C 484.172 2.39608 3.59461 0
M  V30 4956 C 483.307 2.14631 4.85908 0
M  V30 4957 C 482.346 3.33364 5.13357 0
M  V30 4958 N 481.483 3.07877 6.30996 0
M  V30 4959 H 486.323 2.29669 1.89885 0
M  V30 4960 H 483.86 1.14116 0.928219 0
M  V30 4961 H 485.818 1.04405 4.03925 0
M  V30 4962 H 484.448 0.251333 3.2182 0
M  V30 4963 H 483.5 2.626 2.75219 0
M  V30 4964 H 484.812 3.28128 3.75678 0
M  V30 4965 H 483.966 1.99429 5.72986 0
M  V30 4966 H 482.705 1.23463 4.71814 0
M  V30 4967 H 481.71 3.49094 4.24751 0
M  V30 4968 H 482.935 4.25395 5.29354 0
M  V30 4969 H 480.881 2.19348 6.18241 0
M  V30 4970 H 480.798 3.89944 6.47673 0
M  V30 4971 H 482.066 2.96313 7.20985 0
M  V30 4972 N 486.295 -0.989507 1.22664 0
M  V30 4973 C 487.258 -2.06183 1.00106 0
M  V30 4974 C 488.258 -1.60765 -0.0337726 0
M  V30 4975 O 489.448 -1.72989 0.205072 0
M  V30 4976 C 486.58 -3.37021 0.51279 0
M  V30 4977 H 487.773 -2.27629 1.95256 0
M  V30 4978 H 485.326 -1.16158 1.0458 0
M  V30 4979 H 486.061 -3.21261 -0.442917 0
M  V30 4980 H 485.846 -3.71323 1.25942 0
M  V30 4981 H 487.336 -4.1591 0.375315 0
M  V30 4982 N 487.773 -1.03688 -1.18687 0
M  V30 4983 C 489.013 -0.746858 -1.90267 0
M  V30 4984 C 489.377 0.712075 -1.78307 0
M  V30 4985 O 490.578 1.11553 -2.44559 0
M  V30 4986 C 488.849 -1.19543 -3.36815 0
M  V30 4987 S 490.408 -1.03047 -4.26529 0
M  V30 4988 H 487.226 -0.271663 -0.657054 0
M  V30 4989 H 489.828 -1.32838 -1.43437 0
M  V30 4990 H 488.532 -2.2527 -3.43047 0
M  V30 4991 H 488.063 -0.607533 -3.88681 0
M  V30 4992 H 490.078 0.0543232 -4.9617 0
M  V30 4993 N 489.251 1.34841 -0.815825 0
M  V30 4994 C 490.161 2.33425 -0.234462 0
M  V30 4995 C 491.177 1.62295 0.627413 0
M  V30 4996 O 492.353 1.94109 0.536987 0
M  V30 4997 C 489.418 3.41471 0.599849 0
M  V30 4998 C 488.479 4.28362 -0.283596 0
M  V30 4999 C 487.712 5.31248 0.51099 0
M  V30 5000 O 487.935 5.43056 1.7449 0
M  V30 5001 O 486.869 6.01812 -0.10297 0
M  V30 5002 H 490.695 2.84962 -1.05024 0
M  V30 5003 H 488.28 1.37774 -0.577809 0
M  V30 5004 H 490.162 4.07464 1.07475 0
M  V30 5005 H 488.837 2.9219 1.39308 0
M  V30 5006 H 487.744 3.65318 -0.805836 0
M  V30 5007 H 489.077 4.81066 -1.041 0
M  V30 5008 N 490.729 0.570148 1.46925 0
M  V30 5009 C 491.977 0.0508523 2.02036 0
M  V30 5010 C 492.298 -1.30885 1.44548 0
M  V30 5011 O 491.568 -1.85647 0.625453 0
M  V30 5012 H 490.148 0.0158088 0.746833 0
M  V30 5013 H 492.81 0.743086 1.80178 0
M  V30 5014 H 491.906 -0.027575 3.12088 0
M  V30 5015 N 492.207 -1.54576 0.307264 0
M  V30 5016 C 493.435 -2.04675 -0.302597 0
M  V30 5017 C 493.85 -1.18425 -1.47041 0
M  V30 5018 O 493.207 -0.211257 -1.81273 0
M  V30 5019 C 493.258 -3.53575 -0.752801 0
M  V30 5020 O 492.979 -4.36547 0.368536 0
M  V30 5021 C 494.48 -4.19699 -1.42717 0
M  V30 5022 H 491.7 -0.66786 -0.0648374 0
M  V30 5023 H 494.244 -1.99516 0.448716 0
M  V30 5024 H 492.399 -3.59074 -1.45412 0
M  V30 5025 H 492.813 -5.24497 0.0168937 0
M  V30 5026 H 494.287 -5.25388 -1.69327 0
M  V30 5027 H 494.764 -3.69815 -2.36925 0
M  V30 5028 H 495.37 -4.18293 -0.768856 0
M  V30 5029 N 493.685 -0.035106 -1.57561 0
M  V30 5030 C 494.933 0.64096 -1.91667 0
M  V30 5031 C 495.254 1.72323 -0.912681 0
M  V30 5032 O 494.524 1.95849 0.0449089 0
M  V30 5033 H 493.104 0.239743 -0.707483 0
M  V30 5034 H 495.766 -0.084321 -1.94718 0
M  V30 5035 H 494.862 1.08987 -2.92452 0
M  V30 5036 N 495.163 1.55791 0.238111 0
M  V30 5037 C 496.388 1.8244 0.986432 0
M  V30 5038 C 496.813 0.613314 1.7782 0
M  V30 5039 O 496.171 -0.437767 1.75935 0
M  V30 5040 C 496.219 3.06917 1.893 0
M  V30 5041 O 495.323 2.84449 2.98601 0
M  V30 5042 H 494.664 0.601975 0.280218 0
M  V30 5043 H 497.194 2.02987 0.256437 0
M  V30 5044 H 497.204 3.36583 2.30598 0
M  V30 5045 H 495.879 3.947 1.31091 0
M  V30 5046 H 494.456 2.65972 2.61368 0
M  V30 5047 N 496.642 -0.504142 1.49319 0
M  V30 5048 C 497.89 -1.25598 1.58334 0
M  V30 5049 C 498.211 -1.93114 0.270538 0
M  V30 5050 O 497.481 -1.82585 -0.709891 0
M  V30 5051 H 496.061 -0.466571 0.58337 0
M  V30 5052 H 498.723 -0.584547 1.85928 0
M  V30 5053 H 497.819 -2.02159 2.37778 0
M  V30 5054 N 498.12 -1.38341 -0.754957 0
M  V30 5055 C 499.345 -1.37882 -1.5493 0
M  V30 5056 C 499.77 0.0296385 -1.88077 0
M  V30 5057 O 499.128 1.01133 -1.50472 0
M  V30 5058 C 499.176 -2.23996 -2.82592 0
M  V30 5059 O 498.28 -1.65612 -3.77686 0
M  V30 5060 H 497.621 -0.470384 -0.468652 0
M  V30 5061 H 500.151 -1.82084 -0.933082 0
M  V30 5062 H 500.161 -2.37806 -3.3153 0
M  V30 5063 H 498.836 -3.26365 -2.57796 0
M  V30 5064 H 497.413 -1.60936 -3.36384 0
M  V30 5065 N 499.598 0.982988 -1.23187 0
M  V30 5066 C 501.014 1.2487 -0.993967 0
M  V30 5067 C 501.214 1.99155 0.306498 0
M  V30 5068 O 500.27 2.30688 1.0266 0
M  V30 5069 C 501.583 2.05078 -2.19917 0
M  V30 5070 C 503.131 2.18227 -2.2438 0
M  V30 5071 C 503.606 3.01825 -3.44479 0
M  V30 5072 N 505.097 3.09411 -3.44702 0
M  V30 5073 C 505.832 3.74412 -4.34285 0
M  V30 5074 N 505.328 4.41259 -5.341 0
M  V30 5075 N 507.121 3.71273 -4.22035 0
M  V30 5076 H 499.272 0.485253 -2.06783 0
M  V30 5077 H 501.535 0.276979 -0.906635 0
M  V30 5078 H 501.241 1.57867 -3.14279 0
M  V30 5079 H 501.115 3.05829 -2.2079 0
M  V30 5080 H 503.502 2.64648 -1.30559 0
M  V30 5081 H 503.583 1.16873 -2.2754 0
M  V30 5082 H 503.227 2.56102 -4.38605 0
M  V30 5083 H 503.157 4.03342 -3.38559 0
M  V30 5084 H 505.648 2.61845 -2.7248 0
M  V30 5085 H 505.961 4.88629 -5.98717 0
M  V30 5086 H 504.306 4.39975 -5.38002 0
M  V30 5087 H 507.497 3.18217 -3.43301 0
M  V30 5088 H 507.67 4.21649 -4.92053 0
M  V30 5089 N 501.076 1.04316 1.18135 0
M  V30 5090 C 502.323 0.74802 1.88178 0
M  V30 5091 C 502.651 -0.72441 1.80506 0
M  V30 5092 O 501.906 -1.54463 1.20165 0
M  V30 5093 C 502.205 1.16271 3.37958 0
M  V30 5094 C 501.871 2.63585 3.65833 0
M  V30 5095 C 500.533 3.03829 3.73151 0
M  V30 5096 C 502.885 3.58822 3.78016 0
M  V30 5097 C 500.213 4.38194 3.90132 0
M  V30 5098 C 502.565 4.92909 3.96514 0
M  V30 5099 C 501.229 5.3282 4.02068 0
M  V30 5100 H 500.499 0.27372 0.688592 0
M  V30 5101 H 503.146 1.30863 1.39811 0
M  V30 5102 H 501.451 0.520938 3.88321 0
M  V30 5103 H 503.148 0.911672 3.90499 0
M  V30 5104 H 499.738 2.31414 3.60757 0
M  V30 5105 H 503.922 3.28875 3.71692 0
M  V30 5106 H 499.178 4.68631 3.92677 0
M  V30 5107 H 503.352 5.66606 4.04883 0
M  V30 5108 H 500.979 6.36943 4.14979 0
M  V30 5109 N 502.554 -1.34406 0.822964 0
M  V30 5110 C 503.486 -2.28305 0.202375 0
M  V30 5111 C 504.499 -1.5103 -0.60777 0
M  V30 5112 O 505.688 -1.73057 -0.437444 0
M  V30 5113 C 502.788 -3.30836 -0.734911 0
M  V30 5114 C 501.961 -4.37388 0.0324177 0
M  V30 5115 C 501.02 -5.1968 -0.825803 0
M  V30 5116 O 500.046 -5.68556 -0.270771 0
M  V30 5117 N 501.248 -5.39393 -2.14558 0
M  V30 5118 H 504.013 -2.82201 1.00909 0
M  V30 5119 H 501.574 -1.4693 0.67993 0
M  V30 5120 H 503.566 -3.82786 -1.31365 0
M  V30 5121 H 502.136 -2.77334 -1.44238 0
M  V30 5122 H 501.356 -3.86152 0.792469 0
M  V30 5123 H 502.644 -5.05702 0.560633 0
M  V30 5124 H 502.042 -5.01357 -2.62025 0
M  V30 5125 H 500.599 -5.94461 -2.67318 0
M  V30 5126 N 504.032 -0.577932 -1.46621 0
M  V30 5127 C 505.26 -0.0671642 -2.06791 0
M  V30 5128 C 505.675 1.23571 -1.42743 0
M  V30 5129 O 505.032 1.74602 -0.531062 0
M  V30 5130 C 505.083 0.110357 -3.61332 0
M  V30 5131 O 504.804 -1.14095 -4.22982 0
M  V30 5132 C 506.305 0.656025 -4.38419 0
M  V30 5133 H 503.525 -0.0552732 -0.66872 0
M  V30 5134 H 506.069 -0.797242 -1.8832 0
M  V30 5135 H 504.224 0.790637 -3.79246 0
M  V30 5136 H 504.638 -0.951742 -5.15793 0
M  V30 5137 H 506.112 0.729438 -5.47159 0
M  V30 5138 H 506.589 1.67195 -4.06131 0
M  V30 5139 H 507.195 0.0107692 -4.25299 0
M  V30 5140 N 505.51 1.54411 -0.315457 0
M  V30 5141 C 506.756 2.00716 0.289972 0
M  V30 5142 C 507.089 1.2034 1.5242 0
M  V30 5143 O 506.364 0.283579 1.92422 0
M  V30 5144 C 506.647 3.54507 0.632196 0
M  V30 5145 C 506.5 4.45615 -0.61218 0
M  V30 5146 C 507.819 4.15421 1.45305 0
M  V30 5147 H 504.938 0.729637 0.10392 0
M  V30 5148 H 507.58 1.8506 -0.430427 0
M  V30 5149 H 505.73 3.67979 1.24595 0
M  V30 5150 H 507.402 4.44026 -1.25053 0
M  V30 5151 H 505.645 4.15621 -1.24264 0
M  V30 5152 H 506.316 5.51022 -0.328379 0
M  V30 5153 H 508.792 4.05474 0.934331 0
M  V30 5154 H 507.668 5.23157 1.66127 0
M  V30 5155 H 507.929 3.68223 2.44671 0
M  V30 5156 N 506.988 0.0434614 1.5754 0
M  V30 5157 C 508.265 -0.671479 1.83713 0
M  V30 5158 C 508.645 -1.89495 0.930315 0
M  V30 5159 O 507.993 -2.28498 -0.0105639 0
M  V30 5160 C 508.203 -1.0361 3.33266 0
M  V30 5161 C 509.551 -1.42167 4.00092 0
M  V30 5162 O 510.575 -1.12866 3.37846 0
M  V30 5163 O 509.434 -1.96817 5.09829 0
M  V30 5164 H 506.528 -0.330726 0.75799 0
M  V30 5165 H 509.074 0.0722373 1.69546 0
M  V30 5166 H 507.846 -0.165938 3.90948 0
M  V30 5167 H 507.469 -1.83751 3.52592 0
M  V30 5168 N 508.466 -1.55915 -0.229846 0
M  V30 5169 C 509.691 -1.8296 -0.976743 0
M  V30 5170 C 510.116 -0.622735 -1.77493 0
M  V30 5171 O 509.474 0.428431 -1.76165 0
M  V30 5172 C 509.522 -3.07916 -1.8767 0
M  V30 5173 O 508.626 -2.86028 -2.97088 0
M  V30 5174 H 507.967 -0.603453 -0.277021 0
M  V30 5175 H 510.497 -2.0312 -0.245669 0
M  V30 5176 H 510.507 -3.37802 -2.2881 0
M  V30 5177 H 509.182 -3.95389 -1.28996 0
M  V30 5178 H 507.759 -2.67355 -2.59954 0
M  V30 5179 N 509.944 0.496216 -1.49584 0
M  V30 5180 C 511.169 1.27865 -1.63295 0
M  V30 5181 C 511.594 1.85592 -0.306156 0
M  V30 5182 O 510.952 1.66092 0.726851 0
M  V30 5183 C 511 2.38128 -2.7079 0
M  V30 5184 O 510.104 3.42108 -2.30296 0
M  V30 5185 H 509.445 0.377279 -0.546403 0
M  V30 5186 H 511.975 0.593497 -1.95803 0
M  V30 5187 H 511.985 2.8382 -2.93104 0
M  V30 5188 H 510.66 1.95479 -3.67098 0
M  V30 5189 H 509.237 3.02301 -2.18331 0
M  V30 5190 N 511.423 1.38739 0.74761 0
M  V30 5191 C 512.371 1.36573 1.88283 0
M  V30 5192 C 513.365 0.250712 1.67534 0
M  V30 5193 O 514.571 0.420073 1.7503 0
M  V30 5194 H 510.946 0.42619 0.619569 0
M  V30 5195 H 512.917 2.32356 1.87226 0
M  V30 5196 C 511.666 1.21361 3.25832 0
M  V30 5197 H 510.989 2.06424 3.42388 0
M  V30 5198 H 512.429 1.23901 4.05493 0
M  V30 5199 C 510.888 -0.0790099 3.36807 0
M  V30 5200 O 511.418 -1.05385 3.8763 0
M  V30 5201 N 509.624 -0.13785 2.90273 0
M  V30 5202 H 509.171 0.656128 2.49104 0
M  V30 5203 H 509.129 -1.00228 2.97996 0
M  V30 5204 N 512.901 -0.976442 1.23707 0
M  V30 5205 C 514.15 -1.71254 1.06559 0
M  V30 5206 C 514.463 -1.91528 -0.397024 0
M  V30 5207 O 515.669 -2.62625 -0.688518 0
M  V30 5208 C 514.125 -3.08207 1.8584 0
M  V30 5209 C 513.733 -2.95806 3.36456 0
M  V30 5210 C 515.477 -3.85749 1.77194 0
M  V30 5211 C 513.384 -4.28015 4.08114 0
M  V30 5212 H 512.314 -0.642171 0.395136 0
M  V30 5213 H 514.965 -1.08877 1.4771 0
M  V30 5214 H 513.347 -3.71363 1.37498 0
M  V30 5215 H 514.521 -2.41716 3.92314 0
M  V30 5216 H 512.836 -2.31736 3.45959 0
M  V30 5217 H 515.433 -4.83633 2.28041 0
M  V30 5218 H 515.776 -4.09752 0.735477 0
M  V30 5219 H 516.309 -3.29303 2.23169 0
M  V30 5220 H 513.048 -4.09208 5.12083 0
M  V30 5221 H 512.568 -4.81955 3.57043 0
M  V30 5222 H 514.247 -4.96681 4.14629 0
M  V30 5223 N 514.379 -1.04941 -1.1758 0
M  V30 5224 C 515.656 -0.671918 -1.83697 0
M  V30 5225 C 516.036 0.847929 -1.93322 0
M  V30 5226 O 515.384 1.75287 -1.46583 0
M  V30 5227 C 515.594 -1.35797 -3.21497 0
M  V30 5228 C 516.942 -1.4944 -3.97433 0
M  V30 5229 O 517.966 -1.31678 -3.30967 0
M  V30 5230 O 516.825 -1.78463 -5.1654 0
M  V30 5231 H 513.919 -0.236212 -0.792548 0
M  V30 5232 H 516.465 -1.14884 -1.24899 0
M  V30 5233 H 515.237 -2.39498 -3.09446 0
M  V30 5234 H 514.86 -0.870236 -3.8796 0
M  V30 5235 N 515.857 1.33968 -0.830081 0
M  V30 5236 C 517.105 1.97672 -0.420734 0
M  V30 5237 C 517.426 1.66111 1.02138 0
M  V30 5238 O 516.696 0.955503 1.71017 0
M  V30 5239 H 515.276 0.73125 -0.152587 0
M  V30 5240 H 517.938 1.63483 -1.0611 0
M  V30 5241 H 517.034 3.07294 -0.545588 0
M  V30 5242 N 517.335 0.585699 1.46312 0
M  V30 5243 C 518.582 0.0724211 2.0237 0
M  V30 5244 C 518.91 -1.28868 1.45683 0
M  V30 5245 O 518.165 -1.85853 0.612945 0
M  V30 5246 C 518.464 -0.0401312 3.57377 0
M  V30 5247 C 518.13 1.25376 4.33119 0
M  V30 5248 C 516.792 1.60824 4.5353 0
M  V30 5249 C 519.144 2.10987 4.76586 0
M  V30 5250 C 516.472 2.81676 5.14661 0
M  V30 5251 C 518.824 3.31068 5.39052 0
M  V30 5252 C 517.488 3.66794 5.5769 0
M  V30 5253 H 516.758 0.0265007 0.740526 0
M  V30 5254 H 519.405 0.762935 1.75646 0
M  V30 5255 H 517.71 -0.813791 3.83255 0
M  V30 5256 H 519.407 -0.453078 3.98432 0
M  V30 5257 H 515.997 0.967808 4.1753 0
M  V30 5258 H 520.181 1.84904 4.60569 0
M  V30 5259 H 515.437 3.0949 5.27282 0
M  V30 5260 H 519.611 3.97672 5.71691 0
M  V30 5261 H 517.238 4.60529 6.04828 0
M  V30 5262 N 518.813 -1.54241 0.323641 0
M  V30 5263 C 520.059 -2.00867 -0.279323 0
M  V30 5264 C 520.392 -1.21146 -1.5178 0
M  V30 5265 O 519.667 -0.29378 -1.92269 0
M  V30 5266 C 519.95 -3.54837 -0.613387 0
M  V30 5267 C 519.803 -4.45284 0.635803 0
M  V30 5268 C 521.122 -4.16186 -1.43099 0
M  V30 5269 H 518.241 -0.730177 -0.100049 0
M  V30 5270 H 520.883 -1.84829 0.440235 0
M  V30 5271 H 519.033 -3.68634 -1.22641 0
M  V30 5272 H 520.705 -4.43357 1.27406 0
M  V30 5273 H 518.948 -4.14956 1.26466 0
M  V30 5274 H 519.619 -5.5084 0.357597 0
M  V30 5275 H 522.095 -4.05964 -0.912814 0
M  V30 5276 H 520.971 -5.24031 -1.6335 0
M  V30 5277 H 521.232 -3.69516 -2.42715 0
M  V30 5278 N 520.291 -0.0518155 -1.57515 0
M  V30 5279 C 521.239 0.940195 -2.12751 0
M  V30 5280 C 522.233 1.3218 -1.05948 0
M  V30 5281 O 523.439 1.30138 -1.24355 0
M  V30 5282 H 519.814 0.321066 -0.680015 0
M  V30 5283 H 521.785 0.449217 -2.94999 0
M  V30 5284 C 520.534 2.2055 -2.68799 0
M  V30 5285 H 519.857 1.92066 -3.50643 0
M  V30 5286 H 521.297 2.88119 -3.11068 0
M  V30 5287 C 519.756 2.95061 -1.62605 0
M  V30 5288 O 520.286 3.88025 -1.03921 0
M  V30 5289 N 518.492 2.57804 -1.34111 0
M  V30 5290 H 518.039 1.82281 -1.8202 0
M  V30 5291 H 517.997 3.07964 -0.632872 0
M  V30 5292 N 521.769 1.56035 0.221574 0
M  V30 5293 C 523.009 1.80822 0.953038 0
M  V30 5294 C 523.373 0.625316 1.81532 0
M  V30 5295 O 524.574 0.752491 2.58052 0
M  V30 5296 C 522.845 3.10503 1.76983 0
M  V30 5297 S 524.404 3.56604 2.55693 0
M  V30 5298 H 521.222 0.634849 0.320137 0
M  V30 5299 H 523.824 1.94274 0.218619 0
M  V30 5300 H 522.528 3.94636 1.12651 0
M  V30 5301 H 522.059 2.99858 2.54655 0
M  V30 5302 H 524.074 3.1994 3.79279 0
M  V30 5303 N 523.247 -0.488276 1.49845 0
M  V30 5304 C 524.475 -1.26527 1.63702 0
M  V30 5305 C 524.89 -1.8618 0.313447 0
M  V30 5306 O 524.247 -1.68432 -0.702624 0
M  V30 5307 C 524.298 -2.3864 2.71538 0
M  V30 5308 O 524.019 -1.81437 3.98763 0
M  V30 5309 C 525.52 -3.29805 2.96215 0
M  V30 5310 H 522.74 -0.383295 0.55075 0
M  V30 5311 H 525.284 -0.584779 1.95961 0
M  V30 5312 H 523.439 -3.02496 2.42023 0
M  V30 5313 H 523.853 -2.55135 4.58265 0
M  V30 5314 H 525.327 -4.04722 3.75372 0
M  V30 5315 H 525.804 -3.87563 2.06619 0
M  V30 5316 H 526.41 -2.71703 3.27196 0
M  V30 5317 N 524.725 -1.39134 -0.740242 0
M  V30 5318 C 525.672 -1.37434 -1.8542 0
M  V30 5319 C 526.642 -0.234822 -1.64432 0
M  V30 5320 O 527.827 -0.429125 -1.85912 0
M  V30 5321 C 524.967 -1.21844 -3.22875 0
M  V30 5322 C 524.08 -2.45296 -3.55603 0
M  V30 5323 C 523.215 -2.22334 -4.82432 0
M  V30 5324 C 522.254 -3.41488 -5.07988 0
M  V30 5325 N 521.391 -3.17877 -6.26018 0
M  V30 5326 H 526.231 -2.3266 -1.86207 0
M  V30 5327 H 523.768 -1.15578 -0.909946 0
M  V30 5328 H 525.726 -1.10818 -4.02213 0
M  V30 5329 H 524.356 -0.3025 -3.21379 0
M  V30 5330 H 523.408 -2.66945 -2.71006 0
M  V30 5331 H 524.72 -3.34063 -3.7041 0
M  V30 5332 H 523.874 -2.0852 -5.69741 0
M  V30 5333 H 522.613 -1.30954 -4.6979 0
M  V30 5334 H 521.618 -3.55807 -4.19144 0
M  V30 5335 H 522.843 -4.33763 -5.22519 0
M  V30 5336 H 520.789 -2.29156 -6.14673 0
M  V30 5337 H 520.706 -4.00198 -6.41387 0
M  V30 5338 H 521.974 -3.07746 -7.16179 0
M  V30 5339 N 526.204 0.969867 -1.24223 0
M  V30 5340 C 527.453 1.70687 -1.07466 0
M  V30 5341 C 527.766 1.91736 0.386861 0
M  V30 5342 O 528.972 2.62986 0.674581 0
M  V30 5343 C 527.428 3.07217 -1.87472 0
M  V30 5344 C 527.036 2.94018 -3.3802 0
M  V30 5345 C 528.78 3.84804 -1.79237 0
M  V30 5346 C 526.687 4.25844 -4.10379 0
M  V30 5347 H 525.617 0.640067 -0.398536 0
M  V30 5348 H 528.268 1.08092 -1.48285 0
M  V30 5349 H 526.65 3.70628 -1.39466 0
M  V30 5350 H 527.824 2.39632 -3.9359 0
M  V30 5351 H 526.139 2.29898 -3.47183 0
M  V30 5352 H 528.736 4.82417 -2.30603 0
M  V30 5353 H 529.079 4.09356 -0.757197 0
M  V30 5354 H 529.612 3.28115 -2.24912 0
M  V30 5355 H 526.351 4.06486 -5.14246 0
M  V30 5356 H 525.871 4.80054 -3.59594 0
M  V30 5357 H 527.55 4.94475 -4.17257 0
M  V30 5358 N 527.682 1.05563 1.17022 0
M  V30 5359 C 528.612 0.681026 2.23348 0
M  V30 5360 C 529.593 -0.322983 1.67005 0
M  V30 5361 O 530.778 -0.199746 1.9317 0
M  V30 5362 C 527.908 0.0589053 3.4725 0
M  V30 5363 C 526.862 0.988082 4.16438 0
M  V30 5364 C 526.188 0.229646 5.34207 0
M  V30 5365 C 527.488 2.31388 4.68249 0
M  V30 5366 H 529.182 1.56993 2.54938 0
M  V30 5367 H 526.728 0.756302 1.2254 0
M  V30 5368 H 528.681 -0.214982 4.20851 0
M  V30 5369 H 527.405 -0.864968 3.14938 0
M  V30 5370 H 526.064 1.24659 3.44754 0
M  V30 5371 H 525.712 -0.697111 4.98146 0
M  V30 5372 H 525.412 0.848815 5.81437 0
M  V30 5373 H 526.936 -0.0368694 6.10589 0
M  V30 5374 H 528.35 2.09964 5.33468 0
M  V30 5375 H 526.747 2.88736 5.26072 0
M  V30 5376 H 527.817 2.94982 3.84855 0
M  V30 5377 N 529.16 -1.33526 0.837174 0
M  V30 5378 C 530.408 -1.97446 0.431211 0
M  V30 5379 C 530.729 -1.6665 -1.01255 0
M  V30 5380 O 529.999 -0.964559 -1.70508 0
M  V30 5381 H 528.579 -0.73043 0.156463 0
M  V30 5382 H 531.241 -1.62918 1.06976 0
M  V30 5383 H 530.337 -3.07001 0.561877 0
M  V30 5384 N 530.638 -0.59345 -1.46 0
M  V30 5385 C 531.586 0.146268 -2.3214 0
M  V30 5386 C 532.58 0.873743 -1.45128 0
M  V30 5387 O 533.786 0.790912 -1.61693 0
M  V30 5388 H 530.161 0.0660349 -0.749095 0
M  V30 5389 H 532.132 -0.598895 -2.92328 0
M  V30 5390 C 530.881 1.1396 -3.28494 0
M  V30 5391 H 530.204 0.589252 -3.95434 0
M  V30 5392 H 531.644 1.62738 -3.91526 0
M  V30 5393 C 530.103 2.20604 -2.54628 0
M  V30 5394 O 530.633 3.28128 -2.31722 0
M  V30 5395 N 528.839 1.95502 -2.15005 0
M  V30 5396 H 528.386 1.0807 -2.33834 0
M  V30 5397 H 528.344 2.67064 -1.65904 0
M  V30 5398 N 532.116 1.54067 -0.331816 0
M  V30 5399 C 533.046 2.27569 0.522932 0
M  V30 5400 C 534.027 1.28679 1.11247 0
M  V30 5401 O 535.212 1.57504 1.13605 0
M  V30 5402 C 532.342 3.0397 1.67987 0
M  V30 5403 C 531.296 4.10267 1.21924 0
M  V30 5404 C 530.622 4.74555 2.46377 0
M  V30 5405 C 531.922 5.21268 0.32815 0
M  V30 5406 H 533.616 2.99264 -0.0901977 0
M  V30 5407 H 531.162 1.4393 -0.044821 0
M  V30 5408 H 533.115 3.54123 2.28418 0
M  V30 5409 H 531.839 2.29906 2.31971 0
M  V30 5410 H 530.498 3.61009 0.637809 0
M  V30 5411 H 530.146 3.97098 3.08743 0
M  V30 5412 H 529.846 5.46363 2.16243 0
M  V30 5413 H 531.37 5.27487 3.07555 0
M  V30 5414 H 532.784 5.67128 0.838978 0
M  V30 5415 H 531.181 5.99982 0.119228 0
M  V30 5416 H 532.251 4.80673 -0.638839 0
M  V30 5417 N 533.594 0.0601682 1.57485 0
M  V30 5418 C 534.871 -0.651956 1.84415 0
M  V30 5419 C 535.251 -1.88498 0.950361 0
M  V30 5420 O 534.599 -2.28496 0.0136719 0
M  V30 5421 C 534.809 -1.00069 3.34346 0
M  V30 5422 C 536.157 -1.37915 4.01578 0
M  V30 5423 O 537.181 -1.09277 3.39024 0
M  V30 5424 O 536.04 -1.91399 5.11887 0
M  V30 5425 H 533.134 -0.322668 0.761455 0
M  V30 5426 H 535.68 0.0902159 1.6946 0
M  V30 5427 H 534.452 -0.124463 3.91102 0
M  V30 5428 H 534.075 -1.80001 3.54521 0
M  V30 5429 N 535.072 -1.5615 -0.213296 0
M  V30 5430 C 536.319 -1.79546 -0.936462 0
M  V30 5431 C 536.647 -0.630337 -1.84003 0
M  V30 5432 O 535.902 0.384883 -1.91878 0
M  V30 5433 C 536.201 -3.08772 -1.79985 0
M  V30 5434 C 535.867 -4.38532 -1.04882 0
M  V30 5435 C 534.529 -4.73787 -0.841393 0
M  V30 5436 C 536.881 -5.18609 -0.51907 0
M  V30 5437 C 534.209 -5.86627 -0.0924403 0
M  V30 5438 C 536.561 -6.32229 0.216581 0
M  V30 5439 C 535.225 -6.6608 0.435191 0
M  V30 5440 H 534.495 -0.657004 -0.342676 0
M  V30 5441 H 537.142 -1.9041 -0.204051 0
M  V30 5442 H 535.447 -2.93065 -2.60038 0
M  V30 5443 H 537.144 -3.24077 -2.36168 0
M  V30 5444 H 533.734 -4.10855 -1.22048 0
M  V30 5445 H 537.918 -4.91801 -0.666775 0
M  V30 5446 H 533.174 -6.11338 0.087081 0
M  V30 5447 H 537.348 -6.93503 0.634538 0
M  V30 5448 H 534.975 -7.5336 1.01746 0
M  V30 5449 N 536.55 0.480323 -1.50102 0
M  V30 5450 C 537.48 1.58769 -1.71215 0
M  V30 5451 C 538.461 1.60583 -0.560997 0
M  V30 5452 O 539.646 1.76996 -0.799127 0
M  V30 5453 C 536.776 2.97148 -1.79778 0
M  V30 5454 C 535.73 3.10201 -2.94888 0
M  V30 5455 C 535.056 4.50137 -2.88584 0
M  V30 5456 C 536.356 2.88283 -4.35534 0
M  V30 5457 H 538.05 1.41354 -2.6393 0
M  V30 5458 H 535.596 0.678591 -1.27008 0
M  V30 5459 H 537.549 3.74536 -1.93133 0
M  V30 5460 H 536.273 3.15699 -0.836772 0
M  V30 5461 H 534.932 2.35244 -2.81169 0
M  V30 5462 H 534.58 4.65593 -1.90349 0
M  V30 5463 H 534.28 4.59808 -3.65856 0
M  V30 5464 H 535.804 5.29558 -3.03976 0
M  V30 5465 H 537.218 3.55427 -4.49827 0
M  V30 5466 H 535.615 3.09408 -5.14186 0
M  V30 5467 H 536.685 1.84219 -4.48544 0
M  V30 5468 N 538.028 1.39524 0.732853 0
M  V30 5469 C 539.277 1.36175 1.48792 0
M  V30 5470 C 539.59 -0.0388195 1.95561 0
M  V30 5471 O 540.796 -0.194899 2.708 0
M  V30 5472 C 539.252 2.39242 2.68871 0
M  V30 5473 C 538.86 3.85024 2.29042 0
M  V30 5474 C 540.604 2.44972 3.46683 0
M  V30 5475 C 538.511 4.79727 3.45856 0
M  V30 5476 H 537.441 0.506267 0.558757 0
M  V30 5477 H 540.092 1.65181 0.799226 0
M  V30 5478 H 538.474 2.0331 3.39825 0
M  V30 5479 H 539.648 4.30008 1.6562 0
M  V30 5480 H 537.963 3.82609 1.64316 0
M  V30 5481 H 540.56 3.12918 4.33574 0
M  V30 5482 H 540.903 1.4749 3.89297 0
M  V30 5483 H 541.436 2.79808 2.82759 0
M  V30 5484 H 538.175 5.78479 3.08289 0
M  V30 5485 H 537.695 4.39421 4.08251 0
M  V30 5486 H 539.374 4.98731 4.12161 0
M  V30 5487 N 539.506 -0.963266 1.24736 0
M  V30 5488 C 540.734 -1.74166 1.11686 0
M  V30 5489 C 541.149 -1.8589 -0.330187 0
M  V30 5490 O 540.506 -1.35042 -1.2276 0
M  V30 5491 C 540.557 -3.15989 1.75595 0
M  V30 5492 O 540.278 -3.04847 3.14642 0
M  V30 5493 C 541.779 -4.10145 1.68213 0
M  V30 5494 H 538.999 -0.546031 0.389989 0
M  V30 5495 H 541.543 -1.20907 1.64929 0
M  V30 5496 H 539.698 -3.66219 1.26343 0
M  V30 5497 H 540.112 -3.9425 3.4593 0
M  V30 5498 H 541.586 -5.07299 2.17604 0
M  V30 5499 H 542.063 -4.3445 0.644208 0
M  V30 5500 H 542.669 -3.65827 2.16912 0
M  V30 5501 N 540.985 -1.06182 -1.16461 0
M  V30 5502 C 542.233 -0.776326 -1.86595 0
M  V30 5503 C 542.554 0.69921 -1.82033 0
M  V30 5504 O 541.824 1.50579 -1.2531 0
M  V30 5505 H 540.404 -0.284184 -0.690832 0
M  V30 5506 H 543.066 -1.34308 -1.41235 0
M  V30 5507 H 542.162 -1.10022 -2.92064 0
M  V30 5508 N 542.463 1.3308 -0.844243 0
M  V30 5509 C 543.393 2.3161 -0.296493 0
M  V30 5510 C 544.374 1.59215 0.598707 0
M  V30 5511 O 545.559 1.87077 0.521134 0
M  V30 5512 C 542.689 3.43313 0.524762 0
M  V30 5513 C 541.643 4.27115 -0.275106 0
M  V30 5514 C 540.969 5.30483 0.670236 0
M  V30 5515 C 542.269 5.00443 -1.49514 0
M  V30 5516 H 543.963 2.77672 -1.11976 0
M  V30 5517 H 541.509 1.33496 -0.539899 0
M  V30 5518 H 543.462 4.11273 0.918298 0
M  V30 5519 H 542.186 2.95952 1.3813 0
M  V30 5520 H 540.845 3.60787 -0.650267 0
M  V30 5521 H 540.493 4.79379 1.52332 0
M  V30 5522 H 540.193 5.87435 0.139123 0
M  V30 5523 H 541.717 6.01308 1.06117 0
M  V30 5524 H 543.131 5.61141 -1.17447 0
M  V30 5525 H 541.528 5.67071 -1.96343 0
M  V30 5526 H 542.598 4.28906 -2.26202 0
M  V30 5527 N 543.941 0.601185 1.45683 0
M  V30 5528 C 544.889 -0.133955 2.32214 0
M  V30 5529 C 545.883 -0.866034 1.45589 0
M  V30 5530 O 547.089 -0.782326 1.6211 0
M  V30 5531 H 543.464 -0.0620613 0.749435 0
M  V30 5532 H 545.435 0.614389 2.92007 0
M  V30 5533 C 544.184 -1.12216 3.29094 0
M  V30 5534 H 543.507 -0.568273 3.95741 0
M  V30 5535 H 544.947 -1.60659 3.92383 0
M  V30 5536 C 543.406 -2.19251 2.55794 0
M  V30 5537 O 543.936 -3.26894 2.33459 0
M  V30 5538 N 542.142 -1.9436 2.16039 0
M  V30 5539 H 541.689 -1.06829 2.34404 0
M  V30 5540 H 541.647 -2.66181 1.67318 0
M  V30 5541 N 545.419 -1.53889 0.339982 0
M  V30 5542 C 546.667 -2.00458 -0.257112 0
M  V30 5543 C 546.988 -1.22953 -1.51353 0
M  V30 5544 O 546.258 -0.335734 -1.93002 0
M  V30 5545 H 544.838 -0.740544 -0.0979965 0
M  V30 5546 H 547.5 -1.89386 0.460317 0
M  V30 5547 H 546.596 -3.08035 -0.502057 0
M  V30 5548 N 546.897 -0.0685191 -1.57451 0
M  V30 5549 C 548.174 0.642167 -1.84758 0
M  V30 5550 C 548.554 1.87991 -0.960344 0
M  V30 5551 O 547.902 2.28485 -0.0257894 0
M  V30 5552 C 548.112 0.982946 -3.34872 0
M  V30 5553 C 549.46 1.35784 -4.02303 0
M  V30 5554 O 550.484 1.07477 -3.39598 0
M  V30 5555 O 549.343 1.88681 -5.12895 0
M  V30 5556 H 546.437 0.318625 -0.763156 0
M  V30 5557 H 548.983 -0.0992015 -1.6941 0
M  V30 5558 H 547.755 0.10372 -3.91163 0
M  V30 5559 H 547.378 1.78119 -3.55471 0
M  V30 5560 N 548.375 1.56261 0.205012 0
M  V30 5561 C 549.786 1.70056 0.770574 0
M  V30 5562 C 550.137 0.673398 1.84282 0
M  V30 5563 O 549.262 -0.172196 2.15714 0
M  V30 5564 C 549.857 3.08316 1.40451 0
M  V30 5565 C 548.416 3.2391 1.91727 0
M  V30 5566 C 547.563 2.66001 0.783516 0
M  V30 5567 H 550.514 1.58688 -0.019911 0
M  V30 5568 H 550.535 3.05094 2.27371 0
M  V30 5569 H 550.047 3.83053 0.623882 0
M  V30 5570 H 548.148 2.54072 2.7254 0
M  V30 5571 H 548.261 4.3131 2.08588 0
M  V30 5572 H 546.625 2.24915 1.19521 0
M  V30 5573 H 547.408 3.43297 0.0152883 0
M  V30 5574 N 549.853 -0.472356 1.50355 0
M  V30 5575 C 551.099 -1.22348 1.62488 0
M  V30 5576 C 551.454 -1.89711 0.320574 0
M  V30 5577 O 550.747 -1.79074 -0.68141 0
M  V30 5578 C 550.941 -2.29257 2.74182 0
M  V30 5579 C 550.77 -1.72383 4.15348 0
M  V30 5580 C 549.54 -1.52411 4.81766 0
M  V30 5581 C 551.738 -1.21949 4.99633 0
M  V30 5582 N 549.72 -0.907669 6.07153 0
M  V30 5583 C 551.091 -0.726191 6.15732 0
M  V30 5584 C 553.146 -1.10792 4.85417 0
M  V30 5585 C 551.849 -0.132322 7.19178 0
M  V30 5586 C 553.875 -0.52799 5.89038 0
M  V30 5587 C 553.237 -0.0450604 7.04386 0
M  V30 5588 H 549.336 -0.436631 0.648751 0
M  V30 5589 H 551.92 -0.525698 1.87469 0
M  V30 5590 H 550.091 -2.96464 2.50926 0
M  V30 5591 H 551.823 -2.9628 2.75681 0
M  V30 5592 H 548.578 -1.776 4.39039 0
M  V30 5593 H 549.002 -0.617897 6.74174 0
M  V30 5594 H 553.644 -1.46722 3.96525 0
M  V30 5595 H 551.362 0.239187 8.07746 0
M  V30 5596 H 554.948 -0.444046 5.80103 0
M  V30 5597 H 553.828 0.396659 7.83196 0
M  V30 5598 N 551.331 -1.39911 -0.725443 0
M  V30 5599 C 552.281 -1.35878 -1.83088 0
M  V30 5600 C 553.265 -0.237989 -1.5913 0
M  V30 5601 O 554.457 -0.476302 -1.70471 0
M  V30 5602 C 551.586 -1.21403 -3.21117 0
M  V30 5603 C 550.672 -2.38223 -3.50871 0
M  V30 5604 N 551.063 -3.63703 -3.51502 0
M  V30 5605 C 549.361 -2.31388 -3.81281 0
M  V30 5606 C 550.062 -4.4101 -3.79322 0
M  V30 5607 N 549.038 -3.7072 -3.97577 0
M  V30 5608 H 552.84 -2.3085 -1.81895 0
M  V30 5609 H 550.354 -1.33543 -0.924125 0
M  V30 5610 H 552.351 -1.16597 -4.00263 0
M  V30 5611 H 551.011 -0.273902 -3.23543 0
M  V30 5612 H 552.022 -3.96998 -3.32586 0
M  V30 5613 H 548.699 -1.45689 -3.91256 0
M  V30 5614 H 550.089 -5.49819 -3.86198 0
M  V30 5615 N 552.809 0.956637 -1.25245 0
M  V30 5616 C 553.756 2.053 -1.05454 0
M  V30 5617 C 554.726 1.66062 0.0356889 0
M  V30 5618 O 555.911 1.90415 -0.121099 0
M  V30 5619 C 553.051 3.38391 -0.677191 0
M  V30 5620 C 552.164 3.90758 -1.84206 0
M  V30 5621 C 551.299 5.12165 -1.40926 0
M  V30 5622 C 550.338 5.56757 -2.54338 0
M  V30 5623 N 549.475 6.69376 -2.11848 0
M  V30 5624 H 554.315 2.21562 -1.99284 0
M  V30 5625 H 551.852 1.08578 -0.992434 0
M  V30 5626 H 553.81 4.1488 -0.43938 0
M  V30 5627 H 552.44 3.22021 0.224127 0
M  V30 5628 H 551.492 3.10808 -2.19323 0
M  V30 5629 H 552.804 4.19802 -2.69383 0
M  V30 5630 H 551.958 5.96065 -1.13098 0
M  V30 5631 H 550.697 4.84832 -0.528175 0
M  V30 5632 H 549.702 4.71423 -2.82913 0
M  V30 5633 H 550.927 5.861 -3.43022 0
M  V30 5634 H 548.873 6.43756 -1.26153 0
M  V30 5635 H 548.79 6.97927 -2.90574 0
M  V30 5636 H 550.058 7.5669 -1.87191 0
M  V30 5637 N 554.287 1.06798 1.15896 0
M  V30 5638 C 555.536 0.782796 1.8589 0
M  V30 5639 C 555.849 -0.693498 1.82893 0
M  V30 5640 O 557.055 -1.09325 2.48516 0
M  V30 5641 C 555.511 1.3502 3.33613 0
M  V30 5642 C 555.119 2.8571 3.45071 0
M  V30 5643 C 556.863 1.14278 4.08829 0
M  V30 5644 C 554.77 3.35669 4.86909 0
M  V30 5645 H 553.7 0.289149 0.696354 0
M  V30 5646 H 556.351 1.28734 1.30766 0
M  V30 5647 H 554.733 0.773407 3.88374 0
M  V30 5648 H 555.907 3.49385 3.00445 0
M  V30 5649 H 554.222 3.05178 2.83294 0
M  V30 5650 H 556.819 1.49087 5.13495 0
M  V30 5651 H 557.162 0.0814575 4.1622 0
M  V30 5652 H 557.695 1.68563 3.60321 0
M  V30 5653 H 554.434 4.41302 4.84698 0
M  V30 5654 H 553.954 2.76745 5.32139 0
M  V30 5655 H 555.633 3.31296 5.55745 0
M  V30 5656 N 555.766 -1.3263 0.851289 0
M  V30 5657 C 557.177 -1.79653 0.5081 0
M  V30 5658 C 557.528 -1.70327 -0.973815 0
M  V30 5659 O 556.653 -1.25986 -1.75944 0
M  V30 5660 C 557.248 -3.26196 0.915515 0
M  V30 5661 C 555.807 -3.71187 0.624277 0
M  V30 5662 C 554.954 -2.53804 1.11709 0
M  V30 5663 H 557.905 -1.19976 1.03882 0
M  V30 5664 H 557.926 -3.79801 0.230535 0
M  V30 5665 H 557.438 -3.32952 1.99411 0
M  V30 5666 H 555.539 -3.69948 -0.443737 0
M  V30 5667 H 555.652 -4.64132 1.18821 0
M  V30 5668 H 554.016 -2.48964 0.537484 0
M  V30 5669 H 554.799 -2.63315 2.20272 0
M  V30 5670 N 557.244 -0.608902 -1.45362 0
M  V30 5671 C 558.207 0.0992563 -2.28985 0
M  V30 5672 C 559.207 0.793841 -1.39838 0
M  V30 5673 O 560.397 0.641804 -1.61946 0
M  V30 5674 C 557.529 1.15073 -3.20891 0
M  V30 5675 H 558.722 -0.635964 -2.93079 0
M  V30 5676 H 556.275 -0.368007 -1.51906 0
M  V30 5677 H 557.01 1.91667 -2.616 0
M  V30 5678 H 556.795 0.656867 -3.86559 0
M  V30 5679 H 558.285 1.64665 -3.83765 0
M  V30 5680 N 558.722 1.53707 -0.348139 0
M  V30 5681 C 559.652 2.28111 0.498766 0
M  V30 5682 C 560.633 1.29851 1.09876 0
M  V30 5683 O 561.818 1.587 1.11928 0
M  V30 5684 C 558.948 3.05735 1.64753 0
M  V30 5685 C 557.902 4.11537 1.17565 0
M  V30 5686 C 557.228 4.77142 2.4133 0
M  V30 5687 C 558.528 5.21587 0.272844 0
M  V30 5688 H 560.222 2.99152 -0.121934 0
M  V30 5689 H 557.768 1.43875 -0.0600842 0
M  V30 5690 H 559.721 3.56526 2.24649 0
M  V30 5691 H 558.445 2.32354 2.2952 0
M  V30 5692 H 557.104 3.61665 0.599483 0
M  V30 5693 H 556.752 4.0035 3.04514 0
M  V30 5694 H 556.452 5.48626 2.10436 0
M  V30 5695 H 557.976 5.30719 3.01943 0
M  V30 5696 H 559.39 5.67986 0.778779 0
M  V30 5697 H 557.787 6.00074 0.0555849 0
M  V30 5698 H 558.857 4.79969 -0.689785 0
M  V30 5699 N 560.2 0.0768682 1.57412 0
M  V30 5700 C 561.477 -0.632359 1.85096 0
M  V30 5701 C 561.857 -1.87479 0.9703 0
M  V30 5702 O 561.205 -2.28469 0.0379062 0
M  V30 5703 C 561.415 -0.965174 3.35388 0
M  V30 5704 C 562.763 -1.33648 4.03018 0
M  V30 5705 O 563.787 -1.05675 3.40164 0
M  V30 5706 O 562.646 -1.85959 5.13889 0
M  V30 5707 H 559.74 -0.314574 0.764835 0
M  V30 5708 H 562.286 0.108184 1.69355 0
M  V30 5709 H 561.058 -0.0829745 3.91212 0
M  V30 5710 H 560.681 -1.76231 3.5641 0
M  V30 5711 N 561.678 -1.56367 -0.196722 0
M  V30 5712 C 563.089 -1.70462 -0.761545 0
M  V30 5713 C 563.44 -0.683161 -1.83922 0
M  V30 5714 O 562.565 0.160753 -2.15802 0
M  V30 5715 C 563.16 -3.09057 -1.38814 0
M  V30 5716 C 561.719 -3.24922 -1.90007 0
M  V30 5717 C 560.866 -2.66412 -0.769399 0
M  V30 5718 H 563.817 -1.58675 0.0283263 0
M  V30 5719 H 563.838 -3.06296 -2.2575 0
M  V30 5720 H 563.35 -3.83378 -0.603559 0
M  V30 5721 H 561.451 -2.55514 -2.71189 0
M  V30 5722 H 561.564 -4.3241 -2.06297 0
M  V30 5723 H 559.928 -2.25546 -1.18326 0
M  V30 5724 H 560.711 -3.433 0.00291773 0
M  V30 5725 N 563.156 0.464375 -1.50603 0
M  V30 5726 C 564.066 1.58723 -1.72754 0
M  V30 5727 C 565.082 1.62925 -0.610844 0
M  V30 5728 O 566.258 1.8067 -0.889963 0
M  V30 5729 C 563.323 2.94897 -1.82309 0
M  V30 5730 C 562.384 3.0103 -3.06071 0
M  V30 5731 C 561.617 4.30708 -3.1516 0
M  V30 5732 O 561.84 5.2159 -2.30868 0
M  V30 5733 O 560.774 4.42571 -4.0794 0
M  V30 5734 H 564.6 1.42954 -2.67951 0
M  V30 5735 H 562.185 0.644579 -1.3478 0
M  V30 5736 H 564.067 3.75764 -1.90735 0
M  V30 5737 H 562.742 3.10851 -0.902967 0
M  V30 5738 H 561.649 2.19217 -3.03142 0
M  V30 5739 H 562.982 2.90014 -3.97684 0
M  V30 5740 N 564.634 1.40294 0.718013 0
M  V30 5741 C 565.581 1.40367 1.8321 0
M  V30 5742 C 566.551 0.260952 1.64037 0
M  V30 5743 O 567.736 0.458648 1.85205 0
M  V30 5744 C 564.876 1.26965 3.20895 0
M  V30 5745 C 563.989 2.50922 3.51656 0
M  V30 5746 C 563.124 2.29981 4.78834 0
M  V30 5747 C 562.163 3.49527 5.02491 0
M  V30 5748 N 561.3 3.27796 6.20882 0
M  V30 5749 H 566.14 2.35593 1.82482 0
M  V30 5750 H 563.677 1.17012 0.891444 0
M  V30 5751 H 565.635 1.17202 4.00399 0
M  V30 5752 H 564.265 0.353591 3.20858 0
M  V30 5753 H 563.317 2.71223 2.66725 0
M  V30 5754 H 564.629 3.39913 3.65048 0
M  V30 5755 H 563.783 2.17558 5.66351 0
M  V30 5756 H 562.522 1.38411 4.67647 0
M  V30 5757 H 561.527 3.6243 4.1343 0
M  V30 5758 H 562.752 4.42021 5.15553 0
M  V30 5759 H 560.698 2.38906 6.1095 0
M  V30 5760 H 560.615 4.10351 6.34939 0
M  V30 5761 H 561.883 3.19101 7.11193 0
M  V30 5762 N 566.112 -0.949982 1.2575 0
M  V30 5763 C 567.042 -2.06483 1.09028 0
M  V30 5764 C 568.023 -1.701 -0.00201532 0
M  V30 5765 O 569.208 -1.93469 0.168383 0
M  V30 5766 C 566.338 -3.39899 0.71316 0
M  V30 5767 C 565.292 -3.90309 1.75621 0
M  V30 5768 C 564.618 -5.20274 1.23365 0
M  V30 5769 C 565.918 -4.16169 3.15596 0
M  V30 5770 H 567.612 -2.20731 2.02283 0
M  V30 5771 H 565.158 -1.06066 0.973964 0
M  V30 5772 H 567.111 -4.17346 0.58309 0
M  V30 5773 H 565.835 -3.25602 -0.255091 0
M  V30 5774 H 564.494 -3.15035 1.8748 0
M  V30 5775 H 564.142 -5.02351 0.255491 0
M  V30 5776 H 563.842 -5.54971 1.93082 0
M  V30 5777 H 565.366 -6.00314 1.11607 0
M  V30 5778 H 566.78 -4.84259 3.06864 0
M  V30 5779 H 565.177 -4.62131 3.82825 0
M  V30 5780 H 566.247 -3.22273 3.6231 0
M  V30 5781 N 567.59 -1.07411 -1.15328 0
M  V30 5782 C 568.538 -0.689316 -2.22151 0
M  V30 5783 C 569.532 0.300156 -1.6672 0
M  V30 5784 O 570.738 0.163804 -1.79253 0
M  V30 5785 H 567.113 -0.204834 -0.723566 0
M  V30 5786 H 569.084 -1.59988 -2.51886 0
M  V30 5787 C 567.833 -0.103848 -3.47545 0
M  V30 5788 H 567.156 -0.856367 -3.90521 0
M  V30 5789 H 568.596 0.127725 -4.23808 0
M  V30 5790 C 567.055 1.15563 -3.1646 0
M  V30 5791 O 567.585 2.242 -3.33312 0
M  V30 5792 N 565.791 1.06203 -2.70498 0
M  V30 5793 H 565.338 0.177933 -2.56985 0
M  V30 5794 H 565.296 1.90553 -2.50074 0
M  V30 5795 N 569.068 1.32177 -0.85831 0
M  V30 5796 C 570.314 1.97417 -0.46417 0
M  V30 5797 C 570.647 1.67746 0.978514 0
M  V30 5798 O 569.922 0.967654 1.68721 0
M  V30 5799 C 570.205 3.53069 -0.708094 0
M  V30 5800 C 570.058 3.92357 -2.19946 0
M  V30 5801 C 571.377 4.39783 -0.166881 0
M  V30 5802 H 568.496 0.717097 -0.17012 0
M  V30 5803 H 571.138 1.56499 -1.07741 0
M  V30 5804 H 569.288 3.88054 -0.186128 0
M  V30 5805 H 570.96 3.67533 -2.78779 0
M  V30 5806 H 569.203 3.41384 -2.67656 0
M  V30 5807 H 569.874 5.00841 -2.32082 0
M  V30 5808 H 572.35 4.11556 -0.613285 0
M  V30 5809 H 571.226 5.47671 -0.367093 0
M  V30 5810 H 571.487 4.32196 0.930559 0
M  V30 5811 N 570.547 0.616602 1.45037 0
M  V30 5812 C 571.794 0.115331 2.02171 0
M  V30 5813 C 572.122 -1.25748 1.48383 0
M  V30 5814 O 571.377 -1.84511 0.652229 0
M  V30 5815 C 571.676 0.0356829 3.57382 0
M  V30 5816 C 571.342 1.34535 4.30362 0
M  V30 5817 C 570.004 1.70408 4.50016 0
M  V30 5818 C 572.356 2.21049 4.72003 0
M  V30 5819 C 569.684 2.92529 5.0857 0
M  V30 5820 C 572.036 3.42427 5.31908 0
M  V30 5821 C 570.7 3.78541 5.49784 0
M  V30 5822 H 569.97 0.0422024 0.739797 0
M  V30 5823 H 572.617 0.80002 1.73988 0
M  V30 5824 H 570.922 -0.732314 3.84895 0
M  V30 5825 H 572.619 -0.368463 3.99304 0
M  V30 5826 H 569.209 1.05615 4.15383 0
M  V30 5827 H 573.393 1.94632 4.56544 0
M  V30 5828 H 568.649 3.20605 5.20598 0
M  V30 5829 H 572.823 4.09709 5.63127 0
M  V30 5830 H 570.45 4.73255 5.94923 0
M  V30 5831 N 572.025 -1.5352 0.356285 0
M  V30 5832 C 573.441 -1.59599 0.00485267 0
M  V30 5833 C 573.641 -1.37179 -1.47595 0
M  V30 5834 O 572.697 -1.17234 -2.23635 0
M  V30 5835 C 574.01 -2.97277 0.452454 0
M  V30 5836 C 575.558 -3.10357 0.405881 0
M  V30 5837 C 576.033 -4.50432 0.829148 0
M  V30 5838 N 577.524 -4.5652 0.783838 0
M  V30 5839 C 578.259 -5.63077 1.08315 0
M  V30 5840 N 577.755 -6.77429 1.45126 0
M  V30 5841 N 579.548 -5.53014 1.00655 0
M  V30 5842 H 571.699 -1.66346 1.32071 0
M  V30 5843 H 573.962 -0.77971 0.539218 0
M  V30 5844 H 573.668 -3.18792 1.48542 0
M  V30 5845 H 573.542 -3.76836 -0.165762 0
M  V30 5846 H 575.929 -2.88558 -0.617934 0
M  V30 5847 H 576.01 -2.32828 1.05947 0
M  V30 5848 H 575.654 -4.72968 1.85103 0
M  V30 5849 H 575.584 -5.26378 0.152906 0
M  V30 5850 H 578.075 -3.74408 0.512513 0
M  V30 5851 H 578.388 -7.54669 1.66415 0
M  V30 5852 H 576.733 -6.78844 1.48983 0
M  V30 5853 H 579.924 -4.62557 0.718215 0
M  V30 5854 H 580.097 -6.35964 1.24315 0
M  V30 5855 N 573.503 -0.0852151 -1.57369 0
M  V30 5856 C 574.731 0.58946 -1.98325 0
M  V30 5857 C 575.146 1.62333 -0.96403 0
M  V30 5858 O 574.503 1.82438 0.0476395 0
M  V30 5859 C 574.554 1.24604 -3.39347 0
M  V30 5860 O 574.275 0.253532 -4.37366 0
M  V30 5861 C 575.776 2.00726 -3.95252 0
M  V30 5862 H 572.996 0.158783 -0.651942 0
M  V30 5863 H 575.54 -0.161584 -2.03861 0
M  V30 5864 H 573.695 1.94808 -3.34856 0
M  V30 5865 H 574.109 0.726207 -5.19448 0
M  V30 5866 H 575.583 2.42039 -4.96106 0
M  V30 5867 H 576.06 2.86919 -3.32527 0
M  V30 5868 H 576.666 1.3536 -4.03185 0
M  V30 5869 N 574.981 1.5647 0.188427 0
M  V30 5870 C 576.227 1.81281 0.909124 0
M  V30 5871 C 576.56 0.66034 1.82628 0
M  V30 5872 O 575.835 -0.338737 1.91528 0
M  V30 5873 C 576.118 3.16388 1.7196 0
M  V30 5874 C 575.971 4.42137 0.826714 0
M  V30 5875 C 577.29 3.48256 2.69083 0
M  V30 5876 H 574.409 0.659457 0.329068 0
M  V30 5877 H 577.051 1.89182 0.176156 0
M  V30 5878 H 575.201 3.09784 2.34448 0
M  V30 5879 H 576.873 4.60794 0.216025 0
M  V30 5880 H 575.116 4.33594 0.133792 0
M  V30 5881 H 575.787 5.33184 1.42893 0
M  V30 5882 H 578.263 3.55203 2.16726 0
M  V30 5883 H 577.139 4.43899 3.2287 0
M  V30 5884 H 577.4 2.72088 3.48455 0
M  V30 5885 N 576.459 -0.456382 1.50847 0
M  V30 5886 C 577.875 -0.791345 1.386 0
M  V30 5887 C 578.075 -1.9633 0.453498 0
M  V30 5888 O 577.131 -2.52308 -0.0984353 0
M  V30 5889 C 578.444 -1.08959 2.80265 0
M  V30 5890 C 579.992 -1.19517 2.89283 0
M  V30 5891 C 580.467 -1.52647 4.31814 0
M  V30 5892 N 581.958 -1.59609 4.34832 0
M  V30 5893 C 582.693 -1.86777 5.42127 0
M  V30 5894 N 582.189 -2.11866 6.59609 0
M  V30 5895 N 583.982 -1.88402 5.29586 0
M  V30 5896 H 576.133 0.315746 2.1004 0
M  V30 5897 H 578.396 0.0787916 0.94472 0
M  V30 5898 H 578.102 -0.301355 3.50407 0
M  V30 5899 H 577.976 -2.02211 3.18419 0
M  V30 5900 H 580.363 -1.97406 2.19351 0
M  V30 5901 H 580.444 -0.242111 2.54652 0
M  V30 5902 H 580.088 -0.752922 5.02288 0
M  V30 5903 H 580.018 -2.49127 4.63943 0
M  V30 5904 H 582.509 -1.42201 3.50125 0
M  V30 5905 H 582.822 -2.31912 7.37182 0
M  V30 5906 H 581.167 -2.09228 6.62758 0
M  V30 5907 H 584.358 -1.68307 4.36795 0
M  V30 5908 H 584.531 -2.09238 6.13289 0
M  V30 5909 N 577.937 -1.40673 -0.710563 0
M  V30 5910 C 578.847 -1.43663 -1.85467 0
M  V30 5911 C 579.863 -0.328721 -1.70867 0
M  V30 5912 O 581.039 -0.574098 -1.93044 0
M  V30 5913 C 578.104 -1.30226 -3.21313 0
M  V30 5914 C 577.165 -2.51204 -3.48131 0
M  V30 5915 C 576.398 -2.38398 -4.77495 0
M  V30 5916 O 576.621 -1.40048 -5.5294 0
M  V30 5917 O 575.555 -3.2787 -5.04762 0
M  V30 5918 H 579.381 -2.40156 -1.859 0
M  V30 5919 H 576.966 -1.22049 -0.861652 0
M  V30 5920 H 578.848 -1.2496 -4.02446 0
M  V30 5921 H 577.523 -0.368419 -3.21597 0
M  V30 5922 H 576.43 -2.62048 -2.66987 0
M  V30 5923 H 577.763 -3.43366 -3.52648 0
M  V30 5924 N 579.415 0.9433 -1.26252 0
M  V30 5925 C 580.664 1.68369 -1.11062 0
M  V30 5926 C 580.977 1.92514 0.346104 0
M  V30 5927 O 582.183 2.64358 0.618646 0
M  V30 5928 C 580.639 3.03171 -1.93946 0
M  V30 5929 C 580.247 2.86782 -3.4418 0
M  V30 5930 C 581.991 3.80916 -1.87359 0
M  V30 5931 C 579.898 4.17044 -4.19319 0
M  V30 5932 H 578.828 0.631469 -0.412023 0
M  V30 5933 H 581.479 1.04922 -1.50544 0
M  V30 5934 H 579.861 3.67587 -1.47296 0
M  V30 5935 H 581.035 2.31229 -3.98585 0
M  V30 5936 H 579.35 2.22482 -3.51981 0
M  V30 5937 H 581.947 4.77417 -2.40784 0
M  V30 5938 H 582.29 4.07658 -0.843857 0
M  V30 5939 H 582.823 3.2327 -2.31821 0
M  V30 5940 H 579.562 3.95487 -5.22753 0
M  V30 5941 H 579.082 4.72319 -3.69696 0
M  V30 5942 H 580.761 4.85513 -4.27651 0
M  V30 5943 N 580.893 1.08022 1.14757 0
M  V30 5944 C 582.121 0.828847 1.89572 0
M  V30 5945 C 582.536 -0.618621 1.78377 0
M  V30 5946 O 581.893 -1.42482 1.1404 0
M  V30 5947 C 581.944 1.23677 3.39685 0
M  V30 5948 O 581.665 2.62746 3.50566 0
M  V30 5949 C 583.166 1.01569 4.31507 0
M  V30 5950 H 580.386 0.299196 0.600602 0
M  V30 5951 H 582.93 1.43846 1.45357 0
M  V30 5952 H 581.085 0.671347 3.81539 0
M  V30 5953 H 581.499 2.79573 4.43778 0
M  V30 5954 H 582.973 1.35055 5.35223 0
M  V30 5955 H 583.45 -0.0475433 4.39174 0
M  V30 5956 H 584.056 1.56636 3.95405 0
M  V30 5957 N 582.371 -1.3172 0.865308 0
M  V30 5958 C 583.619 -1.96487 0.472995 0
M  V30 5959 C 583.94 -1.68761 -0.976975 0
M  V30 5960 O 583.21 -1.00051 -1.68424 0
M  V30 5961 H 581.79 -0.726947 0.171922 0
M  V30 5962 H 584.452 -1.60612 1.10407 0
M  V30 5963 H 583.548 -3.0574 0.62687 0
M  V30 5964 N 583.85 -0.624285 -1.44708 0
M  V30 5965 C 585.08 -0.132726 -2.06173 0
M  V30 5966 C 585.488 1.19513 -1.46674 0
M  V30 5967 O 584.831 1.74254 -0.581491 0
M  V30 5968 C 584.893 0.0636732 -3.59444 0
M  V30 5969 C 584.557 -1.18496 -4.4137 0
M  V30 5970 C 585.553 -2.10706 -4.75288 0
M  V30 5971 C 583.239 -1.41846 -4.81856 0
M  V30 5972 C 585.233 -3.24582 -5.48567 0
M  V30 5973 C 582.92 -2.5602 -5.54885 0
M  V30 5974 C 583.918 -3.47215 -5.88159 0
M  V30 5975 O 583.606 -4.59399 -6.59703 0
M  V30 5976 H 583.338 -0.0737313 -0.671967 0
M  V30 5977 H 585.892 -0.856789 -1.86677 0
M  V30 5978 H 584.122 0.842809 -3.77404 0
M  V30 5979 H 585.811 0.508924 -4.02697 0
M  V30 5980 H 586.577 -1.93898 -4.44554 0
M  V30 5981 H 582.456 -0.717556 -4.55381 0
M  V30 5982 H 586 -3.95785 -5.74456 0
M  V30 5983 H 581.897 -2.72774 -5.85034 0
M  V30 5984 H 582.665 -4.58293 -6.78166 0
M  V30 5985 N 585.328 1.53329 -0.364422 0
M  V30 5986 C 586.258 2.28627 0.474543 0
M  V30 5987 C 587.239 1.31009 1.08492 0
M  V30 5988 O 588.424 1.59878 1.10239 0
M  V30 5989 C 585.554 3.07465 1.61501 0
M  V30 5990 C 584.508 4.1276 1.13194 0
M  V30 5991 C 583.834 4.79674 2.36255 0
M  V30 5992 C 585.134 5.21847 0.217507 0
M  V30 5993 H 586.828 2.99005 -0.153656 0
M  V30 5994 H 584.374 1.43803 -0.0753406 0
M  V30 5995 H 586.327 3.58889 2.20855 0
M  V30 5996 H 585.051 2.34775 2.27042 0
M  V30 5997 H 583.71 3.62281 0.56109 0
M  V30 5998 H 583.358 4.03557 3.00251 0
M  V30 5999 H 583.058 5.50827 2.04606 0
M  V30 6000 H 584.582 5.33892 2.96297 0
M  V30 6001 H 585.996 5.6878 0.718493 0
M  V30 6002 H 584.393 6.00099 -0.00806408 0
M  V30 6003 H 585.463 4.7921 -0.740653 0
M  V30 6004 N 586.806 0.0935595 1.57322 0
M  V30 6005 C 587.754 -0.883457 2.15169 0
M  V30 6006 C 588.748 -1.29324 1.09415 0
M  V30 6007 O 589.954 -1.26795 1.27762 0
M  V30 6008 H 586.329 -0.302923 0.688289 0
M  V30 6009 H 588.3 -0.370845 2.96087 0
M  V30 6010 C 587.049 -2.13345 2.74552 0
M  V30 6011 H 586.372 -1.82702 3.55612 0
M  V30 6012 H 587.812 -2.7977 3.18598 0
M  V30 6013 C 586.271 -2.90646 1.70371 0
M  V30 6014 O 586.801 -3.85133 1.14173 0
M  V30 6015 N 585.007 -2.54157 1.40899 0
M  V30 6016 H 584.554 -1.77391 1.86789 0
M  V30 6017 H 584.512 -3.06178 0.714301 0
M  V30 6018 N 588.284 -1.56567 -0.180126 0
M  V30 6019 C 589.533 -1.80685 -0.896426 0
M  V30 6020 C 589.846 -0.669335 -1.83791 0
M  V30 6021 O 591.052 -0.795209 -2.59593 0
M  V30 6022 C 589.508 -3.20132 -1.6445 0
M  V30 6023 C 589.116 -4.41727 -0.747088 0
M  V30 6024 C 590.86 -3.53549 -2.34955 0
M  V30 6025 C 588.767 -5.72195 -1.49489 0
M  V30 6026 H 587.697 -0.673758 -0.338477 0
M  V30 6027 H 590.348 -1.8289 -0.149467 0
M  V30 6028 H 588.73 -3.12218 -2.43589 0
M  V30 6029 H 589.904 -4.608 0.00671129 0
M  V30 6030 H 588.219 -4.16122 -0.152134 0
M  V30 6031 H 590.816 -4.48267 -2.91481 0
M  V30 6032 H 591.159 -2.78006 -3.09868 0
M  V30 6033 H 591.692 -3.62976 -1.62768 0
M  V30 6034 H 588.431 -6.50743 -0.788251 0
M  V30 6035 H 587.951 -5.57115 -2.22224 0
M  V30 6036 H 589.63 -6.1384 -2.04472 0
M  V30 6037 N 589.762 0.448376 -1.51087 0
M  V30 6038 C 590.694 1.56146 -1.67783 0
M  V30 6039 C 591.707 1.52913 -0.55871 0
M  V30 6040 O 592.896 1.57889 -0.83267 0
M  V30 6041 C 589.996 2.95057 -1.66716 0
M  V30 6042 C 589.169 3.22915 -2.95033 0
M  V30 6043 C 588.228 4.41495 -2.86302 0
M  V30 6044 O 587.254 4.40688 -3.60254 0
M  V30 6045 N 588.456 5.44443 -2.014 0
M  V30 6046 H 591.221 1.42232 -2.638 0
M  V30 6047 H 588.782 0.637153 -1.48835 0
M  V30 6048 H 590.774 3.72388 -1.58458 0
M  V30 6049 H 589.344 3.02624 -0.783403 0
M  V30 6050 H 588.564 2.33985 -3.17245 0
M  V30 6051 H 589.852 3.38349 -3.79996 0
M  V30 6052 H 589.25 5.4793 -1.40674 0
M  V30 6053 H 587.807 6.2067 -1.99029 0
M  V30 6054 N 591.24 1.41047 0.703093 0
M  V30 6055 C 592.465 1.43537 1.49706 0
M  V30 6056 C 592.89 0.0401853 1.88057 0
M  V30 6057 O 592.248 -0.954785 1.54122 0
M  V30 6058 C 592.296 2.3433 2.74084 0
M  V30 6059 O 591.4 1.79515 3.71279 0
M  V30 6060 H 590.741 0.487454 0.450871 0
M  V30 6061 H 593.271 1.85422 0.86486 0
M  V30 6062 H 593.281 2.49947 3.22476 0
M  V30 6063 H 591.956 3.35708 2.45506 0
M  V30 6064 H 590.533 1.7331 3.30179 0
M  V30 6065 N 592.718 -0.936591 1.26751 0
M  V30 6066 C 593.964 -1.68625 1.13741 0
M  V30 6067 C 594.319 -1.898 -0.315221 0
M  V30 6068 O 593.612 -1.47088 -1.22783 0
M  V30 6069 C 593.806 -3.06099 1.84494 0
M  V30 6070 C 593.635 -2.98338 3.36488 0
M  V30 6071 C 592.405 -3.01104 4.05789 0
M  V30 6072 C 594.603 -2.78128 4.32608 0
M  V30 6073 N 592.585 -2.8369 5.4442 0
M  V30 6074 C 593.956 -2.69329 5.58446 0
M  V30 6075 C 596.011 -2.62946 4.22804 0
M  V30 6076 C 594.714 -2.46899 6.75598 0
M  V30 6077 C 596.74 -2.41892 5.39669 0
M  V30 6078 C 596.102 -2.33829 6.64457 0
M  V30 6079 H 592.201 -0.624227 0.471025 0
M  V30 6080 H 594.785 -1.10798 1.601 0
M  V30 6081 H 592.956 -3.62057 1.40604 0
M  V30 6082 H 594.688 -3.69951 1.64067 0
M  V30 6083 H 591.443 -3.10992 3.57185 0
M  V30 6084 H 591.867 -2.78138 6.17226 0
M  V30 6085 H 596.509 -2.67944 3.27056 0
M  V30 6086 H 594.227 -2.40642 7.71438 0
M  V30 6087 H 597.813 -2.31043 5.33957 0
M  V30 6088 H 596.693 -2.17754 7.53361 0
M  V30 6089 N 594.196 -1.08629 -1.14182 0
M  V30 6090 C 595.607 -0.838003 -1.66836 0
M  V30 6091 C 595.958 0.634885 -1.85644 0
M  V30 6092 O 595.083 1.49008 -1.56926 0
M  V30 6093 C 595.678 -1.51465 -3.03058 0
M  V30 6094 C 594.237 -1.31355 -3.52736 0
M  V30 6095 C 593.384 -1.57599 -2.28162 0
M  V30 6096 H 596.335 -1.24656 -0.982165 0
M  V30 6097 H 596.356 -0.943134 -3.68626 0
M  V30 6098 H 595.868 -2.58661 -2.89337 0
M  V30 6099 H 593.969 -0.262384 -3.71675 0
M  V30 6100 H 594.082 -2.04275 -4.33369 0
M  V30 6101 H 592.446 -0.997659 -2.34348 0
M  V30 6102 H 593.229 -2.66006 -2.17015 0
M  V30 6103 N 595.674 1.31259 -0.872281 0
M  V30 6104 C 597.085 1.78822 -0.536617 0
M  V30 6105 C 597.436 1.71855 0.946594 0
M  V30 6106 O 596.561 1.28769 1.73918 0
M  V30 6107 C 597.156 3.24698 -0.967294 0
M  V30 6108 C 595.715 3.70147 -0.683251 0
M  V30 6109 C 594.862 2.51994 -1.15733 0
M  V30 6110 H 597.813 1.18308 -1.05777 0
M  V30 6111 H 597.834 3.79386 -0.290929 0
M  V30 6112 H 597.346 3.29737 -2.04683 0
M  V30 6113 H 595.447 3.70607 0.384825 0
M  V30 6114 H 595.56 4.62183 -1.2619 0
M  V30 6115 H 593.924 2.48078 -0.577024 0
M  V30 6116 H 594.707 2.59778 -2.24434 0
M  V30 6117 N 597.152 0.631951 1.44375 0
M  V30 6118 C 598.102 -0.0943862 2.27805 0
M  V30 6119 C 599.086 -0.815359 1.38711 0
M  V30 6120 O 600.278 -0.701331 1.62513 0
M  V30 6121 C 597.407 -1.07472 3.26044 0
M  V30 6122 C 596.493 -0.353329 4.22626 0
M  V30 6123 N 596.884 0.618512 5.02004 0
M  V30 6124 C 595.182 -0.597662 4.41977 0
M  V30 6125 C 595.883 1.0448 5.7224 0
M  V30 6126 N 594.859 0.383413 5.42246 0
M  V30 6127 H 598.661 0.651672 2.86584 0
M  V30 6128 H 596.175 0.45752 1.55822 0
M  V30 6129 H 598.172 -1.60969 3.84571 0
M  V30 6130 H 596.832 -1.82107 2.68825 0
M  V30 6131 H 597.843 0.996356 5.08226 0
M  V30 6132 H 594.52 -1.32682 3.95856 0
M  V30 6133 H 595.91 1.84773 6.45994 0
M  V30 6134 N 598.631 -1.53133 0.372548 0
M  V30 6135 C 599.564 -2.22328 -0.514361 0
M  V30 6136 C 600.542 -1.21776 -1.07747 0
M  V30 6137 O 601.726 -1.50704 -1.13228 0
M  V30 6138 C 598.853 -2.92343 -1.71035 0
M  V30 6139 C 597.899 -4.07026 -1.27405 0
M  V30 6140 S 598.732 -5.34821 -0.269526 0
M  V30 6141 C 599.888 -6.08352 -1.47168 0
M  V30 6142 H 600.121 -2.9721 0.0732683 0
M  V30 6143 H 597.654 -1.53603 0.156673 0
M  V30 6144 H 599.612 -3.33296 -2.39634 0
M  V30 6145 H 598.273 -2.17173 -2.26925 0
M  V30 6146 H 597.466 -4.55056 -2.16656 0
M  V30 6147 H 597.068 -3.68001 -0.66719 0
M  V30 6148 H 599.36 -6.33507 -2.40157 0
M  V30 6149 H 600.303 -7.0053 -1.03263 0
M  V30 6150 H 600.711 -5.38893 -1.6809 0
M  V30 6151 N 600.109 -0.101901 -1.5727 0
M  V30 6152 C 601.059 0.865346 -2.1094 0
M  V30 6153 C 602.043 1.2394 -1.02605 0
M  V30 6154 O 603.235 1.21334 -1.28868 0
M  V30 6155 C 600.364 2.12187 -2.69874 0
M  V30 6156 C 599.45 1.77295 -3.85263 0
M  V30 6157 N 599.841 1.12993 -4.93017 0
M  V30 6158 C 598.139 2.06862 -3.95126 0
M  V30 6159 C 598.84 0.968631 -5.73579 0
M  V30 6160 N 597.816 1.48814 -5.22834 0
M  V30 6161 H 601.618 0.364368 -2.91633 0
M  V30 6162 H 599.132 0.101104 -1.62085 0
M  V30 6163 H 601.129 2.82431 -3.06657 0
M  V30 6164 H 599.789 2.62844 -1.90639 0
M  V30 6165 H 600.8 0.795935 -5.11747 0
M  V30 6166 H 597.477 2.59686 -3.26909 0
M  V30 6167 H 598.867 0.465231 -6.70287 0
M  V30 6168 N 601.587 1.56661 0.17182 0
M  V30 6169 C 602.535 1.97289 1.23207 0
M  V30 6170 C 603.529 0.861566 1.45854 0
M  V30 6171 O 604.735 1.04668 1.4644 0
M  V30 6172 H 601.11 0.627681 0.41415 0
M  V30 6173 H 603.081 2.85662 0.862542 0
M  V30 6174 C 601.83 2.34849 2.564 0
M  V30 6175 H 601.153 3.19903 2.39797 0
M  V30 6176 H 602.593 2.67121 3.29276 0
M  V30 6177 C 601.052 1.19172 3.15119 0
M  V30 6178 O 601.582 0.479113 3.98833 0
M  V30 6179 N 599.788 0.962415 2.74201 0
M  V30 6180 H 599.335 1.54365 2.06226 0
M  V30 6181 H 599.293 0.190272 3.13824 0
M  V30 6182 N 603.065 -0.440357 1.51323 0
M  V30 6183 C 604.312 -1.19004 1.63842 0
M  V30 6184 C 604.64 -1.91266 0.35321 0
M  V30 6185 O 603.895 -1.84143 -0.662565 0
M  V30 6186 C 604.194 -2.2339 2.78984 0
M  V30 6187 C 603.86 -1.68162 4.18369 0
M  V30 6188 C 602.522 -1.52823 4.56288 0
M  V30 6189 C 604.874 -1.27524 5.05358 0
M  V30 6190 C 602.202 -0.953157 5.78906 0
M  V30 6191 C 604.554 -0.714474 6.28552 0
M  V30 6192 C 603.218 -0.547961 6.65247 0
M  V30 6193 H 602.488 -0.435468 0.59954 0
M  V30 6194 H 605.135 -0.481538 1.85347 0
M  V30 6195 H 603.44 -3.00267 2.51688 0
M  V30 6196 H 605.137 -2.81211 2.85869 0
M  V30 6197 H 601.727 -1.81077 3.8847 0
M  V30 6198 H 605.911 -1.38197 4.76671 0
M  V30 6199 H 601.167 -0.811882 6.05986 0
M  V30 6200 H 605.341 -0.391059 6.95301 0
M  V30 6201 H 602.968 -0.100222 7.60134 0
M  V30 6202 N 604.543 -1.41418 -0.695603 0
M  V30 6203 C 605.768 -1.44329 -1.48942 0
M  V30 6204 C 606.193 -0.0501579 -1.88033 0
M  V30 6205 O 605.551 0.946598 -1.54626 0
M  V30 6206 C 605.599 -2.3578 -2.72837 0
M  V30 6207 O 604.703 -1.81482 -3.70322 0
M  V30 6208 H 604.044 -0.489838 -0.44828 0
M  V30 6209 H 606.574 -1.85878 -0.855014 0
M  V30 6210 H 606.584 -2.51654 -3.21145 0
M  V30 6211 H 605.259 -3.37005 -2.43722 0
M  V30 6212 H 603.836 -1.75058 -3.29255 0
M  V30 6213 N 606.021 0.929856 -1.27246 0
M  V30 6214 C 607.267 1.6798 -1.13625 0
M  V30 6215 C 607.6 1.91586 0.317589 0
M  V30 6216 O 606.875 1.50467 1.23247 0
M  V30 6217 C 607.158 3.04766 -1.91806 0
M  V30 6218 C 607.011 2.88415 -3.45162 0
M  V30 6219 C 608.33 4.05063 -1.72082 0
M  V30 6220 H 605.449 0.609632 -0.414147 0
M  V30 6221 H 608.091 1.0792 -1.56376 0
M  V30 6222 H 606.241 3.56034 -1.55474 0
M  V30 6223 H 607.913 2.44282 -3.91311 0
M  V30 6224 H 606.156 2.23802 -3.71611 0
M  V30 6225 H 606.827 3.85482 -3.95105 0
M  V30 6226 H 609.303 3.62798 -2.03757 0
M  V30 6227 H 608.179 4.98765 -2.29182 0
M  V30 6228 H 608.44 4.37021 -0.668206 0
M  V30 6229 N 607.499 1.09233 1.13605 0
M  V30 6230 C 608.746 0.827159 1.84836 0
M  V30 6231 C 609.074 -0.647199 1.83416 0
M  V30 6232 O 608.329 -1.49228 1.26608 0
M  V30 6233 C 608.628 1.305 3.32723 0
M  V30 6234 C 608.294 2.78864 3.54325 0
M  V30 6235 C 606.956 3.19382 3.59928 0
M  V30 6236 C 609.308 3.74532 3.62457 0
M  V30 6237 C 606.636 4.54346 3.71196 0
M  V30 6238 C 608.988 5.09283 3.75252 0
M  V30 6239 C 607.652 5.49394 3.79108 0
M  V30 6240 H 606.922 0.302679 0.676363 0
M  V30 6241 H 609.569 1.36676 1.34134 0
M  V30 6242 H 607.874 0.68517 3.85762 0
M  V30 6243 H 609.571 1.07648 3.86281 0
M  V30 6244 H 606.161 2.46507 3.50617 0
M  V30 6245 H 610.345 3.44343 3.57409 0
M  V30 6246 H 605.601 4.84864 3.72447 0
M  V30 6247 H 609.775 5.83269 3.80487 0
M  V30 6248 H 607.402 6.5397 3.87591 0
M  V30 6249 N 608.977 -1.30795 0.87923 0
M  V30 6250 C 610.202 -2.01063 0.508769 0
M  V30 6251 C 610.627 -1.65508 -0.893803 0
M  V30 6252 O 609.985 -0.868616 -1.59138 0
M  V30 6253 C 610.033 -3.54054 0.683991 0
M  V30 6254 O 609.137 -4.11498 -0.272654 0
M  V30 6255 H 608.478 -0.632786 0.201191 0
M  V30 6256 H 611.008 -1.66776 1.18519 0
M  V30 6257 H 611.018 -4.03845 0.580798 0
M  V30 6258 H 609.693 -3.79271 1.70665 0
M  V30 6259 H 608.27 -3.72695 -0.12364 0
M  V30 6260 N 610.455 -0.639598 -1.44038 0
M  V30 6261 C 611.403 0.0723409 -2.32487 0
M  V30 6262 C 612.397 0.827129 -1.47834 0
M  V30 6263 O 613.603 0.73907 -1.64127 0
M  V30 6264 H 609.978 0.0421696 -0.750817 0
M  V30 6265 H 611.949 -0.691593 -2.90275 0
M  V30 6266 C 610.698 1.03452 -3.31953 0
M  V30 6267 H 610.021 0.46315 -3.97108 0
M  V30 6268 H 611.461 1.502 -3.96505 0
M  V30 6269 C 609.92 2.12392 -2.61518 0
M  V30 6270 O 610.45 3.2059 -2.42044 0
M  V30 6271 N 608.656 1.88563 -2.21116 0
M  V30 6272 H 608.203 1.00577 -2.37154 0
M  V30 6273 H 608.161 2.61651 -1.74316 0
M  V30 6274 N 611.933 1.52934 -0.380664 0
M  V30 6275 C 612.863 2.29118 0.450268 0
M  V30 6276 C 613.844 1.32153 1.07096 0
M  V30 6277 O 615.029 1.61038 1.08537 0
M  V30 6278 C 612.159 3.09161 1.58231 0
M  V30 6279 C 611.113 4.13938 1.0881 0
M  V30 6280 C 610.439 4.82153 2.31155 0
M  V30 6281 C 611.739 5.22048 0.162146 0
M  V30 6282 H 613.433 2.98826 -0.185361 0
M  V30 6283 H 610.979 1.43715 -0.0905886 0
M  V30 6284 H 612.932 3.61211 2.17036 0
M  V30 6285 H 611.656 2.3717 2.2454 0
M  V30 6286 H 610.315 3.62855 0.522633 0
M  V30 6287 H 609.963 4.06719 2.95953 0
M  V30 6288 H 609.663 5.52966 1.98752 0
M  V30 6289 H 611.187 5.37004 2.90618 0
M  V30 6290 H 612.601 5.6951 0.658126 0
M  V30 6291 H 610.998 6.00057 -0.0717122 0
M  V30 6292 H 612.068 4.78398 -0.791438 0
M  V30 6293 N 613.412 0.11024 1.57214 0
M  V30 6294 C 614.64 -0.557834 1.99238 0
M  V30 6295 C 615.055 -1.60778 0.989734 0
M  V30 6296 O 614.412 -1.82491 -0.0186092 0
M  V30 6297 C 614.463 -1.19189 3.41286 0
M  V30 6298 O 614.184 -0.183919 4.37714 0
M  V30 6299 C 615.685 -1.94413 3.98395 0
M  V30 6300 H 612.905 -0.148392 0.654386 0
M  V30 6301 H 615.449 0.193996 2.03578 0
M  V30 6302 H 613.604 -1.89456 3.37913 0
M  V30 6303 H 614.018 -0.643475 5.20538 0
M  V30 6304 H 615.492 -2.34116 4.99894 0
M  V30 6305 H 615.969 -2.81592 3.3705 0
M  V30 6306 H 616.575 -1.28928 4.05287 0
M  V30 6307 N 614.89 -1.56749 -0.16351 0
M  V30 6308 C 616.118 -1.86577 -0.894233 0
M  V30 6309 C 616.533 -0.696543 -1.75481 0
M  V30 6310 O 615.89 0.334161 -1.79415 0
M  V30 6311 C 615.941 -3.15508 -1.76456 0
M  V30 6312 O 615.662 -4.27926 -0.938685 0
M  V30 6313 C 617.163 -3.58737 -2.60428 0
M  V30 6314 H 614.383 -0.618829 -0.259405 0
M  V30 6315 H 616.927 -2.03863 -0.161259 0
M  V30 6316 H 615.082 -3.00025 -2.45079 0
M  V30 6317 H 615.496 -5.01546 -1.53465 0
M  V30 6318 H 616.97 -4.51832 -3.17099 0
M  V30 6319 H 617.447 -2.83229 -3.35675 0
M  V30 6320 H 618.053 -3.76858 -1.97125 0
M  V30 6321 N 616.368 0.432326 -1.51554 0
M  V30 6322 C 617.617 1.17831 -1.63703 0
M  V30 6323 C 617.93 1.92229 -0.36156 0
M  V30 6324 O 619.136 2.69069 -0.362495 0
M  V30 6325 C 617.592 2.14318 -2.89129 0
M  V30 6326 C 617.2 1.45544 -4.23699 0
M  V30 6327 C 618.944 2.89319 -3.10636 0
M  V30 6328 C 616.851 2.40545 -5.4027 0
M  V30 6329 H 615.781 0.443533 -0.60975 0
M  V30 6330 H 618.432 0.444878 -1.78026 0
M  V30 6331 H 616.814 2.91117 -2.68452 0
M  V30 6332 H 617.988 0.742693 -4.54775 0
M  V30 6333 H 616.303 0.826772 -4.0811 0
M  V30 6334 H 618.9 3.60495 -3.94902 0
M  V30 6335 H 619.243 3.50951 -2.23918 0
M  V30 6336 H 619.776 2.19625 -3.31677 0
M  V30 6337 H 616.515 1.83594 -6.29264 0
M  V30 6338 H 616.035 3.09859 -5.13563 0
M  V30 6339 H 617.714 3.01569 -5.72421 0
M  V30 6340 N 617.846 1.41785 0.688094 0
M  V30 6341 C 619.094 1.41264 1.4453 0
M  V30 6342 C 619.415 0.0252946 1.94984 0
M  V30 6343 O 618.685 -0.934081 1.72197 0
M  V30 6344 H 617.265 0.519998 0.536294 0
M  V30 6345 H 619.927 1.7709 0.813941 0
M  V30 6346 H 619.023 2.10439 2.30482 0
M  V30 6347 N 619.324 -0.923095 1.27737 0
M  V30 6348 C 620.572 -1.66797 1.14119 0
M  V30 6349 C 620.893 -1.92479 -0.312541 0
M  V30 6350 O 620.163 -1.53432 -1.218 0
M  V30 6351 H 618.743 -0.618196 0.419336 0
M  V30 6352 H 621.405 -1.10815 1.60331 0
M  V30 6353 H 620.501 -2.63424 1.67374 0
M  V30 6354 N 620.802 -1.09834 -1.13024 0
M  V30 6355 C 622.218 -0.828875 -1.36388 0
M  V30 6356 C 622.418 0.554756 -1.93713 0
M  V30 6357 O 621.474 1.30882 -2.15931 0
M  V30 6358 C 622.787 -1.92352 -2.3113 0
M  V30 6359 C 624.335 -1.95124 -2.44735 0
M  V30 6360 C 624.81 -3.03745 -3.42787 0
M  V30 6361 N 626.301 -3.03012 -3.5034 0
M  V30 6362 C 627.036 -3.83699 -4.26101 0
M  V30 6363 N 626.532 -4.74306 -5.04981 0
M  V30 6364 N 628.325 -3.71942 -4.21445 0
M  V30 6365 H 620.476 -1.99029 -0.74169 0
M  V30 6366 H 622.739 -0.864557 -0.388903 0
M  V30 6367 H 622.445 -2.91906 -1.96172 0
M  V30 6368 H 622.319 -1.80536 -3.3119 0
M  V30 6369 H 624.706 -0.962069 -2.78977 0
M  V30 6370 H 624.787 -2.11018 -1.44586 0
M  V30 6371 H 624.431 -4.02878 -3.09276 0
M  V30 6372 H 624.361 -2.85094 -4.42752 0
M  V30 6373 H 626.852 -2.37352 -2.94062 0
M  V30 6374 H 627.165 -5.32446 -5.60108 0
M  V30 6375 H 625.51 -4.78339 -5.04199 0
M  V30 6376 H 628.701 -3.00513 -3.589 0
M  V30 6377 H 628.874 -4.35062 -4.80235 0
M  V30 6378 N 622.28 1.30327 -0.886154 0
M  V30 6379 C 623.505 2.0079 -0.519425 0
M  V30 6380 C 623.93 1.65979 0.885013 0
M  V30 6381 O 623.288 0.877043 1.58675 0
M  V30 6382 C 623.336 3.53686 -0.702758 0
M  V30 6383 O 622.44 4.11637 0.250828 0
M  V30 6384 H 621.781 0.63171 -0.204544 0
M  V30 6385 H 624.311 1.66145 -1.19402 0
M  V30 6386 H 624.321 4.03531 -0.602207 0
M  V30 6387 H 622.996 3.78361 -1.72673 0
M  V30 6388 H 621.573 3.72755 0.103873 0
M  V30 6389 N 623.758 0.647228 1.43697 0
M  V30 6390 C 624.688 -0.0345631 2.33474 0
M  V30 6391 C 625.669 -0.818193 1.4913 0
M  V30 6392 O 626.854 -0.780867 1.77809 0
M  V30 6393 C 623.984 -1.00576 3.32418 0
M  V30 6394 C 622.938 -0.33266 4.26705 0
M  V30 6395 C 622.264 -1.41489 5.1564 0
M  V30 6396 C 623.564 0.771204 5.16575 0
M  V30 6397 H 625.258 0.715163 2.90733 0
M  V30 6398 H 622.804 0.345364 1.39797 0
M  V30 6399 H 624.757 -1.49159 3.94119 0
M  V30 6400 H 623.481 -1.78657 2.73403 0
M  V30 6401 H 622.14 0.13267 3.6636 0
M  V30 6402 H 621.788 -2.18698 4.52968 0
M  V30 6403 H 621.488 -0.969799 5.79542 0
M  V30 6404 H 623.012 -1.9022 5.80214 0
M  V30 6405 H 624.426 0.36779 5.72119 0
M  V30 6406 H 622.823 1.1404 5.89165 0
M  V30 6407 H 623.893 1.63169 4.56622 0
M  V30 6408 N 625.236 -1.5273 0.388769 0
M  V30 6409 C 626.466 -2.05693 -0.193397 0
M  V30 6410 C 626.874 -1.26038 -1.41107 0
M  V30 6411 O 626.217 -0.30001 -1.81234 0
M  V30 6412 C 626.279 -3.53962 -0.628561 0
M  V30 6413 C 625.943 -4.54519 0.475576 0
M  V30 6414 C 626.94 -5.02526 1.33281 0
M  V30 6415 C 624.625 -4.98174 0.642453 0
M  V30 6416 C 626.619 -5.92812 2.34205 0
M  V30 6417 C 624.306 -5.88262 1.65503 0
M  V30 6418 C 625.304 -6.35473 2.50325 0
M  V30 6419 O 624.992 -7.23781 3.49852 0
M  V30 6420 H 624.724 -0.675197 -0.0329395 0
M  V30 6421 H 627.278 -1.97835 0.552326 0
M  V30 6422 H 625.508 -3.59437 -1.42625 0
M  V30 6423 H 627.197 -3.89669 -1.13633 0
M  V30 6424 H 627.963 -4.6953 1.21519 0
M  V30 6425 H 623.842 -4.60999 -0.00805093 0
M  V30 6426 H 627.386 -6.29585 3.00447 0
M  V30 6427 H 623.283 -6.20672 1.77304 0
M  V30 6428 H 624.051 -7.4184 3.45855 0
M  V30 6429 N 626.714 -0.118576 -1.57153 0
M  V30 6430 C 627.662 0.849114 -2.16547 0
M  V30 6431 C 628.656 1.27567 -1.11458 0
M  V30 6432 O 629.862 1.24746 -1.29763 0
M  V30 6433 H 626.237 0.291935 -0.693021 0
M  V30 6434 H 628.208 0.323693 -2.96639 0
M  V30 6435 C 626.957 2.08951 -2.77912 0
M  V30 6436 H 626.28 1.77021 -3.58474 0
M  V30 6437 H 627.72 2.74666 -3.23008 0
M  V30 6438 C 626.179 2.87899 -1.74974 0
M  V30 6439 O 626.709 3.83268 -1.20285 0
M  V30 6440 N 624.915 2.51884 -1.44924 0
M  V30 6441 H 624.462 1.74397 -1.89587 0
M  V30 6442 H 624.42 3.05003 -0.762921 0
M  V30 6443 N 628.193 1.56834 0.155195 0
M  V30 6444 C 629.609 1.51315 0.50755 0
M  V30 6445 C 629.809 0.825614 1.83809 0
M  V30 6446 O 628.865 0.39271 2.49427 0
M  V30 6447 C 630.178 2.96074 0.52542 0
M  V30 6448 C 631.726 3.06968 0.611505 0
M  V30 6449 C 632.201 4.53218 0.660115 0
M  V30 6450 N 633.692 4.5753 0.722564 0
M  V30 6451 C 634.427 5.68056 0.781023 0
M  V30 6452 N 633.923 6.88173 0.799327 0
M  V30 6453 N 635.716 5.56068 0.821278 0
M  V30 6454 H 627.867 1.9993 -0.717063 0
M  V30 6455 H 630.13 0.911507 -0.260496 0
M  V30 6456 H 629.836 3.49599 -0.383875 0
M  V30 6457 H 629.71 3.51587 1.36624 0
M  V30 6458 H 632.097 2.53468 1.51122 0
M  V30 6459 H 632.178 2.54513 -0.256306 0
M  V30 6460 H 631.822 5.07354 -0.23541 0
M  V30 6461 H 631.752 5.03447 1.5443 0
M  V30 6462 H 634.243 3.71054 0.716049 0
M  V30 6463 H 634.556 7.6816 0.845553 0
M  V30 6464 H 632.901 6.90751 0.767337 0
M  V30 6465 H 636.092 4.61142 0.804091 0
M  V30 6466 H 636.265 6.42223 0.863372 0
M  V30 6467 N 629.671 -0.424282 1.51781 0
M  V30 6468 C 630.919 -1.17028 1.64769 0
M  V30 6469 C 631.24 -1.91409 0.372523 0
M  V30 6470 O 630.51 -1.86091 -0.612108 0
M  V30 6471 H 629.09 -0.434992 0.607282 0
M  V30 6472 H 631.752 -0.485169 1.88765 0
M  V30 6473 H 630.848 -1.8927 2.4816 0
M  V30 6474 N 631.149 -1.42148 -0.680565 0
M  V30 6475 C 632.396 -1.4231 -1.44063 0
M  V30 6476 C 632.724 -0.037488 -1.94464 0
M  V30 6477 O 631.979 0.953184 -1.70918 0
M  V30 6478 C 632.278 -2.38945 -2.65782 0
M  V30 6479 C 631.944 -3.85455 -2.33956 0
M  V30 6480 C 630.606 -4.25364 -2.24987 0
M  V30 6481 C 632.958 -4.77895 -2.08004 0
M  V30 6482 C 630.286 -5.55701 -1.88184 0
M  V30 6483 C 632.638 -6.08568 -1.72706 0
M  V30 6484 C 631.302 -6.47482 -1.62244 0
M  V30 6485 H 630.572 -0.520748 -0.527164 0
M  V30 6486 H 633.219 -1.7505 -0.776524 0
M  V30 6487 H 631.524 -1.99511 -3.37198 0
M  V30 6488 H 633.221 -2.36336 -3.23954 0
M  V30 6489 H 629.811 -3.53855 -2.41836 0
M  V30 6490 H 633.995 -4.47854 -2.1387 0
M  V30 6491 H 629.251 -5.84718 -1.78648 0
M  V30 6492 H 633.425 -6.79688 -1.5165 0
M  V30 6493 H 631.052 -7.48387 -1.33496 0
M  V30 6494 N 632.627 0.916307 -1.28225 0
M  V30 6495 C 633.852 1.7043 -1.18188 0
M  V30 6496 C 634.277 1.86346 0.256274 0
M  V30 6497 O 633.635 1.37175 1.18544 0
M  V30 6498 C 633.683 3.07546 -1.88275 0
M  V30 6499 O 632.787 3.94904 -1.18848 0
M  V30 6500 H 632.128 0.521967 -0.410423 0
M  V30 6501 H 634.658 1.14589 -1.69501 0
M  V30 6502 H 634.668 3.57793 -1.96082 0
M  V30 6503 H 633.343 2.95279 -2.92887 0
M  V30 6504 H 631.92 3.53339 -1.19187 0
M  V30 6505 N 634.105 1.10431 1.1244 0
M  V30 6506 C 635.035 0.775143 2.20258 0
M  V30 6507 C 636.016 -0.25186 1.68225 0
M  V30 6508 O 637.201 -0.117637 1.93843 0
M  V30 6509 C 634.331 0.206133 3.46688 0
M  V30 6510 C 633.285 1.16382 4.11873 0
M  V30 6511 C 632.611 0.456014 5.32752 0
M  V30 6512 C 633.911 2.5104 4.58013 0
M  V30 6513 H 635.605 1.67665 2.4805 0
M  V30 6514 H 633.151 0.807595 1.19222 0
M  V30 6515 H 635.104 -0.036291 4.21384 0
M  V30 6516 H 633.828 -0.730614 3.18323 0
M  V30 6517 H 632.487 1.39169 3.39157 0
M  V30 6518 H 632.135 -0.485203 5.00654 0
M  V30 6519 H 631.835 1.09466 5.77314 0
M  V30 6520 H 633.359 0.222135 6.10196 0
M  V30 6521 H 634.773 2.32401 5.24083 0
M  V30 6522 H 633.17 3.10789 5.13352 0
M  V30 6523 H 634.24 3.11039 3.71998 0
M  V30 6524 N 635.583 -1.29855 0.893053 0
M  V30 6525 C 636.513 -2.3035 0.382249 0
M  V30 6526 C 637.494 -1.61328 -0.539203 0
M  V30 6527 O 638.679 -1.88882 -0.451342 0
M  V30 6528 C 635.809 -3.45024 -0.396983 0
M  V30 6529 C 634.763 -4.258 0.433437 0
M  V30 6530 C 634.089 -5.32605 -0.472889 0
M  V30 6531 C 635.389 -4.94549 1.67984 0
M  V30 6532 H 637.083 -2.73325 1.22205 0
M  V30 6533 H 634.629 -1.314 0.589073 0
M  V30 6534 H 636.582 -4.14398 -0.765024 0
M  V30 6535 H 635.306 -3.00875 -1.2705 0
M  V30 6536 H 633.965 -3.58125 0.783723 0
M  V30 6537 H 633.613 -4.84702 -1.34435 0
M  V30 6538 H 633.313 -5.87547 0.0789958 0
M  V30 6539 H 634.837 -6.04832 -0.837269 0
M  V30 6540 H 636.251 -5.56395 1.38192 0
M  V30 6541 H 634.648 -5.59393 2.17254 0
M  V30 6542 H 635.718 -4.20215 2.41965 0
M  V30 6543 N 637.061 -0.65484 -1.43351 0
M  V30 6544 C 638.31 -0.166215 -2.01014 0
M  V30 6545 C 638.623 1.22764 -1.52278 0
M  V30 6546 O 639.829 1.81156 -2.02224 0
M  V30 6547 C 638.285 -0.246341 -3.59056 0
M  V30 6548 C 637.893 -1.64299 -4.16785 0
M  V30 6549 C 639.637 0.184597 -4.24098 0
M  V30 6550 C 637.544 -1.67695 -5.67126 0
M  V30 6551 H 636.474 -0.0583769 -0.751737 0
M  V30 6552 H 639.125 -0.817111 -1.64303 0
M  V30 6553 H 637.507 0.472092 -3.93176 0
M  V30 6554 H 638.681 -2.3869 -3.94162 0
M  V30 6555 H 636.996 -2.02004 -3.6412 0
M  V30 6556 H 639.593 0.179088 -5.344 0
M  V30 6557 H 639.936 1.21632 -3.98135 0
M  V30 6558 H 640.469 -0.482141 -3.94867 0
M  V30 6559 H 637.208 -2.68783 -5.9786 0
M  V30 6560 H 636.728 -0.976313 -5.91801 0
M  V30 6561 H 638.407 -1.42142 -6.31193 0
M  V30 6562 N 638.539 1.52521 -0.396863 0
M  V30 6563 C 639.472 2.23118 0.478926 0
M  V30 6564 C 640.45 1.23475 1.05796 0
M  V30 6565 O 641.634 1.52486 1.10817 0
M  V30 6566 C 638.761 2.95028 1.66362 0
M  V30 6567 C 637.807 4.09002 1.20913 0
M  V30 6568 S 638.64 5.35182 0.184407 0
M  V30 6569 C 639.796 6.10616 1.37471 0
M  V30 6570 H 640.029 2.97056 -0.120542 0
M  V30 6571 H 637.562 1.53334 -0.18109 0
M  V30 6572 H 639.52 3.37066 2.34301 0
M  V30 6573 H 638.181 2.20756 2.23441 0
M  V30 6574 H 637.374 4.58445 2.09389 0
M  V30 6575 H 636.976 3.69016 0.608559 0
M  V30 6576 H 639.268 6.37247 2.30048 0
M  V30 6577 H 640.211 7.02084 0.921051 0
M  V30 6578 H 640.619 5.41499 1.59495 0
M  V30 6579 N 640.017 0.126909 1.57088 0
M  V30 6580 C 640.964 -0.82036 2.15728 0
M  V30 6581 C 641.934 -1.25811 1.08447 0
M  V30 6582 O 643.119 -1.33422 1.36393 0
M  V30 6583 C 640.259 -2.06199 2.76724 0
M  V30 6584 C 639.372 -1.67188 3.98337 0
M  V30 6585 C 638.507 -2.86378 4.47393 0
M  V30 6586 C 637.546 -2.43644 5.61519 0
M  V30 6587 N 636.683 -3.55775 6.05284 0
M  V30 6588 H 641.523 -0.313472 2.96347 0
M  V30 6589 H 639.06 -0.14303 1.46403 0
M  V30 6590 H 641.018 -2.78959 3.10222 0
M  V30 6591 H 639.648 -2.54333 1.98782 0
M  V30 6592 H 638.7 -0.842714 3.70948 0
M  V30 6593 H 640.012 -1.31789 4.81075 0
M  V30 6594 H 639.166 -3.67353 4.82842 0
M  V30 6595 H 637.905 -3.25009 3.63621 0
M  V30 6596 H 636.91 -1.61104 5.25667 0
M  V30 6597 H 638.135 -2.06122 6.47063 0
M  V30 6598 H 636.081 -3.94065 5.24451 0
M  V30 6599 H 635.998 -3.24325 6.82898 0
M  V30 6600 H 637.266 -4.37166 6.45373 0
M  V30 6601 N 641.495 -1.56914 -0.146875 0
M  V30 6602 C 642.443 -1.99224 -1.20053 0
M  V30 6603 C 643.437 -0.884661 -1.44465 0
M  V30 6604 O 644.643 -1.06984 -1.44756 0
M  V30 6605 H 641.018 -0.634191 -0.404112 0
M  V30 6606 H 642.989 -2.86998 -0.816987 0
M  V30 6607 C 641.738 -2.38899 -2.52632 0
M  V30 6608 H 641.061 -3.23677 -2.34677 0
M  V30 6609 H 642.501 -2.72326 -3.24984 0
M  V30 6610 C 640.96 -1.2417 -3.13183 0
M  V30 6611 O 641.49 -0.542503 -3.9802 0
M  V30 6612 N 639.696 -1.00592 -2.72635 0
M  V30 6613 H 639.243 -1.57627 -2.03744 0
M  V30 6614 H 639.201 -0.240174 -3.13481 0
M  V30 6615 N 642.974 0.416227 -1.52004 0
M  V30 6616 C 643.904 1.51365 -1.77795 0
M  V30 6617 C 644.885 1.58059 -0.628601 0
M  V30 6618 O 646.07 1.73447 -0.873478 0
M  V30 6619 C 643.2 2.89256 -1.92219 0
M  V30 6620 C 642.154 2.97415 -3.0778 0
M  V30 6621 C 641.48 4.37492 -3.07417 0
M  V30 6622 C 642.78 2.69551 -4.47369 0
M  V30 6623 H 644.474 1.30033 -2.69688 0
M  V30 6624 H 642.02 0.624112 -1.29772 0
M  V30 6625 H 643.973 3.66008 -2.08845 0
M  V30 6626 H 642.697 3.11866 -0.969917 0
M  V30 6627 H 641.356 2.23107 -2.90893 0
M  V30 6628 H 641.004 4.571 -2.09925 0
M  V30 6629 H 640.704 4.43877 -3.85029 0
M  V30 6630 H 642.228 5.16188 -3.26162 0
M  V30 6631 H 643.642 3.36028 -4.64497 0
M  V30 6632 H 642.039 2.87321 -5.26846 0
M  V30 6633 H 643.109 1.65029 -4.55953 0
M  V30 6634 N 644.452 1.42507 0.673017 0
M  V30 6635 C 645.4 1.46362 1.80779 0
M  V30 6636 C 646.394 0.339166 1.6597 0
M  V30 6637 O 647.6 0.512262 1.72557 0
M  V30 6638 H 643.975 0.458433 0.596107 0
M  V30 6639 H 645.946 2.41953 1.74646 0
M  V30 6640 C 644.695 1.38462 3.18941 0
M  V30 6641 H 644.018 2.24283 3.30964 0
M  V30 6642 H 645.458 1.45221 3.98355 0
M  V30 6643 C 643.917 0.0996354 3.36753 0
M  V30 6644 O 644.447 -0.846894 3.92671 0
M  V30 6645 N 642.653 0.016211 2.90595 0
M  V30 6646 H 642.2 0.78725 2.45276 0
M  V30 6647 H 642.158 -0.84291 3.0289 0
M  V30 6648 N 645.93 -0.909495 1.28709 0
M  V30 6649 C 647.176 -1.66151 1.16283 0
M  V30 6650 C 647.509 -1.92067 -0.287069 0
M  V30 6651 O 646.784 -1.52409 -1.20837 0
M  V30 6652 C 647.067 -3.01676 1.9663 0
M  V30 6653 C 646.92 -2.82888 3.49707 0
M  V30 6654 C 648.239 -4.02274 1.78504 0
M  V30 6655 H 645.358 -0.602966 0.423793 0
M  V30 6656 H 648 -1.05418 1.58073 0
M  V30 6657 H 646.15 -3.53515 1.61119 0
M  V30 6658 H 647.822 -2.38026 3.95147 0
M  V30 6659 H 646.065 -2.17862 3.75125 0
M  V30 6660 H 646.736 -3.79147 4.01187 0
M  V30 6661 H 649.212 -3.59511 2.09503 0
M  V30 6662 H 648.088 -4.95056 2.37088 0
M  V30 6663 H 648.349 -4.35903 0.737647 0
M  V30 6664 N 647.408 -1.11026 -1.11852 0
M  V30 6665 C 648.636 -0.878818 -1.87308 0
M  V30 6666 C 649.051 0.57111 -1.79955 0
M  V30 6667 O 648.408 1.39409 -1.17777 0
M  V30 6668 C 648.459 -1.3264 -3.36287 0
M  V30 6669 O 648.18 -2.71948 -3.43476 0
M  V30 6670 C 649.681 -1.12974 -4.28663 0
M  V30 6671 H 646.901 -0.315015 -0.592458 0
M  V30 6672 H 649.445 -1.47649 -1.41492 0
M  V30 6673 H 647.6 -0.772269 -3.79625 0
M  V30 6674 H 648.014 -2.91241 -4.3621 0
M  V30 6675 H 649.488 -1.49198 -5.31454 0
M  V30 6676 H 649.965 -0.0689127 -4.39146 0
M  V30 6677 H 650.571 -1.67064 -3.91113 0
M  V30 6678 N 648.886 1.2938 -0.899927 0
M  V30 6679 C 650.111 2.00228 -0.540692 0
M  V30 6680 C 650.536 1.66909 0.867359 0
M  V30 6681 O 649.894 0.893824 1.57735 0
M  V30 6682 C 649.942 3.52921 -0.740232 0
M  V30 6683 O 649.046 4.11879 0.207154 0
M  V30 6684 H 648.387 0.629505 -0.211233 0
M  V30 6685 H 650.917 1.6487 -1.21158 0
M  V30 6686 H 650.927 4.0287 -0.644973 0
M  V30 6687 H 649.602 3.76508 -1.76677 0
M  V30 6688 H 648.179 3.72845 0.0643315 0
M  V30 6689 N 650.364 0.662433 1.43002 0
M  V30 6690 C 651.294 -0.00979809 2.33498 0
M  V30 6691 C 652.275 -0.802329 1.49989 0
M  V30 6692 O 653.46 -0.761964 1.78627 0
M  V30 6693 C 650.59 -0.970446 3.33466 0
M  V30 6694 C 649.544 -0.287383 4.27034 0
M  V30 6695 C 648.87 -1.36012 5.17112 0
M  V30 6696 C 650.17 0.82595 5.15728 0
M  V30 6697 H 651.864 0.745959 2.89958 0
M  V30 6698 H 649.41 0.360172 1.39423 0
M  V30 6699 H 651.363 -1.44971 3.95679 0
M  V30 6700 H 650.087 -1.75748 2.75282 0
M  V30 6701 H 648.746 0.17152 3.66199 0
M  V30 6702 H 648.394 -2.13882 4.55262 0
M  V30 6703 H 648.094 -0.908276 5.80538 0
M  V30 6704 H 649.618 -1.84056 5.82199 0
M  V30 6705 H 651.032 0.42845 5.71697 0
M  V30 6706 H 649.429 1.20282 5.87922 0
M  V30 6707 H 650.499 1.68003 4.54866 0
M  V30 6708 N 651.842 -1.52309 0.404946 0
M  V30 6709 C 653.09 -2.01368 -0.17186 0
M  V30 6710 C 653.411 -1.29261 -1.46002 0
M  V30 6711 O 652.681 -0.41729 -1.91404 0
M  V30 6712 H 651.261 -0.744034 -0.0664993 0
M  V30 6713 H 653.923 -1.87263 0.540228 0
M  V30 6714 H 653.019 -3.09888 -0.370957 0
M  V30 6715 N 653.32 -0.135238 -1.57019 0
M  V30 6716 C 654.567 0.518794 -1.95742 0
M  V30 6717 C 654.895 1.65642 -1.01947 0
M  V30 6718 O 654.15 1.95645 -0.0464016 0
M  V30 6719 C 654.449 1.07694 -3.40788 0
M  V30 6720 C 654.115 0.058992 -4.50861 0
M  V30 6721 C 652.777 -0.220872 -4.80693 0
M  V30 6722 C 655.129 -0.633856 -5.17331 0
M  V30 6723 C 652.457 -1.19959 -5.74305 0
M  V30 6724 C 654.809 -1.60131 -6.11997 0
M  V30 6725 C 653.473 -1.889 -6.40213 0
M  V30 6726 H 652.743 0.18984 -0.716269 0
M  V30 6727 H 655.39 -0.219581 -1.90237 0
M  V30 6728 H 653.695 1.89241 -3.43067 0
M  V30 6729 H 655.392 1.59137 -3.68071 0
M  V30 6730 H 651.982 0.287304 -4.27636 0
M  V30 6731 H 656.166 -0.430823 -4.94427 0
M  V30 6732 H 651.422 -1.42905 -5.94465 0
M  V30 6733 H 655.596 -2.14376 -6.62583 0
M  V30 6734 H 653.223 -2.64891 -7.12556 0
M  V30 6735 N 654.798 1.5699 0.138552 0
M  V30 6736 C 656.214 1.51844 0.491472 0
M  V30 6737 C 656.414 0.845063 1.82923 0
M  V30 6738 O 655.47 0.419143 2.48997 0
M  V30 6739 C 656.783 2.96615 0.493987 0
M  V30 6740 C 658.331 3.076 0.578913 0
M  V30 6741 C 658.806 4.53893 0.612009 0
M  V30 6742 N 660.297 4.5827 0.673997 0
M  V30 6743 C 661.032 5.68852 0.720729 0
M  V30 6744 N 660.528 6.88982 0.726292 0
M  V30 6745 N 662.321 5.56908 0.762253 0
M  V30 6746 H 654.472 1.99158 -0.738228 0
M  V30 6747 H 656.735 0.908693 -0.270149 0
M  V30 6748 H 656.441 3.49172 -0.420933 0
M  V30 6749 H 656.315 3.53017 1.32887 0
M  V30 6750 H 658.702 2.55057 1.48425 0
M  V30 6751 H 658.783 2.54227 -0.283286 0
M  V30 6752 H 658.427 5.07076 -0.289208 0
M  V30 6753 H 658.357 5.05057 1.49082 0
M  V30 6754 H 660.848 3.71793 0.676654 0
M  V30 6755 H 661.161 7.69014 0.764032 0
M  V30 6756 H 659.506 6.91526 0.69403 0
M  V30 6757 H 662.697 4.61969 0.755135 0
M  V30 6758 H 662.87 6.43102 0.795207 0
M  V30 6759 N 656.276 -0.40816 1.52223 0
M  V30 6760 C 657.501 -1.18127 1.70472 0
M  V30 6761 C 657.926 -1.83491 0.41384 0
M  V30 6762 O 657.284 -1.70047 -0.628778 0
M  V30 6763 C 657.332 -2.21935 2.84213 0
M  V30 6764 O 656.436 -3.28099 2.4985 0
M  V30 6765 H 655.777 -0.344781 0.56747 0
M  V30 6766 H 658.307 -0.478328 1.9893 0
M  V30 6767 H 658.317 -2.66248 3.09153 0
M  V30 6768 H 656.992 -1.73744 3.7787 0
M  V30 6769 H 655.569 -2.89058 2.35584 0
M  V30 6770 N 657.755 -1.42862 -0.66545 0
M  V30 6771 C 658.685 -1.49867 -1.79059 0
M  V30 6772 C 659.666 -0.354394 -1.66367 0
M  V30 6773 O 660.851 -0.569969 -1.85647 0
M  V30 6774 C 657.981 -1.40943 -3.17415 0
M  V30 6775 C 656.935 -2.53495 -3.44854 0
M  V30 6776 C 656.261 -2.29626 -4.82883 0
M  V30 6777 C 657.561 -3.95781 -3.40815 0
M  V30 6778 H 659.255 -2.44037 -1.73453 0
M  V30 6779 H 656.801 -1.17456 -0.833071 0
M  V30 6780 H 658.754 -1.4445 -3.95869 0
M  V30 6781 H 657.478 -0.432716 -3.23721 0
M  V30 6782 H 656.137 -2.4932 -2.68766 0
M  V30 6783 H 655.785 -1.30226 -4.8585 0
M  V30 6784 H 655.485 -3.05065 -5.02204 0
M  V30 6785 H 657.009 -2.34897 -5.63609 0
M  V30 6786 H 658.423 -4.01508 -4.09224 0
M  V30 6787 H 656.82 -4.71148 -3.71672 0
M  V30 6788 H 657.89 -4.21786 -2.39216 0
M  V30 6789 N 659.233 0.902656 -1.29189 0
M  V30 6790 C 660.18 2.00643 -1.14066 0
M  V30 6791 C 661.15 1.66064 -0.0347756 0
M  V30 6792 O 662.335 1.8973 -0.201752 0
M  V30 6793 C 659.475 3.35214 -0.820104 0
M  V30 6794 C 658.588 3.82594 -2.00614 0
M  V30 6795 C 657.723 5.05727 -1.62522 0
M  V30 6796 C 656.762 5.45469 -2.77724 0
M  V30 6797 N 655.899 6.59789 -2.40048 0
M  V30 6798 H 660.739 2.1291 -2.08502 0
M  V30 6799 H 658.276 1.04271 -1.03759 0
M  V30 6800 H 660.234 4.12643 -0.614949 0
M  V30 6801 H 658.864 3.22682 0.0873452 0
M  V30 6802 H 657.916 3.01226 -2.32308 0
M  V30 6803 H 659.228 4.07999 -2.86946 0
M  V30 6804 H 658.382 5.90732 -1.38277 0
M  V30 6805 H 657.121 4.82155 -0.733333 0
M  V30 6806 H 656.126 4.59 -3.02653 0
M  V30 6807 H 657.351 5.71024 -3.67572 0
M  V30 6808 H 655.297 6.37826 -1.53343 0
M  V30 6809 H 655.214 6.84975 -3.19914 0
M  V30 6810 H 656.482 7.4807 -2.19116 0
M  V30 6811 N 660.711 1.11618 1.11262 0
M  V30 6812 C 661.621 0.78898 2.20935 0
M  V30 6813 C 662.637 -0.21867 1.7262 0
M  V30 6814 O 663.813 -0.0543826 2.01327 0
M  V30 6815 C 660.878 0.239014 3.45875 0
M  V30 6816 C 659.939 1.3055 4.08968 0
M  V30 6817 C 659.172 0.781687 5.27944 0
M  V30 6818 O 659.395 -0.387605 5.69082 0
M  V30 6819 O 658.329 1.54734 5.81671 0
M  V30 6820 H 662.155 1.70477 2.51339 0
M  V30 6821 H 659.74 0.892203 1.19834 0
M  V30 6822 H 661.622 -0.0632312 4.21353 0
M  V30 6823 H 660.297 -0.649454 3.17118 0
M  V30 6824 H 659.204 1.66079 3.35214 0
M  V30 6825 H 660.537 2.16743 4.41909 0
M  V30 6826 N 662.189 -1.289 0.906776 0
M  V30 6827 C 663.438 -1.9455 0.532262 0
M  V30 6828 C 663.751 -1.72219 -0.927353 0
M  V30 6829 O 664.957 -2.32033 -1.40971 0
M  V30 6830 C 663.413 -3.48438 0.901041 0
M  V30 6831 C 663.021 -3.79558 2.37991 0
M  V30 6832 C 664.765 -4.20284 0.596777 0
M  V30 6833 C 662.672 -5.26723 2.68918 0
M  V30 6834 H 661.602 -0.728259 0.195333 0
M  V30 6835 H 664.253 -1.46519 1.10474 0
M  V30 6836 H 662.635 -3.95162 0.257419 0
M  V30 6837 H 663.809 -3.43668 3.06967 0
M  V30 6838 H 662.124 -3.20868 2.65391 0
M  V30 6839 H 664.721 -5.28612 0.8046 0
M  V30 6840 H 665.064 -4.13694 -0.465072 0
M  V30 6841 H 665.597 -3.79315 1.19855 0
M  V30 6842 H 662.336 -5.38384 3.73928 0
M  V30 6843 H 661.856 -5.63836 2.04571 0
M  V30 6844 H 663.535 -5.94391 2.55555 0
M  V30 6845 N 663.667 -0.670007 -1.42649 0
M  V30 6846 C 664.892 -0.196955 -2.06463 0
M  V30 6847 C 665.317 1.1352 -1.49983 0
M  V30 6848 O 664.675 1.705 -0.616397 0
M  V30 6849 C 664.723 -0.137381 -3.60338 0
M  V30 6850 O 663.827 0.895523 -4.02559 0
M  V30 6851 H 663.168 -0.102579 -0.656029 0
M  V30 6852 H 665.698 -0.917669 -1.82866 0
M  V30 6853 H 665.708 0.0403625 -4.0798 0
M  V30 6854 H 664.383 -1.10977 -4.0082 0
M  V30 6855 H 662.96 0.689209 -3.66476 0
M  V30 6856 N 665.145 1.52092 -0.413018 0
M  V30 6857 C 666.108 2.25706 0.398687 0
M  V30 6858 C 667.108 1.28221 0.970368 0
M  V30 6859 O 668.298 1.52131 0.848635 0
M  V30 6860 C 665.43 3.03029 1.5616 0
M  V30 6861 H 666.623 2.98888 -0.246131 0
M  V30 6862 H 664.176 1.5542 -0.165622 0
M  V30 6863 H 664.911 2.34205 2.24317 0
M  V30 6864 H 664.696 3.74606 1.15812 0
M  V30 6865 H 666.186 3.58857 2.13569 0
M  V30 6866 N 666.623 0.143563 1.56945 0
M  V30 6867 C 667.871 -0.507402 1.95627 0
M  V30 6868 C 668.192 -1.65626 1.02922 0
M  V30 6869 O 667.462 -1.95693 0.0901136 0
M  V30 6870 H 666.042 -0.190436 0.722318 0
M  V30 6871 H 668.704 0.218257 1.93674 0
M  V30 6872 H 667.8 -0.885816 2.99265 0
M  V30 6873 N 668.101 -1.57061 -0.130224 0
M  V30 6874 C 669.517 -1.52103 -0.483413 0
M  V30 6875 C 669.717 -0.854752 -1.82473 0
M  V30 6876 O 668.773 -0.432342 -2.48771 0
M  V30 6877 C 670.086 -2.96872 -0.47825 0
M  V30 6878 C 671.634 -3.07902 -0.562592 0
M  V30 6879 C 672.109 -4.54211 -0.587929 0
M  V30 6880 N 673.6 -4.58621 -0.649684 0
M  V30 6881 C 674.335 -5.69227 -0.690551 0
M  V30 6882 N 673.831 -6.89358 -0.689743 0
M  V30 6883 N 675.624 -5.57304 -0.732708 0
M  V30 6884 H 667.775 -1.98764 0.748779 0
M  V30 6885 H 670.038 -0.907248 0.274965 0
M  V30 6886 H 669.744 -3.48944 0.439444 0
M  V30 6887 H 669.618 -3.53716 -1.31013 0
M  V30 6888 H 672.005 -2.5584 -1.47071 0
M  V30 6889 H 672.086 -2.54073 0.296764 0
M  V30 6890 H 671.73 -5.06915 0.316096 0
M  V30 6891 H 671.66 -5.0584 -1.46401 0
M  V30 6892 H 674.151 -3.72146 -0.656927 0
M  V30 6893 H 674.464 -7.69408 -0.723239 0
M  V30 6894 H 672.809 -6.91884 -0.657347 0
M  V30 6895 H 676 -4.62363 -0.730625 0
M  V30 6896 H 676.173 -6.43515 -0.76109 0
M  V30 6897 N 669.579 0.400081 -1.52437 0
M  V30 6898 C 670.828 1.14332 -1.66166 0
M  V30 6899 C 671.141 1.91419 -0.402253 0
M  V30 6900 O 672.347 2.6824 -0.419487 0
M  V30 6901 C 670.803 2.08137 -2.9361 0
M  V30 6902 C 670.411 1.36524 -4.26691 0
M  V30 6903 C 672.155 2.82664 -3.16703 0
M  V30 6904 C 670.062 2.29031 -5.45251 0
M  V30 6905 H 668.992 0.430499 -0.61902 0
M  V30 6906 H 671.643 0.407017 -1.78929 0
M  V30 6907 H 670.025 2.85358 -2.74567 0
M  V30 6908 H 671.199 0.646061 -4.56249 0
M  V30 6909 H 669.514 0.74002 -4.09771 0
M  V30 6910 H 672.111 3.52037 -4.0246 0
M  V30 6911 H 672.454 3.46122 -2.31312 0
M  V30 6912 H 672.987 2.12541 -3.36261 0
M  V30 6913 H 669.726 1.70206 -6.33017 0
M  V30 6914 H 669.246 2.98896 -5.2002 0
M  V30 6915 H 670.925 2.89359 -5.78689 0
M  V30 6916 N 671.057 1.43213 0.657864 0
M  V30 6917 C 672.287 1.478 1.44356 0
M  V30 6918 C 672.695 0.0930206 1.88971 0
M  V30 6919 O 672.038 -0.906089 1.59799 0
M  V30 6920 C 672.1 2.35745 2.71412 0
M  V30 6921 C 671.764 3.83359 2.48767 0
M  V30 6922 C 672.761 4.74585 2.12285 0
M  V30 6923 C 670.446 4.27799 2.63235 0
M  V30 6924 C 672.44 6.08247 1.90562 0
M  V30 6925 C 670.127 5.61516 2.41128 0
M  V30 6926 C 671.125 6.51557 2.04847 0
M  V30 6927 O 670.813 7.82802 1.82967 0
M  V30 6928 H 670.545 0.504363 0.450104 0
M  V30 6929 H 673.099 1.88572 0.814241 0
M  V30 6930 H 671.329 1.89852 3.36887 0
M  V30 6931 H 673.018 2.31589 3.33348 0
M  V30 6932 H 673.784 4.41531 2.00687 0
M  V30 6933 H 669.663 3.57993 2.90451 0
M  V30 6934 H 673.207 6.78489 1.62168 0
M  V30 6935 H 669.104 5.94139 2.52327 0
M  V30 6936 H 669.872 7.94332 1.97429 0
M  V30 6937 N 672.536 -0.895792 1.29666 0
M  V30 6938 C 673.785 -1.64131 1.17234 0
M  V30 6939 C 674.098 -1.93665 -0.274416 0
M  V30 6940 O 675.304 -2.66472 -0.520105 0
M  V30 6941 C 673.76 -2.95764 2.05065 0
M  V30 6942 C 673.368 -2.7381 3.54587 0
M  V30 6943 C 675.112 -3.737 2.01367 0
M  V30 6944 C 673.019 -4.01194 4.34508 0
M  V30 6945 H 671.949 -0.615742 0.435175 0
M  V30 6946 H 674.6 -0.992626 1.54335 0
M  V30 6947 H 672.982 -3.61867 1.60837 0
M  V30 6948 H 674.156 -2.16277 4.06892 0
M  V30 6949 H 672.471 -2.09265 3.59996 0
M  V30 6950 H 675.068 -4.68152 2.58337 0
M  V30 6951 H 675.411 -4.04245 0.994575 0
M  V30 6952 H 675.944 -3.14444 2.43659 0
M  V30 6953 H 672.683 -3.75813 5.37071 0
M  V30 6954 H 672.203 -4.58272 3.86971 0
M  V30 6955 H 673.882 -4.69307 4.45376 0
M  V30 6956 N 674.014 -1.12206 -1.10668 0
M  V30 6957 C 675.239 -0.898938 -1.86906 0
M  V30 6958 C 675.664 0.546346 -1.79991 0
M  V30 6959 O 675.022 1.38655 -1.1681 0
M  V30 6960 C 675.07 -1.37529 -3.33344 0
M  V30 6961 O 674.174 -0.55218 -4.08687 0
M  V30 6962 H 673.515 -0.323163 -0.580053 0
M  V30 6963 H 676.045 -1.49355 -1.39837 0
M  V30 6964 H 676.055 -1.3733 -3.84193 0
M  V30 6965 H 674.73 -2.42767 -3.37693 0
M  V30 6966 H 673.307 -0.620947 -3.67694 0
M  V30 6967 N 675.492 1.28418 -0.913599 0
M  V30 6968 C 676.455 2.25564 -0.406624 0
M  V30 6969 C 677.455 1.5387 0.466965 0
M  V30 6970 O 678.645 1.72094 0.270042 0
M  V30 6971 C 675.777 3.38339 0.417053 0
M  V30 6972 H 676.97 2.71926 -1.26477 0
M  V30 6973 H 674.523 1.40098 -0.692986 0
M  V30 6974 H 675.258 2.97339 1.29461 0
M  V30 6975 H 675.043 3.91542 -0.209102 0
M  V30 6976 H 676.533 4.10578 0.762602 0
M  V30 6977 N 676.97 0.677563 1.42291 0
M  V30 6978 C 677.918 -0.0106755 2.32598 0
M  V30 6979 C 678.912 -0.787643 1.49975 0
M  V30 6980 O 680.118 -0.695295 1.66029 0
M  V30 6981 H 676.493 -0.0222482 0.751671 0
M  V30 6982 H 678.464 0.768312 2.88339 0
M  V30 6983 C 677.213 -0.946142 3.3458 0
M  V30 6984 H 676.536 -0.357701 3.98197 0
M  V30 6985 H 677.976 -1.39634 4.00348 0
M  V30 6986 C 676.435 -2.05383 2.67057 0
M  V30 6987 O 676.965 -3.1406 2.50458 0
M  V30 6988 N 675.171 -1.82635 2.26038 0
M  V30 6989 H 674.718 -0.942534 2.39737 0
M  V30 6990 H 674.676 -2.56937 1.81192 0
M  V30 6991 N 678.448 -1.51871 0.421078 0
M  V30 6992 C 679.864 -1.59435 0.0725398 0
M  V30 6993 C 680.064 -1.43315 -1.41644 0
M  V30 6994 O 679.12 -1.26614 -2.18461 0
M  V30 6995 C 680.433 -2.9509 0.578132 0
M  V30 6996 C 681.981 -3.08356 0.537149 0
M  V30 6997 C 682.456 -4.4651 1.01945 0
M  V30 6998 N 683.947 -4.52784 0.976758 0
M  V30 6999 C 684.682 -5.57976 1.32099 0
M  V30 7000 N 684.178 -6.70664 1.73727 0
M  V30 7001 N 685.971 -5.48248 1.2402 0
M  V30 7002 H 678.122 -1.60595 1.39007 0
M  V30 7003 H 680.385 -0.756138 0.571803 0
M  V30 7004 H 680.091 -3.12205 1.61929 0
M  V30 7005 H 679.965 -3.772 -0.00578374 0
M  V30 7006 H 682.352 -2.90919 -0.494991 0
M  V30 7007 H 682.433 -2.28125 1.15727 0
M  V30 7008 H 682.077 -4.64692 2.04997 0
M  V30 7009 H 682.007 -5.25256 0.376023 0
M  V30 7010 H 684.498 -3.71898 0.670851 0
M  V30 7011 H 684.811 -7.46932 1.98274 0
M  V30 7012 H 683.156 -6.71914 1.77641 0
M  V30 7013 H 686.347 -4.59095 0.913756 0
M  V30 7014 H 686.52 -6.30119 1.51176 0
M  V30 7015 N 679.926 -0.151884 -1.56866 0
M  V30 7016 C 680.858 0.817008 -2.14144 0
M  V30 7017 C 681.871 1.20735 -1.0921 0
M  V30 7018 O 683.06 1.15058 -1.36469 0
M  V30 7019 C 680.16 2.10844 -2.65326 0
M  V30 7020 C 679.333 1.88471 -3.94712 0
M  V30 7021 C 678.392 3.01649 -4.31155 0
M  V30 7022 O 677.418 2.73127 -4.9939 0
M  V30 7023 N 678.62 4.28947 -3.91132 0
M  V30 7024 H 681.385 0.327448 -2.97906 0
M  V30 7025 H 678.946 0.0315313 -1.61869 0
M  V30 7026 H 680.938 2.85616 -2.86715 0
M  V30 7027 H 679.508 2.51049 -1.86262 0
M  V30 7028 H 678.728 0.977088 -3.81899 0
M  V30 7029 H 680.016 1.70866 -4.79252 0
M  V30 7030 H 679.414 4.54986 -3.36161 0
M  V30 7031 H 677.971 5.00484 -4.17563 0
M  V30 7032 N 681.404 1.57128 0.121893 0
M  V30 7033 C 682.334 2.03165 1.15092 0
M  V30 7034 C 683.315 0.915587 1.43356 0
M  V30 7035 O 684.5 1.1851 1.53847 0
M  V30 7036 C 681.63 2.43352 2.47784 0
M  V30 7037 C 680.584 3.58376 2.33989 0
M  V30 7038 C 679.91 3.84454 3.71617 0
M  V30 7039 C 681.21 4.90199 1.80283 0
M  V30 7040 H 682.904 2.89382 0.768023 0
M  V30 7041 H 680.45 1.39218 0.367998 0
M  V30 7042 H 682.403 2.74163 3.20019 0
M  V30 7043 H 681.127 1.54103 2.87958 0
M  V30 7044 H 679.786 3.2777 1.64202 0
M  V30 7045 H 679.434 2.92414 4.09271 0
M  V30 7046 H 679.134 4.61877 3.6324 0
M  V30 7047 H 680.658 4.17714 4.45362 0
M  V30 7048 H 682.072 5.19565 2.42333 0
M  V30 7049 H 680.469 5.71601 1.82735 0
M  V30 7050 H 681.539 4.78904 0.760184 0
M  V30 7051 N 682.882 -0.391992 1.52647 0
M  V30 7052 C 684.122 -1.1463 1.69232 0
M  V30 7053 C 684.486 -1.87312 0.421684 0
M  V30 7054 O 685.687 -2.64768 0.463852 0
M  V30 7055 C 683.958 -2.10088 2.89133 0
M  V30 7056 S 685.517 -2.93395 3.2629 0
M  V30 7057 H 682.335 -0.388076 0.59575 0
M  V30 7058 H 684.937 -0.431149 1.90687 0
M  V30 7059 H 683.641 -1.55408 3.79837 0
M  V30 7060 H 683.172 -2.86116 2.70003 0
M  V30 7061 H 685.187 -4.12193 2.76244 0
M  V30 7062 N 684.36 -1.4356 -0.65026 0
M  V30 7063 C 685.59 -1.48563 -1.4357 0
M  V30 7064 C 685.998 -0.103041 -1.88919 0
M  V30 7065 O 685.341 0.897602 -1.60277 0
M  V30 7066 C 685.403 -2.37181 -2.70158 0
M  V30 7067 C 685.067 -3.84673 -2.4673 0
M  V30 7068 C 686.064 -4.75704 -2.09765 0
M  V30 7069 C 683.749 -4.29189 -2.60963 0
M  V30 7070 C 685.743 -6.09249 -1.87334 0
M  V30 7071 C 683.43 -5.62787 -2.38147 0
M  V30 7072 C 684.428 -6.52634 -2.01389 0
M  V30 7073 O 684.116 -7.83761 -1.78813 0
M  V30 7074 H 683.848 -0.506743 -0.447423 0
M  V30 7075 H 686.402 -1.89001 -0.80423 0
M  V30 7076 H 684.632 -1.91636 -3.35876 0
M  V30 7077 H 686.321 -2.33354 -3.32116 0
M  V30 7078 H 687.087 -4.42589 -1.98343 0
M  V30 7079 H 682.966 -3.59529 -2.88548 0
M  V30 7080 H 686.51 -6.7934 -1.58567 0
M  V30 7081 H 682.407 -5.95469 -2.49173 0
M  V30 7082 H 683.175 -7.95368 -1.93214 0
M  V30 7083 N 685.838 0.888903 -1.30139 0
M  V30 7084 C 686.788 1.9814 -1.12803 0
M  V30 7085 C 687.772 1.60839 -0.0443137 0
M  V30 7086 O 688.964 1.74971 -0.267208 0
M  V30 7087 C 686.093 3.33416 -0.817849 0
M  V30 7088 C 685.179 3.77043 -1.94163 0
M  V30 7089 N 685.57 3.92805 -3.18651 0
M  V30 7090 C 683.868 4.06407 -1.8371 0
M  V30 7091 C 684.569 4.29746 -3.92038 0
M  V30 7092 N 683.545 4.3939 -3.20059 0
M  V30 7093 H 687.347 2.08411 -2.07225 0
M  V30 7094 H 684.861 1.07845 -1.21421 0
M  V30 7095 H 686.858 4.11405 -0.674668 0
M  V30 7096 H 685.518 3.24484 0.118344 0
M  V30 7097 H 686.529 3.78042 -3.53984 0
M  V30 7098 H 683.206 4.05972 -0.974331 0
M  V30 7099 H 684.596 4.49695 -4.99223 0
M  V30 7100 N 687.317 1.12792 1.10072 0
M  V30 7101 C 688.267 0.768086 2.14673 0
M  V30 7102 C 689.251 -0.234716 1.59179 0
M  V30 7103 O 690.443 -0.039643 1.76956 0
M  V30 7104 C 687.572 0.228472 3.42539 0
M  V30 7105 C 686.658 1.25979 4.04957 0
M  V30 7106 N 687.049 2.4586 4.42025 0
M  V30 7107 C 685.347 1.10602 4.32069 0
M  V30 7108 C 686.048 3.11747 4.9111 0
M  V30 7109 N 685.024 2.39185 4.88151 0
M  V30 7110 H 688.826 1.68029 2.4113 0
M  V30 7111 H 686.34 1.00925 1.27232 0
M  V30 7112 H 688.337 -0.0475216 4.16873 0
M  V30 7113 H 686.997 -0.678136 3.1754 0
M  V30 7114 H 688.008 2.83215 4.33601 0
M  V30 7115 H 684.685 0.257021 4.16708 0
M  V30 7116 H 686.075 4.13862 5.29309 0
M  V30 7117 N 688.795 -1.27931 0.920396 0
M  V30 7118 C 690.02 -1.99343 0.572478 0
M  V30 7119 C 690.445 -1.68267 -0.840696 0
M  V30 7120 O 689.803 -0.918805 -1.56294 0
M  V30 7121 C 689.851 -3.51698 0.796284 0
M  V30 7122 O 688.955 -4.12157 -0.141602 0
M  V30 7123 H 688.296 -0.626065 0.221221 0
M  V30 7124 H 690.826 -1.62921 1.23765 0
M  V30 7125 H 690.836 -4.01793 0.708984 0
M  V30 7126 H 689.511 -3.73649 1.82644 0
M  V30 7127 H 688.088 -3.729 -0.005007 0
M  V30 7128 N 690.273 -0.685099 -1.4193 0
M  V30 7129 C 691.203 -0.0273506 -2.33484 0
M  V30 7130 C 692.184 0.778366 -1.51246 0
M  V30 7131 O 693.369 0.733449 -1.79817 0
M  V30 7132 C 690.499 0.917272 -3.34968 0
M  V30 7133 C 689.453 0.21941 -4.27437 0
M  V30 7134 C 688.779 1.27768 -5.1921 0
M  V30 7135 C 690.079 -0.907894 -5.14349 0
M  V30 7136 H 691.773 -0.791994 -2.88735 0
M  V30 7137 H 689.319 -0.382308 -1.38832 0
M  V30 7138 H 691.272 1.38657 -3.97935 0
M  V30 7139 H 689.996 1.71346 -2.78043 0
M  V30 7140 H 688.655 -0.229757 -3.65879 0
M  V30 7141 H 688.303 2.06612 -4.58607 0
M  V30 7142 H 688.003 0.815803 -5.81909 0
M  V30 7143 H 689.527 1.7477 -5.85054 0
M  V30 7144 H 690.941 -0.519348 -5.70943 0
M  V30 7145 H 689.338 -1.2962 -5.85934 0
M  V30 7146 H 690.408 -1.75218 -4.52136 0
M  V30 7147 N 691.751 1.51645 -0.429126 0
M  V30 7148 C 692.699 2.29119 0.400921 0
M  V30 7149 C 693.693 1.34628 1.02819 0
M  V30 7150 O 694.899 1.52004 0.964098 0
M  V30 7151 H 691.274 0.737273 0.148095 0
M  V30 7152 H 693.245 2.97144 -0.273457 0
M  V30 7153 C 691.994 3.13953 1.49429 0
M  V30 7154 H 691.317 3.86544 1.02097 0
M  V30 7155 H 692.757 3.71232 2.04849 0
M  V30 7156 C 691.216 2.28796 2.47293 0
M  V30 7157 O 691.746 1.94193 3.51642 0
M  V30 7158 N 689.952 1.92177 2.17982 0
M  V30 7159 H 689.499 2.20517 1.33154 0
M  V30 7160 H 689.457 1.35497 2.83704 0
M  V30 7161 N 693.229 0.160201 1.56784 0
M  V30 7162 C 694.475 -0.481855 1.9761 0
M  V30 7163 C 694.83 -1.61605 1.04411 0
M  V30 7164 O 694.123 -1.91426 0.0816402 0
M  V30 7165 C 694.317 -1.02259 3.42459 0
M  V30 7166 C 694.146 0.0576781 4.49663 0
M  V30 7167 C 692.916 0.503585 5.02784 0
M  V30 7168 C 695.114 0.854013 5.0716 0
M  V30 7169 N 693.096 1.56532 5.93608 0
M  V30 7170 C 694.467 1.76593 5.94319 0
M  V30 7171 C 696.522 0.900333 4.89692 0
M  V30 7172 C 695.225 2.72023 6.6588 0
M  V30 7173 C 697.251 1.84252 5.61965 0
M  V30 7174 C 696.613 2.74194 6.48843 0
M  V30 7175 H 692.712 -0.144748 0.768487 0
M  V30 7176 H 695.296 0.257853 1.92985 0
M  V30 7177 H 693.467 -1.73186 3.47651 0
M  V30 7178 H 695.199 -1.63235 3.70319 0
M  V30 7179 H 691.954 0.103361 4.73487 0
M  V30 7180 H 692.378 2.09634 6.43726 0
M  V30 7181 H 697.02 0.219023 4.22232 0
M  V30 7182 H 694.738 3.41147 7.3256 0
M  V30 7183 H 698.324 1.88433 5.5044 0
M  V30 7184 H 697.204 3.45912 7.03786 0
M  V30 7185 N 694.707 -1.5719 -0.113559 0
M  V30 7186 C 695.935 -1.89328 -0.834422 0
M  V30 7187 C 696.35 -0.752018 -1.73177 0
M  V30 7188 O 695.707 0.276912 -1.80387 0
M  V30 7189 C 695.758 -3.20962 -1.66329 0
M  V30 7190 O 695.479 -4.30695 -0.802069 0
M  V30 7191 C 696.98 -3.6684 -2.48884 0
M  V30 7192 H 694.2 -0.626769 -0.239587 0
M  V30 7193 H 696.744 -2.04273 -0.0963195 0
M  V30 7194 H 694.899 -3.0767 -2.35409 0
M  V30 7195 H 695.313 -5.06175 -1.37431 0
M  V30 7196 H 696.787 -4.61692 -3.02563 0
M  V30 7197 H 697.264 -2.93765 -3.26495 0
M  V30 7198 H 697.87 -3.82938 -1.85036 0
M  V30 7199 N 696.185 0.383891 -1.52853 0
M  V30 7200 C 697.132 1.46924 -1.77995 0
M  V30 7201 C 698.102 1.53958 -0.623396 0
M  V30 7202 O 699.287 1.70134 -0.863657 0
M  V30 7203 C 696.427 2.84093 -1.95921 0
M  V30 7204 C 695.54 2.86171 -3.23621 0
M  V30 7205 C 694.675 4.14799 -3.31836 0
M  V30 7206 C 693.714 4.10948 -4.53639 0
M  V30 7207 N 692.851 5.31192 -4.59107 0
M  V30 7208 H 697.691 1.24786 -2.70615 0
M  V30 7209 H 695.228 0.605265 -1.34071 0
M  V30 7210 H 697.186 3.63755 -2.04299 0
M  V30 7211 H 695.816 3.04671 -1.06656 0
M  V30 7212 H 694.868 1.9885 -3.24288 0
M  V30 7213 H 696.18 2.79194 -4.13343 0
M  V30 7214 H 695.334 5.02867 -3.39425 0
M  V30 7215 H 694.073 4.24505 -2.40097 0
M  V30 7216 H 693.078 3.21268 -4.46169 0
M  V30 7217 H 694.303 4.0286 -5.467 0
M  V30 7218 H 692.249 5.41518 -3.70262 0
M  V30 7219 H 692.166 5.26311 -5.42708 0
M  V30 7220 H 693.434 6.21143 -4.70958 0
M  V30 7221 N 697.663 1.43903 0.642637 0
M  V30 7222 C 698.909 1.46296 1.40447 0
M  V30 7223 C 699.242 0.0908361 1.93987 0
M  V30 7224 O 698.517 -0.889884 1.72949 0
M  V30 7225 C 698.8 2.51399 2.57819 0
M  V30 7226 C 698.653 3.97926 2.09702 0
M  V30 7227 C 699.972 2.53125 3.60022 0
M  V30 7228 H 697.091 0.532676 0.509338 0
M  V30 7229 H 699.733 1.75515 0.727635 0
M  V30 7230 H 697.883 2.26614 3.1556 0
M  V30 7231 H 699.555 4.33804 1.5688 0
M  V30 7232 H 697.798 4.10252 1.40982 0
M  V30 7233 H 698.469 4.67096 2.94152 0
M  V30 7234 H 700.945 2.75242 3.12059 0
M  V30 7235 H 699.821 3.28589 4.39682 0
M  V30 7236 H 700.082 1.56895 4.13324 0
M  V30 7237 N 699.141 -0.881989 1.30609 0
M  V30 7238 C 700.071 -2.00413 1.1982 0
M  V30 7239 C 701.052 -1.69871 0.0881538 0
M  V30 7240 O 702.237 -1.92304 0.2707 0
M  V30 7241 C 699.367 -3.35641 0.89233 0
M  V30 7242 C 698.321 -3.80451 1.96064 0
M  V30 7243 C 697.647 -5.13003 1.5077 0
M  V30 7244 C 698.947 -3.98855 3.37213 0
M  V30 7245 H 700.641 -2.09698 2.13699 0
M  V30 7246 H 698.187 -1.00754 1.02882 0
M  V30 7247 H 700.14 -4.13669 0.803497 0
M  V30 7248 H 698.864 -3.26497 -0.0821381 0
M  V30 7249 H 697.523 -3.04654 2.03916 0
M  V30 7250 H 697.171 -5.0029 0.521417 0
M  V30 7251 H 696.871 -5.43956 2.22229 0
M  V30 7252 H 698.395 -5.93554 1.43271 0
M  V30 7253 H 699.809 -4.67312 3.32103 0
M  V30 7254 H 698.206 -4.41188 4.06784 0
M  V30 7255 H 699.276 -3.02614 3.78883 0
M  V30 7256 N 700.619 -1.13374 -1.09472 0
M  V30 7257 C 702.035 -0.871846 -1.33682 0
M  V30 7258 C 702.235 0.492847 -1.9538 0
M  V30 7259 O 701.291 1.23946 -2.19985 0
M  V30 7260 C 702.604 -1.99608 -2.24893 0
M  V30 7261 C 704.152 -2.02812 -2.38404 0
M  V30 7262 C 704.627 -3.14497 -3.3295 0
M  V30 7263 N 706.118 -3.14004 -3.40523 0
M  V30 7264 C 706.853 -3.97061 -4.13679 0
M  V30 7265 N 706.349 -4.90131 -4.89636 0
M  V30 7266 N 708.142 -3.85162 -4.09398 0
M  V30 7267 H 700.293 -2.01288 -0.677995 0
M  V30 7268 H 702.556 -0.876492 -0.361201 0
M  V30 7269 H 702.262 -2.98 -1.86786 0
M  V30 7270 H 702.136 -1.90981 -3.25278 0
M  V30 7271 H 704.523 -1.05034 -2.75775 0
M  V30 7272 H 704.604 -2.15511 -1.37799 0
M  V30 7273 H 704.248 -4.12514 -2.96302 0
M  V30 7274 H 704.178 -2.99035 -4.33458 0
M  V30 7275 H 706.669 -2.46587 -2.86362 0
M  V30 7276 H 706.982 -5.49996 -5.42885 0
M  V30 7277 H 705.327 -4.94138 -4.88726 0
M  V30 7278 H 708.518 -3.11779 -3.49158 0
M  V30 7279 H 708.691 -4.5012 -4.6615 0
M  V30 7280 N 702.098 1.27442 -0.927168 0
M  V30 7281 C 703.346 1.94007 -0.566203 0
M  V30 7282 C 703.667 1.7323 0.895345 0
M  V30 7283 O 702.937 1.07973 1.63459 0
M  V30 7284 H 701.517 0.717917 -0.206409 0
M  V30 7285 H 704.179 1.55161 -1.17945 0
M  V30 7286 H 703.275 3.02401 -0.772028 0
M  V30 7287 N 703.576 0.692616 1.41565 0
M  V30 7288 C 704.987 0.297478 1.84315 0
M  V30 7289 C 705.338 -1.16379 1.57957 0
M  V30 7290 O 704.463 -1.89303 1.0485 0
M  V30 7291 C 705.058 0.533136 3.34579 0
M  V30 7292 C 703.617 0.191944 3.7591 0
M  V30 7293 C 702.764 0.816873 2.64995 0
M  V30 7294 H 705.715 0.893488 1.31158 0
M  V30 7295 H 705.736 -0.209105 3.79925 0
M  V30 7296 H 705.248 1.59674 3.53731 0
M  V30 7297 H 703.349 -0.867512 3.6236 0
M  V30 7298 H 703.462 0.644902 4.7474 0
M  V30 7299 H 701.826 0.246715 2.53502 0
M  V30 7300 H 702.609 1.88429 2.86966 0
M  V30 7301 N 705.054 -1.51416 0.437162 0
M  V30 7302 C 706.282 -2.06503 -0.128045 0
M  V30 7303 C 706.697 -1.30461 -1.36475 0
M  V30 7304 O 706.054 -0.364127 -1.78831 0
M  V30 7305 C 706.105 -3.58683 -0.450437 0
M  V30 7306 O 705.826 -4.31853 0.737186 0
M  V30 7307 C 707.327 -4.30284 -1.06633 0
M  V30 7308 H 704.547 -0.670952 -0.00800269 0
M  V30 7309 H 707.091 -1.94996 0.616193 0
M  V30 7310 H 705.246 -3.70106 -1.14457 0
M  V30 7311 H 705.66 -5.22467 0.461347 0
M  V30 7312 H 707.134 -5.37848 -1.24191 0
M  V30 7313 H 707.611 -3.88564 -2.0473 0
M  V30 7314 H 708.217 -4.23304 -0.411585 0
M  V30 7315 N 706.532 -0.168513 -1.56696 0
M  V30 7316 C 707.442 0.775435 -2.21414 0
M  V30 7317 C 708.458 1.25529 -1.20492 0
M  V30 7318 O 709.634 1.30801 -1.53144 0
M  V30 7319 C 706.699 1.9886 -2.83999 0
M  V30 7320 C 705.76 1.5559 -4.00113 0
M  V30 7321 C 704.993 2.71124 -4.59704 0
M  V30 7322 O 705.216 3.87917 -4.18182 0
M  V30 7323 O 704.15 2.4536 -5.4962 0
M  V30 7324 H 707.976 0.254416 -3.02632 0
M  V30 7325 H 705.561 0.0595507 -1.49281 0
M  V30 7326 H 707.443 2.69816 -3.23693 0
M  V30 7327 H 706.118 2.49874 -2.05779 0
M  V30 7328 H 705.025 0.815924 -3.65094 0
M  V30 7329 H 706.358 1.09271 -4.79917 0
M  V30 7330 N 708.01 1.57248 0.105221 0
M  V30 7331 C 708.92 2.04653 1.14693 0
M  V30 7332 C 709.936 0.969488 1.44489 0
M  V30 7333 O 711.112 1.28196 1.55331 0
M  V30 7334 C 708.177 2.45297 2.45011 0
M  V30 7335 C 707.238 3.67148 2.22489 0
M  V30 7336 C 706.471 4.05844 3.46592 0
M  V30 7337 O 706.694 3.44736 4.54437 0
M  V30 7338 O 705.628 4.98862 3.36779 0
M  V30 7339 H 709.454 2.93663 0.774336 0
M  V30 7340 H 707.039 1.45998 0.31701 0
M  V30 7341 H 708.921 2.72112 3.21766 0
M  V30 7342 H 707.596 1.59429 2.81717 0
M  V30 7343 H 706.503 3.45463 1.43547 0
M  V30 7344 H 707.836 4.53764 1.9068 0
M  V30 7345 N 709.488 -0.375779 1.53054 0
M  V30 7346 C 710.904 -0.716764 1.426 0
M  V30 7347 C 711.104 -1.93651 0.556931 0
M  V30 7348 O 710.16 -2.52475 0.0354461 0
M  V30 7349 C 711.473 -0.939499 2.85646 0
M  V30 7350 C 713.021 -1.04015 2.95212 0
M  V30 7351 C 713.496 -1.29543 4.39298 0
M  V30 7352 N 714.987 -1.36335 4.42682 0
M  V30 7353 C 715.722 -1.57778 5.51266 0
M  V30 7354 N 715.218 -1.76604 6.69913 0
M  V30 7355 N 717.011 -1.60065 5.38828 0
M  V30 7356 H 709.162 0.42664 2.08071 0
M  V30 7357 H 711.425 0.128758 0.939215 0
M  V30 7358 H 711.131 -0.115189 3.51511 0
M  V30 7359 H 711.005 -1.85048 3.2869 0
M  V30 7360 H 713.392 -1.85501 2.29507 0
M  V30 7361 H 713.473 -0.106785 2.55577 0
M  V30 7362 H 713.117 -0.485611 5.05573 0
M  V30 7363 H 713.047 -2.24184 4.76497 0
M  V30 7364 H 715.538 -1.23441 3.5717 0
M  V30 7365 H 715.851 -1.9251 7.48438 0
M  V30 7366 H 714.196 -1.73802 6.72917 0
M  V30 7367 H 717.387 -1.44917 4.45103 0
M  V30 7368 H 717.56 -1.76435 6.23518 0
M  V30 7369 N 710.966 -1.44241 -0.634997 0
M  V30 7370 C 711.896 -1.53632 -1.7584 0
M  V30 7371 C 712.877 -0.389603 -1.65578 0
M  V30 7372 O 714.062 -0.609219 -1.84397 0
M  V30 7373 C 711.192 -1.47644 -3.14354 0
M  V30 7374 C 710.146 -2.60752 -3.394 0
M  V30 7375 C 709.472 -2.39817 -4.77904 0
M  V30 7376 C 710.772 -4.02921 -3.32343 0
M  V30 7377 H 712.466 -2.47662 -1.68238 0
M  V30 7378 H 710.012 -1.19197 -0.807969 0
M  V30 7379 H 711.965 -1.52815 -3.92716 0
M  V30 7380 H 710.689 -0.501284 -3.2273 0
M  V30 7381 H 709.348 -2.54965 -2.63417 0
M  V30 7382 H 708.996 -1.40502 -4.82978 0
M  V30 7383 H 708.696 -3.15649 -4.9562 0
M  V30 7384 H 710.22 -2.46799 -5.585 0
M  V30 7385 H 711.634 -4.10098 -4.00615 0
M  V30 7386 H 710.031 -4.78925 -3.61595 0
M  V30 7387 H 711.101 -4.26766 -2.30215 0
M  V30 7388 N 712.444 0.87505 -1.31075 0
M  V30 7389 C 713.721 1.60976 -1.11113 0
M  V30 7390 C 714.101 2.08409 0.336006 0
M  V30 7391 O 713.449 1.85858 1.32924 0
M  V30 7392 C 713.659 2.77166 -2.12085 0
M  V30 7393 C 715.007 3.47254 -2.44335 0
M  V30 7394 O 716.031 2.87367 -2.10472 0
M  V30 7395 O 714.89 4.55276 -3.02301 0
M  V30 7396 H 711.984 0.707982 -0.427424 0
M  V30 7397 H 714.53 0.920957 -1.42536 0
M  V30 7398 H 713.302 2.39494 -3.09449 0
M  V30 7399 H 712.925 3.53737 -1.81538 0
M  V30 7400 N 713.922 1.13953 1.08869 0
M  V30 7401 C 715.171 0.899431 1.80536 0
M  V30 7402 C 715.484 -0.575781 1.86933 0
M  V30 7403 O 716.69 -0.932988 2.54966 0
M  V30 7404 C 715.146 1.55963 3.24351 0
M  V30 7405 C 714.754 3.07077 3.26202 0
M  V30 7406 C 716.498 1.40046 4.00733 0
M  V30 7407 C 714.405 3.65955 4.64576 0
M  V30 7408 H 713.335 0.332849 0.676556 0
M  V30 7409 H 715.986 1.3679 1.22314 0
M  V30 7410 H 714.368 1.01883 3.82669 0
M  V30 7411 H 715.542 3.67785 2.77617 0
M  V30 7412 H 713.857 3.22576 2.63312 0
M  V30 7413 H 716.454 1.81441 5.02974 0
M  V30 7414 H 716.797 0.345993 4.1486 0
M  V30 7415 H 717.33 1.91137 3.48872 0
M  V30 7416 H 714.069 4.71234 4.55652 0
M  V30 7417 H 713.589 3.10027 5.13462 0
M  V30 7418 H 715.268 3.65968 5.33551 0
M  V30 7419 N 715.4 -1.26948 0.933913 0
M  V30 7420 C 716.347 -2.26635 0.436484 0
M  V30 7421 C 717.317 -1.58397 -0.499953 0
M  V30 7422 O 718.502 -1.86171 -0.417753 0
M  V30 7423 C 715.642 -3.43803 -0.298951 0
M  V30 7424 C 714.755 -4.26736 0.672316 0
M  V30 7425 C 713.89 -5.31134 -0.0835872 0
M  V30 7426 C 712.929 -6.05742 0.879979 0
M  V30 7427 N 712.066 -7.01926 0.156301 0
M  V30 7428 H 716.906 -2.68558 1.29154 0
M  V30 7429 H 714.443 -1.32052 0.648118 0
M  V30 7430 H 716.401 -4.10554 -0.741723 0
M  V30 7431 H 715.031 -3.02814 -1.1182 0
M  V30 7432 H 714.083 -3.59842 1.23361 0
M  V30 7433 H 715.395 -4.78502 1.40846 0
M  V30 7434 H 714.549 -6.03863 -0.585984 0
M  V30 7435 H 713.288 -4.80188 -0.852661 0
M  V30 7436 H 712.293 -5.31846 1.39357 0
M  V30 7437 H 713.518 -6.58777 1.64894 0
M  V30 7438 H 711.464 -6.53301 -0.594413 0
M  V30 7439 H 711.381 -7.51409 0.831906 0
M  V30 7440 H 712.649 -7.78821 -0.325239 0
M  V30 7441 N 716.879 -0.700114 -1.41195 0
M  V30 7442 C 717.829 -0.0144098 -2.27995 0
M  V30 7443 C 718.813 0.748249 -1.42443 0
M  V30 7444 O 720.005 0.622995 -1.65674 0
M  V30 7445 C 717.134 0.917938 -3.308 0
M  V30 7446 C 716.22 0.151286 -4.2383 0
M  V30 7447 N 716.611 -0.85732 -4.98481 0
M  V30 7448 C 714.909 0.386108 -4.44326 0
M  V30 7449 C 715.61 -1.31663 -5.66604 0
M  V30 7450 N 714.586 -0.641689 -5.39799 0
M  V30 7451 H 718.388 -0.787662 -2.83149 0
M  V30 7452 H 715.902 -0.531344 -1.53462 0
M  V30 7453 H 717.899 1.42437 -3.91813 0
M  V30 7454 H 716.559 1.69074 -2.77208 0
M  V30 7455 H 717.57 -1.2377 -5.02893 0
M  V30 7456 H 714.247 1.13644 -4.01735 0
M  V30 7457 H 715.637 -2.15384 -6.36443 0
M  V30 7458 N 718.357 1.51182 -0.445186 0
M  V30 7459 C 719.305 2.29531 0.376597 0
M  V30 7460 C 720.299 1.35711 1.01385 0
M  V30 7461 O 721.505 1.53018 0.947922 0
M  V30 7462 H 717.88 0.738803 0.140267 0
M  V30 7463 H 719.851 2.96838 -0.304958 0
M  V30 7464 C 718.6 3.1552 1.4609 0
M  V30 7465 H 717.923 3.87605 0.979912 0
M  V30 7466 H 719.363 3.73384 2.009 0
M  V30 7467 C 717.822 2.31406 2.44852 0
M  V30 7468 O 718.352 1.97912 3.49562 0
M  V30 7469 N 716.558 1.94478 2.15932 0
M  V30 7470 H 716.105 2.21917 1.30808 0
M  V30 7471 H 716.063 1.38498 2.82251 0
M  V30 7472 N 719.835 0.176821 1.56605 0
M  V30 7473 C 721.251 -0.179278 1.5859 0
M  V30 7474 C 721.451 -1.62433 1.19238 0
M  V30 7475 O 720.507 -2.35665 0.906552 0
M  V30 7476 C 721.82 0.106524 3.00511 0
M  V30 7477 C 723.368 0.0451731 3.12967 0
M  V30 7478 C 723.843 0.304038 4.5699 0
M  V30 7479 N 725.334 0.252008 4.62514 0
M  V30 7480 C 726.069 0.426404 5.71812 0
M  V30 7481 N 725.565 0.660155 6.89648 0
M  V30 7482 N 727.358 0.361926 5.60934 0
M  V30 7483 H 719.509 1.12001 1.8047 0
M  V30 7484 H 721.772 0.445679 0.836704 0
M  V30 7485 H 721.478 1.10778 3.33798 0
M  V30 7486 H 721.352 -0.599337 3.72408 0
M  V30 7487 H 723.739 -0.946662 2.79504 0
M  V30 7488 H 723.82 0.78383 2.43495 0
M  V30 7489 H 723.464 1.29311 4.91163 0
M  V30 7490 H 723.394 -0.455294 5.24628 0
M  V30 7491 H 725.885 0.0772102 3.77821 0
M  V30 7492 H 726.198 0.782529 7.68828 0
M  V30 7493 H 724.543 0.696835 6.91498 0
M  V30 7494 H 727.734 0.17986 4.67754 0
M  V30 7495 H 727.907 0.501263 6.46058 0
M  V30 7496 N 721.313 -1.57302 -0.09688 0
M  V30 7497 C 722.724 -1.7496 -0.651595 0
M  V30 7498 C 723.075 -0.798746 -1.79205 0
M  V30 7499 O 722.2 0.0231858 -2.16388 0
M  V30 7500 C 722.795 -3.17259 -1.18878 0
M  V30 7501 C 721.354 -3.36348 -1.68958 0
M  V30 7502 C 720.501 -2.70766 -0.598413 0
M  V30 7503 H 723.452 -1.58173 0.12918 0
M  V30 7504 H 723.473 -3.20033 -2.05814 0
M  V30 7505 H 722.985 -3.8644 -0.358523 0
M  V30 7506 H 721.086 -2.72243 -2.5439 0
M  V30 7507 H 721.199 -4.44654 -1.7838 0
M  V30 7508 H 719.563 -2.32615 -1.03743 0
M  V30 7509 H 720.346 -3.42586 0.221238 0
M  V30 7510 N 722.791 0.367657 -1.53252 0
M  V30 7511 C 724.207 0.709191 -1.42978 0
M  V30 7512 C 724.407 1.93352 -0.567193 0
M  V30 7513 O 723.463 2.52453 -0.0488349 0
M  V30 7514 C 724.776 0.924338 -2.86141 0
M  V30 7515 C 726.324 1.02448 -2.95759 0
M  V30 7516 C 726.799 1.27211 -4.39979 0
M  V30 7517 N 728.29 1.33986 -4.43398 0
M  V30 7518 C 729.025 1.54852 -5.52095 0
M  V30 7519 N 728.521 1.73049 -6.7084 0
M  V30 7520 N 730.314 1.57205 -5.39669 0
M  V30 7521 H 722.465 -0.437669 -2.07842 0
M  V30 7522 H 724.728 -0.133737 -0.938519 0
M  V30 7523 H 724.434 0.0965455 -3.51567 0
M  V30 7524 H 724.308 1.83302 -3.29667 0
M  V30 7525 H 726.695 1.84282 -2.30487 0
M  V30 7526 H 726.776 0.0932301 -2.5563 0
M  V30 7527 H 726.42 0.458792 -5.05824 0
M  V30 7528 H 726.35 2.21654 -4.77679 0
M  V30 7529 H 728.841 1.21545 -3.5782 0
M  V30 7530 H 729.154 1.88538 -7.49449 0
M  V30 7531 H 727.499 1.70231 -6.7383 0
M  V30 7532 H 730.69 1.42555 -4.45865 0
M  V30 7533 H 730.863 1.73126 -6.24445 0
M  V30 7534 N 724.269 1.44576 0.627338 0
M  V30 7535 C 725.685 1.28546 0.945938 0
M  V30 7536 C 725.885 0.224003 2.00251 0
M  V30 7537 O 724.941 -0.388817 2.49488 0
M  V30 7538 C 726.254 2.65825 1.40561 0
M  V30 7539 C 727.802 2.73566 1.52088 0
M  V30 7540 C 728.277 4.11323 2.01438 0
M  V30 7541 N 729.768 4.13519 2.08702 0
M  V30 7542 C 730.503 5.16964 2.48065 0
M  V30 7543 N 729.999 6.30768 2.86538 0
M  V30 7544 N 731.792 5.04319 2.48232 0
M  V30 7545 H 723.943 2.1228 -0.0713567 0
M  V30 7546 H 726.206 0.947503 0.0307081 0
M  V30 7547 H 725.912 3.44591 0.703539 0
M  V30 7548 H 725.786 2.92969 2.37591 0
M  V30 7549 H 728.173 1.95116 2.21391 0
M  V30 7550 H 728.254 2.50159 0.534237 0
M  V30 7551 H 727.898 4.9025 1.32729 0
M  V30 7552 H 727.828 4.32109 3.0098 0
M  V30 7553 H 730.319 3.31385 1.81638 0
M  V30 7554 H 730.632 7.0551 3.15398 0
M  V30 7555 H 728.977 6.342 2.84281 0
M  V30 7556 H 732.168 4.14465 2.17569 0
M  V30 7557 H 732.341 5.85059 2.78585 0
M  V30 7558 N 725.747 -0.868086 1.31537 0
M  V30 7559 C 727.024 -1.60384 1.11965 0
M  V30 7560 C 727.404 -2.08584 -0.324949 0
M  V30 7561 O 726.752 -1.86561 -1.31937 0
M  V30 7562 C 726.962 -2.76038 2.13551 0
M  V30 7563 C 728.31 -3.45954 2.46173 0
M  V30 7564 O 729.334 -2.86247 2.11993 0
M  V30 7565 O 728.193 -4.53666 3.04711 0
M  V30 7566 H 725.287 -0.705705 0.431172 0
M  V30 7567 H 727.833 -0.913385 1.43022 0
M  V30 7568 H 726.605 -2.37849 3.10714 0
M  V30 7569 H 726.228 -3.52769 1.83411 0
M  V30 7570 N 727.225 -1.14528 -1.08264 0
M  V30 7571 C 728.465 -0.924808 -1.82282 0
M  V30 7572 C 728.829 0.538881 -1.84283 0
M  V30 7573 O 730.03 0.877355 -2.54079 0
M  V30 7574 C 728.301 -1.51102 -3.23887 0
M  V30 7575 S 729.86 -1.43232 -4.14765 0
M  V30 7576 H 726.678 -0.333052 -0.62817 0
M  V30 7577 H 729.28 -1.45905 -1.30123 0
M  V30 7578 H 727.984 -2.56942 -3.20014 0
M  V30 7579 H 727.515 -0.975234 -3.8112 0
M  V30 7580 H 729.53 -0.418843 -4.94429 0
M  V30 7581 N 728.703 1.26451 -0.940633 0
M  V30 7582 C 729.949 1.94065 -0.58878 0
M  V30 7583 C 730.282 1.7363 0.869853 0
M  V30 7584 O 729.557 1.073 1.62225 0
M  V30 7585 C 729.84 3.47852 -0.931199 0
M  V30 7586 C 729.693 3.77575 -2.44453 0
M  V30 7587 C 731.012 4.37832 -0.446229 0
M  V30 7588 H 728.131 0.704827 -0.21538 0
M  V30 7589 H 730.773 1.4933 -1.17475 0
M  V30 7590 H 728.923 3.86085 -0.432539 0
M  V30 7591 H 730.595 3.49059 -3.01588 0
M  V30 7592 H 728.838 3.23671 -2.88825 0
M  V30 7593 H 729.509 4.85068 -2.63464 0
M  V30 7594 H 731.985 4.06822 -0.873778 0
M  V30 7595 H 730.861 5.44228 -0.714648 0
M  V30 7596 H 731.122 4.37239 0.653815 0
M  V30 7597 N 730.181 0.707592 1.40822 0
M  V30 7598 C 731.144 0.0587224 2.29125 0
M  V30 7599 C 732.144 -0.695624 1.44975 0
M  V30 7600 O 733.334 -0.528718 1.65983 0
M  V30 7601 C 730.466 -0.926939 3.28056 0
M  V30 7602 H 731.659 0.836349 2.88002 0
M  V30 7603 H 729.212 0.471778 1.4901 0
M  V30 7604 H 729.947 -1.7319 2.74182 0
M  V30 7605 H 729.732 -0.389015 3.90165 0
M  V30 7606 H 731.222 -1.37837 3.94196 0
M  V30 7607 N 731.66 -1.50943 0.453197 0
M  V30 7608 C 732.57 -2.31884 -0.355963 0
M  V30 7609 C 733.586 -1.41481 -1.01287 0
M  V30 7610 O 734.762 -1.74546 -1.00477 0
M  V30 7611 C 731.827 -3.15668 -1.43369 0
M  V30 7612 C 730.888 -4.2187 -0.795253 0
M  V30 7613 C 730.121 -5.0165 -1.82162 0
M  V30 7614 O 730.344 -4.82266 -3.04592 0
M  V30 7615 O 729.278 -5.85311 -1.40336 0
M  V30 7616 H 733.104 -3.02162 0.305248 0
M  V30 7617 H 730.689 -1.47839 0.215398 0
M  V30 7618 H 732.571 -3.67709 -2.05836 0
M  V30 7619 H 731.246 -2.48137 -2.07869 0
M  V30 7620 H 730.153 -3.73867 -0.132106 0
M  V30 7621 H 731.486 -4.9182 -0.193484 0
M  V30 7622 N 733.138 -0.185124 -1.56509 0
M  V30 7623 C 734.386 0.455357 -1.96903 0
M  V30 7624 C 734.707 1.62839 -1.07277 0
M  V30 7625 O 733.977 1.95385 -0.141966 0
M  V30 7626 H 732.557 0.171218 -0.727113 0
M  V30 7627 H 735.219 -0.26953 -1.93027 0
M  V30 7628 H 734.315 0.80616 -3.01509 0
M  V30 7629 N 734.616 1.57351 0.0885366 0
M  V30 7630 C 735.563 2.02523 1.10693 0
M  V30 7631 C 736.533 0.902736 1.39427 0
M  V30 7632 O 737.718 1.16921 1.50779 0
M  V30 7633 C 734.858 2.46013 2.42016 0
M  V30 7634 C 733.971 3.7181 2.19957 0
M  V30 7635 C 733.106 4.04152 3.44724 0
M  V30 7636 C 732.145 5.2304 3.17956 0
M  V30 7637 N 731.282 5.51102 4.35007 0
M  V30 7638 H 736.122 2.89302 0.714742 0
M  V30 7639 H 733.659 1.43084 0.341378 0
M  V30 7640 H 735.617 2.69274 3.18665 0
M  V30 7641 H 734.247 1.62235 2.79069 0
M  V30 7642 H 733.299 3.55987 1.34079 0
M  V30 7643 H 734.611 4.58604 1.96173 0
M  V30 7644 H 733.765 4.28225 4.29777 0
M  V30 7645 H 732.504 3.15893 3.71568 0
M  V30 7646 H 731.509 4.98781 2.31296 0
M  V30 7647 H 732.734 6.12902 2.92451 0
M  V30 7648 H 730.68 4.65802 4.61914 0
M  V30 7649 H 730.597 6.3228 4.14437 0
M  V30 7650 H 731.865 5.79714 5.21106 0
M  V30 7651 N 736.094 -0.359525 1.53444 0
M  V30 7652 C 737.34 -1.10315 1.70172 0
M  V30 7653 C 737.673 -1.88788 0.455287 0
M  V30 7654 O 736.948 -1.86635 -0.547514 0
M  V30 7655 C 737.231 -2.05744 2.95536 0
M  V30 7656 C 737.084 -1.3084 4.3035 0
M  V30 7657 C 738.403 -3.05784 3.16518 0
M  V30 7658 H 735.522 -0.399662 0.619225 0
M  V30 7659 H 738.164 -0.383338 1.86093 0
M  V30 7660 H 736.314 -2.67125 2.82093 0
M  V30 7661 H 737.986 -0.721959 4.55615 0
M  V30 7662 H 736.229 -0.610283 4.29486 0
M  V30 7663 H 736.9 -2.00718 5.14214 0
M  V30 7664 H 739.376 -2.5451 3.29187 0
M  V30 7665 H 738.252 -3.69772 4.05659 0
M  V30 7666 H 738.513 -3.76289 2.32076 0
M  V30 7667 N 737.572 -1.44907 -0.619662 0
M  V30 7668 C 738.812 -1.49822 -1.39042 0
M  V30 7669 C 739.176 -0.131803 -1.91547 0
M  V30 7670 O 740.377 -0.0556413 -2.68742 0
M  V30 7671 C 738.648 -2.53805 -2.5163 0
M  V30 7672 S 740.207 -2.77855 -3.3962 0
M  V30 7673 H 737.025 -0.529774 -0.474195 0
M  V30 7674 H 739.627 -1.81907 -0.716236 0
M  V30 7675 H 738.331 -3.51772 -2.11387 0
M  V30 7676 H 737.862 -2.23331 -3.23863 0
M  V30 7677 H 739.877 -2.10319 -4.49422 0
M  V30 7678 N 739.05 0.861098 -1.31996 0
M  V30 7679 C 740.327 1.59788 -1.12814 0
M  V30 7680 C 740.707 2.08753 0.313882 0
M  V30 7681 O 740.055 1.87258 1.30946 0
M  V30 7682 C 740.265 2.74901 -2.15012 0
M  V30 7683 C 741.613 3.44643 -2.48004 0
M  V30 7684 O 742.637 2.85119 -2.13508 0
M  V30 7685 O 741.496 4.52044 -3.07113 0
M  V30 7686 H 738.59 0.703408 -0.434909 0
M  V30 7687 H 741.136 0.905788 -1.43505 0
M  V30 7688 H 739.908 2.36198 -3.11971 0
M  V30 7689 H 739.531 3.51792 -1.85279 0
M  V30 7690 N 740.528 1.15101 1.07655 0
M  V30 7691 C 741.939 0.933848 1.61667 0
M  V30 7692 C 742.29 -0.525569 1.8903 0
M  V30 7693 O 741.415 -1.39605 1.65346 0
M  V30 7694 C 742.01 1.68876 2.93711 0
M  V30 7695 C 740.569 1.51697 3.44478 0
M  V30 7696 C 739.716 1.70633 2.18586 0
M  V30 7697 H 742.667 1.30171 0.907816 0
M  V30 7698 H 742.688 1.15645 3.625 0
M  V30 7699 H 742.2 2.7509 2.73764 0
M  V30 7700 H 740.301 0.478635 3.69513 0
M  V30 7701 H 740.414 2.29194 4.20722 0
M  V30 7702 H 738.778 1.13259 2.28132 0
M  V30 7703 H 739.561 2.78206 2.01137 0
M  V30 7704 N 742.006 -1.2595 0.947325 0
M  V30 7705 C 742.936 -2.28521 0.479604 0
M  V30 7706 C 743.917 -1.63469 -0.470293 0
M  V30 7707 O 745.102 -1.90627 -0.370824 0
M  V30 7708 C 742.232 -3.46397 -0.250289 0
M  V30 7709 C 741.186 -4.23578 0.613643 0
M  V30 7710 C 740.512 -5.34131 -0.246568 0
M  V30 7711 C 741.812 -4.86979 1.88809 0
M  V30 7712 H 743.506 -2.67895 1.33688 0
M  V30 7713 H 741.052 -1.28783 0.644274 0
M  V30 7714 H 743.005 -4.17269 -0.588576 0
M  V30 7715 H 741.729 -3.05993 -1.14175 0
M  V30 7716 H 740.388 -3.54478 0.93491 0
M  V30 7717 H 740.036 -4.89968 -1.13756 0
M  V30 7718 H 739.736 -5.86683 0.328123 0
M  V30 7719 H 741.26 -6.07839 -0.579986 0
M  V30 7720 H 742.674 -5.50034 1.61666 0
M  V30 7721 H 741.071 -5.49675 2.40784 0
M  V30 7722 H 742.141 -4.09575 2.5957 0
M  V30 7723 N 743.484 -0.715051 -1.40445 0
M  V30 7724 C 744.724 -0.258742 -2.02756 0
M  V30 7725 C 745.088 1.12661 -1.55472 0
M  V30 7726 O 746.289 1.67988 -2.09842 0
M  V30 7727 C 744.56 -0.335201 -3.55825 0
M  V30 7728 S 746.119 0.044201 -4.38778 0
M  V30 7729 H 742.937 -0.102683 -0.703546 0
M  V30 7730 H 745.539 -0.937151 -1.71574 0
M  V30 7731 H 744.243 -1.34511 -3.87731 0
M  V30 7732 H 743.774 0.361705 -3.91734 0
M  V30 7733 H 745.789 1.26639 -4.79768 0
M  V30 7734 N 744.962 1.50701 -0.461195 0
M  V30 7735 C 746.187 2.07171 0.0974773 0
M  V30 7736 C 746.612 1.32391 1.3362 0
M  V30 7737 O 745.97 0.368676 1.77512 0
M  V30 7738 C 746.018 3.58651 0.374409 0
M  V30 7739 O 745.122 3.85816 1.4567 0
M  V30 7740 H 744.463 0.663944 -0.00862047 0
M  V30 7741 H 746.993 1.94021 -0.649394 0
M  V30 7742 H 747.003 4.03295 0.617843 0
M  V30 7743 H 745.678 4.12498 -0.530829 0
M  V30 7744 H 744.255 3.53018 1.20136 0
M  V30 7745 N 746.441 0.193421 1.56409 0
M  V30 7746 C 747.666 -0.454552 2.02358 0
M  V30 7747 C 748.091 -1.54516 1.07268 0
M  V30 7748 O 747.449 -1.81214 0.0558962 0
M  V30 7749 C 747.497 -0.989469 3.46759 0
M  V30 7750 O 746.601 -2.10244 3.54783 0
M  V30 7751 H 745.942 -0.106417 0.655417 0
M  V30 7752 H 748.472 0.303807 2.02332 0
M  V30 7753 H 748.482 -1.30649 3.86516 0
M  V30 7754 H 747.157 -0.191083 4.15461 0
M  V30 7755 H 745.734 -1.79419 3.26899 0
M  V30 7756 N 747.919 -1.57396 -0.0801906 0
M  V30 7757 C 749.167 -1.86467 -0.779384 0
M  V30 7758 C 749.488 -0.784243 -1.78535 0
M  V30 7759 O 748.758 0.187986 -1.94996 0
M  V30 7760 H 747.338 -0.68806 -0.29083 0
M  V30 7761 H 750 -1.94813 -0.0582749 0
M  V30 7762 H 749.096 -2.83701 -1.30078 0
M  V30 7763 N 749.397 0.351382 -1.53633 0
M  V30 7764 C 750.645 1.09034 -1.70165 0
M  V30 7765 C 750.966 1.89413 -0.463422 0
M  V30 7766 O 750.236 1.888 0.522624 0
M  V30 7767 H 748.816 0.405522 -0.627344 0
M  V30 7768 H 751.478 0.394554 -1.90865 0
M  V30 7769 H 750.574 1.77215 -2.56907 0
M  V30 7770 N 750.875 1.45233 0.611969 0
M  V30 7771 C 752.115 1.50558 1.38245 0
M  V30 7772 C 752.479 0.141959 1.91474 0
M  V30 7773 O 753.68 0.0698926 2.68709 0
M  V30 7774 C 751.951 2.55136 2.50281 0
M  V30 7775 S 753.51 2.79652 3.38142 0
M  V30 7776 H 750.328 0.532281 0.471378 0
M  V30 7777 H 752.93 1.82285 0.706578 0
M  V30 7778 H 751.634 3.52888 2.09518 0
M  V30 7779 H 751.165 2.25045 3.22674 0
M  V30 7780 H 753.18 2.12699 4.48301 0
M  V30 7781 N 752.353 -0.854086 1.3245 0
M  V30 7782 C 753.599 -1.6105 1.24235 0
M  V30 7783 C 753.954 -1.91421 -0.193877 0
M  V30 7784 O 753.247 -1.54599 -1.1318 0
M  V30 7785 C 753.441 -2.93746 2.03587 0
M  V30 7786 C 753.27 -2.76335 3.54781 0
M  V30 7787 C 752.04 -2.74687 4.24117 0
M  V30 7788 C 754.238 -2.50052 4.4942 0
M  V30 7789 N 752.22 -2.48493 5.6136 0
M  V30 7790 C 753.591 -2.33269 5.74444 0
M  V30 7791 C 755.646 -2.35525 4.38671 0
M  V30 7792 C 754.349 -2.03434 6.89933 0
M  V30 7793 C 756.375 -2.07081 5.5396 0
M  V30 7794 C 755.737 -1.91098 6.77983 0
M  V30 7795 H 751.836 -0.593008 0.50977 0
M  V30 7796 H 754.42 -1.00392 1.66822 0
M  V30 7797 H 752.591 -3.52382 1.63345 0
M  V30 7798 H 754.323 -3.58768 1.87263 0
M  V30 7799 H 751.078 -2.87647 3.7624 0
M  V30 7800 H 751.502 -2.38322 6.33665 0
M  V30 7801 H 756.144 -2.46602 3.43435 0
M  V30 7802 H 753.862 -1.91095 7.85181 0
M  V30 7803 H 757.448 -1.96618 5.4757 0
M  V30 7804 H 756.328 -1.69402 7.65684 0
M  V30 7805 N 753.831 -1.1567 -1.07043 0
M  V30 7806 C 755.079 -0.931673 -1.79344 0
M  V30 7807 C 755.4 0.542421 -1.87304 0
M  V30 7808 O 754.67 1.39418 -1.37621 0
M  V30 7809 H 753.25 -0.34171 -0.664262 0
M  V30 7810 H 755.912 -1.45795 -1.29344 0
M  V30 7811 H 755.008 -1.34379 -2.81689 0
M  V30 7812 N 755.309 1.25446 -0.953992 0
M  V30 7813 C 756.72 1.75047 -0.649255 0
M  V30 7814 C 757.071 1.77527 0.835385 0
M  V30 7815 O 756.196 1.39569 1.65377 0
M  V30 7816 C 756.791 3.17889 -1.17183 0
M  V30 7817 C 755.35 3.65052 -0.917267 0
M  V30 7818 C 754.497 2.44124 -1.31525 0
M  V30 7819 H 757.448 1.11342 -1.13087 0
M  V30 7820 H 757.469 3.76768 -0.531616 0
M  V30 7821 H 756.981 3.16052 -2.25239 0
M  V30 7822 H 755.082 3.72305 0.148354 0
M  V30 7823 H 755.195 4.53222 -1.55328 0
M  V30 7824 H 753.559 2.43906 -0.733624 0
M  V30 7825 H 754.342 2.44979 -2.405 0
M  V30 7826 N 756.787 0.722489 1.40064 0
M  V30 7827 C 758.035 0.264455 2.00362 0
M  V30 7828 C 758.356 -1.14847 1.57592 0
M  V30 7829 O 757.626 -1.77982 0.818477 0
M  V30 7830 H 756.206 0.0947846 0.740962 0
M  V30 7831 H 758.868 0.929659 1.71299 0
M  V30 7832 H 757.964 0.302977 3.10626 0
M  V30 7833 N 758.265 -1.50454 0.469181 0
M  V30 7834 C 759.676 -1.86695 0.0136034 0
M  V30 7835 C 760.027 -1.38413 -1.39055 0
M  V30 7836 O 759.152 -0.748294 -2.03051 0
M  V30 7837 C 759.747 -3.38795 0.0179098 0
M  V30 7838 C 758.306 -3.74455 -0.382191 0
M  V30 7839 C 757.453 -2.74338 0.404207 0
M  V30 7840 H 760.404 -1.43225 0.683547 0
M  V30 7841 H 760.425 -3.72321 -0.78468 0
M  V30 7842 H 759.937 -3.73906 1.04 0
M  V30 7843 H 758.038 -3.44944 -1.4087 0
M  V30 7844 H 758.151 -4.79025 -0.084862 0
M  V30 7845 H 756.515 -2.54305 -0.141829 0
M  V30 7846 H 757.298 -3.12293 1.42577 0
M  V30 7847 N 759.743 -0.201713 -1.56304 0
M  V30 7848 C 760.991 0.434447 -1.97375 0
M  V30 7849 C 761.312 1.61692 -1.08998 0
M  V30 7850 O 760.582 1.95223 -0.162682 0
M  V30 7851 H 759.162 0.163497 -0.728888 0
M  V30 7852 H 761.824 -0.289988 -1.92731 0
M  V30 7853 H 760.92 0.774136 -3.02347 0
M  V30 7854 N 761.222 1.57436 0.0718424 0
M  V30 7855 C 762.154 2.00412 1.1121 0
M  V30 7856 C 763.167 0.910074 1.34987 0
M  V30 7857 O 764.356 1.18796 1.33228 0
M  V30 7858 C 761.456 2.32786 2.46301 0
M  V30 7859 C 760.629 3.64036 2.4248 0
M  V30 7860 C 759.688 3.8408 3.59679 0
M  V30 7861 O 758.714 4.55667 3.4111 0
M  V30 7862 N 759.916 3.2643 4.80025 0
M  V30 7863 H 762.681 2.90264 0.746118 0
M  V30 7864 H 760.242 1.59791 0.260495 0
M  V30 7865 H 762.234 2.43368 3.23348 0
M  V30 7866 H 760.804 1.48824 2.74901 0
M  V30 7867 H 760.024 3.64208 1.50818 0
M  V30 7868 H 761.312 4.50217 2.37027 0
M  V30 7869 H 760.71 2.68325 4.98014 0
M  V30 7870 H 759.267 3.42461 5.54584 0
M  V30 7871 N 762.7 -0.34323 1.53817 0
M  V30 7872 C 763.94 -1.09188 1.72793 0
M  V30 7873 C 764.304 -1.85876 0.481062 0
M  V30 7874 O 765.505 -2.63158 0.547851 0
M  V30 7875 C 763.776 -2.00783 2.9567 0
M  V30 7876 S 765.335 -2.82866 3.35459 0
M  V30 7877 H 762.153 -0.368926 0.607795 0
M  V30 7878 H 764.755 -0.370265 1.91962 0
M  V30 7879 H 763.459 -1.43245 3.84589 0
M  V30 7880 H 762.99 -2.77381 2.78968 0
M  V30 7881 H 765.005 -4.03196 2.89218 0
M  V30 7882 N 764.178 -1.45556 -0.604258 0
M  V30 7883 C 765.108 -1.57327 -1.72541 0
M  V30 7884 C 766.089 -0.424637 -1.64714 0
M  V30 7885 O 767.274 -0.648196 -1.83063 0
M  V30 7886 C 764.404 -1.54279 -3.11152 0
M  V30 7887 C 763.358 -2.67893 -3.33792 0
M  V30 7888 C 762.684 -2.499 -4.72709 0
M  V30 7889 C 763.984 -4.0988 -3.23722 0
M  V30 7890 H 765.678 -2.51175 -1.62947 0
M  V30 7891 H 763.224 -1.20884 -0.782504 0
M  V30 7892 H 765.177 -1.6111 -3.89386 0
M  V30 7893 H 763.901 -0.569627 -3.21594 0
M  V30 7894 H 762.56 -2.60495 -2.57949 0
M  V30 7895 H 762.208 -1.50715 -4.79889 0
M  V30 7896 H 761.908 -3.26091 -4.88813 0
M  V30 7897 H 763.432 -2.5859 -5.5314 0
M  V30 7898 H 764.846 -4.18503 -3.91826 0
M  V30 7899 H 763.243 -4.86487 -3.51355 0
M  V30 7900 H 764.313 -4.31553 -2.21111 0
M  V30 7901 N 765.656 0.84705 -1.32902 0
M  V30 7902 C 766.881 1.63925 -1.27056 0
M  V30 7903 C 767.306 1.87443 0.157136 0
M  V30 7904 O 766.664 1.43266 1.11106 0
M  V30 7905 C 766.712 2.97134 -2.04313 0
M  V30 7906 O 765.816 3.88049 -1.39614 0
M  V30 7907 H 765.157 0.499477 -0.437514 0
M  V30 7908 H 767.687 1.05443 -1.75336 0
M  V30 7909 H 767.697 3.46896 -2.14772 0
M  V30 7910 H 766.372 2.79339 -3.08128 0
M  V30 7911 H 764.949 3.46525 -1.3775 0
M  V30 7912 N 767.134 1.16236 1.06428 0
M  V30 7913 C 768.374 0.95369 1.80787 0
M  V30 7914 C 768.738 -0.509495 1.85117 0
M  V30 7915 O 769.939 -0.836822 2.55442 0
M  V30 7916 C 768.21 1.56235 3.21443 0
M  V30 7917 S 769.769 1.49812 4.12434 0
M  V30 7918 H 766.587 0.343004 0.622792 0
M  V30 7919 H 769.189 1.47957 1.27785 0
M  V30 7920 H 767.893 2.62 3.15886 0
M  V30 7921 H 767.424 1.03574 3.79521 0
M  V30 7922 H 769.439 0.49745 4.937 0
M  V30 7923 N 768.612 -1.24939 0.960631 0
M  V30 7924 C 770.028 -1.45039 0.666018 0
M  V30 7925 C 770.228 -1.86021 -0.774501 0
M  V30 7926 O 769.284 -1.99392 -1.54916 0
M  V30 7927 C 770.597 -2.51775 1.64408 0
M  V30 7928 C 772.145 -2.6561 1.65592 0
M  V30 7929 C 772.62 -3.75536 2.62177 0
M  V30 7930 N 774.111 -3.82954 2.60577 0
M  V30 7931 C 774.846 -4.67517 3.31987 0
M  V30 7932 N 774.342 -5.56321 4.1289 0
M  V30 7933 N 776.135 -4.61535 3.20845 0
M  V30 7934 H 768.286 -0.96632 1.89145 0
M  V30 7935 H 770.549 -0.486034 0.813926 0
M  V30 7936 H 770.255 -2.28534 2.67329 0
M  V30 7937 H 770.129 -3.49804 1.41128 0
M  V30 7938 H 772.516 -2.88212 0.633846 0
M  V30 7939 H 772.597 -1.67962 1.92931 0
M  V30 7940 H 772.241 -3.53684 3.64514 0
M  V30 7941 H 772.171 -4.72682 2.32119 0
M  V30 7942 H 774.662 -3.19478 2.01847 0
M  V30 7943 H 774.975 -6.17787 4.64283 0
M  V30 7944 H 773.32 -5.5601 4.16987 0
M  V30 7945 H 776.511 -3.91169 2.57108 0
M  V30 7946 H 776.684 -5.27214 3.76762 0
M  V30 7947 N 770.09 -0.729906 -1.39679 0
M  V30 7948 C 771.038 -0.0756589 -2.32477 0
M  V30 7949 C 772.032 0.731438 -1.52795 0
M  V30 7950 O 773.238 0.633195 -1.68495 0
M  V30 7951 H 769.613 -0.00566492 -0.751979 0
M  V30 7952 H 771.584 -0.874797 -2.85289 0
M  V30 7953 C 770.333 0.821313 -3.37861 0
M  V30 7954 H 769.656 0.209666 -3.9925 0
M  V30 7955 H 771.096 1.24679 -4.05254 0
M  V30 7956 C 769.555 1.9533 -2.74495 0
M  V30 7957 O 770.085 3.04548 -2.61942 0
M  V30 7958 N 768.291 1.74119 -2.3266 0
M  V30 7959 H 767.838 0.852908 -2.4307 0
M  V30 7960 H 767.796 2.50036 -1.90603 0
M  V30 7961 N 771.568 1.50203 -0.477153 0
M  V30 7962 C 772.798 2.0647 0.0731427 0
M  V30 7963 C 773.206 1.3405 1.33518 0
M  V30 7964 O 772.549 0.405164 1.79176 0
M  V30 7965 C 772.611 3.57025 0.421121 0
M  V30 7966 C 772.275 4.50973 -0.739765 0
M  V30 7967 C 773.272 4.939 -1.62353 0
M  V30 7968 C 770.957 4.93581 -0.93181 0
M  V30 7969 C 772.951 5.78149 -2.6837 0
M  V30 7970 C 770.638 5.77612 -1.99519 0
M  V30 7971 C 771.636 6.19798 -2.86949 0
M  V30 7972 O 771.324 7.02152 -3.91456 0
M  V30 7973 H 771.056 0.675969 -0.00648243 0
M  V30 7974 H 773.61 1.94278 -0.66673 0
M  V30 7975 H 771.84 3.67141 1.21426 0
M  V30 7976 H 773.529 3.95632 0.907213 0
M  V30 7977 H 774.295 4.61646 -1.48687 0
M  V30 7978 H 770.174 4.60262 -0.260739 0
M  V30 7979 H 773.718 6.10997 -3.36643 0
M  V30 7980 H 769.615 6.09279 -2.13189 0
M  V30 7981 H 770.383 7.20414 -3.88518 0
M  V30 7982 N 773.046 0.209999 1.56195 0
M  V30 7983 C 774.271 -0.433064 2.02828 0
M  V30 7984 C 774.696 -1.5337 1.08901 0
M  V30 7985 O 774.054 -1.81144 0.0751132 0
M  V30 7986 C 774.102 -0.952635 3.47789 0
M  V30 7987 O 773.206 -2.0647 3.56993 0
M  V30 7988 H 772.547 -0.0994594 0.656509 0
M  V30 7989 H 775.077 0.32525 2.01998 0
M  V30 7990 H 775.087 -1.26542 3.8788 0
M  V30 7991 H 773.762 -0.147007 4.1564 0
M  V30 7992 H 772.339 -1.75942 3.28784 0
M  V30 7993 N 774.524 -1.57472 -0.0634922 0
M  V30 7994 C 775.94 -1.54016 -0.418466 0
M  V30 7995 C 776.14 -0.931376 -1.78683 0
M  V30 7996 O 775.196 -0.537465 -2.46714 0
M  V30 7997 C 776.509 -2.98634 -0.351906 0
M  V30 7998 C 778.057 -3.10012 -0.431494 0
M  V30 7999 C 778.532 -4.56296 -0.394754 0
M  V30 8000 N 780.023 -4.60964 -0.454583 0
M  V30 8001 C 780.758 -5.71643 -0.448501 0
M  V30 8002 N 780.254 -6.91663 -0.396742 0
M  V30 8003 N 782.047 -5.5991 -0.495677 0
M  V30 8004 H 774.198 -1.95409 0.832408 0
M  V30 8005 H 776.461 -0.894769 0.313197 0
M  V30 8006 H 776.167 -3.46766 0.587048 0
M  V30 8007 H 776.041 -3.58955 -1.15893 0
M  V30 8008 H 778.428 -2.61848 -1.36087 0
M  V30 8009 H 778.509 -2.52585 0.404258 0
M  V30 8010 H 778.153 -5.05119 0.530811 0
M  V30 8011 H 778.083 -5.11594 -1.24815 0
M  V30 8012 H 780.574 -3.74598 -0.498496 0
M  V30 8013 H 780.887 -7.71783 -0.396256 0
M  V30 8014 H 779.232 -6.9405 -0.363304 0
M  V30 8015 H 782.423 -4.65046 -0.533864 0
M  V30 8016 H 782.596 -6.46164 -0.487469 0
M  V30 8017 N 776.003 0.335068 -1.53997 0
M  V30 8018 C 777.251 1.07223 -1.71312 0
M  V30 8019 C 777.572 1.88911 -0.483486 0
M  V30 8020 O 776.842 1.89344 0.50257 0
M  V30 8021 H 775.422 0.398846 -0.63161 0
M  V30 8022 H 778.084 0.374288 -1.91272 0
M  V30 8023 H 777.18 1.7448 -2.58772 0
M  V30 8024 N 777.481 1.45874 0.596531 0
M  V30 8025 C 778.729 1.5017 1.35253 0
M  V30 8026 C 779.05 0.149246 1.94428 0
M  V30 8027 O 778.32 -0.82268 1.77789 0
M  V30 8028 H 776.9 0.553052 0.502138 0
M  V30 8029 H 779.562 1.81908 0.699671 0
M  V30 8030 H 778.658 2.24671 2.16632 0
M  V30 8031 N 778.959 -0.83999 1.33349 0
M  V30 8032 C 780.205 -1.59753 1.24927 0
M  V30 8033 C 780.538 -1.93318 -0.184855 0
M  V30 8034 O 779.813 -1.586 -1.12589 0
M  V30 8035 C 780.096 -2.90829 2.12345 0
M  V30 8036 C 779.949 -2.63953 3.6421 0
M  V30 8037 C 781.268 -3.92246 1.99577 0
M  V30 8038 H 778.387 -0.579654 0.45516 0
M  V30 8039 H 781.029 -0.968909 1.63439 0
M  V30 8040 H 779.179 -3.44478 1.79631 0
M  V30 8041 H 780.851 -2.16745 4.07209 0
M  V30 8042 H 779.094 -1.97671 3.86146 0
M  V30 8043 H 779.765 -3.57348 4.20721 0
M  V30 8044 H 782.241 -3.479 2.28265 0
M  V30 8045 H 781.117 -4.81793 2.62996 0
M  V30 8046 H 781.378 -4.3138 0.967673 0
M  V30 8047 N 780.437 -1.16799 -1.0581 0
M  V30 8048 C 781.677 -0.963264 -1.80279 0
M  V30 8049 C 782.041 0.499671 -1.85384 0
M  V30 8050 O 783.242 0.823264 -2.55882 0
M  V30 8051 C 781.513 -1.57938 -3.20609 0
M  V30 8052 S 783.072 -1.51997 -4.11634 0
M  V30 8053 H 779.89 -0.346302 -0.620964 0
M  V30 8054 H 782.492 -1.48632 -1.26999 0
M  V30 8055 H 781.196 -2.63672 -3.14492 0
M  V30 8056 H 780.727 -1.05586 -3.78966 0
M  V30 8057 H 782.742 -0.523625 -4.93429 0
M  V30 8058 N 781.915 1.24427 -0.967243 0
M  V30 8059 C 783.161 1.92772 -0.629812 0
M  V30 8060 C 783.494 1.75436 0.832827 0
M  V30 8061 O 782.769 1.10716 1.59913 0
M  V30 8062 C 783.052 3.45798 -1.00477 0
M  V30 8063 C 782.905 3.72304 -2.52407 0
M  V30 8064 C 784.224 4.36787 -0.538999 0
M  V30 8065 H 781.343 0.700099 -0.230282 0
M  V30 8066 H 783.985 1.46805 -1.20616 0
M  V30 8067 H 782.135 3.8508 -0.514336 0
M  V30 8068 H 783.807 3.42584 -3.08924 0
M  V30 8069 H 782.05 3.17472 -2.95625 0
M  V30 8070 H 782.721 4.7937 -2.73693 0
M  V30 8071 H 785.197 4.04877 -0.959874 0
M  V30 8072 H 784.073 5.4259 -0.829926 0
M  V30 8073 H 784.334 4.38527 0.560923 0
M  V30 8074 N 783.393 0.737304 1.3929 0
M  V30 8075 C 784.621 0.296573 2.04763 0
M  V30 8076 C 785.036 -1.06941 1.55592 0
M  V30 8077 O 784.393 -1.67619 0.721822 0
M  V30 8078 C 784.444 0.291906 3.6032 0
M  V30 8079 O 784.165 1.60397 4.07682 0
M  V30 8080 C 785.666 -0.164708 4.42994 0
M  V30 8081 H 782.886 0.129251 0.658434 0
M  V30 8082 H 785.43 1.0016 1.78293 0
M  V30 8083 H 783.585 -0.364251 3.85684 0
M  V30 8084 H 783.999 1.51909 5.0202 0
M  V30 8085 H 785.473 -0.116814 5.51876 0
M  V30 8086 H 785.95 -1.21022 4.22197 0
M  V30 8087 H 786.556 0.461968 4.22784 0
M  V30 8088 N 784.871 -1.49948 0.485112 0
M  V30 8089 C 785.821 -2.25734 -0.320658 0
M  V30 8090 C 786.805 -1.29907 -0.949373 0
M  V30 8091 O 787.997 -1.54725 -0.859601 0
M  V30 8092 C 785.126 -3.13728 -1.39391 0
M  V30 8093 C 784.212 -4.1701 -0.772225 0
M  V30 8094 N 784.603 -5.05667 0.115782 0
M  V30 8095 C 782.901 -4.33834 -1.03461 0
M  V30 8096 C 783.602 -5.79798 0.47004 0
M  V30 8097 N 782.578 -5.4337 -0.158204 0
M  V30 8098 H 786.38 -2.91647 0.36319 0
M  V30 8099 H 783.894 -1.59602 0.300154 0
M  V30 8100 H 785.891 -3.66639 -1.98447 0
M  V30 8101 H 784.551 -2.49365 -2.0796 0
M  V30 8102 H 785.562 -5.15619 0.485557 0
M  V30 8103 H 782.239 -3.80684 -1.71424 0
M  V30 8104 H 783.629 -6.61177 1.19558 0
M  V30 8105 N 786.349 -0.21828 -1.56081 0
M  V30 8106 C 787.589 0.416193 -2.00118 0
M  V30 8107 C 787.953 1.5718 -1.10265 0
M  V30 8108 O 789.154 2.27206 -1.43635 0
M  V30 8109 C 787.425 0.842781 -3.47321 0
M  V30 8110 S 788.984 1.47182 -4.1338 0
M  V30 8111 H 785.802 0.132219 -0.698598 0
M  V30 8112 H 788.404 -0.326799 -1.92749 0
M  V30 8113 H 787.108 -0.00799925 -4.10399 0
M  V30 8114 H 786.639 1.61867 -3.58556 0
M  V30 8115 H 788.654 2.76087 -4.12299 0
M  V30 8116 N 787.827 1.57504 0.0551401 0
M  V30 8117 C 788.775 2.05884 1.08233 0
M  V30 8118 C 789.769 0.967383 1.39061 0
M  V30 8119 O 790.975 1.15242 1.38273 0
M  V30 8120 H 787.35 0.656673 0.366449 0
M  V30 8121 H 789.321 2.91273 0.648269 0
M  V30 8122 C 788.07 2.53221 2.38273 0
M  V30 8123 H 787.393 3.36809 2.15406 0
M  V30 8124 H 788.833 2.9081 3.08554 0
M  V30 8125 C 787.292 1.42218 3.05411 0
M  V30 8126 O 787.822 0.773638 3.9418 0
M  V30 8127 N 786.028 1.16316 2.66306 0
M  V30 8128 H 785.575 1.69237 1.94207 0
M  V30 8129 H 785.533 0.422534 3.11548 0
M  V30 8130 N 789.305 -0.326896 1.54172 0
M  V30 8131 C 790.552 -1.06523 1.72218 0
M  V30 8132 C 790.88 -1.88119 0.494114 0
M  V30 8133 O 790.135 -1.8855 -0.524147 0
M  V30 8134 C 790.434 -2.0208 2.94785 0
M  V30 8135 C 790.1 -1.36665 4.2969 0
M  V30 8136 C 788.762 -1.18556 4.66367 0
M  V30 8137 C 791.114 -0.896868 5.13425 0
M  V30 8138 C 788.442 -0.521113 5.84381 0
M  V30 8139 C 790.794 -0.246261 6.3212 0
M  V30 8140 C 789.458 -0.052987 6.67479 0
M  V30 8141 H 788.728 -0.389796 0.63019 0
M  V30 8142 H 791.375 -0.342725 1.88408 0
M  V30 8143 H 789.68 -2.8077 2.73268 0
M  V30 8144 H 791.377 -2.59231 3.05941 0
M  V30 8145 H 787.967 -1.51762 4.00832 0
M  V30 8146 H 792.151 -1.02458 4.85609 0
M  V30 8147 H 787.407 -0.36014 6.10338 0
M  V30 8148 H 791.581 0.125775 6.96286 0
M  V30 8149 H 789.208 0.463903 7.58783 0
M  V30 8150 N 790.784 -1.46188 -0.588786 0
M  V30 8151 C 791.714 -1.59148 -1.70863 0
M  V30 8152 C 792.695 -0.442083 -1.64255 0
M  V30 8153 O 793.88 -0.667575 -1.82365 0
M  V30 8154 C 791.01 -1.5757 -3.09498 0
M  V30 8155 C 789.964 -2.71418 -3.30932 0
M  V30 8156 C 789.29 -2.549 -4.70032 0
M  V30 8157 C 790.59 -4.1329 -3.19356 0
M  V30 8158 H 792.284 -2.52889 -1.60274 0
M  V30 8159 H 789.83 -1.21707 -0.769638 0
M  V30 8160 H 791.783 -1.65231 -3.87655 0
M  V30 8161 H 790.507 -0.603705 -3.20972 0
M  V30 8162 H 789.166 -2.63216 -2.55172 0
M  V30 8163 H 788.814 -1.55797 -4.78264 0
M  V30 8164 H 788.514 -3.31257 -4.85327 0
M  V30 8165 H 790.038 -2.64443 -5.50366 0
M  V30 8166 H 791.452 -4.22636 -3.87365 0
M  V30 8167 H 789.849 -4.90187 -3.46175 0
M  V30 8168 H 790.919 -4.33874 -2.16522 0
M  V30 8169 N 792.262 0.832906 -1.33792 0
M  V30 8170 C 793.21 1.96455 -1.24532 0
M  V30 8171 C 794.204 1.68774 -0.145455 0
M  V30 8172 O 795.41 1.77314 -0.309797 0
M  V30 8173 H 791.785 0.645008 -0.386611 0
M  V30 8174 H 793.756 2.01389 -2.20193 0
M  V30 8175 C 792.505 3.32784 -1.00748 0
M  V30 8176 H 791.828 3.54626 -1.84609 0
M  V30 8177 H 793.268 4.12447 -0.98301 0
M  V30 8178 C 791.727 3.35654 0.289475 0
M  V30 8179 O 792.257 3.80281 1.29419 0
M  V30 8180 N 790.463 2.88843 0.3191 0
M  V30 8181 H 790.01 2.52719 -0.499069 0
M  V30 8182 H 789.968 2.91145 1.18667 0
M  V30 8183 N 793.74 1.17359 1.05189 0
M  V30 8184 C 794.988 0.960087 1.77839 0
M  V30 8185 C 795.309 -0.512554 1.88143 0
M  V30 8186 O 794.579 -1.3721 1.39822 0
M  V30 8187 H 793.159 0.352234 0.658741 0
M  V30 8188 H 795.821 1.47834 1.27008 0
M  V30 8189 H 794.917 1.38843 2.79516 0
M  V30 8190 N 795.218 -1.23913 0.973828 0
M  V30 8191 C 796.128 -2.28838 0.516735 0
M  V30 8192 C 797.144 -1.68723 -0.425282 0
M  V30 8193 O 798.32 -1.99201 -0.296819 0
M  V30 8194 C 795.385 -3.46233 -0.179914 0
M  V30 8195 C 794.446 -4.21729 0.80269 0
M  V30 8196 C 793.679 -5.33518 0.139191 0
M  V30 8197 O 793.902 -5.60252 -1.07118 0
M  V30 8198 O 792.836 -5.96088 0.834447 0
M  V30 8199 H 796.662 -2.70067 1.38916 0
M  V30 8200 H 794.247 -1.2972 0.74115 0
M  V30 8201 H 796.129 -4.17514 -0.570991 0
M  V30 8202 H 794.804 -3.06969 -1.02721 0
M  V30 8203 H 793.711 -3.52799 1.24434 0
M  V30 8204 H 795.044 -4.64825 1.61859 0
M  V30 8205 N 796.696 -0.74468 -1.38897 0
M  V30 8206 C 798.107 -0.36568 -1.83084 0
M  V30 8207 C 798.458 1.10436 -1.62168 0
M  V30 8208 O 797.583 1.85281 -1.11804 0
M  V30 8209 C 798.178 -0.656946 -3.3237 0
M  V30 8210 C 796.737 -0.331329 -3.74939 0
M  V30 8211 C 795.884 -0.914661 -2.61781 0
M  V30 8212 H 798.835 -0.941551 -1.27752 0
M  V30 8213 H 798.856 0.0679546 -3.80439 0
M  V30 8214 H 798.368 -1.72693 -3.47561 0
M  V30 8215 H 796.469 0.732426 -3.6533 0
M  V30 8216 H 796.582 -0.820655 -4.72019 0
M  V30 8217 H 794.946 -0.34063 -2.52412 0
M  V30 8218 H 795.729 -1.98949 -2.79775 0
M  V30 8219 N 798.174 1.49689 -0.493057 0
M  V30 8220 C 799.59 1.58907 -0.148526 0
M  V30 8221 C 799.79 1.4991 1.34645 0
M  V30 8222 O 798.846 1.36893 2.12171 0
M  V30 8223 C 800.159 2.91996 -0.718265 0
M  V30 8224 C 801.707 3.05443 -0.683658 0
M  V30 8225 C 802.182 4.41138 -1.23132 0
M  V30 8226 N 803.673 4.47608 -1.19167 0
M  V30 8227 C 804.408 5.51038 -1.5857 0
M  V30 8228 N 803.904 6.61612 -2.05528 0
M  V30 8229 N 805.697 5.41706 -1.50036 0
M  V30 8230 H 797.848 1.5378 -1.46511 0
M  V30 8231 H 800.111 0.727996 -0.607228 0
M  V30 8232 H 799.817 3.04123 -1.7664 0
M  V30 8233 H 799.691 3.76798 -0.17419 0
M  V30 8234 H 802.078 2.92949 0.355626 0
M  V30 8235 H 802.159 2.22344 -1.26479 0
M  V30 8236 H 801.803 4.54382 -2.26935 0
M  V30 8237 H 801.733 5.22864 -0.626201 0
M  V30 8238 H 804.224 3.68274 -0.847524 0
M  V30 8239 H 804.537 7.36622 -2.33685 0
M  V30 8240 H 802.882 6.62674 -2.09497 0
M  V30 8241 H 806.073 4.54212 -1.13176 0
M  V30 8242 H 806.246 6.22188 -1.81068 0
M  V30 8243 N 799.652 0.226554 1.55963 0
M  V30 8244 C 800.562 -0.692725 2.24139 0
M  V30 8245 C 801.578 -1.20971 1.25068 0
M  V30 8246 O 802.754 -1.25027 1.57893 0
M  V30 8247 C 799.819 -1.88183 2.91184 0
M  V30 8248 C 798.88 -1.40633 4.05612 0
M  V30 8249 C 798.113 -2.53875 4.6945 0
M  V30 8250 O 798.336 -3.72129 4.32292 0
M  V30 8251 O 797.27 -2.24792 5.58348 0
M  V30 8252 H 801.096 -0.141921 3.03368 0
M  V30 8253 H 798.681 -0.0041049 1.49399 0
M  V30 8254 H 800.563 -2.57617 3.33484 0
M  V30 8255 H 799.238 -2.42064 2.14911 0
M  V30 8256 H 798.145 -0.67986 3.67871 0
M  V30 8257 H 799.478 -0.913838 4.83642 0
M  V30 8258 N 801.13 -1.57531 -0.0467866 0
M  V30 8259 C 802.377 -1.88451 -0.74112 0
M  V30 8260 C 802.705 -0.821592 -1.76296 0
M  V30 8261 O 801.96 0.179585 -1.94874 0
M  V30 8262 C 802.259 -3.26091 -1.46285 0
M  V30 8263 C 801.925 -4.47171 -0.578669 0
M  V30 8264 C 800.587 -4.80032 -0.335083 0
M  V30 8265 C 802.939 -5.2119 0.0328809 0
M  V30 8266 C 800.267 -5.84309 0.529121 0
M  V30 8267 C 802.619 -6.26383 0.884684 0
M  V30 8268 C 801.283 -6.57729 1.1379 0
M  V30 8269 H 800.553 -0.68959 -0.271195 0
M  V30 8270 H 803.2 -1.915 -0.00132378 0
M  V30 8271 H 801.505 -3.18948 -2.27551 0
M  V30 8272 H 803.202 -3.47258 -2.00532 0
M  V30 8273 H 799.792 -4.21467 -0.778666 0
M  V30 8274 H 803.976 -4.96096 -0.142375 0
M  V30 8275 H 799.232 -6.06981 0.733794 0
M  V30 8276 H 803.406 -6.82888 1.36516 0
M  V30 8277 H 801.033 -7.38355 1.80929 0
M  V30 8278 N 802.608 0.318715 -1.54344 0
M  V30 8279 C 803.571 1.37545 -1.83342 0
M  V30 8280 C 804.571 1.445 -0.705444 0
M  V30 8281 O 805.761 1.44443 -0.973752 0
M  V30 8282 C 802.893 2.76225 -1.99781 0
M  V30 8283 H 804.086 1.13084 -2.77762 0
M  V30 8284 H 801.639 0.554457 -1.46135 0
M  V30 8285 H 802.374 3.05934 -1.07588 0
M  V30 8286 H 802.159 2.7257 -2.81865 0
M  V30 8287 H 803.649 3.52664 -2.23647 0
M  V30 8288 N 804.086 1.46499 0.581025 0
M  V30 8289 C 805.036 1.53606 1.68491 0
M  V30 8290 C 806.02 0.396853 1.55929 0
M  V30 8291 O 807.212 0.645366 1.64815 0
M  V30 8292 C 804.341 1.53089 3.07276 0
M  V30 8293 C 803.427 2.72309 3.25128 0
M  V30 8294 N 803.818 3.97216 3.13134 0
M  V30 8295 C 802.116 2.68568 3.56072 0
M  V30 8296 C 802.817 4.7693 3.33036 0
M  V30 8297 N 801.793 4.08833 3.58269 0
M  V30 8298 H 805.595 2.47976 1.5775 0
M  V30 8299 H 803.109 1.42161 0.785104 0
M  V30 8300 H 805.106 1.56268 3.86505 0
M  V30 8301 H 803.766 0.597969 3.19146 0
M  V30 8302 H 804.777 4.28439 2.90964 0
M  V30 8303 H 801.454 1.84307 3.74616 0
M  V30 8304 H 802.844 5.85879 3.28932 0
M  V30 8305 N 805.565 -0.825799 1.34232 0
M  V30 8306 C 806.475 -1.9684 1.27638 0
M  V30 8307 C 807.491 -1.73018 0.184569 0
M  V30 8308 O 808.667 -1.97172 0.410525 0
M  V30 8309 C 805.732 -3.31084 1.02879 0
M  V30 8310 C 804.793 -3.67933 2.21188 0
M  V30 8311 C 804.026 -4.95772 1.976 0
M  V30 8312 O 804.249 -5.62721 0.93281 0
M  V30 8313 O 803.183 -5.30431 2.84477 0
M  V30 8314 H 807.009 -2.05346 2.23756 0
M  V30 8315 H 804.594 -0.960772 1.1441 0
M  V30 8316 H 806.476 -4.11492 0.908406 0
M  V30 8317 H 805.151 -3.23552 0.0979821 0
M  V30 8318 H 804.058 -2.87981 2.38784 0
M  V30 8319 H 805.391 -3.80147 3.12648 0
M  V30 8320 N 807.043 -1.17915 -1.04565 0
M  V30 8321 C 808.006 -0.903787 -2.10628 0
M  V30 8322 C 809.006 0.10873 -1.60432 0
M  V30 8323 O 810.196 -0.124152 -1.73757 0
M  V30 8324 C 807.328 -0.355017 -3.39046 0
M  V30 8325 H 808.521 -1.84425 -2.3649 0
M  V30 8326 H 806.074 -0.990477 -1.2091 0
M  V30 8327 H 806.809 0.592297 -3.18845 0
M  V30 8328 H 806.594 -1.08484 -3.76794 0
M  V30 8329 H 808.084 -0.180891 -4.17208 0
M  V30 8330 N 808.521 1.23394 -0.980386 0
M  V30 8331 C 809.431 2.28561 -0.528864 0
M  V30 8332 C 810.447 1.68946 0.416329 0
M  V30 8333 O 811.623 1.99355 0.286251 0
M  V30 8334 C 808.688 3.46323 0.16155 0
M  V30 8335 C 807.749 4.21297 -0.825044 0
M  V30 8336 C 806.982 5.33437 -0.167483 0
M  V30 8337 O 807.205 5.60812 1.04146 0
M  V30 8338 O 806.139 5.95637 -0.866047 0
M  V30 8339 H 809.965 2.69326 -1.40346 0
M  V30 8340 H 807.55 1.29325 -0.748019 0
M  V30 8341 H 809.432 4.17811 0.548841 0
M  V30 8342 H 808.107 3.0751 1.01092 0
M  V30 8343 H 807.014 3.52134 -1.26303 0
M  V30 8344 H 808.347 4.6396 -1.64322 0
M  V30 8345 N 809.999 0.752036 1.385 0
M  V30 8346 C 811.239 0.312408 2.01998 0
M  V30 8347 C 811.603 -1.085 1.58404 0
M  V30 8348 O 812.804 -1.62365 2.14222 0
M  V30 8349 C 811.075 0.429423 3.54811 0
M  V30 8350 S 812.634 0.0721487 4.38741 0
M  V30 8351 H 809.452 0.1213 0.700576 0
M  V30 8352 H 812.054 0.982312 1.69029 0
M  V30 8353 H 810.758 1.44743 3.84028 0
M  V30 8354 H 810.289 -0.257716 3.92555 0
M  V30 8355 H 812.304 -1.13875 4.82957 0
M  V30 8356 N 811.477 -1.49425 0.500989 0
M  V30 8357 C 812.724 -2.02453 -0.0435355 0
M  V30 8358 C 813.052 -1.38067 -1.36995 0
M  V30 8359 O 812.307 -0.505557 -1.89057 0
M  V30 8360 C 812.606 -3.56562 -0.24463 0
M  V30 8361 C 812.272 -4.39585 1.00379 0
M  V30 8362 C 810.934 -4.61992 1.346 0
M  V30 8363 C 813.286 -4.87881 1.83361 0
M  V30 8364 C 810.614 -5.2994 2.51755 0
M  V30 8365 C 812.966 -5.57119 2.99669 0
M  V30 8366 C 811.63 -5.77771 3.3427 0
M  V30 8367 H 810.9 -0.740829 -0.0159308 0
M  V30 8368 H 813.547 -1.79725 0.661143 0
M  V30 8369 H 811.852 -3.77969 -1.03183 0
M  V30 8370 H 813.549 -3.95185 -0.6804 0
M  V30 8371 H 810.139 -4.22385 0.727225 0
M  V30 8372 H 814.323 -4.70398 1.58237 0
M  V30 8373 H 809.579 -5.44133 2.788 0
M  V30 8374 H 813.753 -5.93516 3.64296 0
M  V30 8375 H 811.38 -6.30197 4.25154 0
M  V30 8376 N 812.955 -0.234822 -1.55841 0
M  V30 8377 C 814.18 0.400741 -2.03492 0
M  V30 8378 C 814.605 1.51618 -1.11327 0
M  V30 8379 O 813.963 1.81002 -0.103922 0
M  V30 8380 C 814.011 0.897184 -3.49261 0
M  V30 8381 O 813.115 2.00764 -3.60233 0
M  V30 8382 H 812.456 0.0890023 -0.658008 0
M  V30 8383 H 814.986 -0.357345 -2.01455 0
M  V30 8384 H 814.996 1.20356 -3.89844 0
M  V30 8385 H 813.671 0.0808639 -4.15821 0
M  V30 8386 H 812.248 1.70689 -3.31541 0
M  V30 8387 N 814.433 1.57553 0.0384317 0
M  V30 8388 C 815.673 1.90687 0.736069 0
M  V30 8389 C 816.037 0.832381 1.73019 0
M  V30 8390 O 817.238 1.04777 2.47538 0
M  V30 8391 C 815.509 3.28994 1.39635 0
M  V30 8392 S 817.068 3.83944 2.12444 0
M  V30 8393 H 813.886 0.667799 0.244059 0
M  V30 8394 H 816.488 1.95498 -0.00901643 0
M  V30 8395 H 815.192 4.05067 0.659465 0
M  V30 8396 H 814.723 3.27463 2.18018 0
M  V30 8397 H 816.738 3.61916 3.39457 0
M  V30 8398 N 815.911 -0.310526 1.54511 0
M  V30 8399 C 816.861 -1.38405 1.81185 0
M  V30 8400 C 817.845 -1.46355 0.668499 0
M  V30 8401 O 819.037 -1.50668 0.928873 0
M  V30 8402 C 816.166 -2.75059 2.0542 0
M  V30 8403 C 815.252 -2.7137 3.25913 0
M  V30 8404 N 815.643 -2.37298 4.4668 0
M  V30 8405 C 813.941 -3.02484 3.27749 0
M  V30 8406 C 814.642 -2.42669 5.28665 0
M  V30 8407 N 813.618 -2.79639 4.66158 0
M  V30 8408 H 817.42 -1.11012 2.72128 0
M  V30 8409 H 814.934 -0.519068 1.53881 0
M  V30 8410 H 816.931 -3.52451 2.22674 0
M  V30 8411 H 815.591 -3.03372 1.15739 0
M  V30 8412 H 816.602 -2.09917 4.73451 0
M  V30 8413 H 813.279 -3.35754 2.48144 0
M  V30 8414 H 814.669 -2.19206 6.35136 0
M  V30 8415 N 817.389 -1.46805 -0.573248 0
M  V30 8416 C 818.8 -1.46655 -1.15539 0
M  V30 8417 C 819.151 -0.2125 -1.95046 0
M  V30 8418 O 818.276 0.683759 -2.05314 0
M  V30 8419 C 818.871 -2.65711 -2.10198 0
M  V30 8420 C 817.43 -2.68572 -2.63716 0
M  V30 8421 C 816.577 -2.39498 -1.39772 0
M  V30 8422 H 819.528 -1.54547 -0.36068 0
M  V30 8423 H 819.549 -2.41768 -2.93817 0
M  V30 8424 H 819.061 -3.56967 -1.52303 0
M  V30 8425 H 817.162 -1.81414 -3.25453 0
M  V30 8426 H 817.275 -3.68809 -3.05805 0
M  V30 8427 H 815.639 -1.89749 -1.69904 0
M  V30 8428 H 816.422 -3.32942 -0.836943 0
M  V30 8429 N 818.867 0.818669 -1.34668 0
M  V30 8430 C 819.777 1.9616 -1.2868 0
M  V30 8431 C 820.793 1.72918 -0.193742 0
M  V30 8432 O 821.969 1.96951 -0.420975 0
M  V30 8433 C 819.034 3.30534 -1.04633 0
M  V30 8434 C 818.095 3.66755 -2.23136 0
M  V30 8435 C 817.328 4.94717 -2.00227 0
M  V30 8436 O 817.551 5.62218 -0.96264 0
M  V30 8437 O 816.485 5.28915 -2.87286 0
M  V30 8438 H 820.311 2.04157 -2.24842 0
M  V30 8439 H 817.896 0.954691 -1.14917 0
M  V30 8440 H 819.778 4.11005 -0.930216 0
M  V30 8441 H 818.453 3.23495 -0.115139 0
M  V30 8442 H 817.36 2.8671 -2.40308 0
M  V30 8443 H 818.693 3.78484 -3.1466 0
M  V30 8444 N 820.346 1.18468 1.03938 0
M  V30 8445 C 821.586 0.991823 1.78724 0
M  V30 8446 C 821.95 -0.470115 1.86156 0
M  V30 8447 O 823.151 -0.782451 2.5716 0
M  V30 8448 C 821.422 1.63018 3.18056 0
M  V30 8449 S 822.981 1.58527 4.09163 0
M  V30 8450 H 819.799 0.356137 0.615376 0
M  V30 8451 H 822.401 1.50634 1.24618 0
M  V30 8452 H 821.105 2.68642 3.10258 0
M  V30 8453 H 820.636 1.11601 3.77238 0
M  V30 8454 H 822.651 0.602059 4.92534 0
M  V30 8455 N 821.824 -1.22873 0.986916 0
M  V30 8456 C 822.756 -2.23889 0.490537 0
M  V30 8457 C 823.769 -1.57523 -0.411144 0
M  V30 8458 O 824.958 -1.7721 -0.214236 0
M  V30 8459 C 822.058 -3.37488 -0.30902 0
M  V30 8460 C 821.231 -4.33438 0.587354 0
M  V30 8461 C 820.29 -5.25958 -0.159467 0
M  V30 8462 O 819.316 -5.67394 0.453115 0
M  V30 8463 N 820.518 -5.62265 -1.44355 0
M  V30 8464 H 823.283 -2.67109 1.35914 0
M  V30 8465 H 820.844 -1.37111 0.860937 0
M  V30 8466 H 822.836 -3.96365 -0.817139 0
M  V30 8467 H 821.406 -2.934 -1.07868 0
M  V30 8468 H 820.626 -3.72969 1.27622 0
M  V30 8469 H 821.914 -4.94495 1.19801 0
M  V30 8470 H 821.312 -5.30562 -1.96266 0
M  V30 8471 H 819.869 -6.23585 -1.89698 0
M  V30 8472 N 823.302 -0.75937 -1.38099 0
M  V30 8473 C 824.713 -0.385078 -1.82686 0
M  V30 8474 C 825.064 1.0871 -1.6333 0
M  V30 8475 O 824.189 1.84084 -1.13762 0
M  V30 8476 C 824.784 -0.692161 -3.31654 0
M  V30 8477 C 823.343 -0.371077 -3.74566 0
M  V30 8478 C 822.49 -0.942375 -2.60796 0
M  V30 8479 H 825.441 -0.955048 -1.26746 0
M  V30 8480 H 825.462 0.0276001 -3.8049 0
M  V30 8481 H 824.974 -1.76369 -3.4571 0
M  V30 8482 H 823.075 0.693637 -3.66087 0
M  V30 8483 H 823.188 -0.870672 -4.71122 0
M  V30 8484 H 821.552 -0.367383 -2.52036 0
M  V30 8485 H 822.335 -2.01905 -2.77649 0
M  V30 8486 N 824.78 1.49157 -0.508906 0
M  V30 8487 C 825.713 2.26056 0.312103 0
M  V30 8488 C 826.691 1.30982 0.963456 0
M  V30 8489 O 827.875 1.60286 0.992002 0
M  V30 8490 C 825.002 3.06555 1.4402 0
M  V30 8491 C 824.048 4.16844 0.902414 0
M  V30 8492 S 824.881 5.35076 -0.213087 0
M  V30 8493 C 826.037 6.19132 0.917985 0
M  V30 8494 H 826.27 2.95343 -0.340559 0
M  V30 8495 H 823.803 1.51569 -0.294331 0
M  V30 8496 H 825.761 3.53517 2.08653 0
M  V30 8497 H 824.422 2.36722 2.0645 0
M  V30 8498 H 823.615 4.72714 1.74806 0
M  V30 8499 H 823.217 3.72513 0.333156 0
M  V30 8500 H 825.509 6.52556 1.82145 0
M  V30 8501 H 826.452 7.06982 0.397724 0
M  V30 8502 H 826.86 5.51839 1.18889 0
M  V30 8503 N 826.258 0.243083 1.55714 0
M  V30 8504 C 827.168 -0.668913 2.24862 0
M  V30 8505 C 828.184 -1.19638 1.26344 0
M  V30 8506 O 829.36 -1.23345 1.5921 0
M  V30 8507 C 826.425 -1.85084 2.93163 0
M  V30 8508 C 825.486 -1.36323 4.07081 0
M  V30 8509 C 824.719 -2.48882 4.72116 0
M  V30 8510 O 824.942 -3.67523 4.36214 0
M  V30 8511 O 823.876 -2.18857 5.60701 0
M  V30 8512 H 827.702 -0.109737 3.03502 0
M  V30 8513 H 825.287 0.0117411 1.49395 0
M  V30 8514 H 827.169 -2.54065 3.36197 0
M  V30 8515 H 825.844 -2.39771 2.17466 0
M  V30 8516 H 824.751 -0.640804 3.68571 0
M  V30 8517 H 826.084 -0.86249 4.84584 0
M  V30 8518 N 827.736 -1.57571 -0.0300757 0
M  V30 8519 C 828.984 -1.88852 -0.719666 0
M  V30 8520 C 829.305 -0.840645 -1.75949 0
M  V30 8521 O 828.575 0.125854 -1.95495 0
M  V30 8522 H 827.155 -0.696965 -0.268792 0
M  V30 8523 H 829.817 -1.949 0.00373285 0
M  V30 8524 H 828.913 -2.87695 -1.20987 0
M  V30 8525 N 829.214 0.302327 -1.54673 0
M  V30 8526 C 830.442 1.05669 -1.77881 0
M  V30 8527 C 830.857 1.80983 -0.537648 0
M  V30 8528 O 830.214 1.7573 0.492467 0
M  V30 8529 C 830.265 2.03828 -2.98557 0
M  V30 8530 O 829.986 1.3157 -4.17877 0
M  V30 8531 C 831.487 2.91314 -3.34143 0
M  V30 8532 H 828.707 0.313436 -0.593295 0
M  V30 8533 H 831.251 0.342003 -2.0162 0
M  V30 8534 H 829.406 2.70801 -2.7703 0
M  V30 8535 H 829.82 1.97481 -4.85903 0
M  V30 8536 H 831.294 3.56042 -4.21827 0
M  V30 8537 H 831.771 3.59544 -2.52239 0
M  V30 8538 H 832.377 2.29874 -3.57824 0
M  V30 8539 N 830.692 1.47107 0.565454 0
M  V30 8540 C 831.655 1.58535 1.65527 0
M  V30 8541 C 832.655 0.461081 1.54048 0
M  V30 8542 O 833.845 0.725911 1.58355 0
M  V30 8543 C 830.977 1.52204 3.05036 0
M  V30 8544 H 832.17 2.55676 1.56747 0
M  V30 8545 H 829.723 1.35174 0.78471 0
M  V30 8546 H 830.458 0.564071 3.19357 0
M  V30 8547 H 830.243 2.3379 3.14777 0
M  V30 8548 H 831.733 1.63322 3.84338 0
M  V30 8549 N 832.17 -0.811516 1.35101 0
M  V30 8550 C 833.398 -1.59981 1.31201 0
M  V30 8551 C 833.813 -1.8847 -0.111552 0
M  V30 8552 O 833.17 -1.48414 -1.06205 0
M  V30 8553 C 833.221 -2.934 2.11184 0
M  V30 8554 O 832.942 -2.66148 3.4799 0
M  V30 8555 C 834.443 -3.87776 2.14813 0
M  V30 8556 H 831.663 -0.496921 0.450899 0
M  V30 8557 H 834.207 -1.00886 1.77883 0
M  V30 8558 H 832.362 -3.49022 1.68115 0
M  V30 8559 H 832.776 -3.51301 3.89471 0
M  V30 8560 H 834.25 -4.7852 2.75178 0
M  V30 8561 H 834.727 -4.23997 1.14556 0
M  V30 8562 H 835.333 -3.3809 2.58022 0
M  V30 8563 N 833.648 -1.19017 -1.03309 0
M  V30 8564 C 834.888 -1.00129 -1.78195 0
M  V30 8565 C 835.252 0.460236 -1.86402 0
M  V30 8566 O 836.453 0.768802 -2.57571 0
M  V30 8567 C 834.724 -1.64703 -3.17187 0
M  V30 8568 S 836.283 -1.60695 -4.08317 0
M  V30 8569 H 833.101 -0.359395 -0.613479 0
M  V30 8570 H 835.703 -1.51293 -1.23818 0
M  V30 8571 H 834.407 -2.70283 -3.08829 0
M  V30 8572 H 833.938 -1.136 -3.76641 0
M  V30 8573 H 835.953 -0.628171 -4.92208 0
M  V30 8574 N 835.127 1.22348 -0.993418 0
M  V30 8575 C 836.075 2.26315 -0.537052 0
M  V30 8576 C 837.069 1.643 0.412545 0
M  V30 8577 O 838.275 1.77729 0.285008 0
M  V30 8578 H 834.65 0.735792 -0.155286 0
M  V30 8579 H 836.621 2.62157 -1.42535 0
M  V30 8580 C 835.37 3.47449 0.132118 0
M  V30 8581 H 834.693 3.9543 -0.589519 0
M  V30 8582 H 836.133 4.21965 0.414884 0
M  V30 8583 C 834.592 3.07893 1.36761 0
M  V30 8584 O 835.122 3.17338 2.46291 0
M  V30 8585 N 833.328 2.62672 1.24305 0
M  V30 8586 H 832.875 2.55186 0.351826 0
M  V30 8587 H 832.833 2.36574 2.07076 0
M  V30 8588 N 836.605 0.766683 1.37694 0
M  V30 8589 C 837.853 0.328065 1.9942 0
M  V30 8590 C 838.174 -1.09775 1.61166 0
M  V30 8591 O 837.444 -1.75288 0.874686 0
M  V30 8592 H 836.024 0.11831 0.737572 0
M  V30 8593 H 838.686 0.983686 1.68255 0
M  V30 8594 H 837.782 0.401647 3.09505 0
M  V30 8595 N 838.083 -1.48885 0.516809 0
M  V30 8596 C 839.308 -2.0739 -0.0205201 0
M  V30 8597 C 839.733 -1.37259 -1.28614 0
M  V30 8598 O 839.091 -0.434304 -1.76021 0
M  V30 8599 C 839.139 -3.59793 -0.24104 0
M  V30 8600 O 838.243 -3.90957 -1.31251 0
M  V30 8601 H 837.584 -0.663167 0.0332564 0
M  V30 8602 H 840.114 -1.91477 0.720956 0
M  V30 8603 H 840.124 -4.0531 -0.467737 0
M  V30 8604 H 838.799 -4.10244 0.68356 0
M  V30 8605 H 837.376 -3.57234 -1.06951 0
M  V30 8606 N 839.561 -0.251338 -1.55583 0
M  V30 8607 C 840.809 0.371434 -1.98657 0
M  V30 8608 C 841.13 1.58143 -1.14087 0
M  V30 8609 O 840.4 1.94607 -0.224708 0
M  V30 8610 H 838.98 0.140225 -0.733721 0
M  V30 8611 H 841.642 -0.351157 -1.9171 0
M  V30 8612 H 840.738 0.677554 -3.04657 0
M  V30 8613 N 841.039 1.57585 0.0217189 0
M  V30 8614 C 842.264 1.94267 0.726309 0
M  V30 8615 C 842.689 0.851904 1.67703 0
M  V30 8616 O 842.047 -0.191792 1.80283 0
M  V30 8617 C 842.095 3.30023 1.45318 0
M  V30 8618 O 841.199 3.22791 2.5667 0
M  V30 8619 H 840.54 0.634777 0.194818 0
M  V30 8620 H 843.07 2.04585 -0.0249985 0
M  V30 8621 H 843.08 3.65084 1.82147 0
M  V30 8622 H 841.755 4.08972 0.755962 0
M  V30 8623 H 840.332 2.99373 2.2233 0
M  V30 8624 N 842.517 -0.29412 1.54831 0
M  V30 8625 C 843.794 -1.04847 1.65126 0
M  V30 8626 C 844.174 -2.04996 0.503986 0
M  V30 8627 O 843.522 -2.22996 -0.498496 0
M  V30 8628 C 843.732 -1.72418 3.03435 0
M  V30 8629 C 845.08 -2.24362 3.60481 0
M  V30 8630 O 846.104 -1.8244 3.05932 0
M  V30 8631 O 844.963 -3.01196 4.56008 0
M  V30 8632 H 842.057 -0.485032 0.669831 0
M  V30 8633 H 844.603 -0.291659 1.67175 0
M  V30 8634 H 843.375 -0.997351 3.78376 0
M  V30 8635 H 842.998 -2.54839 3.05193 0
M  V30 8636 N 843.995 -1.47404 -0.557645 0
M  V30 8637 C 845.223 -1.57622 -1.34026 0
M  V30 8638 C 845.638 -0.226256 -1.87439 0
M  V30 8639 O 844.995 0.78043 -1.64971 0
M  V30 8640 C 845.046 -2.60111 -2.51047 0
M  V30 8641 O 844.767 -3.89866 -1.99841 0
M  V30 8642 C 846.268 -2.80508 -3.43264 0
M  V30 8643 H 843.488 -0.532271 -0.40857 0
M  V30 8644 H 846.032 -1.93019 -0.675555 0
M  V30 8645 H 844.187 -2.27648 -3.13457 0
M  V30 8646 H 844.601 -4.45864 -2.76234 0
M  V30 8647 H 846.075 -3.56084 -4.21792 0
M  V30 8648 H 846.552 -1.88314 -3.9678 0
M  V30 8649 H 847.158 -3.14166 -2.86671 0
M  V30 8650 N 845.473 0.80434 -1.35529 0
M  V30 8651 C 846.713 1.57489 -1.30295 0
M  V30 8652 C 847.077 1.91621 0.120528 0
M  V30 8653 O 848.278 2.67151 0.297265 0
M  V30 8654 C 846.549 2.82741 -2.18615 0
M  V30 8655 S 848.108 3.73125 -2.30918 0
M  V30 8656 H 844.926 0.539573 -0.463014 0
M  V30 8657 H 847.528 0.948601 -1.70944 0
M  V30 8658 H 846.232 2.55692 -3.21014 0
M  V30 8659 H 845.763 3.50353 -1.78931 0
M  V30 8660 H 847.778 4.73122 -1.49566 0
M  V30 8661 N 846.951 1.19563 1.02676 0
M  V30 8662 C 847.914 0.937182 2.09164 0
M  V30 8663 C 848.914 -0.0831927 1.60585 0
M  V30 8664 O 850.104 0.15178 1.73538 0
M  V30 8665 C 847.236 0.408912 3.38439 0
M  V30 8666 H 848.429 1.88164 2.33526 0
M  V30 8667 H 845.982 1.00959 1.19319 0
M  V30 8668 H 846.717 -0.541497 3.19747 0
M  V30 8669 H 846.502 1.14464 3.7502 0
M  V30 8670 H 847.992 0.247242 4.16867 0
M  V30 8671 N 848.429 -1.21819 0.999893 0
M  V30 8672 C 849.361 -2.23356 0.514256 0
M  V30 8673 C 850.374 -1.5795 -0.394413 0
M  V30 8674 O 851.563 -1.77427 -0.195428 0
M  V30 8675 C 848.663 -3.37797 -0.273207 0
M  V30 8676 C 847.836 -4.32791 0.633293 0
M  V30 8677 C 846.895 -5.26098 -0.103673 0
M  V30 8678 O 845.921 -5.66881 0.513269 0
M  V30 8679 N 847.123 -5.63764 -1.38383 0
M  V30 8680 H 849.888 -2.65653 1.3874 0
M  V30 8681 H 847.449 -1.3619 0.875431 0
M  V30 8682 H 849.441 -3.97209 -0.775053 0
M  V30 8683 H 848.011 -2.94527 -1.0475 0
M  V30 8684 H 847.231 -3.71595 1.31571 0
M  V30 8685 H 848.519 -4.93196 1.25039 0
M  V30 8686 H 847.917 -5.32614 -1.90627 0
M  V30 8687 H 846.474 -6.25562 -1.83073 0
M  V30 8688 N 849.908 -0.773975 -1.37286 0
M  V30 8689 C 851.148 -0.344505 -2.01476 0
M  V30 8690 C 851.512 1.05966 -1.6011 0
M  V30 8691 O 852.713 1.58937 -2.16778 0
M  V30 8692 C 850.984 -0.485816 -3.54083 0
M  V30 8693 S 852.543 -0.141939 -4.3857 0
M  V30 8694 H 849.361 -0.13243 -0.698558 0
M  V30 8695 H 851.963 -1.00908 -1.67445 0
M  V30 8696 H 850.667 -1.50835 -3.81677 0
M  V30 8697 H 850.198 0.195232 -3.92915 0
M  V30 8698 H 852.213 1.06177 -4.84707 0
M  V30 8699 N 851.386 1.48609 -0.524698 0
M  V30 8700 C 852.349 2.28041 0.230166 0
M  V30 8701 C 853.349 1.35065 0.872584 0
M  V30 8702 O 854.539 1.58007 0.73345 0
M  V30 8703 C 851.671 3.13778 1.33252 0
M  V30 8704 H 852.864 2.96239 -0.467161 0
M  V30 8705 H 850.417 1.53763 -0.280452 0
M  V30 8706 H 851.152 2.502 2.06327 0
M  V30 8707 H 850.937 3.82165 0.877058 0
M  V30 8708 H 852.427 3.7371 1.86362 0
M  V30 8709 N 852.864 0.259585 1.55447 0
M  V30 8710 C 853.814 -0.648769 2.18575 0
M  V30 8711 C 854.798 -1.1299 1.14552 0
M  V30 8712 O 855.99 -1.07756 1.4042 0
M  V30 8713 C 853.119 -1.83963 2.89849 0
M  V30 8714 C 852.205 -1.37641 4.01143 0
M  V30 8715 N 852.596 -0.628269 5.01883 0
M  V30 8716 C 850.894 -1.66066 4.1393 0
M  V30 8717 C 851.595 -0.386746 5.80413 0
M  V30 8718 N 850.571 -0.954665 5.35151 0
M  V30 8719 H 854.373 -0.0691616 2.93819 0
M  V30 8720 H 851.887 0.0624525 1.6228 0
M  V30 8721 H 853.884 -2.50151 3.33512 0
M  V30 8722 H 852.544 -2.42334 2.16112 0
M  V30 8723 H 853.555 -0.277123 5.17158 0
M  V30 8724 H 850.232 -2.25484 3.51373 0
M  V30 8725 H 851.622 0.211382 6.71567 0
M  V30 8726 N 854.342 -1.57594 -0.0133615 0
M  V30 8727 C 855.589 -1.8998 -0.70098 0
M  V30 8728 C 855.917 -0.858802 -1.74513 0
M  V30 8729 O 855.172 0.138209 -1.95211 0
M  V30 8730 C 855.471 -3.29121 -1.39336 0
M  V30 8731 C 855.137 -4.48298 -0.483687 0
M  V30 8732 C 853.799 -4.80635 -0.233186 0
M  V30 8733 C 856.151 -5.21003 0.143426 0
M  V30 8734 C 853.479 -5.83055 0.652943 0
M  V30 8735 C 855.831 -6.24366 1.01735 0
M  V30 8736 C 854.495 -6.55168 1.27716 0
M  V30 8737 H 853.765 -0.695187 -0.256507 0
M  V30 8738 H 856.412 -1.9146 0.0392965 0
M  V30 8739 H 854.717 -3.23703 -2.20735 0
M  V30 8740 H 856.414 -3.51433 -1.93121 0
M  V30 8741 H 853.004 -4.23024 -0.689092 0
M  V30 8742 H 857.188 -4.96286 -0.0371139 0
M  V30 8743 H 852.444 -6.05288 0.862379 0
M  V30 8744 H 856.618 -6.79839 1.5097 0
M  V30 8745 H 854.245 -7.34351 1.9655 0
M  V30 8746 N 855.82 0.285905 -1.54985 0
M  V30 8747 C 857.236 0.632405 -1.46536 0
M  V30 8748 C 857.436 1.90074 -0.668888 0
M  V30 8749 O 856.492 2.51839 -0.182586 0
M  V30 8750 C 857.805 0.771361 -2.90638 0
M  V30 8751 C 859.353 0.866262 -3.00774 0
M  V30 8752 C 859.828 1.0371 -4.46103 0
M  V30 8753 N 861.319 1.10294 -4.49877 0
M  V30 8754 C 862.054 1.25369 -5.59527 0
M  V30 8755 N 861.55 1.37246 -6.7907 0
M  V30 8756 N 863.343 1.28377 -5.47244 0
M  V30 8757 H 855.494 -0.547226 -2.0523 0
M  V30 8758 H 857.757 -0.183298 -0.930111 0
M  V30 8759 H 857.463 -0.0899485 -3.51585 0
M  V30 8760 H 857.337 1.65569 -3.3892 0
M  V30 8761 H 859.724 1.71805 -2.39931 0
M  V30 8762 H 859.805 -0.0424049 -2.55765 0
M  V30 8763 H 859.449 0.190021 -5.07544 0
M  V30 8764 H 859.379 1.96022 -4.88757 0
M  V30 8765 H 861.87 1.02407 -3.6376 0
M  V30 8766 H 862.183 1.48546 -7.58389 0
M  V30 8767 H 860.528 1.34274 -6.81906 0
M  V30 8768 H 863.719 1.1872 -4.52795 0
M  V30 8769 H 863.892 1.39782 -6.32744 0
M  V30 8770 N 857.298 1.47698 0.54982 0
M  V30 8771 C 858.575 1.45185 1.31075 0
M  V30 8772 C 858.955 0.152768 2.10547 0
M  V30 8773 O 858.303 -0.865706 2.11466 0
M  V30 8774 C 858.513 2.70192 2.20902 0
M  V30 8775 C 859.861 3.1771 2.81683 0
M  V30 8776 O 860.885 2.70971 2.312 0
M  V30 8777 O 859.744 3.98986 3.7346 0
M  V30 8778 H 856.838 0.57892 0.590577 0
M  V30 8779 H 859.384 1.59908 0.568112 0
M  V30 8780 H 858.156 3.56269 1.61828 0
M  V30 8781 H 857.779 2.58091 3.02448 0
M  V30 8782 N 858.776 -0.797141 1.35954 0
M  V30 8783 C 860.024 -1.55161 1.29497 0
M  V30 8784 C 860.345 -1.94582 -0.127659 0
M  V30 8785 O 859.615 -1.64343 -1.06622 0
M  V30 8786 H 858.195 -0.575413 0.47635 0
M  V30 8787 H 860.857 -0.950282 1.70164 0
M  V30 8788 H 859.953 -2.46272 1.9172 0
M  V30 8789 N 860.254 -1.20106 -1.0204 0
M  V30 8790 C 861.665 -1.00992 -1.57027 0
M  V30 8791 C 862.016 0.434782 -1.91322 0
M  V30 8792 O 861.141 1.31557 -1.71819 0
M  V30 8793 C 861.736 -1.82697 -2.85319 0
M  V30 8794 C 860.295 -1.67959 -3.36848 0
M  V30 8795 C 859.442 -1.80868 -2.10195 0
M  V30 8796 H 862.393 -1.34354 -0.844676 0
M  V30 8797 H 862.414 -1.32809 -3.5657 0
M  V30 8798 H 861.926 -2.87839 -2.60328 0
M  V30 8799 H 860.027 -0.654389 -3.66809 0
M  V30 8800 H 860.14 -2.49006 -4.09308 0
M  V30 8801 H 858.504 -1.24015 -2.22469 0
M  V30 8802 H 859.287 -2.87486 -1.87635 0
M  V30 8803 N 861.732 1.21287 -1.00634 0
M  V30 8804 C 862.682 2.21541 -0.53886 0
M  V30 8805 C 863.666 1.55842 0.400256 0
M  V30 8806 O 864.858 1.75566 0.224889 0
M  V30 8807 C 861.987 3.43047 0.131796 0
M  V30 8808 C 861.073 4.1593 -0.828419 0
M  V30 8809 N 861.464 4.65359 -1.98178 0
M  V30 8810 C 859.762 4.41281 -0.647083 0
M  V30 8811 C 860.463 5.21079 -2.58557 0
M  V30 8812 N 859.439 5.10531 -1.86705 0
M  V30 8813 H 863.241 2.57413 -1.41831 0
M  V30 8814 H 860.755 1.37109 -0.870338 0
M  V30 8815 H 862.752 4.14079 0.484178 0
M  V30 8816 H 861.412 3.08683 1.00721 0
M  V30 8817 H 862.423 4.60896 -2.3621 0
M  V30 8818 H 859.1 4.17107 0.181139 0
M  V30 8819 H 860.49 5.6977 -3.56107 0
M  V30 8820 N 863.21 0.781244 1.36873 0
M  V30 8821 C 864.45 0.355185 2.0129 0
M  V30 8822 C 864.814 -1.05115 1.6067 0
M  V30 8823 O 866.015 -1.57785 2.17618 0
M  V30 8824 C 864.286 0.504587 3.5382 0
M  V30 8825 S 865.845 0.165196 4.38489 0
M  V30 8826 H 862.663 0.136133 0.697846 0
M  V30 8827 H 865.265 1.01794 1.66908 0
M  V30 8828 H 863.969 1.52857 3.80871 0
M  V30 8829 H 863.5 -0.174392 3.93013 0
M  V30 8830 H 865.515 -1.03605 4.85263 0
M  V30 8831 N 864.689 -1.48329 0.532571 0
M  V30 8832 C 865.935 -2.028 -0.000583219 0
M  V30 8833 C 866.268 -1.40858 -1.33688 0
M  V30 8834 O 865.543 -0.555261 -1.86406 0
M  V30 8835 C 865.826 -3.59901 -0.119846 0
M  V30 8836 C 865.679 -4.32318 1.2418 0
M  V30 8837 C 866.998 -4.31904 -0.845372 0
M  V30 8838 H 864.117 -0.736999 0.00126205 0
M  V30 8839 H 866.759 -1.77024 0.690102 0
M  V30 8840 H 864.909 -3.81993 -0.708092 0
M  V30 8841 H 866.581 -4.21637 1.87136 0
M  V30 8842 H 864.824 -3.93635 1.82301 0
M  V30 8843 H 865.495 -5.40697 1.11132 0
M  V30 8844 H 867.971 -4.14658 -0.346159 0
M  V30 8845 H 866.847 -5.41509 -0.897723 0
M  V30 8846 H 867.108 -3.99369 -1.89622 0
M  V30 8847 N 866.167 -0.267825 -1.55308 0
M  V30 8848 C 867.392 0.357487 -2.04296 0
M  V30 8849 C 867.817 1.49222 -1.14518 0
M  V30 8850 O 867.175 1.80741 -0.142292 0
M  V30 8851 C 867.223 0.822899 -3.51085 0
M  V30 8852 O 866.327 1.93078 -3.6441 0
M  V30 8853 H 865.668 0.075025 -0.659748 0
M  V30 8854 H 868.198 -0.399996 -2.00652 0
M  V30 8855 H 868.208 1.12059 -3.92309 0
M  V30 8856 H 866.883 -0.0073562 -4.15899 0
M  V30 8857 H 865.46 1.63618 -3.35087 0
M  V30 8858 N 867.645 1.57599 0.00500368 0
M  V30 8859 C 868.87 1.95026 0.705663 0
M  V30 8860 C 869.295 0.869643 1.6679 0
M  V30 8861 O 868.653 -0.172659 1.80476 0
M  V30 8862 C 868.701 3.31545 1.4181 0
M  V30 8863 O 867.805 3.25495 2.53232 0
M  V30 8864 H 867.146 0.636808 0.188074 0
M  V30 8865 H 869.676 2.04547 -0.046696 0
M  V30 8866 H 869.686 3.66996 1.78265 0
M  V30 8867 H 868.361 4.09751 0.712543 0
M  V30 8868 H 866.938 3.01714 2.19142 0
M  V30 8869 N 869.123 -0.277682 1.55134 0
M  V30 8870 C 870.363 -1.01761 1.77269 0
M  V30 8871 C 870.727 -1.83668 0.559465 0
M  V30 8872 O 871.928 -2.60597 0.658972 0
M  V30 8873 C 870.199 -1.88062 3.0392 0
M  V30 8874 S 871.758 -2.68383 3.47154 0
M  V30 8875 H 868.576 -0.342816 0.622895 0
M  V30 8876 H 871.178 -0.288514 1.93359 0
M  V30 8877 H 869.882 -1.26805 3.90319 0
M  V30 8878 H 869.413 -2.65299 2.90482 0
M  V30 8879 H 871.428 -3.90567 3.06059 0
M  V30 8880 N 870.601 -1.47988 -0.541979 0
M  V30 8881 C 872.012 -1.49073 -1.12402 0
M  V30 8882 C 872.363 -0.253825 -1.94551 0
M  V30 8883 O 871.488 0.640056 -2.06718 0
M  V30 8884 C 872.083 -2.7011 -2.04514 0
M  V30 8885 C 870.642 -2.74105 -2.5796 0
M  V30 8886 C 869.789 -2.42409 -1.3466 0
M  V30 8887 H 872.74 -1.55277 -0.327818 0
M  V30 8888 H 872.761 -2.47946 -2.88623 0
M  V30 8889 H 872.273 -3.60117 -1.44697 0
M  V30 8890 H 870.374 -1.88276 -3.21532 0
M  V30 8891 H 870.487 -3.75213 -2.97913 0
M  V30 8892 H 868.851 -1.9331 -1.65841 0
M  V30 8893 H 869.634 -3.34642 -0.766133 0
M  V30 8894 N 872.079 0.78992 -1.36375 0
M  V30 8895 C 873.029 1.89227 -1.27189 0
M  V30 8896 C 874.013 1.60067 -0.163498 0
M  V30 8897 O 875.205 1.72507 -0.396262 0
M  V30 8898 C 872.334 3.26431 -1.06292 0
M  V30 8899 C 871.42 3.61602 -2.21596 0
M  V30 8900 N 871.811 3.68086 -3.4691 0
M  V30 8901 C 870.109 3.9166 -2.1335 0
M  V30 8902 C 870.81 3.99481 -4.22835 0
M  V30 8903 N 869.786 4.14438 -3.5177 0
M  V30 8904 H 873.588 1.92465 -2.22113 0
M  V30 8905 H 871.102 0.985414 -1.29087 0
M  V30 8906 H 873.099 4.05267 -0.97798 0
M  V30 8907 H 871.759 3.24468 -0.122676 0
M  V30 8908 H 872.77 3.50743 -3.81051 0
M  V30 8909 H 869.447 3.97626 -1.27279 0
M  V30 8910 H 870.837 4.11425 -5.31205 0
M  V30 8911 N 873.557 1.20646 1.01402 0
M  V30 8912 C 874.805 1.01618 1.74695 0
M  V30 8913 C 875.126 -0.452438 1.89679 0
M  V30 8914 O 874.396 -1.32693 1.44116 0
M  V30 8915 H 872.976 0.373013 0.647202 0
M  V30 8916 H 875.638 1.518 1.22241 0
M  V30 8917 H 874.734 1.47666 2.74957 0
M  V30 8918 N 875.035 -1.20752 1.01276 0
M  V30 8919 C 876.281 -1.90302 0.700924 0
M  V30 8920 C 876.614 -1.78406 -0.767142 0
M  V30 8921 O 875.889 -1.16575 -1.55694 0
M  V30 8922 C 876.172 -3.41831 1.13242 0
M  V30 8923 C 876.025 -3.6268 2.66051 0
M  V30 8924 C 877.344 -4.34486 0.700738 0
M  V30 8925 H 874.463 -0.69107 0.256107 0
M  V30 8926 H 877.105 -1.42227 1.25982 0
M  V30 8927 H 875.255 -3.82906 0.656902 0
M  V30 8928 H 876.927 -3.30882 3.21426 0
M  V30 8929 H 875.17 -3.06281 3.07204 0
M  V30 8930 H 875.841 -4.68882 2.91296 0
M  V30 8931 H 878.317 -4.01036 1.10948 0
M  V30 8932 H 877.193 -5.39136 1.03073 0
M  V30 8933 H 877.454 -4.40307 -0.39778 0
M  V30 8934 N 876.513 -0.788492 -1.36457 0
M  V30 8935 C 877.443 -0.200468 -2.32638 0
M  V30 8936 C 878.424 0.664031 -1.56603 0
M  V30 8937 O 879.609 0.598045 -1.84762 0
M  V30 8938 C 876.739 0.666274 -3.40849 0
M  V30 8939 C 875.693 -0.0982574 -4.27887 0
M  V30 8940 C 875.019 0.889018 -5.27258 0
M  V30 8941 C 876.319 -1.28692 -5.06197 0
M  V30 8942 H 878.013 -1.00399 -2.82065 0
M  V30 8943 H 875.559 -0.484237 -1.35614 0
M  V30 8944 H 877.512 1.08757 -4.07124 0
M  V30 8945 H 876.236 1.50249 -2.89987 0
M  V30 8946 H 874.895 -0.500525 -3.63167 0
M  V30 8947 H 874.543 1.72024 -4.7267 0
M  V30 8948 H 874.243 0.381909 -5.86358 0
M  V30 8949 H 875.767 1.30891 -5.96406 0
M  V30 8950 H 877.181 -0.941429 -5.65517 0
M  V30 8951 H 875.578 -1.72726 -5.74705 0
M  V30 8952 H 876.648 -2.08273 -4.37893 0
M  V30 8953 N 877.991 1.48044 -0.54043 0
M  V30 8954 C 879.239 2.02097 -0.0101367 0
M  V30 8955 C 879.56 1.41881 1.33771 0
M  V30 8956 O 878.83 0.587923 1.8687 0
M  V30 8957 H 877.41 0.747 -0.000758716 0
M  V30 8958 H 880.072 1.81639 -0.706634 0
M  V30 8959 H 879.168 3.11969 0.0904474 0
M  V30 8960 N 879.47 0.276058 1.55163 0
M  V30 8961 C 880.433 -0.597924 2.21263 0
M  V30 8962 C 881.433 -1.0806 1.19078 0
M  V30 8963 O 882.623 -0.980626 1.43977 0
M  V30 8964 C 879.755 -1.82503 2.87933 0
M  V30 8965 H 880.948 -0.0207769 2.99893 0
M  V30 8966 H 878.501 0.0266823 1.56277 0
M  V30 8967 H 879.236 -2.44266 2.13318 0
M  V30 8968 H 879.021 -1.48683 3.62816 0
M  V30 8969 H 880.511 -2.44651 3.38431 0
M  V30 8970 N 880.948 -1.576 0.00335426 0
M  V30 8971 C 881.895 -2.08632 -0.986975 0
M  V30 8972 C 882.865 -0.982491 -1.33927 0
M  V30 8973 O 884.05 -1.25513 -1.43705 0
M  V30 8974 C 881.19 -2.59705 -2.27261 0
M  V30 8975 C 880.303 -3.84002 -1.97905 0
M  V30 8976 C 879.438 -4.23563 -3.20574 0
M  V30 8977 C 878.477 -5.40688 -2.8692 0
M  V30 8978 N 877.614 -5.75526 -4.02136 0
M  V30 8979 H 882.454 -2.92977 -0.544855 0
M  V30 8980 H 879.991 -1.44831 -0.257376 0
M  V30 8981 H 881.949 -2.87395 -3.02423 0
M  V30 8982 H 880.579 -1.7823 -2.69136 0
M  V30 8983 H 879.631 -3.63199 -1.13096 0
M  V30 8984 H 880.943 -4.69261 -1.69102 0
M  V30 8985 H 880.097 -4.52554 -4.04079 0
M  V30 8986 H 878.836 -3.37019 -3.52518 0
M  V30 8987 H 877.841 -5.11417 -2.01822 0
M  V30 8988 H 879.066 -6.2891 -2.5622 0
M  V30 8989 H 877.012 -4.9194 -4.33971 0
M  V30 8990 H 876.929 -6.55367 -3.76869 0
M  V30 8991 H 878.197 -6.0911 -4.8642 0
M  V30 8992 N 882.426 0.269451 -1.5528 0
M  V30 8993 C 883.674 0.998604 -1.75705 0
M  V30 8994 C 883.995 1.86691 -0.563175 0
M  V30 8995 O 883.265 1.91305 0.421811 0
M  V30 8996 H 881.845 0.371698 -0.647958 0
M  V30 8997 H 884.507 0.292826 -1.92688 0
M  V30 8998 H 883.603 1.63348 -2.6594 0
M  V30 8999 N 883.904 1.48273 0.534124 0
M  V30 9000 C 885.315 1.49667 1.1161 0
M  V30 9001 C 885.666 0.264139 1.94414 0
M  V30 9002 O 884.791 -0.629084 2.07054 0
M  V30 9003 C 885.386 2.71191 2.03079 0
M  V30 9004 C 883.945 2.7547 2.56502 0
M  V30 9005 C 883.092 2.43119 1.33373 0
M  V30 9006 H 886.043 1.55449 0.319578 0
M  V30 9007 H 886.064 2.49473 2.87304 0
M  V30 9008 H 885.576 3.60879 1.42785 0
M  V30 9009 H 883.677 1.89979 3.20529 0
M  V30 9010 H 883.79 3.76787 2.95919 0
M  V30 9011 H 882.154 1.94187 1.64813 0
M  V30 9012 H 882.937 3.35044 0.748375 0
M  V30 9013 N 885.382 -0.782676 1.36792 0
M  V30 9014 C 886.631 -1.53605 1.30723 0
M  V30 9015 C 886.944 -1.95294 -0.109296 0
M  V30 9016 O 888.15 -2.69921 -0.292398 0
M  V30 9017 C 886.606 -2.77321 2.29393 0
M  V30 9018 C 886.214 -2.42774 3.76517 0
M  V30 9019 C 887.958 -3.55289 2.32314 0
M  V30 9020 C 885.865 -3.62926 4.66947 0
M  V30 9021 H 884.795 -0.576646 0.485794 0
M  V30 9022 H 887.446 -0.858255 1.62192 0
M  V30 9023 H 885.828 -3.46934 1.90927 0
M  V30 9024 H 887.002 -1.81014 4.23758 0
M  V30 9025 H 885.317 -1.78002 3.76436 0
M  V30 9026 H 887.914 -4.44573 2.97083 0
M  V30 9027 H 888.257 -3.94361 1.3336 0
M  V30 9028 H 888.79 -2.92662 2.69432 0
M  V30 9029 H 885.529 -3.28944 5.66989 0
M  V30 9030 H 885.049 -4.23828 4.24418 0
M  V30 9031 H 886.728 -4.29873 4.83548 0
M  V30 9032 N 886.86 -1.21182 -1.00761 0
M  V30 9033 C 888.09 -1.05182 -1.77821 0
M  V30 9034 C 888.498 0.401527 -1.8489 0
M  V30 9035 O 887.841 1.29042 -1.30743 0
M  V30 9036 C 887.903 -1.57066 -3.23374 0
M  V30 9037 C 887.567 -3.05491 -3.39889 0
M  V30 9038 C 888.564 -4.03065 -3.28381 0
M  V30 9039 C 886.249 -3.44641 -3.65415 0
M  V30 9040 C 888.243 -5.37778 -3.4216 0
M  V30 9041 C 885.93 -4.79507 -3.78836 0
M  V30 9042 C 886.928 -5.75884 -3.67214 0
M  V30 9043 O 886.616 -7.08304 -3.80212 0
M  V30 9044 H 886.348 -0.369983 -0.565763 0
M  V30 9045 H 888.902 -1.60914 -1.27655 0
M  V30 9046 H 887.132 -0.957273 -3.74664 0
M  V30 9047 H 888.821 -1.36949 -3.82099 0
M  V30 9048 H 889.587 -3.74163 -3.08588 0
M  V30 9049 H 885.466 -2.7016 -3.73544 0
M  V30 9050 H 889.01 -6.12987 -3.33005 0
M  V30 9051 H 884.907 -5.08096 -3.98132 0
M  V30 9052 H 885.675 -7.15677 -3.97175 0
M  V30 9053 N 888.338 1.20213 -1.01915 0
M  V30 9054 C 889.285 2.2309 -0.591571 0
M  V30 9055 C 890.255 1.61465 0.389649 0
M  V30 9056 O 891.44 1.88606 0.288511 0
M  V30 9057 C 888.58 3.45045 0.0614028 0
M  V30 9058 C 887.693 4.21091 -0.964688 0
M  V30 9059 C 886.828 5.30448 -0.282499 0
M  V30 9060 C 885.867 5.98241 -1.29517 0
M  V30 9061 N 885.004 6.99182 -0.639472 0
M  V30 9062 H 889.844 2.59023 -1.47347 0
M  V30 9063 H 887.381 1.27274 -0.737547 0
M  V30 9064 H 889.339 4.14688 0.45714 0
M  V30 9065 H 887.969 3.09797 0.906937 0
M  V30 9066 H 887.021 3.50489 -1.47857 0
M  V30 9067 H 888.333 4.67662 -1.73475 0
M  V30 9068 H 887.487 6.06466 0.168603 0
M  V30 9069 H 886.226 4.84922 0.519843 0
M  V30 9070 H 885.231 5.20982 -1.75663 0
M  V30 9071 H 886.456 6.45853 -2.09884 0
M  V30 9072 H 884.402 6.55844 0.142955 0
M  V30 9073 H 884.319 7.43893 -1.34756 0
M  V30 9074 H 885.587 7.79212 -0.212047 0
M  V30 9075 N 889.816 0.795718 1.36037 0
M  V30 9076 C 891.046 0.382597 2.03026 0
M  V30 9077 C 891.454 -1.00779 1.60126 0
M  V30 9078 O 890.797 -1.65884 0.78919 0
M  V30 9079 C 890.859 0.374145 3.57548 0
M  V30 9080 C 890.523 1.71318 4.23673 0
M  V30 9081 C 891.52 2.6697 4.4612 0
M  V30 9082 C 889.205 1.99421 4.61017 0
M  V30 9083 C 891.199 3.88916 5.04998 0
M  V30 9084 C 888.886 3.21632 5.19611 0
M  V30 9085 C 889.884 4.16198 5.41542 0
M  V30 9086 O 889.572 5.36254 5.98905 0
M  V30 9087 H 889.304 0.154944 0.658003 0
M  V30 9088 H 891.858 1.07756 1.74865 0
M  V30 9089 H 890.088 -0.377349 3.84854 0
M  V30 9090 H 891.777 -0.01517 4.05897 0
M  V30 9091 H 892.543 2.46548 4.17659 0
M  V30 9092 H 888.422 1.2663 4.43267 0
M  V30 9093 H 891.966 4.6274 5.22032 0
M  V30 9094 H 887.863 3.4193 5.47498 0
M  V30 9095 H 888.631 5.37403 6.17366 0
M  V30 9096 N 891.294 -1.47756 0.548274 0
M  V30 9097 C 892.705 -1.8636 0.112547 0
M  V30 9098 C 893.056 -1.45589 -1.31523 0
M  V30 9099 O 892.181 -0.854874 -1.98799 0
M  V30 9100 C 892.776 -3.38224 0.197473 0
M  V30 9101 C 891.335 -3.75954 -0.183163 0
M  V30 9102 C 890.482 -2.7181 0.549059 0
M  V30 9103 H 893.433 -1.394 0.758506 0
M  V30 9104 H 893.454 -3.75957 -0.586217 0
M  V30 9105 H 892.966 -3.67868 1.23673 0
M  V30 9106 H 891.067 -3.51926 -1.22387 0
M  V30 9107 H 891.18 -4.78801 0.169178 0
M  V30 9108 H 889.544 -2.54699 -0.00682862 0
M  V30 9109 H 890.327 -3.04296 1.5893 0
M  V30 9110 N 892.772 -0.284283 -1.55015 0
M  V30 9111 C 894.049 0.382125 -1.91831 0
M  V30 9112 C 894.429 1.73007 -1.20962 0
M  V30 9113 O 893.777 2.25962 -0.339594 0
M  V30 9114 C 893.987 0.513341 -3.45204 0
M  V30 9115 C 895.335 0.791989 -4.17148 0
M  V30 9116 O 896.359 0.597799 -3.51148 0
M  V30 9117 O 895.218 1.16394 -5.33961 0
M  V30 9118 H 892.312 0.210707 -0.799707 0
M  V30 9119 H 894.858 -0.331111 -1.66438 0
M  V30 9120 H 893.63 -0.434911 -3.88876 0
M  V30 9121 H 893.253 1.27569 -3.76579 0
M  V30 9122 N 894.251 1.57596 -0.0117121 0
M  V30 9123 C 895.497 1.91355 0.671661 0
M  V30 9124 C 895.83 0.886818 1.72769 0
M  V30 9125 O 895.105 -0.0928813 1.94278 0
M  V30 9126 C 895.388 3.35657 1.30409 0
M  V30 9127 C 895.241 4.49055 0.2588 0
M  V30 9128 C 896.56 3.79595 2.22701 0
M  V30 9129 H 893.679 0.695893 0.242698 0
M  V30 9130 H 896.321 1.89887 -0.0654071 0
M  V30 9131 H 894.471 3.37038 1.9323 0
M  V30 9132 H 896.143 4.59809 -0.370631 0
M  V30 9133 H 894.386 4.31785 -0.417672 0
M  V30 9134 H 895.057 5.4701 0.740578 0
M  V30 9135 H 897.533 3.7984 1.69885 0
M  V30 9136 H 896.409 4.81292 2.63912 0
M  V30 9137 H 896.67 3.14118 3.11098 0
M  V30 9138 N 895.729 -0.261212 1.5542 0
M  V30 9139 C 896.661 -1.34571 1.85535 0
M  V30 9140 C 897.674 -1.44979 0.740612 0
M  V30 9141 O 898.863 -1.46584 1.01859 0
M  V30 9142 C 895.963 -2.7258 2.01378 0
M  V30 9143 C 895.136 -2.84618 3.32131 0
M  V30 9144 C 894.195 -4.03379 3.37893 0
M  V30 9145 O 893.221 -3.93581 4.11197 0
M  V30 9146 N 894.423 -5.15893 2.66148 0
M  V30 9147 H 897.188 -1.09078 2.79145 0
M  V30 9148 H 894.749 -0.451327 1.55482 0
M  V30 9149 H 896.741 -3.50342 2.0259 0
M  V30 9150 H 895.311 -2.90844 1.14579 0
M  V30 9151 H 894.531 -1.93647 3.43358 0
M  V30 9152 H 895.819 -2.896 4.18341 0
M  V30 9153 H 895.217 -5.26743 2.06297 0
M  V30 9154 H 893.774 -5.91842 2.73069 0
M  V30 9155 N 897.207 -1.48554 -0.526253 0
M  V30 9156 C 898.155 -1.63804 -1.65139 0
M  V30 9157 C 899.149 -0.504398 -1.61716 0
M  V30 9158 O 900.355 -0.683241 -1.66529 0
M  V30 9159 H 896.73 -0.516071 -0.546969 0
M  V30 9160 H 898.701 -2.58294 -1.49421 0
M  V30 9161 C 897.45 -1.69843 -3.03395 0
M  V30 9162 H 896.773 -2.56438 -3.06724 0
M  V30 9163 H 898.213 -1.84555 -3.81727 0
M  V30 9164 C 896.672 -0.437875 -3.34042 0
M  V30 9165 O 897.202 0.447604 -3.99198 0
M  V30 9166 N 895.408 -0.308444 -2.88958 0
M  V30 9167 H 894.955 -1.02998 -2.36112 0
M  V30 9168 H 894.913 0.533952 -3.09833 0
M  V30 9169 N 898.685 0.775411 -1.37205 0
M  V30 9170 C 899.595 1.91967 -1.34855 0
M  V30 9171 C 900.611 1.72214 -0.248656 0
M  V30 9172 O 901.787 1.95512 -0.483421 0
M  V30 9173 C 898.852 3.27038 -1.15096 0
M  V30 9174 C 897.913 3.5947 -2.34691 0
M  V30 9175 C 897.146 4.88097 -2.15865 0
M  V30 9176 O 897.369 5.58871 -1.14102 0
M  V30 9177 O 896.303 5.19507 -3.03967 0
M  V30 9178 H 900.129 1.969 -2.31223 0
M  V30 9179 H 897.714 0.917647 -1.17897 0
M  V30 9180 H 899.596 4.07837 -1.0605 0
M  V30 9181 H 898.271 3.22965 -0.217999 0
M  V30 9182 H 897.178 2.7892 -2.49308 0
M  V30 9183 H 898.511 3.68282 -3.26541 0
M  V30 9184 N 900.163 1.21714 1.00117 0
M  V30 9185 C 901.403 1.04818 1.75478 0
M  V30 9186 C 901.767 -0.410653 1.87557 0
M  V30 9187 O 902.968 -0.700241 2.59519 0
M  V30 9188 C 901.239 1.73055 3.12709 0
M  V30 9189 S 902.798 1.71464 4.03913 0
M  V30 9190 H 899.616 0.375534 0.603734 0
M  V30 9191 H 902.218 1.54522 1.19763 0
M  V30 9192 H 900.922 2.78376 3.01554 0
M  V30 9193 H 900.453 1.23546 3.73497 0
M  V30 9194 H 902.468 0.75845 4.90369 0
M  V30 9195 N 901.641 -1.19671 1.02551 0
M  V30 9196 C 903.057 -1.41305 0.741963 0
M  V30 9197 C 903.257 -1.89865 -0.674807 0
M  V30 9198 O 902.313 -2.07323 -1.44129 0
M  V30 9199 C 903.626 -2.42706 1.77522 0
M  V30 9200 C 905.174 -2.56458 1.79438 0
M  V30 9201 C 905.649 -3.61111 2.81715 0
M  V30 9202 N 907.14 -3.68603 2.8051 0
M  V30 9203 C 907.875 -4.49262 3.56302 0
M  V30 9204 N 907.371 -5.33653 4.41799 0
M  V30 9205 N 909.164 -4.43879 3.44859 0
M  V30 9206 H 901.315 -0.8647 1.94002 0
M  V30 9207 H 903.578 -0.442206 0.838545 0
M  V30 9208 H 903.284 -2.14042 2.79068 0
M  V30 9209 H 903.158 -3.41831 1.59472 0
M  V30 9210 H 905.545 -2.84447 0.78573 0
M  V30 9211 H 905.626 -1.57499 2.01563 0
M  V30 9212 H 905.27 -3.33864 3.82749 0
M  V30 9213 H 905.2 -4.59713 2.56849 0
M  V30 9214 H 907.691 -3.08329 2.18498 0
M  V30 9215 H 908.004 -5.92308 4.96378 0
M  V30 9216 H 906.349 -5.33125 4.45873 0
M  V30 9217 H 909.54 -3.7699 2.77482 0
M  V30 9218 H 909.713 -5.06501 4.04179 0
M  V30 9219 N 903.119 -0.802921 -1.35613 0
M  V30 9220 C 904.53 -0.443004 -1.81368 0
M  V30 9221 C 904.881 1.03459 -1.66706 0
M  V30 9222 O 904.006 1.80372 -1.19561 0
M  V30 9223 C 904.601 -0.797324 -3.29284 0
M  V30 9224 C 903.16 -0.490055 -3.73196 0
M  V30 9225 C 902.307 -1.02487 -2.57666 0
M  V30 9226 H 905.258 -0.994888 -1.23643 0
M  V30 9227 H 905.279 -0.0934638 -3.80385 0
M  V30 9228 H 904.791 -1.87278 -3.39924 0
M  V30 9229 H 902.892 0.576818 -3.68108 0
M  V30 9230 H 903.005 -1.02012 -4.68114 0
M  V30 9231 H 901.369 -0.44738 -2.5074 0
M  V30 9232 H 902.152 -2.10636 -2.71085 0
M  V30 9233 N 904.597 1.47463 -0.556102 0
M  V30 9234 C 905.837 2.04372 -0.0339743 0
M  V30 9235 C 906.201 1.42125 1.29091 0
M  V30 9236 O 907.402 1.90074 1.90066 0
M  V30 9237 C 905.673 3.57352 0.0585316 0
M  V30 9238 S 907.232 4.35625 0.526943 0
M  V30 9239 H 904.05 0.710574 -0.0246115 0
M  V30 9240 H 906.652 1.80848 -0.742585 0
M  V30 9241 H 905.356 4.00181 -0.910116 0
M  V30 9242 H 904.887 3.85371 0.790731 0
M  V30 9243 H 906.902 4.62911 1.78683 0
M  V30 9244 N 906.075 0.2925 1.54862 0
M  V30 9245 C 907.025 -0.60226 2.19902 0
M  V30 9246 C 908.009 -1.10535 1.16923 0
M  V30 9247 O 909.201 -1.04753 1.42674 0
M  V30 9248 C 906.33 -1.77774 2.93686 0
M  V30 9249 C 905.416 -1.29101 4.03972 0
M  V30 9250 N 905.807 -0.521671 5.03103 0
M  V30 9251 C 904.105 -1.57248 4.17359 0
M  V30 9252 C 904.806 -0.263545 5.81103 0
M  V30 9253 N 903.782 -0.840937 5.37056 0
M  V30 9254 H 907.584 -0.00682274 2.93899 0
M  V30 9255 H 905.098 0.0968604 1.62111 0
M  V30 9256 H 907.095 -2.43021 3.38743 0
M  V30 9257 H 905.755 -2.37696 2.21203 0
M  V30 9258 H 906.766 -0.167364 5.1763 0
M  V30 9259 H 903.443 -2.1798 3.56077 0
M  V30 9260 H 904.833 0.353783 6.70968 0
M  V30 9261 N 907.553 -1.57587 0.0200696 0
M  V30 9262 C 908.463 -2.13119 -0.980676 0
M  V30 9263 C 909.479 -1.08124 -1.36328 0
M  V30 9264 O 910.655 -1.40134 -1.44653 0
M  V30 9265 C 907.72 -2.63991 -2.24743 0
M  V30 9266 C 906.781 -3.83667 -1.9261 0
M  V30 9267 C 906.014 -4.32103 -3.13246 0
M  V30 9268 O 906.237 -3.79758 -4.25606 0
M  V30 9269 O 905.171 -5.24047 -2.96072 0
M  V30 9270 H 908.997 -2.98887 -0.538528 0
M  V30 9271 H 906.582 -1.48055 -0.19999 0
M  V30 9272 H 908.464 -2.9682 -2.99125 0
M  V30 9273 H 907.139 -1.81311 -2.68157 0
M  V30 9274 H 906.046 -3.55778 -1.15641 0
M  V30 9275 H 907.379 -4.67482 -1.54019 0
M  V30 9276 N 909.032 0.252966 -1.55557 0
M  V30 9277 C 909.98 1.33289 -1.90622 0
M  V30 9278 C 910.974 1.50133 -0.784638 0
M  V30 9279 O 912.18 1.51679 -0.969196 0
M  V30 9280 H 908.555 0.446196 -0.605321 0
M  V30 9281 H 910.526 1.00977 -2.80796 0
M  V30 9282 C 909.275 2.68254 -2.21213 0
M  V30 9283 H 908.598 2.5609 -3.07014 0
M  V30 9284 H 910.038 3.42707 -2.49656 0
M  V30 9285 C 908.497 3.20884 -1.02642 0
M  V30 9286 O 909.027 4.00783 -0.271292 0
M  V30 9287 N 907.233 2.7883 -0.818682 0
M  V30 9288 H 906.78 2.13966 -1.43444 0
M  V30 9289 H 906.738 3.14388 -0.0269989 0
M  V30 9290 N 910.51 1.48831 0.518367 0
M  V30 9291 C 911.75 1.59045 1.28391 0
M  V30 9292 C 912.114 0.263443 1.90184 0
M  V30 9293 O 913.315 0.24064 2.67721 0
M  V30 9294 C 911.586 2.70536 2.33548 0
M  V30 9295 S 913.145 3.00591 3.19673 0
M  V30 9296 H 909.963 0.561182 0.436573 0
M  V30 9297 H 912.565 1.86409 0.589222 0
M  V30 9298 H 911.269 3.65499 1.86652 0
M  V30 9299 H 910.8 2.4511 3.07708 0
M  V30 9300 H 912.815 2.40779 4.33866 0
M  V30 9301 N 911.988 -0.768124 1.37614 0
M  V30 9302 C 913.216 -1.55726 1.36224 0
M  V30 9303 C 913.631 -1.8873 -0.0515357 0
M  V30 9304 O 912.988 -1.51718 -1.0143 0
M  V30 9305 C 913.039 -2.86533 2.20412 0
M  V30 9306 O 912.76 -2.54942 3.56281 0
M  V30 9307 C 914.261 -3.80745 2.27041 0
M  V30 9308 H 911.481 -0.482325 0.46648 0
M  V30 9309 H 914.025 -0.95176 1.81002 0
M  V30 9310 H 912.18 -3.43496 1.79134 0
M  V30 9311 H 912.594 -3.38732 4.00451 0
M  V30 9312 H 914.068 -4.69523 2.90263 0
M  V30 9313 H 914.545 -4.20138 1.27987 0
M  V30 9314 H 915.151 -3.2971 2.68647 0
M  V30 9315 N 913.466 -1.22244 -0.994698 0
M  V30 9316 C 914.398 -0.948706 -2.08644 0
M  V30 9317 C 915.411 0.0720049 -1.62641 0
M  V30 9318 O 916.6 -0.161778 -1.77765 0
M  V30 9319 C 913.7 -0.404885 -3.36473 0
M  V30 9320 C 912.873 -1.48239 -4.11514 0
M  V30 9321 C 911.932 -0.94597 -5.17627 0
M  V30 9322 O 910.958 -1.63177 -5.45309 0
M  V30 9323 N 912.16 0.23355 -5.8003 0
M  V30 9324 H 914.925 -1.88858 -2.32707 0
M  V30 9325 H 912.486 -1.12908 -1.16032 0
M  V30 9326 H 914.478 -0.0313903 -4.04688 0
M  V30 9327 H 913.048 0.440061 -3.09487 0
M  V30 9328 H 912.268 -2.02928 -3.37955 0
M  V30 9329 H 913.556 -2.20741 -4.58422 0
M  V30 9330 H 912.954 0.80756 -5.59906 0
M  V30 9331 H 911.511 0.54845 -6.49488 0
M  V30 9332 N 914.944 1.19125 -1.03184 0
M  V30 9333 C 916.192 1.8851 -0.728587 0
M  V30 9334 C 916.513 1.80195 0.74531 0
M  V30 9335 O 915.783 1.21437 1.5372 0
M  V30 9336 H 914.363 0.69784 -0.266511 0
M  V30 9337 H 917.025 1.44607 -1.3067 0
M  V30 9338 H 916.121 2.9477 -1.02554 0
M  V30 9339 N 916.422 0.810101 1.35185 0
M  V30 9340 C 917.662 0.397802 2.00492 0
M  V30 9341 C 918.026 -1.01684 1.62863 0
M  V30 9342 O 919.227 -1.53133 2.20916 0
M  V30 9343 C 917.498 0.579524 3.5267 0
M  V30 9344 S 919.057 0.258169 4.3804 0
M  V30 9345 H 915.875 0.150904 0.694801 0
M  V30 9346 H 918.477 1.05312 1.64711 0
M  V30 9347 H 917.181 1.60901 3.77543 0
M  V30 9348 H 916.712 -0.0909886 3.93295 0
M  V30 9349 H 918.727 -0.932882 4.87352 0
M  V30 9350 N 917.9 -1.47166 0.563914 0
M  V30 9351 C 918.847 -2.30097 -0.180013 0
M  V30 9352 C 919.817 -1.39473 -0.902019 0
M  V30 9353 O 921.002 -1.68432 -0.896396 0
M  V30 9354 C 918.142 -3.23573 -1.19978 0
M  V30 9355 C 917.255 -4.2929 -0.483149 0
M  V30 9356 C 916.39 -5.0991 -1.48879 0
M  V30 9357 C 915.429 -6.07395 -0.757513 0
M  V30 9358 N 914.566 -6.8095 -1.71031 0
M  V30 9359 H 919.406 -2.93189 0.53329 0
M  V30 9360 H 916.943 -1.4451 0.274814 0
M  V30 9361 H 918.901 -3.76196 -1.80368 0
M  V30 9362 H 917.531 -2.6233 -1.88103 0
M  V30 9363 H 916.583 -3.79671 0.235414 0
M  V30 9364 H 917.895 -4.9872 0.0894075 0
M  V30 9365 H 917.049 -5.66717 -2.16603 0
M  V30 9366 H 915.788 -4.40397 -2.09527 0
M  V30 9367 H 914.793 -5.4976 -0.0663841 0
M  V30 9368 H 916.018 -6.78919 -0.156685 0
M  V30 9369 H 913.964 -6.14162 -2.30524 0
M  V30 9370 H 913.881 -7.46574 -1.19007 0
M  V30 9371 H 915.149 -7.42326 -2.37849 0
M  V30 9372 N 919.378 -0.300708 -1.54705 0
M  V30 9373 C 920.626 0.308044 -1.99739 0
M  V30 9374 C 920.947 1.54433 -1.19061 0
M  V30 9375 O 920.217 1.93794 -0.286507 0
M  V30 9376 H 918.797 0.116811 -0.73781 0
M  V30 9377 H 921.459 -0.41197 -1.90496 0
M  V30 9378 H 920.555 0.580287 -3.06658 0
M  V30 9379 N 920.856 1.57574 -0.0284266 0
M  V30 9380 C 922.267 1.79585 0.510502 0
M  V30 9381 C 922.618 0.938625 1.72291 0
M  V30 9382 O 921.743 0.14884 2.15888 0
M  V30 9383 C 922.338 3.25703 0.932912 0
M  V30 9384 C 920.897 3.48711 1.41696 0
M  V30 9385 C 920.044 2.74665 0.381356 0
M  V30 9386 H 922.995 1.56647 -0.254464 0
M  V30 9387 H 923.016 3.35376 1.79731 0
M  V30 9388 H 922.528 3.88067 0.0503036 0
M  V30 9389 H 920.629 2.91597 2.31952 0
M  V30 9390 H 920.742 4.57423 1.42481 0
M  V30 9391 H 919.106 2.40123 0.8493 0
M  V30 9392 H 919.889 3.39745 -0.492775 0
M  V30 9393 N 922.334 -0.244713 1.55689 0
M  V30 9394 C 923.244 -1.32447 1.93636 0
M  V30 9395 C 924.26 -1.52541 0.837086 0
M  V30 9396 O 925.436 -1.66121 1.13867 0
M  V30 9397 C 922.501 -2.65864 2.22525 0
M  V30 9398 C 921.562 -2.54273 3.45896 0
M  V30 9399 C 920.795 -3.81327 3.73397 0
M  V30 9400 O 921.018 -4.83307 3.02936 0
M  V30 9401 O 919.952 -3.79829 4.66919 0
M  V30 9402 H 923.778 -1.03255 2.85608 0
M  V30 9403 H 921.363 -0.445652 1.42598 0
M  V30 9404 H 923.245 -3.447 2.42404 0
M  V30 9405 H 921.92 -2.94784 1.33731 0
M  V30 9406 H 920.827 -1.73715 3.31321 0
M  V30 9407 H 922.16 -2.30297 4.34999 0
M  V30 9408 N 923.813 -1.49104 -0.510467 0
M  V30 9409 C 924.743 -1.67981 -1.62187 0
M  V30 9410 C 925.724 -0.528529 -1.6168 0
M  V30 9411 O 926.909 -0.763305 -1.7857 0
M  V30 9412 C 924.039 -1.73755 -3.0071 0
M  V30 9413 C 922.993 -2.88579 -3.1608 0
M  V30 9414 C 922.319 -2.79457 -4.5586 0
M  V30 9415 C 923.619 -4.29638 -2.97 0
M  V30 9416 H 925.313 -2.61029 -1.46643 0
M  V30 9417 H 922.859 -1.25615 -0.704042 0
M  V30 9418 H 924.812 -1.85548 -3.78352 0
M  V30 9419 H 923.536 -0.772996 -3.17321 0
M  V30 9420 H 922.195 -2.76372 -2.40861 0
M  V30 9421 H 921.843 -1.80929 -4.69333 0
M  V30 9422 H 921.543 -3.56518 -4.67086 0
M  V30 9423 H 923.067 -2.93245 -5.35574 0
M  V30 9424 H 924.481 -4.42575 -3.64418 0
M  V30 9425 H 922.878 -5.07847 -3.19704 0
M  V30 9426 H 923.948 -4.44741 -1.93219 0
M  V30 9427 N 925.291 0.760815 -1.38019 0
M  V30 9428 C 926.223 1.88387 -1.30549 0
M  V30 9429 C 927.236 1.61319 -0.219119 0
M  V30 9430 O 928.425 1.72033 -0.476122 0
M  V30 9431 C 925.525 3.23863 -0.998291 0
M  V30 9432 C 924.698 3.78492 -2.19232 0
M  V30 9433 C 923.757 4.92468 -1.85368 0
M  V30 9434 O 922.783 5.0748 -2.57785 0
M  V30 9435 N 923.985 5.74901 -0.804319 0
M  V30 9436 H 926.75 1.95308 -2.27322 0
M  V30 9437 H 924.311 0.940423 -1.31786 0
M  V30 9438 H 926.303 3.97644 -0.7524 0
M  V30 9439 H 924.873 3.12374 -0.11877 0
M  V30 9440 H 924.093 2.96361 -2.5993 0
M  V30 9441 H 925.381 4.11722 -2.98935 0
M  V30 9442 H 924.779 5.65333 -0.203628 0
M  V30 9443 H 923.336 6.48861 -0.618301 0
M  V30 9444 N 926.769 1.22769 0.988202 0
M  V30 9445 C 928.046 0.9635 1.70223 0
M  V30 9446 C 928.426 -0.520102 2.04593 0
M  V30 9447 O 927.774 -1.48934 1.73295 0
M  V30 9448 C 927.984 1.86583 2.94937 0
M  V30 9449 C 929.332 2.12469 3.67616 0
M  V30 9450 O 930.356 1.84069 3.04954 0
M  V30 9451 O 929.215 2.60595 4.80367 0
M  V30 9452 H 926.309 0.362737 0.743203 0
M  V30 9453 H 928.855 1.33776 1.04412 0
M  V30 9454 H 927.627 2.86913 2.66077 0
M  V30 9455 H 927.25 1.49344 3.68486 0
M  V30 9456 N 928.247 -1.18576 1.03814 0
M  V30 9457 C 929.487 -1.90187 0.748882 0
M  V30 9458 C 929.851 -1.78383 -0.710177 0
M  V30 9459 O 931.052 -2.44678 -1.11293 0
M  V30 9460 C 929.323 -3.36688 1.19901 0
M  V30 9461 S 930.882 -4.26419 1.03501 0
M  V30 9462 H 927.7 -0.656765 0.272362 0
M  V30 9463 H 930.302 -1.43296 1.32991 0
M  V30 9464 H 929.006 -3.42808 2.25635 0
M  V30 9465 H 928.537 -3.88616 0.611669 0
M  V30 9466 H 930.552 -4.96176 -0.0490431 0
M  V30 9467 N 929.725 -0.817259 -1.34754 0
M  V30 9468 C 930.655 -0.249769 -2.3216 0
M  V30 9469 C 931.636 0.630663 -1.57977 0
M  V30 9470 O 932.821 0.558719 -1.85989 0
M  V30 9471 C 929.951 0.593825 -3.42186 0
M  V30 9472 C 928.905 -0.188997 -4.27583 0
M  V30 9473 C 928.231 0.776979 -5.29025 0
M  V30 9474 C 929.531 -1.39401 -5.03354 0
M  V30 9475 H 931.225 -1.06359 -2.79872 0
M  V30 9476 H 928.771 -0.512894 -1.34556 0
M  V30 9477 H 930.724 1.00097 -4.09339 0
M  V30 9478 H 929.448 1.44064 -2.93109 0
M  V30 9479 H 928.107 -0.577445 -3.62024 0
M  V30 9480 H 927.755 1.61959 -4.76212 0
M  V30 9481 H 927.455 0.257448 -5.87036 0
M  V30 9482 H 928.979 1.18211 -5.99048 0
M  V30 9483 H 930.393 -1.06117 -5.63393 0
M  V30 9484 H 928.79 -1.84878 -5.70912 0
M  V30 9485 H 929.86 -2.17515 -4.33377 0
M  V30 9486 N 931.203 1.46865 -0.571711 0
M  V30 9487 C 932.451 2.0203 -0.0530022 0
M  V30 9488 C 932.772 1.44687 1.30731 0
M  V30 9489 O 932.042 0.627429 1.85581 0
M  V30 9490 H 930.622 0.746815 -0.0166035 0
M  V30 9491 H 933.284 1.80099 -0.745003 0
M  V30 9492 H 932.38 3.12091 0.0242538 0
M  V30 9493 N 932.681 0.308908 1.54543 0
M  V30 9494 C 933.613 -0.597453 2.21276 0
M  V30 9495 C 934.626 -1.09137 1.20801 0
M  V30 9496 O 935.815 -1.00747 1.47351 0
M  V30 9497 C 932.915 -1.83085 2.85189 0
M  V30 9498 C 932.088 -1.4781 4.11669 0
M  V30 9499 C 931.147 -2.56748 4.59311 0
M  V30 9500 O 930.173 -2.21507 5.24331 0
M  V30 9501 N 931.375 -3.87427 4.32297 0
M  V30 9502 H 934.14 -0.0261183 2.99689 0
M  V30 9503 H 931.701 0.131456 1.61365 0
M  V30 9504 H 933.693 -2.55326 3.13992 0
M  V30 9505 H 932.263 -2.31039 2.1057 0
M  V30 9506 H 931.483 -0.587974 3.8979 0
M  V30 9507 H 932.771 -1.2179 4.94009 0
M  V30 9508 H 932.169 -4.18863 3.80224 0
M  V30 9509 H 930.726 -4.55942 4.6579 0
M  V30 9510 N 934.159 -1.57557 0.0367827 0
M  V30 9511 C 935.387 -1.96419 -0.650168 0
M  V30 9512 C 935.802 -0.913656 -1.6522 0
M  V30 9513 O 935.159 0.103718 -1.82205 0
M  V30 9514 C 935.21 -3.35355 -1.3498 0
M  V30 9515 O 934.931 -4.36379 -0.387905 0
M  V30 9516 C 936.432 -3.88892 -2.12786 0
M  V30 9517 H 933.652 -0.646751 -0.178756 0
M  V30 9518 H 936.196 -2.04261 0.0988197 0
M  V30 9519 H 934.351 -3.28708 -2.05012 0
M  V30 9520 H 934.765 -5.16969 -0.885596 0
M  V30 9521 H 936.239 -4.88428 -2.5718 0
M  V30 9522 H 936.716 -3.23547 -2.97008 0
M  V30 9523 H 937.322 -3.98831 -1.47694 0
M  V30 9524 N 935.637 0.236453 -1.55816 0
M  V30 9525 C 936.567 1.29639 -1.94206 0
M  V30 9526 C 937.548 1.49667 -0.808319 0
M  V30 9527 O 938.733 1.621 -1.06945 0
M  V30 9528 C 935.863 2.64914 -2.24584 0
M  V30 9529 C 934.817 2.59565 -3.40308 0
M  V30 9530 C 934.143 3.98732 -3.56254 0
M  V30 9531 C 935.443 2.15642 -4.75706 0
M  V30 9532 H 937.137 0.977552 -2.82992 0
M  V30 9533 H 934.683 0.468804 -1.36155 0
M  V30 9534 H 936.636 3.39209 -2.50031 0
M  V30 9535 H 935.36 2.98455 -1.32636 0
M  V30 9536 H 934.019 1.87728 -3.14887 0
M  V30 9537 H 933.667 4.29556 -2.61707 0
M  V30 9538 H 933.367 3.96039 -4.34082 0
M  V30 9539 H 934.891 4.74711 -3.84033 0
M  V30 9540 H 936.305 2.79673 -5.00456 0
M  V30 9541 H 934.702 2.24039 -5.56711 0
M  V30 9542 H 935.772 1.10831 -4.72064 0
M  V30 9543 N 937.115 1.49373 0.502552 0
M  V30 9544 C 938.361 1.59016 1.25864 0
M  V30 9545 C 938.694 0.27532 1.92238 0
M  V30 9546 O 937.969 -0.720988 1.80643 0
M  V30 9547 C 938.252 2.74828 2.32683 0
M  V30 9548 C 938.105 4.16102 1.7082 0
M  V30 9549 C 939.424 2.86288 3.34256 0
M  V30 9550 H 936.543 0.578798 0.456248 0
M  V30 9551 H 939.185 1.81651 0.557032 0
M  V30 9552 H 937.335 2.5566 2.92524 0
M  V30 9553 H 939.007 4.46782 1.14818 0
M  V30 9554 H 937.25 4.21822 1.01238 0
M  V30 9555 H 937.921 4.93006 2.48292 0
M  V30 9556 H 940.397 3.03733 2.84404 0
M  V30 9557 H 939.273 3.69001 4.06362 0
M  V30 9558 H 939.534 1.95576 3.96488 0
M  V30 9559 N 938.594 -0.753485 1.38421 0
M  V30 9560 C 939.524 -1.8808 1.38377 0
M  V30 9561 C 940.505 -1.68258 0.249664 0
M  V30 9562 O 941.69 -1.88848 0.45276 0
M  V30 9563 C 938.82 -3.25608 1.20818 0
M  V30 9564 C 937.774 -3.60032 2.31433 0
M  V30 9565 C 937.1 -4.96297 1.9898 0
M  V30 9566 C 938.4 -3.64898 3.73694 0
M  V30 9567 H 940.094 -1.88375 2.32713 0
M  V30 9568 H 937.64 -0.90489 1.12017 0
M  V30 9569 H 939.593 -4.04127 1.19412 0
M  V30 9570 H 938.317 -3.25793 0.229433 0
M  V30 9571 H 936.976 -2.83831 2.32025 0
M  V30 9572 H 936.624 -4.93043 0.995889 0
M  V30 9573 H 936.324 -5.20298 2.73063 0
M  V30 9574 H 937.848 -5.77196 1.99193 0
M  V30 9575 H 939.262 -4.33531 3.75132 0
M  V30 9576 H 937.659 -4.00407 4.46983 0
M  V30 9577 H 938.729 -2.65124 4.06002 0
M  V30 9578 N 940.072 -1.23292 -0.981677 0
M  V30 9579 C 941.321 -1.05832 -1.71705 0
M  V30 9580 C 941.634 0.40514 -1.91358 0
M  V30 9581 O 942.84 0.699645 -2.6233 0
M  V30 9582 C 941.296 -1.84532 -3.08992 0
M  V30 9583 C 940.904 -3.35199 -2.9723 0
M  V30 9584 C 942.648 -1.75557 -3.86497 0
M  V30 9585 C 940.555 -4.06296 -4.29741 0
M  V30 9586 H 939.485 -0.39241 -0.64384 0
M  V30 9587 H 942.136 -1.47247 -1.09502 0
M  V30 9588 H 940.518 -1.35923 -3.71942 0
M  V30 9589 H 941.692 -3.91286 -2.43377 0
M  V30 9590 H 940.007 -3.44973 -2.332 0
M  V30 9591 H 942.604 -2.25989 -4.84596 0
M  V30 9592 H 942.947 -0.718101 -4.1006 0
M  V30 9593 H 943.48 -2.21771 -3.30246 0
M  V30 9594 H 940.219 -5.10344 -4.11375 0
M  V30 9595 H 939.739 -3.54997 -4.83464 0
M  V30 9596 H 941.418 -4.12519 -4.98434 0
M  V30 9597 N 941.55 1.18024 -1.04442 0
M  V30 9598 C 942.798 1.87727 -0.74854 0
M  V30 9599 C 943.119 1.80975 0.726156 0
M  V30 9600 O 942.389 1.23061 1.52423 0
M  V30 9601 H 940.969 0.694974 -0.273897 0
M  V30 9602 H 943.631 1.43213 -1.32197 0
M  V30 9603 H 942.727 2.93665 -1.05674 0
M  V30 9604 N 943.028 0.824394 1.34319 0
M  V30 9605 C 943.975 0.245282 2.29493 0
M  V30 9606 C 944.945 -0.630762 1.53657 0
M  V30 9607 O 946.13 -0.572094 1.82021 0
M  V30 9608 C 943.27 -0.585631 3.40095 0
M  V30 9609 C 942.383 0.312821 4.30866 0
M  V30 9610 C 941.518 -0.527801 5.28571 0
M  V30 9611 C 940.557 0.369946 6.10981 0
M  V30 9612 N 939.694 -0.43169 7.00772 0
M  V30 9613 H 944.534 1.06225 2.78425 0
M  V30 9614 H 942.071 0.53533 1.37013 0
M  V30 9615 H 944.029 -1.08271 4.02906 0
M  V30 9616 H 942.659 -1.3677 2.92393 0
M  V30 9617 H 941.711 0.928129 3.68904 0
M  V30 9618 H 943.023 1.00306 4.8861 0
M  V30 9619 H 942.177 -1.0893 5.96841 0
M  V30 9620 H 940.916 -1.25154 4.71368 0
M  V30 9621 H 939.921 0.943577 5.41643 0
M  V30 9622 H 941.146 1.09182 6.70266 0
M  V30 9623 H 939.092 -1.13908 6.46035 0
M  V30 9624 H 939.009 0.200133 7.55735 0
M  V30 9625 H 940.277 -0.975894 7.73367 0
M  V30 9626 N 944.506 -1.46559 0.579492 0
M  V30 9627 C 945.734 -2.06784 0.0693648 0
M  V30 9628 C 946.149 -1.42875 -1.23419 0
M  V30 9629 O 945.506 -0.532919 -1.74546 0
M  V30 9630 C 945.557 -3.61343 -0.106511 0
M  V30 9631 O 945.278 -4.22861 1.14545 0
M  V30 9632 C 946.779 -4.38489 -0.651359 0
M  V30 9633 H 943.999 -0.66866 0.0559848 0
M  V30 9634 H 946.543 -1.88235 0.799245 0
M  V30 9635 H 944.698 -3.7933 -0.786601 0
M  V30 9636 H 945.112 -5.15691 0.95723 0
M  V30 9637 H 946.586 -5.47237 -0.723615 0
M  V30 9638 H 947.063 -4.06309 -1.66763 0
M  V30 9639 H 947.669 -4.253 -0.0062433 0
M  V30 9640 N 945.984 -0.3171 -1.54377 0
M  V30 9641 C 946.934 0.567199 -2.20832 0
M  V30 9642 C 947.918 1.08661 -1.18666 0
M  V30 9643 O 949.11 1.0247 -1.44322 0
M  V30 9644 C 946.239 1.73079 -2.96477 0
M  V30 9645 C 945.325 1.22658 -4.05975 0
M  V30 9646 N 945.716 0.441565 -5.03869 0
M  V30 9647 C 944.014 1.50589 -4.19808 0
M  V30 9648 C 944.715 0.171063 -5.81448 0
M  V30 9649 N 943.691 0.755389 -5.38326 0
M  V30 9650 H 947.493 -0.0399349 -2.93873 0
M  V30 9651 H 945.007 -0.122639 -1.61936 0
M  V30 9652 H 947.004 2.37601 -3.42566 0
M  V30 9653 H 945.664 2.34146 -2.24957 0
M  V30 9654 H 946.675 0.0849921 -5.1783 0
M  V30 9655 H 943.352 2.12288 -3.595 0
M  V30 9656 H 944.742 -0.460484 -6.7032 0
M  V30 9657 N 947.462 1.57535 -0.0451378 0
M  V30 9658 C 948.392 2.14208 0.929372 0
M  V30 9659 C 949.373 1.06221 1.32858 0
M  V30 9660 O 950.558 1.34132 1.40436 0
M  V30 9661 C 947.688 2.68217 2.20629 0
M  V30 9662 C 946.642 3.81134 1.94734 0
M  V30 9663 C 945.968 4.21636 3.28828 0
M  V30 9664 C 947.268 5.06531 1.27374 0
M  V30 9665 H 948.962 2.95886 0.457348 0
M  V30 9666 H 946.508 1.42332 0.218544 0
M  V30 9667 H 948.461 3.06502 2.89196 0
M  V30 9668 H 947.185 1.83722 2.70026 0
M  V30 9669 H 945.844 3.43312 1.28579 0
M  V30 9670 H 945.492 3.34099 3.76014 0
M  V30 9671 H 945.192 4.97736 3.12302 0
M  V30 9672 H 946.716 4.62516 3.98637 0
M  V30 9673 H 948.13 5.423 1.85967 0
M  V30 9674 H 946.527 5.87735 1.21194 0
M  V30 9675 H 947.597 4.84261 0.248913 0
M  V30 9676 N 948.94 -0.228186 1.55939 0
M  V30 9677 C 950.168 -0.970618 1.8272 0
M  V30 9678 C 950.583 -1.78212 0.623385 0
M  V30 9679 O 949.94 -1.77879 -0.408063 0
M  V30 9680 C 949.991 -1.89352 3.07942 0
M  V30 9681 O 949.712 -1.11483 4.23678 0
M  V30 9682 C 951.213 -2.75039 3.47661 0
M  V30 9683 H 948.433 -0.284772 0.607574 0
M  V30 9684 H 950.977 -0.245419 2.03022 0
M  V30 9685 H 949.132 -2.57275 2.89635 0
M  V30 9686 H 949.546 -1.74073 4.94772 0
M  V30 9687 H 951.02 -3.35511 4.38334 0
M  V30 9688 H 951.497 -3.471 2.69106 0
M  V30 9689 H 952.103 -2.1254 3.68384 0
M  V30 9690 N 950.418 -1.49637 -0.494624 0
M  V30 9691 C 951.351 -1.61387 -1.61337 0
M  V30 9692 C 952.329 -0.462704 -1.55878 0
M  V30 9693 O 953.513 -0.679103 -1.75842 0
M  V30 9694 C 950.64 -1.57471 -2.99867 0
M  V30 9695 C 949.686 -2.77863 -3.23565 0
M  V30 9696 S 950.519 -4.3946 -3.05999 0
M  V30 9697 C 951.675 -4.382 -4.46914 0
M  V30 9698 H 951.908 -2.56024 -1.51126 0
M  V30 9699 H 949.441 -1.38607 -0.680253 0
M  V30 9700 H 951.399 -1.55898 -3.79745 0
M  V30 9701 H 950.06 -0.641107 -3.07488 0
M  V30 9702 H 949.253 -2.71361 -4.24711 0
M  V30 9703 H 948.855 -2.76882 -2.51421 0
M  V30 9704 H 951.147 -4.10312 -5.3912 0
M  V30 9705 H 952.09 -5.39645 -4.58464 0
M  V30 9706 H 952.498 -3.68197 -4.27891 0
M  V30 9707 N 951.896 0.746133 -1.38819 0
M  V30 9708 C 952.859 1.84167 -1.36437 0
M  V30 9709 C 953.859 1.58626 -0.263499 0
M  V30 9710 O 955.049 1.66233 -0.520801 0
M  V30 9711 C 952.181 3.21769 -1.12596 0
M  V30 9712 H 953.374 1.87684 -2.33912 0
M  V30 9713 H 950.927 0.948625 -1.24221 0
M  V30 9714 H 951.662 3.23917 -0.15758 0
M  V30 9715 H 951.447 3.41702 -1.92307 0
M  V30 9716 H 952.937 4.0184 -1.13643 0
M  V30 9717 N 953.375 1.23811 0.975125 0
M  V30 9718 C 954.305 1.04846 2.08638 0
M  V30 9719 C 955.286 -0.0362859 1.70061 0
M  V30 9720 O 956.471 0.12937 1.93769 0
M  V30 9721 C 953.601 0.644534 3.41267 0
M  V30 9722 C 952.555 1.67722 3.93768 0
M  V30 9723 C 951.881 1.12857 5.22654 0
M  V30 9724 C 953.181 3.07147 4.22443 0
M  V30 9725 H 954.875 1.97795 2.24761 0
M  V30 9726 H 952.421 0.952397 1.08006 0
M  V30 9727 H 954.374 0.498887 4.18436 0
M  V30 9728 H 953.098 -0.320641 3.25022 0
M  V30 9729 H 951.757 1.81095 3.18748 0
M  V30 9730 H 951.405 0.154227 5.02764 0
M  V30 9731 H 951.105 1.81862 5.58749 0
M  V30 9732 H 952.629 0.994891 6.0244 0
M  V30 9733 H 954.043 2.97045 4.90344 0
M  V30 9734 H 952.44 3.73437 4.6975 0
M  V30 9735 H 953.51 3.55743 3.29507 0
M  V30 9736 N 954.853 -1.17469 1.05066 0
M  V30 9737 C 956.081 -1.9162 0.780334 0
M  V30 9738 C 956.496 -1.76745 -0.663817 0
M  V30 9739 O 955.853 -1.10377 -1.45338 0
M  V30 9740 C 955.904 -3.42723 1.14992 0
M  V30 9741 O 955.625 -3.57139 2.53739 0
M  V30 9742 C 957.126 -4.33952 0.905549 0
M  V30 9743 H 954.346 -0.608022 0.283814 0
M  V30 9744 H 956.89 -1.4897 1.401 0
M  V30 9745 H 955.045 -3.83124 0.57403 0
M  V30 9746 H 955.459 -4.5075 2.68189 0
M  V30 9747 H 956.933 -5.38487 1.21391 0
M  V30 9748 H 957.41 -4.38911 -0.159295 0
M  V30 9749 H 958.016 -3.99263 1.46522 0
M  V30 9750 N 956.331 -0.831506 -1.3388 0
M  V30 9751 C 957.577 -0.424302 -1.98312 0
M  V30 9752 C 957.91 1.01211 -1.65741 0
M  V30 9753 O 957.185 1.70636 -0.933464 0
M  V30 9754 C 957.468 -0.636815 -3.54424 0
M  V30 9755 C 957.321 -2.11997 -3.96708 0
M  V30 9756 C 958.64 -0.0782411 -4.4003 0
M  V30 9757 H 955.759 -0.155637 -0.720379 0
M  V30 9758 H 958.401 -1.04566 -1.58638 0
M  V30 9759 H 956.551 -0.107907 -3.8835 0
M  V30 9760 H 958.223 -2.71317 -3.73075 0
M  V30 9761 H 956.466 -2.60723 -3.46707 0
M  V30 9762 H 957.137 -2.21944 -5.05416 0
M  V30 9763 H 959.613 -0.530243 -4.12708 0
M  V30 9764 H 958.489 -0.256676 -5.483 0
M  V30 9765 H 958.75 1.01745 -4.30233 0
M  V30 9766 N 957.809 1.4625 -0.587256 0
M  V30 9767 C 959.058 2.01571 -0.0722643 0
M  V30 9768 C 959.371 1.46385 1.29733 0
M  V30 9769 O 960.577 1.93554 1.90392 0
M  V30 9770 C 959.033 3.59814 -0.078579 0
M  V30 9771 C 958.641 4.23996 -1.44678 0
M  V30 9772 C 960.385 4.22776 0.382231 0
M  V30 9773 C 958.292 5.74332 -1.41057 0
M  V30 9774 H 957.222 0.753642 -0.0232461 0
M  V30 9775 H 959.873 1.67936 -0.739577 0
M  V30 9776 H 958.255 3.90546 0.654988 0
M  V30 9777 H 959.429 4.04867 -2.20043 0
M  V30 9778 H 957.744 3.73147 -1.84799 0
M  V30 9779 H 960.341 5.32983 0.428182 0
M  V30 9780 H 960.684 3.92027 1.40072 0
M  V30 9781 H 961.217 3.96687 -0.297417 0
M  V30 9782 H 957.956 6.09747 -2.40601 0
M  V30 9783 H 957.476 5.95711 -0.699185 0
M  V30 9784 H 959.155 6.37137 -1.12543 0
M  V30 9785 N 959.287 0.325282 1.54207 0
M  V30 9786 C 960.25 -0.527228 2.23054 0
M  V30 9787 C 961.25 -1.04217 1.22456 0
M  V30 9788 O 962.44 -0.934325 1.47024 0
M  V30 9789 C 959.572 -1.7325 2.93594 0
M  V30 9790 H 960.765 0.0746423 2.99807 0
M  V30 9791 H 958.318 0.0763872 1.56113 0
M  V30 9792 H 959.053 -2.37356 2.20981 0
M  V30 9793 H 958.838 -1.37065 3.67363 0
M  V30 9794 H 960.328 -2.3376 3.46043 0
M  V30 9795 N 960.765 -1.57509 0.0534917 0
M  V30 9796 C 962.013 -1.92402 -0.618548 0
M  V30 9797 C 962.334 -0.93273 -1.71246 0
M  V30 9798 O 961.604 0.0220495 -1.95888 0
M  V30 9799 H 960.184 -0.710233 -0.23147 0
M  V30 9800 H 962.846 -1.94606 0.10704 0
M  V30 9801 H 961.942 -2.93704 -1.05566 0
M  V30 9802 N 962.243 0.219913 -1.56058 0
M  V30 9803 C 963.173 1.27572 -1.9557 0
M  V30 9804 C 964.154 1.48801 -0.824148 0
M  V30 9805 O 965.339 1.60957 -1.08658 0
M  V30 9806 C 962.469 2.62517 -2.27381 0
M  V30 9807 C 961.423 2.55941 -3.43042 0
M  V30 9808 C 960.749 3.94931 -3.60463 0
M  V30 9809 C 962.049 2.10584 -4.77966 0
M  V30 9810 H 963.743 0.947482 -2.84013 0
M  V30 9811 H 961.289 0.454337 -1.36645 0
M  V30 9812 H 963.242 3.36538 -2.53615 0
M  V30 9813 H 961.966 2.97031 -1.35794 0
M  V30 9814 H 960.625 1.84377 -3.1686 0
M  V30 9815 H 960.273 4.26756 -2.66249 0
M  V30 9816 H 959.973 3.91413 -4.38258 0
M  V30 9817 H 961.497 4.70611 -3.89046 0
M  V30 9818 H 962.911 2.74349 -5.03394 0
M  V30 9819 H 961.308 2.18122 -5.59055 0
M  V30 9820 H 962.378 1.05818 -4.73213 0
M  V30 9821 N 963.721 1.49897 0.486681 0
M  V30 9822 C 964.967 1.60342 1.2417 0
M  V30 9823 C 965.3 0.295694 1.91936 0
M  V30 9824 O 964.575 -0.701788 1.81398 0
M  V30 9825 C 964.858 2.77281 2.29755 0
M  V30 9826 C 964.711 4.1789 1.66397 0
M  V30 9827 C 966.03 2.89817 3.31201 0
M  V30 9828 H 963.149 0.583605 0.450083 0
M  V30 9829 H 965.791 1.82232 0.537734 0
M  V30 9830 H 963.941 2.58748 2.89796 0
M  V30 9831 H 965.613 4.47975 1.10073 0
M  V30 9832 H 963.856 4.22872 0.967579 0
M  V30 9833 H 964.527 4.95612 2.43049 0
M  V30 9834 H 967.003 3.06732 2.81167 0
M  V30 9835 H 965.879 3.7329 4.02425 0
M  V30 9836 H 966.14 1.9977 3.94391 0
M  V30 9837 N 965.199 -0.738761 1.39212 0
M  V30 9838 C 966.445 -1.50046 1.36433 0
M  V30 9839 C 966.778 -1.94157 -0.0409474 0
M  V30 9840 O 966.053 -1.66515 -1.00514 0
M  V30 9841 C 966.336 -2.74277 2.33333 0
M  V30 9842 C 966.189 -2.36209 3.82786 0
M  V30 9843 C 967.508 -3.76361 2.28123 0
M  V30 9844 H 964.627 -0.544294 0.496903 0
M  V30 9845 H 967.269 -0.845005 1.70175 0
M  V30 9846 H 965.419 -3.30204 2.04689 0
M  V30 9847 H 967.091 -1.85942 4.22165 0
M  V30 9848 H 965.334 -1.68483 3.99745 0
M  V30 9849 H 966.005 -3.25156 4.46069 0
M  V30 9850 H 968.481 -3.30009 2.53443 0
M  V30 9851 H 967.357 -4.60957 2.9801 0
M  V30 9852 H 967.618 -4.23013 1.28499 0
M  V30 9853 N 966.677 -1.24326 -0.968545 0
M  V30 9854 C 967.926 -1.07647 -1.70572 0
M  V30 9855 C 968.239 0.384821 -1.91777 0
M  V30 9856 O 969.445 0.671782 -2.63058 0
M  V30 9857 C 967.901 -1.87799 -3.07017 0
M  V30 9858 C 967.509 -3.38333 -2.93658 0
M  V30 9859 C 969.253 -1.79647 -3.84613 0
M  V30 9860 C 967.16 -4.10831 -4.25407 0
M  V30 9861 H 966.09 -0.399216 -0.639642 0
M  V30 9862 H 968.741 -1.484 -1.07934 0
M  V30 9863 H 967.123 -1.3986 -3.7048 0
M  V30 9864 H 968.297 -3.93845 -2.39213 0
M  V30 9865 H 966.612 -3.47427 -2.29528 0
M  V30 9866 H 969.209 -2.31116 -4.82172 0
M  V30 9867 H 969.552 -0.761553 -4.09275 0
M  V30 9868 H 970.085 -2.25261 -3.27875 0
M  V30 9869 H 966.824 -5.14679 -4.05939 0
M  V30 9870 H 966.344 -3.60105 -4.79671 0
M  V30 9871 H 968.023 -4.17783 -4.94031 0
M  V30 9872 N 968.156 1.1691 -1.05688 0
M  V30 9873 C 969.403 1.87292 -0.76993 0
M  V30 9874 C 969.731 1.81339 0.703295 0
M  V30 9875 O 968.986 1.21959 1.5305 0
M  V30 9876 C 969.285 3.36578 -1.20207 0
M  V30 9877 C 968.951 3.62732 -2.67836 0
M  V30 9878 C 967.613 3.69579 -3.08163 0
M  V30 9879 C 969.965 3.73803 -3.63209 0
M  V30 9880 C 967.293 3.84992 -4.42717 0
M  V30 9881 C 969.645 3.90735 -4.97503 0
M  V30 9882 C 968.309 3.95823 -5.37476 0
M  V30 9883 H 967.579 0.68535 -0.281737 0
M  V30 9884 H 970.226 1.38274 -1.32486 0
M  V30 9885 H 968.531 3.87687 -0.566222 0
M  V30 9886 H 970.228 3.89409 -0.957183 0
M  V30 9887 H 966.818 3.58031 -2.35609 0
M  V30 9888 H 971.002 3.67829 -3.3319 0
M  V30 9889 H 966.258 3.87181 -4.73182 0
M  V30 9890 H 970.432 3.98243 -5.71293 0
M  V30 9891 H 968.059 4.07518 -6.41742 0
M  V30 9892 N 969.634 0.838594 1.33437 0
M  V30 9893 C 970.567 0.216651 2.27169 0
M  V30 9894 C 971.545 -0.636065 1.49643 0
M  V30 9895 O 972.729 -0.596388 1.78817 0
M  V30 9896 C 969.856 -0.69584 3.31475 0
M  V30 9897 C 968.902 0.0813808 4.26422 0
M  V30 9898 S 969.735 1.43909 5.15801 0
M  V30 9899 C 970.891 0.531887 6.23636 0
M  V30 9900 H 971.124 1.01128 2.79572 0
M  V30 9901 H 968.657 0.635332 1.40723 0
M  V30 9902 H 970.615 -1.21671 3.92054 0
M  V30 9903 H 969.276 -1.46413 2.77888 0
M  V30 9904 H 968.469 -0.612944 5.00259 0
M  V30 9905 H 968.071 0.533304 3.70178 0
M  V30 9906 H 970.363 -0.270371 6.7696 0
M  V30 9907 H 971.306 1.24041 6.97151 0
M  V30 9908 H 971.714 0.113357 5.64386 0
M  V30 9909 N 971.112 -1.45937 0.595003 0
M  V30 9910 C 972.045 -2.27491 -0.179775 0
M  V30 9911 C 973.023 -1.36376 -0.88545 0
M  V30 9912 O 974.207 -1.65797 -0.896863 0
M  V30 9913 C 971.334 -3.1443 -1.25902 0
M  V30 9914 C 970.38 -4.21396 -0.657847 0
M  V30 9915 S 971.213 -5.32923 0.524689 0
M  V30 9916 C 972.369 -6.2343 -0.555452 0
M  V30 9917 H 972.602 -2.92855 0.512173 0
M  V30 9918 H 970.135 -1.49595 0.382199 0
M  V30 9919 H 972.093 -3.65081 -1.87687 0
M  V30 9920 H 970.754 -2.48356 -1.92297 0
M  V30 9921 H 969.947 -4.82102 -1.46948 0
M  V30 9922 H 969.549 -3.73822 -0.115403 0
M  V30 9923 H 971.841 -6.62066 -1.43789 0
M  V30 9924 H 972.784 -7.08098 0.0151431 0
M  V30 9925 H 973.192 -5.57831 -0.865125 0
M  V30 9926 N 972.59 -0.333456 -1.54032 0
M  V30 9927 C 973.52 0.52051 -2.27625 0
M  V30 9928 C 974.501 1.1111 -1.28797 0
M  V30 9929 O 975.686 1.13438 -1.57625 0
M  V30 9930 C 972.816 1.67663 -3.04149 0
M  V30 9931 C 971.77 1.21487 -4.10396 0
M  V30 9932 C 971.096 2.45872 -4.74817 0
M  V30 9933 C 972.396 0.322603 -5.21303 0
M  V30 9934 H 974.09 -0.0933823 -2.99254 0
M  V30 9935 H 971.636 -0.0463526 -1.43925 0
M  V30 9936 H 973.589 2.28041 -3.54366 0
M  V30 9937 H 972.313 2.31727 -2.30153 0
M  V30 9938 H 970.972 0.633966 -3.61077 0
M  V30 9939 H 970.62 3.0832 -3.97426 0
M  V30 9940 H 970.32 2.15662 -5.46593 0
M  V30 9941 H 971.844 3.06994 -5.27814 0
M  V30 9942 H 973.258 0.832942 -5.67217 0
M  V30 9943 H 971.655 0.112843 -5.99994 0
M  V30 9944 H 972.725 -0.643954 -4.80605 0
M  V30 9945 N 974.068 1.57479 -0.061844 0
M  V30 9946 C 975.316 1.92727 0.608336 0
M  V30 9947 C 975.637 0.941799 1.70749 0
M  V30 9948 O 974.907 -0.0116608 1.95897 0
M  V30 9949 H 973.487 0.71145 0.2277 0
M  V30 9950 H 976.149 1.94546 -0.117359 0
M  V30 9951 H 975.245 2.9426 1.04007 0
M  V30 9952 N 975.546 -0.211634 1.56173 0
M  V30 9953 C 976.794 -0.932704 1.7929 0
M  V30 9954 C 977.115 -1.84472 0.632076 0
M  V30 9955 O 976.385 -1.92739 -0.350519 0
M  V30 9956 H 974.965 -0.347393 0.661307 0
M  V30 9957 H 977.627 -0.22111 1.93642 0
M  V30 9958 H 976.723 -1.53365 2.71819 0
M  V30 9959 N 977.024 -1.50153 -0.478725 0
M  V30 9960 C 978.252 -1.64505 -1.25482 0
M  V30 9961 C 978.667 -0.325295 -1.85977 0
M  V30 9962 O 978.024 0.691885 -1.68876 0
M  V30 9963 C 978.075 -2.73052 -2.36906 0
M  V30 9964 O 977.796 -3.99911 -1.78894 0
M  V30 9965 C 979.297 -2.98309 -3.27912 0
M  V30 9966 H 976.517 -0.55318 -0.379781 0
M  V30 9967 H 979.061 -1.96329 -0.57229 0
M  V30 9968 H 977.216 -2.43944 -3.00949 0
M  V30 9969 H 977.63 -4.5988 -2.52211 0
M  V30 9970 H 979.104 -3.77942 -4.02323 0
M  V30 9971 H 979.581 -2.09082 -3.8624 0
M  V30 9972 H 980.187 -3.2892 -2.69614 0
M  V30 9973 N 978.502 0.731368 -1.39602 0
M  V30 9974 C 979.749 1.491 -1.37024 0
M  V30 9975 C 980.077 1.94473 0.0326423 0
M  V30 9976 O 979.332 1.6737 1.01418 0
M  V30 9977 C 979.631 2.74224 -2.29208 0
M  V30 9978 C 979.297 2.477 -3.7677 0
M  V30 9979 C 977.959 2.40175 -4.16976 0
M  V30 9980 C 980.311 2.25098 -4.70086 0
M  V30 9981 C 977.639 2.08095 -5.48556 0
M  V30 9982 C 979.991 1.94534 -6.01946 0
M  V30 9983 C 978.655 1.85481 -6.41212 0
M  V30 9984 H 977.925 0.545595 -0.501405 0
M  V30 9985 H 980.572 0.839127 -1.72136 0
M  V30 9986 H 978.877 3.44171 -1.87225 0
M  V30 9987 H 980.574 3.32264 -2.24504 0
M  V30 9988 H 977.164 2.54436 -3.44906 0
M  V30 9989 H 981.348 2.29876 -4.39853 0
M  V30 9990 H 976.604 1.99611 -5.77897 0
M  V30 9991 H 980.778 1.76054 -6.73779 0
M  V30 9992 H 978.405 1.60389 -7.43088 0
M  V30 9993 N 979.98 1.24838 0.961938 0
M  V30 9994 C 980.91 1.07053 2.07514 0
M  V30 9995 C 981.891 -0.0182465 1.7009 0
M  V30 9996 O 983.076 0.149915 1.9362 0
M  V30 9997 C 980.206 0.680693 3.40564 0
M  V30 9998 C 979.16 1.71889 3.91967 0
M  V30 9999 C 978.486 1.18395 5.21428 0
M  V30 10000 C 979.786 3.1161 4.19161 0
M  V30 10001 H 981.48 2.00167 2.22651 0
M  V30 10002 H 979.026 0.963799 1.0699 0
M  V30 10003 H 980.979 0.54324 4.17884 0
M  V30 10004 H 979.703 -0.28615 3.25344 0
M  V30 10005 H 978.362 1.84465 3.16809 0
M  V30 10006 H 978.01 0.207543 5.02572 0
M  V30 10007 H 977.71 1.87778 5.56788 0
M  V30 10008 H 979.234 1.05873 6.01351 0
M  V30 10009 H 980.648 3.0223 4.87165 0
M  V30 10010 H 979.045 3.78398 4.65763 0
M  V30 10011 H 980.115 3.59218 3.25715 0
M  V30 10012 N 981.458 -1.16348 1.06306 0
M  V30 10013 C 982.688 -1.90505 0.799453 0
M  V30 10014 C 983.096 -1.77686 -0.649955 0
M  V30 10015 O 982.439 -1.11921 -1.45669 0
M  V30 10016 C 982.501 -3.41775 1.11492 0
M  V30 10017 C 982.165 -3.7838 2.56277 0
M  V30 10018 C 983.162 -3.80288 3.54509 0
M  V30 10019 C 980.847 -4.09007 2.9158 0
M  V30 10020 C 982.841 -4.12312 4.86084 0
M  V30 10021 C 980.528 -4.40697 4.23354 0
M  V30 10022 C 981.526 -4.4233 5.20416 0
M  V30 10023 O 981.214 -4.73267 6.49826 0
M  V30 10024 H 980.946 -0.61094 0.289359 0
M  V30 10025 H 983.5 -1.48409 1.41999 0
M  V30 10026 H 981.73 -3.84219 0.437306 0
M  V30 10027 H 983.419 -3.97207 0.835533 0
M  V30 10028 H 984.185 -3.56738 3.28577 0
M  V30 10029 H 980.064 -4.06901 2.16686 0
M  V30 10030 H 983.608 -4.13501 5.61838 0
M  V30 10031 H 979.505 -4.63713 4.49044 0
M  V30 10032 H 980.273 -4.91078 6.54817 0
M  V30 10033 N 982.937 -0.845659 -1.3299 0
M  V30 10034 C 984.183 -0.454563 -1.98256 0
M  V30 10035 C 984.538 0.976983 -1.65749 0
M  V30 10036 O 983.831 1.67481 -0.930631 0
M  V30 10037 C 984.025 -0.6201 -3.51979 0
M  V30 10038 C 983.854 -2.06619 -3.99423 0
M  V30 10039 C 982.624 -2.70283 -4.26937 0
M  V30 10040 C 984.822 -3.03573 -4.15148 0
M  V30 10041 N 982.804 -4.05896 -4.60567 0
M  V30 10042 C 984.175 -4.24149 -4.52214 0
M  V30 10043 C 986.23 -2.99888 -3.97457 0
M  V30 10044 C 984.933 -5.41527 -4.73435 0
M  V30 10045 C 986.959 -4.16502 -4.19858 0
M  V30 10046 C 986.321 -5.35835 -4.57231 0
M  V30 10047 H 982.42 -0.214896 -0.751893 0
M  V30 10048 H 985.004 -1.09515 -1.6098 0
M  V30 10049 H 983.175 -0.00926528 -3.88399 0
M  V30 10050 H 984.907 -0.199782 -4.04207 0
M  V30 10051 H 981.662 -2.21377 -4.18676 0
M  V30 10052 H 982.086 -4.75824 -4.81581 0
M  V30 10053 H 986.728 -2.08753 -3.67671 0
M  V30 10054 H 984.446 -6.332 -5.02079 0
M  V30 10055 H 988.032 -4.15075 -4.07681 0
M  V30 10056 H 986.912 -6.24568 -4.74219 0
M  V30 10057 N 984.415 1.45619 -0.602734 0
M  V30 10058 C 985.831 1.57368 -0.26599 0
M  V30 10059 C 986.031 1.59485 1.23154 0
M  V30 10060 O 985.087 1.52254 2.01432 0
M  V30 10061 C 986.4 2.85863 -0.932881 0
M  V30 10062 C 987.948 2.9953 -0.908344 0
M  V30 10063 C 988.423 4.30789 -1.55515 0
M  V30 10064 N 989.914 4.37536 -1.52042 0
M  V30 10065 C 990.649 5.37758 -1.99008 0
M  V30 10066 N 990.145 6.44544 -2.54038 0
M  V30 10067 N 991.938 5.29085 -1.89805 0
M  V30 10068 H 984.089 1.42489 -1.57514 0
M  V30 10069 H 986.352 0.680948 -0.659556 0
M  V30 10070 H 986.058 2.90183 -1.98713 0
M  V30 10071 H 985.932 3.74467 -0.453209 0
M  V30 10072 H 988.319 2.9478 0.137344 0
M  V30 10073 H 988.4 2.12349 -1.42623 0
M  V30 10074 H 988.044 4.36297 -2.60014 0
M  V30 10075 H 987.974 5.16778 -1.01232 0
M  V30 10076 H 990.465 3.60972 -1.11837 0
M  V30 10077 H 990.778 7.17258 -2.87682 0
M  V30 10078 H 989.123 6.45308 -2.58075 0
M  V30 10079 H 992.314 4.44566 -1.46556 0
M  V30 10080 H 992.487 6.07043 -2.26722 0
M  V30 10081 N 985.893 0.34162 1.53853 0
M  V30 10082 C 987.141 -0.254979 2.00485 0
M  V30 10083 C 987.462 -1.51222 1.23114 0
M  V30 10084 O 986.732 -1.92966 0.337787 0
M  V30 10085 H 985.312 -0.0972084 0.740648 0
M  V30 10086 H 987.974 0.462332 1.89337 0
M  V30 10087 H 987.07 -0.498778 3.08089 0
M  V30 10088 N 987.371 -1.57444 0.0701946 0
M  V30 10089 C 988.787 -1.57009 -0.286431 0
M  V30 10090 C 988.987 -1.07946 -1.70147 0
M  V30 10091 O 988.043 -0.744622 -2.41271 0
M  V30 10092 C 989.356 -3.00542 -0.0975466 0
M  V30 10093 C 990.904 -3.12553 -0.167205 0
M  V30 10094 C 991.379 -4.58 -0.00662047 0
M  V30 10095 N 992.87 -4.63158 -0.0622778 0
M  V30 10096 C 993.605 -5.73388 0.0375831 0
M  V30 10097 N 993.101 -6.92537 0.190873 0
M  V30 10098 N 994.894 -5.62097 -0.0193672 0
M  V30 10099 H 987.045 -1.87651 0.995023 0
M  V30 10100 H 989.308 -0.865006 0.387902 0
M  V30 10101 H 989.014 -3.40543 0.878822 0
M  V30 10102 H 988.888 -3.67485 -0.850547 0
M  V30 10103 H 991.275 -2.72439 -1.13406 0
M  V30 10104 H 991.356 -2.48251 0.616871 0
M  V30 10105 H 991 -4.98803 0.956992 0
M  V30 10106 H 990.93 -5.20332 -0.810081 0
M  V30 10107 H 993.421 -3.77475 -0.179229 0
M  V30 10108 H 993.734 -7.72365 0.25926 0
M  V30 10109 H 992.079 -6.94632 0.226214 0
M  V30 10110 H 995.27 -4.67897 -0.137815 0
M  V30 10111 H 995.443 -6.4797 0.0619121 0
M  V30 10112 N 988.849 0.203349 -1.56283 0
M  V30 10113 C 990.265 0.55384 -1.49682 0
M  V30 10114 C 990.465 1.86261 -0.768701 0
M  V30 10115 O 989.521 2.50517 -0.315824 0
M  V30 10116 C 990.834 0.616216 -2.94318 0
M  V30 10117 C 992.382 0.705611 -3.04943 0
M  V30 10118 C 992.857 0.79917 -4.50974 0
M  V30 10119 N 994.348 0.862916 -4.55091 0
M  V30 10120 C 995.083 0.955334 -5.65386 0
M  V30 10121 N 994.579 1.01057 -6.8539 0
M  V30 10122 N 996.372 0.991884 -5.53279 0
M  V30 10123 H 988.523 -0.655244 -2.0204 0
M  V30 10124 H 990.786 -0.232344 -0.919087 0
M  V30 10125 H 990.492 -0.27619 -3.50614 0
M  V30 10126 H 990.366 1.47371 -3.4722 0
M  V30 10127 H 992.753 1.58845 -2.48701 0
M  V30 10128 H 992.834 -0.177921 -2.5518 0
M  V30 10129 H 992.478 -0.0792841 -5.07838 0
M  V30 10130 H 992.408 1.69838 -4.9846 0
M  V30 10131 H 994.899 0.829812 -3.68677 0
M  V30 10132 H 995.212 1.08137 -7.65197 0
M  V30 10133 H 993.557 0.979384 -6.88065 0
M  V30 10134 H 996.748 0.945514 -4.58451 0
M  V30 10135 H 996.921 1.06045 -6.39264 0
M  V30 10136 N 990.327 1.50405 0.470755 0
M  V30 10137 C 991.576 1.60652 1.21959 0
M  V30 10138 C 991.889 0.312521 1.93087 0
M  V30 10139 O 993.095 0.293901 2.69905 0
M  V30 10140 C 991.551 2.83581 2.21607 0
M  V30 10141 C 991.159 4.19858 1.5628 0
M  V30 10142 C 992.903 3.03173 2.9713 0
M  V30 10143 C 990.81 5.33974 2.54217 0
M  V30 10144 H 989.74 0.598264 0.458907 0
M  V30 10145 H 992.391 1.76836 0.490041 0
M  V30 10146 H 990.773 2.60957 2.97855 0
M  V30 10147 H 991.947 4.52738 0.85819 0
M  V30 10148 H 990.262 4.05873 0.930366 0
M  V30 10149 H 992.859 3.856 3.70428 0
M  V30 10150 H 993.202 2.14914 3.56536 0
M  V30 10151 H 993.735 3.2598 2.27995 0
M  V30 10152 H 990.474 6.24388 1.99549 0
M  V30 10153 H 989.994 5.05511 3.22829 0
M  V30 10154 H 991.673 5.64561 3.16039 0
M  V30 10155 N 991.805 -0.723954 1.39988 0
M  V30 10156 C 992.737 -1.84859 1.35498 0
M  V30 10157 C 993.75 -1.60681 0.261812 0
M  V30 10158 O 994.939 -1.7071 0.521566 0
M  V30 10159 C 992.039 -3.21103 1.08381 0
M  V30 10160 C 991.212 -3.72546 2.2919 0
M  V30 10161 C 990.271 -4.8738 1.9836 0
M  V30 10162 O 989.297 -5.00467 2.71149 0
M  V30 10163 N 990.499 -5.72566 0.956461 0
M  V30 10164 H 993.264 -1.89212 2.3242 0
M  V30 10165 H 990.825 -0.905152 1.34233 0
M  V30 10166 H 992.817 -3.9551 0.857564 0
M  V30 10167 H 991.387 -3.1195 0.201549 0
M  V30 10168 H 990.607 -2.89365 2.67697 0
M  V30 10169 H 991.895 -4.03652 3.09746 0
M  V30 10170 H 991.293 -5.64595 0.353444 0
M  V30 10171 H 989.85 -6.46993 0.790118 0
M  V30 10172 N 993.283 -1.25346 -0.955304 0
M  V30 10173 C 994.231 -1.05461 -2.07318 0
M  V30 10174 C 995.225 0.0142699 -1.69394 0
M  V30 10175 O 996.431 -0.141292 -1.79445 0
M  V30 10176 H 992.806 -0.324095 -0.678577 0
M  V30 10177 H 994.777 -2.00231 -2.21247 0
M  V30 10178 C 993.526 -0.689329 -3.40798 0
M  V30 10179 H 992.849 -1.50362 -3.70447 0
M  V30 10180 H 994.289 -0.589883 -4.19877 0
M  V30 10181 C 992.748 0.604556 -3.31431 0
M  V30 10182 O 993.278 1.64686 -3.6639 0
M  V30 10183 N 991.484 0.589927 -2.84549 0
M  V30 10184 H 991.031 -0.258647 -2.56298 0
M  V30 10185 H 990.989 1.4558 -2.78664 0
M  V30 10186 N 994.761 1.15782 -1.06922 0
M  V30 10187 C 995.708 2.2038 -0.685659 0
M  V30 10188 C 996.678 1.62972 0.320816 0
M  V30 10189 O 997.863 1.8966 0.208258 0
M  V30 10190 C 995.003 3.44995 -0.084998 0
M  V30 10191 C 994.116 4.16621 -1.14242 0
M  V30 10192 C 993.251 5.28773 -0.507226 0
M  V30 10193 C 992.29 5.92209 -1.54774 0
M  V30 10194 N 991.427 6.9584 -0.935443 0
M  V30 10195 H 996.267 2.5254 -1.58201 0
M  V30 10196 H 993.804 1.24031 -0.790864 0
M  V30 10197 H 995.762 4.16254 0.280845 0
M  V30 10198 H 994.392 3.13365 0.774725 0
M  V30 10199 H 993.444 3.43903 -1.62589 0
M  V30 10200 H 994.756 4.59884 -1.93154 0
M  V30 10201 H 993.91 6.06635 -0.0887719 0
M  V30 10202 H 992.649 4.8669 0.313704 0
M  V30 10203 H 991.654 5.13063 -1.97602 0
M  V30 10204 H 992.879 6.3637 -2.37088 0
M  V30 10205 H 990.825 6.5586 -0.135339 0
M  V30 10206 H 990.742 7.37508 -1.66186 0
M  V30 10207 H 992.01 7.77611 -0.542346 0
M  V30 10208 N 996.239 0.8527 1.3254 0
M  V30 10209 C 997.655 0.542298 1.50104 0
M  V30 10210 C 997.855 -0.927465 1.78886 0
M  V30 10211 O 996.911 -1.7106 1.85728 0
M  V30 10212 C 998.224 1.4276 2.64651 0
M  V30 10213 C 999.772 1.42782 2.78536 0
M  V30 10214 C 1000.25 2.29828 3.9616 0
M  V30 10215 N 1001.74 2.27613 4.03418 0
M  V30 10216 C 1002.47 2.91696 4.93661 0
M  V30 10217 N 1001.97 3.64883 5.88925 0
M  V30 10218 N 1003.76 2.81094 4.86768 0
M  V30 10219 H 995.913 1.80395 1.12123 0
M  V30 10220 H 998.176 0.770394 0.552446 0
M  V30 10221 H 997.882 2.47266 2.50105 0
M  V30 10222 H 997.756 1.11358 3.60388 0
M  V30 10223 H 1000.14 0.390417 2.92506 0
M  V30 10224 H 1000.22 1.78198 1.83519 0
M  V30 10225 H 999.868 3.33635 3.82949 0
M  V30 10226 H 999.798 1.91746 4.9045 0
M  V30 10227 H 1002.29 1.74402 3.3525 0
M  V30 10228 H 1002.6 4.10952 6.54476 0
M  V30 10229 H 1000.95 3.68991 5.88957 0
M  V30 10230 H 1004.14 2.23469 4.11314 0
M  V30 10231 H 1004.31 3.31318 5.56895 0
M  V30 10232 N 997.718 -1.45297 0.610449 0
M  V30 10233 C 998.681 -2.28995 -0.0968194 0
M  V30 10234 C 999.681 -1.39923 -0.792353 0
M  V30 10235 O 1000.87 -1.62014 -0.64008 0
M  V30 10236 C 998.003 -3.21013 -1.14731 0
M  V30 10237 H 999.196 -2.93012 0.639082 0
M  V30 10238 H 996.749 -1.51867 0.369624 0
M  V30 10239 H 997.484 -2.61803 -1.91388 0
M  V30 10240 H 997.269 -3.86628 -0.652753 0
M  V30 10241 H 998.759 -3.8394 -1.64256 0
M  V30 10242 N 999.196 -0.349774 -1.5367 0
M  V30 10243 C 1000.13 0.547309 -2.2154 0
M  V30 10244 C 1001.11 1.09543 -1.20163 0
M  V30 10245 O 1002.29 1.15453 -1.49006 0
M  V30 10246 C 999.418 1.75356 -2.89772 0
M  V30 10247 C 998.464 1.33433 -4.0509 0
M  V30 10248 S 999.297 0.348891 -5.34362 0
M  V30 10249 C 1000.45 1.56183 -6.061 0
M  V30 10250 H 1000.69 -0.0291392 -2.97286 0
M  V30 10251 H 998.219 -0.133853 -1.53819 0
M  V30 10252 H 1000.18 2.44555 -3.29701 0
M  V30 10253 H 998.838 2.30123 -2.1378 0
M  V30 10254 H 998.031 2.23388 -4.5179 0
M  V30 10255 H 997.633 0.721746 -3.6697 0
M  V30 10256 H 999.925 2.49535 -6.29872 0
M  V30 10257 H 1000.87 1.13651 -6.9892 0
M  V30 10258 H 1001.28 1.76071 -5.36339 0
M  V30 10259 N 1000.67 1.57404 -0.0785433 0
M  V30 10260 C 1002.09 1.57158 0.2781 0
M  V30 10261 C 1002.29 1.08847 1.69572 0
M  V30 10262 O 1001.35 0.757407 2.40873 0
M  V30 10263 C 1002.66 3.00589 0.0816067 0
M  V30 10264 C 1004.21 3.12637 0.150627 0
M  V30 10265 C 1004.68 4.57997 -0.0176685 0
M  V30 10266 N 1006.17 4.63185 0.0377145 0
M  V30 10267 C 1006.91 5.7336 -0.0679907 0
M  V30 10268 N 1006.4 6.92426 -0.227598 0
M  V30 10269 N 1008.2 5.62099 -0.0104424 0
M  V30 10270 H 1000.35 1.87121 -1.00496 0
M  V30 10271 H 1002.61 0.862937 -0.392484 0
M  V30 10272 H 1002.32 3.40072 -0.896869 0
M  V30 10273 H 1002.19 3.67931 0.831046 0
M  V30 10274 H 1004.58 2.73037 1.11959 0
M  V30 10275 H 1004.66 2.4792 -0.630028 0
M  V30 10276 H 1004.3 4.98288 -0.983431 0
M  V30 10277 H 1004.23 5.20754 0.782475 0
M  V30 10278 H 1006.72 3.77564 0.159208 0
M  V30 10279 H 1007.04 7.72217 -0.300217 0
M  V30 10280 H 1005.38 6.94502 -0.263049 0
M  V30 10281 H 1008.57 4.67964 0.112999 0
M  V30 10282 H 1008.75 6.47928 -0.0962747 0
M  V30 10283 N 1002.15 -0.195058 1.56388 0
M  V30 10284 C 1003.57 -0.545894 1.49974 0
M  V30 10285 C 1003.77 -1.85851 0.778568 0
M  V30 10286 O 1002.82 -2.50346 0.329105 0
M  V30 10287 C 1004.14 -0.600599 2.94641 0
M  V30 10288 C 1005.68 -0.689429 3.05313 0
M  V30 10289 C 1006.16 -0.775243 4.51391 0
M  V30 10290 N 1007.65 -0.838769 4.55542 0
M  V30 10291 C 1008.39 -0.925337 5.65884 0
M  V30 10292 N 1007.88 -0.974204 6.85916 0
M  V30 10293 N 1009.67 -0.962528 5.53798 0
M  V30 10294 H 1001.83 0.66595 2.0169 0
M  V30 10295 H 1004.09 0.237215 0.917842 0
M  V30 10296 H 1003.79 0.29478 3.50462 0
M  V30 10297 H 1003.67 -1.45528 3.47996 0
M  V30 10298 H 1006.06 -1.57524 2.4954 0
M  V30 10299 H 1006.14 0.191451 2.55083 0
M  V30 10300 H 1005.78 0.106215 5.07789 0
M  V30 10301 H 1005.71 -1.67193 4.99354 0
M  V30 10302 H 1008.2 -0.810249 3.69112 0
M  V30 10303 H 1008.51 -1.04077 7.6576 0
M  V30 10304 H 1006.86 -0.942881 6.88574 0
M  V30 10305 H 1010.05 -0.921188 4.58946 0
M  V30 10306 H 1010.22 -1.02653 6.39817 0
M  V30 10307 N 1003.63 -1.50653 -0.462772 0
M  V30 10308 C 1004.86 -1.65586 -1.23551 0
M  V30 10309 C 1005.27 -0.342012 -1.86083 0
M  V30 10310 O 1004.61 0.686893 -1.70374 0
M  V30 10311 C 1004.67 -2.69555 -2.37867 0
M  V30 10312 C 1004.34 -4.1288 -1.95906 0
M  V30 10313 C 1005.33 -4.98483 -1.47685 0
M  V30 10314 C 1003.02 -4.58843 -2.04373 0
M  V30 10315 C 1005.01 -6.281 -1.08484 0
M  V30 10316 C 1002.7 -5.88464 -1.64783 0
M  V30 10317 C 1003.7 -6.72918 -1.16918 0
M  V30 10318 O 1003.39 -8.00119 -0.778798 0
M  V30 10319 H 1003.12 -0.559438 -0.37948 0
M  V30 10320 H 1005.67 -1.9768 -0.557816 0
M  V30 10321 H 1003.9 -2.3272 -3.08834 0
M  V30 10322 H 1005.59 -2.73624 -2.99808 0
M  V30 10323 H 1006.36 -4.64186 -1.40558 0
M  V30 10324 H 1002.24 -3.93247 -2.40577 0
M  V30 10325 H 1005.78 -6.93972 -0.710524 0
M  V30 10326 H 1001.68 -6.22281 -1.71571 0
M  V30 10327 H 1002.44 -8.1346 -0.906911 0
M  V30 10328 N 1005.11 0.71652 -1.4037 0
M  V30 10329 C 1006.04 1.84345 -1.43315 0
M  V30 10330 C 1007.02 1.67537 -0.294186 0
M  V30 10331 O 1008.2 1.87582 -0.502671 0
M  V30 10332 C 1005.33 3.2229 -1.29408 0
M  V30 10333 C 1004.29 3.53769 -2.40897 0
M  V30 10334 C 1003.61 4.90847 -2.12068 0
M  V30 10335 C 1004.91 3.54862 -3.83237 0
M  V30 10336 H 1006.61 1.82138 -2.37626 0
M  V30 10337 H 1004.15 0.874873 -1.14376 0
M  V30 10338 H 1006.11 4.00819 -1.30085 0
M  V30 10339 H 1004.83 3.2507 -0.31573 0
M  V30 10340 H 1003.49 2.77579 -2.39469 0
M  V30 10341 H 1003.14 4.90229 -1.12626 0
M  V30 10342 H 1002.84 5.12875 -2.86762 0
M  V30 10343 H 1004.36 5.71711 -2.14426 0
M  V30 10344 H 1005.78 4.23432 -3.86494 0
M  V30 10345 H 1004.17 3.88416 -4.57442 0
M  V30 10346 H 1005.24 2.54266 -4.12888 0
M  V30 10347 N 1006.59 1.25851 0.948643 0
M  V30 10348 C 1007.5 1.08516 2.07994 0
M  V30 10349 C 1008.51 0.0206696 1.73988 0
M  V30 10350 O 1009.69 0.222854 2.00163 0
M  V30 10351 C 1006.75 0.712145 3.39307 0
M  V30 10352 C 1005.81 1.85523 3.87143 0
M  V30 10353 C 1005.05 1.49992 5.1219 0
M  V30 10354 O 1005.27 0.398268 5.69008 0
M  V30 10355 O 1004.2 2.33215 5.54882 0
M  V30 10356 H 1008.03 2.03405 2.25522 0
M  V30 10357 H 1005.62 1.04844 1.06433 0
M  V30 10358 H 1007.5 0.516512 4.18223 0
M  V30 10359 H 1006.17 -0.207416 3.23035 0
M  V30 10360 H 1005.08 2.10578 3.09205 0
M  V30 10361 H 1006.41 2.75425 4.07924 0
M  V30 10362 N 1008.06 -1.15214 1.07534 0
M  V30 10363 C 1009.48 -1.38031 0.801228 0
M  V30 10364 C 1009.68 -1.92556 -0.593672 0
M  V30 10365 O 1008.74 -2.1325 -1.35206 0
M  V30 10366 C 1010.05 -2.34958 1.87657 0
M  V30 10367 C 1011.6 -2.48617 1.90154 0
M  V30 10368 C 1012.07 -3.48837 2.96777 0
M  V30 10369 N 1013.56 -3.56374 2.95892 0
M  V30 10370 C 1014.3 -4.33746 3.75036 0
M  V30 10371 N 1013.79 -5.14435 4.64036 0
M  V30 10372 N 1015.59 -4.28853 3.63375 0
M  V30 10373 H 1007.74 -0.781639 1.97495 0
M  V30 10374 H 1010 -0.406243 0.856546 0
M  V30 10375 H 1009.71 -2.02013 2.87895 0
M  V30 10376 H 1009.58 -3.3476 1.73827 0
M  V30 10377 H 1011.97 -2.80859 0.905666 0
M  V30 10378 H 1012.05 -1.48808 2.08062 0
M  V30 10379 H 1011.69 -3.1733 3.96565 0
M  V30 10380 H 1011.62 -4.48406 2.76116 0
M  V30 10381 H 1014.11 -2.98784 2.31379 0
M  V30 10382 H 1014.43 -5.70722 5.21053 0
M  V30 10383 H 1012.77 -5.13734 4.68084 0
M  V30 10384 H 1015.96 -3.64882 2.93221 0
M  V30 10385 H 1016.14 -4.88903 4.25298 0
M  V30 10386 N 1009.54 -0.859717 -1.32086 0
M  V30 10387 C 1010.79 -0.464662 -1.96686 0
M  V30 10388 C 1011.11 0.98412 -1.68345 0
M  V30 10389 O 1010.38 1.68847 -0.993361 0
M  V30 10390 H 1008.96 -0.168838 -0.727669 0
M  V30 10391 H 1011.62 -1.09726 -1.61079 0
M  V30 10392 H 1010.72 -0.613904 -3.06003 0
M  V30 10393 N 1011.02 1.44971 -0.618145 0
M  V30 10394 C 1011.93 2.34403 0.0960457 0
M  V30 10395 C 1012.95 1.51862 0.849355 0
M  V30 10396 O 1014.12 1.84632 0.804557 0
M  V30 10397 C 1011.19 3.29646 1.07397 0
M  V30 10398 C 1010.25 4.28095 0.321466 0
M  V30 10399 C 1009.48 5.18787 1.25281 0
M  V30 10400 O 1009.7 5.1313 2.49106 0
M  V30 10401 O 1008.64 5.97282 0.744156 0
M  V30 10402 H 1012.46 2.96898 -0.639176 0
M  V30 10403 H 1010.05 1.44529 -0.37837 0
M  V30 10404 H 1011.93 3.88307 1.63694 0
M  V30 10405 H 1010.61 2.69702 1.79004 0
M  V30 10406 H 1009.51 3.73019 -0.284223 0
M  V30 10407 H 1010.85 4.90923 -0.354315 0
M  V30 10408 N 1012.5 0.357919 1.53482 0
M  V30 10409 C 1013.72 -0.237769 2.06033 0
M  V30 10410 C 1014.15 -1.42292 1.23023 0
M  V30 10411 O 1013.51 -1.79604 0.247427 0
M  V30 10412 C 1013.55 -0.616806 3.55286 0
M  V30 10413 O 1012.66 -1.71503 3.75047 0
M  V30 10414 H 1012 -0.0364322 0.663 0
M  V30 10415 H 1014.53 0.516301 1.97979 0
M  V30 10416 H 1014.54 -0.88996 3.98175 0
M  V30 10417 H 1013.21 0.249825 4.15149 0
M  V30 10418 H 1011.79 -1.43803 3.44057 0
M  V30 10419 N 1013.98 -1.5736 0.0868897 0
M  V30 10420 C 1015.23 -1.93229 -0.578387 0
M  V30 10421 C 1015.54 -0.970127 -1.69847 0
M  V30 10422 O 1016.74 -1.22222 -2.42434 0
M  V30 10423 C 1015.2 -3.43307 -1.0802 0
M  V30 10424 C 1014.81 -4.47999 0.00968135 0
M  V30 10425 C 1016.55 -3.88151 -1.71868 0
M  V30 10426 C 1014.46 -5.89223 -0.507029 0
M  V30 10427 H 1013.39 -0.721245 -0.219823 0
M  V30 10428 H 1016.04 -1.82787 0.161566 0
M  V30 10429 H 1014.42 -3.48873 -1.87359 0
M  V30 10430 H 1015.6 -4.54067 0.784865 0
M  V30 10431 H 1013.91 -4.12714 0.552845 0
M  V30 10432 H 1016.51 -4.91056 -2.11585 0
M  V30 10433 H 1016.85 -3.26347 -2.58464 0
M  V30 10434 H 1017.38 -3.85252 -0.991259 0
M  V30 10435 H 1014.12 -6.54708 0.322121 0
M  V30 10436 H 1013.64 -5.86643 -1.2494 0
M  V30 10437 H 1015.32 -6.39556 -0.978628 0
M  V30 10438 N 1015.45 0.186762 -1.56489 0
M  V30 10439 C 1016.36 1.25169 -1.98419 0
M  V30 10440 C 1017.38 1.49329 -0.893124 0
M  V30 10441 O 1018.56 1.61781 -1.19954 0
M  V30 10442 C 1015.62 2.57422 -2.32239 0
M  V30 10443 C 1014.68 2.4126 -3.55095 0
M  V30 10444 C 1013.92 3.67206 -3.87292 0
M  V30 10445 O 1014.14 4.71731 -3.20665 0
M  V30 10446 O 1013.07 3.62238 -4.80695 0
M  V30 10447 H 1016.9 0.925834 -2.89244 0
M  V30 10448 H 1014.48 0.392421 -1.44154 0
M  V30 10449 H 1016.37 3.35466 -2.5503 0
M  V30 10450 H 1015.04 2.89618 -1.44579 0
M  V30 10451 H 1013.95 1.61299 -3.37541 0
M  V30 10452 H 1015.28 2.13994 -4.43247 0
M  V30 10453 N 1016.93 1.50896 0.454776 0
M  V30 10454 C 1018.34 1.55372 1.0352 0
M  V30 10455 C 1018.69 0.366822 1.9274 0
M  V30 10456 O 1017.82 -0.518444 2.10098 0
M  V30 10457 C 1018.41 2.81574 1.88418 0
M  V30 10458 C 1016.97 2.88679 2.4154 0
M  V30 10459 C 1016.12 2.49847 1.20298 0
M  V30 10460 H 1019.07 1.56924 0.236729 0
M  V30 10461 H 1019.09 2.64352 2.73676 0
M  V30 10462 H 1018.6 3.67941 1.23455 0
M  V30 10463 H 1016.71 2.06702 3.10008 0
M  V30 10464 H 1016.82 3.91944 2.7553 0
M  V30 10465 H 1015.18 2.02651 1.54288 0
M  V30 10466 H 1015.97 3.3854 0.569723 0
M  V30 10467 N 1018.41 -0.709066 1.40748 0
M  V30 10468 C 1019.34 -1.83583 1.4429 0
M  V30 10469 C 1020.32 -1.67378 0.303067 0
M  V30 10470 O 1021.51 -1.87312 0.512612 0
M  V30 10471 C 1018.64 -3.21599 1.31116 0
M  V30 10472 C 1017.59 -3.52486 2.4277 0
M  V30 10473 C 1016.92 -4.89716 2.14668 0
M  V30 10474 C 1018.22 -3.52824 3.85113 0
M  V30 10475 H 1019.91 -1.80876 2.38588 0
M  V30 10476 H 1017.46 -0.868795 1.14839 0
M  V30 10477 H 1019.41 -4.00123 1.32209 0
M  V30 10478 H 1018.13 -3.24898 0.332965 0
M  V30 10479 H 1016.79 -2.76305 2.40937 0
M  V30 10480 H 1016.44 -4.89625 1.15224 0
M  V30 10481 H 1016.14 -5.11347 2.89478 0
M  V30 10482 H 1017.66 -5.70566 2.17455 0
M  V30 10483 H 1019.08 -4.21377 3.88734 0
M  V30 10484 H 1017.48 -3.85984 4.59496 0
M  V30 10485 H 1018.55 -2.52073 4.14231 0
M  V30 10486 N 1019.89 -1.26353 -0.941956 0
M  V30 10487 C 1021.17 -1.02601 -1.6653 0
M  V30 10488 C 1021.55 0.44381 -2.06382 0
M  V30 10489 O 1020.89 1.42399 -1.78703 0
M  V30 10490 C 1021.1 -1.97401 -2.87809 0
M  V30 10491 C 1022.45 -2.25967 -3.59478 0
M  V30 10492 O 1023.48 -1.95261 -2.97912 0
M  V30 10493 O 1022.34 -2.78244 -4.70364 0
M  V30 10494 H 1019.43 -0.39007 -0.729228 0
M  V30 10495 H 1021.98 -1.37559 -0.993754 0
M  V30 10496 H 1020.75 -2.9659 -2.55245 0
M  V30 10497 H 1020.37 -1.62918 -3.62689 0
M  V30 10498 N 1021.37 1.14642 -1.08144 0
M  V30 10499 C 1022.78 1.6719 -0.830923 0
M  V30 10500 C 1023.13 1.85373 0.642749 0
M  V30 10501 O 1022.25 1.56293 1.49671 0
M  V30 10502 C 1022.85 3.03697 -1.50179 0
M  V30 10503 C 1021.41 3.5329 -1.29858 0
M  V30 10504 C 1020.56 2.28828 -1.5663 0
M  V30 10505 H 1023.51 0.987441 -1.24239 0
M  V30 10506 H 1023.53 3.69023 -0.9275 0
M  V30 10507 H 1023.04 2.90431 -2.57432 0
M  V30 10508 H 1021.14 3.71783 -0.246626 0
M  V30 10509 H 1021.25 4.34231 -2.02436 0
M  V30 10510 H 1019.62 2.34769 -0.987716 0
M  V30 10511 H 1020.4 2.18141 -2.65084 0
M  V30 10512 N 1022.85 0.866709 1.31628 0
M  V30 10513 C 1024.07 0.48956 2.01539 0
M  V30 10514 C 1024.5 -0.909556 1.64647 0
M  V30 10515 O 1023.85 -1.59959 0.853391 0
M  V30 10516 C 1023.9 0.650176 3.5469 0
M  V30 10517 O 1023.01 -0.311908 4.11219 0
M  V30 10518 H 1022.35 0.195144 0.634677 0
M  V30 10519 H 1024.88 1.16923 1.679 0
M  V30 10520 H 1024.89 0.542236 4.04381 0
M  V30 10521 H 1023.56 1.67038 3.80882 0
M  V30 10522 H 1022.14 -0.159197 3.7256 0
M  V30 10523 N 1024.32 -1.44642 0.625825 0
M  V30 10524 C 1025.23 -2.34451 -0.0836134 0
M  V30 10525 C 1026.25 -1.5231 -0.841289 0
M  V30 10526 O 1027.43 -1.85056 -0.794754 0
M  V30 10527 C 1024.49 -3.30211 -1.05648 0
M  V30 10528 C 1023.55 -4.28259 -0.298759 0
M  V30 10529 C 1022.78 -5.19444 -1.22528 0
M  V30 10530 O 1023.01 -5.14444 -2.46382 0
M  V30 10531 O 1021.94 -5.97668 -0.71247 0
M  V30 10532 H 1025.77 -2.96555 0.654912 0
M  V30 10533 H 1023.35 -1.44327 0.386029 0
M  V30 10534 H 1025.23 -3.8917 -1.61632 0
M  V30 10535 H 1023.91 -2.70648 -1.77571 0
M  V30 10536 H 1022.82 -3.72863 0.304001 0
M  V30 10537 H 1024.15 -4.90728 0.380345 0
M  V30 10538 N 1025.8 -0.366053 -1.5329 0
M  V30 10539 C 1026.75 0.480205 -2.25749 0
M  V30 10540 C 1027.72 1.07713 -1.2644 0
M  V30 10541 O 1028.9 1.10953 -1.55222 0
M  V30 10542 C 1026.04 1.61374 -3.05045 0
M  V30 10543 C 1025.16 1.04194 -4.19246 0
M  V30 10544 C 1024.29 2.14462 -4.85983 0
M  V30 10545 C 1023.33 1.5475 -5.92215 0
M  V30 10546 N 1022.47 2.58852 -6.52641 0
M  V30 10547 H 1027.31 -0.144199 -2.97651 0
M  V30 10548 H 1024.84 -0.0829321 -1.46866 0
M  V30 10549 H 1026.8 2.28144 -3.49294 0
M  V30 10550 H 1025.43 2.2088 -2.35397 0
M  V30 10551 H 1024.48 0.264514 -3.79479 0
M  V30 10552 H 1025.8 0.565379 -4.95585 0
M  V30 10553 H 1024.95 2.89051 -5.33418 0
M  V30 10554 H 1023.69 2.6547 -4.09117 0
M  V30 10555 H 1022.69 0.786759 -5.44142 0
M  V30 10556 H 1023.92 1.04566 -6.71001 0
M  V30 10557 H 1021.87 3.09073 -5.78627 0
M  V30 10558 H 1021.78 2.15884 -7.24521 0
M  V30 10559 H 1023.05 3.33142 -7.04724 0
M  V30 10560 N 1027.28 1.57312 -0.0952337 0
M  V30 10561 C 1028.24 2.12889 0.849161 0
M  V30 10562 C 1029.24 1.05819 1.21075 0
M  V30 10563 O 1030.43 1.31704 1.14016 0
M  V30 10564 C 1027.56 2.6496 2.14498 0
M  V30 10565 H 1028.76 2.97651 0.366566 0
M  V30 10566 H 1026.31 1.55542 0.153762 0
M  V30 10567 H 1027.05 1.83718 2.67242 0
M  V30 10568 H 1026.83 3.43244 1.89542 0
M  V30 10569 H 1028.32 3.07952 2.82056 0
M  V30 10570 N 1028.76 -0.17846 1.56586 0
M  V30 10571 C 1029.71 -1.24042 1.96765 0
M  V30 10572 C 1030.7 -1.46218 0.855375 0
M  V30 10573 O 1031.91 -1.46882 1.04046 0
M  V30 10574 H 1028.28 -0.416807 0.62592 0
M  V30 10575 H 1030.25 -0.874644 2.85294 0
M  V30 10576 C 1029 -2.57394 2.3376 0
M  V30 10577 H 1028.32 -2.41151 3.18883 0
M  V30 10578 H 1029.76 -3.30405 2.65723 0
M  V30 10579 C 1028.22 -3.15621 1.17835 0
M  V30 10580 O 1028.75 -3.99032 0.462202 0
M  V30 10581 N 1026.96 -2.74606 0.950783 0
M  V30 10582 H 1026.51 -2.06878 1.5349 0
M  V30 10583 H 1026.46 -3.13902 0.176967 0
M  V30 10584 N 1030.24 -1.51135 -0.446768 0
M  V30 10585 C 1031.18 -1.71767 -1.54158 0
M  V30 10586 C 1032.15 -0.559201 -1.56404 0
M  V30 10587 O 1033.34 -0.792567 -1.7356 0
M  V30 10588 C 1030.48 -1.84006 -2.91952 0
M  V30 10589 C 1029.59 -3.11511 -2.99308 0
M  V30 10590 C 1028.73 -3.144 -4.28166 0
M  V30 10591 C 1027.76 -4.36258 -4.29355 0
M  V30 10592 N 1026.9 -4.3675 -5.49722 0
M  V30 10593 H 1031.74 -2.65224 -1.35869 0
M  V30 10594 H 1029.28 -1.31453 -0.660186 0
M  V30 10595 H 1031.24 -1.89083 -3.71892 0
M  V30 10596 H 1029.87 -0.939661 -3.08821 0
M  V30 10597 H 1028.92 -3.15788 -2.12089 0
M  V30 10598 H 1030.23 -4.01445 -2.96047 0
M  V30 10599 H 1029.38 -3.18341 -5.16473 0
M  V30 10600 H 1028.12 -2.22338 -4.3407 0
M  V30 10601 H 1027.13 -4.32503 -3.39442 0
M  V30 10602 H 1028.35 -5.29574 -4.25122 0
M  V30 10603 H 1026.3 -3.47554 -5.56365 0
M  V30 10604 H 1026.22 -5.20481 -5.48302 0
M  V30 10605 H 1027.48 -4.4487 -6.40086 0
M  V30 10606 N 1031.71 0.701592 -1.41122 0
M  V30 10607 C 1032.96 1.46376 -1.40363 0
M  V30 10608 C 1033.29 1.94197 -0.0105442 0
M  V30 10609 O 1032.57 1.69121 0.960637 0
M  V30 10610 C 1032.85 2.67994 -2.40523 0
M  V30 10611 C 1032.7 2.25977 -3.88914 0
M  V30 10612 C 1034.02 3.70181 -2.38022 0
M  V30 10613 H 1031.14 0.530929 -0.511159 0
M  V30 10614 H 1033.78 0.799588 -1.72356 0
M  V30 10615 H 1031.93 3.24661 -2.13372 0
M  V30 10616 H 1033.61 1.74684 -4.26946 0
M  V30 10617 H 1031.85 1.57826 -4.04071 0
M  V30 10618 H 1032.52 3.13215 -4.54533 0
M  V30 10619 H 1035 3.23174 -2.62103 0
M  V30 10620 H 1033.87 4.52894 -3.10127 0
M  V30 10621 H 1034.13 4.19458 -1.3967 0
M  V30 10622 N 1033.19 1.2685 0.935242 0
M  V30 10623 C 1034.12 1.1143 2.05196 0
M  V30 10624 C 1035.1 0.0178362 1.70091 0
M  V30 10625 O 1036.29 0.190951 1.93259 0
M  V30 10626 C 1033.42 0.752779 3.39044 0
M  V30 10627 C 1032.37 1.80164 3.88233 0
M  V30 10628 C 1031.7 1.29428 5.18799 0
M  V30 10629 C 1033 3.20431 4.12457 0
M  V30 10630 H 1034.69 2.04845 2.18355 0
M  V30 10631 H 1032.24 0.986276 1.04922 0
M  V30 10632 H 1034.19 0.631757 4.16637 0
M  V30 10633 H 1032.91 -0.217075 3.25878 0
M  V30 10634 H 1031.57 1.91144 3.12825 0
M  V30 10635 H 1031.22 0.3141 5.02018 0
M  V30 10636 H 1030.92 1.99546 5.5268 0
M  V30 10637 H 1032.45 1.18605 5.9897 0
M  V30 10638 H 1033.86 3.12495 4.80645 0
M  V30 10639 H 1032.26 3.88193 4.57631 0
M  V30 10640 H 1033.33 3.66046 3.18023 0
M  V30 10641 N 1034.67 -1.14067 1.0875 0
M  V30 10642 C 1035.63 -2.17453 0.724341 0
M  V30 10643 C 1036.63 -1.58959 -0.242614 0
M  V30 10644 O 1037.82 -1.74186 -0.0217008 0
M  V30 10645 C 1034.96 -3.40828 0.0700236 0
M  V30 10646 H 1036.15 -2.51094 1.63987 0
M  V30 10647 H 1033.7 -1.28775 0.885813 0
M  V30 10648 H 1034.44 -3.1277 -0.857061 0
M  V30 10649 H 1034.22 -3.84551 0.76569 0
M  V30 10650 H 1035.71 -4.17258 -0.168905 0
M  V30 10651 N 1036.15 -0.873678 -1.31166 0
M  V30 10652 C 1037.56 -0.566109 -1.49223 0
M  V30 10653 C 1037.76 0.898889 -1.80339 0
M  V30 10654 O 1036.82 1.68084 -1.88425 0
M  V30 10655 C 1038.13 -1.46952 -2.62346 0
M  V30 10656 C 1039.68 -1.47195 -2.76229 0
M  V30 10657 C 1040.16 -2.36102 -3.92454 0
M  V30 10658 N 1041.65 -2.34003 -3.99746 0
M  V30 10659 C 1042.38 -2.99513 -4.88958 0
M  V30 10660 N 1041.88 -3.74206 -5.83045 0
M  V30 10661 N 1043.67 -2.88802 -4.82234 0
M  V30 10662 H 1035.82 -1.82156 -1.09239 0
M  V30 10663 H 1038.09 -0.779086 -0.54012 0
M  V30 10664 H 1037.79 -2.51213 -2.4614 0
M  V30 10665 H 1037.67 -1.17077 -3.5857 0
M  V30 10666 H 1040.05 -0.436902 -2.91848 0
M  V30 10667 H 1040.13 -1.81095 -1.80661 0
M  V30 10668 H 1039.78 -3.39685 -3.77593 0
M  V30 10669 H 1039.71 -1.99524 -4.87337 0
M  V30 10670 H 1042.2 -1.79713 -3.32433 0
M  V30 10671 H 1042.51 -4.21312 -6.47855 0
M  V30 10672 H 1040.86 -3.78314 -5.83012 0
M  V30 10673 H 1044.05 -2.29984 -4.07707 0
M  V30 10674 H 1044.22 -3.40136 -5.51554 0
M  V30 10675 N 1037.63 1.44308 -0.633487 0
M  V30 10676 C 1038.88 2.01239 -0.136356 0
M  V30 10677 C 1039.19 1.50438 1.25011 0
M  V30 10678 O 1040.39 1.99513 1.84138 0
M  V30 10679 C 1038.85 3.59382 -0.193011 0
M  V30 10680 C 1038.46 4.19178 -1.58093 0
M  V30 10681 C 1040.2 4.23778 0.247534 0
M  V30 10682 C 1038.11 5.69553 -1.59258 0
M  V30 10683 H 1037.04 0.752521 -0.0472109 0
M  V30 10684 H 1039.69 1.65498 -0.79263 0
M  V30 10685 H 1038.07 3.92432 0.530408 0
M  V30 10686 H 1039.25 3.97662 -2.32813 0
M  V30 10687 H 1037.56 3.67079 -1.96576 0
M  V30 10688 H 1040.16 5.34075 0.258401 0
M  V30 10689 H 1040.5 3.96285 1.27529 0
M  V30 10690 H 1041.03 3.9554 -0.423469 0
M  V30 10691 H 1037.77 6.01784 -2.59878 0
M  V30 10692 H 1037.29 5.93185 -0.888352 0
M  V30 10693 H 1038.97 6.33234 -1.32756 0
M  V30 10694 N 1039.1 0.374177 1.53094 0
M  V30 10695 C 1040.35 -0.212816 2.01379 0
M  V30 10696 C 1040.68 -1.48069 1.26118 0
M  V30 10697 O 1039.93 -1.92625 0.345561 0
M  V30 10698 C 1040.23 -0.542179 3.53264 0
M  V30 10699 C 1039.9 0.632375 4.46444 0
M  V30 10700 C 1038.56 0.954635 4.71636 0
M  V30 10701 C 1040.91 1.41887 5.01515 0
M  V30 10702 C 1038.24 2.06521 5.4915 0
M  V30 10703 C 1040.59 2.51993 5.80243 0
M  V30 10704 C 1039.26 2.84744 6.03719 0
M  V30 10705 H 1038.53 -0.0778749 0.736897 0
M  V30 10706 H 1041.17 0.508412 1.84628 0
M  V30 10707 H 1039.48 -1.34454 3.68007 0
M  V30 10708 H 1041.18 -1.00874 3.88105 0
M  V30 10709 H 1037.77 0.371179 4.2699 0
M  V30 10710 H 1041.95 1.18315 4.81991 0
M  V30 10711 H 1037.21 2.32284 5.65557 0
M  V30 10712 H 1041.38 3.13346 6.21922 0
M  V30 10713 H 1039.01 3.70921 6.63568 0
M  V30 10714 N 1040.58 -1.57259 0.103575 0
M  V30 10715 C 1041.53 -2.14487 -0.852295 0
M  V30 10716 C 1042.5 -1.06567 -1.27407 0
M  V30 10717 O 1043.68 -1.34398 -1.35432 0
M  V30 10718 C 1040.82 -2.73632 -2.10284 0
M  V30 10719 C 1039.94 -3.95811 -1.73083 0
M  V30 10720 C 1039.07 -4.43093 -2.92988 0
M  V30 10721 C 1038.11 -5.5784 -2.51953 0
M  V30 10722 N 1037.25 -5.99936 -3.64721 0
M  V30 10723 H 1042.09 -2.95849 -0.35743 0
M  V30 10724 H 1039.63 -1.46175 -0.164748 0
M  V30 10725 H 1041.58 -3.06046 -2.83534 0
M  V30 10726 H 1040.21 -1.94985 -2.57256 0
M  V30 10727 H 1039.27 -3.69656 -0.897688 0
M  V30 10728 H 1040.58 -4.79066 -1.38916 0
M  V30 10729 H 1039.73 -4.77335 -3.74481 0
M  V30 10730 H 1038.47 -3.58756 -3.30372 0
M  V30 10731 H 1037.48 -5.23217 -1.6889 0
M  V30 10732 H 1038.7 -6.43932 -2.15705 0
M  V30 10733 H 1036.65 -5.18543 -4.01807 0
M  V30 10734 H 1036.56 -6.78008 -3.34427 0
M  V30 10735 H 1037.83 -6.38812 -4.46699 0
M  V30 10736 N 1042.06 0.170153 -1.56679 0
M  V30 10737 C 1042.97 1.23057 -1.99735 0
M  V30 10738 C 1043.99 1.48374 -0.908912 0
M  V30 10739 O 1045.16 1.60499 -1.21663 0
M  V30 10740 C 1042.23 2.54944 -2.34956 0
M  V30 10741 C 1041.29 2.3748 -3.57634 0
M  V30 10742 C 1040.52 3.63078 -3.91165 0
M  V30 10743 O 1040.74 4.68304 -3.2565 0
M  V30 10744 O 1039.68 3.57119 -4.8451 0
M  V30 10745 H 1043.5 0.895104 -2.9021 0
M  V30 10746 H 1041.09 0.377109 -1.44562 0
M  V30 10747 H 1042.97 3.32742 -2.58574 0
M  V30 10748 H 1041.65 2.88068 -1.47643 0
M  V30 10749 H 1040.55 1.57709 -3.39232 0
M  V30 10750 H 1041.89 2.0928 -4.45491 0
M  V30 10751 N 1043.54 1.5137 0.438746 0
M  V30 10752 C 1044.77 1.67774 1.21077 0
M  V30 10753 C 1045.18 0.374489 1.85049 0
M  V30 10754 O 1044.54 -0.646867 1.70651 0
M  V30 10755 C 1044.59 2.79238 2.29584 0
M  V30 10756 O 1044.31 4.04513 1.68228 0
M  V30 10757 C 1045.81 3.06898 3.19888 0
M  V30 10758 H 1043.03 0.563054 0.364981 0
M  V30 10759 H 1045.58 1.97777 0.520035 0
M  V30 10760 H 1043.73 2.51837 2.94375 0
M  V30 10761 H 1044.14 4.66405 2.3993 0
M  V30 10762 H 1045.62 3.88476 3.92162 0
M  V30 10763 H 1046.1 2.19249 3.80561 0
M  V30 10764 H 1046.7 3.35952 2.60799 0
M  V30 10765 N 1045.02 -0.694098 1.41492 0
M  V30 10766 C 1045.93 -1.83778 1.45818 0
M  V30 10767 C 1046.94 -1.70471 0.348639 0
M  V30 10768 O 1048.12 -1.92361 0.596588 0
M  V30 10769 C 1045.18 -3.19771 1.33967 0
M  V30 10770 C 1044.24 -3.45175 2.5525 0
M  V30 10771 C 1043.48 -4.74681 2.43955 0
M  V30 10772 O 1043.7 -5.51268 1.46491 0
M  V30 10773 O 1042.63 -5.00901 3.33739 0
M  V30 10774 H 1046.46 -1.83084 2.42309 0
M  V30 10775 H 1044.05 -0.847349 1.23046 0
M  V30 10776 H 1045.93 -4.00961 1.29648 0
M  V30 10777 H 1044.6 -3.21145 0.405926 0
M  V30 10778 H 1043.51 -2.6391 2.65146 0
M  V30 10779 H 1044.84 -3.48617 3.47458 0
M  V30 10780 N 1046.49 -1.27344 -0.928501 0
M  V30 10781 C 1047.42 -1.12517 -2.04602 0
M  V30 10782 C 1048.41 -0.0268563 -1.70079 0
M  V30 10783 O 1049.59 -0.201197 -1.93155 0
M  V30 10784 C 1046.72 -0.770749 -3.3864 0
M  V30 10785 C 1045.67 -1.8222 -3.87272 0
M  V30 10786 C 1045 -1.32178 -5.18105 0
M  V30 10787 C 1046.3 -3.22614 -4.10752 0
M  V30 10788 H 1047.99 -2.06 -2.17265 0
M  V30 10789 H 1045.54 -0.991827 -1.04397 0
M  V30 10790 H 1047.49 -0.653843 -4.16297 0
M  V30 10791 H 1046.22 0.19979 -3.25988 0
M  V30 10792 H 1044.88 -1.928 -3.11807 0
M  V30 10793 H 1044.52 -0.340719 -5.01845 0
M  V30 10794 H 1044.22 -2.02474 -5.51614 0
M  V30 10795 H 1045.75 -1.2178 -5.98333 0
M  V30 10796 H 1047.16 -3.1504 -4.78981 0
M  V30 10797 H 1045.56 -3.90614 -4.55566 0
M  V30 10798 H 1046.63 -3.67727 -3.16077 0
M  V30 10799 N 1047.97 1.13488 -1.09353 0
M  V30 10800 C 1049.39 1.36739 -0.823086 0
M  V30 10801 C 1049.59 1.93476 0.562963 0
M  V30 10802 O 1048.64 2.15374 1.31796 0
M  V30 10803 C 1049.96 2.31943 -1.91371 0
M  V30 10804 C 1051.51 2.4556 -1.94085 0
M  V30 10805 C 1051.98 3.44072 -3.02289 0
M  V30 10806 N 1053.47 3.51622 -3.01524 0
M  V30 10807 C 1054.21 4.27724 -3.8189 0
M  V30 10808 N 1053.7 5.06987 -4.72161 0
M  V30 10809 N 1055.5 4.23018 -3.70152 0
M  V30 10810 H 1047.65 0.75012 -1.98713 0
M  V30 10811 H 1049.91 0.392564 -0.862901 0
M  V30 10812 H 1049.62 1.97408 -2.91072 0
M  V30 10813 H 1049.49 3.31952 -1.79131 0
M  V30 10814 H 1051.88 2.79382 -0.950234 0
M  V30 10815 H 1051.96 1.45479 -2.10403 0
M  V30 10816 H 1051.6 3.10981 -4.01564 0
M  V30 10817 H 1051.53 4.43956 -2.83214 0
M  V30 10818 H 1054.02 2.95066 -2.36103 0
M  V30 10819 H 1054.34 5.6236 -5.30067 0
M  V30 10820 H 1052.68 5.06222 -4.76197 0
M  V30 10821 H 1055.87 3.60171 -2.98989 0
M  V30 10822 H 1056.04 4.82075 -4.33022 0
M  V30 10823 N 1049.45 0.880621 1.30701 0
M  V30 10824 C 1050.4 0.342397 2.28246 0
M  V30 10825 C 1051.37 -0.565023 1.56194 0
M  V30 10826 O 1052.55 -0.494377 1.84284 0
M  V30 10827 C 1049.69 -0.440859 3.42272 0
M  V30 10828 C 1048.81 0.495284 4.29151 0
M  V30 10829 C 1047.94 -0.303141 5.30334 0
M  V30 10830 C 1046.98 0.628751 6.08862 0
M  V30 10831 N 1046.12 -0.13408 7.01972 0
M  V30 10832 H 1050.96 1.17938 2.73669 0
M  V30 10833 H 1048.49 0.59296 1.34619 0
M  V30 10834 H 1050.45 -0.910854 4.07135 0
M  V30 10835 H 1049.08 -1.24245 2.97931 0
M  V30 10836 H 1048.13 1.08376 3.64635 0
M  V30 10837 H 1049.45 1.2094 4.83916 0
M  V30 10838 H 1048.6 -0.835181 6.00924 0
M  V30 10839 H 1047.34 -1.05049 4.76252 0
M  V30 10840 H 1046.34 1.17246 5.37153 0
M  V30 10841 H 1047.57 1.37512 6.65032 0
M  V30 10842 H 1045.52 -0.864046 6.50285 0
M  V30 10843 H 1045.43 0.520486 7.54206 0
M  V30 10844 H 1046.7 -0.647005 7.7681 0
M  V30 10845 N 1050.93 -1.4397 0.641131 0
M  V30 10846 C 1051.86 -2.33458 -0.04446 0
M  V30 10847 C 1052.84 -1.48781 -0.824507 0
M  V30 10848 O 1054.03 -1.77477 -0.788397 0
M  V30 10849 C 1051.16 -3.31989 -1.01984 0
M  V30 10850 C 1050.11 -4.2656 -0.350745 0
M  V30 10851 C 1049.44 -5.15036 -1.43673 0
M  V30 10852 C 1050.74 -5.16897 0.749299 0
M  V30 10853 H 1052.43 -2.91034 0.702832 0
M  V30 10854 H 1049.98 -1.39942 0.339435 0
M  V30 10855 H 1051.93 -3.93483 -1.50828 0
M  V30 10856 H 1050.65 -2.72643 -1.79815 0
M  V30 10857 H 1049.31 -3.66413 0.117139 0
M  V30 10858 H 1048.96 -4.52037 -2.20617 0
M  V30 10859 H 1048.66 -5.79125 -0.994358 0
M  V30 10860 H 1050.18 -5.79403 -1.92678 0
M  V30 10861 H 1051.6 -5.7227 0.343534 0
M  V30 10862 H 1049.99 -5.89643 1.11541 0
M  V30 10863 H 1051.06 -4.5731 1.61232 0
M  V30 10864 N 1052.41 -0.382291 -1.52893 0
M  V30 10865 C 1053.35 0.456234 -2.26246 0
M  V30 10866 C 1054.32 1.06366 -1.27575 0
M  V30 10867 O 1055.51 1.09301 -1.5639 0
M  V30 10868 C 1052.65 1.5813 -3.06739 0
M  V30 10869 C 1051.76 0.997416 -4.20328 0
M  V30 10870 C 1050.9 2.09296 -4.8823 0
M  V30 10871 C 1049.94 1.4846 -5.93823 0
M  V30 10872 N 1049.07 2.51916 -6.55349 0
M  V30 10873 H 1053.91 -0.175761 -2.97481 0
M  V30 10874 H 1051.45 -0.0985046 -1.4677 0
M  V30 10875 H 1053.41 2.24426 -3.51694 0
M  V30 10876 H 1052.04 2.18371 -2.37727 0
M  V30 10877 H 1051.09 0.224251 -3.79738 0
M  V30 10878 H 1052.4 0.512784 -4.96157 0
M  V30 10879 H 1051.56 2.83377 -5.36453 0
M  V30 10880 H 1050.3 2.61116 -4.1191 0
M  V30 10881 H 1049.3 0.729001 -5.44946 0
M  V30 10882 H 1050.53 0.97443 -6.72073 0
M  V30 10883 H 1048.47 3.02919 -5.81873 0
M  V30 10884 H 1048.39 2.08188 -7.26769 0
M  V30 10885 H 1049.66 3.25649 -7.08218 0
M  V30 10886 N 1053.89 1.57202 -0.111913 0
M  V30 10887 C 1055.13 1.95239 0.548607 0
M  V30 10888 C 1055.46 0.994897 1.6678 0
M  V30 10889 O 1054.74 0.0308603 1.94476 0
M  V30 10890 C 1055.02 3.43271 1.08798 0
M  V30 10891 C 1054.88 4.49792 -0.0273064 0
M  V30 10892 C 1056.19 3.92989 1.98109 0
M  V30 10893 H 1053.31 0.709919 0.197951 0
M  V30 10894 H 1055.96 1.89087 -0.186036 0
M  V30 10895 H 1054.11 3.48644 1.71404 0
M  V30 10896 H 1055.78 4.56521 -0.662302 0
M  V30 10897 H 1054.02 4.28254 -0.691426 0
M  V30 10898 H 1054.69 5.50612 0.391201 0
M  V30 10899 H 1057.17 3.89875 1.45385 0
M  V30 10900 H 1056.04 4.97101 2.32769 0
M  V30 10901 H 1056.3 3.33267 2.90492 0
M  V30 10902 N 1055.36 -0.161842 1.56767 0
M  V30 10903 C 1056.29 -1.20226 2.0017 0
M  V30 10904 C 1057.27 -1.4564 0.878807 0
M  V30 10905 O 1058.46 -1.56813 1.14557 0
M  V30 10906 C 1055.59 -2.53897 2.36968 0
M  V30 10907 C 1054.54 -2.43033 3.52305 0
M  V30 10908 C 1053.87 -3.81281 3.74872 0
M  V30 10909 C 1055.17 -1.927 4.85453 0
M  V30 10910 H 1056.86 -0.84142 2.87333 0
M  V30 10911 H 1054.41 -0.403309 1.38237 0
M  V30 10912 H 1056.36 -3.26893 2.6593 0
M  V30 10913 H 1055.09 -2.91787 1.46724 0
M  V30 10914 H 1053.75 -1.7249 3.23485 0
M  V30 10915 H 1053.39 -4.1658 2.81904 0
M  V30 10916 H 1053.09 -3.74877 4.52483 0
M  V30 10917 H 1054.62 -4.55848 4.06245 0
M  V30 10918 H 1056.03 -2.55477 5.13229 0
M  V30 10919 H 1054.43 -1.97222 5.66766 0
M  V30 10920 H 1055.5 -0.881816 4.76814 0
M  V30 10921 N 1056.84 -1.516 -0.430713 0
M  V30 10922 C 1058.09 -1.64271 -1.17726 0
M  V30 10923 C 1058.41 -0.364406 -1.91565 0
M  V30 10924 O 1057.68 0.619991 -1.8583 0
M  V30 10925 H 1056.26 -0.605432 -0.437562 0
M  V30 10926 H 1058.92 -1.88557 -0.493166 0
M  V30 10927 H 1058.02 -2.47355 -1.90321 0
M  V30 10928 N 1058.32 0.686584 -1.41858 0
M  V30 10929 C 1059.54 1.4802 -1.45275 0
M  V30 10930 C 1059.97 1.87997 -0.0621297 0
M  V30 10931 O 1059.33 1.55226 0.936733 0
M  V30 10932 C 1059.38 2.7133 -2.37513 0
M  V30 10933 O 1058.48 3.69159 -1.83836 0
M  V30 10934 H 1057.82 0.445152 -0.492682 0
M  V30 10935 H 1060.35 0.843161 -1.86419 0
M  V30 10936 H 1060.36 3.19537 -2.53693 0
M  V30 10937 H 1059.04 2.41571 -3.3855 0
M  V30 10938 H 1057.61 3.28134 -1.77151 0
M  V30 10939 N 1059.8 1.27835 0.921735 0
M  V30 10940 C 1061.05 1.14296 1.66676 0
M  V30 10941 C 1061.37 -0.310493 1.92512 0
M  V30 10942 O 1060.64 -1.21637 1.53562 0
M  V30 10943 H 1059.22 0.419994 0.617749 0
M  V30 10944 H 1061.88 1.60449 1.10644 0
M  V30 10945 H 1060.97 1.67654 2.63246 0
M  V30 10946 N 1061.28 -1.12907 1.09954 0
M  V30 10947 C 1062.52 -1.84579 0.840155 0
M  V30 10948 C 1062.85 -1.83605 -0.632692 0
M  V30 10949 O 1062.13 -1.27803 -1.46617 0
M  V30 10950 C 1062.41 -3.32489 1.38286 0
M  V30 10951 C 1062.27 -3.41946 2.92221 0
M  V30 10952 C 1063.58 -4.28091 1.0211 0
M  V30 10953 H 1060.7 -0.670169 0.306663 0
M  V30 10954 H 1063.35 -1.3249 1.36185 0
M  V30 10955 H 1061.5 -3.76978 0.939123 0
M  V30 10956 H 1063.17 -3.06128 3.45085 0
M  V30 10957 H 1061.41 -2.8265 3.29077 0
M  V30 10958 H 1062.08 -4.45983 3.25274 0
M  V30 10959 H 1064.56 -3.91701 1.4039 0
M  V30 10960 H 1063.43 -5.30005 1.42781 0
M  V30 10961 H 1063.69 -4.42044 -0.0700753 0
M  V30 10962 N 1062.75 -0.88754 -1.30232 0
M  V30 10963 C 1064 -0.507279 -1.96043 0
M  V30 10964 C 1064.33 0.944059 -1.70052 0
M  V30 10965 O 1063.58 1.68255 -0.999444 0
M  V30 10966 C 1063.88 -0.731765 -3.49828 0
M  V30 10967 C 1063.55 -2.15858 -3.95874 0
M  V30 10968 C 1062.21 -2.54875 -4.08157 0
M  V30 10969 C 1064.56 -3.0883 -4.19849 0
M  V30 10970 C 1061.89 -3.86069 -4.41778 0
M  V30 10971 C 1064.24 -4.39559 -4.5494 0
M  V30 10972 C 1062.91 -4.78465 -4.65432 0
M  V30 10973 H 1062.18 -0.185627 -0.717373 0
M  V30 10974 H 1064.82 -1.12388 -1.55052 0
M  V30 10975 H 1063.13 -0.0321473 -3.91787 0
M  V30 10976 H 1064.83 -0.417107 -3.98825 0
M  V30 10977 H 1061.42 -1.84574 -3.86821 0
M  V30 10978 H 1065.6 -2.79906 -4.09837 0
M  V30 10979 H 1060.86 -4.1595 -4.48102 0
M  V30 10980 H 1065.03 -5.11636 -4.72442 0
M  V30 10981 H 1062.66 -5.80162 -4.91239 0
M  V30 10982 N 1064.23 1.43628 -0.648757 0
M  V30 10983 C 1065.48 2.01465 -0.16002 0
M  V30 10984 C 1065.8 1.51413 1.22878 0
M  V30 10985 O 1065.07 0.724919 1.81994 0
M  V30 10986 H 1063.65 0.744885 -0.0561672 0
M  V30 10987 H 1066.31 1.75897 -0.839422 0
M  V30 10988 H 1065.41 3.1178 -0.141213 0
M  V30 10989 N 1065.71 0.390394 1.52688 0
M  V30 10990 C 1066.94 -0.191485 2.06012 0
M  V30 10991 C 1067.35 -1.40422 1.26202 0
M  V30 10992 O 1066.71 -1.79866 0.308963 0
M  V30 10993 C 1066.76 -0.560521 3.57128 0
M  V30 10994 O 1066.48 0.60404 4.33916 0
M  V30 10995 C 1067.98 -1.19814 4.26801 0
M  V30 10996 H 1065.2 -0.0286311 0.670389 0
M  V30 10997 H 1067.75 0.555939 1.96798 0
M  V30 10998 H 1065.9 -1.25784 3.66411 0
M  V30 10999 H 1066.32 0.300467 5.23639 0
M  V30 11000 H 1067.79 -1.40672 5.33775 0
M  V30 11001 H 1068.27 -2.16582 3.82085 0
M  V30 11002 H 1068.87 -0.541558 4.21838 0
M  V30 11003 N 1067.19 -1.57141 0.120249 0
M  V30 11004 C 1068.43 -1.95527 -0.538245 0
M  V30 11005 C 1068.77 -1.00373 -1.6625 0
M  V30 11006 O 1068.04 -0.0411734 -1.94456 0
M  V30 11007 C 1068.33 -3.43843 -1.06976 0
M  V30 11008 C 1068.18 -4.49771 0.0511596 0
M  V30 11009 C 1069.5 -3.94035 -1.96022 0
M  V30 11010 H 1066.62 -0.710958 -0.194183 0
M  V30 11011 H 1069.26 -1.88986 0.196061 0
M  V30 11012 H 1067.41 -3.49548 -1.69553 0
M  V30 11013 H 1069.08 -4.56163 0.686503 0
M  V30 11014 H 1067.32 -4.27882 0.714127 0
M  V30 11015 H 1067.99 -5.50812 -0.361995 0
M  V30 11016 H 1070.47 -3.9064 -1.43315 0
M  V30 11017 H 1069.35 -4.98329 -2.3013 0
M  V30 11018 H 1069.61 -3.34803 -2.8872 0
M  V30 11019 N 1068.67 0.153526 -1.5685 0
M  V30 11020 C 1069.62 1.19478 -1.94188 0
M  V30 11021 C 1070.6 1.38889 -0.812329 0
M  V30 11022 O 1071.79 1.4056 -1.07572 0
M  V30 11023 C 1068.92 2.53 -2.32047 0
M  V30 11024 C 1068.01 2.37209 -3.51557 0
M  V30 11025 N 1068.4 1.91162 -4.68285 0
M  V30 11026 C 1066.7 2.67981 -3.56514 0
M  V30 11027 C 1067.4 1.88259 -5.50394 0
M  V30 11028 N 1066.37 2.31329 -4.91923 0
M  V30 11029 H 1070.18 0.830748 -2.81915 0
M  V30 11030 H 1067.69 0.361643 -1.58322 0
M  V30 11031 H 1069.69 3.28264 -2.56998 0
M  V30 11032 H 1068.35 2.90191 -1.45669 0
M  V30 11033 H 1069.36 1.61227 -4.92165 0
M  V30 11034 H 1066.03 3.0909 -2.80659 0
M  V30 11035 H 1067.42 1.54205 -6.53965 0
M  V30 11036 N 1070.14 1.51827 0.422667 0
M  V30 11037 C 1071.09 1.74198 1.51406 0
M  V30 11038 C 1072.06 0.584013 1.55494 0
M  V30 11039 O 1073.25 0.820079 1.72277 0
M  V30 11040 C 1070.39 1.88627 2.88988 0
M  V30 11041 C 1069.5 3.16233 2.94314 0
M  V30 11042 C 1068.63 3.21172 4.2311 0
M  V30 11043 C 1067.67 4.43033 4.2236 0
M  V30 11044 N 1066.81 4.4544 5.42704 0
M  V30 11045 H 1071.65 2.67352 1.31632 0
M  V30 11046 H 1069.19 1.32487 0.63919 0
M  V30 11047 H 1071.15 1.94976 3.68837 0
M  V30 11048 H 1069.78 0.988673 3.07287 0
M  V30 11049 H 1068.83 3.19123 2.07039 0
M  V30 11050 H 1070.14 4.06104 2.89623 0
M  V30 11051 H 1069.29 3.26517 5.11343 0
M  V30 11052 H 1068.03 2.29216 4.30478 0
M  V30 11053 H 1067.04 4.37849 3.32518 0
M  V30 11054 H 1068.26 5.3627 4.16643 0
M  V30 11055 H 1066.21 3.56361 5.50766 0
M  V30 11056 H 1066.13 5.29138 5.39953 0
M  V30 11057 H 1067.39 4.54997 6.32928 0
M  V30 11058 N 1071.62 -0.679052 1.4222 0
M  V30 11059 C 1072.87 -1.43627 1.42182 0
M  V30 11060 C 1073.19 -1.94964 0.0377095 0
M  V30 11061 O 1072.46 -1.72788 -0.923098 0
M  V30 11062 H 1071.04 -0.532972 0.523402 0
M  V30 11063 H 1073.7 -0.802649 1.77605 0
M  V30 11064 H 1072.8 -2.29137 2.11902 0
M  V30 11065 N 1073.1 -1.28322 -0.914942 0
M  V30 11066 C 1074.35 -1.15578 -1.66642 0
M  V30 11067 C 1074.68 0.295209 -1.91943 0
M  V30 11068 O 1073.95 1.21482 -1.51896 0
M  V30 11069 C 1074.24 -1.9535 -3.02507 0
M  V30 11070 C 1074.09 -3.48504 -2.84367 0
M  V30 11071 C 1075.41 -1.76798 -4.03027 0
M  V30 11072 H 1072.53 -0.421234 -0.604757 0
M  V30 11073 H 1075.17 -1.57625 -1.06087 0
M  V30 11074 H 1073.32 -1.59619 -3.54195 0
M  V30 11075 H 1074.99 -3.94135 -2.39699 0
M  V30 11076 H 1073.24 -3.74198 -2.1945 0
M  V30 11077 H 1073.91 -3.99576 -3.80845 0
M  V30 11078 H 1076.38 -2.07977 -3.60395 0
M  V30 11079 H 1075.26 -2.34987 -4.96057 0
M  V30 11080 H 1075.52 -0.719162 -4.36211 0
M  V30 11081 N 1074.58 1.12322 -1.10551 0
M  V30 11082 C 1075.82 1.84333 -0.859826 0
M  V30 11083 C 1076.18 1.82539 0.608052 0
M  V30 11084 O 1075.47 1.26086 1.44267 0
M  V30 11085 C 1075.67 3.31177 -1.34375 0
M  V30 11086 C 1075.5 3.47272 -2.85714 0
M  V30 11087 C 1074.27 3.60837 -3.5373 0
M  V30 11088 C 1076.46 3.42336 -3.83811 0
M  V30 11089 N 1074.45 3.65309 -4.93378 0
M  V30 11090 C 1075.82 3.53318 -5.09477 0
M  V30 11091 C 1077.87 3.25809 -3.76501 0
M  V30 11092 C 1076.57 3.49477 -6.28695 0
M  V30 11093 C 1078.6 3.23282 -4.9522 0
M  V30 11094 C 1077.96 3.34826 -6.19735 0
M  V30 11095 H 1074.06 0.690186 -0.367651 0
M  V30 11096 H 1076.65 1.34463 -1.40811 0
M  V30 11097 H 1074.82 3.79585 -0.822767 0
M  V30 11098 H 1076.55 3.91051 -1.04217 0
M  V30 11099 H 1073.3 3.63005 -3.04178 0
M  V30 11100 H 1073.73 3.71207 -5.66157 0
M  V30 11101 H 1078.37 3.15777 -2.81149 0
M  V30 11102 H 1076.09 3.5828 -7.24335 0
M  V30 11103 H 1079.67 3.11674 -4.91274 0
M  V30 11104 H 1078.55 3.32847 -7.10058 0
M  V30 11105 N 1076.06 0.894434 1.2976 0
M  V30 11106 C 1077.31 0.513673 1.95049 0
M  V30 11107 C 1077.62 -0.943744 1.71327 0
M  V30 11108 O 1078.82 -1.43179 2.30678 0
M  V30 11109 C 1077.28 0.867751 3.49282 0
M  V30 11110 C 1076.89 2.34358 3.81812 0
M  V30 11111 C 1078.63 0.556645 4.20835 0
M  V30 11112 C 1076.54 2.63879 5.29265 0
M  V30 11113 H 1075.47 0.188375 0.73009 0
M  V30 11114 H 1078.12 1.09071 1.47566 0
M  V30 11115 H 1076.5 0.2197 3.9539 0
M  V30 11116 H 1077.68 3.03674 3.46581 0
M  V30 11117 H 1075.99 2.62318 3.23386 0
M  V30 11118 H 1078.59 0.754123 5.29355 0
M  V30 11119 H 1078.93 -0.504526 4.13231 0
M  V30 11120 H 1079.46 1.1623 3.80441 0
M  V30 11121 H 1076.2 3.68774 5.41928 0
M  V30 11122 H 1075.72 1.99182 5.65762 0
M  V30 11123 H 1077.4 2.49871 5.96803 0
M  V30 11124 N 1077.53 -1.43282 0.656365 0
M  V30 11125 C 1078.95 -1.85012 0.250475 0
M  V30 11126 C 1079.3 -1.54944 -1.20361 0
M  V30 11127 O 1078.42 -0.999983 -1.9191 0
M  V30 11128 C 1079.02 -3.35827 0.447815 0
M  V30 11129 C 1077.58 -3.76277 0.0962151 0
M  V30 11130 C 1076.72 -2.66988 0.749168 0
M  V30 11131 H 1079.67 -1.3339 0.85982 0
M  V30 11132 H 1079.69 -3.7927 -0.305726 0
M  V30 11133 H 1079.21 -3.5768 1.5062 0
M  V30 11134 H 1077.31 -3.60035 -0.959449 0
M  V30 11135 H 1077.42 -4.76227 0.523875 0
M  V30 11136 H 1075.78 -2.54048 0.18212 0
M  V30 11137 H 1076.57 -2.91669 1.81064 0
M  V30 11138 N 1079.01 -0.398486 -1.52479 0
M  V30 11139 C 1079.92 0.439328 -2.3045 0
M  V30 11140 C 1080.94 1.06322 -1.37738 0
M  V30 11141 O 1082.12 1.06704 -1.7081 0
M  V30 11142 C 1079.18 1.54655 -3.10294 0
M  V30 11143 C 1078.24 0.946824 -4.18729 0
M  V30 11144 C 1077.47 2.00129 -4.94757 0
M  V30 11145 O 1077.7 3.2178 -4.70971 0
M  V30 11146 O 1076.63 1.61345 -5.79872 0
M  V30 11147 H 1080.46 -0.196118 -3.03066 0
M  V30 11148 H 1078.04 -0.161961 -1.4852 0
M  V30 11149 H 1079.92 2.18958 -3.60049 0
M  V30 11150 H 1078.6 2.1668 -2.40482 0
M  V30 11151 H 1077.51 0.266802 -3.73147 0
M  V30 11152 H 1078.84 0.370664 -4.90802 0
M  V30 11153 N 1080.49 1.57075 -0.12858 0
M  V30 11154 C 1081.74 1.95134 0.526046 0
M  V30 11155 C 1082.06 1.01337 1.66601 0
M  V30 11156 O 1081.33 0.0714361 1.9577 0
M  V30 11157 H 1079.91 0.720468 0.19732 0
M  V30 11158 H 1082.57 1.93874 -0.199767 0
M  V30 11159 H 1081.67 2.98406 0.914332 0
M  V30 11160 N 1081.97 -0.145205 1.5693 0
M  V30 11161 C 1082.88 -1.19864 2.01667 0
M  V30 11162 C 1083.9 -1.46909 0.932402 0
M  V30 11163 O 1085.07 -1.58543 1.24201 0
M  V30 11164 C 1082.14 -2.51174 2.38982 0
M  V30 11165 C 1081.2 -2.3176 3.61366 0
M  V30 11166 C 1080.43 -3.56809 3.96892 0
M  V30 11167 O 1080.65 -4.63063 3.33059 0
M  V30 11168 O 1079.59 -3.49366 4.9013 0
M  V30 11169 H 1083.41 -0.848821 2.91597 0
M  V30 11170 H 1081 -0.354063 1.45144 0
M  V30 11171 H 1082.88 -3.28587 2.63835 0
M  V30 11172 H 1081.56 -2.85683 1.52207 0
M  V30 11173 H 1080.46 -1.52293 3.41698 0
M  V30 11174 H 1081.8 -2.02167 4.48764 0
M  V30 11175 N 1083.45 -1.52049 -0.414609 0
M  V30 11176 C 1084.67 -1.6997 -1.18848 0
M  V30 11177 C 1085.1 -0.406058 -1.83665 0
M  V30 11178 O 1084.46 0.635981 -1.69779 0
M  V30 11179 C 1084.5 -2.8327 -2.23138 0
M  V30 11180 O 1083.61 -2.48457 -3.29155 0
M  V30 11181 H 1082.95 -0.566003 -0.347183 0
M  V30 11182 H 1085.48 -1.98726 -0.486757 0
M  V30 11183 H 1085.49 -3.08022 -2.67557 0
M  V30 11184 H 1084.16 -3.7713 -1.75344 0
M  V30 11185 H 1082.74 -2.34357 -2.90054 0
M  V30 11186 N 1084.93 0.6715 -1.42579 0
M  V30 11187 C 1086.17 1.42731 -1.42516 0
M  V30 11188 C 1086.49 1.95545 -0.0462407 0
M  V30 11189 O 1087.69 2.71391 0.0769798 0
M  V30 11190 C 1086.15 2.58215 -2.50705 0
M  V30 11191 C 1085.76 2.12086 -3.94618 0
M  V30 11192 C 1087.5 3.35705 -2.59813 0
M  V30 11193 C 1085.41 3.24672 -4.9431 0
M  V30 11194 H 1084.34 0.536218 -0.530081 0
M  V30 11195 H 1086.99 0.726655 -1.68499 0
M  V30 11196 H 1085.37 3.30665 -2.17892 0
M  V30 11197 H 1086.55 1.46768 -4.36802 0
M  V30 11198 H 1084.86 1.47526 -3.89391 0
M  V30 11199 H 1087.46 4.1956 -3.31472 0
M  V30 11200 H 1087.8 3.82517 -1.64276 0
M  V30 11201 H 1088.33 2.70326 -2.91836 0
M  V30 11202 H 1085.07 2.82848 -5.91335 0
M  V30 11203 H 1084.59 3.88761 -4.56755 0
M  V30 11204 H 1086.27 3.90088 -5.16179 0
M  V30 11205 N 1086.4 1.28806 0.908124 0
M  V30 11206 C 1087.35 1.13215 2.01125 0
M  V30 11207 C 1088.32 0.0277357 1.66077 0
M  V30 11208 O 1089.51 0.193707 1.89814 0
M  V30 11209 C 1086.65 0.805887 3.35558 0
M  V30 11210 C 1085.76 1.9899 3.83441 0
M  V30 11211 C 1084.89 1.60376 5.06412 0
M  V30 11212 C 1083.93 2.75409 5.46641 0
M  V30 11213 N 1083.07 2.37249 6.60801 0
M  V30 11214 H 1087.91 2.07598 2.13792 0
M  V30 11215 H 1085.45 1.03316 1.0471 0
M  V30 11216 H 1087.4 0.597451 4.129 0
M  V30 11217 H 1086.03 -0.101023 3.22642 0
M  V30 11218 H 1085.09 2.31029 3.02208 0
M  V30 11219 H 1086.4 2.85214 4.09212 0
M  V30 11220 H 1085.55 1.35772 5.91313 0
M  V30 11221 H 1084.29 0.712888 4.82462 0
M  V30 11222 H 1083.3 3.00705 4.60279 0
M  V30 11223 H 1084.52 3.65148 5.72577 0
M  V30 11224 H 1082.47 1.50638 6.3847 0
M  V30 11225 H 1082.38 3.17008 6.86325 0
M  V30 11226 H 1083.65 2.15943 7.48992 0
M  V30 11227 N 1087.88 -1.11734 1.11145 0
M  V30 11228 C 1089.13 -1.82766 0.853194 0
M  V30 11229 C 1089.44 -1.85408 -0.623168 0
M  V30 11230 O 1090.65 -2.52509 -0.997574 0
M  V30 11231 C 1089.11 -3.28215 1.47658 0
M  V30 11232 C 1088.71 -3.33911 2.98676 0
M  V30 11233 C 1090.46 -4.04168 1.29803 0
M  V30 11234 C 1088.36 -4.73739 3.54013 0
M  V30 11235 H 1087.29 -0.684807 0.315523 0
M  V30 11236 H 1089.95 -1.25756 1.33633 0
M  V30 11237 H 1088.33 -3.85138 0.921116 0
M  V30 11238 H 1089.5 -2.86887 3.606 0
M  V30 11239 H 1087.82 -2.71437 3.15771 0
M  V30 11240 H 1090.41 -5.07429 1.68582 0
M  V30 11241 H 1090.76 -4.15606 0.240302 0
M  V30 11242 H 1091.29 -3.53623 1.82196 0
M  V30 11243 H 1088.03 -4.67497 4.59485 0
M  V30 11244 H 1087.55 -5.21186 2.9686 0
M  V30 11245 H 1089.23 -5.42691 3.52271 0
M  V30 11246 N 1089.36 -0.901303 -1.29284 0
M  V30 11247 C 1090.77 -0.576317 -1.77582 0
M  V30 11248 C 1091.12 0.908078 -1.73921 0
M  V30 11249 O 1090.25 1.71006 -1.32611 0
M  V30 11250 C 1090.84 -1.03938 -3.22463 0
M  V30 11251 C 1089.4 -0.765533 -3.68533 0
M  V30 11252 C 1088.55 -1.21318 -2.49354 0
M  V30 11253 H 1091.5 -1.08386 -1.15923 0
M  V30 11254 H 1091.52 -0.375367 -3.78644 0
M  V30 11255 H 1091.03 -2.11977 -3.25096 0
M  V30 11256 H 1089.13 0.302176 -3.71373 0
M  V30 11257 H 1089.25 -1.36454 -4.59257 0
M  V30 11258 H 1087.61 -0.632141 -2.46731 0
M  V30 11259 H 1088.39 -2.30165 -2.54714 0
M  V30 11260 N 1090.84 1.42931 -0.663954 0
M  V30 11261 C 1092.08 2.01982 -0.182007 0
M  V30 11262 C 1092.42 1.52323 1.20463 0
M  V30 11263 O 1091.69 0.720834 1.80649 0
M  V30 11264 C 1091.97 3.59518 -0.204671 0
M  V30 11265 C 1091.83 4.19382 -1.62599 0
M  V30 11266 C 1093.15 4.37762 0.45308 0
M  V30 11267 H 1090.27 0.733892 -0.0676115 0
M  V30 11268 H 1092.91 1.70092 -0.84668 0
M  V30 11269 H 1091.06 3.86816 0.361295 0
M  V30 11270 H 1092.73 4.03076 -2.24337 0
M  V30 11271 H 1090.97 3.75623 -2.17001 0
M  V30 11272 H 1091.64 5.28496 -1.59362 0
M  V30 11273 H 1094.12 4.1609 -0.0285774 0
M  V30 11274 H 1093 5.47392 0.406538 0
M  V30 11275 H 1093.26 4.1482 1.52895 0
M  V30 11276 N 1092.32 0.406567 1.52266 0
M  V30 11277 C 1093.56 -0.169611 2.03695 0
M  V30 11278 C 1093.92 -1.42596 1.2857 0
M  V30 11279 O 1095.12 -2.08041 1.70212 0
M  V30 11280 C 1093.39 -0.413924 3.54995 0
M  V30 11281 S 1094.95 -0.957916 4.28217 0
M  V30 11282 H 1091.77 -0.0462362 0.709495 0
M  V30 11283 H 1094.37 0.558895 1.87341 0
M  V30 11284 H 1093.07 0.507285 4.07253 0
M  V30 11285 H 1092.61 -1.17038 3.75587 0
M  V30 11286 H 1094.62 -2.2387 4.42828 0
M  V30 11287 N 1093.79 -1.57004 0.136909 0
M  V30 11288 C 1095.04 -1.94972 -0.51662 0
M  V30 11289 C 1095.36 -1.02367 -1.66674 0
M  V30 11290 O 1096.56 -1.29873 -2.38423 0
M  V30 11291 C 1095.02 -3.4657 -0.970435 0
M  V30 11292 C 1094.63 -4.47741 0.152204 0
M  V30 11293 C 1096.37 -3.93423 -1.59432 0
M  V30 11294 C 1094.28 -5.90537 -0.319315 0
M  V30 11295 H 1093.21 -0.727873 -0.196766 0
M  V30 11296 H 1095.86 -1.82181 0.219637 0
M  V30 11297 H 1094.24 -3.54657 -1.76165 0
M  V30 11298 H 1095.41 -4.5134 0.928925 0
M  V30 11299 H 1093.73 -4.10746 0.683867 0
M  V30 11300 H 1096.33 -4.97539 -1.95856 0
M  V30 11301 H 1096.67 -3.34404 -2.47951 0
M  V30 11302 H 1097.2 -3.8821 -0.868193 0
M  V30 11303 H 1093.94 -6.53352 0.530248 0
M  V30 11304 H 1093.46 -5.90321 -1.06213 0
M  V30 11305 H 1095.14 -6.42346 -0.774662 0
M  V30 11306 N 1095.27 0.136881 -1.57004 0
M  V30 11307 C 1096.22 1.16869 -1.99023 0
M  V30 11308 C 1097.19 1.42137 -0.859435 0
M  V30 11309 O 1098.37 1.54303 -1.12229 0
M  V30 11310 C 1095.51 2.49466 -2.38455 0
M  V30 11311 C 1094.63 2.31286 -3.64871 0
M  V30 11312 C 1093.76 3.56989 -3.9336 0
M  V30 11313 C 1092.8 3.33889 -5.13015 0
M  V30 11314 N 1091.94 4.51748 -5.37464 0
M  V30 11315 H 1096.78 0.803366 -2.86967 0
M  V30 11316 H 1094.32 0.385216 -1.41967 0
M  V30 11317 H 1096.27 3.26794 -2.59348 0
M  V30 11318 H 1094.9 2.83926 -1.53577 0
M  V30 11319 H 1093.96 1.44962 -3.51696 0
M  V30 11320 H 1095.27 2.10183 -4.52355 0
M  V30 11321 H 1094.42 4.42742 -4.14806 0
M  V30 11322 H 1093.16 3.81106 -3.04318 0
M  V30 11323 H 1092.17 2.46525 -4.91432 0
M  V30 11324 H 1093.39 3.1116 -6.03619 0
M  V30 11325 H 1091.34 4.76019 -4.51377 0
M  V30 11326 H 1091.25 4.33684 -6.19237 0
M  V30 11327 H 1092.52 5.38686 -5.63416 0
M  V30 11328 N 1096.75 1.52266 0.40654 0
M  V30 11329 C 1098 1.66699 1.15496 0
M  V30 11330 C 1098.33 0.397019 1.90098 0
M  V30 11331 O 1097.6 -0.604646 1.84863 0
M  V30 11332 C 1097.89 2.8907 2.14734 0
M  V30 11333 C 1097.74 4.26123 1.44012 0
M  V30 11334 C 1099.06 3.06966 3.15373 0
M  V30 11335 H 1096.18 0.606642 0.418515 0
M  V30 11336 H 1098.82 1.84826 0.440381 0
M  V30 11337 H 1096.97 2.73745 2.75673 0
M  V30 11338 H 1098.64 4.5318 0.861722 0
M  V30 11339 H 1096.89 4.27406 0.742064 0
M  V30 11340 H 1097.56 5.07799 2.16436 0
M  V30 11341 H 1100.03 3.21205 2.64512 0
M  V30 11342 H 1098.91 3.94097 3.82072 0
M  V30 11343 H 1099.17 2.20395 3.83247 0
M  V30 11344 N 1098.23 -0.663929 1.42933 0
M  V30 11345 C 1099.48 -1.41973 1.43271 0
M  V30 11346 C 1099.79 -1.95518 0.0566103 0
M  V30 11347 O 1101 -2.71428 -0.0625862 0
M  V30 11348 C 1099.45 -2.56882 2.52071 0
M  V30 11349 C 1099.06 -2.0999 3.95737 0
M  V30 11350 C 1100.8 -3.34322 2.61589 0
M  V30 11351 C 1098.71 -3.22046 4.96025 0
M  V30 11352 H 1097.64 -0.5334 0.532917 0
M  V30 11353 H 1100.29 -0.717709 1.68882 0
M  V30 11354 H 1098.67 -3.29504 2.19643 0
M  V30 11355 H 1099.85 -1.44449 4.37574 0
M  V30 11356 H 1098.16 -1.45459 3.90168 0
M  V30 11357 H 1100.76 -4.17796 3.33692 0
M  V30 11358 H 1101.1 -3.8164 1.66302 0
M  V30 11359 H 1101.64 -2.68775 2.93266 0
M  V30 11360 H 1098.38 -2.79708 5.92827 0
M  V30 11361 H 1097.9 -3.86333 4.5881 0
M  V30 11362 H 1099.57 -3.87345 5.1824 0
M  V30 11363 N 1099.71 -1.29285 -0.901281 0
M  V30 11364 C 1100.62 -1.16161 -2.03823 0
M  V30 11365 C 1101.63 -0.0852298 -1.73791 0
M  V30 11366 O 1102.81 -0.29699 -1.99198 0
M  V30 11367 C 1099.87 -0.837586 -3.3643 0
M  V30 11368 C 1098.93 -1.99764 -3.7999 0
M  V30 11369 C 1098.17 -1.68898 -5.0627 0
M  V30 11370 O 1098.39 -0.609177 -5.67138 0
M  V30 11371 O 1097.32 -2.53648 -5.45845 0
M  V30 11372 H 1101.15 -2.11635 -2.17817 0
M  V30 11373 H 1098.74 -1.08722 -1.02468 0
M  V30 11374 H 1100.62 -0.671376 -4.16017 0
M  V30 11375 H 1099.29 0.0873811 -3.23582 0
M  V30 11376 H 1098.2 -2.21908 -3.01177 0
M  V30 11377 H 1099.53 -2.90376 -3.9742 0
M  V30 11378 N 1101.18 1.11143 -1.11736 0
M  V30 11379 C 1102.46 1.79384 -0.779785 0
M  V30 11380 C 1102.84 1.98015 0.731668 0
M  V30 11381 O 1102.19 1.56731 1.66276 0
M  V30 11382 C 1102.4 3.12868 -1.54643 0
M  V30 11383 C 1103.75 3.8786 -1.7277 0
M  V30 11384 O 1104.77 3.22566 -1.51094 0
M  V30 11385 O 1103.63 5.05034 -2.08813 0
M  V30 11386 H 1100.72 0.777128 -0.282845 0
M  V30 11387 H 1103.27 1.17858 -1.22096 0
M  V30 11388 H 1102.04 2.94682 -2.57446 0
M  V30 11389 H 1101.67 3.82109 -1.09901 0
M  V30 11390 N 1102.66 0.908147 1.28804 0
M  V30 11391 C 1103.61 0.390734 2.27468 0
M  V30 11392 C 1104.58 -0.531765 1.57358 0
M  V30 11393 O 1105.76 -0.455177 1.85291 0
M  V30 11394 C 1102.9 -0.368159 3.43131 0
M  V30 11395 C 1102.02 0.586202 4.28004 0
M  V30 11396 C 1101.15 -0.190581 5.30858 0
M  V30 11397 C 1100.19 0.757758 6.07391 0
M  V30 11398 N 1099.33 0.0148488 7.02098 0
M  V30 11399 H 1104.17 1.23717 2.71105 0
M  V30 11400 H 1101.71 0.621382 1.33331 0
M  V30 11401 H 1103.66 -0.824289 4.08976 0
M  V30 11402 H 1102.29 -1.17898 3.00499 0
M  V30 11403 H 1101.35 1.16086 3.62254 0
M  V30 11404 H 1102.66 1.31177 4.81242 0
M  V30 11405 H 1101.81 -0.707528 6.0256 0
M  V30 11406 H 1100.55 -0.949234 4.78373 0
M  V30 11407 H 1099.56 1.28613 5.34545 0
M  V30 11408 H 1100.78 1.51588 6.61965 0
M  V30 11409 H 1098.73 -0.725916 6.51971 0
M  V30 11410 H 1098.64 0.680347 7.52932 0
M  V30 11411 H 1099.91 -0.482086 7.78008 0
M  V30 11412 N 1104.14 -1.42577 0.671525 0
M  V30 11413 C 1105.37 -2.06442 0.199152 0
M  V30 11414 C 1105.79 -1.50104 -1.1336 0
M  V30 11415 O 1105.15 -0.618211 -1.70434 0
M  V30 11416 C 1105.2 -3.60323 0.141215 0
M  V30 11417 O 1104.3 -4.02655 -0.891238 0
M  V30 11418 H 1103.64 -0.655919 0.103277 0
M  V30 11419 H 1106.17 -1.82768 0.919614 0
M  V30 11420 H 1106.18 -4.07984 -0.0360209 0
M  V30 11421 H 1104.86 -4.00702 1.11403 0
M  V30 11422 H 1103.43 -3.66549 -0.685309 0
M  V30 11423 N 1105.62 -0.414636 -1.52048 0
M  V30 11424 C 1106.87 0.159034 -2.01473 0
M  V30 11425 C 1107.19 1.45176 -1.30188 0
M  V30 11426 O 1106.46 1.91134 -0.429469 0
M  V30 11427 H 1105.04 0.0617604 -0.744443 0
M  V30 11428 H 1107.7 -0.552141 -1.86916 0
M  V30 11429 H 1106.8 0.351217 -3.10118 0
M  V30 11430 N 1107.1 1.56929 -0.145233 0
M  V30 11431 C 1108.51 1.58196 0.211194 0
M  V30 11432 C 1108.71 1.15941 1.64803 0
M  V30 11433 O 1107.77 0.858888 2.37443 0
M  V30 11434 C 1109.08 3.00665 -0.0459569 0
M  V30 11435 C 1110.63 3.12995 0.0178913 0
M  V30 11436 C 1111.1 4.5751 -0.211905 0
M  V30 11437 N 1112.6 4.62928 -0.158772 0
M  V30 11438 C 1113.33 5.72555 -0.311111 0
M  V30 11439 N 1112.83 6.90838 -0.521074 0
M  V30 11440 N 1114.62 5.61549 -0.248838 0
M  V30 11441 H 1106.77 1.8269 -1.08342 0
M  V30 11442 H 1109.03 0.845514 -0.428731 0
M  V30 11443 H 1108.74 3.35962 -1.0403 0
M  V30 11444 H 1108.61 3.71125 0.674246 0
M  V30 11445 H 1111 2.7754 1.00278 0
M  V30 11446 H 1111.08 2.45025 -0.734612 0
M  V30 11447 H 1110.73 4.93669 -1.19389 0
M  V30 11448 H 1110.66 5.23604 0.560901 0
M  V30 11449 H 1113.15 3.779 -0.00107283 0
M  V30 11450 H 1113.46 7.70248 -0.62747 0
M  V30 11451 H 1111.8 6.92761 -0.557374 0
M  V30 11452 H 1115 4.68022 -0.0855821 0
M  V30 11453 H 1115.17 6.46937 -0.370997 0
M  V30 11454 N 1108.58 -0.128553 1.57075 0
M  V30 11455 C 1109.51 -1.18362 1.96273 0
M  V30 11456 C 1110.52 -1.3818 0.860818 0
M  V30 11457 O 1111.71 -1.37424 1.13916 0
M  V30 11458 C 1108.81 -2.54533 2.23755 0
M  V30 11459 C 1107.98 -2.55446 3.55058 0
M  V30 11460 C 1107.04 -3.73291 3.70864 0
M  V30 11461 O 1106.07 -3.57315 4.43074 0
M  V30 11462 N 1107.27 -4.91481 3.08912 0
M  V30 11463 H 1110.03 -0.850276 2.87385 0
M  V30 11464 H 1107.6 -0.317931 1.58748 0
M  V30 11465 H 1109.59 -3.31912 2.31553 0
M  V30 11466 H 1108.16 -2.80087 1.38816 0
M  V30 11467 H 1107.38 -1.6385 3.58534 0
M  V30 11468 H 1108.67 -2.53104 4.4138 0
M  V30 11469 H 1108.06 -5.07364 2.50196 0
M  V30 11470 H 1106.62 -5.6657 3.22245 0
M  V30 11471 N 1110.05 -1.5248 -0.398459 0
M  V30 11472 C 1111.28 -1.71221 -1.17039 0
M  V30 11473 C 1111.7 -0.425515 -1.83224 0
M  V30 11474 O 1111.06 0.617938 -1.70444 0
M  V30 11475 C 1111.11 -2.8562 -2.20121 0
M  V30 11476 O 1110.21 -2.51934 -3.26501 0
M  V30 11477 H 1109.55 -0.569654 -0.34116 0
M  V30 11478 H 1112.08 -1.99231 -0.465652 0
M  V30 11479 H 1112.09 -3.10842 -2.64275 0
M  V30 11480 H 1110.77 -3.78969 -1.71334 0
M  V30 11481 H 1109.35 -2.3742 -2.87552 0
M  V30 11482 N 1111.53 0.65634 -1.43283 0
M  V30 11483 C 1112.78 1.41627 -1.44734 0
M  V30 11484 C 1113.11 1.94372 -0.0704893 0
M  V30 11485 O 1112.36 1.72511 0.924037 0
M  V30 11486 C 1112.66 2.61688 -2.43421 0
M  V30 11487 C 1112.33 2.2738 -3.8937 0
M  V30 11488 C 1110.99 2.17735 -4.29121 0
M  V30 11489 C 1113.34 1.99863 -4.81357 0
M  V30 11490 C 1110.67 1.78725 -5.58815 0
M  V30 11491 C 1113.02 1.62352 -6.11412 0
M  V30 11492 C 1111.68 1.51231 -6.50143 0
M  V30 11493 H 1110.95 0.51825 -0.529621 0
M  V30 11494 H 1113.6 0.746701 -1.76342 0
M  V30 11495 H 1111.91 3.33763 -2.05206 0
M  V30 11496 H 1113.6 3.19896 -2.41801 0
M  V30 11497 H 1110.19 2.35795 -3.57908 0
M  V30 11498 H 1114.38 2.06237 -4.5142 0
M  V30 11499 H 1109.63 1.68698 -5.87666 0
M  V30 11500 H 1113.81 1.40091 -6.82164 0
M  V30 11501 H 1111.43 1.20774 -7.50545 0
M  V30 11502 N 1113.01 1.29761 0.894412 0
M  V30 11503 C 1113.94 1.1115 2.00445 0
M  V30 11504 C 1114.95 0.0574655 1.62699 0
M  V30 11505 O 1116.14 0.302528 1.75918 0
M  V30 11506 C 1113.24 0.670984 3.32191 0
M  V30 11507 C 1112.42 1.80471 3.98433 0
M  V30 11508 C 1111.48 1.35431 5.08473 0
M  V30 11509 O 1110.5 2.05994 5.30618 0
M  V30 11510 N 1111.7 0.22811 5.80052 0
M  V30 11511 H 1114.47 2.06753 2.16964 0
M  V30 11512 H 1112.03 1.21772 1.06692 0
M  V30 11513 H 1114.02 0.352877 4.03159 0
M  V30 11514 H 1112.59 -0.192735 3.12005 0
M  V30 11515 H 1111.81 2.29142 3.20761 0
M  V30 11516 H 1113.1 2.56471 4.39431 0
M  V30 11517 H 1112.5 -0.360076 5.64553 0
M  V30 11518 H 1111.05 -0.0305985 6.51793 0
M  V30 11519 N 1114.49 -1.10549 1.12324 0
M  V30 11520 C 1115.45 -2.15039 0.793156 0
M  V30 11521 C 1116.45 -1.59651 -0.19192 0
M  V30 11522 O 1117.64 -1.74167 0.0337262 0
M  V30 11523 C 1114.77 -3.40433 0.17842 0
M  V30 11524 H 1115.97 -2.4575 1.71892 0
M  V30 11525 H 1113.52 -1.25892 0.926333 0
M  V30 11526 H 1114.25 -3.15338 -0.757122 0
M  V30 11527 H 1114.04 -3.81921 0.887645 0
M  V30 11528 H 1115.53 -4.17584 -0.0360724 0
M  V30 11529 N 1115.97 -0.914965 -1.28321 0
M  V30 11530 C 1117.21 -0.549562 -1.95212 0
M  V30 11531 C 1117.54 0.904658 -1.71842 0
M  V30 11532 O 1116.82 1.64354 -1.04009 0
M  V30 11533 C 1117.1 -0.860927 -3.49657 0
M  V30 11534 C 1116.96 -2.36797 -3.82423 0
M  V30 11535 C 1118.27 -0.357926 -4.38642 0
M  V30 11536 H 1115.39 -0.201136 -0.709023 0
M  V30 11537 H 1118.04 -1.14443 -1.51667 0
M  V30 11538 H 1116.19 -0.354665 -3.86878 0
M  V30 11539 H 1117.86 -2.94494 -3.55065 0
M  V30 11540 H 1116.1 -2.82245 -3.29424 0
M  V30 11541 H 1116.77 -2.53637 -4.90278 0
M  V30 11542 H 1119.25 -0.791636 -4.085 0
M  V30 11543 H 1118.12 -0.604855 -5.45557 0
M  V30 11544 H 1118.38 0.741775 -4.35833 0
M  V30 11545 N 1117.44 1.42219 -0.679077 0
M  V30 11546 C 1118.67 2.05815 -0.211649 0
M  V30 11547 C 1119.09 1.51037 1.13284 0
M  V30 11548 O 1118.44 0.651894 1.7046 0
M  V30 11549 C 1118.49 3.61218 -0.142663 0
M  V30 11550 O 1118.22 4.13965 -1.43402 0
M  V30 11551 C 1119.72 4.41934 0.347746 0
M  V30 11552 H 1116.94 0.663215 -0.101914 0
M  V30 11553 H 1119.48 1.82282 -0.927017 0
M  V30 11554 H 1117.64 3.83848 0.52342 0
M  V30 11555 H 1118.05 5.07872 -1.31021 0
M  V30 11556 H 1119.52 5.50921 0.344916 0
M  V30 11557 H 1120 4.16832 1.38377 0
M  V30 11558 H 1120.61 4.24332 -0.286751 0
M  V30 11559 N 1118.92 0.422693 1.51826 0
M  V30 11560 C 1120.2 -0.20786 1.94492 0
M  V30 11561 C 1120.58 -1.61414 1.36047 0
M  V30 11562 O 1119.93 -2.21987 0.541657 0
M  V30 11563 C 1120.14 -0.200457 3.48424 0
M  V30 11564 C 1121.48 -0.413199 4.22585 0
M  V30 11565 O 1122.51 -0.27922 3.55104 0
M  V30 11566 O 1121.37 -0.678469 5.42272 0
M  V30 11567 H 1118.46 -0.137851 0.81543 0
M  V30 11568 H 1121.01 0.479617 1.62781 0
M  V30 11569 H 1119.78 0.783263 3.83381 0
M  V30 11570 H 1119.4 -0.931464 3.86535 0
M  V30 11571 N 1120.4 -1.5685 0.153553 0
M  V30 11572 C 1121.35 -2.13671 -0.795526 0
M  V30 11573 C 1122.33 -1.06624 -1.20499 0
M  V30 11574 O 1123.53 -1.32788 -1.17032 0
M  V30 11575 C 1120.65 -2.76704 -2.03199 0
M  V30 11576 C 1119.74 -3.90884 -1.64532 0
M  V30 11577 N 1120.13 -4.96466 -0.96723 0
M  V30 11578 C 1118.43 -4.01713 -1.93759 0
M  V30 11579 C 1119.13 -5.76453 -0.779527 0
M  V30 11580 N 1118.11 -5.27444 -1.31544 0
M  V30 11581 H 1121.91 -2.92673 -0.268288 0
M  V30 11582 H 1119.42 -1.6233 -0.0477596 0
M  V30 11583 H 1121.42 -3.15777 -2.72196 0
M  V30 11584 H 1120.08 -1.99177 -2.56434 0
M  V30 11585 H 1121.09 -5.14087 -0.627253 0
M  V30 11586 H 1117.77 -3.3527 -2.48797 0
M  V30 11587 H 1119.16 -6.71455 -0.244604 0
M  V30 11588 N 1121.88 0.120221 -1.57141 0
M  V30 11589 C 1122.81 1.17787 -1.95452 0
M  V30 11590 C 1123.79 1.40174 -0.824016 0
M  V30 11591 O 1124.97 1.54348 -1.08208 0
M  V30 11592 C 1122.1 2.53193 -2.24969 0
M  V30 11593 C 1121.15 2.47241 -3.47526 0
M  V30 11594 S 1121.98 1.91325 -5.00155 0
M  V30 11595 C 1123.13 3.28406 -5.32823 0
M  V30 11596 H 1123.37 0.851152 -2.84856 0
M  V30 11597 H 1120.9 0.326929 -1.50899 0
M  V30 11598 H 1122.86 3.31104 -2.42652 0
M  V30 11599 H 1121.52 2.83043 -1.36181 0
M  V30 11600 H 1120.71 3.46981 -3.65541 0
M  V30 11601 H 1120.31 1.7745 -3.29223 0
M  V30 11602 H 1122.61 4.24613 -5.2793 0
M  V30 11603 H 1123.55 3.1522 -6.34068 0
M  V30 11604 H 1123.96 3.26779 -4.603 0
M  V30 11605 N 1123.36 1.52689 0.390367 0
M  V30 11606 C 1124.29 1.80338 1.48325 0
M  V30 11607 C 1125.27 0.655338 1.56969 0
M  V30 11608 O 1126.45 0.902792 1.7194 0
M  V30 11609 C 1123.58 1.97101 2.85952 0
M  V30 11610 C 1122.54 3.12783 2.92148 0
M  V30 11611 C 1121.86 3.14798 4.32211 0
M  V30 11612 C 1123.16 4.5188 2.61919 0
M  V30 11613 H 1124.86 2.71857 1.25437 0
M  V30 11614 H 1122.4 1.30813 0.601995 0
M  V30 11615 H 1124.36 2.15027 3.62411 0
M  V30 11616 H 1123.08 1.02271 3.10174 0
M  V30 11617 H 1121.74 2.94638 2.18137 0
M  V30 11618 H 1121.39 2.17653 4.53471 0
M  V30 11619 H 1121.09 3.92507 4.37278 0
M  V30 11620 H 1122.61 3.34877 5.10578 0
M  V30 11621 H 1124.02 4.70134 3.28096 0
M  V30 11622 H 1122.42 5.31647 2.78337 0
M  V30 11623 H 1123.49 4.58689 1.57266 0
M  V30 11624 N 1124.83 -0.648732 1.43629 0
M  V30 11625 C 1125.8 -1.74331 1.488 0
M  V30 11626 C 1126.8 -1.56434 0.372147 0
M  V30 11627 O 1127.99 -1.6225 0.634078 0
M  V30 11628 C 1125.12 -3.13248 1.34494 0
M  V30 11629 H 1126.31 -1.71125 2.46285 0
M  V30 11630 H 1123.87 -0.860798 1.30461 0
M  V30 11631 H 1124.6 -3.22062 0.380345 0
M  V30 11632 H 1124.39 -3.27643 2.15389 0
M  V30 11633 H 1125.88 -3.93056 1.41055 0
M  V30 11634 N 1126.31 -1.30234 -0.887518 0
M  V30 11635 C 1127.56 -1.18277 -1.63381 0
M  V30 11636 C 1127.87 0.262079 -1.93836 0
M  V30 11637 O 1129.08 0.503127 -2.66797 0
M  V30 11638 C 1127.54 -2.06944 -2.94452 0
M  V30 11639 C 1127.14 -3.56323 -2.71547 0
M  V30 11640 C 1128.89 -2.03743 -3.7241 0
M  V30 11641 C 1126.8 -4.37054 -3.98419 0
M  V30 11642 H 1125.73 -0.439087 -0.612959 0
M  V30 11643 H 1128.38 -1.54964 -0.982779 0
M  V30 11644 H 1126.76 -1.63138 -3.60835 0
M  V30 11645 H 1127.93 -4.08261 -2.13681 0
M  V30 11646 H 1126.25 -3.61321 -2.06969 0
M  V30 11647 H 1128.84 -2.61312 -4.66497 0
M  V30 11648 H 1129.19 -1.02029 -4.03603 0
M  V30 11649 H 1129.72 -2.45657 -3.12886 0
M  V30 11650 H 1126.46 -5.39453 -3.72385 0
M  V30 11651 H 1125.98 -3.89881 -4.55799 0
M  V30 11652 H 1127.66 -4.48356 -4.66462 0
M  V30 11653 N 1127.79 1.09952 -1.12909 0
M  V30 11654 C 1129.04 1.81657 -0.885729 0
M  V30 11655 C 1129.36 1.85863 0.589913 0
M  V30 11656 O 1128.63 1.34028 1.42875 0
M  V30 11657 H 1127.21 0.672743 -0.324694 0
M  V30 11658 H 1129.87 1.33013 -1.42456 0
M  V30 11659 H 1128.97 2.85018 -1.27167 0
M  V30 11660 N 1129.27 0.921757 1.27833 0
M  V30 11661 C 1130.49 0.574599 1.99281 0
M  V30 11662 C 1130.92 -0.838905 1.68357 0
M  V30 11663 O 1130.28 -1.56196 0.920468 0
M  V30 11664 C 1130.32 0.800027 3.51613 0
M  V30 11665 O 1129.43 -0.137215 4.12172 0
M  V30 11666 H 1128.77 0.221887 0.625829 0
M  V30 11667 H 1131.3 1.23939 1.62789 0
M  V30 11668 H 1131.31 0.71326 4.01717 0
M  V30 11669 H 1129.98 1.83042 3.73455 0
M  V30 11670 H 1128.56 -0.00103872 3.729 0
M  V30 11671 N 1130.75 -1.41857 0.686609 0
M  V30 11672 C 1131.68 -2.33481 0.0298353 0
M  V30 11673 C 1132.66 -1.51329 -0.776756 0
M  V30 11674 O 1133.84 -1.79895 -0.731535 0
M  V30 11675 C 1130.97 -3.35065 -0.913707 0
M  V30 11676 C 1129.93 -4.2746 -0.214861 0
M  V30 11677 C 1129.25 -5.19346 -1.27215 0
M  V30 11678 C 1130.55 -5.14252 0.913367 0
M  V30 11679 H 1132.25 -2.8865 0.795067 0
M  V30 11680 H 1129.79 -1.38792 0.383785 0
M  V30 11681 H 1131.75 -3.98082 -1.38234 0
M  V30 11682 H 1130.47 -2.78226 -1.7105 0
M  V30 11683 H 1129.13 -3.65855 0.233651 0
M  V30 11684 H 1128.78 -4.58827 -2.06124 0
M  V30 11685 H 1128.48 -5.81996 -0.80961 0
M  V30 11686 H 1130 -5.85239 -1.74147 0
M  V30 11687 H 1131.41 -5.70887 0.525424 0
M  V30 11688 H 1129.81 -5.85796 1.30244 0
M  V30 11689 H 1130.88 -4.51949 1.75699 0
M  V30 11690 N 1132.22 -0.430739 -1.51599 0
M  V30 11691 C 1133.5 0.197543 -1.946 0
M  V30 11692 C 1133.88 1.6069 -1.36901 0
M  V30 11693 O 1133.23 2.21697 -0.553422 0
M  V30 11694 C 1133.44 0.181976 -3.48525 0
M  V30 11695 C 1134.79 0.390783 -4.22798 0
M  V30 11696 O 1135.81 0.260384 -3.55247 0
M  V30 11697 O 1134.67 0.649701 -5.42624 0
M  V30 11698 H 1131.76 0.133524 -0.81615 0
M  V30 11699 H 1134.31 -0.488243 -1.62525 0
M  V30 11700 H 1133.08 -0.803584 -3.8296 0
M  V30 11701 H 1132.71 0.910952 -3.87024 0
M  V30 11702 N 1133.7 1.56767 -0.161869 0
M  V30 11703 C 1134.65 2.1409 0.784183 0
M  V30 11704 C 1135.64 1.07262 1.19932 0
M  V30 11705 O 1136.83 1.33406 1.16326 0
M  V30 11706 C 1133.96 2.77778 2.01729 0
M  V30 11707 C 1133.04 3.91751 1.62457 0
M  V30 11708 N 1133.43 4.96972 0.940888 0
M  V30 11709 C 1131.73 4.02735 1.91626 0
M  V30 11710 C 1132.43 5.76858 0.748946 0
M  V30 11711 N 1131.41 5.28134 1.28745 0
M  V30 11712 H 1135.21 2.92811 0.252763 0
M  V30 11713 H 1132.73 1.62353 0.0391501 0
M  V30 11714 H 1134.72 3.17216 2.70517 0
M  V30 11715 H 1133.38 2.00535 2.55374 0
M  V30 11716 H 1134.39 5.14413 0.599981 0
M  V30 11717 H 1131.07 3.36585 2.47016 0
M  V30 11718 H 1132.46 6.71575 0.208991 0
M  V30 11719 N 1135.18 -0.111886 1.57202 0
M  V30 11720 C 1136.14 -1.12101 1.99915 0
M  V30 11721 C 1137.14 -1.33906 0.890272 0
M  V30 11722 O 1138.33 -1.30303 1.15615 0
M  V30 11723 C 1135.47 -2.47392 2.34543 0
M  V30 11724 H 1136.66 -0.753736 2.90274 0
M  V30 11725 H 1134.21 -0.35641 1.52182 0
M  V30 11726 H 1134.95 -2.89026 1.47086 0
M  V30 11727 H 1134.73 -2.32917 3.15423 0
M  V30 11728 H 1136.22 -3.20004 2.68304 0
M  V30 11729 N 1136.66 -1.52894 -0.382264 0
M  V30 11730 C 1137.61 -1.74531 -1.46707 0
M  V30 11731 C 1138.59 -0.599499 -1.49315 0
M  V30 11732 O 1139.78 -0.857577 -1.54837 0
M  V30 11733 C 1136.91 -1.92366 -2.84342 0
M  V30 11734 C 1136 -3.12899 -2.86278 0
M  V30 11735 N 1136.39 -4.35125 -2.57876 0
M  V30 11736 C 1134.69 -3.13282 -3.17444 0
M  V30 11737 C 1135.39 -5.16769 -2.67066 0
M  V30 11738 N 1134.37 -4.52606 -3.0108 0
M  V30 11739 H 1138.17 -2.66653 -1.23585 0
M  V30 11740 H 1135.68 -1.51292 -0.590286 0
M  V30 11741 H 1137.68 -2.0599 -3.62455 0
M  V30 11742 H 1136.34 -1.01461 -3.08441 0
M  V30 11743 H 1137.35 -4.63143 -2.31774 0
M  V30 11744 H 1134.03 -2.32211 -3.46964 0
M  V30 11745 H 1135.42 -6.24219 -2.48595 0
M  V30 11746 N 1138.14 0.641106 -1.43971 0
M  V30 11747 C 1139.39 1.39676 -1.45511 0
M  V30 11748 C 1139.7 1.95403 -0.0877084 0
M  V30 11749 O 1140.91 2.71493 0.0193965 0
M  V30 11750 C 1139.36 2.52839 -2.56126 0
M  V30 11751 C 1138.97 2.03668 -3.99028 0
M  V30 11752 C 1140.71 3.30118 -2.66875 0
M  V30 11753 C 1138.62 3.14114 -5.01085 0
M  V30 11754 H 1137.55 0.524854 -0.541336 0
M  V30 11755 H 1140.2 0.69075 -1.70003 0
M  V30 11756 H 1138.58 3.25968 -2.24857 0
M  V30 11757 H 1139.76 1.3747 -4.39817 0
M  V30 11758 H 1138.07 1.39233 -3.92432 0
M  V30 11759 H 1140.67 4.12434 -3.40297 0
M  V30 11760 H 1141.01 3.78946 -1.72353 0
M  V30 11761 H 1141.55 2.64075 -2.97505 0
M  V30 11762 H 1138.28 2.70241 -5.97202 0
M  V30 11763 H 1137.8 3.78985 -4.64898 0
M  V30 11764 H 1139.48 3.79051 -5.24337 0
M  V30 11765 N 1139.62 1.30703 0.880598 0
M  V30 11766 C 1140.86 1.19955 1.63519 0
M  V30 11767 C 1141.19 -0.244214 1.92658 0
M  V30 11768 O 1140.47 -1.17412 1.55063 0
M  V30 11769 C 1140.75 2.03302 2.97221 0
M  V30 11770 C 1140.61 3.55921 2.75028 0
M  V30 11771 C 1141.92 1.87421 3.98198 0
M  V30 11772 H 1139.04 0.43712 0.593376 0
M  V30 11773 H 1141.69 1.60382 1.01871 0
M  V30 11774 H 1139.84 1.68953 3.49839 0
M  V30 11775 H 1141.51 4.00352 2.29164 0
M  V30 11776 H 1139.75 3.79885 2.09452 0
M  V30 11777 H 1140.42 4.09533 3.70117 0
M  V30 11778 H 1142.9 2.17459 3.54755 0
M  V30 11779 H 1141.77 2.48057 4.89652 0
M  V30 11780 H 1142.03 0.834563 4.34151 0
M  V30 11781 N 1141.09 -1.09351 1.1349 0
M  V30 11782 C 1142.51 -1.3359 0.873269 0
M  V30 11783 C 1142.71 -1.95432 -0.490767 0
M  V30 11784 O 1141.77 -2.20117 -1.23712 0
M  V30 11785 C 1143.08 -2.24681 1.99847 0
M  V30 11786 C 1144.63 -2.38188 2.03065 0
M  V30 11787 C 1145.1 -3.32615 3.14851 0
M  V30 11788 N 1146.59 -3.40188 3.14366 0
M  V30 11789 C 1147.33 -4.13256 3.97501 0
M  V30 11790 N 1146.82 -4.89114 4.90652 0
M  V30 11791 N 1148.62 -4.08988 3.85597 0
M  V30 11792 H 1140.77 -0.675852 2.0136 0
M  V30 11793 H 1143.03 -0.360268 0.876876 0
M  V30 11794 H 1142.74 -1.86469 2.98198 0
M  V30 11795 H 1142.61 -3.25075 1.91327 0
M  V30 11796 H 1145 -2.75663 1.05327 0
M  V30 11797 H 1145.08 -1.3757 2.15658 0
M  V30 11798 H 1144.72 -2.95863 4.12829 0
M  V30 11799 H 1144.65 -4.33139 2.99496 0
M  V30 11800 H 1147.14 -2.861 2.46892 0
M  V30 11801 H 1147.46 -5.423 5.50573 0
M  V30 11802 H 1145.8 -4.882 4.94657 0
M  V30 11803 H 1148.99 -3.48826 3.12151 0
M  V30 11804 H 1149.17 -4.65671 4.50615 0
M  V30 11805 N 1142.57 -0.928524 -1.27343 0
M  V30 11806 C 1143.5 -0.445627 -2.29208 0
M  V30 11807 C 1144.48 0.494508 -1.62753 0
M  V30 11808 O 1145.67 0.399082 -1.90055 0
M  V30 11809 C 1142.8 0.301684 -3.45987 0
M  V30 11810 C 1141.75 -0.550695 -4.24442 0
M  V30 11811 C 1141.08 0.325833 -5.33706 0
M  V30 11812 C 1142.38 -1.81559 -4.89728 0
M  V30 11813 H 1144.07 -1.29696 -2.69851 0
M  V30 11814 H 1141.62 -0.625085 -1.29725 0
M  V30 11815 H 1143.57 0.650455 -4.1635 0
M  V30 11816 H 1142.29 1.18705 -3.04264 0
M  V30 11817 H 1140.95 -0.882185 -3.55827 0
M  V30 11818 H 1140.6 1.21018 -4.88225 0
M  V30 11819 H 1140.3 -0.240994 -5.87106 0
M  V30 11820 H 1141.83 0.670156 -6.06911 0
M  V30 11821 H 1143.24 -1.53483 -5.52373 0
M  V30 11822 H 1141.64 -2.32598 -5.53189 0
M  V30 11823 H 1142.71 -2.53461 -4.13383 0
M  V30 11824 N 1144.05 1.41491 -0.694123 0
M  V30 11825 C 1144.98 2.33462 -0.0422169 0
M  V30 11826 C 1145.96 1.51739 0.76872 0
M  V30 11827 O 1147.15 1.8028 0.721985 0
M  V30 11828 C 1144.28 3.35545 0.895925 0
M  V30 11829 C 1143.23 4.27568 0.192188 0
M  V30 11830 C 1142.56 5.20014 1.24459 0
M  V30 11831 C 1143.86 5.1376 -0.940626 0
M  V30 11832 H 1145.55 2.88225 -0.810363 0
M  V30 11833 H 1143.1 1.38586 -0.39114 0
M  V30 11834 H 1145.05 3.9881 1.36121 0
M  V30 11835 H 1143.77 2.79129 1.69572 0
M  V30 11836 H 1142.43 3.65726 -0.25305 0
M  V30 11837 H 1142.08 4.59913 2.03687 0
M  V30 11838 H 1141.78 5.82417 0.778734 0
M  V30 11839 H 1143.3 5.86155 1.71041 0
M  V30 11840 H 1144.72 5.70601 -0.555692 0
M  V30 11841 H 1143.11 5.85097 -1.33349 0
M  V30 11842 H 1144.18 4.51011 -1.78093 0
M  V30 11843 N 1145.53 0.438773 1.51369 0
M  V30 11844 C 1146.78 -0.126962 2.01701 0
M  V30 11845 C 1147.1 -1.43086 1.32481 0
M  V30 11846 O 1146.37 -1.90427 0.459823 0
M  V30 11847 H 1144.95 -0.0499092 0.745331 0
M  V30 11848 H 1147.61 0.581808 1.86013 0
M  V30 11849 H 1146.7 -0.301836 3.10637 0
M  V30 11850 N 1147.01 -1.56678 0.170181 0
M  V30 11851 C 1147.94 -2.20916 -0.756213 0
M  V30 11852 C 1148.92 -1.16442 -1.23997 0
M  V30 11853 O 1150.1 -1.44867 -1.29333 0
M  V30 11854 C 1147.23 -2.84901 -1.98617 0
M  V30 11855 C 1146.19 -3.95403 -1.63831 0
M  V30 11856 C 1145.51 -4.46432 -2.94282 0
M  V30 11857 C 1146.81 -5.15051 -0.867195 0
M  V30 11858 H 1148.51 -2.98585 -0.220776 0
M  V30 11859 H 1146.05 -1.43619 -0.104748 0
M  V30 11860 H 1148 -3.28514 -2.63926 0
M  V30 11861 H 1146.73 -2.04598 -2.54572 0
M  V30 11862 H 1145.39 -3.52444 -1.00891 0
M  V30 11863 H 1145.04 -3.62923 -3.48276 0
M  V30 11864 H 1144.74 -5.20979 -2.71762 0
M  V30 11865 H 1146.26 -4.92731 -3.60622 0
M  V30 11866 H 1147.67 -5.55363 -1.42285 0
M  V30 11867 H 1146.07 -5.95507 -0.741065 0
M  V30 11868 H 1147.14 -4.84707 0.136693 0
M  V30 11869 N 1148.48 0.103547 -1.57259 0
M  V30 11870 C 1149.72 0.814289 -1.8748 0
M  V30 11871 C 1150.09 1.76312 -0.760126 0
M  V30 11872 O 1151.29 2.51659 -0.944514 0
M  V30 11873 C 1149.56 1.53119 -3.22938 0
M  V30 11874 S 1151.12 2.28138 -3.74831 0
M  V30 11875 H 1147.94 0.271464 -0.657136 0
M  V30 11876 H 1150.54 0.07183 -1.95368 0
M  V30 11877 H 1149.24 0.826397 -4.01994 0
M  V30 11878 H 1148.77 2.31372 -3.18167 0
M  V30 11879 H 1150.79 3.54132 -3.4757 0
M  V30 11880 N 1149.96 1.53094 0.37415 0
M  V30 11881 C 1151.37 1.60641 0.951381 0
M  V30 11882 C 1151.72 0.468474 1.90525 0
M  V30 11883 O 1150.85 -0.406347 2.12551 0
M  V30 11884 C 1151.44 2.91166 1.73228 0
M  V30 11885 C 1150 3.01077 2.25898 0
M  V30 11886 C 1149.15 2.55873 1.06885 0
M  V30 11887 H 1152.1 1.57959 0.153214 0
M  V30 11888 H 1152.12 2.78487 2.59278 0
M  V30 11889 H 1151.63 3.73968 1.03778 0
M  V30 11890 H 1149.73 2.22844 2.98615 0
M  V30 11891 H 1149.85 4.05998 2.54367 0
M  V30 11892 H 1148.21 2.10544 1.43329 0
M  V30 11893 H 1148.99 3.41084 0.38947 0
M  V30 11894 N 1151.44 -0.633461 1.44309 0
M  V30 11895 C 1152.69 -1.39031 1.46679 0
M  V30 11896 C 1153.01 -1.94745 0.0997165 0
M  V30 11897 O 1152.28 -1.75637 -0.867659 0
M  V30 11898 H 1150.86 -0.516051 0.540093 0
M  V30 11899 H 1153.52 -0.745739 1.80069 0
M  V30 11900 H 1152.62 -2.2228 2.19085 0
M  V30 11901 N 1152.92 -1.31168 -0.873655 0
M  V30 11902 C 1154.14 -1.23728 -1.66452 0
M  V30 11903 C 1154.57 0.194869 -1.87088 0
M  V30 11904 O 1153.93 1.1397 -1.40998 0
M  V30 11905 C 1153.97 -1.98285 -3.0119 0
M  V30 11906 O 1153.08 -1.31767 -3.90783 0
M  V30 11907 H 1152.42 -0.427362 -0.508191 0
M  V30 11908 H 1154.95 -1.73176 -1.08955 0
M  V30 11909 H 1154.96 -2.0774 -3.51153 0
M  V30 11910 H 1153.63 -3.02437 -2.8549 0
M  V30 11911 H 1152.21 -1.3074 -3.4923 0
M  V30 11912 N 1154.4 1.08748 -1.14068 0
M  V30 11913 C 1155.62 1.85353 -0.930532 0
M  V30 11914 C 1156.05 1.80892 0.515717 0
M  V30 11915 O 1155.4 1.19146 1.36652 0
M  V30 11916 C 1155.45 3.30962 -1.43167 0
M  V30 11917 O 1154.56 4.0769 -0.621468 0
M  V30 11918 H 1153.9 0.574485 -0.332962 0
M  V30 11919 H 1156.43 1.37282 -1.51707 0
M  V30 11920 H 1156.44 3.81807 -1.43832 0
M  V30 11921 H 1155.11 3.33524 -2.48464 0
M  V30 11922 H 1153.69 3.66587 -0.683267 0
M  V30 11923 N 1155.87 0.935264 1.26849 0
M  V30 11924 C 1156.8 0.457776 2.28969 0
M  V30 11925 C 1157.79 -0.48587 1.63013 0
M  V30 11926 O 1158.97 -0.388998 1.90264 0
M  V30 11927 C 1156.1 -0.283332 3.46142 0
M  V30 11928 C 1155.05 0.573196 4.24144 0
M  V30 11929 C 1154.38 -0.297525 5.33872 0
M  V30 11930 C 1155.68 1.84153 4.88759 0
M  V30 11931 H 1157.37 1.31125 2.69159 0
M  V30 11932 H 1154.92 0.631956 1.29392 0
M  V30 11933 H 1156.87 -0.628366 4.16689 0
M  V30 11934 H 1155.6 -1.1709 3.04889 0
M  V30 11935 H 1154.26 0.901043 3.55354 0
M  V30 11936 H 1153.9 -1.18427 4.8886 0
M  V30 11937 H 1153.6 0.272126 5.8697 0
M  V30 11938 H 1155.13 -0.637961 6.07258 0
M  V30 11939 H 1156.54 1.5641 5.51551 0
M  V30 11940 H 1154.94 2.35528 5.51948 0
M  V30 11941 H 1156.01 2.5565 4.12033 0
M  V30 11942 N 1157.35 -1.41121 0.701616 0
M  V30 11943 C 1158.28 -2.292 0.000880842 0
M  V30 11944 C 1159.3 -1.45102 -0.738192 0
M  V30 11945 O 1160.49 -1.68541 -0.587891 0
M  V30 11946 C 1157.59 -3.23094 -1.02292 0
M  V30 11947 C 1156.76 -4.35979 -0.352231 0
M  V30 11948 C 1155.82 -5.10408 -1.27947 0
M  V30 11949 O 1154.84 -5.63974 -0.769561 0
M  V30 11950 N 1156.05 -5.18442 -2.61147 0
M  V30 11951 H 1158.81 -2.8998 0.757094 0
M  V30 11952 H 1156.37 -1.52339 0.548126 0
M  V30 11953 H 1158.36 -3.69755 -1.64509 0
M  V30 11954 H 1156.93 -2.6358 -1.68061 0
M  V30 11955 H 1156.15 -3.91624 0.44992 0
M  V30 11956 H 1157.44 -5.08673 0.113882 0
M  V30 11957 H 1156.84 -4.76381 -3.05087 0
M  V30 11958 H 1155.4 -5.68659 -3.18544 0
M  V30 11959 N 1158.83 -0.446794 -1.51134 0
M  V30 11960 C 1159.76 0.350229 -2.30858 0
M  V30 11961 C 1160.74 1.0125 -1.36684 0
M  V30 11962 O 1161.93 1.01433 -1.65605 0
M  V30 11963 C 1159.06 1.4464 -3.15748 0
M  V30 11964 C 1158.01 0.907102 -4.18277 0
M  V30 11965 C 1157.34 2.09974 -4.91747 0
M  V30 11966 C 1158.64 -0.0649758 -5.2226 0
M  V30 11967 H 1160.33 -0.315105 -2.97737 0
M  V30 11968 H 1157.88 -0.152985 -1.43185 0
M  V30 11969 H 1159.83 2.01127 -3.70305 0
M  V30 11970 H 1158.55 2.14016 -2.46708 0
M  V30 11971 H 1157.21 0.364382 -3.64785 0
M  V30 11972 H 1156.86 2.77991 -4.19202 0
M  V30 11973 H 1156.56 1.74523 -5.61084 0
M  V30 11974 H 1158.08 2.66996 -5.49131 0
M  V30 11975 H 1159.5 0.4099 -5.71833 0
M  V30 11976 H 1157.9 -0.332529 -5.99178 0
M  V30 11977 H 1158.97 -0.998681 -4.74504 0
M  V30 11978 N 1160.31 1.56586 -0.178487 0
M  V30 11979 C 1161.55 1.9739 0.465306 0
M  V30 11980 C 1161.89 1.06474 1.6241 0
M  V30 11981 O 1161.16 0.113316 1.9417 0
M  V30 11982 C 1161.45 3.47577 0.941408 0
M  V30 11983 C 1161.3 4.49271 -0.218054 0
M  V30 11984 C 1162.62 4.01038 1.81263 0
M  V30 11985 H 1159.74 0.717676 0.167663 0
M  V30 11986 H 1162.38 1.88128 -0.266067 0
M  V30 11987 H 1160.53 3.556 1.56463 0
M  V30 11988 H 1162.2 4.53301 -0.855332 0
M  V30 11989 H 1160.44 4.24936 -0.872441 0
M  V30 11990 H 1161.11 5.51776 0.157315 0
M  V30 11991 H 1163.59 3.9569 1.28718 0
M  V30 11992 H 1162.47 5.06526 2.11476 0
M  V30 11993 H 1162.73 3.45288 2.76096 0
M  V30 11994 N 1161.79 -0.095206 1.57312 0
M  V30 11995 C 1163.01 -0.81227 1.90289 0
M  V30 11996 C 1163.43 -1.72287 0.772178 0
M  V30 11997 O 1162.79 -1.80698 -0.255841 0
M  V30 11998 C 1162.84 -1.62572 3.22882 0
M  V30 11999 O 1162.56 -0.75175 4.31602 0
M  V30 12000 C 1164.06 -2.44585 3.6972 0
M  V30 12001 H 1161.28 -0.232256 0.629522 0
M  V30 12002 H 1163.82 -0.0724733 2.04372 0
M  V30 12003 H 1161.98 -2.31803 3.10397 0
M  V30 12004 H 1162.39 -1.31514 5.07744 0
M  V30 12005 H 1163.87 -2.97155 4.65191 0
M  V30 12006 H 1164.34 -3.23044 2.97555 0
M  V30 12007 H 1164.95 -1.80554 3.85072 0
M  V30 12008 N 1163.26 -1.53291 -0.366026 0
M  V30 12009 C 1164.2 -1.75981 -1.46845 0
M  V30 12010 C 1165.21 -0.640574 -1.49668 0
M  V30 12011 O 1166.4 -0.916823 -1.53155 0
M  V30 12012 C 1163.5 -1.82426 -2.85611 0
M  V30 12013 C 1162.67 -3.12062 -3.0649 0
M  V30 12014 C 1161.73 -3.09755 -4.25368 0
M  V30 12015 O 1160.76 -3.83555 -4.20564 0
M  V30 12016 N 1161.96 -2.30544 -5.32757 0
M  V30 12017 H 1164.72 -2.71104 -1.2776 0
M  V30 12018 H 1162.28 -1.52063 -0.555745 0
M  V30 12019 H 1164.28 -1.78361 -3.63276 0
M  V30 12020 H 1162.85 -0.945888 -2.97946 0
M  V30 12021 H 1162.07 -3.29433 -2.16489 0
M  V30 12022 H 1163.35 -3.97735 -3.17308 0
M  V30 12023 H 1162.75 -1.70095 -5.39522 0
M  V30 12024 H 1161.31 -2.32298 -6.09 0
M  V30 12025 N 1164.74 0.6258 -1.44643 0
M  V30 12026 C 1165.97 1.41028 -1.50979 0
M  V30 12027 C 1166.38 1.88717 -0.135092 0
M  V30 12028 O 1165.72 1.61778 0.870268 0
M  V30 12029 C 1165.79 2.66094 -2.41732 0
M  V30 12030 C 1165.45 2.40166 -3.88805 0
M  V30 12031 C 1166.45 2.01661 -4.79196 0
M  V30 12032 C 1164.13 2.53641 -4.33557 0
M  V30 12033 C 1166.13 1.76966 -6.12341 0
M  V30 12034 C 1163.81 2.2856 -5.66748 0
M  V30 12035 C 1164.81 1.90282 -6.55959 0
M  V30 12036 O 1164.5 1.65484 -7.86683 0
M  V30 12037 H 1164.23 0.438757 -0.514265 0
M  V30 12038 H 1166.78 0.772034 -1.90339 0
M  V30 12039 H 1165.01 3.32575 -1.97309 0
M  V30 12040 H 1166.7 3.28107 -2.38957 0
M  V30 12041 H 1167.47 1.90802 -4.45892 0
M  V30 12042 H 1163.35 2.82404 -3.64375 0
M  V30 12043 H 1166.89 1.47014 -6.81933 0
M  V30 12044 H 1162.79 2.3903 -5.99612 0
M  V30 12045 H 1163.56 1.79686 -7.98533 0
M  V30 12046 N 1166.22 1.31629 0.866686 0
M  V30 12047 C 1167.15 1.22151 1.99001 0
M  V30 12048 C 1168.13 0.107972 1.69757 0
M  V30 12049 O 1169.32 0.293125 1.91975 0
M  V30 12050 C 1166.45 0.93144 3.34577 0
M  V30 12051 C 1165.4 2.0049 3.78137 0
M  V30 12052 C 1164.73 1.56747 5.11209 0
M  V30 12053 C 1166.03 3.41844 3.94892 0
M  V30 12054 H 1167.72 2.16132 2.0719 0
M  V30 12055 H 1165.27 1.04051 0.995463 0
M  V30 12056 H 1167.22 0.851719 4.12703 0
M  V30 12057 H 1165.94 -0.0440289 3.2657 0
M  V30 12058 H 1164.6 2.07457 3.02253 0
M  V30 12059 H 1164.25 0.579767 4.99648 0
M  V30 12060 H 1163.95 2.28562 5.41326 0
M  V30 12061 H 1165.47 1.50188 5.91841 0
M  V30 12062 H 1166.89 3.37534 4.63405 0
M  V30 12063 H 1165.29 4.11905 4.36411 0
M  V30 12064 H 1166.36 3.82389 2.98172 0
M  V30 12065 N 1167.7 -1.08142 1.14644 0
M  V30 12066 C 1169.11 -1.62061 0.926986 0
M  V30 12067 C 1169.46 -1.88805 -0.533578 0
M  V30 12068 O 1168.59 -1.64753 -1.40305 0
M  V30 12069 C 1169.18 -2.94425 1.67629 0
M  V30 12070 C 1167.74 -3.45118 1.50235 0
M  V30 12071 C 1166.89 -2.19307 1.69705 0
M  V30 12072 H 1169.84 -0.913326 1.29785 0
M  V30 12073 H 1169.86 -3.62987 1.14107 0
M  V30 12074 H 1169.37 -2.74928 2.73927 0
M  V30 12075 H 1167.47 -3.69713 0.462967 0
M  V30 12076 H 1167.59 -4.2169 2.27408 0
M  V30 12077 H 1165.95 -2.28611 1.12291 0
M  V30 12078 H 1166.73 -2.02315 2.77351 0
M  V30 12079 N 1169.18 -0.941978 -1.26351 0
M  V30 12080 C 1170.11 -0.469913 -2.28723 0
M  V30 12081 C 1171.09 0.477218 -1.63269 0
M  V30 12082 O 1172.27 0.378902 -1.90468 0
M  V30 12083 C 1169.4 0.264971 -3.46288 0
M  V30 12084 C 1168.36 -0.595682 -4.23834 0
M  V30 12085 C 1167.68 0.269208 -5.34022 0
M  V30 12086 C 1168.98 -1.86743 -4.87775 0
M  V30 12087 H 1170.68 -1.32551 -2.6846 0
M  V30 12088 H 1168.22 -0.638809 -1.29055 0
M  V30 12089 H 1170.18 0.606259 -4.17016 0
M  V30 12090 H 1168.9 1.15471 -3.05506 0
M  V30 12091 H 1167.56 -0.919875 -3.54872 0
M  V30 12092 H 1167.21 1.15832 -4.89481 0
M  V30 12093 H 1166.91 -0.30325 -5.86817 0
M  V30 12094 H 1168.43 0.605748 -6.07588 0
M  V30 12095 H 1169.85 -1.59333 -5.50714 0
M  V30 12096 H 1168.24 -2.38452 -5.50691 0
M  V30 12097 H 1169.31 -2.57831 -4.10671 0
M  V30 12098 N 1170.66 1.40747 -0.709091 0
M  V30 12099 C 1171.9 2.00606 -0.245324 0
M  V30 12100 C 1172.22 1.56489 1.16346 0
M  V30 12101 O 1171.49 0.801456 1.78755 0
M  V30 12102 H 1170.07 0.741833 -0.0877098 0
M  V30 12103 H 1172.74 1.72178 -0.913271 0
M  V30 12104 H 1171.83 3.10901 -0.273322 0
M  V30 12105 N 1172.13 0.454803 1.50895 0
M  V30 12106 C 1173.36 -0.106259 2.07128 0
M  V30 12107 C 1173.78 -1.3418 1.31823 0
M  V30 12108 O 1173.14 -1.77667 0.361147 0
M  V30 12109 C 1173.19 -0.389609 3.58489 0
M  V30 12110 O 1172.29 -1.47305 3.85195 0
M  V30 12111 H 1171.63 0.00580588 0.663975 0
M  V30 12112 H 1174.16 0.641163 1.94294 0
M  V30 12113 H 1174.17 -0.634934 4.03029 0
M  V30 12114 H 1172.85 0.513338 4.1272 0
M  V30 12115 H 1171.43 -1.21631 3.52506 0
M  V30 12116 N 1173.61 -1.56489 0.186789 0
M  V30 12117 C 1174.54 -2.21705 -0.732739 0
M  V30 12118 C 1175.52 -1.17751 -1.22755 0
M  V30 12119 O 1176.71 -1.46231 -1.27789 0
M  V30 12120 C 1173.84 -2.86992 -1.95584 0
M  V30 12121 C 1172.79 -3.97118 -1.59628 0
M  V30 12122 C 1172.12 -4.49529 -2.89531 0
M  V30 12123 C 1173.42 -5.15941 -0.812518 0
M  V30 12124 H 1175.11 -2.98802 -0.189094 0
M  V30 12125 H 1172.66 -1.43722 -0.0895099 0
M  V30 12126 H 1174.61 -3.31295 -2.60426 0
M  V30 12127 H 1173.33 -2.07287 -2.52388 0
M  V30 12128 H 1171.99 -3.53494 -0.971475 0
M  V30 12129 H 1171.64 -3.66596 -3.44407 0
M  V30 12130 H 1171.34 -5.23832 -2.66221 0
M  V30 12131 H 1172.87 -4.96528 -3.55376 0
M  V30 12132 H 1174.28 -5.56841 -1.36386 0
M  V30 12133 H 1172.68 -5.96259 -0.677862 0
M  V30 12134 H 1173.75 -4.84535 0.188095 0
M  V30 12135 N 1175.09 0.086862 -1.5736 0
M  V30 12136 C 1176.02 1.10538 -2.05678 0
M  V30 12137 C 1177 1.41281 -0.947293 0
M  V30 12138 O 1178.19 1.51169 -1.21908 0
M  V30 12139 C 1175.32 2.42302 -2.48812 0
M  V30 12140 C 1174.27 2.25948 -3.63499 0
M  V30 12141 C 1173.6 3.62961 -3.92637 0
M  V30 12142 C 1174.9 1.69319 -4.94094 0
M  V30 12143 H 1176.59 0.703371 -2.91021 0
M  V30 12144 H 1174.14 0.336895 -1.40004 0
M  V30 12145 H 1176.09 3.13833 -2.81224 0
M  V30 12146 H 1174.81 2.84454 -1.60479 0
M  V30 12147 H 1173.47 1.5686 -3.31347 0
M  V30 12148 H 1173.12 4.02656 -3.01459 0
M  V30 12149 H 1172.82 3.52862 -4.69853 0
M  V30 12150 H 1174.34 4.35946 -4.27531 0
M  V30 12151 H 1175.76 2.30699 -5.24834 0
M  V30 12152 H 1174.15 1.69957 -5.7553 0
M  V30 12153 H 1175.22 0.653318 -4.80479 0
M  V30 12154 N 1176.57 1.53483 0.357892 0
M  V30 12155 C 1177.84 1.60649 1.11585 0
M  V30 12156 C 1178.22 0.418789 2.06904 0
M  V30 12157 O 1177.57 -0.590279 2.20744 0
M  V30 12158 C 1177.78 2.96046 1.84818 0
M  V30 12159 C 1179.13 3.50895 2.39076 0
M  V30 12160 O 1180.15 2.98126 1.94934 0
M  V30 12161 O 1179.01 4.43163 3.19794 0
M  V30 12162 H 1176.11 0.649202 0.512315 0
M  V30 12163 H 1178.65 1.65826 0.360537 0
M  V30 12164 H 1177.43 3.73929 1.15296 0
M  V30 12165 H 1177.05 2.94395 2.6724 0
M  V30 12166 N 1178.05 -0.61812 1.44973 0
M  V30 12167 C 1179 -1.72346 1.49268 0
M  V30 12168 C 1179.98 -1.56889 0.357042 0
M  V30 12169 O 1181.17 -1.66404 0.603212 0
M  V30 12170 C 1178.3 -3.11073 1.4522 0
M  V30 12171 C 1177.39 -3.31953 2.63947 0
M  V30 12172 N 1177.78 -3.23141 3.89119 0
M  V30 12173 C 1176.08 -3.62791 2.59419 0
M  V30 12174 C 1176.78 -3.45066 4.683 0
M  V30 12175 N 1175.75 -3.68558 3.99582 0
M  V30 12176 H 1179.55 -1.6401 2.43881 0
M  V30 12177 H 1177.07 -0.821029 1.40117 0
M  V30 12178 H 1179.07 -3.90356 1.46381 0
M  V30 12179 H 1177.73 -3.20565 0.516555 0
M  V30 12180 H 1178.74 -3.01773 4.20896 0
M  V30 12181 H 1175.41 -3.79185 1.74713 0
M  V30 12182 H 1176.8 -3.43735 5.77318 0
M  V30 12183 N 1179.52 -1.32087 -0.859693 0
M  V30 12184 C 1180.77 -1.22542 -1.6159 0
M  V30 12185 C 1181.1 0.213533 -1.93022 0
M  V30 12186 O 1180.38 1.14931 -1.56911 0
M  V30 12187 C 1180.66 -2.08004 -2.93949 0
M  V30 12188 C 1180.51 -3.60252 -2.6933 0
M  V30 12189 C 1181.83 -1.93732 -3.95166 0
M  V30 12190 H 1178.95 -0.446504 -0.586347 0
M  V30 12191 H 1181.59 -1.61982 -0.993064 0
M  V30 12192 H 1179.74 -1.74498 -3.47106 0
M  V30 12193 H 1181.42 -4.03947 -2.22766 0
M  V30 12194 H 1179.66 -3.83169 -2.03382 0
M  V30 12195 H 1180.33 -4.1537 -3.63555 0
M  V30 12196 H 1182.81 -2.23075 -3.5125 0
M  V30 12197 H 1181.68 -2.55815 -4.85644 0
M  V30 12198 H 1181.94 -0.903528 -4.32769 0
M  V30 12199 N 1181 1.07532 -1.15215 0
M  V30 12200 C 1182.42 1.32183 -0.894411 0
M  V30 12201 C 1182.62 1.96188 0.459614 0
M  V30 12202 O 1181.67 2.22057 1.20195 0
M  V30 12203 C 1182.99 2.21473 -2.03397 0
M  V30 12204 C 1184.53 2.34927 -2.06829 0
M  V30 12205 C 1185.01 3.27564 -3.20103 0
M  V30 12206 N 1186.5 3.35144 -3.19738 0
M  V30 12207 C 1187.24 4.0688 -4.04025 0
M  V30 12208 N 1186.73 4.81246 -4.98371 0
M  V30 12209 N 1188.52 4.02802 -3.92055 0
M  V30 12210 H 1180.68 0.643732 -2.0241 0
M  V30 12211 H 1182.94 0.346272 -0.882496 0
M  V30 12212 H 1182.64 1.81701 -3.01127 0
M  V30 12213 H 1182.52 3.2199 -1.96475 0
M  V30 12214 H 1184.91 2.73953 -1.09699 0
M  V30 12215 H 1184.99 1.34121 -2.17819 0
M  V30 12216 H 1184.63 2.89258 -4.17483 0
M  V30 12217 H 1184.56 4.2832 -3.06349 0
M  V30 12218 H 1187.05 2.82135 -2.51412 0
M  V30 12219 H 1187.36 5.33472 -5.59131 0
M  V30 12220 H 1185.71 4.80268 -5.02362 0
M  V30 12221 H 1188.9 3.43816 -3.17661 0
M  V30 12222 H 1189.07 4.58443 -4.57967 0
M  V30 12223 N 1182.48 0.948665 1.2585 0
M  V30 12224 C 1183.41 0.421458 2.25292 0
M  V30 12225 C 1184.43 -0.459389 1.56184 0
M  V30 12226 O 1185.61 -0.268627 1.76467 0
M  V30 12227 C 1182.71 -0.412653 3.36378 0
M  V30 12228 C 1181.89 0.453792 4.3504 0
M  V30 12229 C 1180.95 -0.321127 5.25219 0
M  V30 12230 O 1179.97 0.278424 5.68519 0
M  V30 12231 N 1181.17 -1.61576 5.5756 0
M  V30 12232 H 1183.94 1.27636 2.71162 0
M  V30 12233 H 1181.5 0.818367 1.39694 0
M  V30 12234 H 1183.49 -0.938637 3.93664 0
M  V30 12235 H 1182.06 -1.16839 2.89944 0
M  V30 12236 H 1181.28 1.16093 3.76718 0
M  V30 12237 H 1182.57 1.04538 4.97945 0
M  V30 12238 H 1181.97 -2.12488 5.24276 0
M  V30 12239 H 1180.53 -2.08783 6.17457 0
M  V30 12240 N 1183.96 -1.40369 0.716545 0
M  V30 12241 C 1184.91 -2.27963 0.0410169 0
M  V30 12242 C 1185.89 -1.43307 -0.731575 0
M  V30 12243 O 1187.08 -1.66389 -0.603618 0
M  V30 12244 C 1184.21 -3.31849 -0.87927 0
M  V30 12245 C 1183.3 -4.23978 -0.101813 0
M  V30 12246 N 1183.69 -4.97447 0.915437 0
M  V30 12247 C 1181.99 -4.44746 -0.334227 0
M  V30 12248 C 1182.69 -5.65029 1.38266 0
M  V30 12249 N 1181.67 -5.39014 0.704642 0
M  V30 12250 H 1185.47 -2.8221 0.820653 0
M  V30 12251 H 1182.98 -1.52831 0.549217 0
M  V30 12252 H 1184.98 -3.93448 -1.37855 0
M  V30 12253 H 1183.64 -2.79162 -1.65827 0
M  V30 12254 H 1184.65 -5.01414 1.29631 0
M  V30 12255 H 1181.33 -4.03034 -1.08948 0
M  V30 12256 H 1182.72 -6.33886 2.22797 0
M  V30 12257 N 1185.44 -0.462799 -1.50652 0
M  V30 12258 C 1186.85 -0.11648 -1.59174 0
M  V30 12259 C 1187.05 1.37638 -1.47167 0
M  V30 12260 O 1186.11 2.14886 -1.3259 0
M  V30 12261 C 1187.42 -0.659289 -2.93383 0
M  V30 12262 C 1188.97 -0.62198 -3.06758 0
M  V30 12263 C 1189.44 -1.14219 -4.43529 0
M  V30 12264 N 1190.94 -1.10125 -4.49919 0
M  V30 12265 C 1191.67 -1.47436 -5.54121 0
M  V30 12266 N 1191.17 -1.92156 -6.65618 0
M  V30 12267 N 1192.96 -1.39091 -5.44619 0
M  V30 12268 H 1185.11 -1.43383 -1.56701 0
M  V30 12269 H 1187.37 -0.592438 -0.740082 0
M  V30 12270 H 1187.08 -1.70477 -3.07621 0
M  V30 12271 H 1186.95 -0.0982388 -3.77072 0
M  V30 12272 H 1189.34 0.414576 -2.92173 0
M  V30 12273 H 1189.42 -1.21974 -2.24847 0
M  V30 12274 H 1189.07 -2.17734 -4.58862 0
M  V30 12275 H 1189 -0.52073 -5.24019 0
M  V30 12276 H 1191.49 -0.773154 -3.69906 0
M  V30 12277 H 1191.8 -2.18796 -7.4118 0
M  V30 12278 H 1190.14 -1.96103 -6.6676 0
M  V30 12279 H 1193.34 -1.04001 -4.564 0
M  V30 12280 H 1193.51 -1.68496 -6.2571 0
M  V30 12281 N 1186.91 1.56388 -0.195085 0
M  V30 12282 C 1188.16 1.97189 0.44281 0
M  V30 12283 C 1188.48 1.08312 1.62153 0
M  V30 12284 O 1187.75 0.154404 1.95291 0
M  V30 12285 H 1186.33 0.728188 0.166585 0
M  V30 12286 H 1189 1.92852 -0.281815 0
M  V30 12287 H 1188.09 3.02016 0.786945 0
M  V30 12288 N 1188.39 -0.0785156 1.57404 0
M  V30 12289 C 1189.36 -1.07835 2.02248 0
M  V30 12290 C 1190.36 -1.31987 0.918475 0
M  V30 12291 O 1191.55 -1.27821 1.18353 0
M  V30 12292 C 1188.68 -2.42361 2.39737 0
M  V30 12293 H 1189.87 -0.691995 2.91807 0
M  V30 12294 H 1187.42 -0.32405 1.52904 0
M  V30 12295 H 1188.16 -2.85841 1.53183 0
M  V30 12296 H 1187.94 -2.26174 3.20293 0
M  V30 12297 H 1189.43 -3.14241 2.75031 0
M  V30 12298 N 1189.87 -1.5367 -0.349747 0
M  V30 12299 C 1190.8 -1.84208 -1.43492 0
M  V30 12300 C 1191.78 -0.696725 -1.55177 0
M  V30 12301 O 1192.97 -0.948061 -1.69486 0
M  V30 12302 C 1190.1 -2.04613 -2.80625 0
M  V30 12303 C 1189.05 -3.20419 -2.83753 0
M  V30 12304 C 1188.38 -3.26147 -4.23713 0
M  V30 12305 C 1189.68 -4.58666 -2.49846 0
M  V30 12306 H 1191.37 -2.75087 -1.18185 0
M  V30 12307 H 1188.92 -1.32363 -0.567101 0
M  V30 12308 H 1190.87 -2.2456 -3.56582 0
M  V30 12309 H 1189.59 -1.10459 -3.07354 0
M  V30 12310 H 1188.25 -3.00318 -2.10249 0
M  V30 12311 H 1187.9 -2.29599 -4.47541 0
M  V30 12312 H 1187.6 -4.03963 -4.26717 0
M  V30 12313 H 1189.12 -3.48296 -5.0152 0
M  V30 12314 H 1190.54 -4.78668 -3.15516 0
M  V30 12315 H 1188.94 -5.3884 -2.64144 0
M  V30 12316 H 1190.01 -4.62697 -1.4505 0
M  V30 12317 N 1191.35 0.610423 -1.45298 0
M  V30 12318 C 1192.6 1.3668 -1.48872 0
M  V30 12319 C 1192.92 1.94562 -0.130686 0
M  V30 12320 O 1192.19 1.76996 0.839607 0
M  V30 12321 H 1190.77 0.507393 -0.548235 0
M  V30 12322 H 1193.43 0.716997 -1.81232 0
M  V30 12323 H 1192.53 2.18766 -2.22593 0
M  V30 12324 N 1192.83 1.32541 0.852676 0
M  V30 12325 C 1194.24 1.20863 1.42299 0
M  V30 12326 C 1194.59 -0.178051 1.9539 0
M  V30 12327 O 1193.71 -1.07689 1.87702 0
M  V30 12328 C 1194.31 2.18811 2.58664 0
M  V30 12329 C 1192.87 2.11015 3.11689 0
M  V30 12330 C 1192.01 2.07067 1.84441 0
M  V30 12331 H 1194.97 1.44341 0.659657 0
M  V30 12332 H 1194.99 1.78779 3.35884 0
M  V30 12333 H 1194.5 3.19726 2.19993 0
M  V30 12334 H 1192.6 1.13354 3.54939 0
M  V30 12335 H 1192.71 3.00929 3.72799 0
M  V30 12336 H 1191.08 1.52335 2.04123 0
M  V30 12337 H 1191.86 3.09767 1.47984 0
M  V30 12338 N 1194.3 -1.0692 1.15784 0
M  V30 12339 C 1195.24 -2.14168 0.816375 0
M  V30 12340 C 1196.25 -1.61872 -0.17357 0
M  V30 12341 O 1197.44 -1.78429 0.0502973 0
M  V30 12342 C 1194.54 -3.38346 0.193682 0
M  V30 12343 C 1193.71 -4.19979 1.22215 0
M  V30 12344 C 1192.77 -5.2253 0.620424 0
M  V30 12345 O 1191.8 -5.54446 1.28757 0
M  V30 12346 N 1193 -5.77434 -0.595811 0
M  V30 12347 H 1195.76 -2.44062 1.73937 0
M  V30 12348 H 1193.32 -1.22865 1.05431 0
M  V30 12349 H 1195.32 -4.04092 -0.22174 0
M  V30 12350 H 1193.89 -3.06129 -0.632735 0
M  V30 12351 H 1193.11 -3.49984 1.81397 0
M  V30 12352 H 1194.39 -4.71329 1.91641 0
M  V30 12353 H 1193.79 -5.5376 -1.15611 0
M  V30 12354 H 1192.35 -6.44788 -0.953529 0
M  V30 12355 N 1195.78 -0.955326 -1.25345 0
M  V30 12356 C 1196.71 -0.494145 -2.28211 0
M  V30 12357 C 1197.69 0.459875 -1.63766 0
M  V30 12358 O 1198.88 0.358679 -1.90859 0
M  V30 12359 C 1196.01 0.228228 -3.46549 0
M  V30 12360 C 1194.96 -0.640601 -4.23179 0
M  V30 12361 C 1194.29 0.212553 -5.34277 0
M  V30 12362 C 1195.59 -1.91906 -4.85767 0
M  V30 12363 H 1197.28 -1.35391 -2.67039 0
M  V30 12364 H 1194.83 -0.652462 -1.2837 0
M  V30 12365 H 1196.78 0.561995 -4.17636 0
M  V30 12366 H 1195.51 1.12224 -3.06714 0
M  V30 12367 H 1194.16 -0.957462 -3.53876 0
M  V30 12368 H 1193.81 1.10634 -4.90682 0
M  V30 12369 H 1193.51 -0.365473 -5.86462 0
M  V30 12370 H 1195.04 0.541271 -6.08196 0
M  V30 12371 H 1196.45 -1.65165 -5.48993 0
M  V30 12372 H 1194.85 -2.44279 -5.48131 0
M  V30 12373 H 1195.92 -2.62173 -4.07914 0
M  V30 12374 N 1197.26 1.39987 -0.723979 0
M  V30 12375 C 1198.19 2.3332 -0.0917282 0
M  V30 12376 C 1199.17 1.53335 0.736361 0
M  V30 12377 O 1200.36 1.81771 0.683582 0
M  V30 12378 C 1197.49 3.3737 0.824549 0
M  V30 12379 C 1196.44 4.2788 0.101452 0
M  V30 12380 C 1195.77 5.22536 1.13401 0
M  V30 12381 C 1197.07 5.11649 -1.04939 0
M  V30 12382 H 1198.76 2.86441 -0.871318 0
M  V30 12383 H 1196.31 1.37725 -0.420448 0
M  V30 12384 H 1198.26 4.01607 1.27631 0
M  V30 12385 H 1196.98 2.82663 1.63613 0
M  V30 12386 H 1195.64 3.65107 -0.330569 0
M  V30 12387 H 1195.29 4.64131 1.93886 0
M  V30 12388 H 1194.99 5.83938 0.65502 0
M  V30 12389 H 1196.52 5.89651 1.58569 0
M  V30 12390 H 1197.93 5.69293 -0.6766 0
M  V30 12391 H 1196.33 5.82137 -1.45729 0
M  V30 12392 H 1197.4 4.47132 -1.8762 0
M  V30 12393 N 1198.74 0.470782 1.50404 0
M  V30 12394 C 1199.67 -0.313458 2.31386 0
M  V30 12395 C 1200.65 -0.990623 1.38278 0
M  V30 12396 O 1201.84 -0.987854 1.67198 0
M  V30 12397 C 1198.97 -1.39599 3.18009 0
M  V30 12398 C 1197.92 -0.840443 4.19667 0
M  V30 12399 C 1197.25 -2.02124 4.95025 0
M  V30 12400 C 1198.55 0.148055 5.2209 0
M  V30 12401 H 1200.24 0.362432 2.97198 0
M  V30 12402 H 1197.79 0.175745 1.42924 0
M  V30 12403 H 1199.74 -1.9521 3.73458 0
M  V30 12404 H 1198.46 -2.10064 2.50081 0
M  V30 12405 H 1197.12 -0.306302 3.65318 0
M  V30 12406 H 1196.77 -2.71286 4.23571 0
M  V30 12407 H 1196.47 -1.65574 5.6379 0
M  V30 12408 H 1197.99 -2.58226 5.5331 0
M  V30 12409 H 1199.41 -0.318874 5.72413 0
M  V30 12410 H 1197.8 0.427811 5.98573 0
M  V30 12411 H 1198.87 1.07404 4.72855 0
M  V30 12412 N 1200.22 -1.56282 0.203376 0
M  V30 12413 C 1201.17 -2.20822 -0.730784 0
M  V30 12414 C 1202.16 -1.18193 -1.21354 0
M  V30 12415 O 1203.37 -1.36318 -1.17547 0
M  V30 12416 H 1199.74 -0.707792 -0.254036 0
M  V30 12417 H 1201.71 -2.97955 -0.162825 0
M  V30 12418 C 1200.46 -2.88803 -1.93618 0
M  V30 12419 H 1199.78 -3.67521 -1.57379 0
M  V30 12420 H 1201.22 -3.37387 -2.56799 0
M  V30 12421 C 1199.68 -1.90285 -2.78017 0
M  V30 12422 O 1200.21 -1.40833 -3.76203 0
M  V30 12423 N 1198.42 -1.58332 -2.43679 0
M  V30 12424 H 1197.97 -1.9874 -1.63891 0
M  V30 12425 H 1197.92 -0.926722 -3.00432 0
M  V30 12426 N 1201.7 0.070167 -1.57444 0
M  V30 12427 C 1202.94 0.764899 -1.8847 0
M  V30 12428 C 1203.3 1.75104 -0.797264 0
M  V30 12429 O 1202.59 1.9057 0.198411 0
M  V30 12430 C 1202.78 1.5111 -3.23883 0
M  V30 12431 C 1202.61 0.598732 -4.45696 0
M  V30 12432 C 1201.38 0.235066 -5.04753 0
M  V30 12433 C 1203.58 -0.105234 -5.14192 0
M  V30 12434 N 1201.56 -0.682856 -6.1009 0
M  V30 12435 C 1202.93 -0.880286 -6.13719 0
M  V30 12436 C 1204.99 -0.176534 -4.97587 0
M  V30 12437 C 1203.69 -1.72002 -6.98432 0
M  V30 12438 C 1205.72 -1.00324 -5.82828 0
M  V30 12439 C 1205.08 -1.76634 -6.81894 0
M  V30 12440 H 1201.18 0.255278 -0.73916 0
M  V30 12441 H 1203.76 0.0263555 -1.94682 0
M  V30 12442 H 1201.93 2.22036 -3.18676 0
M  V30 12443 H 1203.67 2.15498 -3.42553 0
M  V30 12444 H 1200.42 0.588283 -4.69932 0
M  V30 12445 H 1200.84 -1.13511 -6.67416 0
M  V30 12446 H 1205.49 0.399107 -4.20912 0
M  V30 12447 H 1203.2 -2.30662 -7.74481 0
M  V30 12448 H 1206.79 -1.06141 -5.72036 0
M  V30 12449 H 1205.67 -2.39573 -7.46709 0
M  V30 12450 N 1203.17 1.53854 0.341593 0
M  V30 12451 C 1204.42 1.70856 1.07948 0
M  V30 12452 C 1204.74 0.475474 1.89114 0
M  V30 12453 O 1204.01 -0.510592 1.89129 0
M  V30 12454 H 1202.59 0.629914 0.401519 0
M  V30 12455 H 1205.25 1.91112 0.382393 0
M  V30 12456 H 1204.35 2.5803 1.75575 0
M  V30 12457 N 1204.65 -0.602709 1.4562 0
M  V30 12458 C 1205.9 -1.36359 1.50113 0
M  V30 12459 C 1206.23 -1.93663 0.144297 0
M  V30 12460 O 1205.51 -1.75337 -0.841851 0
M  V30 12461 C 1205.79 -2.50788 2.58413 0
M  V30 12462 C 1205.64 -1.98649 4.03557 0
M  V30 12463 C 1206.96 -3.52905 2.62957 0
M  V30 12464 H 1204.08 -0.494455 0.54652 0
M  V30 12465 H 1206.72 -0.678957 1.77455 0
M  V30 12466 H 1204.87 -3.09191 2.3523 0
M  V30 12467 H 1206.54 -1.44857 4.37966 0
M  V30 12468 H 1204.79 -1.29615 4.13984 0
M  V30 12469 H 1205.46 -2.81159 4.7503 0
M  V30 12470 H 1207.93 -3.0435 2.83743 0
M  V30 12471 H 1206.81 -4.30454 3.40589 0
M  V30 12472 H 1207.07 -4.0884 1.68233 0
M  V30 12473 N 1206.13 -1.32992 -0.845635 0
M  V30 12474 C 1207.06 -1.18513 -1.96182 0
M  V30 12475 C 1208.07 -0.11781 -1.62373 0
M  V30 12476 O 1209.26 -0.36761 -1.74674 0
M  V30 12477 C 1206.36 -0.793812 -3.29472 0
M  V30 12478 C 1205.54 -1.95134 -3.91461 0
M  V30 12479 C 1204.6 -1.54209 -5.03096 0
M  V30 12480 O 1203.62 -2.25545 -5.22607 0
M  V30 12481 N 1204.82 -0.443235 -5.78805 0
M  V30 12482 H 1207.59 -2.14663 -2.09141 0
M  V30 12483 H 1205.15 -1.25648 -1.02099 0
M  V30 12484 H 1207.14 -0.502263 -4.01571 0
M  V30 12485 H 1205.71 0.0768031 -3.12506 0
M  V30 12486 H 1204.93 -2.40889 -3.12035 0
M  V30 12487 H 1206.22 -2.72604 -4.2961 0
M  V30 12488 H 1205.62 0.150298 -5.655 0
M  V30 12489 H 1204.17 -0.211331 -6.51457 0
M  V30 12490 N 1207.61 1.06304 -1.1635 0
M  V30 12491 C 1208.86 1.78487 -0.939423 0
M  V30 12492 C 1209.17 1.8817 0.533998 0
M  V30 12493 O 1210.38 2.56981 0.875962 0
M  V30 12494 C 1208.83 3.20796 -1.63149 0
M  V30 12495 C 1208.44 3.19281 -3.14267 0
M  V30 12496 C 1210.18 3.97514 -1.48938 0
M  V30 12497 C 1208.09 4.56309 -3.76213 0
M  V30 12498 H 1207.02 0.668973 -0.347837 0
M  V30 12499 H 1209.67 1.19237 -1.3948 0
M  V30 12500 H 1208.05 3.80305 -1.10382 0
M  V30 12501 H 1209.23 2.69356 -3.73877 0
M  V30 12502 H 1207.54 2.56062 -3.28362 0
M  V30 12503 H 1210.14 4.98808 -1.926 0
M  V30 12504 H 1210.48 4.13986 -0.438319 0
M  V30 12505 H 1211.02 3.44528 -1.98861 0
M  V30 12506 H 1207.75 4.45042 -4.81267 0
M  V30 12507 H 1207.27 5.06429 -3.21388 0
M  V30 12508 H 1208.95 5.25266 -3.77762 0
M  V30 12509 N 1209.09 0.96196 1.24836 0
M  V30 12510 C 1210.05 0.492443 2.23847 0
M  V30 12511 C 1211.05 -0.40788 1.55541 0
M  V30 12512 O 1212.24 -0.204143 1.73 0
M  V30 12513 C 1209.37 -0.287578 3.39685 0
M  V30 12514 H 1210.56 1.36767 2.66899 0
M  V30 12515 H 1208.12 0.745967 1.3735 0
M  V30 12516 H 1208.85 -1.18015 3.02064 0
M  V30 12517 H 1208.64 0.358431 3.90458 0
M  V30 12518 H 1210.13 -0.605297 4.1319 0
M  V30 12519 N 1210.56 -1.39601 0.731392 0
M  V30 12520 C 1211.51 -2.30628 0.0890606 0
M  V30 12521 C 1212.48 -1.49025 -0.73353 0
M  V30 12522 O 1213.67 -1.77722 -0.694234 0
M  V30 12523 C 1210.81 -3.35339 -0.814956 0
M  V30 12524 C 1209.92 -4.31995 0.0198606 0
M  V30 12525 C 1209.05 -5.23774 -0.885095 0
M  V30 12526 C 1208.09 -6.12083 -0.045311 0
M  V30 12527 N 1207.23 -6.9623 -0.906002 0
M  V30 12528 H 1212.07 -2.84988 0.870958 0
M  V30 12529 H 1209.61 -1.40329 0.441166 0
M  V30 12530 H 1211.56 -3.94634 -1.3535 0
M  V30 12531 H 1210.19 -2.82443 -1.56287 0
M  V30 12532 H 1209.25 -3.74349 0.675778 0
M  V30 12533 H 1210.56 -4.94289 0.669346 0
M  V30 12534 H 1209.71 -5.88078 -1.49161 0
M  V30 12535 H 1208.45 -4.61794 -1.56837 0
M  V30 12536 H 1207.46 -5.46795 0.574028 0
M  V30 12537 H 1208.68 -6.76128 0.634692 0
M  V30 12538 H 1206.63 -6.36821 -1.57463 0
M  V30 12539 H 1206.54 -7.55352 -0.312914 0
M  V30 12540 H 1207.81 -7.64967 -1.49819 0
M  V30 12541 N 1212.04 -0.478751 -1.50152 0
M  V30 12542 C 1213.29 0.0734397 -2.01967 0
M  V30 12543 C 1213.61 1.39523 -1.36229 0
M  V30 12544 O 1212.88 1.89141 -0.510149 0
M  V30 12545 H 1211.46 0.0301305 -0.746392 0
M  V30 12546 H 1214.12 -0.630921 -1.84406 0
M  V30 12547 H 1213.22 0.21937 -3.11328 0
M  V30 12548 N 1213.52 1.56172 -0.211661 0
M  V30 12549 C 1214.45 2.15791 0.74225 0
M  V30 12550 C 1215.43 1.0994 1.198 0
M  V30 12551 O 1216.62 1.38143 1.28253 0
M  V30 12552 C 1213.74 2.73021 2.00443 0
M  V30 12553 C 1212.79 3.91611 1.68946 0
M  V30 12554 S 1213.62 5.29139 0.822949 0
M  V30 12555 C 1214.78 5.898 2.09491 0
M  V30 12556 H 1215.01 2.96366 0.235482 0
M  V30 12557 H 1212.54 1.544 0.0035357 0
M  V30 12558 H 1214.5 3.06635 2.7292 0
M  V30 12559 H 1213.16 1.92457 2.48232 0
M  V30 12560 H 1212.36 4.30122 2.62699 0
M  V30 12561 H 1211.96 3.59093 1.04539 0
M  V30 12562 H 1214.25 6.05172 3.04587 0
M  V30 12563 H 1215.19 6.86036 1.75386 0
M  V30 12564 H 1215.6 5.18546 2.23093 0
M  V30 12565 N 1215 -0.0618163 1.57479 0
M  V30 12566 C 1216.23 -0.770605 1.9169 0
M  V30 12567 C 1216.64 -1.71134 0.806841 0
M  V30 12568 O 1215.98 -1.8228 -0.228002 0
M  V30 12569 C 1216.04 -1.60962 3.21452 0
M  V30 12570 C 1215.71 -0.837193 4.49266 0
M  V30 12571 C 1216.7 -0.151964 5.19678 0
M  V30 12572 C 1214.39 -0.801414 4.95866 0
M  V30 12573 C 1216.38 0.558705 6.34947 0
M  V30 12574 C 1214.07 -0.0869788 6.11038 0
M  V30 12575 C 1215.07 0.591871 6.80431 0
M  V30 12576 O 1214.75 1.29478 7.93405 0
M  V30 12577 H 1214.49 -0.223673 0.637923 0
M  V30 12578 H 1217.04 -0.0333424 2.05373 0
M  V30 12579 H 1215.27 -2.38992 3.04006 0
M  V30 12580 H 1216.96 -2.19799 3.41238 0
M  V30 12581 H 1217.73 -0.170848 4.84699 0
M  V30 12582 H 1213.6 -1.31927 4.4172 0
M  V30 12583 H 1217.15 1.08913 6.89046 0
M  V30 12584 H 1213.05 -0.066057 6.45466 0
M  V30 12585 H 1213.81 1.20507 8.0958 0
M  V30 12586 N 1216.48 -1.54033 -0.333429 0
M  V30 12587 C 1217.71 -1.75461 -1.09073 0
M  V30 12588 C 1218.11 -0.498488 -1.82515 0
M  V30 12589 O 1217.46 0.540029 -1.75583 0
M  V30 12590 C 1217.52 -2.88744 -2.14166 0
M  V30 12591 C 1217.18 -4.27998 -1.60209 0
M  V30 12592 C 1218.18 -5.09206 -1.04907 0
M  V30 12593 C 1215.87 -4.74513 -1.6475 0
M  V30 12594 C 1217.86 -6.35035 -0.548615 0
M  V30 12595 C 1215.55 -6.00312 -1.14318 0
M  V30 12596 C 1216.54 -6.80406 -0.594667 0
M  V30 12597 O 1216.23 -8.0384 -0.097891 0
M  V30 12598 H 1215.96 -0.589586 -0.330702 0
M  V30 12599 H 1218.52 -2.01697 -0.388274 0
M  V30 12600 H 1216.75 -2.58057 -2.87999 0
M  V30 12601 H 1218.44 -2.98048 -2.7554 0
M  V30 12602 H 1219.2 -4.74428 -1.00713 0
M  V30 12603 H 1215.08 -4.12222 -2.06384 0
M  V30 12604 H 1218.63 -6.97497 -0.119823 0
M  V30 12605 H 1214.52 -6.34583 -1.18215 0
M  V30 12606 H 1215.29 -8.1822 -0.214237 0
M  V30 12607 N 1217.95 0.594978 -1.45938 0
M  V30 12608 C 1218.88 1.71536 -1.58422 0
M  V30 12609 C 1219.87 1.64441 -0.435116 0
M  V30 12610 O 1221.05 1.82647 -0.659839 0
M  V30 12611 C 1218.18 3.10163 -1.56257 0
M  V30 12612 C 1217.13 3.3208 -2.70013 0
M  V30 12613 C 1216.46 4.71108 -2.52905 0
M  V30 12614 C 1217.76 3.21105 -4.11933 0
M  V30 12615 H 1219.45 1.61344 -2.52207 0
M  V30 12616 H 1217 0.774791 -1.2138 0
M  V30 12617 H 1218.95 3.88352 -1.63587 0
M  V30 12618 H 1217.68 3.21225 -0.590093 0
M  V30 12619 H 1216.34 2.56286 -2.62132 0
M  V30 12620 H 1215.98 4.7892 -1.53768 0
M  V30 12621 H 1215.68 4.86727 -3.29197 0
M  V30 12622 H 1217.21 5.51482 -2.62107 0
M  V30 12623 H 1218.62 3.89153 -4.2099 0
M  V30 12624 H 1217.02 3.4825 -4.88715 0
M  V30 12625 H 1218.09 2.18359 -4.32952 0
M  V30 12626 N 1219.43 1.33438 0.838571 0
M  V30 12627 C 1220.34 1.25753 1.98049 0
M  V30 12628 C 1221.36 0.168051 1.73187 0
M  V30 12629 O 1222.53 0.391691 1.97554 0
M  V30 12630 C 1219.6 0.997148 3.32051 0
M  V30 12631 C 1218.66 2.17667 3.70027 0
M  V30 12632 C 1217.89 1.92861 4.97635 0
M  V30 12633 O 1218.12 0.879072 5.63585 0
M  V30 12634 O 1217.05 2.79402 5.33121 0
M  V30 12635 H 1220.88 2.21786 2.07472 0
M  V30 12636 H 1218.46 1.13488 0.971645 0
M  V30 12637 H 1220.34 0.869099 4.1234 0
M  V30 12638 H 1219.02 0.0671036 3.2363 0
M  V30 12639 H 1217.93 2.36025 2.90246 0
M  V30 12640 H 1219.26 3.09006 3.83114 0
M  V30 12641 N 1220.91 -1.05686 1.16912 0
M  V30 12642 C 1221.82 -2.16824 0.8958 0
M  V30 12643 C 1222.84 -1.73482 -0.134215 0
M  V30 12644 O 1224.01 -2.01352 0.0438776 0
M  V30 12645 C 1221.08 -3.44298 0.407427 0
M  V30 12646 C 1220.14 -4.02114 1.50342 0
M  V30 12647 C 1219.37 -5.23503 1.03826 0
M  V30 12648 O 1219.59 -5.70295 -0.109579 0
M  V30 12649 O 1218.53 -5.73432 1.8292 0
M  V30 12650 H 1222.35 -2.42725 1.82533 0
M  V30 12651 H 1219.94 -1.15339 0.949589 0
M  V30 12652 H 1221.82 -4.21159 0.142356 0
M  V30 12653 H 1220.5 -3.19908 -0.494009 0
M  V30 12654 H 1219.4 -3.26715 1.82231 0
M  V30 12655 H 1220.74 -4.30811 2.38039 0
M  V30 12656 N 1222.39 -0.968567 -1.24324 0
M  V30 12657 C 1223.34 -0.470481 -2.23093 0
M  V30 12658 C 1224.32 0.447989 -1.54538 0
M  V30 12659 O 1225.51 0.27877 -1.74791 0
M  V30 12660 C 1222.64 0.237222 -3.42479 0
M  V30 12661 C 1221.73 -0.700126 -4.18281 0
M  V30 12662 N 1222.12 -1.83775 -4.71233 0
M  V30 12663 C 1220.42 -0.51108 -4.43062 0
M  V30 12664 C 1221.12 -2.42411 -5.28783 0
M  V30 12665 N 1220.1 -1.70918 -5.16031 0
M  V30 12666 H 1223.9 -1.33848 -2.61652 0
M  V30 12667 H 1221.41 -0.827764 -1.39721 0
M  V30 12668 H 1223.41 0.61128 -4.12394 0
M  V30 12669 H 1222.07 1.10166 -3.0544 0
M  V30 12670 H 1223.08 -2.21926 -4.67942 0
M  V30 12671 H 1219.76 0.309316 -4.16353 0
M  V30 12672 H 1221.15 -3.38417 -5.80451 0
M  V30 12673 N 1223.87 1.39211 -0.738786 0
M  V30 12674 C 1225.11 2.0004 -0.28782 0
M  V30 12675 C 1225.44 1.58921 1.13 0
M  V30 12676 O 1224.71 0.839193 1.77015 0
M  V30 12677 H 1223.29 0.739805 -0.103425 0
M  V30 12678 H 1225.95 1.70202 -0.949587 0
M  V30 12679 H 1225.04 3.10251 -0.339208 0
M  V30 12680 N 1225.34 0.486708 1.49896 0
M  V30 12681 C 1226.28 -0.345627 2.25567 0
M  V30 12682 C 1227.26 -0.982794 1.29537 0
M  V30 12683 O 1228.44 -1.01569 1.58796 0
M  V30 12684 C 1225.57 -1.48555 3.04383 0
M  V30 12685 C 1224.61 -0.964196 4.15458 0
M  V30 12686 S 1225.45 0.133631 5.35333 0
M  V30 12687 C 1226.6 -1.00979 6.17701 0
M  V30 12688 H 1226.83 0.296677 2.95816 0
M  V30 12689 H 1224.37 0.271798 1.51989 0
M  V30 12690 H 1226.33 -2.13878 3.50381 0
M  V30 12691 H 1224.99 -2.09942 2.33631 0
M  V30 12692 H 1224.18 -1.81804 4.70067 0
M  V30 12693 H 1223.78 -0.388419 3.71978 0
M  V30 12694 H 1226.07 -1.91812 6.4978 0
M  V30 12695 H 1227.02 -0.502633 7.06314 0
M  V30 12696 H 1227.42 -1.27067 5.50013 0
M  V30 12697 N 1226.82 -1.56058 0.219941 0
M  V30 12698 C 1228.07 -1.98554 -0.412808 0
M  V30 12699 C 1228.4 -1.10742 -1.5953 0
M  V30 12700 O 1227.68 -0.164757 -1.93801 0
M  V30 12701 C 1227.96 -3.4995 -0.848923 0
M  V30 12702 C 1227.81 -4.48535 0.337094 0
M  V30 12703 C 1229.13 -4.05703 -1.70567 0
M  V30 12704 H 1226.25 -0.721869 -0.148576 0
M  V30 12705 H 1228.89 -1.87356 0.315852 0
M  V30 12706 H 1227.04 -3.59624 -1.46979 0
M  V30 12707 H 1228.72 -4.50874 0.975216 0
M  V30 12708 H 1226.96 -4.22474 0.984798 0
M  V30 12709 H 1227.63 -5.51999 -0.0109665 0
M  V30 12710 H 1230.11 -3.98964 -1.18182 0
M  V30 12711 H 1228.98 -5.11955 -1.97972 0
M  V30 12712 H 1229.24 -3.52487 -2.66844 0
M  V30 12713 N 1228.3 0.053464 -1.57509 0
M  V30 12714 C 1229.25 1.06886 -2.01394 0
M  V30 12715 C 1230.24 1.33441 -0.899013 0
M  V30 12716 O 1231.43 1.33435 -1.16293 0
M  V30 12717 C 1228.56 2.37731 -2.47667 0
M  V30 12718 C 1227.64 2.14371 -3.65931 0
M  V30 12719 N 1228.03 1.60994 -4.79494 0
M  V30 12720 C 1226.33 2.44766 -3.72835 0
M  V30 12721 C 1227.03 1.52875 -5.61252 0
M  V30 12722 N 1226.01 1.99576 -5.05638 0
M  V30 12723 H 1229.81 0.649779 -2.86627 0
M  V30 12724 H 1227.32 0.260224 -1.60302 0
M  V30 12725 H 1229.32 3.11256 -2.77354 0
M  V30 12726 H 1227.98 2.80339 -1.63829 0
M  V30 12727 H 1228.99 1.296 -5.01422 0
M  V30 12728 H 1225.67 2.90616 -2.99748 0
M  V30 12729 H 1227.06 1.12303 -6.62448 0
M  V30 12730 N 1229.78 1.54207 0.325255 0
M  V30 12731 C 1231.2 1.44879 0.669492 0
M  V30 12732 C 1231.4 0.620298 1.91715 0
M  V30 12733 O 1230.45 0.118435 2.52222 0
M  V30 12734 C 1231.76 2.88581 0.845077 0
M  V30 12735 C 1233.31 2.98472 0.942527 0
M  V30 12736 C 1233.79 4.4332 1.15029 0
M  V30 12737 N 1235.28 4.46925 1.21707 0
M  V30 12738 C 1236.01 5.56155 1.39568 0
M  V30 12739 N 1235.51 6.75357 1.54483 0
M  V30 12740 N 1237.3 5.43799 1.42263 0
M  V30 12741 H 1229.45 2.06556 -0.494819 0
M  V30 12742 H 1231.72 0.934474 -0.159568 0
M  V30 12743 H 1231.42 3.517 -0.000442996 0
M  V30 12744 H 1231.3 3.34596 1.74141 0
M  V30 12745 H 1233.68 2.35481 1.77855 0
M  V30 12746 H 1233.76 2.5579 0.0226995 0
M  V30 12747 H 1233.41 5.06896 0.319127 0
M  V30 12748 H 1233.34 4.8361 2.08397 0
M  V30 12749 H 1235.83 3.61036 1.11632 0
M  V30 12750 H 1236.14 7.54363 1.67799 0
M  V30 12751 H 1234.49 6.78268 1.51584 0
M  V30 12752 H 1237.68 4.49627 1.30205 0
M  V30 12753 H 1237.85 6.28982 1.5584 0
M  V30 12754 N 1231.26 -0.58723 1.46251 0
M  V30 12755 C 1232.21 -1.71771 1.56836 0
M  V30 12756 C 1233.2 -1.63664 0.437096 0
M  V30 12757 O 1234.41 -1.69212 0.613797 0
M  V30 12758 H 1230.78 -0.567841 0.493012 0
M  V30 12759 H 1232.75 -1.59974 2.51895 0
M  V30 12760 C 1231.5 -3.10159 1.57152 0
M  V30 12761 H 1230.82 -3.17066 2.43535 0
M  V30 12762 H 1232.26 -3.89032 1.68613 0
M  V30 12763 C 1230.72 -3.35567 0.299374 0
M  V30 12764 O 1231.25 -3.97006 -0.612291 0
M  V30 12765 N 1229.46 -2.89987 0.188695 0
M  V30 12766 H 1229.01 -2.4017 0.93147 0
M  V30 12767 H 1228.96 -3.0736 -0.661612 0
M  V30 12768 N 1232.74 -1.33881 -0.831482 0
M  V30 12769 C 1233.67 -1.27384 -1.95693 0
M  V30 12770 C 1234.65 -0.152943 -1.69411 0
M  V30 12771 O 1235.83 -0.34392 -1.9113 0
M  V30 12772 C 1232.96 -1.01982 -3.31989 0
M  V30 12773 C 1231.92 -2.10445 -3.72689 0
M  V30 12774 C 1231.24 -1.70245 -5.06873 0
M  V30 12775 C 1232.54 -3.52194 -3.8569 0
M  V30 12776 H 1234.24 -2.21549 -2.01386 0
M  V30 12777 H 1231.78 -1.06653 -0.967526 0
M  V30 12778 H 1233.73 -0.960841 -4.103 0
M  V30 12779 H 1232.46 -0.0425709 -3.26572 0
M  V30 12780 H 1231.12 -2.15398 -2.96647 0
M  V30 12781 H 1230.77 -0.712036 -4.97935 0
M  V30 12782 H 1230.47 -2.42834 -5.35075 0
M  V30 12783 H 1231.99 -1.65827 -5.87651 0
M  V30 12784 H 1233.4 -3.49701 -4.54293 0
M  V30 12785 H 1231.8 -4.23331 -4.25336 0
M  V30 12786 H 1232.87 -3.9016 -2.87929 0
M  V30 12787 N 1234.21 1.05064 -1.1747 0
M  V30 12788 C 1235.18 2.1101 -0.89485 0
M  V30 12789 C 1236.18 1.60384 0.11553 0
M  V30 12790 O 1237.37 1.73808 -0.116785 0
M  V30 12791 C 1234.5 3.39194 -0.340642 0
M  V30 12792 H 1235.69 2.37269 -1.83421 0
M  V30 12793 H 1233.24 1.21329 -0.985343 0
M  V30 12794 H 1233.98 3.18591 0.605808 0
M  V30 12795 H 1233.76 3.77251 -1.06885 0
M  V30 12796 H 1235.25 4.17281 -0.163204 0
M  V30 12797 N 1235.69 0.975146 1.23809 0
M  V30 12798 C 1236.65 0.516157 2.23312 0
M  V30 12799 C 1237.65 -0.39136 1.55965 0
M  V30 12800 O 1238.84 -0.185783 1.73206 0
M  V30 12801 C 1235.98 -0.251534 3.39971 0
M  V30 12802 H 1237.17 1.3959 2.65433 0
M  V30 12803 H 1234.72 0.760493 1.36551 0
M  V30 12804 H 1235.46 -1.14805 3.03299 0
M  V30 12805 H 1235.24 0.399825 3.90056 0
M  V30 12806 H 1236.73 -0.561438 4.13809 0
M  V30 12807 N 1237.17 -1.38817 0.746158 0
M  V30 12808 C 1238.59 -1.53894 0.42294 0
M  V30 12809 C 1238.79 -1.71064 -1.06486 0
M  V30 12810 O 1237.84 -1.71744 -1.85095 0
M  V30 12811 C 1239.15 -2.75029 1.2157 0
M  V30 12812 C 1240.7 -2.88873 1.20504 0
M  V30 12813 C 1241.18 -4.1296 1.9806 0
M  V30 12814 N 1242.67 -4.20022 1.95283 0
M  V30 12815 C 1243.4 -5.15011 2.52093 0
M  V30 12816 N 1242.9 -6.1572 3.17586 0
M  V30 12817 N 1244.69 -5.07308 2.42064 0
M  V30 12818 H 1236.84 -1.25921 1.71049 0
M  V30 12819 H 1239.11 -0.611148 0.724708 0
M  V30 12820 H 1238.81 -2.68722 2.26895 0
M  V30 12821 H 1238.69 -3.68009 0.827593 0
M  V30 12822 H 1241.07 -2.94667 0.159877 0
M  V30 12823 H 1241.15 -1.96925 1.63261 0
M  V30 12824 H 1240.8 -4.07929 3.02583 0
M  V30 12825 H 1240.73 -5.03974 1.52702 0
M  V30 12826 H 1243.22 -3.47892 1.4758 0
M  V30 12827 H 1243.53 -6.84682 3.58373 0
M  V30 12828 H 1241.88 -6.16075 3.21678 0
M  V30 12829 H 1245.07 -4.27569 1.90532 0
M  V30 12830 H 1245.24 -5.81158 2.86635 0
M  V30 12831 N 1238.65 -0.49465 -1.49636 0
M  V30 12832 C 1239.6 0.300929 -2.30645 0
M  V30 12833 C 1240.59 0.968687 -1.38971 0
M  V30 12834 O 1241.8 0.897101 -1.56052 0
M  V30 12835 H 1238.17 0.1159 -0.743015 0
M  V30 12836 H 1240.14 -0.402387 -2.95674 0
M  V30 12837 C 1238.89 1.35638 -3.20153 0
M  V30 12838 H 1238.21 0.851946 -3.90617 0
M  V30 12839 H 1239.65 1.88515 -3.79787 0
M  V30 12840 C 1238.11 2.37112 -2.39331 0
M  V30 12841 O 1238.64 3.42867 -2.09298 0
M  V30 12842 N 1236.85 2.09421 -2.01473 0
M  V30 12843 H 1236.4 1.23441 -2.26097 0
M  V30 12844 H 1236.35 2.77545 -1.47703 0
M  V30 12845 N 1240.13 1.55939 -0.228214 0
M  V30 12846 C 1241.37 1.9877 0.402272 0
M  V30 12847 C 1241.7 1.11587 1.5894 0
M  V30 12848 O 1240.98 0.175032 1.93711 0
M  V30 12849 C 1241.26 3.50396 0.830353 0
M  V30 12850 C 1241.12 4.4835 -0.360876 0
M  V30 12851 C 1242.43 4.06602 1.68413 0
M  V30 12852 H 1239.55 0.722646 0.144746 0
M  V30 12853 H 1242.2 1.87186 -0.325784 0
M  V30 12854 H 1240.35 3.60398 1.4507 0
M  V30 12855 H 1242.02 4.5035 -0.999113 0
M  V30 12856 H 1240.26 4.21946 -1.00719 0
M  V30 12857 H 1240.93 5.51997 -0.0183074 0
M  V30 12858 H 1243.41 3.99585 1.16064 0
M  V30 12859 H 1242.28 5.12998 1.95254 0
M  V30 12860 H 1242.54 3.53897 2.64971 0
M  V30 12861 N 1241.6 -0.0451101 1.57535 0
M  V30 12862 C 1242.53 -1.05046 2.08537 0
M  V30 12863 C 1243.52 -1.3872 0.984418 0
M  V30 12864 O 1244.7 -1.47884 1.25873 0
M  V30 12865 C 1241.83 -2.3562 2.55148 0
M  V30 12866 C 1240.78 -2.16231 3.69362 0
M  V30 12867 C 1240.11 -3.52423 4.02122 0
M  V30 12868 C 1241.41 -1.56159 4.98409 0
M  V30 12869 H 1243.1 -0.625965 2.92783 0
M  V30 12870 H 1240.65 -0.299657 1.40848 0
M  V30 12871 H 1242.6 -3.06266 2.89446 0
M  V30 12872 H 1241.33 -2.80099 1.67964 0
M  V30 12873 H 1239.99 -1.4802 3.35389 0
M  V30 12874 H 1239.63 -3.94522 3.12028 0
M  V30 12875 H 1239.33 -3.4028 4.79044 0
M  V30 12876 H 1240.86 -4.24458 4.38939 0
M  V30 12877 H 1242.27 -2.16703 5.30766 0
M  V30 12878 H 1240.67 -1.54638 5.79834 0
M  V30 12879 H 1241.74 -0.525698 4.82042 0
M  V30 12880 N 1243.08 -1.54377 -0.317073 0
M  V30 12881 C 1244.01 -1.8721 -1.39552 0
M  V30 12882 C 1244.99 -0.729483 -1.53664 0
M  V30 12883 O 1246.18 -0.983799 -1.67437 0
M  V30 12884 C 1243.31 -2.1052 -2.76222 0
M  V30 12885 C 1242.26 -3.26366 -2.76892 0
M  V30 12886 C 1241.59 -3.35061 -4.16699 0
M  V30 12887 C 1242.89 -4.63862 -2.40061 0
M  V30 12888 H 1244.58 -2.77532 -1.12323 0
M  V30 12889 H 1242.13 -1.33536 -0.538897 0
M  V30 12890 H 1244.08 -2.32073 -3.51739 0
M  V30 12891 H 1242.81 -1.16953 -3.04942 0
M  V30 12892 H 1241.46 -3.0471 -2.03831 0
M  V30 12893 H 1241.11 -2.39041 -4.4257 0
M  V30 12894 H 1240.81 -4.12923 -4.18053 0
M  V30 12895 H 1242.34 -3.58856 -4.94019 0
M  V30 12896 H 1243.75 -4.85252 -3.05292 0
M  V30 12897 H 1242.15 -5.44321 -2.52655 0
M  V30 12898 H 1243.22 -4.6567 -1.35202 0
M  V30 12899 N 1244.56 0.579466 -1.4656 0
M  V30 12900 C 1245.51 1.68829 -1.5737 0
M  V30 12901 C 1246.48 1.60759 -0.417825 0
M  V30 12902 O 1247.66 1.79923 -0.635001 0
M  V30 12903 C 1244.8 3.07166 -1.573 0
M  V30 12904 C 1243.92 3.25837 -2.83645 0
M  V30 12905 C 1243.05 4.54441 -2.75057 0
M  V30 12906 C 1242.09 4.66467 -3.96327 0
M  V30 12907 N 1241.23 5.86401 -3.86107 0
M  V30 12908 H 1246.07 1.58928 -2.52083 0
M  V30 12909 H 1243.6 0.774526 -1.25058 0
M  V30 12910 H 1245.56 3.8724 -1.55245 0
M  V30 12911 H 1244.19 3.15956 -0.661166 0
M  V30 12912 H 1243.24 2.39345 -2.95666 0
M  V30 12913 H 1244.56 3.30591 -3.73512 0
M  V30 12914 H 1243.71 5.42748 -2.71126 0
M  V30 12915 H 1242.45 4.52131 -1.82836 0
M  V30 12916 H 1241.45 3.76577 -4.00587 0
M  V30 12917 H 1242.68 4.70554 -4.89649 0
M  V30 12918 H 1240.62 5.85082 -2.96673 0
M  V30 12919 H 1240.54 5.92437 -4.69632 0
M  V30 12920 H 1241.81 6.7713 -3.86155 0
M  V30 12921 N 1246.04 1.3432 0.824371 0
M  V30 12922 C 1247.26 1.2982 1.61745 0
M  V30 12923 C 1247.69 -0.125298 1.87682 0
M  V30 12924 O 1247.05 -1.08658 1.45131 0
M  V30 12925 C 1247.09 2.09327 2.93623 0
M  V30 12926 O 1246.2 1.4618 3.85623 0
M  V30 12927 H 1245.54 0.445929 0.491979 0
M  V30 12928 H 1248.07 1.77101 1.02452 0
M  V30 12929 H 1248.08 2.20629 3.43201 0
M  V30 12930 H 1246.75 3.12825 2.74069 0
M  V30 12931 H 1245.33 1.43611 3.44137 0
M  V30 12932 N 1247.52 -1.0444 1.18026 0
M  V30 12933 C 1248.93 -1.5903 0.978076 0
M  V30 12934 C 1249.28 -1.90407 -0.473241 0
M  V30 12935 O 1248.4 -1.69133 -1.34992 0
M  V30 12936 C 1249 -2.88942 1.76912 0
M  V30 12937 C 1247.56 -3.40164 1.61139 0
M  V30 12938 C 1246.7 -2.13797 1.76596 0
M  V30 12939 H 1249.66 -0.871574 1.32625 0
M  V30 12940 H 1249.68 -3.59173 1.25598 0
M  V30 12941 H 1249.19 -2.66074 2.82535 0
M  V30 12942 H 1247.29 -3.68053 0.580353 0
M  V30 12943 H 1247.4 -4.14241 2.40709 0
M  V30 12944 H 1245.77 -2.24922 1.19507 0
M  V30 12945 H 1246.55 -1.93389 2.83647 0
M  V30 12946 N 1248.99 -0.981699 -1.2329 0
M  V30 12947 C 1250.22 -0.669025 -1.96313 0
M  V30 12948 C 1250.64 0.757624 -1.72168 0
M  V30 12949 O 1250 1.51626 -0.993942 0
M  V30 12950 C 1250.05 -0.966875 -3.47396 0
M  V30 12951 O 1249.15 -0.0595933 -4.12357 0
M  V30 12952 H 1248.5 -0.251493 -0.61453 0
M  V30 12953 H 1251.03 -1.31564 -1.56691 0
M  V30 12954 H 1251.04 -0.904112 -3.97857 0
M  V30 12955 H 1249.71 -2.00651 -3.64296 0
M  V30 12956 H 1248.29 -0.176878 -3.7248 0
M  V30 12957 N 1250.47 1.3842 -0.753509 0
M  V30 12958 C 1251.4 2.29039 -0.0859463 0
M  V30 12959 C 1252.42 1.47742 0.68383 0
M  V30 12960 O 1253.61 1.70607 0.524933 0
M  V30 12961 C 1250.71 3.26668 0.902296 0
M  V30 12962 C 1249.88 4.36986 0.190178 0
M  V30 12963 C 1248.94 5.14805 1.08916 0
M  V30 12964 O 1247.96 5.66441 0.559715 0
M  V30 12965 N 1249.17 5.27777 2.41726 0
M  V30 12966 H 1251.93 2.8697 -0.864196 0
M  V30 12967 H 1249.49 1.502 -0.604288 0
M  V30 12968 H 1251.48 3.75606 1.50672 0
M  V30 12969 H 1250.05 2.69636 1.58163 0
M  V30 12970 H 1249.27 3.89684 -0.594959 0
M  V30 12971 H 1250.56 5.07899 -0.302594 0
M  V30 12972 H 1249.96 4.87376 2.87196 0
M  V30 12973 H 1248.52 5.8009 2.97219 0
M  V30 12974 N 1251.95 0.502579 1.49372 0
M  V30 12975 C 1253.2 -0.0414423 2.02758 0
M  V30 12976 C 1253.53 -1.36499 1.38136 0
M  V30 12977 O 1252.8 -1.87487 0.517593 0
M  V30 12978 C 1253.09 -0.192333 3.59586 0
M  V30 12979 C 1252.94 1.15445 4.34733 0
M  V30 12980 C 1254.26 -0.932218 4.30114 0
M  V30 12981 H 1251.38 -0.0135869 0.736875 0
M  V30 12982 H 1254.02 0.654296 1.78379 0
M  V30 12983 H 1252.17 -0.78491 3.80488 0
M  V30 12984 H 1253.84 1.78603 4.25322 0
M  V30 12985 H 1252.09 1.74333 3.97228 0
M  V30 12986 H 1252.76 1.00216 5.42827 0
M  V30 12987 H 1255.23 -0.429632 4.13876 0
M  V30 12988 H 1254.11 -1.00664 5.39591 0
M  V30 12989 H 1254.37 -1.9763 3.95468 0
M  V30 12990 N 1253.43 -1.55816 0.23648 0
M  V30 12991 C 1254.36 -2.18248 -0.700024 0
M  V30 12992 C 1255.37 -1.15579 -1.14654 0
M  V30 12993 O 1256.56 -1.42491 -1.07511 0
M  V30 12994 C 1253.66 -2.76338 -1.9619 0
M  V30 12995 C 1252.84 -4.04325 -1.66853 0
M  V30 12996 C 1251.89 -4.46834 -2.77895 0
M  V30 12997 O 1250.92 -5.13427 -2.45725 0
M  V30 12998 N 1252.12 -4.13753 -4.07171 0
M  V30 12999 H 1254.89 -2.99241 -0.16589 0
M  V30 13000 H 1252.45 -1.61803 0.0560383 0
M  V30 13001 H 1254.44 -3.01739 -2.69695 0
M  V30 13002 H 1253.01 -1.99563 -2.4061 0
M  V30 13003 H 1252.23 -3.86623 -0.769164 0
M  V30 13004 H 1253.52 -4.8779 -1.44703 0
M  V30 13005 H 1252.92 -3.60271 -4.36144 0
M  V30 13006 H 1251.47 -4.44014 -4.77174 0
M  V30 13007 N 1254.91 0.036755 -1.57557 0
M  V30 13008 C 1256.15 0.730186 -1.89199 0
M  V30 13009 C 1256.49 1.75414 -0.833271 0
M  V30 13010 O 1255.76 1.93901 0.152579 0
M  V30 13011 C 1256.04 1.40669 -3.31488 0
M  V30 13012 C 1255.9 0.396764 -4.48047 0
M  V30 13013 C 1257.22 2.34268 -3.72567 0
M  V30 13014 H 1254.33 0.263983 -0.6881 0
M  V30 13015 H 1256.98 -0.0069847 -1.89999 0
M  V30 13016 H 1255.13 2.03502 -3.30937 0
M  V30 13017 H 1256.8 -0.229062 -4.60731 0
M  V30 13018 H 1255.04 -0.284698 -4.32865 0
M  V30 13019 H 1255.71 0.908436 -5.44474 0
M  V30 13020 H 1258.19 1.81485 -3.74436 0
M  V30 13021 H 1257.06 2.78587 -4.72949 0
M  V30 13022 H 1257.33 3.20611 -3.04403 0
M  V30 13023 N 1256.39 1.54543 0.308881 0
M  V30 13024 C 1257.35 1.84214 1.36374 0
M  V30 13025 C 1258.35 0.71463 1.44047 0
M  V30 13026 O 1259.54 0.98293 1.4382 0
M  V30 13027 C 1256.67 2.01535 2.74948 0
M  V30 13028 H 1257.86 2.78477 1.11314 0
M  V30 13029 H 1255.42 1.46485 0.545141 0
M  V30 13030 H 1256.15 1.09533 3.05242 0
M  V30 13031 H 1255.94 2.83595 2.7077 0
M  V30 13032 H 1257.43 2.25888 3.51233 0
M  V30 13033 N 1257.86 -0.571685 1.46866 0
M  V30 13034 C 1259.14 -1.33216 1.43223 0
M  V30 13035 C 1259.52 -2.1075 0.121495 0
M  V30 13036 O 1258.87 -2.10157 -0.897003 0
M  V30 13037 C 1259.08 -2.24888 2.66882 0
M  V30 13038 C 1260.43 -2.86369 3.13493 0
M  V30 13039 O 1261.45 -2.35197 2.67509 0
M  V30 13040 O 1260.31 -3.79342 3.93398 0
M  V30 13041 H 1257.4 -0.599106 0.570089 0
M  V30 13042 H 1259.95 -0.591788 1.59047 0
M  V30 13043 H 1258.72 -1.67099 3.53827 0
M  V30 13044 H 1258.34 -3.06246 2.53573 0
M  V30 13045 N 1259.34 -1.34755 -0.817236 0
M  V30 13046 C 1260.59 -1.27432 -1.57377 0
M  V30 13047 C 1260.92 0.15419 -1.93888 0
M  V30 13048 O 1260.17 1.11686 -1.60701 0
M  V30 13049 C 1260.47 -2.11611 -2.8802 0
M  V30 13050 C 1260.14 -3.60543 -2.70776 0
M  V30 13051 C 1258.8 -4.01141 -2.6578 0
M  V30 13052 C 1261.15 -4.55089 -2.54053 0
M  V30 13053 C 1258.48 -5.34469 -2.41991 0
M  V30 13054 C 1260.83 -5.88603 -2.31795 0
M  V30 13055 C 1259.49 -6.28358 -2.25215 0
M  V30 13056 H 1258.76 -0.466305 -0.575882 0
M  V30 13057 H 1261.41 -1.66552 -0.945128 0
M  V30 13058 H 1259.72 -1.65336 -3.55206 0
M  V30 13059 H 1261.41 -2.03287 -3.45652 0
M  V30 13060 H 1258 -3.2832 -2.75506 0
M  V30 13061 H 1262.19 -4.24617 -2.56932 0
M  V30 13062 H 1257.44 -5.64284 -2.35359 0
M  V30 13063 H 1261.62 -6.61451 -2.17844 0
M  V30 13064 H 1259.24 -7.31604 -2.06543 0
M  V30 13065 N 1260.82 1.03812 -1.18578 0
M  V30 13066 C 1262.07 1.76706 -0.980776 0
M  V30 13067 C 1262.39 1.88729 0.490562 0
M  V30 13068 O 1261.66 1.41413 1.35569 0
M  V30 13069 H 1260.24 0.654586 -0.359898 0
M  V30 13070 H 1262.9 1.25274 -1.49306 0
M  V30 13071 H 1262 2.77876 -1.42096 0
M  V30 13072 N 1262.3 0.988223 1.22768 0
M  V30 13073 C 1263.54 0.662441 1.91676 0
M  V30 13074 C 1263.88 -0.802931 1.76824 0
M  V30 13075 O 1263.15 -1.58011 1.13415 0
M  V30 13076 C 1263.43 1.06332 3.44043 0
M  V30 13077 C 1263.29 2.5869 3.67967 0
M  V30 13078 C 1264.61 0.613058 4.35809 0
M  V30 13079 H 1261.73 0.242132 0.69609 0
M  V30 13080 H 1264.37 1.23091 1.44736 0
M  V30 13081 H 1262.52 0.579623 3.84152 0
M  V30 13082 H 1264.19 3.14694 3.37291 0
M  V30 13083 H 1262.43 3.00971 3.12408 0
M  V30 13084 H 1263.1 2.8179 4.74656 0
M  V30 13085 H 1265.58 1.02846 4.0319 0
M  V30 13086 H 1264.46 0.921901 5.41103 0
M  V30 13087 H 1264.72 -0.48641 4.39416 0
M  V30 13088 N 1263.78 -1.38018 0.760839 0
M  V30 13089 C 1264.74 -2.28734 0.146154 0
M  V30 13090 C 1265.74 -1.47525 -0.639768 0
M  V30 13091 O 1266.93 -1.6788 -0.464964 0
M  V30 13092 C 1264.06 -3.31356 -0.801019 0
M  V30 13093 H 1265.25 -2.84599 0.945692 0
M  V30 13094 H 1262.81 -1.471 0.528323 0
M  V30 13095 H 1263.54 -2.80594 -1.62597 0
M  V30 13096 H 1263.33 -3.91366 -0.239775 0
M  V30 13097 H 1264.82 -3.99171 -1.22687 0
M  V30 13098 N 1265.25 -0.510493 -1.49103 0
M  V30 13099 C 1266.53 0.0941122 -1.95373 0
M  V30 13100 C 1266.91 1.53207 -1.45227 0
M  V30 13101 O 1266.26 2.18452 -0.670161 0
M  V30 13102 C 1266.47 -0.00302507 -3.49 0
M  V30 13103 C 1267.82 0.166117 -4.24275 0
M  V30 13104 O 1268.84 0.0717097 -3.56128 0
M  V30 13105 O 1267.7 0.361155 -5.45305 0
M  V30 13106 H 1264.79 0.0900741 -0.82208 0
M  V30 13107 H 1267.34 -0.573707 -1.59708 0
M  V30 13108 H 1266.11 -1.00545 -3.78162 0
M  V30 13109 H 1265.73 0.704518 -3.91308 0
M  V30 13110 N 1266.73 1.55688 -0.24474 0
M  V30 13111 C 1267.66 2.24272 0.64995 0
M  V30 13112 C 1268.64 1.22226 1.183 0
M  V30 13113 O 1269.83 1.50873 1.22274 0
M  V30 13114 C 1266.96 2.94053 1.84798 0
M  V30 13115 C 1265.91 4.02769 1.44779 0
M  V30 13116 C 1265.24 4.59965 2.72647 0
M  V30 13117 C 1266.54 5.18601 0.62047 0
M  V30 13118 H 1268.23 2.99298 0.0780654 0
M  V30 13119 H 1265.78 1.43955 0.0361069 0
M  V30 13120 H 1267.73 3.40732 2.47951 0
M  V30 13121 H 1266.45 2.16511 2.44521 0
M  V30 13122 H 1265.11 3.56856 0.839609 0
M  V30 13123 H 1264.76 3.79126 3.30564 0
M  V30 13124 H 1264.46 5.33352 2.46596 0
M  V30 13125 H 1265.99 5.09376 3.36703 0
M  V30 13126 H 1267.4 5.61519 1.15625 0
M  V30 13127 H 1265.8 5.98364 0.456097 0
M  V30 13128 H 1266.87 4.83503 -0.367798 0
M  V30 13129 N 1268.21 -0.0283989 1.57574 0
M  V30 13130 C 1269.14 -1.02828 2.09639 0
M  V30 13131 C 1270.12 -1.37668 0.999076 0
M  V30 13132 O 1271.31 -1.4654 1.27435 0
M  V30 13133 C 1268.44 -2.329 2.57633 0
M  V30 13134 C 1267.39 -2.12301 3.71635 0
M  V30 13135 C 1266.72 -3.48138 4.05837 0
M  V30 13136 C 1268.02 -1.50864 5.00037 0
M  V30 13137 H 1269.71 -0.594876 2.93431 0
M  V30 13138 H 1267.26 -0.284701 1.41158 0
M  V30 13139 H 1269.21 -3.03179 2.92678 0
M  V30 13140 H 1267.93 -2.78302 1.70926 0
M  V30 13141 H 1266.59 -1.44454 3.3694 0
M  V30 13142 H 1266.24 -3.9119 3.16195 0
M  V30 13143 H 1265.94 -3.3518 4.82626 0
M  V30 13144 H 1267.46 -4.19779 4.43417 0
M  V30 13145 H 1268.88 -2.11062 5.33035 0
M  V30 13146 H 1267.27 -1.48479 5.81441 0
M  V30 13147 H 1268.34 -0.474541 4.82572 0
M  V30 13148 N 1269.69 -1.54705 -0.300681 0
M  V30 13149 C 1271.1 -1.64998 -0.873654 0
M  V30 13150 C 1271.45 -0.558842 -1.88073 0
M  V30 13151 O 1270.57 0.304474 -2.14247 0
M  V30 13152 C 1271.17 -2.99099 -1.59138 0
M  V30 13153 C 1269.73 -3.11512 -2.11276 0
M  V30 13154 C 1268.88 -2.60681 -0.945551 0
M  V30 13155 H 1271.83 -1.5851 -0.0776752 0
M  V30 13156 H 1271.85 -2.9054 -2.45696 0
M  V30 13157 H 1271.36 -3.78493 -0.858172 0
M  V30 13158 H 1269.46 -2.36838 -2.87643 0
M  V30 13159 H 1269.57 -4.17672 -2.34707 0
M  V30 13160 H 1267.94 -2.17143 -1.33121 0
M  V30 13161 H 1268.72 -3.42553 -0.226291 0
M  V30 13162 N 1271.17 0.563888 -1.47167 0
M  V30 13163 C 1272.58 1.14603 -1.47388 0
M  V30 13164 C 1272.93 1.94907 -0.224916 0
M  V30 13165 O 1272.05 2.05745 0.670672 0
M  V30 13166 C 1272.65 2.08501 -2.67044 0
M  V30 13167 C 1271.21 2.62 -2.70246 0
M  V30 13168 C 1270.35 1.38244 -2.40383 0
M  V30 13169 H 1273.31 0.350833 -1.54774 0
M  V30 13170 H 1273.33 2.92272 -2.43634 0
M  V30 13171 H 1272.84 1.50027 -3.57929 0
M  V30 13172 H 1270.94 3.24292 -1.83482 0
M  V30 13173 H 1271.05 3.0345 -3.70749 0
M  V30 13174 H 1269.42 1.68692 -1.90827 0
M  V30 13175 H 1270.2 0.815726 -3.33468 0
M  V30 13176 N 1272.64 1.35187 0.810078 0
M  V30 13177 C 1273.92 1.18832 1.55365 0
M  V30 13178 C 1274.3 -0.233956 2.098 0
M  V30 13179 O 1273.65 -1.23701 1.92121 0
M  V30 13180 C 1273.86 2.25351 2.66492 0
M  V30 13181 C 1275.21 2.60981 3.34924 0
M  V30 13182 O 1276.23 2.24238 2.7676 0
M  V30 13183 O 1275.09 3.24147 4.3999 0
M  V30 13184 H 1272.18 0.461446 0.686292 0
M  V30 13185 H 1274.73 1.46858 0.850341 0
M  V30 13186 H 1273.5 3.20762 2.24115 0
M  V30 13187 H 1273.13 1.98575 3.44462 0
M  V30 13188 N 1274.12 -1.03182 1.19127 0
M  V30 13189 C 1275.4 -1.73586 0.901507 0
M  V30 13190 C 1275.78 -2.02585 -0.593521 0
M  V30 13191 O 1275.13 -1.67813 -1.55084 0
M  V30 13192 C 1275.34 -3.01472 1.75829 0
M  V30 13193 C 1276.69 -3.75037 1.99078 0
M  V30 13194 O 1277.71 -3.11392 1.72956 0
M  V30 13195 O 1276.57 -4.8945 2.43108 0
M  V30 13196 H 1273.66 -0.755797 0.335708 0
M  V30 13197 H 1276.21 -1.09167 1.29925 0
M  V30 13198 H 1274.98 -2.76247 2.77134 0
M  V30 13199 H 1274.6 -3.73631 1.35963 0
M  V30 13200 N 1275.6 -0.99472 -1.22242 0
M  V30 13201 C 1276.55 -0.546504 -2.24236 0
M  V30 13202 C 1277.52 0.422101 -1.60647 0
M  V30 13203 O 1278.7 0.326452 -1.87987 0
M  V30 13204 C 1275.84 0.130909 -3.44852 0
M  V30 13205 C 1274.96 -0.879653 -4.22949 0
M  V30 13206 C 1274.09 -0.175569 -5.3091 0
M  V30 13207 C 1273.13 -1.17438 -6.00729 0
M  V30 13208 N 1272.27 -0.498474 -7.00328 0
M  V30 13209 H 1277.11 -1.42099 -2.61939 0
M  V30 13210 H 1274.64 -0.711755 -1.28734 0
M  V30 13211 H 1276.6 0.540596 -4.13683 0
M  V30 13212 H 1275.23 0.96917 -3.07907 0
M  V30 13213 H 1274.28 -1.40765 -3.53397 0
M  V30 13214 H 1275.6 -1.64017 -4.71062 0
M  V30 13215 H 1274.75 0.290756 -6.06003 0
M  V30 13216 H 1273.49 0.617438 -4.83776 0
M  V30 13217 H 1272.49 -1.65131 -5.24416 0
M  V30 13218 H 1273.72 -1.96829 -6.4995 0
M  V30 13219 H 1271.66 0.275063 -6.55423 0
M  V30 13220 H 1271.58 -1.19741 -7.46457 0
M  V30 13221 H 1272.85 -0.0550119 -7.79481 0
M  V30 13222 N 1277.08 1.37613 -0.768148 0
M  V30 13223 C 1278.01 2.28935 -0.110234 0
M  V30 13224 C 1279.02 1.48459 0.668122 0
M  V30 13225 O 1280.21 1.71154 0.506808 0
M  V30 13226 C 1277.31 3.27606 0.867598 0
M  V30 13227 C 1276.49 4.37163 0.143819 0
M  V30 13228 C 1275.54 5.15931 1.03449 0
M  V30 13229 O 1274.57 5.67003 0.499605 0
M  V30 13230 N 1275.77 5.30311 2.36114 0
M  V30 13231 H 1278.54 2.86037 -0.894585 0
M  V30 13232 H 1276.1 1.4955 -0.620185 0
M  V30 13233 H 1278.09 3.77183 1.4668 0
M  V30 13234 H 1276.66 2.71298 1.55294 0
M  V30 13235 H 1275.88 3.89031 -0.636257 0
M  V30 13236 H 1277.17 5.0755 -0.356446 0
M  V30 13237 H 1276.57 4.90394 2.82011 0
M  V30 13238 H 1275.12 5.83209 2.9105 0
M  V30 13239 N 1278.56 0.518393 1.4883 0
M  V30 13240 C 1279.49 -0.239685 2.32267 0
M  V30 13241 C 1280.47 -0.94613 1.41359 0
M  V30 13242 O 1281.65 -0.934162 1.70256 0
M  V30 13243 C 1278.78 -1.29411 3.22289 0
M  V30 13244 C 1277.74 -0.706504 4.22129 0
M  V30 13245 C 1277.06 -1.86273 5.01205 0
M  V30 13246 C 1278.36 0.314079 5.21355 0
M  V30 13247 H 1280.06 0.4568 2.95895 0
M  V30 13248 H 1277.6 0.221126 1.42292 0
M  V30 13249 H 1279.56 -1.8323 3.7948 0
M  V30 13250 H 1278.28 -2.02001 2.56638 0
M  V30 13251 H 1276.94 -0.189924 3.66108 0
M  V30 13252 H 1276.59 -2.57674 4.31988 0
M  V30 13253 H 1276.29 -1.47554 5.68772 0
M  V30 13254 H 1277.81 -2.40492 5.61245 0
M  V30 13255 H 1279.22 -0.136604 5.73137 0
M  V30 13256 H 1277.62 0.618026 5.96909 0
M  V30 13257 H 1278.69 1.22394 4.69199 0
M  V30 13258 N 1280.03 -1.55556 0.252993 0
M  V30 13259 C 1280.96 -2.24613 -0.638047 0
M  V30 13260 C 1281.95 -1.22852 -1.1765 0
M  V30 13261 O 1283.13 -1.51519 -1.21472 0
M  V30 13262 C 1280.26 -2.95029 -1.83236 0
M  V30 13263 C 1279.21 -4.03531 -1.42641 0
M  V30 13264 C 1278.54 -4.61404 -2.70204 0
M  V30 13265 C 1279.84 -5.18923 -0.592958 0
M  V30 13266 H 1281.53 -2.99335 -0.0621918 0
M  V30 13267 H 1279.08 -1.43972 -0.0284722 0
M  V30 13268 H 1281.03 -3.42042 -2.46141 0
M  V30 13269 H 1279.76 -2.17805 -2.43369 0
M  V30 13270 H 1278.42 -3.57296 -0.820672 0
M  V30 13271 H 1278.06 -3.80874 -3.28548 0
M  V30 13272 H 1277.76 -5.34652 -2.43764 0
M  V30 13273 H 1279.29 -5.11154 -3.33997 0
M  V30 13274 H 1280.7 -5.62124 -1.12646 0
M  V30 13275 H 1279.1 -5.98598 -0.424358 0
M  V30 13276 H 1280.17 -4.83301 0.393434 0
M  V30 13277 N 1281.51 0.0200419 -1.57587 0
M  V30 13278 C 1282.74 0.719511 -1.93666 0
M  V30 13279 C 1283.15 1.68934 -0.85193 0
M  V30 13280 O 1282.49 1.8282 0.179593 0
M  V30 13281 C 1282.56 1.52382 -3.25607 0
M  V30 13282 C 1282.22 0.717784 -4.51328 0
M  V30 13283 C 1283.22 0.0141272 -5.19898 0
M  V30 13284 C 1280.9 0.669662 -4.97816 0
M  V30 13285 C 1282.9 -0.726853 -6.33242 0
M  V30 13286 C 1280.58 -0.0750577 -6.11054 0
M  V30 13287 C 1281.58 -0.772067 -6.78622 0
M  V30 13288 O 1281.27 -1.50468 -7.89693 0
M  V30 13289 H 1281 0.206681 -0.643629 0
M  V30 13290 H 1283.55 -0.0211203 -2.05389 0
M  V30 13291 H 1281.78 2.30848 -3.10236 0
M  V30 13292 H 1283.47 2.10675 -3.46945 0
M  V30 13293 H 1284.24 0.0422784 -4.84982 0
M  V30 13294 H 1280.12 1.20169 -4.45062 0
M  V30 13295 H 1283.66 -1.27143 -6.85916 0
M  V30 13296 H 1279.56 -0.1051 -6.45414 0
M  V30 13297 H 1280.33 -1.41929 -8.06101 0
M  V30 13298 N 1282.99 1.54862 0.292472 0
M  V30 13299 C 1284.22 1.78877 1.04966 0
M  V30 13300 C 1284.64 0.550724 1.79857 0
M  V30 13301 O 1284 -0.499054 1.74296 0
M  V30 13302 C 1284.05 3.00106 1.99922 0
M  V30 13303 O 1283.15 2.73827 3.0837 0
M  V30 13304 H 1282.49 0.591802 0.301108 0
M  V30 13305 H 1285.02 2.01965 0.3273 0
M  V30 13306 H 1285.03 3.28309 2.42233 0
M  V30 13307 H 1283.71 3.89872 1.44821 0
M  V30 13308 H 1282.28 2.56665 2.70513 0
M  V30 13309 N 1284.47 -0.556076 1.47464 0
M  V30 13310 C 1285.38 -1.69043 1.62671 0
M  V30 13311 C 1286.39 -1.66372 0.509535 0
M  V30 13312 O 1287.57 -1.85799 0.777218 0
M  V30 13313 C 1284.64 -3.05546 1.63836 0
M  V30 13314 C 1283.7 -3.19275 2.86988 0
M  V30 13315 C 1282.93 -4.49267 2.88088 0
M  V30 13316 O 1283.15 -5.34796 1.98368 0
M  V30 13317 O 1282.09 -4.66811 3.79962 0
M  V30 13318 H 1285.91 -1.59155 2.58657 0
M  V30 13319 H 1283.5 -0.726211 1.30562 0
M  V30 13320 H 1285.38 -3.86778 1.67275 0
M  V30 13321 H 1284.05 -3.15814 0.710173 0
M  V30 13322 H 1282.96 -2.37437 2.89093 0
M  V30 13323 H 1284.29 -3.13912 3.79104 0
M  V30 13324 N 1285.95 -1.35615 -0.802897 0
M  V30 13325 C 1286.91 -1.28705 -1.89651 0
M  V30 13326 C 1287.91 -0.197681 -1.5958 0
M  V30 13327 O 1289.1 -0.451618 -1.68244 0
M  V30 13328 C 1286.23 -0.991941 -3.26149 0
M  V30 13329 H 1287.43 -2.25951 -1.97196 0
M  V30 13330 H 1284.98 -1.20192 -0.999179 0
M  V30 13331 H 1285.71 -0.0235051 -3.24291 0
M  V30 13332 H 1285.5 -1.78013 -3.49362 0
M  V30 13333 H 1286.99 -0.969298 -4.06195 0
M  V30 13334 N 1287.43 1.02549 -1.19673 0
M  V30 13335 C 1288.37 2.109 -0.937536 0
M  V30 13336 C 1289.34 1.65599 0.128923 0
M  V30 13337 O 1290.53 1.90795 -0.0139366 0
M  V30 13338 C 1287.67 3.4166 -0.48602 0
M  V30 13339 C 1286.78 4.0049 -1.61963 0
M  V30 13340 C 1285.92 5.19273 -1.11931 0
M  V30 13341 C 1284.95 5.70166 -2.22659 0
M  V30 13342 N 1284.09 6.80221 -1.73909 0
M  V30 13343 H 1288.93 2.32408 -1.86523 0
M  V30 13344 H 1286.47 1.13982 -0.929869 0
M  V30 13345 H 1288.43 4.16693 -0.205614 0
M  V30 13346 H 1287.06 3.20253 0.404678 0
M  V30 13347 H 1286.11 3.22638 -2.01516 0
M  V30 13348 H 1287.42 4.34273 -2.45374 0
M  V30 13349 H 1286.57 6.01478 -0.794336 0
M  V30 13350 H 1285.31 4.87033 -0.254972 0
M  V30 13351 H 1284.32 4.86572 -2.55983 0
M  V30 13352 H 1285.54 6.04444 -3.09554 0
M  V30 13353 H 1283.49 6.49826 -0.897889 0
M  V30 13354 H 1283.41 7.13149 -2.50907 0
M  V30 13355 H 1284.67 7.66011 -1.44386 0
M  V30 13356 N 1288.9 1.00119 1.21713 0
M  V30 13357 C 1290.13 0.700431 1.94683 0
M  V30 13358 C 1290.55 -0.736333 1.73849 0
M  V30 13359 O 1289.9 -1.49778 1.04272 0
M  V30 13360 C 1289.95 1.00722 3.47185 0
M  V30 13361 O 1289.68 2.38754 3.67326 0
M  V30 13362 C 1291.18 0.725335 4.37326 0
M  V30 13363 H 1288.4 0.25843 0.619238 0
M  V30 13364 H 1290.94 1.3382 1.54636 0
M  V30 13365 H 1289.1 0.415117 3.85169 0
M  V30 13366 H 1289.51 2.49321 4.61454 0
M  V30 13367 H 1290.98 0.990202 5.43046 0
M  V30 13368 H 1291.46 -0.340649 4.37877 0
M  V30 13369 H 1292.07 1.29888 4.04981 0
M  V30 13370 N 1290.38 -1.37203 0.775435 0
M  V30 13371 C 1291.79 -1.82224 0.406372 0
M  V30 13372 C 1292.14 -1.64587 -1.06796 0
M  V30 13373 O 1291.27 -1.15903 -1.82744 0
M  V30 13374 C 1291.86 -3.30824 0.730819 0
M  V30 13375 C 1290.42 -3.74108 0.414766 0
M  V30 13376 C 1289.57 -2.59679 0.972747 0
M  V30 13377 H 1292.52 -1.25623 0.969775 0
M  V30 13378 H 1292.54 -3.80496 0.0168066 0
M  V30 13379 H 1292.05 -3.43628 1.80392 0
M  V30 13380 H 1290.15 -3.66871 -0.650866 0
M  V30 13381 H 1290.27 -4.70074 0.925595 0
M  V30 13382 H 1288.63 -2.51591 0.396772 0
M  V30 13383 H 1289.41 -2.75274 2.05132 0
M  V30 13384 N 1291.86 -0.526279 -1.48553 0
M  V30 13385 C 1293.11 0.0111473 -2.01697 0
M  V30 13386 C 1293.42 1.35675 -1.40895 0
M  V30 13387 O 1294.63 1.98233 -1.85515 0
M  V30 13388 C 1293.08 0.0702721 -3.59831 0
M  V30 13389 C 1292.69 -1.27022 -4.29616 0
M  V30 13390 C 1294.44 0.556722 -4.20834 0
M  V30 13391 C 1292.34 -1.17188 -5.79673 0
M  V30 13392 H 1291.27 0.00793697 -0.753958 0
M  V30 13393 H 1293.92 -0.669503 -1.70851 0
M  V30 13394 H 1292.31 0.81592 -3.87503 0
M  V30 13395 H 1293.48 -2.03114 -4.1362 0
M  V30 13396 H 1291.79 -1.69211 -3.80469 0
M  V30 13397 H 1294.39 0.648205 -5.30756 0
M  V30 13398 H 1294.73 1.56163 -3.859 0
M  V30 13399 H 1295.27 -0.133132 -3.97577 0
M  V30 13400 H 1292.01 -2.15182 -6.19174 0
M  V30 13401 H 1291.53 -0.452259 -5.98093 0
M  V30 13402 H 1293.21 -0.861011 -6.41245 0
M  V30 13403 N 1293.34 1.5542 -0.261239 0
M  V30 13404 C 1294.28 2.21972 0.632216 0
M  V30 13405 C 1295.25 1.18843 1.16041 0
M  V30 13406 O 1296.44 1.47339 1.21226 0
M  V30 13407 C 1293.58 2.93397 1.81693 0
M  V30 13408 C 1292.69 4.11214 1.3239 0
M  V30 13409 C 1291.83 4.70318 2.46931 0
M  V30 13410 C 1290.87 5.80355 1.94561 0
M  V30 13411 N 1290 6.33581 3.02523 0
M  V30 13412 H 1294.84 2.97944 0.058018 0
M  V30 13413 H 1292.38 1.4709 0.0168725 0
M  V30 13414 H 1294.34 3.33015 2.5131 0
M  V30 13415 H 1292.97 2.19874 2.36337 0
M  V30 13416 H 1292.02 3.76811 0.521292 0
M  V30 13417 H 1293.33 4.90609 0.900214 0
M  V30 13418 H 1292.49 5.12584 3.24565 0
M  V30 13419 H 1291.23 3.90169 2.92608 0
M  V30 13420 H 1290.23 5.37552 1.15402 0
M  V30 13421 H 1291.46 6.62364 1.49836 0
M  V30 13422 H 1289.4 5.56332 3.47608 0
M  V30 13423 H 1289.32 7.08209 2.64529 0
M  V30 13424 H 1290.59 6.80506 3.80174 0
M  V30 13425 N 1294.82 -0.0116844 1.57596 0
M  V30 13426 C 1296.06 -0.694423 1.91179 0
M  V30 13427 C 1296.42 -1.72025 0.861703 0
M  V30 13428 O 1295.71 -1.91175 -0.127545 0
M  V30 13429 C 1295.9 -1.38985 3.29269 0
M  V30 13430 C 1295.73 -0.432902 4.47611 0
M  V30 13431 C 1294.5 -0.0475684 5.05278 0
M  V30 13432 C 1296.7 0.296001 5.13447 0
M  V30 13433 N 1294.68 0.908817 6.07136 0
M  V30 13434 C 1296.05 1.10746 6.10029 0
M  V30 13435 C 1298.11 0.361088 4.96589 0
M  V30 13436 C 1296.81 1.97805 6.91568 0
M  V30 13437 C 1298.84 1.21887 5.78703 0
M  V30 13438 C 1298.2 2.0182 6.74869 0
M  V30 13439 H 1294.3 -0.227668 0.748125 0
M  V30 13440 H 1296.88 0.0459176 1.94646 0
M  V30 13441 H 1295.05 -2.10055 3.26698 0
M  V30 13442 H 1296.79 -2.02636 3.50315 0
M  V30 13443 H 1293.54 -0.413466 4.71792 0
M  V30 13444 H 1293.96 1.38203 6.62743 0
M  V30 13445 H 1298.61 -0.242613 4.22103 0
M  V30 13446 H 1296.32 2.59248 7.65386 0
M  V30 13447 H 1299.91 1.27299 5.67703 0
M  V30 13448 H 1298.79 2.67121 7.37303 0
M  V30 13449 N 1296.29 -1.55015 -0.284256 0
M  V30 13450 C 1297.23 -1.82031 -1.37623 0
M  V30 13451 C 1298.2 -0.672564 -1.48038 0
M  V30 13452 O 1299.39 -0.914349 -1.64839 0
M  V30 13453 C 1296.52 -1.97193 -2.75377 0
M  V30 13454 C 1295.56 -3.19699 -2.82303 0
M  V30 13455 S 1296.39 -4.77348 -2.42691 0
M  V30 13456 C 1297.55 -4.95468 -3.82442 0
M  V30 13457 H 1297.78 -2.74366 -1.14502 0
M  V30 13458 H 1295.32 -1.46642 -0.483283 0
M  V30 13459 H 1297.27 -2.06614 -3.54713 0
M  V30 13460 H 1295.94 -1.05766 -2.95757 0
M  V30 13461 H 1295.13 -3.27161 -3.83382 0
M  V30 13462 H 1294.73 -3.08811 -2.10978 0
M  V30 13463 H 1297.02 -4.80519 -4.77606 0
M  V30 13464 H 1297.97 -5.97538 -3.7994 0
M  V30 13465 H 1298.37 -4.23516 -3.73222 0
M  V30 13466 N 1297.77 0.548248 -1.47757 0
M  V30 13467 C 1298.73 1.63666 -1.60456 0
M  V30 13468 C 1299.73 1.53499 -0.479028 0
M  V30 13469 O 1300.92 1.57497 -0.744342 0
M  V30 13470 C 1298.06 3.03239 -1.55754 0
M  V30 13471 H 1299.25 1.53752 -2.57488 0
M  V30 13472 H 1296.8 0.768881 -1.36081 0
M  V30 13473 H 1297.54 3.18677 -0.601303 0
M  V30 13474 H 1297.32 3.12027 -2.37448 0
M  V30 13475 H 1298.81 3.82406 -1.67797 0
M  V30 13476 N 1299.25 1.36039 0.795694 0
M  V30 13477 C 1300.18 1.32528 1.92246 0
M  V30 13478 C 1301.16 0.197805 1.68946 0
M  V30 13479 O 1302.35 0.394474 1.90151 0
M  V30 13480 C 1299.48 1.10748 3.29169 0
M  V30 13481 C 1298.43 2.20253 3.66978 0
M  V30 13482 C 1297.76 1.83624 5.02181 0
M  V30 13483 C 1299.06 3.62296 3.76216 0
M  V30 13484 H 1300.75 2.2681 1.95442 0
M  V30 13485 H 1298.3 1.09181 0.938908 0
M  V30 13486 H 1300.25 1.06929 4.07608 0
M  V30 13487 H 1298.97 0.129141 3.26345 0
M  V30 13488 H 1297.63 2.23187 2.90832 0
M  V30 13489 H 1297.28 0.843804 4.95872 0
M  V30 13490 H 1296.98 2.56935 5.28449 0
M  V30 13491 H 1298.5 1.81349 5.83048 0
M  V30 13492 H 1299.92 3.61623 4.44861 0
M  V30 13493 H 1298.31 4.34459 4.13963 0
M  V30 13494 H 1299.38 3.97657 2.77483 0
M  V30 13495 N 1300.73 -1.01913 1.20215 0
M  V30 13496 C 1301.64 -2.13864 0.964328 0
M  V30 13497 C 1302.65 -1.73821 -0.0789556 0
M  V30 13498 O 1303.83 -2.01111 0.107914 0
M  V30 13499 C 1300.9 -3.42827 0.516757 0
M  V30 13500 C 1299.96 -3.97127 1.63059 0
M  V30 13501 C 1299.19 -5.19935 1.20428 0
M  V30 13502 O 1299.41 -5.70355 0.0719119 0
M  V30 13503 O 1298.35 -5.67322 2.01071 0
M  V30 13504 H 1302.17 -2.36795 1.90162 0
M  V30 13505 H 1299.76 -1.1226 0.985803 0
M  V30 13506 H 1301.64 -4.20493 0.276272 0
M  V30 13507 H 1300.31 -3.21318 -0.391983 0
M  V30 13508 H 1299.22 -3.20752 1.92533 0
M  V30 13509 H 1300.55 -4.2302 2.51624 0
M  V30 13510 N 1302.21 -1.00763 -1.2118 0
M  V30 13511 C 1303.43 -0.710515 -1.9485 0
M  V30 13512 C 1303.86 0.720934 -1.73736 0
M  V30 13513 O 1303.21 1.49484 -1.02588 0
M  V30 13514 C 1303.26 -1.04035 -3.45267 0
M  V30 13515 O 1302.37 -0.147047 -4.12138 0
M  V30 13516 H 1301.71 -0.264472 -0.609057 0
M  V30 13517 H 1304.24 -1.34858 -1.53865 0
M  V30 13518 H 1304.25 -0.9883 -3.95849 0
M  V30 13519 H 1302.92 -2.08334 -3.59958 0
M  V30 13520 H 1301.5 -0.255847 -3.72021 0
M  V30 13521 N 1303.68 1.3679 -0.7827 0
M  V30 13522 C 1304.93 1.98664 -0.348634 0
M  V30 13523 C 1305.25 1.62827 1.08382 0
M  V30 13524 O 1306.45 2.17886 1.61982 0
M  V30 13525 C 1304.91 3.55319 -0.572392 0
M  V30 13526 C 1304.52 4.00086 -2.01582 0
M  V30 13527 C 1306.26 4.24017 -0.202496 0
M  V30 13528 C 1304.17 5.49493 -2.18659 0
M  V30 13529 H 1303.1 0.743294 -0.126612 0
M  V30 13530 H 1305.75 1.56177 -0.963383 0
M  V30 13531 H 1304.13 3.95842 0.111973 0
M  V30 13532 H 1305.3 3.7078 -2.73603 0
M  V30 13533 H 1303.62 3.44205 -2.34333 0
M  V30 13534 H 1306.22 5.3381 -0.308459 0
M  V30 13535 H 1306.56 4.07559 0.84859 0
M  V30 13536 H 1307.09 3.88834 -0.839834 0
M  V30 13537 H 1303.83 5.7089 -3.22126 0
M  V30 13538 H 1303.35 5.80447 -1.51134 0
M  V30 13539 H 1305.03 6.15621 -1.99048 0
M  V30 13540 N 1305.16 0.53415 1.48272 0
M  V30 13541 C 1306.11 -0.246268 2.26666 0
M  V30 13542 C 1307.1 -0.906149 1.32958 0
M  V30 13543 O 1308.29 -0.808266 1.57468 0
M  V30 13544 C 1305.42 -1.29001 3.18141 0
M  V30 13545 C 1304.5 -0.634704 4.19324 0
M  V30 13546 N 1304.89 0.281972 5.05013 0
M  V30 13547 C 1303.19 -0.891412 4.37001 0
M  V30 13548 C 1303.89 0.660411 5.77939 0
M  V30 13549 N 1302.87 0.0205295 5.43596 0
M  V30 13550 H 1306.67 0.458881 2.90296 0
M  V30 13551 H 1304.19 0.352466 1.58529 0
M  V30 13552 H 1306.18 -1.86285 3.72966 0
M  V30 13553 H 1304.84 -1.99649 2.56067 0
M  V30 13554 H 1305.85 0.654819 5.13744 0
M  V30 13555 H 1302.53 -1.58815 3.86114 0
M  V30 13556 H 1303.92 1.41231 6.56889 0
M  V30 13557 N 1306.64 -1.55279 0.269478 0
M  V30 13558 C 1307.89 -1.99471 -0.348913 0
M  V30 13559 C 1308.22 -1.15784 -1.56283 0
M  V30 13560 O 1307.47 -0.214115 -1.94525 0
M  V30 13561 C 1307.77 -3.48773 -0.780535 0
M  V30 13562 C 1307.44 -4.49705 0.328113 0
M  V30 13563 C 1306.1 -4.77024 0.632544 0
M  V30 13564 C 1308.45 -5.09984 1.07544 0
M  V30 13565 C 1305.78 -5.61893 1.68798 0
M  V30 13566 C 1308.13 -5.95999 2.12057 0
M  V30 13567 C 1306.79 -6.21642 2.4314 0
M  V30 13568 H 1306.06 -0.729918 -0.127676 0
M  V30 13569 H 1308.71 -1.87651 0.382015 0
M  V30 13570 H 1307.02 -3.5804 -1.59105 0
M  V30 13571 H 1308.71 -3.80369 -1.26966 0
M  V30 13572 H 1305.3 -4.28524 0.0807131 0
M  V30 13573 H 1309.49 -4.88906 0.853506 0
M  V30 13574 H 1304.74 -5.80009 1.93389 0
M  V30 13575 H 1308.92 -6.41743 2.70442 0
M  V30 13576 H 1306.54 -6.87198 3.25059 0
M  V30 13577 N 1308.12 0.00332656 -1.576 0
M  V30 13578 C 1309.37 0.687508 -1.90047 0
M  V30 13579 C 1309.69 1.74497 -0.870388 0
M  V30 13580 O 1308.96 1.95681 0.0926544 0
M  V30 13581 H 1307.54 0.256924 -0.701426 0
M  V30 13582 H 1310.2 -0.0368129 -1.94865 0
M  V30 13583 H 1309.3 1.16086 -2.89707 0
M  V30 13584 N 1309.6 1.55164 0.276031 0
M  V30 13585 C 1310.54 1.87836 1.34113 0
M  V30 13586 C 1311.51 0.729562 1.4922 0
M  V30 13587 O 1312.7 0.980549 1.63676 0
M  V30 13588 C 1309.84 2.15313 2.69693 0
M  V30 13589 C 1308.95 3.42845 2.62833 0
M  V30 13590 C 1308.09 3.60038 3.90572 0
M  V30 13591 C 1307.13 4.81273 3.7821 0
M  V30 13592 N 1306.26 4.95139 4.97777 0
M  V30 13593 H 1311.1 2.78681 1.0555 0
M  V30 13594 H 1308.64 1.37976 0.510001 0
M  V30 13595 H 1310.6 2.29243 3.48573 0
M  V30 13596 H 1309.23 1.27706 2.96464 0
M  V30 13597 H 1308.28 3.37403 1.75679 0
M  V30 13598 H 1309.59 4.3186 2.49597 0
M  V30 13599 H 1308.75 3.73769 4.77893 0
M  V30 13600 H 1307.48 2.69203 4.06671 0
M  V30 13601 H 1306.49 4.67549 2.89271 0
M  V30 13602 H 1307.71 5.7354 3.63632 0
M  V30 13603 H 1305.66 4.07234 5.14292 0
M  V30 13604 H 1305.58 5.78194 4.8706 0
M  V30 13605 H 1306.85 5.13253 5.86679 0
M  V30 13606 N 1311.07 -0.540404 1.48045 0
M  V30 13607 C 1312.3 -1.31986 1.58944 0
M  V30 13608 C 1312.71 -1.87608 0.244889 0
M  V30 13609 O 1312.06 -1.66576 -0.774467 0
M  V30 13610 C 1312.12 -2.51547 2.56835 0
M  V30 13611 C 1311.78 -2.17089 4.02146 0
M  V30 13612 C 1312.78 -1.73379 4.90138 0
M  V30 13613 C 1310.46 -2.27932 4.47607 0
M  V30 13614 C 1312.46 -1.40964 6.21617 0
M  V30 13615 C 1310.14 -1.95129 5.7911 0
M  V30 13616 C 1311.14 -1.51715 6.65937 0
M  V30 13617 O 1310.83 -1.19337 7.94993 0
M  V30 13618 H 1310.56 -0.408028 0.538971 0
M  V30 13619 H 1313.12 -0.659748 1.94516 0
M  V30 13620 H 1311.35 -3.20505 2.16364 0
M  V30 13621 H 1313.04 -3.13617 2.57681 0
M  V30 13622 H 1313.8 -1.64481 4.56258 0
M  V30 13623 H 1309.68 -2.6068 3.8022 0
M  V30 13624 H 1313.22 -1.07005 6.89344 0
M  V30 13625 H 1309.12 -2.03664 6.12528 0
M  V30 13626 H 1309.89 -1.32824 8.07651 0
M  V30 13627 N 1312.55 -1.36459 -0.788468 0
M  V30 13628 C 1313.78 -1.33898 -1.57731 0
M  V30 13629 C 1314.2 0.0795471 -1.88632 0
M  V30 13630 O 1313.55 1.03671 -1.50195 0
M  V30 13631 C 1313.6 -2.16134 -2.89773 0
M  V30 13632 O 1313.32 -3.52457 -2.60203 0
M  V30 13633 C 1314.83 -2.21364 -3.84074 0
M  V30 13634 H 1312.05 -0.459269 -0.489197 0
M  V30 13635 H 1314.59 -1.79569 -0.978526 0
M  V30 13636 H 1312.74 -1.74015 -3.46118 0
M  V30 13637 H 1313.16 -3.95378 -3.4464 0
M  V30 13638 H 1314.63 -2.83261 -4.7378 0
M  V30 13639 H 1315.11 -1.21736 -4.21992 0
M  V30 13640 H 1315.72 -2.63723 -3.33662 0
M  V30 13641 N 1314.03 1.01274 -1.20754 0
M  V30 13642 C 1314.98 2.08285 -0.927426 0
M  V30 13643 C 1315.96 1.60494 0.114286 0
M  V30 13644 O 1317.16 1.76752 -0.0936086 0
M  V30 13645 C 1314.29 3.39849 -0.485546 0
M  V30 13646 C 1313.37 3.94331 -1.5609 0
M  V30 13647 N 1313.76 4.22274 -2.78421 0
M  V30 13648 C 1312.06 4.22522 -1.42797 0
M  V30 13649 C 1312.76 4.66262 -3.47813 0
M  V30 13650 N 1311.74 4.68771 -2.75235 0
M  V30 13651 H 1315.54 2.27804 -1.85695 0
M  V30 13652 H 1313.05 1.19278 -1.10211 0
M  V30 13653 H 1315.05 4.16049 -0.266263 0
M  V30 13654 H 1313.71 3.21742 0.437301 0
M  V30 13655 H 1314.72 4.11063 -3.15036 0
M  V30 13656 H 1311.4 4.13593 -0.569819 0
M  V30 13657 H 1312.79 4.9667 -4.52513 0
M  V30 13658 N 1315.51 1.01404 1.20644 0
M  V30 13659 C 1316.44 0.540288 2.22741 0
M  V30 13660 C 1317.45 -0.375953 1.584 0
M  V30 13661 O 1318.64 -0.174708 1.77643 0
M  V30 13662 C 1315.74 -0.233766 3.38093 0
M  V30 13663 C 1314.92 0.683759 4.32023 0
M  V30 13664 C 1313.98 -0.0422681 5.26183 0
M  V30 13665 O 1313 0.579392 5.66243 0
M  V30 13666 N 1314.2 -1.31794 5.65341 0
M  V30 13667 H 1316.97 1.41831 2.64015 0
M  V30 13668 H 1314.53 0.891265 1.35159 0
M  V30 13669 H 1316.52 -0.728645 3.98087 0
M  V30 13670 H 1315.09 -1.01306 2.9573 0
M  V30 13671 H 1314.31 1.35899 3.70034 0
M  V30 13672 H 1315.6 1.30786 4.91704 0
M  V30 13673 H 1315 -1.84399 5.34802 0
M  V30 13674 H 1313.55 -1.7576 6.27656 0
M  V30 13675 N 1316.99 -1.36373 0.789944 0
M  V30 13676 C 1318.21 -2.04011 0.373396 0
M  V30 13677 C 1318.64 -1.59171 -1.00231 0
M  V30 13678 O 1318 -0.760431 -1.64582 0
M  V30 13679 C 1318.04 -3.5783 0.446083 0
M  V30 13680 O 1317.15 -4.08759 -0.54678 0
M  V30 13681 H 1316.49 -0.644807 0.158495 0
M  V30 13682 H 1319.02 -1.74317 1.0712 0
M  V30 13683 H 1319.03 -4.06822 0.309877 0
M  V30 13684 H 1317.7 -3.89819 1.44962 0
M  V30 13685 H 1316.28 -3.71038 -0.372192 0
M  V30 13686 N 1318.47 -0.542005 -1.47987 0
M  V30 13687 C 1319.74 0.0526494 -1.95529 0
M  V30 13688 C 1320.12 1.50092 -1.48444 0
M  V30 13689 O 1319.47 2.16981 -0.716347 0
M  V30 13690 C 1319.68 -0.0770524 -3.48915 0
M  V30 13691 C 1321.03 0.0760849 -4.24532 0
M  V30 13692 O 1322.05 -0.00384644 -3.562 0
M  V30 13693 O 1320.91 0.245406 -5.45949 0
M  V30 13694 H 1318.01 0.0726163 -0.823806 0
M  V30 13695 H 1320.55 -0.607454 -1.58455 0
M  V30 13696 H 1319.32 -1.08544 -3.75944 0
M  V30 13697 H 1318.95 0.621357 -3.92715 0
M  V30 13698 N 1319.94 1.55134 -0.277709 0
M  V30 13699 C 1321.19 1.99949 0.338831 0
M  V30 13700 C 1321.52 1.16587 1.5531 0
M  V30 13701 O 1320.8 0.236572 1.93056 0
M  V30 13702 C 1321.08 3.5286 0.718457 0
M  V30 13703 C 1320.93 4.46975 -0.503332 0
M  V30 13704 C 1322.25 4.11754 1.55392 0
M  V30 13705 H 1319.37 0.726885 0.121682 0
M  V30 13706 H 1322.01 1.86055 -0.385171 0
M  V30 13707 H 1320.16 3.64831 1.33531 0
M  V30 13708 H 1321.84 4.46944 -1.14188 0
M  V30 13709 H 1320.08 4.18528 -1.14092 0
M  V30 13710 H 1320.75 5.51659 -0.193912 0
M  V30 13711 H 1323.23 4.03075 1.03293 0
M  V30 13712 H 1322.1 5.1895 1.78835 0
M  V30 13713 H 1322.36 3.62147 2.53578 0
M  V30 13714 N 1321.42 0.00503138 1.57599 0
M  V30 13715 C 1322.67 -0.674107 1.91905 0
M  V30 13716 C 1323.02 -1.71101 0.8799 0
M  V30 13717 O 1322.32 -1.913 -0.107261 0
M  V30 13718 C 1322.51 -1.35485 3.30724 0
M  V30 13719 C 1322.34 -0.385403 4.48045 0
M  V30 13720 C 1321.11 0.00602574 5.053 0
M  V30 13721 C 1323.31 0.350442 5.13105 0
M  V30 13722 N 1321.29 0.97316 6.06138 0
M  V30 13723 C 1322.66 1.1721 6.0882 0
M  V30 13724 C 1324.71 0.413738 4.96178 0
M  V30 13725 C 1323.42 2.05129 6.89431 0
M  V30 13726 C 1325.44 1.28018 5.77378 0
M  V30 13727 C 1324.81 2.08967 6.7269 0
M  V30 13728 H 1320.9 -0.219721 0.750498 0
M  V30 13729 H 1323.49 0.0665598 1.94586 0
M  V30 13730 H 1321.66 -2.06578 3.28907 0
M  V30 13731 H 1323.39 -1.98909 3.52445 0
M  V30 13732 H 1320.15 -0.363403 4.72204 0
M  V30 13733 H 1320.57 1.45225 6.6124 0
M  V30 13734 H 1325.21 -0.19783 4.22337 0
M  V30 13735 H 1322.93 2.67351 7.62594 0
M  V30 13736 H 1326.52 1.33313 5.66321 0
M  V30 13737 H 1325.4 2.74926 7.34428 0
M  V30 13738 N 1322.9 -1.55308 -0.267798 0
M  V30 13739 C 1324.12 -1.80524 -1.02107 0
M  V30 13740 C 1324.55 -0.579268 -1.78958 0
M  V30 13741 O 1323.91 0.471262 -1.75068 0
M  V30 13742 C 1323.96 -3.03248 -1.95123 0
M  V30 13743 O 1323.06 -2.78699 -3.03975 0
M  V30 13744 H 1322.4 -0.596518 -0.291655 0
M  V30 13745 H 1324.93 -2.0246 -0.295128 0
M  V30 13746 H 1324.94 -3.32121 -2.3698 0
M  V30 13747 H 1323.62 -3.92126 -1.386 0
M  V30 13748 H 1322.19 -2.60936 -2.66396 0
M  V30 13749 N 1324.38 0.532545 -1.4833 0
M  V30 13750 C 1325.61 1.31141 -1.59642 0
M  V30 13751 C 1326.02 1.87476 -0.254835 0
M  V30 13752 O 1325.36 1.66985 0.765622 0
M  V30 13753 C 1325.42 2.50182 -2.58165 0
M  V30 13754 C 1325.08 2.14953 -4.03292 0
M  V30 13755 C 1326.08 1.70777 -4.91051 0
M  V30 13756 C 1323.77 2.25555 -4.4881 0
M  V30 13757 C 1325.76 1.37665 -6.22356 0
M  V30 13758 C 1323.45 1.92055 -5.80136 0
M  V30 13759 C 1324.45 1.48181 -6.66732 0
M  V30 13760 O 1324.13 1.15119 -7.95615 0
M  V30 13761 H 1323.87 0.405164 -0.541127 0
M  V30 13762 H 1326.42 0.649423 -1.94863 0
M  V30 13763 H 1324.65 3.19353 -2.1806 0
M  V30 13764 H 1326.34 3.12246 -2.5934 0
M  V30 13765 H 1327.1 1.62059 -4.57124 0
M  V30 13766 H 1322.98 2.5866 -3.81597 0
M  V30 13767 H 1326.53 1.03348 -6.89902 0
M  V30 13768 H 1322.42 2.00413 -6.136 0
M  V30 13769 H 1323.19 1.28539 -8.08344 0
M  V30 13770 N 1325.86 1.36875 0.78122 0
M  V30 13771 C 1327.1 1.31299 1.53639 0
M  V30 13772 C 1327.42 -0.104942 1.94717 0
M  V30 13773 O 1326.69 -1.04696 1.65576 0
M  V30 13774 H 1325.27 0.483032 0.569815 0
M  V30 13775 H 1327.94 1.71261 0.930359 0
M  V30 13776 H 1327.03 1.94581 2.44018 0
M  V30 13777 N 1327.33 -1.00632 1.21289 0
M  V30 13778 C 1328.58 -1.74647 1.03084 0
M  V30 13779 C 1328.91 -1.89271 -0.43476 0
M  V30 13780 O 1328.19 -1.42607 -1.32263 0
M  V30 13781 C 1328.47 -3.15981 1.72709 0
M  V30 13782 C 1328.32 -3.09088 3.2678 0
M  V30 13783 C 1329.64 -4.14875 1.46857 0
M  V30 13784 H 1326.76 -0.633938 0.375889 0
M  V30 13785 H 1329.4 -1.17328 1.49446 0
M  V30 13786 H 1327.55 -3.64918 1.33294 0
M  V30 13787 H 1329.23 -2.67875 3.75554 0
M  V30 13788 H 1327.47 -2.46223 3.57151 0
M  V30 13789 H 1328.14 -4.09041 3.70661 0
M  V30 13790 H 1330.62 -3.74637 1.81069 0
M  V30 13791 H 1329.49 -5.1191 1.98088 0
M  V30 13792 H 1329.75 -4.40302 0.398296 0
M  V30 13793 N 1328.81 -1.02043 -1.20104 0
M  V30 13794 C 1330.04 -0.731315 -1.93544 0
M  V30 13795 C 1330.45 0.708582 -1.74999 0
M  V30 13796 O 1329.81 1.481 -1.06642 0
M  V30 13797 C 1329.86 -1.06233 -3.45538 0
M  V30 13798 O 1329.58 -2.44568 -3.63481 0
M  V30 13799 C 1331.08 -0.794818 -4.36116 0
M  V30 13800 H 1328.3 -0.268248 -0.615048 0
M  V30 13801 H 1330.85 -1.36264 -1.52488 0
M  V30 13802 H 1329 -0.476341 -3.8446 0
M  V30 13803 H 1329.42 -2.5663 -4.57429 0
M  V30 13804 H 1330.89 -1.07647 -5.41402 0
M  V30 13805 H 1331.37 0.270944 -4.38363 0
M  V30 13806 H 1331.97 -1.36314 -4.02863 0
M  V30 13807 N 1330.29 1.35952 -0.797165 0
M  V30 13808 C 1331.54 1.99327 -0.373695 0
M  V30 13809 C 1331.87 1.63111 1.05396 0
M  V30 13810 O 1331.14 0.889736 1.72956 0
M  V30 13811 C 1331.43 3.5593 -0.54641 0
M  V30 13812 C 1331.28 4.01975 -2.01832 0
M  V30 13813 C 1332.6 4.40087 0.0337694 0
M  V30 13814 H 1329.72 0.724107 -0.137254 0
M  V30 13815 H 1332.36 1.61248 -1.00495 0
M  V30 13816 H 1330.51 3.88499 -0.00903959 0
M  V30 13817 H 1332.18 3.79859 -2.61735 0
M  V30 13818 H 1330.43 3.5323 -2.51815 0
M  V30 13819 H 1331.1 5.109 -2.09009 0
M  V30 13820 H 1333.57 4.13923 -0.425039 0
M  V30 13821 H 1332.45 5.48775 -0.117054 0
M  V30 13822 H 1332.71 4.27504 1.12661 0
M  V30 13823 N 1331.77 0.549846 1.47697 0
M  V30 13824 C 1333.01 0.031288 2.03376 0
M  V30 13825 C 1333.37 -1.30104 1.41741 0
M  V30 13826 O 1332.66 -1.83201 0.561052 0
M  V30 13827 C 1332.86 -0.127268 3.57173 0
M  V30 13828 C 1332.69 1.18815 4.3372 0
M  V30 13829 C 1331.46 1.75345 4.73901 0
M  V30 13830 C 1333.65 2.10361 4.69311 0
M  V30 13831 N 1331.64 3.00968 5.35062 0
M  V30 13832 C 1333.01 3.20562 5.30698 0
M  V30 13833 C 1335.06 2.10445 4.5124 0
M  V30 13834 C 1333.76 4.30936 5.75922 0
M  V30 13835 C 1335.79 3.19827 4.97458 0
M  V30 13836 C 1335.15 4.28747 5.58888 0
M  V30 13837 H 1331.25 0.0534339 0.780172 0
M  V30 13838 H 1333.84 0.735512 1.80273 0
M  V30 13839 H 1332.01 -0.800603 3.80059 0
M  V30 13840 H 1333.74 -0.647225 3.99491 0
M  V30 13841 H 1330.49 1.29235 4.55626 0
M  V30 13842 H 1330.92 3.64979 5.70192 0
M  V30 13843 H 1335.56 1.27522 4.0311 0
M  V30 13844 H 1333.28 5.14624 6.23047 0
M  V30 13845 H 1336.86 3.2097 4.85252 0
M  V30 13846 H 1335.74 5.1199 5.94 0
M  V30 13847 N 1333.25 -1.54984 0.285932 0
M  V30 13848 C 1334.16 -2.26621 -0.606648 0
M  V30 13849 C 1335.17 -1.29595 -1.16108 0
M  V30 13850 O 1336.35 -1.62551 -1.18908 0
M  V30 13851 C 1333.41 -2.98156 -1.76929 0
M  V30 13852 C 1332.47 -4.10685 -1.25045 0
M  V30 13853 C 1331.71 -4.788 -2.35768 0
M  V30 13854 O 1331.93 -4.46183 -3.55354 0
M  V30 13855 O 1330.86 -5.66523 -2.03312 0
M  V30 13856 H 1334.69 -3.03689 -0.0259981 0
M  V30 13857 H 1332.28 -1.49306 0.0529355 0
M  V30 13858 H 1334.16 -3.43076 -2.44697 0
M  V30 13859 H 1332.83 -2.23996 -2.33683 0
M  V30 13860 H 1331.74 -3.70198 -0.538919 0
M  V30 13861 H 1333.07 -4.86778 -0.728528 0
M  V30 13862 N 1334.72 -0.0133892 -1.57594 0
M  V30 13863 C 1335.65 0.972341 -2.12292 0
M  V30 13864 C 1336.64 1.34971 -1.03522 0
M  V30 13865 O 1337.82 1.4311 -1.31275 0
M  V30 13866 C 1334.95 2.25988 -2.63717 0
M  V30 13867 C 1333.9 2.02373 -3.77133 0
M  V30 13868 C 1333.23 3.37256 -4.14925 0
M  V30 13869 C 1334.53 1.37553 -5.03861 0
M  V30 13870 H 1336.22 0.516869 -2.94905 0
M  V30 13871 H 1333.77 0.247176 -1.41863 0
M  V30 13872 H 1335.72 2.95313 -3.00613 0
M  V30 13873 H 1334.45 2.73672 -1.78244 0
M  V30 13874 H 1333.11 1.3547 -3.40651 0
M  V30 13875 H 1332.75 3.82669 -3.26456 0
M  V30 13876 H 1332.45 3.22267 -4.91343 0
M  V30 13877 H 1333.98 4.07875 -4.5439 0
M  V30 13878 H 1335.39 1.96855 -5.38443 0
M  V30 13879 H 1333.79 1.33011 -5.85174 0
M  V30 13880 H 1334.86 0.346429 -4.83661 0
M  V30 13881 N 1336.2 1.55448 0.259558 0
M  V30 13882 C 1337.14 1.84197 1.3471 0
M  V30 13883 C 1338.11 0.69603 1.4695 0
M  V30 13884 O 1339.3 0.940458 1.63364 0
M  V30 13885 C 1336.42 2.01549 2.72205 0
M  V30 13886 C 1335.47 3.2415 2.77181 0
M  V30 13887 S 1336.3 4.81149 2.35066 0
M  V30 13888 C 1337.46 5.0149 3.74511 0
M  V30 13889 H 1337.69 2.76153 1.10122 0
M  V30 13890 H 1335.23 1.47392 0.459893 0
M  V30 13891 H 1337.18 2.12231 3.51381 0
M  V30 13892 H 1335.84 1.10458 2.94037 0
M  V30 13893 H 1335.04 3.33219 3.78129 0
M  V30 13894 H 1334.64 3.12128 2.06038 0
M  V30 13895 H 1336.93 4.88057 4.69901 0
M  V30 13896 H 1337.87 6.03507 3.70385 0
M  V30 13897 H 1338.28 4.294 3.66437 0
M  V30 13898 N 1337.68 -0.524672 1.4861 0
M  V30 13899 C 1338.91 -1.30482 1.60568 0
M  V30 13900 C 1339.32 -1.86889 0.267952 0
M  V30 13901 O 1338.68 -1.66669 -0.743488 0
M  V30 13902 C 1338.73 -2.45191 2.65638 0
M  V30 13903 O 1338.45 -1.91107 3.9422 0
M  V30 13904 C 1339.95 -3.36931 2.88084 0
M  V30 13905 H 1337.17 -0.396612 0.541239 0
M  V30 13906 H 1339.72 -0.632392 1.94476 0
M  V30 13907 H 1337.87 -3.08308 2.34574 0
M  V30 13908 H 1338.29 -2.66234 4.51907 0
M  V30 13909 H 1339.76 -4.13755 3.65391 0
M  V30 13910 H 1340.24 -3.92487 1.97106 0
M  V30 13911 H 1340.84 -2.79601 3.20473 0
M  V30 13912 N 1339.16 -1.37287 -0.77395 0
M  V30 13913 C 1340.41 -1.32374 -1.53243 0
M  V30 13914 C 1340.73 0.0924284 -1.9428 0
M  V30 13915 O 1339.99 1.06517 -1.64173 0
M  V30 13916 C 1340.29 -2.20667 -2.81142 0
M  V30 13917 C 1339.95 -3.68975 -2.59168 0
M  V30 13918 C 1338.62 -4.09394 -2.52884 0
M  V30 13919 C 1340.97 -4.62941 -2.39447 0
M  V30 13920 C 1338.3 -5.41897 -2.24865 0
M  V30 13921 C 1340.65 -5.9568 -2.12952 0
M  V30 13922 C 1339.31 -6.35205 -2.05111 0
M  V30 13923 H 1338.58 -0.48439 -0.560756 0
M  V30 13924 H 1341.23 -1.69475 -0.891663 0
M  V30 13925 H 1339.53 -1.76553 -3.49766 0
M  V30 13926 H 1341.23 -2.1418 -3.3901 0
M  V30 13927 H 1337.82 -3.36919 -2.64922 0
M  V30 13928 H 1342 -4.32576 -2.43293 0
M  V30 13929 H 1337.26 -5.71486 -2.17288 0
M  V30 13930 H 1341.43 -6.68046 -1.9669 0
M  V30 13931 H 1339.06 -7.37804 -1.83163 0
M  V30 13932 N 1340.64 0.999871 -1.21821 0
M  V30 13933 C 1341.88 1.73497 -1.0365 0
M  V30 13934 C 1342.21 1.90194 0.430271 0
M  V30 13935 O 1341.48 1.45655 1.31002 0
M  V30 13936 H 1340.06 0.642804 -0.380541 0
M  V30 13937 H 1342.72 1.20461 -1.53216 0
M  V30 13938 H 1341.81 2.73215 -1.50864 0
M  V30 13939 N 1342.11 1.02678 1.19562 0
M  V30 13940 C 1343.08 0.610407 2.20922 0
M  V30 13941 C 1344.08 -0.324858 1.57484 0
M  V30 13942 O 1345.27 -0.112153 1.73839 0
M  V30 13943 C 1342.4 -0.107115 3.40732 0
M  V30 13944 H 1343.59 1.50722 2.59274 0
M  V30 13945 H 1341.15 0.817725 1.33203 0
M  V30 13946 H 1341.88 -1.01837 3.07896 0
M  V30 13947 H 1341.67 0.564901 3.88009 0
M  V30 13948 H 1343.16 -0.385423 4.15818 0
M  V30 13949 N 1343.59 -1.35528 0.804364 0
M  V30 13950 C 1344.5 -2.33616 0.214663 0
M  V30 13951 C 1345.52 -1.61757 -0.64115 0
M  V30 13952 O 1346.69 -1.93647 -0.553424 0
M  V30 13953 C 1343.76 -3.40951 -0.628778 0
M  V30 13954 C 1342.82 -4.28587 0.247269 0
M  V30 13955 C 1342.05 -5.30796 -0.556012 0
M  V30 13956 O 1342.28 -5.41557 -1.79088 0
M  V30 13957 O 1341.21 -6.01878 0.0519437 0
M  V30 13958 H 1345.04 -2.85843 1.02605 0
M  V30 13959 H 1342.62 -1.38259 0.566108 0
M  V30 13960 H 1344.5 -4.06538 -1.10926 0
M  V30 13961 H 1343.18 -2.90999 -1.4178 0
M  V30 13962 H 1342.09 -3.65988 0.774835 0
M  V30 13963 H 1343.42 -4.81931 1.00017 0
M  V30 13964 N 1345.07 -0.557671 -1.47404 0
M  V30 13965 C 1346.48 -0.124411 -1.86285 0
M  V30 13966 C 1346.83 1.30593 -1.46424 0
M  V30 13967 O 1345.96 1.9825 -0.867515 0
M  V30 13968 C 1346.55 -0.219005 -3.38091 0
M  V30 13969 C 1345.11 0.159221 -3.76063 0
M  V30 13970 C 1344.26 -0.566355 -2.71455 0
M  V30 13971 H 1347.21 -0.767367 -1.38914 0
M  V30 13972 H 1347.23 0.562267 -3.76323 0
M  V30 13973 H 1346.74 -1.26013 -3.67073 0
M  V30 13974 H 1344.84 1.20144 -3.52698 0
M  V30 13975 H 1344.96 -0.199662 -4.78684 0
M  V30 13976 H 1343.32 -0.00938921 -2.54698 0
M  V30 13977 H 1344.1 -1.60865 -3.03278 0
M  V30 13978 N 1346.55 1.54831 -0.294147 0
M  V30 13979 C 1347.78 2.04115 0.319474 0
M  V30 13980 C 1348.19 1.17125 1.48588 0
M  V30 13981 O 1347.53 0.188034 1.82735 0
M  V30 13982 C 1347.59 3.49429 0.84496 0
M  V30 13983 C 1347.26 4.56583 -0.195275 0
M  V30 13984 C 1348.25 5.09768 -1.02138 0
M  V30 13985 C 1345.94 5.01182 -0.335 0
M  V30 13986 C 1347.93 6.06088 -1.97321 0
M  V30 13987 C 1345.62 5.97323 -1.29029 0
M  V30 13988 C 1346.62 6.49659 -2.10788 0
M  V30 13989 O 1346.31 7.43918 -3.04698 0
M  V30 13990 H 1346.04 0.671895 0.074383 0
M  V30 13991 H 1348.59 2.00856 -0.429669 0
M  V30 13992 H 1346.82 3.4999 1.64451 0
M  V30 13993 H 1348.51 3.81947 1.37372 0
M  V30 13994 H 1349.28 4.76112 -0.924264 0
M  V30 13995 H 1345.16 4.60078 0.291422 0
M  V30 13996 H 1348.7 6.46863 -2.61177 0
M  V30 13997 H 1344.6 6.30397 -1.38815 0
M  V30 13998 H 1345.36 7.61698 -2.99598 0
M  V30 13999 N 1348.03 0.0217466 1.57585 0
M  V30 14000 C 1348.99 -0.947546 2.08696 0
M  V30 14001 C 1349.99 -1.25879 1.00055 0
M  V30 14002 O 1351.18 -1.20035 1.26242 0
M  V30 14003 C 1348.31 -2.26624 2.54665 0
M  V30 14004 H 1349.51 -0.505016 2.95617 0
M  V30 14005 H 1347.06 -0.226152 1.54655 0
M  V30 14006 H 1347.79 -2.75521 1.71052 0
M  V30 14007 H 1347.58 -2.05347 3.34028 0
M  V30 14008 H 1349.07 -2.96114 2.94459 0
M  V30 14009 N 1349.51 -1.55583 -0.251311 0
M  V30 14010 C 1350.75 -1.76859 -0.978031 0
M  V30 14011 C 1351.07 -0.584924 -1.86021 0
M  V30 14012 O 1350.34 0.399456 -1.91784 0
M  V30 14013 H 1348.92 -0.652252 -0.364111 0
M  V30 14014 H 1351.59 -1.93016 -0.270319 0
M  V30 14015 H 1350.68 -2.67828 -1.60233 0
M  V30 14016 N 1350.98 0.516783 -1.48886 0
M  V30 14017 C 1351.91 1.62897 -1.67292 0
M  V30 14018 C 1352.89 1.61903 -0.521671 0
M  V30 14019 O 1354.08 1.78892 -0.755728 0
M  V30 14020 C 1351.21 3.01444 -1.72478 0
M  V30 14021 C 1350.16 3.173 -2.87236 0
M  V30 14022 C 1349.49 4.5704 -2.77522 0
M  V30 14023 C 1350.79 2.98818 -4.28375 0
M  V30 14024 H 1352.48 1.47748 -2.60405 0
M  V30 14025 H 1350.03 0.709361 -1.25316 0
M  V30 14026 H 1351.98 3.79135 -1.83942 0
M  V30 14027 H 1350.71 3.17645 -0.759538 0
M  V30 14028 H 1349.37 2.4203 -2.75349 0
M  V30 14029 H 1349.01 4.70096 -1.78938 0
M  V30 14030 H 1348.71 4.68593 -3.54534 0
M  V30 14031 H 1350.24 5.36813 -2.90972 0
M  V30 14032 H 1351.65 3.66291 -4.41026 0
M  V30 14033 H 1350.05 3.21854 -5.06488 0
M  V30 14034 H 1351.12 1.95102 -4.43918 0
M  V30 14035 N 1352.46 1.37696 0.766659 0
M  V30 14036 C 1353.88 1.18607 1.06792 0
M  V30 14037 C 1354.08 0.0257195 2.01484 0
M  V30 14038 O 1353.13 -0.632608 2.44447 0
M  V30 14039 C 1354.45 2.50692 1.66054 0
M  V30 14040 C 1355.99 2.57259 1.78288 0
M  V30 14041 C 1356.47 3.89488 2.40963 0
M  V30 14042 N 1357.96 3.90957 2.48408 0
M  V30 14043 C 1358.7 4.90023 2.97767 0
M  V30 14044 N 1358.19 5.99485 3.4726 0
M  V30 14045 N 1359.98 4.77423 2.96688 0
M  V30 14046 H 1352.14 2.11951 0.138031 0
M  V30 14047 H 1354.4 0.939873 0.123863 0
M  V30 14048 H 1354.1 3.35989 1.03945 0
M  V30 14049 H 1353.98 2.68148 2.65286 0
M  V30 14050 H 1356.37 1.72366 2.39528 0
M  V30 14051 H 1356.45 2.43682 0.777981 0
M  V30 14052 H 1356.09 4.74797 1.8036 0
M  V30 14053 H 1356.02 4.0037 3.42069 0
M  V30 14054 H 1358.51 3.11888 2.13388 0
M  V30 14055 H 1358.82 6.71022 3.8334 0
M  V30 14056 H 1357.17 6.03123 3.45351 0
M  V30 14057 H 1360.36 3.91026 2.57325 0
M  V30 14058 H 1360.53 5.54783 3.34844 0
M  V30 14059 N 1353.94 -0.993397 1.22349 0
M  V30 14060 C 1354.87 -2.10171 1.01737 0
M  V30 14061 C 1355.85 -1.69989 -0.0615276 0
M  V30 14062 O 1357.04 -1.93939 0.100591 0
M  V30 14063 C 1354.17 -3.42186 0.593801 0
M  V30 14064 C 1353.12 -3.96215 1.61858 0
M  V30 14065 C 1352.45 -5.24272 1.05086 0
M  V30 14066 C 1353.75 -4.26956 3.00842 0
M  V30 14067 H 1355.44 -2.27673 1.94436 0
M  V30 14068 H 1352.99 -1.09408 0.936258 0
M  V30 14069 H 1354.94 -4.19131 0.436715 0
M  V30 14070 H 1353.66 -3.2451 -0.368855 0
M  V30 14071 H 1352.32 -3.21401 1.76343 0
M  V30 14072 H 1351.97 -5.02937 0.0795747 0
M  V30 14073 H 1351.67 -5.61387 1.73547 0
M  V30 14074 H 1353.19 -6.03851 0.905349 0
M  V30 14075 H 1354.61 -4.94699 2.89734 0
M  V30 14076 H 1353 -4.75242 3.66422 0
M  V30 14077 H 1354.07 -3.34752 3.50812 0
M  V30 14078 N 1355.42 -1.03311 -1.19015 0
M  V30 14079 C 1356.38 -0.622114 -2.20596 0
M  V30 14080 C 1357.38 0.316502 -1.57654 0
M  V30 14081 O 1358.57 0.102932 -1.73896 0
M  V30 14082 C 1355.7 0.0890432 -3.40784 0
M  V30 14083 H 1356.9 -1.52095 -2.58471 0
M  V30 14084 H 1354.45 -0.824777 -1.32767 0
M  V30 14085 H 1355.18 1.00203 -3.08431 0
M  V30 14086 H 1354.97 -0.58547 -3.87704 0
M  V30 14087 H 1356.46 0.363366 -4.16016 0
M  V30 14088 N 1356.9 1.35099 -0.81154 0
M  V30 14089 C 1357.81 2.33499 -0.22705 0
M  V30 14090 C 1358.82 1.62095 0.632562 0
M  V30 14091 O 1360 1.93938 0.543147 0
M  V30 14092 C 1357.06 3.41279 0.610687 0
M  V30 14093 C 1356.12 4.2845 -0.269994 0
M  V30 14094 C 1355.36 5.31083 0.527854 0
M  V30 14095 O 1355.58 5.42499 1.76213 0
M  V30 14096 O 1354.51 6.01842 -0.083862 0
M  V30 14097 H 1358.34 2.85294 -1.04119 0
M  V30 14098 H 1355.92 1.37957 -0.573432 0
M  V30 14099 H 1357.81 4.07121 1.08768 0
M  V30 14100 H 1356.48 2.91746 1.40235 0
M  V30 14101 H 1355.39 3.65572 -0.794234 0
M  V30 14102 H 1356.72 4.81394 -1.02572 0
M  V30 14103 N 1358.37 0.56548 1.47106 0
M  V30 14104 C 1359.62 0.0445914 2.02751 0
M  V30 14105 C 1359.95 -1.30517 1.43801 0
M  V30 14106 O 1359.23 -1.85123 0.596646 0
M  V30 14107 C 1359.51 -0.0396474 3.60078 0
M  V30 14108 C 1359.36 1.3378 4.29445 0
M  V30 14109 C 1360.68 -0.748954 4.3368 0
M  V30 14110 H 1357.8 0.0176787 0.736788 0
M  V30 14111 H 1360.44 0.729363 1.75443 0
M  V30 14112 H 1358.59 -0.622826 3.83475 0
M  V30 14113 H 1360.27 1.96482 4.17364 0
M  V30 14114 H 1358.51 1.91024 3.89477 0
M  V30 14115 H 1359.18 1.23149 5.38088 0
M  V30 14116 H 1361.66 -0.253707 4.15326 0
M  V30 14117 H 1360.53 -0.776877 5.43374 0
M  V30 14118 H 1360.79 -1.80679 4.03494 0
M  V30 14119 N 1359.85 -1.54672 0.302354 0
M  V30 14120 C 1361.26 -1.85731 -0.190019 0
M  V30 14121 C 1361.61 -1.22427 -1.53317 0
M  V30 14122 O 1360.74 -0.522461 -2.09998 0
M  V30 14123 C 1361.33 -3.36971 -0.351562 0
M  V30 14124 C 1359.89 -3.68056 -0.788155 0
M  V30 14125 C 1359.04 -2.7711 0.102705 0
M  V30 14126 H 1361.99 -1.49823 0.523324 0
M  V30 14127 H 1362.01 -3.61547 -1.18592 0
M  V30 14128 H 1361.52 -3.83016 0.626152 0
M  V30 14129 H 1359.63 -3.2753 -1.77637 0
M  V30 14130 H 1359.74 -4.75244 -0.606604 0
M  V30 14131 H 1358.1 -2.51243 -0.418235 0
M  V30 14132 H 1358.89 -3.25975 1.0768 0
M  V30 14133 N 1361.33 -0.0301034 -1.57571 0
M  V30 14134 C 1362.61 0.68703 -1.83137 0
M  V30 14135 C 1362.99 1.90277 -0.914216 0
M  V30 14136 O 1362.34 2.2848 0.0299358 0
M  V30 14137 C 1362.55 1.06431 -3.32375 0
M  V30 14138 C 1363.89 1.45554 -3.98873 0
M  V30 14139 O 1364.92 1.15727 -3.36877 0
M  V30 14140 O 1363.78 2.01133 -5.08142 0
M  V30 14141 H 1360.87 0.337141 -0.755159 0
M  V30 14142 H 1363.42 -0.0578604 -1.69601 0
M  V30 14143 H 1362.19 0.199077 -3.90793 0
M  V30 14144 H 1361.81 1.86734 -3.51022 0
M  V30 14145 N 1362.81 1.55714 0.243056 0
M  V30 14146 C 1363.74 1.93655 1.30461 0
M  V30 14147 C 1364.72 0.801968 1.50008 0
M  V30 14148 O 1365.9 1.06256 1.62552 0
M  V30 14149 C 1363.03 2.23459 2.65863 0
M  V30 14150 C 1361.99 3.39205 2.61006 0
M  V30 14151 C 1361.31 3.5456 4.00239 0
M  V30 14152 C 1362.61 4.74787 2.17656 0
M  V30 14153 H 1364.31 2.82575 0.98954 0
M  V30 14154 H 1361.85 1.35955 0.474572 0
M  V30 14155 H 1363.81 2.48591 3.40266 0
M  V30 14156 H 1362.53 1.31369 2.99014 0
M  V30 14157 H 1361.19 3.14088 1.89061 0
M  V30 14158 H 1360.84 2.59884 4.30661 0
M  V30 14159 H 1360.54 4.32399 3.97876 0
M  V30 14160 H 1362.06 3.82017 4.76335 0
M  V30 14161 H 1363.48 4.99266 2.81792 0
M  V30 14162 H 1361.87 5.55756 2.26397 0
M  V30 14163 H 1362.94 4.7159 1.12831 0
M  V30 14164 N 1364.29 -0.50888 1.49158 0
M  V30 14165 C 1365.22 -1.62008 1.68154 0
M  V30 14166 C 1366.2 -1.61624 0.53025 0
M  V30 14167 O 1367.38 -1.78489 0.765205 0
M  V30 14168 C 1364.51 -3.00525 1.74075 0
M  V30 14169 C 1363.47 -3.15773 2.88915 0
M  V30 14170 C 1362.79 -4.55562 2.79942 0
M  V30 14171 C 1364.09 -2.96542 4.29953 0
M  V30 14172 H 1365.79 -1.46365 2.61185 0
M  V30 14173 H 1363.33 -0.702705 1.2569 0
M  V30 14174 H 1365.29 -3.78154 1.8595 0
M  V30 14175 H 1364.01 -3.17238 0.776373 0
M  V30 14176 H 1362.67 -2.40567 2.76628 0
M  V30 14177 H 1362.32 -4.6914 1.81429 0
M  V30 14178 H 1362.02 -4.66706 3.57015 0
M  V30 14179 H 1363.54 -5.35262 2.93814 0
M  V30 14180 H 1364.95 -3.63947 4.42963 0
M  V30 14181 H 1363.35 -3.19164 5.08187 0
M  V30 14182 H 1364.42 -1.92745 4.44946 0
M  V30 14183 N 1365.76 -1.381 -0.759346 0
M  V30 14184 C 1366.67 -1.37086 -1.9038 0
M  V30 14185 C 1367.69 -0.268738 -1.71912 0
M  V30 14186 O 1368.87 -0.506205 -1.94935 0
M  V30 14187 C 1365.93 -1.18905 -3.25672 0
M  V30 14188 C 1364.99 -2.3887 -3.56707 0
M  V30 14189 C 1364.23 -2.21546 -4.85544 0
M  V30 14190 O 1364.45 -1.20616 -5.57501 0
M  V30 14191 O 1363.38 -3.10009 -5.15924 0
M  V30 14192 H 1367.21 -2.33505 -1.94188 0
M  V30 14193 H 1364.79 -1.18959 -0.903826 0
M  V30 14194 H 1366.68 -1.10803 -4.06572 0
M  V30 14195 H 1365.35 -0.255675 -3.22689 0
M  V30 14196 H 1364.26 -2.52546 -2.75992 0
M  V30 14197 H 1365.59 -3.30817 -3.64446 0
M  V30 14198 N 1367.24 0.986894 -1.22875 0
M  V30 14199 C 1368.19 2.07811 -1.00416 0
M  V30 14200 C 1369.16 1.65925 0.0761734 0
M  V30 14201 O 1370.34 1.90654 -0.0746294 0
M  V30 14202 C 1367.48 3.39941 -0.594471 0
M  V30 14203 C 1366.6 3.95134 -1.74622 0
M  V30 14204 C 1365.73 5.1545 -1.28394 0
M  V30 14205 C 1364.77 5.62794 -2.40686 0
M  V30 14206 N 1363.91 6.74343 -1.95462 0
M  V30 14207 H 1368.75 2.26356 -1.93822 0
M  V30 14208 H 1366.29 1.10966 -0.965661 0
M  V30 14209 H 1368.24 4.15828 -0.338078 0
M  V30 14210 H 1366.87 3.21379 0.302587 0
M  V30 14211 H 1365.93 3.16064 -2.11679 0
M  V30 14212 H 1367.24 4.26247 -2.59066 0
M  V30 14213 H 1366.39 5.98646 -0.98529 0
M  V30 14214 H 1365.13 4.85975 -0.409789 0
M  V30 14215 H 1364.14 4.78182 -2.71333 0
M  V30 14216 H 1365.36 5.9429 -3.28627 0
M  V30 14217 H 1363.31 6.46641 -1.10417 0
M  V30 14218 H 1363.22 7.04806 -2.73469 0
M  V30 14219 H 1364.49 7.6103 -1.68683 0
M  V30 14220 N 1368.72 1.0394 1.18466 0
M  V30 14221 C 1369.97 0.740576 1.88042 0
M  V30 14222 C 1370.29 -0.733822 1.80666 0
M  V30 14223 O 1369.56 -1.52943 1.22414 0
M  V30 14224 H 1368.14 0.270949 0.696129 0
M  V30 14225 H 1370.8 1.31588 1.43772 0
M  V30 14226 H 1369.9 1.04429 2.94111 0
M  V30 14227 N 1370.2 -1.34667 0.818693 0
M  V30 14228 C 1371.11 -2.33375 0.239429 0
M  V30 14229 C 1372.12 -1.62428 -0.623957 0
M  V30 14230 O 1373.3 -1.94223 -0.532854 0
M  V30 14231 C 1370.37 -3.41598 -0.59258 0
M  V30 14232 C 1369.43 -4.28301 0.292712 0
M  V30 14233 C 1368.66 -5.31356 -0.499682 0
M  V30 14234 O 1368.88 -5.43426 -1.73334 0
M  V30 14235 O 1367.82 -6.01789 0.115778 0
M  V30 14236 H 1371.64 -2.84738 1.05631 0
M  V30 14237 H 1369.23 -1.37651 0.58074 0
M  V30 14238 H 1371.11 -4.07692 -1.06607 0
M  V30 14239 H 1369.78 -2.92486 -1.38685 0
M  V30 14240 H 1368.69 -3.65145 0.81361 0
M  V30 14241 H 1370.02 -4.80843 1.05123 0
M  V30 14242 N 1371.68 -0.573274 -1.46804 0
M  V30 14243 C 1373.09 -0.23423 -1.57872 0
M  V30 14244 C 1373.29 1.26342 -1.56971 0
M  V30 14245 O 1372.35 2.04459 -1.48165 0
M  V30 14246 C 1373.66 -0.875097 -2.87685 0
M  V30 14247 C 1375.21 -0.847812 -3.01299 0
M  V30 14248 C 1375.68 -1.46804 -4.33835 0
M  V30 14249 N 1377.18 -1.43196 -4.4051 0
M  V30 14250 C 1377.91 -1.88133 -5.41658 0
M  V30 14251 N 1377.41 -2.41001 -6.49531 0
M  V30 14252 N 1379.2 -1.79107 -5.32801 0
M  V30 14253 H 1371.35 -1.54612 -1.45633 0
M  V30 14254 H 1373.61 -0.645703 -0.694098 0
M  V30 14255 H 1373.32 -1.92826 -2.94127 0
M  V30 14256 H 1373.19 -0.377671 -3.75305 0
M  V30 14257 H 1375.58 0.196707 -2.94444 0
M  V30 14258 H 1375.66 -1.38316 -2.1518 0
M  V30 14259 H 1375.31 -2.51171 -4.41447 0
M  V30 14260 H 1375.24 -0.908 -5.18713 0
M  V30 14261 H 1377.73 -1.04541 -3.63152 0
M  V30 14262 H 1378.04 -2.73172 -7.22908 0
M  V30 14263 H 1376.38 -2.45021 -6.50377 0
M  V30 14264 H 1379.58 -1.37569 -4.47429 0
M  V30 14265 H 1379.75 -2.14445 -6.11488 0
M  V30 14266 N 1373.15 1.5451 -0.310553 0
M  V30 14267 C 1374.08 2.26827 0.554243 0
M  V30 14268 C 1375.07 1.27133 1.13009 0
M  V30 14269 O 1376.25 1.55923 1.15765 0
M  V30 14270 C 1373.38 3.01626 1.7216 0
M  V30 14271 C 1372.33 4.08547 1.27566 0
M  V30 14272 C 1371.66 4.71115 2.52893 0
M  V30 14273 C 1372.96 5.20766 0.399955 0
M  V30 14274 H 1374.65 2.9936 -0.0489475 0
M  V30 14275 H 1372.2 1.43978 -0.0249817 0
M  V30 14276 H 1374.15 3.50942 2.33276 0
M  V30 14277 H 1372.88 2.26688 2.35118 0
M  V30 14278 H 1371.54 3.60096 0.687499 0
M  V30 14279 H 1371.18 3.92805 3.14186 0
M  V30 14280 H 1370.88 5.43331 2.23752 0
M  V30 14281 H 1372.41 5.23198 3.14796 0
M  V30 14282 H 1373.82 5.65918 0.917054 0
M  V30 14283 H 1372.22 5.9976 0.2019 0
M  V30 14284 H 1373.29 4.81508 -0.572537 0
M  V30 14285 N 1374.63 0.0384594 1.57553 0
M  V30 14286 C 1375.6 -0.925358 2.0969 0
M  V30 14287 C 1376.6 -1.24811 1.01385 0
M  V30 14288 O 1377.79 -1.1869 1.27508 0
M  V30 14289 C 1374.92 -2.2391 2.57055 0
M  V30 14290 H 1376.11 -0.473633 2.96136 0
M  V30 14291 H 1373.66 -0.209736 1.54886 0
M  V30 14292 H 1374.4 -2.73691 1.73964 0
M  V30 14293 H 1374.18 -2.01793 3.36188 0
M  V30 14294 H 1375.67 -2.92974 2.97583 0
M  V30 14295 N 1376.11 -1.55841 -0.234795 0
M  V30 14296 C 1377.04 -1.87793 -1.31402 0
M  V30 14297 C 1378.06 -0.765113 -1.43701 0
M  V30 14298 O 1379.25 -1.04332 -1.44834 0
M  V30 14299 C 1376.35 -2.05976 -2.69123 0
M  V30 14300 C 1375.52 -3.36914 -2.7894 0
M  V30 14301 C 1374.58 -3.44691 -3.97586 0
M  V30 14302 O 1373.6 -4.17818 -3.86545 0
M  V30 14303 N 1374.81 -2.74866 -5.11301 0
M  V30 14304 H 1377.57 -2.80957 -1.04324 0
M  V30 14305 H 1375.13 -1.56226 -0.424872 0
M  V30 14306 H 1377.12 -2.08507 -3.46853 0
M  V30 14307 H 1375.69 -1.195 -2.88857 0
M  V30 14308 H 1374.91 -3.46595 -1.87791 0
M  V30 14309 H 1376.2 -4.23196 -2.82458 0
M  V30 14310 H 1375.6 -2.15208 -5.23165 0
M  V30 14311 H 1374.16 -2.83075 -5.87122 0
M  V30 14312 N 1377.59 0.500963 -1.49426 0
M  V30 14313 C 1379 1.08248 -1.52116 0
M  V30 14314 C 1379.35 1.93777 -0.30738 0
M  V30 14315 O 1378.48 2.08404 0.582805 0
M  V30 14316 C 1379.07 1.96988 -2.75647 0
M  V30 14317 C 1377.63 2.50303 -2.81115 0
M  V30 14318 C 1376.78 1.27924 -2.4603 0
M  V30 14319 H 1379.73 0.284872 -1.56122 0
M  V30 14320 H 1379.75 2.81675 -2.55811 0
M  V30 14321 H 1379.26 1.34711 -3.6397 0
M  V30 14322 H 1377.36 3.16218 -1.97072 0
M  V30 14323 H 1377.48 2.87453 -3.83286 0
M  V30 14324 H 1375.84 1.60447 -1.9781 0
M  V30 14325 H 1376.62 0.673557 -3.36628 0
M  V30 14326 N 1379.07 1.38501 0.752011 0
M  V30 14327 C 1380 1.31746 1.87551 0
M  V30 14328 C 1381.01 0.229386 1.61176 0
M  V30 14329 O 1382.2 0.487066 1.71726 0
M  V30 14330 C 1379.3 1.01889 3.23221 0
M  V30 14331 C 1378.47 2.21637 3.77088 0
M  V30 14332 C 1377.53 1.885 4.91278 0
M  V30 14333 O 1376.56 2.61011 5.05828 0
M  V30 14334 N 1377.76 0.840909 5.74377 0
M  V30 14335 H 1380.53 2.28561 1.93856 0
M  V30 14336 H 1378.09 1.32383 0.932013 0
M  V30 14337 H 1380.08 0.777704 3.97157 0
M  V30 14338 H 1378.65 0.138658 3.12292 0
M  V30 14339 H 1377.87 2.61812 2.947 0
M  V30 14340 H 1379.16 3.01551 4.0981 0
M  V30 14341 H 1378.56 0.23962 5.65192 0
M  V30 14342 H 1377.11 0.659604 6.48454 0
M  V30 14343 N 1380.55 -0.980364 1.23396 0
M  V30 14344 C 1381.79 -1.71592 1.06015 0
M  V30 14345 C 1382.11 -1.91401 -0.403103 0
M  V30 14346 O 1383.31 -2.62405 -0.696853 0
M  V30 14347 C 1381.77 -3.08795 1.84861 0
M  V30 14348 C 1381.38 -2.96873 3.35515 0
M  V30 14349 C 1383.12 -3.8631 1.75968 0
M  V30 14350 C 1381.03 -4.29308 4.06753 0
M  V30 14351 H 1379.96 -0.643423 0.393095 0
M  V30 14352 H 1382.61 -1.09345 1.47363 0
M  V30 14353 H 1380.99 -3.71797 1.36318 0
M  V30 14354 H 1382.17 -2.4296 3.91544 0
M  V30 14355 H 1380.48 -2.32833 3.45221 0
M  V30 14356 H 1383.08 -4.84355 2.26504 0
M  V30 14357 H 1383.42 -4.09983 0.722464 0
M  V30 14358 H 1383.95 -3.3001 2.22122 0
M  V30 14359 H 1380.69 -4.10831 5.10782 0
M  V30 14360 H 1380.21 -4.83086 3.55511 0
M  V30 14361 H 1381.89 -4.97995 4.1305 0
M  V30 14362 N 1382.02 -1.04567 -1.17913 0
M  V30 14363 C 1383.26 -0.760977 -1.89706 0
M  V30 14364 C 1383.63 0.698804 -1.78832 0
M  V30 14365 O 1384.83 1.09733 -2.45382 0
M  V30 14366 C 1383.1 -1.22042 -3.35917 0
M  V30 14367 S 1384.66 -1.06214 -4.25751 0
M  V30 14368 H 1381.48 -0.276538 -0.655017 0
M  V30 14369 H 1384.08 -1.339 -1.42446 0
M  V30 14370 H 1382.78 -2.27813 -3.41364 0
M  V30 14371 H 1382.31 -0.636401 -3.88218 0
M  V30 14372 H 1384.33 0.0174486 -4.96197 0
M  V30 14373 N 1383.5 1.34231 -0.825823 0
M  V30 14374 C 1384.73 2.02417 -0.428348 0
M  V30 14375 C 1385.14 1.62181 0.966573 0
M  V30 14376 O 1384.5 0.828691 1.62601 0
M  V30 14377 C 1384.55 3.57678 -0.524271 0
M  V30 14378 O 1384.27 3.96458 -1.86422 0
M  V30 14379 C 1385.77 4.43132 -0.122069 0
M  V30 14380 H 1382.99 0.648699 -0.171554 0
M  V30 14381 H 1385.54 1.71443 -1.11478 0
M  V30 14382 H 1383.69 3.87232 0.114112 0
M  V30 14383 H 1384.11 4.91147 -1.84051 0
M  V30 14384 H 1385.58 5.51477 -0.240264 0
M  V30 14385 H 1386.06 4.29139 0.934705 0
M  V30 14386 H 1386.66 4.18912 -0.734366 0
M  V30 14387 N 1384.98 0.581051 1.46498 0
M  V30 14388 C 1386.23 0.0637189 2.01599 0
M  V30 14389 C 1386.54 -1.30353 1.45834 0
M  V30 14390 O 1387.75 -1.91211 1.92745 0
M  V30 14391 C 1386.2 0.0633254 3.59844 0
M  V30 14392 C 1385.81 1.42879 4.24605 0
M  V30 14393 C 1387.56 -0.400149 4.2261 0
M  V30 14394 C 1385.46 1.38621 5.74924 0
M  V30 14395 H 1384.39 0.0200512 0.753733 0
M  V30 14396 H 1387.04 0.732451 1.68248 0
M  V30 14397 H 1385.43 -0.671538 3.90264 0
M  V30 14398 H 1386.6 2.18325 4.05796 0
M  V30 14399 H 1384.91 1.83215 3.73927 0
M  V30 14400 H 1387.51 -0.450771 5.32797 0
M  V30 14401 H 1387.85 -1.41733 3.9143 0
M  V30 14402 H 1388.39 0.280598 3.96809 0
M  V30 14403 H 1385.13 2.38014 6.10761 0
M  V30 14404 H 1384.65 0.673926 5.96002 0
M  V30 14405 H 1386.33 1.09841 6.37608 0
M  V30 14406 N 1386.46 -1.54343 0.318742 0
M  V30 14407 C 1387.73 -1.92635 -0.339299 0
M  V30 14408 C 1388.11 -1.24786 -1.7027 0
M  V30 14409 O 1387.46 -0.389844 -2.2515 0
M  V30 14410 C 1387.67 -3.46262 -0.436318 0
M  V30 14411 C 1389.02 -4.18809 -0.698871 0
M  V30 14412 O 1390.04 -3.52392 -0.519431 0
M  V30 14413 O 1388.9 -5.36422 -1.04471 0
M  V30 14414 H 1386 -0.804202 -0.192841 0
M  V30 14415 H 1388.54 -1.6566 0.368104 0
M  V30 14416 H 1387.32 -3.8781 0.521427 0
M  V30 14417 H 1386.94 -3.79327 -1.19149 0
M  V30 14418 N 1387.94 -0.0468143 -1.5753 0
M  V30 14419 C 1389.18 0.628869 -1.92803 0
M  V30 14420 C 1389.51 1.70751 -0.925083 0
M  V30 14421 O 1388.79 1.94437 0.0495821 0
M  V30 14422 C 1389.07 1.22899 -3.38479 0
M  V30 14423 C 1388.93 0.158707 -4.4952 0
M  V30 14424 C 1390.24 2.1419 -3.84461 0
M  V30 14425 H 1387.36 0.227137 -0.701126 0
M  V30 14426 H 1390.01 -0.107689 -1.89695 0
M  V30 14427 H 1388.16 1.85674 -3.41259 0
M  V30 14428 H 1389.83 -0.472963 -4.58869 0
M  V30 14429 H 1388.07 -0.51375 -4.30747 0
M  V30 14430 H 1388.74 0.618545 -5.48523 0
M  V30 14431 H 1391.22 1.61382 -3.8353 0
M  V30 14432 H 1390.09 2.53125 -4.87051 0
M  V30 14433 H 1390.35 3.04024 -3.2097 0
M  V30 14434 N 1389.41 1.55964 0.226527 0
M  V30 14435 C 1390.64 1.82558 0.967269 0
M  V30 14436 C 1391.05 0.623034 1.78647 0
M  V30 14437 O 1390.4 -0.41779 1.78886 0
M  V30 14438 C 1390.46 3.02812 1.93766 0
M  V30 14439 C 1390.12 4.38017 1.30345 0
M  V30 14440 C 1391.12 5.15223 0.695793 0
M  V30 14441 C 1388.8 4.84735 1.31671 0
M  V30 14442 C 1390.8 6.37305 0.109849 0
M  V30 14443 C 1388.48 6.06761 0.726919 0
M  V30 14444 C 1389.48 6.82886 0.124537 0
M  V30 14445 O 1389.17 8.02605 -0.45609 0
M  V30 14446 H 1388.9 0.610967 0.289301 0
M  V30 14447 H 1391.46 2.03892 0.248407 0
M  V30 14448 H 1389.69 2.77283 2.69538 0
M  V30 14449 H 1391.38 3.16321 2.54353 0
M  V30 14450 H 1392.14 4.80239 0.677912 0
M  V30 14451 H 1388.02 4.2546 1.77496 0
M  V30 14452 H 1391.56 6.96666 -0.360953 0
M  V30 14453 H 1387.46 6.41219 0.742196 0
M  V30 14454 H 1388.23 8.17752 -0.349926 0
M  V30 14455 N 1390.89 -0.493031 1.4969 0
M  V30 14456 C 1391.83 -1.61165 1.61558 0
M  V30 14457 C 1392.8 -1.55828 0.464363 0
M  V30 14458 O 1393.99 -1.7577 0.680973 0
M  V30 14459 C 1391.11 -2.997 1.5779 0
M  V30 14460 C 1390.16 -3.2327 2.78207 0
M  V30 14461 S 1390.99 -3.05531 4.39785 0
M  V30 14462 C 1392.15 -4.46447 4.38675 0
M  V30 14463 H 1392.38 -1.50854 2.56185 0
M  V30 14464 H 1389.92 -0.678777 1.38679 0
M  V30 14465 H 1391.87 -3.79579 1.56302 0
M  V30 14466 H 1390.53 -3.07419 0.644379 0
M  V30 14467 H 1389.73 -4.24422 2.71812 0
M  V30 14468 H 1389.33 -2.51126 2.77149 0
M  V30 14469 H 1391.62 -5.38683 4.10886 0
M  V30 14470 H 1392.56 -4.5789 5.40132 0
M  V30 14471 H 1392.97 -4.27499 3.68652 0
M  V30 14472 N 1392.37 -1.38898 -0.744656 0
M  V30 14473 C 1393.62 -1.35795 -1.50623 0
M  V30 14474 C 1393.95 0.0491775 -1.94138 0
M  V30 14475 O 1393.22 1.01219 -1.66087 0
M  V30 14476 C 1393.51 -2.32168 -2.75263 0
M  V30 14477 C 1393.36 -3.81781 -2.3783 0
M  V30 14478 C 1394.68 -2.26526 -3.77325 0
M  V30 14479 H 1391.8 -0.494591 -0.546396 0
M  V30 14480 H 1394.44 -1.69816 -0.852211 0
M  V30 14481 H 1392.59 -2.03287 -3.31069 0
M  V30 14482 H 1394.26 -4.21373 -1.8773 0
M  V30 14483 H 1392.51 -3.99027 -1.70176 0
M  V30 14484 H 1393.18 -4.44687 -3.27044 0
M  V30 14485 H 1395.65 -2.52041 -3.31081 0
M  V30 14486 H 1394.53 -2.96053 -4.62216 0
M  V30 14487 H 1394.79 -1.26705 -4.23554 0
M  V30 14488 N 1393.85 0.973806 -1.23914 0
M  V30 14489 C 1394.78 2.06588 -0.969372 0
M  V30 14490 C 1395.76 1.62324 0.0946926 0
M  V30 14491 O 1396.94 1.88455 -0.0409587 0
M  V30 14492 C 1394.07 3.35539 -0.461665 0
M  V30 14493 C 1393.12 3.98748 -1.51334 0
M  V30 14494 S 1393.95 4.37156 -3.09281 0
M  V30 14495 C 1395.11 5.69252 -2.60197 0
M  V30 14496 H 1395.34 2.29153 -1.8941 0
M  V30 14497 H 1392.87 1.11089 -1.07231 0
M  V30 14498 H 1394.83 4.10125 -0.175355 0
M  V30 14499 H 1393.49 3.10971 0.442253 0
M  V30 14500 H 1392.68 4.91661 -1.10839 0
M  V30 14501 H 1392.29 3.30566 -1.74934 0
M  V30 14502 H 1394.58 6.46489 -2.02628 0
M  V30 14503 H 1395.52 6.14598 -3.51675 0
M  V30 14504 H 1395.93 5.27568 -2.00828 0
M  V30 14505 N 1395.33 1.05191 1.17357 0
M  V30 14506 C 1396.57 0.763113 1.87895 0
M  V30 14507 C 1396.91 -0.708071 1.80831 0
M  V30 14508 O 1396.18 -1.51777 1.21631 0
M  V30 14509 C 1396.46 1.2442 3.37923 0
M  V30 14510 C 1396.32 2.77832 3.53737 0
M  V30 14511 C 1397.64 0.843209 4.31947 0
M  V30 14512 H 1394.75 0.27869 0.682276 0
M  V30 14513 H 1397.4 1.3059 1.38008 0
M  V30 14514 H 1395.55 0.782438 3.80539 0
M  V30 14515 H 1397.22 3.32131 3.20135 0
M  V30 14516 H 1395.46 3.17108 2.96015 0
M  V30 14517 H 1396.13 3.06555 4.59052 0
M  V30 14518 H 1398.61 1.24073 3.97171 0
M  V30 14519 H 1397.48 1.20743 5.35455 0
M  V30 14520 H 1397.75 -0.252802 4.41377 0
M  V30 14521 N 1396.8 -1.33791 0.83293 0
M  V30 14522 C 1397.75 -2.29332 0.25989 0
M  V30 14523 C 1398.72 -1.54056 -0.620965 0
M  V30 14524 O 1399.91 -1.82382 -0.560492 0
M  V30 14525 C 1397.05 -3.40461 -0.563964 0
M  V30 14526 C 1396.16 -4.30658 0.34025 0
M  V30 14527 C 1395.29 -5.28897 -0.494134 0
M  V30 14528 C 1394.33 -6.10733 0.408842 0
M  V30 14529 N 1393.47 -7.01032 -0.38706 0
M  V30 14530 H 1398.31 -2.77743 1.07996 0
M  V30 14531 H 1395.85 -1.3667 0.544043 0
M  V30 14532 H 1397.81 -4.03587 -1.05704 0
M  V30 14533 H 1396.44 -2.93258 -1.34905 0
M  V30 14534 H 1395.49 -3.68305 0.9516 0
M  V30 14535 H 1396.8 -4.87962 1.03415 0
M  V30 14536 H 1395.95 -5.97522 -1.05128 0
M  V30 14537 H 1394.69 -4.72155 -1.2215 0
M  V30 14538 H 1393.7 -5.41031 0.978046 0
M  V30 14539 H 1394.92 -6.69557 1.13448 0
M  V30 14540 H 1392.87 -6.46747 -1.09792 0
M  V30 14541 H 1392.79 -7.55592 0.248249 0
M  V30 14542 H 1394.05 -7.73973 -0.926631 0
M  V30 14543 N 1398.28 -0.588812 -1.46187 0
M  V30 14544 C 1399.52 -0.0794904 -2.04245 0
M  V30 14545 C 1399.89 1.25893 -1.44965 0
M  V30 14546 O 1401.09 1.85785 -1.94261 0
M  V30 14547 C 1399.36 -0.0210846 -3.57394 0
M  V30 14548 S 1400.92 0.429775 -4.3669 0
M  V30 14549 H 1397.74 -0.0404337 -0.709849 0
M  V30 14550 H 1400.34 -0.782686 -1.79149 0
M  V30 14551 H 1399.04 -0.999032 -3.98055 0
M  V30 14552 H 1398.57 0.704691 -3.87037 0
M  V30 14553 H 1400.59 1.68327 -4.66777 0
M  V30 14554 N 1399.76 1.54172 -0.326923 0
M  V30 14555 C 1401.01 2.01629 0.267798 0
M  V30 14556 C 1401.36 1.21092 1.49514 0
M  V30 14557 O 1400.65 0.285854 1.89456 0
M  V30 14558 C 1400.85 3.51429 0.650553 0
M  V30 14559 C 1400.68 4.46468 -0.538148 0
M  V30 14560 C 1399.45 4.94517 -1.0383 0
M  V30 14561 C 1401.65 4.95121 -1.3914 0
M  V30 14562 N 1399.63 5.73468 -2.19106 0
M  V30 14563 C 1401 5.7203 -2.39128 0
M  V30 14564 C 1403.05 4.77258 -1.41877 0
M  V30 14565 C 1401.76 6.32977 -3.41662 0
M  V30 14566 C 1403.78 5.39043 -2.43284 0
M  V30 14567 C 1403.14 6.15805 -3.41999 0
M  V30 14568 H 1399.24 0.779558 0.0617482 0
M  V30 14569 H 1401.83 1.89122 -0.462723 0
M  V30 14570 H 1400 3.64176 1.3502 0
M  V30 14571 H 1401.73 3.8565 1.22703 0
M  V30 14572 H 1398.49 4.69668 -0.609043 0
M  V30 14573 H 1398.91 6.1762 -2.77262 0
M  V30 14574 H 1403.55 4.1747 -0.669238 0
M  V30 14575 H 1401.27 6.91883 -4.1752 0
M  V30 14576 H 1404.86 5.27136 -2.46208 0
M  V30 14577 H 1403.74 6.62764 -4.19181 0
M  V30 14578 N 1401.24 0.0551678 1.57503 0
M  V30 14579 C 1402.17 -0.953348 2.07332 0
M  V30 14580 C 1403.15 -1.30148 0.974699 0
M  V30 14581 O 1404.33 -1.41366 1.24692 0
M  V30 14582 C 1401.46 -2.26622 2.51715 0
M  V30 14583 C 1400.51 -2.07085 3.72851 0
M  V30 14584 S 1401.34 -1.34553 5.1832 0
M  V30 14585 C 1402.5 -2.67155 5.6602 0
M  V30 14586 H 1402.73 -0.529294 2.9255 0
M  V30 14587 H 1400.26 -0.157196 1.53598 0
M  V30 14588 H 1402.22 -3.02085 2.77948 0
M  V30 14589 H 1400.88 -2.66155 1.66795 0
M  V30 14590 H 1400.07 -3.04206 4.01839 0
M  V30 14591 H 1399.68 -1.39761 3.46905 0
M  V30 14592 H 1401.97 -3.63309 5.7185 0
M  V30 14593 H 1402.91 -2.42798 6.65173 0
M  V30 14594 H 1403.32 -2.73597 4.93766 0
M  V30 14595 N 1402.72 -1.56081 -0.218252 0
M  V30 14596 C 1403.97 -1.78445 -0.94022 0
M  V30 14597 C 1404.28 -0.624317 -1.85369 0
M  V30 14598 O 1405.48 -0.731669 -2.61455 0
M  V30 14599 C 1403.94 -3.16026 -1.72208 0
M  V30 14600 C 1403.55 -4.39774 -0.854584 0
M  V30 14601 C 1405.29 -3.47714 -2.43506 0
M  V30 14602 C 1403.2 -5.68379 -1.63398 0
M  V30 14603 H 1402.13 -0.665303 -0.354806 0
M  V30 14604 H 1404.78 -1.82471 -0.194021 0
M  V30 14605 H 1403.16 -3.06185 -2.5113 0
M  V30 14606 H 1404.34 -4.60679 -0.105659 0
M  V30 14607 H 1402.65 -4.15627 -0.253562 0
M  V30 14608 H 1405.25 -4.41026 -3.02325 0
M  V30 14609 H 1405.59 -2.70367 -3.16555 0
M  V30 14610 H 1406.12 -3.58899 -1.71571 0
M  V30 14611 H 1402.86 -6.48628 -0.946704 0
M  V30 14612 H 1402.38 -5.5153 -2.35743 0
M  V30 14613 H 1404.06 -6.08672 -2.1938 0
M  V30 14614 N 1404.2 0.485086 -1.49949 0
M  V30 14615 C 1405.47 1.24639 -1.50747 0
M  V30 14616 C 1405.85 2.09683 -0.244162 0
M  V30 14617 O 1405.2 2.1503 0.772949 0
M  V30 14618 C 1405.41 2.08946 -2.7954 0
M  V30 14619 C 1406.76 2.67604 -3.29656 0
M  V30 14620 O 1407.78 2.192 -2.80766 0
M  V30 14621 O 1406.64 3.55761 -4.14845 0
M  V30 14622 H 1403.74 0.564849 -0.604049 0
M  V30 14623 H 1406.28 0.498052 -1.62227 0
M  V30 14624 H 1405.05 1.46185 -3.62968 0
M  V30 14625 H 1404.68 2.90941 -2.70997 0
M  V30 14626 N 1405.67 1.39291 0.737279 0
M  V30 14627 C 1406.58 1.40098 1.88175 0
M  V30 14628 C 1407.6 0.296053 1.71463 0
M  V30 14629 O 1408.78 0.537153 1.94105 0
M  V30 14630 C 1405.84 1.24071 3.2374 0
M  V30 14631 C 1404.9 2.44515 3.52861 0
M  V30 14632 C 1404.13 2.29243 4.81958 0
M  V30 14633 O 1404.36 1.2947 5.55512 0
M  V30 14634 O 1403.29 3.18178 5.10927 0
M  V30 14635 H 1407.12 2.36565 1.90449 0
M  V30 14636 H 1404.7 1.20382 0.884786 0
M  V30 14637 H 1406.58 1.17257 4.04758 0
M  V30 14638 H 1405.26 0.30698 3.22241 0
M  V30 14639 H 1404.17 2.56905 2.71939 0
M  V30 14640 H 1405.5 3.36573 3.59137 0
M  V30 14641 N 1407.15 -0.967221 1.24429 0
M  V30 14642 C 1408.1 -2.08315 1.03478 0
M  V30 14643 C 1409.09 -1.69373 -0.0304332 0
M  V30 14644 O 1410.3 -1.79571 0.124162 0
M  V30 14645 H 1406.67 -0.681638 0.317605 0
M  V30 14646 H 1408.65 -2.23148 1.9811 0
M  V30 14647 C 1407.39 -3.41441 0.656778 0
M  V30 14648 H 1406.72 -3.71865 1.4682 0
M  V30 14649 H 1408.16 -4.2042 0.549791 0
M  V30 14650 C 1406.62 -3.30839 -0.636154 0
M  V30 14651 O 1407.15 -3.64802 -1.68175 0
M  V30 14652 N 1405.35 -2.83973 -0.617052 0
M  V30 14653 H 1404.9 -2.56533 0.234179 0
M  V30 14654 H 1404.86 -2.77262 -1.48233 0
M  V30 14655 N 1408.63 -1.05812 -1.16797 0
M  V30 14656 C 1409.88 -0.767008 -1.86547 0
M  V30 14657 C 1410.19 0.708979 -1.82299 0
M  V30 14658 O 1411.4 1.11428 -2.4758 0
M  V30 14659 C 1409.85 -1.32186 -3.34746 0
M  V30 14660 C 1409.46 -2.82774 -3.4748 0
M  V30 14661 C 1411.21 -1.10808 -4.09783 0
M  V30 14662 C 1409.11 -3.31529 -4.89737 0
M  V30 14663 H 1408.04 -0.283235 -0.698781 0
M  V30 14664 H 1410.69 -1.27621 -1.31853 0
M  V30 14665 H 1409.08 -0.740453 -3.89016 0
M  V30 14666 H 1410.25 -3.46825 -3.03396 0
M  V30 14667 H 1408.56 -3.02765 -2.85871 0
M  V30 14668 H 1411.16 -1.44728 -5.14741 0
M  V30 14669 H 1411.5 -0.046167 -4.16274 0
M  V30 14670 H 1412.04 -1.65502 -3.61737 0
M  V30 14671 H 1408.78 -4.37177 -4.88422 0
M  V30 14672 H 1408.3 -2.72224 -5.34466 0
M  V30 14673 H 1409.98 -3.26572 -5.58534 0
M  V30 14674 N 1410.11 1.33347 -0.840014 0
M  V30 14675 C 1411.52 1.50615 -0.52795 0
M  V30 14676 C 1411.72 1.77993 0.944493 0
M  V30 14677 O 1410.78 1.84087 1.72824 0
M  V30 14678 C 1412.09 2.66001 -1.40228 0
M  V30 14679 C 1413.64 2.79886 -1.40117 0
M  V30 14680 C 1414.12 3.98335 -2.26038 0
M  V30 14681 N 1415.61 4.05572 -2.23753 0
M  V30 14682 C 1416.34 4.96422 -2.86972 0
M  V30 14683 N 1415.84 5.9238 -3.59247 0
M  V30 14684 N 1417.63 4.89428 -2.76436 0
M  V30 14685 H 1409.78 1.13839 -1.79317 0
M  V30 14686 H 1412.04 0.559772 -0.765088 0
M  V30 14687 H 1411.75 2.52453 -2.44868 0
M  V30 14688 H 1411.62 3.61434 -1.07914 0
M  V30 14689 H 1414.01 2.92865 -0.362487 0
M  V30 14690 H 1414.09 1.85211 -1.76439 0
M  V30 14691 H 1413.74 3.86115 -3.29966 0
M  V30 14692 H 1413.67 4.92257 -1.87057 0
M  V30 14693 H 1416.16 3.36899 -1.71195 0
M  V30 14694 H 1416.47 6.58367 -4.04688 0
M  V30 14695 H 1414.82 5.92451 -3.63354 0
M  V30 14696 H 1418.01 4.13428 -2.19534 0
M  V30 14697 H 1418.18 5.60032 -3.25989 0
M  V30 14698 N 1411.59 0.596556 1.45873 0
M  V30 14699 C 1413 0.173758 1.8589 0
M  V30 14700 C 1413.35 -1.26665 1.49835 0
M  V30 14701 O 1412.47 -1.9588 0.919773 0
M  V30 14702 C 1413.07 0.308567 3.37392 0
M  V30 14703 C 1411.63 -0.0594585 3.76353 0
M  V30 14704 C 1410.77 0.638127 2.69858 0
M  V30 14705 H 1413.72 0.803928 1.36831 0
M  V30 14706 H 1413.75 -0.462294 3.77681 0
M  V30 14707 H 1413.26 1.35701 3.63603 0
M  V30 14708 H 1411.36 -1.1075 3.5576 0
M  V30 14709 H 1411.47 0.326506 4.77986 0
M  V30 14710 H 1409.84 0.0769147 2.54584 0
M  V30 14711 H 1410.62 1.68849 2.98906 0
M  V30 14712 N 1413.06 -1.53996 0.335095 0
M  V30 14713 C 1414.29 -2.05188 -0.26563 0
M  V30 14714 C 1414.71 -1.21058 -1.44881 0
M  V30 14715 O 1414.06 -0.243919 -1.80863 0
M  V30 14716 C 1414.11 -3.54875 -0.688904 0
M  V30 14717 O 1413.84 -4.35811 0.447217 0
M  V30 14718 C 1415.34 -4.22204 -1.35123 0
M  V30 14719 H 1412.56 -0.668921 -0.0527806 0
M  V30 14720 H 1415.1 -1.98675 0.48463 0
M  V30 14721 H 1413.26 -3.61638 -1.38912 0
M  V30 14722 H 1413.67 -5.24381 0.111495 0
M  V30 14723 H 1415.14 -5.28356 -1.59823 0
M  V30 14724 H 1415.62 -3.74029 -2.30216 0
M  V30 14725 H 1416.23 -4.19611 -0.693283 0
M  V30 14726 N 1414.54 -0.0635198 -1.57472 0
M  V30 14727 C 1415.79 0.607484 -1.93173 0
M  V30 14728 C 1416.12 1.70117 -0.942897 0
M  V30 14729 O 1415.37 1.95653 0.042832 0
M  V30 14730 C 1415.67 1.23117 -3.35525 0
M  V30 14731 C 1415.34 0.264457 -4.50124 0
M  V30 14732 C 1414 -0.00151762 -4.812 0
M  V30 14733 C 1416.35 -0.39737 -5.19683 0
M  V30 14734 C 1413.68 -0.936547 -5.79177 0
M  V30 14735 C 1416.03 -1.32067 -6.18661 0
M  V30 14736 C 1414.69 -1.59519 -6.48159 0
M  V30 14737 H 1413.96 0.222294 -0.706871 0
M  V30 14738 H 1416.61 -0.132633 -1.9104 0
M  V30 14739 H 1414.92 2.04684 -3.34084 0
M  V30 14740 H 1416.61 1.7575 -3.60434 0
M  V30 14741 H 1413.2 0.481945 -4.25882 0
M  V30 14742 H 1417.39 -0.20499 -4.95876 0
M  V30 14743 H 1412.64 -1.15658 -6.00361 0
M  V30 14744 H 1416.82 -1.83949 -6.71666 0
M  V30 14745 H 1414.44 -2.32134 -7.23891 0
M  V30 14746 N 1416.02 1.56195 0.209972 0
M  V30 14747 C 1416.97 1.93355 1.26026 0
M  V30 14748 C 1417.94 0.792195 1.45991 0
M  V30 14749 O 1419.12 1.04909 1.5937 0
M  V30 14750 C 1416.26 2.26558 2.60318 0
M  V30 14751 C 1415.37 3.53685 2.48055 0
M  V30 14752 C 1414.51 3.76279 3.7495 0
M  V30 14753 C 1413.55 4.96881 3.57457 0
M  V30 14754 N 1412.69 5.15806 4.76328 0
M  V30 14755 H 1417.53 2.82907 0.936357 0
M  V30 14756 H 1415.06 1.40015 0.451022 0
M  V30 14757 H 1417.02 2.43821 3.38537 0
M  V30 14758 H 1415.65 1.40165 2.90781 0
M  V30 14759 H 1414.7 3.44551 1.61211 0
M  V30 14760 H 1416.01 4.42057 2.31056 0
M  V30 14761 H 1415.17 3.93702 4.6161 0
M  V30 14762 H 1413.91 2.86209 3.94887 0
M  V30 14763 H 1412.91 4.79397 2.69181 0
M  V30 14764 H 1414.14 5.88447 3.38979 0
M  V30 14765 H 1412.08 4.28681 4.96557 0
M  V30 14766 H 1412 5.98332 4.62099 0
M  V30 14767 H 1413.27 5.37674 5.64382 0
M  V30 14768 N 1417.5 -0.477127 1.50204 0
M  V30 14769 C 1418.41 -1.60182 1.71403 0
M  V30 14770 C 1419.42 -1.63437 0.597009 0
M  V30 14771 O 1420.6 -1.81418 0.874614 0
M  V30 14772 C 1417.66 -2.96432 1.79802 0
M  V30 14773 C 1416.73 -3.03614 3.03508 0
M  V30 14774 C 1415.96 -4.33365 3.11497 0
M  V30 14775 O 1416.18 -5.23529 2.26438 0
M  V30 14776 O 1415.12 -4.46013 4.04173 0
M  V30 14777 H 1418.94 -1.45221 2.66729 0
M  V30 14778 H 1416.53 -0.655982 1.34228 0
M  V30 14779 H 1418.41 -3.77367 1.87542 0
M  V30 14780 H 1417.08 -3.11605 0.876581 0
M  V30 14781 H 1415.99 -2.21779 3.01272 0
M  V30 14782 H 1417.32 -2.93376 3.95211 0
M  V30 14783 N 1418.98 -1.3968 -0.729882 0
M  V30 14784 C 1419.91 -1.41549 -1.85704 0
M  V30 14785 C 1420.89 -0.278186 -1.6781 0
M  V30 14786 O 1422.07 -0.484749 -1.88053 0
M  V30 14787 C 1419.2 -1.26327 -3.2351 0
M  V30 14788 C 1418.16 -2.37511 -3.56051 0
M  V30 14789 C 1417.48 -2.07375 -4.92849 0
M  V30 14790 C 1418.78 -3.79833 -3.58502 0
M  V30 14791 H 1420.48 -2.35877 -1.84398 0
M  V30 14792 H 1418.02 -1.13536 -0.885747 0
M  V30 14793 H 1419.98 -1.26254 -4.02042 0
M  V30 14794 H 1418.7 -0.284697 -3.25357 0
M  V30 14795 H 1417.36 -2.36809 -2.79852 0
M  V30 14796 H 1417.01 -1.07943 -4.91281 0
M  V30 14797 H 1416.71 -2.81855 -5.15588 0
M  V30 14798 H 1418.23 -2.08961 -5.73731 0
M  V30 14799 H 1419.64 -3.82436 -4.27101 0
M  V30 14800 H 1418.04 -4.53715 -3.92763 0
M  V30 14801 H 1419.11 -4.10443 -2.58195 0
M  V30 14802 N 1420.45 0.960609 -1.2494 0
M  V30 14803 C 1421.42 2.03791 -1.04891 0
M  V30 14804 C 1422.42 1.608 -0.00375792 0
M  V30 14805 O 1423.61 1.72463 -0.24539 0
M  V30 14806 C 1420.74 3.35733 -0.591309 0
M  V30 14807 H 1421.93 2.2301 -2.00516 0
M  V30 14808 H 1419.49 1.13686 -1.07263 0
M  V30 14809 H 1420.22 3.22207 0.367816 0
M  V30 14810 H 1420.01 3.68283 -1.34574 0
M  V30 14811 H 1421.5 4.14921 -0.472283 0
M  V30 14812 N 1421.93 1.0643 1.16234 0
M  V30 14813 C 1422.88 0.670457 2.22728 0
M  V30 14814 C 1423.87 -0.31428 1.66459 0
M  V30 14815 O 1425.08 -0.178996 1.79108 0
M  V30 14816 H 1421.46 0.198692 0.725276 0
M  V30 14817 H 1423.43 1.57846 2.53233 0
M  V30 14818 C 1422.18 0.074379 3.4762 0
M  V30 14819 H 1421.5 0.823227 3.91233 0
M  V30 14820 H 1422.94 -0.163652 4.23684 0
M  V30 14821 C 1421.4 -1.18242 3.15469 0
M  V30 14822 O 1421.93 -2.27018 3.314 0
M  V30 14823 N 1420.13 -1.08493 2.69588 0
M  V30 14824 H 1419.68 -0.199714 2.56825 0
M  V30 14825 H 1419.64 -1.92666 2.48449 0
M  V30 14826 N 1423.41 -1.329 0.847073 0
M  V30 14827 C 1424.32 -2.32815 0.288878 0
M  V30 14828 C 1425.34 -1.63715 -0.589363 0
M  V30 14829 O 1426.51 -1.9531 -0.491537 0
M  V30 14830 C 1423.58 -3.42778 -0.519988 0
M  V30 14831 C 1422.64 -4.27584 0.383496 0
M  V30 14832 C 1421.87 -5.32296 -0.386862 0
M  V30 14833 O 1422.09 -5.4698 -1.61768 0
M  V30 14834 O 1421.03 -6.01408 0.2434 0
M  V30 14835 H 1424.85 -2.82434 1.11647 0
M  V30 14836 H 1422.44 -1.36388 0.609807 0
M  V30 14837 H 1424.32 -4.09862 -0.979357 0
M  V30 14838 H 1423 -2.95362 -1.3245 0
M  V30 14839 H 1421.9 -3.63338 0.890879 0
M  V30 14840 H 1423.24 -4.78505 1.15299 0
M  V30 14841 N 1424.89 -0.604284 -1.45555 0
M  V30 14842 C 1426.14 -0.0981861 -2.02262 0
M  V30 14843 C 1426.46 1.27002 -1.47312 0
M  V30 14844 O 1425.72 1.85058 -0.636563 0
M  V30 14845 C 1426.02 -0.00538243 -3.574 0
M  V30 14846 C 1425.68 -1.30881 -4.31487 0
M  V30 14847 C 1424.35 -1.66586 -4.51445 0
M  V30 14848 C 1426.7 -2.17039 -4.7386 0
M  V30 14849 C 1424.03 -2.88207 -5.11032 0
M  V30 14850 C 1426.38 -3.37905 -5.34792 0
M  V30 14851 C 1425.04 -3.73866 -5.52974 0
M  V30 14852 H 1424.31 -0.0359289 -0.740128 0
M  V30 14853 H 1426.96 -0.785241 -1.7466 0
M  V30 14854 H 1425.26 0.764919 -3.84261 0
M  V30 14855 H 1426.96 0.402303 -3.98977 0
M  V30 14856 H 1423.55 -1.0209 -4.16264 0
M  V30 14857 H 1427.73 -1.90754 -4.58177 0
M  V30 14858 H 1422.99 -3.16179 -5.23298 0
M  V30 14859 H 1427.16 -4.0492 -5.6658 0
M  V30 14860 H 1424.79 -4.68194 -5.98914 0
M  V30 14861 N 1426.37 1.53816 -0.343257 0
M  V30 14862 C 1427.59 2.05326 0.254744 0
M  V30 14863 C 1428.01 1.21824 1.44237 0
M  V30 14864 O 1427.37 0.253507 1.80731 0
M  V30 14865 C 1427.42 3.55235 0.670075 0
M  V30 14866 O 1427.14 4.35568 -0.470322 0
M  V30 14867 C 1428.64 4.22915 1.32882 0
M  V30 14868 H 1425.86 0.669191 0.0492324 0
M  V30 14869 H 1428.4 1.98415 -0.495159 0
M  V30 14870 H 1426.56 3.6237 1.36992 0
M  V30 14871 H 1426.97 5.24315 -0.139303 0
M  V30 14872 H 1428.45 5.29197 1.57019 0
M  V30 14873 H 1428.92 3.75244 2.28229 0
M  V30 14874 H 1429.53 4.19973 0.67102 0
M  V30 14875 N 1427.84 0.0718701 1.57436 0
M  V30 14876 C 1429.26 -0.28476 1.57039 0
M  V30 14877 C 1429.46 -1.70032 1.08127 0
M  V30 14878 O 1428.52 -2.41191 0.747189 0
M  V30 14879 C 1429.83 -0.0943482 3.00552 0
M  V30 14880 C 1431.38 -0.163879 3.12571 0
M  V30 14881 C 1431.85 -0.00174658 4.58 0
M  V30 14882 N 1433.34 -0.0573489 4.63164 0
M  V30 14883 C 1434.08 0.0436849 5.73383 0
M  V30 14884 N 1433.57 0.198243 6.92516 0
M  V30 14885 N 1435.37 -0.0133856 5.62098 0
M  V30 14886 H 1427.52 0.99702 1.87545 0
M  V30 14887 H 1429.78 0.388822 0.864593 0
M  V30 14888 H 1429.49 0.882445 3.40449 0
M  V30 14889 H 1429.36 -0.846636 3.67576 0
M  V30 14890 H 1431.75 -1.13116 2.7256 0
M  V30 14891 H 1431.83 0.619513 2.48185 0
M  V30 14892 H 1431.47 0.9623 4.98701 0
M  V30 14893 H 1431.4 -0.804543 5.20418 0
M  V30 14894 H 1433.89 -0.175212 3.77494 0
M  V30 14895 H 1434.21 0.267479 7.72337 0
M  V30 14896 H 1432.55 0.233606 6.94607 0
M  V30 14897 H 1435.74 -0.132835 4.67911 0
M  V30 14898 H 1435.92 0.0688076 6.47963 0
M  V30 14899 N 1429.32 -1.56304 -0.201686 0
M  V30 14900 C 1430.26 -1.8907 -1.27781 0
M  V30 14901 C 1431.23 -0.75009 -1.44265 0
M  V30 14902 O 1432.42 -1.00044 -1.59761 0
M  V30 14903 C 1429.54 -2.11513 -2.64537 0
M  V30 14904 C 1428.59 -3.34214 -2.64959 0
M  V30 14905 S 1429.42 -4.89541 -2.17047 0
M  V30 14906 C 1430.58 -5.15044 -3.55641 0
M  V30 14907 H 1430.81 -2.8005 -0.997971 0
M  V30 14908 H 1428.35 -1.48997 -0.404872 0
M  V30 14909 H 1430.3 -2.25126 -3.43262 0
M  V30 14910 H 1428.96 -1.21295 -2.89735 0
M  V30 14911 H 1428.16 -3.47023 -3.65501 0
M  V30 14912 H 1427.76 -3.1956 -1.94312 0
M  V30 14913 H 1430.05 -5.05161 -4.51463 0
M  V30 14914 H 1430.99 -6.16838 -3.47731 0
M  V30 14915 H 1431.4 -4.42704 -3.50248 0
M  V30 14916 N 1430.8 0.469154 -1.50455 0
M  V30 14917 C 1431.76 1.5493 -1.68906 0
M  V30 14918 C 1432.76 1.50744 -0.559721 0
M  V30 14919 O 1433.95 1.5333 -0.826781 0
M  V30 14920 C 1431.09 2.94556 -1.71609 0
M  V30 14921 H 1432.28 1.39887 -2.65276 0
M  V30 14922 H 1429.83 0.695667 -1.39965 0
M  V30 14923 H 1430.57 3.15041 -0.769382 0
M  V30 14924 H 1430.35 2.99002 -2.53654 0
M  V30 14925 H 1431.84 3.72973 -1.87831 0
M  V30 14926 N 1432.28 1.40065 0.722464 0
M  V30 14927 C 1433.69 1.21944 1.02965 0
M  V30 14928 C 1433.89 0.0898069 2.013 0
M  V30 14929 O 1432.95 -0.554519 2.46336 0
M  V30 14930 C 1434.26 2.55848 1.57995 0
M  V30 14931 C 1435.81 2.62801 1.70013 0
M  V30 14932 C 1436.29 3.96957 2.2845 0
M  V30 14933 N 1437.78 3.98662 2.35844 0
M  V30 14934 C 1438.51 4.99248 2.82026 0
M  V30 14935 N 1438.01 6.1023 3.28012 0
M  V30 14936 N 1439.8 4.8662 2.81349 0
M  V30 14937 H 1431.95 2.12283 0.0705301 0
M  V30 14938 H 1434.22 0.943338 0.0938991 0
M  V30 14939 H 1433.92 3.39125 0.932034 0
M  V30 14940 H 1433.8 2.76452 2.5662 0
M  V30 14941 H 1436.18 1.799 2.33923 0
M  V30 14942 H 1436.26 2.46034 0.700062 0
M  V30 14943 H 1435.91 4.80295 1.65164 0
M  V30 14944 H 1435.84 4.1105 3.29158 0
M  V30 14945 H 1438.33 3.18518 2.03358 0
M  V30 14946 H 1438.64 6.82878 3.61797 0
M  V30 14947 H 1436.99 6.13805 3.25988 0
M  V30 14948 H 1440.18 3.99015 2.44755 0
M  V30 14949 H 1440.35 5.65155 3.17024 0
M  V30 14950 N 1433.76 -0.95397 1.25448 0
M  V30 14951 C 1435.03 -1.67502 1.01008 0
M  V30 14952 C 1435.41 -2.05949 -0.463483 0
M  V30 14953 O 1434.76 -1.77336 -1.44098 0
M  V30 14954 C 1434.97 -2.89679 1.94645 0
M  V30 14955 C 1436.32 -3.61617 2.22526 0
M  V30 14956 O 1437.34 -2.99762 1.92409 0
M  V30 14957 O 1436.2 -4.72998 2.73743 0
M  V30 14958 H 1433.3 -0.732917 0.383094 0
M  V30 14959 H 1435.84 -1.00684 1.36605 0
M  V30 14960 H 1434.62 -2.58063 2.94141 0
M  V30 14961 H 1434.24 -3.64228 1.59449 0
M  V30 14962 N 1435.24 -1.07045 -1.15668 0
M  V30 14963 C 1436.65 -0.814932 -1.67975 0
M  V30 14964 C 1437 0.660408 -1.84751 0
M  V30 14965 O 1436.12 1.51156 -1.54857 0
M  V30 14966 C 1436.72 -1.47274 -3.05116 0
M  V30 14967 C 1435.28 -1.26481 -3.54513 0
M  V30 14968 C 1434.42 -1.54439 -2.30312 0
M  V30 14969 H 1437.37 -1.23291 -0.999251 0
M  V30 14970 H 1437.4 -0.892244 -3.69891 0
M  V30 14971 H 1436.91 -2.54649 -2.92874 0
M  V30 14972 H 1435.01 -0.211138 -3.72001 0
M  V30 14973 H 1435.12 -1.98283 -4.36143 0
M  V30 14974 H 1433.49 -0.965269 -2.357 0
M  V30 14975 H 1434.27 -2.6299 -2.20661 0
M  V30 14976 N 1436.71 1.32449 -0.85411 0
M  V30 14977 C 1438.12 1.79545 -0.511923 0
M  V30 14978 C 1438.48 1.70534 0.970188 0
M  V30 14979 O 1437.6 1.2636 1.75676 0
M  V30 14980 C 1438.2 3.26 -0.922456 0
M  V30 14981 C 1436.75 3.71053 -0.632176 0
M  V30 14982 C 1435.9 2.53565 -1.12249 0
M  V30 14983 H 1438.85 1.19755 -1.04137 0
M  V30 14984 H 1438.87 3.79751 -0.238618 0
M  V30 14985 H 1438.39 3.32526 -2.00119 0
M  V30 14986 H 1436.49 3.70042 0.435862 0
M  V30 14987 H 1436.6 4.63878 -1.19809 0
M  V30 14988 H 1434.96 2.48849 -0.542781 0
M  V30 14989 H 1435.75 2.62846 -2.20832 0
M  V30 14990 N 1438.19 0.611994 1.45232 0
M  V30 14991 C 1439.61 0.276005 1.57195 0
M  V30 14992 C 1439.81 -1.22136 1.60266 0
M  V30 14993 O 1438.86 -2.00459 1.53533 0
M  V30 14994 C 1440.18 0.951064 2.85263 0
M  V30 14995 C 1441.72 0.927398 2.98945 0
M  V30 14996 C 1442.2 1.58255 4.2979 0
M  V30 14997 N 1443.69 1.54825 4.36559 0
M  V30 14998 C 1444.43 2.02428 5.3648 0
M  V30 14999 N 1443.92 2.58137 6.42913 0
M  V30 15000 N 1445.71 1.9317 5.27865 0
M  V30 15001 H 1437.87 1.58418 1.41483 0
M  V30 15002 H 1440.13 0.663879 0.676734 0
M  V30 15003 H 1439.83 2.00557 2.88912 0
M  V30 15004 H 1439.71 0.477044 3.74171 0
M  V30 15005 H 1442.1 -0.118571 2.94862 0
M  V30 15006 H 1442.18 1.43973 2.11437 0
M  V30 15007 H 1441.82 2.62787 4.34632 0
M  V30 15008 H 1441.75 1.04521 5.16123 0
M  V30 15009 H 1444.24 1.14133 3.60253 0
M  V30 15010 H 1444.55 2.92243 7.15412 0
M  V30 15011 H 1442.9 2.62179 6.43652 0
M  V30 15012 H 1446.09 1.49384 4.43624 0
M  V30 15013 H 1446.26 2.30582 6.05587 0
M  V30 15014 N 1439.67 -1.53632 0.351409 0
M  V30 15015 C 1440.9 -2.0516 -0.243498 0
M  V30 15016 C 1441.31 -1.22559 -1.44138 0
M  V30 15017 O 1440.65 -0.255726 -1.81911 0
M  V30 15018 C 1440.71 -3.52324 -0.71469 0
M  V30 15019 C 1440.38 -4.55543 0.364598 0
M  V30 15020 C 1441.37 -5.05626 1.20987 0
M  V30 15021 C 1439.06 -4.99593 0.520779 0
M  V30 15022 C 1441.05 -5.98347 2.1968 0
M  V30 15023 C 1438.74 -5.92123 1.51109 0
M  V30 15024 C 1439.74 -6.41389 2.34754 0
M  V30 15025 O 1439.43 -7.32097 3.32098 0
M  V30 15026 H 1439.16 -0.674193 -0.0493948 0
M  V30 15027 H 1441.71 -1.99123 0.503919 0
M  V30 15028 H 1439.94 -3.55852 -1.51348 0
M  V30 15029 H 1441.63 -3.86783 -1.23102 0
M  V30 15030 H 1442.4 -4.72353 1.10033 0
M  V30 15031 H 1438.28 -4.60843 -0.120466 0
M  V30 15032 H 1441.82 -6.36724 2.85005 0
M  V30 15033 H 1437.72 -6.24811 1.62116 0
M  V30 15034 H 1438.48 -7.50053 3.27662 0
M  V30 15035 N 1441.15 -0.0802183 -1.57396 0
M  V30 15036 C 1442.08 0.881426 -2.16225 0
M  V30 15037 C 1443.06 1.30459 -1.09154 0
M  V30 15038 O 1444.24 1.37413 -1.37227 0
M  V30 15039 C 1441.37 2.14599 -2.73065 0
M  V30 15040 C 1440.33 1.86195 -3.85377 0
M  V30 15041 C 1439.65 3.19354 -4.28856 0
M  V30 15042 C 1440.95 1.16059 -5.09242 0
M  V30 15043 H 1442.65 0.391325 -2.96832 0
M  V30 15044 H 1440.19 0.186785 -1.42783 0
M  V30 15045 H 1442.15 2.82297 -3.12868 0
M  V30 15046 H 1440.87 2.65866 -1.89691 0
M  V30 15047 H 1439.53 1.209 -3.46091 0
M  V30 15048 H 1439.18 3.68479 -3.42392 0
M  V30 15049 H 1438.88 3.01137 -5.04569 0
M  V30 15050 H 1440.4 3.88235 -4.71281 0
M  V30 15051 H 1441.82 1.7384 -5.46308 0
M  V30 15052 H 1440.21 1.08072 -5.90288 0
M  V30 15053 H 1441.28 0.14098 -4.84695 0
M  V30 15054 N 1442.63 1.56409 0.193394 0
M  V30 15055 C 1443.87 1.80991 0.914875 0
M  V30 15056 C 1444.2 0.654538 1.82837 0
M  V30 15057 O 1443.48 -0.344816 1.91419 0
M  V30 15058 C 1443.76 3.15841 1.72964 0
M  V30 15059 C 1443.62 4.41873 0.840748 0
M  V30 15060 C 1444.93 3.474 2.70188 0
M  V30 15061 H 1442.05 0.658408 0.331161 0
M  V30 15062 H 1444.7 1.89125 0.182161 0
M  V30 15063 H 1442.85 3.09038 2.35431 0
M  V30 15064 H 1444.52 4.60723 0.230654 0
M  V30 15065 H 1442.76 4.33549 0.147558 0
M  V30 15066 H 1443.43 5.32728 1.44586 0
M  V30 15067 H 1445.91 3.54513 2.17852 0
M  V30 15068 H 1444.78 4.42872 3.24278 0
M  V30 15069 H 1445.04 2.7098 3.49317 0
M  V30 15070 N 1444.1 -0.461169 1.50702 0
M  V30 15071 C 1445.35 -1.20934 1.61425 0
M  V30 15072 C 1445.67 -1.92884 0.32481 0
M  V30 15073 O 1446.87 -2.69712 0.311081 0
M  V30 15074 C 1445.33 -2.19797 2.84987 0
M  V30 15075 C 1444.94 -1.53604 4.20844 0
M  V30 15076 C 1446.68 -2.95194 3.05059 0
M  V30 15077 C 1444.59 -2.50811 5.35582 0
M  V30 15078 H 1443.52 -0.455088 0.601174 0
M  V30 15079 H 1446.17 -0.478771 1.77144 0
M  V30 15080 H 1444.55 -2.96187 2.62848 0
M  V30 15081 H 1445.72 -0.829345 4.53275 0
M  V30 15082 H 1444.04 -0.904504 4.06457 0
M  V30 15083 H 1446.64 -3.67965 3.87951 0
M  V30 15084 H 1446.98 -3.5516 2.1718 0
M  V30 15085 H 1447.51 -2.25915 3.27425 0
M  V30 15086 H 1444.25 -1.9557 6.25646 0
M  V30 15087 H 1443.77 -3.19604 5.07556 0
M  V30 15088 H 1445.45 -3.12437 5.66561 0
M  V30 15089 N 1445.58 -1.40446 -0.715026 0
M  V30 15090 C 1446.53 -1.40756 -1.82911 0
M  V30 15091 C 1447.5 -0.264443 -1.63981 0
M  V30 15092 O 1448.68 -0.462589 -1.85107 0
M  V30 15093 C 1445.82 -1.27648 -3.20624 0
M  V30 15094 C 1444.94 -2.5167 -3.51121 0
M  V30 15095 C 1444.07 -2.31 -4.78344 0
M  V30 15096 C 1443.11 -3.50596 -5.01746 0
M  V30 15097 N 1442.25 -3.29117 -6.20183 0
M  V30 15098 H 1447.09 -2.35981 -1.8198 0
M  V30 15099 H 1444.62 -1.17201 -0.888951 0
M  V30 15100 H 1446.58 -1.18054 -4.00149 0
M  V30 15101 H 1445.21 -0.360419 -3.20782 0
M  V30 15102 H 1444.26 -2.7179 -2.66147 0
M  V30 15103 H 1445.58 -3.4069 -3.64324 0
M  V30 15104 H 1444.73 -2.18763 -5.65887 0
M  V30 15105 H 1443.47 -1.39406 -4.67351 0
M  V30 15106 H 1442.47 -3.63309 -4.12658 0
M  V30 15107 H 1443.7 -4.43117 -5.14611 0
M  V30 15108 H 1441.65 -2.40206 -6.1044 0
M  V30 15109 H 1441.56 -4.11702 -6.34064 0
M  V30 15110 H 1442.83 -3.20614 -7.10512 0
M  V30 15111 N 1447.06 0.947303 -1.25952 0
M  V30 15112 C 1448.48 1.21972 -1.02932 0
M  V30 15113 C 1448.68 1.99951 0.249333 0
M  V30 15114 O 1447.73 2.33534 0.960108 0
M  V30 15115 C 1449.04 1.98695 -2.257 0
M  V30 15116 C 1450.59 2.11711 -2.30538 0
M  V30 15117 C 1451.07 2.91835 -3.52982 0
M  V30 15118 N 1452.56 2.99411 -3.53422 0
M  V30 15119 C 1453.29 3.6182 -4.4483 0
M  V30 15120 N 1452.79 4.25781 -5.46519 0
M  V30 15121 N 1454.58 3.59033 -4.32495 0
M  V30 15122 H 1446.73 0.42583 -2.08088 0
M  V30 15123 H 1449 0.250899 -0.914196 0
M  V30 15124 H 1448.7 1.48801 -3.18671 0
M  V30 15125 H 1448.58 2.9938 -2.29459 0
M  V30 15126 H 1450.96 2.608 -1.38085 0
M  V30 15127 H 1451.04 1.10308 -2.30794 0
M  V30 15128 H 1450.69 2.43435 -4.4576 0
M  V30 15129 H 1450.62 3.9348 -3.49973 0
M  V30 15130 H 1453.11 2.53934 -2.79868 0
M  V30 15131 H 1453.42 4.71281 -6.12466 0
M  V30 15132 H 1451.77 4.24386 -5.50383 0
M  V30 15133 H 1454.96 3.08254 -3.52274 0
M  V30 15134 H 1455.13 4.07384 -5.03927 0
M  V30 15135 N 1448.54 1.07657 1.15099 0
M  V30 15136 C 1449.45 0.711198 2.2356 0
M  V30 15137 C 1450.46 -0.278932 1.7175 0
M  V30 15138 O 1451.64 -0.124788 2.01013 0
M  V30 15139 C 1448.71 0.117855 3.465 0
M  V30 15140 C 1447.77 1.16162 4.13286 0
M  V30 15141 C 1447 0.596494 5.30356 0
M  V30 15142 O 1447.22 -0.586474 5.67377 0
M  V30 15143 O 1446.16 1.34288 5.86729 0
M  V30 15144 H 1449.98 1.61578 2.5715 0
M  V30 15145 H 1447.57 0.84973 1.22882 0
M  V30 15146 H 1449.45 -0.210613 4.20873 0
M  V30 15147 H 1448.12 -0.760008 3.14652 0
M  V30 15148 H 1447.03 1.54249 3.4082 0
M  V30 15149 H 1448.36 2.01149 4.49221 0
M  V30 15150 N 1450.02 -1.31994 0.861122 0
M  V30 15151 C 1451.24 -2.01745 0.481013 0
M  V30 15152 C 1451.67 -1.6426 -0.916527 0
M  V30 15153 O 1451.02 -0.846603 -1.60319 0
M  V30 15154 C 1451.07 -3.54963 0.635134 0
M  V30 15155 O 1450.18 -4.11083 -0.329337 0
M  V30 15156 H 1449.52 -0.635499 0.192452 0
M  V30 15157 H 1452.05 -1.68394 1.1621 0
M  V30 15158 H 1452.06 -4.04607 0.525089 0
M  V30 15159 H 1450.73 -3.81587 1.65422 0
M  V30 15160 H 1449.31 -3.72489 -0.174989 0
M  V30 15161 N 1451.49 -0.619688 -1.44906 0
M  V30 15162 C 1452.74 -0.119397 -2.01747 0
M  V30 15163 C 1453.06 1.25904 -1.48907 0
M  V30 15164 O 1452.33 1.83417 -0.688104 0
M  V30 15165 H 1450.91 -0.0411482 -0.745866 0
M  V30 15166 H 1453.58 -0.803813 -1.77552 0
M  V30 15167 H 1452.67 -0.078368 -3.12002 0
M  V30 15168 N 1452.97 1.53444 -0.359552 0
M  V30 15169 C 1454.38 1.86308 0.120955 0
M  V30 15170 C 1454.73 1.28033 1.48667 0
M  V30 15171 O 1453.86 0.600041 2.07915 0
M  V30 15172 C 1454.45 3.38044 0.226255 0
M  V30 15173 C 1453.01 3.70727 0.65101 0
M  V30 15174 C 1452.16 2.76538 -0.205482 0
M  V30 15175 H 1455.11 1.47778 -0.578569 0
M  V30 15176 H 1455.13 3.65699 1.05092 0
M  V30 15177 H 1454.64 3.80428 -0.767874 0
M  V30 15178 H 1452.75 3.33897 1.65359 0
M  V30 15179 H 1452.86 4.77168 0.429802 0
M  V30 15180 H 1451.22 2.52622 0.3247 0
M  V30 15181 H 1452.01 3.21754 -1.19704 0
M  V30 15182 N 1454.45 0.0885642 1.57351 0
M  V30 15183 C 1455.7 -0.575536 1.93732 0
M  V30 15184 C 1456.02 -1.69126 0.970644 0
M  V30 15185 O 1455.29 -1.95888 0.0215907 0
M  V30 15186 H 1453.87 -0.215592 0.715213 0
M  V30 15187 H 1456.53 0.150362 1.94319 0
M  V30 15188 H 1455.63 -0.989979 2.95983 0
M  V30 15189 N 1455.93 -1.56509 -0.185096 0
M  V30 15190 C 1457.18 -1.804 -0.902158 0
M  V30 15191 C 1457.49 -0.663496 -1.84003 0
M  V30 15192 O 1458.7 -0.786963 -2.59844 0
M  V30 15193 C 1457.15 -3.19608 -1.65466 0
M  V30 15194 C 1456.76 -4.41487 -0.761109 0
M  V30 15195 C 1458.5 -3.52801 -2.36076 0
M  V30 15196 C 1456.41 -5.71717 -1.51305 0
M  V30 15197 H 1455.34 -0.67268 -0.340614 0
M  V30 15198 H 1457.99 -1.82842 -0.155273 0
M  V30 15199 H 1456.37 -3.11443 -2.44579 0
M  V30 15200 H 1457.55 -4.60799 -0.00791878 0
M  V30 15201 H 1455.86 -4.16072 -0.165344 0
M  V30 15202 H 1458.46 -4.47339 -2.92902 0
M  V30 15203 H 1458.8 -2.77021 -3.10749 0
M  V30 15204 H 1459.34 -3.62457 -1.63919 0
M  V30 15205 H 1456.08 -6.5049 -0.808907 0
M  V30 15206 H 1455.6 -5.56406 -2.23992 0
M  V30 15207 H 1457.27 -6.13188 -2.0642 0
M  V30 15208 N 1457.41 0.45317 -1.50944 0
M  V30 15209 C 1458.37 1.5313 -1.7054 0
M  V30 15210 C 1459.37 1.50142 -0.575678 0
M  V30 15211 O 1460.56 1.52444 -0.842997 0
M  V30 15212 C 1457.69 2.92719 -1.74723 0
M  V30 15213 H 1458.88 1.37066 -2.66745 0
M  V30 15214 H 1456.44 0.680783 -1.40695 0
M  V30 15215 H 1457.17 3.14208 -0.802753 0
M  V30 15216 H 1456.96 2.96295 -2.56811 0
M  V30 15217 H 1458.45 3.7096 -1.91777 0
M  V30 15218 N 1458.88 1.40823 0.707568 0
M  V30 15219 C 1460.3 1.35249 1.28704 0
M  V30 15220 C 1460.65 0.0298026 1.96177 0
M  V30 15221 O 1459.77 -0.872126 1.98048 0
M  V30 15222 C 1460.37 2.44965 2.34046 0
M  V30 15223 C 1458.93 2.42826 2.87598 0
M  V30 15224 C 1458.07 2.25429 1.61483 0
M  V30 15225 H 1461.02 1.50513 0.503141 0
M  V30 15226 H 1461.04 2.13334 3.1507 0
M  V30 15227 H 1460.56 3.41219 1.84908 0
M  V30 15228 H 1458.66 1.50294 3.40944 0
M  V30 15229 H 1458.77 3.38704 3.38845 0
M  V30 15230 H 1457.13 1.73089 1.86848 0
M  V30 15231 H 1457.92 3.23693 1.14359 0
M  V30 15232 N 1460.36 -0.94061 1.26453 0
M  V30 15233 C 1461.61 -1.68354 1.11809 0
M  V30 15234 C 1461.93 -1.9203 -0.339037 0
M  V30 15235 O 1461.2 -1.51739 -1.23903 0
M  V30 15236 H 1459.78 -0.623916 0.410777 0
M  V30 15237 H 1462.44 -1.13014 1.58789 0
M  V30 15238 H 1461.54 -2.65706 1.63728 0
M  V30 15239 N 1461.84 -1.08266 -1.14527 0
M  V30 15240 C 1463.25 -0.832702 -1.67102 0
M  V30 15241 C 1463.6 0.640776 -1.85441 0
M  V30 15242 O 1462.73 1.49505 -1.56452 0
M  V30 15243 C 1463.32 -1.50502 -3.03537 0
M  V30 15244 C 1461.88 -1.30234 -3.53152 0
M  V30 15245 C 1461.03 -1.56873 -2.28661 0
M  V30 15246 H 1463.98 -1.24344 -0.986118 0
M  V30 15247 H 1464 -0.931426 -3.68924 0
M  V30 15248 H 1463.51 -2.57741 -2.90157 0
M  V30 15249 H 1461.61 -0.250582 -3.71756 0
M  V30 15250 H 1461.73 -2.02898 -4.34015 0
M  V30 15251 H 1460.09 -0.990214 -2.34663 0
M  V30 15252 H 1460.87 -2.65316 -2.17859 0
M  V30 15253 N 1463.32 1.31536 -0.86811 0
M  V30 15254 C 1464.23 2.32326 -0.32588 0
M  V30 15255 C 1465.25 1.64632 0.563243 0
M  V30 15256 O 1466.42 1.96067 0.460403 0
M  V30 15257 C 1463.49 3.43562 0.46539 0
M  V30 15258 C 1462.55 4.26919 -0.451472 0
M  V30 15259 C 1461.78 5.32844 0.302129 0
M  V30 15260 O 1462 5.49485 1.53045 0
M  V30 15261 O 1460.94 6.00944 -0.339048 0
M  V30 15262 H 1464.76 2.80622 -1.16126 0
M  V30 15263 H 1462.35 1.35401 -0.631428 0
M  V30 15264 H 1464.23 4.11368 0.914028 0
M  V30 15265 H 1462.91 2.97432 1.27734 0
M  V30 15266 H 1461.81 3.61874 -0.948571 0
M  V30 15267 H 1463.15 4.7661 -1.22897 0
M  V30 15268 N 1464.8 0.627364 1.44575 0
M  V30 15269 C 1466.21 0.213149 1.85479 0
M  V30 15270 C 1466.56 -1.23458 1.52488 0
M  V30 15271 O 1465.68 -1.93885 0.961115 0
M  V30 15272 C 1466.28 0.380063 3.36661 0
M  V30 15273 C 1464.84 0.020385 3.76394 0
M  V30 15274 C 1463.99 0.695225 2.68444 0
M  V30 15275 H 1466.94 0.832771 1.35095 0
M  V30 15276 H 1466.96 -0.382078 3.78577 0
M  V30 15277 H 1466.47 1.43383 3.60642 0
M  V30 15278 H 1464.57 -1.03179 3.58029 0
M  V30 15279 H 1464.68 0.42782 4.77186 0
M  V30 15280 H 1463.05 0.130898 2.54363 0
M  V30 15281 H 1463.83 1.75151 2.95257 0
M  V30 15282 N 1466.28 -1.53251 0.367684 0
M  V30 15283 C 1467.23 -2.22578 -0.494287 0
M  V30 15284 C 1468.21 -1.22175 -1.047 0
M  V30 15285 O 1469.4 -1.47613 -0.976696 0
M  V30 15286 C 1466.53 -3.02007 -1.63238 0
M  V30 15287 C 1465.62 -4.09788 -1.09244 0
M  V30 15288 N 1466.01 -5.05048 -0.275665 0
M  V30 15289 C 1464.31 -4.24532 -1.36705 0
M  V30 15290 C 1465.01 -5.81696 0.0201973 0
M  V30 15291 N 1463.98 -5.40518 -0.577991 0
M  V30 15292 H 1467.78 -2.93583 0.136532 0
M  V30 15293 H 1465.3 -1.61446 0.175813 0
M  V30 15294 H 1467.3 -3.50193 -2.26209 0
M  V30 15295 H 1465.96 -2.32533 -2.26624 0
M  V30 15296 H 1466.97 -5.1783 0.0853053 0
M  V30 15297 H 1463.64 -3.66285 -2.00354 0
M  V30 15298 H 1465.03 -6.68444 0.680622 0
M  V30 15299 N 1467.75 -0.0969077 -1.57302 0
M  V30 15300 C 1469 0.565254 -1.94034 0
M  V30 15301 C 1469.32 1.68609 -0.9796 0
M  V30 15302 O 1468.59 1.95874 -0.0319788 0
M  V30 15303 H 1467.17 0.211796 -0.716346 0
M  V30 15304 H 1469.83 -0.160665 -1.94237 0
M  V30 15305 H 1468.93 0.974268 -2.96504 0
M  V30 15306 N 1469.23 1.56605 0.176793 0
M  V30 15307 C 1470.16 1.99014 1.2213 0
M  V30 15308 C 1471.14 0.86487 1.46472 0
M  V30 15309 O 1472.33 1.13055 1.57899 0
M  V30 15310 C 1469.46 2.34534 2.56146 0
M  V30 15311 C 1468.41 3.4997 2.46384 0
M  V30 15312 C 1467.74 3.71217 3.8484 0
M  V30 15313 C 1469.04 4.83592 1.97323 0
M  V30 15314 H 1470.73 2.86517 0.8688 0
M  V30 15315 H 1468.28 1.37846 0.416481 0
M  V30 15316 H 1470.23 2.62799 3.29416 0
M  V30 15317 H 1468.95 1.43933 2.93174 0
M  V30 15318 H 1467.61 3.21824 1.75569 0
M  V30 15319 H 1467.26 2.77916 4.19251 0
M  V30 15320 H 1466.96 4.48885 3.79178 0
M  V30 15321 H 1468.49 4.01877 4.59704 0
M  V30 15322 H 1469.9 5.10768 2.60363 0
M  V30 15323 H 1468.3 5.64858 2.02622 0
M  V30 15324 H 1469.37 4.75951 0.927275 0
M  V30 15325 N 1470.71 -0.445159 1.51182 0
M  V30 15326 C 1471.94 -1.21787 1.67259 0
M  V30 15327 C 1472.35 -1.85206 0.366641 0
M  V30 15328 O 1471.71 -1.70376 -0.654095 0
M  V30 15329 C 1471.76 -2.30765 2.78262 0
M  V30 15330 O 1471.48 -1.69942 4.03796 0
M  V30 15331 C 1472.98 -3.21186 3.05539 0
M  V30 15332 H 1470.2 -0.367364 0.561502 0
M  V30 15333 H 1472.75 -0.528415 1.97555 0
M  V30 15334 H 1470.9 -2.9544 2.50587 0
M  V30 15335 H 1471.32 -2.41905 4.65384 0
M  V30 15336 H 1472.79 -3.93805 3.8681 0
M  V30 15337 H 1473.27 -3.81487 2.17634 0
M  V30 15338 H 1473.87 -2.62221 3.34844 0
M  V30 15339 N 1472.19 -1.41197 -0.700089 0
M  V30 15340 C 1473.14 -1.42885 -1.83539 0
M  V30 15341 C 1474.13 -0.307431 -1.66587 0
M  V30 15342 O 1475.34 -0.479238 -1.73503 0
M  V30 15343 H 1471.71 -0.446973 -0.604747 0
M  V30 15344 H 1473.68 -2.38576 -1.79231 0
M  V30 15345 C 1472.43 -1.3235 -3.21526 0
M  V30 15346 H 1471.75 -2.17926 -3.35184 0
M  V30 15347 H 1473.19 -1.37592 -4.01054 0
M  V30 15348 C 1471.65 -0.0353528 -3.36881 0
M  V30 15349 O 1472.18 0.921676 -3.90983 0
M  V30 15350 N 1470.39 0.0392479 -2.90573 0
M  V30 15351 H 1469.94 -0.740299 -2.46733 0
M  V30 15352 H 1469.89 0.900559 -3.01226 0
M  V30 15353 N 1473.67 0.933891 -1.2695 0
M  V30 15354 C 1474.61 2.03365 -1.09139 0
M  V30 15355 C 1475.58 1.66099 0.00573029 0
M  V30 15356 O 1476.77 1.90166 -0.155425 0
M  V30 15357 C 1473.91 3.37114 -0.738117 0
M  V30 15358 C 1473.02 3.87372 -1.91224 0
M  V30 15359 C 1472.16 5.0954 -1.50141 0
M  V30 15360 C 1471.19 5.52079 -2.64339 0
M  V30 15361 N 1470.33 6.65446 -2.23887 0
M  V30 15362 H 1475.17 2.17932 -2.03248 0
M  V30 15363 H 1472.71 1.0677 -1.01186 0
M  V30 15364 H 1474.67 4.1402 -0.514141 0
M  V30 15365 H 1473.3 3.22373 0.166007 0
M  V30 15366 H 1472.35 3.06801 -2.24894 0
M  V30 15367 H 1473.66 4.14875 -2.76912 0
M  V30 15368 H 1472.81 5.93928 -1.23831 0
M  V30 15369 H 1471.55 4.838 -0.615539 0
M  V30 15370 H 1470.56 4.66244 -2.9137 0
M  V30 15371 H 1471.78 5.79817 -3.53537 0
M  V30 15372 H 1469.73 6.41376 -1.37744 0
M  V30 15373 H 1469.65 6.92573 -3.03116 0
M  V30 15374 H 1470.91 7.53191 -2.00809 0
M  V30 15375 N 1475.14 1.08871 1.13951 0
M  V30 15376 C 1476.09 0.722966 2.19184 0
M  V30 15377 C 1477.06 -0.293108 1.63493 0
M  V30 15378 O 1478.25 -0.176036 1.89986 0
M  V30 15379 C 1475.39 0.143542 3.44801 0
M  V30 15380 C 1474.5 1.21297 4.14622 0
M  V30 15381 C 1473.63 0.596902 5.27836 0
M  V30 15382 C 1472.67 1.64803 5.89497 0
M  V30 15383 N 1471.81 1.05341 6.94152 0
M  V30 15384 H 1476.65 1.62464 2.49819 0
M  V30 15385 H 1474.19 0.811803 1.22671 0
M  V30 15386 H 1476.14 -0.210153 4.1667 0
M  V30 15387 H 1474.77 -0.721426 3.14635 0
M  V30 15388 H 1473.83 1.68403 3.41093 0
M  V30 15389 H 1475.14 2.00931 4.56539 0
M  V30 15390 H 1474.29 0.191724 6.06397 0
M  V30 15391 H 1473.03 -0.231052 4.87152 0
M  V30 15392 H 1472.04 2.06282 5.09635 0
M  V30 15393 H 1473.26 2.47855 6.32254 0
M  V30 15394 H 1471.21 0.24664 6.55536 0
M  V30 15395 H 1471.12 1.7868 7.34581 0
M  V30 15396 H 1472.39 0.674253 7.76578 0
M  V30 15397 N 1476.62 -1.31073 0.875073 0
M  V30 15398 C 1477.55 -2.30855 0.350468 0
M  V30 15399 C 1478.53 -1.60569 -0.561384 0
M  V30 15400 O 1479.72 -1.88242 -0.477329 0
M  V30 15401 C 1476.85 -3.44444 -0.444493 0
M  V30 15402 C 1475.8 -4.26357 0.374716 0
M  V30 15403 C 1475.13 -5.31903 -0.546243 0
M  V30 15404 C 1476.43 -4.96817 1.61153 0
M  V30 15405 H 1478.12 -2.74983 1.18427 0
M  V30 15406 H 1475.67 -1.32199 0.570909 0
M  V30 15407 H 1477.62 -4.13304 -0.82206 0
M  V30 15408 H 1476.34 -2.99096 -1.31185 0
M  V30 15409 H 1475 -3.59171 0.734295 0
M  V30 15410 H 1474.65 -4.82803 -1.41102 0
M  V30 15411 H 1474.35 -5.876 -0.00198173 0
M  V30 15412 H 1475.88 -6.03621 -0.920542 0
M  V30 15413 H 1477.29 -5.58247 1.30511 0
M  V30 15414 H 1475.69 -5.62334 2.09524 0
M  V30 15415 H 1476.76 -4.2351 2.36151 0
M  V30 15416 N 1478.1 -0.635022 -1.4424 0
M  V30 15417 C 1479.01 0.0686832 -2.34499 0
M  V30 15418 C 1480.03 0.831574 -1.52843 0
M  V30 15419 O 1481.2 0.782954 -1.85558 0
M  V30 15420 C 1478.27 1.03543 -3.30877 0
M  V30 15421 C 1477.33 0.271484 -4.28441 0
M  V30 15422 C 1476.56 1.19218 -5.20214 0
M  V30 15423 O 1476.78 2.43101 -5.16002 0
M  V30 15424 O 1475.72 0.6744 -5.9811 0
M  V30 15425 H 1479.54 -0.673781 -2.96132 0
M  V30 15426 H 1477.13 -0.395211 -1.44078 0
M  V30 15427 H 1479.01 1.59151 -3.90191 0
M  V30 15428 H 1477.69 1.75844 -2.71773 0
M  V30 15429 H 1476.59 -0.327736 -3.72662 0
M  V30 15430 H 1477.93 -0.411584 -4.90476 0
M  V30 15431 N 1479.58 1.53054 -0.375806 0
M  V30 15432 C 1480.49 2.29772 0.47349 0
M  V30 15433 C 1481.5 1.36144 1.08355 0
M  V30 15434 O 1482.68 1.69208 1.09228 0
M  V30 15435 C 1479.75 3.07964 1.59245 0
M  V30 15436 C 1478.81 4.17277 1.00888 0
M  V30 15437 C 1478.04 4.91731 2.07451 0
M  V30 15438 O 1478.26 4.66143 3.28736 0
M  V30 15439 O 1477.2 5.77413 1.69936 0
M  V30 15440 H 1481.02 3.03324 -0.151105 0
M  V30 15441 H 1478.61 1.48744 -0.139895 0
M  V30 15442 H 1480.49 3.56759 2.24279 0
M  V30 15443 H 1479.16 2.37239 2.20226 0
M  V30 15444 H 1478.07 3.7271 0.322167 0
M  V30 15445 H 1479.4 4.90198 0.443483 0
M  V30 15446 N 1481.06 0.105248 1.57248 0
M  V30 15447 C 1482.3 -0.556878 1.95004 0
M  V30 15448 C 1482.64 -1.672 0.987818 0
M  V30 15449 O 1481.91 -1.94487 0.022616 0
M  V30 15450 C 1482.19 -1.10252 3.42807 0
M  V30 15451 C 1482.05 0.00823908 4.49799 0
M  V30 15452 C 1483.37 -1.99774 3.92146 0
M  V30 15453 H 1480.48 -0.200959 0.709073 0
M  V30 15454 H 1483.13 0.178019 1.89164 0
M  V30 15455 H 1481.28 -1.7288 3.47915 0
M  V30 15456 H 1482.95 0.642944 4.56797 0
M  V30 15457 H 1481.19 0.673265 4.28544 0
M  V30 15458 H 1481.86 -0.414538 5.50441 0
M  V30 15459 H 1484.34 -1.47036 3.89255 0
M  V30 15460 H 1483.21 -2.34874 4.9611 0
M  V30 15461 H 1483.48 -2.91902 3.32033 0
M  V30 15462 N 1482.53 -1.56697 -0.168486 0
M  V30 15463 C 1483.44 -1.99866 -1.22845 0
M  V30 15464 C 1484.46 -0.910491 -1.48277 0
M  V30 15465 O 1485.64 -1.21834 -1.6037 0
M  V30 15466 C 1482.7 -2.35227 -2.54694 0
M  V30 15467 C 1481.76 -3.57886 -2.37099 0
M  V30 15468 C 1481 -3.91551 -3.62661 0
M  V30 15469 O 1481.22 -3.26148 -4.67957 0
M  V30 15470 O 1480.15 -4.8489 -3.56603 0
M  V30 15471 H 1483.98 -2.90305 -0.892015 0
M  V30 15472 H 1481.56 -1.44602 -0.375571 0
M  V30 15473 H 1483.45 -2.58928 -3.32467 0
M  V30 15474 H 1482.12 -1.4795 -2.87911 0
M  V30 15475 H 1481.03 -3.394 -1.57348 0
M  V30 15476 H 1482.36 -4.45714 -2.08806 0
M  V30 15477 N 1484.01 0.437135 -1.51416 0
M  V30 15478 C 1484.94 1.538 -1.75692 0
M  V30 15479 C 1485.92 1.5891 -0.606759 0
M  V30 15480 O 1487.11 1.74635 -0.849492 0
M  V30 15481 C 1484.24 2.91877 -1.88215 0
M  V30 15482 C 1483.19 3.01628 -3.03652 0
M  V30 15483 C 1482.52 4.41687 -3.01358 0
M  V30 15484 C 1483.82 2.75691 -4.43612 0
M  V30 15485 H 1485.51 1.33737 -2.67871 0
M  V30 15486 H 1483.06 0.641936 -1.289 0
M  V30 15487 H 1485.01 3.68851 -2.03781 0
M  V30 15488 H 1483.74 3.13173 -0.926847 0
M  V30 15489 H 1482.39 2.27094 -2.87791 0
M  V30 15490 H 1482.04 4.5995 -2.03605 0
M  V30 15491 H 1481.74 4.49141 -3.78875 0
M  V30 15492 H 1483.27 5.20634 -3.19018 0
M  V30 15493 H 1484.68 3.42398 -4.59822 0
M  V30 15494 H 1483.08 2.94554 -5.22836 0
M  V30 15495 H 1484.15 1.71297 -4.53636 0
M  V30 15496 N 1485.49 1.41566 0.692592 0
M  V30 15497 C 1486.4 1.46014 1.83622 0
M  V30 15498 C 1487.42 0.350453 1.70434 0
M  V30 15499 O 1488.59 0.598634 1.92298 0
M  V30 15500 C 1485.66 1.34308 3.19628 0
M  V30 15501 C 1484.72 2.55617 3.44904 0
M  V30 15502 C 1483.95 2.4446 4.74421 0
M  V30 15503 O 1484.17 1.47078 5.51112 0
M  V30 15504 O 1483.11 3.34272 5.00546 0
M  V30 15505 H 1486.93 2.42504 1.82826 0
M  V30 15506 H 1484.52 1.23136 0.846039 0
M  V30 15507 H 1486.4 1.30075 4.00822 0
M  V30 15508 H 1485.08 0.409343 3.21101 0
M  V30 15509 H 1483.98 2.65426 2.63628 0
M  V30 15510 H 1485.32 3.47829 3.48247 0
M  V30 15511 N 1486.97 -0.927146 1.27443 0
M  V30 15512 C 1488.38 -1.48984 1.1252 0
M  V30 15513 C 1488.73 -1.94051 -0.289602 0
M  V30 15514 O 1487.86 -1.8123 -1.18257 0
M  V30 15515 C 1488.45 -2.70765 2.03646 0
M  V30 15516 C 1487.01 -3.23256 1.92827 0
M  V30 15517 C 1486.16 -1.95991 1.9617 0
M  V30 15518 H 1489.11 -0.741196 1.40328 0
M  V30 15519 H 1489.13 -3.45567 1.5926 0
M  V30 15520 H 1488.64 -2.37933 3.0661 0
M  V30 15521 H 1486.74 -3.60845 0.928516 0
M  V30 15522 H 1486.85 -3.89413 2.79096 0
M  V30 15523 H 1485.22 -2.12508 1.40402 0
M  V30 15524 H 1486 -1.65473 3.00788 0
M  V30 15525 N 1488.45 -1.09474 -1.13372 0
M  V30 15526 C 1489.36 -0.746674 -2.224 0
M  V30 15527 C 1490.37 0.251572 -1.72172 0
M  V30 15528 O 1491.55 0.092793 -2.01186 0
M  V30 15529 C 1488.61 -0.172965 -3.46268 0
M  V30 15530 C 1487.67 -1.22722 -4.11385 0
M  V30 15531 C 1486.91 -0.680794 -5.2934 0
M  V30 15532 O 1487.13 0.496135 -5.68238 0
M  V30 15533 O 1486.06 -1.43605 -5.84518 0
M  V30 15534 H 1489.89 -1.65649 -2.54547 0
M  V30 15535 H 1487.48 -0.869172 -1.21514 0
M  V30 15536 H 1489.36 0.143629 -4.21155 0
M  V30 15537 H 1488.03 0.709853 -3.15821 0
M  V30 15538 H 1486.94 -1.59652 -3.38323 0
M  V30 15539 H 1488.27 -2.0827 -4.45965 0
M  V30 15540 N 1489.92 1.30607 -0.882012 0
M  V30 15541 C 1490.85 2.30666 -0.362706 0
M  V30 15542 C 1491.84 1.60865 0.552861 0
M  V30 15543 O 1493.02 1.88493 0.467339 0
M  V30 15544 C 1490.15 3.44675 0.42622 0
M  V30 15545 C 1489.1 4.26152 -0.397322 0
M  V30 15546 C 1488.43 5.32185 0.518027 0
M  V30 15547 C 1489.73 4.95955 -1.63785 0
M  V30 15548 H 1491.42 2.74351 -1.19883 0
M  V30 15549 H 1488.97 1.31895 -0.577912 0
M  V30 15550 H 1490.92 4.13734 0.80013 0
M  V30 15551 H 1489.65 2.99787 1.29597 0
M  V30 15552 H 1488.31 3.58776 -0.753332 0
M  V30 15553 H 1487.95 4.83545 1.3854 0
M  V30 15554 H 1487.65 5.87593 -0.0291802 0
M  V30 15555 H 1489.18 6.04101 0.888518 0
M  V30 15556 H 1490.59 5.57547 -1.3347 0
M  V30 15557 H 1488.99 5.61215 -2.12504 0
M  V30 15558 H 1490.06 4.22252 -2.38394 0
M  V30 15559 N 1491.4 0.642663 1.43901 0
M  V30 15560 C 1492.68 0.0821715 1.95427 0
M  V30 15561 C 1493.06 -1.3951 1.58431 0
M  V30 15562 O 1492.41 -2.11531 0.864118 0
M  V30 15563 C 1492.62 0.317229 3.47555 0
M  V30 15564 C 1493.97 0.216547 4.24047 0
M  V30 15565 O 1494.99 0.249216 3.55327 0
M  V30 15566 O 1493.85 0.131269 5.46342 0
M  V30 15567 H 1490.94 -0.0156936 0.826851 0
M  V30 15568 H 1493.49 0.715168 1.53894 0
M  V30 15569 H 1492.26 1.34184 3.67574 0
M  V30 15570 H 1491.88 -0.349348 3.96062 0
M  V30 15571 N 1492.88 -1.52852 0.383918 0
M  V30 15572 C 1493.81 -2.29213 -0.44539 0
M  V30 15573 C 1494.79 -1.3238 -1.06815 0
M  V30 15574 O 1495.98 -1.61269 -1.08194 0
M  V30 15575 C 1493.11 -3.09497 -1.57573 0
M  V30 15576 C 1492.06 -4.14168 -1.07928 0
M  V30 15577 C 1491.39 -4.82644 -2.30128 0
M  V30 15578 C 1492.69 -5.22082 -0.151035 0
M  V30 15579 H 1494.38 -2.98786 0.19172 0
M  V30 15580 H 1491.93 -1.43695 0.0936471 0
M  V30 15581 H 1493.88 -3.61672 -2.16267 0
M  V30 15582 H 1492.6 -2.37647 -2.24034 0
M  V30 15583 H 1491.26 -3.62966 -0.514909 0
M  V30 15584 H 1490.91 -4.07348 -2.95087 0
M  V30 15585 H 1490.61 -5.53388 -1.97574 0
M  V30 15586 H 1492.14 -5.37621 -2.89475 0
M  V30 15587 H 1493.55 -5.69649 -0.646003 0
M  V30 15588 H 1491.95 -6.00041 0.0844833 0
M  V30 15589 H 1493.02 -4.78228 0.801618 0
M  V30 15590 N 1494.36 -0.113586 -1.5719 0
M  V30 15591 C 1495.64 0.588987 -1.86522 0
M  V30 15592 C 1496.02 1.85163 -1.01379 0
M  V30 15593 O 1495.36 2.28318 -0.0912188 0
M  V30 15594 C 1495.57 0.886633 -3.3755 0
M  V30 15595 C 1496.92 1.24206 -4.06027 0
M  V30 15596 O 1497.95 0.977068 -3.42537 0
M  V30 15597 O 1496.81 1.73914 -5.18089 0
M  V30 15598 H 1493.9 0.296637 -0.771968 0
M  V30 15599 H 1496.45 -0.147681 -1.69056 0
M  V30 15600 H 1495.22 -0.00835421 -3.91299 0
M  V30 15601 H 1494.84 1.67865 -3.60426 0
M  V30 15602 N 1495.84 1.56784 0.160173 0
M  V30 15603 C 1496.77 2.00298 1.20012 0
M  V30 15604 C 1497.75 0.880356 1.45546 0
M  V30 15605 O 1498.93 1.14724 1.56691 0
M  V30 15606 C 1496.06 2.37238 2.53645 0
M  V30 15607 C 1495.02 3.52563 2.42658 0
M  V30 15608 C 1494.34 3.75278 3.80881 0
M  V30 15609 C 1495.64 4.85657 1.92183 0
M  V30 15610 H 1497.34 2.87423 0.838362 0
M  V30 15611 H 1494.88 1.3828 0.401838 0
M  V30 15612 H 1496.84 2.66278 3.2661 0
M  V30 15613 H 1495.56 1.47035 2.9163 0
M  V30 15614 H 1494.22 3.23669 1.72146 0
M  V30 15615 H 1493.87 2.82347 4.1628 0
M  V30 15616 H 1493.57 4.52882 3.74396 0
M  V30 15617 H 1495.09 4.0673 4.55415 0
M  V30 15618 H 1496.51 5.13501 2.54931 0
M  V30 15619 H 1494.9 5.66975 1.96619 0
M  V30 15620 H 1495.97 4.76908 0.876742 0
M  V30 15621 N 1497.32 -0.429099 1.51646 0
M  V30 15622 C 1498.59 -1.18958 1.55269 0
M  V30 15623 C 1498.97 -2.08633 0.321816 0
M  V30 15624 O 1498.32 -2.1775 -0.69261 0
M  V30 15625 C 1498.53 -1.98427 2.87102 0
M  V30 15626 C 1499.88 -2.55185 3.39361 0
M  V30 15627 O 1500.9 -2.08629 2.88708 0
M  V30 15628 O 1499.76 -3.40119 4.27763 0
M  V30 15629 H 1496.86 -0.542041 0.624596 0
M  V30 15630 H 1499.4 -0.437499 1.63964 0
M  V30 15631 H 1498.17 -1.32613 3.68143 0
M  V30 15632 H 1497.8 -2.80683 2.81608 0
M  V30 15633 N 1498.79 -1.41931 -0.685074 0
M  V30 15634 C 1499.72 -1.47385 -1.81107 0
M  V30 15635 C 1500.7 -0.331433 -1.6684 0
M  V30 15636 O 1501.89 -0.544331 -1.86415 0
M  V30 15637 C 1499.02 -1.36555 -3.19327 0
M  V30 15638 C 1497.97 -2.48718 -3.48315 0
M  V30 15639 C 1497.3 -2.2295 -4.86002 0
M  V30 15640 C 1498.6 -3.91047 -3.46237 0
M  V30 15641 H 1500.29 -2.41624 -1.768 0
M  V30 15642 H 1497.84 -1.16297 -0.849178 0
M  V30 15643 H 1499.79 -1.38981 -3.97822 0
M  V30 15644 H 1498.52 -0.388063 -3.24286 0
M  V30 15645 H 1497.18 -2.45592 -2.72176 0
M  V30 15646 H 1496.82 -1.23518 -4.87598 0
M  V30 15647 H 1496.52 -2.98116 -5.0636 0
M  V30 15648 H 1498.05 -2.27108 -5.66793 0
M  V30 15649 H 1499.46 -3.95831 -4.14718 0
M  V30 15650 H 1497.86 -4.65981 -3.7813 0
M  V30 15651 H 1498.93 -4.1845 -2.45006 0
M  V30 15652 N 1500.27 0.920374 -1.27933 0
M  V30 15653 C 1501.18 2.05525 -1.13123 0
M  V30 15654 C 1502.2 1.73899 -0.059421 0
M  V30 15655 O 1503.37 1.99617 -0.267386 0
M  V30 15656 C 1500.44 3.37637 -0.787551 0
M  V30 15657 C 1499.5 3.82914 -1.94101 0
M  V30 15658 C 1498.73 5.08721 -1.61364 0
M  V30 15659 O 1498.96 5.6798 -0.524918 0
M  V30 15660 O 1497.89 5.4955 -2.45517 0
M  V30 15661 H 1501.72 2.20935 -2.08378 0
M  V30 15662 H 1499.3 1.04071 -1.07189 0
M  V30 15663 H 1501.18 4.16968 -0.609544 0
M  V30 15664 H 1499.86 3.23417 0.135407 0
M  V30 15665 H 1498.76 3.04438 -2.17413 0
M  V30 15666 H 1500.1 4.01687 -2.84444 0
M  V30 15667 N 1501.75 1.10074 1.1279 0
M  V30 15668 C 1502.71 0.74967 2.16593 0
M  V30 15669 C 1503.71 -0.224046 1.59232 0
M  V30 15670 O 1504.9 -0.00137104 1.742 0
M  V30 15671 C 1502.03 0.109795 3.40723 0
M  V30 15672 H 1503.23 1.66906 2.49164 0
M  V30 15673 H 1500.78 0.900781 1.27733 0
M  V30 15674 H 1501.52 -0.820501 3.13749 0
M  V30 15675 H 1501.3 0.810517 3.83631 0
M  V30 15676 H 1502.79 -0.120198 4.17427 0
M  V30 15677 N 1503.23 -1.30138 0.888926 0
M  V30 15678 C 1504.14 -2.31778 0.3628 0
M  V30 15679 C 1505.15 -1.65507 -0.53698 0
M  V30 15680 O 1506.33 -1.96775 -0.429152 0
M  V30 15681 C 1503.39 -3.44259 -0.410673 0
M  V30 15682 C 1502.46 -4.26147 0.519334 0
M  V30 15683 C 1501.69 -5.33257 -0.21732 0
M  V30 15684 O 1501.91 -5.5185 -1.44284 0
M  V30 15685 O 1500.85 -6.00329 0.43461 0
M  V30 15686 H 1504.67 -2.78739 1.20575 0
M  V30 15687 H 1502.26 -1.34379 0.65289 0
M  V30 15688 H 1504.14 -4.1277 -0.848467 0
M  V30 15689 H 1502.81 -2.99426 -1.22986 0
M  V30 15690 H 1501.72 -3.60319 1.00602 0
M  V30 15691 H 1503.05 -4.74595 1.30464 0
M  V30 15692 N 1504.71 -0.650285 -1.43559 0
M  V30 15693 C 1505.62 0.0438076 -2.34559 0
M  V30 15694 C 1506.63 0.815316 -1.53716 0
M  V30 15695 O 1507.81 0.76323 -1.86378 0
M  V30 15696 C 1504.87 1.00028 -3.31957 0
M  V30 15697 C 1503.93 0.226027 -4.28705 0
M  V30 15698 C 1503.17 1.13694 -5.21449 0
M  V30 15699 O 1503.39 2.37614 -5.18551 0
M  V30 15700 O 1502.32 0.610924 -5.98792 0
M  V30 15701 H 1506.15 -0.705152 -2.954 0
M  V30 15702 H 1503.73 -0.410471 -1.43651 0
M  V30 15703 H 1505.62 1.55004 -3.91857 0
M  V30 15704 H 1504.29 1.72952 -2.73623 0
M  V30 15705 H 1503.2 -0.367244 -3.72293 0
M  V30 15706 H 1504.53 -0.463582 -4.90012 0
M  V30 15707 N 1506.18 1.52647 -0.392018 0
M  V30 15708 C 1507.46 1.94034 0.247004 0
M  V30 15709 C 1507.84 1.32767 1.64122 0
M  V30 15710 O 1507.19 0.496822 2.23033 0
M  V30 15711 C 1507.4 3.47949 0.270615 0
M  V30 15712 C 1508.75 4.21666 0.498256 0
M  V30 15713 O 1509.77 3.54469 0.350708 0
M  V30 15714 O 1508.63 5.40795 0.787586 0
M  V30 15715 H 1505.72 0.812487 0.154251 0
M  V30 15716 H 1508.27 1.63715 -0.446723 0
M  V30 15717 H 1507.04 3.84881 -0.705862 0
M  V30 15718 H 1506.66 3.8458 1.00915 0
M  V30 15719 N 1507.66 0.121921 1.57128 0
M  V30 15720 C 1508.61 -0.844503 2.16728 0
M  V30 15721 C 1509.6 -1.2733 1.1173 0
M  V30 15722 O 1510.81 -1.2447 1.30028 0
M  V30 15723 H 1507.19 -0.290459 0.693641 0
M  V30 15724 H 1509.16 -0.317379 2.96707 0
M  V30 15725 C 1507.91 -2.08359 2.78356 0
M  V30 15726 H 1507.23 -1.76258 3.5885 0
M  V30 15727 H 1508.67 -2.73978 3.23592 0
M  V30 15728 C 1507.13 -2.87526 1.75586 0
M  V30 15729 O 1507.66 -3.83011 1.21101 0
M  V30 15730 N 1505.86 -2.51575 1.4546 0
M  V30 15731 H 1505.41 -1.73993 1.89958 0
M  V30 15732 H 1505.37 -3.0484 0.769411 0
M  V30 15733 N 1509.14 -1.56867 -0.151857 0
M  V30 15734 C 1510.07 -2.00932 -1.18949 0
M  V30 15735 C 1511.05 -0.888062 -1.45077 0
M  V30 15736 O 1512.24 -1.15553 -1.56081 0
M  V30 15737 C 1509.37 -2.3858 -2.52383 0
M  V30 15738 C 1508.32 -3.53845 -2.40785 0
M  V30 15739 C 1507.65 -3.77292 -3.78886 0
M  V30 15740 C 1508.95 -4.8667 -1.89605 0
M  V30 15741 H 1510.64 -2.87863 -0.823107 0
M  V30 15742 H 1508.19 -1.38491 -0.394499 0
M  V30 15743 H 1510.14 -2.68006 -3.25193 0
M  V30 15744 H 1508.86 -1.48579 -2.90847 0
M  V30 15745 H 1507.52 -3.24577 -1.70427 0
M  V30 15746 H 1507.17 -2.84551 -4.14777 0
M  V30 15747 H 1506.87 -4.54861 -3.71989 0
M  V30 15748 H 1508.39 -4.09139 -4.53252 0
M  V30 15749 H 1509.81 -5.14846 -2.52204 0
M  V30 15750 H 1508.21 -5.6801 -1.93609 0
M  V30 15751 H 1509.28 -4.77366 -0.851438 0
M  V30 15752 N 1510.62 0.421051 -1.51871 0
M  V30 15753 C 1511.58 1.49478 -1.73749 0
M  V30 15754 C 1512.58 1.48887 -0.607395 0
M  V30 15755 O 1513.77 1.50622 -0.875143 0
M  V30 15756 C 1510.9 2.88947 -1.80893 0
M  V30 15757 H 1512.1 1.31377 -2.69593 0
M  V30 15758 H 1509.65 0.650786 -1.42107 0
M  V30 15759 H 1510.38 3.12434 -0.86922 0
M  V30 15760 H 1510.17 2.90781 -2.63038 0
M  V30 15761 H 1511.66 3.66809 -1.99602 0
M  V30 15762 N 1512.1 1.42293 0.677538 0
M  V30 15763 C 1513.32 1.46008 1.46592 0
M  V30 15764 C 1513.74 0.0706015 1.88668 0
M  V30 15765 O 1513.1 -0.914076 1.57959 0
M  V30 15766 C 1513.15 2.38477 2.71682 0
M  V30 15767 O 1512.87 3.72019 2.31372 0
M  V30 15768 C 1514.37 2.51185 3.65269 0
M  V30 15769 H 1511.59 0.49669 0.451154 0
M  V30 15770 H 1514.13 1.86777 0.832736 0
M  V30 15771 H 1512.29 2.00969 3.31195 0
M  V30 15772 H 1512.7 4.21514 3.12131 0
M  V30 15773 H 1514.18 3.20014 4.49772 0
M  V30 15774 H 1514.65 1.54885 4.10983 0
M  V30 15775 H 1515.26 2.89404 3.1165 0
M  V30 15776 N 1513.57 -0.913576 1.28419 0
M  V30 15777 C 1514.8 -1.69649 1.18435 0
M  V30 15778 C 1515.22 -1.87043 -0.256987 0
M  V30 15779 O 1514.57 -1.39755 -1.17366 0
M  V30 15780 C 1514.63 -3.08855 1.87859 0
M  V30 15781 O 1514.35 -2.92265 3.26363 0
M  V30 15782 C 1515.85 -4.03229 1.84178 0
M  V30 15783 H 1513.07 -0.530307 0.411115 0
M  V30 15784 H 1515.61 -1.14342 1.69547 0
M  V30 15785 H 1513.77 -3.60979 1.40617 0
M  V30 15786 H 1514.18 -3.80372 3.61134 0
M  V30 15787 H 1515.65 -4.98369 2.37344 0
M  V30 15788 H 1516.13 -4.31587 0.814195 0
M  V30 15789 H 1516.74 -3.57033 2.311 0
M  V30 15790 N 1515.05 -1.1067 -1.12204 0
M  V30 15791 C 1516.28 -0.872867 -1.87586 0
M  V30 15792 C 1516.7 0.57682 -1.79773 0
M  V30 15793 O 1516.05 1.39782 -1.17334 0
M  V30 15794 C 1516.1 -1.31572 -3.36706 0
M  V30 15795 O 1515.82 -2.70856 -3.44338 0
M  V30 15796 C 1517.33 -1.11613 -4.29019 0
M  V30 15797 H 1514.55 -0.313132 -0.593455 0
M  V30 15798 H 1517.09 -1.47199 -1.4196 0
M  V30 15799 H 1515.24 -0.760212 -3.79868 0
M  V30 15800 H 1515.66 -2.89854 -4.37132 0
M  V30 15801 H 1517.13 -1.4751 -5.31925 0
M  V30 15802 H 1517.61 -0.0549698 -4.39166 0
M  V30 15803 H 1518.22 -1.65822 -3.91642 0
M  V30 15804 N 1516.53 1.29665 -0.895815 0
M  V30 15805 C 1517.46 2.30268 -0.387151 0
M  V30 15806 C 1518.44 1.61442 0.535768 0
M  V30 15807 O 1519.63 1.88978 0.447321 0
M  V30 15808 C 1516.76 3.45107 0.389639 0
M  V30 15809 C 1515.71 4.25706 -0.442498 0
M  V30 15810 C 1515.04 5.32704 0.461552 0
M  V30 15811 C 1516.34 4.9419 -1.69036 0
M  V30 15812 H 1518.03 2.73064 -1.22786 0
M  V30 15813 H 1515.58 1.31274 -0.591869 0
M  V30 15814 H 1517.53 4.14559 0.756203 0
M  V30 15815 H 1516.25 3.01145 1.2641 0
M  V30 15816 H 1514.91 3.57957 -0.791343 0
M  V30 15817 H 1514.56 4.84987 1.33403 0
M  V30 15818 H 1514.26 5.87529 -0.0915006 0
M  V30 15819 H 1515.78 6.05009 0.824395 0
M  V30 15820 H 1517.2 5.561 -1.39376 0
M  V30 15821 H 1515.6 5.5893 -2.18444 0
M  V30 15822 H 1516.67 4.19699 -2.42859 0
M  V30 15823 N 1518.01 0.657889 1.43212 0
M  V30 15824 C 1519.26 0.172845 2.0136 0
M  V30 15825 C 1519.58 -1.21911 1.52193 0
M  V30 15826 O 1518.85 -1.81529 0.736492 0
M  V30 15827 H 1517.43 0.0609091 0.744513 0
M  V30 15828 H 1520.09 0.850605 1.75359 0
M  V30 15829 H 1519.19 0.161062 3.11684 0
M  V30 15830 N 1519.49 -1.52437 0.400108 0
M  V30 15831 C 1520.71 -2.0661 -0.180861 0
M  V30 15832 C 1521.14 -1.269 -1.38845 0
M  V30 15833 O 1520.49 -0.296862 -1.78853 0
M  V30 15834 C 1520.54 -3.56851 -0.518595 0
M  V30 15835 O 1519.65 -3.79634 -1.61095 0
M  V30 15836 H 1518.99 -0.663752 -0.0181348 0
M  V30 15837 H 1521.52 -1.96479 0.570702 0
M  V30 15838 H 1521.53 -4.00478 -0.779817 0
M  V30 15839 H 1520.2 -4.14302 0.364216 0
M  V30 15840 H 1518.78 -3.47892 -1.3426 0
M  V30 15841 N 1520.96 -0.130252 -1.57061 0
M  V30 15842 C 1521.93 0.801529 -2.14728 0
M  V30 15843 C 1522.93 1.18687 -1.08489 0
M  V30 15844 O 1524.12 1.11054 -1.34211 0
M  V30 15845 C 1521.25 2.08542 -2.69672 0
M  V30 15846 H 1522.44 0.300172 -2.98394 0
M  V30 15847 H 1520 0.119077 -1.55846 0
M  V30 15848 H 1520.73 2.63083 -1.89625 0
M  V30 15849 H 1520.52 1.81849 -3.47381 0
M  V30 15850 H 1522.01 2.75126 -3.14158 0
M  V30 15851 N 1522.44 1.56945 0.143535 0
M  V30 15852 C 1523.37 2.0156 1.17881 0
M  V30 15853 C 1524.35 0.895744 1.44604 0
M  V30 15854 O 1525.54 1.16379 1.55466 0
M  V30 15855 C 1522.67 2.39915 2.51114 0
M  V30 15856 C 1521.62 3.55117 2.38905 0
M  V30 15857 C 1520.95 3.79296 3.7688 0
M  V30 15858 C 1522.25 4.87668 1.87021 0
M  V30 15859 H 1523.94 2.88296 0.80783 0
M  V30 15860 H 1521.49 1.38698 0.387149 0
M  V30 15861 H 1523.44 2.69727 3.23767 0
M  V30 15862 H 1522.17 1.5012 2.90055 0
M  V30 15863 H 1520.83 3.25476 1.68703 0
M  V30 15864 H 1520.47 2.86747 4.13262 0
M  V30 15865 H 1520.17 4.56827 3.69571 0
M  V30 15866 H 1521.7 4.11537 4.51076 0
M  V30 15867 H 1523.11 5.16176 2.4947 0
M  V30 15868 H 1521.51 5.69029 1.90594 0
M  V30 15869 H 1522.58 4.77811 0.82611 0
M  V30 15870 N 1523.92 -0.412991 1.52093 0
M  V30 15871 C 1525.15 -1.18667 1.70096 0
M  V30 15872 C 1525.57 -1.83622 0.408012 0
M  V30 15873 O 1524.93 -1.69847 -0.634174 0
M  V30 15874 C 1524.98 -2.22837 2.83507 0
M  V30 15875 O 1524.08 -3.2889 2.48807 0
M  V30 15876 H 1523.42 -0.346581 0.566373 0
M  V30 15877 H 1525.95 -0.484642 1.98777 0
M  V30 15878 H 1525.96 -2.67229 3.08306 0
M  V30 15879 H 1524.64 -1.74942 3.77317 0
M  V30 15880 H 1523.21 -2.89804 2.34665 0
M  V30 15881 N 1525.4 -1.4265 -0.669982 0
M  V30 15882 C 1526.33 -1.49298 -1.79534 0
M  V30 15883 C 1527.31 -0.34911 -1.66479 0
M  V30 15884 O 1528.5 -0.564072 -1.85828 0
M  V30 15885 C 1525.63 -1.39935 -3.17861 0
M  V30 15886 C 1524.58 -2.52398 -3.45657 0
M  V30 15887 C 1523.91 -2.28092 -4.8361 0
M  V30 15888 C 1525.21 -3.94697 -3.4207 0
M  V30 15889 H 1526.9 -2.43486 -1.74227 0
M  V30 15890 H 1524.45 -1.17191 -0.836796 0
M  V30 15891 H 1526.4 -1.43193 -3.96325 0
M  V30 15892 H 1525.12 -0.422436 -3.23857 0
M  V30 15893 H 1523.78 -2.48465 -2.69556 0
M  V30 15894 H 1523.43 -1.28683 -4.86261 0
M  V30 15895 H 1523.13 -3.03469 -5.0317 0
M  V30 15896 H 1524.65 -2.33107 -5.64352 0
M  V30 15897 H 1526.07 -4.00207 -4.10496 0
M  V30 15898 H 1524.46 -4.69965 -3.73166 0
M  V30 15899 H 1525.53 -4.21025 -2.40554 0
M  V30 15900 N 1526.88 0.906753 -1.28902 0
M  V30 15901 C 1528.29 1.47175 -1.14876 0
M  V30 15902 C 1528.64 1.94487 0.258693 0
M  V30 15903 O 1527.76 1.83088 1.15359 0
M  V30 15904 C 1528.36 2.67491 -2.07928 0
M  V30 15905 C 1526.92 3.20148 -1.97946 0
M  V30 15906 C 1526.07 1.92846 -1.99263 0
M  V30 15907 H 1529.02 0.718777 -1.4149 0
M  V30 15908 H 1529.04 3.42989 -1.64738 0
M  V30 15909 H 1528.55 2.33025 -3.10356 0
M  V30 15910 H 1526.65 3.59322 -0.985806 0
M  V30 15911 H 1526.76 3.84923 -2.85256 0
M  V30 15912 H 1525.13 2.10247 -1.43765 0
M  V30 15913 H 1525.91 1.60666 -3.03383 0
M  V30 15914 N 1528.36 1.11264 1.11616 0
M  V30 15915 C 1529.6 0.861639 1.83585 0
M  V30 15916 C 1529.93 -0.611221 1.8433 0
M  V30 15917 O 1529.21 -1.45116 1.29505 0
M  V30 15918 C 1529.49 1.42157 3.30852 0
M  V30 15919 C 1529.35 2.96192 3.38512 0
M  V30 15920 C 1530.66 1.07099 4.2687 0
M  V30 15921 H 1527.78 0.314464 0.666545 0
M  V30 15922 H 1530.43 1.37722 1.30892 0
M  V30 15923 H 1528.58 0.983054 3.75857 0
M  V30 15924 H 1530.25 3.48634 3.0208 0
M  V30 15925 H 1528.49 3.32353 2.7879 0
M  V30 15926 H 1529.16 3.30457 4.42156 0
M  V30 15927 H 1531.64 1.44952 3.90036 0
M  V30 15928 H 1530.51 1.48957 5.28302 0
M  V30 15929 H 1530.77 -0.018482 4.42096 0
M  V30 15930 N 1529.83 -1.29188 0.902679 0
M  V30 15931 C 1531.08 -1.95052 0.529076 0
M  V30 15932 C 1531.4 -1.7149 -0.92824 0
M  V30 15933 O 1530.67 -1.04834 -1.65489 0
M  V30 15934 H 1529.25 -0.721725 0.192671 0
M  V30 15935 H 1531.91 -1.57384 1.14962 0
M  V30 15936 H 1531.01 -3.03819 0.714179 0
M  V30 15937 N 1531.31 -0.665475 -1.42861 0
M  V30 15938 C 1532.54 -0.192 -2.06007 0
M  V30 15939 C 1532.95 1.1472 -1.49949 0
M  V30 15940 O 1532.31 1.71074 -0.635599 0
M  V30 15941 C 1532.36 -0.108189 -3.61338 0
M  V30 15942 O 1532.08 -1.39446 -4.15315 0
M  V30 15943 C 1533.58 0.3899 -4.41582 0
M  V30 15944 H 1530.8 -0.0955812 -0.664158 0
M  V30 15945 H 1533.35 -0.909582 -1.83158 0
M  V30 15946 H 1531.5 0.560024 -3.83331 0
M  V30 15947 H 1531.92 -1.26168 -5.09099 0
M  V30 15948 H 1533.39 0.39747 -5.50567 0
M  V30 15949 H 1533.87 1.42348 -4.15492 0
M  V30 15950 H 1534.47 -0.246248 -4.24587 0
M  V30 15951 N 1532.79 1.52222 -0.408187 0
M  V30 15952 C 1533.72 2.29892 0.408868 0
M  V30 15953 C 1534.7 1.34063 1.04695 0
M  V30 15954 O 1535.89 1.6297 1.05615 0
M  V30 15955 C 1533.02 3.11964 1.52629 0
M  V30 15956 C 1531.97 4.15833 1.01326 0
M  V30 15957 C 1531.3 4.86244 2.2242 0
M  V30 15958 C 1532.6 5.22256 0.0679573 0
M  V30 15959 H 1534.29 2.98443 -0.23923 0
M  V30 15960 H 1531.84 1.43528 -0.116496 0
M  V30 15961 H 1533.79 3.65067 2.10486 0
M  V30 15962 H 1532.51 2.41181 2.20225 0
M  V30 15963 H 1531.17 3.63739 0.4571 0
M  V30 15964 H 1530.82 4.11991 2.88569 0
M  V30 15965 H 1530.52 5.56461 1.88746 0
M  V30 15966 H 1532.04 5.42159 2.80885 0
M  V30 15967 H 1533.46 5.70604 0.555295 0
M  V30 15968 H 1531.85 5.9983 -0.179934 0
M  V30 15969 H 1532.92 4.76892 -0.877599 0
M  V30 15970 N 1534.27 0.138579 1.5699 0
M  V30 15971 C 1535.22 -0.821469 2.17611 0
M  V30 15972 C 1536.21 -1.26137 1.13074 0
M  V30 15973 O 1537.42 -1.23084 1.31341 0
M  V30 15974 H 1533.79 -0.283086 0.696682 0
M  V30 15975 H 1535.76 -0.285891 2.97027 0
M  V30 15976 C 1534.51 -2.05395 2.8055 0
M  V30 15977 H 1533.83 -1.72442 3.60699 0
M  V30 15978 H 1535.27 -2.70531 3.2648 0
M  V30 15979 C 1533.73 -2.85647 1.78626 0
M  V30 15980 O 1534.26 -3.81705 1.25156 0
M  V30 15981 N 1532.47 -2.50018 1.4812 0
M  V30 15982 H 1532.02 -1.71969 1.91793 0
M  V30 15983 H 1531.97 -3.04007 0.8017 0
M  V30 15984 N 1535.75 -1.57019 -0.13521 0
M  V30 15985 C 1537.16 -1.51949 -0.48824 0
M  V30 15986 C 1537.36 -0.848955 -1.82743 0
M  V30 15987 O 1536.42 -0.424441 -2.48907 0
M  V30 15988 C 1537.73 -2.96719 -0.487673 0
M  V30 15989 C 1539.28 -3.07722 -0.572365 0
M  V30 15990 C 1539.75 -4.54022 -0.602347 0
M  V30 15991 N 1541.24 -4.58413 -0.664242 0
M  V30 15992 C 1541.98 -5.69005 -0.70862 0
M  V30 15993 N 1541.48 -6.89135 -0.711626 0
M  V30 15994 N 1543.27 -5.57069 -0.750399 0
M  V30 15995 H 1535.42 -1.99001 0.742465 0
M  V30 15996 H 1537.68 -0.908116 0.272083 0
M  V30 15997 H 1537.39 -3.49082 0.428363 0
M  V30 15998 H 1537.26 -3.53299 -1.32136 0
M  V30 15999 H 1539.65 -2.55372 -1.47882 0
M  V30 16000 H 1539.73 -2.54166 0.288696 0
M  V30 16001 H 1539.37 -5.07013 0.3 0
M  V30 16002 H 1539.3 -5.05373 -1.48006 0
M  V30 16003 H 1541.8 -3.71936 -0.668739 0
M  V30 16004 H 1542.11 -7.69175 -0.747663 0
M  V30 16005 H 1540.45 -6.91672 -0.679311 0
M  V30 16006 H 1543.64 -4.62129 -0.745301 0
M  V30 16007 H 1543.82 -6.4327 -0.781518 0
M  V30 16008 N 1537.22 0.404919 -1.52309 0
M  V30 16009 C 1538.64 0.983553 -1.58692 0
M  V30 16010 C 1538.99 1.9143 -0.429993 0
M  V30 16011 O 1538.11 2.11689 0.449088 0
M  V30 16012 C 1538.71 1.79059 -2.87617 0
M  V30 16013 C 1537.27 2.31918 -2.96464 0
M  V30 16014 C 1536.41 1.12018 -2.53667 0
M  V30 16015 H 1539.36 0.185007 -1.57618 0
M  V30 16016 H 1539.38 2.64836 -2.73207 0
M  V30 16017 H 1538.9 1.11291 -3.71801 0
M  V30 16018 H 1537 3.03044 -2.16783 0
M  V30 16019 H 1537.11 2.62495 -4.00791 0
M  V30 16020 H 1535.47 1.47542 -2.07614 0
M  V30 16021 H 1536.26 0.458111 -3.4023 0
M  V30 16022 N 1538.7 1.43003 0.662408 0
M  V30 16023 C 1540.12 1.26201 0.977003 0
M  V30 16024 C 1540.32 0.175104 2.00738 0
M  V30 16025 O 1539.37 -0.44954 2.48466 0
M  V30 16026 C 1540.69 2.62319 1.47001 0
M  V30 16027 C 1542.24 2.69776 1.58714 0
M  V30 16028 C 1542.71 4.06289 2.11408 0
M  V30 16029 N 1544.2 4.08307 2.18724 0
M  V30 16030 C 1544.94 5.10761 2.60598 0
M  V30 16031 N 1544.43 6.23593 3.01834 0
M  V30 16032 N 1546.23 4.98115 2.60456 0
M  V30 16033 H 1538.38 2.12391 -0.0195698 0
M  V30 16034 H 1540.64 0.946472 0.0538044 0
M  V30 16035 H 1540.35 3.42773 0.78736 0
M  V30 16036 H 1540.22 2.87088 2.44664 0
M  V30 16037 H 1542.61 1.89659 2.26083 0
M  V30 16038 H 1542.69 2.48782 0.595081 0
M  V30 16039 H 1542.33 4.86868 1.44644 0
M  V30 16040 H 1542.26 4.24641 3.11428 0
M  V30 16041 H 1544.75 3.26857 1.89665 0
M  V30 16042 H 1545.07 6.97609 3.32509 0
M  V30 16043 H 1543.41 6.27079 2.99661 0
M  V30 16044 H 1546.6 4.09037 2.27611 0
M  V30 16045 H 1546.77 5.78092 2.92769 0
M  V30 16046 N 1540.18 -0.899904 1.29381 0
M  V30 16047 C 1541.43 -1.64712 1.17109 0
M  V30 16048 C 1541.75 -1.93011 -0.277772 0
M  V30 16049 O 1541.02 -1.55604 -1.19013 0
M  V30 16050 H 1539.6 -0.610532 0.430418 0
M  V30 16051 H 1542.26 -1.07905 1.62304 0
M  V30 16052 H 1541.36 -2.60362 1.72098 0
M  V30 16053 N 1541.66 -1.11854 -1.11024 0
M  V30 16054 C 1542.88 -0.892999 -1.8719 0
M  V30 16055 C 1543.31 0.552058 -1.79816 0
M  V30 16056 O 1542.67 1.39025 -1.16369 0
M  V30 16057 C 1542.71 -1.3647 -3.33779 0
M  V30 16058 O 1541.82 -0.539202 -4.0886 0
M  V30 16059 H 1541.16 -0.321319 -0.581076 0
M  V30 16060 H 1543.69 -1.4891 -1.4031 0
M  V30 16061 H 1543.7 -1.3611 -3.84627 0
M  V30 16062 H 1542.37 -2.41694 -3.38462 0
M  V30 16063 H 1540.95 -0.60927 -3.67889 0
M  V30 16064 N 1543.14 1.28707 -0.909517 0
M  V30 16065 C 1544.07 2.26481 -0.35198 0
M  V30 16066 C 1545.08 1.54698 0.507199 0
M  V30 16067 O 1546.27 1.75558 0.322765 0
M  V30 16068 C 1543.37 3.3495 0.515897 0
M  V30 16069 C 1542.54 4.36229 -0.3198 0
M  V30 16070 C 1541.6 5.23983 0.482483 0
M  V30 16071 O 1540.63 5.69106 -0.10347 0
M  V30 16072 N 1541.83 5.52328 1.78645 0
M  V30 16073 H 1544.6 2.74959 -1.19238 0
M  V30 16074 H 1542.16 1.42144 -0.775023 0
M  V30 16075 H 1544.15 3.90592 1.05925 0
M  V30 16076 H 1542.72 2.86214 1.257 0
M  V30 16077 H 1541.94 3.80109 -1.04454 0
M  V30 16078 H 1543.23 5.00924 -0.891769 0
M  V30 16079 H 1542.62 5.17494 2.28509 0
M  V30 16080 H 1541.18 6.10744 2.27672 0
M  V30 16081 N 1544.61 0.673042 1.42506 0
M  V30 16082 C 1545.84 0.201349 2.0642 0
M  V30 16083 C 1546.26 -1.132 1.50224 0
M  V30 16084 O 1545.62 -1.70368 0.620024 0
M  V30 16085 C 1545.67 0.14505 3.60308 0
M  V30 16086 O 1544.77 -0.886953 4.02749 0
M  V30 16087 H 1544.12 0.103975 0.655809 0
M  V30 16088 H 1546.65 0.921559 1.8267 0
M  V30 16089 H 1546.66 -0.0316792 4.07988 0
M  V30 16090 H 1545.33 1.11829 4.00583 0
M  V30 16091 H 1543.91 -0.681408 3.66621 0
M  V30 16092 N 1546.09 -1.52004 0.416254 0
M  V30 16093 C 1547.02 -2.30106 -0.396671 0
M  V30 16094 C 1548 -1.34616 -1.03983 0
M  V30 16095 O 1549.19 -1.63528 -1.04749 0
M  V30 16096 C 1546.32 -3.12769 -1.50972 0
M  V30 16097 C 1545.27 -4.16365 -0.99119 0
M  V30 16098 C 1544.6 -4.87417 -2.19838 0
M  V30 16099 C 1545.9 -5.22284 -0.0402599 0
M  V30 16100 H 1547.59 -2.98312 0.255054 0
M  V30 16101 H 1545.14 -1.43464 0.124106 0
M  V30 16102 H 1547.09 -3.66178 -2.08547 0
M  V30 16103 H 1545.82 -2.42346 -2.18943 0
M  V30 16104 H 1544.47 -3.63976 -0.437803 0
M  V30 16105 H 1544.12 -4.13516 -2.8638 0
M  V30 16106 H 1543.82 -5.57454 -1.85792 0
M  V30 16107 H 1545.35 -5.43641 -2.78006 0
M  V30 16108 H 1546.76 -5.70891 -0.525027 0
M  V30 16109 H 1545.16 -5.99726 0.211742 0
M  V30 16110 H 1546.23 -4.7642 0.902877 0
M  V30 16111 N 1547.57 -0.146903 -1.56914 0
M  V30 16112 C 1548.5 0.788924 -2.19769 0
M  V30 16113 C 1549.48 1.25712 -1.14589 0
M  V30 16114 O 1550.67 1.3147 -1.42931 0
M  V30 16115 C 1547.8 2.02824 -2.81921 0
M  V30 16116 C 1546.75 1.69683 -3.92927 0
M  V30 16117 C 1546.08 3.00877 -4.42015 0
M  V30 16118 C 1547.38 0.943559 -5.13706 0
M  V30 16119 H 1549.07 0.265076 -2.98224 0
M  V30 16120 H 1546.62 0.126057 -1.43447 0
M  V30 16121 H 1548.57 2.68773 -3.2456 0
M  V30 16122 H 1547.29 2.57581 -2.00797 0
M  V30 16123 H 1545.95 1.06112 -3.50907 0
M  V30 16124 H 1545.6 3.53625 -3.57713 0
M  V30 16125 H 1545.3 2.79466 -5.16888 0
M  V30 16126 H 1546.82 3.67897 -4.87323 0
M  V30 16127 H 1548.24 1.50513 -5.5319 0
M  V30 16128 H 1546.64 0.829387 -5.94341 0
M  V30 16129 H 1547.71 -0.0647228 -4.84857 0
M  V30 16130 N 1549.05 1.57088 0.126881 0
M  V30 16131 C 1550.27 1.88984 0.854389 0
M  V30 16132 C 1550.7 0.738037 1.73016 0
M  V30 16133 O 1550.06 -0.311728 1.786 0
M  V30 16134 C 1550.1 3.19584 1.67028 0
M  V30 16135 O 1549.21 3.04935 2.77648 0
M  V30 16136 H 1548.55 0.620354 0.236763 0
M  V30 16137 H 1551.08 2.04295 0.111647 0
M  V30 16138 H 1551.09 3.52109 2.06115 0
M  V30 16139 H 1549.76 4.03012 1.02732 0
M  V30 16140 H 1548.34 2.83861 2.41821 0
M  V30 16141 N 1550.53 -0.396836 1.52522 0
M  V30 16142 C 1551.94 -0.975124 1.59211 0
M  V30 16143 C 1552.29 -1.91199 0.440138 0
M  V30 16144 O 1551.41 -2.11924 -0.437856 0
M  V30 16145 C 1552.01 -1.77531 2.88562 0
M  V30 16146 C 1550.57 -2.30343 2.9769 0
M  V30 16147 C 1549.71 -1.10671 2.54258 0
M  V30 16148 H 1552.67 -0.176646 1.57714 0
M  V30 16149 H 1552.69 -2.63384 2.74607 0
M  V30 16150 H 1552.2 -1.09318 3.72386 0
M  V30 16151 H 1550.3 -3.01891 2.18387 0
M  V30 16152 H 1550.41 -2.60366 4.02177 0
M  V30 16153 H 1548.78 -1.46439 2.08393 0
M  V30 16154 H 1549.56 -0.440061 3.40468 0
M  V30 16155 N 1552.01 -1.43353 -0.654814 0
M  V30 16156 C 1553.23 -1.48536 -1.44748 0
M  V30 16157 C 1553.66 -0.103991 -1.87812 0
M  V30 16158 O 1553.01 0.901924 -1.57274 0
M  V30 16159 C 1553.06 -2.43498 -2.65972 0
M  V30 16160 O 1552.17 -1.92014 -3.64972 0
M  V30 16161 H 1551.51 -0.502476 -0.434067 0
M  V30 16162 H 1554.04 -1.88251 -0.801427 0
M  V30 16163 H 1554.05 -2.60748 -3.13806 0
M  V30 16164 H 1552.72 -3.43847 -2.3397 0
M  V30 16165 H 1551.3 -1.84417 -3.24106 0
M  V30 16166 N 1553.48 0.89303 -1.29857 0
M  V30 16167 C 1554.71 1.6827 -1.21243 0
M  V30 16168 C 1555.13 1.86778 0.222621 0
M  V30 16169 O 1554.49 1.39291 1.1605 0
M  V30 16170 C 1554.54 3.041 -1.93792 0
M  V30 16171 O 1553.64 3.92696 -1.25951 0
M  V30 16172 H 1552.98 0.514479 -0.419771 0
M  V30 16173 H 1555.51 1.11513 -1.7154 0
M  V30 16174 H 1555.52 3.54198 -2.02504 0
M  V30 16175 H 1554.2 2.89948 -2.98166 0
M  V30 16176 H 1552.78 3.51132 -1.25541 0
M  V30 16177 N 1554.96 1.12442 1.10429 0
M  V30 16178 C 1556.21 0.878021 1.82031 0
M  V30 16179 C 1556.53 -0.597787 1.85611 0
M  V30 16180 O 1555.8 -1.43442 1.33422 0
M  V30 16181 H 1554.38 0.321839 0.674113 0
M  V30 16182 H 1557.04 1.41891 1.33615 0
M  V30 16183 H 1556.14 1.25957 2.85554 0
M  V30 16184 N 1556.44 -1.28223 0.91633 0
M  V30 16185 C 1557.67 -1.98697 0.56595 0
M  V30 16186 C 1558.08 -1.6864 -0.857734 0
M  V30 16187 O 1557.42 -0.937018 -1.58005 0
M  V30 16188 C 1557.48 -3.52653 0.698292 0
M  V30 16189 C 1557.15 -4.06306 2.092 0
M  V30 16190 C 1558.14 -4.19946 3.06499 0
M  V30 16191 C 1555.83 -4.40934 2.40587 0
M  V30 16192 C 1557.82 -4.67471 4.33301 0
M  V30 16193 C 1555.51 -4.88153 3.67628 0
M  V30 16194 C 1556.51 -5.01378 4.63798 0
M  V30 16195 O 1556.2 -5.47566 5.8858 0
M  V30 16196 H 1555.93 -0.641153 0.214239 0
M  V30 16197 H 1558.48 -1.64322 1.23237 0
M  V30 16198 H 1556.71 -3.86692 -0.0252036 0
M  V30 16199 H 1558.4 -4.04348 0.354638 0
M  V30 16200 H 1559.17 -3.93464 2.83569 0
M  V30 16201 H 1555.05 -4.29889 1.66482 0
M  V30 16202 H 1558.59 -4.77709 5.0837 0
M  V30 16203 H 1554.49 -5.14074 3.90382 0
M  V30 16204 H 1555.25 -5.65845 5.91406 0
M  V30 16205 N 1557.92 -0.68059 -1.42147 0
M  V30 16206 C 1558.85 0.0444079 -2.28157 0
M  V30 16207 C 1559.83 0.802929 -1.41392 0
M  V30 16208 O 1561.01 0.796856 -1.70829 0
M  V30 16209 C 1558.14 1.07013 -3.2135 0
M  V30 16210 C 1557.19 0.406524 -4.24558 0
M  V30 16211 S 1558.02 -0.840134 -5.28869 0
M  V30 16212 C 1559.17 0.184372 -6.25628 0
M  V30 16213 H 1559.41 -0.685124 -2.89298 0
M  V30 16214 H 1556.94 -0.470332 -1.47062 0
M  V30 16215 H 1558.9 1.65683 -3.75579 0
M  V30 16216 H 1557.56 1.77215 -2.59333 0
M  V30 16217 H 1556.75 1.18069 -4.89975 0
M  V30 16218 H 1556.35 -0.10672 -3.73848 0
M  V30 16219 H 1558.65 1.04232 -6.69434 0
M  V30 16220 H 1559.59 -0.43548 -7.0676 0
M  V30 16221 H 1560 0.532442 -5.61983 0
M  V30 16222 N 1559.4 1.51781 -0.424309 0
M  V30 16223 C 1560.81 1.86653 0.0418266 0
M  V30 16224 C 1561.16 1.34224 1.43103 0
M  V30 16225 O 1560.28 0.687684 2.05183 0
M  V30 16226 C 1560.88 3.38699 0.0826759 0
M  V30 16227 C 1559.44 3.73155 0.493186 0
M  V30 16228 C 1558.58 2.75417 -0.322586 0
M  V30 16229 H 1561.53 1.45191 -0.640726 0
M  V30 16230 H 1561.56 3.69828 0.894864 0
M  V30 16231 H 1561.07 3.76829 -0.928536 0
M  V30 16232 H 1559.17 3.4061 1.51048 0
M  V30 16233 H 1559.28 4.78562 0.227032 0
M  V30 16234 H 1557.65 2.53772 0.217262 0
M  V30 16235 H 1558.43 3.16388 -1.33243 0
M  V30 16236 N 1560.87 0.155222 1.56834 0
M  V30 16237 C 1561.81 -0.819563 2.12975 0
M  V30 16238 C 1562.78 -1.23685 1.05549 0
M  V30 16239 O 1563.97 -1.3315 1.33429 0
M  V30 16240 C 1561.1 -2.10155 2.65617 0
M  V30 16241 C 1560.14 -1.82954 3.85266 0
M  V30 16242 S 1560.97 -1.01317 5.25828 0
M  V30 16243 C 1562.13 -2.30617 5.81865 0
M  V30 16244 H 1562.36 -0.342172 2.95324 0
M  V30 16245 H 1559.9 -0.0591958 1.54286 0
M  V30 16246 H 1561.85 -2.83797 2.96597 0
M  V30 16247 H 1560.52 -2.55008 1.83383 0
M  V30 16248 H 1559.71 -2.78035 4.20372 0
M  V30 16249 H 1559.31 -1.17417 3.55091 0
M  V30 16250 H 1561.6 -3.26206 5.93798 0
M  V30 16251 H 1562.55 -2.00004 6.79267 0
M  V30 16252 H 1562.95 -2.41642 5.10166 0
M  V30 16253 N 1562.35 -1.57153 -0.118549 0
M  V30 16254 C 1563.3 -2.01357 -1.1644 0
M  V30 16255 C 1564.29 -0.910574 -1.42846 0
M  V30 16256 O 1565.5 -1.09578 -1.42803 0
M  V30 16257 H 1561.87 -0.641376 -0.392607 0
M  V30 16258 H 1563.85 -2.88425 -0.765087 0
M  V30 16259 C 1562.59 -2.43416 -2.48282 0
M  V30 16260 H 1561.92 -3.27857 -2.288 0
M  V30 16261 H 1563.36 -2.78143 -3.20019 0
M  V30 16262 C 1561.82 -1.29799 -3.10892 0
M  V30 16263 O 1562.35 -0.614207 -3.96977 0
M  V30 16264 N 1560.55 -1.05493 -2.70776 0
M  V30 16265 H 1560.1 -1.61276 -2.00868 0
M  V30 16266 H 1560.06 -0.296678 -3.12997 0
M  V30 16267 N 1563.83 0.388742 -1.5273 0
M  V30 16268 C 1564.76 1.49441 -1.73781 0
M  V30 16269 C 1565.77 1.50602 -0.618285 0
M  V30 16270 O 1566.96 1.545 -0.893986 0
M  V30 16271 C 1564.06 2.88288 -1.78166 0
M  V30 16272 C 1563.24 3.11089 -3.07478 0
M  V30 16273 C 1562.3 4.2992 -3.03407 0
M  V30 16274 O 1561.32 4.26212 -3.77269 0
M  V30 16275 N 1562.52 5.36121 -2.2261 0
M  V30 16276 H 1565.29 1.3177 -2.69178 0
M  V30 16277 H 1562.85 0.578258 -1.51221 0
M  V30 16278 H 1564.84 3.65884 -1.72949 0
M  V30 16279 H 1563.41 2.99317 -0.901553 0
M  V30 16280 H 1562.63 2.21356 -3.26183 0
M  V30 16281 H 1563.92 3.23177 -3.92981 0
M  V30 16282 H 1563.32 5.41988 -1.62067 0
M  V30 16283 H 1561.87 6.12381 -2.23232 0
M  V30 16284 N 1565.31 1.43698 0.647203 0
M  V30 16285 C 1566.56 1.45346 1.40425 0
M  V30 16286 C 1566.88 0.081129 1.94831 0
M  V30 16287 O 1566.15 -0.884379 1.74801 0
M  V30 16288 H 1564.73 0.535145 0.521181 0
M  V30 16289 H 1567.39 1.79349 0.762887 0
M  V30 16290 H 1566.48 2.16954 2.2436 0
M  V30 16291 N 1566.79 -0.886131 1.30328 0
M  V30 16292 C 1567.73 -2.01312 1.16516 0
M  V30 16293 C 1568.73 -1.69223 0.0773431 0
M  V30 16294 O 1569.93 -1.78418 0.238111 0
M  V30 16295 H 1566.31 -0.66006 0.360312 0
M  V30 16296 H 1568.28 -2.10097 2.11901 0
M  V30 16297 C 1567.03 -3.36573 0.872592 0
M  V30 16298 H 1566.35 -3.61775 1.70172 0
M  V30 16299 H 1567.79 -4.16073 0.816049 0
M  V30 16300 C 1566.25 -3.34215 -0.424465 0
M  V30 16301 O 1566.78 -3.74758 -1.44634 0
M  V30 16302 N 1564.99 -2.87323 -0.435207 0
M  V30 16303 H 1564.53 -2.54525 0.396851 0
M  V30 16304 H 1564.49 -2.86128 -1.303 0
M  V30 16305 N 1568.26 -1.13026 -1.09832 0
M  V30 16306 C 1569.19 -0.826338 -2.18389 0
M  V30 16307 C 1570.18 0.212529 -1.68767 0
M  V30 16308 O 1571.36 0.072363 -1.94065 0
M  V30 16309 C 1568.49 -0.286991 -3.46112 0
M  V30 16310 C 1567.44 -1.25963 -4.09044 0
M  V30 16311 C 1566.77 -0.580231 -5.31542 0
M  V30 16312 C 1568.07 -2.61661 -4.5203 0
M  V30 16313 H 1569.76 -1.73408 -2.4407 0
M  V30 16314 H 1567.31 -0.835201 -1.17305 0
M  V30 16315 H 1569.26 -0.062067 -4.21354 0
M  V30 16316 H 1567.99 0.656121 -3.19942 0
M  V30 16317 H 1566.65 -1.47047 -3.35816 0
M  V30 16318 H 1566.29 0.368222 -5.0165 0
M  V30 16319 H 1565.99 -1.2291 -5.74601 0
M  V30 16320 H 1567.52 -0.36449 -6.09511 0
M  V30 16321 H 1568.93 -2.44569 -5.18516 0
M  V30 16322 H 1567.33 -3.22685 -5.05959 0
M  V30 16323 H 1568.4 -3.19637 -3.64637 0
M  V30 16324 N 1569.74 1.27735 -0.923117 0
M  V30 16325 C 1570.99 1.94185 -0.56004 0
M  V30 16326 C 1571.31 1.72945 0.90084 0
M  V30 16327 O 1570.58 1.07453 1.63801 0
M  V30 16328 H 1569.16 0.718568 -0.204129 0
M  V30 16329 H 1571.82 1.55535 -1.17451 0
M  V30 16330 H 1570.92 3.02644 -0.762424 0
M  V30 16331 N 1571.22 0.688118 1.41784 0
M  V30 16332 C 1572.13 0.018397 2.34593 0
M  V30 16333 C 1573.15 -0.774275 1.55824 0
M  V30 16334 O 1574.32 -0.713546 1.88336 0
M  V30 16335 C 1571.39 -0.911914 3.34492 0
M  V30 16336 C 1570.45 -0.112284 4.29153 0
M  V30 16337 C 1569.68 -0.998285 5.2428 0
M  V30 16338 O 1569.9 -2.23782 5.24669 0
M  V30 16339 O 1568.84 -0.451951 6.00201 0
M  V30 16340 H 1572.66 0.783224 2.93427 0
M  V30 16341 H 1570.25 0.448413 1.42512 0
M  V30 16342 H 1572.13 -1.4456 3.95829 0
M  V30 16343 H 1570.81 -1.65636 2.78112 0
M  V30 16344 H 1569.71 0.465822 3.71189 0
M  V30 16345 H 1571.05 0.593338 4.88611 0
M  V30 16346 N 1572.7 -1.51554 0.432352 0
M  V30 16347 C 1573.92 -2.06947 -0.136995 0
M  V30 16348 C 1574.35 -1.29817 -1.36122 0
M  V30 16349 O 1573.71 -0.334733 -1.78183 0
M  V30 16350 C 1573.75 -3.57871 -0.442785 0
M  V30 16351 O 1572.86 -3.82966 -1.53007 0
M  V30 16352 H 1572.2 -0.663988 -0.00405152 0
M  V30 16353 H 1574.73 -1.95225 0.612249 0
M  V30 16354 H 1574.74 -4.02042 -0.694694 0
M  V30 16355 H 1573.41 -4.13436 0.452013 0
M  V30 16356 H 1571.99 -3.50661 -1.26851 0
M  V30 16357 N 1574.18 -0.163538 -1.56749 0
M  V30 16358 C 1575.42 0.485954 -1.98539 0
M  V30 16359 C 1575.78 1.60942 -1.04698 0
M  V30 16360 O 1576.98 2.32092 -1.35598 0
M  V30 16361 C 1575.25 0.963784 -3.4416 0
M  V30 16362 S 1576.81 1.61555 -4.07977 0
M  V30 16363 H 1573.63 0.15658 -0.693544 0
M  V30 16364 H 1576.23 -0.259161 -1.93775 0
M  V30 16365 H 1574.94 0.135594 -4.10176 0
M  V30 16366 H 1574.47 1.74313 -3.52674 0
M  V30 16367 H 1576.48 2.90344 -4.02387 0
M  V30 16368 N 1575.65 1.57214 0.110213 0
M  V30 16369 C 1576.59 1.97641 1.16064 0
M  V30 16370 C 1577.6 0.876886 1.37166 0
M  V30 16371 O 1578.79 1.15512 1.36086 0
M  V30 16372 C 1575.89 2.2671 2.51904 0
M  V30 16373 C 1575.06 3.58015 2.51285 0
M  V30 16374 C 1574.12 3.75195 3.68938 0
M  V30 16375 O 1573.15 4.47214 3.5212 0
M  V30 16376 N 1574.35 3.14627 4.87842 0
M  V30 16377 H 1577.11 2.88358 0.816679 0
M  V30 16378 H 1574.67 1.59108 0.299383 0
M  V30 16379 H 1576.67 2.35411 3.29187 0
M  V30 16380 H 1575.24 1.42076 2.78448 0
M  V30 16381 H 1574.46 3.60422 1.59655 0
M  V30 16382 H 1575.74 4.44303 2.47936 0
M  V30 16383 H 1575.14 2.56101 5.0441 0
M  V30 16384 H 1573.7 3.28836 5.6277 0
M  V30 16385 N 1577.13 -0.380637 1.52934 0
M  V30 16386 C 1578.04 -1.48957 1.81243 0
M  V30 16387 C 1579.06 -1.5931 0.69974 0
M  V30 16388 O 1580.23 -1.75488 0.988218 0
M  V30 16389 C 1577.3 -2.84397 1.9829 0
M  V30 16390 C 1576.36 -2.83697 3.22202 0
M  V30 16391 C 1575.59 -4.12677 3.38427 0
M  V30 16392 O 1575.82 -5.08068 2.59274 0
M  V30 16393 O 1574.75 -4.19407 4.31719 0
M  V30 16394 H 1578.58 -1.27964 2.75425 0
M  V30 16395 H 1576.16 -0.56929 1.38128 0
M  V30 16396 H 1578.04 -3.64676 2.11161 0
M  V30 16397 H 1576.72 -3.054 1.07298 0
M  V30 16398 H 1575.63 -2.0217 3.14767 0
M  V30 16399 H 1576.96 -2.67648 4.13068 0
M  V30 16400 N 1578.61 -1.44039 -0.639573 0
M  V30 16401 C 1579.84 -1.50063 -1.43164 0
M  V30 16402 C 1580.26 -0.123906 -1.87691 0
M  V30 16403 O 1579.62 0.885192 -1.58221 0
M  V30 16404 C 1579.67 -2.46305 -2.63375 0
M  V30 16405 O 1578.77 -1.95874 -3.62915 0
M  V30 16406 H 1578.11 -0.507052 -0.428713 0
M  V30 16407 H 1580.64 -1.8909 -0.781415 0
M  V30 16408 H 1580.65 -2.64062 -3.11023 0
M  V30 16409 H 1579.33 -3.46309 -2.3031 0
M  V30 16410 H 1577.9 -1.87844 -3.22132 0
M  V30 16411 N 1580.09 0.879207 -1.30796 0
M  V30 16412 C 1581.05 1.96707 -1.17639 0
M  V30 16413 C 1582.05 1.6045 -0.106013 0
M  V30 16414 O 1583.24 1.70553 -0.354573 0
M  V30 16415 C 1580.37 3.31292 -0.803625 0
M  V30 16416 H 1581.57 2.09806 -2.14293 0
M  V30 16417 H 1579.12 1.06634 -1.14276 0
M  V30 16418 H 1579.85 3.23894 0.162159 0
M  V30 16419 H 1579.64 3.58979 -1.57723 0
M  V30 16420 H 1581.13 4.11077 -0.735201 0
M  V30 16421 N 1581.57 1.13606 1.09231 0
M  V30 16422 C 1582.81 0.900386 1.81717 0
M  V30 16423 C 1583.15 -0.571984 1.85586 0
M  V30 16424 O 1582.42 -1.42336 1.32554 0
M  V30 16425 C 1582.7 1.49143 3.27763 0
M  V30 16426 C 1582.56 3.03306 3.32153 0
M  V30 16427 C 1583.88 1.16129 4.24502 0
M  V30 16428 H 1581 0.328531 0.659724 0
M  V30 16429 H 1583.64 1.40467 1.27941 0
M  V30 16430 H 1581.79 1.06256 3.73687 0
M  V30 16431 H 1583.46 3.54963 2.94617 0
M  V30 16432 H 1581.7 3.38192 2.71677 0
M  V30 16433 H 1582.37 3.39761 4.35047 0
M  V30 16434 H 1584.85 1.53193 3.86874 0
M  V30 16435 H 1583.73 1.60129 5.25024 0
M  V30 16436 H 1583.99 0.0752973 4.42036 0
M  V30 16437 N 1583.05 -1.27244 0.929878 0
M  V30 16438 C 1584.27 -1.98912 0.587277 0
M  V30 16439 C 1584.7 -1.68888 -0.828168 0
M  V30 16440 O 1584.05 -0.930394 -1.55606 0
M  V30 16441 C 1584.1 -3.51097 0.822399 0
M  V30 16442 O 1583.21 -4.12251 -0.110968 0
M  V30 16443 H 1582.55 -0.624404 0.225867 0
M  V30 16444 H 1585.08 -1.61997 1.24973 0
M  V30 16445 H 1585.09 -4.01255 0.738824 0
M  V30 16446 H 1583.76 -3.72282 1.85416 0
M  V30 16447 H 1582.34 -3.72893 0.0227053 0
M  V30 16448 N 1584.52 -0.695628 -1.41417 0
M  V30 16449 C 1585.77 -0.226171 -2.0083 0
M  V30 16450 C 1586.09 1.17833 -1.55371 0
M  V30 16451 O 1585.36 1.79512 -0.784362 0
M  V30 16452 H 1583.94 -0.0806271 -0.742636 0
M  V30 16453 H 1586.6 -0.8968 -1.73042 0
M  V30 16454 H 1585.7 -0.243643 -3.11148 0
M  V30 16455 N 1586 1.51322 -0.440383 0
M  V30 16456 C 1587.23 2.07017 0.126018 0
M  V30 16457 C 1587.65 1.30537 1.35431 0
M  V30 16458 O 1587.01 0.344178 1.78003 0
M  V30 16459 C 1587.06 3.58101 0.4238 0
M  V30 16460 O 1586.16 3.83772 1.50973 0
M  V30 16461 H 1585.5 0.664 0.000530178 0
M  V30 16462 H 1588.03 1.94897 -0.622594 0
M  V30 16463 H 1588.04 4.02405 0.673363 0
M  V30 16464 H 1586.72 4.13191 -0.473932 0
M  V30 16465 H 1585.29 3.51329 1.24989 0
M  V30 16466 N 1587.48 0.171848 1.5666 0
M  V30 16467 C 1588.7 -0.482396 2.01712 0
M  V30 16468 C 1589.13 -1.5598 1.05128 0
M  V30 16469 O 1588.49 -1.81274 0.0309178 0
M  V30 16470 C 1588.54 -1.03716 3.45363 0
M  V30 16471 O 1587.64 -2.15114 3.51852 0
M  V30 16472 H 1586.98 -0.115439 0.653888 0
M  V30 16473 H 1589.51 0.275895 2.02731 0
M  V30 16474 H 1589.52 -1.35964 3.84679 0
M  V30 16475 H 1588.2 -0.24832 4.15158 0
M  V30 16476 H 1586.77 -1.83907 3.24396 0
M  V30 16477 N 1588.96 -1.5727 -0.101874 0
M  V30 16478 C 1589.87 -2.04896 -1.14257 0
M  V30 16479 C 1590.88 -0.972561 -1.44282 0
M  V30 16480 O 1592.06 -1.28526 -1.55058 0
M  V30 16481 C 1589.12 -2.45818 -2.44488 0
M  V30 16482 C 1588.19 -3.6762 -2.21707 0
M  V30 16483 C 1587.42 -4.06581 -3.45728 0
M  V30 16484 O 1587.64 -3.45702 -4.53703 0
M  V30 16485 O 1586.58 -4.99578 -3.35716 0
M  V30 16486 H 1590.4 -2.93827 -0.768085 0
M  V30 16487 H 1587.99 -1.46065 -0.313902 0
M  V30 16488 H 1589.87 -2.72796 -3.21186 0
M  V30 16489 H 1588.54 -1.60028 -2.81377 0
M  V30 16490 H 1587.45 -3.45768 -1.42812 0
M  V30 16491 H 1588.78 -4.54169 -1.89714 0
M  V30 16492 N 1590.44 0.372521 -1.53134 0
M  V30 16493 C 1591.85 0.713727 -1.42752 0
M  V30 16494 C 1592.05 1.93532 -0.561051 0
M  V30 16495 O 1591.11 2.52467 -0.0408195 0
M  V30 16496 C 1592.42 0.933418 -2.85846 0
M  V30 16497 C 1593.97 1.03386 -2.95432 0
M  V30 16498 C 1594.44 1.28607 -4.39573 0
M  V30 16499 N 1595.93 1.35393 -4.42971 0
M  V30 16500 C 1596.67 1.56604 -5.516 0
M  V30 16501 N 1596.17 1.75178 -6.70287 0
M  V30 16502 N 1597.96 1.58917 -5.39168 0
M  V30 16503 H 1590.11 -0.431068 -2.0798 0
M  V30 16504 H 1592.37 -0.130757 -0.938939 0
M  V30 16505 H 1592.08 0.107707 -3.51535 0
M  V30 16506 H 1591.95 1.84348 -3.29083 0
M  V30 16507 H 1594.34 1.85012 -2.29901 0
M  V30 16508 H 1594.42 0.101346 -2.55599 0
M  V30 16509 H 1594.06 0.47485 -5.05675 0
M  V30 16510 H 1593.99 2.2317 -4.76973 0
M  V30 16511 H 1596.49 1.22681 -3.57432 0
M  V30 16512 H 1596.8 1.90916 -7.48846 0
M  V30 16513 H 1595.14 1.7237 -6.73286 0
M  V30 16514 H 1598.33 1.4397 -4.4541 0
M  V30 16515 H 1598.51 1.75108 -6.23892 0
M  V30 16516 N 1591.91 1.44376 0.631925 0
M  V30 16517 C 1593.15 1.48638 1.40307 0
M  V30 16518 C 1593.52 0.115559 1.91652 0
M  V30 16519 O 1594.72 0.0328551 2.6878 0
M  V30 16520 C 1592.99 2.51663 2.53773 0
M  V30 16521 S 1594.55 2.74966 3.41964 0
M  V30 16522 H 1591.37 0.525735 0.478669 0
M  V30 16523 H 1593.97 1.81294 0.731632 0
M  V30 16524 H 1592.67 3.49968 2.14361 0
M  V30 16525 H 1592.2 2.20577 3.25744 0
M  V30 16526 H 1594.22 2.06501 4.51189 0
M  V30 16527 N 1593.39 -0.872258 1.31261 0
M  V30 16528 C 1594.8 -1.44077 1.18738 0
M  V30 16529 C 1595.15 -1.95105 -0.207037 0
M  V30 16530 O 1594.28 -1.86083 -1.10464 0
M  V30 16531 C 1594.87 -2.61884 2.14947 0
M  V30 16532 C 1593.43 -3.14787 2.06364 0
M  V30 16533 C 1592.58 -1.87495 2.04306 0
M  V30 16534 H 1595.53 -0.681011 1.43345 0
M  V30 16535 H 1595.55 -3.38501 1.73773 0
M  V30 16536 H 1595.06 -2.24715 3.16425 0
M  V30 16537 H 1593.16 -3.56582 1.08073 0
M  V30 16538 H 1593.28 -3.77225 2.95361 0
M  V30 16539 H 1591.64 -2.06361 1.49288 0
M  V30 16540 H 1592.42 -1.52566 3.07536 0
M  V30 16541 N 1594.87 -1.14184 -1.08627 0
M  V30 16542 C 1596.29 -0.881757 -1.33031 0
M  V30 16543 C 1596.49 0.478313 -1.95741 0
M  V30 16544 O 1595.54 1.22308 -2.209 0
M  V30 16545 C 1596.85 -2.01274 -2.23404 0
M  V30 16546 C 1598.4 -2.04578 -2.3689 0
M  V30 16547 C 1598.88 -3.16962 -3.30604 0
M  V30 16548 N 1600.37 -3.16526 -3.3818 0
M  V30 16549 C 1601.1 -4.00124 -4.10716 0
M  V30 16550 N 1600.6 -4.93757 -4.8598 0
M  V30 16551 N 1602.39 -3.88193 -4.06525 0
M  V30 16552 H 1594.54 -2.01787 -0.663017 0
M  V30 16553 H 1596.81 -0.879152 -0.354677 0
M  V30 16554 H 1596.51 -2.9938 -1.84566 0
M  V30 16555 H 1596.39 -1.93393 -3.2385 0
M  V30 16556 H 1598.77 -1.0708 -2.74987 0
M  V30 16557 H 1598.85 -2.16529 -1.36194 0
M  V30 16558 H 1598.5 -4.14704 -2.93228 0
M  V30 16559 H 1598.43 -3.02248 -4.31223 0
M  V30 16560 H 1600.92 -2.48708 -2.84522 0
M  V30 16561 H 1601.23 -5.54015 -5.38783 0
M  V30 16562 H 1599.58 -4.97756 -4.8504 0
M  V30 16563 H 1602.77 -3.14365 -3.46831 0
M  V30 16564 H 1602.94 -4.53571 -4.62793 0
M  V30 16565 N 1596.35 1.26749 -0.936613 0
M  V30 16566 C 1597.76 1.75925 -0.62507 0
M  V30 16567 C 1598.11 1.76359 0.859771 0
M  V30 16568 O 1597.24 1.37277 1.67284 0
M  V30 16569 C 1597.83 3.19474 -1.12791 0
M  V30 16570 C 1596.39 3.66282 -0.866872 0
M  V30 16571 C 1595.54 2.45913 -1.28148 0
M  V30 16572 H 1598.49 1.1289 -1.11542 0
M  V30 16573 H 1598.51 3.77465 -0.479643 0
M  V30 16574 H 1598.02 3.19126 -2.20862 0
M  V30 16575 H 1596.12 3.72065 0.199647 0
M  V30 16576 H 1596.23 4.55319 -1.49067 0
M  V30 16577 H 1594.6 2.44894 -0.699941 0
M  V30 16578 H 1595.38 2.4827 -2.37101 0
M  V30 16579 N 1597.83 0.703118 1.41046 0
M  V30 16580 C 1599.07 0.237638 2.01403 0
M  V30 16581 C 1599.41 -1.16217 1.55587 0
M  V30 16582 O 1598.68 -1.78593 0.770377 0
M  V30 16583 C 1598.96 0.303738 3.58817 0
M  V30 16584 C 1598.82 1.74103 4.14739 0
M  V30 16585 C 1600.14 -0.332186 4.38845 0
M  V30 16586 H 1597.25 0.0878243 0.731749 0
M  V30 16587 H 1599.9 0.893264 1.67693 0
M  V30 16588 H 1598.05 -0.254485 3.87666 0
M  V30 16589 H 1599.72 2.35368 3.96736 0
M  V30 16590 H 1597.96 2.27277 3.69496 0
M  V30 16591 H 1598.63 1.73876 5.239 0
M  V30 16592 H 1601.11 0.143312 4.15853 0
M  V30 16593 H 1599.98 -0.255429 5.48305 0
M  V30 16594 H 1600.25 -1.41397 4.18878 0
M  V30 16595 N 1599.3 -1.51086 0.448402 0
M  V30 16596 C 1600.53 -2.07081 -0.115038 0
M  V30 16597 C 1600.95 -1.31253 -1.34737 0
M  V30 16598 O 1600.31 -0.353613 -1.77818 0
M  V30 16599 C 1600.36 -3.58321 -0.404803 0
M  V30 16600 O 1599.46 -3.84567 -1.48936 0
M  V30 16601 H 1598.81 -0.663993 0.00299118 0
M  V30 16602 H 1601.34 -1.94564 0.632921 0
M  V30 16603 H 1601.35 -4.02756 -0.652013 0
M  V30 16604 H 1600.02 -4.12934 0.495838 0
M  V30 16605 H 1598.6 -3.51987 -1.23124 0
M  V30 16606 N 1600.78 -0.180154 -1.56567 0
M  V30 16607 C 1601.71 0.742131 -2.21393 0
M  V30 16608 C 1602.69 1.23253 -1.1723 0
M  V30 16609 O 1603.88 1.28408 -1.45688 0
M  V30 16610 C 1601.01 1.96799 -2.8616 0
M  V30 16611 C 1599.96 1.6131 -3.96438 0
M  V30 16612 C 1599.29 2.91434 -4.48297 0
M  V30 16613 C 1600.59 0.834382 -5.15592 0
M  V30 16614 H 1602.28 0.201759 -2.98719 0
M  V30 16615 H 1599.83 0.0956016 -1.43682 0
M  V30 16616 H 1601.78 2.61828 -3.30188 0
M  V30 16617 H 1600.51 2.53264 -2.06215 0
M  V30 16618 H 1599.16 0.986451 -3.53079 0
M  V30 16619 H 1598.81 3.45958 -3.65133 0
M  V30 16620 H 1598.51 2.68439 -5.22699 0
M  V30 16621 H 1600.04 3.57478 -4.95017 0
M  V30 16622 H 1601.45 1.38745 -5.56258 0
M  V30 16623 H 1599.85 0.703132 -5.95966 0
M  V30 16624 H 1600.92 -0.167554 -4.8461 0
M  V30 16625 N 1602.26 1.57322 0.0935319 0
M  V30 16626 C 1603.21 1.98608 1.11977 0
M  V30 16627 C 1604.19 0.864762 1.35686 0
M  V30 16628 O 1605.39 1.1286 1.36351 0
M  V30 16629 C 1602.52 2.41537 2.43957 0
M  V30 16630 C 1601.6 3.60357 2.23615 0
M  V30 16631 N 1601.99 4.75242 1.73144 0
M  V30 16632 C 1600.29 3.66485 2.54175 0
M  V30 16633 C 1600.99 5.5718 1.67109 0
M  V30 16634 N 1599.97 5.00396 2.1238 0
M  V30 16635 H 1603.77 2.84881 0.722513 0
M  V30 16636 H 1601.28 1.59587 0.300936 0
M  V30 16637 H 1603.28 2.69343 3.18213 0
M  V30 16638 H 1601.94 1.56641 2.84418 0
M  V30 16639 H 1602.95 4.97961 1.42319 0
M  V30 16640 H 1599.63 2.92255 2.9815 0
M  V30 16641 H 1601.02 6.59376 1.29125 0
M  V30 16642 N 1603.74 -0.364395 1.53329 0
M  V30 16643 C 1605.15 -0.941133 1.61244 0
M  V30 16644 C 1605.5 -1.90223 0.480596 0
M  V30 16645 O 1604.63 -2.12805 -0.392805 0
M  V30 16646 C 1605.22 -1.7137 2.92263 0
M  V30 16647 C 1603.78 -2.23976 3.02509 0
M  V30 16648 C 1602.93 -1.05253 2.56548 0
M  V30 16649 H 1605.88 -0.143153 1.58053 0
M  V30 16650 H 1605.9 -2.575 2.80132 0
M  V30 16651 H 1605.41 -1.01395 3.74621 0
M  V30 16652 H 1603.51 -2.9719 2.24741 0
M  V30 16653 H 1603.62 -2.51777 4.07609 0
M  V30 16654 H 1601.99 -1.41986 2.11452 0
M  V30 16655 H 1602.77 -0.367744 3.41325 0
M  V30 16656 N 1605.22 -1.44709 -0.62426 0
M  V30 16657 C 1606.15 -1.46578 -1.749 0
M  V30 16658 C 1607.13 -0.323875 -1.59342 0
M  V30 16659 O 1608.31 -0.521884 -1.81132 0
M  V30 16660 C 1605.44 -1.30499 -3.1255 0
M  V30 16661 C 1604.48 -2.48341 -3.4674 0
M  V30 16662 S 1605.32 -4.10857 -3.43448 0
M  V30 16663 C 1606.47 -3.97213 -4.83707 0
M  V30 16664 H 1606.71 -2.41747 -1.73049 0
M  V30 16665 H 1604.24 -1.3209 -0.799473 0
M  V30 16666 H 1606.2 -1.2191 -3.9198 0
M  V30 16667 H 1604.86 -0.368301 -3.11933 0
M  V30 16668 H 1604.05 -2.32972 -4.46923 0
M  V30 16669 H 1603.65 -2.53706 -2.74789 0
M  V30 16670 H 1605.95 -3.61328 -5.73104 0
M  V30 16671 H 1606.89 -4.9725 -5.04131 0
M  V30 16672 H 1607.3 -3.29154 -4.58604 0
M  V30 16673 N 1606.69 0.865285 -1.31722 0
M  V30 16674 C 1608.11 1.43445 -1.195 0
M  V30 16675 C 1608.46 1.95212 0.196688 0
M  V30 16676 O 1607.58 1.86666 1.09475 0
M  V30 16677 C 1608.18 2.6074 -2.16333 0
M  V30 16678 C 1606.74 3.13688 -2.08031 0
M  V30 16679 C 1605.88 1.86409 -2.05298 0
M  V30 16680 H 1608.83 0.6734 -1.43705 0
M  V30 16681 H 1608.85 3.37575 -1.75566 0
M  V30 16682 H 1608.37 2.23033 -3.17612 0
M  V30 16683 H 1606.47 3.56004 -1.09962 0
M  V30 16684 H 1606.58 3.75653 -2.97358 0
M  V30 16685 H 1604.94 2.05567 -1.50381 0
M  V30 16686 H 1605.73 1.50933 -3.08341 0
M  V30 16687 N 1608.17 1.14759 1.0802 0
M  V30 16688 C 1609.59 0.8888 1.32561 0
M  V30 16689 C 1609.79 -0.467926 1.95992 0
M  V30 16690 O 1608.84 -1.21135 2.21546 0
M  V30 16691 C 1610.16 2.02456 2.22333 0
M  V30 16692 C 1611.71 2.05831 2.35802 0
M  V30 16693 C 1612.18 3.18711 3.28918 0
M  V30 16694 N 1613.67 3.18315 3.36496 0
M  V30 16695 C 1614.41 4.02297 4.08589 0
M  V30 16696 N 1613.9 4.96327 4.83354 0
M  V30 16697 N 1615.7 3.90344 4.0446 0
M  V30 16698 H 1607.85 2.02135 0.652307 0
M  V30 16699 H 1610.11 0.881021 0.35001 0
M  V30 16700 H 1609.82 3.00354 1.82976 0
M  V30 16701 H 1609.69 1.95108 3.2282 0
M  V30 16702 H 1612.08 1.08537 2.74415 0
M  V30 16703 H 1612.16 2.17248 1.35044 0
M  V30 16704 H 1611.8 4.16253 2.91025 0
M  V30 16705 H 1611.73 3.04531 4.29614 0
M  V30 16706 H 1614.22 2.50214 2.83199 0
M  V30 16707 H 1614.54 5.56865 5.35837 0
M  V30 16708 H 1612.88 5.00321 4.82394 0
M  V30 16709 H 1616.07 3.162 3.45159 0
M  V30 16710 H 1616.24 4.56019 4.60381 0
M  V30 16711 N 1609.65 -1.26251 0.943322 0
M  V30 16712 C 1610.9 -1.9327 0.590863 0
M  V30 16713 C 1611.22 -1.74356 -0.873212 0
M  V30 16714 O 1610.49 -1.10046 -1.6207 0
M  V30 16715 H 1609.07 -0.71523 0.215535 0
M  V30 16716 H 1611.73 -1.53647 1.19911 0
M  V30 16717 H 1610.83 -3.01393 0.810475 0
M  V30 16718 N 1611.13 -0.710588 -1.40671 0
M  V30 16719 C 1612.37 -0.252303 -2.02837 0
M  V30 16720 C 1612.73 1.13154 -1.55113 0
M  V30 16721 O 1613.93 1.68653 -2.09307 0
M  V30 16722 C 1612.21 -0.323902 -3.55929 0
M  V30 16723 S 1613.76 0.0581316 -4.38761 0
M  V30 16724 H 1610.58 -0.100448 -0.703869 0
M  V30 16725 H 1613.18 -0.931699 -1.71871 0
M  V30 16726 H 1611.89 -1.33279 -3.88156 0
M  V30 16727 H 1611.42 0.37414 -3.91617 0
M  V30 16728 H 1613.43 1.28162 -4.79363 0
M  V30 16729 N 1612.61 1.50847 -0.456408 0
M  V30 16730 C 1613.54 2.31077 0.335523 0
M  V30 16731 C 1614.52 1.37326 1.00377 0
M  V30 16732 O 1615.7 1.66247 1.00376 0
M  V30 16733 C 1612.83 3.16662 1.42627 0
M  V30 16734 C 1611.79 4.18846 0.88045 0
M  V30 16735 C 1611.11 4.93074 2.06838 0
M  V30 16736 C 1612.41 5.22208 -0.0982288 0
M  V30 16737 H 1614.11 2.97531 -0.334056 0
M  V30 16738 H 1611.65 1.43085 -0.162099 0
M  V30 16739 H 1613.61 3.71578 1.98765 0
M  V30 16740 H 1612.33 2.48066 2.12441 0
M  V30 16741 H 1610.99 3.65009 0.341147 0
M  V30 16742 H 1610.64 4.20963 2.75316 0
M  V30 16743 H 1610.34 5.62184 1.70947 0
M  V30 16744 H 1611.86 5.5082 2.63494 0
M  V30 16745 H 1613.28 5.72082 0.373481 0
M  V30 16746 H 1611.67 5.98954 -0.370674 0
M  V30 16747 H 1612.74 4.73859 -1.02887 0
M  V30 16748 N 1614.09 0.188454 1.56469 0
M  V30 16749 C 1615.05 -0.721282 2.17555 0
M  V30 16750 C 1616.05 -1.14579 1.1282 0
M  V30 16751 O 1617.24 -1.05996 1.38241 0
M  V30 16752 C 1614.37 -1.9839 2.77226 0
M  V30 16753 H 1615.56 -0.189218 2.99302 0
M  V30 16754 H 1613.12 -0.0611533 1.5618 0
M  V30 16755 H 1613.85 -2.55864 1.99259 0
M  V30 16756 H 1613.64 -1.68831 3.53891 0
M  V30 16757 H 1615.13 -2.63277 3.24153 0
M  V30 16758 N 1615.56 -1.5737 -0.0851874 0
M  V30 16759 C 1616.79 -1.91183 -0.803983 0
M  V30 16760 C 1617.21 -0.78365 -1.70999 0
M  V30 16761 O 1616.57 0.264266 -1.79364 0
M  V30 16762 C 1616.62 -3.239 -1.58496 0
M  V30 16763 O 1615.72 -3.12189 -2.69466 0
M  V30 16764 H 1615.06 -0.626413 -0.220233 0
M  V30 16765 H 1617.59 -2.04519 -0.0574426 0
M  V30 16766 H 1617.6 -3.5745 -1.96707 0
M  V30 16767 H 1616.28 -4.05594 -0.920111 0
M  V30 16768 H 1614.86 -2.90173 -2.3421 0
M  V30 16769 N 1617.04 0.356258 -1.53521 0
M  V30 16770 C 1617.95 1.46055 -1.83589 0
M  V30 16771 C 1618.97 1.58176 -0.724997 0
M  V30 16772 O 1620.14 1.73894 -1.01601 0
M  V30 16773 C 1617.21 2.81207 -2.0279 0
M  V30 16774 C 1616.27 2.78535 -3.26675 0
M  V30 16775 C 1615.5 4.07241 -3.4495 0
M  V30 16776 O 1615.73 5.03879 -2.67324 0
M  V30 16777 O 1614.66 4.12485 -4.38337 0
M  V30 16778 H 1618.49 1.23566 -2.77426 0
M  V30 16779 H 1616.07 0.547243 -1.39017 0
M  V30 16780 H 1617.95 3.61271 -2.16936 0
M  V30 16781 H 1616.63 3.03654 -1.12143 0
M  V30 16782 H 1615.53 1.97137 -3.17943 0
M  V30 16783 H 1616.87 2.61042 -4.17274 0
M  V30 16784 N 1618.52 1.45038 0.616577 0
M  V30 16785 C 1619.74 1.52321 1.40759 0
M  V30 16786 C 1620.17 0.15375 1.87471 0
M  V30 16787 O 1619.53 -0.859908 1.5961 0
M  V30 16788 C 1619.58 2.50464 2.59423 0
M  V30 16789 O 1618.68 2.01623 3.59753 0
M  V30 16790 H 1618.02 0.513808 0.420592 0
M  V30 16791 H 1620.55 1.90309 0.751234 0
M  V30 16792 H 1620.56 2.68977 3.06783 0
M  V30 16793 H 1619.24 3.4993 2.24771 0
M  V30 16794 H 1617.81 1.92945 3.19103 0
M  V30 16795 N 1620 -0.858287 1.32179 0
M  V30 16796 C 1621.22 -1.64997 1.25662 0
M  V30 16797 C 1621.65 -1.87303 -0.173021 0
M  V30 16798 O 1621.01 -1.42319 -1.12317 0
M  V30 16799 C 1621.05 -2.98855 2.01787 0
M  V30 16800 O 1620.16 -3.89218 1.36319 0
M  V30 16801 H 1619.5 -0.503169 0.433264 0
M  V30 16802 H 1622.03 -1.06926 1.74436 0
M  V30 16803 H 1622.04 -3.48704 2.11824 0
M  V30 16804 H 1620.71 -2.81941 3.05748 0
M  V30 16805 H 1619.29 -3.4768 1.34807 0
M  V30 16806 N 1621.48 -1.1533 -1.07409 0
M  V30 16807 C 1622.39 -0.863514 -2.1813 0
M  V30 16808 C 1623.4 0.159954 -1.73263 0
M  V30 16809 O 1624.58 -0.0139818 -2.01395 0
M  V30 16810 C 1621.64 -0.356271 -3.44865 0
M  V30 16811 C 1620.7 -1.44356 -4.04302 0
M  V30 16812 C 1619.94 -0.960429 -5.24987 0
M  V30 16813 O 1620.16 0.194227 -5.70069 0
M  V30 16814 O 1619.09 -1.74387 -5.76084 0
M  V30 16815 H 1622.92 -1.78909 -2.45408 0
M  V30 16816 H 1620.5 -0.932362 -1.16736 0
M  V30 16817 H 1622.39 -0.0798183 -4.21324 0
M  V30 16818 H 1621.06 0.541445 -3.1914 0
M  V30 16819 H 1619.97 -1.77361 -3.29384 0
M  V30 16820 H 1621.3 -2.31617 -4.34298 0
M  V30 16821 N 1622.95 1.25748 -0.950004 0
M  V30 16822 C 1624.2 1.92954 -0.601104 0
M  V30 16823 C 1624.52 1.74817 0.863953 0
M  V30 16824 O 1623.79 1.10904 1.61484 0
M  V30 16825 H 1622.37 0.714077 -0.219325 0
M  V30 16826 H 1625.03 1.53009 -1.20724 0
M  V30 16827 H 1624.13 3.00959 -0.826447 0
M  V30 16828 N 1624.43 0.718038 1.40292 0
M  V30 16829 C 1625.38 0.0434428 2.27959 0
M  V30 16830 C 1626.37 -0.730049 1.43384 0
M  V30 16831 O 1627.56 -0.601847 1.66454 0
M  V30 16832 C 1624.69 -0.875738 3.31942 0
M  V30 16833 C 1623.77 -0.0973011 4.23988 0
M  V30 16834 N 1624.16 0.92073 4.97349 0
M  V30 16835 C 1622.46 -0.329494 4.44781 0
M  V30 16836 C 1623.16 1.38868 5.64881 0
M  V30 16837 N 1622.14 0.710377 5.38938 0
M  V30 16838 H 1625.94 0.823656 2.82123 0
M  V30 16839 H 1623.45 0.550843 1.52773 0
M  V30 16840 H 1625.45 -1.37436 3.93595 0
M  V30 16841 H 1624.11 -1.6553 2.79338 0
M  V30 16842 H 1625.12 1.30164 5.01276 0
M  V30 16843 H 1621.8 -1.08519 4.0315 0
M  V30 16844 H 1623.19 2.23471 6.33648 0
M  V30 16845 N 1625.91 -1.50602 0.464402 0
M  V30 16846 C 1627.16 -2.02587 -0.0930295 0
M  V30 16847 C 1627.49 -1.34618 -1.3997 0
M  V30 16848 O 1626.76 -0.469711 -1.88743 0
M  V30 16849 C 1627.05 -3.5898 -0.283783 0
M  V30 16850 C 1626.9 -4.3753 1.04344 0
M  V30 16851 C 1628.22 -4.27602 -1.04138 0
M  V30 16852 H 1625.34 -0.73629 -0.0323356 0
M  V30 16853 H 1627.98 -1.79986 0.608687 0
M  V30 16854 H 1626.13 -3.78368 -0.881488 0
M  V30 16855 H 1627.8 -4.29729 1.67721 0
M  V30 16856 H 1626.05 -4.01536 1.64168 0
M  V30 16857 H 1626.72 -5.45201 0.863691 0
M  V30 16858 H 1629.19 -4.12649 -0.534822 0
M  V30 16859 H 1628.07 -5.36854 -1.14364 0
M  V30 16860 H 1628.33 -3.9031 -2.0763 0
M  V30 16861 N 1627.39 -0.19675 -1.56367 0
M  V30 16862 C 1628.62 0.447139 -2.02011 0
M  V30 16863 C 1629.03 1.55077 -1.07687 0
M  V30 16864 O 1628.39 1.82316 -0.0820316 0
M  V30 16865 C 1628.44 1.00192 -3.47338 0
M  V30 16866 O 1628.16 -0.0576859 -4.38062 0
M  V30 16867 C 1629.66 1.72152 -4.08508 0
M  V30 16868 H 1626.88 0.112088 -0.661572 0
M  V30 16869 H 1629.43 -0.30594 -2.02199 0
M  V30 16870 H 1627.58 1.70537 -3.47844 0
M  V30 16871 H 1627.99 0.355508 -5.23294 0
M  V30 16872 H 1629.47 2.06199 -5.12041 0
M  V30 16873 H 1629.95 2.62581 -3.52062 0
M  V30 16874 H 1630.55 1.06388 -4.11779 0
M  V30 16875 N 1628.87 1.57413 0.0768405 0
M  V30 16876 C 1630.11 1.86633 0.775414 0
M  V30 16877 C 1630.44 0.788041 1.78367 0
M  V30 16878 O 1629.71 -0.183835 1.95036 0
M  V30 16879 H 1628.29 0.688678 0.289365 0
M  V30 16880 H 1630.95 1.94825 0.0541285 0
M  V30 16881 H 1630.04 2.83977 1.29474 0
M  V30 16882 N 1630.34 -0.348112 1.53707 0
M  V30 16883 C 1631.57 -1.11346 1.74976 0
M  V30 16884 C 1631.99 -1.81726 0.485525 0
M  V30 16885 O 1631.35 -1.72384 -0.561565 0
M  V30 16886 C 1631.4 -2.10611 2.92703 0
M  V30 16887 O 1630.5 -3.18042 2.62532 0
M  V30 16888 H 1629.85 -0.322247 0.580563 0
M  V30 16889 H 1632.38 -0.399898 2.00654 0
M  V30 16890 H 1632.39 -2.53912 3.19363 0
M  V30 16891 H 1631.06 -1.58782 3.84397 0
M  V30 16892 H 1629.64 -2.79591 2.46746 0
M  V30 16893 N 1631.82 -1.45363 -0.608876 0
M  V30 16894 C 1632.73 -1.56471 -1.74797 0
M  V30 16895 C 1633.75 -0.449225 -1.68101 0
M  V30 16896 O 1634.92 -0.709731 -1.8848 0
M  V30 16897 C 1631.99 -1.52714 -3.11254 0
M  V30 16898 C 1631.05 -2.75291 -3.29414 0
M  V30 16899 C 1630.28 -2.71704 -4.59361 0
M  V30 16900 O 1630.51 -1.78959 -5.41599 0
M  V30 16901 O 1629.44 -3.62886 -4.80205 0
M  V30 16902 H 1633.27 -2.52751 -1.68377 0
M  V30 16903 H 1630.85 -1.27859 -0.772808 0
M  V30 16904 H 1632.73 -1.53222 -3.92557 0
M  V30 16905 H 1631.41 -0.595858 -3.18169 0
M  V30 16906 H 1630.32 -2.80345 -2.47704 0
M  V30 16907 H 1631.65 -3.67541 -3.27375 0
M  V30 16908 N 1633.3 0.851265 -1.32632 0
M  V30 16909 C 1634.26 1.94168 -1.21785 0
M  V30 16910 C 1635.26 1.60189 -0.140023 0
M  V30 16911 O 1636.45 1.69763 -0.390671 0
M  V30 16912 C 1633.59 3.29513 -0.873717 0
M  V30 16913 H 1634.78 2.05214 -2.18695 0
M  V30 16914 H 1632.33 1.04186 -1.16512 0
M  V30 16915 H 1633.07 3.24165 0.0934202 0
M  V30 16916 H 1632.85 3.55552 -1.65302 0
M  V30 16917 H 1634.34 4.09425 -0.822231 0
M  V30 16918 N 1634.78 1.15898 1.06796 0
M  V30 16919 C 1635.69 0.87507 2.17669 0
M  V30 16920 C 1636.7 -0.150763 1.73346 0
M  V30 16921 O 1637.88 0.0246621 2.01385 0
M  V30 16922 C 1634.95 0.374555 3.44671 0
M  V30 16923 C 1634.01 1.46498 4.0353 0
M  V30 16924 C 1633.24 0.988256 5.2447 0
M  V30 16925 O 1633.46 -0.163992 5.70164 0
M  V30 16926 O 1632.4 1.7744 5.75151 0
M  V30 16927 H 1636.22 1.80208 2.44456 0
M  V30 16928 H 1633.81 0.93854 1.1624 0
M  V30 16929 H 1635.69 0.102161 4.21276 0
M  V30 16930 H 1634.36 -0.524513 3.19422 0
M  V30 16931 H 1633.27 1.79105 3.28439 0
M  V30 16932 H 1634.6 2.33917 4.33063 0
M  V30 16933 N 1636.26 -1.25243 0.956659 0
M  V30 16934 C 1637.19 -2.28159 0.496574 0
M  V30 16935 C 1638.17 -1.63814 -0.458132 0
M  V30 16936 O 1639.35 -1.90897 -0.356648 0
M  V30 16937 C 1636.48 -3.46573 -0.22454 0
M  V30 16938 C 1635.44 -4.2311 0.645104 0
M  V30 16939 C 1634.76 -5.343 -0.206867 0
M  V30 16940 C 1636.06 -4.85562 1.92422 0
M  V30 16941 H 1637.76 -2.66895 1.35675 0
M  V30 16942 H 1635.3 -1.28301 0.653827 0
M  V30 16943 H 1637.26 -4.17695 -0.55755 0
M  V30 16944 H 1635.98 -3.06833 -1.11898 0
M  V30 16945 H 1634.64 -3.53774 0.961228 0
M  V30 16946 H 1634.29 -4.908 -1.10112 0
M  V30 16947 H 1633.99 -5.86423 0.371714 0
M  V30 16948 H 1635.51 -6.08253 -0.534798 0
M  V30 16949 H 1636.92 -5.48817 1.65749 0
M  V30 16950 H 1635.32 -5.47871 2.44862 0
M  V30 16951 H 1636.39 -4.07634 2.62607 0
M  V30 16952 N 1637.73 -0.725468 -1.3991 0
M  V30 16953 C 1638.67 -0.0397832 -2.29165 0
M  V30 16954 C 1639.68 0.713458 -1.46334 0
M  V30 16955 O 1640.87 0.559199 -1.69515 0
M  V30 16956 C 1637.97 0.967929 -3.24784 0
M  V30 16957 C 1637.14 0.278181 -4.36515 0
M  V30 16958 C 1636.2 1.19266 -5.12506 0
M  V30 16959 O 1635.23 0.673726 -5.65199 0
M  V30 16960 N 1636.43 2.5231 -5.228 0
M  V30 16961 H 1639.19 -0.806204 -2.88653 0
M  V30 16962 H 1636.75 -0.573904 -1.51387 0
M  V30 16963 H 1638.75 1.58209 -3.72494 0
M  V30 16964 H 1637.32 1.63563 -2.66394 0
M  V30 16965 H 1636.54 -0.516326 -3.90804 0
M  V30 16966 H 1637.82 -0.200203 -5.08406 0
M  V30 16967 H 1637.22 2.96957 -4.8149 0
M  V30 16968 H 1635.78 3.08846 -5.73984 0
M  V30 16969 N 1639.21 1.50354 -0.472382 0
M  V30 16970 C 1640.12 2.32318 0.326405 0
M  V30 16971 C 1641.14 1.4276 0.994771 0
M  V30 16972 O 1642.31 1.75811 0.98246 0
M  V30 16973 C 1639.38 3.17468 1.39337 0
M  V30 16974 C 1638.44 4.22848 0.741465 0
M  V30 16975 C 1637.67 5.03929 1.75759 0
M  V30 16976 O 1637.9 4.86105 2.98425 0
M  V30 16977 O 1636.83 5.87051 1.32871 0
M  V30 16978 H 1640.66 3.01749 -0.343702 0
M  V30 16979 H 1638.24 1.47553 -0.234207 0
M  V30 16980 H 1640.12 3.703 2.01136 0
M  V30 16981 H 1638.8 2.50764 2.04692 0
M  V30 16982 H 1637.71 3.74005 0.0844848 0
M  V30 16983 H 1639.04 4.92026 0.130838 0
M  V30 16984 N 1640.69 0.205039 1.56261 0
M  V30 16985 C 1641.64 -0.711828 2.19549 0
M  V30 16986 C 1642.61 -1.2025 1.14582 0
M  V30 16987 O 1643.79 -1.26459 1.42873 0
M  V30 16988 C 1640.93 -1.92152 2.86656 0
M  V30 16989 C 1640.05 -1.47129 4.06174 0
M  V30 16990 C 1639.18 -2.63726 4.6111 0
M  V30 16991 C 1638.22 -2.15357 5.72964 0
M  V30 16992 N 1637.36 -3.25167 6.22263 0
M  V30 16993 H 1642.2 -0.165392 2.97541 0
M  V30 16994 H 1639.73 -0.0698889 1.46934 0
M  V30 16995 H 1641.69 -2.63152 3.23739 0
M  V30 16996 H 1640.32 -2.4411 2.11211 0
M  V30 16997 H 1639.37 -0.656797 3.74687 0
M  V30 16998 H 1640.69 -1.0765 4.87045 0
M  V30 16999 H 1639.84 -3.42833 5.0055 0
M  V30 17000 H 1638.58 -3.06484 3.79367 0
M  V30 17001 H 1637.58 -1.34706 5.33043 0
M  V30 17002 H 1638.81 -1.73618 6.56532 0
M  V30 17003 H 1636.76 -3.67438 5.43439 0
M  V30 17004 H 1636.67 -2.89888 6.98213 0
M  V30 17005 H 1637.94 -4.0446 6.66358 0
M  V30 17006 N 1642.17 -1.57451 -0.0684915 0
M  V30 17007 C 1643.42 -1.87689 -0.768156 0
M  V30 17008 C 1643.75 -0.79776 -1.77058 0
M  V30 17009 O 1643.02 0.191614 -1.93554 0
M  V30 17010 C 1643.31 -3.28587 -1.47319 0
M  V30 17011 C 1643.16 -4.47156 -0.486954 0
M  V30 17012 C 1644.48 -3.67772 -2.41727 0
M  V30 17013 H 1641.6 -0.682642 -0.277793 0
M  V30 17014 H 1644.24 -1.89974 -0.0312968 0
M  V30 17015 H 1642.39 -3.26769 -2.10129 0
M  V30 17016 H 1644.06 -4.61099 0.136189 0
M  V30 17017 H 1642.3 -4.33351 0.197429 0
M  V30 17018 H 1642.98 -5.42533 -1.01795 0
M  V30 17019 H 1645.45 -3.70704 -1.88992 0
M  V30 17020 H 1644.33 -4.6724 -2.88059 0
M  V30 17021 H 1644.59 -2.97882 -3.26679 0
M  V30 17022 N 1643.65 0.339955 -1.5389 0
M  V30 17023 C 1644.87 1.10417 -1.75564 0
M  V30 17024 C 1645.3 1.81466 -0.495156 0
M  V30 17025 O 1644.66 1.72679 0.552415 0
M  V30 17026 C 1644.7 2.09056 -2.93816 0
M  V30 17027 O 1643.81 3.16645 -2.64215 0
M  V30 17028 H 1643.15 0.319164 -0.582263 0
M  V30 17029 H 1645.68 0.389251 -2.00863 0
M  V30 17030 H 1645.69 2.52215 -3.20705 0
M  V30 17031 H 1644.36 1.56741 -3.85234 0
M  V30 17032 H 1642.94 2.78278 -2.48225 0
M  V30 17033 N 1645.13 1.45684 0.601159 0
M  V30 17034 C 1646.06 1.49342 1.72546 0
M  V30 17035 C 1647.04 0.349184 1.58806 0
M  V30 17036 O 1648.22 0.550634 1.80278 0
M  V30 17037 C 1645.35 1.35455 3.10435 0
M  V30 17038 C 1644.39 2.53826 3.42746 0
M  V30 17039 S 1645.23 4.16269 3.36869 0
M  V30 17040 C 1646.38 4.04858 4.77326 0
M  V30 17041 H 1646.62 2.44469 1.69181 0
M  V30 17042 H 1644.15 1.33345 0.778358 0
M  V30 17043 H 1646.11 1.2813 3.89991 0
M  V30 17044 H 1644.77 0.417881 3.11308 0
M  V30 17045 H 1643.96 2.40053 4.4316 0
M  V30 17046 H 1643.56 2.58046 2.70718 0
M  V30 17047 H 1645.85 3.704 5.67283 0
M  V30 17048 H 1646.8 5.05207 4.96157 0
M  V30 17049 H 1647.21 3.36408 4.5331 0
M  V30 17050 N 1646.6 -0.84422 1.33082 0
M  V30 17051 C 1647.84 -1.61287 1.25562 0
M  V30 17052 C 1648.21 -1.91179 -0.177361 0
M  V30 17053 O 1649.41 -2.66151 -0.376442 0
M  V30 17054 C 1647.68 -2.89106 2.10125 0
M  V30 17055 S 1649.24 -3.79816 2.1974 0
M  V30 17056 H 1646.06 -0.553081 0.446791 0
M  V30 17057 H 1648.66 -0.998931 1.68052 0
M  V30 17058 H 1647.36 -2.65109 3.13281 0
M  V30 17059 H 1646.89 -3.55511 1.68451 0
M  V30 17060 H 1648.91 -4.77354 1.35454 0
M  V30 17061 N 1648.08 -1.16463 -1.0618 0
M  V30 17062 C 1649.5 -0.909776 -1.31131 0
M  V30 17063 C 1649.7 0.436686 -1.96711 0
M  V30 17064 O 1648.75 1.17595 -2.23445 0
M  V30 17065 C 1650.07 -2.05967 -2.19084 0
M  V30 17066 C 1651.61 -2.09557 -2.32497 0
M  V30 17067 C 1652.09 -3.23904 -3.23806 0
M  V30 17068 N 1653.58 -3.23628 -3.3139 0
M  V30 17069 C 1654.32 -4.08746 -4.02137 0
M  V30 17070 N 1653.81 -5.03954 -4.75397 0
M  V30 17071 N 1655.6 -3.96729 -3.98199 0
M  V30 17072 H 1647.76 -2.03148 -0.620066 0
M  V30 17073 H 1650.02 -0.886477 -0.335949 0
M  V30 17074 H 1649.72 -3.03227 -1.78174 0
M  V30 17075 H 1649.6 -2.00219 -3.19675 0
M  V30 17076 H 1651.99 -1.12889 -2.72654 0
M  V30 17077 H 1652.07 -2.19369 -1.3157 0
M  V30 17078 H 1651.71 -4.20831 -2.84366 0
M  V30 17079 H 1651.64 -3.11327 -4.24715 0
M  V30 17080 H 1654.13 -2.54687 -2.79182 0
M  V30 17081 H 1654.44 -5.65319 -5.2691 0
M  V30 17082 H 1652.79 -5.07932 -4.74373 0
M  V30 17083 H 1655.98 -3.21652 -3.40085 0
M  V30 17084 H 1656.15 -4.63286 -4.53067 0
M  V30 17085 N 1649.56 1.24734 -0.963288 0
M  V30 17086 C 1650.78 1.97285 -0.639808 0
M  V30 17087 C 1651.21 1.71024 0.783099 0
M  V30 17088 O 1650.57 0.971324 1.53085 0
M  V30 17089 C 1650.62 3.48793 -0.915197 0
M  V30 17090 O 1649.72 4.124 0.00162805 0
M  V30 17091 H 1649.06 0.618196 -0.242343 0
M  V30 17092 H 1651.59 1.58627 -1.29224 0
M  V30 17093 H 1651.6 3.99155 -0.84495 0
M  V30 17094 H 1650.28 3.67235 -1.95221 0
M  V30 17095 H 1648.85 3.72702 -0.121563 0
M  V30 17096 N 1651.04 0.732878 1.39523 0
M  V30 17097 C 1652.45 0.408236 1.54291 0
M  V30 17098 C 1652.65 -1.08114 1.7004 0
M  V30 17099 O 1651.71 -1.86726 1.6997 0
M  V30 17100 C 1653.02 1.1894 2.76177 0
M  V30 17101 C 1654.57 1.17742 2.9001 0
M  V30 17102 C 1655.05 1.94111 4.14831 0
M  V30 17103 N 1656.54 1.91266 4.21867 0
M  V30 17104 C 1657.27 2.47167 5.17394 0
M  V30 17105 N 1656.77 3.11696 6.18723 0
M  V30 17106 N 1658.56 2.37212 5.09595 0
M  V30 17107 H 1650.71 1.69839 1.27548 0
M  V30 17108 H 1652.97 0.718844 0.618035 0
M  V30 17109 H 1652.68 2.24321 2.70875 0
M  V30 17110 H 1652.55 0.792439 3.68782 0
M  V30 17111 H 1654.94 0.131752 2.94806 0
M  V30 17112 H 1655.02 1.61374 1.98474 0
M  V30 17113 H 1654.67 2.98677 4.10797 0
M  V30 17114 H 1654.6 1.47886 5.05408 0
M  V30 17115 H 1657.09 1.44254 3.49284 0
M  V30 17116 H 1657.4 3.51823 6.8807 0
M  V30 17117 H 1655.75 3.15785 6.19116 0
M  V30 17118 H 1658.94 1.86444 4.29367 0
M  V30 17119 H 1659.11 2.81076 5.83866 0
M  V30 17120 N 1652.52 -1.50101 0.480349 0
M  V30 17121 C 1653.74 -2.07278 -0.0710872 0
M  V30 17122 C 1654.17 -1.34082 -1.31923 0
M  V30 17123 O 1653.52 -0.391251 -1.77028 0
M  V30 17124 C 1653.57 -3.59099 -0.328706 0
M  V30 17125 O 1652.68 -3.8764 -1.40745 0
M  V30 17126 H 1652.02 -0.66378 0.0170748 0
M  V30 17127 H 1654.55 -1.93178 0.674049 0
M  V30 17128 H 1654.56 -4.04049 -0.566435 0
M  V30 17129 H 1653.23 -4.11789 0.583316 0
M  V30 17130 H 1651.81 -3.54519 -1.15631 0
M  V30 17131 N 1653.99 -0.213323 -1.5615 0
M  V30 17132 C 1655.41 0.142215 -1.58965 0
M  V30 17133 C 1655.61 1.59606 -1.22996 0
M  V30 17134 O 1654.67 2.33485 -0.961308 0
M  V30 17135 C 1655.98 -0.176632 -3.00181 0
M  V30 17136 C 1657.53 -0.118205 -3.12777 0
M  V30 17137 C 1658 -0.410614 -4.56156 0
M  V30 17138 N 1659.49 -0.359887 -4.618 0
M  V30 17139 C 1660.23 -0.559744 -5.70661 0
M  V30 17140 N 1659.72 -0.820934 -6.87919 0
M  V30 17141 N 1661.52 -0.492746 -5.59936 0
M  V30 17142 H 1653.67 -1.16182 -1.77807 0
M  V30 17143 H 1655.93 -0.465086 -0.826075 0
M  V30 17144 H 1655.64 -1.18538 -3.31122 0
M  V30 17145 H 1655.51 0.512256 -3.73705 0
M  V30 17146 H 1657.9 0.88117 -2.81637 0
M  V30 17147 H 1657.98 -0.840446 -2.41599 0
M  V30 17148 H 1657.62 -1.40739 -4.88011 0
M  V30 17149 H 1657.55 0.332725 -5.25548 0
M  V30 17150 H 1660.04 -0.16537 -3.77538 0
M  V30 17151 H 1660.36 -0.961755 -7.66792 0
M  V30 17152 H 1658.7 -0.858036 -6.89683 0
M  V30 17153 H 1661.89 -0.288981 -4.67207 0
M  V30 17154 H 1662.07 -0.651912 -6.44712 0
M  V30 17155 N 1655.47 1.57485 0.0601405 0
M  V30 17156 C 1656.7 1.92438 0.773466 0
M  V30 17157 C 1657.12 0.810755 1.6973 0
M  V30 17158 O 1656.48 -0.235697 1.79761 0
M  V30 17159 C 1656.53 3.26381 1.53323 0
M  V30 17160 O 1655.63 3.16436 2.64465 0
M  V30 17161 H 1654.97 0.629838 0.210239 0
M  V30 17162 H 1657.5 2.04585 0.0248981 0
M  V30 17163 H 1657.51 3.60534 1.90996 0
M  V30 17164 H 1656.19 4.07007 0.855468 0
M  V30 17165 H 1654.77 2.93862 2.29564 0
M  V30 17166 N 1656.95 -0.331789 1.54068 0
M  V30 17167 C 1658.37 -0.675628 1.44594 0
M  V30 17168 C 1658.57 -1.91976 0.612166 0
M  V30 17169 O 1657.62 -2.5227 0.107742 0
M  V30 17170 C 1658.94 -0.857303 2.8822 0
M  V30 17171 C 1660.48 -0.955171 2.9807 0
M  V30 17172 C 1660.96 -1.16908 4.42828 0
M  V30 17173 N 1662.45 -1.23601 4.46405 0
M  V30 17174 C 1663.18 -1.41924 5.55558 0
M  V30 17175 N 1662.68 -1.57345 6.74696 0
M  V30 17176 N 1664.47 -1.44566 5.43191 0
M  V30 17177 H 1656.62 0.486058 2.06764 0
M  V30 17178 H 1658.89 0.155605 0.935142 0
M  V30 17179 H 1658.59 -0.0144659 3.51697 0
M  V30 17180 H 1658.47 -1.75558 3.33855 0
M  V30 17181 H 1660.85 -1.78852 2.34725 0
M  V30 17182 H 1660.94 -0.0335425 2.55778 0
M  V30 17183 H 1660.58 -0.340612 5.06757 0
M  V30 17184 H 1660.51 -2.10445 4.82722 0
M  V30 17185 H 1663 -1.13161 3.60559 0
M  V30 17186 H 1663.31 -1.70995 7.53645 0
M  V30 17187 H 1661.66 -1.54458 6.77619 0
M  V30 17188 H 1664.85 -1.3211 4.49071 0
M  V30 17189 H 1665.02 -1.58505 6.28315 0
M  V30 17190 N 1658.43 -1.46001 -0.593424 0
M  V30 17191 C 1659.65 -1.54541 -1.38318 0
M  V30 17192 C 1660.08 -0.183555 -1.87202 0
M  V30 17193 O 1659.44 0.834407 -1.60958 0
M  V30 17194 C 1659.48 -2.54559 -2.55405 0
M  V30 17195 O 1658.59 -2.07321 -3.56499 0
M  V30 17196 H 1657.93 -0.520434 -0.412364 0
M  V30 17197 H 1660.46 -1.9148 -0.720862 0
M  V30 17198 H 1660.47 -2.73823 -3.02465 0
M  V30 17199 H 1659.14 -3.53461 -2.19176 0
M  V30 17200 H 1657.72 -1.97997 -3.15993 0
M  V30 17201 N 1659.91 0.83715 -1.33527 0
M  V30 17202 C 1661.32 1.40878 -1.22516 0
M  V30 17203 C 1661.67 1.95585 0.155236 0
M  V30 17204 O 1660.79 1.88946 1.05491 0
M  V30 17205 C 1661.39 2.56093 -2.21815 0
M  V30 17206 C 1659.95 3.09205 -2.14638 0
M  V30 17207 C 1659.09 1.82012 -2.09205 0
M  V30 17208 H 1662.05 0.642766 -1.45101 0
M  V30 17209 H 1662.07 3.33775 -1.82687 0
M  V30 17210 H 1661.58 2.16246 -3.22272 0
M  V30 17211 H 1659.68 3.53592 -1.17489 0
M  V30 17212 H 1659.79 3.69261 -3.05259 0
M  V30 17213 H 1658.16 2.02331 -1.54707 0
M  V30 17214 H 1658.94 1.44359 -3.11473 0
M  V30 17215 N 1661.38 1.17024 1.05561 0
M  V30 17216 C 1662.8 0.916718 1.30646 0
M  V30 17217 C 1663 -0.426248 1.9694 0
M  V30 17218 O 1662.06 -1.16408 2.24065 0
M  V30 17219 C 1663.37 2.07126 2.17989 0
M  V30 17220 C 1664.92 2.10787 2.31383 0
M  V30 17221 C 1665.39 3.25616 3.22084 0
M  V30 17222 N 1666.88 3.25381 3.29669 0
M  V30 17223 C 1667.62 4.10873 3.99964 0
M  V30 17224 N 1667.11 5.06468 4.72718 0
M  V30 17225 N 1668.91 3.98835 3.9609 0
M  V30 17226 H 1661.06 2.03474 0.609284 0
M  V30 17227 H 1663.32 0.888247 0.331243 0
M  V30 17228 H 1663.03 3.04168 1.76564 0
M  V30 17229 H 1662.9 2.01912 3.18609 0
M  V30 17230 H 1665.29 1.14333 2.72051 0
M  V30 17231 H 1665.37 2.20064 1.30405 0
M  V30 17232 H 1665.01 4.22333 2.8213 0
M  V30 17233 H 1664.94 3.13575 4.23058 0
M  V30 17234 H 1667.43 2.56164 2.77828 0
M  V30 17235 H 1667.75 5.68105 5.23905 0
M  V30 17236 H 1666.09 5.10441 4.71673 0
M  V30 17237 H 1669.28 3.23451 3.38375 0
M  V30 17238 H 1669.46 4.65682 4.50604 0
M  V30 17239 N 1662.86 -1.24221 0.969889 0
M  V30 17240 C 1664.27 -1.74206 0.671494 0
M  V30 17241 C 1664.62 -1.78576 -0.81271 0
M  V30 17242 O 1663.75 -1.41664 -1.63586 0
M  V30 17243 C 1664.34 -3.16371 1.21222 0
M  V30 17244 C 1662.9 -3.63855 0.96368 0
M  V30 17245 C 1662.05 -2.42429 1.34623 0
M  V30 17246 H 1665 -1.09893 1.14496 0
M  V30 17247 H 1665.02 -3.7606 0.579552 0
M  V30 17248 H 1664.53 -3.13159 2.29245 0
M  V30 17249 H 1662.64 -3.72463 -0.100931 0
M  V30 17250 H 1662.75 -4.51207 1.61087 0
M  V30 17251 H 1661.11 -2.42952 0.764624 0
M  V30 17252 H 1661.9 -2.41896 2.436 0
M  V30 17253 N 1664.34 -0.740267 -1.39132 0
M  V30 17254 C 1665.76 -0.416412 -1.54072 0
M  V30 17255 C 1665.96 1.07211 -1.70611 0
M  V30 17256 O 1665.01 1.85822 -1.70958 0
M  V30 17257 C 1666.33 -1.20403 -2.75542 0
M  V30 17258 C 1667.87 -1.19278 -2.89382 0
M  V30 17259 C 1668.35 -1.96308 -4.13796 0
M  V30 17260 N 1669.84 -1.93501 -4.20846 0
M  V30 17261 C 1670.57 -2.49907 -5.16075 0
M  V30 17262 N 1670.07 -3.14973 -6.17061 0
M  V30 17263 N 1671.86 -2.39911 -5.0833 0
M  V30 17264 H 1664.01 -1.70513 -1.26645 0
M  V30 17265 H 1666.28 -0.722111 -0.614214 0
M  V30 17266 H 1665.98 -2.25754 -2.69681 0
M  V30 17267 H 1665.86 -0.811986 -3.68357 0
M  V30 17268 H 1668.24 -0.147385 -2.94732 0
M  V30 17269 H 1668.33 -1.62424 -1.97616 0
M  V30 17270 H 1667.97 -3.00851 -4.09208 0
M  V30 17271 H 1667.9 -1.50565 -5.04617 0
M  V30 17272 H 1670.39 -1.46104 -3.48514 0
M  V30 17273 H 1670.7 -3.55467 -6.86195 0
M  V30 17274 H 1669.05 -3.19064 -6.17433 0
M  V30 17275 H 1672.24 -1.88718 -4.28373 0
M  V30 17276 H 1672.41 -2.84169 -5.82368 0
M  V30 17277 N 1665.82 1.49844 -0.488302 0
M  V30 17278 C 1667.07 2.02009 0.0605782 0
M  V30 17279 C 1667.39 1.37114 1.38653 0
M  V30 17280 O 1666.66 0.522182 1.88812 0
M  V30 17281 H 1665.24 0.746569 0.0253773 0
M  V30 17282 H 1667.9 1.84 -0.64265 0
M  V30 17283 H 1667 3.11461 0.199542 0
M  V30 17284 N 1667.3 0.221601 1.56034 0
M  V30 17285 C 1668.57 -0.459097 1.90136 0
M  V30 17286 C 1668.95 -1.7774 1.13894 0
M  V30 17287 O 1668.3 -2.27147 0.248285 0
M  V30 17288 C 1668.51 -0.651996 3.42856 0
M  V30 17289 C 1669.86 -0.959402 4.13619 0
M  V30 17290 O 1670.88 -0.73878 3.48454 0
M  V30 17291 O 1669.74 -1.37811 5.28839 0
M  V30 17292 H 1666.84 -0.242753 0.790569 0
M  V30 17293 H 1669.38 0.263789 1.67637 0
M  V30 17294 H 1668.15 0.277892 3.90312 0
M  V30 17295 H 1667.78 -1.42637 3.71134 0
M  V30 17296 N 1668.77 -1.57515 -0.0517878 0
M  V30 17297 C 1670 -1.92845 -0.763249 0
M  V30 17298 C 1670.42 -0.819745 -1.69298 0
M  V30 17299 O 1669.78 0.226161 -1.79884 0
M  V30 17300 C 1669.83 -3.27189 -1.5159 0
M  V30 17301 O 1668.93 -3.17834 -2.62783 0
M  V30 17302 H 1668.28 -0.630944 -0.206896 0
M  V30 17303 H 1670.81 -2.04595 -0.0140481 0
M  V30 17304 H 1670.82 -3.61542 -1.89081 0
M  V30 17305 H 1669.49 -4.07455 -0.833871 0
M  V30 17306 H 1668.07 -2.95075 -2.28002 0
M  V30 17307 N 1670.25 0.323614 -1.54242 0
M  V30 17308 C 1671.22 1.38126 -1.82904 0
M  V30 17309 C 1672.22 1.44723 -0.700853 0
M  V30 17310 O 1673.41 1.44751 -0.969161 0
M  V30 17311 C 1670.54 2.76858 -1.98903 0
M  V30 17312 H 1671.73 1.13966 -2.77402 0
M  V30 17313 H 1669.28 0.559094 -1.45958 0
M  V30 17314 H 1670.02 3.06274 -1.06616 0
M  V30 17315 H 1669.8 2.73464 -2.80998 0
M  V30 17316 H 1671.29 3.53372 -2.22526 0
M  V30 17317 N 1671.73 1.46313 0.585673 0
M  V30 17318 C 1672.96 1.54811 1.36811 0
M  V30 17319 C 1673.37 0.187083 1.88273 0
M  V30 17320 O 1672.71 -0.825324 1.64116 0
M  V30 17321 C 1672.77 2.48978 2.59326 0
M  V30 17322 C 1672.44 3.9528 2.29352 0
M  V30 17323 C 1673.44 4.84575 1.88369 0
M  V30 17324 C 1671.12 4.40387 2.41588 0
M  V30 17325 C 1673.11 6.16989 1.60012 0
M  V30 17326 C 1670.8 5.72836 2.12844 0
M  V30 17327 C 1671.8 6.60956 1.72121 0
M  V30 17328 O 1671.49 7.90947 1.43727 0
M  V30 17329 H 1671.22 0.526169 0.424409 0
M  V30 17330 H 1673.77 1.92395 0.719251 0
M  V30 17331 H 1672 2.06406 3.27007 0
M  V30 17332 H 1673.69 2.47915 3.21392 0
M  V30 17333 H 1674.46 4.50984 1.78433 0
M  V30 17334 H 1670.34 3.72024 2.72249 0
M  V30 17335 H 1673.88 6.85728 1.28152 0
M  V30 17336 H 1669.78 6.05976 2.22403 0
M  V30 17337 H 1670.55 8.03185 1.57597 0
M  V30 17338 N 1673.21 -0.830057 1.33969 0
M  V30 17339 C 1674.16 -1.9292 1.21516 0
M  V30 17340 C 1675.14 -1.60482 0.115907 0
M  V30 17341 O 1676.34 -1.73608 0.344875 0
M  V30 17342 C 1673.46 -3.29442 0.96554 0
M  V30 17343 C 1672.55 -3.68021 2.10763 0
M  V30 17344 N 1672.94 -3.78222 3.3583 0
M  V30 17345 C 1671.24 -3.97821 2.01629 0
M  V30 17346 C 1671.94 -4.11858 4.10789 0
M  V30 17347 N 1670.92 -4.24698 3.39312 0
M  V30 17348 H 1674.72 -1.98974 2.16302 0
M  V30 17349 H 1672.23 -1.0233 1.26104 0
M  V30 17350 H 1674.23 -4.07991 0.857238 0
M  V30 17351 H 1672.89 -3.24689 0.0262975 0
M  V30 17352 H 1673.9 -3.61901 3.7047 0
M  V30 17353 H 1670.58 -4.01229 1.15418 0
M  V30 17354 H 1671.97 -4.27014 5.18757 0
M  V30 17355 N 1674.69 -1.17582 -1.04939 0
M  V30 17356 C 1675.91 -0.99097 -1.82194 0
M  V30 17357 C 1676.34 0.455965 -1.8249 0
M  V30 17358 O 1675.7 1.32661 -1.23575 0
M  V30 17359 C 1675.74 -1.53971 -3.26076 0
M  V30 17360 O 1674.85 -0.755172 -4.05427 0
M  V30 17361 H 1674.19 -0.351669 -0.563227 0
M  V30 17362 H 1676.72 -1.56138 -1.3222 0
M  V30 17363 H 1676.73 -1.56307 -3.76872 0
M  V30 17364 H 1675.4 -2.59295 -3.25175 0
M  V30 17365 H 1673.98 -0.803423 -3.64142 0
M  V30 17366 N 1676.17 1.23705 -0.976463 0
M  V30 17367 C 1677.1 2.24297 -0.471538 0
M  V30 17368 C 1678.11 1.57169 0.424484 0
M  V30 17369 O 1679.3 1.77022 0.229252 0
M  V30 17370 C 1676.4 3.37214 0.337621 0
M  V30 17371 C 1675.57 4.33921 -0.550586 0
M  V30 17372 C 1674.63 5.25804 0.204053 0
M  V30 17373 O 1673.66 5.67757 -0.404995 0
M  V30 17374 N 1674.86 5.61021 1.49116 0
M  V30 17375 H 1677.62 2.68252 -1.33645 0
M  V30 17376 H 1675.19 1.37836 -0.849281 0
M  V30 17377 H 1677.18 3.95658 0.850714 0
M  V30 17378 H 1675.75 2.92474 1.10351 0
M  V30 17379 H 1674.97 3.74038 -1.24455 0
M  V30 17380 H 1676.26 4.95493 -1.15604 0
M  V30 17381 H 1675.65 5.28879 2.00757 0
M  V30 17382 H 1674.21 6.21954 1.94978 0
M  V30 17383 N 1677.64 0.747635 1.38738 0
M  V30 17384 C 1679.06 0.424577 1.53849 0
M  V30 17385 C 1679.26 -1.06304 1.71177 0
M  V30 17386 O 1678.32 -1.84912 1.71941 0
M  V30 17387 C 1679.63 1.21863 2.749 0
M  V30 17388 C 1681.18 1.20811 2.88745 0
M  V30 17389 C 1681.65 1.985 4.12749 0
M  V30 17390 N 1683.14 1.9573 4.19814 0
M  V30 17391 C 1683.88 2.52641 5.14743 0
M  V30 17392 N 1683.37 3.18241 6.15382 0
M  V30 17393 N 1685.17 2.42604 5.0705 0
M  V30 17394 H 1677.32 1.71182 1.25739 0
M  V30 17395 H 1679.58 0.725358 0.610376 0
M  V30 17396 H 1679.29 2.27181 2.6848 0
M  V30 17397 H 1679.16 0.831509 3.67921 0
M  V30 17398 H 1681.55 0.163013 2.94649 0
M  V30 17399 H 1681.63 1.6347 1.96752 0
M  V30 17400 H 1681.27 3.03017 4.07606 0
M  V30 17401 H 1681.2 1.53239 5.03811 0
M  V30 17402 H 1683.69 1.4795 3.47734 0
M  V30 17403 H 1684.01 3.59101 6.843 0
M  V30 17404 H 1682.35 3.22334 6.15732 0
M  V30 17405 H 1685.54 1.90987 4.27366 0
M  V30 17406 H 1685.72 2.87253 5.80852 0
M  V30 17407 N 1679.12 -1.49583 0.496242 0
M  V30 17408 C 1680.07 -2.25966 -0.303873 0
M  V30 17409 C 1681.06 -1.30609 -0.939693 0
M  V30 17410 O 1682.25 -1.5536 -0.848079 0
M  V30 17411 C 1679.38 -3.14755 -1.37055 0
M  V30 17412 C 1678.46 -4.17573 -0.741214 0
M  V30 17413 N 1678.85 -5.05567 0.153357 0
M  V30 17414 C 1677.15 -4.34591 -1.00234 0
M  V30 17415 C 1677.85 -5.79432 0.513115 0
M  V30 17416 N 1676.83 -5.43472 -0.117819 0
M  V30 17417 H 1680.63 -2.91369 0.384854 0
M  V30 17418 H 1678.14 -1.59375 0.312007 0
M  V30 17419 H 1680.14 -3.68104 -1.95717 0
M  V30 17420 H 1678.8 -2.50903 -2.06101 0
M  V30 17421 H 1679.81 -5.15244 0.523862 0
M  V30 17422 H 1676.49 -3.81947 -1.6859 0
M  V30 17423 H 1677.88 -6.60271 1.24468 0
M  V30 17424 N 1680.6 -0.229873 -1.55915 0
M  V30 17425 C 1681.82 0.4072 -2.03363 0
M  V30 17426 C 1682.25 1.5197 -1.10845 0
M  V30 17427 O 1681.61 1.81034 -0.098175 0
M  V30 17428 C 1681.66 0.908268 -3.48974 0
M  V30 17429 O 1680.76 2.01907 -3.59593 0
M  V30 17430 H 1680.1 0.091091 -0.657722 0
M  V30 17431 H 1682.63 -0.350947 -2.01568 0
M  V30 17432 H 1682.64 1.21593 -3.8946 0
M  V30 17433 H 1681.32 0.0940655 -4.15794 0
M  V30 17434 H 1679.89 1.71741 -3.30998 0
M  V30 17435 N 1682.08 1.5754 0.0434337 0
M  V30 17436 C 1683.01 2.08648 1.04824 0
M  V30 17437 C 1683.99 0.985894 1.38615 0
M  V30 17438 O 1685.17 1.2603 1.4775 0
M  V30 17439 C 1682.3 2.55399 2.35348 0
M  V30 17440 C 1681.26 3.69592 2.15837 0
M  V30 17441 C 1680.58 4.02497 3.51995 0
M  V30 17442 C 1681.88 4.98575 1.55629 0
M  V30 17443 H 1683.58 2.9285 0.622849 0
M  V30 17444 H 1681.12 1.40879 0.298158 0
M  V30 17445 H 1683.08 2.89771 3.05958 0
M  V30 17446 H 1681.8 1.68262 2.7992 0
M  V30 17447 H 1680.46 3.35546 1.47663 0
M  V30 17448 H 1680.11 3.12448 3.94189 0
M  V30 17449 H 1679.81 4.79406 3.39771 0
M  V30 17450 H 1681.33 4.39391 4.23991 0
M  V30 17451 H 1682.75 5.30996 2.16138 0
M  V30 17452 H 1681.14 5.79998 1.54021 0
M  V30 17453 H 1682.21 4.82098 0.520567 0
M  V30 17454 N 1683.56 -0.31543 1.54411 0
M  V30 17455 C 1684.49 -1.39353 1.87358 0
M  V30 17456 C 1685.47 -1.53586 0.731118 0
M  V30 17457 O 1686.65 -1.67332 0.98558 0
M  V30 17458 C 1683.78 -2.75998 2.10814 0
M  V30 17459 C 1682.74 -2.76545 3.2666 0
M  V30 17460 C 1682.06 -4.16343 3.35504 0
M  V30 17461 C 1683.36 -2.39567 4.64117 0
M  V30 17462 H 1685.06 -1.12028 2.77651 0
M  V30 17463 H 1682.6 -0.537476 1.33593 0
M  V30 17464 H 1684.55 -3.51491 2.32447 0
M  V30 17465 H 1683.28 -3.04817 1.17278 0
M  V30 17466 H 1681.94 -2.03507 3.04927 0
M  V30 17467 H 1681.59 -4.42316 2.39512 0
M  V30 17468 H 1681.29 -4.17613 4.13368 0
M  V30 17469 H 1682.81 -4.93637 3.59381 0
M  V30 17470 H 1684.22 -3.04775 4.85577 0
M  V30 17471 H 1682.62 -2.52075 5.4459 0
M  V30 17472 H 1683.69 -1.34707 4.65813 0
M  V30 17473 N 1685.03 -1.46622 -0.577906 0
M  V30 17474 C 1686.26 -1.5576 -1.36185 0
M  V30 17475 C 1686.68 -0.200403 -1.87733 0
M  V30 17476 O 1686.03 0.803091 -1.6388 0
M  V30 17477 C 1686.09 -2.56626 -2.54608 0
M  V30 17478 O 1685.81 -3.87074 -2.05195 0
M  V30 17479 C 1687.31 -2.75751 -3.47097 0
M  V30 17480 H 1684.53 -0.526589 -0.415866 0
M  V30 17481 H 1687.07 -1.9207 -0.702091 0
M  V30 17482 H 1685.23 -2.23307 -3.16564 0
M  V30 17483 H 1685.64 -4.42015 -2.82352 0
M  V30 17484 H 1687.11 -3.50237 -4.26659 0
M  V30 17485 H 1687.59 -1.82829 -3.99337 0
M  V30 17486 H 1688.2 -3.10185 -2.90973 0
M  V30 17487 N 1686.51 0.822941 -1.34408 0
M  V30 17488 C 1687.92 1.39571 -1.24003 0
M  V30 17489 C 1688.27 1.95739 0.134483 0
M  V30 17490 O 1687.4 1.90054 1.03481 0
M  V30 17491 C 1687.99 2.53726 -2.24519 0
M  V30 17492 C 1686.55 3.06911 -2.17905 0
M  V30 17493 C 1685.7 1.79783 -2.11124 0
M  V30 17494 H 1688.65 0.62734 -1.45774 0
M  V30 17495 H 1688.67 3.31818 -1.86217 0
M  V30 17496 H 1688.18 2.12816 -3.24547 0
M  V30 17497 H 1686.29 3.52326 -1.21233 0
M  V30 17498 H 1686.4 3.66003 -3.09158 0
M  V30 17499 H 1684.76 2.00679 -1.56845 0
M  V30 17500 H 1685.55 1.41047 -3.12987 0
M  V30 17501 N 1687.99 1.18137 1.04314 0
M  V30 17502 C 1689.24 0.976648 1.77734 0
M  V30 17503 C 1689.57 -0.492756 1.87844 0
M  V30 17504 O 1688.84 -1.36586 1.38472 0
M  V30 17505 C 1689.13 1.62911 3.21142 0
M  V30 17506 C 1688.98 3.1712 3.1899 0
M  V30 17507 C 1690.3 1.34029 4.19195 0
M  V30 17508 H 1687.42 0.356217 0.645197 0
M  V30 17509 H 1690.06 1.45767 1.21868 0
M  V30 17510 H 1688.21 1.22009 3.68844 0
M  V30 17511 H 1689.88 3.67139 2.79296 0
M  V30 17512 H 1688.13 3.4941 2.57089 0
M  V30 17513 H 1688.8 3.57907 4.20245 0
M  V30 17514 H 1691.27 1.69463 3.80028 0
M  V30 17515 H 1690.15 1.82253 5.1776 0
M  V30 17516 H 1690.41 0.262712 4.41319 0
M  V30 17517 N 1689.47 -1.23186 0.98301 0
M  V30 17518 C 1690.7 -1.95702 0.671453 0
M  V30 17519 C 1691.11 -1.72737 -0.76206 0
M  V30 17520 O 1690.47 -1.02037 -1.5131 0
M  V30 17521 C 1690.52 -3.48642 0.955573 0
M  V30 17522 O 1690.24 -3.70829 2.33275 0
M  V30 17523 C 1691.74 -4.38354 0.660333 0
M  V30 17524 H 1688.96 -0.623006 0.249209 0
M  V30 17525 H 1691.51 -1.56606 1.3151 0
M  V30 17526 H 1689.66 -3.85743 0.357892 0
M  V30 17527 H 1690.07 -4.65104 2.42443 0
M  V30 17528 H 1691.55 -5.44456 0.909477 0
M  V30 17529 H 1692.03 -4.37323 -0.405615 0
M  V30 17530 H 1692.63 -4.06864 1.23861 0
M  V30 17531 N 1690.95 -0.754982 -1.38339 0
M  V30 17532 C 1692.36 -0.379276 -1.82807 0
M  V30 17533 C 1692.71 1.09228 -1.62984 0
M  V30 17534 O 1691.83 1.84445 -1.13177 0
M  V30 17535 C 1692.43 -0.681628 -3.31872 0
M  V30 17536 C 1690.99 -0.359183 -3.74682 0
M  V30 17537 C 1690.13 -0.93409 -2.61094 0
M  V30 17538 H 1693.09 -0.951019 -1.27048 0
M  V30 17539 H 1693.11 0.0396803 -3.80479 0
M  V30 17540 H 1692.62 -1.75271 -3.46268 0
M  V30 17541 H 1690.72 0.705257 -3.65865 0
M  V30 17542 H 1690.83 -0.85571 -4.71396 0
M  V30 17543 H 1689.2 -0.359379 -2.52152 0
M  V30 17544 H 1689.98 -2.01023 -2.78289 0
M  V30 17545 N 1692.42 1.49318 -0.504168 0
M  V30 17546 C 1693.35 2.32027 0.261837 0
M  V30 17547 C 1694.34 1.4045 0.959575 0
M  V30 17548 O 1695.52 1.69357 0.950365 0
M  V30 17549 C 1692.65 3.21039 1.3248 0
M  V30 17550 C 1691.6 4.21435 0.746752 0
M  V30 17551 C 1690.93 4.99405 1.91047 0
M  V30 17552 C 1692.23 5.21631 -0.264315 0
M  V30 17553 H 1693.92 2.96317 -0.428544 0
M  V30 17554 H 1691.47 1.42497 -0.207539 0
M  V30 17555 H 1693.42 3.77714 1.86843 0
M  V30 17556 H 1692.15 2.54699 2.04441 0
M  V30 17557 H 1690.81 3.6591 0.22485 0
M  V30 17558 H 1690.45 4.29509 2.61784 0
M  V30 17559 H 1690.15 5.67338 1.52975 0
M  V30 17560 H 1691.68 5.58924 2.45837 0
M  V30 17561 H 1693.09 5.72981 0.191288 0
M  V30 17562 H 1691.49 5.97472 -0.561039 0
M  V30 17563 H 1692.56 4.70346 -1.17911 0
M  V30 17564 N 1693.9 0.238138 1.5579 0
M  V30 17565 C 1695.13 -0.396409 2.03576 0
M  V30 17566 C 1695.55 -1.5138 1.11649 0
M  V30 17567 O 1694.91 -1.80979 0.107774 0
M  V30 17568 C 1694.96 -0.889749 3.49451 0
M  V30 17569 O 1694.06 -1.99997 3.60659 0
M  V30 17570 H 1693.4 -0.0876017 0.658196 0
M  V30 17571 H 1695.93 0.361632 2.01379 0
M  V30 17572 H 1695.94 -1.19526 3.901 0
M  V30 17573 H 1694.62 -0.0720136 4.15838 0
M  V30 17574 H 1693.2 -1.69983 3.31904 0
M  V30 17575 N 1695.38 -1.57561 -0.0350783 0
M  V30 17576 C 1696.79 -1.77383 -0.582437 0
M  V30 17577 C 1697.14 -0.868453 -1.75933 0
M  V30 17578 O 1696.27 -0.061745 -2.16312 0
M  V30 17579 C 1696.86 -3.2168 -1.06337 0
M  V30 17580 C 1695.42 -3.42719 -1.55629 0
M  V30 17581 C 1694.57 -2.72906 -0.4917 0
M  V30 17582 H 1697.52 -1.57545 0.19115 0
M  V30 17583 H 1697.54 -3.27863 -1.93097 0
M  V30 17584 H 1697.05 -3.8755 -0.206603 0
M  V30 17585 H 1695.15 -2.82016 -2.43511 0
M  V30 17586 H 1695.27 -4.51312 -1.60794 0
M  V30 17587 H 1693.63 -2.36506 -0.945349 0
M  V30 17588 H 1694.41 -3.41454 0.355502 0
M  V30 17589 N 1696.86 0.307236 -1.54576 0
M  V30 17590 C 1698.27 0.88064 -1.64626 0
M  V30 17591 C 1698.62 1.88308 -0.550865 0
M  V30 17592 O 1697.75 2.14116 0.313553 0
M  V30 17593 C 1698.34 1.60405 -2.98422 0
M  V30 17594 C 1696.9 2.12595 -3.10613 0
M  V30 17595 C 1696.05 0.956593 -2.60278 0
M  V30 17596 H 1699 0.0843939 -1.58475 0
M  V30 17597 H 1699.02 2.46925 -2.89496 0
M  V30 17598 H 1698.53 0.874209 -3.78126 0
M  V30 17599 H 1696.63 2.88644 -2.35617 0
M  V30 17600 H 1696.74 2.36475 -4.16673 0
M  V30 17601 H 1695.11 1.3404 -2.16576 0
M  V30 17602 H 1695.89 0.24081 -3.42454 0
M  V30 17603 N 1698.34 1.46926 0.570122 0
M  V30 17604 C 1699.58 1.52585 1.32523 0
M  V30 17605 C 1699.91 0.184291 1.94127 0
M  V30 17606 O 1699.18 -0.790478 1.79244 0
M  V30 17607 H 1697.76 0.562019 0.492081 0
M  V30 17608 H 1700.42 1.83141 0.666746 0
M  V30 17609 H 1699.51 2.28541 2.12545 0
M  V30 17610 N 1699.82 -0.815801 1.34842 0
M  V30 17611 C 1700.75 -1.94193 1.29659 0
M  V30 17612 C 1701.73 -1.69221 0.172703 0
M  V30 17613 O 1702.91 -1.90716 0.366203 0
M  V30 17614 C 1700.04 -3.30777 1.0585 0
M  V30 17615 C 1699 -3.70207 2.1478 0
M  V30 17616 C 1698.32 -5.04852 1.76149 0
M  V30 17617 C 1699.62 -3.81553 3.56671 0
M  V30 17618 H 1701.32 -1.98787 2.23884 0
M  V30 17619 H 1698.86 -0.955013 1.07775 0
M  V30 17620 H 1700.81 -4.0915 1.00866 0
M  V30 17621 H 1699.54 -3.265 0.0806804 0
M  V30 17622 H 1698.2 -2.94113 2.18845 0
M  V30 17623 H 1697.85 -4.9707 0.770099 0
M  V30 17624 H 1697.55 -5.32205 2.49062 0
M  V30 17625 H 1699.07 -5.85676 1.72674 0
M  V30 17626 H 1700.48 -4.50181 3.54979 0
M  V30 17627 H 1698.88 -4.20367 4.28266 0
M  V30 17628 H 1699.95 -2.83356 3.93494 0
M  V30 17629 N 1701.29 -1.18689 -1.03686 0
M  V30 17630 C 1702.2 -0.932473 -2.15272 0
M  V30 17631 C 1703.22 0.104751 -1.73684 0
M  V30 17632 O 1704.4 -0.0780471 -2.01249 0
M  V30 17633 C 1701.46 -0.465807 -3.43557 0
M  V30 17634 C 1700.52 -1.57146 -3.99504 0
M  V30 17635 C 1699.75 -1.12696 -5.21666 0
M  V30 17636 O 1699.98 0.0127657 -5.70399 0
M  V30 17637 O 1698.91 -1.92627 -5.70244 0
M  V30 17638 H 1702.74 -1.86626 -2.39592 0
M  V30 17639 H 1700.32 -0.969029 -1.13711 0
M  V30 17640 H 1702.2 -0.213819 -4.20857 0
M  V30 17641 H 1700.88 0.43964 -3.20701 0
M  V30 17642 H 1699.79 -1.8775 -3.23575 0
M  V30 17643 H 1701.12 -2.45317 -4.26709 0
M  V30 17644 N 1702.77 1.22662 -0.989529 0
M  V30 17645 C 1703.68 2.28162 -0.545835 0
M  V30 17646 C 1704.7 1.69251 0.403762 0
M  V30 17647 O 1705.87 1.99563 0.271428 0
M  V30 17648 C 1702.94 3.46434 0.135808 0
M  V30 17649 C 1702 4.20673 -0.85633 0
M  V30 17650 C 1701.23 5.33298 -0.207121 0
M  V30 17651 O 1701.46 5.6157 0.99975 0
M  V30 17652 O 1700.39 5.94977 -0.910288 0
M  V30 17653 H 1704.22 2.68276 -1.42344 0
M  V30 17654 H 1701.8 1.28766 -0.757609 0
M  V30 17655 H 1703.68 4.18207 0.517776 0
M  V30 17656 H 1702.36 3.08252 0.988035 0
M  V30 17657 H 1701.26 3.51186 -1.28917 0
M  V30 17658 H 1702.6 4.62726 -1.67765 0
M  V30 17659 N 1704.25 0.762308 1.37937 0
M  V30 17660 C 1705.16 0.142724 2.34165 0
M  V30 17661 C 1706.18 -0.690588 1.59709 0
M  V30 17662 O 1707.35 -0.61271 1.91854 0
M  V30 17663 C 1704.42 -0.733325 3.38856 0
M  V30 17664 C 1703.48 0.115359 4.29145 0
M  V30 17665 C 1702.71 -0.718972 5.28835 0
M  V30 17666 O 1702.93 -1.95656 5.35794 0
M  V30 17667 O 1701.87 -0.133162 6.01753 0
M  V30 17668 H 1705.69 0.937662 2.88863 0
M  V30 17669 H 1703.28 0.523325 1.39935 0
M  V30 17670 H 1705.16 -1.23374 4.02935 0
M  V30 17671 H 1703.84 -1.50661 2.86501 0
M  V30 17672 H 1702.74 0.661926 3.68197 0
M  V30 17673 H 1704.08 0.851505 4.84779 0
M  V30 17674 N 1705.73 -1.49049 0.51208 0
M  V30 17675 C 1707 -1.95383 -0.0920331 0
M  V30 17676 C 1707.38 -1.4539 -1.53053 0
M  V30 17677 O 1706.73 -0.672485 -2.1838 0
M  V30 17678 C 1706.94 -3.48999 0.00673901 0
M  V30 17679 C 1708.29 -4.24292 -0.161602 0
M  V30 17680 O 1709.31 -3.56135 -0.0679198 0
M  V30 17681 O 1708.17 -5.45343 -0.355351 0
M  V30 17682 H 1705.27 -0.822175 -0.0891992 0
M  V30 17683 H 1707.81 -1.59647 0.575406 0
M  V30 17684 H 1706.59 -3.78055 1.00948 0
M  V30 17685 H 1706.21 -3.91383 -0.700353 0
M  V30 17686 N 1707.21 -0.246397 -1.55662 0
M  V30 17687 C 1708.45 0.379047 -1.99226 0
M  V30 17688 C 1708.78 1.57627 -1.13434 0
M  V30 17689 O 1708.06 1.93493 -0.197627 0
M  V30 17690 C 1708.34 0.789403 -3.51341 0
M  V30 17691 C 1708.2 -0.413176 -4.47898 0
M  V30 17692 C 1709.51 1.63656 -4.0854 0
M  V30 17693 H 1706.63 0.136302 -0.724286 0
M  V30 17694 H 1709.28 -0.347607 -1.86793 0
M  V30 17695 H 1707.43 1.40854 -3.62067 0
M  V30 17696 H 1709.1 -1.0516 -4.49154 0
M  V30 17697 H 1707.34 -1.05636 -4.20741 0
M  V30 17698 H 1708.01 -0.0827267 -5.51938 0
M  V30 17699 H 1710.49 1.11393 -4.00912 0
M  V30 17700 H 1709.36 1.89254 -5.15242 0
M  V30 17701 H 1709.62 2.60823 -3.56965 0
M  V30 17702 N 1708.68 1.57577 0.026722 0
M  V30 17703 C 1709.63 2.07803 1.04502 0
M  V30 17704 C 1710.63 0.992308 1.37294 0
M  V30 17705 O 1711.83 1.17717 1.36171 0
M  V30 17706 H 1708.21 0.663176 0.354545 0
M  V30 17707 H 1710.18 2.92395 0.595626 0
M  V30 17708 C 1708.93 2.57478 2.33667 0
M  V30 17709 H 1708.25 3.40639 2.09296 0
M  V30 17710 H 1709.69 2.96328 3.03258 0
M  V30 17711 C 1708.15 1.47704 3.02796 0
M  V30 17712 O 1708.68 0.844611 3.9272 0
M  V30 17713 N 1706.88 1.211 2.64165 0
M  V30 17714 H 1706.43 1.72713 1.91123 0
M  V30 17715 H 1706.39 0.47866 3.10735 0
M  V30 17716 N 1710.16 -0.299034 1.54737 0
M  V30 17717 C 1711.41 -1.03195 1.73767 0
M  V30 17718 C 1711.73 -1.87731 0.527445 0
M  V30 17719 O 1711 -1.90465 -0.458242 0
M  V30 17720 H 1709.58 -0.383996 0.640747 0
M  V30 17721 H 1712.24 -0.329544 1.92094 0
M  V30 17722 H 1711.34 -1.68393 2.62774 0
M  V30 17723 N 1711.64 -1.47227 -0.562322 0
M  V30 17724 C 1712.87 -1.56968 -1.34331 0
M  V30 17725 C 1713.28 -0.217012 -1.87951 0
M  V30 17726 O 1712.62 0.79911 -1.65408 0
M  V30 17727 C 1712.68 -2.53072 -2.55332 0
M  V30 17728 C 1712.35 -3.98879 -2.23035 0
M  V30 17729 C 1713.34 -4.87511 -1.80636 0
M  V30 17730 C 1711.03 -4.44174 -2.34551 0
M  V30 17731 C 1713.02 -6.19456 -1.50176 0
M  V30 17732 C 1710.71 -5.76149 -2.03704 0
M  V30 17733 C 1711.71 -6.63611 -1.61584 0
M  V30 17734 O 1711.4 -7.93134 -1.31125 0
M  V30 17735 H 1711.13 -0.532854 -0.415984 0
M  V30 17736 H 1713.68 -1.93515 -0.688552 0
M  V30 17737 H 1711.91 -2.11582 -3.23682 0
M  V30 17738 H 1713.6 -2.52996 -3.17408 0
M  V30 17739 H 1714.37 -4.53766 -1.71236 0
M  V30 17740 H 1710.25 -3.76308 -2.66295 0
M  V30 17741 H 1713.79 -6.8768 -1.17227 0
M  V30 17742 H 1709.69 -6.09438 -2.12735 0
M  V30 17743 H 1710.45 -8.0559 -1.44799 0
M  V30 17744 N 1713.12 0.808639 -1.35273 0
M  V30 17745 C 1714.36 1.56794 -1.28621 0
M  V30 17746 C 1714.7 1.93697 0.139686 0
M  V30 17747 O 1713.97 1.61185 1.08856 0
M  V30 17748 C 1714.25 2.85794 -2.19075 0
M  V30 17749 C 1714.11 2.5538 -3.70271 0
M  V30 17750 C 1715.43 3.87481 -2.08678 0
M  V30 17751 H 1712.55 0.568873 -0.468564 0
M  V30 17752 H 1715.19 0.930499 -1.65655 0
M  V30 17753 H 1713.34 3.40191 -1.87622 0
M  V30 17754 H 1715.01 2.07182 -4.12157 0
M  V30 17755 H 1713.25 1.88605 -3.90654 0
M  V30 17756 H 1713.92 3.47432 -4.28947 0
M  V30 17757 H 1716.4 3.42478 -2.36323 0
M  V30 17758 H 1715.28 4.75523 -2.7417 0
M  V30 17759 H 1715.54 4.29004 -1.06809 0
M  V30 17760 N 1714.6 1.19237 1.03055 0
M  V30 17761 C 1715.53 0.871947 2.10885 0
M  V30 17762 C 1716.51 -0.170311 1.61706 0
M  V30 17763 O 1717.69 -0.0469972 1.88441 0
M  V30 17764 C 1714.82 0.304639 3.37327 0
M  V30 17765 C 1713.86 1.32569 4.05374 0
M  V30 17766 S 1714.7 2.88551 4.51108 0
M  V30 17767 C 1715.85 2.33359 5.8077 0
M  V30 17768 H 1716.09 1.78514 2.37739 0
M  V30 17769 H 1713.62 1.01933 1.1597 0
M  V30 17770 H 1715.58 -0.0161522 4.10497 0
M  V30 17771 H 1714.24 -0.586834 3.08569 0
M  V30 17772 H 1713.43 0.877829 4.96296 0
M  V30 17773 H 1713.03 1.59323 3.38367 0
M  V30 17774 H 1715.33 1.7225 6.55238 0
M  V30 17775 H 1716.27 3.22622 6.30334 0
M  V30 17776 H 1716.68 1.75999 5.36362 0
M  V30 17777 N 1716.07 -1.22136 0.99602 0
M  V30 17778 C 1717.49 -1.72743 0.708295 0
M  V30 17779 C 1717.84 -1.8026 -0.774649 0
M  V30 17780 O 1716.96 -1.45102 -1.60544 0
M  V30 17781 C 1717.56 -3.13729 1.27905 0
M  V30 17782 C 1716.12 -3.61729 1.04064 0
M  V30 17783 C 1715.26 -2.39519 1.39735 0
M  V30 17784 H 1718.21 -1.07439 1.16801 0
M  V30 17785 H 1718.23 -3.74746 0.65919 0
M  V30 17786 H 1717.75 -3.08225 2.35836 0
M  V30 17787 H 1715.85 -3.72594 -0.0219029 0
M  V30 17788 H 1715.96 -4.47689 1.70621 0
M  V30 17789 H 1714.32 -2.41275 0.815986 0
M  V30 17790 H 1715.11 -2.36675 2.48677 0
M  V30 17791 N 1717.55 -0.769612 -1.37531 0
M  V30 17792 C 1718.83 -0.257788 -1.93894 0
M  V30 17793 C 1719.21 1.24679 -1.70348 0
M  V30 17794 O 1718.56 2.02892 -1.05106 0
M  V30 17795 C 1718.77 -0.628857 -3.43288 0
M  V30 17796 C 1720.12 -0.597452 -4.20376 0
M  V30 17797 O 1721.14 -0.568117 -3.5164 0
M  V30 17798 O 1720 -0.622627 -5.42942 0
M  V30 17799 H 1717.09 -0.0588144 -0.824906 0
M  V30 17800 H 1719.64 -0.85082 -1.4683 0
M  V30 17801 H 1718.41 -1.66733 -3.54 0
M  V30 17802 H 1718.03 -0.00865929 -3.97599 0
M  V30 17803 N 1719.03 1.48775 -0.519977 0
M  V30 17804 C 1720.26 2.06895 0.0139983 0
M  V30 17805 C 1720.67 1.37786 1.29075 0
M  V30 17806 O 1720.03 0.462168 1.76551 0
M  V30 17807 C 1720.08 3.60621 0.251999 0
M  V30 17808 O 1719.8 4.27132 -0.974158 0
M  V30 17809 C 1721.3 4.35508 0.827483 0
M  V30 17810 H 1718.52 0.670373 -0.0290011 0
M  V30 17811 H 1721.07 1.91302 -0.722762 0
M  V30 17812 H 1719.22 3.75853 0.938783 0
M  V30 17813 H 1719.64 5.19129 -0.748697 0
M  V30 17814 H 1721.11 5.43877 0.943492 0
M  V30 17815 H 1721.59 3.99261 1.82996 0
M  V30 17816 H 1722.19 4.24929 0.177578 0
M  V30 17817 N 1720.51 0.254649 1.55529 0
M  V30 17818 C 1721.46 -0.655705 2.18368 0
M  V30 17819 C 1722.44 -1.13353 1.14192 0
M  V30 17820 O 1723.63 -1.08201 1.40077 0
M  V30 17821 C 1720.76 -1.84883 2.89263 0
M  V30 17822 C 1719.85 -1.38914 4.00704 0
M  V30 17823 N 1720.24 -0.6442 5.01681 0
M  V30 17824 C 1718.54 -1.67379 4.13401 0
M  V30 17825 C 1719.24 -0.405172 5.80287 0
M  V30 17826 N 1718.22 -0.971651 5.34846 0
M  V30 17827 H 1722.02 -0.0784898 2.93795 0
M  V30 17828 H 1719.53 0.0573 1.62299 0
M  V30 17829 H 1721.53 -2.51209 3.32716 0
M  V30 17830 H 1720.19 -2.43019 2.15341 0
M  V30 17831 H 1721.2 -0.293541 5.17067 0
M  V30 17832 H 1717.88 -2.26599 3.50656 0
M  V30 17833 H 1719.27 0.190059 6.71631 0
M  V30 17834 N 1721.99 -1.57589 -0.0183649 0
M  V30 17835 C 1722.92 -2.1029 -1.01492 0
M  V30 17836 C 1723.9 -1.00782 -1.37029 0
M  V30 17837 O 1725.08 -1.28365 -1.45726 0
M  V30 17838 C 1722.21 -2.59111 -2.31255 0
M  V30 17839 C 1721.17 -3.72979 -2.0993 0
M  V30 17840 C 1720.49 -4.08046 -3.45547 0
M  V30 17841 C 1721.79 -5.00988 -1.47677 0
M  V30 17842 H 1723.49 -2.93804 -0.57618 0
M  V30 17843 H 1721.03 -1.41336 -0.275708 0
M  V30 17844 H 1722.99 -2.94602 -3.0131 0
M  V30 17845 H 1721.71 -1.72694 -2.77208 0
M  V30 17846 H 1720.37 -3.37853 -1.42306 0
M  V30 17847 H 1720.02 -3.1868 -3.89169 0
M  V30 17848 H 1719.72 -4.8475 -3.32101 0
M  V30 17849 H 1721.24 -4.46081 -4.16947 0
M  V30 17850 H 1722.65 -5.34368 -2.07663 0
M  V30 17851 H 1721.05 -5.82375 -1.44774 0
M  V30 17852 H 1722.12 -4.82865 -0.443804 0
M  V30 17853 N 1723.46 0.290824 -1.54893 0
M  V30 17854 C 1724.41 1.35899 -1.86548 0
M  V30 17855 C 1725.38 1.49909 -0.71529 0
M  V30 17856 O 1726.57 1.64604 -0.964886 0
M  V30 17857 C 1723.71 2.71735 -2.1273 0
M  V30 17858 C 1722.82 2.66092 -3.40322 0
M  V30 17859 C 1721.95 3.93989 -3.56295 0
M  V30 17860 C 1720.99 3.82785 -4.77642 0
M  V30 17861 N 1720.13 5.02479 -4.90367 0
M  V30 17862 H 1724.97 1.08205 -2.77661 0
M  V30 17863 H 1722.51 0.523144 -1.37483 0
M  V30 17864 H 1724.47 3.50745 -2.25907 0
M  V30 17865 H 1723.1 2.97669 -1.24871 0
M  V30 17866 H 1722.15 1.78891 -3.35712 0
M  V30 17867 H 1723.46 2.53706 -4.29458 0
M  V30 17868 H 1722.61 4.81438 -3.69192 0
M  V30 17869 H 1721.35 4.09221 -2.6531 0
M  V30 17870 H 1720.36 2.9372 -4.64767 0
M  V30 17871 H 1721.58 3.69088 -5.70044 0
M  V30 17872 H 1719.53 5.18155 -4.02308 0
M  V30 17873 H 1719.45 4.92555 -5.7352 0
M  V30 17874 H 1720.71 5.9155 -5.07631 0
M  V30 17875 N 1724.94 1.47523 0.554506 0
M  V30 17876 C 1726.19 1.53982 1.30897 0
M  V30 17877 C 1726.51 0.20487 1.93921 0
M  V30 17878 O 1725.78 -0.771422 1.80072 0
M  V30 17879 H 1724.36 0.567206 0.486092 0
M  V30 17880 H 1727.02 1.83838 0.647284 0
M  V30 17881 H 1726.12 2.30783 2.10109 0
M  V30 17882 N 1726.42 -0.801453 1.357 0
M  V30 17883 C 1727.65 -1.59001 1.32386 0
M  V30 17884 C 1728.06 -1.88548 -0.0975432 0
M  V30 17885 O 1727.42 -1.49199 -1.05099 0
M  V30 17886 C 1727.47 -2.91822 2.13359 0
M  V30 17887 O 1727.19 -2.63554 3.49958 0
M  V30 17888 C 1728.69 -3.86169 2.17689 0
M  V30 17889 H 1725.91 -0.493557 0.45458 0
M  V30 17890 H 1728.46 -0.995616 1.78627 0
M  V30 17891 H 1726.61 -3.47763 1.70704 0
M  V30 17892 H 1727.03 -3.48397 3.92071 0
M  V30 17893 H 1728.5 -4.76461 2.78727 0
M  V30 17894 H 1728.98 -4.23134 1.17704 0
M  V30 17895 H 1729.58 -3.36163 2.60527 0
M  V30 17896 N 1727.9 -1.19782 -1.02421 0
M  V30 17897 C 1729.31 -1.00493 -1.57347 0
M  V30 17898 C 1729.66 0.440854 -1.91183 0
M  V30 17899 O 1728.79 1.32102 -1.714 0
M  V30 17900 C 1729.38 -1.8179 -2.85898 0
M  V30 17901 C 1727.94 -1.66889 -3.3738 0
M  V30 17902 C 1727.09 -1.80199 -2.10769 0
M  V30 17903 H 1730.04 -1.34085 -0.848938 0
M  V30 17904 H 1730.06 -1.31676 -3.5699 0
M  V30 17905 H 1729.57 -2.87011 -2.6124 0
M  V30 17906 H 1727.67 -0.64274 -3.67014 0
M  V30 17907 H 1727.78 -2.47705 -4.10096 0
M  V30 17908 H 1726.15 -1.23308 -2.22862 0
M  V30 17909 H 1726.93 -2.86889 -1.88546 0
M  V30 17910 N 1729.38 1.21606 -1.00248 0
M  V30 17911 C 1730.6 1.95149 -0.702249 0
M  V30 17912 C 1731.03 1.73429 0.728293 0
M  V30 17913 O 1730.39 1.01953 1.49917 0
M  V30 17914 C 1730.43 3.45705 -1.0257 0
M  V30 17915 O 1729.54 4.12196 -0.129575 0
M  V30 17916 H 1728.88 0.610173 -0.261888 0
M  V30 17917 H 1731.41 1.54435 -1.34205 0
M  V30 17918 H 1731.42 3.96265 -0.97151 0
M  V30 17919 H 1730.09 3.60838 -2.06806 0
M  V30 17920 H 1728.67 3.72126 -0.240074 0
M  V30 17921 N 1730.86 0.776895 1.37121 0
M  V30 17922 C 1732.08 0.353911 2.04358 0
M  V30 17923 C 1732.51 -1.01745 1.58207 0
M  V30 17924 O 1731.86 -1.653 0.744691 0
M  V30 17925 C 1731.91 0.411918 3.5824 0
M  V30 17926 O 1731.02 -0.58576 4.08219 0
M  V30 17927 H 1730.36 0.152335 0.64629 0
M  V30 17928 H 1732.89 1.05452 1.75331 0
M  V30 17929 H 1732.9 0.271043 4.07099 0
M  V30 17930 H 1731.57 1.41236 3.91185 0
M  V30 17931 H 1730.15 -0.40758 3.70666 0
M  V30 17932 N 1732.33 -1.48497 0.527859 0
M  V30 17933 C 1733.75 -1.58517 0.185573 0
M  V30 17934 C 1733.95 -1.53012 -1.31109 0
M  V30 17935 O 1733.01 -1.41807 -2.08919 0
M  V30 17936 C 1734.32 -2.9024 0.786219 0
M  V30 17937 C 1735.87 -3.03764 0.75476 0
M  V30 17938 C 1736.34 -4.38144 1.33394 0
M  V30 17939 N 1737.83 -4.44705 1.29582 0
M  V30 17940 C 1738.57 -5.47187 1.71388 0
M  V30 17941 N 1738.06 -6.56635 2.20913 0
M  V30 17942 N 1739.86 -5.38057 1.62638 0
M  V30 17943 H 1732.01 -1.50319 1.5006 0
M  V30 17944 H 1734.27 -0.713625 0.624054 0
M  V30 17945 H 1733.98 -2.99918 1.8369 0
M  V30 17946 H 1733.85 -3.76288 0.262084 0
M  V30 17947 H 1736.24 -2.937 -0.287157 0
M  V30 17948 H 1736.32 -2.19331 1.31634 0
M  V30 17949 H 1735.96 -4.48962 2.37478 0
M  V30 17950 H 1735.89 -5.2126 0.748063 0
M  V30 17951 H 1738.38 -3.66195 0.933246 0
M  V30 17952 H 1738.7 -7.30967 2.50813 0
M  V30 17953 H 1737.04 -6.57604 2.24906 0
M  V30 17954 H 1740.23 -4.51447 1.23746 0
M  V30 17955 H 1740.41 -6.17793 1.9554 0
M  V30 17956 N 1733.81 -0.262893 -1.55392 0
M  V30 17957 C 1734.72 0.640223 -2.25695 0
M  V30 17958 C 1735.74 1.18019 -1.27857 0
M  V30 17959 O 1736.91 1.21308 -1.60768 0
M  V30 17960 C 1733.98 1.81336 -2.95497 0
M  V30 17961 C 1733.04 1.31128 -4.08784 0
M  V30 17962 C 1732.27 2.4285 -4.75247 0
M  V30 17963 O 1732.5 3.61939 -4.40859 0
M  V30 17964 O 1731.43 2.11699 -5.63442 0
M  V30 17965 H 1735.26 0.0710781 -3.03617 0
M  V30 17966 H 1732.84 -0.030765 -1.49368 0
M  V30 17967 H 1734.72 2.49764 -3.39406 0
M  V30 17968 H 1733.4 2.36982 -2.20502 0
M  V30 17969 H 1732.3 0.593816 -3.69357 0
M  V30 17970 H 1733.64 0.800711 -4.85643 0
M  V30 17971 N 1735.29 1.57597 0.0100073 0
M  V30 17972 C 1736.54 1.89754 0.695559 0
M  V30 17973 C 1736.86 0.862983 1.74865 0
M  V30 17974 O 1736.13 -0.100949 1.9564 0
M  V30 17975 H 1734.71 0.700331 0.259895 0
M  V30 17976 H 1737.37 1.94879 -0.0285521 0
M  V30 17977 H 1736.47 2.89213 1.17313 0
M  V30 17978 N 1736.77 -0.282606 1.55045 0
M  V30 17979 C 1738 -1.03395 1.79212 0
M  V30 17980 C 1738.41 -1.80283 0.560652 0
M  V30 17981 O 1737.77 -1.76343 -0.470049 0
M  V30 17982 C 1737.82 -2.0001 3.01128 0
M  V30 17983 O 1737.54 -1.26238 4.19518 0
M  V30 17984 C 1739.04 -2.87035 3.37825 0
M  V30 17985 H 1736.26 -0.305855 0.597238 0
M  V30 17986 H 1738.8 -0.3163 2.02039 0
M  V30 17987 H 1736.96 -2.67251 2.80456 0
M  V30 17988 H 1737.37 -1.91277 4.88378 0
M  V30 17989 H 1738.85 -3.50642 4.26327 0
M  V30 17990 H 1739.32 -3.56303 2.56798 0
M  V30 17991 H 1739.93 -2.25298 3.60723 0
M  V30 17992 N 1738.25 -1.47815 -0.546675 0
M  V30 17993 C 1739.18 -1.63976 -1.66235 0
M  V30 17994 C 1740.16 -0.488945 -1.62921 0
M  V30 17995 O 1741.34 -0.719532 -1.80378 0
M  V30 17996 C 1738.47 -1.6637 -3.04858 0
M  V30 17997 C 1737.43 -2.80785 -3.23023 0
M  V30 17998 C 1736.75 -2.68257 -4.62539 0
M  V30 17999 C 1738.05 -4.22267 -3.07388 0
M  V30 18000 H 1739.75 -2.57375 -1.52965 0
M  V30 18001 H 1737.29 -1.23861 -0.734465 0
M  V30 18002 H 1739.24 -1.76266 -3.82764 0
M  V30 18003 H 1737.97 -0.695386 -3.19111 0
M  V30 18004 H 1736.63 -2.70417 -2.47529 0
M  V30 18005 H 1736.28 -1.69431 -4.73606 0
M  V30 18006 H 1735.98 -3.45022 -4.75641 0
M  V30 18007 H 1737.5 -2.80097 -5.42566 0
M  V30 18008 H 1738.91 -4.33557 -3.75102 0
M  V30 18009 H 1737.31 -4.999 -3.31994 0
M  V30 18010 H 1738.38 -4.39897 -2.04006 0
M  V30 18011 N 1739.72 0.794246 -1.36123 0
M  V30 18012 C 1740.95 1.58813 -1.33391 0
M  V30 18013 C 1741.37 1.87915 0.0834599 0
M  V30 18014 O 1740.73 1.47516 1.05398 0
M  V30 18015 C 1740.78 2.88887 -2.15816 0
M  V30 18016 O 1739.88 3.82271 -1.54734 0
M  V30 18017 H 1739.22 0.481924 -0.456777 0
M  V30 18018 H 1741.75 0.984818 -1.79339 0
M  V30 18019 H 1741.76 3.38201 -2.2822 0
M  V30 18020 H 1740.44 2.67032 -3.18852 0
M  V30 18021 H 1739.02 3.40852 -1.51242 0
M  V30 18022 N 1741.2 1.20323 1.01785 0
M  V30 18023 C 1742.43 1.03893 1.79502 0
M  V30 18024 C 1742.85 -0.407421 1.83635 0
M  V30 18025 O 1742.21 -1.29338 1.27049 0
M  V30 18026 C 1742.26 1.62562 3.21879 0
M  V30 18027 O 1741.36 0.862398 4.03282 0
M  V30 18028 H 1740.7 0.366479 0.553705 0
M  V30 18029 H 1743.23 1.59589 1.28034 0
M  V30 18030 H 1743.24 1.66244 3.72595 0
M  V30 18031 H 1741.92 2.67826 3.18186 0
M  V30 18032 H 1740.49 0.899687 3.61884 0
M  V30 18033 N 1742.68 -1.21073 1.00892 0
M  V30 18034 C 1743.93 -1.90524 0.694879 0
M  V30 18035 C 1744.26 -1.78161 -0.772802 0
M  V30 18036 O 1743.53 -1.1608 -1.56063 0
M  V30 18037 C 1743.82 -3.42188 1.12156 0
M  V30 18038 C 1743.67 -3.63523 2.64898 0
M  V30 18039 C 1744.99 -4.34706 0.68694 0
M  V30 18040 H 1742.11 -0.69188 0.253912 0
M  V30 18041 H 1744.75 -1.42626 1.2553 0
M  V30 18042 H 1742.9 -3.83113 0.644742 0
M  V30 18043 H 1744.57 -3.31901 3.20374 0
M  V30 18044 H 1742.81 -3.07255 3.0623 0
M  V30 18045 H 1743.49 -4.69805 2.89806 0
M  V30 18046 H 1745.96 -4.01386 1.09674 0
M  V30 18047 H 1744.84 -5.3946 1.01361 0
M  V30 18048 H 1745.1 -4.40178 -0.411757 0
M  V30 18049 N 1744.16 -0.784156 -1.36707 0
M  V30 18050 C 1745.41 -0.353434 -1.98986 0
M  V30 18051 C 1745.73 1.07714 -1.62551 0
M  V30 18052 O 1745 1.7416 -0.896938 0
M  V30 18053 H 1743.58 -0.127693 -0.736005 0
M  V30 18054 H 1746.24 -1.00503 -1.66988 0
M  V30 18055 H 1745.34 -0.441028 -3.08968 0
M  V30 18056 N 1745.64 1.48215 -0.535727 0
M  V30 18057 C 1746.57 2.3253 0.212562 0
M  V30 18058 C 1747.55 1.42454 0.929568 0
M  V30 18059 O 1748.73 1.71334 0.914228 0
M  V30 18060 C 1745.86 3.23777 1.25641 0
M  V30 18061 C 1744.82 4.22924 0.657191 0
M  V30 18062 C 1744.14 5.03345 1.80411 0
M  V30 18063 C 1745.44 5.20953 -0.374902 0
M  V30 18064 H 1747.14 2.95341 -0.491301 0
M  V30 18065 H 1744.68 1.42024 -0.237718 0
M  V30 18066 H 1746.64 3.81592 1.78789 0
M  V30 18067 H 1745.36 2.58978 1.98993 0
M  V30 18068 H 1744.02 3.66304 0.147184 0
M  V30 18069 H 1743.67 4.34965 2.52615 0
M  V30 18070 H 1743.37 5.70455 1.40906 0
M  V30 18071 H 1744.89 5.64013 2.33926 0
M  V30 18072 H 1746.3 5.73258 0.0697072 0
M  V30 18073 H 1744.7 5.96147 -0.687646 0
M  V30 18074 H 1745.77 4.67739 -1.27861 0
M  V30 18075 N 1747.11 0.27113 1.5525 0
M  V30 18076 C 1748.34 -0.353138 2.04371 0
M  V30 18077 C 1748.76 -1.48978 1.14835 0
M  V30 18078 O 1748.12 -1.8071 0.146138 0
M  V30 18079 C 1748.17 -0.815425 3.51259 0
M  V30 18080 O 1747.27 -1.92302 3.6482 0
M  V30 18081 H 1746.62 -0.0736207 0.659906 0
M  V30 18082 H 1749.15 0.404266 2.00566 0
M  V30 18083 H 1749.16 -1.11224 3.92547 0
M  V30 18084 H 1747.83 0.0162079 4.15897 0
M  V30 18085 H 1746.41 -1.62904 3.35435 0
M  V30 18086 N 1748.59 -1.576 -0.00164943 0
M  V30 18087 C 1749.82 -1.95176 -0.701511 0
M  V30 18088 C 1750.24 -0.873191 -1.66604 0
M  V30 18089 O 1749.6 0.168818 -1.80512 0
M  V30 18090 C 1749.65 -3.31847 -1.41104 0
M  V30 18091 O 1748.75 -3.26034 -2.52539 0
M  V30 18092 H 1748.09 -0.637207 -0.186718 0
M  V30 18093 H 1750.62 -2.04536 0.0510494 0
M  V30 18094 H 1750.63 -3.67374 -1.77483 0
M  V30 18095 H 1749.31 -4.09901 -0.70382 0
M  V30 18096 H 1747.89 -3.0218 -2.18499 0
M  V30 18097 N 1750.07 0.274379 -1.55193 0
M  V30 18098 C 1751.32 1.00766 -1.75995 0
M  V30 18099 C 1751.65 1.8599 -0.558679 0
M  V30 18100 O 1750.92 1.8937 0.443784 0
M  V30 18101 C 1751.21 1.89137 -3.0643 0
M  V30 18102 C 1751.06 1.06914 -4.36909 0
M  V30 18103 C 1752.38 2.87869 -3.32896 0
M  V30 18104 H 1749.5 0.364915 -0.640317 0
M  V30 18105 H 1752.14 0.280156 -1.87923 0
M  V30 18106 H 1750.29 2.51166 -2.96391 0
M  V30 18107 H 1751.96 0.469666 -4.58903 0
M  V30 18108 H 1750.21 0.372566 -4.32197 0
M  V30 18109 H 1750.88 1.72063 -5.24498 0
M  V30 18110 H 1753.35 2.35974 -3.42718 0
M  V30 18111 H 1752.23 3.46845 -4.25429 0
M  V30 18112 H 1752.49 3.62921 -2.52469 0
M  V30 18113 N 1751.55 1.48103 0.538828 0
M  V30 18114 C 1752.48 1.64856 1.65363 0
M  V30 18115 C 1753.46 0.497579 1.6266 0
M  V30 18116 O 1754.64 0.729088 1.79994 0
M  V30 18117 C 1751.77 1.67984 3.03971 0
M  V30 18118 C 1750.73 2.82494 3.21529 0
M  V30 18119 C 1750.05 2.70706 4.6111 0
M  V30 18120 C 1751.35 4.23892 3.05145 0
M  V30 18121 H 1753.05 2.58183 1.51598 0
M  V30 18122 H 1750.59 1.24249 0.727886 0
M  V30 18123 H 1752.55 1.78294 3.81824 0
M  V30 18124 H 1751.27 0.712299 3.18738 0
M  V30 18125 H 1749.93 2.71725 2.46091 0
M  V30 18126 H 1749.58 1.7194 4.727 0
M  V30 18127 H 1749.28 3.47539 4.73804 0
M  V30 18128 H 1750.8 2.82971 5.41073 0
M  V30 18129 H 1752.22 4.3554 3.72797 0
M  V30 18130 H 1750.61 5.01654 3.29338 0
M  V30 18131 H 1751.68 4.40973 2.01671 0
M  V30 18132 N 1753.03 -0.787016 1.36542 0
M  V30 18133 C 1754.27 -1.54194 1.30647 0
M  V30 18134 C 1754.6 -1.94671 -0.113195 0
M  V30 18135 O 1753.87 -1.65131 -1.05397 0
M  V30 18136 H 1752.45 -0.571857 0.480613 0
M  V30 18137 H 1755.11 -0.93761 1.70865 0
M  V30 18138 H 1754.2 -2.4484 1.93545 0
M  V30 18139 N 1754.5 -1.20861 -1.01145 0
M  V30 18140 C 1755.73 -1.04769 -1.78413 0
M  V30 18141 C 1756.15 0.402846 -1.84452 0
M  V30 18142 O 1755.5 1.27962 -1.30123 0
M  V30 18143 C 1755.56 -1.63065 -3.22633 0
M  V30 18144 O 1755.28 -3.02443 -3.16954 0
M  V30 18145 C 1756.78 -1.51996 -4.16428 0
M  V30 18146 H 1754 -0.368271 -0.560908 0
M  V30 18147 H 1756.54 -1.6006 -1.27283 0
M  V30 18148 H 1754.7 -1.11882 -3.70892 0
M  V30 18149 H 1755.11 -3.30199 -4.07515 0
M  V30 18150 H 1756.58 -1.97539 -5.15444 0
M  V30 18151 H 1757.06 -0.473305 -4.36642 0
M  V30 18152 H 1757.67 -2.02396 -3.74054 0
M  V30 18153 N 1755.98 1.20536 -1.01532 0
M  V30 18154 C 1756.89 2.26953 -0.594109 0
M  V30 18155 C 1757.91 1.70069 0.367771 0
M  V30 18156 O 1759.08 2.00093 0.229036 0
M  V30 18157 C 1756.15 3.46644 0.0622939 0
M  V30 18158 C 1755.21 4.18762 -0.945368 0
M  V30 18159 C 1754.44 5.32739 -0.320195 0
M  V30 18160 O 1754.67 5.63565 0.880407 0
M  V30 18161 O 1753.6 5.92912 -1.03629 0
M  V30 18162 H 1757.43 2.65196 -1.48003 0
M  V30 18163 H 1755.01 1.2713 -0.784752 0
M  V30 18164 H 1756.89 4.19211 0.428952 0
M  V30 18165 H 1755.57 3.10279 0.922428 0
M  V30 18166 H 1754.48 3.48372 -1.36337 0
M  V30 18167 H 1755.81 4.59064 -1.77543 0
M  V30 18168 N 1757.46 0.791395 1.36289 0
M  V30 18169 C 1758.37 0.192362 2.3381 0
M  V30 18170 C 1759.39 -0.656556 1.61138 0
M  V30 18171 O 1760.56 -0.571877 1.9311 0
M  V30 18172 C 1757.63 -0.661283 3.40335 0
M  V30 18173 C 1756.69 0.206361 4.28804 0
M  V30 18174 C 1755.92 -0.606636 5.30241 0
M  V30 18175 O 1756.14 -1.84247 5.39823 0
M  V30 18176 O 1755.08 -0.00549116 6.019 0
M  V30 18177 H 1758.9 0.998723 2.86809 0
M  V30 18178 H 1756.49 0.552889 1.38793 0
M  V30 18179 H 1758.37 -1.148 4.05461 0
M  V30 18180 H 1757.05 -1.4455 2.89632 0
M  V30 18181 H 1755.95 0.739877 3.66711 0
M  V30 18182 H 1757.29 0.954142 4.82863 0
M  V30 18183 N 1758.94 -1.47929 0.54358 0
M  V30 18184 C 1759.85 -2.33611 -0.215191 0
M  V30 18185 C 1760.87 -1.47343 -0.925526 0
M  V30 18186 O 1762.04 -1.80299 -0.897459 0
M  V30 18187 C 1759.11 -3.23755 -1.24031 0
M  V30 18188 C 1758.17 -4.25904 -0.538874 0
M  V30 18189 C 1757.4 -5.11741 -1.51516 0
M  V30 18190 O 1757.62 -4.9979 -2.74893 0
M  V30 18191 O 1756.56 -5.92722 -1.0471 0
M  V30 18192 H 1760.38 -2.99765 0.487279 0
M  V30 18193 H 1757.97 -1.46267 0.30434 0
M  V30 18194 H 1759.85 -3.79475 -1.8324 0
M  V30 18195 H 1758.53 -2.60245 -1.92495 0
M  V30 18196 H 1757.43 -3.73982 0.0940539 0
M  V30 18197 H 1758.77 -4.9209 0.104063 0
M  V30 18198 N 1760.42 -0.27936 -1.55104 0
M  V30 18199 C 1761.69 0.388213 -1.91709 0
M  V30 18200 C 1762.07 1.7339 -1.20412 0
M  V30 18201 O 1761.42 2.26069 -0.332419 0
M  V30 18202 C 1761.63 0.524298 -3.45039 0
M  V30 18203 C 1762.98 0.805229 -4.16895 0
M  V30 18204 O 1764 0.608944 -3.50956 0
M  V30 18205 O 1762.86 1.18089 -5.33589 0
M  V30 18206 H 1759.96 0.213245 -0.799034 0
M  V30 18207 H 1762.5 -0.325825 -1.66543 0
M  V30 18208 H 1761.28 -0.422562 -3.89012 0
M  V30 18209 H 1760.9 1.28764 -3.76172 0
M  V30 18210 N 1761.9 1.57599 -0.0067085 0
M  V30 18211 C 1762.81 2.1228 0.998709 0
M  V30 18212 C 1763.82 1.06964 1.37239 0
M  V30 18213 O 1765 1.38902 1.45836 0
M  V30 18214 C 1762.06 2.62076 2.26973 0
M  V30 18215 C 1761.12 3.8202 1.95855 0
M  V30 18216 C 1760.36 4.29431 3.16898 0
M  V30 18217 O 1760.58 3.76136 4.2881 0
M  V30 18218 O 1759.51 5.21518 3.00504 0
M  V30 18219 H 1763.34 2.9842 0.563849 0
M  V30 18220 H 1760.92 1.47881 0.212535 0
M  V30 18221 H 1762.81 2.94274 3.01631 0
M  V30 18222 H 1761.48 1.79031 2.69684 0
M  V30 18223 H 1760.39 3.54785 1.18653 0
M  V30 18224 H 1761.72 4.66159 1.57977 0
M  V30 18225 N 1763.37 -0.266145 1.55336 0
M  V30 18226 C 1764.65 -1.01852 1.6699 0
M  V30 18227 C 1765.03 -2.04053 0.54088 0
M  V30 18228 O 1764.38 -2.23859 -0.458193 0
M  V30 18229 C 1764.59 -1.66917 3.06496 0
M  V30 18230 C 1765.94 -2.17824 3.64469 0
M  V30 18231 O 1766.96 -1.76892 3.09173 0
M  V30 18232 O 1765.82 -2.92922 4.61367 0
M  V30 18233 H 1762.91 -0.472871 0.67847 0
M  V30 18234 H 1765.46 -0.261458 1.67674 0
M  V30 18235 H 1764.23 -0.928941 3.80114 0
M  V30 18236 H 1763.85 -2.49292 3.0974 0
M  V30 18237 N 1764.85 -1.48386 -0.530967 0
M  V30 18238 C 1765.76 -1.65516 -1.66257 0
M  V30 18239 C 1766.78 -0.5377 -1.65483 0
M  V30 18240 O 1767.95 -0.808642 -1.84453 0
M  V30 18241 C 1765.02 -1.68999 -3.02722 0
M  V30 18242 C 1764.08 -2.92365 -3.14358 0
M  V30 18243 C 1763.31 -2.95672 -4.44313 0
M  V30 18244 O 1763.54 -2.07417 -5.31352 0
M  V30 18245 O 1762.47 -3.87831 -4.60294 0
M  V30 18246 H 1766.3 -2.61321 -1.54742 0
M  V30 18247 H 1763.88 -1.31776 -0.703946 0
M  V30 18248 H 1765.76 -1.73816 -3.83883 0
M  V30 18249 H 1764.44 -0.763675 -3.14563 0
M  V30 18250 H 1763.34 -2.93081 -2.32496 0
M  V30 18251 H 1764.68 -3.84378 -3.07433 0
M  V30 18252 N 1766.33 0.779763 -1.36958 0
M  V30 18253 C 1767.24 1.92394 -1.34245 0
M  V30 18254 C 1768.26 1.72292 -0.243187 0
M  V30 18255 O 1769.43 1.95665 -0.477211 0
M  V30 18256 C 1766.5 3.27402 -1.14057 0
M  V30 18257 C 1765.56 3.60213 -2.33548 0
M  V30 18258 C 1764.79 4.88779 -2.14314 0
M  V30 18259 O 1765.01 5.59231 -1.12327 0
M  V30 18260 O 1763.95 5.20469 -3.02316 0
M  V30 18261 H 1767.77 1.97633 -2.30596 0
M  V30 18262 H 1765.36 0.921386 -1.17605 0
M  V30 18263 H 1767.24 4.08172 -1.04755 0
M  V30 18264 H 1765.92 3.23033 -0.207744 0
M  V30 18265 H 1764.82 2.7971 -2.48421 0
M  V30 18266 H 1766.16 3.69317 -3.25371 0
M  V30 18267 N 1767.81 1.21396 1.00503 0
M  V30 18268 C 1769.04 1.0556 1.77597 0
M  V30 18269 C 1769.45 -0.397591 1.84975 0
M  V30 18270 O 1768.79 -1.28764 1.31018 0
M  V30 18271 C 1768.85 1.57754 3.23039 0
M  V30 18272 C 1768.51 3.06214 3.39238 0
M  V30 18273 C 1769.51 4.03763 3.27523 0
M  V30 18274 C 1767.2 3.45418 3.6468 0
M  V30 18275 C 1769.19 5.38505 3.41015 0
M  V30 18276 C 1766.88 4.80312 3.77814 0
M  V30 18277 C 1767.88 5.76665 3.65988 0
M  V30 18278 O 1767.56 7.09111 3.78704 0
M  V30 18279 H 1767.3 0.371187 0.564975 0
M  V30 18280 H 1769.85 1.61186 1.27312 0
M  V30 18281 H 1768.08 0.965245 3.74459 0
M  V30 18282 H 1769.77 1.37762 3.81807 0
M  V30 18283 H 1770.53 3.74819 3.07791 0
M  V30 18284 H 1766.41 2.70954 3.72968 0
M  V30 18285 H 1769.96 6.13694 3.317 0
M  V30 18286 H 1765.85 5.08942 3.9705 0
M  V30 18287 H 1766.62 7.16521 3.95651 0
M  V30 18288 N 1769.29 -1.19996 1.0217 0
M  V30 18289 C 1770.2 -2.26634 0.606136 0
M  V30 18290 C 1771.21 -1.70262 -0.358746 0
M  V30 18291 O 1772.39 -2.00212 -0.218422 0
M  V30 18292 C 1769.45 -3.46672 -0.0439096 0
M  V30 18293 C 1768.51 -4.18254 0.967563 0
M  V30 18294 C 1767.75 -5.32561 0.348443 0
M  V30 18295 O 1767.97 -5.64024 -0.850508 0
M  V30 18296 O 1766.9 -5.92354 1.06772 0
M  V30 18297 H 1770.73 -2.64407 1.49407 0
M  V30 18298 H 1768.31 -1.26712 0.791483 0
M  V30 18299 H 1770.2 -4.19433 -0.406714 0
M  V30 18300 H 1768.87 -3.10764 -0.90596 0
M  V30 18301 H 1767.78 -3.47644 1.38183 0
M  V30 18302 H 1769.11 -4.58116 1.79975 0
M  V30 18303 N 1770.76 -0.798611 -1.35867 0
M  V30 18304 C 1771.99 -0.386918 -2.02945 0
M  V30 18305 C 1772.4 1.00438 -1.6034 0
M  V30 18306 O 1771.74 1.65716 -0.792719 0
M  V30 18307 C 1771.81 -0.381754 -3.57467 0
M  V30 18308 C 1771.47 -1.72219 -4.23308 0
M  V30 18309 C 1772.47 -2.67919 -4.45551 0
M  V30 18310 C 1770.15 -2.00402 -4.60591 0
M  V30 18311 C 1772.15 -3.8999 -5.04169 0
M  V30 18312 C 1769.83 -3.22737 -5.18926 0
M  V30 18313 C 1770.83 -4.1735 -5.40655 0
M  V30 18314 O 1770.52 -5.37527 -5.97762 0
M  V30 18315 H 1770.25 -0.156344 -0.657672 0
M  V30 18316 H 1772.81 -1.08128 -1.74635 0
M  V30 18317 H 1771.04 0.369157 -3.84934 0
M  V30 18318 H 1772.72 0.00653107 -4.05899 0
M  V30 18319 H 1773.49 -2.47436 -4.17134 0
M  V30 18320 H 1769.37 -1.27573 -4.42997 0
M  V30 18321 H 1772.91 -4.6385 -5.21046 0
M  V30 18322 H 1768.81 -3.43094 -5.46769 0
M  V30 18323 H 1769.58 -5.38716 -6.16221 0
M  V30 18324 N 1772.24 1.47639 -0.551417 0
M  V30 18325 C 1773.17 2.26857 0.247231 0
M  V30 18326 C 1774.15 1.33688 0.925546 0
M  V30 18327 O 1775.34 1.63061 0.945688 0
M  V30 18328 C 1772.46 3.10554 1.35181 0
M  V30 18329 C 1771.51 4.19257 0.782657 0
M  V30 18330 S 1772.34 5.34246 -0.366249 0
M  V30 18331 C 1773.5 6.21507 0.740284 0
M  V30 18332 H 1773.73 2.94246 -0.425008 0
M  V30 18333 H 1771.26 1.50663 -0.33762 0
M  V30 18334 H 1773.22 3.59348 1.98442 0
M  V30 18335 H 1771.88 2.42537 1.99586 0
M  V30 18336 H 1771.08 4.77527 1.61196 0
M  V30 18337 H 1770.68 3.73315 0.226329 0
M  V30 18338 H 1772.97 6.57505 1.6338 0
M  V30 18339 H 1773.91 7.07831 0.195076 0
M  V30 18340 H 1774.32 5.55017 1.03035 0
M  V30 18341 N 1773.72 0.287581 1.54954 0
M  V30 18342 C 1774.67 -0.610315 2.2445 0
M  V30 18343 C 1775.66 -1.14786 1.24582 0
M  V30 18344 O 1776.87 -1.10005 1.42474 0
M  V30 18345 H 1773.24 -0.215394 0.720493 0
M  V30 18346 H 1775.21 -0.00148121 2.984 0
M  V30 18347 C 1773.96 -1.77719 2.9885 0
M  V30 18348 H 1773.29 -1.37277 3.75493 0
M  V30 18349 H 1774.73 -2.38181 3.50779 0
M  V30 18350 C 1773.19 -2.67321 2.05039 0
M  V30 18351 O 1773.72 -3.68038 1.60968 0
M  V30 18352 N 1771.92 -2.34761 1.71276 0
M  V30 18353 H 1771.47 -1.52905 2.07311 0
M  V30 18354 H 1771.43 -2.94981 1.08781 0
M  V30 18355 N 1775.2 -1.57593 0.0150662 0
M  V30 18356 C 1776.61 -1.5591 -0.341189 0
M  V30 18357 C 1776.81 -1.01927 -1.73819 0
M  V30 18358 O 1775.87 -0.659752 -2.43728 0
M  V30 18359 C 1777.18 -3.00016 -0.202639 0
M  V30 18360 C 1778.73 -3.11777 -0.276457 0
M  V30 18361 C 1779.21 -4.57696 -0.166859 0
M  V30 18362 N 1780.7 -4.62657 -0.224287 0
M  V30 18363 C 1781.43 -5.73168 -0.163053 0
M  V30 18364 N 1780.93 -6.92781 -0.0515442 0
M  V30 18365 N 1782.72 -5.61685 -0.216018 0
M  V30 18366 H 1774.87 -1.91018 0.92876 0
M  V30 18367 H 1777.14 -0.878048 0.3574 0
M  V30 18368 H 1776.84 -3.43409 0.759136 0
M  V30 18369 H 1776.72 -3.64285 -0.978599 0
M  V30 18370 H 1779.1 -2.68305 -1.22868 0
M  V30 18371 H 1779.18 -2.50257 0.529637 0
M  V30 18372 H 1778.83 -5.01846 0.781888 0
M  V30 18373 H 1778.76 -5.17179 -0.991635 0
M  V30 18374 H 1781.25 -3.76617 -0.311188 0
M  V30 18375 H 1781.56 -7.72799 -0.0111287 0
M  V30 18376 H 1779.91 -6.94998 -0.0169584 0
M  V30 18377 H 1783.1 -4.67128 -0.301435 0
M  V30 18378 H 1783.27 -6.4779 -0.164834 0
M  V30 18379 N 1776.68 0.257904 -1.55475 0
M  V30 18380 C 1778.09 0.605871 -1.47653 0
M  V30 18381 C 1778.29 1.88837 -0.703063 0
M  V30 18382 O 1777.35 2.51469 -0.227981 0
M  V30 18383 C 1778.66 0.718813 -2.91982 0
M  V30 18384 C 1780.21 0.81187 -3.02287 0
M  V30 18385 C 1780.68 0.956465 -4.47901 0
M  V30 18386 N 1782.18 1.02161 -4.51793 0
M  V30 18387 C 1782.91 1.15256 -5.61697 0
M  V30 18388 N 1782.41 1.24975 -6.81435 0
M  V30 18389 N 1784.2 1.18485 -5.4947 0
M  V30 18390 H 1776.35 -0.584154 -2.04209 0
M  V30 18391 H 1778.61 -0.200045 -0.926653 0
M  V30 18392 H 1778.32 -0.15335 -3.51366 0
M  V30 18393 H 1778.19 1.59429 -3.41851 0
M  V30 18394 H 1780.58 1.67449 -2.42991 0
M  V30 18395 H 1780.66 -0.0885307 -2.55647 0
M  V30 18396 H 1780.31 0.0984438 -5.07805 0
M  V30 18397 H 1780.24 1.87174 -4.92213 0
M  V30 18398 H 1782.73 0.958295 -3.65548 0
M  V30 18399 H 1783.04 1.34843 -7.60945 0
M  V30 18400 H 1781.38 1.21952 -6.84217 0
M  V30 18401 H 1784.58 1.10534 -4.54863 0
M  V30 18402 H 1784.75 1.28346 -6.35162 0
M  V30 18403 N 1778.15 1.48666 0.52309 0
M  V30 18404 C 1779.57 1.34939 0.852268 0
M  V30 18405 C 1779.77 0.365638 1.98155 0
M  V30 18406 O 1778.83 -0.210671 2.5162 0
M  V30 18407 C 1780.14 2.75136 1.21329 0
M  V30 18408 C 1781.69 2.83675 1.32278 0
M  V30 18409 C 1782.16 4.24589 1.71721 0
M  V30 18410 N 1783.65 4.27295 1.78811 0
M  V30 18411 C 1784.39 5.33274 2.10729 0
M  V30 18412 N 1783.88 6.49523 2.41023 0
M  V30 18413 N 1785.68 5.20673 2.11793 0
M  V30 18414 H 1777.83 2.11237 -0.221919 0
M  V30 18415 H 1780.09 0.947291 -0.0366525 0
M  V30 18416 H 1779.8 3.48717 0.457065 0
M  V30 18417 H 1779.67 3.091 2.16187 0
M  V30 18418 H 1782.06 2.10345 2.06976 0
M  V30 18419 H 1782.14 2.53321 0.355248 0
M  V30 18420 H 1781.78 4.98438 0.975805 0
M  V30 18421 H 1781.71 4.52391 2.69536 0
M  V30 18422 H 1784.2 3.43447 1.57648 0
M  V30 18423 H 1784.52 7.26125 2.64503 0
M  V30 18424 H 1782.86 6.52786 2.38528 0
M  V30 18425 H 1786.05 4.28869 1.87588 0
M  V30 18426 H 1786.23 6.03365 2.36336 0
M  V30 18427 N 1779.63 -0.772489 1.37369 0
M  V30 18428 C 1781.05 -1.07294 1.18153 0
M  V30 18429 C 1781.25 -2.01493 0.0171782 0
M  V30 18430 O 1780.3 -2.44177 -0.642964 0
M  V30 18431 C 1781.62 -1.67116 2.49986 0
M  V30 18432 C 1783.17 -1.79377 2.56501 0
M  V30 18433 C 1783.64 -2.42612 3.88463 0
M  V30 18434 N 1785.13 -2.50063 3.89901 0
M  V30 18435 C 1785.87 -2.99841 4.88756 0
M  V30 18436 N 1785.36 -3.49798 5.98008 0
M  V30 18437 N 1787.16 -2.98709 4.76161 0
M  V30 18438 H 1779.31 -0.147014 2.11891 0
M  V30 18439 H 1781.57 -0.127846 0.93934 0
M  V30 18440 H 1781.28 -1.05369 3.35545 0
M  V30 18441 H 1781.15 -2.6642 2.67021 0
M  V30 18442 H 1783.54 -2.40257 1.71349 0
M  V30 18443 H 1783.62 -0.788304 2.4335 0
M  V30 18444 H 1783.26 -1.82372 4.74029 0
M  V30 18445 H 1783.19 -3.43763 3.98917 0
M  V30 18446 H 1785.68 -2.14709 3.1098 0
M  V30 18447 H 1786 -3.86181 6.69391 0
M  V30 18448 H 1784.34 -3.47905 6.01654 0
M  V30 18449 H 1787.53 -2.5898 3.89932 0
M  V30 18450 H 1787.7 -3.37193 5.53358 0
M  V30 18451 N 1781.11 -1.21927 -0.998575 0
M  V30 18452 C 1782.06 -0.951671 -2.07189 0
M  V30 18453 C 1783.04 0.095548 -1.60616 0
M  V30 18454 O 1784.24 -0.11423 -1.76631 0
M  V30 18455 C 1781.37 -0.525175 -3.39259 0
M  V30 18456 C 1780.45 -1.60681 -3.92482 0
M  V30 18457 N 1780.84 -2.8333 -4.18996 0
M  V30 18458 C 1779.14 -1.47718 -4.20827 0
M  V30 18459 C 1779.84 -3.53231 -4.62172 0
M  V30 18460 N 1778.82 -2.80687 -4.65527 0
M  V30 18461 H 1782.62 -1.88341 -2.25621 0
M  V30 18462 H 1780.13 -1.11596 -1.17984 0
M  V30 18463 H 1782.13 -0.3148 -4.1571 0
M  V30 18464 H 1780.79 0.399723 -3.2223 0
M  V30 18465 H 1781.8 -3.19812 -4.07358 0
M  V30 18466 H 1778.48 -0.618048 -4.129 0
M  V30 18467 H 1779.87 -4.58279 -4.91355 0
M  V30 18468 N 1782.59 1.19452 -1.02805 0
M  V30 18469 C 1783.81 1.93616 -0.743485 0
M  V30 18470 C 1784.24 1.74934 0.691342 0
M  V30 18471 O 1783.6 1.05111 1.47721 0
M  V30 18472 C 1783.64 3.43451 -1.0988 0
M  V30 18473 O 1782.75 4.11829 -0.216978 0
M  V30 18474 H 1782.09 0.60448 -0.274771 0
M  V30 18475 H 1784.62 1.51554 -1.37451 0
M  V30 18476 H 1784.63 3.94115 -1.05535 0
M  V30 18477 H 1783.3 3.5637 -2.14413 0
M  V30 18478 H 1781.88 3.71533 -0.318954 0
M  V30 18479 N 1784.07 0.805805 1.35442 0
M  V30 18480 C 1785.48 0.446863 1.81273 0
M  V30 18481 C 1785.83 -1.03104 1.66925 0
M  V30 18482 O 1784.95 -1.80117 1.19945 0
M  V30 18483 C 1785.55 0.80433 3.29114 0
M  V30 18484 C 1784.11 0.497997 3.73091 0
M  V30 18485 C 1783.25 1.03035 2.57447 0
M  V30 18486 H 1786.21 0.997517 1.23431 0
M  V30 18487 H 1786.23 0.101559 3.80364 0
M  V30 18488 H 1785.74 1.88001 3.39525 0
M  V30 18489 H 1783.84 -0.568982 3.6823 0
M  V30 18490 H 1783.95 1.03008 4.67896 0
M  V30 18491 H 1782.32 0.452716 2.50644 0
M  V30 18492 H 1783.1 2.11213 2.70636 0
M  V30 18493 N 1785.54 -1.47344 0.559239 0
M  V30 18494 C 1786.96 -1.86272 0.126394 0
M  V30 18495 C 1787.31 -1.46563 -1.30437 0
M  V30 18496 O 1786.43 -0.869624 -1.98158 0
M  V30 18497 C 1787.03 -3.38068 0.222602 0
M  V30 18498 C 1785.59 -3.7608 -0.155219 0
M  V30 18499 C 1784.73 -2.71394 0.569244 0
M  V30 18500 H 1787.68 -1.38833 0.768845 0
M  V30 18501 H 1787.7 -3.76382 -0.558262 0
M  V30 18502 H 1787.22 -3.66938 1.26404 0
M  V30 18503 H 1785.32 -3.52826 -1.19768 0
M  V30 18504 H 1785.43 -4.78662 0.204756 0
M  V30 18505 H 1783.79 -2.54697 0.0120996 0
M  V30 18506 H 1784.58 -3.03107 1.61187 0
M  V30 18507 N 1787.02 -0.295795 -1.54799 0
M  V30 18508 C 1787.97 0.597578 -2.2003 0
M  V30 18509 C 1788.96 1.10286 -1.17158 0
M  V30 18510 O 1790.15 1.04449 -1.42896 0
M  V30 18511 C 1787.28 1.77148 -2.94064 0
M  V30 18512 C 1786.36 1.28241 -4.04246 0
M  V30 18513 N 1786.75 0.510962 -5.03213 0
M  V30 18514 C 1785.05 1.5636 -4.17693 0
M  V30 18515 C 1785.75 0.251176 -5.81157 0
M  V30 18516 N 1784.73 0.829504 -5.37234 0
M  V30 18517 H 1788.53 0.000567564 -2.939 0
M  V30 18518 H 1786.05 -0.10031 -1.6209 0
M  V30 18519 H 1788.04 2.42299 -3.39259 0
M  V30 18520 H 1786.7 2.37224 -2.21709 0
M  V30 18521 H 1787.71 0.156346 -5.17664 0
M  V30 18522 H 1784.39 2.17222 -3.5654 0
M  V30 18523 H 1785.78 -0.368063 -6.70891 0
M  V30 18524 N 1788.5 1.57583 -0.0234236 0
M  V30 18525 C 1789.91 1.79422 0.516201 0
M  V30 18526 C 1790.26 0.933151 1.72588 0
M  V30 18527 O 1789.39 0.141985 2.15934 0
M  V30 18528 C 1789.98 3.25405 0.943248 0
M  V30 18529 C 1788.54 3.48259 1.42802 0
M  V30 18530 C 1787.69 2.74543 0.390074 0
M  V30 18531 H 1790.64 1.56727 -0.24949 0
M  V30 18532 H 1790.66 3.34803 1.80795 0
M  V30 18533 H 1790.17 3.88049 0.0626242 0
M  V30 18534 H 1788.27 2.9086 2.32877 0
M  V30 18535 H 1788.39 4.56968 1.43933 0
M  V30 18536 H 1786.75 2.39852 0.856919 0
M  V30 18537 H 1787.53 3.399 -0.481986 0
M  V30 18538 N 1789.98 -0.249655 1.5561 0
M  V30 18539 C 1791.39 -0.818934 1.67781 0
M  V30 18540 C 1791.74 -1.86134 0.620374 0
M  V30 18541 O 1790.87 -2.15133 -0.233869 0
M  V30 18542 C 1791.46 -1.49219 3.0417 0
M  V30 18543 C 1790.02 -2.0092 3.18289 0
M  V30 18544 C 1789.17 -0.859333 2.63649 0
M  V30 18545 H 1792.12 -0.0255186 1.58679 0
M  V30 18546 H 1792.14 -2.36011 2.98461 0
M  V30 18547 H 1791.65 -0.733268 3.8111 0
M  V30 18548 H 1789.75 -2.79701 2.46167 0
M  V30 18549 H 1789.87 -2.20848 4.25163 0
M  V30 18550 H 1788.23 -1.2591 2.21402 0
M  V30 18551 H 1789.01 -0.113545 3.43112 0
M  V30 18552 N 1791.46 -1.48941 -0.515198 0
M  V30 18553 C 1792.87 -1.35389 -0.8451 0
M  V30 18554 C 1793.07 -0.376141 -1.97958 0
M  V30 18555 O 1792.13 0.197324 -2.51728 0
M  V30 18556 C 1793.44 -2.75775 -1.19868 0
M  V30 18557 C 1794.99 -2.84373 -1.30772 0
M  V30 18558 C 1795.47 -4.25494 -1.69466 0
M  V30 18559 N 1796.96 -4.28237 -1.76542 0
M  V30 18560 C 1797.69 -5.34384 -2.07898 0
M  V30 18561 N 1797.19 -6.50792 -2.37575 0
M  V30 18562 N 1798.98 -5.21789 -2.09029 0
M  V30 18563 H 1791.13 -2.11117 0.233118 0
M  V30 18564 H 1793.39 -0.947083 0.0416757 0
M  V30 18565 H 1793.1 -3.48955 -0.438565 0
M  V30 18566 H 1792.97 -3.10243 -2.14545 0
M  V30 18567 H 1795.36 -2.11439 -2.05858 0
M  V30 18568 H 1795.44 -2.53506 -0.341808 0
M  V30 18569 H 1795.09 -4.98949 -0.949358 0
M  V30 18570 H 1795.02 -4.53814 -2.67133 0
M  V30 18571 H 1797.51 -3.44278 -1.55824 0
M  V30 18572 H 1797.82 -7.27518 -2.60649 0
M  V30 18573 H 1796.17 -6.54042 -2.35062 0
M  V30 18574 H 1799.36 -4.29858 -1.85311 0
M  V30 18575 H 1799.53 -6.0461 -2.33133 0
M  V30 18576 N 1792.94 0.765193 -1.37777 0
M  V30 18577 C 1794.35 1.34186 -1.29811 0
M  V30 18578 C 1794.7 1.96133 0.0513426 0
M  V30 18579 O 1793.82 1.94272 0.953273 0
M  V30 18580 C 1794.42 2.43975 -2.35078 0
M  V30 18581 C 1792.98 2.97393 -2.30726 0
M  V30 18582 C 1792.12 1.70667 -2.18559 0
M  V30 18583 H 1795.07 0.564948 -1.48304 0
M  V30 18584 H 1795.1 3.23622 -2.00123 0
M  V30 18585 H 1794.61 1.98859 -3.33282 0
M  V30 18586 H 1792.71 3.46867 -1.36067 0
M  V30 18587 H 1792.82 3.52561 -3.24403 0
M  V30 18588 H 1791.19 1.93846 -1.65215 0
M  V30 18589 H 1791.97 1.27645 -3.18687 0
M  V30 18590 N 1794.41 1.22455 0.992094 0
M  V30 18591 C 1795.64 1.07677 1.77258 0
M  V30 18592 C 1796.06 -0.368377 1.84458 0
M  V30 18593 O 1795.42 -1.26614 1.29763 0
M  V30 18594 C 1795.47 1.69353 3.18358 0
M  V30 18595 O 1794.57 0.947746 4.01362 0
M  V30 18596 H 1793.91 0.378141 0.545807 0
M  V30 18597 H 1796.44 1.62269 1.2462 0
M  V30 18598 H 1796.45 1.7411 3.68985 0
M  V30 18599 H 1795.13 2.74515 3.12433 0
M  V30 18600 H 1793.71 0.976245 3.59894 0
M  V30 18601 N 1795.89 -1.18905 1.03437 0
M  V30 18602 C 1797.12 -1.93219 0.753743 0
M  V30 18603 C 1797.54 -1.75299 -0.682055 0
M  V30 18604 O 1796.9 -1.05892 -1.47161 0
M  V30 18605 C 1796.95 -3.42864 1.117 0
M  V30 18606 O 1796.05 -4.11708 0.238816 0
M  V30 18607 H 1795.39 -0.603015 0.277973 0
M  V30 18608 H 1797.92 -1.50823 1.38252 0
M  V30 18609 H 1797.93 -3.9355 1.07623 0
M  V30 18610 H 1796.61 -3.55228 2.163 0
M  V30 18611 H 1795.18 -3.71359 0.338652 0
M  V30 18612 N 1797.37 -0.812977 -1.35013 0
M  V30 18613 C 1798.3 -0.242397 -2.32238 0
M  V30 18614 C 1799.28 0.635676 -1.57776 0
M  V30 18615 O 1800.47 0.564621 -1.85811 0
M  V30 18616 C 1797.6 0.604686 -3.41995 0
M  V30 18617 C 1796.55 -0.17542 -4.2764 0
M  V30 18618 C 1795.88 0.793772 -5.28775 0
M  V30 18619 C 1797.18 -1.37802 -5.03794 0
M  V30 18620 H 1798.87 -1.0547 -2.80208 0
M  V30 18621 H 1796.42 -0.508619 -1.34718 0
M  V30 18622 H 1798.37 1.01396 -4.09019 0
M  V30 18623 H 1797.09 1.44994 -2.9265 0
M  V30 18624 H 1795.75 -0.565948 -3.62205 0
M  V30 18625 H 1795.4 1.63471 -4.75696 0
M  V30 18626 H 1795.1 0.276085 -5.86951 0
M  V30 18627 H 1796.62 1.20112 -5.9867 0
M  V30 18628 H 1798.04 -1.04328 -5.63727 0
M  V30 18629 H 1796.43 -1.83064 -5.71496 0
M  V30 18630 H 1797.5 -2.16138 -4.34065 0
M  V30 18631 N 1798.85 1.47045 -0.567045 0
M  V30 18632 C 1799.76 2.33924 0.177998 0
M  V30 18633 C 1800.77 1.48797 0.901967 0
M  V30 18634 O 1801.95 1.81704 0.868662 0
M  V30 18635 C 1799.01 3.25687 1.18865 0
M  V30 18636 C 1798.08 4.26708 0.471049 0
M  V30 18637 C 1797.31 5.14087 1.43355 0
M  V30 18638 O 1797.53 5.041 2.66907 0
M  V30 18639 O 1796.47 5.94313 0.952674 0
M  V30 18640 H 1800.29 2.98952 -0.534907 0
M  V30 18641 H 1797.88 1.45765 -0.327571 0
M  V30 18642 H 1799.76 3.82342 1.7718 0
M  V30 18643 H 1798.43 2.63274 1.8833 0
M  V30 18644 H 1797.34 3.73785 -0.153539 0
M  V30 18645 H 1798.67 4.91862 -0.182337 0
M  V30 18646 N 1800.33 0.304 1.5464 0
M  V30 18647 C 1801.24 -0.580159 2.27313 0
M  V30 18648 C 1802.25 -1.14588 1.30941 0
M  V30 18649 O 1803.43 -1.17002 1.63928 0
M  V30 18650 C 1800.49 -1.73437 3.00201 0
M  V30 18651 C 1799.55 -1.20243 4.12116 0
M  V30 18652 C 1798.79 -2.30164 4.81519 0
M  V30 18653 O 1799.01 -3.50123 4.503 0
M  V30 18654 O 1797.94 -1.96686 5.68857 0
M  V30 18655 H 1801.77 0.00944552 3.03699 0
M  V30 18656 H 1799.35 0.0703565 1.49234 0
M  V30 18657 H 1801.24 -2.40677 3.45908 0
M  V30 18658 H 1799.91 -2.31053 2.26708 0
M  V30 18659 H 1798.82 -0.495679 3.70802 0
M  V30 18660 H 1800.15 -0.67167 4.87596 0
M  V30 18661 N 1801.8 -1.57568 0.0317802 0
M  V30 18662 C 1802.73 -2.13412 -0.947499 0
M  V30 18663 C 1803.71 -1.05091 -1.33753 0
M  V30 18664 O 1804.9 -1.32936 -1.41568 0
M  V30 18665 C 1802.03 -2.66337 -2.22895 0
M  V30 18666 C 1800.98 -3.79469 -1.97958 0
M  V30 18667 C 1800.31 -4.18833 -3.3239 0
M  V30 18668 C 1801.61 -5.05432 -1.31664 0
M  V30 18669 H 1803.3 -2.95488 -0.482417 0
M  V30 18670 H 1800.85 -1.42142 -0.230603 0
M  V30 18671 H 1802.8 -3.04039 -2.91784 0
M  V30 18672 H 1801.53 -1.81426 -2.71574 0
M  V30 18673 H 1800.19 -3.42209 -1.31485 0
M  V30 18674 H 1799.83 -3.30899 -3.78833 0
M  V30 18675 H 1799.53 -4.95071 -3.16511 0
M  V30 18676 H 1801.06 -4.5912 -4.02544 0
M  V30 18677 H 1802.47 -5.40704 -1.90558 0
M  V30 18678 H 1800.87 -5.86686 -1.26173 0
M  V30 18679 H 1801.94 -4.84032 -0.28996 0
M  V30 18680 N 1803.28 0.241399 -1.5574 0
M  V30 18681 C 1804.53 0.96675 -1.77478 0
M  V30 18682 C 1804.85 1.85644 -0.596757 0
M  V30 18683 O 1804.12 1.92035 0.387236 0
M  V30 18684 H 1802.7 0.35995 -0.654557 0
M  V30 18685 H 1805.36 0.258023 -1.93185 0
M  V30 18686 H 1804.46 1.58524 -2.68843 0
M  V30 18687 N 1804.76 1.49212 0.507292 0
M  V30 18688 C 1805.99 1.61845 1.28412 0
M  V30 18689 C 1806.4 0.286619 1.87016 0
M  V30 18690 O 1805.74 -0.737169 1.6826 0
M  V30 18691 C 1805.8 2.62374 2.45764 0
M  V30 18692 C 1805.47 4.06882 2.08077 0
M  V30 18693 C 1806.46 4.93879 1.62418 0
M  V30 18694 C 1804.15 4.52574 2.17904 0
M  V30 18695 C 1806.14 6.24603 1.27082 0
M  V30 18696 C 1803.83 5.83313 1.8218 0
M  V30 18697 C 1804.83 6.69151 1.36843 0
M  V30 18698 O 1804.52 7.97454 1.01598 0
M  V30 18699 H 1804.25 0.547926 0.395921 0
M  V30 18700 H 1806.8 1.95937 0.616255 0
M  V30 18701 H 1805.03 2.23449 3.15606 0
M  V30 18702 H 1806.72 2.64603 3.07799 0
M  V30 18703 H 1807.49 4.59808 1.54277 0
M  V30 18704 H 1803.37 3.85932 2.52146 0
M  V30 18705 H 1806.91 6.91557 0.91623 0
M  V30 18706 H 1802.81 6.16913 1.89969 0
M  V30 18707 H 1803.58 8.10409 1.148 0
M  V30 18708 N 1806.24 -0.757876 1.38181 0
M  V30 18709 C 1807.15 -1.90234 1.37289 0
M  V30 18710 C 1808.16 -1.71883 0.270567 0
M  V30 18711 O 1809.34 -1.94881 0.508279 0
M  V30 18712 C 1806.41 -3.25546 1.19251 0
M  V30 18713 C 1805.47 -3.56452 2.39249 0
M  V30 18714 C 1804.7 -4.85308 2.22063 0
M  V30 18715 O 1804.92 -5.57373 1.2121 0
M  V30 18716 O 1803.86 -5.15594 3.10558 0
M  V30 18717 H 1807.68 -1.9394 2.33711 0
M  V30 18718 H 1805.27 -0.902559 1.19056 0
M  V30 18719 H 1807.15 -4.06454 1.11235 0
M  V30 18720 H 1805.82 -3.22661 0.259109 0
M  V30 18721 H 1804.73 -2.75723 2.52839 0
M  V30 18722 H 1806.06 -3.64094 3.31205 0
M  V30 18723 N 1807.72 -1.22979 -0.985586 0
M  V30 18724 C 1808.95 -1.08372 -1.75895 0
M  V30 18725 C 1809.35 0.368113 -1.85584 0
M  V30 18726 O 1808.7 1.26663 -1.3305 0
M  V30 18727 C 1808.76 -1.62873 -3.20488 0
M  V30 18728 C 1808.42 -3.11572 -3.34323 0
M  V30 18729 C 1809.42 -4.08923 -3.21058 0
M  V30 18730 C 1807.11 -3.51176 -3.59139 0
M  V30 18731 C 1809.1 -5.43862 -3.32404 0
M  V30 18732 C 1806.79 -4.86262 -3.70125 0
M  V30 18733 C 1807.78 -5.82414 -3.56767 0
M  V30 18734 O 1807.47 -7.15046 -3.67374 0
M  V30 18735 H 1807.2 -0.380128 -0.558998 0
M  V30 18736 H 1809.76 -1.63191 -1.24731 0
M  V30 18737 H 1807.99 -1.0247 -3.72876 0
M  V30 18738 H 1809.68 -1.43819 -3.79567 0
M  V30 18739 H 1810.44 -3.79669 -3.01789 0
M  V30 18740 H 1806.32 -2.76853 -3.6861 0
M  V30 18741 H 1809.87 -6.18894 -3.21895 0
M  V30 18742 H 1805.76 -5.15194 -3.88903 0
M  V30 18743 H 1806.53 -7.22725 -3.84202 0
M  V30 18744 N 1809.19 1.18355 -1.04066 0
M  V30 18745 C 1810.13 2.20807 -0.576164 0
M  V30 18746 C 1811.11 1.57871 0.389277 0
M  V30 18747 O 1812.29 1.86039 0.303581 0
M  V30 18748 C 1809.42 3.3833 0.158303 0
M  V30 18749 C 1808.46 4.19667 -0.760391 0
M  V30 18750 S 1809.3 4.86249 -2.24326 0
M  V30 18751 C 1810.45 6.07172 -1.51964 0
M  V30 18752 H 1810.68 2.59866 -1.4442 0
M  V30 18753 H 1808.22 1.2879 -0.851623 0
M  V30 18754 H 1810.18 4.0644 0.575896 0
M  V30 18755 H 1808.84 2.97682 1.00222 0
M  V30 18756 H 1808.03 5.03631 -0.192705 0
M  V30 18757 H 1807.63 3.56935 -1.11683 0
M  V30 18758 H 1809.92 6.72608 -0.812694 0
M  V30 18759 H 1810.87 6.68447 -2.33633 0
M  V30 18760 H 1811.27 5.55355 -1.01198 0
M  V30 18761 N 1810.67 0.820125 1.3458 0
M  V30 18762 C 1811.95 0.329573 1.92803 0
M  V30 18763 C 1812.33 -1.18271 1.74858 0
M  V30 18764 O 1811.68 -1.98851 1.12564 0
M  V30 18765 C 1811.89 0.755833 3.40717 0
M  V30 18766 C 1813.24 0.75306 4.17869 0
M  V30 18767 O 1814.26 0.698235 3.49289 0
M  V30 18768 O 1813.12 0.823708 5.40257 0
M  V30 18769 H 1810.21 0.0893898 0.822155 0
M  V30 18770 H 1812.76 0.904729 1.43571 0
M  V30 18771 H 1811.53 1.79757 3.47568 0
M  V30 18772 H 1811.15 0.15622 3.97293 0
M  V30 18773 N 1812.15 -1.46743 0.574835 0
M  V30 18774 C 1813.4 -2.02718 0.0575005 0
M  V30 18775 C 1813.73 -1.4463 -1.29599 0
M  V30 18776 O 1813 -0.608422 -1.84739 0
M  V30 18777 C 1813.29 -3.60096 -0.016719 0
M  V30 18778 C 1813.14 -4.28584 1.36511 0
M  V30 18779 C 1814.46 -4.34149 -0.721324 0
M  V30 18780 H 1811.58 -0.73666 0.0223697 0
M  V30 18781 H 1814.22 -1.74975 0.74052 0
M  V30 18782 H 1812.37 -3.83864 -0.598396 0
M  V30 18783 H 1814.04 -4.16104 1.99135 0
M  V30 18784 H 1812.29 -3.88253 1.935 0
M  V30 18785 H 1812.96 -5.37293 1.26573 0
M  V30 18786 H 1815.43 -4.15479 -0.227256 0
M  V30 18787 H 1814.31 -5.43858 -0.742263 0
M  V30 18788 H 1814.57 -4.04637 -1.78106 0
M  V30 18789 N 1813.63 -0.312197 -1.54477 0
M  V30 18790 C 1814.88 0.293192 -1.99962 0
M  V30 18791 C 1815.2 1.53544 -1.20205 0
M  V30 18792 O 1814.47 1.93575 -0.300901 0
M  V30 18793 H 1813.05 0.111325 -0.738658 0
M  V30 18794 H 1815.71 -0.426116 -1.90185 0
M  V30 18795 H 1814.81 0.557482 -3.07081 0
M  V30 18796 N 1815.11 1.57549 -0.040136 0
M  V30 18797 C 1816.33 1.96967 0.649517 0
M  V30 18798 C 1816.76 0.917056 1.64231 0
M  V30 18799 O 1816.11 -0.120899 1.80896 0
M  V30 18800 C 1816.16 3.35471 1.32256 0
M  V30 18801 O 1815.27 3.32615 2.43806 0
M  V30 18802 H 1814.61 0.641933 0.169758 0
M  V30 18803 H 1817.14 2.04329 -0.105261 0
M  V30 18804 H 1817.15 3.71951 1.6768 0
M  V30 18805 H 1815.82 4.11623 0.594895 0
M  V30 18806 H 1814.4 3.07867 2.10411 0
M  V30 18807 N 1816.58 -0.233136 1.55866 0
M  V30 18808 C 1817.86 -0.982866 1.69113 0
M  V30 18809 C 1818.24 -2.0286 0.584041 0
M  V30 18810 O 1817.59 -2.24781 -0.410606 0
M  V30 18811 C 1817.8 -1.60378 3.09967 0
M  V30 18812 C 1819.15 -2.10044 3.69008 0
M  V30 18813 O 1820.17 -1.70294 3.12855 0
M  V30 18814 O 1819.03 -2.8307 4.67476 0
M  V30 18815 H 1816.12 -0.458373 0.688348 0
M  V30 18816 H 1818.67 -0.225833 1.68191 0
M  V30 18817 H 1817.44 -0.848104 3.81999 0
M  V30 18818 H 1817.07 -2.42666 3.14959 0
M  V30 18819 N 1818.06 -1.49479 -0.499372 0
M  V30 18820 C 1818.99 -1.69182 -1.60934 0
M  V30 18821 C 1819.97 -0.54053 -1.61283 0
M  V30 18822 O 1821.16 -0.776554 -1.77998 0
M  V30 18823 C 1818.29 -1.75985 -2.99411 0
M  V30 18824 C 1817.24 -2.9092 -3.13926 0
M  V30 18825 C 1816.57 -2.82837 -4.5377 0
M  V30 18826 C 1817.87 -4.31833 -2.93799 0
M  V30 18827 H 1819.56 -2.62112 -1.44699 0
M  V30 18828 H 1817.11 -1.26135 -0.694688 0
M  V30 18829 H 1819.06 -1.88354 -3.76962 0
M  V30 18830 H 1817.79 -0.796557 -3.16737 0
M  V30 18831 H 1816.45 -2.78155 -2.388 0
M  V30 18832 H 1816.09 -1.84412 -4.67976 0
M  V30 18833 H 1815.79 -3.59979 -4.64423 0
M  V30 18834 H 1817.32 -2.97217 -5.3338 0
M  V30 18835 H 1818.73 -4.45271 -3.61119 0
M  V30 18836 H 1817.13 -5.10209 -3.15922 0
M  V30 18837 H 1818.2 -4.46165 -1.89908 0
M  V30 18838 N 1819.54 0.750537 -1.38581 0
M  V30 18839 C 1820.77 1.54489 -1.38376 0
M  V30 18840 C 1821.19 1.88085 0.023634 0
M  V30 18841 O 1820.55 1.50794 1.00652 0
M  V30 18842 C 1820.6 2.81875 -2.24897 0
M  V30 18843 O 1819.7 3.77155 -1.66817 0
M  V30 18844 H 1819.04 0.467148 -0.471878 0
M  V30 18845 H 1821.57 0.927264 -1.82381 0
M  V30 18846 H 1821.58 3.30769 -2.38864 0
M  V30 18847 H 1820.26 2.56753 -3.27186 0
M  V30 18848 H 1818.83 3.35868 -1.62009 0
M  V30 18849 N 1821.02 1.235 0.979051 0
M  V30 18850 C 1821.98 1.01854 2.05325 0
M  V30 18851 C 1822.98 -0.0201133 1.60787 0
M  V30 18852 O 1824.17 0.219761 1.72808 0
M  V30 18853 C 1821.3 0.541404 3.36573 0
M  V30 18854 H 1822.5 1.97183 2.25962 0
M  V30 18855 H 1820.05 1.05563 1.15265 0
M  V30 18856 H 1820.79 -0.415607 3.21626 0
M  V30 18857 H 1820.57 1.29092 3.7024 0
M  V30 18858 H 1822.06 0.410635 4.15576 0
M  V30 18859 N 1822.5 -1.17802 1.04693 0
M  V30 18860 C 1823.72 -1.92408 0.774194 0
M  V30 18861 C 1824.15 -1.76012 -0.663424 0
M  V30 18862 O 1823.51 -1.07447 -1.4603 0
M  V30 18863 C 1823.55 -3.4166 1.1533 0
M  V30 18864 O 1822.66 -4.11431 0.282469 0
M  V30 18865 H 1822 -0.600033 0.284353 0
M  V30 18866 H 1824.53 -1.49348 1.39844 0
M  V30 18867 H 1824.54 -3.92386 1.11791 0
M  V30 18868 H 1823.21 -3.52914 2.20056 0
M  V30 18869 H 1821.79 -3.70979 0.378021 0
M  V30 18870 N 1823.98 -0.827251 -1.34143 0
M  V30 18871 C 1824.91 -0.267015 -2.31968 0
M  V30 18872 C 1825.89 0.618906 -1.58441 0
M  V30 18873 O 1827.07 0.544882 -1.86399 0
M  V30 18874 C 1824.2 0.568379 -3.42617 0
M  V30 18875 C 1823.16 -0.220767 -4.2743 0
M  V30 18876 C 1822.48 0.737643 -5.29587 0
M  V30 18877 C 1823.78 -1.43137 -5.02304 0
M  V30 18878 H 1825.48 -1.08436 -2.79073 0
M  V30 18879 H 1823.02 -0.522879 -1.34171 0
M  V30 18880 H 1824.97 0.970525 -4.10072 0
M  V30 18881 H 1823.7 1.41882 -2.94172 0
M  V30 18882 H 1822.36 -0.604333 -3.61585 0
M  V30 18883 H 1822.01 1.58416 -4.77403 0
M  V30 18884 H 1821.71 0.213815 -5.87211 0
M  V30 18885 H 1823.23 1.13755 -5.9991 0
M  V30 18886 H 1824.64 -1.10301 -5.62589 0
M  V30 18887 H 1823.04 -1.89115 -5.69522 0
M  V30 18888 H 1824.11 -2.2073 -4.31748 0
M  V30 18889 N 1825.45 1.46436 -0.582609 0
M  V30 18890 C 1826.7 2.01986 -0.0680147 0
M  V30 18891 C 1827.02 1.45654 1.29653 0
M  V30 18892 O 1826.29 0.641203 1.85109 0
M  V30 18893 H 1824.87 0.746671 -0.022153 0
M  V30 18894 H 1827.53 1.79541 -0.758367 0
M  V30 18895 H 1826.63 3.121 0.00106001 0
M  V30 18896 N 1826.93 0.320385 1.54309 0
M  V30 18897 C 1828.16 -0.28794 2.05391 0
M  V30 18898 C 1828.58 -1.45249 1.19517 0
M  V30 18899 O 1827.94 -1.80154 0.203556 0
M  V30 18900 C 1827.99 -0.703261 3.53676 0
M  V30 18901 O 1827.09 -1.80598 3.70753 0
M  V30 18902 H 1826.43 -0.052589 0.661914 0
M  V30 18903 H 1828.96 0.46787 1.99179 0
M  V30 18904 H 1828.97 -0.986793 3.95887 0
M  V30 18905 H 1827.65 0.148514 4.15635 0
M  V30 18906 H 1826.22 -1.5215 3.40448 0
M  V30 18907 N 1828.41 -1.57525 0.0484906 0
M  V30 18908 C 1829.64 -1.96897 -0.635553 0
M  V30 18909 C 1830.05 -0.925909 -1.64537 0
M  V30 18910 O 1829.41 0.0901742 -1.82277 0
M  V30 18911 C 1829.46 -3.36348 -1.32484 0
M  V30 18912 O 1829.18 -4.36656 -0.355464 0
M  V30 18913 C 1830.68 -3.90463 -2.0989 0
M  V30 18914 H 1827.9 -0.648062 -0.173945 0
M  V30 18915 H 1830.45 -2.04182 0.113997 0
M  V30 18916 H 1828.6 -3.30222 -2.02564 0
M  V30 18917 H 1829.02 -5.17613 -0.847153 0
M  V30 18918 H 1830.49 -4.90326 -2.53543 0
M  V30 18919 H 1830.97 -3.25745 -2.94596 0
M  V30 18920 H 1831.57 -3.99918 -1.44726 0
M  V30 18921 N 1829.89 0.224867 -1.55988 0
M  V30 18922 C 1830.82 1.30204 -1.88626 0
M  V30 18923 C 1831.83 1.4321 -0.774248 0
M  V30 18924 O 1833.02 1.44167 -1.05253 0
M  V30 18925 C 1830.12 2.67806 -2.07685 0
M  V30 18926 C 1829.29 2.76789 -3.38684 0
M  V30 18927 C 1828.35 3.95383 -3.47216 0
M  V30 18928 O 1827.38 3.83876 -4.20271 0
M  V30 18929 N 1828.58 5.09541 -2.78116 0
M  V30 18930 H 1831.35 1.02533 -2.81615 0
M  V30 18931 H 1828.91 0.414916 -1.56493 0
M  V30 18932 H 1830.9 3.45518 -2.10712 0
M  V30 18933 H 1829.47 2.88091 -1.21336 0
M  V30 18934 H 1828.69 1.8558 -3.47784 0
M  V30 18935 H 1829.98 2.79758 -4.24986 0
M  V30 18936 H 1829.38 5.21785 -2.18535 0
M  V30 18937 H 1827.93 5.85307 -2.86808 0
M  V30 18938 N 1831.37 1.49742 0.491438 0
M  V30 18939 C 1832.59 1.63703 1.27343 0
M  V30 18940 C 1833.02 0.312079 1.85493 0
M  V30 18941 O 1832.37 -0.721545 1.66323 0
M  V30 18942 C 1832.42 2.71549 2.37262 0
M  V30 18943 O 1831.53 2.31387 3.41371 0
M  V30 18944 H 1830.87 0.547605 0.375533 0
M  V30 18945 H 1833.4 1.95991 0.587243 0
M  V30 18946 H 1833.41 2.94009 2.82883 0
M  V30 18947 H 1832.08 3.6772 1.94306 0
M  V30 18948 H 1830.66 2.19295 3.01603 0
M  V30 18949 N 1832.84 -0.743177 1.38977 0
M  V30 18950 C 1834.08 -1.51529 1.3718 0
M  V30 18951 C 1834.45 -1.91968 -0.0350605 0
M  V30 18952 O 1835.65 -2.6821 -0.177981 0
M  V30 18953 C 1833.92 -2.72723 2.30991 0
M  V30 18954 S 1835.48 -3.6247 2.47308 0
M  V30 18955 H 1832.3 -0.518415 0.486587 0
M  V30 18956 H 1834.9 -0.871522 1.74999 0
M  V30 18957 H 1833.6 -2.41141 3.32083 0
M  V30 18958 H 1833.13 -3.42036 1.94358 0
M  V30 18959 H 1835.15 -4.65991 1.7049 0
M  V30 18960 N 1834.32 -1.24018 -0.972487 0
M  V30 18961 C 1835.73 -1.07076 -1.52943 0
M  V30 18962 C 1836.08 0.35937 -1.92881 0
M  V30 18963 O 1835.21 1.24713 -1.76849 0
M  V30 18964 C 1835.8 -1.93753 -2.7793 0
M  V30 18965 C 1834.36 -1.81048 -3.29998 0
M  V30 18966 C 1833.51 -1.88977 -2.02936 0
M  V30 18967 H 1836.46 -1.37565 -0.791304 0
M  V30 18968 H 1836.48 -1.46699 -3.51084 0
M  V30 18969 H 1835.99 -2.97833 -2.48832 0
M  V30 18970 H 1834.1 -0.797825 -3.63958 0
M  V30 18971 H 1834.21 -2.64876 -3.99221 0
M  V30 18972 H 1832.57 -1.32649 -2.17431 0
M  V30 18973 H 1833.36 -2.94627 -1.76209 0
M  V30 18974 N 1835.8 1.17245 -1.05316 0
M  V30 18975 C 1836.73 2.23491 -0.67631 0
M  V30 18976 C 1837.71 1.66937 0.326507 0
M  V30 18977 O 1838.9 1.93127 0.203823 0
M  V30 18978 C 1836.03 3.47262 -0.0515755 0
M  V30 18979 C 1834.98 4.16646 -0.97929 0
M  V30 18980 C 1834.31 5.34254 -0.218369 0
M  V30 18981 C 1835.61 4.68736 -2.30399 0
M  V30 18982 H 1837.3 2.55269 -1.56455 0
M  V30 18983 H 1834.85 1.22699 -0.753714 0
M  V30 18984 H 1836.8 4.20805 0.223865 0
M  V30 18985 H 1835.52 3.14755 0.871614 0
M  V30 18986 H 1834.18 3.45017 -1.23931 0
M  V30 18987 H 1833.83 4.97998 0.707624 0
M  V30 18988 H 1833.53 5.81615 -0.83654 0
M  V30 18989 H 1835.05 6.1058 0.0497574 0
M  V30 18990 H 1836.47 5.3391 -2.08837 0
M  V30 18991 H 1834.87 5.2668 -2.87625 0
M  V30 18992 H 1835.94 3.85477 -2.94169 0
M  V30 18993 N 1837.28 0.834353 1.33702 0
M  V30 18994 C 1838.23 0.236483 2.2677 0
M  V30 18995 C 1839.21 -0.605904 1.49056 0
M  V30 18996 O 1840.4 -0.458611 1.70955 0
M  V30 18997 C 1837.53 -0.591264 3.3817 0
M  V30 18998 C 1836.62 0.262381 4.23288 0
M  V30 18999 N 1837.01 1.33892 4.87757 0
M  V30 19000 C 1835.31 0.0486456 4.45973 0
M  V30 19001 C 1836.01 1.86242 5.5108 0
M  V30 19002 N 1834.99 1.16457 5.30979 0
M  V30 19003 H 1838.79 1.05979 2.74127 0
M  V30 19004 H 1836.3 0.678337 1.47555 0
M  V30 19005 H 1838.3 -1.03584 4.03827 0
M  V30 19006 H 1836.96 -1.4126 2.92362 0
M  V30 19007 H 1837.97 1.72179 4.88441 0
M  V30 19008 H 1834.65 -0.739613 4.10897 0
M  V30 19009 H 1836.04 2.76369 6.12429 0
M  V30 19010 N 1838.76 -1.46125 0.590367 0
M  V30 19011 C 1840.17 -1.85962 0.165876 0
M  V30 19012 C 1840.52 -1.49296 -1.27299 0
M  V30 19013 O 1839.64 -0.911461 -1.96269 0
M  V30 19014 C 1840.24 -3.3752 0.294262 0
M  V30 19015 C 1838.8 -3.76324 -0.0754118 0
M  V30 19016 C 1837.94 -2.70126 0.626682 0
M  V30 19017 H 1840.9 -1.3717 0.79812 0
M  V30 19018 H 1840.92 -3.77482 -0.4783 0
M  V30 19019 H 1840.43 -3.64175 1.34159 0
M  V30 19020 H 1838.53 -3.55287 -1.12258 0
M  V30 19021 H 1838.64 -4.7812 0.306241 0
M  V30 19022 H 1837.01 -2.54614 0.0661219 0
M  V30 19023 H 1837.79 -2.99619 1.6758 0
M  V30 19024 N 1840.23 -0.328564 -1.54137 0
M  V30 19025 C 1841.48 0.272909 -2.00955 0
M  V30 19026 C 1841.81 1.51393 -1.2163 0
M  V30 19027 O 1841.09 1.92174 -0.299916 0
M  V30 19028 C 1841.37 0.602055 -3.55031 0
M  V30 19029 C 1841.22 -0.650016 -4.45078 0
M  V30 19030 C 1842.54 1.4177 -4.1664 0
M  V30 19031 H 1839.66 0.0977177 -0.730493 0
M  V30 19032 H 1842.3 -0.446133 -1.84688 0
M  V30 19033 H 1840.45 1.21464 -3.69024 0
M  V30 19034 H 1842.13 -1.28821 -4.42948 0
M  V30 19035 H 1840.37 -1.2779 -4.1455 0
M  V30 19036 H 1841.04 -0.375181 -5.50724 0
M  V30 19037 H 1843.52 0.899849 -4.06254 0
M  V30 19038 H 1842.39 1.61676 -5.24549 0
M  V30 19039 H 1842.65 2.41534 -3.70289 0
M  V30 19040 N 1841.71 1.57497 -0.0568439 0
M  V30 19041 C 1843.12 1.80477 0.478027 0
M  V30 19042 C 1843.47 0.969549 1.7057 0
M  V30 19043 O 1842.6 0.187756 2.15584 0
M  V30 19044 C 1843.19 3.27332 0.874013 0
M  V30 19045 C 1841.75 3.5121 1.35383 0
M  V30 19046 C 1840.9 2.75308 0.331752 0
M  V30 19047 H 1843.85 1.56162 -0.282678 0
M  V30 19048 H 1843.87 3.38563 1.73653 0
M  V30 19049 H 1843.38 3.88095 -0.019701 0
M  V30 19050 H 1841.49 2.95734 2.26655 0
M  V30 19051 H 1841.6 4.59919 1.34208 0
M  V30 19052 H 1839.96 2.41616 0.805851 0
M  V30 19053 H 1840.75 3.38801 -0.553975 0
M  V30 19054 N 1843.19 -0.216591 1.56105 0
M  V30 19055 C 1844.44 -0.938321 1.78545 0
M  V30 19056 C 1844.75 -1.85302 0.62629 0
M  V30 19057 O 1845.96 -2.61377 0.734451 0
M  V30 19058 C 1844.41 -1.71871 3.16209 0
M  V30 19059 C 1844.02 -0.849904 4.39864 0
M  V30 19060 C 1845.77 -2.43136 3.47973 0
M  V30 19061 C 1843.67 -1.62793 5.68553 0
M  V30 19062 H 1842.6 -0.354098 0.66568 0
M  V30 19063 H 1845.25 -0.192079 1.82492 0
M  V30 19064 H 1843.64 -2.50804 3.06453 0
M  V30 19065 H 1844.81 -0.100757 4.6069 0
M  V30 19066 H 1843.13 -0.249139 4.15654 0
M  V30 19067 H 1845.72 -3.01856 4.41347 0
M  V30 19068 H 1846.07 -3.16267 2.70704 0
M  V30 19069 H 1846.6 -1.71189 3.59081 0
M  V30 19070 H 1843.34 -0.939801 6.48728 0
M  V30 19071 H 1842.86 -2.35156 5.5178 0
M  V30 19072 H 1844.54 -2.18733 6.08905 0
M  V30 19073 N 1844.67 -1.5 -0.48349 0
M  V30 19074 C 1845.6 -1.62581 -1.60133 0
M  V30 19075 C 1846.58 -0.474276 -1.55529 0
M  V30 19076 O 1847.76 -0.692152 -1.75333 0
M  V30 19077 C 1844.89 -1.59695 -2.98689 0
M  V30 19078 C 1843.94 -2.8026 -3.21492 0
M  V30 19079 S 1844.77 -4.41722 -3.02724 0
M  V30 19080 C 1845.93 -4.41509 -4.43645 0
M  V30 19081 H 1846.16 -2.5714 -1.49219 0
M  V30 19082 H 1843.69 -1.39109 -0.669933 0
M  V30 19083 H 1845.65 -1.58716 -3.78576 0
M  V30 19084 H 1844.31 -0.66394 -3.07003 0
M  V30 19085 H 1843.5 -2.74509 -4.22683 0
M  V30 19086 H 1843.11 -2.78742 -2.49357 0
M  V30 19087 H 1845.4 -4.14307 -5.36056 0
M  V30 19088 H 1846.34 -5.43037 -4.54441 0
M  V30 19089 H 1846.75 -3.71367 -4.25143 0
M  V30 19090 N 1846.15 0.735796 -1.39369 0
M  V30 19091 C 1847.56 1.31402 -1.32628 0
M  V30 19092 C 1847.91 1.96198 0.00972836 0
M  V30 19093 O 1847.03 1.9625 0.91185 0
M  V30 19094 C 1847.63 2.38934 -2.402 0
M  V30 19095 C 1846.19 2.92432 -2.36982 0
M  V30 19096 C 1845.33 1.65992 -2.2213 0
M  V30 19097 H 1848.29 0.533364 -1.49469 0
M  V30 19098 H 1848.31 3.19304 -2.06942 0
M  V30 19099 H 1847.82 1.91745 -3.37425 0
M  V30 19100 H 1845.92 3.43903 -1.43394 0
M  V30 19101 H 1846.03 3.456 -3.31809 0
M  V30 19102 H 1844.4 1.90298 -1.69289 0
M  V30 19103 H 1845.18 1.20857 -3.21323 0
M  V30 19104 N 1847.63 1.24532 0.965897 0
M  V30 19105 C 1848.85 1.11318 1.74401 0
M  V30 19106 C 1849.27 -0.33411 1.8582 0
M  V30 19107 O 1848.63 -1.23044 1.34783 0
M  V30 19108 C 1848.68 1.74927 3.16358 0
M  V30 19109 O 1848.4 3.13998 3.05511 0
M  V30 19110 C 1849.9 1.67347 4.105 0
M  V30 19111 H 1847.12 0.388835 0.546853 0
M  V30 19112 H 1849.66 1.64674 1.21255 0
M  V30 19113 H 1847.82 1.2557 3.66485 0
M  V30 19114 H 1848.23 3.45097 3.94979 0
M  V30 19115 H 1849.71 2.16533 5.07757 0
M  V30 19116 H 1850.18 0.635036 4.34585 0
M  V30 19117 H 1850.79 2.16139 3.66284 0
M  V30 19118 N 1849.1 -1.16685 1.05936 0
M  V30 19119 C 1850.07 -2.19155 0.671098 0
M  V30 19120 C 1851.07 -1.5832 -0.281305 0
M  V30 19121 O 1852.26 -1.74082 -0.0641708 0
M  V30 19122 C 1849.39 -3.40897 -0.0131101 0
M  V30 19123 H 1850.58 -2.55019 1.57815 0
M  V30 19124 H 1848.13 -1.30897 0.854147 0
M  V30 19125 H 1848.87 -3.10587 -0.933077 0
M  V30 19126 H 1848.65 -3.86304 0.671687 0
M  V30 19127 H 1850.14 -4.16722 -0.270606 0
M  V30 19128 N 1850.58 -0.841432 -1.33258 0
M  V30 19129 C 1851.83 -0.437512 -1.97307 0
M  V30 19130 C 1852.15 1.00723 -1.66973 0
M  V30 19131 O 1851.42 1.70199 -0.969998 0
M  V30 19132 H 1850 -0.158794 -0.729927 0
M  V30 19133 H 1852.66 -1.07495 -1.62575 0
M  V30 19134 H 1851.76 -0.571675 -3.0682 0
M  V30 19135 N 1852.06 1.4581 -0.598108 0
M  V30 19136 C 1853.29 2.06679 -0.0956921 0
M  V30 19137 C 1853.7 1.44435 1.2159 0
M  V30 19138 O 1853.06 0.555104 1.73853 0
M  V30 19139 C 1853.11 3.61449 0.0604873 0
M  V30 19140 O 1852.83 4.21368 -1.1992 0
M  V30 19141 C 1854.33 4.39282 0.595466 0
M  V30 19142 H 1851.55 0.667893 -0.0644954 0
M  V30 19143 H 1854.1 1.87202 -0.823151 0
M  V30 19144 H 1852.25 3.80301 0.738231 0
M  V30 19145 H 1852.67 5.1443 -1.02282 0
M  V30 19146 H 1854.14 5.48114 0.653868 0
M  V30 19147 H 1854.62 4.084 1.61575 0
M  V30 19148 H 1855.22 4.25273 -0.0479171 0
M  V30 19149 N 1853.54 0.336733 1.53961 0
M  V30 19150 C 1854.77 -0.263446 2.05216 0
M  V30 19151 C 1855.18 -1.44752 1.21212 0
M  V30 19152 O 1854.54 -1.80837 0.245844 0
M  V30 19153 C 1854.59 -0.685127 3.54948 0
M  V30 19154 O 1854.31 0.451854 4.35764 0
M  V30 19155 C 1855.81 -1.34674 4.22348 0
M  V30 19156 H 1853.03 -0.0520687 0.668977 0
M  V30 19157 H 1855.57 0.486744 1.98623 0
M  V30 19158 H 1853.73 -1.38527 3.61786 0
M  V30 19159 H 1854.14 0.117076 5.24369 0
M  V30 19160 H 1855.62 -1.59261 5.28526 0
M  V30 19161 H 1856.09 -2.29818 3.74273 0
M  V30 19162 H 1856.7 -0.688817 4.19685 0
M  V30 19163 N 1855.02 -1.57465 0.0651956 0
M  V30 19164 C 1856.43 -1.80728 -0.468449 0
M  V30 19165 C 1856.78 -0.978581 -1.70054 0
M  V30 19166 O 1855.9 -0.199186 -2.15481 0
M  V30 19167 C 1856.5 -3.27791 -0.856641 0
M  V30 19168 C 1855.06 -3.51923 -1.33519 0
M  V30 19169 C 1854.2 -2.7548 -0.317147 0
M  V30 19170 H 1857.15 -1.5601 0.290955 0
M  V30 19171 H 1857.18 -3.39479 -1.71855 0
M  V30 19172 H 1856.69 -3.88079 0.0402823 0
M  V30 19173 H 1854.79 -2.96932 -2.25083 0
M  V30 19174 H 1854.9 -4.60624 -1.31767 0
M  V30 19175 H 1853.27 -2.4204 -0.793026 0
M  V30 19176 H 1854.05 -3.38502 0.571935 0
M  V30 19177 N 1856.49 0.20831 -1.56217 0
M  V30 19178 C 1857.77 0.955838 -1.70655 0
M  V30 19179 C 1858.15 2.01905 -0.61624 0
M  V30 19180 O 1857.5 2.25405 0.374793 0
M  V30 19181 C 1857.71 1.55427 -3.1248 0
M  V30 19182 C 1859.06 2.04147 -3.72303 0
M  V30 19183 O 1860.08 1.65295 -3.15525 0
M  V30 19184 O 1858.94 2.75597 -4.7192 0
M  V30 19185 H 1856.03 0.447364 -0.695553 0
M  V30 19186 H 1858.58 0.199047 -1.68529 0
M  V30 19187 H 1857.35 0.787224 -3.83299 0
M  V30 19188 H 1856.97 2.37625 -3.18779 0
M  V30 19189 N 1857.97 1.50255 0.475528 0
M  V30 19190 C 1858.88 1.71573 1.6 0
M  V30 19191 C 1859.9 0.598748 1.63374 0
M  V30 19192 O 1861.07 0.876544 1.81325 0
M  V30 19193 C 1858.14 1.80117 2.96241 0
M  V30 19194 C 1857.2 3.03831 3.03291 0
M  V30 19195 C 1856.43 3.11958 4.33033 0
M  V30 19196 O 1856.66 2.26995 5.23287 0
M  V30 19197 O 1855.59 4.04647 4.45583 0
M  V30 19198 H 1859.42 2.66884 1.44937 0
M  V30 19199 H 1857 1.34298 0.654553 0
M  V30 19200 H 1858.88 1.87943 3.77167 0
M  V30 19201 H 1857.56 0.879896 3.11512 0
M  V30 19202 H 1856.46 3.01508 2.21458 0
M  V30 19203 H 1857.8 3.95523 2.92955 0
M  V30 19204 N 1859.45 -0.728395 1.39758 0
M  V30 19205 C 1860.73 -1.48036 1.27846 0
M  V30 19206 C 1861.11 -2.10818 -0.108996 0
M  V30 19207 O 1860.45 -1.99125 -1.12078 0
M  V30 19208 C 1860.66 -2.52644 2.40774 0
M  V30 19209 C 1862.01 -3.1884 2.80404 0
M  V30 19210 O 1863.04 -2.6296 2.40272 0
M  V30 19211 O 1861.9 -4.19971 3.49696 0
M  V30 19212 H 1858.99 -0.657688 0.501374 0
M  V30 19213 H 1861.54 -0.761658 1.51647 0
M  V30 19214 H 1860.31 -2.04678 3.335 0
M  V30 19215 H 1859.93 -3.32066 2.18674 0
M  V30 19216 N 1860.93 -1.25042 -0.959279 0
M  V30 19217 C 1862.16 -1.12079 -1.73557 0
M  V30 19218 C 1862.57 0.328665 -1.86323 0
M  V30 19219 O 1861.91 1.23812 -1.35706 0
M  V30 19220 C 1861.97 -1.69634 -3.16961 0
M  V30 19221 C 1861.63 -3.18593 -3.27639 0
M  V30 19222 C 1862.63 -4.15641 -3.12312 0
M  V30 19223 C 1860.32 -3.58715 -3.51609 0
M  V30 19224 C 1862.31 -5.50791 -3.20793 0
M  V30 19225 C 1860 -4.94003 -3.59728 0
M  V30 19226 C 1861 -5.89851 -3.44333 0
M  V30 19227 O 1860.68 -7.22678 -3.52124 0
M  V30 19228 H 1860.42 -0.3919 -0.550809 0
M  V30 19229 H 1862.97 -1.658 -1.21242 0
M  V30 19230 H 1861.2 -1.10356 -3.70619 0
M  V30 19231 H 1862.89 -1.51838 -3.76431 0
M  V30 19232 H 1863.65 -3.85985 -2.93668 0
M  V30 19233 H 1859.53 -2.8461 -3.62654 0
M  V30 19234 H 1863.08 -6.25582 -3.08695 0
M  V30 19235 H 1858.97 -5.23327 -3.77887 0
M  V30 19236 H 1859.74 -7.30712 -3.68785 0
M  V30 19237 N 1862.41 1.16121 -1.06553 0
M  V30 19238 C 1863.32 2.24229 -0.689833 0
M  V30 19239 C 1864.33 1.71476 0.295308 0
M  V30 19240 O 1865.51 2.00885 0.143964 0
M  V30 19241 C 1862.57 3.46596 -0.0847857 0
M  V30 19242 C 1861.63 4.14375 -1.12213 0
M  V30 19243 C 1860.87 5.30901 -0.54586 0
M  V30 19244 O 1861.09 5.66792 0.640588 0
M  V30 19245 O 1860.02 5.87983 -1.28683 0
M  V30 19246 H 1863.85 2.5868 -1.59117 0
M  V30 19247 H 1861.44 1.23687 -0.837966 0
M  V30 19248 H 1863.32 4.20653 0.250764 0
M  V30 19249 H 1861.99 3.13912 0.789998 0
M  V30 19250 H 1860.9 3.42276 -1.5099 0
M  V30 19251 H 1862.23 4.5112 -1.96853 0
M  V30 19252 N 1863.88 0.848487 1.3281 0
M  V30 19253 C 1865.11 0.461973 2.01369 0
M  V30 19254 C 1865.52 -0.944176 1.63957 0
M  V30 19255 O 1864.87 -1.62659 0.853677 0
M  V30 19256 C 1864.93 0.514163 3.55804 0
M  V30 19257 C 1864.59 1.87812 4.16624 0
M  V30 19258 C 1865.59 2.84271 4.353 0
M  V30 19259 C 1863.27 2.17358 4.52836 0
M  V30 19260 C 1865.27 4.08433 4.89348 0
M  V30 19261 C 1862.95 3.41774 5.0659 0
M  V30 19262 C 1863.95 4.37128 5.24793 0
M  V30 19263 O 1863.64 5.59342 5.774 0
M  V30 19264 H 1863.37 0.180645 0.651416 0
M  V30 19265 H 1865.93 1.14535 1.70502 0
M  V30 19266 H 1864.16 -0.226037 3.86039 0
M  V30 19267 H 1865.85 0.14412 4.05644 0
M  V30 19268 H 1866.61 2.62747 4.07663 0
M  V30 19269 H 1862.49 1.43927 4.37957 0
M  V30 19270 H 1866.03 4.82869 5.03471 0
M  V30 19271 H 1861.93 3.63151 5.33659 0
M  V30 19272 H 1862.7 5.61215 5.95802 0
M  V30 19273 N 1865.36 -1.4549 0.605832 0
M  V30 19274 C 1866.3 -2.27618 -0.162864 0
M  V30 19275 C 1867.27 -1.37031 -0.875291 0
M  V30 19276 O 1868.46 -1.66459 -0.884517 0
M  V30 19277 C 1865.58 -3.15357 -1.23561 0
M  V30 19278 C 1864.63 -4.21873 -0.626513 0
M  V30 19279 S 1865.46 -5.32519 0.564279 0
M  V30 19280 C 1866.62 -6.23826 -0.509106 0
M  V30 19281 H 1866.85 -2.92466 0.533923 0
M  V30 19282 H 1864.39 -1.49307 0.393306 0
M  V30 19283 H 1866.34 -3.66465 -1.84969 0
M  V30 19284 H 1865 -2.49778 -1.90446 0
M  V30 19285 H 1864.2 -4.83181 -1.43361 0
M  V30 19286 H 1863.8 -3.73897 -0.0876196 0
M  V30 19287 H 1866.09 -6.63116 -1.38865 0
M  V30 19288 H 1867.03 -7.08068 0.0677653 0
M  V30 19289 H 1867.44 -5.58459 -0.823646 0
M  V30 19290 N 1866.84 -0.344893 -1.5378 0
M  V30 19291 C 1867.79 0.526591 -2.26561 0
M  V30 19292 C 1868.78 1.10083 -1.28756 0
M  V30 19293 O 1869.99 1.04641 -1.46459 0
M  V30 19294 H 1866.36 0.188505 -0.72799 0
M  V30 19295 H 1868.33 -0.109269 -2.982 0
M  V30 19296 C 1867.08 1.66505 -3.0524 0
M  V30 19297 H 1866.41 1.23246 -3.80329 0
M  V30 19298 H 1867.85 2.24998 -3.59377 0
M  V30 19299 C 1866.31 2.59527 -2.14819 0
M  V30 19300 O 1866.84 3.6181 -1.74517 0
M  V30 19301 N 1865.04 2.28243 -1.79871 0
M  V30 19302 H 1864.59 1.45106 -2.12843 0
M  V30 19303 H 1864.55 2.90741 -1.19654 0
M  V30 19304 N 1868.32 1.57428 -0.0735454 0
M  V30 19305 C 1869.73 1.57069 0.283088 0
M  V30 19306 C 1869.93 1.08308 1.69917 0
M  V30 19307 O 1868.99 0.749756 2.41112 0
M  V30 19308 C 1870.3 3.00562 0.0911498 0
M  V30 19309 C 1871.85 3.12588 0.160552 0
M  V30 19310 C 1872.33 4.58 -0.00312732 0
M  V30 19311 N 1873.82 4.6317 0.0524201 0
M  V30 19312 C 1874.55 5.73378 -0.0497867 0
M  V30 19313 N 1874.05 6.92495 -0.205612 0
M  V30 19314 N 1875.84 5.621 0.00740387 0
M  V30 19315 H 1867.99 1.87439 -0.999015 0
M  V30 19316 H 1870.26 0.864179 -0.389742 0
M  V30 19317 H 1869.96 3.40355 -0.886068 0
M  V30 19318 H 1869.84 3.67666 0.842723 0
M  V30 19319 H 1872.22 2.7268 1.12826 0
M  V30 19320 H 1872.3 2.48119 -0.622153 0
M  V30 19321 H 1871.95 4.98598 -0.967606 0
M  V30 19322 H 1871.88 5.20503 0.799004 0
M  V30 19323 H 1874.37 3.77512 0.171195 0
M  V30 19324 H 1874.68 7.72308 -0.275698 0
M  V30 19325 H 1873.03 6.94582 -0.240997 0
M  V30 19326 H 1876.22 4.67925 0.127856 0
M  V30 19327 H 1876.39 6.47956 -0.075703 0
M  V30 19328 N 1869.8 -0.200022 1.56326 0
M  V30 19329 C 1870.73 -1.27187 1.90673 0
M  V30 19330 C 1871.74 -1.41961 0.796933 0
M  V30 19331 O 1872.93 -1.42474 1.07533 0
M  V30 19332 C 1870.03 -2.64468 2.11919 0
M  V30 19333 C 1869.2 -2.71366 3.43044 0
M  V30 19334 C 1868.26 -3.89809 3.53462 0
M  V30 19335 O 1867.29 -3.77142 4.26325 0
M  V30 19336 N 1868.49 -5.05052 2.86187 0
M  V30 19337 H 1871.26 -0.980397 2.83211 0
M  V30 19338 H 1868.82 -0.389967 1.57133 0
M  V30 19339 H 1870.81 -3.42122 2.16182 0
M  V30 19340 H 1869.38 -2.86124 1.25904 0
M  V30 19341 H 1868.6 -1.80024 3.50692 0
M  V30 19342 H 1869.89 -2.72961 4.29383 0
M  V30 19343 H 1869.28 -5.18242 2.26808 0
M  V30 19344 H 1867.84 -5.8067 2.96083 0
M  V30 19345 N 1871.27 -1.50505 -0.467553 0
M  V30 19346 C 1872.69 -1.38009 -0.801599 0
M  V30 19347 C 1872.89 -0.43893 -1.96661 0
M  V30 19348 O 1871.95 0.117139 -2.52228 0
M  V30 19349 C 1873.26 -2.79449 -1.11034 0
M  V30 19350 C 1874.81 -2.88389 -1.21659 0
M  V30 19351 C 1875.28 -4.3067 -1.55844 0
M  V30 19352 N 1876.77 -4.33637 -1.62829 0
M  V30 19353 C 1877.51 -5.40727 -1.90791 0
M  V30 19354 N 1877 -6.58021 -2.16751 0
M  V30 19355 N 1878.8 -5.28175 -1.92323 0
M  V30 19356 H 1870.95 -2.10268 0.300165 0
M  V30 19357 H 1873.21 -0.945278 0.0717853 0
M  V30 19358 H 1872.92 -3.50173 -0.327326 0
M  V30 19359 H 1872.79 -3.16911 -2.04566 0
M  V30 19360 H 1875.18 -2.17881 -1.99027 0
M  V30 19361 H 1875.26 -2.54465 -0.260984 0
M  V30 19362 H 1874.9 -5.01716 -0.79014 0
M  V30 19363 H 1874.83 -4.62083 -2.5256 0
M  V30 19364 H 1877.32 -3.49061 -1.44793 0
M  V30 19365 H 1877.64 -7.35442 -2.37371 0
M  V30 19366 H 1875.98 -6.61189 -2.14136 0
M  V30 19367 H 1879.17 -4.35536 -1.71541 0
M  V30 19368 H 1879.35 -6.11721 -2.13779 0
M  V30 19369 N 1872.75 0.720973 -1.40142 0
M  V30 19370 C 1874.03 1.47356 -1.28629 0
M  V30 19371 C 1874.41 2.10873 0.0978138 0
M  V30 19372 O 1873.76 1.99717 1.1102 0
M  V30 19373 C 1873.97 2.51364 -2.4211 0
M  V30 19374 C 1875.32 3.17348 -2.82091 0
M  V30 19375 O 1876.34 2.61682 -2.41663 0
M  V30 19376 O 1875.2 4.1811 -3.51918 0
M  V30 19377 H 1872.29 0.655019 -0.504855 0
M  V30 19378 H 1874.84 0.753605 -1.52049 0
M  V30 19379 H 1873.61 2.02907 -3.34581 0
M  V30 19380 H 1873.23 3.30901 -2.20432 0
M  V30 19381 N 1874.23 1.25549 0.952634 0
M  V30 19382 C 1875.48 1.10198 1.69413 0
M  V30 19383 C 1875.8 -0.357345 1.91698 0
M  V30 19384 O 1875.07 -1.25345 1.5055 0
M  V30 19385 H 1873.65 0.404804 0.627808 0
M  V30 19386 H 1876.31 1.57703 1.14524 0
M  V30 19387 H 1875.41 1.61185 2.67256 0
M  V30 19388 N 1875.71 -1.15554 1.07168 0
M  V30 19389 C 1876.96 -1.85928 0.792151 0
M  V30 19390 C 1877.28 -1.82621 -0.68372 0
M  V30 19391 O 1876.55 -1.26585 -1.49509 0
M  V30 19392 H 1875.13 -0.688393 0.290043 0
M  V30 19393 H 1877.79 -1.40089 1.35503 0
M  V30 19394 H 1876.89 -2.91119 1.125 0
M  V30 19395 N 1877.19 -0.855519 -1.32358 0
M  V30 19396 C 1878.44 -0.458415 -1.96832 0
M  V30 19397 C 1878.76 0.98946 -1.68032 0
M  V30 19398 O 1878.03 1.69161 -0.987995 0
M  V30 19399 H 1876.61 -0.166527 -0.728202 0
M  V30 19400 H 1879.27 -1.09214 -1.61426 0
M  V30 19401 H 1878.36 -0.604185 -3.06196 0
M  V30 19402 N 1878.67 1.45167 -0.61354 0
M  V30 19403 C 1880.08 1.85674 -0.19544 0
M  V30 19404 C 1880.43 1.51303 1.24908 0
M  V30 19405 O 1879.55 0.94257 1.94794 0
M  V30 19406 C 1880.15 3.37009 -0.347921 0
M  V30 19407 C 1878.71 3.76397 0.0155323 0
M  V30 19408 C 1877.85 2.69095 -0.669578 0
M  V30 19409 H 1880.8 1.35883 -0.819842 0
M  V30 19410 H 1880.83 3.78195 0.418185 0
M  V30 19411 H 1880.34 3.61994 -1.39935 0
M  V30 19412 H 1878.44 3.57028 1.06591 0
M  V30 19413 H 1878.55 4.77573 -0.382267 0
M  V30 19414 H 1876.92 2.54477 -0.10662 0
M  V30 19415 H 1877.7 2.96915 -1.72326 0
M  V30 19416 N 1880.14 0.353044 1.53595 0
M  V30 19417 C 1881.39 -0.240073 2.00669 0
M  V30 19418 C 1881.71 -1.50303 1.24234 0
M  V30 19419 O 1880.98 -1.92709 0.352118 0
M  V30 19420 H 1879.56 -0.0917016 0.74135 0
M  V30 19421 H 1882.22 0.47639 1.88988 0
M  V30 19422 H 1881.32 -0.475869 3.08451 0
M  V30 19423 N 1881.62 -1.57387 0.0818932 0
M  V30 19424 C 1882.87 -1.93486 -0.583744 0
M  V30 19425 C 1883.19 -0.963466 -1.69536 0
M  V30 19426 O 1882.46 -0.0132866 -1.95895 0
M  V30 19427 H 1881.04 -0.714292 -0.218622 0
M  V30 19428 H 1883.7 -1.94381 0.142124 0
M  V30 19429 H 1882.8 -2.9556 -1.00252 0
M  V30 19430 N 1883.1 0.191729 -1.56429 0
M  V30 19431 C 1884.38 0.937684 -1.71659 0
M  V30 19432 C 1884.76 2.0124 -0.63762 0
M  V30 19433 O 1884.1 2.2579 0.350865 0
M  V30 19434 C 1884.31 1.52104 -3.14111 0
M  V30 19435 C 1885.66 2.00186 -3.74447 0
M  V30 19436 O 1886.69 1.61939 -3.1726 0
M  V30 19437 O 1885.55 2.70576 -4.74817 0
M  V30 19438 H 1882.64 0.439962 -0.700259 0
M  V30 19439 H 1885.19 0.181161 -1.6873 0
M  V30 19440 H 1883.96 0.746526 -3.84113 0
M  V30 19441 H 1883.58 2.3423 -3.21282 0
M  V30 19442 N 1884.58 1.50751 0.459565 0
M  V30 19443 C 1885.81 1.65848 1.23198 0
M  V30 19444 C 1886.22 0.345972 1.8601 0
M  V30 19445 O 1885.56 -0.683265 1.7052 0
M  V30 19446 C 1885.62 2.7006 2.37292 0
M  V30 19447 C 1885.28 4.13296 1.95027 0
M  V30 19448 C 1886.28 4.98796 1.46623 0
M  V30 19449 C 1883.97 4.59277 2.03396 0
M  V30 19450 C 1885.96 6.2833 1.07147 0
M  V30 19451 C 1883.65 5.88813 1.6353 0
M  V30 19452 C 1884.65 6.73166 1.15485 0
M  V30 19453 O 1884.33 8.00283 0.761767 0
M  V30 19454 H 1884.07 0.560244 0.378289 0
M  V30 19455 H 1886.62 1.97799 0.553607 0
M  V30 19456 H 1884.85 2.33377 3.08338 0
M  V30 19457 H 1886.54 2.74261 2.99225 0
M  V30 19458 H 1887.3 4.64484 1.3957 0
M  V30 19459 H 1883.18 3.93759 2.3974 0
M  V30 19460 H 1886.73 6.94122 0.695753 0
M  V30 19461 H 1882.62 6.22645 1.70247 0
M  V30 19462 H 1883.39 8.13651 0.889596 0
M  V30 19463 N 1886.06 -0.713531 1.40522 0
M  V30 19464 C 1887.02 -1.80932 1.40699 0
M  V30 19465 C 1888.02 -1.57968 0.30045 0
M  V30 19466 O 1889.21 -1.64972 0.559456 0
M  V30 19467 C 1886.34 -3.19053 1.20075 0
M  V30 19468 H 1887.53 -1.82174 2.38228 0
M  V30 19469 H 1885.09 -0.919374 1.26401 0
M  V30 19470 H 1885.82 -3.23461 0.233137 0
M  V30 19471 H 1885.61 -3.37121 2.00229 0
M  V30 19472 H 1887.1 -3.99078 1.22991 0
M  V30 19473 N 1887.53 -1.26053 -0.945962 0
M  V30 19474 C 1888.5 -1.07262 -2.02553 0
M  V30 19475 C 1889.5 -0.0225237 -1.60784 0
M  V30 19476 O 1890.69 -0.265501 -1.72165 0
M  V30 19477 C 1887.82 -0.63045 -3.3502 0
M  V30 19478 H 1889.01 -2.03105 -2.20655 0
M  V30 19479 H 1886.56 -1.08582 -1.12426 0
M  V30 19480 H 1887.3 0.330188 -3.22615 0
M  V30 19481 H 1887.08 -1.38863 -3.66687 0
M  V30 19482 H 1888.57 -0.520674 -4.14341 0
M  V30 19483 N 1889.01 1.14984 -1.07779 0
M  V30 19484 C 1889.94 2.18862 -0.64612 0
M  V30 19485 C 1890.92 1.5903 0.338854 0
M  V30 19486 O 1892.11 1.86911 0.244241 0
M  V30 19487 C 1889.23 3.38662 0.0505862 0
M  V30 19488 C 1888.28 4.17035 -0.893519 0
M  V30 19489 S 1889.11 4.78866 -2.39682 0
M  V30 19490 C 1890.27 6.0203 -1.71204 0
M  V30 19491 H 1890.5 2.5514 -1.52614 0
M  V30 19492 H 1888.03 1.26015 -0.892165 0
M  V30 19493 H 1889.99 4.08067 0.446298 0
M  V30 19494 H 1888.65 3.00719 0.907009 0
M  V30 19495 H 1887.85 5.02763 -0.352834 0
M  V30 19496 H 1887.45 3.53202 -1.22982 0
M  V30 19497 H 1889.74 6.69682 -1.02627 0
M  V30 19498 H 1890.68 6.60675 -2.54781 0
M  V30 19499 H 1891.09 5.51854 -1.18815 0
M  V30 19500 N 1890.49 0.862526 1.31902 0
M  V30 19501 C 1891.74 0.468847 1.96586 0
M  V30 19502 C 1892.06 -0.980535 1.68554 0
M  V30 19503 O 1891.33 -1.68635 0.996952 0
M  V30 19504 H 1889.91 0.170387 0.727308 0
M  V30 19505 H 1892.57 1.10068 1.60845 0
M  V30 19506 H 1891.67 0.620415 3.05871 0
M  V30 19507 N 1891.97 -1.4484 0.62123 0
M  V30 19508 C 1892.93 -2.29061 -0.0797989 0
M  V30 19509 C 1893.93 -1.40508 -0.781932 0
M  V30 19510 O 1895.12 -1.62485 -0.628023 0
M  V30 19511 C 1892.25 -3.21857 -1.12342 0
M  V30 19512 H 1893.45 -2.92528 0.66084 0
M  V30 19513 H 1891 -1.51588 0.3809 0
M  V30 19514 H 1891.73 -2.63218 -1.89437 0
M  V30 19515 H 1891.52 -3.87103 -0.624003 0
M  V30 19516 H 1893.01 -3.8515 -1.61398 0
M  V30 19517 N 1893.45 -0.361184 -1.53405 0
M  V30 19518 C 1894.69 0.230007 -2.03102 0
M  V30 19519 C 1895.05 1.4635 -1.2428 0
M  V30 19520 O 1896.25 2.13003 -1.63961 0
M  V30 19521 C 1894.52 0.519128 -3.5361 0
M  V30 19522 S 1896.08 1.08462 -4.25184 0
M  V30 19523 H 1892.9 0.0672785 -0.70781 0
M  V30 19524 H 1895.5 -0.503033 -1.88918 0
M  V30 19525 H 1894.21 -0.38616 -4.08579 0
M  V30 19526 H 1893.74 1.28136 -3.71947 0
M  V30 19527 H 1895.75 2.36918 -4.35987 0
M  V30 19528 N 1894.92 1.57341 -0.0902386 0
M  V30 19529 C 1896.34 1.8145 0.439638 0
M  V30 19530 C 1896.69 1.00551 1.68475 0
M  V30 19531 O 1895.81 0.233442 2.15137 0
M  V30 19532 C 1896.41 3.29113 0.804384 0
M  V30 19533 C 1894.97 3.54003 1.27903 0
M  V30 19534 C 1894.11 2.7595 0.27328 0
M  V30 19535 H 1897.06 1.55527 -0.315738 0
M  V30 19536 H 1897.08 3.4217 1.66432 0
M  V30 19537 H 1896.6 3.87966 -0.102017 0
M  V30 19538 H 1894.7 3.00475 2.20331 0
M  V30 19539 H 1894.81 4.62662 1.24422 0
M  V30 19540 H 1893.17 2.43271 0.754419 0
M  V30 19541 H 1893.96 3.3755 -0.625715 0
M  V30 19542 N 1896.4 -0.183431 1.56529 0
M  V30 19543 C 1897.37 -1.21097 1.94597 0
M  V30 19544 C 1898.37 -1.37825 0.828305 0
M  V30 19545 O 1899.56 -1.35438 1.09555 0
M  V30 19546 C 1896.69 -2.57826 2.23021 0
M  V30 19547 H 1897.88 -0.885275 2.86536 0
M  V30 19548 H 1895.43 -0.425412 1.50399 0
M  V30 19549 H 1896.17 -2.95431 1.33758 0
M  V30 19550 H 1895.95 -2.47054 3.04478 0
M  V30 19551 H 1897.44 -3.31902 2.53437 0
M  V30 19552 N 1897.88 -1.50992 -0.451564 0
M  V30 19553 C 1899.11 -1.67021 -1.22958 0
M  V30 19554 C 1899.53 -0.36115 -1.846 0
M  V30 19555 O 1898.89 0.677193 -1.68178 0
M  V30 19556 C 1898.94 -2.77744 -2.29979 0
M  V30 19557 O 1898.04 -2.40356 -3.35116 0
M  V30 19558 H 1897.38 -0.557369 -0.360882 0
M  V30 19559 H 1899.91 -1.97479 -0.535073 0
M  V30 19560 H 1899.92 -3.01406 -2.74988 0
M  V30 19561 H 1898.6 -3.72742 -1.84488 0
M  V30 19562 H 1897.17 -2.27214 -2.95683 0
M  V30 19563 N 1899.36 0.706069 -1.40899 0
M  V30 19564 C 1900.27 1.85007 -1.44255 0
M  V30 19565 C 1901.28 1.70761 -0.334174 0
M  V30 19566 O 1902.46 1.9286 -0.580258 0
M  V30 19567 C 1899.53 3.20896 -1.31251 0
M  V30 19568 C 1898.59 3.47327 -2.52314 0
M  V30 19569 C 1897.82 4.76732 -2.39922 0
M  V30 19570 O 1898.04 5.5249 -1.41813 0
M  V30 19571 O 1896.98 5.03713 -3.2948 0
M  V30 19572 H 1900.8 1.85132 -2.40748 0
M  V30 19573 H 1898.39 0.857751 -1.22323 0
M  V30 19574 H 1900.27 4.02045 -1.26244 0
M  V30 19575 H 1898.94 3.21477 -0.378684 0
M  V30 19576 H 1897.85 2.66149 -2.62899 0
M  V30 19577 H 1899.18 3.5155 -3.4449 0
M  V30 19578 N 1900.84 1.26553 0.939264 0
M  V30 19579 C 1901.77 1.04069 2.04211 0
M  V30 19580 C 1902.78 0.000506291 1.628 0
M  V30 19581 O 1903.97 0.240794 1.76868 0
M  V30 19582 C 1901.07 0.554348 3.34335 0
M  V30 19583 C 1900.24 1.6642 4.04503 0
M  V30 19584 C 1899.3 1.17558 5.129 0
M  V30 19585 O 1898.33 1.87303 5.375 0
M  V30 19586 N 1899.53 0.0250252 5.80495 0
M  V30 19587 H 1902.3 1.99036 2.24065 0
M  V30 19588 H 1899.86 1.17964 1.10888 0
M  V30 19589 H 1901.85 0.211606 4.04146 0
M  V30 19590 H 1900.42 -0.301779 3.1114 0
M  V30 19591 H 1899.64 2.17779 3.28582 0
M  V30 19592 H 1900.93 2.4094 4.48136 0
M  V30 19593 H 1900.32 -0.557378 5.62947 0
M  V30 19594 H 1898.88 -0.258625 6.51287 0
M  V30 19595 N 1902.31 -1.14411 1.08387 0
M  V30 19596 C 1903.56 -1.85078 0.811826 0
M  V30 19597 C 1903.88 -1.83335 -0.664312 0
M  V30 19598 O 1903.15 -1.28164 -1.48158 0
M  V30 19599 H 1901.73 -0.685278 0.297328 0
M  V30 19600 H 1904.4 -1.38644 1.36981 0
M  V30 19601 H 1903.49 -2.89909 1.15581 0
M  V30 19602 N 1903.79 -0.869509 -1.31443 0
M  V30 19603 C 1905.02 -0.49395 -2.00608 0
M  V30 19604 C 1905.43 0.917973 -1.65439 0
M  V30 19605 O 1904.77 1.61281 -0.879447 0
M  V30 19606 C 1904.84 -0.570703 -3.54941 0
M  V30 19607 C 1904.5 -1.94416 -4.13584 0
M  V30 19608 C 1905.5 -2.9116 -4.30722 0
M  V30 19609 C 1903.18 -2.24535 -4.49321 0
M  V30 19610 C 1905.18 -4.16167 -4.82788 0
M  V30 19611 C 1902.86 -3.49791 -5.01089 0
M  V30 19612 C 1903.86 -4.45422 -5.17773 0
M  V30 19613 O 1903.55 -5.68458 -5.68429 0
M  V30 19614 H 1903.28 -0.190986 -0.64846 0
M  V30 19615 H 1905.83 -1.17233 -1.68658 0
M  V30 19616 H 1904.06 0.164593 -3.8635 0
M  V30 19617 H 1905.75 -0.208637 -4.05363 0
M  V30 19618 H 1906.52 -2.69199 -4.03431 0
M  V30 19619 H 1902.4 -1.50876 -4.35612 0
M  V30 19620 H 1905.94 -4.90818 -4.95725 0
M  V30 19621 H 1901.84 -3.71595 -5.27814 0
M  V30 19622 H 1902.61 -5.70623 -5.86798 0
M  V30 19623 N 1905.27 1.44508 -0.628902 0
M  V30 19624 C 1906.18 2.34468 0.0786233 0
M  V30 19625 C 1907.2 1.52489 0.838046 0
M  V30 19626 O 1908.37 1.85224 0.790813 0
M  V30 19627 C 1905.44 3.30435 1.04945 0
M  V30 19628 C 1904.5 4.28322 0.289643 0
M  V30 19629 C 1903.73 5.19704 1.21422 0
M  V30 19630 O 1903.95 5.14967 2.45286 0
M  V30 19631 O 1902.89 5.97819 0.699748 0
M  V30 19632 H 1906.71 2.96414 -0.661222 0
M  V30 19633 H 1904.3 1.44244 -0.3891 0
M  V30 19634 H 1906.18 3.89513 1.60804 0
M  V30 19635 H 1904.86 2.71025 1.76994 0
M  V30 19636 H 1903.76 3.72797 -0.311936 0
M  V30 19637 H 1905.1 4.90646 -0.390789 0
M  V30 19638 N 1906.75 0.369315 1.53212 0
M  V30 19639 C 1907.66 -0.483226 2.29569 0
M  V30 19640 C 1908.68 -1.08931 1.35684 0
M  V30 19641 O 1909.85 -1.09944 1.68743 0
M  V30 19642 C 1906.92 -1.60549 3.07286 0
M  V30 19643 C 1905.98 -1.02656 4.16846 0
M  V30 19644 C 1905.21 -2.09534 4.90847 0
M  V30 19645 O 1905.43 -3.30709 4.64745 0
M  V30 19646 O 1904.37 -1.72382 5.76687 0
M  V30 19647 H 1908.19 0.138246 3.03385 0
M  V30 19648 H 1905.78 0.133589 1.48802 0
M  V30 19649 H 1907.66 -2.25789 3.55805 0
M  V30 19650 H 1906.34 -2.21229 2.36303 0
M  V30 19651 H 1905.24 -0.337963 3.7257 0
M  V30 19652 H 1906.58 -0.464259 4.90006 0
M  V30 19653 N 1908.23 -1.57291 0.0985816 0
M  V30 19654 C 1909.16 -2.09882 -0.895809 0
M  V30 19655 C 1910.14 -1.01022 -1.2741 0
M  V30 19656 O 1911.32 -1.28543 -1.37873 0
M  V30 19657 C 1908.45 -2.57868 -2.19594 0
M  V30 19658 C 1907.5 -3.7842 -1.96725 0
M  V30 19659 S 1908.33 -5.21834 -1.20208 0
M  V30 19660 C 1909.48 -5.73172 -2.51444 0
M  V30 19661 H 1909.72 -2.93899 -0.448416 0
M  V30 19662 H 1907.25 -1.53973 -0.114779 0
M  V30 19663 H 1909.21 -2.86173 -2.94305 0
M  V30 19664 H 1907.87 -1.74071 -2.61454 0
M  V30 19665 H 1907.06 -4.10075 -2.93009 0
M  V30 19666 H 1906.66 -3.50627 -1.30142 0
M  V30 19667 H 1908.96 -5.81652 -3.47401 0
M  V30 19668 H 1909.9 -6.71615 -2.24362 0
M  V30 19669 H 1910.31 -5.01123 -2.59877 0
M  V30 19670 N 1909.71 0.175127 -1.56624 0
M  V30 19671 C 1911.12 0.526752 -1.50657 0
M  V30 19672 C 1911.32 1.84844 -0.802173 0
M  V30 19673 O 1910.38 2.49907 -0.360958 0
M  V30 19674 C 1911.69 0.563029 -2.95382 0
M  V30 19675 C 1913.24 0.650493 -3.06166 0
M  V30 19676 C 1913.71 0.717698 -4.52342 0
M  V30 19677 N 1915.2 0.78069 -4.56574 0
M  V30 19678 C 1915.94 0.853199 -5.67017 0
M  V30 19679 N 1915.44 0.886777 -6.87101 0
M  V30 19680 N 1917.23 0.891926 -5.54978 0
M  V30 19681 H 1909.38 -0.69158 -2.00826 0
M  V30 19682 H 1911.64 -0.248884 -0.914746 0
M  V30 19683 H 1911.35 -0.339385 -3.50059 0
M  V30 19684 H 1911.22 1.41084 -3.49821 0
M  V30 19685 H 1913.61 1.54333 -2.51526 0
M  V30 19686 H 1913.69 -0.223919 -2.54818 0
M  V30 19687 H 1913.33 -0.170871 -5.07612 0
M  V30 19688 H 1913.26 1.6082 -5.01442 0
M  V30 19689 H 1915.76 0.763178 -3.70113 0
M  V30 19690 H 1916.07 0.943172 -7.67023 0
M  V30 19691 H 1914.41 0.855117 -6.89719 0
M  V30 19692 H 1917.6 0.862669 -4.60082 0
M  V30 19693 H 1917.78 0.944973 -6.41073 0
M  V30 19694 N 1911.18 1.5123 0.44355 0
M  V30 19695 C 1912.15 1.71511 1.52041 0
M  V30 19696 C 1913.15 0.585226 1.49772 0
M  V30 19697 O 1914.34 0.852687 1.51904 0
M  V30 19698 C 1911.47 1.76583 2.91601 0
M  V30 19699 H 1912.66 2.67613 1.35364 0
M  V30 19700 H 1910.21 1.41125 0.671811 0
M  V30 19701 H 1910.95 0.822743 3.1369 0
M  V30 19702 H 1910.73 2.58693 2.94653 0
M  V30 19703 H 1912.22 1.94135 3.69732 0
M  V30 19704 N 1912.66 -0.698586 1.41271 0
M  V30 19705 C 1913.91 -1.45861 1.40466 0
M  V30 19706 C 1914.24 -1.94496 0.0127551 0
M  V30 19707 O 1913.49 -1.69692 -0.974843 0
M  V30 19708 C 1913.79 -2.688 2.35545 0
M  V30 19709 C 1913.46 -2.38839 3.82449 0
M  V30 19710 C 1912.12 -2.30378 4.22468 0
M  V30 19711 C 1914.47 -2.14065 4.75211 0
M  V30 19712 C 1911.8 -1.95236 5.53263 0
M  V30 19713 C 1914.15 -1.80432 6.06323 0
M  V30 19714 C 1912.81 -1.70465 6.45367 0
M  V30 19715 H 1912.08 -0.533744 0.514002 0
M  V30 19716 H 1914.73 -0.798723 1.74048 0
M  V30 19717 H 1913.04 -3.39708 1.95207 0
M  V30 19718 H 1914.73 -3.26933 2.32197 0
M  V30 19719 H 1911.32 -2.46317 3.50751 0
M  V30 19720 H 1915.51 -2.19548 4.45098 0
M  V30 19721 H 1910.76 -1.86069 5.82399 0
M  V30 19722 H 1914.94 -1.60281 6.77704 0
M  V30 19723 H 1912.56 -1.43002 7.46629 0
M  V30 19724 N 1914.14 -1.27049 -0.93254 0
M  V30 19725 C 1915.07 -1.05151 -2.03656 0
M  V30 19726 C 1916.08 -0.00913996 -1.62797 0
M  V30 19727 O 1917.27 -0.25017 -1.76738 0
M  V30 19728 C 1914.37 -0.572071 -3.34037 0
M  V30 19729 C 1913.55 -1.68563 -4.03615 0
M  V30 19730 C 1912.61 -1.20276 -5.12269 0
M  V30 19731 O 1911.63 -1.9015 -5.36499 0
M  V30 19732 N 1912.83 -0.0558099 -5.80473 0
M  V30 19733 H 1915.6 -2.00221 -2.23006 0
M  V30 19734 H 1913.16 -1.18551 -1.1026 0
M  V30 19735 H 1915.15 -0.233036 -4.04029 0
M  V30 19736 H 1913.72 0.285274 -3.11296 0
M  V30 19737 H 1912.94 -2.19519 -3.27422 0
M  V30 19738 H 1914.23 -2.43313 -4.46852 0
M  V30 19739 H 1913.63 0.527516 -5.63235 0
M  V30 19740 H 1912.18 0.224082 -6.51415 0
M  V30 19741 N 1915.62 1.13835 -1.08993 0
M  V30 19742 C 1916.87 1.84645 -0.82163 0
M  V30 19743 C 1917.19 1.83685 0.65458 0
M  V30 19744 O 1916.46 1.28948 1.47477 0
M  V30 19745 H 1915.04 0.683691 -0.300958 0
M  V30 19746 H 1917.7 1.37915 -1.37715 0
M  V30 19747 H 1916.79 2.89292 -1.17117 0
M  V30 19748 N 1917.1 0.876467 1.3098 0
M  V30 19749 C 1918.51 0.542323 1.7865 0
M  V30 19750 C 1918.86 -0.941103 1.72156 0
M  V30 19751 O 1917.98 -1.73506 1.29324 0
M  V30 19752 C 1918.58 0.977656 3.24388 0
M  V30 19753 C 1917.14 0.695064 3.69927 0
M  V30 19754 C 1916.28 1.16537 2.51624 0
M  V30 19755 H 1919.23 1.06154 1.1797 0
M  V30 19756 H 1919.26 0.30304 3.79291 0
M  V30 19757 H 1918.77 2.05735 3.29082 0
M  V30 19758 H 1916.87 -0.372992 3.70728 0
M  V30 19759 H 1916.98 1.27665 4.61778 0
M  V30 19760 H 1915.35 0.584941 2.47892 0
M  V30 19761 H 1916.13 2.25262 2.5906 0
M  V30 19762 N 1918.57 -1.44173 0.636557 0
M  V30 19763 C 1919.82 -2.01594 0.142933 0
M  V30 19764 C 1920.14 -1.50366 -1.24157 0
M  V30 19765 O 1919.41 -0.709463 -1.82602 0
M  V30 19766 H 1917.99 -0.745335 0.04985 0
M  V30 19767 H 1920.65 -1.76602 0.824479 0
M  V30 19768 H 1919.75 -3.11889 0.114775 0
M  V30 19769 N 1920.05 -0.377435 -1.53014 0
M  V30 19770 C 1921 0.480105 -2.22888 0
M  V30 19771 C 1921.99 1.0392 -1.22839 0
M  V30 19772 O 1923.18 0.967277 -1.48232 0
M  V30 19773 C 1920.31 1.61312 -3.0304 0
M  V30 19774 C 1919.39 1.06633 -4.10476 0
M  V30 19775 N 1919.78 0.243501 -5.05214 0
M  V30 19776 C 1918.08 1.33999 -4.25394 0
M  V30 19777 C 1918.78 -0.0572358 -5.81672 0
M  V30 19778 N 1917.76 0.543562 -5.40876 0
M  V30 19779 H 1921.56 -0.155223 -2.9349 0
M  V30 19780 H 1919.07 -0.18609 -1.6133 0
M  V30 19781 H 1921.07 2.23975 -3.51626 0
M  V30 19782 H 1919.73 2.25138 -2.33972 0
M  V30 19783 H 1920.74 -0.118276 -5.17765 0
M  V30 19784 H 1917.42 1.98017 -3.67553 0
M  V30 19785 H 1918.81 -0.72317 -6.67997 0
M  V30 19786 N 1921.53 1.57237 -0.106922 0
M  V30 19787 C 1922.46 2.11718 0.877968 0
M  V30 19788 C 1923.48 1.0571 1.23812 0
M  V30 19789 O 1924.66 1.3312 1.18917 0
M  V30 19790 C 1921.76 2.59182 2.18352 0
M  V30 19791 C 1920.94 3.89156 1.99691 0
M  V30 19792 C 1920 4.22344 3.13866 0
M  V30 19793 O 1919.02 4.91367 2.87309 0
M  V30 19794 N 1920.22 3.78694 4.39967 0
M  V30 19795 H 1922.99 2.96846 0.412584 0
M  V30 19796 H 1920.55 1.61713 0.0778505 0
M  V30 19797 H 1922.54 2.78423 2.93706 0
M  V30 19798 H 1921.11 1.78999 2.56277 0
M  V30 19799 H 1920.33 3.78945 1.086 0
M  V30 19800 H 1921.62 4.74165 1.84514 0
M  V30 19801 H 1921.02 3.23 4.64422 0
M  V30 19802 H 1919.58 4.03067 5.12231 0
M  V30 19803 N 1923.01 -0.166818 1.56715 0
M  V30 19804 C 1923.97 -1.19027 1.95871 0
M  V30 19805 C 1924.97 -1.36939 0.842877 0
M  V30 19806 O 1926.16 -1.34268 1.10985 0
M  V30 19807 C 1923.29 -2.55446 2.25743 0
M  V30 19808 H 1924.49 -0.854834 2.87459 0
M  V30 19809 H 1922.04 -0.409436 1.50842 0
M  V30 19810 H 1922.77 -2.93996 1.36884 0
M  V30 19811 H 1922.56 -2.4381 3.07081 0
M  V30 19812 H 1924.05 -3.29196 2.56943 0
M  V30 19813 N 1924.49 -1.51463 -0.435524 0
M  V30 19814 C 1925.9 -1.56678 -1.01533 0
M  V30 19815 C 1926.25 -0.391337 -1.92258 0
M  V30 19816 O 1925.37 0.491647 -2.10741 0
M  V30 19817 C 1925.97 -2.83951 -1.84817 0
M  V30 19818 C 1924.53 -2.91731 -2.37844 0
M  V30 19819 C 1923.67 -2.51359 -1.17106 0
M  V30 19820 H 1926.63 -1.57213 -0.216726 0
M  V30 19821 H 1926.65 -2.67815 -2.70287 0
M  V30 19822 H 1926.16 -3.69483 -1.1876 0
M  V30 19823 H 1924.26 -2.10633 -3.07351 0
M  V30 19824 H 1924.37 -3.95421 -2.70517 0
M  V30 19825 H 1922.74 -2.04599 -1.51695 0
M  V30 19826 H 1923.52 -3.39238 -0.526566 0
M  V30 19827 N 1925.96 0.691085 -1.4164 0
M  V30 19828 C 1926.91 1.79718 -1.40305 0
M  V30 19829 C 1927.9 1.58502 -0.276751 0
M  V30 19830 O 1929.09 1.69258 -0.517761 0
M  V30 19831 C 1926.22 3.18059 -1.29203 0
M  V30 19832 C 1925.31 3.44954 -2.46714 0
M  V30 19833 N 1925.7 3.42522 -3.72172 0
M  V30 19834 C 1923.99 3.75521 -2.40624 0
M  V30 19835 C 1924.7 3.68447 -4.50135 0
M  V30 19836 N 1923.67 3.88412 -3.80312 0
M  V30 19837 H 1927.47 1.76207 -2.3522 0
M  V30 19838 H 1924.99 0.891261 -1.35758 0
M  V30 19839 H 1926.98 3.97299 -1.26329 0
M  V30 19840 H 1925.64 3.22778 -0.352775 0
M  V30 19841 H 1926.66 3.22799 -4.04996 0
M  V30 19842 H 1923.33 3.87584 -1.55193 0
M  V30 19843 H 1924.72 3.72665 -5.5908 0
M  V30 19844 N 1927.44 1.27542 0.925789 0
M  V30 19845 C 1928.69 1.14161 1.67616 0
M  V30 19846 C 1929.02 -0.311471 1.91686 0
M  V30 19847 O 1928.3 -1.22766 1.5086 0
M  V30 19848 C 1928.58 1.92778 3.04152 0
M  V30 19849 C 1928.43 3.46081 2.87312 0
M  V30 19850 C 1929.75 1.73374 4.04511 0
M  V30 19851 H 1926.87 0.416091 0.608307 0
M  V30 19852 H 1929.51 1.56719 1.0742 0
M  V30 19853 H 1927.66 1.5661 3.55536 0
M  V30 19854 H 1929.33 3.92089 2.43031 0
M  V30 19855 H 1927.58 3.72324 2.22615 0
M  V30 19856 H 1928.25 3.96333 3.84219 0
M  V30 19857 H 1930.72 2.04914 3.62146 0
M  V30 19858 H 1929.6 2.30773 4.98031 0
M  V30 19859 H 1929.86 0.682154 4.36806 0
M  V30 19860 N 1928.92 -1.13255 1.09595 0
M  V30 19861 C 1929.87 -2.16783 0.706325 0
M  V30 19862 C 1930.85 -1.58442 -0.280181 0
M  V30 19863 O 1932.05 -1.7677 -0.0902771 0
M  V30 19864 C 1929.18 -3.43053 0.130333 0
M  V30 19865 C 1928.26 -4.08397 1.14336 0
M  V30 19866 N 1928.65 -4.48881 2.33107 0
M  V30 19867 C 1926.95 -4.35057 0.981893 0
M  V30 19868 C 1927.65 -4.99832 2.97562 0
M  V30 19869 N 1926.63 -4.94797 2.25115 0
M  V30 19870 H 1930.43 -2.45841 1.61058 0
M  V30 19871 H 1927.94 -1.30069 0.972415 0
M  V30 19872 H 1929.94 -4.16566 -0.166824 0
M  V30 19873 H 1928.6 -3.15468 -0.768749 0
M  V30 19874 H 1929.61 -4.4153 2.70688 0
M  V30 19875 H 1926.29 -4.17273 0.137641 0
M  V30 19876 H 1927.68 -5.40938 3.98542 0
M  V30 19877 N 1930.4 -0.883401 -1.30514 0
M  V30 19878 C 1931.63 -0.515199 -2.00073 0
M  V30 19879 C 1932.04 0.900374 -1.66403 0
M  V30 19880 O 1931.38 1.60339 -0.896503 0
M  V30 19881 C 1931.44 -0.608317 -3.54316 0
M  V30 19882 C 1931.11 -1.98792 -4.11498 0
M  V30 19883 C 1932.1 -2.95712 -4.2761 0
M  V30 19884 C 1929.79 -2.29288 -4.46914 0
M  V30 19885 C 1931.78 -4.21264 -4.78347 0
M  V30 19886 C 1929.47 -3.55086 -4.9735 0
M  V30 19887 C 1930.47 -4.50888 -5.13019 0
M  V30 19888 O 1930.15 -5.74455 -5.62367 0
M  V30 19889 H 1929.89 -0.197853 -0.646398 0
M  V30 19890 H 1932.44 -1.19015 -1.67405 0
M  V30 19891 H 1930.67 0.123606 -3.86502 0
M  V30 19892 H 1932.36 -0.251619 -4.05119 0
M  V30 19893 H 1933.13 -2.73463 -4.00553 0
M  V30 19894 H 1929 -1.55488 -4.33987 0
M  V30 19895 H 1932.55 -4.96048 -4.90492 0
M  V30 19896 H 1928.45 -3.77172 -5.23843 0
M  V30 19897 H 1929.21 -5.76814 -5.80713 0
M  V30 19898 N 1931.88 1.43833 -0.644194 0
M  V30 19899 C 1932.84 2.29159 0.0433471 0
M  V30 19900 C 1933.84 1.41734 0.75948 0
M  V30 19901 O 1935.03 1.63464 0.602093 0
M  V30 19902 C 1932.16 3.23604 1.07208 0
M  V30 19903 H 1933.35 2.9144 -0.707295 0
M  V30 19904 H 1930.91 1.50963 -0.404968 0
M  V30 19905 H 1931.64 2.66199 1.85226 0
M  V30 19906 H 1931.43 3.88047 0.562339 0
M  V30 19907 H 1932.92 3.87669 1.55251 0
M  V30 19908 N 1933.35 0.385544 1.52811 0
M  V30 19909 C 1934.77 0.0353371 1.59561 0
M  V30 19910 C 1934.97 -1.44948 1.39973 0
M  V30 19911 O 1934.03 -2.21354 1.21484 0
M  V30 19912 C 1935.34 0.509155 2.96358 0
M  V30 19913 C 1936.89 0.465088 3.09525 0
M  V30 19914 C 1937.36 0.915035 4.48766 0
M  V30 19915 N 1938.85 0.870895 4.54939 0
M  V30 19916 C 1939.59 1.1905 5.60905 0
M  V30 19917 N 1939.08 1.58039 6.74534 0
M  V30 19918 N 1940.88 1.112 5.50991 0
M  V30 19919 H 1933.03 1.35224 1.63793 0
M  V30 19920 H 1935.29 0.554013 0.769268 0
M  V30 19921 H 1935 1.54604 3.15896 0
M  V30 19922 H 1934.87 -0.0937516 3.77083 0
M  V30 19923 H 1937.26 -0.562704 2.89685 0
M  V30 19924 H 1937.34 1.10375 2.30762 0
M  V30 19925 H 1936.98 1.94104 4.69346 0
M  V30 19926 H 1936.91 0.253422 5.2599 0
M  V30 19927 H 1939.4 0.583936 3.73361 0
M  V30 19928 H 1939.72 1.808 7.51353 0
M  V30 19929 H 1938.06 1.61922 6.75874 0
M  V30 19930 H 1941.25 0.806438 4.61101 0
M  V30 19931 H 1941.43 1.3644 6.33473 0
M  V30 19932 N 1934.83 -1.57178 0.115259 0
M  V30 19933 C 1935.76 -2.18134 -0.833042 0
M  V30 19934 C 1936.74 -1.12033 -1.27995 0
M  V30 19935 O 1937.93 -1.40254 -1.34323 0
M  V30 19936 C 1935.06 -2.77778 -2.08463 0
M  V30 19937 C 1934.01 -3.89429 -1.77565 0
M  V30 19938 C 1933.34 -4.35863 -3.09722 0
M  V30 19939 C 1934.64 -5.11701 -1.04687 0
M  V30 19940 H 1936.33 -2.9763 -0.325107 0
M  V30 19941 H 1933.88 -1.43164 -0.154933 0
M  V30 19942 H 1935.83 -3.19079 -2.75258 0
M  V30 19943 H 1934.56 -1.95566 -2.61575 0
M  V30 19944 H 1933.21 -3.48698 -1.13161 0
M  V30 19945 H 1932.86 -3.50515 -3.6076 0
M  V30 19946 H 1932.56 -5.11152 -2.89823 0
M  V30 19947 H 1934.09 -4.79812 -3.77641 0
M  V30 19948 H 1935.5 -5.50045 -1.61628 0
M  V30 19949 H 1933.9 -5.92549 -0.948964 0
M  V30 19950 H 1934.97 -4.84889 -0.032977 0
M  V30 19951 N 1936.31 0.158505 -1.56801 0
M  V30 19952 C 1937.26 1.196 -1.97394 0
M  V30 19953 C 1938.23 1.43308 -0.839765 0
M  V30 19954 O 1939.41 1.55835 -1.10092 0
M  V30 19955 C 1936.55 2.52729 -2.34994 0
M  V30 19956 C 1935.67 2.36292 -3.61649 0
M  V30 19957 C 1934.8 3.62376 -3.88403 0
M  V30 19958 C 1933.84 3.40927 -5.08365 0
M  V30 19959 N 1932.98 4.59112 -5.31188 0
M  V30 19960 H 1937.82 0.842837 -2.85833 0
M  V30 19961 H 1935.35 0.404744 -1.41422 0
M  V30 19962 H 1937.31 3.30337 -2.5482 0
M  V30 19963 H 1935.94 2.86016 -1.49649 0
M  V30 19964 H 1934.99 1.49795 -3.49665 0
M  V30 19965 H 1936.31 2.16397 -4.49415 0
M  V30 19966 H 1935.46 4.48417 -4.08665 0
M  V30 19967 H 1934.2 3.85264 -2.99037 0
M  V30 19968 H 1933.2 2.53274 -4.87988 0
M  V30 19969 H 1934.43 3.19449 -5.99274 0
M  V30 19970 H 1932.38 4.82195 -4.44774 0
M  V30 19971 H 1932.29 4.42177 -6.13201 0
M  V30 19972 H 1933.56 5.46399 -5.55939 0
M  V30 19973 N 1937.79 1.51692 0.427485 0
M  V30 19974 C 1939.02 1.68669 1.19827 0
M  V30 19975 C 1939.43 0.388231 1.84765 0
M  V30 19976 O 1938.79 -0.634167 1.71127 0
M  V30 19977 C 1938.84 2.80936 2.27502 0
M  V30 19978 O 1938.56 4.05752 1.65218 0
M  V30 19979 C 1940.06 3.09267 3.17599 0
M  V30 19980 H 1937.28 0.565751 0.360786 0
M  V30 19981 H 1939.83 1.98158 0.505323 0
M  V30 19982 H 1937.98 2.54018 2.92496 0
M  V30 19983 H 1938.4 4.68175 2.36457 0
M  V30 19984 H 1939.87 3.91379 3.89264 0
M  V30 19985 H 1940.35 2.22071 3.78921 0
M  V30 19986 H 1940.95 3.37881 2.58295 0
M  V30 19987 N 1939.27 -0.683564 1.42004 0
M  V30 19988 C 1940.2 -1.8095 1.47578 0
M  V30 19989 C 1941.18 -1.66804 0.333208 0
M  V30 19990 O 1942.36 -1.86357 0.546314 0
M  V30 19991 C 1939.49 -3.19182 1.36895 0
M  V30 19992 C 1938.45 -3.4805 2.49089 0
M  V30 19993 C 1937.77 -4.85764 2.23467 0
M  V30 19994 C 1939.07 -3.4582 3.91415 0
M  V30 19995 H 1940.77 -1.76543 2.41812 0
M  V30 19996 H 1938.31 -0.84794 1.16387 0
M  V30 19997 H 1940.27 -3.97674 1.39404 0
M  V30 19998 H 1938.99 -3.24245 0.391513 0
M  V30 19999 H 1937.65 -2.71915 2.45882 0
M  V30 20000 H 1937.3 -4.87467 1.24037 0
M  V30 20001 H 1937 -5.06043 2.98654 0
M  V30 20002 H 1938.52 -5.66551 2.27711 0
M  V30 20003 H 1939.94 -4.14297 3.96272 0
M  V30 20004 H 1938.33 -3.77633 4.66383 0
M  V30 20005 H 1939.4 -2.4456 4.1871 0
M  V30 20006 N 1940.75 -1.28031 -0.919012 0
M  V30 20007 C 1942.16 -1.05624 -1.19649 0
M  V30 20008 C 1942.36 0.204731 -2.00457 0
M  V30 20009 O 1941.42 0.907849 -2.35615 0
M  V30 20010 C 1942.73 -2.3007 -1.93619 0
M  V30 20011 C 1944.28 -2.35196 -2.06523 0
M  V30 20012 C 1944.75 -3.59395 -2.839 0
M  V30 20013 N 1946.24 -3.60004 -2.91464 0
M  V30 20014 C 1946.98 -4.52779 -3.51822 0
M  V30 20015 N 1946.48 -5.55868 -4.13501 0
M  V30 20016 N 1948.27 -4.40385 -3.4931 0
M  V30 20017 H 1940.42 -2.08985 -0.379372 0
M  V30 20018 H 1942.68 -0.919558 -0.230473 0
M  V30 20019 H 1942.39 -3.21907 -1.41665 0
M  V30 20020 H 1942.26 -2.36071 -2.94195 0
M  V30 20021 H 1944.65 -1.4386 -2.57659 0
M  V30 20022 H 1944.73 -2.33194 -1.0514 0
M  V30 20023 H 1944.37 -4.51072 -2.33445 0
M  V30 20024 H 1944.3 -3.58651 -3.85587 0
M  V30 20025 H 1946.8 -2.85455 -2.47637 0
M  V30 20026 H 1947.11 -6.22812 -4.57521 0
M  V30 20027 H 1945.45 -5.597 -4.12021 0
M  V30 20028 H 1948.64 -3.59053 -3.0033 0
M  V30 20029 H 1948.82 -5.12877 -3.96057 0
M  V30 20030 N 1942.22 1.12672 -1.10194 0
M  V30 20031 C 1943.45 1.88496 -0.865112 0
M  V30 20032 C 1943.87 1.78977 0.578691 0
M  V30 20033 O 1943.23 1.14292 1.40737 0
M  V30 20034 C 1943.28 3.35768 -1.315 0
M  V30 20035 O 1942.38 4.09615 -0.478447 0
M  V30 20036 H 1941.72 0.585782 -0.312658 0
M  V30 20037 H 1944.25 1.42506 -1.46811 0
M  V30 20038 H 1944.26 3.86605 -1.30385 0
M  V30 20039 H 1942.94 3.42013 -2.36643 0
M  V30 20040 H 1941.52 3.68753 -0.554589 0
M  V30 20041 N 1943.7 0.89031 1.30043 0
M  V30 20042 C 1944.63 0.377386 2.3043 0
M  V30 20043 C 1945.61 -0.542607 1.61213 0
M  V30 20044 O 1946.8 -0.455328 1.88787 0
M  V30 20045 C 1943.93 -0.404264 3.44939 0
M  V30 20046 C 1942.88 0.424448 4.2589 0
M  V30 20047 C 1942.21 -0.48413 5.32504 0
M  V30 20048 C 1943.51 1.6694 4.94902 0
M  V30 20049 H 1945.2 1.21628 2.73582 0
M  V30 20050 H 1942.75 0.586299 1.31524 0
M  V30 20051 H 1944.7 -0.773769 4.14235 0
M  V30 20052 H 1943.42 -1.27685 3.00606 0
M  V30 20053 H 1942.08 0.776162 3.58289 0
M  V30 20054 H 1941.73 -1.35458 4.84417 0
M  V30 20055 H 1941.43 0.0665939 5.87562 0
M  V30 20056 H 1942.96 -0.850034 6.04654 0
M  V30 20057 H 1944.37 1.37017 5.56686 0
M  V30 20058 H 1942.77 2.16073 5.59851 0
M  V30 20059 H 1943.84 2.41077 4.20725 0
M  V30 20060 N 1945.18 -1.43489 0.651812 0
M  V30 20061 C 1946.09 -2.34564 -0.0413115 0
M  V30 20062 C 1947.11 -1.53803 -0.81368 0
M  V30 20063 O 1948.28 -1.86459 -0.761246 0
M  V30 20064 C 1945.35 -3.32063 -0.996745 0
M  V30 20065 C 1944.41 -4.28728 -0.221464 0
M  V30 20066 C 1943.64 -5.2157 -1.13139 0
M  V30 20067 O 1943.86 -5.18804 -2.37062 0
M  V30 20068 O 1942.8 -5.98856 -0.604552 0
M  V30 20069 H 1946.62 -2.95325 0.708295 0
M  V30 20070 H 1944.21 -1.43607 0.411999 0
M  V30 20071 H 1946.09 -3.92022 -1.54586 0
M  V30 20072 H 1944.77 -2.73807 -1.7266 0
M  V30 20073 H 1943.67 -3.72254 0.371205 0
M  V30 20074 H 1945.01 -4.89962 0.468797 0
M  V30 20075 N 1946.66 -0.393643 -1.52605 0
M  V30 20076 C 1947.62 0.427358 -2.25181 0
M  V30 20077 C 1948.62 0.986595 -1.26976 0
M  V30 20078 O 1949.81 0.867913 -1.51039 0
M  V30 20079 C 1946.94 1.60001 -3.01019 0
M  V30 20080 H 1948.14 -0.208101 -2.99177 0
M  V30 20081 H 1945.69 -0.145844 -1.55618 0
M  V30 20082 H 1946.42 2.27278 -2.31334 0
M  V30 20083 H 1946.21 1.20567 -3.73103 0
M  V30 20084 H 1947.7 2.18115 -3.56112 0
M  V30 20085 N 1948.14 1.57115 -0.123593 0
M  V30 20086 C 1949.36 1.99705 0.540887 0
M  V30 20087 C 1949.78 1.00336 1.59932 0
M  V30 20088 O 1949.14 -0.00310477 1.825 0
M  V30 20089 C 1949.19 3.42286 1.16285 0
M  V30 20090 O 1948.91 4.37854 0.146725 0
M  V30 20091 C 1950.41 4.00032 1.91021 0
M  V30 20092 H 1947.63 0.655623 0.142827 0
M  V30 20093 H 1950.17 2.03406 -0.211285 0
M  V30 20094 H 1948.33 3.39511 1.86578 0
M  V30 20095 H 1948.74 5.21066 0.599228 0
M  V30 20096 H 1950.22 5.01865 2.29861 0
M  V30 20097 H 1950.69 3.3943 2.78719 0
M  V30 20098 H 1951.3 4.06368 1.25481 0
M  V30 20099 N 1949.61 -0.150187 1.56883 0
M  V30 20100 C 1950.89 -0.891842 1.74085 0
M  V30 20101 C 1951.27 -1.99479 0.690751 0
M  V30 20102 O 1950.62 -2.26641 -0.290877 0
M  V30 20103 C 1950.83 -1.43722 3.18033 0
M  V30 20104 C 1952.18 -1.90188 3.79623 0
M  V30 20105 O 1953.2 -1.53471 3.21442 0
M  V30 20106 O 1952.06 -2.57892 4.81824 0
M  V30 20107 H 1949.15 -0.421241 0.711678 0
M  V30 20108 H 1951.7 -0.136362 1.69151 0
M  V30 20109 H 1950.47 -0.644422 3.85957 0
M  V30 20110 H 1950.09 -2.2563 3.27379 0
M  V30 20111 N 1951.09 -1.51916 -0.419434 0
M  V30 20112 C 1952.32 -1.69592 -1.19387 0
M  V30 20113 C 1952.74 -0.400225 -1.83793 0
M  V30 20114 O 1952.1 0.641368 -1.69576 0
M  V30 20115 C 1952.15 -2.8256 -2.24036 0
M  V30 20116 O 1951.25 -2.4741 -3.29942 0
M  V30 20117 H 1950.59 -0.564898 -0.348978 0
M  V30 20118 H 1953.12 -1.9857 -0.493064 0
M  V30 20119 H 1953.13 -3.07171 -2.68533 0
M  V30 20120 H 1951.81 -3.76572 -1.7654 0
M  V30 20121 H 1950.39 -2.33435 -2.90796 0
M  V30 20122 N 1952.57 0.676023 -1.42365 0
M  V30 20123 C 1953.53 1.77138 -1.45446 0
M  V30 20124 C 1954.53 1.57116 -0.342226 0
M  V30 20125 O 1955.72 1.63431 -0.602999 0
M  V30 20126 C 1952.86 3.15757 -1.28492 0
M  V30 20127 H 1954.05 1.75794 -2.42974 0
M  V30 20128 H 1951.6 0.885538 -1.28794 0
M  V30 20129 H 1952.34 3.22729 -0.318815 0
M  V30 20130 H 1952.12 3.31694 -2.09097 0
M  V30 20131 H 1953.61 3.95677 -1.33528 0
M  V30 20132 N 1954.05 1.28517 0.912209 0
M  V30 20133 C 1955.3 1.15761 1.6615 0
M  V30 20134 C 1955.62 -0.293495 1.92273 0
M  V30 20135 O 1954.88 -1.22975 1.52235 0
M  V30 20136 C 1955.18 1.90307 3.02519 0
M  V30 20137 C 1954.84 3.40095 2.96051 0
M  V30 20138 C 1953.51 3.80948 2.93994 0
M  V30 20139 C 1955.86 4.35601 2.86185 0
M  V30 20140 C 1953.19 5.15643 2.79873 0
M  V30 20141 C 1955.54 5.70371 2.73604 0
M  V30 20142 C 1954.2 6.10497 2.69906 0
M  V30 20143 H 1953.47 0.423598 0.607985 0
M  V30 20144 H 1956.12 1.59309 1.06268 0
M  V30 20145 H 1954.42 1.39312 3.66196 0
M  V30 20146 H 1956.12 1.77852 3.59402 0
M  V30 20147 H 1952.71 3.07615 2.98447 0
M  V30 20148 H 1956.89 4.05 2.8686 0
M  V30 20149 H 1952.15 5.45858 2.75407 0
M  V30 20150 H 1956.32 6.44035 2.64939 0
M  V30 20151 H 1953.95 7.1482 2.58722 0
M  V30 20152 N 1955.53 -1.12086 1.1079 0
M  V30 20153 C 1956.8 -1.80039 0.764549 0
M  V30 20154 C 1957.18 -1.97387 -0.748429 0
M  V30 20155 O 1956.53 -1.55315 -1.67599 0
M  V30 20156 C 1956.74 -3.14168 1.51985 0
M  V30 20157 C 1958.09 -3.89311 1.69476 0
M  V30 20158 O 1959.11 -3.23836 1.48354 0
M  V30 20159 O 1957.97 -5.06786 2.04524 0
M  V30 20160 H 1955.07 -0.779498 0.276246 0
M  V30 20161 H 1957.61 -1.18889 1.21093 0
M  V30 20162 H 1956.38 -2.96854 2.54938 0
M  V30 20163 H 1956.01 -3.83027 1.06658 0
M  V30 20164 N 1957 -0.897194 -1.29569 0
M  V30 20165 C 1957.95 -0.362849 -2.29752 0
M  V30 20166 C 1958.95 0.536674 -1.60674 0
M  V30 20167 O 1960.15 0.419753 -1.75037 0
M  V30 20168 H 1956.53 -0.0987052 -0.745494 0
M  V30 20169 H 1958.5 -1.22122 -2.72266 0
M  V30 20170 C 1957.25 0.396775 -3.45429 0
M  V30 20171 H 1956.57 -0.286159 -3.98775 0
M  V30 20172 H 1958.01 0.73556 -4.17571 0
M  V30 20173 C 1956.47 1.59849 -2.96563 0
M  V30 20174 O 1957 2.69781 -2.97626 0
M  V30 20175 N 1955.21 1.4398 -2.52424 0
M  V30 20176 H 1954.75 0.545463 -2.51759 0
M  V30 20177 H 1954.71 2.24519 -2.20088 0
M  V30 20178 N 1958.48 1.43142 -0.659413 0
M  V30 20179 C 1959.89 1.84958 -0.254412 0
M  V30 20180 C 1960.24 1.552 1.20031 0
M  V30 20181 O 1959.37 1.00407 1.91696 0
M  V30 20182 C 1959.96 3.35731 -0.454961 0
M  V30 20183 C 1958.52 3.76256 -0.104223 0
M  V30 20184 C 1957.67 2.66828 -0.754849 0
M  V30 20185 H 1960.62 1.33206 -0.862657 0
M  V30 20186 H 1960.64 3.79334 0.297654 0
M  V30 20187 H 1960.15 3.57359 -1.51381 0
M  V30 20188 H 1958.26 3.60239 0.951785 0
M  V30 20189 H 1958.37 4.76115 -0.534009 0
M  V30 20190 H 1956.73 2.54009 -0.187526 0
M  V30 20191 H 1957.52 2.91283 -1.81685 0
M  V30 20192 N 1959.96 0.40173 1.52394 0
M  V30 20193 C 1961.24 -0.234644 1.94187 0
M  V30 20194 C 1961.62 -1.63273 1.3381 0
M  V30 20195 O 1960.97 -2.22713 0.511013 0
M  V30 20196 C 1961.18 -0.248454 3.48114 0
M  V30 20197 C 1962.52 -0.471396 4.21975 0
M  V30 20198 O 1963.55 -0.328131 3.54685 0
M  V30 20199 O 1962.41 -0.753135 5.41286 0
M  V30 20200 H 1959.5 -0.149075 0.813453 0
M  V30 20201 H 1962.05 0.457138 1.63427 0
M  V30 20202 H 1960.82 0.730355 3.84424 0
M  V30 20203 H 1960.44 -0.984644 3.85215 0
M  V30 20204 N 1961.44 -1.57047 0.131923 0
M  V30 20205 C 1962.67 -1.99699 -0.52952 0
M  V30 20206 C 1963.08 -1.01077 -1.59938 0
M  V30 20207 O 1962.42 0.00256808 -1.837 0
M  V30 20208 C 1962.48 -3.38777 -1.20293 0
M  V30 20209 C 1962.15 -4.56145 -0.279483 0
M  V30 20210 C 1963.14 -5.17614 0.486981 0
M  V30 20211 C 1960.83 -5.01953 -0.186784 0
M  V30 20212 C 1962.82 -6.2329 1.33375 0
M  V30 20213 C 1960.51 -6.07486 0.6636 0
M  V30 20214 C 1961.51 -6.68023 1.42248 0
M  V30 20215 O 1961.19 -7.71516 2.25873 0
M  V30 20216 H 1960.93 -0.660552 -0.143691 0
M  V30 20217 H 1963.48 -2.0423 0.218962 0
M  V30 20218 H 1961.71 -3.31039 -1.99875 0
M  V30 20219 H 1963.4 -3.65634 -1.76258 0
M  V30 20220 H 1964.17 -4.83132 0.425311 0
M  V30 20221 H 1960.04 -4.54572 -0.76718 0
M  V30 20222 H 1963.59 -6.7047 1.92655 0
M  V30 20223 H 1959.49 -6.41397 0.726617 0
M  V30 20224 H 1960.25 -7.8867 2.18955 0
M  V30 20225 N 1962.92 0.141865 -1.5696 0
M  V30 20226 C 1964.16 0.850019 -1.84787 0
M  V30 20227 C 1964.52 1.78556 -0.716613 0
M  V30 20228 O 1963.81 1.89467 0.285076 0
M  V30 20229 C 1964 1.65717 -3.16658 0
M  V30 20230 C 1963.83 0.801282 -4.42504 0
M  V30 20231 C 1962.6 0.464915 -5.03157 0
M  V30 20232 C 1964.8 0.129271 -5.14138 0
M  V30 20233 N 1962.78 -0.404035 -6.12569 0
M  V30 20234 C 1964.15 -0.599606 -6.17094 0
M  V30 20235 C 1966.21 0.0504761 -4.97874 0
M  V30 20236 C 1964.91 -1.39985 -7.05547 0
M  V30 20237 C 1966.94 -0.736517 -5.86796 0
M  V30 20238 C 1966.3 -1.45366 -6.89237 0
M  V30 20239 H 1962.4 0.288707 -0.726755 0
M  V30 20240 H 1964.98 0.115075 -1.9436 0
M  V30 20241 H 1963.15 2.36332 -3.08224 0
M  V30 20242 H 1964.89 2.30889 -3.32374 0
M  V30 20243 H 1961.64 0.801892 -4.66762 0
M  V30 20244 H 1962.07 -0.829685 -6.71897 0
M  V30 20245 H 1966.71 0.590566 -4.18655 0
M  V30 20246 H 1964.43 -1.95118 -7.84191 0
M  V30 20247 H 1968.01 -0.799543 -5.7628 0
M  V30 20248 H 1966.89 -2.05285 -7.56854 0
M  V30 20249 N 1964.39 1.52136 0.411372 0
M  V30 20250 C 1965.34 1.717 1.50011 0
M  V30 20251 C 1966.33 0.570895 1.50431 0
M  V30 20252 O 1967.52 0.827873 1.56446 0
M  V30 20253 C 1964.65 1.86904 2.87961 0
M  V30 20254 C 1963.74 3.07379 2.92197 0
M  V30 20255 N 1964.13 4.30124 2.66133 0
M  V30 20256 C 1962.42 3.07167 3.23365 0
M  V30 20257 C 1963.13 5.11579 2.76879 0
M  V30 20258 N 1962.1 4.46777 3.09663 0
M  V30 20259 H 1965.9 2.64246 1.28651 0
M  V30 20260 H 1963.42 1.50138 0.61905 0
M  V30 20261 H 1965.41 1.99036 3.6632 0
M  V30 20262 H 1964.07 0.955566 3.10321 0
M  V30 20263 H 1965.09 4.58635 2.4057 0
M  V30 20264 H 1961.76 2.25548 3.51333 0
M  V30 20265 H 1963.15 6.19362 2.60463 0
M  V30 20266 N 1965.87 -0.668464 1.42721 0
M  V30 20267 C 1967.1 -1.46158 1.47148 0
M  V30 20268 C 1967.52 -1.87903 0.0860652 0
M  V30 20269 O 1966.88 -1.56406 -0.91689 0
M  V30 20270 C 1966.93 -2.68284 2.40949 0
M  V30 20271 O 1966.03 -3.66787 1.88522 0
M  V30 20272 H 1965.37 -0.438842 0.498311 0
M  V30 20273 H 1967.9 -0.819353 1.87477 0
M  V30 20274 H 1967.91 -3.1628 2.57742 0
M  V30 20275 H 1966.59 -2.3724 3.41599 0
M  V30 20276 H 1965.17 -3.25851 1.81315 0
M  V30 20277 N 1967.35 -1.28999 -0.905381 0
M  V30 20278 C 1968.77 -1.06887 -1.18522 0
M  V30 20279 C 1968.97 0.183459 -2.00663 0
M  V30 20280 O 1968.02 0.882808 -2.36564 0
M  V30 20281 C 1969.34 -2.32111 -1.91168 0
M  V30 20282 C 1970.88 -2.37374 -2.04017 0
M  V30 20283 C 1971.36 -3.62386 -2.80072 0
M  V30 20284 N 1972.85 -3.63075 -2.87629 0
M  V30 20285 C 1973.59 -4.56485 -3.47 0
M  V30 20286 N 1973.08 -5.60222 -4.07582 0
M  V30 20287 N 1974.87 -4.44065 -3.44619 0
M  V30 20288 H 1967.03 -2.09375 -0.357185 0
M  V30 20289 H 1969.29 -0.92195 -0.220707 0
M  V30 20290 H 1968.99 -3.23391 -1.38243 0
M  V30 20291 H 1968.87 -2.39178 -2.91674 0
M  V30 20292 H 1971.26 -1.46585 -2.56119 0
M  V30 20293 H 1971.34 -2.34296 -1.0266 0
M  V30 20294 H 1970.98 -4.53523 -2.28647 0
M  V30 20295 H 1970.91 -3.6272 -3.81761 0
M  V30 20296 H 1973.4 -2.88065 -2.44595 0
M  V30 20297 H 1973.71 -6.27629 -4.50889 0
M  V30 20298 H 1972.06 -5.64038 -4.06061 0
M  V30 20299 H 1975.25 -3.62218 -2.96505 0
M  V30 20300 H 1975.42 -5.17049 -3.90595 0
M  V30 20301 N 1968.83 1.11497 -1.11383 0
M  V30 20302 C 1969.76 2.19592 -0.793827 0
M  V30 20303 C 1970.74 1.68433 0.237559 0
M  V30 20304 O 1971.93 1.93936 0.101164 0
M  V30 20305 C 1969.06 3.465 -0.235579 0
M  V30 20306 C 1968.01 4.10869 -1.19877 0
M  V30 20307 C 1967.34 5.32345 -0.501259 0
M  V30 20308 C 1968.64 4.55864 -2.54922 0
M  V30 20309 H 1970.33 2.46617 -1.69766 0
M  V30 20310 H 1967.88 1.18532 -0.817695 0
M  V30 20311 H 1969.83 4.214 0.000490272 0
M  V30 20312 H 1968.55 3.18932 0.703544 0
M  V30 20313 H 1967.21 3.37962 -1.42046 0
M  V30 20314 H 1966.86 5.01048 0.442652 0
M  V30 20315 H 1966.56 5.76363 -1.14367 0
M  V30 20316 H 1968.08 6.09985 -0.273968 0
M  V30 20317 H 1969.5 5.22089 -2.36845 0
M  V30 20318 H 1967.89 5.10693 -3.15139 0
M  V30 20319 H 1968.96 3.69342 -3.14189 0
M  V30 20320 N 1970.31 0.904053 1.29092 0
M  V30 20321 C 1971.55 0.532203 1.95381 0
M  V30 20322 C 1971.88 -0.922327 1.71241 0
M  V30 20323 O 1971.14 -1.66968 1.02079 0
M  V30 20324 C 1971.44 0.776255 3.48868 0
M  V30 20325 C 1971.1 2.20882 3.93093 0
M  V30 20326 C 1969.76 2.60052 4.04878 0
M  V30 20327 C 1972.12 3.14152 4.15882 0
M  V30 20328 C 1969.44 3.91663 4.36826 0
M  V30 20329 C 1971.8 4.45317 4.49306 0
M  V30 20330 C 1970.46 4.84354 4.59301 0
M  V30 20331 H 1969.73 0.194747 0.714951 0
M  V30 20332 H 1972.38 1.14354 1.53608 0
M  V30 20333 H 1970.68 0.0820369 3.91714 0
M  V30 20334 H 1972.38 0.467861 3.98261 0
M  V30 20335 H 1968.97 1.89485 3.84439 0
M  V30 20336 H 1973.15 2.85103 4.06239 0
M  V30 20337 H 1968.41 4.21623 4.42769 0
M  V30 20338 H 1972.58 5.17611 4.65888 0
M  V30 20339 H 1970.21 5.86371 4.83811 0
M  V30 20340 N 1971.79 -1.4279 0.666995 0
M  V30 20341 C 1973.2 -1.84821 0.264217 0
M  V30 20342 C 1973.55 -1.55834 -1.19206 0
M  V30 20343 O 1972.67 -1.01422 -1.91161 0
M  V30 20344 C 1973.27 -3.35485 0.47276 0
M  V30 20345 C 1971.83 -3.76195 0.124176 0
M  V30 20346 C 1970.97 -2.66424 0.768989 0
M  V30 20347 H 1973.92 -1.32747 0.869709 0
M  V30 20348 H 1973.95 -3.79487 -0.277532 0
M  V30 20349 H 1973.46 -3.56551 1.53274 0
M  V30 20350 H 1971.56 -3.60738 -0.932667 0
M  V30 20351 H 1971.67 -4.75825 0.559251 0
M  V30 20352 H 1970.04 -2.53906 0.200994 0
M  V30 20353 H 1970.82 -2.90315 1.83227 0
M  V30 20354 N 1973.26 -0.409806 -1.52179 0
M  V30 20355 C 1974.21 0.415351 -2.27032 0
M  V30 20356 C 1975.18 1.04048 -1.29473 0
M  V30 20357 O 1976.37 1.06462 -1.58336 0
M  V30 20358 C 1973.51 1.52571 -3.09542 0
M  V30 20359 C 1972.62 0.921439 -4.22059 0
M  V30 20360 C 1971.75 2.00455 -4.91926 0
M  V30 20361 C 1970.79 1.37725 -5.96404 0
M  V30 20362 N 1969.93 2.40054 -6.59787 0
M  V30 20363 H 1974.77 -0.22939 -2.97116 0
M  V30 20364 H 1972.31 -0.124962 -1.46568 0
M  V30 20365 H 1974.26 2.18046 -3.55685 0
M  V30 20366 H 1972.89 2.14047 -2.41627 0
M  V30 20367 H 1971.95 0.15572 -3.80081 0
M  V30 20368 H 1973.26 0.423208 -4.97001 0
M  V30 20369 H 1972.41 2.73655 -5.41477 0
M  V30 20370 H 1971.15 2.53644 -4.16552 0
M  V30 20371 H 1970.16 0.63059 -5.46172 0
M  V30 20372 H 1971.38 0.853049 -6.73721 0
M  V30 20373 H 1969.33 2.92374 -5.87242 0
M  V30 20374 H 1969.24 1.95045 -7.30406 0
M  V30 20375 H 1970.51 3.12822 -7.13977 0
M  V30 20376 N 1974.74 1.56975 -0.14025 0
M  V30 20377 C 1975.7 2.15234 0.78784 0
M  V30 20378 C 1976.7 1.09243 1.17994 0
M  V30 20379 O 1977.89 1.34916 1.10197 0
M  V30 20380 C 1975.03 2.70994 2.06821 0
M  V30 20381 H 1976.22 2.98579 0.281166 0
M  V30 20382 H 1973.77 1.55918 0.109151 0
M  V30 20383 H 1974.51 1.91297 2.6187 0
M  V30 20384 H 1974.29 3.48532 1.79633 0
M  V30 20385 H 1975.78 3.15904 2.7312 0
M  V30 20386 N 1976.22 -0.133539 1.57033 0
M  V30 20387 C 1977.17 -1.18356 2.00237 0
M  V30 20388 C 1978.16 -1.43708 0.896902 0
M  V30 20389 O 1979.37 -1.43842 1.0821 0
M  V30 20390 H 1975.74 -0.398709 0.637601 0
M  V30 20391 H 1977.71 -0.792575 2.87682 0
M  V30 20392 C 1976.46 -2.50593 2.41036 0
M  V30 20393 H 1975.79 -2.31919 3.25659 0
M  V30 20394 H 1977.23 -3.22659 2.75077 0
M  V30 20395 C 1975.68 -3.12117 1.26826 0
M  V30 20396 O 1976.21 -3.97545 0.576298 0
M  V30 20397 N 1974.42 -2.7177 1.02904 0
M  V30 20398 H 1973.97 -2.02398 1.59352 0
M  V30 20399 H 1973.93 -3.13266 0.266798 0
M  V30 20400 N 1977.7 -1.52352 -0.403298 0
M  V30 20401 C 1978.66 -1.75482 -1.4744 0
M  V30 20402 C 1979.66 -0.62473 -1.48168 0
M  V30 20403 O 1980.85 -0.892662 -1.4959 0
M  V30 20404 C 1977.98 -1.84253 -2.86817 0
M  V30 20405 H 1979.18 -2.71107 -1.28222 0
M  V30 20406 H 1976.73 -1.42857 -0.634157 0
M  V30 20407 H 1977.46 -0.905623 -3.11398 0
M  V30 20408 H 1977.25 -2.66414 -2.87691 0
M  V30 20409 H 1978.74 -2.03869 -3.64454 0
M  V30 20410 N 1979.18 0.660885 -1.43074 0
M  V30 20411 C 1980.11 1.78641 -1.43597 0
M  V30 20412 C 1981.12 1.59355 -0.333119 0
M  V30 20413 O 1982.31 1.68218 -0.597082 0
M  V30 20414 C 1979.41 3.15957 -1.22575 0
M  V30 20415 C 1978.58 3.61969 -2.45556 0
M  V30 20416 C 1977.64 4.78062 -2.19871 0
M  V30 20417 O 1976.67 4.87893 -2.93171 0
M  V30 20418 N 1977.87 5.67738 -1.21053 0
M  V30 20419 H 1980.63 1.78672 -2.40617 0
M  V30 20420 H 1978.2 0.844466 -1.38132 0
M  V30 20421 H 1980.19 3.91298 -1.03287 0
M  V30 20422 H 1978.76 3.10742 -0.34029 0
M  V30 20423 H 1977.98 2.77155 -2.80319 0
M  V30 20424 H 1979.27 3.89455 -3.27418 0
M  V30 20425 H 1978.66 5.6246 -0.604562 0
M  V30 20426 H 1977.22 6.42832 -1.0775 0
M  V30 20427 N 1980.65 1.29477 0.898527 0
M  V30 20428 C 1982.07 1.07514 1.17953 0
M  V30 20429 C 1982.27 -0.172814 2.00758 0
M  V30 20430 O 1981.33 -0.87025 2.37029 0
M  V30 20431 C 1982.64 2.33121 1.89934 0
M  V30 20432 C 1984.19 2.38452 2.02755 0
M  V30 20433 C 1984.66 3.63866 2.78146 0
M  V30 20434 N 1986.15 3.64595 2.857 0
M  V30 20435 C 1986.89 4.58319 3.44574 0
M  V30 20436 N 1986.38 5.62376 4.04605 0
M  V30 20437 N 1988.18 4.45887 3.42259 0
M  V30 20438 H 1980.33 2.09562 0.346076 0
M  V30 20439 H 1982.59 0.923108 0.215814 0
M  V30 20440 H 1982.3 3.2412 1.36526 0
M  V30 20441 H 1982.17 2.40721 2.90402 0
M  V30 20442 H 1984.56 1.47941 2.55338 0
M  V30 20443 H 1984.64 2.34837 1.01416 0
M  V30 20444 H 1984.28 4.54729 2.26239 0
M  V30 20445 H 1984.21 3.6474 3.79832 0
M  V30 20446 H 1986.7 2.89358 2.43064 0
M  V30 20447 H 1987.02 6.30012 4.47555 0
M  V30 20448 H 1985.36 5.66184 4.03064 0
M  V30 20449 H 1988.55 3.63786 2.9458 0
M  V30 20450 H 1988.73 5.19113 3.87848 0
M  V30 20451 N 1982.13 -1.10905 1.11972 0
M  V30 20452 C 1983.36 -1.86555 0.894699 0
M  V30 20453 C 1983.78 -1.80434 -0.555801 0
M  V30 20454 O 1983.13 -1.18957 -1.38403 0
M  V30 20455 C 1983.18 -3.35148 1.35492 0
M  V30 20456 O 1982.9 -3.41154 2.74856 0
M  V30 20457 C 1984.41 -4.27687 1.16612 0
M  V30 20458 H 1981.63 -0.589761 0.320037 0
M  V30 20459 H 1984.17 -1.40232 1.48846 0
M  V30 20460 H 1982.32 -3.78955 0.804493 0
M  V30 20461 H 1982.74 -4.3372 2.94936 0
M  V30 20462 H 1984.21 -5.30168 1.53708 0
M  V30 20463 H 1984.69 -4.39072 0.106219 0
M  V30 20464 H 1985.3 -3.8968 1.70381 0
M  V30 20465 O 1983.65 -1.04286 -1.23315 0
M  V30 20466 H 1984.34 -0.714844 -1.80027 0
M  V30 END ATOM
M  V30 BEGIN BOND
M  V30 END BOND
M  V30 END CTAB
M  END
$$$$
