drugbank_target|P21890 Ferredoxin--NADP reductase (DB03147; DB03461)
 OpenBabel12092120263D

  0  0  0     0  0            999 V3000
M  V30 BEGIN CTAB
M  V30 COUNTS 6862 6931 0 0 0
M  V30 BEGIN ATOM
M  V30 1 H -0.908 1.98254 -0.117106 0
M  V30 2 N 0 1.576 0 0
M  V30 3 C 0.933 2.03868 1.02534 0
M  V30 4 C 1.911 0.928543 1.3348 0
M  V30 5 O 3.095 1.19667 1.45644 0
M  V30 6 C 0.222 2.43627 2.35294 0
M  V30 7 C -0.732 3.65373 2.2001 0
M  V30 8 S 0.101 5.13292 1.52614 0
M  V30 9 C 1.257 5.56322 2.86805 0
M  V30 10 H 1.49 2.90518 0.631377 0
M  V30 11 H -0.977 1.52953 0.210867 0
M  V30 12 H 0.981 2.67203 3.11629 0
M  V30 13 H -0.358 1.57376 2.7183 0
M  V30 14 H -1.165 3.90944 3.18086 0
M  V30 15 H -1.563 3.418 1.51819 0
M  V30 16 H 0.729 5.58782 3.83104 0
M  V30 17 H 1.672 6.56266 2.65933 0
M  V30 18 H 2.08 4.83886 2.90714 0
M  V30 19 N 1.4781 -0.272755 1.55222 0
M  V30 20 C 2.7031 -1.02683 1.80197 0
M  V30 21 C 3.1281 -1.79142 0.573551 0
M  V30 22 O 2.4861 -1.74917 -0.476849 0
M  V30 23 C 2.5341 -1.9609 3.02624 0
M  V30 24 O 1.6381 -3.04863 2.77727 0
M  V30 25 H 0.9791 -0.293557 0.595584 0
M  V30 26 H 3.5091 -0.30159 2.02365 0
M  V30 27 H 3.5191 -2.38039 3.31363 0
M  V30 28 H 2.1941 -1.39851 3.91682 0
M  V30 29 H 0.7711 -2.67228 2.60084 0
M  V30 30 N 2.9562 -1.48159 -0.537278 0
M  V30 31 C 3.9042 -1.62573 -1.66352 0
M  V30 32 C 4.8982 -0.492366 -1.62087 0
M  V30 33 O 6.1042 -0.670847 -1.67032 0
M  V30 34 H 2.4792 -0.511992 -0.550789 0
M  V30 35 H 4.4502 -2.57176 -1.51337 0
M  V30 36 C 3.1992 -1.67583 -3.04649 0
M  V30 37 H 2.5222 -2.54151 -3.08622 0
M  V30 38 H 3.9622 -1.81713 -3.83088 0
M  V30 39 C 2.4212 -0.413039 -3.34358 0
M  V30 40 O 2.9512 0.477259 -3.98855 0
M  V30 41 N 1.1572 -0.286961 -2.8918 0
M  V30 42 H 0.7042 -1.01241 -2.36871 0
M  V30 43 H 0.6622 0.556963 -3.09427 0
M  V30 44 N 4.4343 0.785586 -1.36625 0
M  V30 45 C 5.3663 1.90711 -1.2713 0
M  V30 46 C 6.3793 1.61688 -0.189986 0
M  V30 47 O 7.5683 1.72864 -0.445014 0
M  V30 48 C 4.6683 3.25611 -0.939713 0
M  V30 49 C 3.8413 3.82385 -2.12369 0
M  V30 50 C 2.9003 4.95732 -1.76456 0
M  V30 51 O 1.9263 5.12047 -2.48589 0
M  V30 52 N 3.1283 5.76258 -0.700492 0
M  V30 53 H 5.8933 1.99376 -2.23762 0
M  V30 54 H 3.4543 0.964041 -1.30069 0
M  V30 55 H 5.4463 3.98937 -0.680554 0
M  V30 56 H 4.0163 3.12538 -0.0624074 0
M  V30 57 H 3.2363 3.01001 -2.54543 0
M  V30 58 H 4.5243 4.17047 -2.9146 0
M  V30 59 H 3.9223 5.65609 -0.101624 0
M  V30 60 H 2.4793 6.4987 -0.501165 0
M  V30 61 N 5.9124 1.20967 1.01018 0
M  V30 62 C 7.1604 1.02172 1.74371 0
M  V30 63 C 7.4814 -0.446414 1.89821 0
M  V30 64 O 6.7514 -1.32234 1.44537 0
M  V30 65 H 5.3314 0.375066 0.646014 0
M  V30 66 H 7.9934 1.52187 1.21758 0
M  V30 67 H 7.0894 1.48538 2.74487 0
M  V30 68 N 7.3905 -1.2043 1.01659 0
M  V30 69 C 8.3535 -2.21433 0.591616 0
M  V30 70 C 9.3535 -1.57203 -0.338226 0
M  V30 71 O 10.5435 -1.73737 -0.126918 0
M  V30 72 C 7.6755 -3.40628 -0.136058 0
M  V30 73 H 8.8685 -2.60545 1.48514 0
M  V30 74 H 6.4215 -1.33893 0.806379 0
M  V30 75 H 7.1565 -3.07019 -1.04449 0
M  V30 76 H 6.9415 -3.88475 0.531917 0
M  V30 77 H 8.4315 -4.15475 -0.420735 0
M  V30 78 N 8.8686 -0.792821 -1.36206 0
M  V30 79 C 10.1156 -0.366786 -1.99151 0
M  V30 80 C 10.4436 1.06243 -1.62919 0
M  V30 81 O 9.6986 1.74927 -0.877442 0
M  V30 82 C 9.9976 -0.481501 -3.54142 0
M  V30 83 C 9.6636 -1.87202 -4.10203 0
M  V30 84 C 8.3256 -2.25248 -4.25226 0
M  V30 85 C 10.6776 -2.78237 -4.40719 0
M  V30 86 C 8.0056 -3.53723 -4.68078 0
M  V30 87 C 10.3576 -4.06144 -4.85005 0
M  V30 88 C 9.0216 -4.44207 -4.98234 0
M  V30 89 H 8.2916 -0.134217 -0.728743 0
M  V30 90 H 10.9386 -1.01094 -1.62641 0
M  V30 91 H 9.2436 0.246146 -3.91026 0
M  V30 92 H 10.9406 -0.132844 -4.0078 0
M  V30 93 H 7.5306 -1.56639 -3.98951 0
M  V30 94 H 11.7146 -2.50097 -4.28679 0
M  V30 95 H 6.9706 -3.8308 -4.76508 0
M  V30 96 H 11.1446 -4.76796 -5.07581 0
M  V30 97 H 8.7716 -5.43814 -5.31197 0
M  V30 98 N 10.3467 1.47872 -0.545128 0
M  V30 99 C 11.6237 1.9554 0.0485222 0
M  V30 100 C 12.0037 1.4876 1.49779 0
M  V30 101 O 11.3517 0.720925 2.16829 0
M  V30 102 C 11.5617 3.48898 -0.084417 0
M  V30 103 C 12.9097 4.24547 0.0671239 0
M  V30 104 O 13.9337 3.56198 -0.0113649 0
M  V30 105 O 12.7927 5.45999 0.233882 0
M  V30 106 H 9.8867 0.823957 0.0708773 0
M  V30 107 H 12.4327 1.58327 -0.610798 0
M  V30 108 H 11.2047 3.75714 -1.09337 0
M  V30 109 H 10.8277 3.92845 0.613066 0
M  V30 110 N 11.8248 0.280983 1.55075 0
M  V30 111 C 13.0728 -0.333455 1.9933 0
M  V30 112 C 13.3938 -1.55937 1.17085 0
M  V30 113 O 12.6638 -1.94143 0.261805 0
M  V30 114 H 11.2438 -0.126197 0.736263 0
M  V30 115 H 13.9058 0.387678 1.91005 0
M  V30 116 H 13.0018 -0.619292 3.05894 0
M  V30 117 N 13.3029 -1.57598 0.00835791 0
M  V30 118 C 14.2659 -2.07884 -0.965242 0
M  V30 119 C 15.2659 -0.989825 -1.26725 0
M  V30 120 O 16.4559 -1.25218 -1.21104 0
M  V30 121 C 13.5879 -2.52731 -2.28779 0
M  V30 122 H 14.7809 -2.95178 -0.530112 0
M  V30 123 H 12.3339 -1.54458 -0.239283 0
M  V30 124 H 13.0689 -1.68705 -2.76964 0
M  V30 125 H 12.8539 -3.32272 -2.08177 0
M  V30 126 H 14.3439 -2.91933 -2.98605 0
M  V30 127 N 14.781 0.264519 -1.55364 0
M  V30 128 C 15.744 1.31046 -1.88042 0
M  V30 129 C 16.744 1.41943 -0.755569 0
M  V30 130 O 17.934 1.40947 -1.02369 0
M  V30 131 C 15.066 2.69067 -2.09323 0
M  V30 132 H 16.259 1.03297 -2.81549 0
M  V30 133 H 13.812 0.502989 -1.47986 0
M  V30 134 H 14.547 3.01982 -1.18226 0
M  V30 135 H 14.332 2.62542 -2.91229 0
M  V30 136 H 15.822 3.44623 -2.35848 0
M  V30 137 N 16.2591 1.48442 0.529413 0
M  V30 138 C 17.2071 1.63452 1.65487 0
M  V30 139 C 18.2011 0.500955 1.61823 0
M  V30 140 O 19.4071 0.679695 1.66674 0
M  V30 141 H 15.7821 0.514905 0.548066 0
M  V30 142 H 17.7531 2.57975 1.49971 0
M  V30 143 C 16.5021 1.69196 3.03756 0
M  V30 144 H 15.8251 2.55784 3.07269 0
M  V30 145 H 17.2651 1.83743 3.82119 0
M  V30 146 C 15.7241 0.430765 3.34135 0
M  V30 147 O 16.2541 -0.4561 3.99102 0
M  V30 148 N 14.4601 0.302293 2.89023 0
M  V30 149 H 14.0071 1.02496 2.36331 0
M  V30 150 H 13.9651 -0.540546 3.09718 0
M  V30 151 N 17.7372 -0.778329 1.37039 0
M  V30 152 C 18.9832 -1.53892 1.32079 0
M  V30 153 C 19.3162 -1.9396 -0.0965386 0
M  V30 154 O 18.5912 -1.63568 -1.05242 0
M  V30 155 C 18.8742 -2.80847 2.25382 0
M  V30 156 C 18.7272 -2.47076 3.75864 0
M  V30 157 C 20.0462 -3.82741 2.1725 0
M  V30 158 H 17.1652 -0.558303 0.48111 0
M  V30 159 H 19.8072 -0.893397 1.67685 0
M  V30 160 H 17.9572 -3.35931 1.95148 0
M  V30 161 H 19.6292 -1.97957 4.16666 0
M  V30 162 H 17.8722 -1.79863 3.94755 0
M  V30 163 H 18.5432 -3.37798 4.36574 0
M  V30 164 H 21.0192 -3.37133 2.43887 0
M  V30 165 H 19.8952 -4.69303 2.84686 0
M  V30 166 H 20.1562 -4.2652 1.16331 0
M  V30 167 N 19.2153 -1.21501 -1.00376 0
M  V30 168 C 20.1253 -0.991447 -2.12621 0
M  V30 169 C 21.1413 0.0568446 -1.73907 0
M  V30 170 O 22.3173 -0.13348 -2.00957 0
M  V30 171 C 19.3823 -0.560312 -3.42142 0
M  V30 172 C 18.4433 -1.68096 -3.95022 0
M  V30 173 C 17.6763 -1.2703 -5.18362 0
M  V30 174 O 17.8993 -0.144438 -5.70217 0
M  V30 175 O 16.8333 -2.08269 -5.64719 0
M  V30 176 H 20.6593 -1.93158 -2.34358 0
M  V30 177 H 18.2443 -0.999999 -1.10997 0
M  V30 178 H 20.1263 -0.329724 -4.20108 0
M  V30 179 H 18.8013 0.351089 -3.2179 0
M  V30 180 H 17.7083 -1.96597 -3.18278 0
M  V30 181 H 19.0413 -2.56983 -4.19786 0
M  V30 182 N 20.6934 1.19889 -1.02296 0
M  V30 183 C 21.9184 1.9393 -0.735237 0
M  V30 184 C 22.3434 1.74639 0.698782 0
M  V30 185 O 21.7014 1.04481 1.48167 0
M  V30 186 C 21.7494 3.43916 -1.08417 0
M  V30 187 O 20.8534 4.11917 -0.199446 0
M  V30 188 H 20.1944 0.605645 -0.272196 0
M  V30 189 H 22.7244 1.52137 -1.36804 0
M  V30 190 H 22.7344 3.9456 -1.03856 0
M  V30 191 H 21.4094 3.5728 -2.12894 0
M  V30 192 H 19.9864 3.71666 -0.303136 0
M  V30 193 N 22.1715 0.800033 1.35784 0
M  V30 194 C 23.4195 0.376597 1.9856 0
M  V30 195 C 23.7405 -1.05812 1.63795 0
M  V30 196 O 23.0105 -1.73103 0.917171 0
M  V30 197 H 21.5905 0.136261 0.734467 0
M  V30 198 H 24.2525 1.02442 1.65806 0
M  V30 199 H 23.3485 0.477002 3.08433 0
M  V30 200 N 23.6496 -1.47581 0.552962 0
M  V30 201 C 24.8746 -2.07378 0.0300593 0
M  V30 202 C 25.2996 -1.40355 -1.25229 0
M  V30 203 O 24.6576 -0.477099 -1.7491 0
M  V30 204 C 24.7056 -3.60274 -0.153231 0
M  V30 205 O 23.8096 -3.94041 -1.21678 0
M  V30 206 H 23.1506 -0.662158 0.0494182 0
M  V30 207 H 25.6806 -1.89662 0.767434 0
M  V30 208 H 25.6906 -4.0633 -0.368761 0
M  V30 209 H 24.3656 -4.08455 0.783397 0
M  V30 210 H 22.9426 -3.59735 -0.982079 0
M  V30 211 N 25.1277 -0.289203 -1.54924 0
M  V30 212 C 26.5437 0.0645403 -1.59469 0
M  V30 213 C 26.7437 1.53419 -1.30632 0
M  V30 214 O 25.7997 2.2852 -1.074 0
M  V30 215 C 27.1127 -0.32278 -2.98963 0
M  V30 216 C 28.6607 -0.270564 -3.11828 0
M  V30 217 C 29.1357 -0.632532 -4.53611 0
M  V30 218 N 30.6267 -0.584617 -4.59496 0
M  V30 219 C 31.3617 -0.837314 -5.67254 0
M  V30 220 N 30.8577 -1.15536 -6.83098 0
M  V30 221 N 32.6507 -0.765166 -5.56868 0
M  V30 222 H 24.8017 -1.24714 -1.71931 0
M  V30 223 H 27.0647 -0.504809 -0.802416 0
M  V30 224 H 26.7707 -1.34541 -3.24948 0
M  V30 225 H 26.6447 0.32944 -3.75759 0
M  V30 226 H 29.0317 0.742805 -2.85598 0
M  V30 227 H 29.1127 -0.957242 -2.37214 0
M  V30 228 H 28.7567 -1.64365 -4.80569 0
M  V30 229 H 28.6867 0.07609 -5.26545 0
M  V30 230 H 31.1777 -0.349248 -3.76283 0
M  V30 231 H 31.4907 -1.33447 -7.61191 0
M  V30 232 H 29.8357 -1.19328 -6.84679 0
M  V30 233 H 33.0267 -0.516432 -4.65243 0
M  V30 234 H 33.1997 -0.965477 -6.40767 0
M  V30 235 N 26.6058 1.57591 -0.0167156 0
M  V30 236 C 27.8518 1.91567 0.665582 0
M  V30 237 C 28.1848 0.892298 1.72487 0
M  V30 238 O 27.4598 -0.0867127 1.94307 0
M  V30 239 C 27.7428 3.36069 1.29342 0
M  V30 240 C 27.5958 4.49135 0.244541 0
M  V30 241 C 28.9148 3.803 2.21495 0
M  V30 242 H 26.0338 0.69666 0.240488 0
M  V30 243 H 28.6758 1.89866 -0.0714356 0
M  V30 244 H 26.8258 3.3765 1.92158 0
M  V30 245 H 28.4978 4.59689 -0.385228 0
M  V30 246 H 26.7408 4.3165 -0.431379 0
M  V30 247 H 27.4118 5.47242 0.723207 0
M  V30 248 H 29.8878 3.80377 1.68678 0
M  V30 249 H 28.7638 4.82127 2.62382 0
M  V30 250 H 29.0248 3.15104 3.101 0
M  V30 251 N 28.0839 -0.256276 1.55502 0
M  V30 252 C 29.3309 -0.985619 1.76895 0
M  V30 253 C 29.6589 -1.85671 0.579355 0
M  V30 254 O 28.9139 -1.90744 -0.437651 0
M  V30 255 C 29.2129 -1.88432 3.03691 0
M  V30 256 C 28.8789 -1.16936 4.35473 0
M  V30 257 C 27.5409 -0.97173 4.71286 0
M  V30 258 C 29.8929 -0.661889 5.1698 0
M  V30 259 C 27.2209 -0.254179 5.86149 0
M  V30 260 C 29.5729 0.042149 6.32586 0
M  V30 261 C 28.2369 0.25134 6.67027 0
M  V30 262 H 27.5069 -0.360663 0.647304 0
M  V30 263 H 30.1539 -0.256483 1.89775 0
M  V30 264 H 28.4589 -2.68021 2.85783 0
M  V30 265 H 30.1559 -2.45015 3.1744 0
M  V30 266 H 26.7459 -1.33332 4.07333 0
M  V30 267 H 30.9299 -0.802145 4.89775 0
M  V30 268 H 26.1859 -0.0815408 6.11346 0
M  V30 269 H 30.3599 0.443049 6.94989 0
M  V30 270 H 27.9869 0.809314 7.5588 0
M  V30 271 N 29.562 -1.4872 -0.521534 0
M  V30 272 C 30.808 -1.574 -1.27879 0
M  V30 273 C 31.141 -0.250817 -1.92573 0
M  V30 274 O 30.416 0.743934 -1.79711 0
M  V30 275 C 30.699 -2.71843 -2.36164 0
M  V30 276 C 30.552 -4.13893 -1.76105 0
M  V30 277 C 31.871 -2.82008 -3.37875 0
M  V30 278 H 28.99 -0.572941 -0.463581 0
M  V30 279 H 31.632 -1.80927 -0.580119 0
M  V30 280 H 29.782 -2.51914 -2.95756 0
M  V30 281 H 31.454 -4.45284 -1.20499 0
M  V30 282 H 29.697 -4.20498 -1.06601 0
M  V30 283 H 30.368 -4.89804 -2.5455 0
M  V30 284 H 32.844 -3.00086 -2.88249 0
M  V30 285 H 31.72 -3.63796 -4.11028 0
M  V30 286 H 31.981 -1.90511 -3.98946 0
M  V30 287 N 31.0401 0.771051 -1.3745 0
M  V30 288 C 32.2701 1.55789 -1.35696 0
M  V30 289 C 32.6781 1.89107 0.0594523 0
M  V30 290 O 32.0211 1.51984 1.03183 0
M  V30 291 C 32.0831 2.89515 -2.13123 0
M  V30 292 C 31.7471 2.78829 -3.62082 0
M  V30 293 C 32.7441 2.49812 -4.5595 0
M  V30 294 C 30.4291 2.9683 -4.05213 0
M  V30 295 C 32.4231 2.38923 -5.90927 0
M  V30 296 C 30.1101 2.85562 -5.40276 0
M  V30 297 C 31.1081 2.56649 -6.32946 0
M  V30 298 O 30.7961 2.45408 -7.65526 0
M  V30 299 H 30.5281 0.489257 -0.466481 0
M  V30 300 H 33.0821 0.963446 -1.81403 0
M  V30 301 H 31.3121 3.51081 -1.62107 0
M  V30 302 H 33.0011 3.50915 -2.03994 0
M  V30 303 H 33.7671 2.3559 -4.23937 0
M  V30 304 H 29.6461 3.18335 -3.33442 0
M  V30 305 H 33.1901 2.16277 -6.63227 0
M  V30 306 H 29.0871 2.99351 -5.71891 0
M  V30 307 H 29.8551 2.60753 -7.75855 0
M  V30 308 N 32.5182 1.22032 0.997298 0
M  V30 309 C 33.4282 1.00271 2.12092 0
M  V30 310 C 34.4442 -0.047621 1.73935 0
M  V30 311 O 35.6202 0.144136 2.00884 0
M  V30 312 C 32.6852 0.578449 3.4184 0
M  V30 313 C 31.7462 1.70189 3.94125 0
M  V30 314 C 30.9792 1.29778 5.17681 0
M  V30 315 O 31.2022 0.174676 5.70132 0
M  V30 316 O 30.1362 2.11261 5.63607 0
M  V30 317 H 33.9622 1.94398 2.3333 0
M  V30 318 H 31.5472 1.00587 1.10465 0
M  V30 319 H 33.4292 0.351998 4.19927 0
M  V30 320 H 32.1042 -0.334019 3.21972 0
M  V30 321 H 31.0112 1.98282 3.1723 0
M  V30 322 H 32.3442 2.59206 4.18417 0
M  V30 323 N 33.9963 -1.19345 1.0293 0
M  V30 324 C 35.2423 -1.89318 0.727083 0
M  V30 325 C 35.5753 -1.79446 -0.742483 0
M  V30 326 O 34.8503 -1.1871 -1.54072 0
M  V30 327 C 35.1333 -3.40238 1.17942 0
M  V30 328 C 34.9863 -3.58979 2.71024 0
M  V30 329 C 36.3053 -4.33479 0.760548 0
M  V30 330 H 33.4243 -0.687475 0.265606 0
M  V30 331 H 36.0663 -1.40477 1.2793 0
M  V30 332 H 34.2163 -3.81964 0.709608 0
M  V30 333 H 35.8883 -3.26421 3.25955 0
M  V30 334 H 34.1313 -3.02018 3.11396 0
M  V30 335 H 34.8023 -4.64823 2.9773 0
M  V30 336 H 37.2783 -3.99469 1.16464 0
M  V30 337 H 36.1543 -5.37664 1.10493 0
M  V30 338 H 36.4153 -4.40813 -0.337063 0
M  V30 339 N 35.4744 -0.807222 -1.35358 0
M  V30 340 C 36.7204 -0.388463 -1.99045 0
M  V30 341 C 37.0534 1.04184 -1.63888 0
M  V30 342 O 36.3284 1.72292 -0.902535 0
M  V30 343 C 36.6114 -0.572783 -3.55515 0
M  V30 344 C 36.4644 -2.04807 -4.00468 0
M  V30 345 C 37.7834 0.00114064 -4.401 0
M  V30 346 H 34.9024 -0.142619 -0.723069 0
M  V30 347 H 37.5444 -1.01687 -1.60498 0
M  V30 348 H 35.6944 -0.0378425 -3.88482 0
M  V30 349 H 37.3664 -2.64544 -3.77908 0
M  V30 350 H 35.6094 -2.54427 -3.51353 0
M  V30 351 H 36.2804 -2.12792 -5.09337 0
M  V30 352 H 38.7564 -0.455716 -4.13597 0
M  V30 353 H 37.6324 -0.157737 -5.48673 0
M  V30 354 H 37.8934 1.09488 -4.28328 0
M  V30 355 N 36.9525 1.47285 -0.560781 0
M  V30 356 C 38.2005 2.02064 -0.0379868 0
M  V30 357 C 38.5215 1.43711 1.31803 0
M  V30 358 O 37.7915 0.61362 1.86042 0
M  V30 359 H 36.3715 0.746918 -0.0110531 0
M  V30 360 H 39.0335 1.80648 -0.731598 0
M  V30 361 H 38.1295 3.12064 0.0474463 0
M  V30 362 N 38.4306 0.297415 1.54768 0
M  V30 363 C 39.3636 -0.622188 2.19554 0
M  V30 364 C 40.3416 -1.13558 1.16376 0
M  V30 365 O 41.5256 -1.20444 1.45002 0
M  V30 366 C 38.6526 -1.8509 2.83653 0
M  V30 367 C 37.6986 -1.47106 4.00328 0
M  V30 368 S 38.5316 -0.53006 5.3287 0
M  V30 369 C 39.6876 -1.76665 6.0045 0
M  V30 370 H 39.9206 -0.0717806 2.97213 0
M  V30 371 H 37.4536 0.0815678 1.54184 0
M  V30 372 H 39.4116 -2.55605 3.21211 0
M  V30 373 H 38.0726 -2.37247 2.05846 0
M  V30 374 H 37.2656 -2.38594 4.43947 0
M  V30 375 H 36.8676 -0.845885 3.64309 0
M  V30 376 H 39.1596 -2.7077 6.21039 0
M  V30 377 H 40.1026 -1.37308 6.9466 0
M  V30 378 H 40.5106 -1.94174 5.30054 0
M  V30 379 N 39.9087 -1.5758 0.0250728 0
M  V30 380 C 41.3247 -1.56124 -0.331282 0
M  V30 381 C 41.5247 -1.03029 -1.73169 0
M  V30 382 O 40.5807 -0.675215 -2.43305 0
M  V30 383 C 41.8937 -3.00139 -0.183584 0
M  V30 384 C 43.4417 -3.11946 -0.256654 0
M  V30 385 C 43.9167 -4.57793 -0.137792 0
M  V30 386 N 45.4077 -4.6279 -0.194904 0
M  V30 387 C 46.1427 -5.7326 -0.126655 0
M  V30 388 N 45.6387 -6.928 -0.00755288 0
M  V30 389 N 47.4317 -5.61811 -0.180348 0
M  V30 390 H 39.5827 -1.90424 0.94087 0
M  V30 391 H 41.8457 -0.875761 0.362968 0
M  V30 392 H 41.5517 -3.4292 0.780927 0
M  V30 393 H 41.4257 -3.64899 -0.955448 0
M  V30 394 H 43.8127 -2.69079 -1.21162 0
M  V30 395 H 43.8937 -2.49915 0.545517 0
M  V30 396 H 43.5377 -5.01339 0.813739 0
M  V30 397 H 43.4677 -5.17798 -0.958775 0
M  V30 398 H 45.9587 -3.76807 -0.287267 0
M  V30 399 H 46.2717 -7.72791 0.0379428 0
M  V30 400 H 44.6167 -6.94995 0.0271731 0
M  V30 401 H 47.8077 -4.6731 -0.271767 0
M  V30 402 H 47.9807 -6.47882 -0.123697 0
M  V30 403 N 41.3868 0.248026 -1.55636 0
M  V30 404 C 42.3188 1.32993 -1.8667 0
M  V30 405 C 43.3318 1.44345 -0.752877 0
M  V30 406 O 44.5208 1.45715 -1.03098 0
M  V30 407 C 41.6208 2.70863 -2.03682 0
M  V30 408 C 40.7938 2.81792 -3.34532 0
M  V30 409 C 39.8528 4.005 -3.41301 0
M  V30 410 O 38.8788 3.9008 -4.14519 0
M  V30 411 N 40.0808 5.13618 -2.70512 0
M  V30 412 H 42.8458 1.06707 -2.8006 0
M  V30 413 H 40.4068 0.438129 -1.55859 0
M  V30 414 H 42.3988 3.48612 -2.05553 0
M  V30 415 H 40.9688 2.89862 -1.17041 0
M  V30 416 H 40.1888 1.90729 -3.44987 0
M  V30 417 H 41.4768 2.86043 -4.20781 0
M  V30 418 H 40.8748 5.24975 -2.10755 0
M  V30 419 H 39.4318 5.89505 -2.78077 0
M  V30 420 N 42.8649 1.48995 0.513639 0
M  V30 421 C 43.8129 1.65199 1.63744 0
M  V30 422 C 44.8069 0.51809 1.61283 0
M  V30 423 O 46.0129 0.697335 1.65943 0
M  V30 424 H 42.3879 0.52069 0.542574 0
M  V30 425 H 44.3589 2.59552 1.47226 0
M  V30 426 C 43.1079 1.72409 3.01945 0
M  V30 427 H 42.4309 2.59029 3.04539 0
M  V30 428 H 43.8709 1.87785 3.80148 0
M  V30 429 C 42.3299 0.46618 3.33659 0
M  V30 430 O 42.8599 -0.413744 3.99564 0
M  V30 431 N 41.0659 0.332931 2.88687 0
M  V30 432 H 40.6129 1.04996 2.35231 0
M  V30 433 H 40.5709 -0.507665 3.10274 0
M  V30 434 N 44.343 -0.763751 1.37857 0
M  V30 435 C 45.253 -1.90817 1.36478 0
M  V30 436 C 46.269 -1.71997 0.263248 0
M  V30 437 O 47.445 -1.95095 0.499979 0
M  V30 438 C 44.51 -3.2605 1.17864 0
M  V30 439 C 43.571 -3.57467 2.3773 0
M  V30 440 C 42.804 -4.86249 2.19995 0
M  V30 441 O 43.027 -5.57884 1.18836 0
M  V30 442 O 41.961 -5.16911 3.08361 0
M  V30 443 H 45.787 -1.94933 2.32884 0
M  V30 444 H 43.372 -0.907619 1.1867 0
M  V30 445 H 45.254 -4.06924 1.09504 0
M  V30 446 H 43.929 -3.22769 0.245372 0
M  V30 447 H 42.836 -2.76796 2.51664 0
M  V30 448 H 44.169 -3.655 3.29652 0
M  V30 449 N 45.8211 -1.22559 -0.990812 0
M  V30 450 C 46.7311 -1.01394 -2.11557 0
M  V30 451 C 47.7471 0.0383962 -1.73958 0
M  V30 452 O 48.9231 -0.154787 -2.00804 0
M  V30 453 C 45.9881 -0.596569 -3.41529 0
M  V30 454 C 45.0491 -1.72276 -3.93217 0
M  V30 455 C 44.2821 -1.32521 -5.16985 0
M  V30 456 O 44.5051 -0.204909 -5.70032 0
M  V30 457 O 43.4391 -2.14247 -5.62478 0
M  V30 458 H 47.2651 -1.95633 -2.32296 0
M  V30 459 H 44.8501 -1.01172 -1.0993 0
M  V30 460 H 46.7321 -0.374263 -4.19735 0
M  V30 461 H 45.4071 0.316939 -3.22145 0
M  V30 462 H 44.3141 -1.99961 -3.16174 0
M  V30 463 H 45.6471 -2.61421 -4.17037 0
M  V30 464 N 47.2992 1.18797 -1.03562 0
M  V30 465 C 48.5272 1.92599 -0.755869 0
M  V30 466 C 48.9422 1.75886 0.686271 0
M  V30 467 O 48.2992 1.08517 1.46732 0
M  V30 468 C 48.3502 3.44159 -1.10619 0
M  V30 469 O 48.0712 3.60341 -2.4917 0
M  V30 470 C 49.5722 4.3507 -0.850214 0
M  V30 471 H 46.7922 0.611587 -0.276048 0
M  V30 472 H 49.3362 1.50742 -1.38192 0
M  V30 473 H 47.4912 3.83823 -0.525194 0
M  V30 474 H 47.9052 4.54128 -2.62427 0
M  V30 475 H 49.3792 5.39989 -1.14523 0
M  V30 476 H 49.8562 4.38673 0.215176 0
M  V30 477 H 50.4622 4.01097 -1.41426 0
M  V30 478 N 48.7773 0.814389 1.34928 0
M  V30 479 C 50.0543 0.321363 1.92942 0
M  V30 480 C 50.4343 -1.19014 1.74353 0
M  V30 481 O 49.7823 -1.99328 1.11716 0
M  V30 482 C 49.9923 0.741323 3.41036 0
M  V30 483 C 51.3403 0.735266 4.18185 0
M  V30 484 O 52.3643 0.68336 3.49584 0
M  V30 485 O 51.2233 0.800703 5.40602 0
M  V30 486 H 48.3173 0.0858893 0.822528 0
M  V30 487 H 50.8633 0.898609 1.43955 0
M  V30 488 H 49.6353 1.78276 3.4833 0
M  V30 489 H 49.2583 0.139307 3.97356 0
M  V30 490 N 50.2554 -1.46986 0.568584 0
M  V30 491 C 51.1874 -2.28233 -0.210337 0
M  V30 492 C 52.2004 -1.37682 -0.868767 0
M  V30 493 O 53.3894 -1.62406 -0.740705 0
M  V30 494 C 50.4894 -3.12293 -1.3163 0
M  V30 495 C 49.6624 -4.30878 -0.7525 0
M  V30 496 C 48.7214 -4.96445 -1.74439 0
M  V30 497 O 47.7474 -5.54482 -1.286 0
M  V30 498 N 48.9494 -4.92171 -3.07812 0
M  V30 499 H 51.7144 -2.95723 0.486648 0
M  V30 500 H 49.2754 -1.56742 0.405409 0
M  V30 501 H 51.2674 -3.53022 -1.97883 0
M  V30 502 H 49.8374 -2.46971 -1.91636 0
M  V30 503 H 49.0574 -3.94104 0.0871128 0
M  V30 504 H 50.3454 -5.07558 -0.35536 0
M  V30 505 H 49.7434 -4.46239 -3.47688 0
M  V30 506 H 48.3004 -5.36884 -3.69592 0
M  V30 507 N 51.7335 -0.305618 -1.54608 0
M  V30 508 C 52.9615 0.304775 -2.04643 0
M  V30 509 C 53.3765 1.47167 -1.18268 0
M  V30 510 O 52.7335 1.81296 -0.209328 0
M  V30 511 C 52.7845 0.756564 -3.53495 0
M  V30 512 O 52.5055 -0.36389 -4.36586 0
M  V30 513 C 54.0065 1.43163 -4.19546 0
M  V30 514 H 51.2265 0.0655481 -0.667791 0
M  V30 515 H 53.7705 -0.446592 -1.99564 0
M  V30 516 H 51.9255 1.45794 -3.58919 0
M  V30 517 H 52.3395 -0.0113121 -5.24499 0
M  V30 518 H 53.8135 1.69886 -5.25207 0
M  V30 519 H 54.2905 2.37318 -3.69563 0
M  V30 520 H 54.8965 0.773307 -4.18211 0
M  V30 521 N 53.2116 1.57565 -0.0334293 0
M  V30 522 C 54.1596 2.1164 0.96496 0
M  V30 523 C 55.1536 1.04398 1.33407 0
M  V30 524 O 56.3596 1.22828 1.3158 0
M  V30 525 H 52.7346 0.676222 0.32898 0
M  V30 526 H 54.7056 2.94455 0.483614 0
M  V30 527 C 53.4546 2.66207 2.23672 0
M  V30 528 H 52.7776 3.48378 1.96145 0
M  V30 529 H 54.2176 3.07685 2.9173 0
M  V30 530 C 52.6766 1.59151 2.96939 0
M  V30 531 O 53.2066 0.993858 3.89211 0
M  V30 532 N 51.4126 1.31093 2.59351 0
M  V30 533 H 50.9596 1.7988 1.84393 0
M  V30 534 H 50.9176 0.596889 3.08682 0
M  V30 535 N 54.6897 -0.239769 1.55765 0
M  V30 536 C 55.9197 -0.982743 1.8173 0
M  V30 537 C 56.3277 -1.7917 0.607835 0
M  V30 538 O 55.6707 -1.78525 -0.432973 0
M  V30 539 C 55.7327 -1.96332 3.01155 0
M  V30 540 C 55.3967 -1.34062 4.36894 0
M  V30 541 C 56.3937 -0.739539 5.14613 0
M  V30 542 C 54.0787 -1.35784 4.83599 0
M  V30 543 C 56.0727 -0.163989 6.37189 0
M  V30 544 C 53.7597 -0.778441 6.06122 0
M  V30 545 C 54.7577 -0.182548 6.82756 0
M  V30 546 O 54.4457 0.387887 8.02964 0
M  V30 547 H 54.1777 -0.294481 0.608487 0
M  V30 548 H 56.7317 -0.26572 2.03674 0
M  V30 549 H 54.9617 -2.71884 2.74984 0
M  V30 550 H 56.6507 -2.57032 3.14149 0
M  V30 551 H 57.4167 -0.718687 4.79646 0
M  V30 552 H 53.2957 -1.81105 4.23936 0
M  V30 553 H 56.8397 0.301753 6.96947 0
M  V30 554 H 52.7367 -0.796645 6.40565 0
M  V30 555 H 53.5047 0.28044 8.18019 0
M  V30 556 N 56.1678 -1.49265 -0.50573 0
M  V30 557 C 57.5788 -1.51769 -1.08734 0
M  V30 558 C 57.9298 -0.301192 -1.93874 0
M  V30 559 O 57.0548 0.589456 -2.08217 0
M  V30 560 C 57.6498 -2.75017 -1.97867 0
M  V30 561 C 56.2088 -2.80314 -2.51199 0
M  V30 562 C 55.3558 -2.4562 -1.28709 0
M  V30 563 H 58.3068 -1.56031 -0.289855 0
M  V30 564 H 58.3278 -2.5491 -2.82491 0
M  V30 565 H 57.8398 -3.63539 -1.35873 0
M  V30 566 H 55.9408 -1.96061 -3.16845 0
M  V30 567 H 56.0538 -3.82366 -2.88675 0
M  V30 568 H 54.4178 -1.97297 -1.61078 0
M  V30 569 H 55.2008 -3.36411 -0.6843 0
M  V30 570 N 57.6459 0.756429 -1.3826 0
M  V30 571 C 58.8949 1.51082 -1.3363 0
M  V30 572 C 59.2079 1.95467 0.0720068 0
M  V30 573 O 60.4139 2.7043 0.240834 0
M  V30 574 C 58.8699 2.72893 -2.34644 0
M  V30 575 C 58.4779 2.35544 -3.81081 0
M  V30 576 C 60.2219 3.50791 -2.39052 0
M  V30 577 C 58.1289 3.53948 -4.73787 0
M  V30 578 H 57.0589 0.56727 -0.49671 0
M  V30 579 H 59.7099 0.827147 -1.638 0
M  V30 580 H 58.0919 3.43227 -1.97513 0
M  V30 581 H 59.2659 1.72894 -4.27135 0
M  V30 582 H 57.5809 1.70786 -3.79764 0
M  V30 583 H 60.1779 4.38823 -3.05513 0
M  V30 584 H 60.5209 3.91745 -1.40861 0
M  V30 585 H 61.0539 2.87467 -2.74968 0
M  V30 586 H 57.7929 3.18064 -5.73163 0
M  V30 587 H 57.3129 4.15651 -4.32428 0
M  V30 588 H 58.9919 4.20566 -4.91663 0
M  V30 589 N 59.124 1.23083 0.984299 0
M  V30 590 C 60.54 0.992637 1.24975 0
M  V30 591 C 60.74 -0.308618 1.99123 0
M  V30 592 O 59.796 -1.02905 2.30579 0
M  V30 593 C 61.109 2.19698 2.05312 0
M  V30 594 C 62.657 2.24147 2.18465 0
M  V30 595 C 63.132 3.44157 3.02192 0
M  V30 596 N 64.623 3.44372 3.09777 0
M  V30 597 C 65.358 4.33886 3.74874 0
M  V30 598 N 64.854 5.3363 4.41827 0
M  V30 599 N 66.647 4.21639 3.71721 0
M  V30 600 H 58.798 2.06731 0.487453 0
M  V30 601 H 61.061 0.906339 0.277944 0
M  V30 602 H 60.767 3.1411 1.58201 0
M  V30 603 H 60.641 2.20465 3.06064 0
M  V30 604 H 63.028 1.30277 2.64786 0
M  V30 605 H 63.109 2.27415 1.17115 0
M  V30 606 H 62.753 4.38332 2.56568 0
M  V30 607 H 62.683 3.3813 4.03702 0
M  V30 608 H 65.174 2.72201 2.62135 0
M  V30 609 H 65.487 5.98196 4.89266 0
M  V30 610 H 63.832 5.37534 4.40548 0
M  V30 611 H 67.023 3.42962 3.18582 0
M  V30 612 H 67.196 4.91604 4.22173 0
M  V30 613 N 60.6021 -1.18246 1.0419 0
M  V30 614 C 61.5491 -2.2192 0.634037 0
M  V30 615 C 62.5191 -1.62179 -0.358765 0
M  V30 616 O 63.7041 -1.89122 -0.252466 0
M  V30 617 C 60.8441 -3.451 0.00445535 0
M  V30 618 C 59.9571 -4.19174 1.04487 0
M  V30 619 C 59.0921 -5.29813 0.383676 0
M  V30 620 C 58.1311 -5.9566 1.4091 0
M  V30 621 N 57.2681 -6.97834 0.772784 0
M  V30 622 H 62.1081 -2.56164 1.52263 0
M  V30 623 H 59.6451 -1.25843 0.761701 0
M  V30 624 H 61.6031 -4.15485 -0.377919 0
M  V30 625 H 60.2331 -3.11472 -0.847652 0
M  V30 626 H 59.2851 -3.47604 1.54518 0
M  V30 627 H 60.5971 -4.64267 1.82368 0
M  V30 628 H 59.7511 -6.06677 -0.0528366 0
M  V30 629 H 58.4901 -4.85825 -0.427208 0
M  V30 630 H 57.4951 -5.17535 1.85574 0
M  V30 631 H 58.7201 -6.4173 2.22171 0
M  V30 632 H 56.6661 -6.55998 -0.0177708 0
M  V30 633 H 56.5831 -7.41186 1.48928 0
M  V30 634 H 57.8511 -7.78665 0.36071 0
M  V30 635 N 62.0802 -0.821533 -1.34494 0
M  V30 636 C 63.3052 -0.420873 -2.03085 0
M  V30 637 C 63.7302 0.964915 -1.61465 0
M  V30 638 O 63.0882 1.62763 -0.798607 0
M  V30 639 C 63.1362 -0.529414 -3.56693 0
M  V30 640 O 62.2402 0.451302 -4.09923 0
M  V30 641 H 61.5812 -0.173489 -0.640935 0
M  V30 642 H 64.1112 -1.11157 -1.71771 0
M  V30 643 H 64.1212 -0.404671 -4.05988 0
M  V30 644 H 62.7962 -1.54014 -3.86332 0
M  V30 645 H 61.3732 0.285558 -3.71805 0
M  V30 646 N 63.5583 1.46682 -0.576371 0
M  V30 647 C 64.8063 2.02013 -0.0594163 0
M  V30 648 C 65.1273 1.45101 1.30271 0
M  V30 649 O 64.3973 0.633317 1.8538 0
M  V30 650 H 62.9773 0.746759 -0.0189745 0
M  V30 651 H 65.6393 1.79862 -0.750717 0
M  V30 652 H 64.7353 3.12097 0.014345 0
M  V30 653 N 65.0364 0.313813 1.54444 0
M  V30 654 C 66.2614 -0.296681 2.05267 0
M  V30 655 C 66.6864 -1.45757 1.18897 0
M  V30 656 O 66.0444 -1.80239 0.195886 0
M  V30 657 C 66.0924 -0.71831 3.53373 0
M  V30 658 O 65.1964 -1.82175 3.69981 0
M  V30 659 H 64.5374 -0.0554061 0.661684 0
M  V30 660 H 67.0674 0.459387 1.99376 0
M  V30 661 H 67.0774 -1.00364 3.95463 0
M  V30 662 H 65.7524 0.130821 4.15694 0
M  V30 663 H 64.3294 -1.53598 3.39797 0
M  V30 664 N 66.5145 -1.57545 0.0417849 0
M  V30 665 C 67.7605 -1.92601 -0.635021 0
M  V30 666 C 68.0935 -0.919627 -1.71045 0
M  V30 667 O 67.3685 0.0557892 -1.9442 0
M  V30 668 C 67.6515 -3.38085 -1.23979 0
M  V30 669 C 67.5045 -4.49467 -0.173057 0
M  V30 670 C 68.8235 -3.83776 -2.15416 0
M  V30 671 H 65.9425 -0.700397 -0.229374 0
M  V30 672 H 68.5845 -1.89728 0.101633 0
M  V30 673 H 66.7345 -3.40664 -1.86762 0
M  V30 674 H 68.4065 -4.59018 0.458312 0
M  V30 675 H 66.6495 -4.30909 0.499996 0
M  V30 676 H 67.3205 -5.48323 -0.636054 0
M  V30 677 H 69.7965 -3.83013 -1.62605 0
M  V30 678 H 68.6725 -4.8624 -2.54679 0
M  V30 679 H 68.9335 -3.19998 -3.05047 0
M  V30 680 N 67.9926 0.231505 -1.5589 0
M  V30 681 C 69.2396 0.957352 -1.78441 0
M  V30 682 C 69.5676 1.84726 -0.60882 0
M  V30 683 O 68.8226 1.91416 0.40725 0
M  V30 684 C 69.1216 1.83577 -3.0665 0
M  V30 685 C 68.7876 1.09993 -4.37278 0
M  V30 686 C 67.4496 0.896629 -4.72773 0
M  V30 687 C 69.8016 0.579558 -5.17968 0
M  V30 688 C 67.1296 0.160896 -5.86479 0
M  V30 689 C 69.4816 -0.142783 -6.32439 0
M  V30 690 C 68.1456 -0.357427 -6.66542 0
M  V30 691 H 67.4156 0.35032 -0.65296 0
M  V30 692 H 70.0626 0.226259 -1.90159 0
M  V30 693 H 68.3676 2.63441 -2.90011 0
M  V30 694 H 70.0646 2.39934 -3.21298 0
M  V30 695 H 66.6546 1.26835 -4.09403 0
M  V30 696 H 70.8386 0.724125 -4.90989 0
M  V30 697 H 66.0946 -0.0157293 -6.11398 0
M  V30 698 H 70.2686 -0.553559 -6.94196 0
M  V30 699 H 67.8956 -0.929466 -7.54497 0
M  V30 700 N 69.4707 1.49531 0.497807 0
M  V30 701 C 70.7197 1.58426 1.24837 0
M  V30 702 C 71.0327 0.277643 1.93619 0
M  V30 703 O 72.2387 0.24517 2.70391 0
M  V30 704 C 70.6947 2.79538 2.26686 0
M  V30 705 C 70.3027 4.16971 1.63828 0
M  V30 706 C 72.0467 2.97764 3.0255 0
M  V30 707 C 69.9537 5.29301 2.63807 0
M  V30 708 H 68.8837 0.58989 0.469623 0
M  V30 709 H 71.5347 1.75923 0.521857 0
M  V30 710 H 69.9167 2.55542 3.02514 0
M  V30 711 H 71.0907 4.51116 0.939711 0
M  V30 712 H 69.4057 4.04129 1.00342 0
M  V30 713 H 72.0027 3.78856 3.77323 0
M  V30 714 H 72.3457 2.08448 3.60354 0
M  V30 715 H 72.8787 3.21815 2.33838 0
M  V30 716 H 69.6177 6.20687 2.10779 0
M  V30 717 H 69.1377 4.99606 3.31894 0
M  V30 718 H 70.8167 5.58768 3.2617 0
M  V30 719 N 70.9488 -0.749086 1.3866 0
M  V30 720 C 72.3648 -1.05276 1.19955 0
M  V30 721 C 72.5648 -2.01435 0.05134 0
M  V30 722 O 71.6208 -2.45232 -0.60147 0
M  V30 723 C 72.9338 -1.62853 2.52783 0
M  V30 724 C 74.4818 -1.75002 2.59506 0
M  V30 725 C 74.9568 -2.35991 3.92521 0
M  V30 726 N 76.4478 -2.43416 3.94085 0
M  V30 727 C 77.1828 -2.91511 4.9377 0
M  V30 728 N 76.6788 -3.39608 6.03853 0
M  V30 729 N 78.4718 -2.90592 4.81157 0
M  V30 730 H 70.6228 -0.111066 2.12109 0
M  V30 731 H 72.8858 -0.111901 0.941373 0
M  V30 732 H 72.5918 -0.99664 3.37283 0
M  V30 733 H 72.4658 -2.61854 2.715 0
M  V30 734 H 74.8528 -2.37317 1.75398 0
M  V30 735 H 74.9338 -0.74693 2.44652 0
M  V30 736 H 74.5778 -1.74308 4.77053 0
M  V30 737 H 74.5078 -3.3695 4.04688 0
M  V30 738 H 76.9988 -2.09405 3.14576 0
M  V30 739 H 77.3118 -3.74775 6.75843 0
M  V30 740 H 75.6568 -3.37653 6.07466 0
M  V30 741 H 78.8478 -2.52332 3.94267 0
M  V30 742 H 79.0208 -3.27762 5.58996 0
M  V30 743 N 72.4269 -1.23603 -0.977757 0
M  V30 744 C 73.6729 -1.07129 -1.72195 0
M  V30 745 C 74.0059 0.390501 -1.90233 0
M  V30 746 O 73.2809 1.28902 -1.45653 0
M  V30 747 C 73.5639 -1.80031 -3.11867 0
M  V30 748 C 73.4169 -3.33899 -3.01383 0
M  V30 749 C 74.7359 -1.56492 -4.11337 0
M  V30 750 H 71.8549 -0.390571 -0.624999 0
M  V30 751 H 74.4969 -1.52142 -1.13811 0
M  V30 752 H 72.6469 -1.41768 -3.6171 0
M  V30 753 H 74.3189 -3.81699 -2.59043 0
M  V30 754 H 72.5619 -3.62796 -2.37827 0
M  V30 755 H 73.2329 -3.801 -4.00285 0
M  V30 756 H 75.7089 -1.89757 -3.70313 0
M  V30 757 H 74.5849 -2.09973 -5.07151 0
M  V30 758 H 74.8459 -0.500874 -4.39254 0
M  V30 759 N 73.905 1.17692 -1.04816 0
M  V30 760 C 75.316 1.69501 -0.782698 0
M  V30 761 C 75.667 1.83456 0.695577 0
M  V30 762 O 74.792 1.51942 1.54086 0
M  V30 763 C 75.387 3.07874 -1.41419 0
M  V30 764 C 73.946 3.56864 -1.19686 0
M  V30 765 C 73.093 2.3322 -1.50012 0
M  V30 766 H 76.044 1.02262 -1.2136 0
M  V30 767 H 76.065 3.71528 -0.821428 0
M  V30 768 H 75.577 2.97685 -2.49009 0
M  V30 769 H 73.678 3.72337 -0.140043 0
M  V30 770 H 73.791 4.39851 -1.89916 0
M  V30 771 H 72.155 2.37501 -0.920071 0
M  V30 772 H 72.938 2.25644 -2.58727 0
M  V30 773 N 75.3831 0.828654 1.34056 0
M  V30 774 C 76.6131 0.431993 2.02033 0
M  V30 775 C 77.0211 -0.96844 1.62536 0
M  V30 776 O 76.3641 -1.6391 0.829408 0
M  V30 777 C 76.4261 0.461224 3.56529 0
M  V30 778 C 76.0901 1.81599 4.1937 0
M  V30 779 C 77.0871 2.7777 4.39477 0
M  V30 780 C 74.7721 2.10604 4.56017 0
M  V30 781 C 76.7661 4.01115 4.95364 0
M  V30 782 C 74.4531 3.34207 5.11614 0
M  V30 783 C 75.4511 4.2928 5.31232 0
M  V30 784 O 75.1391 5.50699 5.8565 0
M  V30 785 H 74.8711 0.170943 0.654029 0
M  V30 786 H 77.4251 1.11988 1.72185 0
M  V30 787 H 75.6551 -0.283388 3.8566 0
M  V30 788 H 77.3441 0.0838149 4.05813 0
M  V30 789 H 78.1101 2.56659 4.11523 0
M  V30 790 H 73.9891 1.37402 4.40047 0
M  V30 791 H 77.5331 4.75333 5.10592 0
M  V30 792 H 73.4301 3.55179 5.38997 0
M  V30 793 H 74.1981 5.52298 6.04077 0
M  V30 794 N 76.8612 -1.46375 0.584142 0
M  V30 795 C 77.8092 -2.32042 -0.161047 0
M  V30 796 C 78.8032 -1.44569 -0.882966 0
M  V30 797 O 80.0092 -1.61186 -0.801191 0
M  V30 798 H 76.3842 -0.748659 -0.0708033 0
M  V30 799 H 78.3552 -2.92704 0.580269 0
M  V30 800 C 77.1042 -3.27762 -1.1605 0
M  V30 801 H 76.4272 -3.95051 -0.614419 0
M  V30 802 H 77.8672 -3.90481 -1.65228 0
M  V30 803 C 76.3262 -2.53218 -2.22221 0
M  V30 804 O 76.8562 -2.29628 -3.29597 0
M  V30 805 N 75.0622 -2.13756 -1.96868 0
M  V30 806 H 74.6092 -2.33142 -1.09557 0
M  V30 807 H 74.5672 -1.642 -2.68115 0
M  V30 808 N 78.3393 -0.321999 -1.54275 0
M  V30 809 C 79.7553 0.0306999 -1.5957 0
M  V30 810 C 79.9553 1.50614 -1.33857 0
M  V30 811 O 79.0113 2.2619 -1.12223 0
M  V30 812 C 80.3243 -0.386122 -2.98211 0
M  V30 813 C 81.8723 -0.336647 -3.11184 0
M  V30 814 C 82.3473 -0.728607 -4.52167 0
M  V30 815 N 83.8383 -0.681952 -4.58152 0
M  V30 816 C 84.5733 -0.957449 -5.6535 0
M  V30 817 N 84.0693 -1.3 -6.80494 0
M  V30 818 N 85.8623 -0.883113 -5.55119 0
M  V30 819 H 78.0133 -1.28332 -1.69247 0
M  V30 820 H 80.2763 -0.521716 -0.791528 0
M  V30 821 H 79.9823 -1.41404 -3.22022 0
M  V30 822 H 79.8563 0.249662 -3.76373 0
M  V30 823 H 82.2433 0.682058 -2.8711 0
M  V30 824 H 82.3243 -1.00734 -2.3513 0
M  V30 825 H 81.9683 -1.74522 -4.76974 0
M  V30 826 H 81.8983 -0.0356152 -5.26588 0
M  V30 827 H 84.3893 -0.428985 -3.75457 0
M  V30 828 H 84.7023 -1.49563 -7.58189 0
M  V30 829 H 83.0473 -1.33824 -6.81994 0
M  V30 830 H 86.2383 -0.615001 -4.64042 0
M  V30 831 H 86.4113 -1.10118 -6.38575 0
M  V30 832 N 79.8174 1.5752 -0.0501392 0
M  V30 833 C 80.7504 2.07026 0.959962 0
M  V30 834 C 81.7284 0.970539 1.30458 0
M  V30 835 O 82.9124 1.2424 1.41763 0
M  V30 836 C 80.0394 2.5099 2.27424 0
M  V30 837 C 79.0854 3.72188 2.08275 0
M  V30 838 S 79.9184 5.17888 1.36207 0
M  V30 839 C 81.0744 5.65165 2.6896 0
M  V30 840 H 81.3074 2.9238 0.538631 0
M  V30 841 H 78.8404 1.53547 0.162099 0
M  V30 842 H 80.7984 2.76982 3.02971 0
M  V30 843 H 79.4594 1.65944 2.66686 0
M  V30 844 H 78.6524 4.00866 3.05487 0
M  V30 845 H 78.2544 3.46457 1.40868 0
M  V30 846 H 80.5464 5.70687 3.65133 0
M  V30 847 H 81.4894 6.64394 2.4492 0
M  V30 848 H 81.8974 4.9289 2.75172 0
M  V30 849 N 81.2955 -0.223234 1.56011 0
M  V30 850 C 82.2435 -1.29627 1.93131 0
M  V30 851 C 83.2375 -1.48608 0.813146 0
M  V30 852 O 84.4435 -1.49802 0.997966 0
M  V30 853 H 80.8185 -0.434563 0.613726 0
M  V30 854 H 82.7895 -0.955995 2.82672 0
M  V30 855 C 81.5385 -2.63983 2.26292 0
M  V30 856 H 80.8615 -2.50185 3.11846 0
M  V30 857 H 82.3015 -3.3788 2.56151 0
M  V30 858 C 80.7605 -3.18866 1.08747 0
M  V30 859 O 81.2905 -4.00192 0.347727 0
M  V30 860 N 79.4965 -2.77217 0.871743 0
M  V30 861 H 79.0435 -2.1119 1.47501 0
M  V30 862 H 79.0015 -3.1428 0.0869905 0
M  V30 863 N 82.7736 -1.49793 -0.48987 0
M  V30 864 C 83.7056 -1.63413 -1.60713 0
M  V30 865 C 84.7186 -0.516329 -1.54395 0
M  V30 866 O 85.9076 -0.788812 -1.60125 0
M  V30 867 C 83.0076 -1.58516 -2.99543 0
M  V30 868 C 82.1806 -2.86016 -3.30928 0
M  V30 869 C 81.2396 -2.74018 -4.49222 0
M  V30 870 O 80.2656 -3.47964 -4.50455 0
M  V30 871 N 81.4676 -1.86309 -5.4979 0
M  V30 872 H 84.2326 -2.59777 -1.49452 0
M  V30 873 H 81.7936 -1.47022 -0.677955 0
M  V30 874 H 83.7856 -1.48128 -3.76617 0
M  V30 875 H 82.3556 -0.69965 -3.0467 0
M  V30 876 H 81.5756 -3.10672 -2.42645 0
M  V30 877 H 82.8636 -3.70521 -3.487 0
M  V30 878 H 82.2616 -1.2551 -5.51601 0
M  V30 879 H 80.8186 -1.81837 -6.25922 0
M  V30 880 N 84.2517 0.741722 -1.39055 0
M  V30 881 C 85.1617 1.88621 -1.39496 0
M  V30 882 C 86.1777 1.71557 -0.290578 0
M  V30 883 O 87.3537 1.94275 -0.530954 0
M  V30 884 C 84.4187 3.24134 -1.23037 0
M  V30 885 C 83.4797 3.5364 -2.43387 0
M  V30 886 C 82.7127 4.82687 -2.27703 0
M  V30 887 O 82.9357 5.55922 -1.27696 0
M  V30 888 O 81.8697 5.1194 -3.16545 0
M  V30 889 H 85.6957 1.91203 -2.35956 0
M  V30 890 H 83.2807 0.888625 -1.20099 0
M  V30 891 H 85.1627 4.0513 -1.15964 0
M  V30 892 H 83.8377 3.22337 -0.296691 0
M  V30 893 H 82.7447 2.72758 -2.56035 0
M  V30 894 H 84.0777 3.60209 -3.35425 0
M  V30 895 N 85.7298 1.2412 0.971189 0
M  V30 896 C 86.6628 0.97373 2.06382 0
M  V30 897 C 87.6408 -0.0912662 1.62344 0
M  V30 898 O 88.8248 0.0449365 1.88446 0
M  V30 899 C 85.9518 0.468746 3.35441 0
M  V30 900 C 84.9978 1.52176 3.98428 0
M  V30 901 S 85.8308 3.10203 4.36503 0
M  V30 902 C 86.9868 2.61398 5.68702 0
M  V30 903 H 87.2198 1.89893 2.28753 0
M  V30 904 H 84.7528 1.07466 1.10862 0
M  V30 905 H 86.7108 0.184012 4.10087 0
M  V30 906 H 85.3718 -0.435688 3.11064 0
M  V30 907 H 84.5648 1.11876 4.91426 0
M  V30 908 H 84.1668 1.75632 3.30196 0
M  V30 909 H 86.4588 2.03992 6.4606 0
M  V30 910 H 87.4018 3.52972 6.13854 0
M  V30 911 H 87.8098 2.01941 5.27143 0
M  V30 912 N 87.2079 -1.17134 1.05439 0
M  V30 913 C 88.1399 -2.2078 0.615539 0
M  V30 914 C 89.1529 -1.59584 -0.322001 0
M  V30 915 O 90.3419 -1.78133 -0.114344 0
M  V30 916 C 87.4419 -3.38691 -0.118938 0
M  V30 917 C 86.6149 -4.29454 0.829924 0
M  V30 918 C 85.6739 -5.26024 0.136258 0
M  V30 919 O 84.6999 -5.63952 0.77115 0
M  V30 920 N 85.9019 -5.69487 -1.1254 0
M  V30 921 H 88.6669 -2.59052 1.50705 0
M  V30 922 H 86.2279 -1.32058 0.936603 0
M  V30 923 H 88.2199 -4.00329 -0.593179 0
M  V30 924 H 86.7899 -2.98996 -0.91215 0
M  V30 925 H 86.0099 -3.65211 1.48373 0
M  V30 926 H 87.2979 -4.86984 1.47392 0
M  V30 927 H 86.6959 -5.4075 -1.6615 0
M  V30 928 H 85.2529 -6.33257 -1.54366 0
M  V30 929 N 88.686 -0.835752 -1.33615 0
M  V30 930 C 90.102 -0.523139 -1.50783 0
M  V30 931 C 90.302 0.950171 -1.77691 0
M  V30 932 O 89.358 1.73411 -1.83534 0
M  V30 933 C 90.671 -1.39378 -2.66448 0
M  V30 934 C 92.219 -1.39223 -2.80332 0
M  V30 935 C 92.694 -2.24765 -3.99055 0
M  V30 936 N 94.185 -2.22458 -4.06284 0
M  V30 937 C 94.92 -2.85386 -4.97336 0
M  V30 938 N 94.416 -3.57354 -5.93523 0
M  V30 939 N 96.209 -2.74872 -4.90308 0
M  V30 940 H 88.36 -1.78952 -1.14411 0
M  V30 941 H 90.623 -0.763297 -0.562212 0
M  V30 942 H 90.329 -2.44061 -2.53234 0
M  V30 943 H 90.203 -1.0676 -3.61776 0
M  V30 944 H 92.59 -0.353136 -2.92979 0
M  V30 945 H 92.671 -1.75846 -1.85773 0
M  V30 946 H 92.315 -3.28732 -3.87167 0
M  V30 947 H 92.245 -1.85485 -4.92852 0
M  V30 948 H 94.736 -1.70119 -3.37443 0
M  V30 949 H 95.049 -4.02584 -6.59656 0
M  V30 950 H 93.394 -3.61461 -5.93608 0
M  V30 951 H 96.585 -2.18213 -4.14126 0
M  V30 952 H 96.758 -3.24199 -5.61069 0
M  V30 953 N 90.1641 1.46063 -0.591896 0
M  V30 954 C 91.4131 2.01547 -0.0786637 0
M  V30 955 C 91.7261 1.46796 1.29268 0
M  V30 956 O 92.9321 1.94157 1.89777 0
M  V30 957 C 91.3881 3.59787 -0.0900024 0
M  V30 958 C 90.9961 4.23534 -1.46023 0
M  V30 959 C 92.7401 4.22895 0.368806 0
M  V30 960 C 90.6471 5.73881 -1.4288 0
M  V30 961 H 89.5771 0.753564 -0.0256388 0
M  V30 962 H 92.2281 1.677 -0.744905 0
M  V30 963 H 90.6101 3.90752 0.642586 0
M  V30 964 H 91.7841 4.04167 -2.21328 0
M  V30 965 H 90.0991 3.72558 -1.85982 0
M  V30 966 H 92.6961 5.33116 0.411258 0
M  V30 967 H 93.0391 3.9247 1.38827 0
M  V30 968 H 93.5721 3.9659 -0.31001 0
M  V30 969 H 90.3111 6.0898 -2.42536 0
M  V30 970 H 89.8311 5.95486 -0.718095 0
M  V30 971 H 91.5101 6.36776 -1.14565 0
M  V30 972 N 91.6422 0.330177 1.54103 0
M  V30 973 C 92.8702 -0.272179 2.05102 0
M  V30 974 C 93.2852 -1.45267 1.20595 0
M  V30 975 O 92.6422 -1.8094 0.238144 0
M  V30 976 C 92.6932 -0.70023 3.54653 0
M  V30 977 O 92.4142 0.433301 4.35952 0
M  V30 978 C 93.9152 -1.3647 4.21771 0
M  V30 979 H 91.1352 -0.0549159 0.668749 0
M  V30 980 H 93.6792 0.478285 1.98828 0
M  V30 981 H 91.8342 -1.40066 3.61193 0
M  V30 982 H 92.2482 0.0947539 5.24414 0
M  V30 983 H 93.7222 -1.61509 5.27843 0
M  V30 984 H 94.1992 -2.31409 3.73292 0
M  V30 985 H 94.8052 -0.706675 4.19388 0
M  V30 986 N 93.1203 -1.57491 0.0584922 0
M  V30 987 C 94.5363 -1.56792 -0.298091 0
M  V30 988 C 94.7363 -1.06679 -1.70944 0
M  V30 989 O 93.7923 -0.726672 -2.41818 0
M  V30 990 C 95.1053 -3.00461 -0.119879 0
M  V30 991 C 96.6533 -3.1242 -0.190428 0
M  V30 992 C 97.1283 -4.57982 -0.0406567 0
M  V30 993 N 98.6193 -4.63099 -0.0966958 0
M  V30 994 C 99.3543 -5.734 -0.00502943 0
M  V30 995 N 98.8503 -6.9266 0.139402 0
M  V30 996 N 100.643 -5.62067 -0.0611391 0
M  V30 997 H 92.7943 -1.88386 0.98105 0
M  V30 998 H 95.0573 -0.867865 0.381463 0
M  V30 999 H 94.7633 -3.41187 0.85349 0
M  V30 1000 H 94.6373 -3.66843 -0.877833 0
M  V30 1001 H 97.0243 -2.71589 -1.15427 0
M  V30 1002 H 97.1053 -2.48702 0.598405 0
M  V30 1003 H 96.7493 -4.995 0.919897 0
M  V30 1004 H 96.6793 -5.19715 -0.848727 0
M  V30 1005 H 99.1703 -3.77331 -0.207277 0
M  V30 1006 H 99.4833 -7.72536 0.201855 0
M  V30 1007 H 97.8283 -6.94781 0.174586 0
M  V30 1008 H 101.019 -4.67782 -0.172583 0
M  V30 1009 H 101.192 -6.47999 0.0137562 0
M  V30 1010 N 94.5984 0.214957 -1.56127 0
M  V30 1011 C 95.5284 1.2695 -1.95974 0
M  V30 1012 C 96.5094 1.48539 -0.828868 0
M  V30 1013 O 97.6944 1.60611 -1.09168 0
M  V30 1014 C 94.8244 2.61794 -2.28214 0
M  V30 1015 C 93.7784 2.54851 -3.43853 0
M  V30 1016 C 93.1044 3.93785 -3.61715 0
M  V30 1017 C 94.4044 2.09065 -4.78632 0
M  V30 1018 H 96.0984 0.93846 -2.84312 0
M  V30 1019 H 93.6444 0.449996 -1.36788 0
M  V30 1020 H 95.5974 3.35731 -2.54682 0
M  V30 1021 H 94.3214 2.96599 -1.36736 0
M  V30 1022 H 92.9804 1.8337 -3.17444 0
M  V30 1023 H 92.6284 4.25908 -2.67602 0
M  V30 1024 H 92.3284 3.90019 -4.39498 0
M  V30 1025 H 93.8524 4.69374 -3.90539 0
M  V30 1026 H 95.2664 2.7275 -5.04262 0
M  V30 1027 H 93.6634 2.16346 -5.59745 0
M  V30 1028 H 94.7334 1.04315 -4.73547 0
M  V30 1029 N 96.0765 1.50051 0.48192 0
M  V30 1030 C 97.3245 1.60181 1.23234 0
M  V30 1031 C 97.6455 0.299176 1.92691 0
M  V30 1032 O 96.9155 -0.682708 1.83619 0
M  V30 1033 H 95.4955 0.590232 0.457859 0
M  V30 1034 H 98.1575 1.86775 0.556881 0
M  V30 1035 H 97.2535 2.40753 1.98607 0
M  V30 1036 N 97.5546 -0.734337 1.39446 0
M  V30 1037 C 98.8026 -1.49096 1.36436 0
M  V30 1038 C 99.1236 -1.94961 -0.0388255 0
M  V30 1039 O 98.3936 -1.69033 -0.990191 0
M  V30 1040 H 96.9736 -0.5531 0.502085 0
M  V30 1041 H 99.6356 -0.871725 1.74319 0
M  V30 1042 H 98.7316 -2.37276 2.02747 0
M  V30 1043 N 99.0327 -1.24633 -0.964593 0
M  V30 1044 C 99.9797 -1.04144 -2.05968 0
M  V30 1045 C 100.95 0.046262 -1.66036 0
M  V30 1046 O 102.135 -0.108972 -1.90489 0
M  V30 1047 C 99.2747 -0.65563 -3.38815 0
M  V30 1048 C 98.3877 -1.81714 -3.91923 0
M  V30 1049 C 97.5227 -1.37662 -5.13052 0
M  V30 1050 C 96.5617 -2.50788 -5.58365 0
M  V30 1051 N 95.6987 -2.07582 -6.70712 0
M  V30 1052 H 100.539 -1.9787 -2.22827 0
M  V30 1053 H 98.0757 -0.9855 -1.09208 0
M  V30 1054 H 100.034 -0.412954 -4.15151 0
M  V30 1055 H 98.6637 0.244627 -3.21872 0
M  V30 1056 H 97.7157 -2.1734 -3.12198 0
M  V30 1057 H 99.0277 -2.66705 -4.21509 0
M  V30 1058 H 98.1817 -1.093 -5.96773 0
M  V30 1059 H 96.9207 -0.497293 -4.85158 0
M  V30 1060 H 95.9257 -2.79906 -4.73215 0
M  V30 1061 H 97.1507 -3.39283 -5.88272 0
M  V30 1062 H 95.0967 -1.22051 -6.44546 0
M  V30 1063 H 95.0137 -2.86125 -6.99763 0
M  V30 1064 H 96.2817 -1.82369 -7.57867 0
M  V30 1065 N 100.511 1.16574 -1.06058 0
M  V30 1066 C 101.76 1.86385 -0.770944 0
M  V30 1067 C 102.073 1.82448 0.705129 0
M  V30 1068 O 103.279 2.47815 1.10905 0
M  V30 1069 C 101.735 3.34466 -1.32893 0
M  V30 1070 C 101.343 3.46883 -2.83507 0
M  V30 1071 C 103.087 4.09548 -1.11672 0
M  V30 1072 C 100.994 4.89036 -3.32562 0
M  V30 1073 H 99.9238 0.698181 -0.284709 0
M  V30 1074 H 102.575 1.31583 -1.27899 0
M  V30 1075 H 100.957 3.88859 -0.748662 0
M  V30 1076 H 102.131 3.02663 -3.47465 0
M  V30 1077 H 100.446 2.85232 -3.03368 0
M  V30 1078 H 103.043 5.14434 -1.45814 0
M  V30 1079 H 103.386 4.16264 -0.0549535 0
M  V30 1080 H 103.919 3.61387 -1.66265 0
M  V30 1081 H 100.658 4.87499 -4.38207 0
M  V30 1082 H 100.178 5.3389 -2.73351 0
M  V30 1083 H 101.857 5.57843 -3.2775 0
M  V30 1084 N 101.989 0.842826 1.3317 0
M  V30 1085 C 103.235 0.441099 1.97945 0
M  V30 1086 C 103.568 -0.998024 1.66593 0
M  V30 1087 O 102.843 -1.69839 0.947898 0
M  V30 1088 C 103.126 0.666841 3.53872 0
M  V30 1089 C 102.979 2.15352 3.94897 0
M  V30 1090 C 104.298 0.115544 4.39948 0
M  V30 1091 H 101.417 0.161739 0.719034 0
M  V30 1092 H 104.059 1.05907 1.57746 0
M  V30 1093 H 102.209 0.140828 3.88245 0
M  V30 1094 H 103.881 2.7447 3.70761 0
M  V30 1095 H 102.124 2.63653 3.44484 0
M  V30 1096 H 102.795 2.26221 5.03516 0
M  V30 1097 H 105.271 0.565213 4.12243 0
M  V30 1098 H 104.147 0.303152 5.48062 0
M  V30 1099 H 104.408 -0.980935 4.3108 0
M  V30 1100 N 103.467 -1.45747 0.599634 0
M  V30 1101 C 104.695 -2.06668 0.0978551 0
M  V30 1102 C 105.11 -1.44562 -1.21439 0
M  V30 1103 O 104.467 -0.556923 -1.73795 0
M  V30 1104 C 104.518 -3.61456 -0.0567044 0
M  V30 1105 O 104.239 -4.21242 1.20361 0
M  V30 1106 C 105.74 -4.39345 -0.590869 0
M  V30 1107 H 102.96 -0.667825 0.0651943 0
M  V30 1108 H 105.504 -1.87115 0.82511 0
M  V30 1109 H 103.659 -3.80378 -0.734251 0
M  V30 1110 H 104.073 -5.14323 1.02821 0
M  V30 1111 H 105.547 -5.48182 -0.648131 0
M  V30 1112 H 106.024 -4.08568 -1.61147 0
M  V30 1113 H 106.63 -4.25268 0.0523679 0
M  V30 1114 N 104.945 -0.338344 -1.53925 0
M  V30 1115 C 106.194 0.260732 -2.00008 0
M  V30 1116 C 106.507 1.52073 -1.23017 0
M  V30 1117 O 107.713 2.19672 -1.5955 0
M  V30 1118 C 106.169 0.51515 -3.56194 0
M  V30 1119 C 105.777 -0.728645 -4.42035 0
M  V30 1120 C 107.521 1.07337 -4.10706 0
M  V30 1121 C 105.428 -0.445315 -5.89721 0
M  V30 1122 H 104.358 0.101205 -0.747177 0
M  V30 1123 H 107.009 -0.452866 -1.77824 0
M  V30 1124 H 105.391 1.28932 -3.74423 0
M  V30 1125 H 106.565 -1.50352 -4.35581 0
M  V30 1126 H 104.88 -1.20813 -3.98489 0
M  V30 1127 H 107.477 1.30022 -5.18651 0
M  V30 1128 H 107.82 2.0273 -3.63602 0
M  V30 1129 H 108.353 0.360034 -3.96167 0
M  V30 1130 H 105.092 -1.36883 -6.41049 0
M  V30 1131 H 104.612 0.291569 -5.99091 0
M  V30 1132 H 106.291 -0.0606218 -6.46972 0
M  V30 1133 N 106.423 1.57458 -0.0668435 0
M  V30 1134 C 107.355 2.09413 0.931601 0
M  V30 1135 C 108.368 1.02522 1.26464 0
M  V30 1136 O 109.557 1.30049 1.22269 0
M  V30 1137 C 106.657 2.53537 2.24882 0
M  V30 1138 C 105.83 3.83944 2.09537 0
M  V30 1139 C 104.889 4.14214 3.2452 0
M  V30 1140 O 103.915 4.83891 2.9973 0
M  V30 1141 N 105.117 3.67367 4.49469 0
M  V30 1142 H 107.882 2.95699 0.488048 0
M  V30 1143 H 105.443 1.61462 0.119009 0
M  V30 1144 H 107.435 2.70853 3.00701 0
M  V30 1145 H 106.005 1.72415 2.60753 0
M  V30 1146 H 105.225 3.76057 1.18215 0
M  V30 1147 H 106.513 4.69312 1.96529 0
M  V30 1148 H 105.911 3.11068 4.72497 0
M  V30 1149 H 104.468 3.89891 5.2233 0
M  V30 1150 N 107.901 -0.206675 1.56239 0
M  V30 1151 C 109.129 -0.945345 1.8404 0
M  V30 1152 C 109.544 -1.77336 0.647885 0
M  V30 1153 O 108.901 -1.78425 -0.383511 0
M  V30 1154 C 108.952 -1.8509 3.10522 0
M  V30 1155 O 108.673 -1.05634 4.25174 0
M  V30 1156 C 110.174 -2.70222 3.51418 0
M  V30 1157 H 107.394 -0.276372 0.61144 0
M  V30 1158 H 109.938 -0.217417 2.03341 0
M  V30 1159 H 108.093 -2.53259 2.93153 0
M  V30 1160 H 108.507 -1.67238 4.97124 0
M  V30 1161 H 109.981 -3.29438 4.42916 0
M  V30 1162 H 110.458 -3.43358 2.73864 0
M  V30 1163 H 111.064 -2.07443 3.71278 0
M  V30 1164 N 109.379 -1.50304 -0.473955 0
M  V30 1165 C 110.625 -1.61389 -1.22806 0
M  V30 1166 C 110.958 -0.311955 -1.91678 0
M  V30 1167 O 110.233 0.686384 -1.81986 0
M  V30 1168 C 110.516 -2.79219 -2.27396 0
M  V30 1169 C 110.369 -4.19286 -1.62848 0
M  V30 1170 C 111.688 -2.92614 -3.28732 0
M  V30 1171 H 108.807 -0.587399 -0.445119 0
M  V30 1172 H 111.449 -1.82681 -0.522265 0
M  V30 1173 H 109.599 -2.61195 -2.87592 0
M  V30 1174 H 111.271 -4.48892 -1.06271 0
M  V30 1175 H 109.514 -4.23677 -0.931693 0
M  V30 1176 H 110.185 -4.97655 -2.38838 0
M  V30 1177 H 112.661 -3.09105 -2.78556 0
M  V30 1178 H 111.537 -3.76688 -3.99246 0
M  V30 1179 H 111.798 -2.03107 -3.92683 0
M  V30 1180 N 110.857 0.726932 -1.39834 0
M  V30 1181 C 112.082 1.52121 -1.40976 0
M  V30 1182 C 112.507 1.88098 -0.00826029 0
M  V30 1183 O 111.865 1.52479 0.980807 0
M  V30 1184 C 111.913 2.78021 -2.29644 0
M  V30 1185 O 111.017 3.74272 -1.73188 0
M  V30 1186 H 110.358 0.45908 -0.479731 0
M  V30 1187 H 112.888 0.896207 -1.83927 0
M  V30 1188 H 112.898 3.26671 -2.44438 0
M  V30 1189 H 111.573 2.51169 -3.31492 0
M  V30 1190 H 110.15 3.33073 -1.6768 0
M  V30 1191 N 112.336 1.25143 0.95797 0
M  V30 1192 C 113.299 1.05321 2.03569 0
M  V30 1193 C 114.299 0.007152 1.60798 0
M  V30 1194 O 115.489 0.24903 1.72411 0
M  V30 1195 C 112.621 0.598394 3.35607 0
M  V30 1196 H 113.814 2.00986 2.22586 0
M  V30 1197 H 111.367 1.07502 1.13459 0
M  V30 1198 H 112.102 -0.361014 3.22284 0
M  V30 1199 H 111.887 1.35351 3.67998 0
M  V30 1200 H 113.377 0.48104 4.1482 0
M  V30 1201 N 113.814 -1.1601 1.06675 0
M  V30 1202 C 114.744 -2.22688 0.702307 0
M  V30 1203 C 115.725 -1.67306 -0.307032 0
M  V30 1204 O 116.91 -1.93352 -0.181305 0
M  V30 1205 C 114.04 -3.47178 0.092038 0
M  V30 1206 C 112.994 -4.15477 1.02777 0
M  V30 1207 C 112.32 -5.33963 0.28061 0
M  V30 1208 C 113.62 -4.66019 2.35846 0
M  V30 1209 H 115.314 -2.53429 1.59419 0
M  V30 1210 H 112.86 -1.21813 0.767961 0
M  V30 1211 H 114.813 -4.21037 -0.174814 0
M  V30 1212 H 113.537 -3.15749 -0.834877 0
M  V30 1213 H 112.196 -3.43549 1.27944 0
M  V30 1214 H 111.844 -4.98788 -0.649545 0
M  V30 1215 H 111.544 -5.806 0.904258 0
M  V30 1216 H 113.068 -6.10596 0.021396 0
M  V30 1217 H 114.482 -5.3144 2.15045 0
M  V30 1218 H 112.879 -5.23293 2.93743 0
M  V30 1219 H 113.949 -3.82023 2.98641 0
M  V30 1220 N 115.292 -0.849877 -1.32721 0
M  V30 1221 C 116.224 -0.248332 -2.27851 0
M  V30 1222 C 117.237 0.577218 -1.52224 0
M  V30 1223 O 118.426 0.402489 -1.73903 0
M  V30 1224 C 115.526 0.668107 -3.32249 0
M  V30 1225 C 114.699 -0.120534 -4.37234 0
M  V30 1226 C 113.758 0.720932 -5.21238 0
M  V30 1227 O 112.784 0.156166 -5.68986 0
M  V30 1228 N 113.986 2.03647 -5.43607 0
M  V30 1229 H 116.751 -1.06575 -2.80111 0
M  V30 1230 H 114.312 -0.709395 -1.45531 0
M  V30 1231 H 116.304 1.23627 -3.85355 0
M  V30 1232 H 114.874 1.38621 -2.80184 0
M  V30 1233 H 114.094 -0.870108 -3.84477 0
M  V30 1234 H 115.382 -0.662406 -5.0447 0
M  V30 1235 H 114.78 2.51871 -5.06535 0
M  V30 1236 H 113.337 2.55287 -5.99727 0
M  V30 1237 N 116.77 1.45427 -0.607355 0
M  V30 1238 C 117.702 2.2871 0.149752 0
M  V30 1239 C 118.715 1.39937 0.831958 0
M  V30 1240 O 119.904 1.64313 0.697385 0
M  V30 1241 C 117.004 3.15673 1.23304 0
M  V30 1242 C 116.177 4.32722 0.637996 0
M  V30 1243 C 115.236 5.00895 1.61215 0
M  V30 1244 O 114.262 5.57697 1.13854 0
M  V30 1245 N 115.464 5.00159 2.94655 0
M  V30 1246 H 118.229 2.94328 -0.564882 0
M  V30 1247 H 115.79 1.55612 -0.446823 0
M  V30 1248 H 117.782 3.58144 1.88454 0
M  V30 1249 H 116.352 2.51965 1.8502 0
M  V30 1250 H 115.572 3.93734 -0.191572 0
M  V30 1251 H 116.86 5.08321 0.220665 0
M  V30 1252 H 116.258 4.553 3.35735 0
M  V30 1253 H 114.815 5.46495 3.55228 0
M  V30 1254 N 118.248 0.346503 1.53744 0
M  V30 1255 C 119.178 -0.501193 2.28058 0
M  V30 1256 C 120.159 -1.10014 1.29734 0
M  V30 1257 O 121.344 -1.12097 1.58581 0
M  V30 1258 C 118.474 -1.65078 3.05559 0
M  V30 1259 C 117.428 -1.18003 4.11411 0
M  V30 1260 C 116.754 -2.41837 4.76884 0
M  V30 1261 C 118.054 -0.278394 5.21558 0
M  V30 1262 H 119.748 0.11875 2.99164 0
M  V30 1263 H 117.294 0.0585531 1.43881 0
M  V30 1264 H 119.247 -2.25028 3.56287 0
M  V30 1265 H 117.971 -2.29767 2.32109 0
M  V30 1266 H 116.63 -0.603331 3.61601 0
M  V30 1267 H 116.278 -3.0494 4.00026 0
M  V30 1268 H 115.978 -2.1102 5.48402 0
M  V30 1269 H 117.502 -3.02508 5.30397 0
M  V30 1270 H 118.916 -0.784823 5.67903 0
M  V30 1271 H 117.313 -0.0619707 6.00068 0
M  V30 1272 H 118.383 0.684677 4.80042 0
M  V30 1273 N 119.726 -1.57421 0.075193 0
M  V30 1274 C 120.674 -2.14124 -0.908508 0
M  V30 1275 C 121.668 -1.07898 -1.30592 0
M  V30 1276 O 122.874 -1.26273 -1.28277 0
M  V30 1277 H 119.249 -0.684707 -0.310935 0
M  V30 1278 H 121.22 -2.95634 -0.405374 0
M  V30 1279 C 119.969 -2.72044 -2.16535 0
M  V30 1280 H 119.292 -3.53456 -1.86839 0
M  V30 1281 H 120.732 -3.15311 -2.83469 0
M  V30 1282 C 119.191 -1.66968 -2.92615 0
M  V30 1283 O 119.721 -1.0967 -3.86439 0
M  V30 1284 N 117.927 -1.37923 -2.55784 0
M  V30 1285 H 117.474 -1.84706 -1.79559 0
M  V30 1286 H 117.432 -0.67852 -3.06991 0
M  V30 1287 N 121.204 0.198386 -1.56346 0
M  V30 1288 C 122.452 0.91747 -1.80075 0
M  V30 1289 C 122.773 1.83929 -0.647692 0
M  V30 1290 O 122.043 1.93029 0.334166 0
M  V30 1291 H 120.623 0.341774 -0.664228 0
M  V30 1292 H 123.285 0.204684 -1.93822 0
M  V30 1293 H 122.381 1.51055 -2.7311 0
M  V30 1294 N 122.682 1.50554 0.465978 0
M  V30 1295 C 124.098 1.38093 0.800154 0
M  V30 1296 C 124.298 0.440988 1.96615 0
M  V30 1297 O 123.354 -0.114499 2.5224 0
M  V30 1298 C 124.667 2.79565 1.10742 0
M  V30 1299 C 126.215 2.88516 1.21357 0
M  V30 1300 C 126.69 4.30833 1.55393 0
M  V30 1301 N 128.181 4.33807 1.62375 0
M  V30 1302 C 128.916 5.40927 1.90225 0
M  V30 1303 N 128.412 6.58247 2.16062 0
M  V30 1304 N 130.205 5.28376 1.9177 0
M  V30 1305 H 122.356 2.10237 -0.302366 0
M  V30 1306 H 124.619 0.945203 -0.0727746 0
M  V30 1307 H 124.325 3.50208 0.323661 0
M  V30 1308 H 124.199 3.17125 2.04234 0
M  V30 1309 H 126.586 2.1809 1.98799 0
M  V30 1310 H 126.667 2.54492 0.258321 0
M  V30 1311 H 126.311 5.01799 0.784889 0
M  V30 1312 H 126.241 4.62347 2.52076 0
M  V30 1313 H 128.732 3.49212 1.44427 0
M  V30 1314 H 129.045 7.3569 2.36601 0
M  V30 1315 H 127.39 6.61413 2.13444 0
M  V30 1316 H 130.581 4.35715 1.71085 0
M  V30 1317 H 130.754 6.11944 2.13139 0
M  V30 1318 N 124.16 -0.719506 1.40217 0
M  V30 1319 C 125.388 -1.50864 1.41589 0
M  V30 1320 C 125.803 -1.88794 0.0145275 0
M  V30 1321 O 125.16 -1.55174 -0.960594 0
M  V30 1322 C 125.211 -2.78646 2.30302 0
M  V30 1323 O 124.932 -2.42321 3.64983 0
M  V30 1324 C 126.433 -3.72569 2.40224 0
M  V30 1325 H 123.653 -0.465709 0.48307 0
M  V30 1326 H 126.197 -0.88785 1.84221 0
M  V30 1327 H 124.352 -3.37019 1.91042 0
M  V30 1328 H 124.766 -3.24514 4.12057 0
M  V30 1329 H 126.24 -4.5908 3.06512 0
M  V30 1330 H 126.717 -4.15403 1.42608 0
M  V30 1331 H 127.323 -3.20109 2.80019 0
M  V30 1332 N 125.638 -1.25649 -0.95132 0
M  V30 1333 C 126.866 -1.13343 -1.73092 0
M  V30 1334 C 127.281 0.312434 -1.86197 0
M  V30 1335 O 126.638 1.21465 -1.36207 0
M  V30 1336 C 126.689 -1.78602 -3.14299 0
M  V30 1337 O 126.41 -3.17537 -3.01831 0
M  V30 1338 C 127.911 -1.72119 -4.08522 0
M  V30 1339 H 125.131 -0.395181 -0.542285 0
M  V30 1340 H 127.675 -1.66076 -1.19328 0
M  V30 1341 H 125.83 -1.29832 -3.64996 0
M  V30 1342 H 126.244 -3.49676 -3.90931 0
M  V30 1343 H 127.718 -2.22435 -5.052 0
M  V30 1344 H 128.195 -0.685635 -4.33815 0
M  V30 1345 H 128.801 -2.20393 -3.63741 0
M  V30 1346 N 127.117 1.15442 -1.07289 0
M  V30 1347 C 128.366 1.85557 -0.790669 0
M  V30 1348 C 128.679 1.83186 0.685739 0
M  V30 1349 O 129.885 2.48977 1.0827 0
M  V30 1350 C 128.341 3.33038 -1.36433 0
M  V30 1351 C 127.949 3.43856 -2.8717 0
M  V30 1352 C 129.693 4.0834 -1.1601 0
M  V30 1353 C 127.6 4.85482 -3.3773 0
M  V30 1354 H 126.53 0.695122 -0.292098 0
M  V30 1355 H 129.181 1.30219 -1.29287 0
M  V30 1356 H 127.563 3.88043 -0.789864 0
M  V30 1357 H 128.737 2.98961 -3.50655 0
M  V30 1358 H 127.052 2.81998 -3.06376 0
M  V30 1359 H 129.649 5.12859 -1.51262 0
M  V30 1360 H 129.992 4.16182 -0.0991007 0
M  V30 1361 H 130.525 3.59603 -1.70089 0
M  V30 1362 H 127.264 4.82823 -4.43353 0
M  V30 1363 H 126.784 5.30961 -2.78999 0
M  V30 1364 H 128.463 5.54335 -3.33648 0
M  V30 1365 N 128.595 0.856903 1.32268 0
M  V30 1366 C 129.558 0.308171 2.27119 0
M  V30 1367 C 130.558 -0.533421 1.51695 0
M  V30 1368 O 131.748 -0.344607 1.70757 0
M  V30 1369 C 128.88 -0.563757 3.36206 0
M  V30 1370 H 130.073 1.14535 2.77167 0
M  V30 1371 H 127.626 0.631421 1.42978 0
M  V30 1372 H 128.361 -1.42266 2.91429 0
M  V30 1373 H 128.146 0.0386749 3.92081 0
M  V30 1374 H 129.636 -0.940386 4.06874 0
M  V30 1375 N 130.073 -1.45103 0.615059 0
M  V30 1376 C 131.301 -2.06553 0.11977 0
M  V30 1377 C 131.716 -1.45842 -1.19898 0
M  V30 1378 O 131.073 -0.575325 -1.73194 0
M  V30 1379 C 131.124 -3.61495 -0.018364 0
M  V30 1380 O 130.845 -4.19942 1.24822 0
M  V30 1381 C 132.346 -4.39947 -0.544237 0
M  V30 1382 H 129.566 -0.667096 0.0722739 0
M  V30 1383 H 132.11 -1.8623 0.84491 0
M  V30 1384 H 130.265 -3.81135 -0.693865 0
M  V30 1385 H 130.679 -5.13204 1.0827 0
M  V30 1386 H 132.153 -5.48838 -0.589953 0
M  V30 1387 H 132.63 -4.10255 -1.56805 0
M  V30 1388 H 133.236 -4.25188 0.0974703 0
M  V30 1389 N 131.551 -0.354651 -1.53558 0
M  V30 1390 C 132.797 0.238797 -2.01389 0
M  V30 1391 C 133.13 1.49309 -1.2418 0
M  V30 1392 O 132.405 1.91638 -0.332457 0
M  V30 1393 C 132.688 0.541771 -3.56001 0
M  V30 1394 C 132.541 -0.725388 -4.43912 0
M  V30 1395 C 133.86 1.34685 -4.18984 0
M  V30 1396 H 130.979 0.0853177 -0.732045 0
M  V30 1397 H 133.621 -0.477384 -1.83905 0
M  V30 1398 H 131.771 1.15189 -3.71031 0
M  V30 1399 H 133.443 -1.36313 -4.407 0
M  V30 1400 H 131.686 -1.34801 -4.12324 0
M  V30 1401 H 132.357 -0.468505 -5.50008 0
M  V30 1402 H 134.833 0.830837 -4.07721 0
M  V30 1403 H 133.709 1.52759 -5.27215 0
M  V30 1404 H 133.97 2.35221 -3.74331 0
M  V30 1405 N 133.029 1.57378 -0.0835403 0
M  V30 1406 C 134.257 1.98263 0.59157 0
M  V30 1407 C 134.672 0.962302 1.62435 0
M  V30 1408 O 134.029 -0.049581 1.82433 0
M  V30 1409 C 134.08 3.39214 1.24965 0
M  V30 1410 O 133.801 4.37339 0.258186 0
M  V30 1411 C 135.302 3.95038 2.01147 0
M  V30 1412 H 132.522 0.651773 0.159477 0
M  V30 1413 H 135.066 2.03878 -0.159415 0
M  V30 1414 H 133.221 3.34649 1.95164 0
M  V30 1415 H 133.635 5.19371 0.731734 0
M  V30 1416 H 135.109 4.95848 2.42567 0
M  V30 1417 H 135.586 3.32222 2.87272 0
M  V30 1418 H 136.192 4.0304 1.35789 0
M  V30 1419 N 134.507 -0.190092 1.56449 0
M  V30 1420 C 135.784 -0.935886 1.71757 0
M  V30 1421 C 136.164 -2.01173 0.639726 0
M  V30 1422 O 135.512 -2.25827 -0.348502 0
M  V30 1423 C 135.722 -1.51775 3.1427 0
M  V30 1424 C 137.07 -1.99794 3.74656 0
M  V30 1425 O 138.094 -1.61607 3.1743 0
M  V30 1426 O 136.953 -2.70079 4.751 0
M  V30 1427 H 134.047 -0.439229 0.700719 0
M  V30 1428 H 136.593 -0.179395 1.68749 0
M  V30 1429 H 135.365 -0.742505 3.84191 0
M  V30 1430 H 134.988 -2.33894 3.21527 0
M  V30 1431 N 135.985 -1.50799 -0.457987 0
M  V30 1432 C 136.948 -1.7005 -1.53674 0
M  V30 1433 C 137.948 -0.570881 -1.50325 0
M  V30 1434 O 139.138 -0.838126 -1.52712 0
M  V30 1435 C 136.27 -1.73788 -2.93276 0
M  V30 1436 H 137.463 -2.66306 -1.37917 0
M  V30 1437 H 135.016 -1.40477 -0.685271 0
M  V30 1438 H 135.751 -0.792717 -3.14462 0
M  V30 1439 H 135.536 -2.55864 -2.97113 0
M  V30 1440 H 137.026 -1.90591 -3.71571 0
M  V30 1441 N 137.463 0.71206 -1.40597 0
M  V30 1442 C 138.688 1.50617 -1.42581 0
M  V30 1443 C 139.113 1.88079 -0.0282102 0
M  V30 1444 O 138.471 1.53511 0.964579 0
M  V30 1445 C 138.519 2.7557 -2.3258 0
M  V30 1446 O 137.623 3.72414 -1.77148 0
M  V30 1447 H 136.964 0.453966 -0.484573 0
M  V30 1448 H 139.494 0.876649 -1.84868 0
M  V30 1449 H 139.504 3.2406 -2.47889 0
M  V30 1450 H 138.179 2.47639 -3.34138 0
M  V30 1451 H 136.756 3.31276 -1.71204 0
M  V30 1452 N 138.941 1.26152 0.944643 0
M  V30 1453 C 140.166 1.14363 1.7302 0
M  V30 1454 C 140.591 -0.29772 1.85729 0
M  V30 1455 O 139.949 -1.2157 1.34501 0
M  V30 1456 C 139.997 1.81378 3.11664 0
M  V30 1457 O 139.101 1.10022 3.97453 0
M  V30 1458 H 138.442 0.398694 0.53098 0
M  V30 1459 H 140.972 1.66906 1.18337 0
M  V30 1460 H 140.982 1.88064 3.62072 0
M  V30 1461 H 139.657 2.86237 3.0173 0
M  V30 1462 H 138.234 1.11287 3.55907 0
M  V30 1463 N 140.419 -1.14872 1.07899 0
M  V30 1464 C 141.329 -2.2341 0.715915 0
M  V30 1465 C 142.345 -1.71808 -0.275306 0
M  V30 1466 O 143.521 -2.01039 -0.120545 0
M  V30 1467 C 140.586 -3.46474 0.125168 0
M  V30 1468 C 139.647 -4.13039 1.17034 0
M  V30 1469 C 138.88 -5.30229 0.607688 0
M  V30 1470 O 139.103 -5.675 -0.574497 0
M  V30 1471 O 138.037 -5.86444 1.35526 0
M  V30 1472 H 141.863 -2.56808 1.62121 0
M  V30 1473 H 139.448 -1.22702 0.852322 0
M  V30 1474 H 141.33 -4.20917 -0.201729 0
M  V30 1475 H 140.005 -3.14811 -0.753364 0
M  V30 1476 H 138.912 -3.40493 1.54968 0
M  V30 1477 H 140.245 -4.48796 2.02097 0
M  V30 1478 N 141.898 -0.863906 -1.31812 0
M  V30 1479 C 143.147 -0.46801 -1.96195 0
M  V30 1480 C 143.46 0.983474 -1.69077 0
M  V30 1481 O 144.666 1.48523 -2.27273 0
M  V30 1482 C 143.122 -0.785995 -3.51212 0
M  V30 1483 C 142.73 -2.25383 -3.87178 0
M  V30 1484 C 144.474 -0.458274 -4.22019 0
M  V30 1485 C 142.381 -2.51455 -5.3528 0
M  V30 1486 H 141.311 -0.171283 -0.734287 0
M  V30 1487 H 143.962 -1.05597 -1.50072 0
M  V30 1488 H 142.344 -0.127359 -3.95795 0
M  V30 1489 H 143.518 -2.95502 -3.53575 0
M  V30 1490 H 141.833 -2.54698 -3.2942 0
M  V30 1491 H 144.43 -0.630369 -5.30971 0
M  V30 1492 H 144.773 0.600834 -4.11941 0
M  V30 1493 H 145.306 -1.07319 -3.8305 0
M  V30 1494 H 142.045 -3.56025 -5.50387 0
M  V30 1495 H 141.565 -1.85923 -5.70257 0
M  V30 1496 H 143.244 -2.35874 -6.02472 0
M  V30 1497 N 143.376 1.44774 -0.622745 0
M  V30 1498 C 144.339 2.29069 0.0774015 0
M  V30 1499 C 145.339 1.4059 0.780461 0
M  V30 1500 O 146.529 1.62551 0.626322 0
M  V30 1501 C 143.661 3.21974 1.12006 0
M  V30 1502 H 144.854 2.92459 -0.663901 0
M  V30 1503 H 142.407 1.51548 -0.382486 0
M  V30 1504 H 143.142 2.63417 1.89162 0
M  V30 1505 H 142.927 3.87168 0.619951 0
M  V30 1506 H 144.417 3.85318 1.60995 0
M  V30 1507 N 144.854 0.36279 1.53368 0
M  V30 1508 C 145.801 -0.485008 2.25646 0
M  V30 1509 C 146.771 -1.07982 1.2621 0
M  V30 1510 O 147.956 -1.11284 1.54986 0
M  V30 1511 C 145.096 -1.62023 3.04701 0
M  V30 1512 C 144.209 -1.05086 4.19024 0
M  V30 1513 C 143.344 -2.15496 4.85525 0
M  V30 1514 C 142.383 -1.5601 5.91884 0
M  V30 1515 N 141.52 -2.60241 6.52088 0
M  V30 1516 H 146.36 0.137864 2.97681 0
M  V30 1517 H 143.897 0.0798061 1.46883 0
M  V30 1518 H 145.855 -2.28887 3.48807 0
M  V30 1519 H 144.485 -2.2138 2.34927 0
M  V30 1520 H 143.537 -0.27259 3.79422 0
M  V30 1521 H 144.849 -0.575926 4.95464 0
M  V30 1522 H 144.003 -2.90186 5.32801 0
M  V30 1523 H 142.742 -2.66341 4.08551 0
M  V30 1524 H 141.747 -0.798338 5.43973 0
M  V30 1525 H 142.972 -1.05994 6.70777 0
M  V30 1526 H 140.918 -3.10304 5.77968 0
M  V30 1527 H 140.835 -2.17426 7.24059 0
M  V30 1528 H 142.103 -3.34641 7.04014 0
M  V30 1529 N 146.332 -1.57332 0.0918853 0
M  V30 1530 C 147.557 -1.98995 -0.584442 0
M  V30 1531 C 147.982 -0.970528 -1.61128 0
M  V30 1532 O 147.34 0.0613904 -1.81196 0
M  V30 1533 C 147.388 -3.39636 -1.21161 0
M  V30 1534 O 146.492 -3.40447 -2.32744 0
M  V30 1535 H 145.833 -0.647165 -0.148572 0
M  V30 1536 H 148.363 -2.03873 0.172347 0
M  V30 1537 H 148.373 -3.7726 -1.55367 0
M  V30 1538 H 147.048 -4.13356 -0.459313 0
M  V30 1539 H 145.625 -3.14614 -2.0018 0
M  V30 1540 N 147.81 0.181792 -1.56548 0
M  V30 1541 C 148.72 1.24538 -1.98815 0
M  V30 1542 C 149.736 1.49045 -0.897861 0
M  V30 1543 O 150.912 1.61399 -1.20467 0
M  V30 1544 C 147.977 2.56683 -2.33055 0
M  V30 1545 C 147.038 2.40131 -3.55859 0
M  V30 1546 C 146.271 3.65975 -3.88456 0
M  V30 1547 O 146.494 4.70711 -3.22161 0
M  V30 1548 O 145.428 3.6071 -4.81842 0
M  V30 1549 H 149.254 0.916647 -2.89536 0
M  V30 1550 H 146.839 0.387842 -1.44278 0
M  V30 1551 H 148.721 3.34655 -2.56094 0
M  V30 1552 H 147.396 2.89157 -1.45498 0
M  V30 1553 H 146.303 1.60226 -3.38051 0
M  V30 1554 H 147.636 2.12585 -4.43924 0
M  V30 1555 N 149.288 1.51039 0.449983 0
M  V30 1556 C 150.536 1.62759 1.19808 0
M  V30 1557 C 150.857 0.339981 1.92013 0
M  V30 1558 O 150.127 -0.643606 1.85026 0
M  V30 1559 H 148.707 0.599811 0.445237 0
M  V30 1560 H 151.369 1.87914 0.517138 0
M  V30 1561 H 150.465 2.44911 1.93455 0
M  V30 1562 N 150.766 -0.704594 1.40972 0
M  V30 1563 C 151.714 -1.83994 1.42299 0
M  V30 1564 C 152.708 -1.66684 0.302111 0
M  V30 1565 O 153.914 -1.73655 0.473697 0
M  V30 1566 H 150.289 -0.606171 0.44504 0
M  V30 1567 H 152.26 -1.79992 2.38003 0
M  V30 1568 C 151.009 -3.21946 1.31323 0
M  V30 1569 H 150.332 -3.35878 2.16855 0
M  V30 1570 H 151.772 -4.01491 1.36311 0
M  V30 1571 C 150.231 -3.36891 0.0245977 0
M  V30 1572 O 150.761 -3.90687 -0.934153 0
M  V30 1573 N 148.967 -2.90559 -0.0485243 0
M  V30 1574 H 148.514 -2.46968 0.732419 0
M  V30 1575 H 148.472 -3.00937 -0.910171 0
M  V30 1576 N 152.244 -1.26651 -0.937939 0
M  V30 1577 C 153.492 -1.12165 -1.68118 0
M  V30 1578 C 153.813 0.334983 -1.92101 0
M  V30 1579 O 153.083 1.23583 -1.52 0
M  V30 1580 H 151.663 -0.412093 -0.623048 0
M  V30 1581 H 154.325 -1.59027 -1.12678 0
M  V30 1582 H 153.421 -1.64289 -2.6536 0
M  V30 1583 N 153.722 1.14298 -1.08507 0
M  V30 1584 C 154.669 2.19414 -0.715965 0
M  V30 1585 C 155.639 1.63399 0.298326 0
M  V30 1586 O 156.824 1.89929 0.182101 0
M  V30 1587 C 153.964 3.44845 -0.132534 0
M  V30 1588 C 153.077 4.15007 -1.19973 0
M  V30 1589 C 152.212 5.28024 -0.580048 0
M  V30 1590 C 151.251 5.9002 -1.62921 0
M  V30 1591 N 150.388 6.94485 -1.03125 0
M  V30 1592 H 155.228 2.50336 -1.61666 0
M  V30 1593 H 152.765 1.2293 -0.807882 0
M  V30 1594 H 154.723 4.16601 0.223454 0
M  V30 1595 H 153.353 3.14403 0.731467 0
M  V30 1596 H 152.405 3.41629 -1.67313 0
M  V30 1597 H 153.717 4.57178 -1.99473 0
M  V30 1598 H 152.871 6.06455 -0.172364 0
M  V30 1599 H 151.61 4.87076 0.246603 0
M  V30 1600 H 150.615 5.10291 -2.04654 0
M  V30 1601 H 151.84 6.33042 -2.45835 0
M  V30 1602 H 149.786 6.55612 -0.225711 0
M  V30 1603 H 149.703 7.35148 -1.76334 0
M  V30 1604 H 150.971 7.7679 -0.649458 0
M  V30 1605 N 155.201 0.870884 1.31352 0
M  V30 1606 C 156.164 0.332243 2.26779 0
M  V30 1607 C 157.164 -0.517302 1.52252 0
M  V30 1608 O 158.354 -0.326477 1.71113 0
M  V30 1609 C 155.486 -0.528066 3.36785 0
M  V30 1610 H 156.679 1.17469 2.75937 0
M  V30 1611 H 154.232 0.64655 1.423 0
M  V30 1612 H 154.967 -1.39167 2.92922 0
M  V30 1613 H 154.752 0.0802582 3.92018 0
M  V30 1614 H 156.242 -0.897179 4.07849 0
M  V30 1615 N 156.679 -1.44442 0.630414 0
M  V30 1616 C 157.907 -2.06414 0.141671 0
M  V30 1617 C 158.322 -1.47105 -1.18345 0
M  V30 1618 O 157.679 -0.593662 -1.72574 0
M  V30 1619 C 157.73 -3.61494 0.0199784 0
M  V30 1620 O 157.451 -4.18594 1.29269 0
M  V30 1621 C 158.952 -4.40499 -0.497544 0
M  V30 1622 H 156.172 -0.666292 0.0793452 0
M  V30 1623 H 158.716 -1.85323 0.864614 0
M  V30 1624 H 156.871 -3.8185 -0.653402 0
M  V30 1625 H 157.285 -5.12026 1.13707 0
M  V30 1626 H 158.759 -5.49433 -0.531708 0
M  V30 1627 H 159.236 -4.11895 -1.52445 0
M  V30 1628 H 159.842 -4.25061 0.142562 0
M  V30 1629 N 158.157 -0.370918 -1.53173 0
M  V30 1630 C 159.568 0.107139 -1.86392 0
M  V30 1631 C 159.919 1.47714 -1.29132 0
M  V30 1632 O 159.044 2.07464 -0.615439 0
M  V30 1633 C 159.639 0.201187 -3.38202 0
M  V30 1634 C 158.198 0.623507 -3.712 0
M  V30 1635 C 157.345 -0.225978 -2.76378 0
M  V30 1636 H 160.296 -0.58951 -1.47345 0
M  V30 1637 H 160.317 1.02377 -3.66468 0
M  V30 1638 H 159.829 -0.796058 -3.79848 0
M  V30 1639 H 157.93 1.62879 -3.35114 0
M  V30 1640 H 158.043 0.394414 -4.77474 0
M  V30 1641 H 156.407 0.305962 -2.52856 0
M  V30 1642 H 157.19 -1.22086 -3.20858 0
M  V30 1643 N 159.635 1.57281 -0.100228 0
M  V30 1644 C 160.881 1.94826 0.563101 0
M  V30 1645 C 161.214 0.982475 1.67514 0
M  V30 1646 O 160.489 0.0164069 1.94493 0
M  V30 1647 C 160.772 3.42453 1.11346 0
M  V30 1648 C 160.625 4.498 0.00612081 0
M  V30 1649 C 161.944 3.91506 2.01024 0
M  V30 1650 H 159.063 0.708428 0.203221 0
M  V30 1651 H 161.705 1.8922 -0.171979 0
M  V30 1652 H 159.855 3.47361 1.7399 0
M  V30 1653 H 161.527 4.57 -0.628357 0
M  V30 1654 H 159.77 4.28756 -0.659581 0
M  V30 1655 H 160.441 5.50306 0.432109 0
M  V30 1656 H 162.917 3.88784 1.48278 0
M  V30 1657 H 161.793 4.95358 2.36457 0
M  V30 1658 H 162.054 3.31099 2.92961 0
M  V30 1659 N 161.113 -0.173488 1.56642 0
M  V30 1660 C 162.06 -1.21482 1.96242 0
M  V30 1661 C 163.03 -1.44104 0.826027 0
M  V30 1662 O 164.215 -1.5688 1.08597 0
M  V30 1663 C 161.355 -2.54964 2.32567 0
M  V30 1664 C 160.468 -2.39739 3.59373 0
M  V30 1665 C 159.603 -3.66072 3.84921 0
M  V30 1666 C 158.642 -3.45771 5.05083 0
M  V30 1667 N 157.779 -4.64169 5.26775 0
M  V30 1668 H 162.619 -0.870123 2.85014 0
M  V30 1669 H 160.156 -0.418245 1.41029 0
M  V30 1670 H 162.114 -3.32758 2.5165 0
M  V30 1671 H 160.744 -2.87433 1.46908 0
M  V30 1672 H 159.796 -1.53131 3.48217 0
M  V30 1673 H 161.108 -2.20683 4.47326 0
M  V30 1674 H 160.262 -4.52303 4.0436 0
M  V30 1675 H 159.001 -3.88105 2.9534 0
M  V30 1676 H 158.006 -2.57927 4.85545 0
M  V30 1677 H 159.231 -3.25163 5.96193 0
M  V30 1678 H 157.177 -4.86425 4.40144 0
M  V30 1679 H 157.094 -4.48019 6.08946 0
M  V30 1680 H 158.362 -5.51689 5.5069 0
M  V30 1681 N 162.591 -1.51276 -0.441967 0
M  V30 1682 C 163.819 -1.67516 -1.21434 0
M  V30 1683 C 164.234 -0.37055 -1.85128 0
M  V30 1684 O 163.591 0.650498 -1.70513 0
M  V30 1685 C 163.642 -2.78748 -2.30177 0
M  V30 1686 O 163.363 -4.04154 -1.69089 0
M  V30 1687 C 164.864 -3.06217 -3.20541 0
M  V30 1688 H 162.084 -0.562276 -0.366178 0
M  V30 1689 H 164.628 -1.97666 -0.524244 0
M  V30 1690 H 162.783 -2.5121 -2.94911 0
M  V30 1691 H 163.197 -4.65894 -2.40922 0
M  V30 1692 H 164.671 -3.8764 -3.92987 0
M  V30 1693 H 165.148 -2.18439 -3.81026 0
M  V30 1694 H 165.754 -3.35397 -2.61513 0
M  V30 1695 N 164.069 0.697108 -1.41344 0
M  V30 1696 C 165.346 1.45154 -1.31109 0
M  V30 1697 C 165.726 2.11009 0.0620449 0
M  V30 1698 O 165.074 2.01571 1.07618 0
M  V30 1699 C 165.284 2.47223 -2.46337 0
M  V30 1700 C 166.632 3.1252 -2.87431 0
M  V30 1701 O 167.656 2.57547 -2.46065 0
M  V30 1702 O 166.515 4.12083 -3.58957 0
M  V30 1703 H 163.609 0.646365 -0.515889 0
M  V30 1704 H 166.155 0.727716 -1.53305 0
M  V30 1705 H 164.927 1.97204 -3.37974 0
M  V30 1706 H 164.55 3.27116 -2.2601 0
M  V30 1707 N 165.547 1.27147 0.931209 0
M  V30 1708 C 166.772 1.16191 1.71797 0
M  V30 1709 C 167.197 -0.278004 1.86034 0
M  V30 1710 O 166.555 -1.20137 1.35782 0
M  V30 1711 C 166.603 1.84673 3.09723 0
M  V30 1712 O 165.707 1.14231 3.96264 0
M  V30 1713 H 165.048 0.404303 0.526721 0
M  V30 1714 H 167.578 1.68152 1.1656 0
M  V30 1715 H 167.588 1.91893 3.60057 0
M  V30 1716 H 166.263 2.89421 2.98677 0
M  V30 1717 H 164.84 1.15056 3.54706 0
M  V30 1718 N 167.025 -1.13721 1.09112 0
M  V30 1719 C 168.273 -1.84559 0.823562 0
M  V30 1720 C 168.594 -1.83754 -0.652658 0
M  V30 1721 O 167.864 -1.29102 -1.47342 0
M  V30 1722 H 166.444 -0.683376 0.301673 0
M  V30 1723 H 169.106 -1.37771 1.37859 0
M  V30 1724 H 168.202 -2.8917 1.17419 0
M  V30 1725 N 168.503 -0.877838 -1.30888 0
M  V30 1726 C 169.466 -0.344265 -2.266 0
M  V30 1727 C 170.466 0.50922 -1.52524 0
M  V30 1728 O 171.656 0.317398 -1.71284 0
M  V30 1729 C 168.788 0.510198 -3.37061 0
M  V30 1730 H 169.981 -1.1893 -2.7531 0
M  V30 1731 H 167.534 -0.654088 -1.41956 0
M  V30 1732 H 168.269 1.37612 -2.93655 0
M  V30 1733 H 168.054 -0.101047 -3.9197 0
M  V30 1734 H 169.544 0.875537 -4.08319 0
M  V30 1735 N 169.982 1.44106 -0.638065 0
M  V30 1736 C 170.929 2.30715 0.062701 0
M  V30 1737 C 171.899 1.43882 0.829883 0
M  V30 1738 O 173.084 1.72775 0.809532 0
M  V30 1739 C 170.224 3.29258 1.03358 0
M  V30 1740 C 169.337 4.31192 0.26409 0
M  V30 1741 C 168.472 5.16825 1.22741 0
M  V30 1742 C 167.511 6.10462 0.447475 0
M  V30 1743 N 166.648 6.8877 1.36161 0
M  V30 1744 H 171.488 2.90096 -0.681781 0
M  V30 1745 H 169.025 1.42925 -0.347988 0
M  V30 1746 H 170.983 3.84886 1.60992 0
M  V30 1747 H 169.613 2.71562 1.74511 0
M  V30 1748 H 168.665 3.77981 -0.428295 0
M  V30 1749 H 169.977 4.97619 -0.343052 0
M  V30 1750 H 169.131 5.77004 1.87487 0
M  V30 1751 H 167.87 4.50488 1.86847 0
M  V30 1752 H 166.875 5.49386 -0.213433 0
M  V30 1753 H 168.1 6.78837 -0.188968 0
M  V30 1754 H 166.046 6.25096 1.98975 0
M  V30 1755 H 165.963 7.51663 0.808656 0
M  V30 1756 H 167.231 7.53467 1.99769 0
M  V30 1757 N 171.46 0.379036 1.52974 0
M  V30 1758 C 172.423 -0.448865 2.24762 0
M  V30 1759 C 173.423 -0.998689 1.26027 0
M  V30 1760 O 174.613 -0.882313 1.50203 0
M  V30 1761 C 171.745 -1.62872 2.99476 0
M  V30 1762 H 172.938 0.179491 2.99362 0
M  V30 1763 H 170.491 0.13096 1.5575 0
M  V30 1764 H 171.226 -2.29479 2.29151 0
M  V30 1765 H 171.011 -1.24128 3.71934 0
M  V30 1766 H 172.501 -2.2151 3.5401 0
M  V30 1767 N 172.938 -1.57226 0.108567 0
M  V30 1768 C 174.185 -1.94833 -0.551943 0
M  V30 1769 C 174.513 -0.991204 -1.67348 0
M  V30 1770 O 173.768 -0.0131878 -1.95696 0
M  V30 1771 C 174.067 -3.38911 -1.13463 0
M  V30 1772 C 173.733 -4.50696 -0.135509 0
M  V30 1773 C 172.395 -4.80998 0.139252 0
M  V30 1774 C 174.747 -5.18333 0.545957 0
M  V30 1775 C 172.075 -5.76259 1.10194 0
M  V30 1776 C 174.427 -6.14627 1.49721 0
M  V30 1777 C 173.091 -6.43327 1.78006 0
M  V30 1778 H 172.361 -0.712944 -0.20197 0
M  V30 1779 H 175.008 -1.90582 0.18726 0
M  V30 1780 H 173.313 -3.39805 -1.95037 0
M  V30 1781 H 175.01 -3.65317 -1.65362 0
M  V30 1782 H 171.6 -4.27087 -0.359846 0
M  V30 1783 H 175.784 -4.95087 0.346842 0
M  V30 1784 H 171.04 -5.96804 1.32795 0
M  V30 1785 H 175.214 -6.66126 2.03099 0
M  V30 1786 H 172.841 -7.1695 2.52759 0
M  V30 1787 N 174.416 0.165178 -1.56732 0
M  V30 1788 C 175.379 1.18822 -1.95995 0
M  V30 1789 C 176.379 1.3685 -0.84431 0
M  V30 1790 O 177.569 1.34152 -1.11126 0
M  V30 1791 C 174.701 2.5521 -2.26011 0
M  V30 1792 H 175.894 0.851825 -2.87548 0
M  V30 1793 H 173.447 0.407857 -1.50885 0
M  V30 1794 H 174.182 2.93852 -1.37191 0
M  V30 1795 H 173.967 2.43489 -3.07336 0
M  V30 1796 H 175.457 3.28927 -2.57288 0
M  V30 1797 N 175.894 1.51508 0.433938 0
M  V30 1798 C 176.841 1.73068 1.52696 0
M  V30 1799 C 177.811 0.572441 1.55924 0
M  V30 1800 O 178.996 0.807253 1.72882 0
M  V30 1801 C 176.136 1.86474 2.90381 0
M  V30 1802 C 175.249 3.14037 2.96656 0
M  V30 1803 C 174.384 3.18019 4.25485 0
M  V30 1804 C 173.423 4.39882 4.2564 0
M  V30 1805 N 172.56 4.41394 5.45999 0
M  V30 1806 H 177.4 2.66366 1.33615 0
M  V30 1807 H 174.937 1.32008 0.649018 0
M  V30 1808 H 176.895 1.92229 3.70275 0
M  V30 1809 H 175.525 0.965809 3.08013 0
M  V30 1810 H 174.577 3.17575 2.09404 0
M  V30 1811 H 175.889 4.0394 2.92633 0
M  V30 1812 H 175.043 3.22708 5.13755 0
M  V30 1813 H 173.782 2.2601 4.3217 0
M  V30 1814 H 172.787 4.35366 3.35763 0
M  V30 1815 H 174.012 5.33159 4.20617 0
M  V30 1816 H 171.958 3.52258 5.53399 0
M  V30 1817 H 171.875 5.25111 5.4387 0
M  V30 1818 H 173.143 4.50281 6.36292 0
M  V30 1819 N 177.372 -0.689602 1.41712 0
M  V30 1820 C 178.783 -1.26973 1.36875 0
M  V30 1821 C 179.134 -1.96124 0.054748 0
M  V30 1822 O 178.259 -1.99141 -0.84687 0
M  V30 1823 C 178.854 -2.30912 2.47922 0
M  V30 1824 C 177.413 -2.84486 2.46464 0
M  V30 1825 C 176.56 -1.58603 2.27465 0
M  V30 1826 H 179.511 -0.48396 1.51141 0
M  V30 1827 H 179.532 -3.12331 2.17323 0
M  V30 1828 H 179.044 -1.80554 3.43543 0
M  V30 1829 H 177.145 -3.39005 1.54617 0
M  V30 1830 H 177.258 -3.34511 3.42986 0
M  V30 1831 H 175.622 -1.84632 1.75451 0
M  V30 1832 H 176.405 -1.10233 3.25121 0
M  V30 1833 N 178.85 -1.27639 -0.924453 0
M  V30 1834 C 180.261 -1.12834 -1.48746 0
M  V30 1835 C 180.612 0.285505 -1.94112 0
M  V30 1836 O 179.737 1.17874 -1.81479 0
M  V30 1837 C 180.332 -2.04217 -2.70334 0
M  V30 1838 C 178.891 -1.93509 -3.22848 0
M  V30 1839 C 178.038 -1.96583 -1.95577 0
M  V30 1840 H 180.989 -1.40484 -0.738233 0
M  V30 1841 H 181.01 -1.59989 -3.4523 0
M  V30 1842 H 180.522 -3.07111 -2.37285 0
M  V30 1843 H 178.623 -0.936131 -3.60649 0
M  V30 1844 H 178.736 -2.79917 -3.88823 0
M  V30 1845 H 177.1 -1.4085 -2.12211 0
M  V30 1846 H 177.883 -3.01137 -1.64837 0
M  V30 1847 N 180.328 1.1314 -1.09713 0
M  V30 1848 C 181.291 2.16831 -0.742751 0
M  V30 1849 C 182.291 1.59159 0.229129 0
M  V30 1850 O 183.481 1.74199 0.00693237 0
M  V30 1851 C 180.613 3.40756 -0.0989168 0
M  V30 1852 H 181.806 2.49695 -1.66109 0
M  V30 1853 H 179.359 1.2802 -0.896699 0
M  V30 1854 H 180.094 3.13485 0.830514 0
M  V30 1855 H 179.879 3.83888 -0.798265 0
M  V30 1856 H 181.369 4.17386 0.133524 0
M  V30 1857 N 181.806 0.884767 1.30421 0
M  V30 1858 C 182.716 0.355398 2.31892 0
M  V30 1859 C 183.732 -0.542261 1.65335 0
M  V30 1860 O 184.908 -0.435432 1.96637 0
M  V30 1861 C 181.973 -0.421661 3.44126 0
M  V30 1862 C 181.034 0.505727 4.26311 0
M  V30 1863 C 180.267 -0.234343 5.33185 0
M  V30 1864 O 180.49 -1.46045 5.51386 0
M  V30 1865 O 179.424 0.415443 6.00465 0
M  V30 1866 H 183.25 1.19685 2.79122 0
M  V30 1867 H 180.835 0.648596 1.34587 0
M  V30 1868 H 182.717 -0.861641 4.12497 0
M  V30 1869 H 181.392 -1.23942 2.99032 0
M  V30 1870 H 180.299 0.994513 3.60639 0
M  V30 1871 H 181.632 1.28948 4.75009 0
M  V30 1872 N 183.284 -1.43765 0.645699 0
M  V30 1873 C 184.194 -2.34544 -0.0512957 0
M  V30 1874 C 185.21 -1.53455 -0.82022 0
M  V30 1875 O 186.386 -1.86133 -0.769176 0
M  V30 1876 C 183.451 -3.31636 -1.01087 0
M  V30 1877 C 182.512 -4.2863 -0.239712 0
M  V30 1878 C 181.745 -5.21084 -1.15358 0
M  V30 1879 O 181.968 -5.1779 -2.39269 0
M  V30 1880 O 180.902 -5.98593 -0.630038 0
M  V30 1881 H 184.728 -2.95624 0.695718 0
M  V30 1882 H 182.313 -1.43781 0.405882 0
M  V30 1883 H 184.195 -3.9136 -1.56254 0
M  V30 1884 H 182.87 -2.73069 -1.73824 0
M  V30 1885 H 181.777 -3.72408 0.355356 0
M  V30 1886 H 183.11 -4.90157 0.447936 0
M  V30 1887 N 184.763 -0.387143 -1.52771 0
M  V30 1888 C 185.695 0.484089 -2.2403 0
M  V30 1889 C 186.708 1.02849 -1.26198 0
M  V30 1890 O 187.897 0.931186 -1.52286 0
M  V30 1891 C 184.997 1.68337 -2.94136 0
M  V30 1892 C 184.17 1.26672 -4.18656 0
M  V30 1893 C 183.229 2.33045 -4.7178 0
M  V30 1894 O 182.255 1.94541 -5.34923 0
M  V30 1895 N 183.457 3.64929 -4.5145 0
M  V30 1896 H 186.222 -0.126404 -2.99433 0
M  V30 1897 H 183.783 -0.213392 -1.60488 0
M  V30 1898 H 185.775 2.39019 -3.26577 0
M  V30 1899 H 184.345 2.20025 -2.22053 0
M  V30 1900 H 183.565 0.388878 -3.92277 0
M  V30 1901 H 184.853 0.964964 -4.99566 0
M  V30 1902 H 184.251 3.98974 -4.01044 0
M  V30 1903 H 182.808 4.31651 -4.88386 0
M  V30 1904 N 186.241 1.57166 -0.116904 0
M  V30 1905 C 187.171 2.18222 0.830759 0
M  V30 1906 C 188.152 1.12167 1.27877 0
M  V30 1907 O 189.337 1.40394 1.34176 0
M  V30 1908 C 186.467 2.77996 2.08172 0
M  V30 1909 C 185.421 3.89614 1.77157 0
M  V30 1910 C 184.747 4.36187 3.09265 0
M  V30 1911 C 186.047 5.1181 1.04151 0
M  V30 1912 H 187.741 2.97664 0.321992 0
M  V30 1913 H 185.287 1.4318 0.153434 0
M  V30 1914 H 187.24 3.19366 2.74924 0
M  V30 1915 H 185.964 1.9584 2.6137 0
M  V30 1916 H 184.623 3.48816 1.12796 0
M  V30 1917 H 184.271 3.50893 3.60393 0
M  V30 1918 H 183.971 5.11455 2.89288 0
M  V30 1919 H 185.495 4.80207 3.77139 0
M  V30 1920 H 186.909 5.50214 1.61052 0
M  V30 1921 H 185.306 5.92648 0.942762 0
M  V30 1922 H 186.376 4.84892 0.0279022 0
M  V30 1923 N 187.719 -0.156864 1.56817 0
M  V30 1924 C 188.666 -1.19394 1.97519 0
M  V30 1925 C 189.636 -1.4322 0.841265 0
M  V30 1926 O 190.821 -1.55719 1.10255 0
M  V30 1927 C 187.961 -2.52483 2.35258 0
M  V30 1928 C 187.074 -2.35914 3.61896 0
M  V30 1929 C 186.209 -3.61969 3.88782 0
M  V30 1930 C 185.248 -3.40395 5.08722 0
M  V30 1931 N 184.385 -4.58556 5.31668 0
M  V30 1932 H 189.225 -0.839845 2.85921 0
M  V30 1933 H 186.762 -0.403264 1.41464 0
M  V30 1934 H 188.72 -3.30071 2.55165 0
M  V30 1935 H 187.35 -2.85859 1.49949 0
M  V30 1936 H 186.402 -1.49429 3.49821 0
M  V30 1937 H 187.714 -2.15926 4.49641 0
M  V30 1938 H 186.868 -4.47989 4.09135 0
M  V30 1939 H 185.607 -3.84951 2.9944 0
M  V30 1940 H 184.612 -2.52763 4.88253 0
M  V30 1941 H 185.837 -3.18822 5.99608 0
M  V30 1942 H 183.783 -4.81729 4.45279 0
M  V30 1943 H 183.7 -4.41535 6.13664 0
M  V30 1944 H 184.968 -5.45817 5.5651 0
M  V30 1945 N 189.197 -1.51736 -0.425897 0
M  V30 1946 C 190.144 -1.73875 -1.51776 0
M  V30 1947 C 191.114 -0.580702 -1.55618 0
M  V30 1948 O 192.299 -0.81641 -1.72451 0
M  V30 1949 C 189.439 -1.88012 -2.89388 0
M  V30 1950 C 188.552 -3.15606 -2.94986 0
M  V30 1951 C 187.687 -3.20271 -4.23793 0
M  V30 1952 C 186.726 -4.42134 -4.23302 0
M  V30 1953 N 185.863 -4.44284 -5.43651 0
M  V30 1954 H 190.703 -2.67071 -1.32201 0
M  V30 1955 H 188.24 -1.32351 -0.642008 0
M  V30 1956 H 190.198 -1.9419 -3.69251 0
M  V30 1957 H 188.828 -0.98213 -3.07496 0
M  V30 1958 H 187.88 -3.18681 -2.07717 0
M  V30 1959 H 189.192 -4.05486 -2.90486 0
M  V30 1960 H 188.346 -3.25428 -5.12036 0
M  V30 1961 H 187.085 -2.28299 -4.30965 0
M  V30 1962 H 186.09 -4.3714 -3.3345 0
M  V30 1963 H 187.315 -5.35382 -4.17783 0
M  V30 1964 H 185.261 -3.55188 -5.51523 0
M  V30 1965 H 185.178 -5.27988 -5.41078 0
M  V30 1966 H 186.446 -4.53649 -6.33895 0
M  V30 1967 N 190.675 0.682077 -1.42076 0
M  V30 1968 C 191.622 1.79578 -1.44984 0
M  V30 1969 C 192.592 1.6332 -0.302614 0
M  V30 1970 O 193.777 1.83978 -0.505633 0
M  V30 1971 C 190.917 3.1756 -1.35091 0
M  V30 1972 C 190.03 3.45156 -2.59791 0
M  V30 1973 C 189.165 4.72826 -2.42093 0
M  V30 1974 C 188.204 4.93433 -3.62202 0
M  V30 1975 N 187.341 6.12338 -3.43491 0
M  V30 1976 H 192.181 1.76427 -2.40161 0
M  V30 1977 H 189.718 0.861376 -1.19242 0
M  V30 1978 H 191.676 3.97287 -1.27354 0
M  V30 1979 H 190.306 3.19854 -0.435133 0
M  V30 1980 H 189.358 2.59736 -2.77923 0
M  V30 1981 H 190.67 3.5628 -3.49094 0
M  V30 1982 H 189.824 5.60631 -2.319 0
M  V30 1983 H 188.563 4.63973 -1.50268 0
M  V30 1984 H 187.568 4.04073 -3.72834 0
M  V30 1985 H 188.793 5.04136 -4.54998 0
M  V30 1986 H 186.739 6.04672 -2.54377 0
M  V30 1987 H 186.656 6.2429 -4.26377 0
M  V30 1988 H 187.924 7.02841 -3.37097 0
M  V30 1989 N 192.153 1.28127 0.917671 0
M  V30 1990 C 193.43 1.05761 1.64542 0
M  V30 1991 C 193.81 -0.404344 2.07191 0
M  V30 1992 O 193.158 -1.38963 1.81388 0
M  V30 1993 C 193.368 2.02857 2.83989 0
M  V30 1994 C 194.716 2.32786 3.551 0
M  V30 1995 O 195.74 2.0091 2.94132 0
M  V30 1996 O 194.599 2.87169 4.64969 0
M  V30 1997 H 191.693 0.403916 0.721652 0
M  V30 1998 H 194.239 1.39431 0.967322 0
M  V30 1999 H 193.011 3.01407 2.49538 0
M  V30 2000 H 192.634 1.69809 3.59514 0
M  V30 2001 N 193.631 -1.12557 1.10312 0
M  V30 2002 C 194.579 -2.20325 0.745629 0
M  V30 2003 C 195.573 -1.67429 -0.25763 0
M  V30 2004 O 196.779 -1.79612 -0.118132 0
M  V30 2005 H 193.154 -0.718118 0.223182 0
M  V30 2006 H 195.125 -2.47733 1.66346 0
M  V30 2007 C 193.874 -3.47168 0.192262 0
M  V30 2008 H 193.197 -3.88215 0.955475 0
M  V30 2009 H 194.637 -4.23995 -0.0198274 0
M  V30 2010 C 193.096 -3.19298 -1.07472 0
M  V30 2011 O 193.626 -3.3891 -2.15645 0
M  V30 2012 N 191.832 -2.73113 -0.992847 0
M  V30 2013 H 191.379 -2.57354 -0.112474 0
M  V30 2014 H 191.337 -2.54842 -1.84127 0
M  V30 2015 N 195.109 -0.891671 -1.2995 0
M  V30 2016 C 196.056 -0.361736 -2.27948 0
M  V30 2017 C 197.026 0.551761 -1.56668 0
M  V30 2018 O 198.211 0.478736 -1.84696 0
M  V30 2019 C 195.351 0.411825 -3.42634 0
M  V30 2020 C 194.464 -0.531651 -4.28716 0
M  V30 2021 C 193.599 0.258167 -5.30572 0
M  V30 2022 C 192.638 -0.680349 -6.08307 0
M  V30 2023 N 191.775 0.0745613 -7.0206 0
M  V30 2024 H 196.615 -1.20254 -2.72659 0
M  V30 2025 H 194.152 -0.604352 -1.34112 0
M  V30 2026 H 196.11 0.876304 -4.07893 0
M  V30 2027 H 194.74 1.21715 -2.98974 0
M  V30 2028 H 193.792 -1.11463 -3.63703 0
M  V30 2029 H 195.104 -1.25038 -4.82874 0
M  V30 2030 H 194.258 0.784204 -6.0161 0
M  V30 2031 H 192.997 1.01008 -4.77126 0
M  V30 2032 H 192.002 -1.21796 -5.3614 0
M  V30 2033 H 193.227 -1.43145 -6.63842 0
M  V30 2034 H 191.173 0.808883 -6.50994 0
M  V30 2035 H 191.09 -0.584409 -7.53738 0
M  V30 2036 H 192.358 0.581123 -7.77331 0
M  V30 2037 N 196.587 1.43421 -0.653314 0
M  V30 2038 C 197.835 2.01414 -0.166415 0
M  V30 2039 C 198.156 1.51803 1.22397 0
M  V30 2040 O 197.426 0.730693 1.81763 0
M  V30 2041 H 196.006 0.744703 -0.0585319 0
M  V30 2042 H 198.668 1.75629 -0.845003 0
M  V30 2043 H 197.764 3.11734 -0.151111 0
M  V30 2044 N 198.065 0.39524 1.52563 0
M  V30 2045 C 199.013 -0.451859 2.28169 0
M  V30 2046 C 200.007 -1.05792 1.32304 0
M  V30 2047 O 201.213 -0.997718 1.49818 0
M  V30 2048 H 197.588 -0.164481 0.733792 0
M  V30 2049 H 199.559 0.207199 2.9768 0
M  V30 2050 C 198.308 -1.56385 3.10546 0
M  V30 2051 H 197.631 -1.10682 3.84174 0
M  V30 2052 H 199.071 -2.13067 3.66577 0
M  V30 2053 C 197.53 -2.52328 2.23231 0
M  V30 2054 O 198.06 -3.5588 1.86312 0
M  V30 2055 N 196.266 -2.22209 1.87274 0
M  V30 2056 H 195.813 -1.38033 2.17496 0
M  V30 2057 H 195.771 -2.86652 1.29143 0
M  V30 2058 N 199.544 -1.57102 0.125237 0
M  V30 2059 C 200.772 -1.99761 -0.538797 0
M  V30 2060 C 201.187 -1.00503 -1.59827 0
M  V30 2061 O 200.544 0.00119474 -1.825 0
M  V30 2062 C 200.595 -3.42408 -1.15927 0
M  V30 2063 O 200.316 -4.37869 -0.142143 0
M  V30 2064 C 201.817 -4.00232 -1.90602 0
M  V30 2065 H 199.037 -0.655772 -0.14214 0
M  V30 2066 H 201.581 -2.03383 0.213413 0
M  V30 2067 H 199.736 -3.39706 -1.86223 0
M  V30 2068 H 200.15 -5.21128 -0.593775 0
M  V30 2069 H 201.624 -5.02105 -2.29335 0
M  V30 2070 H 202.101 -3.39721 -2.78363 0
M  V30 2071 H 202.707 -4.06499 -1.25055 0
M  V30 2072 N 201.022 0.148545 -1.56898 0
M  V30 2073 C 201.955 1.21293 -1.93296 0
M  V30 2074 C 202.933 1.41637 -0.798599 0
M  V30 2075 O 204.117 1.56275 -1.05406 0
M  V30 2076 C 201.244 2.5721 -2.20365 0
M  V30 2077 C 200.29 2.53469 -3.4301 0
M  V30 2078 S 201.123 2.00315 -4.96623 0
M  V30 2079 C 202.279 3.37964 -5.26812 0
M  V30 2080 H 202.512 0.902393 -2.83274 0
M  V30 2081 H 200.045 0.354094 -1.50285 0
M  V30 2082 H 202.003 3.35427 -2.36641 0
M  V30 2083 H 200.664 2.85454 -1.31054 0
M  V30 2084 H 199.857 3.53518 -3.59223 0
M  V30 2085 H 199.459 1.83359 -3.25968 0
M  V30 2086 H 201.751 4.34066 -5.20185 0
M  V30 2087 H 202.694 3.26606 -6.28279 0
M  V30 2088 H 203.102 3.35028 -4.54331 0
M  V30 2089 N 202.5 1.5196 0.417844 0
M  V30 2090 C 203.728 1.69426 1.18753 0
M  V30 2091 C 204.143 0.399955 1.84515 0
M  V30 2092 O 203.5 -0.623288 1.71527 0
M  V30 2093 C 203.551 2.82375 2.25714 0
M  V30 2094 O 203.272 4.06793 1.62638 0
M  V30 2095 C 204.773 3.11277 3.15628 0
M  V30 2096 H 201.993 0.568031 0.357186 0
M  V30 2097 H 204.537 1.98475 0.49273 0
M  V30 2098 H 202.692 2.5587 2.90877 0
M  V30 2099 H 203.106 4.69667 2.3348 0
M  V30 2100 H 204.58 3.93843 3.86771 0
M  V30 2101 H 205.057 2.24473 3.77503 0
M  V30 2102 H 205.663 3.39515 2.56144 0
M  V30 2103 N 203.978 -0.674533 1.42435 0
M  V30 2104 C 204.91 -1.80005 1.41883 0
M  V30 2105 C 205.923 -1.59667 0.31787 0
M  V30 2106 O 207.112 -1.68781 0.580973 0
M  V30 2107 C 204.212 -3.17114 1.19549 0
M  V30 2108 C 203.385 -3.64299 2.42084 0
M  V30 2109 C 202.444 -4.80142 2.15291 0
M  V30 2110 O 201.47 -4.90673 2.88493 0
M  V30 2111 N 202.672 -5.68869 1.1562 0
M  V30 2112 H 205.437 -1.80964 2.38898 0
M  V30 2113 H 202.998 -0.857633 1.37318 0
M  V30 2114 H 204.99 -3.92267 0.995417 0
M  V30 2115 H 203.56 -3.11053 0.310569 0
M  V30 2116 H 202.78 -2.79822 2.77657 0
M  V30 2117 H 204.068 -3.92567 3.23679 0
M  V30 2118 H 203.466 -5.63012 0.550765 0
M  V30 2119 H 202.023 -6.43833 1.016 0
M  V30 2120 N 205.456 -1.28612 -0.910864 0
M  V30 2121 C 206.419 -1.12803 -1.9952 0
M  V30 2122 C 207.419 -0.0668264 -1.60661 0
M  V30 2123 O 208.609 -0.312847 -1.71368 0
M  V30 2124 C 205.741 -0.72254 -3.33155 0
M  V30 2125 H 206.934 -2.09109 -2.14973 0
M  V30 2126 H 204.487 -1.11639 -1.09391 0
M  V30 2127 H 205.222 0.241152 -3.23402 0
M  V30 2128 H 205.007 -1.48916 -3.62721 0
M  V30 2129 H 206.497 -0.634666 -4.12749 0
M  V30 2130 N 206.934 1.1197 -1.10907 0
M  V30 2131 C 207.881 2.17846 -0.762345 0
M  V30 2132 C 208.851 1.63995 0.263599 0
M  V30 2133 O 210.036 1.90273 0.141773 0
M  V30 2134 C 207.176 3.44487 -0.205651 0
M  V30 2135 C 206.289 4.12369 -1.28748 0
M  V30 2136 C 205.424 5.26674 -0.691919 0
M  V30 2137 C 204.463 5.86431 -1.75399 0
M  V30 2138 N 203.6 6.92142 -1.17833 0
M  V30 2139 H 208.44 2.46851 -1.6694 0
M  V30 2140 H 205.977 1.21188 -0.833776 0
M  V30 2141 H 207.935 4.16981 0.135037 0
M  V30 2142 H 206.565 3.15884 0.664613 0
M  V30 2143 H 205.617 3.38003 -1.74522 0
M  V30 2144 H 206.929 4.52844 -2.09125 0
M  V30 2145 H 206.083 6.05953 -0.300963 0
M  V30 2146 H 204.822 4.8749 0.143232 0
M  V30 2147 H 203.827 5.05835 -2.15432 0
M  V30 2148 H 205.052 6.27685 -2.59208 0
M  V30 2149 H 202.998 6.54985 -0.364725 0
M  V30 2150 H 202.915 7.31242 -1.91887 0
M  V30 2151 H 204.183 7.75237 -0.81408 0
M  V30 2152 N 208.412 0.89855 1.29475 0
M  V30 2153 C 209.375 0.380272 2.26023 0
M  V30 2154 C 210.375 -0.484891 1.53315 0
M  V30 2155 O 211.565 -0.290108 1.71767 0
M  V30 2156 C 208.697 -0.45651 3.3783 0
M  V30 2157 H 209.89 1.23295 2.73383 0
M  V30 2158 H 207.443 0.676589 1.40897 0
M  V30 2159 H 208.178 -1.32922 2.95808 0
M  V30 2160 H 207.963 0.163393 3.91759 0
M  V30 2161 H 209.453 -0.810466 4.0966 0
M  V30 2162 N 209.89 -1.43072 0.660911 0
M  V30 2163 C 210.837 -2.30785 -0.0259884 0
M  V30 2164 C 211.807 -1.45184 -0.806888 0
M  V30 2165 O 212.992 -1.74041 -0.781943 0
M  V30 2166 C 210.132 -3.30861 -0.981067 0
M  V30 2167 C 209.245 -4.31558 -0.195458 0
M  V30 2168 C 208.38 -5.18712 -1.14503 0
M  V30 2169 C 207.419 -6.11097 -0.350299 0
M  V30 2170 N 206.556 -6.90849 -1.25186 0
M  V30 2171 H 211.396 -2.88975 0.727846 0
M  V30 2172 H 208.933 -1.42353 0.370682 0
M  V30 2173 H 210.891 -3.87399 -1.54849 0
M  V30 2174 H 209.521 -2.74304 -1.70169 0
M  V30 2175 H 208.573 -3.77252 0.488374 0
M  V30 2176 H 209.885 -4.9701 0.422176 0
M  V30 2177 H 209.039 -5.79914 -1.78284 0
M  V30 2178 H 207.778 -4.53404 -1.79656 0
M  V30 2179 H 206.783 -5.48976 0.300808 0
M  V30 2180 H 208.008 -6.7845 0.296941 0
M  V30 2181 H 205.954 -6.28182 -1.89005 0
M  V30 2182 H 205.871 -7.52854 -0.688971 0
M  V30 2183 H 207.139 -7.5655 -1.87757 0
M  V30 2184 N 211.368 -0.403325 -1.52352 0
M  V30 2185 C 212.318 0.442244 -2.2367 0
M  V30 2186 C 213.302 1.01823 -1.24583 0
M  V30 2187 O 214.494 0.942005 -1.49851 0
M  V30 2188 C 211.623 1.5615 -3.05732 0
M  V30 2189 C 210.709 0.996575 -4.12225 0
M  V30 2190 N 211.1 0.157804 -5.05554 0
M  V30 2191 C 209.398 1.26767 -4.27605 0
M  V30 2192 C 210.099 -0.155853 -5.81491 0
M  V30 2193 N 209.075 0.451775 -5.41719 0
M  V30 2194 H 212.877 -0.204964 -2.93184 0
M  V30 2195 H 210.391 -0.213418 -1.60992 0
M  V30 2196 H 212.388 2.17981 -3.55373 0
M  V30 2197 H 211.048 2.21139 -2.37755 0
M  V30 2198 H 212.059 -0.206049 -5.1749 0
M  V30 2199 H 208.736 1.91757 -3.70858 0
M  V30 2200 H 210.126 -0.836329 -6.66675 0
M  V30 2201 N 212.846 1.57033 -0.133567 0
M  V30 2202 C 213.809 2.14897 0.796995 0
M  V30 2203 C 214.809 1.0874 1.18458 0
M  V30 2204 O 215.999 1.34446 1.1077 0
M  V30 2205 C 213.131 2.70112 2.07973 0
M  V30 2206 H 214.324 2.98457 0.293873 0
M  V30 2207 H 211.877 1.55871 0.115787 0
M  V30 2208 H 212.612 1.9018 2.62682 0
M  V30 2209 H 212.397 3.47764 1.81115 0
M  V30 2210 H 213.887 3.14738 2.74462 0
M  V30 2211 N 214.325 -0.140222 1.56975 0
M  V30 2212 C 215.602 -0.880769 1.74648 0
M  V30 2213 C 215.982 -1.99036 0.703404 0
M  V30 2214 O 215.33 -2.26821 -0.27648 0
M  V30 2215 C 215.54 -1.417 3.18939 0
M  V30 2216 C 216.888 -1.87774 3.80823 0
M  V30 2217 O 217.912 -1.51427 3.2241 0
M  V30 2218 O 216.771 -2.54827 4.83452 0
M  V30 2219 H 213.865 -0.416713 0.714338 0
M  V30 2220 H 216.411 -0.125618 1.69234 0
M  V30 2221 H 215.183 -0.619902 3.86359 0
M  V30 2222 H 214.806 -2.23546 3.28805 0
M  V30 2223 N 215.803 -1.52179 -0.40978 0
M  V30 2224 C 217.049 -1.66453 -1.15851 0
M  V30 2225 C 217.382 -0.392972 -1.90182 0
M  V30 2226 O 216.657 0.608579 -1.84734 0
M  V30 2227 C 216.94 -2.88612 -2.15349 0
M  V30 2228 C 216.793 -4.25815 -1.44918 0
M  V30 2229 C 218.112 -3.06294 -3.16026 0
M  V30 2230 H 215.231 -0.60575 -0.419805 0
M  V30 2231 H 217.873 -1.84732 -0.444314 0
M  V30 2232 H 216.023 -2.73158 -2.76255 0
M  V30 2233 H 217.695 -4.52995 -0.871365 0
M  V30 2234 H 215.938 -4.27247 -0.751159 0
M  V30 2235 H 216.609 -5.07337 -2.17516 0
M  V30 2236 H 219.085 -3.20641 -2.65195 0
M  V30 2237 H 217.961 -3.93283 -3.8291 0
M  V30 2238 H 218.222 -2.19579 -3.83715 0
M  V30 2239 N 217.281 0.66697 -1.42791 0
M  V30 2240 C 218.692 1.2478 -1.38877 0
M  V30 2241 C 219.043 1.96012 -0.0859426 0
M  V30 2242 O 218.168 2.00463 0.815081 0
M  V30 2243 C 218.763 2.26938 -2.51564 0
M  V30 2244 C 217.322 2.80529 -2.50959 0
M  V30 2245 C 216.469 1.54965 -2.29959 0
M  V30 2246 H 219.42 0.459853 -1.51892 0
M  V30 2247 H 219.441 3.08834 -2.22265 0
M  V30 2248 H 218.953 1.75065 -3.46372 0
M  V30 2249 H 217.054 3.36502 -1.59991 0
M  V30 2250 H 217.167 3.29012 -3.48265 0
M  V30 2251 H 215.531 1.81817 -1.78366 0
M  V30 2252 H 216.314 1.05047 -3.26833 0
M  V30 2253 N 218.759 1.29093 0.90403 0
M  V30 2254 C 220.005 1.16986 1.65656 0
M  V30 2255 C 220.338 -0.278925 1.92186 0
M  V30 2256 O 219.613 -1.2019 1.5292 0
M  V30 2257 C 219.896 1.97908 3.0084 0
M  V30 2258 C 219.749 3.50903 2.81403 0
M  V30 2259 C 221.068 1.80208 4.01513 0
M  V30 2260 H 218.187 0.426346 0.601164 0
M  V30 2261 H 220.829 1.58518 1.04747 0
M  V30 2262 H 218.979 1.62616 3.52829 0
M  V30 2263 H 220.651 3.96153 2.36348 0
M  V30 2264 H 218.894 3.76045 2.1627 0
M  V30 2265 H 219.565 4.02791 3.77443 0
M  V30 2266 H 222.041 2.11025 3.58619 0
M  V30 2267 H 220.917 2.39184 4.94047 0
M  V30 2268 H 221.178 0.756119 4.35586 0
M  V30 2269 N 220.237 -1.11381 1.11499 0
M  V30 2270 C 221.185 -2.19522 0.768956 0
M  V30 2271 C 222.179 -1.67693 -0.239857 0
M  V30 2272 O 223.385 -1.79727 -0.0990755 0
M  V30 2273 H 219.76 -0.715711 0.230786 0
M  V30 2274 H 221.731 -2.45954 1.68964 0
M  V30 2275 C 220.48 -3.46945 0.229073 0
M  V30 2276 H 219.803 -3.8718 0.996596 0
M  V30 2277 H 221.243 -4.23993 0.0251441 0
M  V30 2278 C 219.702 -3.2042 -1.04079 0
M  V30 2279 O 220.232 -3.41178 -2.12038 0
M  V30 2280 N 218.438 -2.74151 -0.963823 0
M  V30 2281 H 217.985 -2.57459 -0.0851722 0
M  V30 2282 H 217.943 -2.56781 -1.81414 0
M  V30 2283 N 221.715 -0.905404 -1.28997 0
M  V30 2284 C 222.645 -0.404212 -2.29975 0
M  V30 2285 C 223.626 0.523784 -1.61835 0
M  V30 2286 O 224.811 0.433298 -1.89304 0
M  V30 2287 C 221.941 0.364042 -3.45387 0
M  V30 2288 C 220.895 -0.474048 -4.25367 0
M  V30 2289 C 220.221 0.422045 -5.33032 0
M  V30 2290 C 221.521 -1.72696 -4.92923 0
M  V30 2291 H 223.215 -1.24807 -2.72146 0
M  V30 2292 H 220.761 -0.601585 -1.30832 0
M  V30 2293 H 222.714 0.725447 -4.15109 0
M  V30 2294 H 221.438 1.24174 -3.02074 0
M  V30 2295 H 220.097 -0.81786 -3.57361 0
M  V30 2296 H 219.745 1.29804 -4.85963 0
M  V30 2297 H 219.445 -0.135057 -5.87445 0
M  V30 2298 H 220.969 0.779517 -6.05604 0
M  V30 2299 H 222.383 -1.43495 -5.55051 0
M  V30 2300 H 220.78 -2.22582 -5.57295 0
M  V30 2301 H 221.85 -2.45964 -4.17887 0
M  V30 2302 N 223.193 1.4272 -0.668489 0
M  V30 2303 C 224.423 2.05668 -0.196063 0
M  V30 2304 C 224.831 1.5028 1.14946 0
M  V30 2305 O 224.174 0.6348 1.72383 0
M  V30 2306 C 224.236 3.59469 -0.0468879 0
M  V30 2307 C 223.9 4.37518 -1.32012 0
M  V30 2308 C 224.897 4.68584 -2.25222 0
M  V30 2309 C 222.582 4.77266 -1.56596 0
M  V30 2310 C 224.576 5.38326 -3.41297 0
M  V30 2311 C 222.263 5.4675 -2.72962 0
M  V30 2312 C 223.261 5.77204 -3.65137 0
M  V30 2313 O 222.949 6.45264 -4.79468 0
M  V30 2314 H 222.681 0.669382 -0.0943599 0
M  V30 2315 H 225.235 1.83954 -0.913788 0
M  V30 2316 H 223.465 3.79817 0.726357 0
M  V30 2317 H 225.154 4.04071 0.384852 0
M  V30 2318 H 225.92 4.38382 -2.07477 0
M  V30 2319 H 221.799 4.52959 -0.857249 0
M  V30 2320 H 225.343 5.62014 -4.13263 0
M  V30 2321 H 221.24 5.76369 -2.90635 0
M  V30 2322 H 222.008 6.63753 -4.78931 0
M  V30 2323 N 224.671 0.411399 1.52136 0
M  V30 2324 C 226.087 0.0623865 1.59478 0
M  V30 2325 C 226.287 -1.42554 1.4241 0
M  V30 2326 O 225.343 -2.19263 1.2522 0
M  V30 2327 C 226.656 0.559331 2.95452 0
M  V30 2328 C 228.204 0.517503 3.08692 0
M  V30 2329 C 228.679 0.990994 4.4715 0
M  V30 2330 N 230.17 0.947908 4.53397 0
M  V30 2331 C 230.905 1.28544 5.58806 0
M  V30 2332 N 230.401 1.69454 6.71757 0
M  V30 2333 N 232.194 1.20526 5.49026 0
M  V30 2334 H 224.345 1.37982 1.61477 0
M  V30 2335 H 226.608 0.566977 0.759764 0
M  V30 2336 H 226.314 1.59938 3.1323 0
M  V30 2337 H 226.188 -0.0298014 3.77188 0
M  V30 2338 H 228.575 -0.513505 2.90598 0
M  V30 2339 H 228.656 1.14272 2.28857 0
M  V30 2340 H 228.3 2.02034 4.65988 0
M  V30 2341 H 228.23 0.34257 5.25485 0
M  V30 2342 H 230.721 0.647157 3.72317 0
M  V30 2343 H 231.034 1.93513 7.48179 0
M  V30 2344 H 229.379 1.73359 6.73032 0
M  V30 2345 H 232.57 0.884505 4.59667 0
M  V30 2346 H 232.743 1.47161 6.31069 0
M  V30 2347 N 226.149 -1.5696 0.141893 0
M  V30 2348 C 227.56 -1.82797 -0.379776 0
M  V30 2349 C 227.911 -1.06033 -1.6508 0
M  V30 2350 O 227.036 -0.304011 -2.14254 0
M  V30 2351 C 227.631 -3.31578 -0.695802 0
M  V30 2352 C 226.19 -3.58014 -1.16201 0
M  V30 2353 C 225.337 -2.76699 -0.182455 0
M  V30 2354 H 228.288 -1.54406 0.366675 0
M  V30 2355 H 228.309 -3.47454 -1.55099 0
M  V30 2356 H 227.821 -3.87421 0.229449 0
M  V30 2357 H 225.922 -3.07553 -2.10338 0
M  V30 2358 H 226.035 -4.66501 -1.09151 0
M  V30 2359 H 224.399 -2.45618 -0.674072 0
M  V30 2360 H 225.182 -3.35311 0.736297 0
M  V30 2361 N 227.627 0.131896 -1.57047 0
M  V30 2362 C 228.575 1.18146 -2.0036 0
M  V30 2363 C 229.569 1.43614 -0.898406 0
M  V30 2364 O 230.775 1.43729 -1.08361 0
M  V30 2365 H 227.15 0.398042 -0.638018 0
M  V30 2366 H 229.121 0.789564 -2.87765 0
M  V30 2367 C 227.87 2.50341 -2.41298 0
M  V30 2368 H 227.193 2.31578 -3.25902 0
M  V30 2369 H 228.633 3.22371 -2.75414 0
M  V30 2370 C 227.092 3.11984 -1.27153 0
M  V30 2371 O 227.622 3.97484 -0.580459 0
M  V30 2372 N 225.828 2.71662 -1.03189 0
M  V30 2373 H 225.375 2.02231 -1.59564 0
M  V30 2374 H 225.333 3.13238 -0.270077 0
M  V30 2375 N 229.106 1.52395 0.401703 0
M  V30 2376 C 230.069 1.75636 1.47257 0
M  V30 2377 C 231.069 0.62628 1.48103 0
M  V30 2378 O 232.259 0.894227 1.49497 0
M  V30 2379 C 229.391 1.84553 2.86624 0
M  V30 2380 H 230.584 2.71241 1.27938 0
M  V30 2381 H 228.137 1.42923 0.632662 0
M  V30 2382 H 228.872 0.908882 3.11303 0
M  V30 2383 H 228.657 2.66715 2.87412 0
M  V30 2384 H 230.147 2.04251 3.64241 0
M  V30 2385 N 230.584 -0.659388 1.43143 0
M  V30 2386 C 231.995 -1.24041 1.39537 0
M  V30 2387 C 232.346 -1.95963 0.0963364 0
M  V30 2388 O 231.471 -2.00892 -0.804438 0
M  V30 2389 C 232.066 -2.25601 2.52764 0
M  V30 2390 C 230.625 -2.79195 2.52443 0
M  V30 2391 C 229.772 -1.53743 2.30778 0
M  V30 2392 H 232.723 -0.451792 1.52133 0
M  V30 2393 H 232.744 -3.07651 2.23899 0
M  V30 2394 H 232.256 -1.73226 3.47296 0
M  V30 2395 H 230.357 -3.35649 1.61773 0
M  V30 2396 H 230.47 -3.2716 3.50004 0
M  V30 2397 H 228.834 -1.80869 1.79328 0
M  V30 2398 H 229.617 -1.03312 3.27386 0
M  V30 2399 N 232.062 -1.29571 -0.897171 0
M  V30 2400 C 233.309 -1.17689 -1.6479 0
M  V30 2401 C 233.637 0.27107 -1.92602 0
M  V30 2402 O 232.892 1.21193 -1.53658 0
M  V30 2403 C 233.191 -1.9382 -3.00281 0
M  V30 2404 C 232.857 -3.43522 -2.92068 0
M  V30 2405 C 231.519 -3.84348 -2.89535 0
M  V30 2406 C 233.871 -4.38906 -2.81089 0
M  V30 2407 C 231.199 -5.18869 -2.73846 0
M  V30 2408 C 233.551 -5.73521 -2.66939 0
M  V30 2409 C 232.215 -6.13601 -2.62774 0
M  V30 2410 H 231.485 -0.430654 -0.603008 0
M  V30 2411 H 234.132 -1.60536 -1.04404 0
M  V30 2412 H 232.437 -1.4357 -3.64547 0
M  V30 2413 H 234.134 -1.82028 -3.57305 0
M  V30 2414 H 230.724 -3.11072 -2.94842 0
M  V30 2415 H 234.908 -4.08315 -2.82121 0
M  V30 2416 H 230.164 -5.4903 -2.69027 0
M  V30 2417 H 234.338 -6.47078 -2.57416 0
M  V30 2418 H 231.965 -7.17786 -2.50375 0
M  V30 2419 N 233.54 1.10788 -1.12088 0
M  V30 2420 C 234.789 1.82036 -0.868659 0
M  V30 2421 C 235.102 1.85929 0.607426 0
M  V30 2422 O 236.308 2.53346 0.97613 0
M  V30 2423 C 234.764 3.26951 -1.50435 0
M  V30 2424 C 234.372 3.31367 -3.01496 0
M  V30 2425 C 236.116 4.03053 -1.33225 0
M  V30 2426 C 234.023 4.7072 -3.58017 0
M  V30 2427 H 232.953 0.682108 -0.321318 0
M  V30 2428 H 235.604 1.24618 -1.34694 0
M  V30 2429 H 233.986 3.84343 -0.953735 0
M  V30 2430 H 235.16 2.83819 -3.6302 0
M  V30 2431 H 233.475 2.6875 -3.18061 0
M  V30 2432 H 236.072 5.05981 -1.72878 0
M  V30 2433 H 236.415 4.15387 -0.275529 0
M  V30 2434 H 236.948 3.52066 -1.85188 0
M  V30 2435 H 233.687 4.63585 -4.63432 0
M  V30 2436 H 233.207 5.1865 -3.01268 0
M  V30 2437 H 234.886 5.39685 -3.56859 0
M  V30 2438 N 235.018 0.912232 1.28515 0
M  V30 2439 C 236.266 0.543523 1.94654 0
M  V30 2440 C 236.587 -0.9155 1.72173 0
M  V30 2441 O 235.857 -1.64708 1.06058 0
M  V30 2442 H 234.437 0.198017 0.720277 0
M  V30 2443 H 237.099 1.16126 1.56527 0
M  V30 2444 H 236.195 0.736684 3.03281 0
M  V30 2445 N 236.496 -1.42363 0.676048 0
M  V30 2446 C 237.443 -2.308 -0.00150904 0
M  V30 2447 C 238.413 -1.46032 -0.791444 0
M  V30 2448 O 239.598 -1.74861 -0.76344 0
M  V30 2449 C 236.738 -3.31883 -0.945919 0
M  V30 2450 C 235.851 -4.31741 -0.149675 0
M  V30 2451 C 234.986 -5.19898 -1.08995 0
M  V30 2452 C 234.025 -6.11434 -0.285465 0
M  V30 2453 N 233.162 -6.92138 -1.17851 0
M  V30 2454 H 238.002 -2.88187 0.758455 0
M  V30 2455 H 235.539 -1.41952 0.38576 0
M  V30 2456 H 237.497 -3.89019 -1.50731 0
M  V30 2457 H 236.127 -2.76093 -1.6725 0
M  V30 2458 H 235.179 -3.76713 0.528359 0
M  V30 2459 H 236.491 -4.96534 0.474866 0
M  V30 2460 H 235.645 -5.81772 -1.72123 0
M  V30 2461 H 234.384 -4.55284 -1.74837 0
M  V30 2462 H 233.389 -5.48627 0.359018 0
M  V30 2463 H 234.614 -6.78097 0.368883 0
M  V30 2464 H 232.56 -6.30152 -1.82332 0
M  V30 2465 H 232.477 -7.53542 -0.609082 0
M  V30 2466 H 233.745 -7.58499 -1.79722 0
M  V30 2467 N 237.974 -0.419461 -1.51915 0
M  V30 2468 C 239.22 0.153166 -2.02221 0
M  V30 2469 C 239.553 1.43907 -1.30401 0
M  V30 2470 O 238.828 1.90055 -0.413438 0
M  V30 2471 C 239.111 0.390291 -3.57979 0
M  V30 2472 C 238.964 -0.913014 -4.40436 0
M  V30 2473 C 240.283 1.16794 -4.2432 0
M  V30 2474 H 237.402 0.0541924 -0.735005 0
M  V30 2475 H 240.044 -0.554955 -1.81715 0
M  V30 2476 H 238.194 0.993491 -3.75582 0
M  V30 2477 H 239.866 -1.54882 -4.34522 0
M  V30 2478 H 238.109 -1.52168 -4.06236 0
M  V30 2479 H 238.78 -0.701361 -5.47526 0
M  V30 2480 H 241.256 0.657161 -4.10878 0
M  V30 2481 H 240.132 1.3026 -5.3322 0
M  V30 2482 H 240.393 2.19132 -3.83971 0
M  V30 2483 N 239.452 1.56882 -0.150215 0
M  V30 2484 C 240.701 1.95403 0.500071 0
M  V30 2485 C 241.014 1.03777 1.658 0
M  V30 2486 O 242.22 1.31889 2.37313 0
M  V30 2487 C 240.676 3.4738 0.941018 0
M  V30 2488 C 240.284 4.47596 -0.190158 0
M  V30 2489 C 242.028 3.9476 1.56091 0
M  V30 2490 C 239.935 5.90787 0.269237 0
M  V30 2491 H 238.865 0.729515 0.190588 0
M  V30 2492 H 241.516 1.81988 -0.235074 0
M  V30 2493 H 239.898 3.56138 1.73152 0
M  V30 2494 H 241.072 4.50536 -0.967157 0
M  V30 2495 H 239.387 4.10151 -0.718666 0
M  V30 2496 H 241.984 4.99181 1.9163 0
M  V30 2497 H 242.327 3.36494 2.45107 0
M  V30 2498 H 242.86 3.88932 0.835249 0
M  V30 2499 H 239.599 6.52879 -0.585621 0
M  V30 2500 H 239.119 5.912 1.01204 0
M  V30 2501 H 240.798 6.42979 0.720176 0
M  V30 2502 N 240.93 -0.123565 1.57115 0
M  V30 2503 C 242.155 -0.850398 1.89164 0
M  V30 2504 C 242.58 -1.7286 0.741688 0
M  V30 2505 O 241.938 -1.78665 -0.307958 0
M  V30 2506 C 241.986 -1.66353 3.19936 0
M  V30 2507 O 241.09 -2.77004 3.0552 0
M  V30 2508 H 240.431 -0.235454 0.620852 0
M  V30 2509 H 242.961 -0.107335 2.04318 0
M  V30 2510 H 242.971 -2.05372 3.52543 0
M  V30 2511 H 241.646 -1.01881 4.03228 0
M  V30 2512 H 240.223 -2.41221 2.84371 0
M  V30 2513 N 242.408 -1.52605 -0.393616 0
M  V30 2514 C 243.356 -1.77688 -1.50099 0
M  V30 2515 C 244.35 -0.644615 -1.56656 0
M  V30 2516 O 245.556 -0.826997 -1.59877 0
M  V30 2517 H 241.931 -0.562159 -0.499481 0
M  V30 2518 H 243.902 -2.7043 -1.26135 0
M  V30 2519 C 242.651 -1.95858 -2.87289 0
M  V30 2520 H 241.974 -2.8241 -2.82992 0
M  V30 2521 H 243.414 -2.174 -3.64024 0
M  V30 2522 C 241.873 -0.729848 -3.28899 0
M  V30 2523 O 242.403 0.0949217 -4.01588 0
M  V30 2524 N 240.609 -0.561283 -2.85128 0
M  V30 2525 H 240.156 -1.23357 -2.26143 0
M  V30 2526 H 240.114 0.2595 -3.13327 0
M  V30 2527 N 243.887 0.651787 -1.4349 0
M  V30 2528 C 244.797 1.79368 -1.5121 0
M  V30 2529 C 245.813 1.69361 -0.399093 0
M  V30 2530 O 246.989 1.90505 -0.653431 0
M  V30 2531 C 244.054 3.15653 -1.43401 0
M  V30 2532 C 243.115 3.37446 -2.65384 0
M  V30 2533 C 242.348 4.67229 -2.57939 0
M  V30 2534 O 242.571 5.46676 -1.62792 0
M  V30 2535 O 241.505 4.90773 -3.48462 0
M  V30 2536 H 245.331 1.7581 -2.47638 0
M  V30 2537 H 242.916 0.810447 -1.25507 0
M  V30 2538 H 244.798 3.96935 -1.41494 0
M  V30 2539 H 243.473 3.19798 -0.501085 0
M  V30 2540 H 242.38 2.55923 -2.72863 0
M  V30 2541 H 243.713 3.38148 -3.57654 0
M  V30 2542 N 245.365 1.30045 0.890287 0
M  V30 2543 C 246.776 1.16738 1.45702 0
M  V30 2544 C 247.127 -0.233939 1.948 0
M  V30 2545 O 246.252 -1.13021 1.84541 0
M  V30 2546 C 246.847 2.11313 2.64825 0
M  V30 2547 C 245.406 2.02001 3.17604 0
M  V30 2548 C 244.553 2.01699 1.90296 0
M  V30 2549 H 247.504 1.42392 0.700726 0
M  V30 2550 H 247.525 1.69086 3.40867 0
M  V30 2551 H 247.037 3.13294 2.2906 0
M  V30 2552 H 245.138 1.03142 3.5804 0
M  V30 2553 H 245.251 2.90128 3.81264 0
M  V30 2554 H 243.615 1.46427 2.08402 0
M  V30 2555 H 244.398 3.05402 1.56795 0
M  V30 2556 N 246.843 -1.10192 1.12674 0
M  V30 2557 C 247.773 -2.18652 0.819362 0
M  V30 2558 C 248.754 -1.68698 -0.217915 0
M  V30 2559 O 249.939 -1.94041 -0.0785581 0
M  V30 2560 C 247.069 -3.46202 0.27594 0
M  V30 2561 C 246.023 -4.09444 1.24656 0
M  V30 2562 C 245.349 -5.31725 0.563258 0
M  V30 2563 C 246.649 -4.52863 2.60217 0
M  V30 2564 H 248.343 -2.44622 1.72628 0
M  V30 2565 H 245.889 -1.17571 0.831451 0
M  V30 2566 H 247.842 -4.21372 0.0486149 0
M  V30 2567 H 246.566 -3.1973 -0.666331 0
M  V30 2568 H 245.225 -3.36284 1.45974 0
M  V30 2569 H 244.873 -5.0153 -0.384235 0
M  V30 2570 H 244.573 -5.74991 1.21075 0
M  V30 2571 H 246.097 -6.09624 0.34503 0
M  V30 2572 H 247.511 -5.19294 2.42913 0
M  V30 2573 H 245.908 -5.06986 3.21068 0
M  V30 2574 H 246.978 -3.65656 3.18471 0
M  V30 2575 N 248.321 -0.919034 -1.28029 0
M  V30 2576 C 249.567 -0.555757 -1.95036 0
M  V30 2577 C 249.9 0.899198 -1.72128 0
M  V30 2578 O 249.175 1.64023 -1.04531 0
M  V30 2579 C 249.458 -0.872024 -3.49382 0
M  V30 2580 C 249.311 -2.3801 -3.81669 0
M  V30 2581 C 250.63 -0.37185 -4.38526 0
M  V30 2582 H 247.749 -0.203386 -0.708381 0
M  V30 2583 H 250.391 -1.14924 -1.51303 0
M  V30 2584 H 248.541 -0.366946 -3.86763 0
M  V30 2585 H 250.213 -2.9562 -3.54128 0
M  V30 2586 H 248.456 -2.83289 -3.28526 0
M  V30 2587 H 249.127 -2.55192 -4.8947 0
M  V30 2588 H 251.603 -0.804602 -4.08247 0
M  V30 2589 H 250.479 -0.622173 -5.45362 0
M  V30 2590 H 250.74 0.727934 -4.36066 0
M  V30 2591 N 249.799 1.42003 -0.683588 0
M  V30 2592 C 250.746 2.30798 -0.0107309 0
M  V30 2593 C 251.716 1.4645 0.783688 0
M  V30 2594 O 252.901 1.75263 0.754156 0
M  V30 2595 C 250.041 3.3238 0.928306 0
M  V30 2596 C 249.154 4.31814 0.126776 0
M  V30 2597 C 248.289 5.20468 1.06236 0
M  V30 2598 C 247.328 6.11577 0.253035 0
M  V30 2599 N 246.465 6.92754 1.14179 0
M  V30 2600 H 251.305 2.8778 -0.773727 0
M  V30 2601 H 248.842 1.41745 -0.393283 0
M  V30 2602 H 250.8 3.89813 1.48666 0
M  V30 2603 H 249.43 2.76976 1.65783 0
M  V30 2604 H 248.482 3.76427 -0.54833 0
M  V30 2605 H 249.794 4.96276 -0.501192 0
M  V30 2606 H 248.948 5.82677 1.69035 0
M  V30 2607 H 247.687 4.56204 1.7242 0
M  V30 2608 H 246.692 5.48428 -0.388108 0
M  V30 2609 H 247.917 6.77892 -0.404839 0
M  V30 2610 H 245.863 6.3111 1.78987 0
M  V30 2611 H 245.78 7.53855 0.569111 0
M  V30 2612 H 247.048 7.59441 1.75697 0
M  V30 2613 N 251.277 0.427512 1.51691 0
M  V30 2614 C 252.187 -0.39527 2.31246 0
M  V30 2615 C 253.203 -1.03674 1.39742 0
M  V30 2616 O 254.379 -1.03425 1.72816 0
M  V30 2617 C 251.444 -1.48706 3.13189 0
M  V30 2618 C 250.505 -0.866743 4.20459 0
M  V30 2619 C 249.738 -1.90651 4.98486 0
M  V30 2620 O 249.961 -3.12733 4.77026 0
M  V30 2621 O 248.895 -1.5025 5.82845 0
M  V30 2622 H 252.721 0.253918 3.02637 0
M  V30 2623 H 250.306 0.190274 1.48183 0
M  V30 2624 H 252.188 -2.12047 3.64162 0
M  V30 2625 H 250.863 -2.12051 2.44573 0
M  V30 2626 H 249.77 -0.195544 3.73589 0
M  V30 2627 H 251.103 -0.276934 4.9142 0
M  V30 2628 N 252.755 -1.56801 0.158532 0
M  V30 2629 C 254.003 -1.96102 -0.488712 0
M  V30 2630 C 254.324 -1.04498 -1.64636 0
M  V30 2631 O 253.594 -0.108783 -1.95598 0
M  V30 2632 H 252.174 -0.724102 -0.183535 0
M  V30 2633 H 254.836 -1.93457 0.236728 0
M  V30 2634 H 253.932 -3.00097 -0.857219 0
M  V30 2635 N 254.233 0.115231 -1.57178 0
M  V30 2636 C 255.481 0.820727 -1.84685 0
M  V30 2637 C 255.802 1.80237 -0.744279 0
M  V30 2638 O 255.072 1.94529 0.231375 0
M  V30 2639 H 253.652 0.306084 -0.681411 0
M  V30 2640 H 256.314 0.101656 -1.94635 0
M  V30 2641 H 255.41 1.36366 -2.80733 0
M  V30 2642 N 255.711 1.52812 0.385517 0
M  V30 2643 C 256.96 1.67249 1.12741 0
M  V30 2644 C 257.273 0.4205 1.91027 0
M  V30 2645 O 258.479 0.445064 2.67827 0
M  V30 2646 C 256.935 2.95583 2.05326 0
M  V30 2647 C 256.543 4.27974 1.32447 0
M  V30 2648 C 258.287 3.19386 2.7963 0
M  V30 2649 C 256.194 5.47412 2.23818 0
M  V30 2650 H 255.124 0.6231 0.424573 0
M  V30 2651 H 257.775 1.79309 0.389924 0
M  V30 2652 H 256.157 2.77277 2.82725 0
M  V30 2653 H 257.331 4.56844 0.602495 0
M  V30 2654 H 255.646 4.10459 0.700885 0
M  V30 2655 H 258.243 4.05801 3.48181 0
M  V30 2656 H 258.586 2.34604 3.43899 0
M  V30 2657 H 259.119 3.38274 2.09322 0
M  V30 2658 H 255.858 6.34612 1.64157 0
M  V30 2659 H 255.378 5.22849 2.93921 0
M  V30 2660 H 257.057 5.81423 2.83824 0
M  V30 2661 N 257.189 -0.644168 1.43834 0
M  V30 2662 C 258.437 -1.40117 1.45642 0
M  V30 2663 C 258.758 -1.94814 0.0852413 0
M  V30 2664 O 258.028 -1.74988 -0.880688 0
M  V30 2665 H 256.608 -0.52005 0.536243 0
M  V30 2666 H 259.27 -0.7591 1.7951 0
M  V30 2667 H 258.366 -2.23902 2.17427 0
M  V30 2668 N 258.668 -1.30515 -0.883378 0
M  V30 2669 C 259.917 -1.18795 -1.63005 0
M  V30 2670 C 260.23 0.255923 -1.93919 0
M  V30 2671 O 261.436 0.494654 -2.66956 0
M  V30 2672 C 259.892 -2.07878 -2.93794 0
M  V30 2673 C 259.5 -3.57184 -2.70414 0
M  V30 2674 C 261.244 -2.04924 -3.71761 0
M  V30 2675 C 259.151 -4.38317 -3.97029 0
M  V30 2676 H 258.081 -0.441031 -0.611562 0
M  V30 2677 H 260.732 -1.55275 -0.977854 0
M  V30 2678 H 259.114 -1.64283 -3.60315 0
M  V30 2679 H 260.288 -4.08937 -2.12384 0
M  V30 2680 H 258.603 -3.61976 -2.0582 0
M  V30 2681 H 261.2 -2.62792 -4.65665 0
M  V30 2682 H 261.543 -1.0331 -4.03277 0
M  V30 2683 H 262.076 -2.46649 -3.12104 0
M  V30 2684 H 258.815 -5.40632 -3.70671 0
M  V30 2685 H 258.335 -3.91326 -4.54559 0
M  V30 2686 H 260.014 -4.49834 -4.65036 0
M  V30 2687 N 260.146 1.09593 -1.13257 0
M  V30 2688 C 261.392 1.82003 -0.89458 0
M  V30 2689 C 261.725 1.85402 0.577906 0
M  V30 2690 O 261 1.32099 1.42759 0
M  V30 2691 C 261.283 3.28237 -1.48096 0
M  V30 2692 C 261.136 3.3312 -3.02244 0
M  V30 2693 C 262.455 4.24871 -1.14774 0
M  V30 2694 H 259.574 0.66077 -0.326424 0
M  V30 2695 H 262.216 1.28389 -1.40058 0
M  V30 2696 H 260.366 3.74024 -1.05062 0
M  V30 2697 H 262.038 2.95748 -3.54021 0
M  V30 2698 H 260.281 2.72756 -3.37323 0
M  V30 2699 H 260.952 4.3613 -3.38371 0
M  V30 2700 H 263.428 3.87361 -1.51957 0
M  V30 2701 H 262.304 5.25532 -1.58452 0
M  V30 2702 H 262.565 4.42058 -0.0611849 0
M  V30 2703 N 261.624 0.925811 1.2754 0
M  V30 2704 C 262.556 0.380753 2.26015 0
M  V30 2705 C 263.569 -0.487485 1.5533 0
M  V30 2706 O 264.758 -0.300413 1.75954 0
M  V30 2707 C 261.858 -0.473259 3.35579 0
M  V30 2708 C 261.031 0.375249 4.35787 0
M  V30 2709 C 260.09 -0.415809 5.24555 0
M  V30 2710 O 259.116 0.175834 5.68928 0
M  V30 2711 N 260.318 -1.71607 5.54555 0
M  V30 2712 H 263.083 1.22725 2.73421 0
M  V30 2713 H 260.644 0.793037 1.41147 0
M  V30 2714 H 262.636 -1.00949 3.91907 0
M  V30 2715 H 261.206 -1.2205 2.87789 0
M  V30 2716 H 260.426 1.09279 3.7875 0
M  V30 2717 H 261.714 0.955399 4.99749 0
M  V30 2718 H 261.112 -2.2191 5.20358 0
M  V30 2719 H 259.669 -2.19887 6.1359 0
M  V30 2720 N 263.102 -1.41638 0.69111 0
M  V30 2721 C 264.052 -2.28 -0.000107832 0
M  V30 2722 C 265.036 -1.41964 -0.757304 0
M  V30 2723 O 266.228 -1.65274 -0.633532 0
M  V30 2724 C 263.357 -3.30209 -0.938983 0
M  V30 2725 C 262.443 -4.23725 -0.17827 0
M  V30 2726 N 262.834 -4.99017 0.825563 0
M  V30 2727 C 261.132 -4.44071 -0.414392 0
M  V30 2728 C 261.833 -5.67431 1.28052 0
M  V30 2729 N 260.809 -5.40197 0.607304 0
M  V30 2730 H 264.611 -2.83644 0.769617 0
M  V30 2731 H 262.125 -1.53797 0.521562 0
M  V30 2732 H 264.122 -3.90898 -1.44929 0
M  V30 2733 H 262.782 -2.76126 -1.70836 0
M  V30 2734 H 263.793 -5.03671 1.20566 0
M  V30 2735 H 260.47 -4.01004 -1.162 0
M  V30 2736 H 261.86 -6.37801 2.11327 0
M  V30 2737 N 264.58 -0.43555 -1.51462 0
M  V30 2738 C 265.829 0.133007 -2.01261 0
M  V30 2739 C 266.142 1.43942 -1.32439 0
M  V30 2740 O 267.348 2.09081 -1.73198 0
M  V30 2741 C 265.804 0.287581 -3.58749 0
M  V30 2742 C 265.412 -1.00829 -4.36506 0
M  V30 2743 C 267.156 0.810004 -4.167 0
M  V30 2744 C 265.063 -0.819454 -5.85695 0
M  V30 2745 H 263.993 0.0534822 -0.752101 0
M  V30 2746 H 266.644 -0.565038 -1.74584 0
M  V30 2747 H 265.026 1.04859 -3.81865 0
M  V30 2748 H 266.2 -1.77749 -4.25138 0
M  V30 2749 H 264.515 -1.45911 -3.89999 0
M  V30 2750 H 267.112 0.967743 -5.2587 0
M  V30 2751 H 267.455 1.79196 -3.75758 0
M  V30 2752 H 267.988 0.107357 -3.97655 0
M  V30 2753 H 264.727 -1.77374 -6.31046 0
M  V30 2754 H 264.247 -0.0900208 -5.99732 0
M  V30 2755 H 265.926 -0.471949 -6.45276 0
M  V30 2756 N 266.058 1.56714 -0.166846 0
M  V30 2757 C 267.005 2.17746 0.765193 0
M  V30 2758 C 267.975 1.11614 1.23011 0
M  V30 2759 O 269.16 1.39745 1.29908 0
M  V30 2760 C 266.3 2.81882 1.9909 0
M  V30 2761 C 265.413 4.02462 1.56997 0
M  V30 2762 C 264.548 4.54537 2.749 0
M  V30 2763 C 263.587 5.67538 2.29275 0
M  V30 2764 N 262.724 6.14142 3.40255 0
M  V30 2765 H 267.564 2.97048 0.237952 0
M  V30 2766 H 265.101 1.4672 0.105725 0
M  V30 2767 H 267.059 3.17221 2.70974 0
M  V30 2768 H 265.689 2.05191 2.49192 0
M  V30 2769 H 264.741 3.72973 0.748037 0
M  V30 2770 H 266.053 4.84273 1.19503 0
M  V30 2771 H 265.207 4.92035 3.54946 0
M  V30 2772 H 263.946 3.71774 3.1565 0
M  V30 2773 H 262.951 5.29597 1.47674 0
M  V30 2774 H 264.176 6.52099 1.89588 0
M  V30 2775 H 262.122 5.3431 3.8059 0
M  V30 2776 H 262.039 6.9093 3.06841 0
M  V30 2777 H 263.307 6.56289 4.206 0
M  V30 2778 N 267.536 -0.106894 1.57237 0
M  V30 2779 C 268.783 -0.812526 1.85484 0
M  V30 2780 C 269.111 -1.79304 0.753687 0
M  V30 2781 O 268.366 -1.94047 -0.253853 0
M  V30 2782 C 268.665 -1.58628 3.20268 0
M  V30 2783 C 268.331 -0.748967 4.44636 0
M  V30 2784 C 266.993 -0.518104 4.78403 0
M  V30 2785 C 269.345 -0.166122 5.20935 0
M  V30 2786 C 266.673 0.305659 5.85903 0
M  V30 2787 C 269.025 0.644899 6.29304 0
M  V30 2788 C 267.689 0.885965 6.61594 0
M  V30 2789 H 266.959 -0.297324 0.678734 0
M  V30 2790 H 269.606 -0.0744332 1.91355 0
M  V30 2791 H 267.911 -2.39562 3.10028 0
M  V30 2792 H 269.608 -2.13643 3.39349 0
M  V30 2793 H 266.198 -0.939006 4.18187 0
M  V30 2794 H 270.382 -0.33167 4.95191 0
M  V30 2795 H 265.638 0.501528 6.0934 0
M  V30 2796 H 269.812 1.10345 6.87602 0
M  V30 2797 H 267.439 1.52609 7.44725 0
M  V30 2798 N 269.014 -1.53014 -0.377408 0
M  V30 2799 C 270.291 -1.59215 -1.13622 0
M  V30 2800 C 270.671 -0.392407 -2.07421 0
M  V30 2801 O 270.019 0.618342 -2.19975 0
M  V30 2802 C 270.229 -2.93669 -1.88573 0
M  V30 2803 C 271.577 -3.47822 -2.43526 0
M  V30 2804 O 272.601 -2.9562 -1.98715 0
M  V30 2805 O 271.46 -4.39055 -3.25412 0
M  V30 2806 H 268.554 -0.642625 -0.52054 0
M  V30 2807 H 271.1 -1.65353 -0.381625 0
M  V30 2808 H 269.872 -3.7243 -1.20048 0
M  V30 2809 H 269.495 -2.90968 -2.70968 0
M  V30 2810 N 270.492 0.636531 -1.44174 0
M  V30 2811 C 271.422 1.76003 -1.53444 0
M  V30 2812 C 272.403 1.65619 -0.387841 0
M  V30 2813 O 273.588 1.84461 -0.607257 0
M  V30 2814 C 270.718 3.14511 -1.4731 0
M  V30 2815 C 269.672 3.39677 -2.60391 0
M  V30 2816 C 268.998 4.78159 -2.39308 0
M  V30 2817 C 270.298 3.32772 -4.02567 0
M  V30 2818 H 271.992 1.68501 -2.47483 0
M  V30 2819 H 269.538 0.809237 -1.19111 0
M  V30 2820 H 271.491 3.92878 -1.52397 0
M  V30 2821 H 270.215 3.22783 -0.49785 0
M  V30 2822 H 268.874 2.63688 -2.54684 0
M  V30 2823 H 268.522 4.83128 -1.39988 0
M  V30 2824 H 268.222 4.95956 -3.15122 0
M  V30 2825 H 269.746 5.58762 -2.46205 0
M  V30 2826 H 271.16 4.01051 -4.09672 0
M  V30 2827 H 269.557 3.62104 -4.7854 0
M  V30 2828 H 270.627 2.30669 -4.2652 0
M  V30 2829 N 271.97 1.30982 0.876444 0
M  V30 2830 C 273.198 1.23242 1.6619 0
M  V30 2831 C 273.613 -0.203345 1.87702 0
M  V30 2832 O 272.97 -1.13317 1.43057 0
M  V30 2833 C 273.021 1.96623 3.03351 0
M  V30 2834 O 272.742 3.34594 2.82804 0
M  V30 2835 C 274.243 1.95644 3.97792 0
M  V30 2836 H 271.463 0.426126 0.518322 0
M  V30 2837 H 274.007 1.7275 1.09442 0
M  V30 2838 H 272.162 1.50892 3.56806 0
M  V30 2839 H 272.576 3.71873 3.69879 0
M  V30 2840 H 274.05 2.51511 4.91372 0
M  V30 2841 H 274.527 0.937395 4.2908 0
M  V30 2842 H 275.133 2.41225 3.50272 0
M  V30 2843 N 273.449 -1.08991 1.13837 0
M  V30 2844 C 274.697 -1.80899 0.901098 0
M  V30 2845 C 275.018 -1.86356 -0.574134 0
M  V30 2846 O 274.288 -1.35235 -1.41733 0
M  V30 2847 H 272.868 -0.669966 0.330386 0
M  V30 2848 H 275.53 -1.318 1.43578 0
M  V30 2849 H 274.626 -2.83929 1.29578 0
M  V30 2850 N 274.927 -0.932562 -1.27047 0
M  V30 2851 C 276.175 -0.574422 -1.93765 0
M  V30 2852 C 276.496 0.887993 -1.73608 0
M  V30 2853 O 275.766 1.62999 -1.08665 0
M  V30 2854 H 274.346 -0.209451 -0.717035 0
M  V30 2855 H 277.008 -1.18601 -1.5466 0
M  V30 2856 H 276.104 -0.784841 -3.02071 0
M  V30 2857 N 276.405 1.4127 -0.698611 0
M  V30 2858 C 277.353 2.32588 -0.023855 0
M  V30 2859 C 278.347 1.51128 0.765292 0
M  V30 2860 O 279.553 1.67043 0.670571 0
M  V30 2861 H 275.928 0.751918 0.0110871 0
M  V30 2862 H 277.899 2.87167 -0.811031 0
M  V30 2863 C 276.648 3.35947 0.896369 0
M  V30 2864 H 275.971 3.98684 0.298548 0
M  V30 2865 H 277.411 4.02376 1.33676 0
M  V30 2866 C 275.87 2.70076 2.01396 0
M  V30 2867 O 276.4 2.55093 3.10307 0
M  V30 2868 N 274.606 2.28724 1.79259 0
M  V30 2869 H 274.153 2.4111 0.906841 0
M  V30 2870 H 274.111 1.84986 2.54219 0
M  V30 2871 N 277.883 0.443576 1.51229 0
M  V30 2872 C 278.813 -0.355142 2.30783 0
M  V30 2873 C 279.794 -1.0154 1.36468 0
M  V30 2874 O 280.979 -1.01785 1.65389 0
M  V30 2875 C 278.109 -1.45312 3.15439 0
M  V30 2876 C 277.063 -0.916002 4.18083 0
M  V30 2877 C 276.389 -2.1102 4.91299 0
M  V30 2878 C 277.689 0.0538602 5.22272 0
M  V30 2879 H 279.383 0.308767 2.97804 0
M  V30 2880 H 276.929 0.149937 1.43217 0
M  V30 2881 H 278.882 -2.01914 3.69876 0
M  V30 2882 H 277.606 -2.14541 2.46252 0
M  V30 2883 H 276.265 -0.372145 3.64706 0
M  V30 2884 H 275.913 -2.78882 4.18609 0
M  V30 2885 H 275.613 -1.75717 5.60712 0
M  V30 2886 H 277.137 -2.68164 5.48562 0
M  V30 2887 H 278.551 -0.422069 5.71744 0
M  V30 2888 H 276.948 0.319776 5.99247 0
M  V30 2889 H 278.018 0.98858 4.74716 0
M  V30 2890 N 279.361 -1.56624 0.175154 0
M  V30 2891 C 280.308 -2.18149 -0.753634 0
M  V30 2892 C 281.278 -1.12265 -1.22417 0
M  V30 2893 O 282.463 -1.40432 -1.29165 0
M  V30 2894 C 279.603 -2.82933 -1.97592 0
M  V30 2895 C 278.716 -4.03289 -1.5486 0
M  V30 2896 C 277.851 -4.55988 -2.72485 0
M  V30 2897 C 276.89 -5.68746 -2.26262 0
M  V30 2898 N 276.027 -6.15938 -3.36994 0
M  V30 2899 H 280.867 -2.9717 -0.222195 0
M  V30 2900 H 278.404 -1.46774 -0.0979422 0
M  V30 2901 H 280.362 -3.18653 -2.69288 0
M  V30 2902 H 278.992 -2.06509 -2.481 0
M  V30 2903 H 278.044 -3.73364 -0.728246 0
M  V30 2904 H 279.356 -4.849 -1.16933 0
M  V30 2905 H 278.51 -4.9391 -3.52332 0
M  V30 2906 H 277.249 -3.73443 -3.13674 0
M  V30 2907 H 276.254 -5.30372 -1.44863 0
M  V30 2908 H 277.479 -6.53095 -1.86127 0
M  V30 2909 H 275.425 -5.36321 -3.77751 0
M  V30 2910 H 275.342 -6.92548 -3.03172 0
M  V30 2911 H 276.61 -6.58511 -4.17114 0
M  V30 2912 N 280.839 0.0985539 -1.57292 0
M  V30 2913 C 282.069 0.815135 -1.8984 0
M  V30 2914 C 282.477 1.7297 -0.766679 0
M  V30 2915 O 281.82 1.81698 0.270483 0
M  V30 2916 C 281.882 1.6842 -3.17608 0
M  V30 2917 C 281.546 0.94182 -4.4719 0
M  V30 2918 C 282.543 0.273212 -5.19182 0
M  V30 2919 C 280.228 0.916927 -4.9386 0
M  V30 2920 C 282.222 -0.410361 -6.36078 0
M  V30 2921 C 279.909 0.229567 -6.10669 0
M  V30 2922 C 280.907 -0.432902 -6.81627 0
M  V30 2923 O 280.595 -1.10925 -7.9621 0
M  V30 2924 H 280.327 0.238501 -0.632529 0
M  V30 2925 H 282.881 0.0812659 -2.05239 0
M  V30 2926 H 281.111 2.46022 -2.98345 0
M  V30 2927 H 282.8 2.27704 -3.36015 0
M  V30 2928 H 283.566 0.283927 -4.84168 0
M  V30 2929 H 279.445 1.42201 -4.3852 0
M  V30 2930 H 282.989 -0.928013 -6.914 0
M  V30 2931 H 278.886 0.216686 -6.45136 0
M  V30 2932 H 279.654 -1.01579 -8.12172 0
M  V30 2933 N 282.317 1.53212 0.369288 0
M  V30 2934 C 283.566 1.68436 1.10961 0
M  V30 2935 C 283.879 0.440738 1.9057 0
M  V30 2936 O 285.085 0.473446 2.6734 0
M  V30 2937 C 283.541 2.97744 2.0218 0
M  V30 2938 C 283.149 4.29355 1.279 0
M  V30 2939 C 284.893 3.22334 2.76226 0
M  V30 2940 C 282.8 5.49755 2.17999 0
M  V30 2941 H 281.73 0.627568 0.41794 0
M  V30 2942 H 284.381 1.79713 0.370884 0
M  V30 2943 H 282.763 2.8026 2.79768 0
M  V30 2944 H 283.937 4.57458 0.554007 0
M  V30 2945 H 282.252 4.11179 0.657311 0
M  V30 2946 H 284.849 4.09471 3.43857 0
M  V30 2947 H 285.192 2.38238 3.41392 0
M  V30 2948 H 285.725 3.40475 2.05723 0
M  V30 2949 H 282.464 6.36318 1.57417 0
M  V30 2950 H 281.984 5.25937 2.88359 0
M  V30 2951 H 283.663 5.84401 2.77641 0
M  V30 2952 N 283.795 -0.628877 1.44509 0
M  V30 2953 C 284.705 -1.7694 1.54044 0
M  V30 2954 C 285.721 -1.68705 0.425987 0
M  V30 2955 O 286.897 -1.89442 0.683656 0
M  V30 2956 C 283.962 -3.13332 1.48405 0
M  V30 2957 C 283.023 -3.33181 2.70719 0
M  V30 2958 C 282.256 -4.63067 2.6534 0
M  V30 2959 O 282.479 -5.44017 1.71469 0
M  V30 2960 O 281.413 -4.85167 3.56226 0
M  V30 2961 H 285.239 -1.71848 2.50403 0
M  V30 2962 H 282.824 -0.790378 1.26781 0
M  V30 2963 H 284.706 -3.94634 1.47791 0
M  V30 2964 H 283.381 -3.1896 0.551898 0
M  V30 2965 H 282.288 -2.51549 2.769 0
M  V30 2966 H 283.621 -3.32416 3.62988 0
M  V30 2967 N 285.273 -1.31445 -0.869486 0
M  V30 2968 C 286.521 -1.20918 -1.61936 0
M  V30 2969 C 286.842 0.232683 -1.93607 0
M  V30 2970 O 286.112 1.15352 -1.58338 0
M  V30 2971 H 284.692 -0.44454 -0.600328 0
M  V30 2972 H 287.354 -1.64776 -1.0409 0
M  V30 2973 H 286.45 -1.78124 -2.56278 0
M  V30 2974 N 286.751 1.08385 -1.14413 0
M  V30 2975 C 287.683 2.1519 -0.789036 0
M  V30 2976 C 288.696 1.61638 0.19417 0
M  V30 2977 O 289.885 1.78479 -0.0275711 0
M  V30 2978 C 286.985 3.38565 -0.15058 0
M  V30 2979 C 286.158 4.21501 -1.16857 0
M  V30 2980 C 285.217 5.23277 -0.553832 0
M  V30 2981 O 284.243 5.56041 -1.21686 0
M  V30 2982 N 285.445 5.76629 0.669296 0
M  V30 2983 H 288.21 2.46257 -1.70814 0
M  V30 2984 H 285.771 1.24198 -1.03858 0
M  V30 2985 H 287.763 4.03777 0.273181 0
M  V30 2986 H 286.333 3.05299 0.671667 0
M  V30 2987 H 285.553 3.52265 -1.76926 0
M  V30 2988 H 286.841 4.73731 -1.85624 0
M  V30 2989 H 286.239 5.52243 1.22654 0
M  V30 2990 H 284.796 6.43521 1.03556 0
M  V30 2991 N 288.23 0.939286 1.26551 0
M  V30 2992 C 289.455 0.602008 1.98471 0
M  V30 2993 C 289.88 -0.815624 1.69497 0
M  V30 2994 O 289.238 -1.54912 0.941905 0
M  V30 2995 C 289.286 0.848407 3.50477 0
M  V30 2996 O 288.39 -0.0804009 4.12322 0
M  V30 2997 H 287.731 0.23049 0.622712 0
M  V30 2998 H 290.261 1.2617 1.61066 0
M  V30 2999 H 290.271 0.768553 4.00696 0
M  V30 3000 H 288.946 1.88171 3.70897 0
M  V30 3001 H 287.523 0.0503508 3.72866 0
M  V30 3002 N 289.708 -1.40897 0.706093 0
M  V30 3003 C 290.957 -2.00284 0.238574 0
M  V30 3004 C 291.27 -1.56604 -1.17194 0
M  V30 3005 O 292.476 -2.08624 -1.73748 0
M  V30 3006 C 290.932 -3.57934 0.375623 0
M  V30 3007 C 290.54 -4.10591 1.79217 0
M  V30 3008 C 292.284 -4.24488 -0.0315857 0
M  V30 3009 C 290.191 -5.60712 1.88032 0
M  V30 3010 H 289.121 -0.749144 0.0854398 0
M  V30 3011 H 291.772 -1.61251 0.875813 0
M  V30 3012 H 290.154 -3.94622 -0.330042 0
M  V30 3013 H 291.328 -3.85301 2.52745 0
M  V30 3014 H 289.643 -3.56601 2.15 0
M  V30 3015 H 292.24 -5.34698 0.0136842 0
M  V30 3016 H 292.583 -4.02261 -1.072 0
M  V30 3017 H 293.116 -3.92873 0.624181 0
M  V30 3018 H 289.855 -5.87781 2.90161 0
M  V30 3019 H 289.375 -5.87896 1.18903 0
M  V30 3020 H 291.054 -6.25658 1.64805 0
M  V30 3021 N 291.186 -0.45159 -1.50991 0
M  V30 3022 C 292.434 0.109857 -2.01801 0
M  V30 3023 C 292.755 1.41958 -1.3369 0
M  V30 3024 O 292.025 1.9003 -0.475951 0
M  V30 3025 H 290.605 0.0435884 -0.745727 0
M  V30 3026 H 293.267 -0.597557 -1.85514 0
M  V30 3027 H 292.363 0.275489 -3.10882 0
M  V30 3028 N 292.664 1.56529 -0.183458 0
M  V30 3029 C 293.913 1.96419 0.458511 0
M  V30 3030 C 294.226 1.0727 1.63562 0
M  V30 3031 O 295.432 1.36893 2.34462 0
M  V30 3032 C 293.888 3.49298 0.867122 0
M  V30 3033 C 293.496 4.47092 -0.285057 0
M  V30 3034 C 295.24 3.97983 1.47683 0
M  V30 3035 C 293.147 5.91225 0.143862 0
M  V30 3036 H 292.077 0.733394 0.175071 0
M  V30 3037 H 294.728 1.81448 -0.273624 0
M  V30 3038 H 293.11 3.59731 1.65559 0
M  V30 3039 H 294.284 4.48383 -1.0625 0
M  V30 3040 H 292.599 4.08535 -0.805503 0
M  V30 3041 H 295.196 5.03134 1.80999 0
M  V30 3042 H 295.539 3.41618 2.37914 0
M  V30 3043 H 296.072 3.90617 0.752562 0
M  V30 3044 H 292.811 6.5149 -0.723974 0
M  V30 3045 H 292.331 5.93214 0.886413 0
M  V30 3046 H 294.01 6.44362 0.583628 0
M  V30 3047 N 294.142 -0.090211 1.57342 0
M  V30 3048 C 295.391 -0.791531 1.8552 0
M  V30 3049 C 295.704 -1.79659 0.773441 0
M  V30 3050 O 296.91 -2.54616 0.942497 0
M  V30 3051 C 295.366 -1.45856 3.2902 0
M  V30 3052 C 294.974 -0.493017 4.45279 0
M  V30 3053 C 296.718 -2.14332 3.66418 0
M  V30 3054 C 294.625 -1.16491 5.79814 0
M  V30 3055 H 293.555 -0.299356 0.692027 0
M  V30 3056 H 296.206 -0.0445343 1.83446 0
M  V30 3057 H 294.588 -2.25318 3.2565 0
M  V30 3058 H 295.762 0.270464 4.60006 0
M  V30 3059 H 294.077 0.0863061 4.16311 0
M  V30 3060 H 296.674 -2.65344 4.64216 0
M  V30 3061 H 297.017 -2.93447 2.95287 0
M  V30 3062 H 297.55 -1.41724 3.71698 0
M  V30 3063 H 294.289 -0.41447 6.54188 0
M  V30 3064 H 293.809 -1.8997 5.68921 0
M  V30 3065 H 295.488 -1.69001 6.24538 0
M  V30 3066 N 295.62 -1.53406 -0.361157 0
M  V30 3067 C 297.031 -1.61442 -0.937728 0
M  V30 3068 C 297.382 -0.48461 -1.90121 0
M  V30 3069 O 296.507 0.388312 -2.12888 0
M  V30 3070 C 297.102 -2.92624 -1.70753 0
M  V30 3071 C 295.661 -3.02981 -2.23337 0
M  V30 3072 C 294.808 -2.5677 -1.04712 0
M  V30 3073 H 297.759 -1.58083 -0.139816 0
M  V30 3074 H 297.78 -2.80675 -2.56908 0
M  V30 3075 H 297.292 -3.74834 -1.00604 0
M  V30 3076 H 295.393 -2.25368 -2.96715 0
M  V30 3077 H 295.506 -4.0814 -2.50916 0
M  V30 3078 H 293.87 -2.11752 -1.41539 0
M  V30 3079 H 294.653 -3.41402 -0.360539 0
M  V30 3080 N 297.098 0.621204 -1.44841 0
M  V30 3081 C 298.509 1.20298 -1.42777 0
M  V30 3082 C 298.86 1.95639 -0.148259 0
M  V30 3083 O 297.985 2.02955 0.750892 0
M  V30 3084 C 298.58 2.1882 -2.58657 0
M  V30 3085 C 297.139 2.72403 -2.59756 0
M  V30 3086 C 296.286 1.4757 -2.34773 0
M  V30 3087 H 299.237 0.411297 -1.53278 0
M  V30 3088 H 299.258 3.01607 -2.31977 0
M  V30 3089 H 298.77 1.63957 -3.51766 0
M  V30 3090 H 296.871 3.31242 -1.70615 0
M  V30 3091 H 296.984 3.17765 -3.58556 0
M  V30 3092 H 295.348 1.76051 -1.8406 0
M  V30 3093 H 296.131 0.945954 -3.3001 0
M  V30 3094 N 298.576 1.31904 0.862503 0
M  V30 3095 C 299.824 1.21776 1.61292 0
M  V30 3096 C 300.145 -0.222413 1.93727 0
M  V30 3097 O 299.415 -1.1451 1.58947 0
M  V30 3098 H 297.995 0.447717 0.597962 0
M  V30 3099 H 300.657 1.65326 1.03215 0
M  V30 3100 H 299.753 1.7948 2.5533 0
M  V30 3101 N 300.054 -1.07777 1.14986 0
M  V30 3102 C 301.3 -1.80557 0.923422 0
M  V30 3103 C 301.633 -1.86298 -0.548337 0
M  V30 3104 O 300.908 -1.34354 -1.40639 0
M  V30 3105 C 301.191 -3.25839 1.53299 0
M  V30 3106 C 301.044 -3.28269 3.07505 0
M  V30 3107 C 302.363 -4.22991 1.21518 0
M  V30 3108 H 299.482 -0.655493 0.336894 0
M  V30 3109 H 302.124 -1.26144 1.42083 0
M  V30 3110 H 300.274 -3.72306 1.10999 0
M  V30 3111 H 301.946 -2.90079 3.58681 0
M  V30 3112 H 300.189 -2.67355 3.4162 0
M  V30 3113 H 300.86 -4.30691 3.45266 0
M  V30 3114 H 303.336 -3.84894 1.581 0
M  V30 3115 H 302.212 -5.22945 1.66793 0
M  V30 3116 H 302.473 -4.41904 0.131505 0
M  V30 3117 N 301.532 -0.945985 -1.26051 0
M  V30 3118 C 302.809 -0.513816 -1.88731 0
M  V30 3119 C 303.189 1.00872 -1.8544 0
M  V30 3120 O 302.537 1.8708 -1.312 0
M  V30 3121 C 302.747 -1.08062 -3.31849 0
M  V30 3122 C 304.095 -1.1522 -4.08668 0
M  V30 3123 O 305.119 -1.03155 -3.40936 0
M  V30 3124 O 303.978 -1.34044 -5.29806 0
M  V30 3125 H 301.072 -0.168193 -0.809716 0
M  V30 3126 H 303.618 -1.03886 -1.34186 0
M  V30 3127 H 302.39 -2.1241 -3.2863 0
M  V30 3128 H 302.013 -0.538307 -3.93939 0
M  V30 3129 N 303.011 1.40521 -0.713556 0
M  V30 3130 C 303.958 2.30723 -0.059684 0
M  V30 3131 C 304.928 1.48079 0.752448 0
M  V30 3132 O 306.113 1.76823 0.71681 0
M  V30 3133 C 303.253 3.34274 0.857594 0
M  V30 3134 C 302.366 4.31986 0.0351536 0
M  V30 3135 C 301.501 5.22605 0.951724 0
M  V30 3136 C 300.54 6.11976 0.123253 0
M  V30 3137 N 299.677 6.9502 0.99459 0
M  V30 3138 H 304.517 2.86074 -0.834596 0
M  V30 3139 H 302.054 1.40879 -0.42326 0
M  V30 3140 H 304.012 3.92879 1.40364 0
M  V30 3141 H 302.642 2.8043 1.59871 0
M  V30 3142 H 301.694 3.7518 -0.628052 0
M  V30 3143 H 303.006 4.95101 -0.606347 0
M  V30 3144 H 302.16 5.86131 1.56638 0
M  V30 3145 H 300.899 4.59759 1.62705 0
M  V30 3146 H 299.904 5.47482 -0.50435 0
M  V30 3147 H 301.129 6.76881 -0.548539 0
M  V30 3148 H 299.075 6.34764 1.6556 0
M  V30 3149 H 298.992 7.54892 0.40908 0
M  V30 3150 H 300.26 7.62997 1.59549 0
M  V30 3151 N 304.489 0.459591 1.5075 0
M  V30 3152 C 305.437 -0.354678 2.2988 0
M  V30 3153 C 306.431 -1.00086 1.36672 0
M  V30 3154 O 307.637 -0.933277 1.53915 0
M  V30 3155 H 304.012 -0.13321 0.740107 0
M  V30 3156 H 305.983 0.333269 2.96533 0
M  V30 3157 C 304.732 -1.43073 3.169 0
M  V30 3158 H 304.055 -0.942882 3.88523 0
M  V30 3159 H 305.495 -1.97328 3.75284 0
M  V30 3160 C 303.954 -2.42633 2.33732 0
M  V30 3161 O 304.484 -3.47658 2.01238 0
M  V30 3162 N 302.69 -2.14066 1.9653 0
M  V30 3163 H 302.237 -1.28685 2.23155 0
M  V30 3164 H 302.195 -2.80917 1.41185 0
M  V30 3165 N 305.967 -1.56429 0.191757 0
M  V30 3166 C 307.215 -1.97095 -0.447006 0
M  V30 3167 C 307.536 -1.07967 -1.62383 0
M  V30 3168 O 306.806 -0.150248 -1.95323 0
M  V30 3169 H 305.386 -0.727832 -0.168135 0
M  V30 3170 H 308.048 -1.92911 0.27771 0
M  V30 3171 H 307.144 -3.01848 -0.793371 0
M  V30 3172 N 307.445 0.0818655 -1.57387 0
M  V30 3173 C 308.392 1.09834 -2.0299 0
M  V30 3174 C 309.362 1.39043 -0.908639 0
M  V30 3175 O 310.547 1.50282 -1.17559 0
M  V30 3176 C 307.687 2.40971 -2.47037 0
M  V30 3177 C 306.8 2.18379 -3.7274 0
M  V30 3178 C 305.935 3.43008 -4.0561 0
M  V30 3179 C 304.974 3.15736 -5.24383 0
M  V30 3180 N 304.111 4.32667 -5.52941 0
M  V30 3181 H 308.951 0.702472 -2.89602 0
M  V30 3182 H 306.488 0.33531 -1.43227 0
M  V30 3183 H 308.446 3.1752 -2.70623 0
M  V30 3184 H 307.076 2.78379 -1.63417 0
M  V30 3185 H 306.128 1.32569 -3.56552 0
M  V30 3186 H 307.44 1.94227 -4.59431 0
M  V30 3187 H 306.594 4.27958 -4.30043 0
M  V30 3188 H 305.333 3.70225 -3.17466 0
M  V30 3189 H 304.338 2.2918 -4.99757 0
M  V30 3190 H 305.563 2.8985 -6.14136 0
M  V30 3191 H 303.509 4.59935 -4.67756 0
M  V30 3192 H 303.426 4.11753 -6.34031 0
M  V30 3193 H 304.694 5.18644 -5.81918 0
M  V30 3194 N 308.923 1.53595 0.353017 0
M  V30 3195 C 310.334 1.61937 0.929153 0
M  V30 3196 C 310.685 0.494686 1.89861 0
M  V30 3197 O 309.81 -0.377017 2.1309 0
M  V30 3198 C 310.405 2.93526 1.69199 0
M  V30 3199 C 308.964 3.04161 2.21727 0
M  V30 3200 C 308.111 2.57322 1.03348 0
M  V30 3201 H 311.062 1.58155 0.131431 0
M  V30 3202 H 311.083 2.82034 2.55416 0
M  V30 3203 H 310.595 3.75362 0.986144 0
M  V30 3204 H 308.696 2.26938 2.95516 0
M  V30 3205 H 308.809 4.09465 2.48748 0
M  V30 3206 H 307.173 2.12499 1.40414 0
M  V30 3207 H 307.956 3.41588 0.342428 0
M  V30 3208 N 310.401 -0.613514 1.45168 0
M  V30 3209 C 311.311 -1.75296 1.55912 0
M  V30 3210 C 312.327 -1.68244 0.443856 0
M  V30 3211 O 313.503 -1.88706 0.70371 0
M  V30 3212 C 310.568 -3.1174 1.5172 0
M  V30 3213 C 309.629 -3.30291 2.74238 0
M  V30 3214 C 308.862 -4.60226 2.70236 0
M  V30 3215 O 309.085 -5.42168 1.77229 0
M  V30 3216 O 308.019 -4.81361 3.61352 0
M  V30 3217 H 311.845 -1.69183 2.52212 0
M  V30 3218 H 309.43 -0.776886 1.27612 0
M  V30 3219 H 311.312 -3.93044 1.51968 0
M  V30 3220 H 309.987 -3.18357 0.585697 0
M  V30 3221 H 308.894 -2.48598 2.79553 0
M  V30 3222 H 310.227 -3.28547 3.66494 0
M  V30 3223 N 311.879 -1.3236 -0.855495 0
M  V30 3224 C 312.826 -1.21225 -1.964 0
M  V30 3225 C 313.796 -0.0946204 -1.6583 0
M  V30 3226 O 314.981 -0.27002 -1.8888 0
M  V30 3227 C 312.121 -0.940419 -3.32039 0
M  V30 3228 C 311.234 -2.14276 -3.75113 0
M  V30 3229 C 310.369 -1.80648 -4.9954 0
M  V30 3230 C 309.408 -2.97208 -5.35102 0
M  V30 3231 N 308.545 -2.63678 -6.50706 0
M  V30 3232 H 313.385 -2.16042 -2.05255 0
M  V30 3233 H 310.922 -1.07451 -1.00463 0
M  V30 3234 H 312.88 -0.763311 -4.10158 0
M  V30 3235 H 311.51 -0.0290413 -3.22787 0
M  V30 3236 H 310.562 -2.43017 -2.92655 0
M  V30 3237 H 311.874 -3.01468 -3.97389 0
M  V30 3238 H 311.028 -1.59484 -5.85363 0
M  V30 3239 H 309.767 -0.906678 -4.79198 0
M  V30 3240 H 308.772 -3.19004 -4.47791 0
M  V30 3241 H 309.997 -3.87918 -5.57401 0
M  V30 3242 H 307.943 -1.76238 -6.31883 0
M  V30 3243 H 307.86 -3.444 -6.72997 0
M  V30 3244 H 309.128 -2.45942 -7.39684 0
M  V30 3245 N 313.357 1.07166 -1.15556 0
M  V30 3246 C 314.287 2.16403 -0.877046 0
M  V30 3247 C 315.268 1.69217 0.173111 0
M  V30 3248 O 316.453 1.94181 0.027084 0
M  V30 3249 C 313.583 3.45349 -0.367632 0
M  V30 3250 C 312.537 4.05995 -1.35468 0
M  V30 3251 C 311.863 5.30045 -0.704038 0
M  V30 3252 C 313.163 4.45804 -2.72132 0
M  V30 3253 H 314.857 2.39959 -1.79053 0
M  V30 3254 H 312.403 1.15325 -0.862331 0
M  V30 3255 H 314.356 4.21095 -0.160317 0
M  V30 3256 H 313.08 3.21385 0.581326 0
M  V30 3257 H 311.739 3.32296 -1.54839 0
M  V30 3258 H 311.387 5.02373 0.251128 0
M  V30 3259 H 311.087 5.71579 -1.36277 0
M  V30 3260 H 312.611 6.08495 -0.50654 0
M  V30 3261 H 314.025 5.12671 -2.56595 0
M  V30 3262 H 312.422 4.98296 -3.34397 0
M  V30 3263 H 313.492 3.57083 -3.28054 0
M  V30 3264 N 314.835 0.952656 1.25548 0
M  V30 3265 C 316.251 0.656769 1.4546 0
M  V30 3266 C 316.451 -0.78633 1.85524 0
M  V30 3267 O 315.507 -1.56183 1.98402 0
M  V30 3268 C 316.82 1.62801 2.52817 0
M  V30 3269 C 318.368 1.63897 2.66659 0
M  V30 3270 C 318.843 2.5978 3.77198 0
M  V30 3271 N 320.334 2.58133 3.84606 0
M  V30 3272 C 321.069 3.29003 4.69621 0
M  V30 3273 N 320.565 4.09339 5.58939 0
M  V30 3274 N 322.358 3.179 4.63569 0
M  V30 3275 H 314.509 1.88526 0.978344 0
M  V30 3276 H 316.772 0.810815 0.491206 0
M  V30 3277 H 316.478 2.65869 2.30232 0
M  V30 3278 H 316.352 1.38898 3.50695 0
M  V30 3279 H 318.739 0.615481 2.8861 0
M  V30 3280 H 318.82 1.91858 1.69187 0
M  V30 3281 H 318.464 3.62254 3.55997 0
M  V30 3282 H 318.394 2.29105 4.7415 0
M  V30 3283 H 320.885 1.99809 3.20757 0
M  V30 3284 H 321.198 4.6034 6.20731 0
M  V30 3285 H 319.543 4.13438 5.58654 0
M  V30 3286 H 322.734 2.54612 3.92798 0
M  V30 3287 H 322.907 3.73398 5.29602 0
M  V30 3288 N 316.313 -1.40141 0.720998 0
M  V30 3289 C 317.243 -2.33339 0.0867621 0
M  V30 3290 C 318.224 -1.53178 -0.739622 0
M  V30 3291 O 319.409 -1.81625 -0.687449 0
M  V30 3292 C 316.539 -3.37194 -0.831728 0
M  V30 3293 C 315.493 -4.27857 -0.110558 0
M  V30 3294 C 314.819 -5.22294 -1.14513 0
M  V30 3295 C 316.119 -5.11872 1.0385 0
M  V30 3296 H 317.813 -2.86626 0.865219 0
M  V30 3297 H 315.359 -1.37814 0.417516 0
M  V30 3298 H 317.312 -4.01335 -1.28485 0
M  V30 3299 H 316.036 -2.82314 -1.64214 0
M  V30 3300 H 314.695 -3.65176 0.322797 0
M  V30 3301 H 314.343 -4.63717 -1.94874 0
M  V30 3302 H 314.043 -5.83797 -0.667446 0
M  V30 3303 H 315.567 -5.89312 -1.59824 0
M  V30 3304 H 316.981 -5.69436 0.664482 0
M  V30 3305 H 315.378 -5.82445 1.4449 0
M  V30 3306 H 316.448 -4.4753 1.86668 0
M  V30 3307 N 317.792 -0.46758 -1.50504 0
M  V30 3308 C 319.022 0.086288 -2.0642 0
M  V30 3309 C 319.43 1.34369 -1.33197 0
M  V30 3310 O 318.773 1.79431 -0.393747 0
M  V30 3311 C 318.835 0.443846 -3.5675 0
M  V30 3312 C 318.499 -0.711035 -4.51435 0
M  V30 3313 C 319.496 -1.59205 -4.94924 0
M  V30 3314 C 317.181 -0.900363 -4.94165 0
M  V30 3315 C 319.175 -2.64683 -5.79846 0
M  V30 3316 C 316.862 -1.95837 -5.7887 0
M  V30 3317 C 317.86 -2.82997 -6.21612 0
M  V30 3318 O 317.548 -3.86977 -7.0463 0
M  V30 3319 H 317.28 -0.00217814 -0.675996 0
M  V30 3320 H 319.834 -0.654346 -1.94698 0
M  V30 3321 H 318.064 1.23762 -3.6636 0
M  V30 3322 H 319.753 0.932386 -3.95046 0
M  V30 3323 H 320.519 -1.45745 -4.62583 0
M  V30 3324 H 316.398 -0.231427 -4.60419 0
M  V30 3325 H 319.942 -3.32745 -6.13128 0
M  V30 3326 H 315.839 -2.09305 -6.10624 0
M  V30 3327 H 316.607 -3.83923 -7.22873 0
M  V30 3328 N 319.27 1.56325 -0.20005 0
M  V30 3329 C 320.495 2.02548 0.44597 0
M  V30 3330 C 320.92 1.07922 1.5406 0
M  V30 3331 O 320.278 0.0635775 1.81188 0
M  V30 3332 C 320.326 3.47175 0.974761 0
M  V30 3333 O 319.43 3.55671 2.08739 0
M  V30 3334 H 318.771 0.655862 0.103638 0
M  V30 3335 H 321.301 2.02201 -0.312381 0
M  V30 3336 H 321.311 3.87067 1.2901 0
M  V30 3337 H 319.986 4.15538 0.17347 0
M  V30 3338 H 318.563 3.27657 1.78032 0
M  V30 3339 N 320.748 -0.0735177 1.57428 0
M  V30 3340 C 321.997 -0.771809 1.86349 0
M  V30 3341 C 322.31 -1.78828 0.792452 0
M  V30 3342 O 323.516 -2.53602 0.96945 0
M  V30 3343 C 321.972 -1.42358 3.30548 0
M  V30 3344 C 321.58 -0.445761 4.45777 0
M  V30 3345 C 323.324 -2.10434 3.6867 0
M  V30 3346 C 321.231 -1.10335 5.81016 0
M  V30 3347 H 320.161 -0.291999 0.695164 0
M  V30 3348 H 322.812 -0.0250749 1.83483 0
M  V30 3349 H 321.194 -2.21852 3.28021 0
M  V30 3350 H 322.368 0.319239 4.59693 0
M  V30 3351 H 320.683 0.130457 4.16196 0
M  V30 3352 H 323.28 -2.60405 4.67004 0
M  V30 3353 H 323.623 -2.90298 2.98383 0
M  V30 3354 H 324.156 -1.37773 3.7318 0
M  V30 3355 H 320.895 -0.345061 6.54591 0
M  V30 3356 H 320.415 -1.83925 5.70904 0
M  V30 3357 H 322.094 -1.62367 6.26295 0
M  V30 3358 N 322.226 -1.5378 -0.344866 0
M  V30 3359 C 323.189 -1.80981 -1.40637 0
M  V30 3360 C 324.189 -0.680816 -1.45676 0
M  V30 3361 O 325.379 -0.949095 -1.46075 0
M  V30 3362 C 322.511 -1.95063 -2.79577 0
M  V30 3363 H 323.704 -2.75803 -1.17783 0
M  V30 3364 H 321.257 -1.45173 -0.579181 0
M  V30 3365 H 321.992 -1.02379 -3.07716 0
M  V30 3366 H 321.777 -2.77198 -2.77315 0
M  V30 3367 H 323.267 -2.17629 -3.56409 0
M  V30 3368 N 323.704 0.605807 -1.45491 0
M  V30 3369 C 324.929 1.39625 -1.53361 0
M  V30 3370 C 325.354 1.87351 -0.167645 0
M  V30 3371 O 324.712 1.60243 0.848051 0
M  V30 3372 C 324.76 2.57559 -2.5238 0
M  V30 3373 O 323.864 3.58248 -2.04285 0
M  V30 3374 H 323.205 0.416771 -0.516912 0
M  V30 3375 H 325.735 0.737103 -1.90861 0
M  V30 3376 H 325.745 3.0478 -2.71244 0
M  V30 3377 H 324.42 2.22171 -3.51586 0
M  V30 3378 H 322.997 3.17664 -1.95305 0
M  V30 3379 N 325.182 1.32811 0.848464 0
M  V30 3380 C 326.41 1.26739 1.63538 0
M  V30 3381 C 326.825 -0.163484 1.88091 0
M  V30 3382 O 326.182 -1.10258 1.45429 0
M  V30 3383 C 326.233 2.03013 2.99112 0
M  V30 3384 O 325.954 3.40518 2.75643 0
M  V30 3385 C 327.455 2.04038 3.93552 0
M  V30 3386 H 324.675 0.437024 0.509167 0
M  V30 3387 H 327.219 1.75033 1.05753 0
M  V30 3388 H 325.374 1.58426 3.53525 0
M  V30 3389 H 325.788 3.79635 3.61908 0
M  V30 3390 H 327.262 2.61877 4.85926 0
M  V30 3391 H 327.739 1.0282 4.26995 0
M  V30 3392 H 328.345 2.486 3.45077 0
M  V30 3393 N 326.66 -1.06551 1.16123 0
M  V30 3394 C 328.076 -1.3142 0.905585 0
M  V30 3395 C 328.276 -1.96571 -0.442964 0
M  V30 3396 O 327.332 -2.23068 -1.18308 0
M  V30 3397 C 328.645 -2.19741 2.05267 0
M  V30 3398 C 330.193 -2.33165 2.08813 0
M  V30 3399 C 330.668 -3.24838 3.22868 0
M  V30 3400 N 332.159 -3.32421 3.22568 0
M  V30 3401 C 332.894 -4.0344 4.0746 0
M  V30 3402 N 332.39 -4.77003 5.02434 0
M  V30 3403 N 334.183 -3.99464 3.95456 0
M  V30 3404 H 326.334 -0.626548 2.02949 0
M  V30 3405 H 328.597 -0.338777 0.8854 0
M  V30 3406 H 328.303 -1.79142 3.02657 0
M  V30 3407 H 328.177 -3.20313 1.99198 0
M  V30 3408 H 330.564 -2.73013 1.12018 0
M  V30 3409 H 330.645 -1.3227 2.18948 0
M  V30 3410 H 330.289 -2.85708 4.19921 0
M  V30 3411 H 330.219 -4.25707 3.0997 0
M  V30 3412 H 332.71 -2.79994 2.53795 0
M  V30 3413 H 333.023 -5.28712 5.63634 0
M  V30 3414 H 331.368 -4.75992 5.06415 0
M  V30 3415 H 334.559 -3.4111 3.20564 0
M  V30 3416 H 334.732 -4.54544 4.61837 0
M  V30 3417 N 328.138 -0.959301 -1.25041 0
M  V30 3418 C 329.088 -0.453888 -2.23436 0
M  V30 3419 C 330.072 0.459461 -1.542 0
M  V30 3420 O 331.264 0.291752 -1.74579 0
M  V30 3421 C 328.393 0.262667 -3.42294 0
M  V30 3422 C 327.479 -0.669022 -4.1879 0
M  V30 3423 N 327.87 -1.80267 -4.72586 0
M  V30 3424 C 326.168 -0.47814 -4.4343 0
M  V30 3425 C 326.869 -2.38475 -5.3057 0
M  V30 3426 N 325.845 -1.67078 -5.17287 0
M  V30 3427 H 329.647 -1.319 -2.6264 0
M  V30 3428 H 327.161 -0.817358 -1.40332 0
M  V30 3429 H 329.158 0.641911 -4.11929 0
M  V30 3430 H 327.818 1.12432 -3.04613 0
M  V30 3431 H 328.829 -2.18442 -4.69578 0
M  V30 3432 H 325.506 0.340249 -4.16111 0
M  V30 3433 H 326.896 -3.34094 -5.8295 0
M  V30 3434 N 329.616 1.39756 -0.72842 0
M  V30 3435 C 330.864 2.00248 -0.272946 0
M  V30 3436 C 331.185 1.58077 1.14178 0
M  V30 3437 O 330.455 0.826014 1.77634 0
M  V30 3438 H 329.035 0.740554 -0.0979247 0
M  V30 3439 H 331.697 1.70903 -0.936912 0
M  V30 3440 H 330.793 3.10495 -0.316142 0
M  V30 3441 N 331.094 0.475555 1.50254 0
M  V30 3442 C 332.371 -0.139685 1.95101 0
M  V30 3443 C 332.751 -1.56555 1.41611 0
M  V30 3444 O 332.099 -2.19956 0.618993 0
M  V30 3445 C 332.309 -0.0784298 3.48912 0
M  V30 3446 C 333.657 -0.265095 4.23772 0
M  V30 3447 O 334.681 -0.154808 3.55863 0
M  V30 3448 O 333.54 -0.488327 5.44314 0
M  V30 3449 H 330.634 -0.109236 0.819754 0
M  V30 3450 H 333.18 0.536276 1.61004 0
M  V30 3451 H 331.952 0.916918 3.80405 0
M  V30 3452 H 331.575 -0.795655 3.89558 0
M  V30 3453 N 332.573 -1.56217 0.208337 0
M  V30 3454 C 333.85 -1.89739 -0.475234 0
M  V30 3455 C 334.23 -1.1238 -1.78701 0
M  V30 3456 O 333.578 -0.228979 -2.2735 0
M  V30 3457 C 333.788 -3.42289 -0.681101 0
M  V30 3458 C 335.136 -4.12789 -0.994507 0
M  V30 3459 O 336.16 -3.47814 -0.768357 0
M  V30 3460 O 335.019 -5.27649 -1.42299 0
M  V30 3461 H 332.113 -0.788478 -0.249461 0
M  V30 3462 H 334.659 -1.67855 0.249538 0
M  V30 3463 H 333.431 -3.90534 0.244722 0
M  V30 3464 H 333.054 -3.69909 -1.45785 0
M  V30 3465 N 334.051 0.0651679 -1.57465 0
M  V30 3466 C 335.297 0.764193 -1.87851 0
M  V30 3467 C 335.63 1.76889 -0.801495 0
M  V30 3468 O 334.905 1.93594 0.187528 0
M  V30 3469 C 335.188 1.46625 -3.28897 0
M  V30 3470 C 335.041 0.477515 -4.47258 0
M  V30 3471 C 336.36 2.4095 -3.68281 0
M  V30 3472 H 333.479 0.276351 -0.683227 0
M  V30 3473 H 336.121 0.0272868 -1.8998 0
M  V30 3474 H 334.271 2.09438 -3.27212 0
M  V30 3475 H 335.943 -0.145922 -4.61069 0
M  V30 3476 H 334.186 -0.206576 -4.33308 0
M  V30 3477 H 334.857 1.0065 -5.42746 0
M  V30 3478 H 337.333 1.88209 -3.71102 0
M  V30 3479 H 336.209 2.87072 -4.67847 0
M  V30 3480 H 336.47 3.26049 -2.98571 0
M  V30 3481 N 335.529 1.53961 0.336706 0
M  V30 3482 C 336.806 1.62171 1.09361 0
M  V30 3483 C 337.186 0.447263 2.06307 0
M  V30 3484 O 336.534 -0.559802 2.21537 0
M  V30 3485 C 336.744 2.98565 1.80721 0
M  V30 3486 C 338.092 3.54157 2.34218 0
M  V30 3487 O 339.116 3.00784 1.90807 0
M  V30 3488 O 337.975 4.47528 3.13657 0
M  V30 3489 H 335.069 0.6562 0.503319 0
M  V30 3490 H 337.615 1.66307 0.33765 0
M  V30 3491 H 336.387 3.75482 1.10132 0
M  V30 3492 H 336.01 2.9805 2.63158 0
M  V30 3493 N 337.007 -0.598083 1.45811 0
M  V30 3494 C 338.284 -1.35777 1.40797 0
M  V30 3495 C 338.664 -2.10935 0.083462 0
M  V30 3496 O 338.012 -2.08505 -0.934763 0
M  V30 3497 C 338.222 -2.29666 2.62783 0
M  V30 3498 C 339.57 -2.91977 3.08277 0
M  V30 3499 O 340.594 -2.39984 2.63223 0
M  V30 3500 O 339.453 -3.86376 3.86491 0
M  V30 3501 H 336.547 -0.609291 0.55919 0
M  V30 3502 H 339.093 -0.620379 1.57954 0
M  V30 3503 H 337.865 -1.73454 3.50756 0
M  V30 3504 H 337.488 -3.1077 2.48008 0
M  V30 3505 N 338.485 -1.33259 -0.841409 0
M  V30 3506 C 339.432 -1.23302 -1.95103 0
M  V30 3507 C 340.402 -0.112204 -1.65721 0
M  V30 3508 O 341.587 -0.290038 -1.88583 0
M  V30 3509 C 338.727 -0.975583 -3.31023 0
M  V30 3510 C 337.84 -2.18243 -3.72819 0
M  V30 3511 C 336.975 -1.85936 -4.97595 0
M  V30 3512 C 336.014 -3.02866 -5.3192 0
M  V30 3513 N 335.151 -2.70565 -6.47873 0
M  V30 3514 H 339.991 -2.18207 -2.02952 0
M  V30 3515 H 337.528 -1.0851 -0.993173 0
M  V30 3516 H 339.486 -0.80677 -4.09325 0
M  V30 3517 H 338.116 -0.0632755 -3.22738 0
M  V30 3518 H 337.168 -2.46107 -2.90061 0
M  V30 3519 H 338.48 -3.05666 -3.94169 0
M  V30 3520 H 337.634 -1.65684 -5.83638 0
M  V30 3521 H 336.373 -0.957452 -4.78209 0
M  V30 3522 H 335.378 -3.23736 -4.44382 0
M  V30 3523 H 336.603 -3.93809 -5.53255 0
M  V30 3524 H 334.549 -1.8293 -6.29978 0
M  V30 3525 H 334.466 -3.51519 -6.69306 0
M  V30 3526 H 335.734 -2.53774 -7.37034 0
M  V30 3527 N 339.963 1.05934 -1.16686 0
M  V30 3528 C 341.191 1.8249 -0.974929 0
M  V30 3529 C 341.606 1.82679 0.476861 0
M  V30 3530 O 340.963 1.2486 1.33103 0
M  V30 3531 C 341.014 3.28943 -1.49929 0
M  V30 3532 O 340.735 3.28886 -2.89423 0
M  V30 3533 C 342.236 4.22215 -1.35089 0
M  V30 3534 H 339.456 0.575295 -0.345365 0
M  V30 3535 H 342 1.33631 -1.548 0
M  V30 3536 H 340.155 3.751 -0.968423 0
M  V30 3537 H 340.569 4.20493 -3.13506 0
M  V30 3538 H 342.043 5.22987 -1.76603 0
M  V30 3539 H 342.52 4.38195 -0.296935 0
M  V30 3540 H 343.126 3.81907 -1.87155 0
M  V30 3541 N 341.441 0.965919 1.2453 0
M  V30 3542 C 342.69 0.622437 1.91856 0
M  V30 3543 C 343.003 -0.846006 1.76358 0
M  V30 3544 O 344.209 -1.29993 2.38357 0
M  V30 3545 C 342.665 1.0626 3.43856 0
M  V30 3546 C 342.273 2.55437 3.68043 0
M  V30 3547 C 344.017 0.792183 4.17043 0
M  V30 3548 C 341.924 2.93196 5.13605 0
M  V30 3549 H 340.854 0.229092 0.718354 0
M  V30 3550 H 343.505 1.17189 1.41206 0
M  V30 3551 H 341.887 0.441476 3.93531 0
M  V30 3552 H 343.061 3.22665 3.28974 0
M  V30 3553 H 341.376 2.8007 3.08139 0
M  V30 3554 H 343.973 1.05031 5.24283 0
M  V30 3555 H 344.316 -0.271584 4.15413 0
M  V30 3556 H 344.849 1.37419 3.73311 0
M  V30 3557 H 341.588 3.98636 5.20355 0
M  V30 3558 H 341.108 2.30651 5.53679 0
M  V30 3559 H 342.787 2.83004 5.81823 0
M  V30 3560 N 342.919 -1.39368 0.735821 0
M  V30 3561 C 344.144 -2.05319 0.293052 0
M  V30 3562 C 344.569 -1.55115 -1.064 0
M  V30 3563 O 343.927 -0.695261 -1.67439 0
M  V30 3564 C 343.975 -3.59305 0.305323 0
M  V30 3565 O 343.079 -4.06299 -0.706761 0
M  V30 3566 H 342.42 -0.650529 0.13307 0
M  V30 3567 H 344.95 -1.78386 1.00197 0
M  V30 3568 H 344.96 -4.07724 0.149997 0
M  V30 3569 H 343.635 -3.95207 1.29553 0
M  V30 3570 H 342.212 -3.69292 -0.517504 0
M  V30 3571 N 344.397 -0.483516 -1.5 0
M  V30 3572 C 345.327 0.293829 -2.31644 0
M  V30 3573 C 346.308 0.978864 -1.39112 0
M  V30 3574 O 347.493 0.973644 -1.68029 0
M  V30 3575 C 344.623 1.36897 -3.19181 0
M  V30 3576 C 343.577 0.804833 -4.20365 0
M  V30 3577 C 342.903 1.9792 -4.96721 0
M  V30 3578 C 344.203 -0.192313 -5.21946 0
M  V30 3579 H 345.897 -0.387616 -2.9688 0
M  V30 3580 H 343.443 -0.187856 -1.42769 0
M  V30 3581 H 345.396 1.92037 -3.751 0
M  V30 3582 H 344.12 2.07936 -2.51853 0
M  V30 3583 H 342.779 0.275319 -3.65565 0
M  V30 3584 H 342.427 2.67686 -4.25856 0
M  V30 3585 H 342.127 1.60789 -5.65173 0
M  V30 3586 H 343.651 2.53526 -5.55479 0
M  V30 3587 H 345.065 0.270333 -5.72662 0
M  V30 3588 H 343.462 -0.478543 -5.98189 0
M  V30 3589 H 344.532 -1.11409 -4.71928 0
M  V30 3590 N 345.875 1.56104 -0.216619 0
M  V30 3591 C 347.115 2.00074 0.418322 0
M  V30 3592 C 347.479 1.10098 1.57297 0
M  V30 3593 O 348.68 1.43393 2.27359 0
M  V30 3594 C 346.951 3.47231 0.846477 0
M  V30 3595 S 348.51 4.13223 1.47622 0
M  V30 3596 H 345.328 0.698457 0.132962 0
M  V30 3597 H 347.93 1.92784 -0.324748 0
M  V30 3598 H 346.634 4.104 -0.0036319 0
M  V30 3599 H 346.165 3.58384 1.62248 0
M  V30 3600 H 348.18 4.12005 2.76526 0
M  V30 3601 N 347.353 -0.0568162 1.57498 0
M  V30 3602 C 348.599 -0.75422 1.88253 0
M  V30 3603 C 348.932 -1.76461 0.810865 0
M  V30 3604 O 348.207 -1.93691 -0.177259 0
M  V30 3605 C 348.49 -1.44878 3.2967 0
M  V30 3606 C 348.343 -0.453789 4.47505 0
M  V30 3607 C 349.662 -2.38994 3.69554 0
M  V30 3608 H 346.781 -0.272724 0.684683 0
M  V30 3609 H 349.423 -0.0172113 1.89992 0
M  V30 3610 H 347.573 -2.077 3.28318 0
M  V30 3611 H 349.245 0.170371 4.60985 0
M  V30 3612 H 347.488 0.229552 4.33192 0
M  V30 3613 H 348.159 -0.977699 5.43273 0
M  V30 3614 H 350.635 -1.86239 3.72095 0
M  V30 3615 H 349.511 -2.84587 4.69363 0
M  V30 3616 H 349.772 -3.24461 3.00296 0
M  V30 3617 N 348.832 -1.54138 -0.328536 0
M  V30 3618 C 350.248 -1.44736 -0.672574 0
M  V30 3619 C 350.448 -0.616217 -1.91846 0
M  V30 3620 O 349.504 -0.113067 -2.52247 0
M  V30 3621 C 350.817 -2.884 -0.851217 0
M  V30 3622 C 352.365 -2.98271 -0.948877 0
M  V30 3623 C 352.84 -4.43074 -1.15973 0
M  V30 3624 N 354.331 -4.46665 -1.22658 0
M  V30 3625 C 355.066 -5.55857 -1.40751 0
M  V30 3626 N 354.562 -6.75026 -1.5592 0
M  V30 3627 N 356.355 -5.43495 -1.4342 0
M  V30 3628 H 348.506 -2.06661 0.490421 0
M  V30 3629 H 350.769 -0.934812 0.157579 0
M  V30 3630 H 350.475 -3.51699 -0.00704236 0
M  V30 3631 H 350.349 -3.34225 -1.74853 0
M  V30 3632 H 352.736 -2.35102 -1.78356 0
M  V30 3633 H 352.817 -2.55785 -0.0281435 0
M  V30 3634 H 352.461 -5.06827 -0.329915 0
M  V30 3635 H 352.391 -4.83165 -2.09426 0
M  V30 3636 H 354.882 -3.60797 -1.124 0
M  V30 3637 H 355.195 -7.54004 -1.69404 0
M  V30 3638 H 353.54 -6.77944 -1.53027 0
M  V30 3639 H 356.731 -4.49349 -1.31162 0
M  V30 3640 H 356.904 -6.28649 -1.57178 0
M  V30 3641 N 350.31 0.590341 -1.46126 0
M  V30 3642 C 351.242 1.71427 -1.52136 0
M  V30 3643 C 352.255 1.57542 -0.41042 0
M  V30 3644 O 353.444 1.65106 -0.678389 0
M  V30 3645 C 350.544 3.09605 -1.37834 0
M  V30 3646 C 349.717 3.49566 -2.62912 0
M  V30 3647 C 348.776 4.66773 -2.42918 0
M  V30 3648 O 347.802 4.73019 -3.1661 0
M  V30 3649 N 349.004 5.61161 -1.4859 0
M  V30 3650 H 351.769 1.66728 -2.49042 0
M  V30 3651 H 349.33 0.776113 -1.42085 0
M  V30 3652 H 351.322 3.85796 -1.22243 0
M  V30 3653 H 349.892 3.08714 -0.491393 0
M  V30 3654 H 349.112 2.63158 -2.93499 0
M  V30 3655 H 350.4 3.73028 -3.46017 0
M  V30 3656 H 349.798 5.58844 -0.87808 0
M  V30 3657 H 348.355 6.36814 -1.38965 0
M  V30 3658 N 351.788 1.33704 0.83433 0
M  V30 3659 C 352.718 1.26967 1.95963 0
M  V30 3660 C 353.699 0.149337 1.69443 0
M  V30 3661 O 354.884 0.339852 1.91203 0
M  V30 3662 C 352.014 1.01275 3.32206 0
M  V30 3663 C 350.968 2.09652 3.73136 0
M  V30 3664 C 350.294 1.69166 5.07235 0
M  V30 3665 C 351.594 3.51372 3.86439 0
M  V30 3666 H 353.288 2.2112 2.01857 0
M  V30 3667 H 350.834 1.06447 0.969793 0
M  V30 3668 H 352.787 0.952106 4.10503 0
M  V30 3669 H 351.511 0.0356203 3.26581 0
M  V30 3670 H 350.17 2.14766 2.97104 0
M  V30 3671 H 349.818 0.701437 4.98085 0
M  V30 3672 H 349.518 2.41694 5.35591 0
M  V30 3673 H 351.042 1.64576 5.88003 0
M  V30 3674 H 352.456 3.48734 4.55036 0
M  V30 3675 H 350.853 4.22425 4.26236 0
M  V30 3676 H 351.923 3.89546 2.88759 0
M  V30 3677 N 353.266 -1.05314 1.17247 0
M  V30 3678 C 354.176 -2.16538 0.90268 0
M  V30 3679 C 355.192 -1.73523 -0.128707 0
M  V30 3680 O 356.368 -2.01337 0.0502701 0
M  V30 3681 C 353.433 -3.44167 0.418356 0
M  V30 3682 C 352.494 -4.01635 1.51618 0
M  V30 3683 C 351.727 -5.23171 1.05487 0
M  V30 3684 O 351.95 -5.70327 -0.0914715 0
M  V30 3685 O 350.884 -5.72848 1.8474 0
M  V30 3686 H 354.71 -2.42145 1.83302 0
M  V30 3687 H 352.295 -1.15037 0.953246 0
M  V30 3688 H 354.177 -4.21112 0.155726 0
M  V30 3689 H 352.852 -3.20063 -0.48385 0
M  V30 3690 H 351.759 -3.26135 1.83268 0
M  V30 3691 H 353.092 -4.30053 2.39405 0
M  V30 3692 N 354.744 -0.972509 -1.24016 0
M  V30 3693 C 355.974 -0.653853 -1.9598 0
M  V30 3694 C 356.382 0.781801 -1.72292 0
M  V30 3695 O 355.725 1.53677 -1.00644 0
M  V30 3696 C 355.787 -0.854608 -3.49194 0
M  V30 3697 C 355.451 -2.27082 -3.96589 0
M  V30 3698 C 356.448 -3.24892 -4.05883 0
M  V30 3699 C 354.133 -2.5998 -4.29786 0
M  V30 3700 C 356.127 -4.53684 -4.47716 0
M  V30 3701 C 353.814 -3.88997 -4.71301 0
M  V30 3702 C 354.812 -4.85661 -4.80232 0
M  V30 3703 O 354.5 -6.12376 -5.20818 0
M  V30 3704 H 354.232 -0.242572 -0.630979 0
M  V30 3705 H 356.786 -1.30431 -1.58673 0
M  V30 3706 H 355.016 -0.146985 -3.86421 0
M  V30 3707 H 356.705 -0.534311 -4.02368 0
M  V30 3708 H 357.471 -3.00805 -3.80449 0
M  V30 3709 H 353.35 -1.85457 -4.22051 0
M  V30 3710 H 356.894 -5.29135 -4.54601 0
M  V30 3711 H 352.791 -4.12882 -4.96184 0
M  V30 3712 H 353.559 -6.16013 -5.38953 0
M  V30 3713 N 356.222 1.38976 -0.743202 0
M  V30 3714 C 357.169 2.30544 -0.10861 0
M  V30 3715 C 358.139 1.49642 0.720869 0
M  V30 3716 O 359.324 1.78304 0.679142 0
M  V30 3717 C 356.464 3.36018 0.786496 0
M  V30 3718 C 355.577 4.31963 -0.0564849 0
M  V30 3719 C 354.712 5.24506 0.840657 0
M  V30 3720 C 353.751 6.121 -0.00658363 0
M  V30 3721 N 352.888 6.96973 0.846943 0
M  V30 3722 H 357.728 2.8424 -0.895088 0
M  V30 3723 H 355.265 1.3995 -0.453048 0
M  V30 3724 H 357.223 3.95768 1.31999 0
M  V30 3725 H 355.853 2.83758 1.53887 0
M  V30 3726 H 354.905 3.73763 -0.707492 0
M  V30 3727 H 356.217 4.93703 -0.711229 0
M  V30 3728 H 355.371 5.89322 1.4417 0
M  V30 3729 H 354.11 4.63107 1.52916 0
M  V30 3730 H 353.115 5.46289 -0.620366 0
M  V30 3731 H 354.34 6.75565 -0.691992 0
M  V30 3732 H 352.286 6.38133 1.52059 0
M  V30 3733 H 352.203 7.5559 0.248864 0
M  V30 3734 H 353.471 7.6621 1.43328 0
M  V30 3735 N 357.7 0.491464 1.49741 0
M  V30 3736 C 358.65 -0.311086 2.25868 0
M  V30 3737 C 359.634 -0.943857 1.30308 0
M  V30 3738 O 360.826 -0.853035 1.55088 0
M  V30 3739 C 357.955 -1.38059 3.14316 0
M  V30 3740 C 357.041 -0.754541 4.17334 0
M  V30 3741 N 357.432 0.137216 5.05614 0
M  V30 3742 C 355.73 -1.01621 4.34269 0
M  V30 3743 C 356.431 0.494614 5.79593 0
M  V30 3744 N 355.407 -0.135169 5.43432 0
M  V30 3745 H 359.209 0.37555 2.91491 0
M  V30 3746 H 356.723 0.306917 1.59473 0
M  V30 3747 H 358.72 -1.96891 3.67477 0
M  V30 3748 H 357.38 -2.06901 2.50244 0
M  V30 3749 H 358.391 0.50741 5.15408 0
M  V30 3750 H 355.068 -1.69808 3.81407 0
M  V30 3751 H 356.458 1.2236 6.60665 0
M  V30 3752 N 359.178 -1.55987 0.224894 0
M  V30 3753 C 360.589 -1.84553 -0.282345 0
M  V30 3754 C 360.94 -1.14634 -1.59227 0
M  V30 3755 O 360.065 -0.417155 -2.12341 0
M  V30 3756 C 360.66 -3.348 -0.519062 0
M  V30 3757 C 359.219 -3.63671 -0.970604 0
M  V30 3758 C 358.366 -2.77277 -0.0355261 0
M  V30 3759 H 361.317 -1.52245 0.448006 0
M  V30 3760 H 361.338 -3.55187 -1.36463 0
M  V30 3761 H 360.85 -3.8566 0.43449 0
M  V30 3762 H 358.951 -3.1827 -1.9374 0
M  V30 3763 H 359.064 -4.71631 -0.842698 0
M  V30 3764 H 357.428 -2.48846 -0.542927 0
M  V30 3765 H 358.211 -3.30937 0.913003 0
M  V30 3766 N 360.656 0.0484629 -1.57525 0
M  V30 3767 C 361.566 1.07241 -2.08654 0
M  V30 3768 C 362.582 1.409 -1.02095 0
M  V30 3769 O 363.758 1.50609 -1.33712 0
M  V30 3770 C 360.823 2.36008 -2.5397 0
M  V30 3771 C 359.884 2.09108 -3.7493 0
M  V30 3772 C 359.117 3.31736 -4.18075 0
M  V30 3773 O 359.34 4.41714 -3.60895 0
M  V30 3774 O 358.274 3.18576 -5.10679 0
M  V30 3775 H 362.1 0.667965 -2.96263 0
M  V30 3776 H 359.685 0.26417 -1.47046 0
M  V30 3777 H 361.567 3.11747 -2.83535 0
M  V30 3778 H 360.242 2.75786 -1.69481 0
M  V30 3779 H 359.149 1.31 -3.50414 0
M  V30 3780 H 360.482 1.74198 -4.60343 0
M  V30 3781 N 362.134 1.5431 0.320358 0
M  V30 3782 C 363.359 1.76954 1.08175 0
M  V30 3783 C 363.784 0.518193 1.80821 0
M  V30 3784 O 363.142 -0.530411 1.73368 0
M  V30 3785 C 363.19 2.96451 2.05303 0
M  V30 3786 O 362.294 2.68221 3.13259 0
M  V30 3787 H 361.635 0.586275 0.311733 0
M  V30 3788 H 364.165 2.01342 0.363676 0
M  V30 3789 H 364.175 3.23887 2.48116 0
M  V30 3790 H 362.85 3.87196 1.51829 0
M  V30 3791 H 361.427 2.51744 2.75099 0
M  V30 3792 N 363.613 -0.582584 1.46437 0
M  V30 3793 C 364.861 -1.33814 1.51453 0
M  V30 3794 C 365.182 -1.94277 0.167792 0
M  V30 3795 O 364.452 -1.78566 -0.805677 0
M  V30 3796 H 363.032 -0.496838 0.557818 0
M  V30 3797 H 365.694 -0.682281 1.82568 0
M  V30 3798 H 364.79 -2.14479 2.26728 0
M  V30 3799 N 365.091 -1.34144 -0.827227 0
M  V30 3800 C 366.001 -1.27428 -1.96975 0
M  V30 3801 C 367.017 -0.182728 -1.73038 0
M  V30 3802 O 368.193 -0.408426 -1.97215 0
M  V30 3803 C 365.258 -1.02526 -3.31194 0
M  V30 3804 C 364.319 -2.20796 -3.68168 0
M  V30 3805 C 363.552 -1.97073 -4.95982 0
M  V30 3806 O 363.775 -0.926822 -5.6282 0
M  V30 3807 O 362.709 -2.83912 -5.30733 0
M  V30 3808 H 366.535 -2.23537 -2.05584 0
M  V30 3809 H 364.12 -1.14307 -0.961989 0
M  V30 3810 H 366.002 -0.904026 -4.11589 0
M  V30 3811 H 364.677 -0.0945389 -3.23562 0
M  V30 3812 H 363.584 -2.38477 -2.88235 0
M  V30 3813 H 364.917 -3.12243 -3.8048 0
M  V30 3814 N 366.569 1.04691 -1.17803 0
M  V30 3815 C 367.797 1.81446 -0.99423 0
M  V30 3816 C 368.212 1.83174 0.457459 0
M  V30 3817 O 367.569 1.26265 1.31771 0
M  V30 3818 C 367.62 3.27334 -1.5341 0
M  V30 3819 O 367.341 3.25798 -2.92895 0
M  V30 3820 C 368.842 4.20759 -1.39559 0
M  V30 3821 H 366.062 0.571599 -0.351447 0
M  V30 3822 H 368.606 1.31982 -1.56208 0
M  V30 3823 H 366.761 3.74052 -1.00815 0
M  V30 3824 H 367.175 4.17144 -3.17949 0
M  V30 3825 H 368.649 5.21084 -1.82141 0
M  V30 3826 H 369.126 4.37856 -0.343394 0
M  V30 3827 H 369.732 3.79901 -1.91195 0
M  V30 3828 N 368.047 0.979072 1.23499 0
M  V30 3829 C 369.293 0.648178 1.92163 0
M  V30 3830 C 369.626 -0.816049 1.76222 0
M  V30 3831 O 368.901 -1.58849 1.12237 0
M  V30 3832 C 369.184 1.03773 3.44824 0
M  V30 3833 C 369.037 2.55948 3.69879 0
M  V30 3834 C 370.356 0.580653 4.36253 0
M  V30 3835 H 367.475 0.236952 0.69787 0
M  V30 3836 H 370.117 1.22012 1.45647 0
M  V30 3837 H 368.267 0.551058 3.84572 0
M  V30 3838 H 369.939 3.12179 3.3962 0
M  V30 3839 H 368.182 2.98641 3.14636 0
M  V30 3840 H 368.853 2.78255 4.76737 0
M  V30 3841 H 371.329 0.998465 4.03943 0
M  V30 3842 H 370.205 0.881663 5.41773 0
M  V30 3843 H 370.466 -0.519052 4.39042 0
M  V30 3844 N 369.525 -1.3858 0.750561 0
M  V30 3845 C 370.755 -2.04175 0.31564 0
M  V30 3846 C 371.163 -1.56726 -1.05989 0
M  V30 3847 O 370.506 -0.734225 -1.68389 0
M  V30 3848 C 370.568 -3.58585 0.256389 0
M  V30 3849 C 370.232 -4.29077 1.57296 0
M  V30 3850 C 371.229 -4.54656 2.52159 0
M  V30 3851 C 368.914 -4.67324 1.84156 0
M  V30 3852 C 370.908 -5.17512 3.72103 0
M  V30 3853 C 368.595 -5.29905 3.04374 0
M  V30 3854 C 369.593 -5.54933 3.98168 0
M  V30 3855 O 369.281 -6.16212 5.16273 0
M  V30 3856 H 369.013 -0.662742 0.133226 0
M  V30 3857 H 371.567 -1.78313 1.01948 0
M  V30 3858 H 369.797 -3.83406 -0.503677 0
M  V30 3859 H 371.486 -4.05628 -0.148612 0
M  V30 3860 H 372.252 -4.25539 2.32683 0
M  V30 3861 H 368.131 -4.47191 1.11988 0
M  V30 3862 H 371.675 -5.36963 4.45327 0
M  V30 3863 H 367.572 -5.58444 3.23745 0
M  V30 3864 H 368.34 -6.34701 5.16815 0
M  V30 3865 N 371.003 -0.499398 -1.49478 0
M  V30 3866 C 372.251 0.0455996 -2.02049 0
M  V30 3867 C 372.572 1.37633 -1.38138 0
M  V30 3868 O 371.842 1.8842 -0.536166 0
M  V30 3869 H 370.422 0.0198416 -0.746736 0
M  V30 3870 H 373.084 -0.656274 -1.83519 0
M  V30 3871 H 372.18 0.176445 -3.11601 0
M  V30 3872 N 372.481 1.55866 -0.233164 0
M  V30 3873 C 373.727 1.98897 0.395959 0
M  V30 3874 C 374.06 1.12091 1.58585 0
M  V30 3875 O 373.335 0.181182 1.93654 0
M  V30 3876 C 373.618 3.50658 0.819224 0
M  V30 3877 C 373.471 4.48233 -0.375109 0
M  V30 3878 C 374.79 4.07135 1.67121 0
M  V30 3879 H 371.909 0.723102 0.142451 0
M  V30 3880 H 374.551 1.87082 -0.331725 0
M  V30 3881 H 372.701 3.60857 1.43925 0
M  V30 3882 H 374.373 4.50031 -1.01341 0
M  V30 3883 H 372.616 4.21624 -1.02058 0
M  V30 3884 H 373.287 5.51988 -0.0358328 0
M  V30 3885 H 375.763 3.99952 1.14795 0
M  V30 3886 H 374.639 5.13615 1.93625 0
M  V30 3887 H 374.9 3.54736 2.63846 0
M  V30 3888 N 373.959 -0.0401083 1.57549 0
M  V30 3889 C 375.199 -0.738098 1.90608 0
M  V30 3890 C 375.563 -1.73107 0.830539 0
M  V30 3891 O 376.764 -2.4765 1.04513 0
M  V30 3892 C 375.035 -1.39985 3.28845 0
M  V30 3893 S 376.594 -2.12852 3.83718 0
M  V30 3894 H 373.412 -0.24477 0.667539 0
M  V30 3895 H 376.014 0.00693599 1.95499 0
M  V30 3896 H 374.718 -0.663775 4.04997 0
M  V30 3897 H 374.249 -2.18366 3.2723 0
M  V30 3898 H 376.264 -3.39842 3.61555 0
M  V30 3899 N 375.437 -1.54477 -0.31217 0
M  V30 3900 C 376.662 -1.77526 -1.07235 0
M  V30 3901 C 377.087 -0.527775 -1.80544 0
M  V30 3902 O 376.445 0.52121 -1.73646 0
M  V30 3903 C 376.493 -2.97535 -2.03728 0
M  V30 3904 O 375.597 -2.69878 -3.11833 0
M  V30 3905 H 374.938 -0.58792 -0.30862 0
M  V30 3906 H 377.468 -2.01532 -0.352993 0
M  V30 3907 H 377.478 -3.25198 -2.46395 0
M  V30 3908 H 376.153 -3.87996 -1.49774 0
M  V30 3909 H 374.73 -2.53199 -2.7376 0
M  V30 3910 N 376.915 0.57481 -1.46744 0
M  V30 3911 C 378.143 1.35856 -1.56047 0
M  V30 3912 C 378.558 1.87691 -0.204365 0
M  V30 3913 O 377.915 1.64049 0.79963 0
M  V30 3914 C 377.966 2.54066 -2.57163 0
M  V30 3915 O 377.687 2.04377 -3.87507 0
M  V30 3916 C 379.188 3.46514 -2.76483 0
M  V30 3917 H 376.408 0.414754 -0.527466 0
M  V30 3918 H 378.952 0.698035 -1.92218 0
M  V30 3919 H 377.107 3.16092 -2.23974 0
M  V30 3920 H 377.521 2.81419 -4.4261 0
M  V30 3921 H 378.995 4.25919 -3.51137 0
M  V30 3922 H 379.472 3.98951 -1.83671 0
M  V30 3923 H 380.078 2.90318 -3.10799 0
M  V30 3924 N 378.394 1.34581 0.820102 0
M  V30 3925 C 379.624 1.29991 1.6058 0
M  V30 3926 C 380.032 -0.127588 1.88769 0
M  V30 3927 O 379.375 -1.08595 1.48165 0
M  V30 3928 C 379.437 2.02548 2.9701 0
M  V30 3929 C 379.101 3.51794 2.91701 0
M  V30 3930 C 380.098 4.46647 2.66087 0
M  V30 3931 C 377.783 3.94249 3.11245 0
M  V30 3932 C 379.777 5.81929 2.60071 0
M  V30 3933 C 377.464 5.2963 3.04853 0
M  V30 3934 C 378.462 6.23282 2.793 0
M  V30 3935 O 378.15 7.56181 2.72847 0
M  V30 3936 H 377.882 0.448539 0.505756 0
M  V30 3937 H 380.436 1.77811 1.02822 0
M  V30 3938 H 378.666 1.49345 3.56697 0
M  V30 3939 H 380.355 1.91211 3.58041 0
M  V30 3940 H 381.121 4.15168 2.5072 0
M  V30 3941 H 377 3.21749 3.30149 0
M  V30 3942 H 380.544 6.54999 2.40046 0
M  V30 3943 H 376.441 5.60727 3.19774 0
M  V30 3944 H 377.209 7.6595 2.88553 0
M  V30 3945 N 379.872 -1.04064 1.18357 0
M  V30 3946 C 380.802 -2.14001 0.934113 0
M  V30 3947 C 381.783 -1.69616 -0.128186 0
M  V30 3948 O 382.968 -1.94185 0.0244093 0
M  V30 3949 C 380.098 -3.44253 0.459066 0
M  V30 3950 C 379.052 -4.02261 1.46185 0
M  V30 3951 C 378.378 -5.27992 0.844322 0
M  V30 3952 C 379.678 -4.38432 2.83856 0
M  V30 3953 H 381.372 -2.35127 1.85352 0
M  V30 3954 H 378.918 -1.12998 0.892604 0
M  V30 3955 H 380.871 -4.20522 0.271907 0
M  V30 3956 H 379.595 -3.22813 -0.495912 0
M  V30 3957 H 378.254 -3.28074 1.63595 0
M  V30 3958 H 377.902 -5.02862 -0.117845 0
M  V30 3959 H 377.602 -5.67765 1.51384 0
M  V30 3960 H 379.126 -6.06938 0.667693 0
M  V30 3961 H 380.54 -5.05688 2.70098 0
M  V30 3962 H 378.937 -4.89254 3.47491 0
M  V30 3963 H 380.007 -3.4826 3.37406 0
M  V30 3964 N 381.35 -0.985608 -1.22978 0
M  V30 3965 C 382.578 -0.675582 -1.95559 0
M  V30 3966 C 382.993 0.758413 -1.72897 0
M  V30 3967 O 382.35 1.51094 -1.02357 0
M  V30 3968 C 382.401 -0.96293 -3.48439 0
M  V30 3969 O 382.122 -2.34057 -3.70336 0
M  V30 3970 C 383.623 -0.669585 -4.38214 0
M  V30 3971 H 380.843 -0.250523 -0.622478 0
M  V30 3972 H 383.387 -1.3184 -1.56328 0
M  V30 3973 H 381.542 -0.366033 -3.85667 0
M  V30 3974 H 381.956 -2.43424 -4.64591 0
M  V30 3975 H 383.43 -0.920967 -5.44263 0
M  V30 3976 H 383.907 0.396383 -4.37408 0
M  V30 3977 H 384.513 -1.2472 -4.06602 0
M  V30 3978 N 382.828 1.3818 -0.7579 0
M  V30 3979 C 383.778 2.27741 -0.108674 0
M  V30 3980 C 384.762 1.45415 0.688709 0
M  V30 3981 O 385.954 1.68108 0.553956 0
M  V30 3982 C 383.083 3.34313 0.780367 0
M  V30 3983 C 382.169 4.24093 -0.0240977 0
M  V30 3984 N 382.56 4.9451 -1.06271 0
M  V30 3985 C 380.858 4.45542 0.202049 0
M  V30 3986 C 381.559 5.60675 -1.54979 0
M  V30 3987 N 380.535 5.36684 -0.864348 0
M  V30 3988 H 384.337 2.79649 -0.904071 0
M  V30 3989 H 381.851 1.51133 -0.594346 0
M  V30 3990 H 383.848 3.97368 1.26114 0
M  V30 3991 H 382.508 2.83962 1.57467 0
M  V30 3992 H 383.519 4.97345 -1.44459 0
M  V30 3993 H 380.196 4.06091 0.96935 0
M  V30 3994 H 381.586 6.26992 -2.41517 0
M  V30 3995 N 384.306 0.507319 1.49211 0
M  V30 3996 C 385.555 -0.0368315 2.01666 0
M  V30 3997 C 385.868 -1.37459 1.39156 0
M  V30 3998 O 387.074 -2.00579 1.82976 0
M  V30 3999 C 385.53 -0.116089 3.59713 0
M  V30 4000 C 385.138 1.2154 4.31198 0
M  V30 4001 C 386.882 -0.610268 4.2009 0
M  V30 4002 C 384.789 1.09796 5.81119 0
M  V30 4003 H 383.719 -0.0175376 0.753796 0
M  V30 4004 H 386.37 0.647691 1.71689 0
M  V30 4005 H 384.752 -0.8652 3.86433 0
M  V30 4006 H 385.926 1.9783 4.16173 0
M  V30 4007 H 384.241 1.64352 3.82593 0
M  V30 4008 H 386.838 -0.715742 5.29888 0
M  V30 4009 H 387.181 -1.61064 3.8388 0
M  V30 4010 H 387.714 0.0824916 3.97714 0
M  V30 4011 H 384.453 2.0728 6.21864 0
M  V30 4012 H 383.973 0.376058 5.9862 0
M  V30 4013 H 385.652 0.779281 6.4229 0
M  V30 4014 N 385.784 -1.5574 0.241426 0
M  V30 4015 C 386.694 -2.2479 -0.671305 0
M  V30 4016 C 387.71 -1.26217 -1.19772 0
M  V30 4017 O 388.886 -1.59079 -1.23514 0
M  V30 4018 C 385.951 -2.92966 -1.85396 0
M  V30 4019 C 385.012 -4.06935 -1.36756 0
M  V30 4020 C 384.245 -4.71851 -2.49384 0
M  V30 4021 O 384.468 -4.35823 -3.67987 0
M  V30 4022 O 383.402 -5.60467 -2.19454 0
M  V30 4023 H 387.228 -3.0349 -0.112966 0
M  V30 4024 H 384.813 -1.49397 0.0101513 0
M  V30 4025 H 386.695 -3.35927 -2.54423 0
M  V30 4026 H 385.37 -2.17211 -2.40002 0
M  V30 4027 H 384.277 -3.68503 -0.644726 0
M  V30 4028 H 385.61 -4.84492 -0.867647 0
M  V30 4029 N 387.262 0.0317525 -1.57568 0
M  V30 4030 C 388.673 0.578692 -1.77505 0
M  V30 4031 C 389.024 1.75749 -0.872164 0
M  V30 4032 O 388.149 2.16298 -0.0663106 0
M  V30 4033 C 388.744 1.05658 -3.21904 0
M  V30 4034 C 387.303 1.54906 -3.43047 0
M  V30 4035 C 386.45 0.485939 -2.73009 0
M  V30 4036 H 389.401 -0.194475 -1.57504 0
M  V30 4037 H 389.422 1.92404 -3.28269 0
M  V30 4038 H 388.934 0.198422 -3.87592 0
M  V30 4039 H 387.035 2.42915 -2.82529 0
M  V30 4040 H 387.148 1.59841 -4.5165 0
M  V30 4041 H 385.512 0.940354 -2.36705 0
M  V30 4042 H 386.295 -0.362709 -3.41379 0
M  V30 4043 N 388.74 1.54641 0.303973 0
M  V30 4044 C 389.988 1.73437 1.0375 0
M  V30 4045 C 390.309 0.521449 1.87899 0
M  V30 4046 O 389.579 -0.46432 1.90318 0
M  V30 4047 H 388.159 0.639518 0.386039 0
M  V30 4048 H 390.821 1.91988 0.335675 0
M  V30 4049 H 389.917 2.62235 1.69231 0
M  V30 4050 N 390.218 -0.567019 1.47046 0
M  V30 4051 C 391.443 -1.3551 1.57009 0
M  V30 4052 C 391.868 -1.86841 0.217259 0
M  V30 4053 O 391.226 -1.62435 -0.805268 0
M  V30 4054 C 391.274 -2.50777 2.5912 0
M  V30 4055 O 390.378 -3.52706 2.13711 0
M  V30 4056 H 389.719 -0.402919 0.52778 0
M  V30 4057 H 392.249 -0.686241 1.92748 0
M  V30 4058 H 392.259 -2.97481 2.79229 0
M  V30 4059 H 390.934 -2.12771 3.57353 0
M  V30 4060 H 389.511 -3.12374 2.03659 0
M  V30 4061 N 391.696 -1.35014 -0.812953 0
M  V30 4062 C 392.606 -1.2951 -1.95613 0
M  V30 4063 C 393.622 -0.20107 -1.72834 0
M  V30 4064 O 394.798 -0.42932 -1.96771 0
M  V30 4065 C 391.863 -1.06033 -3.30088 0
M  V30 4066 C 390.924 -2.24688 -3.65805 0
M  V30 4067 C 390.157 -2.02322 -4.93864 0
M  V30 4068 O 390.38 -0.986464 -5.61805 0
M  V30 4069 O 389.314 -2.89525 -5.27692 0
M  V30 4070 H 393.14 -2.25705 -2.03202 0
M  V30 4071 H 390.725 -1.15321 -0.949811 0
M  V30 4072 H 392.607 -0.94763 -4.10607 0
M  V30 4073 H 391.282 -0.128852 -3.23443 0
M  V30 4074 H 390.189 -2.41521 -2.85689 0
M  V30 4075 H 391.522 -3.16261 -3.77147 0
M  V30 4076 N 393.175 1.03435 -1.18907 0
M  V30 4077 C 394.421 1.77005 -0.989798 0
M  V30 4078 C 394.754 1.88205 0.478816 0
M  V30 4079 O 394.029 1.39481 1.35556 0
M  V30 4080 C 394.312 3.19925 -1.65287 0
M  V30 4081 C 394.165 3.1663 -3.19477 0
M  V30 4082 C 395.484 4.18189 -1.37134 0
M  V30 4083 H 392.603 0.642538 -0.360991 0
M  V30 4084 H 395.245 1.20784 -1.46667 0
M  V30 4085 H 393.395 3.67929 -1.24741 0
M  V30 4086 H 395.067 2.76567 -3.692 0
M  V30 4087 H 393.31 2.54491 -3.51307 0
M  V30 4088 H 393.981 4.1758 -3.61013 0
M  V30 4089 H 396.457 3.78761 -1.72276 0
M  V30 4090 H 395.333 5.16394 -1.86087 0
M  V30 4091 H 395.594 4.41112 -0.295424 0
M  V30 4092 N 394.653 0.992116 1.22453 0
M  V30 4093 C 395.6 0.541731 2.24352 0
M  V30 4094 C 396.57 -0.425519 1.60557 0
M  V30 4095 O 397.755 -0.330453 1.87917 0
M  V30 4096 C 394.895 -0.138248 3.44823 0
M  V30 4097 C 394.008 0.870649 4.23136 0
M  V30 4098 C 393.143 0.164269 5.30946 0
M  V30 4099 C 392.182 1.16159 6.00977 0
M  V30 4100 N 391.319 0.483568 7.00433 0
M  V30 4101 H 396.159 1.41541 2.62241 0
M  V30 4102 H 393.696 0.709013 1.28885 0
M  V30 4103 H 395.654 -0.5494 4.13567 0
M  V30 4104 H 394.284 -0.975721 3.077 0
M  V30 4105 H 393.336 1.40013 3.53696 0
M  V30 4106 H 394.648 1.63014 4.7141 0
M  V30 4107 H 393.802 -0.303653 6.0594 0
M  V30 4108 H 392.541 -0.627733 4.83643 0
M  V30 4109 H 391.546 1.64015 5.24766 0
M  V30 4110 H 392.771 1.95445 6.50368 0
M  V30 4111 H 390.717 -0.289012 6.55363 0
M  V30 4112 H 390.634 1.18152 7.4671 0
M  V30 4113 H 391.902 0.0384219 7.79491 0
M  V30 4114 N 396.131 -1.37776 0.765217 0
M  V30 4115 C 397.38 -1.99092 0.323307 0
M  V30 4116 C 397.693 -1.61434 -1.10446 0
M  V30 4117 O 398.899 -2.15805 -1.64743 0
M  V30 4118 C 397.355 -3.56019 0.527098 0
M  V30 4119 C 396.963 -4.0262 1.96471 0
M  V30 4120 C 398.707 -4.2424 0.148483 0
M  V30 4121 C 396.614 -5.52233 2.11644 0
M  V30 4122 H 395.544 -0.744846 0.117137 0
M  V30 4123 H 398.195 -1.57391 0.943417 0
M  V30 4124 H 396.577 -3.95667 -0.162372 0
M  V30 4125 H 397.751 -3.74234 2.68859 0
M  V30 4126 H 396.066 -3.47161 2.29931 0
M  V30 4127 H 398.663 -5.34159 0.240456 0
M  V30 4128 H 399.006 -4.06446 -0.900422 0
M  V30 4129 H 399.539 -3.89872 0.79025 0
M  V30 4130 H 396.278 -5.74945 3.1483 0
M  V30 4131 H 395.798 -5.82324 1.4373 0
M  V30 4132 H 397.477 -6.18106 1.91193 0
M  V30 4133 N 397.609 -0.515225 -1.4894 0
M  V30 4134 C 398.837 0.0206034 -2.0689 0
M  V30 4135 C 399.252 1.29514 -1.37374 0
M  V30 4136 O 398.609 1.76698 -0.456529 0
M  V30 4137 C 398.66 0.26351 -3.60538 0
M  V30 4138 O 398.381 -0.960517 -4.27441 0
M  V30 4139 C 399.882 0.841383 -4.35242 0
M  V30 4140 H 397.102 -0.0268608 -0.670462 0
M  V30 4141 H 399.646 -0.716651 -1.91532 0
M  V30 4142 H 397.801 0.950777 -3.75552 0
M  V30 4143 H 398.215 -0.73212 -5.19365 0
M  V30 4144 H 399.689 0.96085 -5.43573 0
M  V30 4145 H 400.166 1.8427 -3.98674 0
M  V30 4146 H 400.772 0.191143 -4.2487 0
M  V30 4147 N 399.087 1.5561 -0.249682 0
M  V30 4148 C 400.335 1.98618 0.373548 0
M  V30 4149 C 400.656 1.13919 1.58264 0
M  V30 4150 O 399.926 0.222637 1.94631 0
M  V30 4151 H 398.506 0.733571 0.141006 0
M  V30 4152 H 401.168 1.91748 -0.349117 0
M  V30 4153 H 400.264 3.04584 0.680796 0
M  V30 4154 N 400.565 -0.0233959 1.57583 0
M  V30 4155 C 401.976 -0.56927 1.77809 0
M  V30 4156 C 402.327 -1.75284 0.881472 0
M  V30 4157 O 401.452 -2.1626 0.0777805 0
M  V30 4158 C 402.047 -1.03949 3.22459 0
M  V30 4159 C 400.606 -1.53084 3.43864 0
M  V30 4160 C 399.753 -0.471454 2.73263 0
M  V30 4161 H 402.704 0.202825 1.57399 0
M  V30 4162 H 402.725 -1.90661 3.29285 0
M  V30 4163 H 402.237 -0.177865 3.87692 0
M  V30 4164 H 400.338 -2.41414 2.83814 0
M  V30 4165 H 400.451 -1.57443 4.52491 0
M  V30 4166 H 398.815 -0.927788 2.37201 0
M  V30 4167 H 399.598 0.380808 3.41181 0
M  V30 4168 N 402.043 -1.548 -0.295768 0
M  V30 4169 C 403.289 -1.74588 -1.03184 0
M  V30 4170 C 403.622 -0.532962 -1.86744 0
M  V30 4171 O 402.897 0.469872 -1.88739 0
M  V30 4172 C 403.18 -3.03791 -1.93347 0
M  V30 4173 C 403.033 -4.35392 -1.12933 0
M  V30 4174 C 404.352 -3.28892 -2.92435 0
M  V30 4175 H 401.471 -0.635221 -0.373715 0
M  V30 4176 H 404.113 -1.87519 -0.30606 0
M  V30 4177 H 402.263 -2.92898 -2.55232 0
M  V30 4178 H 403.935 -4.58211 -0.532943 0
M  V30 4179 H 402.178 -4.31642 -0.432168 0
M  V30 4180 H 402.849 -5.22074 -1.79284 0
M  V30 4181 H 405.325 -3.39429 -2.4068 0
M  V30 4182 H 404.201 -4.20603 -3.52682 0
M  V30 4183 H 404.462 -2.47437 -3.6637 0
M  V30 4184 N 403.521 0.559213 -1.47345 0
M  V30 4185 C 404.769 1.31388 -1.53563 0
M  V30 4186 C 405.09 1.93985 -0.198678 0
M  V30 4187 O 404.36 1.79825 0.777167 0
M  V30 4188 H 402.94 0.487901 -0.565652 0
M  V30 4189 H 405.602 0.65315 -1.8363 0
M  V30 4190 H 404.698 2.10844 -2.30111 0
M  V30 4191 N 404.999 1.35443 0.805782 0
M  V30 4192 C 405.946 1.28431 1.91766 0
M  V30 4193 C 406.916 0.156102 1.65365 0
M  V30 4194 O 408.101 0.339936 1.87747 0
M  V30 4195 C 405.241 1.06301 3.2832 0
M  V30 4196 C 404.354 2.2805 3.66902 0
M  V30 4197 C 403.489 1.99064 4.92491 0
M  V30 4198 C 402.528 3.16863 5.23703 0
M  V30 4199 N 401.665 2.87647 6.40471 0
M  V30 4200 H 406.505 2.23511 1.97096 0
M  V30 4201 H 404.042 1.11105 0.964054 0
M  V30 4202 H 406 0.915012 4.07042 0
M  V30 4203 H 404.63 0.148822 3.22457 0
M  V30 4204 H 403.682 2.53711 2.83434 0
M  V30 4205 H 404.994 3.1601 3.85927 0
M  V30 4206 H 404.148 1.81099 5.7904 0
M  V30 4207 H 402.887 1.0839 4.75503 0
M  V30 4208 H 401.892 3.35404 4.35642 0
M  V30 4209 H 403.117 4.08339 5.4262 0
M  V30 4210 H 401.063 1.99568 6.24907 0
M  V30 4211 H 400.98 3.69141 6.59751 0
M  V30 4212 H 402.248 2.73226 7.30047 0
M  V30 4213 N 406.477 -1.02803 1.19454 0
M  V30 4214 C 407.387 -2.14575 0.948408 0
M  V30 4215 C 408.403 -1.73757 -0.091871 0
M  V30 4216 O 409.579 -2.01185 0.0929654 0
M  V30 4217 C 406.644 -3.43202 0.491265 0
M  V30 4218 C 405.705 -3.98328 1.60103 0
M  V30 4219 C 404.938 -5.20816 1.16561 0
M  V30 4220 O 405.161 -5.70392 0.0295238 0
M  V30 4221 O 404.095 -5.68801 1.96849 0
M  V30 4222 H 407.921 -2.38202 1.88397 0
M  V30 4223 H 405.506 -1.12989 0.977433 0
M  V30 4224 H 407.388 -4.20687 0.245015 0
M  V30 4225 H 406.063 -3.21018 -0.415851 0
M  V30 4226 H 404.97 -3.22174 1.90144 0
M  V30 4227 H 406.303 -4.24879 2.48473 0
M  V30 4228 N 407.956 -0.998596 -1.21925 0
M  V30 4229 C 408.889 -0.498517 -2.22688 0
M  V30 4230 C 409.867 0.444301 -1.56412 0
M  V30 4231 O 411.051 0.368518 -1.84863 0
M  V30 4232 C 408.178 0.276639 -3.37568 0
M  V30 4233 C 407.224 -0.61302 -4.22071 0
M  V30 4234 S 408.057 -2.07168 -4.93803 0
M  V30 4235 C 409.213 -1.30617 -6.12119 0
M  V30 4236 H 409.446 -1.35234 -2.64762 0
M  V30 4237 H 406.979 -0.806018 -1.31692 0
M  V30 4238 H 408.937 0.717817 -4.04175 0
M  V30 4239 H 407.598 1.10581 -2.93991 0
M  V30 4240 H 406.791 -0.0162909 -5.03997 0
M  V30 4241 H 406.393 -0.991202 -3.60626 0
M  V30 4242 H 408.685 -0.57675 -6.75041 0
M  V30 4243 H 409.628 -2.10091 -6.76215 0
M  V30 4244 H 410.036 -0.816957 -5.58557 0
M  V30 4245 N 409.434 1.37368 -0.772513 0
M  V30 4246 C 410.364 2.32856 -0.173304 0
M  V30 4247 C 411.345 1.55818 0.682262 0
M  V30 4248 O 412.53 1.84052 0.619566 0
M  V30 4249 C 409.66 3.40048 0.706007 0
M  V30 4250 C 408.614 4.27973 -0.0483144 0
M  V30 4251 C 407.94 5.26184 0.950491 0
M  V30 4252 C 409.24 5.07665 -1.22776 0
M  V30 4253 H 410.934 2.83217 -0.971002 0
M  V30 4254 H 408.48 1.3617 -0.468377 0
M  V30 4255 H 410.433 4.05827 1.13501 0
M  V30 4256 H 409.157 2.88214 1.53623 0
M  V30 4257 H 407.816 3.63726 -0.458107 0
M  V30 4258 H 407.464 4.7063 1.77529 0
M  V30 4259 H 407.164 5.85872 0.450314 0
M  V30 4260 H 408.688 5.94838 1.37842 0
M  V30 4261 H 410.102 5.66578 -0.875366 0
M  V30 4262 H 408.499 5.76681 -1.66007 0
M  V30 4263 H 409.569 4.40294 -2.03149 0
M  V30 4264 N 410.912 0.523116 1.48665 0
M  V30 4265 C 411.842 -0.23231 2.32342 0
M  V30 4266 C 412.823 -0.941637 1.41659 0
M  V30 4267 O 414.008 -0.928751 1.70552 0
M  V30 4268 C 411.138 -1.28387 3.22698 0
M  V30 4269 C 410.092 -0.693098 4.22351 0
M  V30 4270 C 409.418 -1.8468 5.01794 0
M  V30 4271 C 410.718 0.33063 5.21252 0
M  V30 4272 H 412.412 0.466192 2.95748 0
M  V30 4273 H 409.958 0.225643 1.42221 0
M  V30 4274 H 411.911 -1.82024 3.80059 0
M  V30 4275 H 410.635 -2.01186 2.57278 0
M  V30 4276 H 409.294 -0.178299 3.66166 0
M  V30 4277 H 408.942 -2.56301 4.32804 0
M  V30 4278 H 408.642 -1.45747 5.69238 0
M  V30 4279 H 410.166 -2.38709 5.62006 0
M  V30 4280 H 411.58 -0.118407 5.73178 0
M  V30 4281 H 409.977 0.636974 5.9671 0
M  V30 4282 H 411.047 1.23883 4.68808 0
M  V30 4283 N 412.39 -1.55475 0.257931 0
M  V30 4284 C 413.801 -1.8511 -0.243135 0
M  V30 4285 C 414.152 -1.17986 -1.5676 0
M  V30 4286 O 413.277 -0.462102 -2.11409 0
M  V30 4287 C 413.872 -3.35826 -0.447929 0
M  V30 4288 C 412.431 -3.65647 -0.893245 0
M  V30 4289 C 411.578 -2.7729 0.0232965 0
M  V30 4290 H 414.529 -1.51261 0.480199 0
M  V30 4291 H 414.55 -3.58002 -1.28898 0
M  V30 4292 H 414.062 -3.84652 0.516196 0
M  V30 4293 H 412.163 -3.22308 -1.86945 0
M  V30 4294 H 412.276 -4.73312 -0.742469 0
M  V30 4295 H 410.64 -2.49942 -0.490021 0
M  V30 4296 H 411.423 -3.28926 0.982994 0
M  V30 4297 N 413.868 0.0150385 -1.57593 0
M  V30 4298 C 415.145 0.7392 -1.81094 0
M  V30 4299 C 415.525 1.92817 -0.859344 0
M  V30 4300 O 414.873 2.28301 0.095362 0
M  V30 4301 C 415.083 1.15907 -3.29191 0
M  V30 4302 C 416.431 1.56918 -3.9454 0
M  V30 4303 O 417.455 1.25328 -3.33424 0
M  V30 4304 O 416.314 2.15604 -5.02173 0
M  V30 4305 H 413.408 0.358631 -0.745193 0
M  V30 4306 H 415.954 -0.00926156 -1.69697 0
M  V30 4307 H 414.726 0.310921 -3.90063 0
M  V30 4308 H 414.349 1.96711 -3.45529 0
M  V30 4309 N 415.346 1.54954 0.287554 0
M  V30 4310 C 416.623 1.65569 1.04146 0
M  V30 4311 C 417.003 0.512672 2.0478 0
M  V30 4312 O 416.351 -0.489038 2.23205 0
M  V30 4313 C 416.561 3.04163 1.71131 0
M  V30 4314 C 417.909 3.61429 2.22832 0
M  V30 4315 O 418.933 3.06702 1.81141 0
M  V30 4316 O 417.792 4.57281 2.9926 0
M  V30 4317 H 414.886 0.671881 0.482188 0
M  V30 4318 H 417.432 1.67297 0.28457 0
M  V30 4319 H 416.204 3.78796 0.981303 0
M  V30 4320 H 415.827 3.06271 2.53543 0
M  V30 4321 N 416.824 -0.551391 1.4764 0
M  V30 4322 C 418.235 -1.13349 1.48354 0
M  V30 4323 C 418.586 -1.94709 0.241432 0
M  V30 4324 O 417.711 -2.06306 -0.653205 0
M  V30 4325 C 418.306 -2.0623 2.68802 0
M  V30 4326 C 416.865 -2.597 2.72457 0
M  V30 4327 C 416.012 -1.36201 2.41546 0
M  V30 4328 H 418.963 -0.337698 1.55065 0
M  V30 4329 H 418.984 -2.90196 2.46103 0
M  V30 4330 H 418.496 -1.46987 3.59188 0
M  V30 4331 H 416.597 -3.22724 1.86225 0
M  V30 4332 H 416.71 -3.00296 3.73308 0
M  V30 4333 H 415.074 -1.67068 1.9225 0
M  V30 4334 H 415.857 -0.787425 3.34147 0
M  V30 4335 N 418.302 -1.35869 -0.798587 0
M  V30 4336 C 419.212 -1.31578 -1.94228 0
M  V30 4337 C 420.228 -0.21939 -1.72611 0
M  V30 4338 O 421.404 -0.450167 -1.96305 0
M  V30 4339 C 418.469 -1.09528 -3.28944 0
M  V30 4340 C 417.53 -2.28556 -3.63402 0
M  V30 4341 C 416.763 -2.07549 -4.9169 0
M  V30 4342 O 416.986 -1.046 -5.60727 0
M  V30 4343 O 415.92 -2.95106 -5.24591 0
M  V30 4344 H 419.746 -2.27847 -2.00796 0
M  V30 4345 H 417.331 -1.16322 -0.937526 0
M  V30 4346 H 419.213 -0.991127 -4.09579 0
M  V30 4347 H 417.888 -0.16315 -3.23289 0
M  V30 4348 H 416.795 -2.44538 -2.83112 0
M  V30 4349 H 418.128 -3.20244 -3.73771 0
M  V30 4350 N 419.78 1.02168 -1.19998 0
M  V30 4351 C 420.743 2.08765 -0.94604 0
M  V30 4352 C 421.743 1.60618 0.0763846 0
M  V30 4353 O 422.933 1.73472 -0.159135 0
M  V30 4354 C 420.065 3.38262 -0.423255 0
M  V30 4355 H 421.258 2.32726 -1.89153 0
M  V30 4356 H 418.811 1.1889 -1.01464 0
M  V30 4357 H 419.546 3.19974 0.527938 0
M  V30 4358 H 419.331 3.74532 -1.16053 0
M  V30 4359 H 420.821 4.16759 -0.264911 0
M  V30 4360 N 421.258 1.00505 1.21394 0
M  V30 4361 C 422.206 0.558623 2.25792 0
M  V30 4362 C 423.2 -0.396848 1.64686 0
M  V30 4363 O 424.406 -0.268035 1.77993 0
M  V30 4364 H 420.781 0.1623 0.734277 0
M  V30 4365 H 422.752 1.4503 2.60785 0
M  V30 4366 C 421.501 -0.0989574 3.47559 0
M  V30 4367 H 420.824 0.627225 3.94849 0
M  V30 4368 H 422.264 -0.3746 4.22342 0
M  V30 4369 C 420.723 -1.33817 3.09184 0
M  V30 4370 O 421.253 -2.43252 3.19674 0
M  V30 4371 N 419.459 -1.21793 2.63846 0
M  V30 4372 H 419.006 -0.32746 2.5551 0
M  V30 4373 H 418.964 -2.04809 2.38539 0
M  V30 4374 N 422.737 -1.36956 0.779787 0
M  V30 4375 C 423.983 -1.99787 0.348281 0
M  V30 4376 C 424.316 -1.61756 -1.07465 0
M  V30 4377 O 423.591 -0.867639 -1.74075 0
M  V30 4378 C 423.874 -3.56597 0.50104 0
M  V30 4379 C 423.727 -4.04513 1.96697 0
M  V30 4380 C 425.046 -4.40008 -0.0898097 0
M  V30 4381 H 422.165 -0.725796 0.128022 0
M  V30 4382 H 424.807 -1.62514 0.984331 0
M  V30 4383 H 422.957 -3.88479 -0.0404347 0
M  V30 4384 H 424.629 -3.83161 2.56876 0
M  V30 4385 H 422.872 -3.56408 2.47297 0
M  V30 4386 H 423.543 -5.1352 2.02486 0
M  V30 4387 H 426.019 -4.14431 0.372293 0
M  V30 4388 H 424.895 -5.4888 0.0471605 0
M  V30 4389 H 425.156 -4.26035 -1.18096 0
M  V30 4390 N 424.215 -0.530993 -1.48385 0
M  V30 4391 C 425.464 0.00474348 -2.01699 0
M  V30 4392 C 425.777 1.35227 -1.41325 0
M  V30 4393 O 426.983 1.97643 -1.86144 0
M  V30 4394 C 425.439 0.0588473 -3.59852 0
M  V30 4395 C 425.047 -1.28385 -4.2921 0
M  V30 4396 C 426.791 0.543358 -4.21008 0
M  V30 4397 C 424.698 -1.19028 -5.79298 0
M  V30 4398 H 423.628 0.00554317 -0.75398 0
M  V30 4399 H 426.279 -0.674924 -1.70637 0
M  V30 4400 H 424.661 0.803612 -3.8776 0
M  V30 4401 H 425.835 -2.04426 -4.12973 0
M  V30 4402 H 424.15 -1.70418 -3.7993 0
M  V30 4403 H 426.747 0.631351 -5.3096 0
M  V30 4404 H 427.09 1.54937 -3.86394 0
M  V30 4405 H 427.623 -0.145754 -3.97533 0
M  V30 4406 H 424.362 -2.17147 -6.18488 0
M  V30 4407 H 423.882 -0.471246 -5.97946 0
M  V30 4408 H 425.561 -0.881365 -6.40969 0
M  V30 4409 N 425.693 1.55336 -0.266172 0
M  V30 4410 C 426.626 2.18256 0.666296 0
M  V30 4411 C 427.604 1.14064 1.1588 0
M  V30 4412 O 428.788 1.42546 1.23341 0
M  V30 4413 C 425.915 2.79867 1.90768 0
M  V30 4414 C 424.961 3.97283 1.55141 0
M  V30 4415 S 425.794 5.31694 0.637313 0
M  V30 4416 C 426.95 5.96769 1.88727 0
M  V30 4417 H 427.183 2.97008 0.131647 0
M  V30 4418 H 424.716 1.54317 -0.0504869 0
M  V30 4419 H 426.674 3.15996 2.62025 0
M  V30 4420 H 425.335 2.01025 2.41346 0
M  V30 4421 H 424.528 4.3905 2.4749 0
M  V30 4422 H 424.13 3.6253 0.919113 0
M  V30 4423 H 426.422 6.15458 2.83227 0
M  V30 4424 H 427.365 6.91752 1.51276 0
M  V30 4425 H 427.773 5.26034 2.04814 0
M  V30 4426 N 427.171 -0.0066808 1.57599 0
M  V30 4427 C 428.101 -0.999296 2.11036 0
M  V30 4428 C 429.082 -1.36278 1.01795 0
M  V30 4429 O 430.267 -1.4477 1.29442 0
M  V30 4430 C 427.397 -2.29328 2.60818 0
M  V30 4431 C 426.351 -2.07159 3.74525 0
M  V30 4432 C 425.677 -3.42512 4.10596 0
M  V30 4433 C 426.977 -1.43959 5.02069 0
M  V30 4434 H 428.671 -0.554382 2.94223 0
M  V30 4435 H 426.217 -0.265221 1.41536 0
M  V30 4436 H 428.17 -2.99117 2.96828 0
M  V30 4437 H 426.894 -2.7592 1.74745 0
M  V30 4438 H 425.553 -1.39797 3.38899 0
M  V30 4439 H 425.201 -3.86795 3.21556 0
M  V30 4440 H 424.901 -3.28498 4.87199 0
M  V30 4441 H 426.425 -4.13628 4.4916 0
M  V30 4442 H 427.839 -2.03696 5.35893 0
M  V30 4443 H 426.236 -1.40452 5.83432 0
M  V30 4444 H 427.306 -0.407992 4.83181 0
M  V30 4445 N 428.649 -1.55105 -0.279332 0
M  V30 4446 C 429.612 -1.86783 -1.32834 0
M  V30 4447 C 430.612 -0.74199 -1.42657 0
M  V30 4448 O 431.802 -1.0102 -1.41918 0
M  V30 4449 C 428.934 -2.06746 -2.71052 0
M  V30 4450 H 430.127 -2.8055 -1.05979 0
M  V30 4451 H 427.68 -1.47499 -0.517087 0
M  V30 4452 H 428.415 -1.15339 -3.03097 0
M  V30 4453 H 428.2 -2.88711 -2.65309 0
M  V30 4454 H 429.69 -2.32549 -3.46858 0
M  V30 4455 N 430.127 0.543554 -1.4793 0
M  V30 4456 C 431.355 1.32516 -1.58894 0
M  V30 4457 C 431.77 1.87215 -0.244131 0
M  V30 4458 O 431.127 1.65709 0.764652 0
M  V30 4459 C 431.178 2.48554 -2.62494 0
M  V30 4460 O 430.899 1.96112 -3.91755 0
M  V30 4461 C 432.4 3.40572 -2.8377 0
M  V30 4462 H 429.62 0.403472 -0.536145 0
M  V30 4463 H 432.164 0.657106 -1.93655 0
M  V30 4464 H 430.319 3.1127 -2.30629 0
M  V30 4465 H 430.733 2.71967 -4.4848 0
M  V30 4466 H 432.207 4.18375 -3.60093 0
M  V30 4467 H 432.684 3.94965 -1.92092 0
M  V30 4468 H 433.29 2.8366 -3.16887 0
M  V30 4469 N 431.605 1.3629 0.791371 0
M  V30 4470 C 432.853 1.30154 1.5461 0
M  V30 4471 C 433.174 -0.119409 1.94634 0
M  V30 4472 O 432.444 -1.05924 1.64794 0
M  V30 4473 H 431.024 0.478784 0.573389 0
M  V30 4474 H 433.686 1.70565 0.94306 0
M  V30 4475 H 432.782 1.92762 2.45457 0
M  V30 4476 N 433.083 -1.0153 1.20538 0
M  V30 4477 C 434.311 -1.78746 1.04199 0
M  V30 4478 C 434.726 -1.84323 -0.408733 0
M  V30 4479 O 434.083 -1.29714 -1.28377 0
M  V30 4480 C 434.134 -3.23152 1.62035 0
M  V30 4481 O 433.855 -3.17918 3.0143 0
M  V30 4482 C 435.356 -4.16911 1.50666 0
M  V30 4483 H 432.576 -0.56208 0.366479 0
M  V30 4484 H 435.12 -1.27794 1.59653 0
M  V30 4485 H 433.275 -3.71248 1.10697 0
M  V30 4486 H 433.689 -4.08567 3.28897 0
M  V30 4487 H 435.163 -5.16072 1.95892 0
M  V30 4488 H 435.64 -4.36791 0.459363 0
M  V30 4489 H 436.246 -3.74698 2.01201 0
M  V30 4490 N 434.561 -1.01147 -1.20859 0
M  V30 4491 C 435.809 -0.696486 -1.89719 0
M  V30 4492 C 436.13 0.775788 -1.78904 0
M  V30 4493 O 435.4 1.55759 -1.18811 0
M  V30 4494 H 433.98 -0.254628 -0.702263 0
M  V30 4495 H 436.642 -1.28197 -1.46804 0
M  V30 4496 H 435.738 -0.975357 -2.96468 0
M  V30 4497 N 436.039 1.36541 -0.78704 0
M  V30 4498 C 437.288 1.98552 -0.35494 0
M  V30 4499 C 437.601 1.63171 1.07864 0
M  V30 4500 O 438.807 2.18399 1.61289 0
M  V30 4501 C 437.263 3.55136 -0.583671 0
M  V30 4502 C 436.871 3.99444 -2.02851 0
M  V30 4503 C 438.615 4.2395 -0.215957 0
M  V30 4504 C 436.522 5.48796 -2.20403 0
M  V30 4505 H 435.452 0.742888 -0.128972 0
M  V30 4506 H 438.103 1.5587 -0.968337 0
M  V30 4507 H 436.485 3.95875 0.0994046 0
M  V30 4508 H 437.659 3.6991 -2.74779 0
M  V30 4509 H 435.974 3.43459 -2.35425 0
M  V30 4510 H 438.571 5.33709 -0.325405 0
M  V30 4511 H 438.914 4.07827 0.835646 0
M  V30 4512 H 439.447 3.88565 -0.852175 0
M  V30 4513 H 436.186 5.69864 -3.23937 0
M  V30 4514 H 435.706 5.79964 -1.52977 0
M  V30 4515 H 437.385 6.14986 -2.01002 0
M  V30 4516 N 437.518 0.538854 1.48102 0
M  V30 4517 C 438.481 -0.208395 2.28251 0
M  V30 4518 C 439.481 -0.859656 1.35892 0
M  V30 4519 O 440.671 -0.71834 1.58699 0
M  V30 4520 C 437.803 -1.30252 3.15035 0
M  V30 4521 H 438.996 0.495407 2.9578 0
M  V30 4522 H 436.549 0.295112 1.53489 0
M  V30 4523 H 437.284 -2.0393 2.52157 0
M  V30 4524 H 437.069 -0.840551 3.82985 0
M  V30 4525 H 438.559 -1.82787 3.75471 0
M  V30 4526 N 438.996 -1.55193 0.274407 0
M  V30 4527 C 440.407 -1.85358 -0.223488 0
M  V30 4528 C 440.758 -1.19642 -1.555 0
M  V30 4529 O 439.883 -0.484498 -2.10907 0
M  V30 4530 C 440.478 -3.36282 -0.412285 0
M  V30 4531 C 439.037 -3.66574 -0.854413 0
M  V30 4532 C 438.184 -2.7725 0.0527056 0
M  V30 4533 H 441.135 -1.50743 0.496215 0
M  V30 4534 H 441.156 -3.59349 -1.25094 0
M  V30 4535 H 440.668 -3.84083 0.556965 0
M  V30 4536 H 438.769 -3.24273 -1.83516 0
M  V30 4537 H 438.882 -4.74073 -0.692226 0
M  V30 4538 H 437.246 -2.50447 -0.463484 0
M  V30 4539 H 438.029 -3.27865 1.01783 0
M  V30 4540 N 440.474 -0.00167713 -1.576 0
M  V30 4541 C 441.407 1.02317 -2.03977 0
M  V30 4542 C 442.385 1.33381 -0.929963 0
M  V30 4543 O 443.569 1.45517 -1.19822 0
M  V30 4544 C 440.696 2.35035 -2.43878 0
M  V30 4545 C 439.742 2.19621 -3.65607 0
M  V30 4546 S 440.575 1.52068 -5.13455 0
M  V30 4547 C 441.731 2.86212 -5.56627 0
M  V30 4548 H 441.964 0.628285 -2.90585 0
M  V30 4549 H 439.497 0.209239 -1.52976 0
M  V30 4550 H 441.455 3.11345 -2.67534 0
M  V30 4551 H 440.116 2.71663 -1.57665 0
M  V30 4552 H 439.309 3.1767 -3.91282 0
M  V30 4553 H 438.911 1.51455 -3.41961 0
M  V30 4554 H 441.203 3.82509 -5.59189 0
M  V30 4555 H 442.146 2.65235 -6.56549 0
M  V30 4556 H 442.554 2.90199 -4.84195 0
M  V30 4557 N 441.952 1.55251 0.271103 0
M  V30 4558 C 443.368 1.47133 0.618393 0
M  V30 4559 C 443.568 0.686994 1.89427 0
M  V30 4560 O 442.624 0.206609 2.51653 0
M  V30 4561 C 443.937 2.91361 0.743593 0
M  V30 4562 C 445.485 3.01587 0.837522 0
M  V30 4563 C 445.96 4.47073 0.994483 0
M  V30 4564 N 447.451 4.50909 1.05996 0
M  V30 4565 C 448.186 5.60698 1.20024 0
M  V30 4566 N 447.682 6.80348 1.30759 0
M  V30 4567 N 449.475 5.48444 1.23149 0
M  V30 4568 H 441.626 2.04698 -0.566784 0
M  V30 4569 H 443.889 0.928319 -0.192165 0
M  V30 4570 H 443.595 3.51483 -0.123493 0
M  V30 4571 H 443.469 3.40484 1.62328 0
M  V30 4572 H 445.856 2.4156 1.69507 0
M  V30 4573 H 445.937 2.55713 -0.0668086 0
M  V30 4574 H 445.581 5.07703 0.141582 0
M  V30 4575 H 445.511 4.90605 1.91349 0
M  V30 4576 H 448.002 3.6472 0.989316 0
M  V30 4577 H 448.315 7.59772 1.41303 0
M  V30 4578 H 446.66 6.83156 1.27761 0
M  V30 4579 H 449.851 4.53907 1.14394 0
M  V30 4580 H 450.024 6.34049 1.33738 0
M  V30 4581 N 443.43 -0.535701 1.48216 0
M  V30 4582 C 444.658 -1.31671 1.59594 0
M  V30 4583 C 445.073 -1.87083 0.254056 0
M  V30 4584 O 444.43 -1.66112 -0.755854 0
M  V30 4585 C 444.481 -2.47158 2.63809 0
M  V30 4586 O 444.202 -1.94032 3.92789 0
M  V30 4587 C 445.703 -3.39062 2.85573 0
M  V30 4588 H 442.923 -0.400623 0.538277 0
M  V30 4589 H 445.467 -0.646827 1.94001 0
M  V30 4590 H 443.622 -3.10043 2.32276 0
M  V30 4591 H 444.036 -2.69585 4.49916 0
M  V30 4592 H 445.51 -4.16459 3.62306 0
M  V30 4593 H 445.987 -3.93941 1.94184 0
M  V30 4594 H 446.593 -2.81975 3.18387 0
M  V30 4595 N 444.908 -1.36708 -0.784132 0
M  V30 4596 C 446.138 -1.34203 -1.57077 0
M  V30 4597 C 446.546 0.0774945 -1.89041 0
M  V30 4598 O 445.889 1.04628 -1.50992 0
M  V30 4599 C 445.951 -2.10351 -2.91535 0
M  V30 4600 C 445.615 -3.59405 -2.82272 0
M  V30 4601 C 446.612 -4.53545 -2.54151 0
M  V30 4602 C 444.297 -4.02362 -3.00683 0
M  V30 4603 C 446.291 -5.8862 -2.44551 0
M  V30 4604 C 443.978 -5.37526 -2.90704 0
M  V30 4605 C 444.976 -6.30468 -2.62677 0
M  V30 4606 O 444.664 -7.63149 -2.52702 0
M  V30 4607 H 444.396 -0.461791 -0.493685 0
M  V30 4608 H 446.95 -1.80475 -0.980712 0
M  V30 4609 H 445.18 -1.5875 -3.52612 0
M  V30 4610 H 446.869 -2.00636 -3.52845 0
M  V30 4611 H 447.635 -4.21669 -2.39625 0
M  V30 4612 H 443.514 -3.30389 -3.21503 0
M  V30 4613 H 447.058 -6.61133 -2.22596 0
M  V30 4614 H 442.955 -5.69008 -3.04795 0
M  V30 4615 H 443.723 -7.73331 -2.68144 0
M  V30 4616 N 446.386 1.0089 -1.21074 0
M  V30 4617 C 447.316 2.1145 -0.990523 0
M  V30 4618 C 448.297 1.69897 0.0831699 0
M  V30 4619 O 449.482 1.94052 -0.0758853 0
M  V30 4620 C 446.612 3.42914 -0.550177 0
M  V30 4621 C 445.566 3.98244 -1.56799 0
M  V30 4622 C 444.892 5.25568 -0.984013 0
M  V30 4623 C 446.192 4.30752 -2.95381 0
M  V30 4624 H 447.886 2.3013 -1.91521 0
M  V30 4625 H 445.432 1.10592 -0.92225 0
M  V30 4626 H 447.385 4.19653 -0.383305 0
M  V30 4627 H 446.109 3.24014 0.41015 0
M  V30 4628 H 444.768 3.23621 -1.72236 0
M  V30 4629 H 444.416 5.02998 -0.0155216 0
M  V30 4630 H 444.116 5.63551 -1.66384 0
M  V30 4631 H 445.64 6.04955 -0.828378 0
M  V30 4632 H 447.054 4.98349 -2.8341 0
M  V30 4633 H 445.451 4.79869 -3.60341 0
M  V30 4634 H 446.521 3.39192 -3.46521 0
M  V30 4635 N 447.864 1.01787 1.20321 0
M  V30 4636 C 449.11 0.718699 1.90279 0
M  V30 4637 C 449.465 -0.743669 1.77447 0
M  V30 4638 O 448.758 -1.53345 1.14874 0
M  V30 4639 C 448.952 1.09076 3.40349 0
M  V30 4640 C 448.781 2.58775 3.67784 0
M  V30 4641 C 447.551 3.25578 3.86428 0
M  V30 4642 C 449.749 3.56966 3.70243 0
M  V30 4643 N 447.731 4.64495 4.01395 0
M  V30 4644 C 449.102 4.8145 3.90649 0
M  V30 4645 C 451.157 3.5092 3.53213 0
M  V30 4646 C 449.86 6.00619 3.95789 0
M  V30 4647 C 451.886 4.69493 3.59625 0
M  V30 4648 C 451.248 5.92786 3.80505 0
M  V30 4649 H 447.347 0.31468 0.715891 0
M  V30 4650 H 449.931 1.30295 1.44677 0
M  V30 4651 H 448.102 0.534839 3.847 0
M  V30 4652 H 449.834 0.744997 3.97784 0
M  V30 4653 H 446.589 2.76003 3.84862 0
M  V30 4654 H 447.013 5.36624 4.12752 0
M  V30 4655 H 451.655 2.56593 3.36035 0
M  V30 4656 H 449.373 6.95326 4.11762 0
M  V30 4657 H 452.959 4.66432 3.47754 0
M  V30 4658 H 451.839 6.83003 3.85327 0
M  V30 4659 N 449.342 -1.36122 0.79427 0
M  V30 4660 C 450.758 -1.5232 0.476525 0
M  V30 4661 C 450.958 -1.74685 -1.00436 0
M  V30 4662 O 450.014 -1.78115 -1.78973 0
M  V30 4663 C 451.327 -2.70607 1.31119 0
M  V30 4664 C 452.875 -2.8448 1.30537 0
M  V30 4665 C 453.35 -4.05778 2.12387 0
M  V30 4666 N 454.841 -4.12933 2.09859 0
M  V30 4667 C 455.576 -5.05876 2.69957 0
M  V30 4668 N 455.072 -6.04232 3.38934 0
M  V30 4669 N 456.865 -4.98528 2.59665 0
M  V30 4670 H 449.016 -1.1986 1.75349 0
M  V30 4671 H 451.279 -0.585418 0.745647 0
M  V30 4672 H 450.985 -2.60619 2.36158 0
M  V30 4673 H 450.859 -3.64888 0.955843 0
M  V30 4674 H 453.246 -2.93927 0.262876 0
M  V30 4675 H 453.327 -1.91093 1.70051 0
M  V30 4676 H 452.971 -3.97092 3.1667 0
M  V30 4677 H 452.901 -4.98323 1.70242 0
M  V30 4678 H 455.392 -3.42515 1.59662 0
M  V30 4679 H 455.705 -6.71724 3.82109 0
M  V30 4680 H 454.05 -6.04443 3.43036 0
M  V30 4681 H 457.241 -4.20641 2.05375 0
M  V30 4682 H 457.414 -5.70773 3.06793 0
M  V30 4683 N 450.82 -0.546701 -1.47814 0
M  V30 4684 C 451.753 0.254472 -2.26777 0
M  V30 4685 C 452.731 0.929809 -1.33392 0
M  V30 4686 O 453.915 0.950889 -1.62759 0
M  V30 4687 C 451.042 1.36171 -3.10121 0
M  V30 4688 C 450.088 0.796038 -4.19005 0
M  V30 4689 S 450.921 -0.349191 -5.3436 0
M  V30 4690 C 452.077 0.760122 -6.21267 0
M  V30 4691 H 452.31 -0.415612 -2.94381 0
M  V30 4692 H 449.843 -0.332809 -1.5077 0
M  V30 4693 H 451.801 1.99588 -3.58713 0
M  V30 4694 H 450.462 2.00359 -2.41899 0
M  V30 4695 H 449.655 1.62719 -4.7701 0
M  V30 4696 H 449.257 0.238246 -3.7324 0
M  V30 4697 H 451.549 1.65479 -6.5698 0
M  V30 4698 H 452.492 0.217673 -7.07765 0
M  V30 4699 H 452.9 1.04806 -5.54685 0
M  V30 4700 N 452.299 1.55045 -0.282633 0
M  V30 4701 C 453.546 1.9976 0.33199 0
M  V30 4702 C 453.874 1.17105 1.55295 0
M  V30 4703 O 453.129 0.230599 1.94337 0
M  V30 4704 C 453.428 3.49422 0.750938 0
M  V30 4705 C 453.094 4.4941 -0.366228 0
M  V30 4706 C 451.756 4.76471 -0.672964 0
M  V30 4707 C 454.108 5.09054 -1.11864 0
M  V30 4708 C 451.436 5.60442 -1.73556 0
M  V30 4709 C 453.788 5.9418 -2.17102 0
M  V30 4710 C 452.452 6.19558 -2.48402 0
M  V30 4711 H 451.722 0.730974 0.121484 0
M  V30 4712 H 454.369 1.8732 -0.39791 0
M  V30 4713 H 452.674 3.59377 1.56063 0
M  V30 4714 H 454.371 3.81432 1.23736 0
M  V30 4715 H 450.961 4.2844 -0.117041 0
M  V30 4716 H 455.145 4.88165 -0.894925 0
M  V30 4717 H 450.401 5.78349 -1.983 0
M  V30 4718 H 454.575 6.39427 -2.75873 0
M  V30 4719 H 452.202 6.84417 -3.30874 0
M  V30 4720 N 453.777 0.010035 1.57597 0
M  V30 4721 C 454.724 -0.978122 2.09049 0
M  V30 4722 C 455.694 -1.33509 0.988159 0
M  V30 4723 O 456.879 -1.43172 1.26121 0
M  V30 4724 C 454.019 -2.26158 2.60666 0
M  V30 4725 C 453.132 -1.96275 3.84838 0
M  V30 4726 C 452.267 -3.18776 4.24918 0
M  V30 4727 C 451.306 -2.84625 5.41899 0
M  V30 4728 N 450.443 -3.99693 5.77226 0
M  V30 4729 H 455.283 -0.532431 2.93205 0
M  V30 4730 H 452.82 -0.251234 1.44939 0
M  V30 4731 H 454.778 -3.01202 2.88675 0
M  V30 4732 H 453.408 -2.68378 1.79369 0
M  V30 4733 H 452.46 -1.11555 3.63675 0
M  V30 4734 H 453.772 -1.67111 4.69974 0
M  V30 4735 H 452.926 -4.02157 4.54262 0
M  V30 4736 H 451.665 -3.51087 3.38511 0
M  V30 4737 H 450.67 -1.99653 5.12268 0
M  V30 4738 H 451.895 -2.53551 6.29991 0
M  V30 4739 H 449.841 -4.31882 4.93776 0
M  V30 4740 H 449.758 -3.74087 6.56959 0
M  V30 4741 H 451.026 -4.83834 6.11167 0
M  V30 4742 N 455.255 -1.55392 -0.262866 0
M  V30 4743 C 456.532 -1.67204 -1.01499 0
M  V30 4744 C 456.912 -0.545186 -2.03939 0
M  V30 4745 O 456.26 0.453467 -2.23955 0
M  V30 4746 C 456.47 -3.06847 -1.6627 0
M  V30 4747 C 457.818 -3.64928 -2.17054 0
M  V30 4748 O 458.842 -3.09545 -1.76239 0
M  V30 4749 O 457.701 -4.61984 -2.91947 0
M  V30 4750 H 454.795 -0.679467 -0.471438 0
M  V30 4751 H 457.341 -1.67729 -0.257918 0
M  V30 4752 H 456.113 -3.80309 -0.920915 0
M  V30 4753 H 455.736 -3.10266 -2.48638 0
M  V30 4754 N 456.733 0.527833 -1.48498 0
M  V30 4755 C 457.696 1.61439 -1.62696 0
M  V30 4756 C 458.696 1.52824 -0.500136 0
M  V30 4757 O 459.886 1.56456 -0.765976 0
M  V30 4758 C 457.018 3.01063 -1.59918 0
M  V30 4759 H 458.211 1.50189 -2.59583 0
M  V30 4760 H 455.764 0.750055 -1.37127 0
M  V30 4761 H 456.499 3.17818 -0.645163 0
M  V30 4762 H 456.284 3.08725 -2.41726 0
M  V30 4763 H 457.774 3.80057 -1.73051 0
M  V30 4764 N 458.211 1.37122 0.776871 0
M  V30 4765 C 459.121 1.34651 1.9211 0
M  V30 4766 C 460.137 0.246824 1.7224 0
M  V30 4767 O 461.313 0.48134 1.95563 0
M  V30 4768 C 458.378 1.14748 3.2716 0
M  V30 4769 C 457.439 2.34308 3.5972 0
M  V30 4770 C 456.672 2.15345 4.88326 0
M  V30 4771 O 456.895 1.13507 5.58992 0
M  V30 4772 O 455.829 3.03414 5.1983 0
M  V30 4773 H 459.655 2.31013 1.97146 0
M  V30 4774 H 457.24 1.17799 0.918901 0
M  V30 4775 H 459.122 1.05616 4.0795 0
M  V30 4776 H 457.797 0.214562 3.22988 0
M  V30 4777 H 456.704 2.49011 2.79185 0
M  V30 4778 H 458.037 3.26149 3.68629 0
M  V30 4779 N 459.689 -1.00246 1.21608 0
M  V30 4780 C 461.105 -1.26435 0.973975 0
M  V30 4781 C 461.305 -1.98642 -0.338143 0
M  V30 4782 O 460.361 -2.29026 -1.06317 0
M  V30 4783 C 461.674 -2.08551 2.16626 0
M  V30 4784 C 463.222 -2.21769 2.20879 0
M  V30 4785 C 463.697 -3.07267 3.39633 0
M  V30 4786 N 465.188 -3.14855 3.39736 0
M  V30 4787 C 465.923 -3.81274 4.28273 0
M  V30 4788 N 465.419 -4.497 5.27012 0
M  V30 4789 N 467.212 -3.7794 4.16074 0
M  V30 4790 H 459.363 -0.518089 2.05984 0
M  V30 4791 H 461.626 -0.291368 0.902113 0
M  V30 4792 H 461.332 -1.62847 3.11727 0
M  V30 4793 H 461.206 -3.09303 2.15897 0
M  V30 4794 H 463.593 -2.66691 1.26332 0
M  V30 4795 H 463.674 -1.20478 2.25652 0
M  V30 4796 H 463.318 -2.63047 4.34475 0
M  V30 4797 H 463.248 -4.08678 3.321 0
M  V30 4798 H 465.739 -2.66147 2.6828 0
M  V30 4799 H 466.052 -4.98092 5.90867 0
M  V30 4800 H 464.397 -4.48479 5.30935 0
M  V30 4801 H 467.588 -3.23638 3.38195 0
M  V30 4802 H 467.761 -4.29424 4.85282 0
M  V30 4803 N 461.167 -1.02423 -1.1978 0
M  V30 4804 C 462.13 -0.605703 -2.21052 0
M  V30 4805 C 463.13 0.328209 -1.57415 0
M  V30 4806 O 464.32 0.115853 -1.73814 0
M  V30 4807 C 461.452 0.114366 -3.40708 0
M  V30 4808 H 462.645 -1.5017 -2.59594 0
M  V30 4809 H 460.198 -0.814888 -1.33376 0
M  V30 4810 H 460.933 1.02492 -3.07678 0
M  V30 4811 H 460.718 -0.556641 -3.88129 0
M  V30 4812 H 462.208 0.394272 -4.15735 0
M  V30 4813 N 462.645 1.35699 -0.801477 0
M  V30 4814 C 463.608 2.28199 -0.213994 0
M  V30 4815 C 464.608 1.49359 0.595691 0
M  V30 4816 O 465.798 1.69186 0.414921 0
M  V30 4817 C 462.93 3.33587 0.702297 0
M  V30 4818 H 464.123 2.81666 -1.02976 0
M  V30 4819 H 461.676 1.45467 -0.571759 0
M  V30 4820 H 462.411 2.85297 1.54195 0
M  V30 4821 H 462.196 3.91906 0.123484 0
M  V30 4822 H 463.686 4.02638 1.10783 0
M  V30 4823 N 464.123 0.554532 1.47522 0
M  V30 4824 C 465.071 -0.207765 2.3167 0
M  V30 4825 C 466.065 -0.911914 1.4276 0
M  V30 4826 O 467.271 -0.833504 1.59539 0
M  V30 4827 H 463.646 -0.0858726 0.747081 0
M  V30 4828 H 465.617 0.521178 2.93813 0
M  V30 4829 C 464.366 -1.2263 3.25357 0
M  V30 4830 H 463.689 -0.693887 3.93732 0
M  V30 4831 H 465.129 -1.73062 3.87073 0
M  V30 4832 C 463.588 -2.27278 2.4869 0
M  V30 4833 O 464.118 -3.34156 2.22941 0
M  V30 4834 N 462.324 -2.01134 2.09746 0
M  V30 4835 H 461.871 -1.14232 2.30887 0
M  V30 4836 H 461.829 -2.71369 1.58765 0
M  V30 4837 N 465.601 -1.54893 0.290851 0
M  V30 4838 C 467.012 -1.85584 -0.203816 0
M  V30 4839 C 467.363 -1.21285 -1.54222 0
M  V30 4840 O 466.488 -0.506841 -2.10381 0
M  V30 4841 C 467.083 -3.367 -0.376595 0
M  V30 4842 C 465.642 -3.6746 -0.815485 0
M  V30 4843 C 464.789 -2.77178 0.0821087 0
M  V30 4844 H 467.74 -1.50208 0.512175 0
M  V30 4845 H 467.761 -3.60656 -1.21275 0
M  V30 4846 H 467.273 -3.8347 0.59767 0
M  V30 4847 H 465.374 -3.26201 -1.80066 0
M  V30 4848 H 465.487 -4.7478 -0.641905 0
M  V30 4849 H 463.851 -2.50925 -0.436895 0
M  V30 4850 H 464.634 -3.26767 1.05254 0
M  V30 4851 N 467.08 -0.0183926 -1.57589 0
M  V30 4852 C 467.99 0.982943 -2.13015 0
M  V30 4853 C 469.006 1.36443 -1.07979 0
M  V30 4854 O 470.182 1.44802 -1.3998 0
M  V30 4855 C 467.247 2.25024 -2.63752 0
M  V30 4856 C 466.308 1.93018 -3.83461 0
M  V30 4857 C 465.541 3.13706 -4.31769 0
M  V30 4858 O 465.764 4.2601 -3.79305 0
M  V30 4859 O 464.698 2.96629 -5.23732 0
M  V30 4860 H 468.524 0.541709 -2.9883 0
M  V30 4861 H 466.109 0.201565 -1.48034 0
M  V30 4862 H 467.991 2.99441 -2.96502 0
M  V30 4863 H 466.666 2.68349 -1.81026 0
M  V30 4864 H 465.573 1.16019 -3.55655 0
M  V30 4865 H 466.906 1.54516 -4.67317 0
M  V30 4866 N 468.558 1.5553 0.254621 0
M  V30 4867 C 469.788 1.80784 1.00004 0
M  V30 4868 C 470.196 0.59071 1.79742 0
M  V30 4869 O 469.539 -0.449988 1.78103 0
M  V30 4870 C 469.601 2.99268 1.99196 0
M  V30 4871 C 469.265 4.35595 1.38224 0
M  V30 4872 C 470.262 5.13884 0.788611 0
M  V30 4873 C 467.947 4.82281 1.40393 0
M  V30 4874 C 469.941 6.37004 0.224783 0
M  V30 4875 C 467.628 6.05351 0.836243 0
M  V30 4876 C 468.626 6.82551 0.24769 0
M  V30 4877 O 468.314 8.03297 -0.311249 0
M  V30 4878 H 468.046 0.60565 0.300274 0
M  V30 4879 H 470.6 2.03411 0.285143 0
M  V30 4880 H 468.83 2.72377 2.74496 0
M  V30 4881 H 470.519 3.11682 2.60018 0
M  V30 4882 H 471.285 4.78938 0.764423 0
M  V30 4883 H 467.164 4.22189 1.85142 0
M  V30 4884 H 470.708 6.97203 -0.235235 0
M  V30 4885 H 466.605 6.39776 0.857733 0
M  V30 4886 H 467.373 8.1825 -0.20237 0
M  V30 4887 N 470.036 -0.519951 1.48776 0
M  V30 4888 C 470.968 -1.63973 1.60142 0
M  V30 4889 C 471.981 -1.55404 0.485117 0
M  V30 4890 O 473.17 -1.61682 0.756391 0
M  V30 4891 C 470.27 -3.02676 1.52449 0
M  V30 4892 C 469.443 -3.36624 2.79291 0
M  V30 4893 C 468.502 -4.54652 2.64912 0
M  V30 4894 O 467.528 -4.57374 3.38818 0
M  V30 4895 N 468.73 -5.53432 1.75195 0
M  V30 4896 H 471.495 -1.54656 2.56713 0
M  V30 4897 H 469.056 -0.707439 1.45626 0
M  V30 4898 H 471.048 -3.79525 1.4051 0
M  V30 4899 H 469.618 -3.06018 0.638125 0
M  V30 4900 H 468.838 -2.48855 3.0572 0
M  V30 4901 H 470.126 -3.56094 3.6342 0
M  V30 4902 H 469.524 -5.54018 1.14371 0
M  V30 4903 H 468.081 -6.29459 1.69189 0
M  V30 4904 N 471.514 -1.37532 -0.769588 0
M  V30 4905 C 472.761 -1.3286 -1.52822 0
M  V30 4906 C 473.089 0.0862597 -1.94309 0
M  V30 4907 O 472.344 1.05995 -1.6451 0
M  V30 4908 C 472.643 -2.21558 -2.8044 0
M  V30 4909 C 472.309 -3.69796 -2.57996 0
M  V30 4910 C 470.971 -4.10194 -2.51583 0
M  V30 4911 C 473.323 -4.63699 -2.37976 0
M  V30 4912 C 470.651 -5.42608 -2.23144 0
M  V30 4913 C 473.003 -5.96353 -2.1106 0
M  V30 4914 C 471.667 -6.35853 -2.03093 0
M  V30 4915 H 470.937 -0.486168 -0.559215 0
M  V30 4916 H 473.584 -1.69757 -0.886277 0
M  V30 4917 H 471.889 -1.77663 -3.49204 0
M  V30 4918 H 473.586 -2.15256 -3.38328 0
M  V30 4919 H 470.176 -3.37759 -2.63851 0
M  V30 4920 H 474.36 -4.33346 -2.41919 0
M  V30 4921 H 469.616 -5.72173 -2.15472 0
M  V30 4922 H 473.79 -6.68667 -1.94568 0
M  V30 4923 H 471.417 -7.38382 -1.8082 0
M  V30 4924 N 472.992 0.995999 -1.22138 0
M  V30 4925 C 473.939 2.08551 -0.988687 0
M  V30 4926 C 474.909 1.65864 0.0885021 0
M  V30 4927 O 476.094 1.90704 -0.0604589 0
M  V30 4928 C 473.234 3.40374 -0.569191 0
M  V30 4929 C 472.347 3.96421 -1.71681 0
M  V30 4930 C 471.482 5.1639 -1.2456 0
M  V30 4931 C 470.521 5.64567 -2.36497 0
M  V30 4932 N 469.658 6.75777 -1.90445 0
M  V30 4933 H 474.498 2.2779 -1.92135 0
M  V30 4934 H 472.035 1.1168 -0.957388 0
M  V30 4935 H 473.993 4.16068 -0.307166 0
M  V30 4936 H 472.623 3.21145 0.326462 0
M  V30 4937 H 471.675 3.17628 -2.09324 0
M  V30 4938 H 472.987 4.2816 -2.55891 0
M  V30 4939 H 472.141 5.99362 -0.940774 0
M  V30 4940 H 470.88 4.86266 -0.373662 0
M  V30 4941 H 469.885 4.80185 -2.67772 0
M  V30 4942 H 471.11 5.96716 -3.24202 0
M  V30 4943 H 469.056 6.47443 -1.05609 0
M  V30 4944 H 468.973 7.06818 -2.68223 0
M  V30 4945 H 470.241 7.62262 -1.63022 0
M  V30 4946 N 474.47 1.03057 1.19235 0
M  V30 4947 C 475.718 0.726581 1.88587 0
M  V30 4948 C 476.039 -0.747227 1.80115 0
M  V30 4949 O 475.309 -1.53849 1.21274 0
M  V30 4950 H 473.889 0.265768 0.698124 0
M  V30 4951 H 476.551 1.30516 1.44746 0
M  V30 4952 H 475.647 1.0224 2.94879 0
M  V30 4953 N 475.948 -1.35272 0.808662 0
M  V30 4954 C 477.195 -1.98709 0.390003 0
M  V30 4955 C 477.523 -1.64148 -1.04335 0
M  V30 4956 O 476.778 -0.897797 -1.73891 0
M  V30 4957 C 477.077 -3.53556 0.522798 0
M  V30 4958 C 476.743 -4.0799 1.91977 0
M  V30 4959 C 475.405 -4.22568 2.30195 0
M  V30 4960 C 477.757 -4.37442 2.83361 0
M  V30 4961 C 475.085 -4.63918 3.59162 0
M  V30 4962 C 477.437 -4.80232 4.11776 0
M  V30 4963 C 476.101 -4.93016 4.49991 0
M  V30 4964 H 475.371 -0.727127 0.142712 0
M  V30 4965 H 478.018 -1.6145 1.02985 0
M  V30 4966 H 476.323 -3.91287 -0.200494 0
M  V30 4967 H 478.02 -4.00598 0.179608 0
M  V30 4968 H 474.61 -3.97096 1.61284 0
M  V30 4969 H 478.794 -4.25731 2.55083 0
M  V30 4970 H 474.05 -4.72005 3.88615 0
M  V30 4971 H 478.224 -5.01982 4.82687 0
M  V30 4972 H 475.851 -5.24814 5.49976 0
M  V30 4973 N 477.426 -0.562348 -1.47226 0
M  V30 4974 C 478.651 -0.0432632 -2.07355 0
M  V30 4975 C 479.076 1.24332 -1.41149 0
M  V30 4976 O 478.434 1.74603 -0.488226 0
M  V30 4977 C 478.482 0.130288 -3.60365 0
M  V30 4978 O 477.586 1.19166 -3.94808 0
M  V30 4979 H 476.927 -0.0536334 -0.66183 0
M  V30 4980 H 479.457 -0.779495 -1.89169 0
M  V30 4981 H 479.467 0.342881 -4.06557 0
M  V30 4982 H 478.142 -0.809389 -4.07948 0
M  V30 4983 H 476.719 0.959153 -3.60354 0
M  V30 4984 N 478.904 1.54736 -0.299062 0
M  V30 4985 C 480.15 2.01114 0.304123 0
M  V30 4986 C 480.505 1.18376 1.51674 0
M  V30 4987 O 479.798 0.251635 1.8994 0
M  V30 4988 C 479.992 3.50199 0.713835 0
M  V30 4989 C 479.821 4.47366 -0.457531 0
M  V30 4990 C 478.591 4.9631 -0.948933 0
M  V30 4991 C 480.789 4.9755 -1.30186 0
M  V30 4992 N 478.771 5.77327 -2.08726 0
M  V30 4993 C 480.142 5.7625 -2.28771 0
M  V30 4994 C 482.197 4.79739 -1.33246 0
M  V30 4995 C 480.9 6.39036 -3.3019 0
M  V30 4996 C 482.926 5.43343 -2.33521 0
M  V30 4997 C 482.288 6.21874 -3.30836 0
M  V30 4998 H 478.387 0.778318 0.0757992 0
M  V30 4999 H 480.971 1.89925 -0.428536 0
M  V30 5000 H 479.142 3.61681 1.41567 0
M  V30 5001 H 480.874 3.83374 1.29639 0
M  V30 5002 H 477.629 4.7069 -0.52423 0
M  V30 5003 H 478.053 6.22521 -2.66077 0
M  V30 5004 H 482.695 4.18609 -0.59383 0
M  V30 5005 H 480.413 6.99302 -4.04973 0
M  V30 5006 H 483.999 5.31492 -2.3666 0
M  V30 5007 H 482.879 6.70217 -4.07159 0
M  V30 5008 N 480.382 0.0267497 1.57577 0
M  V30 5009 C 481.312 -0.954308 2.13108 0
M  V30 5010 C 482.293 -1.34088 1.04663 0
M  V30 5011 O 483.478 -1.41992 1.32484 0
M  V30 5012 C 480.608 -2.23744 2.65624 0
M  V30 5013 C 479.562 -1.99168 3.78835 0
M  V30 5014 C 478.888 -3.33726 4.17769 0
M  V30 5015 C 480.188 -1.33277 5.0501 0
M  V30 5016 H 481.882 -0.491848 2.95332 0
M  V30 5017 H 479.428 -0.23514 1.42067 0
M  V30 5018 H 481.381 -2.92754 3.03106 0
M  V30 5019 H 480.105 -2.72151 1.80558 0
M  V30 5020 H 478.764 -1.32577 3.41788 0
M  V30 5021 H 478.412 -3.79888 3.29688 0
M  V30 5022 H 478.112 -3.18089 4.94058 0
M  V30 5023 H 479.636 -4.04008 4.57832 0
M  V30 5024 H 481.05 -1.92283 5.40093 0
M  V30 5025 H 479.447 -1.28045 5.8628 0
M  V30 5026 H 480.517 -0.305411 4.83937 0
M  V30 5027 N 481.861 -1.55662 -0.24637 0
M  V30 5028 C 483.107 -1.77782 -0.975779 0
M  V30 5029 C 483.44 -0.592103 -1.84953 0
M  V30 5030 O 482.715 0.409588 -1.90138 0
M  V30 5031 C 482.998 -3.09788 -1.83584 0
M  V30 5032 C 482.851 -4.38764 -0.990241 0
M  V30 5033 C 484.17 -3.38029 -2.81823 0
M  V30 5034 H 481.289 -0.646789 -0.353317 0
M  V30 5035 H 483.931 -1.88398 -0.246248 0
M  V30 5036 H 482.081 -3.00869 -2.45784 0
M  V30 5037 H 483.753 -4.59675 -0.386897 0
M  V30 5038 H 481.996 -4.32798 -0.294626 0
M  V30 5039 H 482.667 -5.27514 -1.62584 0
M  V30 5040 H 485.143 -3.46915 -2.2976 0
M  V30 5041 H 484.019 -4.3161 -3.39122 0
M  V30 5042 H 484.28 -2.58968 -3.58313 0
M  V30 5043 N 483.339 0.512053 -1.4905 0
M  V30 5044 C 484.586 1.26686 -1.57978 0
M  V30 5045 C 484.914 1.92733 -0.261553 0
M  V30 5046 O 484.169 1.80772 0.749667 0
M  V30 5047 C 484.468 2.36446 -2.68008 0
M  V30 5048 C 484.134 1.87932 -4.09869 0
M  V30 5049 C 482.796 1.74419 -4.48477 0
M  V30 5050 C 485.148 1.5149 -4.98698 0
M  V30 5051 C 482.476 1.22827 -5.73699 0
M  V30 5052 C 484.828 1.01355 -6.24428 0
M  V30 5053 C 483.492 0.864735 -6.61875 0
M  V30 5054 H 482.762 0.463577 -0.578081 0
M  V30 5055 H 485.409 0.569421 -1.82838 0
M  V30 5056 H 483.714 3.11933 -2.37076 0
M  V30 5057 H 485.411 2.9453 -2.72127 0
M  V30 5058 H 482.001 1.99405 -3.79389 0
M  V30 5059 H 486.185 1.60782 -4.69535 0
M  V30 5060 H 481.441 1.10008 -6.01422 0
M  V30 5061 H 485.615 0.722351 -6.92644 0
M  V30 5062 H 483.242 0.462777 -7.5879 0
M  V30 5063 N 484.817 1.37938 0.762283 0
M  V30 5064 C 486.065 1.33404 1.51815 0
M  V30 5065 C 486.386 -0.0780975 1.94844 0
M  V30 5066 O 485.656 -1.02405 1.67003 0
M  V30 5067 H 484.236 0.490839 0.563104 0
M  V30 5068 H 486.898 1.72527 0.906669 0
M  V30 5069 H 485.994 1.97926 2.41313 0
M  V30 5070 N 486.295 -0.989507 1.22664 0
M  V30 5071 C 487.541 -1.7321 1.05481 0
M  V30 5072 C 487.874 -1.89852 -0.408635 0
M  V30 5073 O 487.149 -1.44416 -1.30285 0
M  V30 5074 C 487.432 -3.1357 1.77047 0
M  V30 5075 C 487.285 -3.04555 3.31008 0
M  V30 5076 C 488.604 -4.12812 1.5256 0
M  V30 5077 H 485.723 -0.628697 0.384589 0
M  V30 5078 H 488.365 -1.15258 1.51049 0
M  V30 5079 H 486.515 -3.63046 1.3831 0
M  V30 5080 H 488.187 -2.62674 3.7921 0
M  V30 5081 H 486.43 -2.41278 3.6051 0
M  V30 5082 H 487.101 -4.03894 3.76263 0
M  V30 5083 H 489.577 -3.72106 1.86215 0
M  V30 5084 H 488.453 -5.09132 2.05124 0
M  V30 5085 H 488.714 -4.39711 0.458936 0
M  V30 5086 N 487.773 -1.03688 -1.18687 0
M  V30 5087 C 489.184 -0.766488 -1.70241 0
M  V30 5088 C 489.535 0.713052 -1.82784 0
M  V30 5089 O 488.66 1.55529 -1.50465 0
M  V30 5090 C 489.255 -1.38475 -3.09209 0
M  V30 5091 C 487.814 -1.16276 -3.5799 0
M  V30 5092 C 486.961 -1.4778 -2.34641 0
M  V30 5093 H 489.912 -1.20378 -1.03415 0
M  V30 5094 H 489.933 -0.785939 -3.72295 0
M  V30 5095 H 489.445 -2.46157 -3.00048 0
M  V30 5096 H 487.546 -0.104508 -3.72453 0
M  V30 5097 H 487.659 -1.8571 -4.41643 0
M  V30 5098 H 486.023 -0.897366 -2.38368 0
M  V30 5099 H 486.806 -2.56562 -2.28102 0
M  V30 5100 N 489.251 1.34841 -0.815825 0
M  V30 5101 C 490.479 2.0273 -0.413294 0
M  V30 5102 C 490.894 1.61459 0.978599 0
M  V30 5103 O 490.251 0.816584 1.63212 0
M  V30 5104 C 490.302 3.58058 -0.497676 0
M  V30 5105 O 490.023 3.97832 -1.8347 0
M  V30 5106 C 491.524 4.4321 -0.0891339 0
M  V30 5107 H 488.744 0.649956 -0.166728 0
M  V30 5108 H 491.288 1.72267 -1.10201 0
M  V30 5109 H 489.443 3.87136 0.142886 0
M  V30 5110 H 489.857 4.92501 -1.80396 0
M  V30 5111 H 491.331 5.5164 -0.199274 0
M  V30 5112 H 491.808 4.28432 0.966571 0
M  V30 5113 H 492.414 4.19446 -0.703214 0
M  V30 5114 N 490.729 0.570148 1.46925 0
M  V30 5115 C 491.957 0.0561966 2.06824 0
M  V30 5116 C 492.372 -1.24326 1.42086 0
M  V30 5117 O 491.729 -1.74882 0.521794 0
M  V30 5118 C 491.78 -0.129517 3.61268 0
M  V30 5119 O 491.501 1.1185 4.23581 0
M  V30 5120 C 493.002 -0.679266 4.38065 0
M  V30 5121 H 490.222 0.0517261 0.669003 0
M  V30 5122 H 492.766 0.787243 1.8874 0
M  V30 5123 H 490.921 -0.810739 3.78822 0
M  V30 5124 H 491.335 0.924375 5.1629 0
M  V30 5125 H 492.809 -0.758445 5.46765 0
M  V30 5126 H 493.286 -1.69346 4.05239 0
M  V30 5127 H 493.892 -0.0333237 4.25287 0
M  V30 5128 N 492.207 -1.54576 0.307264 0
M  V30 5129 C 493.618 -1.8579 -0.184121 0
M  V30 5130 C 493.969 -1.22914 -1.52927 0
M  V30 5131 O 493.094 -0.529126 -2.09831 0
M  V30 5132 C 493.689 -3.37081 -0.340862 0
M  V30 5133 C 492.248 -3.68304 -0.776465 0
M  V30 5134 C 491.395 -2.77076 0.111503 0
M  V30 5135 H 494.346 -1.49656 0.528078 0
M  V30 5136 H 494.367 -3.61922 -1.17443 0
M  V30 5137 H 493.879 -3.82815 0.638309 0
M  V30 5138 H 491.98 -3.28092 -1.76596 0
M  V30 5139 H 492.093 -4.75434 -0.591512 0
M  V30 5140 H 490.457 -2.51374 -0.410256 0
M  V30 5141 H 491.24 -3.25632 1.08714 0
M  V30 5142 N 493.685 -0.035106 -1.57561 0
M  V30 5143 C 494.633 0.962707 -2.11742 0
M  V30 5144 C 495.627 1.33296 -1.0454 0
M  V30 5145 O 496.833 1.31449 -1.22968 0
M  V30 5146 H 493.208 0.32826 -0.676572 0
M  V30 5147 H 495.179 0.48048 -2.94506 0
M  V30 5148 C 493.928 2.23388 -2.66445 0
M  V30 5149 H 493.251 1.95774 -3.48587 0
M  V30 5150 H 494.691 2.91402 -3.07995 0
M  V30 5151 C 493.15 2.96769 -1.59467 0
M  V30 5152 O 493.68 3.89105 -0.998 0
M  V30 5153 N 491.886 2.59212 -1.31369 0
M  V30 5154 H 491.433 1.84202 -1.80076 0
M  V30 5155 H 491.391 3.08618 -0.600173 0
M  V30 5156 N 495.163 1.55791 0.238111 0
M  V30 5157 C 496.412 1.77234 0.962868 0
M  V30 5158 C 496.725 0.600661 1.86149 0
M  V30 5159 O 497.931 0.698315 2.62366 0
M  V30 5160 C 496.387 3.13808 1.76218 0
M  V30 5161 C 495.995 4.3865 0.910518 0
M  V30 5162 C 497.739 3.44585 2.47914 0
M  V30 5163 C 495.646 5.66252 1.70623 0
M  V30 5164 H 494.576 0.660731 0.36325 0
M  V30 5165 H 497.227 1.8221 0.217242 0
M  V30 5166 H 495.609 3.02963 2.55009 0
M  V30 5167 H 496.783 4.60507 0.164316 0
M  V30 5168 H 495.098 4.15271 0.30647 0
M  V30 5169 H 497.695 4.3714 3.07917 0
M  V30 5170 H 498.038 2.66314 3.19973 0
M  V30 5171 H 498.571 3.56685 1.76127 0
M  V30 5172 H 495.31 6.47369 1.02923 0
M  V30 5173 H 494.83 5.48483 2.42748 0
M  V30 5174 H 496.509 6.05829 2.27114 0
M  V30 5175 N 496.642 -0.504142 1.49319 0
M  V30 5176 C 497.572 -1.61473 1.68667 0
M  V30 5177 C 498.553 -1.61455 0.535378 0
M  V30 5178 O 499.738 -1.78245 0.770868 0
M  V30 5179 C 496.868 -2.99971 1.75028 0
M  V30 5180 C 495.822 -3.14854 2.89916 0
M  V30 5181 C 495.148 -4.54671 2.81387 0
M  V30 5182 C 496.448 -2.95176 4.30893 0
M  V30 5183 H 498.142 -1.45535 2.61648 0
M  V30 5184 H 495.688 -0.698711 1.25913 0
M  V30 5185 H 497.641 -3.77562 1.8715 0
M  V30 5186 H 496.365 -3.1699 0.786441 0
M  V30 5187 H 495.024 -2.39687 2.77391 0
M  V30 5188 H 494.672 -4.68562 1.82917 0
M  V30 5189 H 494.372 -4.6557 3.58494 0
M  V30 5190 H 495.896 -5.34327 2.95512 0
M  V30 5191 H 497.31 -3.62538 4.44116 0
M  V30 5192 H 495.707 -3.17549 5.09198 0
M  V30 5193 H 496.777 -1.91332 4.45556 0
M  V30 5194 N 498.12 -1.38341 -0.754957 0
M  V30 5195 C 499.35 -1.37504 -1.54195 0
M  V30 5196 C 499.758 0.0373787 -1.89163 0
M  V30 5197 O 499.101 1.01402 -1.53178 0
M  V30 5198 C 499.163 -2.16488 -2.87008 0
M  V30 5199 C 498.827 -3.65311 -2.74585 0
M  V30 5200 C 499.824 -4.58834 -2.44474 0
M  V30 5201 C 497.509 -4.08649 -2.9208 0
M  V30 5202 C 499.503 -5.93675 -2.32011 0
M  V30 5203 C 497.19 -5.43571 -2.79237 0
M  V30 5204 C 498.188 -6.35898 -2.49245 0
M  V30 5205 O 497.876 -7.68338 -2.36458 0
M  V30 5206 H 497.608 -0.472159 -0.483779 0
M  V30 5207 H 500.162 -1.82515 -0.94221 0
M  V30 5208 H 498.392 -1.66194 -3.49166 0
M  V30 5209 H 500.081 -2.08076 -3.4851 0
M  V30 5210 H 500.847 -4.26657 -2.30627 0
M  V30 5211 H 496.726 -3.37134 -3.14422 0
M  V30 5212 H 500.27 -6.65706 -2.08522 0
M  V30 5213 H 496.167 -5.75345 -2.92657 0
M  V30 5214 H 496.935 -7.78845 -2.5168 0
M  V30 5215 N 499.598 0.982988 -1.23187 0
M  V30 5216 C 500.545 2.07491 -1.01075 0
M  V30 5217 C 501.515 1.65949 0.070905 0
M  V30 5218 O 502.7 1.90629 -0.0806822 0
M  V30 5219 C 499.84 3.39751 -0.605261 0
M  V30 5220 C 498.953 3.94578 -1.75876 0
M  V30 5221 C 498.088 5.15039 -1.3003 0
M  V30 5222 C 497.127 5.62027 -2.42472 0
M  V30 5223 N 496.264 6.73719 -1.97602 0
M  V30 5224 H 501.104 2.25739 -1.9454 0
M  V30 5225 H 498.641 1.10659 -0.969179 0
M  V30 5226 H 500.599 4.15719 -0.351279 0
M  V30 5227 H 499.229 3.21473 0.292382 0
M  V30 5228 H 498.281 3.1539 -2.12681 0
M  V30 5229 H 499.593 4.25422 -2.60418 0
M  V30 5230 H 498.747 5.9833 -1.00429 0
M  V30 5231 H 497.486 4.85843 -0.425216 0
M  V30 5232 H 496.491 4.77318 -2.7285 0
M  V30 5233 H 497.716 5.93244 -3.30512 0
M  V30 5234 H 495.662 6.46287 -1.1247 0
M  V30 5235 H 495.579 7.03934 -2.75705 0
M  V30 5236 H 496.847 7.6049 -1.71098 0
M  V30 5237 N 501.076 1.04316 1.18135 0
M  V30 5238 C 501.986 0.646876 2.25505 0
M  V30 5239 C 503.002 -0.328008 1.7088 0
M  V30 5240 O 504.178 -0.182309 2.00573 0
M  V30 5241 C 501.243 0.0185664 3.46695 0
M  V30 5242 C 500.304 1.04277 4.16443 0
M  V30 5243 C 499.537 0.444352 5.31847 0
M  V30 5244 O 499.76 -0.748735 5.65465 0
M  V30 5245 O 498.694 1.17428 5.90334 0
M  V30 5246 H 502.52 1.54147 2.61672 0
M  V30 5247 H 500.105 0.814188 1.25265 0
M  V30 5248 H 501.987 -0.331068 4.20097 0
M  V30 5249 H 500.662 -0.849814 3.12346 0
M  V30 5250 H 499.569 1.44425 3.45098 0
M  V30 5251 H 500.902 1.882 4.54798 0
M  V30 5252 N 502.554 -1.34406 0.822964 0
M  V30 5253 C 503.464 -2.33298 0.246838 0
M  V30 5254 C 504.48 -1.62625 -0.618797 0
M  V30 5255 O 505.656 -1.94391 -0.526685 0
M  V30 5256 C 502.721 -3.41785 -0.581731 0
M  V30 5257 C 501.782 -4.28206 0.306309 0
M  V30 5258 C 501.015 -5.31512 -0.48281 0
M  V30 5259 O 501.238 -5.43973 -1.71607 0
M  V30 5260 O 500.172 -6.01749 0.134884 0
M  V30 5261 H 503.998 -2.84401 1.06534 0
M  V30 5262 H 501.583 -1.37466 0.585108 0
M  V30 5263 H 503.465 -4.08028 -1.05313 0
M  V30 5264 H 502.14 -2.92925 -1.37756 0
M  V30 5265 H 501.047 -3.64885 0.825199 0
M  V30 5266 H 502.38 -4.80507 1.06649 0
M  V30 5267 N 504.032 -0.577932 -1.46621 0
M  V30 5268 C 504.962 0.145917 -2.33044 0
M  V30 5269 C 505.943 0.888412 -1.45056 0
M  V30 5270 O 507.128 0.864812 -1.73881 0
M  V30 5271 C 504.258 1.16322 -3.27241 0
M  V30 5272 C 503.212 0.535868 -4.24632 0
M  V30 5273 C 502.538 1.65929 -5.08303 0
M  V30 5274 C 503.838 -0.523861 -5.19666 0
M  V30 5275 H 505.532 -0.575636 -2.93814 0
M  V30 5276 H 503.078 -0.278272 -1.41286 0
M  V30 5277 H 505.031 1.67793 -3.86553 0
M  V30 5278 H 503.755 1.91498 -2.64567 0
M  V30 5279 H 502.414 0.0422759 -3.66576 0
M  V30 5280 H 502.062 2.40061 -4.42018 0
M  V30 5281 H 501.762 1.2452 -5.74255 0
M  V30 5282 H 503.286 2.17686 -5.70478 0
M  V30 5283 H 504.7 -0.0944059 -5.73222 0
M  V30 5284 H 503.097 -0.858 -5.93935 0
M  V30 5285 H 504.167 -1.41197 -4.63887 0
M  V30 5286 N 505.51 1.54411 -0.315457 0
M  V30 5287 C 506.42 2.27737 0.56329 0
M  V30 5288 C 507.436 1.31787 1.13614 0
M  V30 5289 O 508.612 1.64791 1.15784 0
M  V30 5290 C 505.677 3.01478 1.71207 0
M  V30 5291 C 504.738 4.12997 1.17185 0
M  V30 5292 C 503.971 4.83212 2.26588 0
M  V30 5293 O 504.194 4.52884 3.46775 0
M  V30 5294 O 503.128 5.70299 1.92463 0
M  V30 5295 H 506.954 3.03683 -0.0319614 0
M  V30 5296 H 504.539 1.49178 -0.0814188 0
M  V30 5297 H 506.421 3.47683 2.38106 0
M  V30 5298 H 505.096 2.28414 2.29366 0
M  V30 5299 H 504.003 3.71159 0.468174 0
M  V30 5300 H 505.336 4.8808 0.635501 0
M  V30 5301 N 506.988 0.0434614 1.5754 0
M  V30 5302 C 507.898 -0.94893 2.14552 0
M  V30 5303 C 508.914 -1.34707 1.10136 0
M  V30 5304 O 510.09 -1.42557 1.42266 0
M  V30 5305 C 507.155 -2.208 2.67298 0
M  V30 5306 C 506.216 -1.86893 3.86484 0
M  V30 5307 C 505.449 -3.06797 4.36705 0
M  V30 5308 O 505.672 -4.19921 3.86034 0
M  V30 5309 O 504.606 -2.8826 5.28384 0
M  V30 5310 H 508.432 -0.494099 2.99654 0
M  V30 5311 H 506.017 -0.177989 1.48336 0
M  V30 5312 H 507.899 -2.94686 3.01228 0
M  V30 5313 H 506.574 -2.65436 1.85272 0
M  V30 5314 H 505.481 -1.10347 3.57455 0
M  V30 5315 H 506.814 -1.47062 4.69716 0
M  V30 5316 N 508.466 -1.55915 -0.229846 0
M  V30 5317 C 509.715 -1.77742 -0.953455 0
M  V30 5318 C 510.028 -0.610524 -1.85828 0
M  V30 5319 O 511.234 -0.712219 -2.61992 0
M  V30 5320 C 509.69 -3.14738 -1.74551 0
M  V30 5321 C 509.298 -4.39126 -0.887242 0
M  V30 5322 C 511.042 -3.45895 -2.46084 0
M  V30 5323 C 508.949 -5.67149 -1.67617 0
M  V30 5324 H 507.879 -0.662648 -0.359741 0
M  V30 5325 H 510.53 -1.82322 -0.207576 0
M  V30 5326 H 508.912 -3.04311 -2.53399 0
M  V30 5327 H 510.086 -4.60588 -0.139892 0
M  V30 5328 H 508.401 -4.15427 -0.284443 0
M  V30 5329 H 510.998 -4.38767 -3.05594 0
M  V30 5330 H 511.341 -2.68007 -3.18556 0
M  V30 5331 H 511.874 -3.57614 -1.74233 0
M  V30 5332 H 508.613 -6.47906 -0.994881 0
M  V30 5333 H 508.133 -5.49763 -2.39836 0
M  V30 5334 H 509.812 -6.07025 -2.23898 0
M  V30 5335 N 509.944 0.496216 -1.49584 0
M  V30 5336 C 510.876 1.61404 -1.62731 0
M  V30 5337 C 511.889 1.54613 -0.50978 0
M  V30 5338 O 513.078 1.60458 -0.782017 0
M  V30 5339 C 510.178 3.00212 -1.57245 0
M  V30 5340 C 509.351 3.32138 -2.84611 0
M  V30 5341 C 508.41 4.5038 -2.72112 0
M  V30 5342 O 507.436 4.51926 -3.46051 0
M  V30 5343 N 508.638 5.50575 -1.83977 0
M  V30 5344 H 511.403 1.50552 -2.59141 0
M  V30 5345 H 508.964 0.684182 -1.46733 0
M  V30 5346 H 510.956 3.77241 -1.4653 0
M  V30 5347 H 509.526 3.04964 -0.686729 0
M  V30 5348 H 508.746 2.4396 -3.09641 0
M  V30 5349 H 510.034 3.50268 -3.69039 0
M  V30 5350 H 509.432 5.52128 -1.23171 0
M  V30 5351 H 507.989 6.26687 -1.79182 0
M  V30 5352 N 511.423 1.38739 0.74761 0
M  V30 5353 C 512.355 1.32341 1.87132 0
M  V30 5354 C 513.368 0.234502 1.61102 0
M  V30 5355 O 514.557 0.492516 1.71571 0
M  V30 5356 C 511.657 1.02915 3.22896 0
M  V30 5357 C 510.83 2.22834 3.76383 0
M  V30 5358 C 509.889 1.90059 4.90677 0
M  V30 5359 O 508.915 2.62615 5.04997 0
M  V30 5360 N 510.117 0.859141 5.74107 0
M  V30 5361 H 512.882 2.29175 1.93129 0
M  V30 5362 H 510.443 1.32678 0.927805 0
M  V30 5363 H 512.435 0.79031 3.96908 0
M  V30 5364 H 511.005 0.148572 3.12247 0
M  V30 5365 H 510.225 2.62747 2.93867 0
M  V30 5366 H 511.513 3.02851 4.08851 0
M  V30 5367 H 510.911 0.257564 5.65113 0
M  V30 5368 H 509.468 0.680189 6.48241 0
M  V30 5369 N 512.901 -0.976442 1.23707 0
M  V30 5370 C 513.848 -2.06952 1.02174 0
M  V30 5371 C 514.818 -1.65984 -0.0621034 0
M  V30 5372 O 516.003 -1.90584 0.0907906 0
M  V30 5373 C 513.143 -3.39425 0.62327 0
M  V30 5374 C 512.256 -3.9364 1.77966 0
M  V30 5375 C 511.391 -5.14343 1.3276 0
M  V30 5376 C 510.43 -5.60733 2.45449 0
M  V30 5377 N 509.567 -6.72662 2.01172 0
M  V30 5378 H 514.407 -2.24704 1.95734 0
M  V30 5379 H 511.944 -1.10143 0.975034 0
M  V30 5380 H 513.902 -4.15526 0.37332 0
M  V30 5381 H 512.532 -3.21624 -0.275329 0
M  V30 5382 H 511.584 -3.14258 2.14351 0
M  V30 5383 H 512.896 -4.24035 2.62671 0
M  V30 5384 H 512.05 -5.97789 1.03601 0
M  V30 5385 H 510.789 -4.8561 0.450975 0
M  V30 5386 H 509.794 -4.75865 2.75378 0
M  V30 5387 H 511.019 -5.91483 3.33654 0
M  V30 5388 H 508.965 -6.45681 1.15895 0
M  V30 5389 H 508.882 -7.02462 2.79434 0
M  V30 5390 H 510.15 -7.59572 1.75129 0
M  V30 5391 N 514.379 -1.04941 -1.1758 0
M  V30 5392 C 515.609 -0.777166 -1.91425 0
M  V30 5393 C 516.017 0.670647 -1.76915 0
M  V30 5394 O 515.36 1.46965 -1.10213 0
M  V30 5395 C 515.422 -1.07495 -3.43052 0
M  V30 5396 C 515.086 -2.51844 -3.81345 0
M  V30 5397 C 516.083 -3.50047 -3.844 0
M  V30 5398 C 513.768 -2.86787 -4.12382 0
M  V30 5399 C 515.762 -4.81239 -4.17957 0
M  V30 5400 C 513.449 -4.18182 -4.45608 0
M  V30 5401 C 514.447 -5.15219 -4.48373 0
M  V30 5402 O 514.135 -6.44258 -4.80819 0
M  V30 5403 H 513.867 -0.282209 -0.614275 0
M  V30 5404 H 516.421 -1.40258 -1.50056 0
M  V30 5405 H 514.651 -0.392437 -3.84704 0
M  V30 5406 H 516.34 -0.78912 -3.98155 0
M  V30 5407 H 517.106 -3.24391 -3.60548 0
M  V30 5408 H 512.985 -2.11922 -4.09402 0
M  V30 5409 H 516.529 -5.56974 -4.2003 0
M  V30 5410 H 512.426 -4.43602 -4.68922 0
M  V30 5411 H 513.194 -6.49041 -4.98686 0
M  V30 5412 N 515.857 1.33968 -0.830081 0
M  V30 5413 C 517.268 1.80439 -0.479455 0
M  V30 5414 C 517.619 1.68756 1.00079 0
M  V30 5415 O 516.744 1.23171 1.77927 0
M  V30 5416 C 517.339 3.27611 -0.863505 0
M  V30 5417 C 515.898 3.72133 -0.565145 0
M  V30 5418 C 515.045 2.55549 -1.07657 0
M  V30 5419 H 517.996 1.21614 -1.0196 0
M  V30 5420 H 518.017 3.8012 -0.170083 0
M  V30 5421 H 517.529 3.36082 -1.94089 0
M  V30 5422 H 515.63 3.69196 0.502536 0
M  V30 5423 H 515.743 4.65963 -1.11422 0
M  V30 5424 H 514.107 2.49788 -0.497807 0
M  V30 5425 H 514.89 2.66786 -2.16055 0
M  V30 5426 N 517.335 0.585699 1.46312 0
M  V30 5427 C 518.612 0.00542031 1.95599 0
M  V30 5428 C 518.992 -1.45619 1.52834 0
M  V30 5429 O 518.34 -2.14759 0.780446 0
M  V30 5430 C 518.55 0.180601 3.48532 0
M  V30 5431 C 519.898 0.049979 4.24571 0
M  V30 5432 O 520.922 0.109589 3.56031 0
M  V30 5433 O 519.781 -0.0832226 5.46437 0
M  V30 5434 H 516.875 -0.0481281 0.825598 0
M  V30 5435 H 519.421 0.654227 1.56582 0
M  V30 5436 H 518.193 1.19657 3.72556 0
M  V30 5437 H 517.816 -0.504498 3.94386 0
M  V30 5438 N 518.813 -1.54241 0.323641 0
M  V30 5439 C 519.761 -2.25813 -0.557804 0
M  V30 5440 C 520.755 -1.27225 -1.11849 0
M  V30 5441 O 521.961 -1.45001 -1.06652 0
M  V30 5442 H 518.336 -0.72532 -0.198532 0
M  V30 5443 H 520.307 -2.98322 0.0681112 0
M  V30 5444 C 519.056 -3.02913 -1.70701 0
M  V30 5445 H 518.379 -3.78593 -1.28482 0
M  V30 5446 H 519.819 -3.56238 -2.29935 0
M  V30 5447 C 518.278 -2.11217 -2.62467 0
M  V30 5448 O 518.808 -1.69508 -3.64184 0
M  V30 5449 N 517.014 -1.76704 -2.30703 0
M  V30 5450 H 516.561 -2.1082 -1.48029 0
M  V30 5451 H 516.519 -1.15631 -2.92364 0
M  V30 5452 N 520.291 -0.0518155 -1.57515 0
M  V30 5453 C 521.538 0.621823 -1.92716 0
M  V30 5454 C 521.866 1.70813 -0.930229 0
M  V30 5455 O 521.121 1.95616 0.0573708 0
M  V30 5456 C 521.42 1.25607 -3.34601 0
M  V30 5457 C 521.086 0.297901 -4.49915 0
M  V30 5458 C 519.748 0.034243 -4.81188 0
M  V30 5459 C 522.1 -0.358738 -5.19964 0
M  V30 5460 C 519.428 -0.893479 -5.79857 0
M  V30 5461 C 521.78 -1.27466 -6.19625 0
M  V30 5462 C 520.444 -1.54698 -6.49326 0
M  V30 5463 H 519.714 0.227541 -0.705199 0
M  V30 5464 H 522.361 -0.118432 -1.91133 0
M  V30 5465 H 520.666 2.07161 -3.32553 0
M  V30 5466 H 522.363 1.78424 -3.59118 0
M  V30 5467 H 518.953 0.513581 -4.25512 0
M  V30 5468 H 523.137 -0.168133 -4.96015 0
M  V30 5469 H 518.393 -1.11193 -6.01204 0
M  V30 5470 H 522.567 -1.78953 -6.73015 0
M  V30 5471 H 520.194 -2.26748 -7.25596 0
M  V30 5472 N 521.769 1.56035 0.221574 0
M  V30 5473 C 523.185 1.49026 0.571271 0
M  V30 5474 C 523.385 0.746912 1.87146 0
M  V30 5475 O 522.441 0.286566 2.50869 0
M  V30 5476 C 523.754 2.93579 0.650522 0
M  V30 5477 C 525.302 3.04099 0.741151 0
M  V30 5478 C 525.777 4.5001 0.851747 0
M  V30 5479 N 527.268 4.54053 0.915968 0
M  V30 5480 C 528.003 5.64232 1.02125 0
M  V30 5481 N 527.499 6.84164 1.09049 0
M  V30 5482 N 529.292 5.52084 1.05639 0
M  V30 5483 H 521.443 2.02791 -0.63162 0
M  V30 5484 H 523.706 0.921736 -0.221602 0
M  V30 5485 H 523.412 3.50912 -0.235253 0
M  V30 5486 H 523.286 3.45476 1.51413 0
M  V30 5487 H 525.673 2.4683 1.61737 0
M  V30 5488 H 525.754 2.55371 -0.148128 0
M  V30 5489 H 525.398 5.07896 -0.0200117 0
M  V30 5490 H 525.328 4.96444 1.75644 0
M  V30 5491 H 527.819 3.67683 0.872782 0
M  V30 5492 H 528.132 7.63883 1.1706 0
M  V30 5493 H 526.477 6.86875 1.05962 0
M  V30 5494 H 529.668 4.57317 0.998953 0
M  V30 5495 H 529.841 6.37983 1.13498 0
M  V30 5496 N 523.247 -0.488276 1.49845 0
M  V30 5497 C 524.177 -1.59675 1.70371 0
M  V30 5498 C 525.158 -1.60878 0.552473 0
M  V30 5499 O 526.343 -1.77417 0.78973 0
M  V30 5500 C 523.473 -2.98098 1.782 0
M  V30 5501 C 522.427 -3.11761 2.93239 0
M  V30 5502 C 521.753 -4.51661 2.86193 0
M  V30 5503 C 523.053 -2.90589 4.33999 0
M  V30 5504 H 524.747 -1.42752 2.63177 0
M  V30 5505 H 522.293 -0.685317 1.26647 0
M  V30 5506 H 524.246 -3.75555 1.91144 0
M  V30 5507 H 522.97 -3.16138 0.820018 0
M  V30 5508 H 521.629 -2.36732 2.79917 0
M  V30 5509 H 521.277 -4.66595 1.87877 0
M  V30 5510 H 520.977 -4.61742 3.63412 0
M  V30 5511 H 522.501 -5.31162 3.01163 0
M  V30 5512 H 523.915 -3.57807 4.47936 0
M  V30 5513 H 522.312 -3.1213 5.12538 0
M  V30 5514 H 523.382 -1.86595 4.4756 0
M  V30 5515 N 524.725 -1.39134 -0.740242 0
M  V30 5516 C 525.953 -1.39334 -1.5295 0
M  V30 5517 C 526.368 0.0135008 -1.88795 0
M  V30 5518 O 525.725 0.983524 -1.5373 0
M  V30 5519 C 525.776 -2.2614 -2.82034 0
M  V30 5520 O 525.497 -3.61345 -2.47712 0
M  V30 5521 C 526.998 -2.34666 -3.76094 0
M  V30 5522 H 524.218 -0.476103 -0.472828 0
M  V30 5523 H 526.762 -1.82883 -0.9151 0
M  V30 5524 H 524.917 -1.86018 -3.39818 0
M  V30 5525 H 525.331 -4.07194 -3.30595 0
M  V30 5526 H 526.805 -2.99663 -4.63579 0
M  V30 5527 H 527.282 -1.36426 -4.17474 0
M  V30 5528 H 527.888 -2.75236 -3.2423 0
M  V30 5529 N 526.204 0.969867 -1.24223 0
M  V30 5530 C 527.434 1.74502 -1.106 0
M  V30 5531 C 527.842 1.86038 0.344483 0
M  V30 5532 O 527.185 1.3465 1.24961 0
M  V30 5533 C 527.247 3.18391 -1.66935 0
M  V30 5534 C 526.911 3.30334 -3.15798 0
M  V30 5535 C 527.908 3.15832 -4.12973 0
M  V30 5536 C 525.593 3.54644 -3.55715 0
M  V30 5537 C 527.587 3.25461 -5.48045 0
M  V30 5538 C 525.274 3.63912 -4.90929 0
M  V30 5539 C 526.272 3.49332 -5.86904 0
M  V30 5540 O 525.96 3.58251 -7.1966 0
M  V30 5541 H 525.692 0.554119 -0.387206 0
M  V30 5542 H 528.246 1.22646 -1.64764 0
M  V30 5543 H 526.476 3.71543 -1.07203 0
M  V30 5544 H 528.165 3.77707 -1.48634 0
M  V30 5545 H 528.931 2.96937 -3.83476 0
M  V30 5546 H 524.81 3.65059 -2.81519 0
M  V30 5547 H 528.354 3.13998 -6.22937 0
M  V30 5548 H 524.251 3.82319 -5.20098 0
M  V30 5549 H 525.019 3.7498 -7.27552 0
M  V30 5550 N 527.682 1.05563 1.17022 0
M  V30 5551 C 528.645 0.664098 2.19368 0
M  V30 5552 C 529.645 -0.286358 1.5823 0
M  V30 5553 O 530.835 -0.069728 1.7406 0
M  V30 5554 C 527.967 -0.0239932 3.40892 0
M  V30 5555 H 529.16 1.57 2.55521 0
M  V30 5556 H 526.713 0.849964 1.31169 0
M  V30 5557 H 527.448 -0.942988 3.10287 0
M  V30 5558 H 527.233 0.659351 3.86516 0
M  V30 5559 H 528.723 -0.283909 4.16634 0
M  V30 5560 N 529.16 -1.33526 0.837174 0
M  V30 5561 C 530.409 -1.97098 0.428387 0
M  V30 5562 C 530.722 -1.67062 -1.01734 0
M  V30 5563 O 531.928 -2.24235 -1.53072 0
M  V30 5564 C 530.384 -3.52725 0.715075 0
M  V30 5565 C 529.992 -3.9164 2.17537 0
M  V30 5566 C 531.736 -4.22857 0.373154 0
M  V30 5567 C 529.643 -5.40237 2.40619 0
M  V30 5568 H 528.573 -0.737589 0.156455 0
M  V30 5569 H 531.224 -1.52169 1.02552 0
M  V30 5570 H 529.606 -3.95971 0.0475904 0
M  V30 5571 H 530.78 -3.59456 2.88319 0
M  V30 5572 H 529.095 -3.34485 2.4801 0
M  V30 5573 H 531.692 -5.32133 0.523264 0
M  V30 5574 H 532.035 -4.10647 -0.683708 0
M  V30 5575 H 532.568 -3.85135 0.995801 0
M  V30 5576 H 529.307 -5.57449 3.44864 0
M  V30 5577 H 528.827 -5.73887 1.74396 0
M  V30 5578 H 530.506 -6.07102 2.23688 0
M  V30 5579 N 530.638 -0.59345 -1.46 0
M  V30 5580 C 531.863 -0.0872365 -2.07216 0
M  V30 5581 C 532.288 1.2131 -1.43755 0
M  V30 5582 O 531.646 1.73528 -0.525152 0
M  V30 5583 C 531.694 0.0538197 -3.6056 0
M  V30 5584 O 530.798 1.10765 -3.97247 0
M  V30 5585 H 530.139 -0.0676598 -0.660544 0
M  V30 5586 H 532.669 -0.819445 -1.87473 0
M  V30 5587 H 532.679 0.256567 -4.07193 0
M  V30 5588 H 531.354 -0.895739 -4.0614 0
M  V30 5589 H 529.931 0.882501 -3.62307 0
M  V30 5590 N 532.116 1.54067 -0.331816 0
M  V30 5591 C 533.532 1.59587 0.0205388 0
M  V30 5592 C 533.732 1.34813 1.49759 0
M  V30 5593 O 532.788 1.13661 2.25471 0
M  V30 5594 C 534.101 2.97959 -0.405103 0
M  V30 5595 C 535.649 3.10964 -0.356454 0
M  V30 5596 C 536.124 4.51694 -0.757384 0
M  V30 5597 N 537.615 4.57709 -0.71111 0
M  V30 5598 C 538.35 5.64729 -0.993427 0
M  V30 5599 N 537.846 6.79652 -1.3433 0
M  V30 5600 N 539.639 5.54546 -0.918442 0
M  V30 5601 H 531.79 1.68426 -1.29407 0
M  V30 5602 H 534.053 0.78819 -0.526745 0
M  V30 5603 H 533.759 3.21115 -1.43451 0
M  V30 5604 H 533.633 3.76524 0.225692 0
M  V30 5605 H 536.02 2.87538 0.663763 0
M  V30 5606 H 536.101 2.34484 -1.02229 0
M  V30 5607 H 535.745 4.75853 -1.77555 0
M  V30 5608 H 535.675 5.26555 -0.0691444 0
M  V30 5609 H 538.166 3.75176 -0.452883 0
M  V30 5610 H 538.479 7.57221 -1.54388 0
M  V30 5611 H 536.824 6.81128 -1.38164 0
M  V30 5612 H 540.015 4.63641 -0.644536 0
M  V30 5613 H 540.188 6.37861 -1.14181 0
M  V30 5614 N 533.594 0.0601682 1.57485 0
M  V30 5615 C 534.504 -0.926121 2.15546 0
M  V30 5616 C 535.52 -1.33532 1.11558 0
M  V30 5617 O 536.696 -1.4104 1.4377 0
M  V30 5618 C 533.761 -2.17952 2.69625 0
M  V30 5619 C 532.822 -1.82783 3.88444 0
M  V30 5620 C 532.055 -3.02148 4.39935 0
M  V30 5621 O 532.278 -4.15803 3.90466 0
M  V30 5622 O 531.212 -2.82639 5.31412 0
M  V30 5623 H 535.038 -0.462289 3.00161 0
M  V30 5624 H 532.623 -0.162246 1.48516 0
M  V30 5625 H 534.505 -2.91474 3.04337 0
M  V30 5626 H 533.18 -2.63456 1.88077 0
M  V30 5627 H 532.087 -1.06549 3.58606 0
M  V30 5628 H 533.42 -1.42072 4.7125 0
M  V30 5629 N 535.072 -1.5615 -0.213296 0
M  V30 5630 C 536.004 -1.89586 -1.28802 0
M  V30 5631 C 537.017 -0.784844 -1.42633 0
M  V30 5632 O 538.206 -1.06319 -1.43383 0
M  V30 5633 C 535.306 -2.09665 -2.66259 0
M  V30 5634 C 534.479 -3.40726 -2.7427 0
M  V30 5635 C 533.538 -3.50137 -3.92798 0
M  V30 5636 O 532.564 -4.23105 -3.8075 0
M  V30 5637 N 533.766 -2.81886 -5.07465 0
M  V30 5638 H 536.531 -2.82368 -1.00442 0
M  V30 5639 H 534.092 -1.56796 -0.403302 0
M  V30 5640 H 536.084 -2.13268 -3.43946 0
M  V30 5641 H 534.654 -1.23469 -2.87183 0
M  V30 5642 H 533.874 -3.4915 -1.82997 0
M  V30 5643 H 535.162 -4.27048 -2.76599 0
M  V30 5644 H 534.56 -2.22397 -5.2015 0
M  V30 5645 H 533.117 -2.91139 -5.83165 0
M  V30 5646 N 536.55 0.480323 -1.50102 0
M  V30 5647 C 537.497 1.57946 -1.6829 0
M  V30 5648 C 538.467 1.57611 -0.524223 0
M  V30 5649 O 539.652 1.75282 -0.753709 0
M  V30 5650 C 536.792 2.95978 -1.77457 0
M  V30 5651 C 535.905 3.06173 -3.04766 0
M  V30 5652 C 535.04 4.35063 -3.04784 0
M  V30 5653 C 534.079 4.38966 -4.26586 0
M  V30 5654 N 533.216 5.59314 -4.24396 0
M  V30 5655 H 538.056 1.41743 -2.62131 0
M  V30 5656 H 535.593 0.689304 -1.2995 0
M  V30 5657 H 537.551 3.76011 -1.80752 0
M  V30 5658 H 536.181 3.10837 -0.870637 0
M  V30 5659 H 535.233 2.19071 -3.10986 0
M  V30 5660 H 536.545 3.04916 -3.9475 0
M  V30 5661 H 535.699 5.23436 -3.06757 0
M  V30 5662 H 534.438 4.38915 -2.12614 0
M  V30 5663 H 533.443 3.48992 -4.24835 0
M  V30 5664 H 534.668 4.36813 -5.19972 0
M  V30 5665 H 532.614 5.63969 -3.35074 0
M  V30 5666 H 532.531 5.5976 -5.08138 0
M  V30 5667 H 533.799 6.49837 -4.30502 0
M  V30 5668 N 538.028 1.39524 0.732853 0
M  V30 5669 C 538.976 1.38563 1.86824 0
M  V30 5670 C 539.97 0.268467 1.67259 0
M  V30 5671 O 541.176 0.438613 1.74574 0
M  V30 5672 H 537.551 0.432737 0.615014 0
M  V30 5673 H 539.522 2.34328 1.84751 0
M  V30 5674 C 538.271 1.2481 3.24527 0
M  V30 5675 H 537.594 2.10044 3.40179 0
M  V30 5676 H 539.034 1.28194 4.04156 0
M  V30 5677 C 537.493 -0.0432825 3.36872 0
M  V30 5678 O 538.023 -1.01268 3.88726 0
M  V30 5679 N 536.229 -0.107055 2.90403 0
M  V30 5680 H 535.776 0.682512 2.48394 0
M  V30 5681 H 535.734 -0.970618 2.99042 0
M  V30 5682 N 539.506 -0.963266 1.24736 0
M  V30 5683 C 540.917 -1.52145 1.08207 0
M  V30 5684 C 541.268 -1.93142 -0.345061 0
M  V30 5685 O 540.393 -1.77769 -1.23399 0
M  V30 5686 C 540.988 -2.76486 1.95808 0
M  V30 5687 C 539.547 -3.28646 1.8349 0
M  V30 5688 C 538.694 -2.01529 1.90476 0
M  V30 5689 H 541.645 -0.781083 1.38148 0
M  V30 5690 H 541.666 -3.49986 1.49297 0
M  V30 5691 H 541.178 -2.46617 2.99669 0
M  V30 5692 H 539.279 -3.63357 0.824787 0
M  V30 5693 H 539.392 -3.97246 2.67829 0
M  V30 5694 H 537.756 -2.16442 1.34258 0
M  V30 5695 H 538.539 -1.7402 2.95926 0
M  V30 5696 N 540.985 -1.06182 -1.16461 0
M  V30 5697 C 541.917 -0.629584 -2.20383 0
M  V30 5698 C 542.93 0.311834 -1.59786 0
M  V30 5699 O 544.119 0.103 -1.78203 0
M  V30 5700 C 541.219 0.0973695 -3.3876 0
M  V30 5701 C 540.392 -0.857252 -4.28917 0
M  V30 5702 C 539.451 -0.169749 -5.25926 0
M  V30 5703 O 538.477 -0.807044 -5.6345 0
M  V30 5704 N 539.679 1.08911 -5.70192 0
M  V30 5705 H 542.444 -1.52352 -2.58087 0
M  V30 5706 H 540.005 -0.944993 -1.31459 0
M  V30 5707 H 541.997 0.567676 -4.00699 0
M  V30 5708 H 540.567 0.893093 -2.99571 0
M  V30 5709 H 539.787 -1.50696 -3.64259 0
M  V30 5710 H 541.075 -1.50489 -4.86035 0
M  V30 5711 H 540.473 1.62703 -5.41797 0
M  V30 5712 H 539.03 1.50331 -6.34227 0
M  V30 5713 N 542.463 1.3308 -0.844243 0
M  V30 5714 C 543.711 1.97215 -0.441676 0
M  V30 5715 C 544.032 1.67185 1.0037 0
M  V30 5716 O 543.302 0.973588 1.69994 0
M  V30 5717 H 541.882 0.72959 -0.160335 0
M  V30 5718 H 544.544 1.62348 -1.07838 0
M  V30 5719 H 543.64 3.06698 -0.57815 0
M  V30 5720 N 543.941 0.601185 1.45683 0
M  V30 5721 C 545.189 0.0936957 2.01883 0
M  V30 5722 C 545.51 -1.2779 1.47291 0
M  V30 5723 O 544.78 -1.84279 0.664691 0
M  V30 5724 H 543.36 0.0316466 0.746329 0
M  V30 5725 H 546.022 0.781137 1.78562 0
M  V30 5726 H 545.118 0.0386297 3.12076 0
M  V30 5727 N 545.419 -1.53889 0.339982 0
M  V30 5728 C 546.835 -1.59595 -0.0120752 0
M  V30 5729 C 547.035 -1.35605 -1.49042 0
M  V30 5730 O 546.091 -1.14856 -2.24865 0
M  V30 5731 C 547.404 -2.9774 0.420898 0
M  V30 5732 C 548.952 -3.1077 0.37294 0
M  V30 5733 C 549.427 -4.51286 0.781327 0
M  V30 5734 N 550.918 -4.57325 0.735374 0
M  V30 5735 C 551.653 -5.64194 1.02336 0
M  V30 5736 N 551.149 -6.7893 1.37933 0
M  V30 5737 N 552.942 -5.54051 0.947838 0
M  V30 5738 H 545.093 -1.67738 1.30299 0
M  V30 5739 H 547.356 -0.785385 0.530918 0
M  V30 5740 H 547.062 -3.20349 1.45152 0
M  V30 5741 H 546.936 -3.76639 -0.205721 0
M  V30 5742 H 549.323 -2.87886 -0.648505 0
M  V30 5743 H 549.404 -2.33939 1.03472 0
M  V30 5744 H 549.048 -4.74905 1.80077 0
M  V30 5745 H 548.978 -5.26511 0.0970679 0
M  V30 5746 H 551.469 -3.74931 0.472773 0
M  V30 5747 H 551.782 -7.56392 1.58402 0
M  V30 5748 H 550.127 -6.80386 1.41774 0
M  V30 5749 H 553.318 -4.63293 0.669115 0
M  V30 5750 H 553.491 -6.37246 1.17563 0
M  V30 5751 N 546.897 -0.0685191 -1.57451 0
M  V30 5752 C 547.83 0.935736 -2.08133 0
M  V30 5753 C 548.808 1.29317 -0.985698 0
M  V30 5754 O 549.992 1.40304 -1.25886 0
M  V30 5755 C 547.119 2.2448 -2.53627 0
M  V30 5756 C 546.165 2.03917 -3.74593 0
M  V30 5757 S 546.998 1.30154 -5.19442 0
M  V30 5758 C 548.154 2.62346 -5.68265 0
M  V30 5759 H 548.387 0.504473 -2.92989 0
M  V30 5760 H 545.92 0.144169 -1.53725 0
M  V30 5761 H 547.878 2.99718 -2.80499 0
M  V30 5762 H 546.539 2.64731 -1.69045 0
M  V30 5763 H 545.732 3.00788 -4.04404 0
M  V30 5764 H 545.334 1.36815 -3.48077 0
M  V30 5765 H 547.626 3.58448 -5.7491 0
M  V30 5766 H 548.569 2.3715 -6.67207 0
M  V30 5767 H 548.977 2.69401 -4.96068 0
M  V30 5768 N 548.375 1.56261 0.205012 0
M  V30 5769 C 549.605 1.83874 0.942018 0
M  V30 5770 C 550.013 0.647595 1.77772 0
M  V30 5771 O 549.356 -0.393098 1.79445 0
M  V30 5772 C 549.418 3.05453 1.89575 0
M  V30 5773 C 549.082 4.39772 1.24296 0
M  V30 5774 C 550.079 5.16133 0.624724 0
M  V30 5775 C 547.764 4.86504 1.24978 0
M  V30 5776 C 549.758 6.37396 0.0220117 0
M  V30 5777 C 547.445 6.07705 0.643232 0
M  V30 5778 C 548.443 6.82993 0.0304164 0
M  V30 5779 O 548.131 8.019 -0.566654 0
M  V30 5780 H 547.863 0.614896 0.280854 0
M  V30 5781 H 550.417 2.04215 0.220285 0
M  V30 5782 H 548.647 2.80972 2.65691 0
M  V30 5783 H 550.336 3.19797 2.4997 0
M  V30 5784 H 551.102 4.81127 0.611666 0
M  V30 5785 H 546.981 4.27865 1.71616 0
M  V30 5786 H 550.525 6.96102 -0.456926 0
M  V30 5787 H 546.422 6.42181 0.653759 0
M  V30 5788 H 547.19 8.17192 -0.462588 0
M  V30 5789 N 549.853 -0.472356 1.50355 0
M  V30 5790 C 551.102 -1.2213 1.60522 0
M  V30 5791 C 551.415 -1.9312 0.310466 0
M  V30 5792 O 552.621 -2.69936 0.291029 0
M  V30 5793 C 551.077 -2.21909 2.83345 0
M  V30 5794 C 550.685 -1.56727 4.19691 0
M  V30 5795 C 552.429 -2.97453 3.02856 0
M  V30 5796 C 550.336 -2.54785 5.33703 0
M  V30 5797 H 549.266 -0.459543 0.597776 0
M  V30 5798 H 551.917 -0.491922 1.76783 0
M  V30 5799 H 550.299 -2.98133 2.60639 0
M  V30 5800 H 551.473 -0.863007 4.52646 0
M  V30 5801 H 549.788 -0.934685 4.05774 0
M  V30 5802 H 552.385 -3.70838 3.85205 0
M  V30 5803 H 552.728 -3.56764 2.14534 0
M  V30 5804 H 553.261 -2.28342 3.25737 0
M  V30 5805 H 550 -2.00214 6.24175 0
M  V30 5806 H 549.52 -3.23367 5.05167 0
M  V30 5807 H 551.199 -3.16639 5.64224 0
M  V30 5808 N 551.331 -1.39911 -0.725443 0
M  V30 5809 C 552.263 -1.35301 -1.85003 0
M  V30 5810 C 553.276 -0.260102 -1.60709 0
M  V30 5811 O 554.465 -0.519749 -1.70766 0
M  V30 5812 C 551.565 -1.08039 -3.21218 0
M  V30 5813 C 550.738 -2.28793 -3.7279 0
M  V30 5814 C 549.797 -1.97841 -4.87591 0
M  V30 5815 O 548.823 -2.70616 -5.00755 0
M  V30 5816 N 550.025 -0.950367 -5.72668 0
M  V30 5817 H 552.79 -2.32218 -1.89459 0
M  V30 5818 H 550.351 -1.34137 -0.90658 0
M  V30 5819 H 552.343 -0.853354 -3.95601 0
M  V30 5820 H 550.913 -0.198229 -3.11971 0
M  V30 5821 H 550.133 -2.67388 -2.8965 0
M  V30 5822 H 551.421 -3.09317 -4.03981 0
M  V30 5823 H 550.819 -0.347436 -5.64632 0
M  V30 5824 H 549.376 -0.783232 -6.47077 0
M  V30 5825 N 552.809 0.956637 -1.25245 0
M  V30 5826 C 554.086 1.67716 -1.00651 0
M  V30 5827 C 554.466 2.0585 0.467866 0
M  V30 5828 O 553.814 1.77029 1.44475 0
M  V30 5829 C 554.024 2.90093 -1.94028 0
M  V30 5830 C 555.372 3.6209 -2.21756 0
M  V30 5831 O 556.396 3.00171 -1.9177 0
M  V30 5832 O 555.255 4.7358 -2.72735 0
M  V30 5833 H 552.349 0.733731 -0.381533 0
M  V30 5834 H 554.895 1.00974 -1.3639 0
M  V30 5835 H 553.667 2.58689 -2.93591 0
M  V30 5836 H 553.29 3.64566 -1.58674 0
M  V30 5837 N 554.287 1.06798 1.15896 0
M  V30 5838 C 555.703 0.792423 1.38538 0
M  V30 5839 C 555.903 -0.60592 1.92174 0
M  V30 5840 O 554.959 -1.36561 2.12385 0
M  V30 5841 C 556.272 1.86157 2.36149 0
M  V30 5842 C 557.82 1.88567 2.49823 0
M  V30 5843 C 558.295 2.9455 3.5072 0
M  V30 5844 N 559.786 2.93616 3.58251 0
M  V30 5845 C 560.521 3.72267 4.36125 0
M  V30 5846 N 560.017 4.60751 5.17379 0
M  V30 5847 N 561.81 3.60637 4.31158 0
M  V30 5848 H 553.961 1.96993 0.794198 0
M  V30 5849 H 556.224 0.853942 0.411688 0
M  V30 5850 H 555.93 2.86603 2.03843 0
M  V30 5851 H 555.804 1.71692 3.3586 0
M  V30 5852 H 558.191 0.887765 2.8143 0
M  V30 5853 H 558.272 2.0711 1.5013 0
M  V30 5854 H 557.916 3.94537 3.19849 0
M  V30 5855 H 557.846 2.73255 4.50155 0
M  V30 5856 H 560.337 2.29472 3.00252 0
M  V30 5857 H 560.65 5.17408 5.74028 0
M  V30 5858 H 558.995 4.64803 5.16704 0
M  V30 5859 H 562.186 2.90892 3.66742 0
M  V30 5860 H 562.359 4.22176 4.91601 0
M  V30 5861 N 555.766 -1.3263 0.851289 0
M  V30 5862 C 557.012 -1.9766 0.453694 0
M  V30 5863 C 557.345 -1.67225 -0.987396 0
M  V30 5864 O 556.62 -0.958693 -1.69232 0
M  V30 5865 C 556.903 -3.5344 0.68936 0
M  V30 5866 C 556.756 -3.93517 2.17862 0
M  V30 5867 C 558.075 -4.39866 0.143555 0
M  V30 5868 H 555.194 -0.717989 0.166314 0
M  V30 5869 H 557.836 -1.57068 1.06909 0
M  V30 5870 H 555.986 -3.88147 0.165546 0
M  V30 5871 H 557.658 -3.69006 2.76826 0
M  V30 5872 H 555.901 -3.42798 2.65841 0
M  V30 5873 H 556.572 -5.02065 2.29422 0
M  V30 5874 H 559.048 -4.11875 0.591451 0
M  V30 5875 H 557.924 -5.47858 0.338043 0
M  V30 5876 H 558.185 -4.31696 -0.953466 0
M  V30 5877 N 557.244 -0.608902 -1.45362 0
M  V30 5878 C 558.207 0.0992563 -2.28985 0
M  V30 5879 C 559.207 0.793841 -1.39838 0
M  V30 5880 O 560.397 0.641804 -1.61946 0
M  V30 5881 C 557.529 1.15073 -3.20891 0
M  V30 5882 H 558.722 -0.635964 -2.93079 0
M  V30 5883 H 556.275 -0.368007 -1.51906 0
M  V30 5884 H 557.01 1.91667 -2.616 0
M  V30 5885 H 556.795 0.656867 -3.86559 0
M  V30 5886 H 558.285 1.64665 -3.83765 0
M  V30 5887 N 558.722 1.53707 -0.348139 0
M  V30 5888 C 559.632 2.28881 0.514857 0
M  V30 5889 C 560.648 1.34168 1.10793 0
M  V30 5890 O 561.824 1.6721 1.12262 0
M  V30 5891 C 558.889 3.05042 1.64774 0
M  V30 5892 C 557.95 4.15389 1.08398 0
M  V30 5893 C 557.183 4.87909 2.16287 0
M  V30 5894 O 557.406 4.60137 3.3709 0
M  V30 5895 O 556.34 5.74254 1.80323 0
M  V30 5896 H 560.166 3.03547 -0.0963699 0
M  V30 5897 H 557.751 1.48972 -0.113043 0
M  V30 5898 H 559.633 3.52656 2.30677 0
M  V30 5899 H 558.308 2.33228 2.24469 0
M  V30 5900 H 557.215 3.72068 0.389341 0
M  V30 5901 H 558.548 4.89318 0.531829 0
M  V30 5902 N 560.2 0.0768682 1.57412 0
M  V30 5903 C 561.15 -0.898795 2.09537 0
M  V30 5904 C 562.134 -1.25556 1.0062 0
M  V30 5905 O 563.326 -1.23369 1.26921 0
M  V30 5906 C 560.455 -2.16453 2.66464 0
M  V30 5907 C 559.541 -1.83401 3.82393 0
M  V30 5908 N 559.932 -1.20823 4.91157 0
M  V30 5909 C 558.23 -2.13121 3.91785 0
M  V30 5910 C 558.931 -1.05976 5.71965 0
M  V30 5911 N 557.907 -1.57113 5.204 0
M  V30 5912 H 561.709 -0.410718 2.91016 0
M  V30 5913 H 559.223 -0.126878 1.61904 0
M  V30 5914 H 561.22 -2.87274 3.02125 0
M  V30 5915 H 559.88 -2.65844 1.86433 0
M  V30 5916 H 560.891 -0.877249 5.10416 0
M  V30 5917 H 557.568 -2.64854 3.22736 0
M  V30 5918 H 558.958 -0.571809 6.69462 0
M  V30 5919 N 561.678 -1.56367 -0.196722 0
M  V30 5920 C 562.641 -1.93561 -1.22746 0
M  V30 5921 C 563.641 -0.816566 -1.38524 0
M  V30 5922 O 564.831 -1.084 -1.36363 0
M  V30 5923 C 561.963 -2.20823 -2.59712 0
M  V30 5924 H 563.156 -2.85774 -0.909586 0
M  V30 5925 H 560.709 -1.50032 -0.438174 0
M  V30 5926 H 561.444 -1.31243 -2.96557 0
M  V30 5927 H 561.229 -3.02368 -2.49632 0
M  V30 5928 H 562.719 -2.50608 -3.34044 0
M  V30 5929 N 563.156 0.464375 -1.50603 0
M  V30 5930 C 564.433 1.22549 -1.5245 0
M  V30 5931 C 564.813 2.09327 -0.273035 0
M  V30 5932 O 564.161 2.16074 0.743242 0
M  V30 5933 C 564.371 2.05074 -2.82393 0
M  V30 5934 C 565.719 2.63036 -3.33313 0
M  V30 5935 O 566.743 2.1531 -2.8376 0
M  V30 5936 O 565.602 3.5001 -4.19709 0
M  V30 5937 H 562.696 0.556471 -0.611775 0
M  V30 5938 H 565.242 0.475648 -1.62898 0
M  V30 5939 H 564.014 1.41169 -3.64948 0
M  V30 5940 H 563.637 2.87179 -2.7498 0
M  V30 5941 N 564.634 1.40294 0.718013 0
M  V30 5942 C 565.544 1.42678 1.86226 0
M  V30 5943 C 566.56 0.319655 1.71039 0
M  V30 5944 O 567.736 0.563852 1.93346 0
M  V30 5945 C 564.801 1.2852 3.21999 0
M  V30 5946 C 563.862 2.49354 3.49458 0
M  V30 5947 C 563.095 2.35863 4.78753 0
M  V30 5948 O 563.318 1.37114 5.53675 0
M  V30 5949 O 562.252 3.25189 5.06494 0
M  V30 5950 H 566.078 2.39167 1.87171 0
M  V30 5951 H 563.663 1.2159 0.868112 0
M  V30 5952 H 565.545 1.22824 4.03103 0
M  V30 5953 H 564.22 0.351359 3.21787 0
M  V30 5954 H 563.127 2.60628 2.68373 0
M  V30 5955 H 564.46 3.41491 3.54464 0
M  V30 5956 N 566.112 -0.949982 1.2575 0
M  V30 5957 C 567.042 -2.06483 1.09028 0
M  V30 5958 C 568.023 -1.701 -0.00201532 0
M  V30 5959 O 569.208 -1.93469 0.168383 0
M  V30 5960 C 566.338 -3.39899 0.71316 0
M  V30 5961 C 565.292 -3.90309 1.75621 0
M  V30 5962 C 564.618 -5.20274 1.23365 0
M  V30 5963 C 565.918 -4.16169 3.15596 0
M  V30 5964 H 567.612 -2.20731 2.02283 0
M  V30 5965 H 565.158 -1.06066 0.973964 0
M  V30 5966 H 567.111 -4.17346 0.58309 0
M  V30 5967 H 565.835 -3.25602 -0.255091 0
M  V30 5968 H 564.494 -3.15035 1.8748 0
M  V30 5969 H 564.142 -5.02351 0.255491 0
M  V30 5970 H 563.842 -5.54971 1.93082 0
M  V30 5971 H 565.366 -6.00314 1.11607 0
M  V30 5972 H 566.78 -4.84259 3.06864 0
M  V30 5973 H 565.177 -4.62131 3.82825 0
M  V30 5974 H 566.247 -3.22273 3.6231 0
M  V30 5975 N 567.59 -1.07411 -1.15328 0
M  V30 5976 C 568.836 -0.808666 -1.86634 0
M  V30 5977 C 569.191 0.65816 -1.80793 0
M  V30 5978 O 568.484 1.47689 -1.22059 0
M  V30 5979 C 568.678 -1.25191 -3.34757 0
M  V30 5980 C 568.507 -2.76028 -3.55019 0
M  V30 5981 C 567.277 -3.43644 -3.70455 0
M  V30 5982 C 569.475 -3.74224 -3.5279 0
M  V30 5983 N 567.457 -4.83117 -3.78776 0
M  V30 5984 C 568.828 -4.9954 -3.67233 0
M  V30 5985 C 570.883 -3.67373 -3.36068 0
M  V30 5986 C 569.586 -6.18819 -3.66682 0
M  V30 5987 C 571.612 -4.86116 -3.36816 0
M  V30 5988 C 570.974 -6.10266 -3.51789 0
M  V30 5989 H 567.073 -0.348478 -0.700062 0
M  V30 5990 H 569.657 -1.37049 -1.38295 0
M  V30 5991 H 567.828 -0.717775 -3.8171 0
M  V30 5992 H 569.56 -0.933936 -3.93776 0
M  V30 5993 H 566.315 -2.94051 -3.71256 0
M  V30 5994 H 566.739 -5.55705 -3.86679 0
M  V30 5995 H 571.381 -2.72334 -3.2341 0
M  V30 5996 H 569.099 -7.14179 -3.78118 0
M  V30 5997 H 572.685 -4.82492 -3.25103 0
M  V30 5998 H 571.565 -7.00609 -3.52301 0
M  V30 5999 N 569.068 1.32177 -0.85831 0
M  V30 6000 C 570 2.27688 -0.262835 0
M  V30 6001 C 571.013 1.52588 0.567513 0
M  V30 6002 O 572.202 1.74156 0.391407 0
M  V30 6003 C 569.302 3.32668 0.646937 0
M  V30 6004 C 568.475 4.37148 -0.148372 0
M  V30 6005 C 567.534 5.21686 0.687728 0
M  V30 6006 O 566.56 5.69074 0.119934 0
M  V30 6007 N 567.762 5.44892 2.00182 0
M  V30 6008 H 570.527 2.79426 -1.08356 0
M  V30 6009 H 568.088 1.45076 -0.718647 0
M  V30 6010 H 570.08 3.86134 1.2117 0
M  V30 6011 H 568.65 2.81061 1.36834 0
M  V30 6012 H 567.87 3.83915 -0.894572 0
M  V30 6013 H 569.158 5.04038 -0.694514 0
M  V30 6014 H 568.556 5.08128 2.4864 0
M  V30 6015 H 567.113 6.0134 2.51463 0
M  V30 6016 N 570.547 0.616602 1.45037 0
M  V30 6017 C 571.477 -0.0840787 2.33349 0
M  V30 6018 C 572.458 -0.849641 1.4736 0
M  V30 6019 O 573.643 -0.818407 1.76113 0
M  V30 6020 C 570.773 -1.07604 3.3021 0
M  V30 6021 C 569.727 -0.423096 4.25904 0
M  V30 6022 C 569.053 -1.52394 5.12523 0
M  V30 6023 C 570.353 0.661457 5.18095 0
M  V30 6024 H 572.047 0.653333 2.92185 0
M  V30 6025 H 569.593 0.315634 1.40498 0
M  V30 6026 H 571.546 -1.57485 3.90866 0
M  V30 6027 H 570.27 -1.84416 2.69552 0
M  V30 6028 H 568.929 0.05493 3.66559 0
M  V30 6029 H 568.577 -2.28257 4.48227 0
M  V30 6030 H 568.277 -1.09251 5.77354 0
M  V30 6031 H 569.801 -2.02485 5.76049 0
M  V30 6032 H 571.215 0.246353 5.7277 0
M  V30 6033 H 569.612 1.01517 5.91451 0
M  V30 6034 H 570.682 1.53446 4.59981 0
M  V30 6035 N 572.025 -1.5352 0.356285 0
M  V30 6036 C 573.274 -2.00298 -0.237373 0
M  V30 6037 C 573.587 -1.24784 -1.50627 0
M  V30 6038 O 574.793 -1.62103 -2.17795 0
M  V30 6039 C 573.249 -3.56771 -0.473545 0
M  V30 6040 C 572.857 -4.41154 0.780183 0
M  V30 6041 C 574.601 -4.1193 -1.02537 0
M  V30 6042 C 572.508 -5.89161 0.514108 0
M  V30 6043 H 571.438 -0.748307 -0.092478 0
M  V30 6044 H 574.089 -1.77283 0.473588 0
M  V30 6045 H 572.471 -3.75902 -1.24553 0
M  V30 6046 H 573.645 -4.33797 1.55425 0
M  V30 6047 H 571.96 -3.97052 1.25455 0
M  V30 6048 H 574.557 -5.20133 -1.2396 0
M  V30 6049 H 574.9 -3.65943 -1.98473 0
M  V30 6050 H 575.433 -3.96561 -0.313775 0
M  V30 6051 H 572.172 -6.39408 1.44355 0
M  V30 6052 H 571.692 -5.9939 -0.221632 0
M  V30 6053 H 573.371 -6.46857 0.136122 0
M  V30 6054 N 573.503 -0.0852151 -1.57369 0
M  V30 6055 C 574.45 0.877268 -2.13478 0
M  V30 6056 C 575.42 1.28642 -1.05073 0
M  V30 6057 O 576.605 1.36992 -1.32808 0
M  V30 6058 C 573.745 2.13464 -2.71159 0
M  V30 6059 C 572.858 1.77691 -3.93764 0
M  V30 6060 C 571.993 2.98139 -4.39643 0
M  V30 6061 C 571.032 2.58447 -5.54862 0
M  V30 6062 N 570.169 3.71698 -5.95639 0
M  V30 6063 H 575.009 0.391933 -2.95411 0
M  V30 6064 H 572.546 0.181796 -1.45972 0
M  V30 6065 H 574.504 2.87086 -3.02717 0
M  V30 6066 H 573.134 2.59514 -1.91969 0
M  V30 6067 H 572.186 0.940768 -3.68583 0
M  V30 6068 H 573.498 1.44497 -4.77412 0
M  V30 6069 H 572.652 3.80026 -4.72933 0
M  V30 6070 H 571.391 3.34536 -3.54876 0
M  V30 6071 H 570.396 1.74984 -5.21211 0
M  V30 6072 H 571.621 2.23205 -6.41371 0
M  V30 6073 H 569.567 4.07831 -5.13819 0
M  V30 6074 H 569.484 3.42317 -6.74059 0
M  V30 6075 H 570.752 4.54123 -6.33555 0
M  V30 6076 N 574.981 1.5647 0.188427 0
M  V30 6077 C 575.929 1.95971 1.25293 0
M  V30 6078 C 576.923 0.846047 1.4676 0
M  V30 6079 O 578.129 1.03109 1.47542 0
M  V30 6080 H 574.504 0.623253 0.420784 0
M  V30 6081 H 576.475 2.84731 0.892792 0
M  V30 6082 C 575.224 2.32116 2.58877 0
M  V30 6083 H 574.547 3.17341 2.43176 0
M  V30 6084 H 575.987 2.63613 3.3209 0
M  V30 6085 C 574.446 1.15823 3.16365 0
M  V30 6086 O 574.976 0.436785 3.99318 0
M  V30 6087 N 573.182 0.933278 2.75206 0
M  V30 6088 H 572.729 1.52169 2.07852 0
M  V30 6089 H 572.687 0.156976 3.14008 0
M  V30 6090 N 576.459 -0.456382 1.50847 0
M  V30 6091 C 577.391 -1.57033 1.66953 0
M  V30 6092 C 578.404 -1.53207 0.550593 0
M  V30 6093 O 579.593 -1.58328 0.824285 0
M  V30 6094 C 576.693 -2.95937 1.65149 0
M  V30 6095 C 575.866 -3.24475 2.93317 0
M  V30 6096 C 574.925 -4.43007 2.83957 0
M  V30 6097 O 573.951 -4.42592 3.57912 0
M  V30 6098 N 575.153 -5.45503 1.9851 0
M  V30 6099 H 577.918 -1.43629 2.63042 0
M  V30 6100 H 575.479 -0.645037 1.48495 0
M  V30 6101 H 577.471 -3.73224 1.56481 0
M  V30 6102 H 576.041 -3.03036 0.767343 0
M  V30 6103 H 575.261 -2.35664 3.16 0
M  V30 6104 H 576.549 -3.4036 3.78196 0
M  V30 6105 H 575.947 -5.48668 1.37766 0
M  V30 6106 H 574.504 -6.21716 1.95735 0
M  V30 6107 N 577.937 -1.40673 -0.710563 0
M  V30 6108 C 578.884 -1.41336 -1.82463 0
M  V30 6109 C 579.854 -0.269648 -1.63897 0
M  V30 6110 O 581.039 -0.468463 -1.8496 0
M  V30 6111 C 578.179 -1.28665 -3.20218 0
M  V30 6112 C 577.292 -2.52784 -3.5032 0
M  V30 6113 C 576.427 -2.32517 -4.77608 0
M  V30 6114 C 575.466 -3.52187 -5.0063 0
M  V30 6115 N 574.603 -3.31084 -6.19135 0
M  V30 6116 H 579.443 -2.36558 -1.8123 0
M  V30 6117 H 576.98 -1.17483 -0.885226 0
M  V30 6118 H 578.938 -1.19324 -3.99772 0
M  V30 6119 H 577.568 -0.370602 -3.20666 0
M  V30 6120 H 576.62 -2.72634 -2.65283 0
M  V30 6121 H 577.932 -3.41845 -3.63241 0
M  V30 6122 H 577.086 -2.20558 -5.65189 0
M  V30 6123 H 575.825 -1.40889 -4.66906 0
M  V30 6124 H 574.83 -3.64617 -4.11502 0
M  V30 6125 H 576.055 -4.44749 -5.13201 0
M  V30 6126 H 574.001 -2.42143 -6.09674 0
M  V30 6127 H 573.918 -4.13713 -6.32754 0
M  V30 6128 H 575.186 -3.22868 -7.0949 0
M  V30 6129 N 579.415 0.9433 -1.26252 0
M  V30 6130 C 580.643 1.72367 -1.14443 0
M  V30 6131 C 581.058 1.86392 0.300572 0
M  V30 6132 O 580.415 1.36978 1.20596 0
M  V30 6133 C 580.466 3.13155 -1.806 0
M  V30 6134 O 580.187 2.99803 -3.19452 0
M  V30 6135 C 581.688 4.07417 -1.74717 0
M  V30 6136 H 578.908 0.539758 -0.398626 0
M  V30 6137 H 581.452 1.18268 -1.66832 0
M  V30 6138 H 579.607 3.64162 -1.32154 0
M  V30 6139 H 580.021 3.88697 -3.52158 0
M  V30 6140 H 581.495 5.03773 -2.25647 0
M  V30 6141 H 581.972 4.3337 -0.713244 0
M  V30 6142 H 582.578 3.6233 -2.22704 0
M  V30 6143 N 580.893 1.08022 1.14757 0
M  V30 6144 C 581.843 0.676345 2.17737 0
M  V30 6145 C 582.827 -0.302018 1.5804 0
M  V30 6146 O 584.019 -0.11466 1.76628 0
M  V30 6147 C 581.148 0.082984 3.432 0
M  V30 6148 C 580.234 1.0869 4.09936 0
M  V30 6149 N 580.625 2.26891 4.52055 0
M  V30 6150 C 578.923 0.921768 4.36371 0
M  V30 6151 C 579.624 2.90636 5.0389 0
M  V30 6152 N 578.6 2.18266 4.97856 0
M  V30 6153 H 582.402 1.5765 2.4804 0
M  V30 6154 H 579.916 0.954374 1.31398 0
M  V30 6155 H 581.913 -0.224289 4.16296 0
M  V30 6156 H 580.573 -0.812206 3.14378 0
M  V30 6157 H 581.584 2.6457 4.45223 0
M  V30 6158 H 578.261 0.0800499 4.17423 0
M  V30 6159 H 579.651 3.9104 5.46386 0
M  V30 6160 N 582.371 -1.3172 0.865308 0
M  V30 6161 C 583.599 -2.01057 0.488251 0
M  V30 6162 C 584.014 -1.64979 -0.918 0
M  V30 6163 O 583.371 -0.876597 -1.60069 0
M  V30 6164 C 583.422 -3.55964 0.630224 0
M  V30 6165 O 583.143 -3.90749 1.98109 0
M  V30 6166 C 584.644 -4.42574 0.253567 0
M  V30 6167 H 581.864 -0.64332 0.190736 0
M  V30 6168 H 584.408 -1.68058 1.16519 0
M  V30 6169 H 582.563 -3.874 0.000895422 0
M  V30 6170 H 582.977 -4.85467 1.9855 0
M  V30 6171 H 584.451 -5.50521 0.403875 0
M  V30 6172 H 584.928 -4.31724 -0.806895 0
M  V30 6173 H 585.534 -4.16547 0.858404 0
M  V30 6174 N 583.85 -0.624285 -1.44708 0
M  V30 6175 C 585.08 -0.132726 -2.06173 0
M  V30 6176 C 585.488 1.19513 -1.46674 0
M  V30 6177 O 584.831 1.74254 -0.581491 0
M  V30 6178 C 584.893 0.0636732 -3.59444 0
M  V30 6179 C 584.557 -1.18496 -4.4137 0
M  V30 6180 C 585.553 -2.10706 -4.75288 0
M  V30 6181 C 583.239 -1.41846 -4.81856 0
M  V30 6182 C 585.233 -3.24582 -5.48567 0
M  V30 6183 C 582.92 -2.5602 -5.54885 0
M  V30 6184 C 583.918 -3.47215 -5.88159 0
M  V30 6185 O 583.606 -4.59399 -6.59703 0
M  V30 6186 H 583.338 -0.0737313 -0.671967 0
M  V30 6187 H 585.892 -0.856789 -1.86677 0
M  V30 6188 H 584.122 0.842809 -3.77404 0
M  V30 6189 H 585.811 0.508924 -4.02697 0
M  V30 6190 H 586.577 -1.93898 -4.44554 0
M  V30 6191 H 582.456 -0.717556 -4.55381 0
M  V30 6192 H 586 -3.95785 -5.74456 0
M  V30 6193 H 581.897 -2.72774 -5.85034 0
M  V30 6194 H 582.665 -4.58293 -6.78166 0
M  V30 6195 N 585.328 1.53329 -0.364422 0
M  V30 6196 C 586.577 2.00421 0.226747 0
M  V30 6197 C 586.89 1.25581 1.49963 0
M  V30 6198 O 588.096 1.63256 2.16933 0
M  V30 6199 C 586.552 3.57017 0.454618 0
M  V30 6200 C 586.16 4.40734 -0.803568 0
M  V30 6201 C 587.904 4.12468 1.00351 0
M  V30 6202 C 585.811 5.8888 -0.545345 0
M  V30 6203 H 584.741 0.748787 0.0885082 0
M  V30 6204 H 587.392 1.7703 -0.482983 0
M  V30 6205 H 585.774 3.76558 1.22558 0
M  V30 6206 H 586.948 4.32967 -1.57723 0
M  V30 6207 H 585.263 3.96381 -1.27559 0
M  V30 6208 H 587.86 5.20783 1.212 0
M  V30 6209 H 588.203 3.6699 1.9653 0
M  V30 6210 H 588.736 3.96721 0.29274 0
M  V30 6211 H 585.475 6.38633 -1.47743 0
M  V30 6212 H 584.995 5.99499 0.189842 0
M  V30 6213 H 586.674 6.46776 -0.170425 0
M  V30 6214 N 586.806 0.0935595 1.57322 0
M  V30 6215 C 588.046 -0.573901 1.96178 0
M  V30 6216 C 588.41 -1.65445 0.97426 0
M  V30 6217 O 589.611 -2.37901 1.25126 0
M  V30 6218 C 587.882 -1.11612 3.39526 0
M  V30 6219 S 589.441 -1.79566 4.00377 0
M  V30 6220 H 586.259 -0.187315 0.685882 0
M  V30 6221 H 588.861 0.172597 1.94737 0
M  V30 6222 H 587.565 -0.31815 4.09165 0
M  V30 6223 H 587.096 -1.89848 3.4456 0
M  V30 6224 H 589.111 -3.07978 3.89056 0
M  V30 6225 N 588.284 -1.56567 -0.180126 0
M  V30 6226 C 589.532 -1.81133 -0.896392 0
M  V30 6227 C 589.853 -0.669114 -1.83161 0
M  V30 6228 O 589.123 0.311616 -1.93406 0
M  V30 6229 H 587.703 -0.668172 -0.333999 0
M  V30 6230 H 590.365 -1.94048 -0.182051 0
M  V30 6231 H 589.461 -2.74854 -1.47857 0
M  V30 6232 N 589.762 0.448376 -1.51087 0
M  V30 6233 C 590.692 1.55102 -1.74544 0
M  V30 6234 C 591.673 1.59357 -0.594932 0
M  V30 6235 O 592.858 1.75261 -0.836491 0
M  V30 6236 C 589.988 2.93268 -1.86041 0
M  V30 6237 C 588.942 3.03877 -3.01402 0
M  V30 6238 C 588.268 4.43914 -2.98068 0
M  V30 6239 C 589.568 2.7898 -4.41551 0
M  V30 6240 H 591.262 1.35724 -2.66869 0
M  V30 6241 H 588.808 0.651498 -1.28419 0
M  V30 6242 H 590.761 3.70356 -2.01034 0
M  V30 6243 H 589.485 3.13853 -0.903548 0
M  V30 6244 H 588.144 2.29227 -2.86096 0
M  V30 6245 H 587.792 4.6145 -2.00182 0
M  V30 6246 H 587.492 4.51944 -3.75527 0
M  V30 6247 H 589.016 5.22991 -3.1514 0
M  V30 6248 H 590.43 3.45805 -4.57265 0
M  V30 6249 H 588.827 2.98431 -5.20633 0
M  V30 6250 H 589.897 1.74663 -4.5235 0
M  V30 6251 N 591.24 1.41047 0.703093 0
M  V30 6252 C 592.656 1.23351 1.01275 0
M  V30 6253 C 592.856 0.11754 2.01157 0
M  V30 6254 O 591.912 -0.520518 2.47077 0
M  V30 6255 C 593.225 2.58001 1.54454 0
M  V30 6256 C 594.773 2.65119 1.66376 0
M  V30 6257 C 595.248 4.00067 2.22958 0
M  V30 6258 N 596.739 4.01875 2.30328 0
M  V30 6259 C 597.474 5.03087 2.75119 0
M  V30 6260 N 596.97 6.14692 3.19571 0
M  V30 6261 N 598.763 4.90451 2.74616 0
M  V30 6262 H 590.914 2.1236 0.0412686 0
M  V30 6263 H 593.177 0.944543 0.08089 0
M  V30 6264 H 592.883 3.40378 0.88521 0
M  V30 6265 H 592.757 2.79962 2.52786 0
M  V30 6266 H 595.144 1.83106 2.31422 0
M  V30 6267 H 595.225 2.46975 0.666089 0
M  V30 6268 H 594.869 4.82526 1.58529 0
M  V30 6269 H 594.799 4.15547 3.23462 0
M  V30 6270 H 597.29 3.21291 1.98949 0
M  V30 6271 H 597.603 6.87799 3.52352 0
M  V30 6272 H 595.948 6.18239 3.17498 0
M  V30 6273 H 599.139 4.0235 2.39233 0
M  V30 6274 H 599.312 5.6947 3.09206 0
M  V30 6275 N 592.718 -0.936591 1.26751 0
M  V30 6276 C 593.966 -1.67998 1.12343 0
M  V30 6277 C 594.287 -1.92137 -0.332938 0
M  V30 6278 O 593.557 -1.52132 -1.23421 0
M  V30 6279 H 592.137 -0.622609 0.412756 0
M  V30 6280 H 594.799 -1.12509 1.59147 0
M  V30 6281 H 593.895 -2.65185 1.64571 0
M  V30 6282 N 594.196 -1.08629 -1.14182 0
M  V30 6283 C 595.129 -0.662329 -2.18377 0
M  V30 6284 C 596.107 0.327054 -1.59277 0
M  V30 6285 O 597.291 0.230376 -1.87087 0
M  V30 6286 C 594.418 0.0254765 -3.3869 0
M  V30 6287 C 593.464 -0.924414 -4.16361 0
M  V30 6288 S 594.297 -2.43226 -4.77076 0
M  V30 6289 C 595.453 -1.75663 -6.00744 0
M  V30 6290 H 595.686 -1.54501 -2.54001 0
M  V30 6291 H 593.219 -0.901484 -1.2535 0
M  V30 6292 H 595.177 0.416032 -4.08386 0
M  V30 6293 H 593.838 0.884689 -3.01384 0
M  V30 6294 H 593.031 -0.390099 -5.02488 0
M  V30 6295 H 592.633 -1.25598 -3.5228 0
M  V30 6296 H 594.925 -1.07589 -6.68903 0
M  V30 6297 H 595.868 -2.59673 -6.58768 0
M  V30 6298 H 596.276 -1.22903 -5.50958 0
M  V30 6299 N 595.674 1.31259 -0.872281 0
M  V30 6300 C 596.584 2.32221 -0.333255 0
M  V30 6301 C 597.6 1.6481 0.558013 0
M  V30 6302 O 598.776 1.96212 0.454175 0
M  V30 6303 C 595.841 3.43708 0.454479 0
M  V30 6304 C 594.902 4.26774 -0.465024 0
M  V30 6305 C 594.135 5.32937 0.28521 0
M  V30 6306 O 594.358 5.49968 1.513 0
M  V30 6307 O 593.292 6.00834 -0.358126 0
M  V30 6308 H 597.118 2.80252 -1.17016 0
M  V30 6309 H 594.703 1.352 -0.635724 0
M  V30 6310 H 596.585 4.11656 0.900963 0
M  V30 6311 H 595.26 2.97836 1.26789 0
M  V30 6312 H 594.167 3.61571 -0.960055 0
M  V30 6313 H 595.5 4.76217 -1.2441 0
M  V30 6314 N 597.152 0.631951 1.44375 0
M  V30 6315 C 598.062 -0.073674 2.34484 0
M  V30 6316 C 599.078 -0.834825 1.52665 0
M  V30 6317 O 600.254 -0.786902 1.85391 0
M  V30 6318 C 597.319 -1.04247 3.30656 0
M  V30 6319 C 596.38 -0.280602 4.28382 0
M  V30 6320 C 595.613 -1.20325 5.19959 0
M  V30 6321 O 595.836 -2.44199 5.15484 0
M  V30 6322 O 594.77 -0.687128 5.97965 0
M  V30 6323 H 598.596 0.667477 2.96274 0
M  V30 6324 H 596.181 0.392144 1.44162 0
M  V30 6325 H 598.063 -1.59981 3.89851 0
M  V30 6326 H 596.738 -1.76422 2.71398 0
M  V30 6327 H 595.645 0.319804 3.72731 0
M  V30 6328 H 596.978 0.401144 4.90563 0
M  V30 6329 N 598.631 -1.53133 0.372548 0
M  V30 6330 C 599.879 -2.00958 -0.214534 0
M  V30 6331 C 600.2 -1.26135 -1.48711 0
M  V30 6332 O 599.47 -0.376597 -1.92246 0
M  V30 6333 H 598.05 -0.742456 -0.0822664 0
M  V30 6334 H 600.712 -1.88367 0.500385 0
M  V30 6335 H 599.808 -3.09031 -0.436605 0
M  V30 6336 N 600.109 -0.101901 -1.5727 0
M  V30 6337 C 601.358 0.559922 -1.93772 0
M  V30 6338 C 601.671 1.68913 -0.98629 0
M  V30 6339 O 602.877 2.41256 -1.24529 0
M  V30 6340 C 601.333 1.04739 -3.44322 0
M  V30 6341 C 600.941 -0.05243 -4.47969 0
M  V30 6342 C 602.685 1.68157 -3.89774 0
M  V30 6343 C 600.592 0.450781 -5.8968 0
M  V30 6344 H 599.522 0.212931 -0.723309 0
M  V30 6345 H 602.173 -0.179001 -1.82625 0
M  V30 6346 H 600.555 1.84021 -3.50645 0
M  V30 6347 H 601.729 -0.828157 -4.53297 0
M  V30 6348 H 600.044 -0.592202 -4.12167 0
M  V30 6349 H 602.641 2.0689 -4.93052 0
M  V30 6350 H 602.984 2.55338 -3.28798 0
M  V30 6351 H 603.517 0.954453 -3.8618 0
M  V30 6352 H 600.256 -0.38458 -6.54371 0
M  V30 6353 H 599.776 1.19336 -5.87809 0
M  V30 6354 H 601.455 0.917555 -6.40461 0
M  V30 6355 N 601.587 1.56661 0.17182 0
M  V30 6356 C 602.864 1.72838 0.915778 0
M  V30 6357 C 603.244 0.66316 2.00413 0
M  V30 6358 O 602.592 -0.322123 2.26218 0
M  V30 6359 C 602.802 3.16019 1.48097 0
M  V30 6360 C 604.15 3.76962 1.95408 0
M  V30 6361 O 605.174 3.19294 1.57892 0
M  V30 6362 O 604.033 4.78219 2.64516 0
M  V30 6363 H 601.127 0.705797 0.431021 0
M  V30 6364 H 603.673 1.68947 0.159689 0
M  V30 6365 H 602.445 3.85031 0.697618 0
M  V30 6366 H 602.068 3.24234 2.30126 0
M  V30 6367 N 603.065 -0.440357 1.51323 0
M  V30 6368 C 604.028 -1.51679 1.71832 0
M  V30 6369 C 605.028 -1.49648 0.588386 0
M  V30 6370 O 606.218 -1.51724 0.855891 0
M  V30 6371 C 603.35 -2.91228 1.77199 0
M  V30 6372 H 604.543 -1.34799 2.67898 0
M  V30 6373 H 602.096 -0.66883 1.41267 0
M  V30 6374 H 602.831 -3.13516 0.829363 0
M  V30 6375 H 602.616 -2.94107 2.59314 0
M  V30 6376 H 604.106 -3.69321 1.94915 0
M  V30 6377 N 604.543 -1.41418 -0.695603 0
M  V30 6378 C 605.506 -1.42988 -1.79129 0
M  V30 6379 C 606.506 -0.320514 -1.57573 0
M  V30 6380 O 607.696 -0.58039 -1.64247 0
M  V30 6381 C 604.828 -1.24122 -3.175 0
M  V30 6382 H 606.021 -2.40526 -1.7913 0
M  V30 6383 H 603.574 -1.2756 -0.903225 0
M  V30 6384 H 604.309 -0.274253 -3.23138 0
M  V30 6385 H 604.094 -2.045 -3.34547 0
M  V30 6386 H 605.584 -1.28056 -3.97481 0
M  V30 6387 N 606.021 0.929856 -1.27246 0
M  V30 6388 C 606.951 2.04722 -1.12299 0
M  V30 6389 C 607.932 1.70082 -0.0250464 0
M  V30 6390 O 609.117 1.93176 -0.199141 0
M  V30 6391 C 606.247 3.38721 -0.767145 0
M  V30 6392 C 605.201 3.87466 -1.81808 0
M  V30 6393 C 604.527 5.18246 -1.31626 0
M  V30 6394 C 605.827 4.11095 -3.22177 0
M  V30 6395 H 607.521 2.17485 -2.05769 0
M  V30 6396 H 605.067 1.04503 -0.990715 0
M  V30 6397 H 607.02 4.16366 -0.649413 0
M  V30 6398 H 605.744 3.25967 0.203259 0
M  V30 6399 H 604.403 3.12012 -1.92468 0
M  V30 6400 H 604.051 5.01881 -0.335378 0
M  V30 6401 H 603.751 5.51829 -2.01887 0
M  V30 6402 H 605.275 5.98462 -1.21143 0
M  V30 6403 H 606.689 4.79316 -3.1453 0
M  V30 6404 H 605.086 4.55982 -3.90129 0
M  V30 6405 H 606.156 3.16468 -3.67391 0
M  V30 6406 N 607.499 1.09233 1.13605 0
M  V30 6407 C 608.724 0.849067 1.89224 0
M  V30 6408 C 609.149 -0.593875 1.78479 0
M  V30 6409 O 608.507 -1.41703 1.13092 0
M  V30 6410 C 608.555 1.28642 3.36873 0
M  V30 6411 O 607.659 0.44363 4.10007 0
M  V30 6412 H 607 0.30767 0.588417 0
M  V30 6413 H 609.53 1.45595 1.43748 0
M  V30 6414 H 609.54 1.27096 3.87699 0
M  V30 6415 H 608.215 2.33729 3.44011 0
M  V30 6416 H 606.792 0.523241 3.69211 0
M  V30 6417 N 608.977 -1.30795 0.87923 0
M  V30 6418 C 609.94 -2.26563 0.346676 0
M  V30 6419 C 610.94 -1.52578 -0.507597 0
M  V30 6420 O 612.13 -1.71318 -0.315575 0
M  V30 6421 C 609.262 -3.37115 -0.506611 0
M  V30 6422 H 610.455 -2.75183 1.19223 0
M  V30 6423 H 608.008 -1.41886 0.655598 0
M  V30 6424 H 608.743 -2.93802 -1.37299 0
M  V30 6425 H 608.528 -3.91959 0.105218 0
M  V30 6426 H 610.018 -4.08412 -0.871192 0
M  V30 6427 N 610.455 -0.639598 -1.44038 0
M  V30 6428 C 611.418 0.0506628 -2.29144 0
M  V30 6429 C 612.418 0.764001 -1.41491 0
M  V30 6430 O 613.608 0.607309 -1.63271 0
M  V30 6431 C 610.74 1.0824 -3.2326 0
M  V30 6432 H 611.933 -0.697987 -2.91664 0
M  V30 6433 H 609.486 -0.400146 -1.51091 0
M  V30 6434 H 610.221 1.86075 -2.65606 0
M  V30 6435 H 610.006 0.574725 -3.87865 0
M  V30 6436 H 611.496 1.56487 -3.87171 0
M  V30 6437 N 611.933 1.52934 -0.380664 0
M  V30 6438 C 612.896 2.24809 0.446473 0
M  V30 6439 C 613.896 1.26133 0.997347 0
M  V30 6440 O 615.086 1.50297 0.880714 0
M  V30 6441 C 612.218 2.99649 1.62553 0
M  V30 6442 H 613.411 2.99343 -0.182677 0
M  V30 6443 H 610.964 1.55736 -0.132618 0
M  V30 6444 H 611.699 2.29395 2.29235 0
M  V30 6445 H 611.484 3.72066 1.23732 0
M  V30 6446 H 612.974 3.54246 2.21133 0
M  V30 6447 N 613.412 0.11024 1.57214 0
M  V30 6448 C 614.375 -0.828808 2.1369 0
M  V30 6449 C 615.375 -1.20059 1.06969 0
M  V30 6450 O 616.565 -1.12754 1.32786 0
M  V30 6451 C 613.697 -2.11959 2.66994 0
M  V30 6452 H 614.89 -0.338146 2.97988 0
M  V30 6453 H 612.443 -0.138913 1.55681 0
M  V30 6454 H 613.178 -2.65476 1.8626 0
M  V30 6455 H 612.963 -1.86258 3.45037 0
M  V30 6456 H 614.453 -2.79105 3.10629 0
M  V30 6457 N 614.89 -1.56749 -0.16351 0
M  V30 6458 C 615.837 -1.97011 -1.2023 0
M  V30 6459 C 616.807 -0.835186 -1.43575 0
M  V30 6460 O 617.992 -1.09594 -1.56185 0
M  V30 6461 C 615.132 -2.34186 -2.53478 0
M  V30 6462 C 614.245 -3.60893 -2.37446 0
M  V30 6463 C 613.38 -3.87245 -3.63614 0
M  V30 6464 C 612.419 -5.07274 -3.42548 0
M  V30 6465 N 611.556 -5.29719 -4.60806 0
M  V30 6466 H 616.396 -2.85562 -0.851958 0
M  V30 6467 H 613.933 -1.41292 -0.409257 0
M  V30 6468 H 615.891 -2.53764 -3.31149 0
M  V30 6469 H 614.521 -1.48736 -2.86492 0
M  V30 6470 H 613.573 -3.49185 -1.50911 0
M  V30 6471 H 614.885 -4.48722 -2.1783 0
M  V30 6472 H 614.039 -4.07232 -4.49719 0
M  V30 6473 H 612.778 -2.97806 -3.86216 0
M  V30 6474 H 611.783 -4.87177 -2.5483 0
M  V30 6475 H 613.008 -5.98251 -3.2136 0
M  V30 6476 H 610.954 -4.43233 -4.83612 0
M  V30 6477 H 610.871 -6.11786 -4.44132 0
M  V30 6478 H 612.139 -5.54192 -5.48171 0
M  V30 6479 N 616.368 0.432326 -1.51554 0
M  V30 6480 C 617.278 1.55023 -1.76082 0
M  V30 6481 C 618.294 1.61593 -0.645265 0
M  V30 6482 O 619.47 1.78742 -0.928086 0
M  V30 6483 C 616.535 2.90964 -1.88523 0
M  V30 6484 C 615.596 2.9447 -3.12388 0
M  V30 6485 C 614.829 4.23926 -3.24225 0
M  V30 6486 O 615.052 5.16576 -2.4188 0
M  V30 6487 O 613.986 4.33818 -4.17235 0
M  V30 6488 H 617.812 1.37238 -2.70923 0
M  V30 6489 H 615.397 0.615845 -1.36117 0
M  V30 6490 H 617.279 3.71633 -1.98662 0
M  V30 6491 H 615.954 3.08865 -0.9687 0
M  V30 6492 H 614.861 2.12737 -3.07723 0
M  V30 6493 H 616.194 2.81514 -4.03746 0
M  V30 6494 N 617.846 1.41785 0.688094 0
M  V30 6495 C 619.094 1.41264 1.4453 0
M  V30 6496 C 619.415 0.0252946 1.94984 0
M  V30 6497 O 618.685 -0.934081 1.72197 0
M  V30 6498 H 617.265 0.519998 0.536294 0
M  V30 6499 H 619.927 1.7709 0.813941 0
M  V30 6500 H 619.023 2.10439 2.30482 0
M  V30 6501 N 619.324 -0.923095 1.27737 0
M  V30 6502 C 620.57 -1.67375 1.14514 0
M  V30 6503 C 620.903 -1.91751 -0.307424 0
M  V30 6504 O 620.178 -1.51119 -1.22447 0
M  V30 6505 C 620.461 -3.03745 1.9342 0
M  V30 6506 C 620.314 -2.86581 3.46686 0
M  V30 6507 C 621.633 -4.04144 1.74228 0
M  V30 6508 H 618.752 -0.607427 0.417374 0
M  V30 6509 H 621.394 -1.07089 1.56946 0
M  V30 6510 H 619.544 -3.55204 1.5736 0
M  V30 6511 H 621.216 -2.42203 3.92601 0
M  V30 6512 H 619.459 -2.21829 3.72793 0
M  V30 6513 H 620.13 -3.83381 3.97143 0
M  V30 6514 H 622.606 -3.61712 2.05678 0
M  V30 6515 H 621.482 -4.97543 2.31824 0
M  V30 6516 H 621.743 -4.36661 0.691373 0
M  V30 6517 N 620.802 -1.09834 -1.13024 0
M  V30 6518 C 622.03 -0.858902 -1.8823 0
M  V30 6519 C 622.445 0.590164 -1.79339 0
M  V30 6520 O 621.802 1.4065 -1.16292 0
M  V30 6521 C 621.853 -1.29066 -3.37675 0
M  V30 6522 O 621.574 -2.6829 -3.46341 0
M  V30 6523 C 623.075 -1.08421 -4.29837 0
M  V30 6524 H 620.295 -0.308713 -0.595766 0
M  V30 6525 H 622.839 -1.4614 -1.4305 0
M  V30 6526 H 620.994 -0.731961 -3.80422 0
M  V30 6527 H 621.408 -2.86598 -4.39274 0
M  V30 6528 H 622.882 -1.43553 -5.33007 0
M  V30 6529 H 623.359 -0.0223315 -4.39194 0
M  V30 6530 H 623.965 -1.62907 -3.92863 0
M  V30 6531 N 622.28 1.30327 -0.886154 0
M  V30 6532 C 623.526 1.96764 -0.515312 0
M  V30 6533 C 623.881 1.68675 0.925552 0
M  V30 6534 O 623.174 0.981693 1.6454 0
M  V30 6535 C 623.368 3.49906 -0.728042 0
M  V30 6536 C 623.197 3.92881 -2.18803 0
M  V30 6537 C 621.967 4.18424 -2.83284 0
M  V30 6538 C 624.165 4.05617 -3.16195 0
M  V30 6539 N 622.147 4.47867 -4.19867 0
M  V30 6540 C 623.518 4.38957 -4.37855 0
M  V30 6541 C 625.573 3.88047 -3.11968 0
M  V30 6542 C 624.276 4.56559 -5.55829 0
M  V30 6543 C 626.302 4.06851 -4.29215 0
M  V30 6544 C 625.664 4.40538 -5.49641 0
M  V30 6545 H 621.763 0.74493 -0.237916 0
M  V30 6546 H 624.347 1.57536 -1.14414 0
M  V30 6547 H 622.518 3.88187 -0.128696 0
M  V30 6548 H 624.25 4.03401 -0.323983 0
M  V30 6549 H 621.005 4.1167 -2.34146 0
M  V30 6550 H 621.429 4.66721 -4.90408 0
M  V30 6551 H 626.071 3.61078 -2.19961 0
M  V30 6552 H 623.789 4.8237 -6.4834 0
M  V30 6553 H 627.375 3.94724 -4.27416 0
M  V30 6554 H 626.255 4.54789 -6.38856 0
M  V30 6555 N 623.758 0.647228 1.43697 0
M  V30 6556 C 624.983 0.164083 2.0675 0
M  V30 6557 C 625.408 -1.15892 1.48158 0
M  V30 6558 O 624.766 -1.71459 0.589194 0
M  V30 6559 C 624.814 0.0800368 3.60511 0
M  V30 6560 O 623.918 -0.959453 4.01084 0
M  V30 6561 H 623.259 0.0921288 0.657578 0
M  V30 6562 H 625.789 0.88846 1.84303 0
M  V30 6563 H 625.799 -0.105263 4.07864 0
M  V30 6564 H 624.474 1.04586 4.02535 0
M  V30 6565 H 623.051 -0.747425 3.65333 0
M  V30 6566 N 625.236 -1.5273 0.388769 0
M  V30 6567 C 626.513 -1.93981 -0.251133 0
M  V30 6568 C 626.893 -1.32418 -1.64404 0
M  V30 6569 O 626.241 -0.492074 -2.23139 0
M  V30 6570 C 626.451 -3.47891 -0.27802 0
M  V30 6571 C 627.799 -4.21559 -0.507229 0
M  V30 6572 O 628.823 -3.54394 -0.358252 0
M  V30 6573 O 627.682 -5.40626 -0.799094 0
M  V30 6574 H 624.776 -0.812157 -0.15598 0
M  V30 6575 H 627.322 -1.63809 0.443237 0
M  V30 6576 H 626.094 -3.8503 0.697669 0
M  V30 6577 H 625.717 -3.84364 -1.01733 0
M  V30 6578 N 626.714 -0.118576 -1.57153 0
M  V30 6579 C 627.944 0.546466 -1.99242 0
M  V30 6580 C 628.352 1.60791 -0.997148 0
M  V30 6581 O 627.695 1.83691 0.0181745 0
M  V30 6582 C 627.757 1.23167 -3.37743 0
M  V30 6583 C 627.421 0.318226 -4.55891 0
M  V30 6584 C 628.418 -0.442988 -5.18009 0
M  V30 6585 C 626.103 0.229421 -5.01776 0
M  V30 6586 C 628.097 -1.28074 -6.244 0
M  V30 6587 C 625.784 -0.611966 -6.08028 0
M  V30 6588 C 626.782 -1.36568 -6.69207 0
M  V30 6589 O 626.47 -2.1931 -7.73407 0
M  V30 6590 H 626.202 0.149297 -0.659307 0
M  V30 6591 H 628.756 -0.201603 -2.04408 0
M  V30 6592 H 626.986 2.0268 -3.29329 0
M  V30 6593 H 628.675 1.79358 -3.64123 0
M  V30 6594 H 629.441 -0.38425 -4.83475 0
M  V30 6595 H 625.32 0.805771 -4.53903 0
M  V30 6596 H 628.864 -1.86952 -6.72082 0
M  V30 6597 H 624.761 -0.6721 -6.41991 0
M  V30 6598 H 625.529 -2.12247 -7.90502 0
M  V30 6599 N 628.193 1.56834 0.155195 0
M  V30 6600 C 629.125 1.94235 1.21677 0
M  V30 6601 C 630.138 0.83724 1.39621 0
M  V30 6602 O 631.327 1.11567 1.39338 0
M  V30 6603 C 628.427 2.19402 2.58294 0
M  V30 6604 C 627.6 3.50671 2.61436 0
M  V30 6605 C 626.659 3.64475 3.79532 0
M  V30 6606 O 625.685 4.36945 3.64784 0
M  V30 6607 N 626.887 3.00526 4.96653 0
M  V30 6608 H 629.652 2.85901 0.898932 0
M  V30 6609 H 627.213 1.58185 0.34483 0
M  V30 6610 H 629.205 2.25886 3.35794 0
M  V30 6611 H 627.775 1.34042 2.82403 0
M  V30 6612 H 626.995 3.55702 1.69912 0
M  V30 6613 H 628.283 4.3702 2.60559 0
M  V30 6614 H 627.681 2.41549 5.11538 0
M  V30 6615 H 626.238 3.12583 5.71958 0
M  V30 6616 N 629.671 -0.424282 1.51781 0
M  V30 6617 C 630.618 -1.51591 1.74037 0
M  V30 6618 C 631.588 -1.55556 0.582358 0
M  V30 6619 O 632.773 -1.72364 0.818245 0
M  V30 6620 C 629.913 -2.89188 1.8832 0
M  V30 6621 C 629.026 -2.9465 3.1592 0
M  V30 6622 C 628.161 -4.23452 3.20721 0
M  V30 6623 C 627.2 -4.22831 4.42584 0
M  V30 6624 N 626.337 -5.43178 4.44862 0
M  V30 6625 H 631.177 -1.31917 2.67212 0
M  V30 6626 H 628.714 -0.640599 1.32419 0
M  V30 6627 H 630.672 -3.69044 1.94583 0
M  V30 6628 H 629.302 -3.07392 0.985402 0
M  V30 6629 H 628.354 -2.07378 3.18902 0
M  V30 6630 H 629.666 -2.90055 4.05795 0
M  V30 6631 H 628.82 -5.1169 3.25973 0
M  V30 6632 H 627.559 -4.30722 2.28757 0
M  V30 6633 H 626.564 -3.32984 4.37495 0
M  V30 6634 H 627.789 -4.17213 5.35826 0
M  V30 6635 H 625.735 -5.51145 3.55775 0
M  V30 6636 H 625.652 -5.40515 5.28563 0
M  V30 6637 H 626.92 -6.33412 4.54324 0
M  V30 6638 N 631.149 -1.42148 -0.680565 0
M  V30 6639 C 632.426 -1.32795 -1.43614 0
M  V30 6640 C 632.806 0.037415 -2.11067 0
M  V30 6641 O 632.154 1.05258 -2.02813 0
M  V30 6642 C 632.364 -2.49206 -2.44331 0
M  V30 6643 C 633.712 -2.91059 -3.09144 0
M  V30 6644 O 634.736 -2.49054 -2.54657 0
M  V30 6645 O 633.595 -3.63741 -4.07866 0
M  V30 6646 H 630.689 -0.523397 -0.640301 0
M  V30 6647 H 633.235 -1.54144 -0.709775 0
M  V30 6648 H 632.007 -3.40252 -1.93247 0
M  V30 6649 H 631.63 -2.29813 -3.24456 0
M  V30 6650 N 632.627 0.916307 -1.28225 0
M  V30 6651 C 633.557 2.0352 -1.14464 0
M  V30 6652 C 634.538 1.70045 -0.0430844 0
M  V30 6653 O 635.723 1.92954 -0.219619 0
M  V30 6654 C 632.853 3.37889 -0.803027 0
M  V30 6655 C 631.807 3.85516 -1.85908 0
M  V30 6656 C 631.133 5.1682 -1.37116 0
M  V30 6657 C 632.433 4.07655 -3.26519 0
M  V30 6658 H 634.127 2.1529 -2.08064 0
M  V30 6659 H 631.673 1.03446 -1.00174 0
M  V30 6660 H 633.626 4.15654 -0.693537 0
M  V30 6661 H 632.35 3.26164 0.168674 0
M  V30 6662 H 631.009 3.09953 -1.95767 0
M  V30 6663 H 630.657 5.01497 -0.38859 0
M  V30 6664 H 630.357 5.49657 -2.07728 0
M  V30 6665 H 631.881 5.97143 -1.27484 0
M  V30 6666 H 633.295 4.75953 -3.19596 0
M  V30 6667 H 631.692 4.51818 -3.94943 0
M  V30 6668 H 632.762 3.12553 -3.70727 0
M  V30 6669 N 634.105 1.10431 1.1244 0
M  V30 6670 C 635.052 0.753103 2.18167 0
M  V30 6671 C 636.022 -0.270549 1.63882 0
M  V30 6672 O 637.207 -0.149837 1.90211 0
M  V30 6673 C 634.347 0.191046 3.44571 0
M  V30 6674 C 633.46 1.26999 4.12911 0
M  V30 6675 C 632.595 0.669586 5.26963 0
M  V30 6676 C 631.634 1.72912 5.87169 0
M  V30 6677 N 630.771 1.14898 6.92635 0
M  V30 6678 H 635.611 1.65892 2.47556 0
M  V30 6679 H 633.148 0.828631 1.21541 0
M  V30 6680 H 635.106 -0.152712 4.1692 0
M  V30 6681 H 633.736 -0.677997 3.15599 0
M  V30 6682 H 632.788 1.73087 3.3874 0
M  V30 6683 H 634.1 2.07204 4.53727 0
M  V30 6684 H 633.254 0.275274 6.06075 0
M  V30 6685 H 631.993 -0.163895 4.87425 0
M  V30 6686 H 630.998 2.13286 5.06744 0
M  V30 6687 H 632.223 2.56544 6.28778 0
M  V30 6688 H 630.169 0.336956 6.55134 0
M  V30 6689 H 630.086 1.88786 7.32049 0
M  V30 6690 H 631.354 0.78121 7.75576 0
M  V30 6691 N 635.583 -1.29855 0.893053 0
M  V30 6692 C 636.53 -2.27909 0.364161 0
M  V30 6693 C 637.5 -1.56726 -0.550093 0
M  V30 6694 O 638.685 -1.84747 -0.47677 0
M  V30 6695 C 635.825 -3.42678 -0.408178 0
M  V30 6696 C 634.938 -4.28659 0.536212 0
M  V30 6697 C 634.073 -5.30599 -0.252521 0
M  V30 6698 C 633.112 -6.08234 0.686822 0
M  V30 6699 N 632.249 -7.02068 -0.0670902 0
M  V30 6700 H 637.089 -2.72531 1.20544 0
M  V30 6701 H 634.626 -1.34047 0.605779 0
M  V30 6702 H 636.584 -4.07986 -0.871962 0
M  V30 6703 H 635.214 -2.99103 -1.21397 0
M  V30 6704 H 634.266 -3.63584 1.1185 0
M  V30 6705 H 635.578 -4.8274 1.25552 0
M  V30 6706 H 634.732 -6.01694 -0.777801 0
M  V30 6707 H 633.471 -4.77233 -1.005 0
M  V30 6708 H 632.476 -5.3601 1.22366 0
M  V30 6709 H 633.701 -6.63689 1.43852 0
M  V30 6710 H 631.647 -6.5108 -0.801955 0
M  V30 6711 H 631.564 -7.53675 0.59243 0
M  V30 6712 H 632.832 -7.77392 -0.572851 0
M  V30 6713 N 637.061 -0.65484 -1.43351 0
M  V30 6714 C 638.024 0.0263562 -2.29185 0
M  V30 6715 C 639.024 0.748951 -1.42293 0
M  V30 6716 O 640.214 0.589957 -1.63906 0
M  V30 6717 C 637.346 1.04806 -3.2439 0
M  V30 6718 H 638.539 -0.728883 -2.90908 0
M  V30 6719 H 636.092 -0.416149 -1.50658 0
M  V30 6720 H 636.827 1.83247 -2.67565 0
M  V30 6721 H 636.612 0.533554 -3.88453 0
M  V30 6722 H 638.102 1.52372 -3.88809 0
M  V30 6723 N 638.539 1.52521 -0.396863 0
M  V30 6724 C 639.787 2.01274 0.182536 0
M  V30 6725 C 640.108 1.28485 1.46685 0
M  V30 6726 O 639.378 0.407134 1.91623 0
M  V30 6727 H 637.958 0.743671 0.0704442 0
M  V30 6728 H 640.62 1.87547 -0.530289 0
M  V30 6729 H 639.716 3.09687 0.387385 0
M  V30 6730 N 640.017 0.126909 1.57088 0
M  V30 6731 C 641.433 -0.229641 1.57939 0
M  V30 6732 C 641.633 -1.66145 1.1401 0
M  V30 6733 O 640.689 -2.3843 0.831119 0
M  V30 6734 C 642.002 0.0108648 3.00698 0
M  V30 6735 C 643.55 -0.054418 3.12953 0
M  V30 6736 C 644.025 0.158497 4.57726 0
M  V30 6737 N 645.516 0.104735 4.63082 0
M  V30 6738 C 646.251 0.24427 5.72879 0
M  V30 6739 N 645.747 0.440415 6.91399 0
M  V30 6740 N 647.54 0.183286 5.61801 0
M  V30 6741 H 639.691 1.06203 1.83942 0
M  V30 6742 H 641.954 0.418834 0.85046 0
M  V30 6743 H 641.66 1.00102 3.37154 0
M  V30 6744 H 641.534 -0.717512 3.70313 0
M  V30 6745 H 643.921 -1.0351 2.7635 0
M  V30 6746 H 644.002 0.705967 2.45865 0
M  V30 6747 H 643.646 1.13619 4.95028 0
M  V30 6748 H 643.576 -0.62197 5.22914 0
M  V30 6749 H 646.067 -0.0430298 3.77876 0
M  V30 6750 H 646.38 0.537536 7.70928 0
M  V30 6751 H 644.725 0.476488 6.93365 0
M  V30 6752 H 647.916 0.0309561 4.6809 0
M  V30 6753 H 648.089 0.295471 6.47326 0
M  V30 6754 N 641.495 -1.56914 -0.146875 0
M  V30 6755 C 642.741 -1.84515 -0.855914 0
M  V30 6756 C 643.096 -0.710909 -1.78784 0
M  V30 6757 O 642.389 0.291123 -1.89375 0
M  V30 6758 C 642.583 -3.16128 -1.66727 0
M  V30 6759 C 642.412 -4.42246 -0.815405 0
M  V30 6760 C 641.182 -5.03006 -0.480976 0
M  V30 6761 C 643.38 -5.14094 -0.145684 0
M  V30 6762 N 641.362 -6.12695 0.384476 0
M  V30 6763 C 642.733 -6.17282 0.579902 0
M  V30 6764 C 644.788 -4.97856 -0.0663705 0
M  V30 6765 C 643.491 -7.0599 1.37731 0
M  V30 6766 C 645.517 -5.87028 0.71778 0
M  V30 6767 C 644.879 -6.89698 1.43165 0
M  V30 6768 H 640.978 -0.725829 -0.291026 0
M  V30 6769 H 643.562 -1.94322 -0.121279 0
M  V30 6770 H 641.733 -3.07468 -2.37315 0
M  V30 6771 H 643.465 -3.31635 -2.31949 0
M  V30 6772 H 640.22 -4.66504 -0.816789 0
M  V30 6773 H 640.644 -6.72158 0.80823 0
M  V30 6774 H 645.286 -4.18465 -0.603929 0
M  V30 6775 H 643.004 -7.84809 1.92613 0
M  V30 6776 H 646.59 -5.76532 0.781141 0
M  V30 6777 H 645.47 -7.57505 2.02868 0
M  V30 6778 N 642.974 0.416227 -1.52004 0
M  V30 6779 C 643.924 1.50558 -1.7122 0
M  V30 6780 C 644.908 1.50613 -0.56609 0
M  V30 6781 O 646.1 1.56709 -0.822874 0
M  V30 6782 C 643.229 2.88556 -1.85984 0
M  V30 6783 C 642.315 2.93177 -3.06445 0
M  V30 6784 N 642.706 2.67505 -4.29272 0
M  V30 6785 C 641.004 3.24343 -3.06133 0
M  V30 6786 C 641.705 2.78511 -5.10692 0
M  V30 6787 N 640.681 3.11087 -4.45787 0
M  V30 6788 H 644.483 1.29494 -2.63834 0
M  V30 6789 H 641.997 0.62384 -1.4994 0
M  V30 6790 H 643.994 3.66954 -1.97865 0
M  V30 6791 H 642.654 3.10624 -0.945654 0
M  V30 6792 H 643.665 2.42033 -4.57865 0
M  V30 6793 H 640.342 3.52051 -2.24425 0
M  V30 6794 H 641.732 2.62438 -6.18527 0
M  V30 6795 N 644.452 1.42507 0.673017 0
M  V30 6796 C 645.698 1.43284 1.43519 0
M  V30 6797 C 646.031 0.049668 1.94136 0
M  V30 6798 O 645.306 -0.926369 1.71022 0
M  V30 6799 C 645.589 2.45874 2.63093 0
M  V30 6800 C 645.442 3.93388 2.18096 0
M  V30 6801 C 646.761 2.45431 3.6531 0
M  V30 6802 H 643.88 0.521752 0.520522 0
M  V30 6803 H 646.522 1.73932 0.764701 0
M  V30 6804 H 644.672 2.19869 3.20296 0
M  V30 6805 H 646.344 4.30379 1.66046 0
M  V30 6806 H 644.587 4.07169 1.49652 0
M  V30 6807 H 645.258 4.60752 3.03993 0
M  V30 6808 H 647.734 2.68561 3.17827 0
M  V30 6809 H 646.61 3.19189 4.46553 0
M  V30 6810 H 646.871 1.48092 4.16559 0
M  V30 6811 N 645.93 -0.909495 1.28709 0
M  V30 6812 C 646.84 -2.04558 1.14861 0
M  V30 6813 C 647.856 -1.73842 0.0741621 0
M  V30 6814 O 649.032 -1.99383 0.2843 0
M  V30 6815 C 646.097 -3.36957 0.816148 0
M  V30 6816 C 645.158 -3.81255 1.97341 0
M  V30 6817 C 644.391 -5.07335 1.65671 0
M  V30 6818 O 644.614 -5.67514 0.573053 0
M  V30 6819 O 643.548 -5.47449 2.50167 0
M  V30 6820 H 647.374 -2.19161 2.10243 0
M  V30 6821 H 644.959 -1.03159 1.08068 0
M  V30 6822 H 646.841 -4.16436 0.644873 0
M  V30 6823 H 645.516 -3.2352 -0.107983 0
M  V30 6824 H 644.423 -3.02584 2.19986 0
M  V30 6825 H 645.756 -3.99261 2.87839 0
M  V30 6826 N 647.408 -1.11026 -1.11852 0
M  V30 6827 C 648.636 -0.878818 -1.87308 0
M  V30 6828 C 649.051 0.57111 -1.79955 0
M  V30 6829 O 648.408 1.39409 -1.17777 0
M  V30 6830 C 648.459 -1.3264 -3.36287 0
M  V30 6831 O 648.18 -2.71948 -3.43476 0
M  V30 6832 C 649.681 -1.12974 -4.28663 0
M  V30 6833 H 646.901 -0.315015 -0.592458 0
M  V30 6834 H 649.445 -1.47649 -1.41492 0
M  V30 6835 H 647.6 -0.772269 -3.79625 0
M  V30 6836 H 648.014 -2.91241 -4.3621 0
M  V30 6837 H 649.488 -1.49198 -5.31454 0
M  V30 6838 H 649.965 -0.0689127 -4.39146 0
M  V30 6839 H 650.571 -1.67064 -3.91113 0
M  V30 6840 N 648.886 1.2938 -0.899927 0
M  V30 6841 C 650.116 1.99402 -0.540601 0
M  V30 6842 C 650.524 1.67534 0.87914 0
M  V30 6843 O 649.867 0.916821 1.59186 0
M  V30 6844 C 649.929 3.53514 -0.653326 0
M  V30 6845 C 649.593 4.08937 -2.04009 0
M  V30 6846 C 650.59 4.23815 -3.01126 0
M  V30 6847 C 648.275 4.43962 -2.34953 0
M  V30 6848 C 650.269 4.72951 -4.27313 0
M  V30 6849 C 647.956 4.92795 -3.61382 0
M  V30 6850 C 648.954 5.07244 -4.57376 0
M  V30 6851 O 648.642 5.55017 -5.8156 0
M  V30 6852 H 648.374 0.64383 -0.206057 0
M  V30 6853 H 650.928 1.65878 -1.21134 0
M  V30 6854 H 649.158 3.86628 0.0744449 0
M  V30 6855 H 650.847 4.04767 -0.303118 0
M  V30 6856 H 651.613 3.97043 -2.78535 0
M  V30 6857 H 647.492 4.31974 -1.60994 0
M  V30 6858 H 651.036 4.84144 -5.02245 0
M  V30 6859 H 646.933 5.19004 -3.83804 0
M  V30 6860 H 647.701 5.73331 -5.84153 0
M  V30 6861 O 650.403 0.801822 1.40189 0
M  V30 6862 H 651.094 0.376359 1.90008 0
M  V30 END ATOM
M  V30 BEGIN BOND
M  V30 END BOND
M  V30 END CTAB
M  END
$$$$
