drugbank_target|P21980 Protein-glutamine gamma-glutamyltransferase 2 (DB04315; DB11254)
 OpenBabel12092119463D

  0  0  0     0  0            999 V3000
M  V30 BEGIN CTAB
M  V30 COUNTS 10771 10889 0 0 0
M  V30 BEGIN ATOM
M  V30 1 H -0.908 1.98254 -0.117106 0
M  V30 2 N 0 1.576 0 0
M  V30 3 C 0.933 2.03868 1.02534 0
M  V30 4 C 1.911 0.928543 1.3348 0
M  V30 5 O 3.095 1.19667 1.45644 0
M  V30 6 C 0.222 2.43627 2.35294 0
M  V30 7 C -0.732 3.65373 2.2001 0
M  V30 8 S 0.101 5.13292 1.52614 0
M  V30 9 C 1.257 5.56322 2.86805 0
M  V30 10 H 1.49 2.90518 0.631377 0
M  V30 11 H -0.977 1.52953 0.210867 0
M  V30 12 H 0.981 2.67203 3.11629 0
M  V30 13 H -0.358 1.57376 2.7183 0
M  V30 14 H -1.165 3.90944 3.18086 0
M  V30 15 H -1.563 3.418 1.51819 0
M  V30 16 H 0.729 5.58782 3.83104 0
M  V30 17 H 1.672 6.56266 2.65933 0
M  V30 18 H 2.08 4.83886 2.90714 0
M  V30 19 N 1.4781 -0.272755 1.55222 0
M  V30 20 C 2.4411 -1.32041 1.87344 0
M  V30 21 C 3.4411 -1.42342 0.74803 0
M  V30 22 O 4.6311 -1.41488 1.0162 0
M  V30 23 C 1.7631 -2.70173 2.07893 0
M  V30 24 H 2.9561 -1.04789 2.80997 0
M  V30 25 H 0.5091 -0.51083 1.47717 0
M  V30 26 H 1.2441 -3.02605 1.16622 0
M  V30 27 H 1.0291 -2.64082 2.89833 0
M  V30 28 H 2.5191 -3.45869 2.34017 0
M  V30 29 N 2.9562 -1.48159 -0.537278 0
M  V30 30 C 3.8662 -1.64807 -1.6696 0
M  V30 31 C 4.8822 -0.530651 -1.65711 0
M  V30 32 O 6.0582 -0.800784 -1.84796 0
M  V30 33 C 3.1232 -1.67708 -3.03438 0
M  V30 34 C 2.1842 -2.91025 -3.156 0
M  V30 35 C 1.4172 -2.93778 -4.45567 0
M  V30 36 O 1.6402 -2.05153 -5.3223 0
M  V30 37 O 0.5742 -3.85868 -4.61941 0
M  V30 38 H 4.4002 -2.6066 -1.55853 0
M  V30 39 H 1.9852 -1.31475 -0.709549 0
M  V30 40 H 3.8672 -1.7218 -3.84619 0
M  V30 41 H 2.5422 -0.750278 -3.14885 0
M  V30 42 H 1.4492 -2.92089 -2.33741 0
M  V30 43 H 2.7822 -3.83065 -3.09066 0
M  V30 44 N 4.4343 0.785586 -1.36625 0
M  V30 45 C 5.3443 1.92964 -1.33425 0
M  V30 46 C 6.3603 1.72394 -0.235851 0
M  V30 47 O 7.5363 1.95866 -0.468878 0
M  V30 48 C 4.6013 3.27884 -1.12662 0
M  V30 49 C 3.6623 3.61204 -2.32013 0
M  V30 50 C 2.8953 4.89687 -2.12231 0
M  V30 51 O 3.1183 5.59704 -1.09945 0
M  V30 52 O 2.0523 5.21752 -3.00098 0
M  V30 53 H 5.8783 1.98613 -2.29753 0
M  V30 54 H 3.4633 0.926384 -1.17211 0
M  V30 55 H 5.3453 4.08614 -1.03016 0
M  V30 56 H 4.0203 3.23118 -0.193991 0
M  V30 57 H 2.9273 2.80765 -2.47228 0
M  V30 58 H 4.2603 3.70698 -3.23796 0
M  V30 59 N 5.9124 1.20967 1.01018 0
M  V30 60 C 6.8424 0.988272 2.11555 0
M  V30 61 C 7.8234 -0.0849778 1.69888 0
M  V30 62 O 9.0084 0.0738202 1.9406 0
M  V30 63 C 6.1384 0.546528 3.42973 0
M  V30 64 C 5.0924 1.56375 3.9841 0
M  V30 65 C 4.4184 0.97842 5.25672 0
M  V30 66 C 5.7184 2.94922 4.31066 0
M  V30 67 H 7.4124 1.91276 2.30334 0
M  V30 68 H 4.9584 0.921073 1.1069 0
M  V30 69 H 6.9114 0.378839 4.19694 0
M  V30 70 H 5.6354 -0.413598 3.23971 0
M  V30 71 H 4.2944 1.71891 3.23804 0
M  V30 72 H 3.9424 0.0101688 5.02999 0
M  V30 73 H 3.6424 1.65784 5.63728 0
M  V30 74 H 5.1664 0.821939 6.05043 0
M  V30 75 H 6.5804 2.8288 4.9865 0
M  V30 76 H 4.9774 3.5983 4.80253 0
M  V30 77 H 6.0474 3.4616 3.39561 0
M  V30 78 N 7.3905 -1.2043 1.01659 0
M  V30 79 C 8.6365 -1.90079 0.706963 0
M  V30 80 C 8.9695 -1.78648 -0.761474 0
M  V30 81 O 8.2445 -1.17069 -1.55323 0
M  V30 82 C 8.5275 -3.41469 1.14327 0
M  V30 83 C 8.3805 -3.61833 2.67201 0
M  V30 84 C 9.6995 -4.34261 0.714529 0
M  V30 85 H 6.8185 -0.690254 0.2583 0
M  V30 86 H 9.4605 -1.41826 1.26433 0
M  V30 87 H 7.6105 -3.82696 0.669056 0
M  V30 88 H 9.2825 -3.2986 3.22475 0
M  V30 89 H 7.5255 -3.05304 3.08175 0
M  V30 90 H 8.1965 -4.67955 2.92783 0
M  V30 91 H 10.6725 -4.00682 1.12221 0
M  V30 92 H 9.5485 -5.38806 1.04784 0
M  V30 93 H 9.8095 -4.40431 -0.383799 0
M  V30 94 N 8.8686 -0.792821 -1.36206 0
M  V30 95 C 9.7986 -0.207853 -2.32573 0
M  V30 96 C 10.7796 0.659055 -1.56813 0
M  V30 97 O 11.9646 0.592176 -1.84951 0
M  V30 98 C 9.0946 0.655449 -3.41059 0
M  V30 99 C 8.0486 -0.111842 -4.27854 0
M  V30 100 C 7.3746 0.872274 -5.27537 0
M  V30 101 C 8.6746 -1.30299 -5.05786 0
M  V30 102 H 10.3686 -1.01294 -2.81744 0
M  V30 103 H 7.9146 -0.48854 -1.3546 0
M  V30 104 H 9.8676 1.07464 -4.07467 0
M  V30 105 H 8.5916 1.49328 -2.90463 0
M  V30 106 H 7.2506 -0.512053 -3.63006 0
M  V30 107 H 6.8986 1.70523 -4.73214 0
M  V30 108 H 6.5986 0.363291 -5.86476 0
M  V30 109 H 8.1226 1.28996 -5.96818 0
M  V30 110 H 9.5366 -0.959379 -5.65216 0
M  V30 111 H 7.9336 -1.7455 -5.74154 0
M  V30 112 H 9.0036 -2.09663 -4.37229 0
M  V30 113 N 10.3467 1.47872 -0.545128 0
M  V30 114 C 11.2567 2.33633 0.212746 0
M  V30 115 C 12.2727 1.4744 0.923983 0
M  V30 116 O 13.4487 1.80393 0.895572 0
M  V30 117 C 10.5137 3.23884 1.23693 0
M  V30 118 C 9.5747 4.25961 0.534417 0
M  V30 119 C 8.8077 5.11899 1.5098 0
M  V30 120 O 9.0307 5.00077 2.7437 0
M  V30 121 O 7.9647 5.92831 1.0409 0
M  V30 122 H 11.7907 2.99714 -0.490416 0
M  V30 123 H 9.3757 1.46235 -0.305871 0
M  V30 124 H 11.2577 3.79666 1.82843 0
M  V30 125 H 9.9327 2.60446 1.92222 0
M  V30 126 H 8.8397 3.73972 -0.0979679 0
M  V30 127 H 10.1727 4.92079 -0.109213 0
M  V30 128 N 11.8248 0.280983 1.55075 0
M  V30 129 C 13.2408 -0.0729964 1.59433 0
M  V30 130 C 13.4408 -1.5411 1.29817 0
M  V30 131 O 12.4968 -2.29086 1.06187 0
M  V30 132 C 13.8098 0.306921 2.9913 0
M  V30 133 C 15.3578 0.254023 3.11968 0
M  V30 134 C 15.8328 0.608467 4.5394 0
M  V30 135 N 17.3238 0.560241 4.59799 0
M  V30 136 C 18.0588 0.80722 5.6769 0
M  V30 137 N 17.5548 1.11912 6.83701 0
M  V30 138 N 19.3478 0.735623 5.57266 0
M  V30 139 H 11.4988 1.238 1.7259 0
M  V30 140 H 13.7618 0.500547 0.805082 0
M  V30 141 H 13.4678 1.32816 3.25657 0
M  V30 142 H 13.3418 -0.349363 3.75579 0
M  V30 143 H 15.7288 -0.75794 2.852 0
M  V30 144 H 15.8098 0.944649 2.37718 0
M  V30 145 H 15.4538 1.61814 4.81434 0
M  V30 146 H 15.3838 -0.104013 5.26497 0
M  V30 147 H 17.8748 0.329288 3.76463 0
M  V30 148 H 18.1878 1.29409 7.61888 0
M  V30 149 H 16.5328 1.15695 6.85303 0
M  V30 150 H 19.7238 0.491752 4.6551 0
M  V30 151 H 19.8968 0.931482 6.4127 0
M  V30 152 N 13.3029 -1.57598 0.00835791 0
M  V30 153 C 14.5429 -1.92788 -0.679136 0
M  V30 154 C 14.9069 -0.883378 -1.70471 0
M  V30 155 O 16.1079 -1.12079 -2.44319 0
M  V30 156 C 14.3789 -3.32994 -1.29807 0
M  V30 157 S 15.9379 -3.90082 -2.00952 0
M  V30 158 H 12.7559 -0.67475 -0.224127 0
M  V30 159 H 15.3579 -1.95385 0.0670497 0
M  V30 160 H 14.0619 -4.06846 -0.538922 0
M  V30 161 H 13.5929 -3.33791 -2.082 0
M  V30 162 H 15.6079 -3.71834 -3.28563 0
M  V30 163 N 14.781 0.264519 -1.55364 0
M  V30 164 C 16.058 1.01677 -1.67096 0
M  V30 165 C 16.438 2.03996 -0.543015 0
M  V30 166 O 15.786 2.23907 0.45585 0
M  V30 167 C 15.996 1.66596 -3.0667 0
M  V30 168 C 17.344 2.17442 -3.64697 0
M  V30 169 O 18.368 1.76568 -3.09358 0
M  V30 170 O 17.227 2.92439 -4.61673 0
M  V30 171 H 14.321 0.472161 -0.678965 0
M  V30 172 H 16.867 0.259703 -1.67701 0
M  V30 173 H 15.639 0.924962 -3.80211 0
M  V30 174 H 15.262 2.48968 -3.10001 0
M  V30 175 N 16.2591 1.48442 0.529413 0
M  V30 176 C 17.1891 1.65902 1.64313 0
M  V30 177 C 18.1701 0.507897 1.6234 0
M  V30 178 O 19.3551 0.740503 1.79528 0
M  V30 179 C 16.4851 1.69911 3.02898 0
M  V30 180 C 15.4391 2.8453 3.19729 0
M  V30 181 C 14.7651 2.73629 4.59381 0
M  V30 182 C 16.0651 4.25821 3.02447 0
M  V30 183 H 17.7591 2.5914 1.49955 0
M  V30 184 H 15.3051 1.24709 0.719982 0
M  V30 185 H 17.2581 1.80715 3.80684 0
M  V30 186 H 15.9821 0.732524 3.18279 0
M  V30 187 H 14.6411 2.73283 2.44361 0
M  V30 188 H 14.2891 1.74938 4.71599 0
M  V30 189 H 13.9891 3.50541 4.71588 0
M  V30 190 H 15.5131 2.86401 5.39265 0
M  V30 191 H 16.9271 4.37898 3.70024 0
M  V30 192 H 15.3241 5.03735 3.26146 0
M  V30 193 H 16.3941 4.42244 1.98867 0
M  V30 194 N 17.7372 -0.778329 1.37039 0
M  V30 195 C 18.6472 -1.92253 1.34446 0
M  V30 196 C 19.6632 -1.72267 0.244991 0
M  V30 197 O 20.8392 -1.95615 0.479258 0
M  V30 198 C 17.9042 -3.27282 1.144 0
M  V30 199 C 16.9652 -3.59969 2.33925 0
M  V30 200 C 16.1982 -4.88555 2.14825 0
M  V30 201 O 16.4212 -5.59113 1.12912 0
M  V30 202 O 15.3552 -5.20153 3.02861 0
M  V30 203 H 19.1812 -1.97392 2.30803 0
M  V30 204 H 16.7662 -0.920154 1.17701 0
M  V30 205 H 18.6482 -4.08062 1.05182 0
M  V30 206 H 17.3232 -3.23011 0.211124 0
M  V30 207 H 16.2302 -2.7945 2.48714 0
M  V30 208 H 17.5632 -3.68976 3.25757 0
M  V30 209 N 19.2153 -1.21501 -1.00376 0
M  V30 210 C 20.1453 -0.999478 -2.11028 0
M  V30 211 C 21.1263 0.0759671 -1.6993 0
M  V30 212 O 22.3113 -0.0841106 -1.94018 0
M  V30 213 C 19.4413 -0.564709 -3.42678 0
M  V30 214 C 18.3953 -1.58486 -3.97576 0
M  V30 215 C 17.7213 -1.00628 -5.25146 0
M  V30 216 C 19.0213 -2.97204 -4.29496 0
M  V30 217 H 20.7153 -1.92495 -2.29317 0
M  V30 218 H 18.2613 -0.92693 -1.102 0
M  V30 219 H 20.2143 -0.401091 -4.19487 0
M  V30 220 H 18.9383 0.396411 -3.24185 0
M  V30 221 H 17.5973 -1.73606 -3.22888 0
M  V30 222 H 17.2453 -0.0368439 -5.02987 0
M  V30 223 H 16.9453 -1.68771 -5.62841 0
M  V30 224 H 18.4693 -0.854015 -6.04598 0
M  V30 225 H 19.8833 -2.8552 -4.97143 0
M  V30 226 H 18.2803 -3.62372 -4.78338 0
M  V30 227 H 19.3503 -3.47956 -3.3772 0
M  V30 228 N 20.6934 1.19889 -1.02296 0
M  V30 229 C 21.6034 2.26571 -0.608508 0
M  V30 230 C 22.6194 1.70299 0.356964 0
M  V30 231 O 23.7954 2.00235 0.216326 0
M  V30 232 C 20.8604 3.46677 0.0402814 0
M  V30 233 C 19.9214 4.18153 -0.97194 0
M  V30 234 C 19.1544 5.32525 -0.354016 0
M  V30 235 O 19.3774 5.64112 0.844604 0
M  V30 236 O 18.3114 5.92242 -1.07391 0
M  V30 237 H 22.1374 2.64251 -1.49684 0
M  V30 238 H 19.7224 1.26629 -0.792809 0
M  V30 239 H 21.6044 4.19475 0.402324 0
M  V30 240 H 20.2794 3.10858 0.902707 0
M  V30 241 H 19.1864 3.47499 -1.38546 0
M  V30 242 H 20.5194 4.57927 -1.80454 0
M  V30 243 N 22.1715 0.800033 1.35784 0
M  V30 244 C 23.3995 0.389606 2.03199 0
M  V30 245 C 23.8145 -0.997375 1.60306 0
M  V30 246 O 23.1715 -1.64154 0.797481 0
M  V30 247 C 23.2225 0.455855 3.58614 0
M  V30 248 O 22.9435 1.78815 3.99946 0
M  V30 249 C 24.4445 0.0374032 4.43284 0
M  V30 250 H 21.6645 0.159132 0.651857 0
M  V30 251 H 24.2085 1.08183 1.73541 0
M  V30 252 H 22.3635 -0.188057 3.86943 0
M  V30 253 H 22.7775 1.74636 4.94573 0
M  V30 254 H 24.2515 0.134882 5.51835 0
M  V30 255 H 24.7285 -1.01651 4.27275 0
M  V30 256 H 25.3345 0.654215 4.20238 0
M  V30 257 N 23.6496 -1.47581 0.552962 0
M  V30 258 C 24.5976 -2.31648 -0.21023 0
M  V30 259 C 25.5916 -1.42663 -0.913432 0
M  V30 260 O 26.7976 -1.5945 -0.835201 0
M  V30 261 H 23.1726 -0.746989 -0.0866676 0
M  V30 262 H 25.1436 -2.93869 0.518051 0
M  V30 263 C 23.8926 -3.25226 -1.22976 0
M  V30 264 H 23.2156 -3.93658 -0.698077 0
M  V30 265 H 24.6556 -3.86889 -1.73473 0
M  V30 266 C 23.1146 -2.48448 -2.27542 0
M  V30 267 O 23.6446 -2.22585 -3.34393 0
M  V30 268 N 21.8506 -2.09532 -2.01357 0
M  V30 269 H 21.3976 -2.30765 -1.14478 0
M  V30 270 H 21.3556 -1.58476 -2.71538 0
M  V30 271 N 25.1277 -0.289203 -1.54924 0
M  V30 272 C 26.3757 0.322879 -1.99504 0
M  V30 273 C 26.6967 1.55313 -1.1791 0
M  V30 274 O 25.9667 1.94001 -0.272097 0
M  V30 275 H 24.5467 0.122291 -0.736922 0
M  V30 276 H 27.2087 -0.397802 -1.90797 0
M  V30 277 H 26.3047 0.603061 -3.06218 0
M  V30 278 N 26.6058 1.57591 -0.0167156 0
M  V30 279 C 28.0218 1.55946 0.339557 0
M  V30 280 C 28.2218 1.02109 1.73713 0
M  V30 281 O 27.2778 0.662303 2.43659 0
M  V30 282 C 28.5908 3.00037 0.199499 0
M  V30 283 C 30.1388 3.11805 0.273193 0
M  V30 284 C 30.6138 4.57713 0.162068 0
M  V30 285 N 32.1048 4.6268 0.219444 0
M  V30 286 C 32.8398 5.73185 0.157054 0
M  V30 287 N 32.3358 6.92786 0.0442936 0
M  V30 288 N 34.1288 5.61707 0.21014 0
M  V30 289 H 26.2798 1.90921 -0.930758 0
M  V30 290 H 28.5428 0.877674 -0.358319 0
M  V30 291 H 28.2488 3.4333 -0.76273 0
M  V30 292 H 28.1228 3.64387 0.974786 0
M  V30 293 H 30.5098 2.68433 1.22587 0
M  V30 294 H 30.5908 2.50201 -0.532256 0
M  V30 295 H 30.2348 5.01763 -0.78714 0
M  V30 296 H 30.1648 5.17283 0.986222 0
M  V30 297 H 32.6558 3.76649 0.307246 0
M  V30 298 H 32.9688 7.728 0.00304069 0
M  V30 299 H 31.3138 6.94999 0.00968457 0
M  V30 300 H 34.5048 4.6716 0.296546 0
M  V30 301 H 34.6778 6.47807 0.158054 0
M  V30 302 N 28.0839 -0.256276 1.55502 0
M  V30 303 C 29.3609 -1.00789 1.67633 0
M  V30 304 C 29.7409 -2.03706 0.553826 0
M  V30 305 O 29.0889 -2.24145 -0.443969 0
M  V30 306 C 29.2989 -1.64968 3.07549 0
M  V30 307 C 30.6469 -2.15505 3.65845 0
M  V30 308 O 31.6709 -1.74925 3.1029 0
M  V30 309 O 30.5299 -2.89986 4.63217 0
M  V30 310 H 27.6239 -0.468553 0.681459 0
M  V30 311 H 30.1699 -0.250806 1.67836 0
M  V30 312 H 28.9419 -0.904785 3.80696 0
M  V30 313 H 28.5649 -2.47321 3.11317 0
M  V30 314 N 29.562 -1.4872 -0.521534 0
M  V30 315 C 30.512 -1.60269 -1.62166 0
M  V30 316 C 31.496 -0.45935 -1.54204 0
M  V30 317 O 32.688 -0.711241 -1.62081 0
M  V30 318 C 29.817 -1.65344 -3.00859 0
M  V30 319 C 28.903 -2.85187 -3.13894 0
M  V30 320 N 29.294 -4.09509 -2.96877 0
M  V30 321 C 27.592 -2.82695 -3.44963 0
M  V30 322 C 28.293 -4.89959 -3.13552 0
M  V30 323 N 27.269 -4.22934 -3.41508 0
M  V30 324 H 31.071 -2.5413 -1.47632 0
M  V30 325 H 28.585 -1.45209 -0.727194 0
M  V30 326 H 30.582 -1.71713 -3.79895 0
M  V30 327 H 29.242 -0.726058 -3.16478 0
M  V30 328 H 30.253 -4.39814 -2.73467 0
M  V30 329 H 26.93 -1.99249 -3.66887 0
M  V30 330 H 28.32 -5.98654 -3.05061 0
M  V30 331 N 31.0401 0.771051 -1.3745 0
M  V30 332 C 31.9901 1.87456 -1.29785 0
M  V30 333 C 32.9741 1.59827 -0.185541 0
M  V30 334 O 34.1661 1.71945 -0.419997 0
M  V30 335 C 31.2951 3.24935 -1.1078 0
M  V30 336 C 30.3811 3.58514 -2.26558 0
M  V30 337 N 30.7721 3.6327 -3.5195 0
M  V30 338 C 29.0701 3.88683 -2.18727 0
M  V30 339 C 29.7711 3.93616 -4.283 0
M  V30 340 N 28.7471 4.09551 -3.57448 0
M  V30 341 H 32.5491 1.89386 -2.24745 0
M  V30 342 H 30.0631 0.967531 -1.30432 0
M  V30 343 H 32.0601 4.03881 -1.03374 0
M  V30 344 H 30.7201 3.24268 -0.16738 0
M  V30 345 H 31.7311 3.45458 -3.85848 0
M  V30 346 H 28.4081 3.95834 -1.32746 0
M  V30 347 H 29.7981 4.04066 -5.36824 0
M  V30 348 N 32.5182 1.22032 0.997298 0
M  V30 349 C 33.7462 1.06841 1.7718 0
M  V30 350 C 34.1612 -0.381325 1.84909 0
M  V30 351 O 33.5182 -1.26437 1.31605 0
M  V30 352 C 33.5692 1.66814 3.20711 0
M  V30 353 O 33.2902 3.06116 3.13408 0
M  V30 354 C 34.7912 1.56838 4.14628 0
M  V30 355 H 32.0112 0.374782 0.556578 0
M  V30 356 H 34.5552 1.61532 1.2541 0
M  V30 357 H 32.7102 1.16196 3.69564 0
M  V30 358 H 33.1242 3.34926 4.0364 0
M  V30 359 H 34.5982 2.03532 5.13107 0
M  V30 360 H 35.0752 0.524155 4.36061 0
M  V30 361 H 35.6812 2.06741 3.7167 0
M  V30 362 N 33.9963 -1.19345 1.0293 0
M  V30 363 C 34.9593 -2.20793 0.615069 0
M  V30 364 C 35.9593 -1.57553 -0.321533 0
M  V30 365 O 37.1493 -1.73862 -0.108483 0
M  V30 366 C 34.2813 -3.40754 -0.0999222 0
M  V30 367 H 35.4743 -2.58955 1.51269 0
M  V30 368 H 33.0273 -1.3303 0.820534 0
M  V30 369 H 33.7623 -3.0811 -1.01187 0
M  V30 370 H 33.5473 -3.87889 0.57309 0
M  V30 371 H 35.0373 -4.15898 -0.376645 0
M  V30 372 N 35.4744 -0.807222 -1.35358 0
M  V30 373 C 36.7514 -0.311126 -1.9311 0
M  V30 374 C 37.1314 1.19937 -1.73719 0
M  V30 375 O 36.4794 1.99918 -1.10657 0
M  V30 376 C 36.6894 -0.723226 -3.41424 0
M  V30 377 C 38.0374 -0.713078 -4.18569 0
M  V30 378 O 39.0614 -0.664811 -3.49941 0
M  V30 379 O 37.9204 -0.772022 -5.41019 0
M  V30 380 H 35.0144 -0.081526 -0.822972 0
M  V30 381 H 37.5604 -0.890962 -1.4443 0
M  V30 382 H 36.3324 -1.76426 -3.4927 0
M  V30 383 H 35.9554 -0.118232 -3.97424 0
M  V30 384 N 36.9525 1.47285 -0.560781 0
M  V30 385 C 37.8825 2.32857 0.173105 0
M  V30 386 C 38.8635 1.44009 0.905281 0
M  V30 387 O 40.0485 1.7286 0.885046 0
M  V30 388 C 37.1785 3.25861 1.20133 0
M  V30 389 C 36.1325 4.23978 0.585388 0
M  V30 390 C 35.4585 5.06332 1.7185 0
M  V30 391 C 36.7585 5.20242 -0.463178 0
M  V30 392 H 38.4525 2.94466 -0.541307 0
M  V30 393 H 35.9985 1.41601 -0.261764 0
M  V30 394 H 37.9515 3.84569 1.72293 0
M  V30 395 H 36.6755 2.62315 1.94573 0
M  V30 396 H 35.3345 3.66501 0.085054 0
M  V30 397 H 34.9825 4.39186 2.45203 0
M  V30 398 H 34.6825 5.72762 1.31213 0
M  V30 399 H 36.2065 5.67899 2.24329 0
M  V30 400 H 37.6205 5.73293 -0.027502 0
M  V30 401 H 36.0175 5.94896 -0.788627 0
M  V30 402 H 37.0875 4.65504 -1.35773 0
M  V30 403 N 38.4306 0.297415 1.54768 0
M  V30 404 C 39.6706 -0.313829 2.01976 0
M  V30 405 C 40.0346 -1.51366 1.1812 0
M  V30 406 O 41.2356 -2.19603 1.5501 0
M  V30 407 C 39.5066 -0.664964 3.51159 0
M  V30 408 S 41.0656 -1.25958 4.20333 0
M  V30 409 H 37.8836 -0.0965014 0.704421 0
M  V30 410 H 40.4856 0.424451 1.90837 0
M  V30 411 H 39.1896 0.21681 4.09827 0
M  V30 412 H 38.7206 -1.43413 3.66328 0
M  V30 413 H 40.7356 -2.54751 4.25813 0
M  V30 414 N 39.9087 -1.5758 0.0250728 0
M  V30 415 C 41.3247 -1.56124 -0.331282 0
M  V30 416 C 41.5247 -1.03029 -1.73169 0
M  V30 417 O 40.5807 -0.675215 -2.43305 0
M  V30 418 C 41.8937 -3.00139 -0.183584 0
M  V30 419 C 43.4417 -3.11946 -0.256654 0
M  V30 420 C 43.9167 -4.57793 -0.137792 0
M  V30 421 N 45.4077 -4.6279 -0.194904 0
M  V30 422 C 46.1427 -5.7326 -0.126655 0
M  V30 423 N 45.6387 -6.928 -0.00755288 0
M  V30 424 N 47.4317 -5.61811 -0.180348 0
M  V30 425 H 39.5827 -1.90424 0.94087 0
M  V30 426 H 41.8457 -0.875761 0.362968 0
M  V30 427 H 41.5517 -3.4292 0.780927 0
M  V30 428 H 41.4257 -3.64899 -0.955448 0
M  V30 429 H 43.8127 -2.69079 -1.21162 0
M  V30 430 H 43.8937 -2.49915 0.545517 0
M  V30 431 H 43.5377 -5.01339 0.813739 0
M  V30 432 H 43.4677 -5.17798 -0.958775 0
M  V30 433 H 45.9587 -3.76807 -0.287267 0
M  V30 434 H 46.2717 -7.72791 0.0379428 0
M  V30 435 H 44.6167 -6.94995 0.0271731 0
M  V30 436 H 47.8077 -4.6731 -0.271767 0
M  V30 437 H 47.9807 -6.47882 -0.123697 0
M  V30 438 N 41.3868 0.248026 -1.55636 0
M  V30 439 C 42.2968 1.32859 -1.93354 0
M  V30 440 C 43.3128 1.52719 -0.833838 0
M  V30 441 O 44.4888 1.66363 -1.13513 0
M  V30 442 C 41.5538 2.66337 -2.21958 0
M  V30 443 C 40.6148 2.55008 -3.45354 0
M  V30 444 C 39.8478 3.82121 -3.72584 0
M  V30 445 O 40.0708 4.83951 -3.01907 0
M  V30 446 O 39.0048 3.80822 -4.6611 0
M  V30 447 H 42.8308 1.03862 -2.85388 0
M  V30 448 H 40.4158 0.448686 -1.42503 0
M  V30 449 H 42.2978 3.45216 -2.4167 0
M  V30 450 H 40.9728 2.95068 -1.33103 0
M  V30 451 H 39.8798 1.7442 -3.30951 0
M  V30 452 H 41.2128 2.31222 -4.34508 0
M  V30 453 N 42.8649 1.48995 0.513639 0
M  V30 454 C 43.8119 1.6473 1.61656 0
M  V30 455 C 44.7819 0.488984 1.58739 0
M  V30 456 O 45.9669 0.714478 1.76918 0
M  V30 457 C 43.1069 1.7082 2.99858 0
M  V30 458 C 42.2199 2.9787 3.12885 0
M  V30 459 C 41.3549 2.95017 4.41744 0
M  V30 460 C 40.3939 4.16702 4.48359 0
M  V30 461 N 39.5309 4.11832 5.68629 0
M  V30 462 H 44.3709 2.58909 1.47547 0
M  V30 463 H 41.9079 1.28382 0.71808 0
M  V30 464 H 43.8659 1.72331 3.79944 0
M  V30 465 H 42.4959 0.801181 3.12699 0
M  V30 466 H 41.5479 3.06029 2.25944 0
M  V30 467 H 42.8599 3.8786 3.13633 0
M  V30 468 H 42.0139 2.95021 5.30139 0
M  V30 469 H 40.7529 2.02784 4.43542 0
M  V30 470 H 39.7579 4.16955 3.58369 0
M  V30 471 H 40.9829 5.10113 4.48287 0
M  V30 472 H 38.9289 3.22428 5.71293 0
M  V30 473 H 38.8459 4.95543 5.7094 0
M  V30 474 H 40.1139 4.1592 6.59266 0
M  V30 475 N 44.343 -0.763751 1.37857 0
M  V30 476 C 45.273 -1.89103 1.36975 0
M  V30 477 C 46.254 -1.68439 0.237152 0
M  V30 478 O 47.439 -1.8918 0.438713 0
M  V30 479 C 44.569 -3.26496 1.18395 0
M  V30 480 C 43.523 -3.61741 2.28751 0
M  V30 481 C 42.849 -4.97762 1.95286 0
M  V30 482 C 44.149 -3.67665 3.70972 0
M  V30 483 H 45.843 -1.90099 2.31307 0
M  V30 484 H 43.389 -0.91319 1.11341 0
M  V30 485 H 45.342 -4.05003 1.16406 0
M  V30 486 H 44.066 -3.25955 0.205215 0
M  V30 487 H 42.725 -2.85547 2.29909 0
M  V30 488 H 42.373 -4.93769 0.959221 0
M  V30 489 H 42.073 -5.22313 2.69189 0
M  V30 490 H 43.597 -5.7866 1.94898 0
M  V30 491 H 45.011 -4.36307 3.719 0
M  V30 492 H 43.408 -4.03718 4.43995 0
M  V30 493 H 44.478 -2.68134 4.0402 0
M  V30 494 N 45.8211 -1.22559 -0.990812 0
M  V30 495 C 47.0671 -1.05297 -1.73322 0
M  V30 496 C 47.4001 0.410655 -1.89808 0
M  V30 497 O 46.6751 1.30439 -1.44277 0
M  V30 498 C 46.9581 -1.76713 -3.13759 0
M  V30 499 C 46.8111 -3.30684 -3.04907 0
M  V30 500 C 48.1301 -1.52121 -4.12974 0
M  V30 501 H 45.2491 -0.38392 -0.629106 0
M  V30 502 H 47.8911 -1.50926 -1.15418 0
M  V30 503 H 46.0411 -1.37924 -3.63193 0
M  V30 504 H 47.7131 -3.7893 -2.63077 0
M  V30 505 H 45.9561 -3.60253 -2.41661 0
M  V30 506 H 46.6271 -3.75833 -4.04294 0
M  V30 507 H 49.1031 -1.85819 -3.72304 0
M  V30 508 H 47.9791 -2.04582 -5.0935 0
M  V30 509 H 48.2401 -0.454257 -4.3976 0
M  V30 510 N 47.2992 1.18797 -1.03562 0
M  V30 511 C 48.5452 1.8893 -0.737113 0
M  V30 512 C 48.8782 1.79837 0.732956 0
M  V30 513 O 48.1532 1.19525 1.5344 0
M  V30 514 C 48.4362 3.39607 -1.19745 0
M  V30 515 C 48.2892 3.57537 -2.72924 0
M  V30 516 C 49.6082 4.33069 -0.783526 0
M  V30 517 H 46.7272 0.686057 -0.269249 0
M  V30 518 H 49.3692 1.39797 -1.28673 0
M  V30 519 H 47.5192 3.81583 -0.729855 0
M  V30 520 H 49.1912 3.24688 -3.27682 0
M  V30 521 H 47.4342 3.00363 -3.12993 0
M  V30 522 H 48.1052 4.63238 -3.00191 0
M  V30 523 H 50.5812 3.98846 -1.18581 0
M  V30 524 H 49.4572 5.3707 -1.13343 0
M  V30 525 H 49.7182 4.40986 0.313681 0
M  V30 526 N 48.7773 0.814389 1.34928 0
M  V30 527 C 50.1933 0.499084 1.51596 0
M  V30 528 C 50.3933 -0.978319 1.76157 0
M  V30 529 O 49.4493 -1.76309 1.80752 0
M  V30 530 C 50.7623 1.35121 2.68631 0
M  V30 531 C 52.3103 1.34746 2.82511 0
M  V30 532 C 52.7853 2.18388 4.0258 0
M  V30 533 N 54.2763 2.15966 4.09772 0
M  V30 534 C 55.0113 2.77437 5.01813 0
M  V30 535 N 54.5073 3.47866 5.99134 0
M  V30 536 N 56.3003 2.67037 4.94619 0
M  V30 537 H 48.4513 1.7711 1.17243 0
M  V30 538 H 50.7143 0.754256 0.574284 0
M  V30 539 H 50.4203 2.40001 2.57085 0
M  V30 540 H 50.2943 1.00991 3.63429 0
M  V30 541 H 52.6813 0.30648 2.93504 0
M  V30 542 H 52.7623 1.72869 1.88547 0
M  V30 543 H 52.4063 3.2253 3.92347 0
M  V30 544 H 52.3363 1.77621 4.9574 0
M  V30 545 H 54.8273 1.64729 3.40107 0
M  V30 546 H 55.1403 3.92038 6.65977 0
M  V30 547 H 53.4853 3.51972 5.99284 0
M  V30 548 H 56.6763 2.11597 4.17546 0
M  V30 549 H 56.8493 3.15232 5.66156 0
M  V30 550 N 50.2554 -1.46986 0.568584 0
M  V30 551 C 51.6714 -1.57946 0.229189 0
M  V30 552 C 51.8714 -1.56567 -1.26843 0
M  V30 553 O 50.9274 -1.47511 -2.04931 0
M  V30 554 C 52.2404 -2.87963 0.865909 0
M  V30 555 C 53.7884 -3.01568 0.838188 0
M  V30 556 C 54.2634 -4.34301 1.45419 0
M  V30 557 N 55.7544 -4.40965 1.41788 0
M  V30 558 C 56.4894 -5.42256 1.86403 0
M  V30 559 N 55.9854 -6.50297 2.38926 0
M  V30 560 N 57.7784 -5.3337 1.77405 0
M  V30 561 H 49.9294 -1.46126 1.54146 0
M  V30 562 H 52.1924 -0.696156 0.643484 0
M  V30 563 H 51.8984 -2.94742 1.91886 0
M  V30 564 H 51.7724 -3.75423 0.365687 0
M  V30 565 H 54.1594 -2.94379 -0.206106 0
M  V30 566 H 54.2404 -2.1562 1.37629 0
M  V30 567 H 53.8844 -4.42247 2.49761 0
M  V30 568 H 53.8144 -5.19 0.891435 0
M  V30 569 H 56.3054 -3.63484 1.03381 0
M  V30 570 H 56.6184 -7.23777 2.70863 0
M  V30 571 H 54.9634 -6.51155 2.42944 0
M  V30 572 H 58.1544 -4.47865 1.3614 0
M  V30 573 H 58.3274 -6.12169 2.12492 0
M  V30 574 N 51.7335 -0.305618 -1.54608 0
M  V30 575 C 52.9815 0.301701 -1.99835 0
M  V30 576 C 53.3025 1.54054 -1.19551 0
M  V30 577 O 52.5725 1.93702 -0.292658 0
M  V30 578 H 51.1525 0.114468 -0.738178 0
M  V30 579 H 53.8145 -0.418016 -1.90364 0
M  V30 580 H 52.9105 0.570548 -3.06841 0
M  V30 581 N 53.2116 1.57565 -0.0334293 0
M  V30 582 C 54.1436 2.0739 0.975811 0
M  V30 583 C 55.1566 0.998166 1.2861 0
M  V30 584 O 56.3456 1.27426 1.25 0
M  V30 585 C 53.4456 2.4871 2.30209 0
M  V30 586 C 52.6186 3.79413 2.17634 0
M  V30 587 C 51.6776 4.07237 3.33233 0
M  V30 588 O 50.7036 4.77425 3.09927 0
M  V30 589 N 51.9056 3.5775 4.5716 0
M  V30 590 H 54.6706 2.94598 0.55066 0
M  V30 591 H 52.2316 1.61173 0.15323 0
M  V30 592 H 54.2236 2.64413 3.06378 0
M  V30 593 H 52.7936 1.66845 2.64351 0
M  V30 594 H 52.0136 3.73465 1.26165 0
M  V30 595 H 53.3016 4.65038 2.0644 0
M  V30 596 H 52.6996 3.00976 4.78989 0
M  V30 597 H 51.2566 3.78724 5.30482 0
M  V30 598 N 54.6897 -0.239769 1.55765 0
M  V30 599 C 56.1007 -0.808263 1.68297 0
M  V30 600 C 56.4517 -1.85736 0.632181 0
M  V30 601 O 55.5767 -2.15277 -0.220204 0
M  V30 602 C 56.1717 -1.47284 3.05111 0
M  V30 603 C 54.7307 -1.98895 3.19559 0
M  V30 604 C 53.8777 -0.842575 2.64189 0
M  V30 605 H 56.8287 -0.0154422 1.58692 0
M  V30 606 H 56.8497 -2.34111 2.99954 0
M  V30 607 H 56.3617 -0.709053 3.81568 0
M  V30 608 H 54.4627 -2.78132 2.47938 0
M  V30 609 H 54.5757 -2.18143 4.26556 0
M  V30 610 H 52.9397 -1.24501 2.22197 0
M  V30 611 H 53.7227 -0.0917552 3.43177 0
M  V30 612 N 56.1678 -1.49265 -0.50573 0
M  V30 613 C 57.4148 -1.58513 -1.26015 0
M  V30 614 C 57.7428 -0.26972 -1.92621 0
M  V30 615 O 56.9978 0.741997 -1.81088 0
M  V30 616 C 57.2968 -2.69008 -2.35308 0
M  V30 617 C 56.9628 -4.10662 -1.86192 0
M  V30 618 C 55.6248 -4.49212 -1.72516 0
M  V30 619 C 57.9768 -4.99336 -1.49375 0
M  V30 620 C 55.3048 -5.74214 -1.20394 0
M  V30 621 C 57.6568 -6.24852 -0.987072 0
M  V30 622 C 56.3208 -6.62236 -0.836669 0
M  V30 623 H 55.5908 -0.580041 -0.461122 0
M  V30 624 H 58.2378 -1.83078 -0.561665 0
M  V30 625 H 56.5428 -2.38396 -3.10926 0
M  V30 626 H 58.2398 -2.73373 -2.93374 0
M  V30 627 H 54.8298 -3.8023 -1.97795 0
M  V30 628 H 59.0138 -4.70212 -1.5879 0
M  V30 629 H 54.2698 -6.01883 -1.07458 0
M  V30 630 H 58.4438 -6.92944 -0.692983 0
M  V30 631 H 56.0708 -7.58979 -0.430607 0
M  V30 632 N 57.6459 0.756429 -1.3826 0
M  V30 633 C 58.8919 1.5168 -1.35517 0
M  V30 634 C 59.2469 1.9232 0.0554451 0
M  V30 635 O 58.5399 1.62352 1.01746 0
M  V30 636 C 58.7339 2.78313 -2.24224 0
M  V30 637 C 58.5629 2.50053 -3.7377 0
M  V30 638 C 57.3329 2.43414 -4.42807 0
M  V30 639 C 59.5309 2.1702 -4.66269 0
M  V30 640 N 57.5129 2.07398 -5.77805 0
M  V30 641 C 58.8839 1.91271 -5.89759 0
M  V30 642 C 60.9389 2.03305 -4.54501 0
M  V30 643 C 59.6419 1.53192 -7.02798 0
M  V30 644 C 61.6679 1.66627 -5.67441 0
M  V30 645 C 61.0299 1.4175 -6.8999 0
M  V30 646 H 57.1289 0.554735 -0.551174 0
M  V30 647 H 59.7129 0.881106 -1.73622 0
M  V30 648 H 57.8839 3.39696 -1.88311 0
M  V30 649 H 59.6159 3.44343 -2.12627 0
M  V30 650 H 56.3709 2.59789 -3.95988 0
M  V30 651 H 56.7949 1.92044 -6.4919 0
M  V30 652 H 61.4369 2.21215 -3.60311 0
M  V30 653 H 59.1549 1.34022 -7.96909 0
M  V30 654 H 62.7409 1.56652 -5.60314 0
M  V30 655 H 61.6209 1.1379 -7.759 0
M  V30 656 N 59.124 1.23083 0.984299 0
M  V30 657 C 60.054 1.03292 2.09411 0
M  V30 658 C 61.035 -0.048923 1.7003 0
M  V30 659 O 62.22 0.114967 1.93859 0
M  V30 660 C 59.35 0.619155 3.41736 0
M  V30 661 C 58.304 1.64791 3.95004 0
M  V30 662 C 57.63 1.0897 5.23478 0
M  V30 663 C 58.93 3.03999 4.24714 0
M  V30 664 H 60.624 1.96119 2.26225 0
M  V30 665 H 58.17 0.944344 1.08711 0
M  V30 666 H 60.123 0.467777 4.18796 0
M  V30 667 H 58.847 -0.344786 3.24775 0
M  V30 668 H 57.506 1.78721 3.20085 0
M  V30 669 H 57.154 0.11686 5.02864 0
M  V30 670 H 56.854 1.77704 5.60085 0
M  V30 671 H 58.378 0.950093 6.03163 0
M  V30 672 H 59.792 2.93393 4.92538 0
M  V30 673 H 58.189 3.69936 4.72512 0
M  V30 674 H 59.259 3.53285 3.32142 0
M  V30 675 N 60.6021 -1.18246 1.0419 0
M  V30 676 C 61.8301 -1.92195 0.766072 0
M  V30 677 C 62.2451 -1.76247 -0.676933 0
M  V30 678 O 61.6021 -1.09293 -1.46155 0
M  V30 679 C 61.6531 -3.43568 1.12442 0
M  V30 680 O 61.3741 -3.59015 2.51078 0
M  V30 681 C 62.8751 -4.34613 0.873275 0
M  V30 682 H 60.0951 -0.610114 0.279288 0
M  V30 683 H 62.6391 -1.50007 1.38989 0
M  V30 684 H 60.7941 -3.8354 0.545542 0
M  V30 685 H 61.2081 -4.5273 2.64831 0
M  V30 686 H 62.6821 -5.39374 1.17385 0
M  V30 687 H 63.1591 -4.38781 -0.191909 0
M  V30 688 H 63.7651 -4.00341 1.43551 0
M  V30 689 N 62.0802 -0.821533 -1.34494 0
M  V30 690 C 63.0102 -0.257138 -2.3208 0
M  V30 691 C 63.9912 0.625645 -1.58176 0
M  V30 692 O 65.1762 0.552811 -1.86166 0
M  V30 693 C 62.3062 0.582958 -3.42372 0
M  V30 694 C 61.2602 -0.202571 -4.2752 0
M  V30 695 C 60.5862 0.760179 -5.29269 0
M  V30 696 C 61.8862 -1.40998 -5.02908 0
M  V30 697 H 63.5802 -1.07247 -2.79532 0
M  V30 698 H 61.1262 -0.517163 -1.34393 0
M  V30 699 H 63.0792 0.987972 -4.09655 0
M  V30 700 H 61.8032 1.43133 -2.93565 0
M  V30 701 H 60.4622 -0.588936 -3.61838 0
M  V30 702 H 60.1102 1.60447 -4.76724 0
M  V30 703 H 59.8102 0.238809 -5.87115 0
M  V30 704 H 61.3342 1.16308 -5.9942 0
M  V30 705 H 62.7482 -1.07905 -5.63054 0
M  V30 706 H 61.1452 -1.86689 -5.70322 0
M  V30 707 H 62.2152 -2.1889 -4.32684 0
M  V30 708 N 63.5583 1.46682 -0.576371 0
M  V30 709 C 64.5083 2.27278 0.181288 0
M  V30 710 C 65.4923 1.35497 0.867721 0
M  V30 711 O 66.6843 1.59717 0.762863 0
M  V30 712 C 63.8133 3.21703 1.19841 0
M  V30 713 C 62.8993 4.20969 0.51442 0
M  V30 714 N 63.2903 5.03999 -0.426407 0
M  V30 715 C 61.5883 4.39373 0.765963 0
M  V30 716 C 62.2893 5.75812 -0.825565 0
M  V30 717 N 61.2653 5.43315 -0.176116 0
M  V30 718 H 65.0673 2.88863 -0.541785 0
M  V30 719 H 62.5813 1.57455 -0.397697 0
M  V30 720 H 64.5783 3.78145 1.75533 0
M  V30 721 H 63.2383 2.61677 1.92238 0
M  V30 722 H 64.2493 5.11659 -0.8016 0
M  V30 723 H 60.9263 3.90502 1.47698 0
M  V30 724 H 62.3163 6.52577 -1.59976 0
M  V30 725 N 65.0364 0.313813 1.54444 0
M  V30 726 C 66.2834 -0.291675 2.00388 0
M  V30 727 C 66.6114 -1.52904 1.2021 0
M  V30 728 O 65.8664 -1.93833 0.269707 0
M  V30 729 C 66.1654 -0.680386 3.50864 0
M  V30 730 C 65.8314 0.456699 4.48581 0
M  V30 731 C 64.4934 0.768824 4.75018 0
M  V30 732 C 66.8454 1.22098 5.06697 0
M  V30 733 C 64.1734 1.84812 5.56831 0
M  V30 734 C 66.5254 2.29029 5.89685 0
M  V30 735 C 65.1894 2.60834 6.14428 0
M  V30 736 H 64.4594 -0.106732 0.733273 0
M  V30 737 H 67.1064 0.43557 1.86481 0
M  V30 738 H 65.4114 -1.48791 3.62448 0
M  V30 739 H 67.1084 -1.16026 3.83847 0
M  V30 740 H 63.6984 0.203337 4.28117 0
M  V30 741 H 67.8824 0.993096 4.86263 0
M  V30 742 H 63.1384 2.09912 5.74236 0
M  V30 743 H 67.3124 2.887 6.33739 0
M  V30 744 H 64.9394 3.44596 6.77612 0
M  V30 745 N 66.5145 -1.57545 0.0417849 0
M  V30 746 C 67.4245 -2.14451 -0.951213 0
M  V30 747 C 68.4405 -1.09992 -1.34825 0
M  V30 748 O 69.6165 -1.42114 -1.42708 0
M  V30 749 C 66.6815 -2.67063 -2.21084 0
M  V30 750 C 65.7425 -3.86284 -1.87304 0
M  V30 751 C 64.9755 -4.36378 -3.07261 0
M  V30 752 O 65.1985 -3.85587 -4.20332 0
M  V30 753 O 64.1325 -5.28077 -2.88822 0
M  V30 754 H 67.9585 -2.99601 -0.497287 0
M  V30 755 H 65.5435 -1.48317 -0.179567 0
M  V30 756 H 67.4255 -3.00914 -2.95006 0
M  V30 757 H 66.1005 -1.84989 -2.65633 0
M  V30 758 H 65.0075 -3.57338 -1.10727 0
M  V30 759 H 66.3405 -4.6956 -1.47562 0
M  V30 760 N 67.9926 0.231505 -1.5589 0
M  V30 761 C 69.2406 0.955461 -1.78088 0
M  V30 762 C 69.5616 1.85262 -0.608533 0
M  V30 763 O 68.8316 1.92277 0.375035 0
M  V30 764 H 67.4116 0.355787 -0.656829 0
M  V30 765 H 70.0736 0.245751 -1.93344 0
M  V30 766 H 69.1696 1.56814 -2.69844 0
M  V30 767 N 69.4707 1.49531 0.497807 0
M  V30 768 C 70.8867 1.36365 0.829266 0
M  V30 769 C 71.0867 0.399184 1.97506 0
M  V30 770 O 70.1427 -0.167977 2.51941 0
M  V30 771 C 71.4557 2.77153 1.16647 0
M  V30 772 C 73.0037 2.85877 1.27449 0
M  V30 773 C 73.4787 4.2744 1.64497 0
M  V30 774 N 74.9697 4.30265 1.7154 0
M  V30 775 C 75.7047 5.3677 2.01656 0
M  V30 776 N 75.2007 6.53516 2.29976 0
M  V30 777 N 76.9937 5.24189 2.02934 0
M  V30 778 H 69.1447 2.10831 -0.257703 0
M  V30 779 H 71.4077 0.946534 -0.0527091 0
M  V30 780 H 71.1137 3.49442 0.397872 0
M  V30 781 H 70.9877 3.12722 2.10915 0
M  V30 782 H 73.3747 2.13824 2.0338 0
M  V30 783 H 73.4557 2.53887 0.312244 0
M  V30 784 H 73.0997 5.00021 0.891151 0
M  V30 785 H 73.0297 4.56896 2.61827 0
M  V30 786 H 75.5207 3.4607 1.51802 0
M  V30 787 H 75.8337 7.30506 2.52153 0
M  V30 788 H 74.1787 6.56737 2.27425 0
M  V30 789 H 77.3697 4.31988 1.80289 0
M  V30 790 H 77.5427 6.07286 2.26071 0
M  V30 791 N 70.9488 -0.749086 1.3866 0
M  V30 792 C 71.8968 -1.88428 1.36373 0
M  V30 793 C 72.8908 -1.67561 0.248929 0
M  V30 794 O 74.0968 -1.75074 0.41821 0
M  V30 795 H 70.4718 -0.620023 0.42553 0
M  V30 796 H 72.4428 -1.87473 2.32156 0
M  V30 797 C 71.1918 -3.25961 1.21014 0
M  V30 798 H 70.5148 -3.42607 2.06059 0
M  V30 799 H 71.9548 -4.05625 1.23469 0
M  V30 800 C 70.4138 -3.36799 -0.0825941 0
M  V30 801 O 70.9438 -3.87517 -1.05797 0
M  V30 802 N 69.1498 -2.90258 -0.140939 0
M  V30 803 H 68.6968 -2.49174 0.653477 0
M  V30 804 H 68.6548 -2.97889 -1.00545 0
M  V30 805 N 72.4269 -1.23603 -0.977757 0
M  V30 806 C 73.6569 -1.09487 -1.75203 0
M  V30 807 C 74.0649 0.356321 -1.85814 0
M  V30 808 O 73.4079 1.25816 -1.33851 0
M  V30 809 C 73.4699 -1.64905 -3.19447 0
M  V30 810 C 73.1339 -3.13688 -3.32338 0
M  V30 811 C 74.1309 -4.10953 -3.18455 0
M  V30 812 C 71.8159 -3.53449 -3.56902 0
M  V30 813 C 73.8099 -5.45962 -3.28944 0
M  V30 814 C 71.4969 -4.88602 -3.6703 0
M  V30 815 C 72.4949 -5.84668 -3.53062 0
M  V30 816 O 72.1829 -7.17365 -3.62826 0
M  V30 817 H 71.9149 -0.38367 -0.556573 0
M  V30 818 H 74.4689 -1.6398 -1.23693 0
M  V30 819 H 72.6989 -1.04835 -3.72218 0
M  V30 820 H 74.3879 -1.46226 -3.78646 0
M  V30 821 H 75.1539 -3.81577 -2.99372 0
M  V30 822 H 71.0329 -2.79188 -3.66844 0
M  V30 823 H 74.5769 -6.20925 -3.17958 0
M  V30 824 H 70.4739 -5.17653 -3.85623 0
M  V30 825 H 71.2419 -7.2515 -3.79605 0
M  V30 826 N 73.905 1.17692 -1.04816 0
M  V30 827 C 74.815 2.25229 -0.65643 0
M  V30 828 C 75.831 1.71018 0.320761 0
M  V30 829 O 77.007 2.00649 0.173805 0
M  V30 830 C 74.072 3.46684 -0.0332629 0
M  V30 831 C 73.133 4.15997 -1.06042 0
M  V30 832 C 72.366 5.31654 -0.466893 0
M  V30 833 O 72.589 5.65777 0.724758 0
M  V30 834 O 71.523 5.89831 -1.1993 0
M  V30 835 H 75.349 2.61016 -1.55255 0
M  V30 836 H 72.934 1.24919 -0.81949 0
M  V30 837 H 74.816 4.20234 0.313256 0
M  V30 838 H 73.491 3.12703 0.836566 0
M  V30 839 H 72.398 3.44482 -1.45886 0
M  V30 840 H 73.731 4.53996 -1.90127 0
M  V30 841 N 75.3831 0.828654 1.34056 0
M  V30 842 C 76.3461 0.259927 2.27721 0
M  V30 843 C 77.3461 -0.565478 1.50529 0
M  V30 844 O 78.5361 -0.38075 1.69988 0
M  V30 845 C 75.6681 -0.634944 3.34935 0
M  V30 846 H 76.8611 1.0863 2.79534 0
M  V30 847 H 74.4141 0.600951 1.44285 0
M  V30 848 H 75.1491 -1.48416 2.88346 0
M  V30 849 H 74.9341 -0.0444999 3.92075 0
M  V30 850 H 76.4241 -1.02648 4.04788 0
M  V30 851 N 76.8612 -1.46375 0.584142 0
M  V30 852 C 78.0862 -2.07268 0.0740405 0
M  V30 853 C 78.5112 -1.42979 -1.22223 0
M  V30 854 O 77.8692 -0.514092 -1.73859 0
M  V30 855 C 77.9172 -3.60518 -0.0767769 0
M  V30 856 O 77.0212 -3.96533 -1.13292 0
M  V30 857 H 76.3622 -0.660961 0.0634524 0
M  V30 858 H 78.8922 -1.87991 0.807492 0
M  V30 859 H 78.9022 -4.07021 -0.282489 0
M  V30 860 H 77.5772 -4.06702 0.86986 0
M  V30 861 H 76.1542 -3.61738 -0.905553 0
M  V30 862 N 78.3393 -0.321999 -1.54275 0
M  V30 863 C 79.5853 0.281461 -2.00837 0
M  V30 864 C 79.9183 1.51909 -1.20985 0
M  V30 865 O 79.1933 1.923 -0.291733 0
M  V30 866 C 79.4763 0.617162 -3.54772 0
M  V30 867 C 79.3293 -0.631064 -4.45351 0
M  V30 868 C 80.6483 1.43542 -4.16033 0
M  V30 869 H 77.7673 0.100826 -0.730071 0
M  V30 870 H 80.4093 -0.438268 -1.84876 0
M  V30 871 H 78.5593 1.23034 -3.68504 0
M  V30 872 H 80.2313 -1.26934 -4.43492 0
M  V30 873 H 78.4743 -1.26025 -4.15091 0
M  V30 874 H 79.1453 -0.351735 -5.50878 0
M  V30 875 H 81.6213 0.917134 -4.05867 0
M  V30 876 H 80.4973 1.63907 -5.23856 0
M  V30 877 H 80.7583 2.43108 -3.69257 0
M  V30 878 N 79.8174 1.5752 -0.0501392 0
M  V30 879 C 81.0944 1.83996 0.663685 0
M  V30 880 C 81.4744 0.938339 1.89099 0
M  V30 881 O 80.8224 -0.00087759 2.285 0
M  V30 882 C 81.0324 3.33702 1.02196 0
M  V30 883 C 82.3804 4.00691 1.40469 0
M  V30 884 O 83.4044 3.38321 1.11433 0
M  V30 885 O 82.2634 5.10658 1.94654 0
M  V30 886 H 79.3574 0.759385 0.32751 0
M  V30 887 H 81.9034 1.69514 -0.0794238 0
M  V30 888 H 80.6754 3.91015 0.149364 0
M  V30 889 H 80.2984 3.53368 1.82255 0
M  V30 890 N 81.2955 -0.223234 1.56011 0
M  V30 891 C 82.5205 -0.968978 1.83373 0
M  V30 892 C 82.9455 -1.77227 0.630254 0
M  V30 893 O 82.3035 -1.76345 -0.420959 0
M  V30 894 C 82.3515 -1.86363 3.08709 0
M  V30 895 O 81.4555 -2.95873 2.87285 0
M  V30 896 H 80.7965 -0.274461 0.604622 0
M  V30 897 H 83.3265 -0.237056 2.03222 0
M  V30 898 H 83.3365 -2.27376 3.38768 0
M  V30 899 H 82.0115 -1.27319 3.95933 0
M  V30 900 H 80.5885 -2.58818 2.68454 0
M  V30 901 N 82.7736 -1.49793 -0.48987 0
M  V30 902 C 83.7036 -1.70201 -1.59856 0
M  V30 903 C 84.6846 -0.55076 -1.60937 0
M  V30 904 O 85.8696 -0.787841 -1.77501 0
M  V30 905 C 82.9996 -1.77882 -2.98287 0
M  V30 906 C 81.9536 -2.92907 -3.12073 0
M  V30 907 C 81.2796 -2.85712 -4.51965 0
M  V30 908 C 82.5796 -4.3369 -2.91051 0
M  V30 909 H 84.2736 -2.63025 -1.43032 0
M  V30 910 H 81.8196 -1.26574 -0.686664 0
M  V30 911 H 83.7726 -1.90744 -3.75759 0
M  V30 912 H 82.4966 -0.816653 -3.16225 0
M  V30 913 H 81.1556 -2.79665 -2.37029 0
M  V30 914 H 80.8036 -1.8738 -4.66795 0
M  V30 915 H 80.5036 -3.62921 -4.62128 0
M  V30 916 H 82.0276 -3.00598 -5.31482 0
M  V30 917 H 83.4416 -4.47555 -3.58284 0
M  V30 918 H 81.8386 -5.12205 -3.12675 0
M  V30 919 H 82.9086 -4.47362 -1.87071 0
M  V30 920 N 84.2517 0.741722 -1.39055 0
M  V30 921 C 85.4797 1.53098 -1.39171 0
M  V30 922 C 85.8947 1.88794 0.0155099 0
M  V30 923 O 85.2517 1.53626 0.985159 0
M  V30 924 C 85.3027 2.82274 -2.2584 0
M  V30 925 O 85.0237 2.48097 -3.61081 0
M  V30 926 C 86.5247 3.76343 -2.34266 0
M  V30 927 H 83.7447 0.473335 -0.4756 0
M  V30 928 H 86.2887 0.917045 -1.82785 0
M  V30 929 H 84.4437 3.40015 -1.85656 0
M  V30 930 H 84.8577 3.31029 -4.06842 0
M  V30 931 H 86.3317 4.63898 -2.9917 0
M  V30 932 H 86.8087 4.17619 -1.35982 0
M  V30 933 H 87.4147 3.24523 -2.74891 0
M  V30 934 N 85.7298 1.2412 0.971189 0
M  V30 935 C 86.9768 1.07881 1.71371 0
M  V30 936 C 87.3048 -0.382901 1.90694 0
M  V30 937 O 86.5598 -1.29945 1.46331 0
M  V30 938 C 86.8588 1.75983 3.11071 0
M  V30 939 C 86.5248 3.25909 3.11599 0
M  V30 940 C 85.1868 3.66813 3.11451 0
M  V30 941 C 87.5388 4.21771 3.062 0
M  V30 942 C 84.8668 5.02021 3.03631 0
M  V30 943 C 87.2188 5.56982 2.99923 0
M  V30 944 C 85.8828 5.97237 2.98102 0
M  V30 945 H 85.1528 0.394764 0.62709 0
M  V30 946 H 87.7998 1.54176 1.13587 0
M  V30 947 H 86.1048 1.22072 3.72298 0
M  V30 948 H 87.8018 1.60887 3.6731 0
M  V30 949 H 84.3918 2.93353 3.12477 0
M  V30 950 H 88.5758 3.91172 3.05447 0
M  V30 951 H 83.8318 5.32411 3.0058 0
M  V30 952 H 88.0058 6.30969 2.94704 0
M  V30 953 H 85.6328 7.01967 2.91798 0
M  V30 954 N 87.2079 -1.17134 1.05439 0
M  V30 955 C 88.4329 -1.91913 0.786396 0
M  V30 956 C 88.8579 -1.7643 -0.652234 0
M  V30 957 O 88.2159 -1.08372 -1.45345 0
M  V30 958 C 88.2639 -3.40921 1.17497 0
M  V30 959 O 87.3679 -4.11244 0.308589 0
M  V30 960 H 86.7089 -0.598215 0.288158 0
M  V30 961 H 89.2389 -1.48457 1.4079 0
M  V30 962 H 89.2489 -3.91668 1.14281 0
M  V30 963 H 87.9239 -3.5151 2.22292 0
M  V30 964 H 86.5009 -3.70731 0.40157 0
M  V30 965 N 88.686 -0.835752 -1.33615 0
M  V30 966 C 89.932 -0.430596 -1.98176 0
M  V30 967 C 90.265 1.00684 -1.66061 0
M  V30 968 O 89.54 1.70339 -0.938877 0
M  V30 969 C 89.823 -0.648065 -3.5422 0
M  V30 970 C 89.676 -2.13255 -3.96033 0
M  V30 971 C 90.995 -0.0922113 -4.40003 0
M  V30 972 H 88.114 -0.157924 -0.719881 0
M  V30 973 H 90.756 -1.05069 -1.58305 0
M  V30 974 H 88.906 -0.120237 -3.88314 0
M  V30 975 H 90.578 -2.725 -3.72211 0
M  V30 976 H 88.821 -2.61823 -3.45878 0
M  V30 977 H 89.492 -2.23547 -5.04708 0
M  V30 978 H 91.968 -0.543343 -4.12537 0
M  V30 979 H 90.844 -0.274083 -5.48215 0
M  V30 980 H 91.105 1.00378 -4.30554 0
M  V30 981 N 90.1641 1.46063 -0.591896 0
M  V30 982 C 91.4101 2.02638 -0.0811191 0
M  V30 983 C 91.7431 1.4613 1.27905 0
M  V30 984 O 91.0181 0.629908 1.84017 0
M  V30 985 C 91.3011 3.60091 -0.0252436 0
M  V30 986 C 91.1541 4.26965 -1.41496 0
M  V30 987 C 92.4731 4.3496 0.670685 0
M  V30 988 H 89.5921 0.73635 -0.0309524 0
M  V30 989 H 92.2341 1.741 -0.760859 0
M  V30 990 H 90.3841 3.84535 0.553624 0
M  V30 991 H 92.0561 4.13756 -2.0397 0
M  V30 992 H 90.2991 3.85971 -1.98011 0
M  V30 993 H 90.9701 5.35781 -1.32825 0
M  V30 994 H 93.4461 4.15716 0.178825 0
M  V30 995 H 92.3221 5.44686 0.678837 0
M  V30 996 H 92.5831 4.06685 1.73379 0
M  V30 997 N 91.6422 0.330177 1.54103 0
M  V30 998 C 92.8702 -0.272179 2.05102 0
M  V30 999 C 93.2852 -1.45267 1.20595 0
M  V30 1000 O 92.6422 -1.8094 0.238144 0
M  V30 1001 C 92.6932 -0.70023 3.54653 0
M  V30 1002 O 92.4142 0.433301 4.35952 0
M  V30 1003 C 93.9152 -1.3647 4.21771 0
M  V30 1004 H 91.1352 -0.0549159 0.668749 0
M  V30 1005 H 93.6792 0.478285 1.98828 0
M  V30 1006 H 91.8342 -1.40066 3.61193 0
M  V30 1007 H 92.2482 0.0947539 5.24414 0
M  V30 1008 H 93.7222 -1.61509 5.27843 0
M  V30 1009 H 94.1992 -2.31409 3.73292 0
M  V30 1010 H 94.8052 -0.706675 4.19388 0
M  V30 1011 N 93.1203 -1.57491 0.0584922 0
M  V30 1012 C 94.3683 -1.92597 -0.612436 0
M  V30 1013 C 94.6893 -0.938162 -1.70949 0
M  V30 1014 O 93.9593 0.0158301 -1.95894 0
M  V30 1015 H 92.5393 -0.710964 -0.229214 0
M  V30 1016 H 95.2013 -1.94571 0.113218 0
M  V30 1017 H 94.2973 -2.94038 -1.04633 0
M  V30 1018 N 94.5984 0.214957 -1.56127 0
M  V30 1019 C 96.0094 0.781386 -1.69562 0
M  V30 1020 C 96.3604 1.84707 -0.66165 0
M  V30 1021 O 95.4854 2.156 0.185927 0
M  V30 1022 C 96.0804 1.42411 -3.07416 0
M  V30 1023 C 94.6394 1.93786 -3.22683 0
M  V30 1024 C 93.7864 0.800438 -2.65496 0
M  V30 1025 H 96.7374 -0.00980633 -1.58697 0
M  V30 1026 H 96.7584 2.29309 -3.0364 0
M  V30 1027 H 96.2704 0.64826 -3.82648 0
M  V30 1028 H 94.3714 2.74152 -2.52332 0
M  V30 1029 H 94.4844 2.1133 -4.29973 0
M  V30 1030 H 92.8484 1.2095 -2.2415 0
M  V30 1031 H 93.6314 0.0371471 -3.4328 0
M  V30 1032 N 96.0765 1.50051 0.48192 0
M  V30 1033 C 97.0395 1.67584 1.5636 0
M  V30 1034 C 98.0395 0.546894 1.51214 0
M  V30 1035 O 99.2295 0.813725 1.54026 0
M  V30 1036 C 96.3615 1.691 2.96003 0
M  V30 1037 H 97.5545 2.64078 1.42136 0
M  V30 1038 H 95.1075 1.39369 0.707533 0
M  V30 1039 H 95.8425 0.742589 3.15684 0
M  V30 1040 H 95.6275 2.51105 3.01146 0
M  V30 1041 H 97.1175 1.84656 3.74556 0
M  V30 1042 N 97.5546 -0.734337 1.39446 0
M  V30 1043 C 98.9656 -1.31264 1.32766 0
M  V30 1044 C 99.3166 -1.96198 -0.00767497 0
M  V30 1045 O 98.4416 -1.96346 -0.909796 0
M  V30 1046 C 99.0366 -2.38682 2.4045 0
M  V30 1047 C 97.5956 -2.92184 2.37288 0
M  V30 1048 C 96.7426 -1.6576 2.22304 0
M  V30 1049 H 99.6936 -0.531799 1.49525 0
M  V30 1050 H 99.7146 -3.19087 2.07276 0
M  V30 1051 H 99.2266 -1.91392 3.37625 0
M  V30 1052 H 97.3276 -3.43752 1.43754 0
M  V30 1053 H 97.4406 -3.45253 3.3217 0
M  V30 1054 H 95.8046 -1.9012 1.69489 0
M  V30 1055 H 96.5876 -1.20521 3.21449 0
M  V30 1056 N 99.0327 -1.24633 -0.964593 0
M  V30 1057 C 100.258 -1.11596 -1.74818 0
M  V30 1058 C 100.683 0.32723 -1.85232 0
M  V30 1059 O 100.041 1.23695 -1.32549 0
M  V30 1060 C 100.089 -1.76397 -3.1451 0
M  V30 1061 O 99.1927 -1.03685 -3.99153 0
M  V30 1062 H 98.5337 -0.390196 -0.537255 0
M  V30 1063 H 101.064 -1.65002 -1.20977 0
M  V30 1064 H 101.074 -1.8228 -3.65018 0
M  V30 1065 H 99.7487 -2.81401 -3.06246 0
M  V30 1066 H 98.3257 -1.05611 -3.57632 0
M  V30 1067 N 100.511 1.16574 -1.06058 0
M  V30 1068 C 101.443 2.2045 -0.627239 0
M  V30 1069 C 102.456 1.59752 0.313534 0
M  V30 1070 O 103.645 1.78192 0.104896 0
M  V30 1071 C 100.745 3.3875 0.100974 0
M  V30 1072 C 99.9178 4.29008 -0.852687 0
M  V30 1073 C 98.9768 5.25944 -0.164152 0
M  V30 1074 O 98.0028 5.63535 -0.801047 0
M  V30 1075 N 99.2048 5.70075 1.09518 0
M  V30 1076 H 101.97 2.58249 -1.52077 0
M  V30 1077 H 99.5308 1.3156 -0.943594 0
M  V30 1078 H 101.523 4.00638 0.57194 0
M  V30 1079 H 100.093 2.99476 0.89628 0
M  V30 1080 H 99.3128 3.64419 -1.50308 0
M  V30 1081 H 100.601 4.86195 -1.49972 0
M  V30 1082 H 99.9988 5.41624 1.6328 0
M  V30 1083 H 98.5558 6.34067 1.51006 0
M  V30 1084 N 101.989 0.842826 1.3317 0
M  V30 1085 C 102.899 0.281444 2.32906 0
M  V30 1086 C 103.915 -0.594587 1.63526 0
M  V30 1087 O 105.091 -0.49777 1.95152 0
M  V30 1088 C 102.156 -0.530929 3.42611 0
M  V30 1089 C 101.217 0.369843 4.27704 0
M  V30 1090 C 100.45 -0.403853 5.3217 0
M  V30 1091 O 100.673 -1.63513 5.46461 0
M  V30 1092 O 99.6069 0.224199 6.01482 0
M  V30 1093 H 103.433 1.10744 2.82789 0
M  V30 1094 H 101.018 0.60545 1.36582 0
M  V30 1095 H 102.9 -0.992437 4.09547 0
M  V30 1096 H 101.575 -1.33392 2.94938 0
M  V30 1097 H 100.482 0.879275 3.6362 0
M  V30 1098 H 101.815 1.13771 4.78871 0
M  V30 1099 N 103.467 -1.45747 0.599634 0
M  V30 1100 C 104.43 -2.28917 -0.113835 0
M  V30 1101 C 105.43 -1.3933 -0.802729 0
M  V30 1102 O 106.62 -1.61534 -0.652103 0
M  V30 1103 C 103.752 -3.20152 -1.17114 0
M  V30 1104 H 104.945 -2.93478 0.617289 0
M  V30 1105 H 102.498 -1.52137 0.358327 0
M  V30 1106 H 103.233 -2.60374 -1.93329 0
M  V30 1107 H 103.018 -3.86133 -0.681468 0
M  V30 1108 H 104.508 -3.82708 -1.67105 0
M  V30 1109 N 104.945 -0.338344 -1.53925 0
M  V30 1110 C 106.193 0.259245 -2.0043 0
M  V30 1111 C 106.514 1.51484 -1.22791 0
M  V30 1112 O 105.784 1.93037 -0.33368 0
M  V30 1113 H 104.364 0.0987845 -0.740439 0
M  V30 1114 H 107.026 -0.458302 -1.89435 0
M  V30 1115 H 106.122 0.505334 -3.07982 0
M  V30 1116 N 106.423 1.57458 -0.0668435 0
M  V30 1117 C 107.651 1.97624 0.612565 0
M  V30 1118 C 108.066 0.94502 1.63447 0
M  V30 1119 O 107.423 -0.0689276 1.8237 0
M  V30 1120 C 107.474 3.37869 1.28555 0
M  V30 1121 O 107.195 4.3704 0.304557 0
M  V30 1122 C 108.696 3.92882 2.05325 0
M  V30 1123 H 105.916 0.650045 0.166381 0
M  V30 1124 H 108.46 2.04035 -0.137782 0
M  V30 1125 H 106.615 3.3256 1.98702 0
M  V30 1126 H 107.029 5.18565 0.786779 0
M  V30 1127 H 108.503 4.93247 2.47812 0
M  V30 1128 H 108.98 3.29156 2.9078 0
M  V30 1129 H 109.586 4.01577 1.40056 0
M  V30 1130 N 107.901 -0.206675 1.56239 0
M  V30 1131 C 108.848 -1.25617 1.93621 0
M  V30 1132 C 109.818 -1.45824 0.795274 0
M  V30 1133 O 111.003 -1.59148 1.05245 0
M  V30 1134 C 108.143 -2.59839 2.27107 0
M  V30 1135 C 107.256 -2.47308 3.54207 0
M  V30 1136 C 106.391 -3.74155 3.7707 0
M  V30 1137 C 105.43 -3.56407 4.97635 0
M  V30 1138 N 104.567 -4.75238 5.1681 0
M  V30 1139 H 109.407 -0.930383 2.83104 0
M  V30 1140 H 106.944 -0.448065 1.4011 0
M  V30 1141 H 108.902 -3.38021 2.44535 0
M  V30 1142 H 107.532 -2.90485 1.40778 0
M  V30 1143 H 106.584 -1.60483 3.4489 0
M  V30 1144 H 107.896 -2.30122 4.42544 0
M  V30 1145 H 107.05 -4.60778 3.94675 0
M  V30 1146 H 105.789 -3.94282 2.87042 0
M  V30 1147 H 104.794 -2.68168 4.79964 0
M  V30 1148 H 106.019 -3.37736 5.89161 0
M  V30 1149 H 103.965 -4.95651 4.29728 0
M  V30 1150 H 103.882 -4.60835 5.99306 0
M  V30 1151 H 105.15 -5.63246 5.38864 0
M  V30 1152 N 109.379 -1.50304 -0.473955 0
M  V30 1153 C 110.342 -1.6841 -1.55469 0
M  V30 1154 C 111.342 -0.554905 -1.50922 0
M  V30 1155 O 112.532 -0.821882 -1.53593 0
M  V30 1156 C 109.664 -1.70667 -2.95102 0
M  V30 1157 H 110.857 -2.64828 -1.40733 0
M  V30 1158 H 108.41 -1.39742 -0.700132 0
M  V30 1159 H 109.145 -0.75932 -3.15285 0
M  V30 1160 H 108.93 -2.52698 -2.9981 0
M  V30 1161 H 110.42 -1.8664 -3.73571 0
M  V30 1162 N 110.857 0.726932 -1.39834 0
M  V30 1163 C 112.273 1.03354 -1.21615 0
M  V30 1164 C 112.473 2.01327 -0.08338 0
M  V30 1165 O 111.529 2.46158 0.56238 0
M  V30 1166 C 112.842 1.58811 -2.55342 0
M  V30 1167 C 114.39 1.70851 -2.62257 0
M  V30 1168 C 114.865 2.29716 -3.96225 0
M  V30 1169 N 116.356 2.37116 -3.97907 0
M  V30 1170 C 117.091 2.83619 -4.98345 0
M  V30 1171 N 116.587 3.29958 -6.09179 0
M  V30 1172 N 118.38 2.82901 -4.8572 0
M  V30 1173 H 110.531 0.0773069 -2.12259 0
M  V30 1174 H 112.794 0.0969102 -0.943034 0
M  V30 1175 H 112.5 0.942855 -3.38826 0
M  V30 1176 H 112.374 2.57502 -2.75632 0
M  V30 1177 H 114.761 2.34497 -1.79152 0
M  V30 1178 H 114.842 0.707913 -2.45809 0
M  V30 1179 H 114.486 1.66696 -4.79765 0
M  V30 1180 H 114.416 3.30469 -4.09997 0
M  V30 1181 H 116.907 2.04374 -3.17868 0
M  V30 1182 H 117.22 3.63976 -6.8172 0
M  V30 1183 H 115.565 3.27946 -6.12761 0
M  V30 1184 H 118.756 2.46027 -3.98231 0
M  V30 1185 H 118.929 3.18827 -5.6414 0
M  V30 1186 N 112.336 1.25143 0.95797 0
M  V30 1187 C 113.583 1.09692 1.70217 0
M  V30 1188 C 113.911 -0.362654 1.91089 0
M  V30 1189 O 113.166 -1.28386 1.47701 0
M  V30 1190 C 113.465 1.79272 3.09187 0
M  V30 1191 C 113.131 3.29196 3.08125 0
M  V30 1192 C 111.793 3.70096 3.07543 0
M  V30 1193 C 114.145 4.24995 3.0171 0
M  V30 1194 C 111.473 5.05213 2.9829 0
M  V30 1195 C 113.825 5.60132 2.93999 0
M  V30 1196 C 112.489 6.00365 2.9175 0
M  V30 1197 H 111.759 0.401393 0.622868 0
M  V30 1198 H 114.406 1.55372 1.11945 0
M  V30 1199 H 112.711 1.26014 3.70982 0
M  V30 1200 H 114.408 1.64773 3.65583 0
M  V30 1201 H 110.998 2.96651 3.09348 0
M  V30 1202 H 115.182 3.9439 3.01281 0
M  V30 1203 H 110.438 5.35569 2.94916 0
M  V30 1204 H 114.612 6.3406 2.87996 0
M  V30 1205 H 112.239 7.05023 2.84336 0
M  V30 1206 N 113.814 -1.1601 1.06675 0
M  V30 1207 C 115.225 -1.68235 0.809565 0
M  V30 1208 C 115.576 -1.8454 -0.666303 0
M  V30 1209 O 114.701 -1.54374 -1.5165 0
M  V30 1210 C 115.296 -3.05585 1.46299 0
M  V30 1211 C 113.855 -3.54915 1.25349 0
M  V30 1212 C 113.002 -2.30804 1.53703 0
M  V30 1213 H 115.953 -1.00318 1.22971 0
M  V30 1214 H 115.974 -3.70174 0.880431 0
M  V30 1215 H 115.486 -2.93686 2.53713 0
M  V30 1216 H 113.587 -3.72067 0.199261 0
M  V30 1217 H 113.7 -4.36774 1.9689 0
M  V30 1218 H 112.064 -2.36007 0.957739 0
M  V30 1219 H 112.847 -2.21499 2.62284 0
M  V30 1220 N 115.292 -0.849877 -1.32721 0
M  V30 1221 C 116.222 -0.306308 -2.31482 0
M  V30 1222 C 117.203 0.591952 -1.59468 0
M  V30 1223 O 118.388 0.513199 -1.87296 0
M  V30 1224 C 115.518 0.510204 -3.43532 0
M  V30 1225 C 114.472 -0.293209 -4.26994 0
M  V30 1226 C 113.798 0.647743 -5.30762 0
M  V30 1227 C 115.098 -1.51634 -4.99804 0
M  V30 1228 H 116.792 -1.13153 -2.77195 0
M  V30 1229 H 114.338 -0.545553 -1.33266 0
M  V30 1230 H 116.291 0.900856 -4.11658 0
M  V30 1231 H 115.015 1.36874 -2.96535 0
M  V30 1232 H 113.674 -0.665555 -3.60508 0
M  V30 1233 H 113.322 1.50299 -4.8002 0
M  V30 1234 H 113.022 0.11422 -5.87489 0
M  V30 1235 H 114.546 1.03567 -6.01753 0
M  V30 1236 H 115.96 -1.19824 -5.60638 0
M  V30 1237 H 114.357 -1.98745 -5.66234 0
M  V30 1238 H 115.427 -2.28018 -4.27943 0
M  V30 1239 N 116.77 1.45427 -0.607355 0
M  V30 1240 C 118.186 1.57283 -0.270985 0
M  V30 1241 C 118.386 1.59875 1.22647 0
M  V30 1242 O 117.442 1.52893 2.00948 0
M  V30 1243 C 118.755 2.85566 -0.941952 0
M  V30 1244 C 120.303 2.9924 -0.917849 0
M  V30 1245 C 120.778 4.30293 -1.56882 0
M  V30 1246 N 122.269 4.37051 -1.5343 0
M  V30 1247 C 123.004 5.37123 -2.00715 0
M  V30 1248 N 122.5 6.43734 -2.56084 0
M  V30 1249 N 124.293 5.28479 -1.91484 0
M  V30 1250 H 116.444 1.41988 -1.57966 0
M  V30 1251 H 118.707 0.67885 -0.661715 0
M  V30 1252 H 118.413 2.8955 -1.99633 0
M  V30 1253 H 118.287 3.74322 -0.465096 0
M  V30 1254 H 120.674 2.94822 0.127984 0
M  V30 1255 H 120.755 2.11895 -1.43297 0
M  V30 1256 H 120.399 4.35469 -2.61398 0
M  V30 1257 H 120.329 5.16454 -1.02873 0
M  V30 1258 H 122.82 3.60615 -1.12982 0
M  V30 1259 H 123.133 7.16341 -2.89958 0
M  V30 1260 H 121.478 6.44485 -2.60122 0
M  V30 1261 H 124.669 4.44098 -1.47967 0
M  V30 1262 H 124.842 6.0632 -2.28648 0
M  V30 1263 N 118.248 0.346503 1.53744 0
M  V30 1264 C 119.525 -0.304532 1.93215 0
M  V30 1265 C 119.905 -1.67993 1.27834 0
M  V30 1266 O 119.253 -2.24411 0.430352 0
M  V30 1267 C 119.463 -0.373852 3.46992 0
M  V30 1268 C 120.811 -0.62329 4.2 0
M  V30 1269 O 121.835 -0.455847 3.53271 0
M  V30 1270 O 120.694 -0.947879 5.38217 0
M  V30 1271 H 117.788 -0.178318 0.807547 0
M  V30 1272 H 120.334 0.397895 1.64969 0
M  V30 1273 H 119.106 0.591224 3.86808 0
M  V30 1274 H 118.729 -1.12294 3.81413 0
M  V30 1275 N 119.726 -1.57421 0.075193 0
M  V30 1276 C 120.689 -2.11791 -0.876203 0
M  V30 1277 C 121.689 -1.04268 -1.22412 0
M  V30 1278 O 122.879 -1.30242 -1.15684 0
M  V30 1279 C 120.011 -2.62207 -2.17854 0
M  V30 1280 H 121.204 -2.9716 -0.40444 0
M  V30 1281 H 118.757 -1.55333 -0.173557 0
M  V30 1282 H 119.492 -1.803 -2.6956 0
M  V30 1283 H 119.277 -3.40802 -1.93897 0
M  V30 1284 H 120.767 -3.04335 -2.85955 0
M  V30 1285 N 121.204 0.198386 -1.56346 0
M  V30 1286 C 122.45 0.920648 -1.80698 0
M  V30 1287 C 122.783 1.83045 -0.648697 0
M  V30 1288 O 122.058 1.91308 0.350925 0
M  V30 1289 C 122.341 1.73971 -3.15287 0
M  V30 1290 C 122.194 0.85485 -4.41602 0
M  V30 1291 C 123.513 2.71296 -3.46535 0
M  V30 1292 H 120.632 0.333261 -0.657348 0
M  V30 1293 H 123.274 0.188198 -1.89066 0
M  V30 1294 H 121.424 2.36416 -3.08285 0
M  V30 1295 H 123.096 0.245362 -4.60647 0
M  V30 1296 H 121.339 0.161398 -4.335 0
M  V30 1297 H 122.01 1.46286 -5.32264 0
M  V30 1298 H 124.486 2.18983 -3.53816 0
M  V30 1299 H 123.362 3.2569 -4.41834 0
M  V30 1300 H 123.623 3.5018 -2.69864 0
M  V30 1301 N 122.682 1.50554 0.465978 0
M  V30 1302 C 123.592 1.72585 1.58907 0
M  V30 1303 C 124.608 0.60911 1.6299 0
M  V30 1304 O 125.784 0.88804 1.80765 0
M  V30 1305 C 122.849 1.81995 2.95091 0
M  V30 1306 C 121.91 3.05751 3.01355 0
M  V30 1307 C 121.143 3.14702 4.31043 0
M  V30 1308 O 121.366 2.30313 5.21835 0
M  V30 1309 O 120.3 4.07468 4.43005 0
M  V30 1310 H 124.126 2.67799 1.43239 0
M  V30 1311 H 121.711 1.34711 0.646013 0
M  V30 1312 H 123.593 1.90335 3.75966 0
M  V30 1313 H 122.268 0.899659 3.10947 0
M  V30 1314 H 121.175 3.02908 2.19539 0
M  V30 1315 H 122.508 3.97375 2.90437 0
M  V30 1316 N 124.16 -0.719506 1.40217 0
M  V30 1317 C 125.07 -1.86378 1.42479 0
M  V30 1318 C 126.086 -1.71073 0.317834 0
M  V30 1319 O 127.262 -1.93406 0.561794 0
M  V30 1320 C 124.327 -3.22136 1.28178 0
M  V30 1321 C 123.388 -3.49723 2.48982 0
M  V30 1322 C 122.621 -4.79004 2.35353 0
M  V30 1323 O 122.844 -5.53821 1.36524 0
M  V30 1324 O 121.778 -5.06839 3.2465 0
M  V30 1325 H 125.604 -1.87425 2.38968 0
M  V30 1326 H 123.189 -0.869405 1.21498 0
M  V30 1327 H 125.071 -4.03234 1.22395 0
M  V30 1328 H 123.746 -3.21825 0.347934 0
M  V30 1329 H 122.653 -2.6865 2.60342 0
M  V30 1330 H 123.986 -3.54828 3.41113 0
M  V30 1331 N 125.638 -1.25649 -0.95132 0
M  V30 1332 C 126.886 -1.10375 -1.69298 0
M  V30 1333 C 127.207 0.355339 -1.91735 0
M  V30 1334 O 126.477 1.25188 -1.50681 0
M  V30 1335 H 125.057 -0.405461 -0.627384 0
M  V30 1336 H 127.719 -1.57823 -1.14358 0
M  V30 1337 H 126.815 -1.61465 -2.67087 0
M  V30 1338 N 127.117 1.15442 -1.07289 0
M  V30 1339 C 128.394 1.82306 -0.708792 0
M  V30 1340 C 128.774 1.94991 0.808807 0
M  V30 1341 O 128.122 1.50085 1.72298 0
M  V30 1342 C 128.332 3.18695 -1.42247 0
M  V30 1343 C 129.68 3.94341 -1.57417 0
M  V30 1344 O 130.704 3.28247 -1.38319 0
M  V30 1345 O 129.563 5.12839 -1.88834 0
M  V30 1346 H 126.657 0.787628 -0.252132 0
M  V30 1347 H 129.203 1.22559 -1.17377 0
M  V30 1348 H 127.975 3.04557 -2.45684 0
M  V30 1349 H 127.598 3.86128 -0.948223 0
M  V30 1350 N 128.595 0.856903 1.32268 0
M  V30 1351 C 129.841 0.471355 1.97863 0
M  V30 1352 C 130.196 -0.962896 1.66572 0
M  V30 1353 O 129.489 -1.66686 0.944797 0
M  V30 1354 C 129.683 0.649919 3.51441 0
M  V30 1355 C 129.512 2.09997 3.97657 0
M  V30 1356 C 128.282 2.73893 4.2463 0
M  V30 1357 C 130.48 3.07081 4.1256 0
M  V30 1358 N 128.462 4.09786 4.57109 0
M  V30 1359 C 129.833 4.27968 4.48602 0
M  V30 1360 C 131.888 3.03247 3.949 0
M  V30 1361 C 130.591 5.45521 4.68827 0
M  V30 1362 C 132.617 4.20046 4.16311 0
M  V30 1363 C 131.979 5.39692 4.52672 0
M  V30 1364 H 128.078 0.221263 0.750044 0
M  V30 1365 H 130.662 1.10876 1.60045 0
M  V30 1366 H 128.833 0.0421938 3.88377 0
M  V30 1367 H 130.565 0.234044 4.04023 0
M  V30 1368 H 127.32 2.24918 4.16784 0
M  V30 1369 H 127.744 4.7989 4.7753 0
M  V30 1370 H 132.386 2.11863 3.65888 0
M  V30 1371 H 130.104 6.37434 4.96693 0
M  V30 1372 H 133.69 4.18517 4.04147 0
M  V30 1373 H 132.57 6.28566 4.68907 0
M  V30 1374 N 130.073 -1.45103 0.615059 0
M  V30 1375 C 131.301 -2.06553 0.11977 0
M  V30 1376 C 131.716 -1.45842 -1.19898 0
M  V30 1377 O 131.073 -0.575325 -1.73194 0
M  V30 1378 C 131.124 -3.61495 -0.018364 0
M  V30 1379 O 130.845 -4.19942 1.24822 0
M  V30 1380 C 132.346 -4.39947 -0.544237 0
M  V30 1381 H 129.566 -0.667096 0.0722739 0
M  V30 1382 H 132.11 -1.8623 0.84491 0
M  V30 1383 H 130.265 -3.81135 -0.693865 0
M  V30 1384 H 130.679 -5.13204 1.0827 0
M  V30 1385 H 132.153 -5.48838 -0.589953 0
M  V30 1386 H 132.63 -4.10255 -1.56805 0
M  V30 1387 H 133.236 -4.25188 0.0974703 0
M  V30 1388 N 131.551 -0.354651 -1.53558 0
M  V30 1389 C 132.514 0.484566 -2.24019 0
M  V30 1390 C 133.514 1.01861 -1.24422 0
M  V30 1391 O 134.704 0.906097 -1.4878 0
M  V30 1392 C 131.836 1.67615 -2.96847 0
M  V30 1393 H 133.029 -0.131843 -2.9961 0
M  V30 1394 H 130.582 -0.106165 -1.55939 0
M  V30 1395 H 131.317 2.33095 -2.25471 0
M  V30 1396 H 131.102 1.30029 -3.69912 0
M  V30 1397 H 132.592 2.27114 -3.50441 0
M  V30 1398 N 133.029 1.57378 -0.0835403 0
M  V30 1399 C 134.257 1.98263 0.59157 0
M  V30 1400 C 134.672 0.962302 1.62435 0
M  V30 1401 O 134.029 -0.049581 1.82433 0
M  V30 1402 C 134.08 3.39214 1.24965 0
M  V30 1403 O 133.801 4.37339 0.258186 0
M  V30 1404 C 135.302 3.95038 2.01147 0
M  V30 1405 H 132.522 0.651773 0.159477 0
M  V30 1406 H 135.066 2.03878 -0.159415 0
M  V30 1407 H 133.221 3.34649 1.95164 0
M  V30 1408 H 133.635 5.19371 0.731734 0
M  V30 1409 H 135.109 4.95848 2.42567 0
M  V30 1410 H 135.586 3.32222 2.87272 0
M  V30 1411 H 136.192 4.0304 1.35789 0
M  V30 1412 N 134.507 -0.190092 1.56449 0
M  V30 1413 C 135.753 -0.911052 1.81184 0
M  V30 1414 C 136.086 -1.82699 0.658396 0
M  V30 1415 O 135.361 -1.91491 -0.340775 0
M  V30 1416 C 135.644 -1.72297 3.16205 0
M  V30 1417 C 135.497 -0.831419 4.42049 0
M  V30 1418 C 136.816 -2.69454 3.47969 0
M  V30 1419 H 133.935 -0.32977 0.659106 0
M  V30 1420 H 136.577 -0.178169 1.89163 0
M  V30 1421 H 134.727 -2.34778 3.09534 0
M  V30 1422 H 136.399 -0.220929 4.60771 0
M  V30 1423 H 134.642 -0.138406 4.33579 0
M  V30 1424 H 135.313 -1.43461 5.33032 0
M  V30 1425 H 137.789 -2.17104 3.54972 0
M  V30 1426 H 136.665 -3.23342 4.43555 0
M  V30 1427 H 136.926 -3.48744 2.71717 0
M  V30 1428 N 135.985 -1.50799 -0.457987 0
M  V30 1429 C 137.231 -1.62683 -1.21088 0
M  V30 1430 C 137.564 -0.332268 -1.91336 0
M  V30 1431 O 136.839 0.667043 -1.82704 0
M  V30 1432 C 137.122 -2.81615 -2.24422 0
M  V30 1433 C 136.975 -4.20989 -1.58392 0
M  V30 1434 C 138.294 -2.96085 -3.2561 0
M  V30 1435 H 135.413 -0.592087 -0.438864 0
M  V30 1436 H 138.055 -1.83225 -0.50286 0
M  V30 1437 H 136.205 -2.64231 -2.84806 0
M  V30 1438 H 137.877 -4.49994 -1.01504 0
M  V30 1439 H 136.12 -4.24641 -0.886704 0
M  V30 1440 H 136.791 -5.0016 -2.33547 0
M  V30 1441 H 139.267 -3.12042 -2.75262 0
M  V30 1442 H 138.143 -3.80902 -3.95228 0
M  V30 1443 H 138.404 -2.0726 -3.90507 0
M  V30 1444 N 137.463 0.71206 -1.40597 0
M  V30 1445 C 138.74 1.46536 -1.29563 0
M  V30 1446 C 139.12 2.10931 0.0844217 0
M  V30 1447 O 138.468 2.00418 1.0975 0
M  V30 1448 C 138.678 2.49821 -2.43701 0
M  V30 1449 C 140.026 3.15551 -2.841 0
M  V30 1450 O 141.05 2.60142 -2.4332 0
M  V30 1451 O 139.909 4.15867 -3.54566 0
M  V30 1452 H 137.003 0.651801 -0.509004 0
M  V30 1453 H 139.549 0.743935 -1.52524 0
M  V30 1454 H 138.321 2.00778 -3.35863 0
M  V30 1455 H 137.944 3.29495 -2.22528 0
M  V30 1456 N 138.941 1.26152 0.944643 0
M  V30 1457 C 139.873 1.03199 2.04652 0
M  V30 1458 C 140.886 -0.00642356 1.62799 0
M  V30 1459 O 142.075 0.233263 1.76969 0
M  V30 1460 C 139.175 0.540111 3.34568 0
M  V30 1461 C 138.348 1.64697 4.05208 0
M  V30 1462 C 137.407 1.15374 5.13396 0
M  V30 1463 O 136.433 1.85013 5.38293 0
M  V30 1464 N 137.635 0.00031529 5.805 0
M  V30 1465 H 140.4 1.9808 2.2491 0
M  V30 1466 H 137.961 1.17491 1.11389 0
M  V30 1467 H 139.953 0.194401 4.04233 0
M  V30 1468 H 138.523 -0.315021 3.11009 0
M  V30 1469 H 137.743 2.16379 3.29506 0
M  V30 1470 H 139.031 2.3903 4.49157 0
M  V30 1471 H 138.429 -0.581336 5.62705 0
M  V30 1472 H 136.986 -0.286346 6.51171 0
M  V30 1473 N 140.419 -1.14872 1.07899 0
M  V30 1474 C 141.351 -2.19425 0.662231 0
M  V30 1475 C 142.364 -1.60231 -0.288079 0
M  V30 1476 O 143.553 -1.78336 -0.076534 0
M  V30 1477 C 140.653 -3.38867 -0.0470695 0
M  V30 1478 C 139.826 -4.27597 0.920831 0
M  V30 1479 C 138.885 -5.25616 0.247805 0
M  V30 1480 O 137.911 -5.62189 0.890599 0
M  V30 1481 N 139.113 -5.71746 -1.00435 0
M  V30 1482 H 141.878 -2.55797 1.56166 0
M  V30 1483 H 139.439 -1.30042 0.964404 0
M  V30 1484 H 141.431 -4.01497 -0.50813 0
M  V30 1485 H 140.001 -3.00864 -0.848523 0
M  V30 1486 H 139.221 -3.61982 1.56087 0
M  V30 1487 H 140.509 -4.83748 1.57688 0
M  V30 1488 H 139.907 -5.44153 -1.54642 0
M  V30 1489 H 138.464 -6.36389 -1.40899 0
M  V30 1490 N 141.898 -0.863906 -1.31812 0
M  V30 1491 C 143.175 -0.39275 -1.91616 0
M  V30 1492 C 143.555 1.12461 -1.7865 0
M  V30 1493 O 142.903 1.95045 -1.19037 0
M  V30 1494 C 143.113 -0.867385 -3.38049 0
M  V30 1495 C 144.461 -0.889966 -4.15168 0
M  V30 1496 O 145.485 -0.812635 -3.46806 0
M  V30 1497 O 144.344 -1.00079 -5.37258 0
M  V30 1498 H 141.438 -0.116358 -0.818773 0
M  V30 1499 H 143.984 -0.951418 -1.40521 0
M  V30 1500 H 142.756 -1.91081 -3.41473 0
M  V30 1501 H 142.379 -0.286687 -3.96565 0
M  V30 1502 N 143.376 1.44774 -0.622745 0
M  V30 1503 C 144.616 2.04004 -0.127102 0
M  V30 1504 C 144.98 1.47862 1.22478 0
M  V30 1505 O 146.181 1.98541 1.81204 0
M  V30 1506 C 144.452 3.57247 -0.104429 0
M  V30 1507 S 146.011 4.37574 0.327814 0
M  V30 1508 H 142.829 0.708713 -0.0569776 0
M  V30 1509 H 145.431 1.77275 -0.824253 0
M  V30 1510 H 144.135 3.95616 -1.09159 0
M  V30 1511 H 143.666 3.88575 0.614236 0
M  V30 1512 H 145.681 4.70575 1.57395 0
M  V30 1513 N 144.854 0.36279 1.53368 0
M  V30 1514 C 146.082 -0.228613 2.05633 0
M  V30 1515 C 146.497 -1.42676 1.23649 0
M  V30 1516 O 145.854 -1.80394 0.27647 0
M  V30 1517 C 145.905 -0.624845 3.56059 0
M  V30 1518 O 145.626 0.525675 4.34935 0
M  V30 1519 C 147.127 -1.27493 4.24571 0
M  V30 1520 H 144.347 -0.0407183 0.669763 0
M  V30 1521 H 146.891 0.520352 1.97769 0
M  V30 1522 H 145.046 -1.32373 3.64083 0
M  V30 1523 H 145.46 0.205969 5.24095 0
M  V30 1524 H 146.934 -1.50277 5.31151 0
M  V30 1525 H 147.411 -2.23439 3.78116 0
M  V30 1526 H 148.017 -0.617558 4.20792 0
M  V30 1527 N 146.332 -1.57332 0.0918853 0
M  V30 1528 C 147.262 -2.16872 -0.865371 0
M  V30 1529 C 148.243 -1.10118 -1.29646 0
M  V30 1530 O 149.428 -1.38242 -1.36392 0
M  V30 1531 C 146.558 -2.74649 -2.12569 0
M  V30 1532 C 145.512 -3.86747 -1.83333 0
M  V30 1533 C 144.838 -4.31212 -3.16166 0
M  V30 1534 C 146.138 -5.10089 -1.1228 0
M  V30 1535 H 147.832 -2.97114 -0.369307 0
M  V30 1536 H 145.378 -1.42918 -0.176194 0
M  V30 1537 H 147.331 -3.14952 -2.7997 0
M  V30 1538 H 146.055 -1.91657 -2.64452 0
M  V30 1539 H 144.714 -3.46978 -1.18331 0
M  V30 1540 H 144.362 -3.45115 -3.6593 0
M  V30 1541 H 144.062 -5.06788 -2.97388 0
M  V30 1542 H 145.586 -4.74146 -3.84731 0
M  V30 1543 H 147 -5.47582 -1.69785 0
M  V30 1544 H 145.397 -5.91073 -1.03693 0
M  V30 1545 H 146.467 -4.84786 -0.105041 0
M  V30 1546 N 147.81 0.181792 -1.56548 0
M  V30 1547 C 149.035 0.920019 -1.85877 0
M  V30 1548 C 149.46 1.75494 -0.677021 0
M  V30 1549 O 148.818 1.77399 0.374056 0
M  V30 1550 C 148.866 1.78112 -3.13542 0
M  V30 1551 O 147.97 2.88152 -2.95029 0
M  V30 1552 H 147.311 0.258334 -0.611686 0
M  V30 1553 H 149.841 0.183092 -2.03779 0
M  V30 1554 H 149.851 2.18314 -3.44678 0
M  V30 1555 H 148.526 1.16777 -3.99169 0
M  V30 1556 H 147.103 2.51609 -2.75222 0
M  V30 1557 N 149.288 1.51039 0.449983 0
M  V30 1558 C 150.218 1.74379 1.55288 0
M  V30 1559 C 151.199 0.593236 1.5942 0
M  V30 1560 O 152.384 0.834625 1.7535 0
M  V30 1561 C 149.514 1.85728 2.93466 0
M  V30 1562 C 148.468 3.01078 3.04197 0
M  V30 1563 C 147.794 2.97595 4.44231 0
M  V30 1564 C 149.094 4.41254 2.7945 0
M  V30 1565 H 150.788 2.66725 1.36008 0
M  V30 1566 H 148.334 1.2835 0.652864 0
M  V30 1567 H 150.287 2.0064 3.70569 0
M  V30 1568 H 149.011 0.900207 3.13949 0
M  V30 1569 H 147.67 2.85851 2.29531 0
M  V30 1570 H 147.318 1.99691 4.61663 0
M  V30 1571 H 147.018 3.75046 4.52343 0
M  V30 1572 H 148.542 3.14583 5.23326 0
M  V30 1573 H 149.956 4.56897 3.46292 0
M  V30 1574 H 148.353 5.20315 2.98985 0
M  V30 1575 H 149.423 4.52164 1.75144 0
M  V30 1576 N 150.766 -0.704594 1.40972 0
M  V30 1577 C 151.698 -1.82974 1.38033 0
M  V30 1578 C 152.711 -1.60305 0.283931 0
M  V30 1579 O 153.9 -1.69975 0.545042 0
M  V30 1580 C 151 -3.19578 1.12795 0
M  V30 1581 C 150.173 -3.69352 2.34302 0
M  V30 1582 C 149.232 -4.84601 2.05058 0
M  V30 1583 O 148.258 -4.96682 2.7802 0
M  V30 1584 N 149.46 -5.71194 1.03528 0
M  V30 1585 H 152.225 -1.85991 2.35005 0
M  V30 1586 H 149.786 -0.886567 1.35468 0
M  V30 1587 H 151.778 -3.9429 0.911987 0
M  V30 1588 H 150.348 -3.11642 0.24452 0
M  V30 1589 H 149.568 -2.85649 2.71659 0
M  V30 1590 H 150.856 -3.99345 3.1528 0
M  V30 1591 H 150.254 -5.64054 0.431217 0
M  V30 1592 H 148.811 -6.45843 0.879205 0
M  V30 1593 N 152.244 -1.26651 -0.937939 0
M  V30 1594 C 153.174 -1.10993 -2.05433 0
M  V30 1595 C 154.155 -0.0142161 -1.70094 0
M  V30 1596 O 155.34 -0.186837 -1.93299 0
M  V30 1597 C 152.47 -0.745561 -3.39203 0
M  V30 1598 C 151.424 -1.79337 -3.88616 0
M  V30 1599 C 150.75 -1.28324 -5.19073 0
M  V30 1600 C 152.05 -3.19553 -4.13138 0
M  V30 1601 H 153.744 -2.0438 -2.1879 0
M  V30 1602 H 151.29 -0.984041 -1.05131 0
M  V30 1603 H 153.243 -0.622888 -4.16771 0
M  V30 1604 H 151.967 0.22401 -3.25831 0
M  V30 1605 H 150.626 -1.90477 -3.13231 0
M  V30 1606 H 150.274 -0.303414 -5.02084 0
M  V30 1607 H 149.974 -1.98369 -5.53103 0
M  V30 1608 H 151.498 -1.1733 -5.99221 0
M  V30 1609 H 152.912 -3.11471 -4.81309 0
M  V30 1610 H 151.309 -3.87218 -4.58457 0
M  V30 1611 H 152.379 -3.65368 -3.18801 0
M  V30 1612 N 153.722 1.14298 -1.08507 0
M  V30 1613 C 154.95 1.89219 -0.836876 0
M  V30 1614 C 155.365 1.78638 0.611054 0
M  V30 1615 O 154.722 1.14643 1.41998 0
M  V30 1616 C 154.773 3.39158 -1.25116 0
M  V30 1617 O 154.494 3.49449 -2.64229 0
M  V30 1618 C 155.995 4.31073 -1.03398 0
M  V30 1619 H 153.215 0.599328 -0.301739 0
M  V30 1620 H 155.759 1.44746 -1.44461 0
M  V30 1621 H 153.914 3.81251 -0.687514 0
M  V30 1622 H 154.328 4.42589 -2.81452 0
M  V30 1623 H 155.802 5.34646 -1.37323 0
M  V30 1624 H 156.279 4.3919 0.0289259 0
M  V30 1625 H 156.885 3.94738 -1.58311 0
M  V30 1626 N 155.201 0.870884 1.31352 0
M  V30 1627 C 156.429 0.49677 2.00848 0
M  V30 1628 C 156.844 -0.910998 1.65367 0
M  V30 1629 O 156.201 -1.59696 0.883374 0
M  V30 1630 C 156.252 0.645308 3.55694 0
M  V30 1631 O 155.973 1.99764 3.89905 0
M  V30 1632 C 157.474 0.272326 4.42463 0
M  V30 1633 H 154.694 0.193462 0.642506 0
M  V30 1634 H 157.238 1.1723 1.67563 0
M  V30 1635 H 155.393 0.0173176 3.87396 0
M  V30 1636 H 155.807 2.00607 4.84621 0
M  V30 1637 H 157.281 0.427208 5.50344 0
M  V30 1638 H 157.758 -0.788587 4.32062 0
M  V30 1639 H 158.364 0.876054 4.1618 0
M  V30 1640 N 156.679 -1.44442 0.630414 0
M  V30 1641 C 158.09 -1.85434 0.217063 0
M  V30 1642 C 158.441 -1.52748 -1.23136 0
M  V30 1643 O 157.566 -0.965205 -1.93682 0
M  V30 1644 C 158.161 -3.36581 0.387168 0
M  V30 1645 C 156.72 -3.76389 0.0283297 0
M  V30 1646 C 155.867 -2.68296 0.700889 0
M  V30 1647 H 158.818 -1.34919 0.83562 0
M  V30 1648 H 158.839 -3.78657 -0.374086 0
M  V30 1649 H 158.351 -3.60339 1.44144 0
M  V30 1650 H 156.452 -3.58246 -1.02423 0
M  V30 1651 H 156.565 -4.77095 0.437892 0
M  V30 1652 H 154.929 -2.54335 0.136267 0
M  V30 1653 H 155.712 -2.94887 1.75774 0
M  V30 1654 N 158.157 -0.370918 -1.53173 0
M  V30 1655 C 159.12 0.460778 -2.24521 0
M  V30 1656 C 160.12 1.00536 -1.25496 0
M  V30 1657 O 161.31 0.890266 -1.49733 0
M  V30 1658 C 158.442 1.64457 -2.98608 0
M  V30 1659 H 159.635 -0.163613 -2.99453 0
M  V30 1660 H 157.188 -0.122699 -1.55818 0
M  V30 1661 H 157.923 2.30691 -2.2793 0
M  V30 1662 H 157.708 1.26099 -3.7127 0
M  V30 1663 H 159.198 2.23384 -3.5283 0
M  V30 1664 N 159.635 1.57281 -0.100228 0
M  V30 1665 C 160.583 2.15542 0.874328 0
M  V30 1666 C 161.577 1.09962 1.28859 0
M  V30 1667 O 162.783 1.28298 1.26252 0
M  V30 1668 H 159.158 0.689567 0.300003 0
M  V30 1669 H 161.129 2.96241 0.35829 0
M  V30 1670 C 159.878 2.75454 2.1218 0
M  V30 1671 H 159.201 3.56384 1.81193 0
M  V30 1672 H 160.641 3.19781 2.78417 0
M  V30 1673 C 159.1 1.71602 2.89921 0
M  V30 1674 O 159.63 1.15804 3.84646 0
M  V30 1675 N 157.836 1.41975 2.53558 0
M  V30 1676 H 157.383 1.87539 1.76598 0
M  V30 1677 H 157.341 0.727274 3.05873 0
M  V30 1678 N 161.113 -0.173488 1.56642 0
M  V30 1679 C 162.076 -1.19859 1.95362 0
M  V30 1680 C 163.076 -1.37296 0.83704 0
M  V30 1681 O 164.266 -1.34739 1.10413 0
M  V30 1682 C 161.398 -2.56405 2.24654 0
M  V30 1683 H 162.591 -0.867062 2.87092 0
M  V30 1684 H 160.144 -0.415853 1.50666 0
M  V30 1685 H 160.879 -2.94576 1.35631 0
M  V30 1686 H 160.664 -2.45115 3.06041 0
M  V30 1687 H 162.154 -3.30287 2.5554 0
M  V30 1688 N 162.591 -1.51276 -0.441967 0
M  V30 1689 C 164.002 -1.56244 -1.02199 0
M  V30 1690 C 164.353 -0.383149 -1.92422 0
M  V30 1691 O 163.478 0.500613 -2.1053 0
M  V30 1692 C 164.073 -2.83162 -1.86024 0
M  V30 1693 C 162.632 -2.90716 -2.39084 0
M  V30 1694 C 161.779 -2.50858 -1.18175 0
M  V30 1695 H 164.73 -1.5712 -0.223416 0
M  V30 1696 H 164.751 -2.66663 -2.71425 0
M  V30 1697 H 164.263 -3.68974 -1.20331 0
M  V30 1698 H 162.364 -2.09323 -3.08244 0
M  V30 1699 H 162.477 -3.94266 -2.72198 0
M  V30 1700 H 160.841 -2.03951 -1.52565 0
M  V30 1701 H 161.624 -3.3901 -0.541001 0
M  V30 1702 N 164.069 0.697108 -1.41344 0
M  V30 1703 C 165.318 1.45279 -1.39918 0
M  V30 1704 C 165.631 1.95597 -0.0109624 0
M  V30 1705 O 166.837 2.71208 0.125919 0
M  V30 1706 C 165.293 2.62695 -2.46007 0
M  V30 1707 C 164.901 2.19169 -3.90729 0
M  V30 1708 C 166.645 3.40336 -2.53715 0
M  V30 1709 C 164.552 3.33535 -4.88373 0
M  V30 1710 H 163.482 0.545692 -0.520323 0
M  V30 1711 H 166.133 0.756929 -1.67161 0
M  V30 1712 H 164.515 3.34541 -2.11892 0
M  V30 1713 H 165.689 1.54623 -4.34083 0
M  V30 1714 H 164.004 1.54525 -3.86666 0
M  V30 1715 H 166.601 4.2547 -3.2385 0
M  V30 1716 H 166.944 3.85418 -1.5735 0
M  V30 1717 H 167.477 2.75546 -2.86913 0
M  V30 1718 H 164.216 2.93468 -5.86137 0
M  V30 1719 H 163.736 3.96936 -4.49668 0
M  V30 1720 H 165.415 3.99335 -5.09059 0
M  V30 1721 N 165.547 1.27147 0.931209 0
M  V30 1722 C 166.795 1.13055 1.6752 0
M  V30 1723 C 167.116 -0.324791 1.92276 0
M  V30 1724 O 166.386 -1.22775 1.52654 0
M  V30 1725 H 164.966 0.415391 0.620854 0
M  V30 1726 H 167.628 1.59623 1.11833 0
M  V30 1727 H 166.724 1.65694 2.64485 0
M  V30 1728 N 167.025 -1.13721 1.09112 0
M  V30 1729 C 167.955 -2.21148 0.749385 0
M  V30 1730 C 168.936 -1.6792 -0.271475 0
M  V30 1731 O 170.121 -1.93693 -0.140251 0
M  V30 1732 C 167.251 -3.46905 0.165659 0
M  V30 1733 C 166.205 -4.13203 1.11567 0
M  V30 1734 C 165.531 -5.33248 0.393809 0
M  V30 1735 C 166.831 -4.60912 2.45678 0
M  V30 1736 H 168.525 -2.4999 1.64758 0
M  V30 1737 H 166.071 -1.20156 0.793626 0
M  V30 1738 H 168.024 -4.21313 -0.085466 0
M  V30 1739 H 166.748 -3.17449 -0.767714 0
M  V30 1740 H 165.407 -3.40758 1.35202 0
M  V30 1741 H 165.055 -5.00054 -0.543599 0
M  V30 1742 H 164.755 -5.78552 1.02721 0
M  V30 1743 H 166.279 -6.10413 0.150908 0
M  V30 1744 H 167.693 -5.26759 2.26269 0
M  V30 1745 H 166.09 -5.16944 3.04776 0
M  V30 1746 H 167.16 -3.75603 3.06677 0
M  V30 1747 N 168.503 -0.877838 -1.30888 0
M  V30 1748 C 169.733 -0.506678 -2.00291 0
M  V30 1749 C 170.141 0.907449 -1.66018 0
M  V30 1750 O 169.484 1.60719 -0.88967 0
M  V30 1751 C 169.546 -0.59323 -3.54572 0
M  V30 1752 C 169.21 -1.97038 -4.12341 0
M  V30 1753 C 170.207 -2.93889 -4.28865 0
M  V30 1754 C 167.892 -2.27383 -4.47886 0
M  V30 1755 C 169.886 -4.19224 -4.80136 0
M  V30 1756 C 167.573 -3.52965 -4.98857 0
M  V30 1757 C 168.571 -4.48701 -5.14934 0
M  V30 1758 O 168.259 -5.72056 -5.64808 0
M  V30 1759 H 167.991 -0.1951 -0.647234 0
M  V30 1760 H 170.545 -1.18301 -1.6791 0
M  V30 1761 H 168.775 0.140057 -3.86446 0
M  V30 1762 H 170.464 -0.234372 -4.05223 0
M  V30 1763 H 171.23 -2.71756 -4.01714 0
M  V30 1764 H 167.109 -1.53639 -4.34645 0
M  V30 1765 H 170.653 -4.93956 -4.92599 0
M  V30 1766 H 166.55 -3.74939 -5.25443 0
M  V30 1767 H 167.318 -5.74337 -5.83163 0
M  V30 1768 N 169.982 1.44106 -0.638065 0
M  V30 1769 C 171.398 1.56672 -0.304286 0
M  V30 1770 C 171.598 1.6244 1.19228 0
M  V30 1771 O 170.654 1.57121 1.9766 0
M  V30 1772 C 171.967 2.83503 -1.00231 0
M  V30 1773 C 173.515 2.97226 -0.981116 0
M  V30 1774 C 173.99 4.26868 -1.65974 0
M  V30 1775 N 175.481 4.33698 -1.62666 0
M  V30 1776 C 176.216 5.32745 -2.12063 0
M  V30 1777 N 175.712 6.38157 -2.6968 0
M  V30 1778 N 177.505 5.24299 -2.02651 0
M  V30 1779 H 169.656 1.38605 -1.60942 0
M  V30 1780 H 171.919 0.664661 -0.675965 0
M  V30 1781 H 171.625 2.85251 -2.0573 0
M  V30 1782 H 171.499 3.73251 -0.54439 0
M  V30 1783 H 173.886 2.95027 0.0654188 0
M  V30 1784 H 173.967 2.08808 -1.47759 0
M  V30 1785 H 173.611 4.29826 -2.70576 0
M  V30 1786 H 173.541 5.14156 -1.13804 0
M  V30 1787 H 176.032 3.58138 -1.20606 0
M  V30 1788 H 176.345 7.10029 -3.05087 0
M  V30 1789 H 174.69 6.38823 -2.73734 0
M  V30 1790 H 177.881 4.4086 -1.57353 0
M  V30 1791 H 178.054 6.01334 -2.41457 0
M  V30 1792 N 171.46 0.379036 1.52974 0
M  V30 1793 C 172.39 -0.452706 2.29069 0
M  V30 1794 C 173.371 -1.07237 1.32039 0
M  V30 1795 O 174.556 -1.08708 1.60923 0
M  V30 1796 C 171.686 -1.5856 3.08992 0
M  V30 1797 C 170.64 -1.0925 4.13822 0
M  V30 1798 C 169.966 -2.31668 4.81907 0
M  V30 1799 C 171.266 -0.167702 5.22031 0
M  V30 1800 H 172.96 0.182181 2.98845 0
M  V30 1801 H 170.506 0.0890592 1.43724 0
M  V30 1802 H 172.459 -2.1742 3.6098 0
M  V30 1803 H 171.183 -2.24792 2.36931 0
M  V30 1804 H 169.842 -0.526494 3.628 0
M  V30 1805 H 169.49 -2.96386 4.06404 0
M  V30 1806 H 169.19 -1.9934 5.52754 0
M  V30 1807 H 170.714 -2.91189 5.36695 0
M  V30 1808 H 172.128 -0.664186 5.6944 0
M  V30 1809 H 170.525 0.0653265 6.00064 0
M  V30 1810 H 171.595 0.786347 4.78482 0
M  V30 1811 N 172.938 -1.57226 0.108567 0
M  V30 1812 C 174.163 -1.99604 -0.563303 0
M  V30 1813 C 174.588 -0.987563 -1.6009 0
M  V30 1814 O 173.946 0.0421687 -1.81251 0
M  V30 1815 C 173.994 -3.40902 -1.17552 0
M  V30 1816 O 173.098 -3.42896 -2.2912 0
M  V30 1817 H 172.439 -0.648704 -0.1417 0
M  V30 1818 H 174.969 -2.03679 0.193961 0
M  V30 1819 H 174.979 -3.78886 -1.51357 0
M  V30 1820 H 173.654 -4.1382 -0.415445 0
M  V30 1821 H 172.231 -3.1672 -1.96832 0
M  V30 1822 N 174.416 0.165178 -1.56732 0
M  V30 1823 C 175.346 1.20651 -1.99914 0
M  V30 1824 C 176.327 1.45827 -0.875705 0
M  V30 1825 O 177.512 1.57057 -1.14223 0
M  V30 1826 C 174.642 2.54401 -2.36427 0
M  V30 1827 C 173.596 2.43782 -3.51787 0
M  V30 1828 C 172.922 3.82078 -3.7406 0
M  V30 1829 C 174.222 1.93732 -4.85041 0
M  V30 1830 H 175.916 0.847534 -2.87154 0
M  V30 1831 H 173.462 0.40625 -1.38151 0
M  V30 1832 H 175.415 3.27458 -2.65234 0
M  V30 1833 H 174.139 2.92098 -1.46103 0
M  V30 1834 H 172.798 1.73178 -3.23117 0
M  V30 1835 H 172.446 4.17179 -2.81017 0
M  V30 1836 H 172.146 3.7584 -4.51684 0
M  V30 1837 H 173.67 4.56712 -4.05274 0
M  V30 1838 H 175.084 2.56569 -5.12684 0
M  V30 1839 H 173.481 1.98428 -5.66345 0
M  V30 1840 H 174.551 0.891962 -4.76626 0
M  V30 1841 N 175.894 1.51508 0.433938 0
M  V30 1842 C 176.804 1.75917 1.5521 0
M  V30 1843 C 177.82 0.643545 1.61662 0
M  V30 1844 O 178.996 0.926183 1.7884 0
M  V30 1845 C 176.061 1.88213 2.91164 0
M  V30 1846 C 175.122 3.12074 2.94802 0
M  V30 1847 C 174.355 3.23774 4.24271 0
M  V30 1848 O 174.578 2.4133 5.16833 0
M  V30 1849 O 173.512 4.16774 4.34262 0
M  V30 1850 H 177.338 2.70777 1.37527 0
M  V30 1851 H 174.923 1.36051 0.617293 0
M  V30 1852 H 176.805 1.98267 3.71845 0
M  V30 1853 H 175.48 0.965413 3.08968 0
M  V30 1854 H 174.387 3.07497 2.13065 0
M  V30 1855 H 175.72 4.03446 2.81943 0
M  V30 1856 N 177.372 -0.689602 1.41712 0
M  V30 1857 C 178.335 -1.78521 1.43746 0
M  V30 1858 C 179.335 -1.57436 0.327191 0
M  V30 1859 O 180.525 -1.64 0.587348 0
M  V30 1860 C 177.657 -3.16971 1.25467 0
M  V30 1861 H 178.85 -1.78108 2.41283 0
M  V30 1862 H 176.403 -0.89781 1.27942 0
M  V30 1863 H 177.138 -3.23019 0.287948 0
M  V30 1864 H 176.923 -3.33678 2.05917 0
M  V30 1865 H 178.413 -3.96935 1.2974 0
M  V30 1866 N 178.85 -1.27639 -0.924453 0
M  V30 1867 C 180.075 -1.17101 -1.71179 0
M  V30 1868 C 180.5 0.268134 -1.86179 0
M  V30 1869 O 179.858 1.19415 -1.36418 0
M  V30 1870 C 179.906 -1.86313 -3.08739 0
M  V30 1871 O 179.01 -1.16331 -3.95652 0
M  V30 1872 H 178.351 -0.407091 -0.524569 0
M  V30 1873 H 180.881 -1.68767 -1.15666 0
M  V30 1874 H 180.891 -1.938 -3.59034 0
M  V30 1875 H 179.566 -2.91001 -2.97138 0
M  V30 1876 H 178.143 -1.16935 -3.54091 0
M  V30 1877 N 180.328 1.1314 -1.09713 0
M  V30 1878 C 181.556 1.88321 -0.856898 0
M  V30 1879 C 181.971 1.79276 0.592073 0
M  V30 1880 O 181.328 1.16142 1.40774 0
M  V30 1881 C 181.379 3.37812 -1.28706 0
M  V30 1882 O 181.1 3.46627 -2.67921 0
M  V30 1883 C 182.601 4.29952 -1.07964 0
M  V30 1884 H 179.821 0.596094 -0.308079 0
M  V30 1885 H 182.365 1.43205 -1.45988 0
M  V30 1886 H 180.52 3.805 -0.727912 0
M  V30 1887 H 180.934 4.39579 -2.8613 0
M  V30 1888 H 182.408 5.33159 -1.42986 0
M  V30 1889 H 182.885 4.39196 -0.0176577 0
M  V30 1890 H 183.491 3.93036 -1.62489 0
M  V30 1891 N 181.806 0.884767 1.30421 0
M  V30 1892 C 183.054 0.502112 1.95763 0
M  V30 1893 C 183.375 -0.951815 1.70192 0
M  V30 1894 O 182.645 -1.6692 1.0254 0
M  V30 1895 H 181.225 0.182694 0.724315 0
M  V30 1896 H 183.887 1.1278 1.58955 0
M  V30 1897 H 182.983 0.672188 3.04775 0
M  V30 1898 N 183.284 -1.43765 0.645699 0
M  V30 1899 C 184.514 -2.05953 0.163318 0
M  V30 1900 C 184.922 -1.48432 -1.17322 0
M  V30 1901 O 184.265 -0.607295 -1.73371 0
M  V30 1902 C 184.327 -3.59499 -0.0103065 0
M  V30 1903 C 183.991 -4.39563 1.25035 0
M  V30 1904 C 184.988 -4.72108 2.17739 0
M  V30 1905 C 182.673 -4.79697 1.48983 0
M  V30 1906 C 184.667 -5.43688 3.3269 0
M  V30 1907 C 182.354 -5.51023 2.64229 0
M  V30 1908 C 183.352 -5.8294 3.55908 0
M  V30 1909 O 183.04 -6.5281 4.69142 0
M  V30 1910 H 182.772 -0.670798 0.0836986 0
M  V30 1911 H 185.326 -1.85384 0.884407 0
M  V30 1912 H 183.556 -3.78613 -0.78669 0
M  V30 1913 H 185.245 -4.03408 -0.449087 0
M  V30 1914 H 186.011 -4.41627 2.00476 0
M  V30 1915 H 181.89 -4.54266 0.785078 0
M  V30 1916 H 185.434 -5.68517 4.04269 0
M  V30 1917 H 181.331 -5.8092 2.81429 0
M  V30 1918 H 182.099 -6.71288 4.6831 0
M  V30 1919 N 184.763 -0.387143 -1.52771 0
M  V30 1920 C 185.695 0.484089 -2.2403 0
M  V30 1921 C 186.708 1.02849 -1.26198 0
M  V30 1922 O 187.897 0.931186 -1.52286 0
M  V30 1923 C 184.997 1.68337 -2.94136 0
M  V30 1924 C 184.17 1.26672 -4.18656 0
M  V30 1925 C 183.229 2.33045 -4.7178 0
M  V30 1926 O 182.255 1.94541 -5.34923 0
M  V30 1927 N 183.457 3.64929 -4.5145 0
M  V30 1928 H 186.222 -0.126404 -2.99433 0
M  V30 1929 H 183.783 -0.213392 -1.60488 0
M  V30 1930 H 185.775 2.39019 -3.26577 0
M  V30 1931 H 184.345 2.20025 -2.22053 0
M  V30 1932 H 183.565 0.388878 -3.92277 0
M  V30 1933 H 184.853 0.964964 -4.99566 0
M  V30 1934 H 184.251 3.98974 -4.01044 0
M  V30 1935 H 182.808 4.31651 -4.88386 0
M  V30 1936 N 186.241 1.57166 -0.116904 0
M  V30 1937 C 187.489 1.94737 0.540533 0
M  V30 1938 C 187.81 1.00096 1.67349 0
M  V30 1939 O 187.08 0.0568854 1.95817 0
M  V30 1940 H 185.66 0.718981 0.202669 0
M  V30 1941 H 188.322 1.94017 -0.185353 0
M  V30 1942 H 187.418 2.97719 0.936483 0
M  V30 1943 N 187.719 -0.156864 1.56817 0
M  V30 1944 C 188.944 -0.890331 1.87318 0
M  V30 1945 C 189.369 -1.74394 0.704855 0
M  V30 1946 O 188.727 -1.77972 -0.345786 0
M  V30 1947 C 188.775 -1.73102 3.16336 0
M  V30 1948 O 187.879 -2.83422 2.99576 0
M  V30 1949 H 187.22 -0.24857 0.615718 0
M  V30 1950 H 189.75 -0.150649 2.04045 0
M  V30 1951 H 189.76 -2.12803 3.48107 0
M  V30 1952 H 188.435 -1.10412 4.00976 0
M  V30 1953 H 187.012 -2.47199 2.7919 0
M  V30 1954 N 189.197 -1.51736 -0.425897 0
M  V30 1955 C 190.422 -1.69082 -1.20108 0
M  V30 1956 C 190.847 -0.392398 -1.83962 0
M  V30 1957 O 190.205 0.64858 -1.69302 0
M  V30 1958 C 190.253 -2.81604 -2.25237 0
M  V30 1959 O 189.357 -2.46004 -3.30992 0
M  V30 1960 H 188.698 -0.563408 -0.35138 0
M  V30 1961 H 191.228 -1.98358 -0.501512 0
M  V30 1962 H 191.238 -3.06025 -2.69838 0
M  V30 1963 H 189.913 -3.75817 -1.78142 0
M  V30 1964 H 188.49 -2.32195 -2.91787 0
M  V30 1965 N 190.675 0.682077 -1.42076 0
M  V30 1966 C 191.922 1.44215 -1.42156 0
M  V30 1967 C 192.25 1.94468 -0.0354186 0
M  V30 1968 O 191.505 1.70816 0.955002 0
M  V30 1969 C 191.804 2.66036 -2.38662 0
M  V30 1970 C 191.47 2.34366 -3.85206 0
M  V30 1971 C 190.132 2.25439 -4.25124 0
M  V30 1972 C 192.484 2.08513 -4.77673 0
M  V30 1973 C 189.812 1.88775 -5.55501 0
M  V30 1974 C 192.164 1.73354 -6.08384 0
M  V30 1975 C 190.828 1.62933 -6.47309 0
M  V30 1976 H 190.098 0.527718 -0.520187 0
M  V30 1977 H 192.745 0.778387 -1.74967 0
M  V30 1978 H 191.05 3.3741 -1.99152 0
M  V30 1979 H 192.747 3.24205 -2.35991 0
M  V30 1980 H 189.337 2.42213 -3.53597 0
M  V30 1981 H 193.521 2.14346 -4.47626 0
M  V30 1982 H 188.777 1.7927 -5.84527 0
M  V30 1983 H 192.951 1.52373 -6.79526 0
M  V30 1984 H 190.578 1.34292 -7.48244 0
M  V30 1985 N 192.153 1.28127 0.917671 0
M  V30 1986 C 193.399 1.15223 1.66888 0
M  V30 1987 C 193.732 -0.299293 1.9188 0
M  V30 1988 O 193.007 -1.21805 1.51637 0
M  V30 1989 C 193.29 1.94706 3.02922 0
M  V30 1990 C 193.143 3.47898 2.85109 0
M  V30 1991 C 194.462 1.75939 4.03402 0
M  V30 1992 H 191.581 0.419946 0.605652 0
M  V30 1993 H 194.223 1.57398 1.06423 0
M  V30 1994 H 192.373 1.58864 3.54534 0
M  V30 1995 H 194.045 3.93624 2.40537 0
M  V30 1996 H 192.288 3.7373 2.20246 0
M  V30 1997 H 192.959 3.98765 3.81694 0
M  V30 1998 H 195.435 2.07209 3.60837 0
M  V30 1999 H 194.311 2.33931 4.96556 0
M  V30 2000 H 194.572 0.709877 4.36364 0
M  V30 2001 N 193.631 -1.12557 1.10312 0
M  V30 2002 C 194.561 -2.20341 0.772798 0
M  V30 2003 C 195.542 -1.68198 -0.25365 0
M  V30 2004 O 196.727 -1.93831 -0.119699 0
M  V30 2005 C 193.857 -3.46709 0.202443 0
M  V30 2006 C 192.811 -4.11996 1.15943 0
M  V30 2007 C 192.137 -5.328 0.450345 0
M  V30 2008 C 193.437 -4.5828 2.50552 0
M  V30 2009 H 195.131 -2.48229 1.674 0
M  V30 2010 H 192.677 -1.19308 0.806326 0
M  V30 2011 H 194.63 -4.2138 -0.0407752 0
M  V30 2012 H 193.354 -3.18245 -0.734001 0
M  V30 2013 H 192.013 -3.39305 1.38808 0
M  V30 2014 H 191.661 -5.00602 -0.490531 0
M  V30 2015 H 191.361 -5.7743 1.08851 0
M  V30 2016 H 192.885 -6.10219 0.215642 0
M  V30 2017 H 194.299 -5.2433 2.31843 0
M  V30 2018 H 192.696 -5.13683 3.10242 0
M  V30 2019 H 193.766 -3.72329 3.10643 0
M  V30 2020 N 195.109 -0.891671 -1.2995 0
M  V30 2021 C 196.357 -0.512486 -1.95494 0
M  V30 2022 C 196.678 0.942776 -1.70695 0
M  V30 2023 O 195.948 1.66374 -1.03424 0
M  V30 2024 H 194.528 -0.186533 -0.723336 0
M  V30 2025 H 197.19 -1.13621 -1.58355 0
M  V30 2026 H 196.286 -0.688342 -3.04415 0
M  V30 2027 N 196.587 1.43421 -0.653314 0
M  V30 2028 C 197.537 2.2792 0.060558 0
M  V30 2029 C 198.521 1.39906 0.794677 0
M  V30 2030 O 199.713 1.63536 0.677128 0
M  V30 2031 C 196.842 3.27603 1.0262 0
M  V30 2032 C 195.928 4.23104 0.290551 0
M  V30 2033 N 196.319 5.01031 -0.692967 0
M  V30 2034 C 194.617 4.42816 0.531984 0
M  V30 2035 C 195.318 5.70626 -1.12963 0
M  V30 2036 N 194.294 5.41617 -0.463867 0
M  V30 2037 H 198.096 2.85585 -0.694143 0
M  V30 2038 H 195.61 1.55126 -0.480602 0
M  V30 2039 H 197.607 3.86918 1.55242 0
M  V30 2040 H 196.267 2.71499 1.78096 0
M  V30 2041 H 197.278 5.0669 -1.07169 0
M  V30 2042 H 193.955 3.97782 1.26791 0
M  V30 2043 H 195.345 6.4318 -1.94343 0
M  V30 2044 N 198.065 0.39524 1.52563 0
M  V30 2045 C 199.312 -0.185044 2.01653 0
M  V30 2046 C 199.64 -1.46317 1.28146 0
M  V30 2047 O 198.895 -1.9213 0.372074 0
M  V30 2048 C 199.194 -0.493444 3.53977 0
M  V30 2049 C 198.86 0.69384 4.4553 0
M  V30 2050 C 197.522 1.01954 4.70275 0
M  V30 2051 C 199.874 1.48785 4.99512 0
M  V30 2052 C 197.202 2.14069 5.46252 0
M  V30 2053 C 199.554 2.59965 5.76716 0
M  V30 2054 C 198.218 2.93037 5.99738 0
M  V30 2055 H 197.488 -0.0677123 0.7379 0
M  V30 2056 H 200.135 0.533807 1.8391 0
M  V30 2057 H 198.44 -1.29369 3.69825 0
M  V30 2058 H 200.137 -0.955163 3.89458 0
M  V30 2059 H 196.727 0.429987 4.26438 0
M  V30 2060 H 200.911 1.24946 4.80315 0
M  V30 2061 H 196.167 2.40056 5.62302 0
M  V30 2062 H 200.341 3.21887 6.17545 0
M  V30 2063 H 197.968 3.8003 6.58393 0
M  V30 2064 N 199.544 -1.57102 0.125237 0
M  V30 2065 C 200.793 -1.94582 -0.531095 0
M  V30 2066 C 201.106 -1.01126 -1.6743 0
M  V30 2067 O 202.312 -1.28097 -2.39381 0
M  V30 2068 C 200.768 -3.45839 -0.996164 0
M  V30 2069 C 200.376 -4.47842 0.118926 0
M  V30 2070 C 202.12 -3.92227 -1.62352 0
M  V30 2071 C 200.027 -5.90284 -0.363192 0
M  V30 2072 H 198.957 -0.726391 -0.20217 0
M  V30 2073 H 201.608 -1.82339 0.206092 0
M  V30 2074 H 199.99 -3.53338 -1.78796 0
M  V30 2075 H 201.164 -4.52018 0.895358 0
M  V30 2076 H 199.479 -4.11243 0.653324 0
M  V30 2077 H 202.076 -4.96069 -1.99548 0
M  V30 2078 H 202.419 -3.32552 -2.50429 0
M  V30 2079 H 202.952 -3.87554 -0.897019 0
M  V30 2080 H 199.691 -6.53728 0.481679 0
M  V30 2081 H 199.211 -5.89515 -1.10597 0
M  V30 2082 H 200.89 -6.41752 -0.822377 0
M  V30 2083 N 201.022 0.148545 -1.56898 0
M  V30 2084 C 201.952 1.18524 -2.01182 0
M  V30 2085 C 202.933 1.4489 -0.891123 0
M  V30 2086 O 204.118 1.55836 -1.15882 0
M  V30 2087 C 201.248 2.51879 -2.39112 0
M  V30 2088 C 200.202 2.40038 -3.54353 0
M  V30 2089 C 199.528 3.78089 -3.78091 0
M  V30 2090 C 200.828 1.88577 -4.87069 0
M  V30 2091 H 202.522 0.817029 -2.88036 0
M  V30 2092 H 200.068 0.391575 -1.38574 0
M  V30 2093 H 202.021 3.24627 -2.68692 0
M  V30 2094 H 200.745 2.90532 -1.49193 0
M  V30 2095 H 199.404 1.69742 -3.24936 0
M  V30 2096 H 199.052 4.14175 -2.85426 0
M  V30 2097 H 198.752 3.71028 -4.55645 0
M  V30 2098 H 200.276 4.52387 -4.10095 0
M  V30 2099 H 201.69 2.51117 -5.15377 0
M  V30 2100 H 200.087 1.9241 -5.68417 0
M  V30 2101 H 201.157 0.84136 -4.77545 0
M  V30 2102 N 202.5 1.5196 0.417844 0
M  V30 2103 C 203.43 1.77634 1.51554 0
M  V30 2104 C 204.411 0.626918 1.58126 0
M  V30 2105 O 205.596 0.871632 1.7354 0
M  V30 2106 C 202.726 1.91911 2.8946 0
M  V30 2107 C 201.68 3.07463 2.97743 0
M  V30 2108 C 201.006 3.06951 4.37819 0
M  V30 2109 C 202.306 4.47082 2.70027 0
M  V30 2110 H 204 2.6955 1.3032 0
M  V30 2111 H 201.546 1.29706 0.625492 0
M  V30 2112 H 203.499 2.08455 3.6623 0
M  V30 2113 H 202.223 0.966598 3.11969 0
M  V30 2114 H 200.882 2.90656 2.23416 0
M  V30 2115 H 200.53 2.09438 4.57323 0
M  V30 2116 H 200.23 3.84556 4.44286 0
M  V30 2117 H 201.754 3.25613 5.16535 0
M  V30 2118 H 203.168 4.6414 3.36522 0
M  V30 2119 H 201.565 5.2654 2.87881 0
M  V30 2120 H 202.635 4.55777 1.65514 0
M  V30 2121 N 203.978 -0.674533 1.42435 0
M  V30 2122 C 205.225 -1.43459 1.42919 0
M  V30 2123 C 205.553 -1.94446 0.0457312 0
M  V30 2124 O 204.808 -1.7132 -0.94593 0
M  V30 2125 C 205.107 -2.64767 2.40069 0
M  V30 2126 C 204.773 -2.3232 3.86443 0
M  V30 2127 C 203.435 -2.23182 4.26314 0
M  V30 2128 C 205.787 -2.05977 4.78773 0
M  V30 2129 C 203.115 -1.85827 5.56494 0
M  V30 2130 C 205.467 -1.70125 6.09295 0
M  V30 2131 C 204.131 -1.59498 6.48164 0
M  V30 2132 H 203.401 -0.524952 0.522978 0
M  V30 2133 H 206.048 -0.769097 1.75377 0
M  V30 2134 H 204.353 -3.36349 2.00939 0
M  V30 2135 H 206.05 -3.22949 2.37707 0
M  V30 2136 H 202.64 -2.40334 3.54877 0
M  V30 2137 H 206.824 -2.11969 4.48757 0
M  V30 2138 H 202.08 -1.76168 5.8547 0
M  V30 2139 H 206.254 -1.48767 6.80324 0
M  V30 2140 H 203.881 -1.30322 7.48946 0
M  V30 2141 N 205.456 -1.28612 -0.910864 0
M  V30 2142 C 206.404 -1.1265 -2.03501 0
M  V30 2143 C 207.398 -0.0450054 -1.6934 0
M  V30 2144 O 208.604 -0.203988 -1.7884 0
M  V30 2145 H 204.979 -0.347639 -0.666822 0
M  V30 2146 H 206.95 -2.07849 -2.14106 0
M  V30 2147 C 205.699 -0.808143 -3.38178 0
M  V30 2148 H 205.022 -1.63231 -3.6496 0
M  V30 2149 H 206.462 -0.736426 -4.17556 0
M  V30 2150 C 204.921 0.488226 -3.33344 0
M  V30 2151 O 205.451 1.51766 -3.71927 0
M  V30 2152 N 203.657 0.490009 -2.86439 0
M  V30 2153 H 203.204 -0.348161 -2.55236 0
M  V30 2154 H 203.162 1.35741 -2.83587 0
M  V30 2155 N 206.934 1.1197 -1.10907 0
M  V30 2156 C 207.897 2.16031 -0.765707 0
M  V30 2157 C 208.897 1.59393 0.212235 0
M  V30 2158 O 210.087 1.74196 -0.0115441 0
M  V30 2159 C 207.219 3.40632 -0.135053 0
M  V30 2160 H 208.412 2.47919 -1.68748 0
M  V30 2161 H 205.965 1.27061 -0.910226 0
M  V30 2162 H 206.7 3.14348 0.797218 0
M  V30 2163 H 206.485 3.8302 -0.838937 0
M  V30 2164 H 207.975 4.17505 0.0892469 0
M  V30 2165 N 208.412 0.89855 1.29475 0
M  V30 2166 C 209.658 0.534065 1.96263 0
M  V30 2167 C 210.013 -0.909415 1.69551 0
M  V30 2168 O 209.306 -1.63596 0.997349 0
M  V30 2169 C 209.5 0.761398 3.49195 0
M  V30 2170 C 209.329 2.22542 3.90775 0
M  V30 2171 C 208.099 2.87264 4.15701 0
M  V30 2172 C 210.297 3.20051 4.02581 0
M  V30 2173 N 208.279 4.24121 4.4384 0
M  V30 2174 C 209.65 4.42023 4.34759 0
M  V30 2175 C 211.705 3.15657 3.85052 0
M  V30 2176 C 210.408 5.60161 4.51235 0
M  V30 2177 C 212.434 4.33078 4.02737 0
M  V30 2178 C 211.796 5.5382 4.35273 0
M  V30 2179 H 207.895 0.245013 0.742625 0
M  V30 2180 H 210.479 1.15912 1.56437 0
M  V30 2181 H 208.65 0.165732 3.88046 0
M  V30 2182 H 210.382 0.362462 4.03074 0
M  V30 2183 H 207.137 2.38064 4.09417 0
M  V30 2184 H 207.561 4.94839 4.6202 0
M  V30 2185 H 212.203 2.23396 3.58962 0
M  V30 2186 H 209.921 6.52913 4.76162 0
M  V30 2187 H 213.507 4.31163 3.90628 0
M  V30 2188 H 212.387 6.43166 4.48672 0
M  V30 2189 N 209.89 -1.43072 0.660911 0
M  V30 2190 C 211.13 -2.03596 0.181146 0
M  V30 2191 C 211.494 -1.51057 -1.18515 0
M  V30 2192 O 212.695 -2.03275 -1.75877 0
M  V30 2193 C 210.966 -3.56845 0.19911 0
M  V30 2194 S 212.525 -4.38289 -0.211684 0
M  V30 2195 H 209.343 -0.706954 0.0757479 0
M  V30 2196 H 211.945 -1.75027 0.870965 0
M  V30 2197 H 210.649 -3.92583 1.1961 0
M  V30 2198 H 210.18 -3.90067 -0.510996 0
M  V30 2199 H 212.195 -4.74583 -1.44863 0
M  V30 2200 N 211.368 -0.403325 -1.52352 0
M  V30 2201 C 212.779 0.0675782 -1.86578 0
M  V30 2202 C 213.13 1.44941 -1.32236 0
M  V30 2203 O 212.255 2.06112 -0.659307 0
M  V30 2204 C 212.85 0.129404 -3.38553 0
M  V30 2205 C 211.409 0.544629 -3.72439 0
M  V30 2206 C 210.556 -0.284551 -2.75836 0
M  V30 2207 H 213.507 -0.620631 -1.46061 0
M  V30 2208 H 213.528 0.94581 -3.68558 0
M  V30 2209 H 213.04 -0.87645 -3.78074 0
M  V30 2210 H 211.141 1.55734 -3.38493 0
M  V30 2211 H 211.254 0.293046 -4.78203 0
M  V30 2212 H 209.618 0.252258 -2.53448 0
M  V30 2213 H 210.401 -1.28865 -3.18196 0
M  V30 2214 N 212.846 1.57033 -0.133567 0
M  V30 2215 C 213.809 2.14897 0.796995 0
M  V30 2216 C 214.809 1.0874 1.18458 0
M  V30 2217 O 215.999 1.34446 1.1077 0
M  V30 2218 C 213.131 2.70112 2.07973 0
M  V30 2219 H 214.324 2.98457 0.293873 0
M  V30 2220 H 211.877 1.55871 0.115787 0
M  V30 2221 H 212.612 1.9018 2.62682 0
M  V30 2222 H 212.397 3.47764 1.81115 0
M  V30 2223 H 213.887 3.14738 2.74462 0
M  V30 2224 N 214.325 -0.140222 1.56975 0
M  V30 2225 C 215.602 -0.880769 1.74648 0
M  V30 2226 C 215.982 -1.99036 0.703404 0
M  V30 2227 O 215.33 -2.26821 -0.27648 0
M  V30 2228 C 215.54 -1.417 3.18939 0
M  V30 2229 C 216.888 -1.87774 3.80823 0
M  V30 2230 O 217.912 -1.51427 3.2241 0
M  V30 2231 O 216.771 -2.54827 4.83452 0
M  V30 2232 H 213.865 -0.416713 0.714338 0
M  V30 2233 H 216.411 -0.125618 1.69234 0
M  V30 2234 H 215.183 -0.619902 3.86359 0
M  V30 2235 H 214.806 -2.23546 3.28805 0
M  V30 2236 N 215.803 -1.52179 -0.40978 0
M  V30 2237 C 216.766 -1.74853 -1.48186 0
M  V30 2238 C 217.766 -0.618417 -1.48433 0
M  V30 2239 O 218.956 -0.886286 -1.49969 0
M  V30 2240 C 216.088 -1.8303 -2.87598 0
M  V30 2241 H 217.281 -2.70559 -1.29374 0
M  V30 2242 H 214.834 -1.42586 -0.640233 0
M  V30 2243 H 215.569 -0.89236 -3.11781 0
M  V30 2244 H 215.354 -2.65187 -2.88822 0
M  V30 2245 H 216.844 -2.02316 -3.65319 0
M  V30 2246 N 217.281 0.66697 -1.42791 0
M  V30 2247 C 218.527 1.4291 -1.43891 0
M  V30 2248 C 218.86 1.94114 -0.0578972 0
M  V30 2249 O 218.135 1.71414 0.91911 0
M  V30 2250 C 218.418 2.62049 -2.46987 0
M  V30 2251 C 218.271 2.16426 -3.94309 0
M  V30 2252 C 219.59 3.64266 -2.46978 0
M  V30 2253 H 216.709 0.518306 -0.523954 0
M  V30 2254 H 219.351 0.757321 -1.74255 0
M  V30 2255 H 217.501 3.19361 -2.21225 0
M  V30 2256 H 219.173 1.64221 -4.31079 0
M  V30 2257 H 217.416 1.47925 -4.078 0
M  V30 2258 H 218.087 3.02038 -4.62036 0
M  V30 2259 H 220.563 3.16686 -2.69906 0
M  V30 2260 H 219.439 4.45196 -3.21079 0
M  V30 2261 H 219.7 4.15927 -1.49857 0
M  V30 2262 N 218.759 1.29093 0.90403 0
M  V30 2263 C 219.989 1.19516 1.68522 0
M  V30 2264 C 220.397 -0.24738 1.87576 0
M  V30 2265 O 219.74 -1.17798 1.40959 0
M  V30 2266 C 219.802 1.83249 3.0929 0
M  V30 2267 C 219.466 3.32531 3.13484 0
M  V30 2268 C 220.463 4.28821 2.93953 0
M  V30 2269 C 218.148 3.73656 3.35688 0
M  V30 2270 C 220.142 5.64212 2.96553 0
M  V30 2271 C 217.829 5.0917 3.37919 0
M  V30 2272 C 218.827 6.04258 3.18373 0
M  V30 2273 O 218.515 7.37298 3.20385 0
M  V30 2274 H 218.247 0.415467 0.533257 0
M  V30 2275 H 220.801 1.70912 1.13922 0
M  V30 2276 H 219.031 1.26358 3.65473 0
M  V30 2277 H 220.72 1.68054 3.69476 0
M  V30 2278 H 221.486 3.98382 2.76616 0
M  V30 2279 H 217.365 3.00101 3.49943 0
M  V30 2280 H 220.909 6.38407 2.81216 0
M  V30 2281 H 216.806 5.39256 3.54787 0
M  V30 2282 H 217.574 7.46048 3.36681 0
M  V30 2283 N 220.237 -1.11381 1.11499 0
M  V30 2284 C 221.167 -2.19509 0.796125 0
M  V30 2285 C 222.148 -1.68458 -0.235796 0
M  V30 2286 O 223.333 -1.93947 -0.0991344 0
M  V30 2287 C 220.463 -3.46475 0.239205 0
M  V30 2288 C 219.417 -4.10744 1.20307 0
M  V30 2289 C 218.743 -5.32293 0.50683 0
M  V30 2290 C 220.043 -4.55597 2.55399 0
M  V30 2291 H 221.737 -2.46439 1.70024 0
M  V30 2292 H 219.283 -1.18446 0.818935 0
M  V30 2293 H 221.236 -4.214 0.00392006 0
M  V30 2294 H 219.96 -3.19006 -0.700206 0
M  V30 2295 H 218.619 -3.37813 1.42399 0
M  V30 2296 H 218.267 -5.01095 -0.437408 0
M  V30 2297 H 217.967 -5.76243 1.1497 0
M  V30 2298 H 219.491 -6.09956 0.280351 0
M  V30 2299 H 220.905 -5.21841 2.37391 0
M  V30 2300 H 219.302 -5.10363 3.15673 0
M  V30 2301 H 220.372 -3.69013 3.14575 0
M  V30 2302 N 221.715 -0.905404 -1.28997 0
M  V30 2303 C 222.992 -0.453513 -1.9027 0
M  V30 2304 C 223.372 1.06721 -1.82137 0
M  V30 2305 O 222.72 1.91159 -1.25182 0
M  V30 2306 C 222.93 -0.974494 -3.35119 0
M  V30 2307 C 224.278 -1.0216 -4.12127 0
M  V30 2308 O 225.302 -0.922557 -3.44046 0
M  V30 2309 O 224.161 -1.17121 -5.33802 0
M  V30 2310 H 221.255 -0.142347 -0.814657 0
M  V30 2311 H 223.801 -0.995642 -1.37423 0
M  V30 2312 H 222.573 -2.01848 -3.35221 0
M  V30 2313 H 222.196 -0.412706 -3.95452 0
M  V30 2314 N 223.193 1.4272 -0.668489 0
M  V30 2315 C 224.418 2.06484 -0.194758 0
M  V30 2316 C 224.843 1.49862 1.13679 0
M  V30 2317 O 224.201 0.614582 1.70565 0
M  V30 2318 C 224.249 3.60353 -0.133546 0
M  V30 2319 O 223.353 4.02464 0.899806 0
M  V30 2320 H 222.694 0.656137 -0.10188 0
M  V30 2321 H 225.224 1.82964 -0.915722 0
M  V30 2322 H 225.234 4.07976 0.0447041 0
M  V30 2323 H 223.909 4.00938 -1.1055 0
M  V30 2324 H 222.486 3.66402 0.693109 0
M  V30 2325 N 224.671 0.411399 1.52136 0
M  V30 2326 C 225.581 -0.419774 2.30814 0
M  V30 2327 C 226.597 -1.0515 1.38634 0
M  V30 2328 O 227.773 -1.05252 1.71709 0
M  V30 2329 C 224.838 -1.52019 3.11594 0
M  V30 2330 C 223.899 -0.91129 4.19516 0
M  V30 2331 C 223.132 -1.95927 4.96436 0
M  V30 2332 O 223.355 -3.17775 4.73683 0
M  V30 2333 O 222.289 -1.56423 5.81219 0
M  V30 2334 H 226.115 0.221805 3.02889 0
M  V30 2335 H 223.7 0.174547 1.48377 0
M  V30 2336 H 225.582 -2.15898 3.61892 0
M  V30 2337 H 224.257 -2.14633 2.42311 0
M  V30 2338 H 223.164 -0.235157 3.7336 0
M  V30 2339 H 224.497 -0.32904 4.91099 0
M  V30 2340 N 226.149 -1.5696 0.141893 0
M  V30 2341 C 227.059 -2.20066 -0.812905 0
M  V30 2342 C 228.075 -1.18344 -1.27557 0
M  V30 2343 O 229.251 -1.50902 -1.33381 0
M  V30 2344 C 226.316 -2.80583 -2.03652 0
M  V30 2345 C 225.377 -3.97414 -1.62359 0
M  V30 2346 C 224.61 -4.55036 -2.78887 0
M  V30 2347 O 224.833 -4.11538 -3.94959 0
M  V30 2348 O 223.767 -5.45376 -2.54653 0
M  V30 2349 H 227.593 -3.02157 -0.305746 0
M  V30 2350 H 225.178 -1.49159 -0.0848799 0
M  V30 2351 H 227.06 -3.19067 -2.75272 0
M  V30 2352 H 225.735 -2.01508 -2.5333 0
M  V30 2353 H 224.642 -3.63656 -0.877775 0
M  V30 2354 H 225.975 -4.77994 -1.17401 0
M  V30 2355 N 227.627 0.131896 -1.57047 0
M  V30 2356 C 228.537 1.1815 -2.02676 0
M  V30 2357 C 229.553 1.46113 -0.944824 0
M  V30 2358 O 230.729 1.57485 -1.25541 0
M  V30 2359 C 227.794 2.49139 -2.41103 0
M  V30 2360 C 226.855 2.28688 -3.63318 0
M  V30 2361 C 226.088 3.53431 -3.99903 0
M  V30 2362 O 226.311 4.60223 -3.36973 0
M  V30 2363 O 225.245 3.45198 -4.93074 0
M  V30 2364 H 229.071 0.824069 -2.92306 0
M  V30 2365 H 226.656 0.341745 -1.45439 0
M  V30 2366 H 228.538 3.26338 -2.66611 0
M  V30 2367 H 227.213 2.84382 -1.54624 0
M  V30 2368 H 226.12 1.4939 -3.42977 0
M  V30 2369 H 227.453 1.98355 -4.50462 0
M  V30 2370 N 229.106 1.52395 0.401703 0
M  V30 2371 C 230.522 1.41363 0.740864 0
M  V30 2372 C 230.722 0.523982 1.94568 0
M  V30 2373 O 229.778 -0.00741204 2.52499 0
M  V30 2374 C 231.091 2.84011 0.987847 0
M  V30 2375 C 232.639 2.93404 1.09011 0
M  V30 2376 C 233.114 4.37036 1.3698 0
M  V30 2377 N 234.605 4.40304 1.43829 0
M  V30 2378 C 235.34 5.48508 1.67112 0
M  V30 2379 N 234.836 6.66819 1.87949 0
M  V30 2380 N 236.629 5.36034 1.69187 0
M  V30 2381 H 228.78 2.08765 -0.391262 0
M  V30 2382 H 231.043 0.941265 -0.112798 0
M  V30 2383 H 230.749 3.51265 0.174835 0
M  V30 2384 H 230.623 3.25502 1.906 0
M  V30 2385 H 233.01 2.26325 1.8937 0
M  V30 2386 H 233.091 2.55359 0.15015 0
M  V30 2387 H 232.735 5.04676 0.571353 0
M  V30 2388 H 232.665 4.72623 2.3224 0
M  V30 2389 H 235.156 3.55024 1.29486 0
M  V30 2390 H 235.469 7.45063 2.05185 0
M  V30 2391 H 233.814 6.6987 1.85199 0
M  V30 2392 H 237.005 4.42579 1.52451 0
M  V30 2393 H 237.178 6.20434 1.86993 0
M  V30 2394 N 230.584 -0.659388 1.43143 0
M  V30 2395 C 231.516 -1.7849 1.43784 0
M  V30 2396 C 232.529 -1.5932 0.334787 0
M  V30 2397 O 233.718 -1.68155 0.598842 0
M  V30 2398 C 230.818 -3.15828 1.22906 0
M  V30 2399 C 229.991 -3.61711 2.45934 0
M  V30 2400 C 229.05 -4.77831 2.20371 0
M  V30 2401 O 228.076 -4.87586 2.93681 0
M  V30 2402 N 229.278 -5.67611 1.21647 0
M  V30 2403 H 232.043 -1.7842 2.40803 0
M  V30 2404 H 229.604 -0.84302 1.3822 0
M  V30 2405 H 231.596 -3.91189 1.03697 0
M  V30 2406 H 230.166 -3.10707 0.343542 0
M  V30 2407 H 229.386 -2.76861 2.80609 0
M  V30 2408 H 230.674 -3.89112 3.27825 0
M  V30 2409 H 230.072 -5.62397 0.610449 0
M  V30 2410 H 228.629 -6.42719 1.08423 0
M  V30 2411 N 232.062 -1.29571 -0.897171 0
M  V30 2412 C 232.972 -1.16808 -2.03453 0
M  V30 2413 C 233.988 -0.0907471 -1.73763 0
M  V30 2414 O 235.164 -0.303312 -1.99103 0
M  V30 2415 C 232.229 -0.848264 -3.36163 0
M  V30 2416 C 231.29 -2.0097 -3.79354 0
M  V30 2417 C 230.523 -1.70505 -5.05731 0
M  V30 2418 O 230.746 -0.62718 -5.66941 0
M  V30 2419 O 229.68 -2.5538 -5.45036 0
M  V30 2420 H 233.506 -2.12325 -2.17144 0
M  V30 2421 H 231.091 -1.09047 -1.02123 0
M  V30 2422 H 232.973 -0.684581 -4.15802 0
M  V30 2423 H 231.648 0.0771071 -3.23608 0
M  V30 2424 H 230.555 -2.22863 -3.00471 0
M  V30 2425 H 231.888 -2.91636 -3.96496 0
M  V30 2426 N 233.54 1.10788 -1.12088 0
M  V30 2427 C 234.77 1.86191 -0.895351 0
M  V30 2428 C 235.178 1.80763 0.558702 0
M  V30 2429 O 234.521 1.19188 1.39785 0
M  V30 2430 C 234.583 3.35659 -1.28737 0
M  V30 2431 C 234.247 3.64849 -2.75198 0
M  V30 2432 C 235.244 3.61757 -3.734 0
M  V30 2433 C 232.929 3.93641 -3.12013 0
M  V30 2434 C 234.923 3.87045 -5.06434 0
M  V30 2435 C 232.61 4.18585 -4.4523 0
M  V30 2436 C 233.608 4.15277 -5.42249 0
M  V30 2437 O 233.296 4.3959 -6.73065 0
M  V30 2438 H 233.028 0.595425 -0.32007 0
M  V30 2439 H 235.582 1.40992 -1.49367 0
M  V30 2440 H 233.812 3.81497 -0.63224 0
M  V30 2441 H 235.501 3.92441 -1.03656 0
M  V30 2442 H 236.267 3.39557 -3.46303 0
M  V30 2443 H 232.146 3.95348 -2.37109 0
M  V30 2444 H 235.69 3.84378 -5.82151 0
M  V30 2445 H 231.587 4.40264 -4.72057 0
M  V30 2446 H 232.355 4.57123 -6.78956 0
M  V30 2447 N 235.018 0.912232 1.28515 0
M  V30 2448 C 236.264 0.545405 1.95328 0
M  V30 2449 C 236.597 -0.908313 1.71649 0
M  V30 2450 O 235.872 -1.64575 1.03659 0
M  V30 2451 C 236.155 0.853483 3.4984 0
M  V30 2452 C 236.008 2.35982 3.82926 0
M  V30 2453 C 237.327 0.348589 4.38717 0
M  V30 2454 H 234.446 0.199626 0.709449 0
M  V30 2455 H 237.088 1.1412 1.5191 0
M  V30 2456 H 235.238 0.34643 3.86952 0
M  V30 2457 H 236.91 2.93738 3.55691 0
M  V30 2458 H 235.153 2.81543 3.30024 0
M  V30 2459 H 235.824 2.52593 4.90816 0
M  V30 2460 H 238.3 0.78294 4.08668 0
M  V30 2461 H 237.176 0.593242 5.45685 0
M  V30 2462 H 237.437 -0.751049 4.35674 0
M  V30 2463 N 236.496 -1.42363 0.676048 0
M  V30 2464 C 237.426 -2.33497 0.0124832 0
M  V30 2465 C 238.407 -1.50748 -0.787981 0
M  V30 2466 O 239.592 -1.79346 -0.744884 0
M  V30 2467 C 236.722 -3.34377 -0.938582 0
M  V30 2468 C 235.676 -4.27289 -0.246622 0
M  V30 2469 C 235.002 -5.18386 -1.31071 0
M  V30 2470 C 236.302 -5.14916 0.875125 0
M  V30 2471 H 237.996 -2.89233 0.773593 0
M  V30 2472 H 235.542 -1.39073 0.37346 0
M  V30 2473 H 237.495 -3.97044 -1.41188 0
M  V30 2474 H 236.219 -2.76947 -1.73113 0
M  V30 2475 H 234.878 -3.66018 0.206456 0
M  V30 2476 H 234.526 -4.57282 -2.09528 0
M  V30 2477 H 234.226 -5.81378 -0.852839 0
M  V30 2478 H 235.75 -5.83929 -1.78492 0
M  V30 2479 H 237.164 -5.71262 0.482983 0
M  V30 2480 H 235.561 -5.86747 1.25887 0
M  V30 2481 H 236.631 -4.53242 1.72335 0
M  V30 2482 N 237.974 -0.419461 -1.51915 0
M  V30 2483 C 239.202 0.152136 -2.0634 0
M  V30 2484 C 239.617 1.37988 -1.28859 0
M  V30 2485 O 238.974 1.79243 -0.343232 0
M  V30 2486 C 239.025 0.492266 -3.58133 0
M  V30 2487 O 238.746 -0.686736 -4.32684 0
M  V30 2488 C 240.247 1.11648 -4.2901 0
M  V30 2489 H 237.467 0.0158325 -0.670813 0
M  V30 2490 H 240.011 -0.593394 -1.95702 0
M  V30 2491 H 238.166 1.18769 -3.68745 0
M  V30 2492 H 238.58 -0.400341 -5.2297 0
M  V30 2493 H 240.054 1.3046 -5.36362 0
M  V30 2494 H 240.531 2.09251 -3.86148 0
M  V30 2495 H 241.137 0.460958 -4.22795 0
M  V30 2496 N 239.452 1.56882 -0.150215 0
M  V30 2497 C 240.384 2.14057 0.819286 0
M  V30 2498 C 241.397 1.09082 1.20851 0
M  V30 2499 O 242.586 1.36347 1.15203 0
M  V30 2500 C 239.686 2.65102 2.11127 0
M  V30 2501 C 238.859 3.94511 1.88891 0
M  V30 2502 C 237.918 4.30834 3.02107 0
M  V30 2503 O 236.944 4.99099 2.73659 0
M  V30 2504 N 238.146 3.90676 4.29363 0
M  V30 2505 H 240.911 2.97871 0.330618 0
M  V30 2506 H 238.472 1.61866 0.0332538 0
M  V30 2507 H 240.464 2.86411 2.85921 0
M  V30 2508 H 239.034 1.85994 2.51247 0
M  V30 2509 H 238.254 3.81795 0.981152 0
M  V30 2510 H 239.542 4.7907 1.71376 0
M  V30 2511 H 238.94 3.35677 4.55343 0
M  V30 2512 H 237.497 4.1703 5.00928 0
M  V30 2513 N 240.93 -0.123565 1.57115 0
M  V30 2514 C 241.862 -1.17739 1.96648 0
M  V30 2515 C 242.875 -1.37906 0.865201 0
M  V30 2516 O 244.064 -1.37062 1.14351 0
M  V30 2517 C 241.164 -2.53821 2.24562 0
M  V30 2518 C 240.337 -2.54317 3.55867 0
M  V30 2519 C 239.396 -3.72112 3.72047 0
M  V30 2520 O 238.422 -3.55907 4.44206 0
M  V30 2521 N 239.624 -4.90498 3.10471 0
M  V30 2522 H 242.389 -0.841147 2.87654 0
M  V30 2523 H 239.95 -0.31289 1.58848 0
M  V30 2524 H 241.942 -3.31175 2.32606 0
M  V30 2525 H 240.512 -2.79645 1.39705 0
M  V30 2526 H 239.732 -1.62711 3.59053 0
M  V30 2527 H 241.02 -2.51701 4.42181 0
M  V30 2528 H 240.418 -5.06567 2.51806 0
M  V30 2529 H 238.975 -5.65544 3.24043 0
M  V30 2530 N 242.408 -1.52605 -0.393616 0
M  V30 2531 C 243.656 -1.67093 -1.13685 0
M  V30 2532 C 243.977 -0.411011 -1.90619 0
M  V30 2533 O 243.247 0.574491 -1.87287 0
M  V30 2534 H 241.827 -0.615923 -0.422668 0
M  V30 2535 H 244.489 -1.89704 -0.447039 0
M  V30 2536 H 243.585 -2.51922 -1.84232 0
M  V30 2537 N 243.887 0.651787 -1.4349 0
M  V30 2538 C 245.134 1.41167 -1.45183 0
M  V30 2539 C 245.462 1.94349 -0.0766601 0
M  V30 2540 O 244.717 1.72804 0.918555 0
M  V30 2541 C 245.016 2.60914 -2.44251 0
M  V30 2542 C 244.682 2.26142 -3.9009 0
M  V30 2543 C 243.344 2.16371 -4.2981 0
M  V30 2544 C 245.696 1.98334 -4.81989 0
M  V30 2545 C 243.024 1.7695 -5.5938 0
M  V30 2546 C 245.376 1.6041 -6.11924 0
M  V30 2547 C 244.04 1.49166 -6.5062 0
M  V30 2548 H 243.31 0.516566 -0.531263 0
M  V30 2549 H 245.957 0.741099 -1.76579 0
M  V30 2550 H 244.262 3.3311 -2.06265 0
M  V30 2551 H 245.959 3.19127 -2.42815 0
M  V30 2552 H 242.549 2.34658 -3.58655 0
M  V30 2553 H 246.733 2.04803 -4.52072 0
M  V30 2554 H 241.989 1.66831 -5.88198 0
M  V30 2555 H 246.163 1.37925 -6.82605 0
M  V30 2556 H 243.79 1.1839 -7.50925 0
M  V30 2557 N 245.365 1.30045 0.890287 0
M  V30 2558 C 246.614 1.17929 1.63633 0
M  V30 2559 C 246.927 -0.266204 1.9378 0
M  V30 2560 O 248.133 -0.508804 2.6669 0
M  V30 2561 C 246.589 2.06317 2.94892 0
M  V30 2562 C 246.197 3.55745 2.72305 0
M  V30 2563 C 247.941 2.0295 3.72843 0
M  V30 2564 C 245.848 4.36205 3.99348 0
M  V30 2565 H 244.778 0.437782 0.613892 0
M  V30 2566 H 247.429 1.54754 0.986075 0
M  V30 2567 H 245.811 1.6237 3.61182 0
M  V30 2568 H 246.985 4.07805 2.1455 0
M  V30 2569 H 245.3 3.6088 2.07737 0
M  V30 2570 H 247.897 2.60319 4.67053 0
M  V30 2571 H 248.24 1.0117 4.0382 0
M  V30 2572 H 248.773 2.4499 3.13408 0
M  V30 2573 H 245.512 5.38659 3.73533 0
M  V30 2574 H 245.032 3.8891 4.56628 0
M  V30 2575 H 246.711 4.47362 4.67415 0
M  V30 2576 N 246.843 -1.10192 1.12674 0
M  V30 2577 C 248.073 -1.85713 0.905213 0
M  V30 2578 C 248.481 -1.81056 -0.549108 0
M  V30 2579 O 247.824 -1.19927 -1.39151 0
M  V30 2580 C 247.886 -3.34972 1.30516 0
M  V30 2581 C 247.55 -3.63385 2.77129 0
M  V30 2582 C 248.547 -3.59772 3.75313 0
M  V30 2583 C 246.232 -3.91981 3.14096 0
M  V30 2584 C 248.226 -3.84354 5.08479 0
M  V30 2585 C 245.913 -4.16218 4.47443 0
M  V30 2586 C 246.911 -4.12395 5.44444 0
M  V30 2587 O 246.599 -4.36014 6.75387 0
M  V30 2588 H 246.331 -0.593719 0.323223 0
M  V30 2589 H 248.885 -1.40198 1.50112 0
M  V30 2590 H 247.115 -3.81156 0.652463 0
M  V30 2591 H 248.804 -3.91886 1.05736 0
M  V30 2592 H 249.57 -3.37716 3.48099 0
M  V30 2593 H 245.449 -3.94085 2.39202 0
M  V30 2594 H 248.993 -3.81285 5.84181 0
M  V30 2595 H 244.89 -4.37754 4.74386 0
M  V30 2596 H 245.658 -4.53516 6.8137 0
M  V30 2597 N 248.321 -0.919034 -1.28029 0
M  V30 2598 C 249.253 -0.368762 -2.26214 0
M  V30 2599 C 250.266 0.495716 -1.55069 0
M  V30 2600 O 251.455 0.30974 -1.75792 0
M  V30 2601 C 248.555 0.491049 -3.35324 0
M  V30 2602 C 247.728 -0.352133 -4.3598 0
M  V30 2603 C 246.787 0.443622 -5.24327 0
M  V30 2604 O 245.813 -0.14566 -5.69014 0
M  V30 2605 N 247.015 1.74545 -5.53637 0
M  V30 2606 H 249.78 -1.21273 -2.74068 0
M  V30 2607 H 247.341 -0.785541 -1.41566 0
M  V30 2608 H 249.333 1.03026 -3.91366 0
M  V30 2609 H 247.903 1.23574 -2.87138 0
M  V30 2610 H 247.123 -1.07269 -3.79324 0
M  V30 2611 H 248.411 -0.928883 -5.00249 0
M  V30 2612 H 247.809 2.24666 -5.19174 0
M  V30 2613 H 246.366 2.23138 -6.12416 0
M  V30 2614 N 249.799 1.42003 -0.683588 0
M  V30 2615 C 251.047 2.01015 -0.209101 0
M  V30 2616 C 251.368 1.54365 1.19149 0
M  V30 2617 O 250.638 0.769083 1.80172 0
M  V30 2618 H 249.218 0.743294 -0.074315 0
M  V30 2619 H 251.88 1.73798 -0.882066 0
M  V30 2620 H 250.976 3.11343 -0.2172 0
M  V30 2621 N 251.277 0.427512 1.51691 0
M  V30 2622 C 252.502 -0.143601 2.06902 0
M  V30 2623 C 252.927 -1.36536 1.29382 0
M  V30 2624 O 252.285 -1.78289 0.329043 0
M  V30 2625 C 252.333 -0.454207 3.57728 0
M  V30 2626 O 251.437 -1.54228 3.82475 0
M  V30 2627 H 250.778 -0.00617128 0.663971 0
M  V30 2628 H 253.308 0.606014 1.95419 0
M  V30 2629 H 253.318 -0.707525 4.01818 0
M  V30 2630 H 251.993 0.438812 4.13579 0
M  V30 2631 H 250.57 -1.2797 3.50254 0
M  V30 2632 N 252.755 -1.56801 0.158532 0
M  V30 2633 C 253.718 -2.16138 -0.762705 0
M  V30 2634 C 254.718 -1.1061 -1.16713 0
M  V30 2635 O 255.908 -1.36191 -1.08617 0
M  V30 2636 C 253.04 -2.73386 -2.03649 0
M  V30 2637 H 254.233 -2.98886 -0.246354 0
M  V30 2638 H 251.786 -1.56035 -0.0909744 0
M  V30 2639 H 252.521 -1.94335 -2.59623 0
M  V30 2640 H 252.306 -3.50601 -1.75559 0
M  V30 2641 H 253.796 -3.19065 -2.6942 0
M  V30 2642 N 254.233 0.115231 -1.57178 0
M  V30 2643 C 255.18 1.14115 -2.00615 0
M  V30 2644 C 256.15 1.40939 -0.878941 0
M  V30 2645 O 257.335 1.52741 -1.14345 0
M  V30 2646 C 254.475 2.46156 -2.4187 0
M  V30 2647 C 253.588 2.26236 -3.68024 0
M  V30 2648 C 252.723 3.51534 -3.98243 0
M  V30 2649 C 251.762 3.26787 -5.17568 0
M  V30 2650 N 250.899 4.44298 -5.43639 0
M  V30 2651 H 255.739 0.763743 -2.88047 0
M  V30 2652 H 253.276 0.365615 -1.42484 0
M  V30 2653 H 255.234 3.23189 -2.63827 0
M  V30 2654 H 253.864 2.81783 -1.57475 0
M  V30 2655 H 252.916 1.40102 -3.5366 0
M  V30 2656 H 254.228 2.03929 -4.55208 0
M  V30 2657 H 253.382 4.36984 -4.20868 0
M  V30 2658 H 252.121 3.76876 -3.09541 0
M  V30 2659 H 251.126 2.39729 -4.94783 0
M  V30 2660 H 252.351 3.02812 -6.0785 0
M  V30 2661 H 250.297 4.69754 -4.57895 0
M  V30 2662 H 250.214 4.25109 -6.25154 0
M  V30 2663 H 251.482 5.3087 -5.70786 0
M  V30 2664 N 255.711 1.52812 0.385517 0
M  V30 2665 C 256.958 1.68026 1.1302 0
M  V30 2666 C 257.286 0.421934 1.89868 0
M  V30 2667 O 256.541 -0.595749 1.86412 0
M  V30 2668 C 256.84 2.86856 2.13187 0
M  V30 2669 C 256.506 4.24159 1.5297 0
M  V30 2670 C 255.168 4.61501 1.36274 0
M  V30 2671 C 257.52 5.09627 1.09223 0
M  V30 2672 C 254.848 5.81966 0.743837 0
M  V30 2673 C 257.2 6.30719 0.487411 0
M  V30 2674 C 255.864 6.6679 0.307777 0
M  V30 2675 H 255.134 0.614849 0.413571 0
M  V30 2676 H 257.781 1.86962 0.414405 0
M  V30 2677 H 256.086 2.6235 2.90998 0
M  V30 2678 H 257.783 2.95821 2.70722 0
M  V30 2679 H 254.373 3.94746 1.66954 0
M  V30 2680 H 258.557 4.81343 1.20922 0
M  V30 2681 H 253.813 6.08519 0.592891 0
M  V30 2682 H 257.987 6.96259 0.140143 0
M  V30 2683 H 255.614 7.60001 -0.173879 0
M  V30 2684 N 257.189 -0.644168 1.43834 0
M  V30 2685 C 258.438 -1.39985 1.45214 0
M  V30 2686 C 258.751 -1.95421 0.0835494 0
M  V30 2687 O 259.957 -2.71488 -0.0251748 0
M  V30 2688 C 258.413 -2.53384 2.55587 0
M  V30 2689 C 258.021 -2.04517 3.98594 0
M  V30 2690 C 259.765 -3.30685 2.66172 0
M  V30 2691 C 257.672 -3.1518 5.00416 0
M  V30 2692 H 256.602 -0.526005 0.540218 0
M  V30 2693 H 259.253 -0.694367 1.69855 0
M  V30 2694 H 257.635 -3.26446 2.24163 0
M  V30 2695 H 258.809 -1.38405 4.39523 0
M  V30 2696 H 257.124 -1.40068 3.92135 0
M  V30 2697 H 259.721 -4.13158 3.39418 0
M  V30 2698 H 260.064 -3.79312 1.71546 0
M  V30 2699 H 260.597 -2.64708 2.96942 0
M  V30 2700 H 257.336 -2.71511 5.96625 0
M  V30 2701 H 256.856 -3.79974 4.64091 0
M  V30 2702 H 258.535 -3.80166 5.23529 0
M  V30 2703 N 258.668 -1.30515 -0.883378 0
M  V30 2704 C 259.615 -1.17032 -1.98927 0
M  V30 2705 C 260.585 -0.0594241 -1.65994 0
M  V30 2706 O 261.77 -0.229895 -1.8941 0
M  V30 2707 C 258.91 -0.869777 -3.33959 0
M  V30 2708 C 258.023 -2.06271 -3.79574 0
M  V30 2709 C 257.158 -1.70011 -5.03259 0
M  V30 2710 C 256.197 -2.8579 -5.41286 0
M  V30 2711 N 255.334 -2.49816 -6.56153 0
M  V30 2712 H 260.174 -2.1164 -2.09792 0
M  V30 2713 H 257.711 -1.05296 -1.02719 0
M  V30 2714 H 259.669 -0.676138 -4.11685 0
M  V30 2715 H 258.299 0.0394332 -3.22776 0
M  V30 2716 H 257.351 -2.36755 -2.97744 0
M  V30 2717 H 258.663 -2.92971 -4.03694 0
M  V30 2718 H 257.817 -1.47032 -5.88614 0
M  V30 2719 H 256.556 -0.804829 -4.81013 0
M  V30 2720 H 255.561 -3.09434 -4.54456 0
M  V30 2721 H 256.786 -3.76008 -5.65504 0
M  V30 2722 H 254.732 -1.62795 -6.35479 0
M  V30 2723 H 254.649 -3.30048 -6.8015 0
M  V30 2724 H 255.917 -2.30197 -7.44735 0
M  V30 2725 N 260.146 1.09593 -1.13257 0
M  V30 2726 C 261.094 2.18271 -0.803783 0
M  V30 2727 C 262.088 1.68054 0.213148 0
M  V30 2728 O 263.294 1.79862 0.0704699 0
M  V30 2729 H 259.669 0.711949 -0.242143 0
M  V30 2730 H 261.64 2.43235 -1.72856 0
M  V30 2731 C 260.389 3.46536 -0.28424 0
M  V30 2732 H 259.712 3.85545 -1.05807 0
M  V30 2733 H 261.152 4.23899 -0.0925945 0
M  V30 2734 C 259.611 3.22036 0.989684 0
M  V30 2735 O 260.141 3.44509 2.06584 0
M  V30 2736 N 258.347 2.7565 0.920086 0
M  V30 2737 H 257.894 2.57562 0.0442019 0
M  V30 2738 H 257.852 2.59635 1.77306 0
M  V30 2739 N 261.624 0.925811 1.2754 0
M  V30 2740 C 262.873 0.561084 1.93739 0
M  V30 2741 C 263.186 -0.901685 1.73577 0
M  V30 2742 O 264.392 -1.37511 2.34101 0
M  V30 2743 C 262.848 0.952668 3.47062 0
M  V30 2744 C 262.456 2.43599 3.75983 0
M  V30 2745 C 264.2 0.659103 4.19352 0
M  V30 2746 C 262.107 2.76707 5.22673 0
M  V30 2747 H 261.037 0.206122 0.725279 0
M  V30 2748 H 263.688 1.12637 1.44863 0
M  V30 2749 H 262.07 0.316053 3.94737 0
M  V30 2750 H 263.244 3.12035 3.39073 0
M  V30 2751 H 261.559 2.70125 3.16893 0
M  V30 2752 H 264.156 0.882985 5.27359 0
M  V30 2753 H 264.499 -0.403607 4.14339 0
M  V30 2754 H 265.032 1.25473 3.77494 0
M  V30 2755 H 261.771 3.8188 5.32774 0
M  V30 2756 H 261.291 2.12919 5.60737 0
M  V30 2757 H 262.97 2.6435 5.90532 0
M  V30 2758 N 263.102 -1.41638 0.69111 0
M  V30 2759 C 264.513 -1.84346 0.295517 0
M  V30 2760 C 264.864 -1.57833 -1.16547 0
M  V30 2761 O 263.989 -1.04648 -1.89414 0
M  V30 2762 C 264.584 -3.34636 0.529575 0
M  V30 2763 C 263.143 -3.7593 0.187944 0
M  V30 2764 C 262.29 -2.65082 0.814052 0
M  V30 2765 H 265.241 -1.31253 0.892092 0
M  V30 2766 H 265.262 -3.79903 -0.213148 0
M  V30 2767 H 264.774 -3.53901 1.59297 0
M  V30 2768 H 262.875 -3.62268 -0.871367 0
M  V30 2769 H 262.988 -4.74808 0.63985 0
M  V30 2770 H 261.352 -2.53528 0.244017 0
M  V30 2771 H 262.135 -2.87167 1.88123 0
M  V30 2772 N 264.58 -0.43555 -1.51462 0
M  V30 2773 C 265.826 0.123979 -2.03022 0
M  V30 2774 C 266.181 1.4054 -1.31401 0
M  V30 2775 O 265.474 1.86948 -0.419634 0
M  V30 2776 C 265.668 0.39942 -3.55161 0
M  V30 2777 C 265.497 -0.853754 -4.41521 0
M  V30 2778 C 264.267 -1.38675 -4.85898 0
M  V30 2779 C 266.465 -1.73939 -4.83994 0
M  V30 2780 N 264.447 -2.59265 -5.56466 0
M  V30 2781 C 265.818 -2.79135 -5.5361 0
M  V30 2782 C 267.873 -1.75402 -4.65981 0
M  V30 2783 C 266.576 -3.85737 -6.07124 0
M  V30 2784 C 268.602 -2.80938 -5.20411 0
M  V30 2785 C 267.964 -3.84854 -5.89972 0
M  V30 2786 H 264.063 0.00624887 -0.781975 0
M  V30 2787 H 266.647 -0.59582 -1.85359 0
M  V30 2788 H 264.818 1.08825 -3.72843 0
M  V30 2789 H 266.55 0.95015 -3.93388 0
M  V30 2790 H 263.305 -0.94094 -4.64159 0
M  V30 2791 H 263.729 -3.2041 -5.96378 0
M  V30 2792 H 268.371 -0.963926 -4.11665 0
M  V30 2793 H 266.089 -4.65586 -6.60496 0
M  V30 2794 H 269.675 -2.8301 -5.08327 0
M  V30 2795 H 268.555 -4.65176 -6.31333 0
M  V30 2796 N 266.058 1.56714 -0.166846 0
M  V30 2797 C 267.006 2.19056 0.782123 0
M  V30 2798 C 268 1.15328 1.24079 0
M  V30 2799 O 269.206 1.33537 1.20697 0
M  V30 2800 H 265.581 0.70167 0.270486 0
M  V30 2801 H 267.552 2.97494 0.232322 0
M  V30 2802 C 266.301 2.84206 2.00306 0
M  V30 2803 H 265.624 3.63748 1.65914 0
M  V30 2804 H 267.064 3.31302 2.64604 0
M  V30 2805 C 265.523 1.83744 2.82382 0
M  V30 2806 O 266.053 1.32014 3.79388 0
M  V30 2807 N 264.259 1.52601 2.47308 0
M  V30 2808 H 263.806 1.9486 1.68485 0
M  V30 2809 H 263.764 0.856351 3.02513 0
M  V30 2810 N 267.536 -0.106894 1.57237 0
M  V30 2811 C 268.783 -0.812526 1.85484 0
M  V30 2812 C 269.111 -1.79304 0.753687 0
M  V30 2813 O 268.366 -1.94047 -0.253853 0
M  V30 2814 C 268.665 -1.58628 3.20268 0
M  V30 2815 C 268.331 -0.748967 4.44636 0
M  V30 2816 C 266.993 -0.518104 4.78403 0
M  V30 2817 C 269.345 -0.166122 5.20935 0
M  V30 2818 C 266.673 0.305659 5.85903 0
M  V30 2819 C 269.025 0.644899 6.29304 0
M  V30 2820 C 267.689 0.885965 6.61594 0
M  V30 2821 H 266.959 -0.297324 0.678734 0
M  V30 2822 H 269.606 -0.0744332 1.91355 0
M  V30 2823 H 267.911 -2.39562 3.10028 0
M  V30 2824 H 269.608 -2.13643 3.39349 0
M  V30 2825 H 266.198 -0.939006 4.18187 0
M  V30 2826 H 270.382 -0.33167 4.95191 0
M  V30 2827 H 265.638 0.501528 6.0934 0
M  V30 2828 H 269.812 1.10345 6.87602 0
M  V30 2829 H 267.439 1.52609 7.44725 0
M  V30 2830 N 269.014 -1.53014 -0.377408 0
M  V30 2831 C 270.262 -1.6829 -1.11906 0
M  V30 2832 C 270.583 -0.431206 -1.90173 0
M  V30 2833 O 269.853 0.554595 -1.87886 0
M  V30 2834 H 268.433 -0.620371 -0.416112 0
M  V30 2835 H 271.095 -1.90167 -0.426893 0
M  V30 2836 H 270.191 -2.53862 -1.8155 0
M  V30 2837 N 270.492 0.636531 -1.44174 0
M  V30 2838 C 271.424 1.7618 -1.46606 0
M  V30 2839 C 272.437 1.58768 -0.360091 0
M  V30 2840 O 273.626 1.67181 -0.625518 0
M  V30 2841 C 270.726 3.13833 -1.27915 0
M  V30 2842 C 269.899 3.57753 -2.51658 0
M  V30 2843 C 268.958 4.74265 -2.27945 0
M  V30 2844 O 267.984 4.82852 -3.01401 0
M  V30 2845 N 269.186 5.65604 -1.30662 0
M  V30 2846 H 271.951 1.74567 -2.43612 0
M  V30 2847 H 269.512 0.820924 -1.39544 0
M  V30 2848 H 271.504 3.8949 -1.09907 0
M  V30 2849 H 270.074 3.10121 -0.39293 0
M  V30 2850 H 269.294 2.72362 -2.84978 0
M  V30 2851 H 270.582 3.83847 -3.33974 0
M  V30 2852 H 269.98 5.61354 -0.699844 0
M  V30 2853 H 268.537 6.40913 -1.18634 0
M  V30 2854 N 271.97 1.30982 0.876444 0
M  V30 2855 C 273.217 1.20296 1.62896 0
M  V30 2856 C 273.545 -0.240395 1.93009 0
M  V30 2857 O 272.8 -1.18733 1.55567 0
M  V30 2858 C 273.099 1.98572 2.9716 0
M  V30 2859 C 272.765 3.48125 2.86566 0
M  V30 2860 C 271.427 3.88905 2.83383 0
M  V30 2861 C 273.779 4.43322 2.74071 0
M  V30 2862 C 271.107 5.2316 2.65556 0
M  V30 2863 C 273.459 5.77695 2.57781 0
M  V30 2864 C 272.123 6.17704 2.52979 0
M  V30 2865 H 271.393 0.440193 0.59608 0
M  V30 2866 H 274.04 1.62177 1.01837 0
M  V30 2867 H 272.345 1.49352 3.62217 0
M  V30 2868 H 274.042 1.8769 3.54364 0
M  V30 2869 H 270.632 3.15723 2.89856 0
M  V30 2870 H 274.816 4.12752 2.75589 0
M  V30 2871 H 270.072 5.53241 2.60259 0
M  V30 2872 H 274.246 6.51091 2.47089 0
M  V30 2873 H 271.873 7.21678 2.38924 0
M  V30 2874 N 273.449 -1.08991 1.13837 0
M  V30 2875 C 274.359 -2.19301 0.833333 0
M  V30 2876 C 275.375 -1.73026 -0.183847 0
M  V30 2877 O 276.551 -2.01395 -0.0138092 0
M  V30 2878 C 273.616 -3.45323 0.308651 0
M  V30 2879 C 272.677 -4.06255 1.38764 0
M  V30 2880 C 271.91 -5.26262 0.887896 0
M  V30 2881 O 272.133 -5.69747 -0.27287 0
M  V30 2882 O 271.067 -5.78435 1.66421 0
M  V30 2883 H 274.893 -2.47854 1.75506 0
M  V30 2884 H 272.478 -1.18012 0.916166 0
M  V30 2885 H 274.36 -4.21394 0.0216739 0
M  V30 2886 H 273.035 -3.18362 -0.585431 0
M  V30 2887 H 271.942 -3.318 1.72799 0
M  V30 2888 H 273.275 -4.37452 2.25602 0
M  V30 2889 N 274.927 -0.932562 -1.27047 0
M  V30 2890 C 276.204 -0.49377 -1.89265 0
M  V30 2891 C 276.584 1.02833 -1.8436 0
M  V30 2892 O 275.932 1.88461 -1.29209 0
M  V30 2893 C 276.142 -1.04536 -3.32976 0
M  V30 2894 C 277.49 -1.10879 -4.09867 0
M  V30 2895 O 278.514 -0.995327 -3.42011 0
M  V30 2896 O 277.373 -1.28417 -5.31198 0
M  V30 2897 H 274.467 -0.159596 -0.811454 0
M  V30 2898 H 277.013 -1.02457 -1.3528 0
M  V30 2899 H 275.785 -2.08913 -3.30864 0
M  V30 2900 H 275.408 -0.496494 -3.94488 0
M  V30 2901 N 276.405 1.4127 -0.698611 0
M  V30 2902 C 277.653 2.00782 -0.230409 0
M  V30 2903 C 277.974 1.5562 1.17505 0
M  V30 2904 O 277.244 0.78815 1.79346 0
M  V30 2905 H 275.824 0.742464 -0.0821944 0
M  V30 2906 H 278.486 1.72852 -0.90045 0
M  V30 2907 H 277.582 3.11095 -0.25021 0
M  V30 2908 N 277.883 0.443576 1.51229 0
M  V30 2909 C 279.132 -0.122332 2.01329 0
M  V30 2910 C 279.445 -1.43237 1.33201 0
M  V30 2911 O 280.651 -2.0816 1.74304 0
M  V30 2912 C 279.107 -0.268551 3.58897 0
M  V30 2913 C 278.715 1.03142 4.35965 0
M  V30 2914 C 280.459 -0.787894 4.17124 0
M  V30 2915 C 278.366 0.850504 5.85252 0
M  V30 2916 H 277.296 -0.0494929 0.752374 0
M  V30 2917 H 279.947 0.574289 1.74282 0
M  V30 2918 H 278.329 -1.02832 3.82415 0
M  V30 2919 H 279.503 1.80001 4.24189 0
M  V30 2920 H 277.818 1.47977 3.89219 0
M  V30 2921 H 280.415 -0.939841 5.26375 0
M  V30 2922 H 280.758 -1.77201 3.76703 0
M  V30 2923 H 281.291 -0.0862669 3.97706 0
M  V30 2924 H 278.03 1.80718 6.30096 0
M  V30 2925 H 277.55 0.121825 5.99676 0
M  V30 2926 H 279.229 0.506163 6.45017 0
M  V30 2927 N 279.361 -1.56624 0.175154 0
M  V30 2928 C 280.291 -2.21155 -0.749195 0
M  V30 2929 C 281.272 -1.16836 -1.23626 0
M  V30 2930 O 282.457 -1.45277 -1.28873 0
M  V30 2931 C 279.587 -2.8553 -1.97711 0
M  V30 2932 C 278.541 -3.95921 -1.62575 0
M  V30 2933 C 277.867 -4.47365 -2.92864 0
M  V30 2934 C 279.167 -5.15323 -0.850838 0
M  V30 2935 H 280.861 -2.98653 -0.211295 0
M  V30 2936 H 278.407 -1.43651 -0.100188 0
M  V30 2937 H 280.36 -3.2935 -2.62881 0
M  V30 2938 H 279.084 -2.05406 -2.53921 0
M  V30 2939 H 277.743 -3.52762 -0.997719 0
M  V30 2940 H 277.391 -3.64027 -3.47122 0
M  V30 2941 H 277.091 -5.21839 -2.70106 0
M  V30 2942 H 278.615 -4.93873 -3.59056 0
M  V30 2943 H 280.029 -5.55812 -1.40521 0
M  V30 2944 H 278.426 -5.95739 -0.722154 0
M  V30 2945 H 279.496 -4.84661 0.152082 0
M  V30 2946 N 280.839 0.0985539 -1.57292 0
M  V30 2947 C 282.116 0.834155 -1.76921 0
M  V30 2948 C 282.496 1.97101 -0.755928 0
M  V30 2949 O 281.844 2.27474 0.216245 0
M  V30 2950 C 282.054 1.33194 -3.22584 0
M  V30 2951 C 283.402 1.77611 -3.85668 0
M  V30 2952 O 284.426 1.42825 -3.26312 0
M  V30 2953 O 283.285 2.4192 -4.90038 0
M  V30 2954 H 280.379 0.397628 -0.725135 0
M  V30 2955 H 282.925 0.0807044 -1.69508 0
M  V30 2956 H 281.697 0.517248 -3.87866 0
M  V30 2957 H 281.32 2.1475 -3.34616 0
M  V30 2958 N 282.317 1.53212 0.369288 0
M  V30 2959 C 283.566 1.68436 1.10961 0
M  V30 2960 C 283.879 0.440738 1.9057 0
M  V30 2961 O 285.085 0.473446 2.6734 0
M  V30 2962 C 283.541 2.97744 2.0218 0
M  V30 2963 C 283.149 4.29355 1.279 0
M  V30 2964 C 284.893 3.22334 2.76226 0
M  V30 2965 C 282.8 5.49755 2.17999 0
M  V30 2966 H 281.73 0.627568 0.41794 0
M  V30 2967 H 284.381 1.79713 0.370884 0
M  V30 2968 H 282.763 2.8026 2.79768 0
M  V30 2969 H 283.937 4.57458 0.554007 0
M  V30 2970 H 282.252 4.11179 0.657311 0
M  V30 2971 H 284.849 4.09471 3.43857 0
M  V30 2972 H 285.192 2.38238 3.41392 0
M  V30 2973 H 285.725 3.40475 2.05723 0
M  V30 2974 H 282.464 6.36318 1.57417 0
M  V30 2975 H 281.984 5.25937 2.88359 0
M  V30 2976 H 283.663 5.84401 2.77641 0
M  V30 2977 N 283.795 -0.628877 1.44509 0
M  V30 2978 C 285.035 -1.39993 1.48934 0
M  V30 2979 C 285.399 -1.91627 0.119604 0
M  V30 2980 O 286.6 -2.68772 0.0385283 0
M  V30 2981 C 284.871 -2.53241 2.52198 0
M  V30 2982 S 286.43 -3.41383 2.75687 0
M  V30 2983 H 283.248 -0.477558 0.526744 0
M  V30 2984 H 285.85 -0.727804 1.81448 0
M  V30 2985 H 284.554 -2.13622 3.50419 0
M  V30 2986 H 284.085 -3.25278 2.21264 0
M  V30 2987 H 286.1 -4.50752 2.07453 0
M  V30 2988 N 285.273 -1.31445 -0.869486 0
M  V30 2989 C 286.203 -1.21727 -1.99261 0
M  V30 2990 C 287.184 -0.104359 -1.6978 0
M  V30 2991 O 288.369 -0.289038 -1.92037 0
M  V30 2992 C 285.499 -0.924317 -3.34774 0
M  V30 2993 C 284.453 -1.99685 -3.78563 0
M  V30 2994 C 283.779 -1.55658 -5.11541 0
M  V30 2995 C 285.079 -3.41003 -3.95619 0
M  V30 2996 H 286.773 -2.1569 -2.07649 0
M  V30 2997 H 284.319 -1.03839 -0.997675 0
M  V30 2998 H 286.272 -0.842934 -4.12883 0
M  V30 2999 H 284.996 0.0509793 -3.2656 0
M  V30 3000 H 283.655 -2.06813 -3.02694 0
M  V30 3001 H 283.303 -0.569132 -4.9977 0
M  V30 3002 H 283.003 -2.27409 -5.41811 0
M  V30 3003 H 284.527 -1.48928 -5.92159 0
M  V30 3004 H 285.941 -3.36547 -4.64122 0
M  V30 3005 H 284.338 -4.10975 -4.37286 0
M  V30 3006 H 285.408 -3.81754 -2.98985 0
M  V30 3007 N 286.751 1.08385 -1.14413 0
M  V30 3008 C 288 1.80153 -0.907076 0
M  V30 3009 C 288.313 1.87176 0.567851 0
M  V30 3010 O 289.519 2.55359 0.922172 0
M  V30 3011 C 287.975 3.23687 -1.57336 0
M  V30 3012 C 287.583 3.24897 -3.08457 0
M  V30 3013 C 289.327 4.00136 -1.41744 0
M  V30 3014 C 287.234 4.6302 -3.67921 0
M  V30 3015 H 286.164 0.675139 -0.335714 0
M  V30 3016 H 288.815 1.21733 -1.37307 0
M  V30 3017 H 287.197 3.82234 -1.03505 0
M  V30 3018 H 288.371 2.76055 -3.68958 0
M  V30 3019 H 286.686 2.61943 -3.2369 0
M  V30 3020 H 289.283 5.02201 -1.83572 0
M  V30 3021 H 289.626 4.14709 -0.363576 0
M  V30 3022 H 290.159 3.48058 -1.92614 0
M  V30 3023 H 286.898 4.5365 -4.73161 0
M  V30 3024 H 286.418 5.12143 -3.12201 0
M  V30 3025 H 288.097 5.31994 -3.68227 0
M  V30 3026 N 288.23 0.939286 1.26551 0
M  V30 3027 C 289.16 0.465044 2.28822 0
M  V30 3028 C 290.141 -0.480692 1.63167 0
M  V30 3029 O 291.326 -0.382955 1.90387 0
M  V30 3030 C 288.456 -0.27234 3.46231 0
M  V30 3031 C 287.41 0.58666 4.2396 0
M  V30 3032 C 286.736 -0.280573 5.33963 0
M  V30 3033 C 288.036 1.85704 4.88171 0
M  V30 3034 H 289.73 1.31979 2.68741 0
M  V30 3035 H 287.276 0.636061 1.29191 0
M  V30 3036 H 289.229 -0.615133 4.16886 0
M  V30 3037 H 287.953 -1.16121 3.0526 0
M  V30 3038 H 286.612 0.91232 3.55067 0
M  V30 3039 H 286.26 -1.16874 4.89234 0
M  V30 3040 H 285.96 0.29076 5.8688 0
M  V30 3041 H 287.484 -0.618678 6.07458 0
M  V30 3042 H 288.898 1.58161 5.51052 0
M  V30 3043 H 287.295 2.37279 5.51197 0
M  V30 3044 H 288.365 2.56957 4.11219 0
M  V30 3045 N 289.708 -1.40897 0.706093 0
M  V30 3046 C 290.638 -2.33418 0.0620085 0
M  V30 3047 C 291.619 -1.52385 -0.755827 0
M  V30 3048 O 292.804 -1.80886 -0.706674 0
M  V30 3049 C 289.934 -3.36293 -0.867445 0
M  V30 3050 C 288.888 -4.27716 -0.155932 0
M  V30 3051 C 288.214 -5.2105 -1.20046 0
M  V30 3052 C 289.514 -5.12944 0.984149 0
M  V30 3053 H 291.208 -2.87527 0.83477 0
M  V30 3054 H 288.754 -1.38249 0.402875 0
M  V30 3055 H 290.707 -3.99949 -1.32735 0
M  V30 3056 H 289.431 -2.80556 -1.67199 0
M  V30 3057 H 288.09 -3.65498 0.284047 0
M  V30 3058 H 287.738 -4.61624 -1.99781 0
M  V30 3059 H 287.438 -5.83056 -0.729328 0
M  V30 3060 H 288.962 -5.87584 -1.66066 0
M  V30 3061 H 290.376 -5.70109 0.604048 0
M  V30 3062 H 288.773 -5.83945 1.38304 0
M  V30 3063 H 289.843 -4.49485 1.81911 0
M  V30 3064 N 291.186 -0.45159 -1.50991 0
M  V30 3065 C 292.463 0.170707 -1.94854 0
M  V30 3066 C 292.843 1.58788 -1.39103 0
M  V30 3067 O 292.191 2.20913 -0.583921 0
M  V30 3068 C 292.401 0.133929 -3.48743 0
M  V30 3069 C 293.749 0.33248 -4.23296 0
M  V30 3070 O 294.773 0.211403 -3.55572 0
M  V30 3071 O 293.632 0.57486 -5.43468 0
M  V30 3072 H 290.726 0.122264 -0.817912 0
M  V30 3073 H 293.272 -0.510594 -1.61836 0
M  V30 3074 H 292.044 -0.856283 -3.81816 0
M  V30 3075 H 291.667 0.857529 -3.88242 0
M  V30 3076 N 292.664 1.56529 -0.183458 0
M  V30 3077 C 293.91 1.97537 0.459036 0
M  V30 3078 C 294.243 1.06989 1.62071 0
M  V30 3079 O 293.518 0.11948 1.94133 0
M  V30 3080 C 293.801 3.47874 0.930368 0
M  V30 3081 C 293.654 4.492 -0.232317 0
M  V30 3082 C 294.973 4.01612 1.79989 0
M  V30 3083 H 292.092 0.718204 0.165383 0
M  V30 3084 H 294.734 1.88042 -0.272038 0
M  V30 3085 H 292.884 3.56095 1.55333 0
M  V30 3086 H 294.556 4.53027 -0.86972 0
M  V30 3087 H 292.799 4.24657 -0.885928 0
M  V30 3088 H 293.47 5.51823 0.139796 0
M  V30 3089 H 295.946 3.96097 1.27461 0
M  V30 3090 H 294.822 5.07195 2.09867 0
M  V30 3091 H 295.083 3.46163 2.74998 0
M  V30 3092 N 294.142 -0.090211 1.57342 0
M  V30 3093 C 295.09 -1.12792 2.03422 0
M  V30 3094 C 296.084 -1.41182 0.936166 0
M  V30 3095 O 297.29 -1.40805 1.12133 0
M  V30 3096 H 293.665 -0.380986 0.648347 0
M  V30 3097 H 295.636 -0.71299 2.89757 0
M  V30 3098 C 294.385 -2.43855 2.47851 0
M  V30 3099 H 293.708 -2.22855 3.31927 0
M  V30 3100 H 295.148 -3.14955 2.83865 0
M  V30 3101 C 293.607 -3.08503 1.3538 0
M  V30 3102 O 294.137 -3.95805 0.685641 0
M  V30 3103 N 292.343 -2.68831 1.10355 0
M  V30 3104 H 291.89 -1.97929 1.64869 0
M  V30 3105 H 291.848 -3.12412 0.353031 0
M  V30 3106 N 295.62 -1.53406 -0.361157 0
M  V30 3107 C 297.031 -1.61442 -0.937728 0
M  V30 3108 C 297.382 -0.48461 -1.90121 0
M  V30 3109 O 296.507 0.388312 -2.12888 0
M  V30 3110 C 297.102 -2.92624 -1.70753 0
M  V30 3111 C 295.661 -3.02981 -2.23337 0
M  V30 3112 C 294.808 -2.5677 -1.04712 0
M  V30 3113 H 297.759 -1.58083 -0.139816 0
M  V30 3114 H 297.78 -2.80675 -2.56908 0
M  V30 3115 H 297.292 -3.74834 -1.00604 0
M  V30 3116 H 295.393 -2.25368 -2.96715 0
M  V30 3117 H 295.506 -4.0814 -2.50916 0
M  V30 3118 H 293.87 -2.11752 -1.41539 0
M  V30 3119 H 294.653 -3.41402 -0.360539 0
M  V30 3120 N 297.098 0.621204 -1.44841 0
M  V30 3121 C 298.045 1.73267 -1.5247 0
M  V30 3122 C 299.015 1.6189 -0.371611 0
M  V30 3123 O 300.2 1.81668 -0.58321 0
M  V30 3124 C 297.34 3.11545 -1.48438 0
M  V30 3125 C 296.453 3.33827 -2.74196 0
M  V30 3126 C 295.588 4.62133 -2.61929 0
M  V30 3127 C 294.627 4.77627 -3.82804 0
M  V30 3128 N 293.764 5.97219 -3.69153 0
M  V30 3129 H 298.604 1.66082 -2.47428 0
M  V30 3130 H 296.141 0.810026 -1.22788 0
M  V30 3131 H 298.099 3.91528 -1.4409 0
M  V30 3132 H 296.729 3.1772 -0.570402 0
M  V30 3133 H 295.781 2.47715 -2.88689 0
M  V30 3134 H 297.093 3.41153 -3.6389 0
M  V30 3135 H 296.247 5.50291 -2.5547 0
M  V30 3136 H 294.986 4.57182 -1.69811 0
M  V30 3137 H 293.991 3.87896 -3.89637 0
M  V30 3138 H 295.216 4.84385 -4.75971 0
M  V30 3139 H 293.162 5.93339 -2.79794 0
M  V30 3140 H 293.079 6.05644 -4.52472 0
M  V30 3141 H 294.347 6.87912 -3.66603 0
M  V30 3142 N 298.576 1.31904 0.862503 0
M  V30 3143 C 299.823 1.22017 1.61611 0
M  V30 3144 C 300.151 -0.21991 1.93253 0
M  V30 3145 O 299.406 -1.17076 1.56817 0
M  V30 3146 C 299.705 2.01713 2.95037 0
M  V30 3147 C 299.371 3.51145 2.82857 0
M  V30 3148 C 298.033 3.91889 2.79243 0
M  V30 3149 C 300.385 4.46204 2.69353 0
M  V30 3150 C 297.713 5.25947 2.59993 0
M  V30 3151 C 300.065 5.80397 2.5164 0
M  V30 3152 C 298.729 6.20352 2.46413 0
M  V30 3153 H 297.999 0.44649 0.591378 0
M  V30 3154 H 300.646 1.63248 1.00111 0
M  V30 3155 H 298.951 1.53185 3.60613 0
M  V30 3156 H 300.648 1.91437 3.52353 0
M  V30 3157 H 297.238 3.1878 2.86491 0
M  V30 3158 H 301.422 4.15652 2.71196 0
M  V30 3159 H 296.678 5.5597 2.54376 0
M  V30 3160 H 300.852 6.53676 2.40169 0
M  V30 3161 H 298.479 7.24172 2.31256 0
M  V30 3162 N 300.054 -1.07777 1.14986 0
M  V30 3163 C 300.984 -2.16865 0.865557 0
M  V30 3164 C 301.965 -1.69123 -0.182083 0
M  V30 3165 O 303.15 -1.94164 -0.0373815 0
M  V30 3166 C 300.28 -3.45539 0.349313 0
M  V30 3167 C 299.234 -4.06708 1.33313 0
M  V30 3168 C 298.56 -5.30411 0.675918 0
M  V30 3169 C 299.86 -4.47241 2.69764 0
M  V30 3170 H 301.554 -2.40905 1.77778 0
M  V30 3171 H 299.1 -1.15781 0.856203 0
M  V30 3172 H 301.053 -4.21174 0.137983 0
M  V30 3173 H 299.777 -3.21072 -0.598362 0
M  V30 3174 H 298.436 -3.33112 1.53075 0
M  V30 3175 H 298.084 -5.02232 -0.277767 0
M  V30 3176 H 297.784 -5.72293 1.33244 0
M  V30 3177 H 299.308 -6.08755 0.474262 0
M  V30 3178 H 300.722 -5.14025 2.53873 0
M  V30 3179 H 299.119 -5.00062 3.3175 0
M  V30 3180 H 300.189 -3.58818 3.26156 0
M  V30 3181 N 301.532 -0.945985 -1.26051 0
M  V30 3182 C 302.479 -0.45809 -2.26208 0
M  V30 3183 C 303.449 0.484816 -1.58867 0
M  V30 3184 O 304.634 0.399969 -1.86561 0
M  V30 3185 C 301.774 0.266131 -3.44072 0
M  V30 3186 C 300.887 -0.713005 -4.26075 0
M  V30 3187 C 300.022 0.0329013 -5.3119 0
M  V30 3188 C 299.061 -0.93774 -6.04874 0
M  V30 3189 N 298.198 -0.223274 -7.01745 0
M  V30 3190 H 303.038 -1.3171 -2.67313 0
M  V30 3191 H 300.575 -0.66069 -1.31428 0
M  V30 3192 H 302.533 0.702514 -4.11243 0
M  V30 3193 H 301.163 1.08925 -3.03867 0
M  V30 3194 H 300.215 -1.26789 -3.58648 0
M  V30 3195 H 301.527 -1.45406 -4.77136 0
M  V30 3196 H 300.681 0.528335 -6.04395 0
M  V30 3197 H 299.42 0.806801 -4.8098 0
M  V30 3198 H 298.425 -1.44425 -5.30492 0
M  V30 3199 H 299.65 -1.71172 -6.57173 0
M  V30 3200 H 297.596 0.532046 -6.53839 0
M  V30 3201 H 297.513 -0.90357 -7.50581 0
M  V30 3202 H 298.781 0.250907 -7.79096 0
M  V30 3203 N 303.011 1.40521 -0.713556 0
M  V30 3204 C 303.959 2.32549 -0.0485227 0
M  V30 3205 C 304.953 1.51931 0.74922 0
M  V30 3206 O 306.159 1.67745 0.652816 0
M  V30 3207 H 302.534 0.751994 0.00311138 0
M  V30 3208 H 304.505 2.86291 -0.841443 0
M  V30 3209 C 303.254 3.36879 0.860687 0
M  V30 3210 H 302.577 3.98978 0.256246 0
M  V30 3211 H 304.017 4.03772 1.294 0
M  V30 3212 C 302.476 2.72197 1.9852 0
M  V30 3213 O 303.006 2.5837 3.07584 0
M  V30 3214 N 301.212 2.30612 1.76823 0
M  V30 3215 H 300.759 2.42059 0.881217 0
M  V30 3216 H 300.717 1.87672 2.52243 0
M  V30 3217 N 304.489 0.459591 1.5075 0
M  V30 3218 C 305.452 -0.329093 2.26825 0
M  V30 3219 C 306.452 -0.930481 1.31144 0
M  V30 3220 O 307.642 -0.801453 1.54669 0
M  V30 3221 C 304.774 -1.46768 3.07688 0
M  V30 3222 H 305.967 0.337924 2.9799 0
M  V30 3223 H 303.52 0.213336 1.54837 0
M  V30 3224 H 304.255 -2.17009 2.40993 0
M  V30 3225 H 304.04 -1.04238 3.77991 0
M  V30 3226 H 305.53 -2.02433 3.65254 0
M  V30 3227 N 305.967 -1.56429 0.191757 0
M  V30 3228 C 307.215 -1.97095 -0.447006 0
M  V30 3229 C 307.536 -1.07967 -1.62383 0
M  V30 3230 O 306.806 -0.150248 -1.95323 0
M  V30 3231 H 305.386 -0.727832 -0.168135 0
M  V30 3232 H 308.048 -1.92911 0.27771 0
M  V30 3233 H 307.144 -3.01848 -0.793371 0
M  V30 3234 N 307.445 0.0818655 -1.57387 0
M  V30 3235 C 308.861 0.436412 -1.53517 0
M  V30 3236 C 309.061 1.79758 -0.910459 0
M  V30 3237 O 308.117 2.47324 -0.508636 0
M  V30 3238 C 309.43 0.386734 -2.98203 0
M  V30 3239 C 310.978 0.467644 -3.09487 0
M  V30 3240 C 311.453 0.447978 -4.55804 0
M  V30 3241 N 312.944 0.508348 -4.60402 0
M  V30 3242 C 313.679 0.515184 -5.71081 0
M  V30 3243 N 313.175 0.477435 -6.91153 0
M  V30 3244 N 314.968 0.560988 -5.59294 0
M  V30 3245 H 307.119 -0.809546 -1.96367 0
M  V30 3246 H 309.382 -0.302733 -0.898363 0
M  V30 3247 H 309.088 -0.546539 -3.47427 0
M  V30 3248 H 308.962 1.20075 -3.57578 0
M  V30 3249 H 311.349 1.39134 -2.60242 0
M  V30 3250 H 311.43 -0.374753 -2.5304 0
M  V30 3251 H 311.074 -0.471826 -5.05704 0
M  V30 3252 H 311.004 1.30777 -5.10103 0
M  V30 3253 H 313.495 0.54218 -3.7399 0
M  V30 3254 H 313.808 0.486299 -7.71268 0
M  V30 3255 H 312.153 0.444278 -6.93579 0
M  V30 3256 H 315.344 0.5881 -4.64391 0
M  V30 3257 H 315.517 0.562846 -6.45551 0
M  V30 3258 N 308.923 1.53595 0.353017 0
M  V30 3259 C 310.2 1.61002 1.11075 0
M  V30 3260 C 310.58 0.425356 2.0677 0
M  V30 3261 O 309.928 -0.583267 2.2093 0
M  V30 3262 C 310.138 2.96631 1.83877 0
M  V30 3263 C 311.486 3.51653 2.37961 0
M  V30 3264 O 312.51 2.98743 1.93987 0
M  V30 3265 O 311.369 4.44177 3.18386 0
M  V30 3266 H 308.463 0.650825 0.510251 0
M  V30 3267 H 311.009 1.6594 0.35527 0
M  V30 3268 H 309.781 3.74293 1.14108 0
M  V30 3269 H 309.404 2.95242 2.66304 0
M  V30 3270 N 310.401 -0.613514 1.45168 0
M  V30 3271 C 311.641 -1.38405 1.5041 0
M  V30 3272 C 312.005 -1.91489 0.139922 0
M  V30 3273 O 313.206 -2.68716 0.067033 0
M  V30 3274 C 311.477 -2.50552 2.5487 0
M  V30 3275 S 313.036 -3.38439 2.79292 0
M  V30 3276 H 309.854 -0.471945 0.531779 0
M  V30 3277 H 312.456 -0.708518 1.82209 0
M  V30 3278 H 311.16 -2.09894 3.52665 0
M  V30 3279 H 310.691 -3.22913 2.24701 0
M  V30 3280 H 312.706 -4.48527 2.12222 0
M  V30 3281 N 311.879 -1.3236 -0.855495 0
M  V30 3282 C 313.104 -1.2601 -1.64731 0
M  V30 3283 C 313.529 0.169068 -1.87339 0
M  V30 3284 O 312.887 1.12016 -1.42556 0
M  V30 3285 C 312.935 -2.02417 -2.98429 0
M  V30 3286 O 312.039 -1.3714 -3.8893 0
M  V30 3287 H 311.38 -0.434325 -0.502253 0
M  V30 3288 H 313.91 -1.74661 -1.06558 0
M  V30 3289 H 313.92 -2.12559 -3.48257 0
M  V30 3290 H 312.595 -3.06343 -2.81295 0
M  V30 3291 H 311.172 -1.3554 -3.47395 0
M  V30 3292 N 313.357 1.07166 -1.15556 0
M  V30 3293 C 314.773 1.31899 -0.898603 0
M  V30 3294 C 314.973 1.96333 0.453383 0
M  V30 3295 O 314.029 2.22438 1.19489 0
M  V30 3296 C 315.342 2.20826 -2.04099 0
M  V30 3297 C 316.89 2.34269 -2.07574 0
M  V30 3298 C 317.365 3.26546 -3.21141 0
M  V30 3299 N 318.856 3.34127 -3.20801 0
M  V30 3300 C 319.591 4.05595 -4.05315 0
M  V30 3301 N 319.087 4.79661 -4.99897 0
M  V30 3302 N 320.88 4.01555 -3.93332 0
M  V30 3303 H 313.031 0.637302 -2.02613 0
M  V30 3304 H 315.294 0.343468 -0.883591 0
M  V30 3305 H 315 1.80744 -3.01703 0
M  V30 3306 H 314.874 3.21364 -1.97496 0
M  V30 3307 H 317.261 2.73603 -1.10568 0
M  V30 3308 H 317.342 1.33429 -2.18244 0
M  V30 3309 H 316.986 2.87931 -4.184 0
M  V30 3310 H 316.916 4.27345 -3.07708 0
M  V30 3311 H 319.407 2.81336 -2.52306 0
M  V30 3312 H 319.72 5.31694 -5.60822 0
M  V30 3313 H 318.065 4.78671 -5.03884 0
M  V30 3314 H 321.256 3.42806 -3.18751 0
M  V30 3315 H 321.429 4.56987 -4.5942 0
M  V30 3316 N 314.835 0.952656 1.25548 0
M  V30 3317 C 316.251 0.656769 1.4546 0
M  V30 3318 C 316.451 -0.78633 1.85524 0
M  V30 3319 O 315.507 -1.56183 1.98402 0
M  V30 3320 C 316.82 1.62801 2.52817 0
M  V30 3321 C 318.368 1.63897 2.66659 0
M  V30 3322 C 318.843 2.5978 3.77198 0
M  V30 3323 N 320.334 2.58133 3.84606 0
M  V30 3324 C 321.069 3.29003 4.69621 0
M  V30 3325 N 320.565 4.09339 5.58939 0
M  V30 3326 N 322.358 3.179 4.63569 0
M  V30 3327 H 314.509 1.88526 0.978344 0
M  V30 3328 H 316.772 0.810815 0.491206 0
M  V30 3329 H 316.478 2.65869 2.30232 0
M  V30 3330 H 316.352 1.38898 3.50695 0
M  V30 3331 H 318.739 0.615481 2.8861 0
M  V30 3332 H 318.82 1.91858 1.69187 0
M  V30 3333 H 318.464 3.62254 3.55997 0
M  V30 3334 H 318.394 2.29105 4.7415 0
M  V30 3335 H 320.885 1.99809 3.20757 0
M  V30 3336 H 321.198 4.6034 6.20731 0
M  V30 3337 H 319.543 4.13438 5.58654 0
M  V30 3338 H 322.734 2.54612 3.92798 0
M  V30 3339 H 322.907 3.73398 5.29602 0
M  V30 3340 N 316.313 -1.40141 0.720998 0
M  V30 3341 C 317.538 -2.05618 0.271258 0
M  V30 3342 C 317.963 -1.53978 -1.08039 0
M  V30 3343 O 317.321 -0.677463 -1.68167 0
M  V30 3344 C 317.369 -3.59609 0.267197 0
M  V30 3345 O 316.473 -4.05526 -0.749814 0
M  V30 3346 H 315.814 -0.651904 0.126162 0
M  V30 3347 H 318.344 -1.79439 0.982997 0
M  V30 3348 H 318.354 -4.0786 0.106744 0
M  V30 3349 H 317.029 -3.96559 1.25354 0
M  V30 3350 H 315.606 -3.68722 -0.556644 0
M  V30 3351 N 317.792 -0.46758 -1.50504 0
M  V30 3352 C 319.017 0.0886943 -2.0721 0
M  V30 3353 C 319.442 1.33057 -1.32956 0
M  V30 3354 O 318.8 1.77354 -0.376197 0
M  V30 3355 C 318.848 0.359202 -3.58806 0
M  V30 3356 O 317.952 1.44034 -3.8643 0
M  V30 3357 H 317.293 -0.0114349 -0.663902 0
M  V30 3358 H 319.823 -0.657613 -1.93744 0
M  V30 3359 H 319.833 0.600742 -4.03553 0
M  V30 3360 H 318.508 -0.548311 -4.1227 0
M  V30 3361 H 317.085 1.18638 -3.53524 0
M  V30 3362 N 319.27 1.56325 -0.20005 0
M  V30 3363 C 320.681 1.8408 0.31167 0
M  V30 3364 C 321.032 1.12087 1.61031 0
M  V30 3365 O 320.157 0.38332 2.12978 0
M  V30 3366 C 320.752 3.33932 0.57226 0
M  V30 3367 C 319.311 3.6208 1.02834 0
M  V30 3368 C 318.458 2.77186 0.079634 0
M  V30 3369 H 321.409 1.52939 -0.423729 0
M  V30 3370 H 321.43 3.52971 1.42096 0
M  V30 3371 H 320.942 3.86303 -0.37308 0
M  V30 3372 H 319.043 3.15147 1.98778 0
M  V30 3373 H 319.156 4.7023 0.917624 0
M  V30 3374 H 317.52 2.47951 0.582448 0
M  V30 3375 H 318.303 3.32347 -0.860238 0
M  V30 3376 N 320.748 -0.0735177 1.57428 0
M  V30 3377 C 321.994 -0.774145 1.87443 0
M  V30 3378 C 322.327 -1.77311 0.792103 0
M  V30 3379 O 321.602 -1.93492 -0.197793 0
M  V30 3380 C 321.885 -1.48367 3.28115 0
M  V30 3381 C 321.738 -0.501227 4.46999 0
M  V30 3382 C 323.057 -2.429 3.66998 0
M  V30 3383 H 320.176 -0.279971 0.681752 0
M  V30 3384 H 322.818 -0.0373616 1.89963 0
M  V30 3385 H 320.968 -2.11171 3.26097 0
M  V30 3386 H 322.64 0.121468 4.6114 0
M  V30 3387 H 320.883 0.183593 4.33411 0
M  V30 3388 H 321.554 -1.03526 5.42205 0
M  V30 3389 H 324.03 -1.90175 3.70098 0
M  V30 3390 H 322.906 -2.89549 4.66318 0
M  V30 3391 H 323.167 -3.27628 2.96837 0
M  V30 3392 N 322.226 -1.5378 -0.344866 0
M  V30 3393 C 323.456 -1.74646 -1.10374 0
M  V30 3394 C 323.864 -0.48491 -1.8288 0
M  V30 3395 O 323.207 0.553062 -1.75177 0
M  V30 3396 C 323.269 -2.87145 -2.16306 0
M  V30 3397 C 322.933 -4.26795 -1.63386 0
M  V30 3398 C 323.93 -5.08412 -1.08688 0
M  V30 3399 C 321.615 -4.73276 -1.68272 0
M  V30 3400 C 323.609 -6.34609 -0.595792 0
M  V30 3401 C 321.296 -5.99446 -1.18776 0
M  V30 3402 C 322.294 -6.79946 -0.645215 0
M  V30 3403 O 321.982 -8.03745 -0.157626 0
M  V30 3404 H 321.714 -0.587112 -0.335075 0
M  V30 3405 H 324.268 -2.01403 -0.403252 0
M  V30 3406 H 322.498 -2.55909 -2.89909 0
M  V30 3407 H 324.187 -2.95992 -2.77747 0
M  V30 3408 H 324.953 -4.73666 -1.04236 0
M  V30 3409 H 320.832 -4.10677 -2.09442 0
M  V30 3410 H 324.376 -6.97389 -0.171654 0
M  V30 3411 H 320.273 -6.33687 -1.22928 0
M  V30 3412 H 321.041 -8.18038 -0.275037 0
M  V30 3413 N 323.704 0.605807 -1.45491 0
M  V30 3414 C 324.95 1.36679 -1.49823 0
M  V30 3415 C 325.283 1.93693 -0.140175 0
M  V30 3416 O 324.558 1.75158 0.845581 0
M  V30 3417 C 324.841 2.51337 -2.57879 0
M  V30 3418 C 324.694 1.99508 -4.03134 0
M  V30 3419 C 326.013 3.53463 -2.62205 0
M  V30 3420 H 323.132 0.495617 -0.545466 0
M  V30 3421 H 325.774 0.682732 -1.7731 0
M  V30 3422 H 323.924 3.09691 -2.34571 0
M  V30 3423 H 325.596 1.45789 -4.37656 0
M  V30 3424 H 323.839 1.30496 -4.13707 0
M  V30 3425 H 324.51 2.82169 -4.74431 0
M  V30 3426 H 326.986 3.04953 -2.83095 0
M  V30 3427 H 325.862 4.31178 -3.39672 0
M  V30 3428 H 326.123 4.09197 -1.67363 0
M  V30 3429 N 325.182 1.32811 0.848464 0
M  V30 3430 C 326.43 1.23479 1.59991 0
M  V30 3431 C 326.751 -0.201853 1.93952 0
M  V30 3432 O 326.021 -1.12818 1.60153 0
M  V30 3433 H 324.601 0.454034 0.593179 0
M  V30 3434 H 327.263 1.66412 1.01455 0
M  V30 3435 H 326.359 1.82178 2.53412 0
M  V30 3436 N 326.66 -1.06551 1.16123 0
M  V30 3437 C 328.076 -1.3142 0.905585 0
M  V30 3438 C 328.276 -1.96571 -0.442964 0
M  V30 3439 O 327.332 -2.23068 -1.18308 0
M  V30 3440 C 328.645 -2.19741 2.05267 0
M  V30 3441 C 330.193 -2.33165 2.08813 0
M  V30 3442 C 330.668 -3.24838 3.22868 0
M  V30 3443 N 332.159 -3.32421 3.22568 0
M  V30 3444 C 332.894 -4.0344 4.0746 0
M  V30 3445 N 332.39 -4.77003 5.02434 0
M  V30 3446 N 334.183 -3.99464 3.95456 0
M  V30 3447 H 326.334 -0.626548 2.02949 0
M  V30 3448 H 328.597 -0.338777 0.8854 0
M  V30 3449 H 328.303 -1.79142 3.02657 0
M  V30 3450 H 328.177 -3.20313 1.99198 0
M  V30 3451 H 330.564 -2.73013 1.12018 0
M  V30 3452 H 330.645 -1.3227 2.18948 0
M  V30 3453 H 330.289 -2.85708 4.19921 0
M  V30 3454 H 330.219 -4.25707 3.0997 0
M  V30 3455 H 332.71 -2.79994 2.53795 0
M  V30 3456 H 333.023 -5.28712 5.63634 0
M  V30 3457 H 331.368 -4.75992 5.06415 0
M  V30 3458 H 334.559 -3.4111 3.20564 0
M  V30 3459 H 334.732 -4.54544 4.61837 0
M  V30 3460 N 328.138 -0.959301 -1.25041 0
M  V30 3461 C 329.384 -0.617525 -1.9317 0
M  V30 3462 C 329.717 0.843981 -1.74902 0
M  V30 3463 O 328.992 1.60615 -1.09696 0
M  V30 3464 C 329.275 -0.982736 -3.46431 0
M  V30 3465 C 329.128 -2.50032 -3.73904 0
M  V30 3466 C 330.447 -0.511176 -4.37121 0
M  V30 3467 H 327.566 -0.22582 -0.701552 0
M  V30 3468 H 330.208 -1.19679 -1.4757 0
M  V30 3469 H 328.358 -0.489806 -3.854 0
M  V30 3470 H 330.03 -3.06737 -3.44544 0
M  V30 3471 H 328.273 -2.93598 -3.19348 0
M  V30 3472 H 328.944 -2.70635 -4.81103 0
M  V30 3473 H 331.42 -0.934075 -4.0548 0
M  V30 3474 H 330.296 -0.795361 -5.43107 0
M  V30 3475 H 330.557 0.588834 -4.38161 0
M  V30 3476 N 329.616 1.39756 -0.72842 0
M  V30 3477 C 330.862 2.00942 -0.273892 0
M  V30 3478 C 331.195 1.57656 1.13394 0
M  V30 3479 O 330.47 0.802434 1.77176 0
M  V30 3480 C 330.753 3.58211 -0.368346 0
M  V30 3481 C 330.606 4.11534 -1.81548 0
M  V30 3482 C 331.925 4.39372 0.253054 0
M  V30 3483 H 329.044 0.730047 -0.100996 0
M  V30 3484 H 331.686 1.66056 -0.923337 0
M  V30 3485 H 329.836 3.88061 0.184588 0
M  V30 3486 H 331.508 3.92431 -2.42478 0
M  V30 3487 H 329.751 3.65341 -2.33898 0
M  V30 3488 H 330.422 5.20682 -1.83288 0
M  V30 3489 H 332.898 4.15527 -0.218224 0
M  V30 3490 H 331.774 5.48677 0.156585 0
M  V30 3491 H 332.035 4.21358 1.33826 0
M  V30 3492 N 331.094 0.475555 1.50254 0
M  V30 3493 C 332.319 -0.0777042 2.07254 0
M  V30 3494 C 332.744 -1.3235 1.3366 0
M  V30 3495 O 332.102 -1.77152 0.385597 0
M  V30 3496 C 332.15 -0.340169 3.58992 0
M  V30 3497 O 331.254 -1.41982 3.87188 0
M  V30 3498 H 330.595 0.0149556 0.663832 0
M  V30 3499 H 333.125 0.667878 1.93392 0
M  V30 3500 H 333.135 -0.579332 4.03866 0
M  V30 3501 H 331.81 0.570167 4.11973 0
M  V30 3502 H 330.387 -1.16762 3.54148 0
M  V30 3503 N 332.573 -1.56217 0.208337 0
M  V30 3504 C 333.821 -1.97558 -0.426076 0
M  V30 3505 C 334.142 -1.09683 -1.61229 0
M  V30 3506 O 333.412 -0.170956 -1.95153 0
M  V30 3507 H 331.992 -0.729575 -0.160405 0
M  V30 3508 H 334.654 -1.92606 0.298155 0
M  V30 3509 H 333.75 -3.02672 -0.761312 0
M  V30 3510 N 334.051 0.0651679 -1.57465 0
M  V30 3511 C 334.984 1.10876 -1.99453 0
M  V30 3512 C 335.962 1.37205 -0.872555 0
M  V30 3513 O 337.146 1.50468 -1.13542 0
M  V30 3514 C 334.273 2.45167 -2.3369 0
M  V30 3515 C 333.319 2.3493 -3.55964 0
M  V30 3516 S 334.152 1.73708 -5.06543 0
M  V30 3517 C 335.308 3.09563 -5.43987 0
M  V30 3518 H 335.541 0.750967 -2.87659 0
M  V30 3519 H 333.074 0.273933 -1.51951 0
M  V30 3520 H 335.032 3.22412 -2.54088 0
M  V30 3521 H 333.693 2.78105 -1.46001 0
M  V30 3522 H 332.886 3.3398 -3.77457 0
M  V30 3523 H 332.488 1.65823 -3.3523 0
M  V30 3524 H 334.78 4.05882 -5.42463 0
M  V30 3525 H 335.723 2.92843 -6.44708 0
M  V30 3526 H 336.131 3.10474 -4.71451 0
M  V30 3527 N 335.529 1.53961 0.336706 0
M  V30 3528 C 336.775 1.7179 1.07777 0
M  V30 3529 C 337.108 0.483263 1.88091 0
M  V30 3530 O 336.383 -0.519747 1.87427 0
M  V30 3531 C 336.666 2.98558 2.01334 0
M  V30 3532 C 336.519 4.32245 1.24437 0
M  V30 3533 C 337.838 3.21023 3.01052 0
M  V30 3534 H 334.957 0.625089 0.390426 0
M  V30 3535 H 337.599 1.86641 0.35567 0
M  V30 3536 H 335.749 2.86028 2.62908 0
M  V30 3537 H 337.421 4.56637 0.654243 0
M  V30 3538 H 335.664 4.30344 0.546458 0
M  V30 3539 H 336.335 5.17137 1.93063 0
M  V30 3540 H 338.811 3.32929 2.49595 0
M  V30 3541 H 337.687 4.11104 3.6371 0
M  V30 3542 H 337.948 2.37637 3.72802 0
M  V30 3543 N 337.007 -0.598083 1.45811 0
M  V30 3544 C 337.955 -1.72932 1.55555 0
M  V30 3545 C 338.949 -1.63984 0.424921 0
M  V30 3546 O 340.155 -1.69663 0.601205 0
M  V30 3547 H 336.53 -0.571489 0.488779 0
M  V30 3548 H 338.501 -1.61842 2.50699 0
M  V30 3549 C 337.25 -3.11318 1.54843 0
M  V30 3550 H 336.573 -3.18867 2.41172 0
M  V30 3551 H 338.013 -3.90274 1.65717 0
M  V30 3552 C 336.472 -3.3578 0.274427 0
M  V30 3553 O 337.002 -3.9654 -0.641778 0
M  V30 3554 N 335.208 -2.90119 0.167139 0
M  V30 3555 H 334.755 -2.40855 0.913596 0
M  V30 3556 H 334.713 -3.0686 -0.684435 0
M  V30 3557 N 338.485 -1.33259 -0.841409 0
M  V30 3558 C 339.725 -1.25902 -1.61022 0
M  V30 3559 C 340.089 0.173325 -1.91216 0
M  V30 3560 O 341.29 0.370824 -2.6623 0
M  V30 3561 C 339.561 -2.10735 -2.88662 0
M  V30 3562 S 341.12 -2.20541 -3.79351 0
M  V30 3563 H 337.938 -0.447958 -0.552137 0
M  V30 3564 H 340.54 -1.68263 -0.995382 0
M  V30 3565 H 339.244 -3.1384 -2.64448 0
M  V30 3566 H 338.775 -1.69201 -3.55154 0
M  V30 3567 H 340.79 -1.36462 -4.77067 0
M  V30 3568 N 339.963 1.05934 -1.16686 0
M  V30 3569 C 340.911 2.15603 -0.872817 0
M  V30 3570 C 341.905 1.68647 0.159576 0
M  V30 3571 O 343.111 1.79995 0.0132125 0
M  V30 3572 H 339.486 0.703885 -0.264671 0
M  V30 3573 H 341.457 2.37613 -1.80507 0
M  V30 3574 C 340.206 3.45457 -0.394344 0
M  V30 3575 H 339.529 3.81984 -1.18019 0
M  V30 3576 H 340.969 4.2339 -0.227408 0
M  V30 3577 C 339.428 3.25021 0.88673 0
M  V30 3578 O 339.958 3.50906 1.95519 0
M  V30 3579 N 338.164 2.78437 0.831925 0
M  V30 3580 H 337.711 2.57572 -0.0377619 0
M  V30 3581 H 337.669 2.65144 1.68956 0
M  V30 3582 N 341.441 0.965919 1.2453 0
M  V30 3583 C 342.718 0.543777 1.87889 0
M  V30 3584 C 343.098 -0.97909 1.87021 0
M  V30 3585 O 342.446 -1.84969 1.3416 0
M  V30 3586 C 342.656 1.13327 3.30088 0
M  V30 3587 C 344.004 1.21707 4.06783 0
M  V30 3588 O 345.028 1.08566 3.39252 0
M  V30 3589 O 343.887 1.42456 5.27606 0
M  V30 3590 H 340.981 0.181054 0.806938 0
M  V30 3591 H 343.527 1.06007 1.32516 0
M  V30 3592 H 342.299 2.17612 3.25209 0
M  V30 3593 H 341.922 0.600911 3.93033 0
M  V30 3594 N 342.919 -1.39368 0.735821 0
M  V30 3595 C 344.196 -1.94465 0.210395 0
M  V30 3596 C 344.576 -1.67254 -1.28799 0
M  V30 3597 O 343.924 -1.00123 -2.05396 0
M  V30 3598 C 344.134 -3.4472 0.544897 0
M  V30 3599 C 345.482 -4.21708 0.494689 0
M  V30 3600 O 346.506 -3.52922 0.482136 0
M  V30 3601 O 345.365 -5.44299 0.489947 0
M  V30 3602 H 342.459 -0.826096 0.0386666 0
M  V30 3603 H 345.005 -1.48863 0.814735 0
M  V30 3604 H 343.777 -3.57963 1.58045 0
M  V30 3605 H 343.4 -3.97502 -0.08837 0
M  V30 3606 N 344.397 -0.483516 -1.5 0
M  V30 3607 C 345.329 0.340634 -2.26655 0
M  V30 3608 C 346.342 0.946152 -1.32483 0
M  V30 3609 O 347.531 0.832453 -1.579 0
M  V30 3610 C 344.631 1.4929 -3.04246 0
M  V30 3611 C 343.804 0.997903 -4.25865 0
M  V30 3612 C 342.863 2.02569 -4.85646 0
M  V30 3613 O 341.889 1.60128 -5.46212 0
M  V30 3614 N 343.091 3.3548 -4.73744 0
M  V30 3615 H 345.856 -0.316577 -2.98023 0
M  V30 3616 H 343.417 -0.315024 -1.58806 0
M  V30 3617 H 345.409 2.17766 -3.41116 0
M  V30 3618 H 343.979 2.05458 -2.35597 0
M  V30 3619 H 343.199 0.138617 -3.93956 0
M  V30 3620 H 344.487 0.645305 -5.04691 0
M  V30 3621 H 343.885 3.72661 -4.25605 0
M  V30 3622 H 342.442 3.99718 -5.14848 0
M  V30 3623 N 345.875 1.56104 -0.216619 0
M  V30 3624 C 347.123 1.97781 0.415593 0
M  V30 3625 C 347.444 1.10536 1.60645 0
M  V30 3626 O 346.714 0.181303 1.95059 0
M  V30 3627 H 345.294 0.730415 0.156534 0
M  V30 3628 H 347.956 1.92445 -0.308366 0
M  V30 3629 H 347.052 3.03072 0.74525 0
M  V30 3630 N 347.353 -0.0568162 1.57498 0
M  V30 3631 C 348.599 -0.75422 1.88253 0
M  V30 3632 C 348.932 -1.76461 0.810865 0
M  V30 3633 O 348.207 -1.93691 -0.177259 0
M  V30 3634 C 348.49 -1.44878 3.2967 0
M  V30 3635 C 348.343 -0.453789 4.47505 0
M  V30 3636 C 349.662 -2.38994 3.69554 0
M  V30 3637 H 346.781 -0.272724 0.684683 0
M  V30 3638 H 349.423 -0.0172113 1.89992 0
M  V30 3639 H 347.573 -2.077 3.28318 0
M  V30 3640 H 349.245 0.170371 4.60985 0
M  V30 3641 H 347.488 0.229552 4.33192 0
M  V30 3642 H 348.159 -0.977699 5.43273 0
M  V30 3643 H 350.635 -1.86239 3.72095 0
M  V30 3644 H 349.511 -2.84587 4.69363 0
M  V30 3645 H 349.772 -3.24461 3.00296 0
M  V30 3646 N 348.832 -1.54138 -0.328536 0
M  V30 3647 C 349.762 -1.86167 -1.40939 0
M  V30 3648 C 350.743 -0.718044 -1.54202 0
M  V30 3649 O 351.928 -0.971328 -1.68163 0
M  V30 3650 C 349.058 -2.08461 -2.77779 0
M  V30 3651 C 348.012 -3.24299 -2.7931 0
M  V30 3652 C 347.338 -3.31955 -4.19178 0
M  V30 3653 C 348.638 -4.62065 -2.43502 0
M  V30 3654 H 350.332 -2.76689 -1.14383 0
M  V30 3655 H 347.878 -1.33132 -0.548806 0
M  V30 3656 H 349.831 -2.29453 -3.53454 0
M  V30 3657 H 348.555 -1.14684 -3.05802 0
M  V30 3658 H 347.214 -3.03187 -2.0609 0
M  V30 3659 H 346.862 -2.35745 -4.44335 0
M  V30 3660 H 346.562 -4.09805 -4.2111 0
M  V30 3661 H 348.086 -3.55175 -4.96672 0
M  V30 3662 H 349.5 -4.8297 -3.08889 0
M  V30 3663 H 347.897 -5.42429 -2.56693 0
M  V30 3664 H 348.967 -4.64652 -1.38659 0
M  V30 3665 N 350.31 0.590341 -1.46126 0
M  V30 3666 C 351.24 1.71032 -1.58966 0
M  V30 3667 C 352.221 1.64302 -0.440335 0
M  V30 3668 O 353.406 1.82436 -0.665634 0
M  V30 3669 C 350.536 3.09665 -1.57241 0
M  V30 3670 C 349.49 3.31221 -2.71066 0
M  V30 3671 C 348.816 4.70303 -2.54399 0
M  V30 3672 C 350.116 3.19796 -4.1295 0
M  V30 3673 H 351.81 1.60543 -2.52718 0
M  V30 3674 H 349.356 0.770933 -1.21625 0
M  V30 3675 H 351.309 3.87831 -1.64819 0
M  V30 3676 H 350.033 3.21036 -0.600289 0
M  V30 3677 H 348.692 2.55452 -2.62944 0
M  V30 3678 H 348.34 4.78429 -1.55288 0
M  V30 3679 H 348.04 4.85679 -3.30741 0
M  V30 3680 H 349.564 5.50647 -2.63857 0
M  V30 3681 H 350.978 3.87815 -4.22223 0
M  V30 3682 H 349.375 3.46696 -4.89818 0
M  V30 3683 H 350.445 2.16983 -4.33643 0
M  V30 3684 N 351.788 1.33704 0.83433 0
M  V30 3685 C 353.036 1.25169 1.58673 0
M  V30 3686 C 353.357 -0.18127 1.94156 0
M  V30 3687 O 352.627 -1.11113 1.6134 0
M  V30 3688 H 351.207 0.4603 0.58833 0
M  V30 3689 H 353.869 1.67478 0.996847 0
M  V30 3690 H 352.965 1.84856 2.51465 0
M  V30 3691 N 353.266 -1.05314 1.17247 0
M  V30 3692 C 354.682 -1.30452 0.919473 0
M  V30 3693 C 354.882 -1.9703 -0.42209 0
M  V30 3694 O 353.938 -2.24311 -1.15935 0
M  V30 3695 C 355.251 -2.17551 2.07586 0
M  V30 3696 C 356.799 -2.30937 2.11275 0
M  V30 3697 C 357.274 -3.21396 3.26296 0
M  V30 3698 N 358.765 -3.28981 3.26076 0
M  V30 3699 C 359.5 -3.99095 4.11716 0
M  V30 3700 N 358.996 -4.71648 5.07465 0
M  V30 3701 N 360.789 -3.95247 3.9967 0
M  V30 3702 H 352.94 -0.604988 2.03602 0
M  V30 3703 H 355.203 -0.329368 0.888944 0
M  V30 3704 H 354.909 -1.75921 3.0454 0
M  V30 3705 H 354.783 -3.18182 2.02584 0
M  V30 3706 H 357.17 -2.71809 1.14907 0
M  V30 3707 H 357.251 -1.2994 2.20339 0
M  V30 3708 H 356.895 -2.81238 4.22927 0
M  V30 3709 H 356.825 -4.22395 3.14467 0
M  V30 3710 H 359.316 -2.77286 2.5675 0
M  V30 3711 H 359.629 -5.22705 5.6921 0
M  V30 3712 H 357.974 -4.70594 5.11435 0
M  V30 3713 H 361.165 -3.37691 3.24164 0
M  V30 3714 H 361.338 -4.4962 4.66632 0
M  V30 3715 N 354.744 -0.972509 -1.24016 0
M  V30 3716 C 355.99 -0.647583 -1.92816 0
M  V30 3717 C 356.345 0.809015 -1.74564 0
M  V30 3718 O 355.638 1.57502 -1.09103 0
M  V30 3719 C 355.832 -0.963694 -3.44162 0
M  V30 3720 C 355.661 -2.44947 -3.77135 0
M  V30 3721 C 354.431 -3.11012 -3.98246 0
M  V30 3722 C 356.629 -3.42978 -3.83237 0
M  V30 3723 N 354.611 -4.49277 -4.18358 0
M  V30 3724 C 355.982 -4.66619 -4.08248 0
M  V30 3725 C 358.037 -3.37569 -3.65994 0
M  V30 3726 C 356.74 -5.85516 -4.17808 0
M  V30 3727 C 358.766 -4.55822 -3.76802 0
M  V30 3728 C 358.128 -5.78256 -4.02243 0
M  V30 3729 H 354.227 -0.287894 -0.727077 0
M  V30 3730 H 356.811 -1.24835 -1.49413 0
M  V30 3731 H 354.982 -0.391692 -3.8642 0
M  V30 3732 H 356.714 -0.596849 -4.00275 0
M  V30 3733 H 353.469 -2.61529 -3.94841 0
M  V30 3734 H 353.893 -5.20935 -4.32384 0
M  V30 3735 H 358.535 -2.43945 -3.45327 0
M  V30 3736 H 356.253 -6.79564 -4.37285 0
M  V30 3737 H 359.839 -4.53204 -3.64825 0
M  V30 3738 H 358.719 -6.68231 -4.10411 0
M  V30 3739 N 356.222 1.38976 -0.743202 0
M  V30 3740 C 357.499 1.94351 -0.220705 0
M  V30 3741 C 357.879 1.67935 1.2791 0
M  V30 3742 O 357.227 1.01211 2.04862 0
M  V30 3743 C 357.437 3.44426 -0.563171 0
M  V30 3744 C 358.785 4.2144 -0.517046 0
M  V30 3745 O 359.809 3.52661 -0.500846 0
M  V30 3746 O 358.668 5.44032 -0.518806 0
M  V30 3747 H 355.762 0.825879 -0.043047 0
M  V30 3748 H 358.308 1.48429 -0.822618 0
M  V30 3749 H 357.08 3.5712 -1.59941 0
M  V30 3750 H 356.703 3.97543 0.0672883 0
M  V30 3751 N 357.7 0.491464 1.49741 0
M  V30 3752 C 358.648 -0.305837 2.30581 0
M  V30 3753 C 359.642 -0.971642 1.38764 0
M  V30 3754 O 360.848 -0.90042 1.5586 0
M  V30 3755 H 357.223 -0.117482 0.742767 0
M  V30 3756 H 359.194 0.396093 2.95759 0
M  V30 3757 C 357.943 -1.36319 3.19863 0
M  V30 3758 H 357.266 -0.860258 3.90435 0
M  V30 3759 H 358.706 -1.89323 3.79385 0
M  V30 3760 C 357.165 -2.37621 2.38826 0
M  V30 3761 O 357.695 -3.43311 2.08567 0
M  V30 3762 N 355.901 -2.09849 2.01026 0
M  V30 3763 H 355.448 -1.23922 2.25834 0
M  V30 3764 H 355.406 -2.77859 1.47112 0
M  V30 3765 N 359.178 -1.55987 0.224894 0
M  V30 3766 C 360.126 -2.21808 -0.700283 0
M  V30 3767 C 361.12 -1.19854 -1.19714 0
M  V30 3768 O 362.326 -1.37925 -1.15658 0
M  V30 3769 H 358.701 -0.711226 -0.244258 0
M  V30 3770 H 360.672 -2.98152 -0.121749 0
M  V30 3771 C 359.421 -2.91444 -1.8962 0
M  V30 3772 H 358.744 -3.69655 -1.52299 0
M  V30 3773 H 360.184 -3.40894 -2.52125 0
M  V30 3774 C 358.643 -1.94098 -2.75368 0
M  V30 3775 O 359.173 -1.46004 -3.74227 0
M  V30 3776 N 357.379 -1.61675 -2.41474 0
M  V30 3777 H 356.926 -2.00979 -1.61137 0
M  V30 3778 H 356.884 -0.968036 -2.99126 0
M  V30 3779 N 360.656 0.0484629 -1.57525 0
M  V30 3780 C 361.886 0.754326 -1.92337 0
M  V30 3781 C 362.294 1.70443 -0.82132 0
M  V30 3782 O 361.637 1.82466 0.21254 0
M  V30 3783 C 361.699 1.58231 -3.22805 0
M  V30 3784 C 361.363 0.799074 -4.4996 0
M  V30 3785 C 362.36 0.1079 -5.19788 0
M  V30 3786 C 360.045 0.759345 -4.96527 0
M  V30 3787 C 362.039 -0.612516 -6.3445 0
M  V30 3788 C 359.726 0.0351713 -6.1109 0
M  V30 3789 C 360.724 -0.649537 -6.79904 0
M  V30 3790 O 360.412 -1.36199 -7.92278 0
M  V30 3791 H 360.144 0.218257 -0.639797 0
M  V30 3792 H 362.698 0.0159295 -2.05394 0
M  V30 3793 H 360.928 2.36406 -3.06021 0
M  V30 3794 H 362.617 2.16898 -3.43089 0
M  V30 3795 H 363.383 0.129748 -4.84826 0
M  V30 3796 H 359.262 1.28177 -4.42822 0
M  V30 3797 H 362.806 -1.14751 -6.88097 0
M  V30 3798 H 358.703 0.0113314 -6.45499 0
M  V30 3799 H 359.471 -1.27366 -8.0853 0
M  V30 3800 N 362.134 1.5431 0.320358 0
M  V30 3801 C 363.382 1.72327 1.05583 0
M  V30 3802 C 363.703 0.50149 1.88441 0
M  V30 3803 O 362.973 -0.48448 1.89815 0
M  V30 3804 H 361.553 0.635387 0.3928 0
M  V30 3805 H 364.215 1.91621 0.356019 0
M  V30 3806 H 363.311 2.60426 1.72003 0
M  V30 3807 N 363.613 -0.582584 1.46437 0
M  V30 3808 C 364.89 -1.34276 1.4223 0
M  V30 3809 C 365.27 -2.10835 0.10583 0
M  V30 3810 O 364.618 -2.09485 -0.912596 0
M  V30 3811 C 364.828 -2.26865 2.65204 0
M  V30 3812 C 366.176 -2.88691 3.11356 0
M  V30 3813 O 367.2 -2.37178 2.65753 0
M  V30 3814 O 366.059 -3.82255 3.90568 0
M  V30 3815 H 363.153 -0.603326 0.565621 0
M  V30 3816 H 365.699 -0.603591 1.58603 0
M  V30 3817 H 364.471 -1.69724 3.52576 0
M  V30 3818 H 364.094 -3.08122 2.5129 0
M  V30 3819 N 365.091 -1.34144 -0.827227 0
M  V30 3820 C 366.339 -1.26009 -1.58007 0
M  V30 3821 C 366.66 0.170971 -1.94249 0
M  V30 3822 O 365.93 1.10256 -1.61927 0
M  V30 3823 H 364.51 -0.463414 -0.585881 0
M  V30 3824 H 367.172 -1.68005 -0.987951 0
M  V30 3825 H 366.268 -1.86187 -2.50481 0
M  V30 3826 N 366.569 1.04691 -1.17803 0
M  V30 3827 C 367.815 1.78045 -0.970969 0
M  V30 3828 C 368.148 1.87686 0.498751 0
M  V30 3829 O 367.423 1.38035 1.37027 0
M  V30 3830 C 367.706 3.2166 -1.61884 0
M  V30 3831 C 367.559 3.20001 -3.161 0
M  V30 3832 C 368.878 4.1962 -1.3269 0
M  V30 3833 H 365.997 0.64633 -0.354155 0
M  V30 3834 H 368.639 1.22333 -1.45378 0
M  V30 3835 H 366.789 3.69232 -1.20831 0
M  V30 3836 H 368.461 2.80467 -3.66246 0
M  V30 3837 H 366.704 2.58203 -3.48588 0
M  V30 3838 H 367.375 4.21386 -3.56564 0
M  V30 3839 H 369.851 3.80567 -1.68249 0
M  V30 3840 H 368.727 5.18339 -1.80599 0
M  V30 3841 H 368.988 4.414 -0.248622 0
M  V30 3842 N 368.047 0.979072 1.23499 0
M  V30 3843 C 369.272 0.664845 1.96455 0
M  V30 3844 C 369.697 -0.761287 1.72006 0
M  V30 3845 O 369.055 -1.51837 0.990713 0
M  V30 3846 C 369.103 0.959479 3.47601 0
M  V30 3847 O 368.207 0.0508168 4.12369 0
M  V30 3848 H 367.548 0.250185 0.615064 0
M  V30 3849 H 370.078 1.31231 1.5697 0
M  V30 3850 H 370.088 0.895642 3.98048 0
M  V30 3851 H 368.763 1.99876 3.64723 0
M  V30 3852 H 367.34 0.16895 3.72517 0
M  V30 3853 N 369.525 -1.3858 0.750561 0
M  V30 3854 C 370.936 -1.82927 0.373438 0
M  V30 3855 C 371.287 -1.62634 -1.09748 0
M  V30 3856 O 370.412 -1.12588 -1.84805 0
M  V30 3857 C 371.007 -3.32088 0.671029 0
M  V30 3858 C 369.566 -3.74795 0.34722 0
M  V30 3859 C 368.713 -2.61391 0.92575 0
M  V30 3860 H 371.664 -1.27351 0.946958 0
M  V30 3861 H 371.685 -3.80465 -0.0518269 0
M  V30 3862 H 371.197 -3.46826 1.74164 0
M  V30 3863 H 369.298 -3.65638 -0.716933 0
M  V30 3864 H 369.411 -4.71667 0.840656 0
M  V30 3865 H 367.775 -2.52265 0.351327 0
M  V30 3866 H 368.558 -2.78929 2.00133 0
M  V30 3867 N 371.003 -0.499398 -1.49478 0
M  V30 3868 C 371.936 0.326491 -2.25852 0
M  V30 3869 C 372.914 0.971776 -1.30366 0
M  V30 3870 O 374.098 1.00219 -1.59651 0
M  V30 3871 C 371.225 1.45969 -3.05632 0
M  V30 3872 C 370.271 0.928938 -4.16261 0
M  V30 3873 S 371.104 -0.179012 -5.35201 0
M  V30 3874 C 372.26 0.957389 -6.18534 0
M  V30 3875 H 372.493 -0.321746 -2.95554 0
M  V30 3876 H 370.026 -0.284674 -1.51753 0
M  V30 3877 H 371.984 2.109 -3.52181 0
M  V30 3878 H 370.645 2.07953 -2.35402 0
M  V30 3879 H 369.838 1.77813 -4.71592 0
M  V30 3880 H 369.44 0.356869 -3.72293 0
M  V30 3881 H 371.732 1.86296 -6.51383 0
M  V30 3882 H 372.675 0.442733 -7.06715 0
M  V30 3883 H 373.083 1.224 -5.5107 0
M  V30 3884 N 372.481 1.55866 -0.233164 0
M  V30 3885 C 373.706 2.03449 0.402906 0
M  V30 3886 C 374.131 1.11166 1.51736 0
M  V30 3887 O 373.489 0.101996 1.81013 0
M  V30 3888 C 373.537 3.49165 0.9009 0
M  V30 3889 O 372.641 3.60019 2.01147 0
M  V30 3890 H 371.982 0.657913 0.0897025 0
M  V30 3891 H 374.512 2.01493 -0.355201 0
M  V30 3892 H 374.522 3.89716 1.2077 0
M  V30 3893 H 373.197 4.15813 0.0852889 0
M  V30 3894 H 371.774 3.3136 1.71042 0
M  V30 3895 N 373.959 -0.0401083 1.57549 0
M  V30 3896 C 375.205 -0.728793 1.89895 0
M  V30 3897 C 375.56 -1.73551 0.830535 0
M  V30 3898 O 374.853 -1.90914 -0.162007 0
M  V30 3899 C 375.047 -1.44902 3.26708 0
M  V30 3900 C 374.876 -0.513568 4.46758 0
M  V30 3901 C 373.646 -0.138698 5.0511 0
M  V30 3902 C 375.844 0.203341 5.13898 0
M  V30 3903 N 373.826 0.799159 6.08676 0
M  V30 3904 C 375.197 0.997246 6.11927 0
M  V30 3905 C 377.252 0.271459 4.97159 0
M  V30 3906 C 375.955 1.85299 6.95023 0
M  V30 3907 C 377.981 1.11429 5.80808 0
M  V30 3908 C 377.343 1.89615 6.78399 0
M  V30 3909 H 373.442 -0.241125 0.743897 0
M  V30 3910 H 376.026 0.0108016 1.94697 0
M  V30 3911 H 374.197 -2.15914 3.22856 0
M  V30 3912 H 375.929 -2.08921 3.46603 0
M  V30 3913 H 372.684 -0.498496 4.70969 0
M  V30 3914 H 373.108 1.26227 6.65128 0
M  V30 3915 H 377.75 -0.318709 4.21597 0
M  V30 3916 H 375.468 2.454 7.69938 0
M  V30 3917 H 379.054 1.17038 5.69906 0
M  V30 3918 H 377.934 2.53779 7.42001 0
M  V30 3919 N 375.437 -1.54477 -0.31217 0
M  V30 3920 C 376.686 -1.72438 -1.04633 0
M  V30 3921 C 376.999 -0.511163 -1.88803 0
M  V30 3922 O 378.205 -0.572341 -2.65399 0
M  V30 3923 C 376.661 -3.05043 -1.9099 0
M  V30 3924 C 376.269 -4.33806 -1.11877 0
M  V30 3925 C 378.013 -3.32364 -2.64073 0
M  V30 3926 C 375.92 -5.57467 -1.97445 0
M  V30 3927 H 374.85 -0.642647 -0.394361 0
M  V30 3928 H 377.501 -1.80966 -0.303929 0
M  V30 3929 H 375.883 -2.90451 -2.69173 0
M  V30 3930 H 377.057 -4.59199 -0.383843 0
M  V30 3931 H 375.372 -4.13336 -0.504252 0
M  V30 3932 H 377.969 -4.21951 -3.28423 0
M  V30 3933 H 378.312 -2.50745 -3.32314 0
M  V30 3934 H 378.845 -3.47875 -1.92944 0
M  V30 3935 H 375.584 -6.41722 -1.33692 0
M  V30 3936 H 375.104 -5.36277 -2.6864 0
M  V30 3937 H 376.783 -5.94303 -2.5576 0
M  V30 3938 N 376.915 0.57481 -1.46744 0
M  V30 3939 C 378.163 1.33009 -1.52161 0
M  V30 3940 C 378.484 1.94185 -0.178092 0
M  V30 3941 O 377.754 1.7899 0.796196 0
M  V30 3942 H 376.334 0.493873 -0.560445 0
M  V30 3943 H 378.996 0.672589 -1.82927 0
M  V30 3944 H 378.092 2.13273 -2.27862 0
M  V30 3945 N 378.394 1.34581 0.820102 0
M  V30 3946 C 379.619 1.30333 1.61332 0
M  V30 3947 C 380.044 -0.119339 1.87721 0
M  V30 3948 O 379.402 -1.08197 1.45475 0
M  V30 3949 C 379.45 2.10258 2.92957 0
M  V30 3950 O 378.554 1.47404 3.85157 0
M  V30 3951 H 377.895 0.447488 0.490561 0
M  V30 3952 H 380.425 1.77425 1.01889 0
M  V30 3953 H 380.435 2.21718 3.42498 0
M  V30 3954 H 379.11 3.13693 2.73074 0
M  V30 3955 H 377.687 1.44703 3.43679 0
M  V30 3956 N 379.872 -1.04064 1.18357 0
M  V30 3957 C 381.118 -1.77528 0.980397 0
M  V30 3958 C 381.451 -1.87948 -0.48879 0
M  V30 3959 O 380.726 -1.3876 -1.36293 0
M  V30 3960 C 381.009 -3.20797 1.63588 0
M  V30 3961 C 380.862 -3.1832 3.17793 0
M  V30 3962 C 382.181 -4.18911 1.34914 0
M  V30 3963 H 379.3 -0.644443 0.357578 0
M  V30 3964 H 381.942 -1.2156 1.46024 0
M  V30 3965 H 380.092 -3.68586 1.22788 0
M  V30 3966 H 381.764 -2.78521 3.67728 0
M  V30 3967 H 380.007 -2.56351 3.49952 0
M  V30 3968 H 380.678 -4.19489 3.58794 0
M  V30 3969 H 383.154 -3.7967 1.70265 0
M  V30 3970 H 382.03 -5.17374 1.83346 0
M  V30 3971 H 382.291 -4.41262 0.272027 0
M  V30 3972 N 381.35 -0.985608 -1.22978 0
M  V30 3973 C 382.627 -0.573599 -1.87001 0
M  V30 3974 C 383.007 0.949213 -1.88555 0
M  V30 3975 O 382.355 1.82811 -1.37086 0
M  V30 3976 C 382.565 -1.18564 -3.28243 0
M  V30 3977 C 383.913 -1.28163 -4.04796 0
M  V30 3978 O 384.937 -1.13949 -3.37482 0
M  V30 3979 O 383.796 -1.50832 -5.25273 0
M  V30 3980 H 380.89 -0.193868 -0.803955 0
M  V30 3981 H 383.436 -1.08102 -1.30813 0
M  V30 3982 H 382.208 -2.22758 -3.21706 0
M  V30 3983 H 381.831 -0.663363 -3.92027 0
M  V30 3984 N 382.828 1.3818 -0.7579 0
M  V30 3985 C 384.077 1.99261 -0.312744 0
M  V30 3986 C 384.39 1.60846 1.11301 0
M  V30 3987 O 385.596 2.14929 1.65885 0
M  V30 3988 C 384.052 3.56294 -0.50821 0
M  V30 3989 C 383.66 4.03657 -1.94333 0
M  V30 3990 C 385.404 4.24313 -0.125982 0
M  V30 3991 C 383.311 5.53347 -2.08712 0
M  V30 3992 H 382.241 0.745456 -0.113185 0
M  V30 3993 H 384.892 1.57889 -0.935056 0
M  V30 3994 H 383.274 3.95575 0.183353 0
M  V30 3995 H 384.448 3.75655 -2.66871 0
M  V30 3996 H 382.763 3.48376 -2.28086 0
M  V30 3997 H 385.36 5.34279 -0.212125 0
M  V30 3998 H 385.703 4.05962 0.921964 0
M  V30 3999 H 386.236 3.90285 -0.769563 0
M  V30 4000 H 382.975 5.76607 -3.11777 0
M  V30 4001 H 382.495 5.83078 -1.4064 0
M  V30 4002 H 384.174 6.19111 -1.87912 0
M  V30 4003 N 384.306 0.507319 1.49211 0
M  V30 4004 C 385.236 -0.256939 2.32082 0
M  V30 4005 C 386.217 -0.956609 1.40652 0
M  V30 4006 O 387.402 -0.946788 1.69557 0
M  V30 4007 C 384.532 -1.31802 3.21318 0
M  V30 4008 C 383.486 -0.737855 4.21592 0
M  V30 4009 C 382.812 -1.89992 4.99807 0
M  V30 4010 C 384.112 0.275325 5.21574 0
M  V30 4011 H 385.806 0.434798 2.96226 0
M  V30 4012 H 383.352 0.210546 1.42452 0
M  V30 4013 H 385.305 -1.86045 3.78107 0
M  V30 4014 H 384.029 -2.03903 2.5513 0
M  V30 4015 H 382.688 -0.217126 3.65956 0
M  V30 4016 H 382.336 -2.60877 4.30061 0
M  V30 4017 H 382.036 -1.51777 5.6766 0
M  V30 4018 H 383.56 -2.44657 5.59442 0
M  V30 4019 H 384.974 -0.179193 5.7302 0
M  V30 4020 H 383.371 0.573649 5.97352 0
M  V30 4021 H 384.441 1.18903 4.70096 0
M  V30 4022 N 385.784 -1.5574 0.241426 0
M  V30 4023 C 387.2 -1.59196 -0.113548 0
M  V30 4024 C 387.4 -1.25852 -1.57364 0
M  V30 4025 O 386.456 -1.00322 -2.31715 0
M  V30 4026 C 387.769 -2.99814 0.230695 0
M  V30 4027 C 389.317 -3.12513 0.174547 0
M  V30 4028 C 389.792 -4.55342 0.492744 0
M  V30 4029 N 391.283 -4.61076 0.443043 0
M  V30 4030 C 392.018 -5.6956 0.662484 0
M  V30 4031 N 391.514 -6.86328 0.944761 0
M  V30 4032 N 393.307 -5.58957 0.593564 0
M  V30 4033 H 385.458 -1.75685 1.19368 0
M  V30 4034 H 387.721 -0.81756 0.479896 0
M  V30 4035 H 387.427 -3.28932 1.24485 0
M  V30 4036 H 387.301 -3.74568 -0.444833 0
M  V30 4037 H 389.688 -2.83179 -0.830277 0
M  V30 4038 H 389.769 -2.40045 0.883845 0
M  V30 4039 H 389.413 -4.85396 1.4951 0
M  V30 4040 H 389.343 -5.26062 -0.23797 0
M  V30 4041 H 391.834 -3.77179 0.233374 0
M  V30 4042 H 392.147 -7.64935 1.09977 0
M  V30 4043 H 390.492 -6.88025 0.982175 0
M  V30 4044 H 393.683 -4.66611 0.373123 0
M  V30 4045 H 393.856 -6.43433 0.767981 0
M  V30 4046 N 387.262 0.0317525 -1.57568 0
M  V30 4047 C 388.678 0.38735 -1.54828 0
M  V30 4048 C 388.878 1.7677 -0.967187 0
M  V30 4049 O 387.934 2.45581 -0.587063 0
M  V30 4050 C 389.247 0.291667 -2.99282 0
M  V30 4051 C 390.795 0.368946 -3.10818 0
M  V30 4052 C 391.27 0.302741 -4.56998 0
M  V30 4053 N 392.761 0.361617 -4.61786 0
M  V30 4054 C 393.496 0.333238 -5.72431 0
M  V30 4055 N 392.992 0.257308 -6.92322 0
M  V30 4056 N 394.785 0.382769 -5.60795 0
M  V30 4057 H 386.936 -0.871609 -1.93692 0
M  V30 4058 H 389.199 -0.331161 -0.888277 0
M  V30 4059 H 388.905 -0.656794 -3.45513 0
M  V30 4060 H 388.779 1.08638 -3.61217 0
M  V30 4061 H 391.166 1.30784 -2.64536 0
M  V30 4062 H 391.247 -0.455066 -2.5172 0
M  V30 4063 H 390.891 -0.632473 -5.03947 0
M  V30 4064 H 390.821 1.14482 -5.14005 0
M  V30 4065 H 393.312 0.422923 -3.75526 0
M  V30 4066 H 393.625 0.24068 -7.72425 0
M  V30 4067 H 391.97 0.223396 -6.94641 0
M  V30 4068 H 395.161 0.44006 -4.66027 0
M  V30 4069 H 395.334 0.357184 -6.47015 0
M  V30 4070 N 388.74 1.54641 0.303973 0
M  V30 4071 C 389.986 1.74969 1.03718 0
M  V30 4072 C 390.341 0.527461 1.85029 0
M  V30 4073 O 389.634 -0.480143 1.85486 0
M  V30 4074 C 389.828 2.97753 1.97681 0
M  V30 4075 C 389.657 4.318 1.25613 0
M  V30 4076 C 388.427 4.95616 0.984518 0
M  V30 4077 C 390.625 5.10021 0.662081 0
M  V30 4078 N 388.607 6.13455 0.233794 0
M  V30 4079 C 389.978 6.19984 0.0439736 0
M  V30 4080 C 392.033 4.94663 0.566835 0
M  V30 4081 C 390.736 7.16264 -0.66016 0
M  V30 4082 C 392.762 5.91271 -0.123637 0
M  V30 4083 C 392.124 7.00601 -0.730608 0
M  V30 4084 H 388.223 0.692873 0.362562 0
M  V30 4085 H 390.807 1.92116 0.316135 0
M  V30 4086 H 388.978 2.82036 2.6704 0
M  V30 4087 H 390.71 3.06621 2.64132 0
M  V30 4088 H 387.465 4.55921 1.28191 0
M  V30 4089 H 387.889 6.76879 -0.127996 0
M  V30 4090 H 392.531 4.10267 1.02181 0
M  V30 4091 H 390.249 8.00204 -1.12691 0
M  V30 4092 H 393.835 5.81466 -0.197236 0
M  V30 4093 H 392.715 7.7407 -1.2564 0
M  V30 4094 N 390.218 -0.567019 1.47046 0
M  V30 4095 C 391.165 -1.67489 1.58796 0
M  V30 4096 C 392.135 -1.60399 0.43144 0
M  V30 4097 O 393.32 -1.79378 0.650233 0
M  V30 4098 C 390.46 -3.05821 1.59899 0
M  V30 4099 C 389.573 -3.2342 2.86397 0
M  V30 4100 C 388.708 -4.52093 2.789 0
M  V30 4101 C 387.747 -4.6309 4.00267 0
M  V30 4102 N 386.884 -5.83106 3.91064 0
M  V30 4103 H 391.724 -1.56785 2.53422 0
M  V30 4104 H 389.261 -0.763896 1.2571 0
M  V30 4105 H 391.219 -3.8591 1.58522 0
M  V30 4106 H 389.849 -3.15384 0.687929 0
M  V30 4107 H 388.901 -2.3683 2.97684 0
M  V30 4108 H 390.213 -3.27412 3.76301 0
M  V30 4109 H 389.367 -5.4043 2.75718 0
M  V30 4110 H 388.106 -4.50565 1.86662 0
M  V30 4111 H 387.111 -3.73168 4.03765 0
M  V30 4112 H 388.336 -4.66386 4.93621 0
M  V30 4113 H 386.282 -5.82546 3.01623 0
M  V30 4114 H 386.199 -5.88434 4.74638 0
M  V30 4115 H 387.467 -6.73831 3.91882 0
M  V30 4116 N 391.696 -1.35014 -0.812953 0
M  V30 4117 C 392.644 -1.27435 -1.94585 0
M  V30 4118 C 393.638 -0.170494 -1.6854 0
M  V30 4119 O 394.844 -0.336085 -1.76835 0
M  V30 4120 H 391.219 -0.396144 -0.639198 0
M  V30 4121 H 393.19 -2.23158 -1.98098 0
M  V30 4122 C 391.939 -1.05677 -3.31252 0
M  V30 4123 H 391.262 -1.89853 -3.51846 0
M  V30 4124 H 392.702 -1.04413 -4.10943 0
M  V30 4125 C 391.161 0.239615 -3.36047 0
M  V30 4126 O 391.691 1.23759 -3.8216 0
M  V30 4127 N 389.897 0.276186 -2.89285 0
M  V30 4128 H 389.444 -0.53653 -2.51951 0
M  V30 4129 H 389.402 1.14332 -2.92875 0
M  V30 4130 N 393.175 1.03435 -1.18907 0
M  V30 4131 C 394.125 2.09924 -0.889706 0
M  V30 4132 C 395.109 1.60261 0.143216 0
M  V30 4133 O 396.301 1.76892 -0.0617122 0
M  V30 4134 C 393.43 3.40669 -0.424168 0
M  V30 4135 C 392.516 3.97082 -1.48952 0
M  V30 4136 N 392.907 4.27227 -2.70759 0
M  V30 4137 C 391.205 4.25029 -1.35152 0
M  V30 4138 C 391.906 4.7246 -3.39347 0
M  V30 4139 N 390.882 4.7366 -2.66735 0
M  V30 4140 H 394.684 2.31116 -1.81555 0
M  V30 4141 H 392.198 1.21246 -1.08042 0
M  V30 4142 H 394.195 4.16461 -0.191176 0
M  V30 4143 H 392.855 3.20901 0.495263 0
M  V30 4144 H 393.866 4.16678 -3.0757 0
M  V30 4145 H 390.543 4.14554 -0.495126 0
M  V30 4146 H 391.933 5.04751 -4.43481 0
M  V30 4147 N 394.653 0.992116 1.22453 0
M  V30 4148 C 395.901 0.666215 1.90804 0
M  V30 4149 C 396.222 -0.804152 1.77647 0
M  V30 4150 O 395.492 -1.57629 1.16318 0
M  V30 4151 H 394.072 0.243423 0.706225 0
M  V30 4152 H 396.734 1.25845 1.48825 0
M  V30 4153 H 395.83 0.928069 2.97982 0
M  V30 4154 N 396.131 -1.37776 0.765217 0
M  V30 4155 C 397.371 -2.01691 0.331669 0
M  V30 4156 C 397.735 -1.59432 -1.06983 0
M  V30 4157 O 398.936 -2.15761 -1.60314 0
M  V30 4158 C 397.207 -3.54385 0.463261 0
M  V30 4159 S 398.766 -4.38652 0.114011 0
M  V30 4160 H 395.584 -0.699387 0.127979 0
M  V30 4161 H 398.186 -1.68084 0.998396 0
M  V30 4162 H 396.89 -3.82629 1.48401 0
M  V30 4163 H 396.421 -3.92783 -0.220246 0
M  V30 4164 H 398.436 -4.84021 -1.09261 0
M  V30 4165 N 397.609 -0.515225 -1.4894 0
M  V30 4166 C 398.541 0.292481 -2.27326 0
M  V30 4167 C 399.554 0.917838 -1.3446 0
M  V30 4168 O 400.743 0.798772 -1.5963 0
M  V30 4169 C 397.843 1.42803 -3.07344 0
M  V30 4170 C 397.016 0.907347 -4.27885 0
M  V30 4171 C 396.075 1.92222 -4.89834 0
M  V30 4172 O 395.101 1.48506 -5.49486 0
M  V30 4173 N 396.303 3.25355 -4.80754 0
M  V30 4174 H 399.068 -0.379721 -2.97285 0
M  V30 4175 H 396.629 -0.348638 -1.58102 0
M  V30 4176 H 398.621 2.10481 -3.45658 0
M  V30 4177 H 397.191 2.00414 -2.39902 0
M  V30 4178 H 396.411 0.0550218 -3.94162 0
M  V30 4179 H 397.699 0.538108 -5.05946 0
M  V30 4180 H 397.097 3.6355 -4.33414 0
M  V30 4181 H 395.654 3.88707 -5.23211 0
M  V30 4182 N 399.087 1.5561 -0.249682 0
M  V30 4183 C 400.503 1.59254 0.105103 0
M  V30 4184 C 400.703 1.26685 1.56694 0
M  V30 4185 O 399.759 1.0155 2.31179 0
M  V30 4186 C 401.072 2.99687 -0.246592 0
M  V30 4187 C 402.62 3.12416 -0.191118 0
M  V30 4188 C 403.095 4.55074 -0.516885 0
M  V30 4189 N 404.586 4.60835 -0.467489 0
M  V30 4190 C 405.321 5.69201 -0.69268 0
M  V30 4191 N 404.817 6.85817 -0.981146 0
M  V30 4192 N 406.61 5.58635 -0.623198 0
M  V30 4193 H 398.761 1.75049 -1.20298 0
M  V30 4194 H 401.024 0.815003 -0.484225 0
M  V30 4195 H 400.73 3.28267 -1.26228 0
M  V30 4196 H 400.604 3.74798 0.424962 0
M  V30 4197 H 402.991 2.83615 0.815247 0
M  V30 4198 H 403.072 2.39573 -0.896563 0
M  V30 4199 H 402.716 4.84596 -1.52082 0
M  V30 4200 H 402.646 5.26181 0.210068 0
M  V30 4201 H 405.137 3.7705 -0.253373 0
M  V30 4202 H 405.45 7.64341 -1.14032 0
M  V30 4203 H 403.795 6.87494 -1.01865 0
M  V30 4204 H 406.986 4.66406 -0.397863 0
M  V30 4205 H 407.159 6.43017 -0.802093 0
M  V30 4206 N 400.565 -0.0233959 1.57583 0
M  V30 4207 C 401.811 -0.714119 1.89811 0
M  V30 4208 C 402.144 -1.74702 0.848113 0
M  V30 4209 O 401.419 -1.94023 -0.136135 0
M  V30 4210 C 401.702 -1.37853 3.32669 0
M  V30 4211 C 401.555 -0.358764 4.48367 0
M  V30 4212 C 402.874 -2.31101 3.7454 0
M  V30 4213 H 399.993 -0.25814 0.690314 0
M  V30 4214 H 402.635 0.0230927 1.89986 0
M  V30 4215 H 400.785 -2.00689 3.3265 0
M  V30 4216 H 402.457 0.268115 4.6052 0
M  V30 4217 H 400.7 0.321387 4.32608 0
M  V30 4218 H 401.371 -0.862242 5.45224 0
M  V30 4219 H 403.847 -1.78304 3.75961 0
M  V30 4220 H 402.723 -2.74567 4.75294 0
M  V30 4221 H 402.984 -3.18018 3.0711 0
M  V30 4222 N 402.043 -1.548 -0.295768 0
M  V30 4223 C 402.99 -1.86113 -1.36494 0
M  V30 4224 C 403.96 -0.7105 -1.50137 0
M  V30 4225 O 405.145 -0.959626 -1.64912 0
M  V30 4226 C 402.285 -2.11861 -2.72413 0
M  V30 4227 C 401.398 -3.39471 -2.67177 0
M  V30 4228 C 400.533 -3.55035 -3.95125 0
M  V30 4229 C 399.572 -4.76418 -3.84308 0
M  V30 4230 N 398.709 -4.8876 -5.04042 0
M  V30 4231 H 403.549 -2.77314 -1.09091 0
M  V30 4232 H 401.086 -1.37315 -0.52753 0
M  V30 4233 H 403.044 -2.24786 -3.51464 0
M  V30 4234 H 401.674 -1.2392 -2.98066 0
M  V30 4235 H 400.726 -3.35139 -1.79962 0
M  V30 4236 H 402.038 -4.28646 -2.55076 0
M  V30 4237 H 401.192 -3.67653 -4.82614 0
M  V30 4238 H 399.931 -2.64002 -4.10066 0
M  V30 4239 H 398.936 -4.63827 -2.95202 0
M  V30 4240 H 400.161 -5.68863 -3.70906 0
M  V30 4241 H 398.107 -4.00652 -5.19436 0
M  V30 4242 H 398.024 -5.71945 -4.94384 0
M  V30 4243 H 399.292 -5.0574 -5.93167 0
M  V30 4244 N 403.521 0.559213 -1.47345 0
M  V30 4245 C 404.751 1.33999 -1.57251 0
M  V30 4246 C 405.159 1.87905 -0.220978 0
M  V30 4247 O 404.502 1.65577 0.795617 0
M  V30 4248 C 404.564 2.54798 -2.53611 0
M  V30 4249 C 404.228 2.22192 -3.99349 0
M  V30 4250 C 405.225 1.79607 -4.87891 0
M  V30 4251 C 402.91 2.33613 -4.44669 0
M  V30 4252 C 404.904 1.48868 -6.19772 0
M  V30 4253 C 402.591 2.02487 -5.76578 0
M  V30 4254 C 403.589 1.60183 -6.63951 0
M  V30 4255 O 403.277 1.29451 -7.93409 0
M  V30 4256 H 403.009 0.414858 -0.533731 0
M  V30 4257 H 405.563 0.684465 -1.9366 0
M  V30 4258 H 403.793 3.23235 -2.12265 0
M  V30 4259 H 405.482 3.16873 -2.53666 0
M  V30 4260 H 406.248 1.70278 -4.54126 0
M  V30 4261 H 402.127 2.65501 -3.76869 0
M  V30 4262 H 405.671 1.15775 -6.87926 0
M  V30 4263 H 401.568 2.11448 -6.09885 0
M  V30 4264 H 402.336 1.43098 -8.05894 0
M  V30 4265 N 404.999 1.35443 0.805782 0
M  V30 4266 C 406.247 1.28507 1.55982 0
M  V30 4267 C 406.568 -0.140046 1.94496 0
M  V30 4268 O 405.838 -1.07666 1.63661 0
M  V30 4269 H 404.418 0.472676 0.578434 0
M  V30 4270 H 407.08 1.69555 0.961098 0
M  V30 4271 H 406.176 1.90148 2.47488 0
M  V30 4272 N 406.477 -1.02803 1.19454 0
M  V30 4273 C 407.409 -2.11181 0.890807 0
M  V30 4274 C 408.422 -1.6238 -0.116829 0
M  V30 4275 O 409.611 -1.78144 0.112694 0
M  V30 4276 C 406.711 -3.37461 0.311942 0
M  V30 4277 C 405.884 -4.15446 1.36834 0
M  V30 4278 C 404.943 -5.20039 0.802864 0
M  V30 4279 O 403.969 -5.49602 1.48077 0
M  V30 4280 N 405.171 -5.79165 -0.393417 0
M  V30 4281 H 407.936 -2.37827 1.82369 0
M  V30 4282 H 405.497 -1.19101 1.09666 0
M  V30 4283 H 407.489 -4.0462 -0.0802225 0
M  V30 4284 H 406.059 -3.08156 -0.52524 0
M  V30 4285 H 405.279 -3.43423 1.93531 0
M  V30 4286 H 406.567 -4.64335 2.08015 0
M  V30 4287 H 405.965 -5.57466 -0.961658 0
M  V30 4288 H 404.522 -6.47729 -0.727351 0
M  V30 4289 N 407.956 -0.998596 -1.21925 0
M  V30 4290 C 409.196 -0.685948 -1.92546 0
M  V30 4291 C 409.56 0.768441 -1.75952 0
M  V30 4292 O 410.761 1.19277 -2.40887 0
M  V30 4293 C 409.032 -1.08767 -3.40448 0
M  V30 4294 S 410.591 -0.894251 -4.29591 0
M  V30 4295 H 407.409 -0.250622 -0.665364 0
M  V30 4296 H 410.011 -1.28207 -1.47591 0
M  V30 4297 H 408.715 -2.14242 -3.50041 0
M  V30 4298 H 408.246 -0.48357 -3.90417 0
M  V30 4299 H 410.261 0.212149 -4.95746 0
M  V30 4300 N 409.434 1.37368 -0.772513 0
M  V30 4301 C 410.68 2.00423 -0.3467 0
M  V30 4302 C 411.035 1.60224 1.06518 0
M  V30 4303 O 410.328 0.838712 1.72268 0
M  V30 4304 C 410.522 3.54817 -0.428876 0
M  V30 4305 C 410.351 4.10011 -1.84719 0
M  V30 4306 C 409.121 4.40927 -2.46803 0
M  V30 4307 C 411.319 4.30955 -2.80681 0
M  V30 4308 N 409.301 4.8184 -3.80399 0
M  V30 4309 C 410.672 4.74486 -3.99078 0
M  V30 4310 C 412.727 4.1309 -2.77958 0
M  V30 4311 C 411.43 5.02023 -5.15136 0
M  V30 4312 C 413.456 4.41764 -3.9319 0
M  V30 4313 C 412.818 4.85535 -5.10328 0
M  V30 4314 H 408.917 0.762413 -0.173927 0
M  V30 4315 H 411.501 1.66666 -1.00651 0
M  V30 4316 H 409.672 3.87881 0.200757 0
M  V30 4317 H 411.404 4.04696 0.0190668 0
M  V30 4318 H 408.159 4.30033 -1.98415 0
M  V30 4319 H 408.583 5.06604 -4.49089 0
M  V30 4320 H 413.225 3.7842 -1.88568 0
M  V30 4321 H 410.943 5.35582 -6.05126 0
M  V30 4322 H 414.529 4.29528 -3.92425 0
M  V30 4323 H 413.409 5.07296 -5.98013 0
M  V30 4324 N 410.912 0.523116 1.48665 0
M  V30 4325 C 412.158 -0.0134963 2.02796 0
M  V30 4326 C 412.491 -1.34582 1.40004 0
M  V30 4327 O 411.766 -1.86756 0.543381 0
M  V30 4328 C 412.049 -0.14276 3.59817 0
M  V30 4329 C 411.902 1.21425 4.331 0
M  V30 4330 C 413.221 -0.872856 4.31357 0
M  V30 4331 H 410.34 -0.00343074 0.736992 0
M  V30 4332 H 412.982 0.678816 1.7746 0
M  V30 4333 H 411.132 -0.732401 3.81534 0
M  V30 4334 H 412.804 1.84447 4.2282 0
M  V30 4335 H 411.047 1.79791 3.94788 0
M  V30 4336 H 411.718 1.07687 5.41394 0
M  V30 4337 H 414.194 -0.372555 4.14429 0
M  V30 4338 H 413.07 -0.932185 5.40927 0
M  V30 4339 H 413.331 -1.92161 3.98154 0
M  V30 4340 N 412.39 -1.55475 0.257931 0
M  V30 4341 C 413.637 -1.99207 -0.363728 0
M  V30 4342 C 413.965 -1.1462 -1.57139 0
M  V30 4343 O 413.22 -0.199653 -1.94679 0
M  V30 4344 C 413.519 -3.48183 -0.806433 0
M  V30 4345 C 413.185 -4.49936 0.294684 0
M  V30 4346 C 411.847 -4.77481 0.597076 0
M  V30 4347 C 414.199 -5.10769 1.03751 0
M  V30 4348 C 411.527 -5.63132 1.64618 0
M  V30 4349 C 413.879 -5.97558 2.07622 0
M  V30 4350 C 412.543 -6.23432 2.38514 0
M  V30 4351 H 411.813 -0.728949 -0.133097 0
M  V30 4352 H 414.46 -1.8793 0.368059 0
M  V30 4353 H 412.765 -3.56848 -1.61761 0
M  V30 4354 H 414.462 -3.79415 -1.29789 0
M  V30 4355 H 411.052 -4.28572 0.0488649 0
M  V30 4356 H 415.236 -4.89527 0.817149 0
M  V30 4357 H 410.492 -5.8143 1.89074 0
M  V30 4358 H 414.666 -6.43735 2.65666 0
M  V30 4359 H 412.293 -6.89594 3.19943 0
M  V30 4360 N 413.868 0.0150385 -1.57593 0
M  V30 4361 C 414.831 0.995996 -2.06428 0
M  V30 4362 C 415.831 1.2818 -0.970903 0
M  V30 4363 O 417.021 1.22949 -1.23406 0
M  V30 4364 C 414.153 2.32506 -2.49307 0
M  V30 4365 H 415.346 0.573873 -2.94358 0
M  V30 4366 H 412.899 0.262186 -1.54085 0
M  V30 4367 H 413.634 2.79438 -1.64575 0
M  V30 4368 H 413.419 2.13087 -3.29145 0
M  V30 4369 H 414.909 3.02906 -2.87468 0
M  V30 4370 N 415.346 1.54954 0.287554 0
M  V30 4371 C 416.309 1.86076 1.33823 0
M  V30 4372 C 417.309 0.734414 1.43049 0
M  V30 4373 O 418.499 1.00266 1.42452 0
M  V30 4374 C 415.631 2.05305 2.72144 0
M  V30 4375 H 416.824 2.79984 1.07465 0
M  V30 4376 H 414.377 1.47223 0.524902 0
M  V30 4377 H 415.112 1.1373 3.03704 0
M  V30 4378 H 414.897 2.873 2.66836 0
M  V30 4379 H 416.387 2.30706 3.48087 0
M  V30 4380 N 416.824 -0.551391 1.4764 0
M  V30 4381 C 418.07 -1.31024 1.54792 0
M  V30 4382 C 418.403 -1.9304 0.211967 0
M  V30 4383 O 417.678 -1.78175 -0.77999 0
M  V30 4384 C 417.961 -2.41593 2.67029 0
M  V30 4385 C 417.814 -1.84408 4.10261 0
M  V30 4386 C 419.133 -3.43488 2.75143 0
M  V30 4387 H 416.252 -0.475031 0.563485 0
M  V30 4388 H 418.894 -0.616454 1.79722 0
M  V30 4389 H 417.044 -3.00772 2.45904 0
M  V30 4390 H 418.716 -1.29445 4.42766 0
M  V30 4391 H 416.959 -1.15051 4.18265 0
M  V30 4392 H 417.63 -2.64367 4.84576 0
M  V30 4393 H 420.106 -2.94236 2.94218 0
M  V30 4394 H 418.982 -4.18274 3.55441 0
M  V30 4395 H 419.243 -4.02703 1.82435 0
M  V30 4396 N 418.302 -1.35869 -0.798587 0
M  V30 4397 C 419.265 -1.29307 -1.89242 0
M  V30 4398 C 420.265 -0.202747 -1.59517 0
M  V30 4399 O 421.455 -0.456957 -1.681 0
M  V30 4400 C 418.587 -1.00229 -3.25833 0
M  V30 4401 H 419.78 -2.26576 -1.96478 0
M  V30 4402 H 417.333 -1.20509 -0.995358 0
M  V30 4403 H 418.068 -0.033801 -3.24282 0
M  V30 4404 H 417.853 -1.79121 -3.48795 0
M  V30 4405 H 419.343 -0.98219 -4.05885 0
M  V30 4406 N 419.78 1.02168 -1.19998 0
M  V30 4407 C 421.02 1.77232 -1.01825 0
M  V30 4408 C 421.384 1.86833 0.442428 0
M  V30 4409 O 422.585 2.58293 0.744189 0
M  V30 4410 C 420.856 3.15601 -1.67722 0
M  V30 4411 S 422.415 4.06765 -1.64584 0
M  V30 4412 H 419.233 0.610021 -0.365233 0
M  V30 4413 H 421.835 1.22368 -1.52467 0
M  V30 4414 H 420.539 3.06235 -2.73218 0
M  V30 4415 H 420.07 3.7554 -1.17189 0
M  V30 4416 H 422.085 4.91586 -0.67511 0
M  V30 4417 N 421.258 1.00505 1.21394 0
M  V30 4418 C 422.486 0.706609 1.9446 0
M  V30 4419 C 422.901 -0.73081 1.74082 0
M  V30 4420 O 422.258 -1.49446 1.04747 0
M  V30 4421 C 422.309 1.01824 3.46863 0
M  V30 4422 O 422.03 2.39919 3.66566 0
M  V30 4423 C 423.531 0.739216 4.37093 0
M  V30 4424 H 420.751 0.260394 0.618414 0
M  V30 4425 H 423.295 1.34311 1.54211 0
M  V30 4426 H 421.45 0.427343 3.85036 0
M  V30 4427 H 421.864 2.50784 4.6066 0
M  V30 4428 H 423.338 1.00744 5.42729 0
M  V30 4429 H 423.815 -0.326746 4.37983 0
M  V30 4430 H 424.421 1.31173 4.04566 0
M  V30 4431 N 422.737 -1.36956 0.779787 0
M  V30 4432 C 423.983 -1.99787 0.348281 0
M  V30 4433 C 424.316 -1.61756 -1.07465 0
M  V30 4434 O 423.591 -0.867639 -1.74075 0
M  V30 4435 C 423.874 -3.56597 0.50104 0
M  V30 4436 C 423.727 -4.04513 1.96697 0
M  V30 4437 C 425.046 -4.40008 -0.0898097 0
M  V30 4438 H 422.165 -0.725796 0.128022 0
M  V30 4439 H 424.807 -1.62514 0.984331 0
M  V30 4440 H 422.957 -3.88479 -0.0404347 0
M  V30 4441 H 424.629 -3.83161 2.56876 0
M  V30 4442 H 422.872 -3.56408 2.47297 0
M  V30 4443 H 423.543 -5.1352 2.02486 0
M  V30 4444 H 426.019 -4.14431 0.372293 0
M  V30 4445 H 424.895 -5.4888 0.0471605 0
M  V30 4446 H 425.156 -4.26035 -1.18096 0
M  V30 4447 N 424.215 -0.530993 -1.48385 0
M  V30 4448 C 425.145 0.219985 -2.32461 0
M  V30 4449 C 426.126 0.934111 -1.42156 0
M  V30 4450 O 427.311 0.919694 -1.71042 0
M  V30 4451 C 424.441 1.26674 -3.23375 0
M  V30 4452 C 423.395 0.67069 -4.22712 0
M  V30 4453 C 422.721 1.82017 -5.02766 0
M  V30 4454 C 424.021 -0.358268 -5.2107 0
M  V30 4455 H 425.715 -0.48187 -2.95497 0
M  V30 4456 H 423.261 -0.233182 -1.42099 0
M  V30 4457 H 425.214 1.80006 -3.81019 0
M  V30 4458 H 423.938 1.99818 -2.58341 0
M  V30 4459 H 422.597 0.158878 -3.66256 0
M  V30 4460 H 422.245 2.54002 -4.34157 0
M  V30 4461 H 421.945 1.42727 -5.70003 0
M  V30 4462 H 423.469 2.35725 -5.63264 0
M  V30 4463 H 424.883 0.0880081 -5.73232 0
M  V30 4464 H 423.28 -0.66861 -5.96364 0
M  V30 4465 H 424.35 -1.26367 -4.68145 0
M  V30 4466 N 425.693 1.55336 -0.266172 0
M  V30 4467 C 427.109 1.59356 0.0882065 0
M  V30 4468 C 427.309 1.2834 1.55342 0
M  V30 4469 O 426.365 1.03996 2.30089 0
M  V30 4470 C 427.678 2.99409 -0.278364 0
M  V30 4471 C 429.226 3.12196 -0.224243 0
M  V30 4472 C 429.701 4.545 -0.565123 0
M  V30 4473 N 431.192 4.60313 -0.51634 0
M  V30 4474 C 431.927 5.68434 -0.753013 0
M  V30 4475 N 431.423 6.84738 -1.05383 0
M  V30 4476 N 433.216 5.57942 -0.682414 0
M  V30 4477 H 425.367 1.73764 -1.22147 0
M  V30 4478 H 427.63 0.809822 -0.492841 0
M  V30 4479 H 427.336 3.2691 -1.29703 0
M  V30 4480 H 427.21 3.75228 0.385186 0
M  V30 4481 H 429.597 2.84464 0.78512 0
M  V30 4482 H 429.678 2.38609 -0.921922 0
M  V30 4483 H 429.322 4.82956 -1.57213 0
M  V30 4484 H 429.252 5.26374 0.154248 0
M  V30 4485 H 431.743 3.7676 -0.29335 0
M  V30 4486 H 432.056 7.63088 -1.22133 0
M  V30 4487 H 430.401 6.86375 -1.09151 0
M  V30 4488 H 433.592 4.65958 -0.44731 0
M  V30 4489 H 433.765 6.4213 -0.870248 0
M  V30 4490 N 427.171 -0.0066808 1.57599 0
M  V30 4491 C 428.411 -0.697501 1.92131 0
M  V30 4492 C 428.775 -1.71306 0.867071 0
M  V30 4493 O 429.976 -2.45377 1.09743 0
M  V30 4494 C 428.247 -1.32978 3.3174 0
M  V30 4495 S 429.806 -2.04665 3.88146 0
M  V30 4496 H 426.624 -0.230555 0.672581 0
M  V30 4497 H 429.226 0.0484026 1.9544 0
M  V30 4498 H 427.93 -0.57772 4.06313 0
M  V30 4499 H 427.461 -2.11376 3.31789 0
M  V30 4500 H 429.476 -3.32097 3.68682 0
M  V30 4501 N 428.649 -1.55105 -0.279332 0
M  V30 4502 C 429.579 -1.90557 -1.34945 0
M  V30 4503 C 430.56 -0.766738 -1.51839 0
M  V30 4504 O 431.745 -1.02434 -1.64988 0
M  V30 4505 C 428.875 -2.17193 -2.71006 0
M  V30 4506 C 427.829 -3.33021 -2.68851 0
M  V30 4507 C 427.155 -3.45123 -4.08405 0
M  V30 4508 C 428.455 -4.69578 -2.28678 0
M  V30 4509 H 430.149 -2.80188 -1.05522 0
M  V30 4510 H 427.695 -1.34811 -0.506173 0
M  V30 4511 H 429.648 -2.40581 -3.45975 0
M  V30 4512 H 428.372 -1.24355 -3.01999 0
M  V30 4513 H 427.031 -3.0959 -1.9634 0
M  V30 4514 H 426.679 -2.49762 -4.3661 0
M  V30 4515 H 426.379 -4.22995 -4.07859 0
M  V30 4516 H 427.903 -3.70796 -4.85121 0
M  V30 4517 H 429.317 -4.92553 -2.93368 0
M  V30 4518 H 427.714 -5.5032 -2.39306 0
M  V30 4519 H 428.784 -4.68828 -1.23807 0
M  V30 4520 N 430.127 0.543554 -1.4793 0
M  V30 4521 C 431.375 1.29752 -1.54948 0
M  V30 4522 C 431.696 1.93764 -0.219242 0
M  V30 4523 O 430.966 1.80639 0.75805 0
M  V30 4524 H 429.546 0.481874 -0.570795 0
M  V30 4525 H 432.208 0.633636 -1.84312 0
M  V30 4526 H 431.304 2.08392 -2.32334 0
M  V30 4527 N 431.605 1.3629 0.791371 0
M  V30 4528 C 432.854 1.29742 1.54434 0
M  V30 4529 C 433.167 -0.121729 1.95221 0
M  V30 4530 O 434.373 -0.309579 2.69729 0
M  V30 4531 C 432.829 2.27623 2.78776 0
M  V30 4532 C 432.437 3.74963 2.45166 0
M  V30 4533 C 434.181 2.30047 3.56761 0
M  V30 4534 C 432.088 4.64626 3.65891 0
M  V30 4535 H 431.018 0.482113 0.579727 0
M  V30 4536 H 433.669 1.61642 0.868565 0
M  V30 4537 H 432.051 1.88714 3.48142 0
M  V30 4538 H 433.225 4.22596 1.83709 0
M  V30 4539 H 431.54 3.75295 1.80396 0
M  V30 4540 H 434.137 2.94247 4.46456 0
M  V30 4541 H 434.48 1.30846 3.95203 0
M  V30 4542 H 435.013 2.67563 2.94372 0
M  V30 4543 H 431.752 5.64883 3.32547 0
M  V30 4544 H 431.272 4.2171 4.26521 0
M  V30 4545 H 432.951 4.80801 4.32943 0
M  V30 4546 N 433.083 -1.0153 1.20538 0
M  V30 4547 C 434.494 -1.56598 1.01657 0
M  V30 4548 C 434.845 -1.91505 -0.426668 0
M  V30 4549 O 433.97 -1.72375 -1.30827 0
M  V30 4550 C 434.565 -2.84542 1.83905 0
M  V30 4551 C 433.124 -3.36133 1.69386 0
M  V30 4552 C 432.271 -2.09427 1.81757 0
M  V30 4553 H 435.222 -0.838974 1.34711 0
M  V30 4554 H 435.243 -3.56004 1.34319 0
M  V30 4555 H 434.755 -2.59105 2.8894 0
M  V30 4556 H 432.856 -3.66528 0.669933 0
M  V30 4557 H 432.969 -4.08248 2.50739 0
M  V30 4558 H 431.333 -2.21941 1.24957 0
M  V30 4559 H 432.116 -1.86414 2.88279 0
M  V30 4560 N 434.561 -1.01147 -1.20859 0
M  V30 4561 C 435.789 -0.716911 -1.94082 0
M  V30 4562 C 436.204 0.721568 -1.74467 0
M  V30 4563 O 435.561 1.48889 -1.05539 0
M  V30 4564 C 435.612 -1.03662 -3.46318 0
M  V30 4565 O 435.333 -2.4186 -3.65288 0
M  V30 4566 C 436.834 -0.762386 -4.36695 0
M  V30 4567 H 434.054 -0.26367 -0.617024 0
M  V30 4568 H 436.598 -1.35127 -1.53496 0
M  V30 4569 H 434.753 -0.447757 -3.84804 0
M  V30 4570 H 435.167 -2.53224 -4.59323 0
M  V30 4571 H 436.641 -1.03621 -5.42187 0
M  V30 4572 H 437.118 0.303514 -4.3815 0
M  V30 4573 H 437.724 -1.33316 -4.03865 0
M  V30 4574 N 436.039 1.36541 -0.78704 0
M  V30 4575 C 437.455 1.52571 -0.46844 0
M  V30 4576 C 437.655 1.7415 1.01361 0
M  V30 4577 O 436.711 1.77163 1.79915 0
M  V30 4578 C 438.024 2.71299 -1.29682 0
M  V30 4579 C 439.572 2.85169 -1.29027 0
M  V30 4580 C 440.047 4.06898 -2.10233 0
M  V30 4581 N 441.538 4.1404 -2.07666 0
M  V30 4582 C 442.273 5.07301 -2.67271 0
M  V30 4583 N 441.769 6.06021 -3.35724 0
M  V30 4584 N 443.562 4.99898 -2.57018 0
M  V30 4585 H 435.713 1.20788 -1.74711 0
M  V30 4586 H 437.976 0.589364 -0.742532 0
M  V30 4587 H 437.682 2.61868 -2.34773 0
M  V30 4588 H 437.556 3.6539 -0.936479 0
M  V30 4589 H 439.943 2.94062 -0.247284 0
M  V30 4590 H 440.024 1.91992 -1.69035 0
M  V30 4591 H 439.668 3.98766 -3.1456 0
M  V30 4592 H 439.598 4.99218 -1.67597 0
M  V30 4593 H 442.089 3.43357 -1.57843 0
M  V30 4594 H 442.402 6.73741 -3.78541 0
M  V30 4595 H 440.747 6.06253 -3.39826 0
M  V30 4596 H 443.938 4.21724 -2.03142 0
M  V30 4597 H 444.111 5.72392 -3.03761 0
M  V30 4598 N 437.518 0.538854 1.48102 0
M  V30 4599 C 438.764 0.00801365 2.02798 0
M  V30 4600 C 439.097 -1.3309 1.41424 0
M  V30 4601 O 438.372 -1.86169 0.563158 0
M  V30 4602 C 438.655 -0.104589 3.59948 0
M  V30 4603 C 438.508 1.26012 4.31788 0
M  V30 4604 C 439.827 -0.827055 4.32259 0
M  V30 4605 H 436.946 0.00438624 0.736987 0
M  V30 4606 H 439.588 0.6976 1.7673 0
M  V30 4607 H 437.738 -0.691893 3.82289 0
M  V30 4608 H 439.41 1.88922 4.2084 0
M  V30 4609 H 437.653 1.83968 3.92859 0
M  V30 4610 H 438.324 1.13424 5.40221 0
M  V30 4611 H 440.8 -0.328578 4.14801 0
M  V30 4612 H 439.676 -0.87476 5.41885 0
M  V30 4613 H 439.937 -1.87927 4.0017 0
M  V30 4614 N 438.996 -1.55193 0.274407 0
M  V30 4615 C 440.242 -1.99877 -0.343086 0
M  V30 4616 C 440.575 -1.16256 -1.55558 0
M  V30 4617 O 439.85 -0.232462 -1.93106 0
M  V30 4618 C 440.133 -3.52706 -0.725965 0
M  V30 4619 C 439.986 -4.47081 0.493818 0
M  V30 4620 C 441.305 -4.11422 -1.56268 0
M  V30 4621 H 438.424 -0.726625 -0.123229 0
M  V30 4622 H 441.066 -1.86136 0.38121 0
M  V30 4623 H 439.216 -3.64546 -1.34307 0
M  V30 4624 H 440.888 -4.47186 1.13237 0
M  V30 4625 H 439.131 -4.1877 1.13201 0
M  V30 4626 H 439.802 -5.51699 0.18217 0
M  V30 4627 H 442.278 -4.02855 -1.04151 0
M  V30 4628 H 441.154 -5.18568 -1.79939 0
M  V30 4629 H 441.415 -3.61607 -2.54348 0
M  V30 4630 N 440.474 -0.00167713 -1.576 0
M  V30 4631 C 441.702 0.693759 -1.94922 0
M  V30 4632 C 442.117 1.67215 -0.876626 0
M  V30 4633 O 441.474 1.81929 0.144279 0
M  V30 4634 C 441.525 1.42416 -3.32265 0
M  V30 4635 O 441.246 0.485014 -4.35407 0
M  V30 4636 C 442.747 2.21395 -3.84056 0
M  V30 4637 H 439.967 0.193118 -0.642609 0
M  V30 4638 H 442.511 -0.0532952 -2.04431 0
M  V30 4639 H 440.666 2.12284 -3.24059 0
M  V30 4640 H 441.08 1.00053 -5.14868 0
M  V30 4641 H 442.554 2.67996 -4.82578 0
M  V30 4642 H 443.031 3.04142 -3.16851 0
M  V30 4643 H 443.637 1.56542 -3.95443 0
M  V30 4644 N 441.952 1.55251 0.271103 0
M  V30 4645 C 442.9 1.89054 1.35504 0
M  V30 4646 C 443.894 0.767064 1.51038 0
M  V30 4647 O 445.1 0.951429 1.528 0
M  V30 4648 H 441.475 0.600072 0.45323 0
M  V30 4649 H 443.446 2.79598 1.04247 0
M  V30 4650 C 442.195 2.18068 2.70817 0
M  V30 4651 H 441.518 3.04005 2.59656 0
M  V30 4652 H 442.958 2.4564 3.45597 0
M  V30 4653 C 441.417 0.988901 3.2206 0
M  V30 4654 O 441.947 0.224501 4.01072 0
M  V30 4655 N 440.153 0.786085 2.79766 0
M  V30 4656 H 439.7 1.40937 2.15626 0
M  V30 4657 H 439.658 -0.00969349 3.14399 0
M  V30 4658 N 443.43 -0.535701 1.48216 0
M  V30 4659 C 444.66 -1.3148 1.59363 0
M  V30 4660 C 445.068 -1.8753 0.250844 0
M  V30 4661 O 444.411 -1.66821 -0.769174 0
M  V30 4662 C 444.473 -2.50731 2.57632 0
M  V30 4663 C 444.137 -2.15811 4.02833 0
M  V30 4664 C 445.134 -1.71822 4.90686 0
M  V30 4665 C 442.819 -2.26509 4.48329 0
M  V30 4666 C 444.813 -1.3899 6.22062 0
M  V30 4667 C 442.5 -1.93289 5.79726 0
M  V30 4668 C 443.498 -1.49599 6.66415 0
M  V30 4669 O 443.186 -1.16812 7.95368 0
M  V30 4670 H 442.918 -0.406315 0.540263 0
M  V30 4671 H 445.472 -0.653569 1.94725 0
M  V30 4672 H 443.702 -3.19817 2.1738 0
M  V30 4673 H 445.391 -3.12797 2.58675 0
M  V30 4674 H 446.157 -1.63031 4.56778 0
M  V30 4675 H 442.036 -2.59471 3.81045 0
M  V30 4676 H 445.58 -1.04816 6.89681 0
M  V30 4677 H 441.477 -2.01718 6.13172 0
M  V30 4678 H 442.245 -1.30259 8.08069 0
M  V30 4679 N 444.908 -1.36708 -0.784132 0
M  V30 4680 C 445.856 -1.31533 -1.91838 0
M  V30 4681 C 446.85 -0.206205 -1.6814 0
M  V30 4682 O 448.056 -0.373519 -1.76082 0
M  V30 4683 H 444.431 -0.409613 -0.630651 0
M  V30 4684 H 446.402 -2.2731 -1.9332 0
M  V30 4685 C 445.151 -1.12679 -3.28936 0
M  V30 4686 H 444.474 -1.97274 -3.4774 0
M  V30 4687 H 445.914 -1.13106 -4.08636 0
M  V30 4688 C 444.373 0.168281 -3.36479 0
M  V30 4689 O 444.903 1.15625 -3.84699 0
M  V30 4690 N 443.109 0.214762 -2.89805 0
M  V30 4691 H 442.656 -0.589852 -2.50756 0
M  V30 4692 H 442.614 1.08094 -2.95234 0
M  V30 4693 N 446.386 1.0089 -1.21074 0
M  V30 4694 C 447.611 1.78727 -1.05221 0
M  V30 4695 C 448.036 1.83932 0.393795 0
M  V30 4696 O 447.394 1.28004 1.28393 0
M  V30 4697 C 447.442 3.20665 -1.64944 0
M  V30 4698 O 446.546 4.02632 -0.892273 0
M  V30 4699 H 445.887 0.550973 -0.370574 0
M  V30 4700 H 448.417 1.26847 -1.60534 0
M  V30 4701 H 448.427 3.71352 -1.69002 0
M  V30 4702 H 447.102 3.16191 -2.70177 0
M  V30 4703 H 445.679 3.61207 -0.926492 0
M  V30 4704 N 447.864 1.01787 1.20321 0
M  V30 4705 C 448.827 0.593972 2.2137 0
M  V30 4706 C 449.827 -0.336553 1.57239 0
M  V30 4707 O 451.017 -0.125069 1.7375 0
M  V30 4708 C 448.149 -0.132433 3.40643 0
M  V30 4709 H 449.342 1.48791 2.60387 0
M  V30 4710 H 446.895 0.807803 1.33807 0
M  V30 4711 H 447.63 -1.04123 3.0713 0
M  V30 4712 H 447.415 0.53605 3.88418 0
M  V30 4713 H 448.905 -0.416314 4.1552 0
M  V30 4714 N 449.342 -1.36122 0.79427 0
M  V30 4715 C 450.292 -2.27373 0.169017 0
M  V30 4716 C 451.276 -1.4719 -0.649913 0
M  V30 4717 O 452.468 -1.69518 -0.50919 0
M  V30 4718 C 449.597 -3.36264 -0.691455 0
M  V30 4719 C 448.683 -4.2388 0.13653 0
M  V30 4720 N 449.074 -4.91519 1.19345 0
M  V30 4721 C 447.372 -4.45921 -0.0838499 0
M  V30 4722 C 448.073 -5.56369 1.6979 0
M  V30 4723 N 447.049 -5.34204 1.00634 0
M  V30 4724 H 450.851 -2.77154 0.977897 0
M  V30 4725 H 448.365 -1.49504 0.634208 0
M  V30 4726 H 450.362 -4.00572 -1.15534 0
M  V30 4727 H 449.022 -2.88037 -1.49883 0
M  V30 4728 H 450.033 -4.9334 1.57594 0
M  V30 4729 H 446.71 -4.08518 -0.861341 0
M  V30 4730 H 448.1 -6.20368 2.58055 0
M  V30 4731 N 450.82 -0.546701 -1.47814 0
M  V30 4732 C 452.097 0.0464413 -1.95545 0
M  V30 4733 C 452.477 1.4962 -1.48919 0
M  V30 4734 O 451.825 2.16752 -0.723232 0
M  V30 4735 C 452.035 -0.0881298 -3.48889 0
M  V30 4736 C 453.383 0.0626059 -4.24554 0
M  V30 4737 O 454.407 -0.0151555 -3.56197 0
M  V30 4738 O 453.266 0.228071 -5.46024 0
M  V30 4739 H 450.36 0.0700004 -0.824032 0
M  V30 4740 H 452.906 -0.612482 -1.58262 0
M  V30 4741 H 451.678 -1.09737 -3.75597 0
M  V30 4742 H 451.301 0.608886 -3.9291 0
M  V30 4743 N 452.299 1.55045 -0.282633 0
M  V30 4744 C 453.231 2.2023 0.634924 0
M  V30 4745 C 454.244 1.18931 1.11172 0
M  V30 4746 O 455.433 1.4562 1.03233 0
M  V30 4747 C 452.533 2.82041 1.87899 0
M  V30 4748 C 451.706 4.091 1.54776 0
M  V30 4749 C 450.765 4.54887 2.64507 0
M  V30 4750 O 449.791 5.20496 2.30375 0
M  V30 4751 N 450.993 4.25659 3.94709 0
M  V30 4752 H 453.758 2.99601 0.0769811 0
M  V30 4753 H 451.319 1.61565 -0.104048 0
M  V30 4754 H 453.311 3.09613 2.60619 0
M  V30 4755 H 451.881 2.06618 2.3458 0
M  V30 4756 H 451.101 3.88736 0.654049 0
M  V30 4757 H 452.389 4.9187 1.30158 0
M  V30 4758 H 451.787 3.7306 4.25256 0
M  V30 4759 H 450.344 4.57984 4.63782 0
M  V30 4760 N 453.777 0.010035 1.57597 0
M  V30 4761 C 454.725 -0.996272 2.10184 0
M  V30 4762 C 455.719 -1.34942 1.02406 0
M  V30 4763 O 456.925 -1.33389 1.20861 0
M  V30 4764 H 453.3 -0.338982 0.671264 0
M  V30 4765 H 455.271 -0.527272 2.93705 0
M  V30 4766 C 454.02 -2.27599 2.62857 0
M  V30 4767 H 453.343 -2.01295 3.45428 0
M  V30 4768 H 454.783 -2.96265 3.0332 0
M  V30 4769 C 453.242 -2.99269 1.54725 0
M  V30 4770 O 453.772 -3.90644 0.93597 0
M  V30 4771 N 451.978 -2.61269 1.27228 0
M  V30 4772 H 451.525 -1.87043 1.77123 0
M  V30 4773 H 451.483 -3.09534 0.550999 0
M  V30 4774 N 455.255 -1.55392 -0.262866 0
M  V30 4775 C 456.48 -1.80847 -1.01533 0
M  V30 4776 C 456.905 -0.584946 -1.78774 0
M  V30 4777 O 456.263 0.465701 -1.75217 0
M  V30 4778 C 456.311 -3.03866 -1.94159 0
M  V30 4779 O 455.415 -2.79662 -3.03089 0
M  V30 4780 H 454.756 -0.597441 -0.289759 0
M  V30 4781 H 457.286 -2.02553 -0.288698 0
M  V30 4782 H 457.296 -3.32872 -2.35924 0
M  V30 4783 H 455.971 -3.92564 -1.37354 0
M  V30 4784 H 454.548 -2.61781 -2.65566 0
M  V30 4785 N 456.733 0.527833 -1.48498 0
M  V30 4786 C 457.681 1.65313 -1.63628 0
M  V30 4787 C 458.675 1.6177 -0.502676 0
M  V30 4788 O 459.881 1.66601 -0.681469 0
M  V30 4789 H 456.256 0.547518 -0.515488 0
M  V30 4790 H 458.227 1.49696 -2.58135 0
M  V30 4791 C 456.976 3.03576 -1.6952 0
M  V30 4792 H 456.299 3.06997 -2.56111 0
M  V30 4793 H 457.739 3.81923 -1.84149 0
M  V30 4794 C 456.198 3.34089 -0.43432 0
M  V30 4795 O 456.728 3.99151 0.451852 0
M  V30 4796 N 454.934 2.88991 -0.305368 0
M  V30 4797 H 454.481 2.36222 -1.02747 0
M  V30 4798 H 454.439 3.09776 0.537249 0
M  V30 4799 N 458.211 1.37122 0.776871 0
M  V30 4800 C 459.141 1.35164 1.90402 0
M  V30 4801 C 460.122 0.221069 1.68657 0
M  V30 4802 O 461.307 0.420642 1.8959 0
M  V30 4803 C 458.437 1.15274 3.27611 0
M  V30 4804 C 457.391 2.25289 3.63908 0
M  V30 4805 C 456.717 1.90527 4.99603 0
M  V30 4806 C 458.017 3.67446 3.71188 0
M  V30 4807 H 459.711 2.29482 1.92297 0
M  V30 4808 H 457.257 1.10465 0.923773 0
M  V30 4809 H 459.21 1.12536 4.06096 0
M  V30 4810 H 457.934 0.174102 3.26136 0
M  V30 4811 H 456.593 2.27174 2.87728 0
M  V30 4812 H 456.241 0.91206 4.94662 0
M  V30 4813 H 455.941 2.64193 5.24858 0
M  V30 4814 H 457.465 1.89367 5.80493 0
M  V30 4815 H 458.879 3.67719 4.39836 0
M  V30 4816 H 457.276 4.40123 4.07936 0
M  V30 4817 H 458.346 4.01443 2.71977 0
M  V30 4818 N 459.689 -1.00246 1.21608 0
M  V30 4819 C 460.619 -2.10921 1.00172 0
M  V30 4820 C 461.6 -1.69938 -0.0741587 0
M  V30 4821 O 462.785 -1.94009 0.0861753 0
M  V30 4822 C 459.915 -3.42618 0.568355 0
M  V30 4823 C 458.869 -3.97407 1.58909 0
M  V30 4824 C 458.195 -5.25038 1.01187 0
M  V30 4825 C 459.495 -4.2918 2.97661 0
M  V30 4826 H 461.189 -2.29112 1.92739 0
M  V30 4827 H 458.735 -1.10101 0.928102 0
M  V30 4828 H 460.688 -4.19444 0.405555 0
M  V30 4829 H 459.412 -3.24227 -0.392961 0
M  V30 4830 H 458.071 -3.22703 1.73949 0
M  V30 4831 H 457.719 -5.02982 0.0421965 0
M  V30 4832 H 457.419 -5.62661 1.6937 0
M  V30 4833 H 458.943 -6.04507 0.860448 0
M  V30 4834 H 460.357 -4.96839 2.86049 0
M  V30 4835 H 458.754 -4.77952 3.6288 0
M  V30 4836 H 459.824 -3.3735 3.48315 0
M  V30 4837 N 461.167 -1.02423 -1.1978 0
M  V30 4838 C 462.416 -0.713265 -1.88667 0
M  V30 4839 C 462.729 0.7609 -1.80193 0
M  V30 4840 O 463.935 1.18473 -2.44288 0
M  V30 4841 C 462.391 -1.22545 -3.38394 0
M  V30 4842 C 461.999 -2.72706 -3.55437 0
M  V30 4843 C 463.743 -0.990257 -4.12788 0
M  V30 4844 C 461.65 -3.17367 -4.99031 0
M  V30 4845 H 460.58 -0.263105 -0.706606 0
M  V30 4846 H 463.231 -1.23792 -1.35454 0
M  V30 4847 H 461.613 -0.628732 -3.90977 0
M  V30 4848 H 462.787 -3.37993 -3.13205 0
M  V30 4849 H 461.102 -2.94453 -2.94425 0
M  V30 4850 H 463.699 -1.29926 -5.18675 0
M  V30 4851 H 464.042 0.0730761 -4.16236 0
M  V30 4852 H 464.575 -1.55074 -3.66329 0
M  V30 4853 H 461.314 -4.23009 -5.00743 0
M  V30 4854 H 460.834 -2.56805 -5.42044 0
M  V30 4855 H 462.513 -3.10441 -5.67658 0
M  V30 4856 N 462.645 1.35699 -0.801477 0
M  V30 4857 C 463.555 2.33661 -0.209691 0
M  V30 4858 C 464.571 1.6162 0.644591 0
M  V30 4859 O 465.747 1.93529 0.557545 0
M  V30 4860 C 462.812 3.40816 0.636033 0
M  V30 4861 C 461.873 4.28639 -0.238147 0
M  V30 4862 C 461.106 5.30676 0.567307 0
M  V30 4863 O 461.329 5.41174 1.8024 0
M  V30 4864 O 460.263 6.01887 -0.0391336 0
M  V30 4865 H 464.089 2.8606 -1.01996 0
M  V30 4866 H 461.674 1.38379 -0.563164 0
M  V30 4867 H 463.556 4.06301 1.11791 0
M  V30 4868 H 462.231 2.90696 1.42399 0
M  V30 4869 H 461.138 3.66152 -0.767044 0
M  V30 4870 H 462.471 4.82143 -0.989915 0
M  V30 4871 N 464.123 0.554532 1.47522 0
M  V30 4872 C 465.353 0.0342074 2.06572 0
M  V30 4873 C 465.761 -1.26375 1.40805 0
M  V30 4874 O 465.104 -1.7683 0.49769 0
M  V30 4875 C 465.166 -0.235096 3.5873 0
M  V30 4876 C 464.83 0.973024 4.46521 0
M  V30 4877 C 465.827 1.8779 4.848 0
M  V30 4878 C 463.512 1.18694 4.88075 0
M  V30 4879 C 465.506 2.98039 5.63428 0
M  V30 4880 C 463.193 2.29254 5.66468 0
M  V30 4881 C 464.191 3.18757 6.04055 0
M  V30 4882 O 463.879 4.27401 6.8087 0
M  V30 4883 H 463.611 0.041587 0.67472 0
M  V30 4884 H 466.165 0.766748 1.90552 0
M  V30 4885 H 464.395 -1.02191 3.72953 0
M  V30 4886 H 466.084 -0.700477 3.9981 0
M  V30 4887 H 466.85 1.72467 4.53299 0
M  V30 4888 H 462.729 0.49947 4.58286 0
M  V30 4889 H 466.273 3.67926 5.92685 0
M  V30 4890 H 462.17 2.4455 5.97382 0
M  V30 4891 H 462.938 4.25415 6.9926 0
M  V30 4892 N 465.601 -1.54893 0.290851 0
M  V30 4893 C 466.848 -1.99933 -0.321391 0
M  V30 4894 C 467.176 -1.17927 -1.54672 0
M  V30 4895 O 466.431 -0.240902 -1.94212 0
M  V30 4896 C 466.73 -3.49815 -0.732397 0
M  V30 4897 C 466.396 -4.4921 0.390056 0
M  V30 4898 C 465.058 -4.76107 0.698223 0
M  V30 4899 C 467.41 -5.08453 1.14562 0
M  V30 4900 C 464.738 -5.59514 1.76526 0
M  V30 4901 C 467.09 -5.9302 2.2025 0
M  V30 4902 C 465.754 -6.18232 2.51684 0
M  V30 4903 H 465.024 -0.731608 -0.117605 0
M  V30 4904 H 467.671 -1.87107 0.407839 0
M  V30 4905 H 465.976 -3.60199 -1.54155 0
M  V30 4906 H 467.673 -3.82083 -1.21712 0
M  V30 4907 H 464.263 -4.28372 0.13976 0
M  V30 4908 H 468.447 -4.87683 0.920801 0
M  V30 4909 H 463.703 -5.77289 2.01364 0
M  V30 4910 H 467.877 -6.37955 2.7926 0
M  V30 4911 H 465.504 -6.82653 3.34499 0
M  V30 4912 N 467.08 -0.0183926 -1.57589 0
M  V30 4913 C 468.496 0.337897 -1.55982 0
M  V30 4914 C 468.696 1.73604 -1.02294 0
M  V30 4915 O 467.752 2.43589 -0.664895 0
M  V30 4916 C 469.065 0.196305 -3.00059 0
M  V30 4917 C 470.613 0.269875 -3.11834 0
M  V30 4918 C 471.088 0.157197 -4.5773 0
M  V30 4919 N 472.579 0.214521 -4.62703 0
M  V30 4920 C 473.314 0.150955 -5.73201 0
M  V30 4921 N 472.81 0.0369212 -6.9279 0
M  V30 4922 N 474.603 0.204162 -5.61729 0
M  V30 4923 H 466.754 -0.93279 -1.90821 0
M  V30 4924 H 469.017 -0.359253 -0.877292 0
M  V30 4925 H 468.723 -0.766383 -3.43248 0
M  V30 4926 H 468.597 0.970908 -3.6449 0
M  V30 4927 H 470.984 1.22302 -2.68563 0
M  V30 4928 H 471.065 -0.534918 -2.50144 0
M  V30 4929 H 470.709 -0.792479 -5.01679 0
M  V30 4930 H 470.639 0.980717 -5.17387 0
M  V30 4931 H 473.13 0.303238 -3.76681 0
M  V30 4932 H 473.443 -0.00518321 -7.728 0
M  V30 4933 H 471.788 0.0022886 -6.95 0
M  V30 4934 H 474.979 0.291575 -4.67191 0
M  V30 4935 H 475.152 0.15116 -6.47824 0
M  V30 4936 N 468.558 1.5553 0.254621 0
M  V30 4937 C 469.506 1.9048 1.33492 0
M  V30 4938 C 470.5 0.78304 1.50216 0
M  V30 4939 O 471.706 0.967582 1.51782 0
M  V30 4940 H 468.081 0.604846 0.44684 0
M  V30 4941 H 470.052 2.80688 1.01275 0
M  V30 4942 C 468.801 2.20928 2.68489 0
M  V30 4943 H 468.124 3.06742 2.56417 0
M  V30 4944 H 469.564 2.49291 3.42972 0
M  V30 4945 C 468.023 1.023 3.20993 0
M  V30 4946 O 468.553 0.267027 4.00811 0
M  V30 4947 N 466.759 0.815714 2.78917 0
M  V30 4948 H 466.306 1.43217 2.14119 0
M  V30 4949 H 466.264 0.0236532 3.14391 0
M  V30 4950 N 470.036 -0.519951 1.48776 0
M  V30 4951 C 470.946 -1.65025 1.66745 0
M  V30 4952 C 471.962 -1.6508 0.549954 0
M  V30 4953 O 473.138 -1.83848 0.822295 0
M  V30 4954 C 470.203 -3.0146 1.71238 0
M  V30 4955 C 469.264 -3.12182 2.94688 0
M  V30 4956 C 468.497 -4.42109 2.98958 0
M  V30 4957 O 468.72 -5.29799 2.1135 0
M  V30 4958 O 467.654 -4.57406 3.91233 0
M  V30 4959 H 471.48 -1.52801 2.62461 0
M  V30 4960 H 469.065 -0.694157 1.32294 0
M  V30 4961 H 470.947 -3.82584 1.76657 0
M  V30 4962 H 469.622 -3.13988 0.786975 0
M  V30 4963 H 468.529 -2.30316 2.94797 0
M  V30 4964 H 469.862 -3.04574 3.86646 0
M  V30 4965 N 471.514 -1.37532 -0.769588 0
M  V30 4966 C 472.761 -1.3286 -1.52822 0
M  V30 4967 C 473.089 0.0862597 -1.94309 0
M  V30 4968 O 472.344 1.05995 -1.6451 0
M  V30 4969 C 472.643 -2.21558 -2.8044 0
M  V30 4970 C 472.309 -3.69796 -2.57996 0
M  V30 4971 C 470.971 -4.10194 -2.51583 0
M  V30 4972 C 473.323 -4.63699 -2.37976 0
M  V30 4973 C 470.651 -5.42608 -2.23144 0
M  V30 4974 C 473.003 -5.96353 -2.1106 0
M  V30 4975 C 471.667 -6.35853 -2.03093 0
M  V30 4976 H 470.937 -0.486168 -0.559215 0
M  V30 4977 H 473.584 -1.69757 -0.886277 0
M  V30 4978 H 471.889 -1.77663 -3.49204 0
M  V30 4979 H 473.586 -2.15256 -3.38328 0
M  V30 4980 H 470.176 -3.37759 -2.63851 0
M  V30 4981 H 474.36 -4.33346 -2.41919 0
M  V30 4982 H 469.616 -5.72173 -2.15472 0
M  V30 4983 H 473.79 -6.68667 -1.94568 0
M  V30 4984 H 471.417 -7.38382 -1.8082 0
M  V30 4985 N 472.992 0.995999 -1.22138 0
M  V30 4986 C 474.24 1.73167 -1.042 0
M  V30 4987 C 474.561 1.90329 0.42423 0
M  V30 4988 O 473.831 1.4607 1.30539 0
M  V30 4989 H 472.411 0.641593 -0.38258 0
M  V30 4990 H 475.073 1.19974 -1.53598 0
M  V30 4991 H 474.169 2.72734 -1.51731 0
M  V30 4992 N 474.47 1.03057 1.19235 0
M  V30 4993 C 475.38 0.622922 2.26179 0
M  V30 4994 C 476.396 -0.346113 1.70523 0
M  V30 4995 O 477.572 -0.203572 2.00369 0
M  V30 4996 C 474.637 -0.0182063 3.46695 0
M  V30 4997 C 473.698 0.998546 4.17526 0
M  V30 4998 C 472.931 0.387917 5.32288 0
M  V30 4999 O 473.154 -0.808668 5.64639 0
M  V30 5000 O 472.088 1.1116 5.91546 0
M  V30 5001 H 475.914 1.51363 2.63292 0
M  V30 5002 H 473.499 0.800856 1.26122 0
M  V30 5003 H 475.381 -0.375606 4.19723 0
M  V30 5004 H 474.056 -0.882895 3.11427 0
M  V30 5005 H 472.963 1.40756 3.4661 0
M  V30 5006 H 474.296 1.83366 4.56769 0
M  V30 5007 N 475.948 -1.35272 0.808662 0
M  V30 5008 C 477.197 -1.97963 0.386483 0
M  V30 5009 C 477.51 -1.64866 -1.05255 0
M  V30 5010 O 478.716 -2.20937 -1.57794 0
M  V30 5011 C 477.172 -3.54162 0.640096 0
M  V30 5012 C 476.78 -3.96166 2.0918 0
M  V30 5013 C 478.524 -4.23553 0.283376 0
M  V30 5014 C 476.431 -5.4522 2.29106 0
M  V30 5015 H 475.361 -0.740742 0.140774 0
M  V30 5016 H 478.012 -1.5431 0.993012 0
M  V30 5017 H 476.394 -3.95983 -0.0364117 0
M  V30 5018 H 477.568 -3.65491 2.80629 0
M  V30 5019 H 475.883 -3.3967 2.40859 0
M  V30 5020 H 478.48 -5.33124 0.410273 0
M  V30 5021 H 478.823 -4.09105 -0.770659 0
M  V30 5022 H 479.356 -3.8716 0.913884 0
M  V30 5023 H 476.095 -5.64638 3.32962 0
M  V30 5024 H 475.615 -5.77457 1.62184 0
M  V30 5025 H 477.294 -6.1171 2.1076 0
M  V30 5026 N 477.426 -0.562348 -1.47226 0
M  V30 5027 C 478.358 0.220011 -2.28142 0
M  V30 5028 C 479.371 0.874596 -1.37312 0
M  V30 5029 O 480.56 0.747583 -1.62091 0
M  V30 5030 C 477.66 1.32953 -3.11732 0
M  V30 5031 C 476.833 0.770759 -4.30556 0
M  V30 5032 C 475.892 1.76541 -4.95701 0
M  V30 5033 O 474.918 1.3095 -5.53932 0
M  V30 5034 N 476.12 3.09896 -4.90861 0
M  V30 5035 H 478.885 -0.474107 -2.95926 0
M  V30 5036 H 476.446 -0.398761 -1.56912 0
M  V30 5037 H 478.438 1.99378 -3.5218 0
M  V30 5038 H 477.008 1.92681 -2.46156 0
M  V30 5039 H 476.228 -0.0704056 -3.94137 0
M  V30 5040 H 477.516 0.376872 -5.07402 0
M  V30 5041 H 476.914 3.49577 -4.44761 0
M  V30 5042 H 475.471 3.71865 -5.35313 0
M  V30 5043 N 478.904 1.54736 -0.299062 0
M  V30 5044 C 480.152 1.99706 0.31017 0
M  V30 5045 C 480.473 1.18896 1.54559 0
M  V30 5046 O 479.743 0.284445 1.93824 0
M  V30 5047 H 478.323 0.737686 0.117596 0
M  V30 5048 H 480.985 1.9054 -0.409943 0
M  V30 5049 H 480.081 3.06596 0.58355 0
M  V30 5050 N 480.382 0.0267497 1.57577 0
M  V30 5051 C 481.659 -0.690926 1.82991 0
M  V30 5052 C 482.039 -1.90471 0.910164 0
M  V30 5053 O 481.387 -2.28474 -0.0347985 0
M  V30 5054 C 481.597 -1.07139 3.32148 0
M  V30 5055 C 482.945 -1.46402 3.98562 0
M  V30 5056 O 483.969 -1.16443 3.36629 0
M  V30 5057 O 482.828 -2.02214 5.07712 0
M  V30 5058 H 479.922 -0.338747 0.75444 0
M  V30 5059 H 482.468 0.0542506 1.69613 0
M  V30 5060 H 481.24 -0.207394 3.9075 0
M  V30 5061 H 480.863 -1.87481 3.50623 0
M  V30 5062 N 481.861 -1.55662 -0.24637 0
M  V30 5063 C 482.808 -1.90361 -1.30504 0
M  V30 5064 C 483.778 -0.757905 -1.47801 0
M  V30 5065 O 484.963 -1.01161 -1.61775 0
M  V30 5066 C 482.103 -2.2042 -2.65535 0
M  V30 5067 C 481.216 -3.47799 -2.56242 0
M  V30 5068 C 480.351 -3.67426 -3.8363 0
M  V30 5069 C 479.39 -4.88403 -3.68956 0
M  V30 5070 N 478.527 -5.04548 -4.88237 0
M  V30 5071 H 483.367 -2.80645 -1.00213 0
M  V30 5072 H 480.904 -1.38924 -0.483577 0
M  V30 5073 H 482.862 -2.35853 -3.44135 0
M  V30 5074 H 481.492 -1.3334 -2.93973 0
M  V30 5075 H 480.544 -3.40694 -1.69208 0
M  V30 5076 H 481.856 -4.36544 -2.4131 0
M  V30 5077 H 481.01 -3.82821 -4.70673 0
M  V30 5078 H 479.749 -2.76914 -4.01459 0
M  V30 5079 H 478.754 -4.72984 -2.80296 0
M  V30 5080 H 479.979 -5.80375 -3.52621 0
M  V30 5081 H 477.925 -4.16974 -5.06427 0
M  V30 5082 H 477.842 -5.87384 -4.75937 0
M  V30 5083 H 479.11 -5.24355 -5.76777 0
M  V30 5084 N 483.339 0.512053 -1.4905 0
M  V30 5085 C 484.564 1.2959 -1.6193 0
M  V30 5086 C 484.989 1.85906 -0.286454 0
M  V30 5087 O 484.347 1.65312 0.744426 0
M  V30 5088 C 484.395 2.40987 -2.68249 0
M  V30 5089 O 483.499 3.44531 -2.26654 0
M  V30 5090 H 482.84 0.383053 -0.542371 0
M  V30 5091 H 485.37 0.614231 -1.95162 0
M  V30 5092 H 485.38 2.86913 -2.90078 0
M  V30 5093 H 484.055 1.99361 -3.65004 0
M  V30 5094 H 482.632 3.046 -2.15112 0
M  V30 5095 N 484.817 1.37938 0.762283 0
M  V30 5096 C 485.727 1.36681 1.90671 0
M  V30 5097 C 486.743 0.265078 1.71969 0
M  V30 5098 O 487.919 0.502055 1.95042 0
M  V30 5099 C 484.984 1.18211 3.25925 0
M  V30 5100 C 484.045 2.3811 3.57214 0
M  V30 5101 C 483.278 2.20512 4.86014 0
M  V30 5102 O 483.501 1.19429 5.57757 0
M  V30 5103 O 482.435 3.08911 5.16583 0
M  V30 5104 H 486.261 2.33091 1.94685 0
M  V30 5105 H 483.846 1.18767 0.906356 0
M  V30 5106 H 485.728 1.09937 4.06807 0
M  V30 5107 H 484.403 0.248807 3.22742 0
M  V30 5108 H 483.31 2.51958 2.76529 0
M  V30 5109 H 484.643 3.30041 3.65149 0
M  V30 5110 N 486.295 -0.989507 1.22664 0
M  V30 5111 C 487.228 -2.07805 0.942985 0
M  V30 5112 C 488.206 -1.6219 -0.115356 0
M  V30 5113 O 489.39 -1.88492 0.0169565 0
M  V30 5114 C 486.517 -3.361 0.418898 0
M  V30 5115 C 485.563 -4.00643 1.46244 0
M  V30 5116 S 486.396 -4.41059 3.03689 0
M  V30 5117 C 487.552 -5.7252 2.52927 0
M  V30 5118 H 487.785 -2.31547 1.86476 0
M  V30 5119 H 485.318 -1.12446 1.05808 0
M  V30 5120 H 487.276 -4.10315 0.123114 0
M  V30 5121 H 485.937 -3.10383 -0.481818 0
M  V30 5122 H 485.13 -4.93033 1.04569 0
M  V30 5123 H 484.732 -3.32767 1.7071 0
M  V30 5124 H 487.024 -6.49017 1.94379 0
M  V30 5125 H 487.967 -6.19026 3.4382 0
M  V30 5126 H 488.375 -5.30083 1.94094 0
M  V30 5127 N 487.773 -1.03688 -1.18687 0
M  V30 5128 C 489.022 -0.733235 -1.879 0
M  V30 5129 C 489.335 0.741745 -1.8099 0
M  V30 5130 O 490.541 1.15875 -2.4553 0
M  V30 5131 C 488.997 -1.26127 -3.37076 0
M  V30 5132 C 488.605 -2.76461 -3.52524 0
M  V30 5133 C 490.349 -1.03398 -4.11715 0
M  V30 5134 C 488.256 -3.22642 -4.95637 0
M  V30 5135 H 487.186 -0.270584 -0.703776 0
M  V30 5136 H 489.837 -1.25222 -1.34133 0
M  V30 5137 H 488.219 -0.670165 -3.90288 0
M  V30 5138 H 489.393 -3.41296 -3.09602 0
M  V30 5139 H 487.708 -2.97559 -2.91286 0
M  V30 5140 H 490.305 -1.3542 -5.17267 0
M  V30 5141 H 490.648 0.0289246 -4.1629 0
M  V30 5142 H 491.181 -1.5895 -3.64664 0
M  V30 5143 H 487.92 -4.28296 -4.96228 0
M  V30 5144 H 487.44 -2.62539 -5.39289 0
M  V30 5145 H 489.119 -3.16444 -5.64333 0
M  V30 5146 N 489.251 1.34841 -0.815825 0
M  V30 5147 C 490.497 1.99219 -0.410288 0
M  V30 5148 C 490.852 1.63532 1.01366 0
M  V30 5149 O 490.145 0.893093 1.69512 0
M  V30 5150 C 490.339 3.53273 -0.541541 0
M  V30 5151 C 490.168 4.03927 -1.9767 0
M  V30 5152 C 488.938 4.32852 -2.60706 0
M  V30 5153 C 491.136 4.21808 -2.9425 0
M  V30 5154 N 489.118 4.69494 -3.95536 0
M  V30 5155 C 490.489 4.6155 -4.13971 0
M  V30 5156 C 492.544 4.04038 -2.9096 0
M  V30 5157 C 491.247 4.85381 -5.30847 0
M  V30 5158 C 493.273 4.29031 -4.07046 0
M  V30 5159 C 492.635 4.69054 -5.25517 0
M  V30 5160 H 488.734 0.756494 -0.198094 0
M  V30 5161 H 491.318 1.63379 -1.05902 0
M  V30 5162 H 489.489 3.88323 0.0772544 0
M  V30 5163 H 491.221 4.04551 -0.109694 0
M  V30 5164 H 487.976 4.23503 -2.11995 0
M  V30 5165 H 488.4 4.92061 -4.64979 0
M  V30 5166 H 493.042 3.7223 -2.00512 0
M  V30 5167 H 490.76 5.16059 -6.21859 0
M  V30 5168 H 494.346 4.16826 -4.05891 0
M  V30 5169 H 493.226 4.88014 -6.1385 0
M  V30 5170 N 490.729 0.570148 1.46925 0
M  V30 5171 C 491.677 -0.183181 2.31878 0
M  V30 5172 C 492.671 -0.896721 1.43719 0
M  V30 5173 O 493.877 -0.816536 1.60414 0
M  V30 5174 H 490.252 -0.077944 0.74795 0
M  V30 5175 H 492.223 0.552312 2.93244 0
M  V30 5176 C 490.972 -1.19172 3.2664 0
M  V30 5177 H 490.295 -0.652088 3.94446 0
M  V30 5178 H 491.735 -1.68946 3.88887 0
M  V30 5179 C 490.194 -2.24627 2.51086 0
M  V30 5180 O 490.724 -3.31773 2.26472 0
M  V30 5181 N 488.93 -1.98898 2.11867 0
M  V30 5182 H 488.477 -1.11777 2.32086 0
M  V30 5183 H 488.435 -2.6967 1.61634 0
M  V30 5184 N 492.207 -1.54576 0.307264 0
M  V30 5185 C 493.454 -2.00263 -0.300167 0
M  V30 5186 C 493.782 -1.19561 -1.53413 0
M  V30 5187 O 493.037 -0.261487 -1.93945 0
M  V30 5188 C 493.336 -3.50572 -0.695253 0
M  V30 5189 C 493.002 -4.48771 0.437679 0
M  V30 5190 C 491.664 -4.7534 0.748681 0
M  V30 5191 C 494.016 -5.0721 1.19949 0
M  V30 5192 C 491.344 -5.5761 1.8245 0
M  V30 5193 C 493.696 -5.90651 2.26527 0
M  V30 5194 C 492.36 -6.15528 2.58227 0
M  V30 5195 H 491.63 -0.732814 -0.109839 0
M  V30 5196 H 494.277 -1.86664 0.427661 0
M  V30 5197 H 492.582 -3.61814 -1.50326 0
M  V30 5198 H 494.279 -3.83352 -1.17653 0
M  V30 5199 H 490.869 -4.282 0.185187 0
M  V30 5200 H 495.053 -4.86679 0.972474 0
M  V30 5201 H 490.309 -5.75121 2.07476 0
M  V30 5202 H 494.483 -6.34957 2.86011 0
M  V30 5203 H 492.11 -6.79066 3.4172 0
M  V30 5204 N 493.685 -0.035106 -1.57561 0
M  V30 5205 C 494.635 0.954034 -2.0708 0
M  V30 5206 C 495.619 1.2818 -0.972558 0
M  V30 5207 O 496.811 1.26691 -1.23606 0
M  V30 5208 C 493.94 2.23442 -2.60631 0
M  V30 5209 C 493.026 1.93475 -3.77396 0
M  V30 5210 N 493.417 1.33802 -4.87781 0
M  V30 5211 C 491.715 2.23434 -3.85996 0
M  V30 5212 C 492.416 1.21103 -5.68954 0
M  V30 5213 N 491.392 1.70855 -5.16052 0
M  V30 5214 H 495.194 0.487731 -2.89825 0
M  V30 5215 H 492.708 0.169759 -1.6151 0
M  V30 5216 H 494.705 2.95183 -2.94402 0
M  V30 5217 H 493.365 2.70693 -1.79319 0
M  V30 5218 H 494.376 1.01227 -5.07911 0
M  V30 5219 H 491.053 2.73317 -3.15601 0
M  V30 5220 H 492.443 0.749105 -6.67711 0
M  V30 5221 N 495.163 1.55791 0.238111 0
M  V30 5222 C 496.403 1.79801 0.972163 0
M  V30 5223 C 496.767 0.606027 1.82185 0
M  V30 5224 O 497.968 0.725079 2.58836 0
M  V30 5225 C 496.239 3.08608 1.80266 0
M  V30 5226 S 497.798 3.53872 2.59461 0
M  V30 5227 H 494.616 0.631418 0.326852 0
M  V30 5228 H 497.218 1.94031 0.239212 0
M  V30 5229 H 495.922 3.93419 1.1683 0
M  V30 5230 H 495.453 2.9714 2.57821 0
M  V30 5231 H 497.468 3.15899 3.82651 0
M  V30 5232 N 496.642 -0.504142 1.49319 0
M  V30 5233 C 497.888 -1.25767 1.59857 0
M  V30 5234 C 498.243 -1.90348 0.280262 0
M  V30 5235 O 497.536 -1.77588 -0.719241 0
M  V30 5236 C 497.73 -2.35021 2.69258 0
M  V30 5237 C 497.559 -1.81154 4.11598 0
M  V30 5238 C 496.329 -1.62596 4.78425 0
M  V30 5239 C 498.527 -1.3252 4.96934 0
M  V30 5240 N 496.509 -1.03625 6.05091 0
M  V30 5241 C 497.88 -0.856633 6.14054 0
M  V30 5242 C 499.935 -1.21063 4.82958 0
M  V30 5243 C 498.638 -0.284841 7.18736 0
M  V30 5244 C 500.664 -0.652815 5.87786 0
M  V30 5245 C 500.026 -0.194461 7.04132 0
M  V30 5246 H 496.125 -0.450293 0.639343 0
M  V30 5247 H 498.709 -0.565344 1.86311 0
M  V30 5248 H 496.88 -3.01719 2.44581 0
M  V30 5249 H 498.612 -3.02061 2.69335 0
M  V30 5250 H 495.367 -1.86873 4.35173 0
M  V30 5251 H 495.791 -0.76076 6.72712 0
M  V30 5252 H 500.433 -1.551 3.93324 0
M  V30 5253 H 498.151 0.0677979 8.08072 0
M  V30 5254 H 501.737 -0.566994 5.79031 0
M  V30 5255 H 500.617 0.230442 7.83861 0
M  V30 5256 N 498.12 -1.38341 -0.754957 0
M  V30 5257 C 499.366 -1.34672 -1.51628 0
M  V30 5258 C 499.699 0.0636036 -1.94096 0
M  V30 5259 O 498.974 1.0245 -1.6533 0
M  V30 5260 C 499.257 -2.30116 -2.76981 0
M  V30 5261 C 499.11 -3.80003 -2.4066 0
M  V30 5262 C 500.429 -2.23715 -3.78998 0
M  V30 5263 H 497.548 -0.490517 -0.550056 0
M  V30 5264 H 500.19 -1.69178 -0.864807 0
M  V30 5265 H 498.34 -2.00821 -3.3257 0
M  V30 5266 H 500.012 -4.19966 -1.90856 0
M  V30 5267 H 498.255 -3.97751 -1.73137 0
M  V30 5268 H 498.926 -4.42244 -3.30339 0
M  V30 5269 H 501.402 -2.49574 -3.32945 0
M  V30 5270 H 500.278 -2.9261 -4.64403 0
M  V30 5271 H 500.539 -1.23554 -4.24484 0
M  V30 5272 N 499.598 0.982988 -1.23187 0
M  V30 5273 C 500.508 2.10907 -1.02739 0
M  V30 5274 C 501.524 1.73979 0.0273188 0
M  V30 5275 O 502.7 2.00702 -0.16757 0
M  V30 5276 C 499.765 3.41142 -0.618304 0
M  V30 5277 C 498.826 3.92112 -1.74777 0
M  V30 5278 C 498.059 5.16131 -1.3581 0
M  V30 5279 O 498.282 5.6989 -0.241201 0
M  V30 5280 O 497.216 5.61103 -2.17824 0
M  V30 5281 H 501.042 2.31046 -1.97108 0
M  V30 5282 H 498.627 1.09284 -1.01869 0
M  V30 5283 H 500.509 4.19488 -0.400982 0
M  V30 5284 H 499.184 3.2234 0.296421 0
M  V30 5285 H 498.091 3.14895 -2.0197 0
M  V30 5286 H 499.424 4.15364 -2.64071 0
M  V30 5287 N 501.076 1.04316 1.18135 0
M  V30 5288 C 502.301 0.768047 1.92655 0
M  V30 5289 C 502.726 -0.66904 1.758 0
M  V30 5290 O 502.084 -1.46372 1.06981 0
M  V30 5291 C 502.132 1.14239 3.42026 0
M  V30 5292 O 501.236 0.269333 4.1152 0
M  V30 5293 H 500.577 0.282436 0.600937 0
M  V30 5294 H 503.107 1.39367 1.49793 0
M  V30 5295 H 503.117 1.10538 3.92741 0
M  V30 5296 H 501.792 2.18928 3.53615 0
M  V30 5297 H 500.369 0.366175 3.71098 0
M  V30 5298 N 502.554 -1.34406 0.822964 0
M  V30 5299 C 503.8 -1.98999 0.420847 0
M  V30 5300 C 504.155 -1.64067 -1.00498 0
M  V30 5301 O 503.448 -0.902071 -1.69036 0
M  V30 5302 C 503.642 -3.52981 0.560268 0
M  V30 5303 C 503.471 -4.02873 1.99809 0
M  V30 5304 C 502.241 -4.31463 2.62998 0
M  V30 5305 C 504.439 -4.20241 2.96483 0
M  V30 5306 N 502.421 -4.6739 3.9802 0
M  V30 5307 C 503.792 -4.59348 4.16413 0
M  V30 5308 C 505.847 -4.02489 2.93098 0
M  V30 5309 C 504.55 -4.82559 5.33413 0
M  V30 5310 C 506.576 -4.26866 4.09315 0
M  V30 5311 C 505.938 -4.6626 5.27997 0
M  V30 5312 H 502.037 -0.755432 0.202104 0
M  V30 5313 H 504.621 -1.62815 1.06767 0
M  V30 5314 H 502.792 -3.88359 -0.0566596 0
M  V30 5315 H 504.524 -4.04487 0.131146 0
M  V30 5316 H 501.279 -4.22373 2.14238 0
M  V30 5317 H 501.703 -4.89588 4.67582 0
M  V30 5318 H 506.345 -3.71161 2.02483 0
M  V30 5319 H 504.063 -5.12754 6.24587 0
M  V30 5320 H 507.649 -4.14667 4.08096 0
M  V30 5321 H 506.529 -4.84752 6.16429 0
M  V30 5322 N 504.032 -0.577932 -1.46621 0
M  V30 5323 C 504.965 0.206312 -2.27265 0
M  V30 5324 C 505.943 0.901306 -1.35334 0
M  V30 5325 O 507.127 0.916151 -1.64739 0
M  V30 5326 C 504.254 1.29563 -3.1294 0
M  V30 5327 C 503.3 0.706981 -4.206 0
M  V30 5328 S 504.133 -0.462459 -5.33499 0
M  V30 5329 C 505.289 0.628171 -6.2274 0
M  V30 5330 H 505.522 -0.477961 -2.93433 0
M  V30 5331 H 503.055 -0.364715 -1.50031 0
M  V30 5332 H 505.013 1.91935 -3.62865 0
M  V30 5333 H 503.674 1.95183 -2.46095 0
M  V30 5334 H 502.867 1.52565 -4.80354 0
M  V30 5335 H 502.469 0.159022 -3.73662 0
M  V30 5336 H 504.761 1.51506 -6.60342 0
M  V30 5337 H 505.704 0.0674961 -7.08068 0
M  V30 5338 H 506.112 0.930167 -5.56784 0
M  V30 5339 N 505.51 1.54411 -0.315457 0
M  V30 5340 C 506.738 2.04833 0.291738 0
M  V30 5341 C 507.153 1.19203 1.46411 0
M  V30 5342 O 506.51 0.220867 1.81159 0
M  V30 5343 C 506.561 3.53969 0.73404 0
M  V30 5344 O 506.282 4.36346 -0.391682 0
M  V30 5345 C 507.783 4.2045 1.40489 0
M  V30 5346 H 505.003 0.668195 0.0612947 0
M  V30 5347 H 507.547 1.99276 -0.45929 0
M  V30 5348 H 505.702 3.5984 1.43506 0
M  V30 5349 H 506.116 5.24481 -0.0447088 0
M  V30 5350 H 507.59 5.26278 1.66539 0
M  V30 5351 H 508.067 3.71067 2.3496 0
M  V30 5352 H 508.673 4.18694 0.746662 0
M  V30 5353 N 506.988 0.0434614 1.5754 0
M  V30 5354 C 508.404 -0.313039 1.565 0
M  V30 5355 C 508.604 -1.71954 1.05043 0
M  V30 5356 O 507.66 -2.425 0.703564 0
M  V30 5357 C 508.973 -0.148544 3.00333 0
M  V30 5358 C 510.521 -0.220231 3.12224 0
M  V30 5359 C 510.996 -0.0843565 4.57922 0
M  V30 5360 N 512.487 -0.140881 4.62986 0
M  V30 5361 C 513.222 -0.0597443 5.73369 0
M  V30 5362 N 512.718 0.0733004 6.92761 0
M  V30 5363 N 514.511 -0.11477 5.61983 0
M  V30 5364 H 506.662 0.96303 1.89313 0
M  V30 5365 H 508.925 0.373164 0.871466 0
M  V30 5366 H 508.631 0.820894 3.41986 0
M  V30 5367 H 508.505 -0.912798 3.65989 0
M  V30 5368 H 510.892 -1.18014 2.70475 0
M  V30 5369 H 510.973 0.574646 2.49262 0
M  V30 5370 H 510.617 0.872192 5.00355 0
M  V30 5371 H 510.547 -0.898281 5.18882 0
M  V30 5372 H 513.038 -0.243273 3.77116 0
M  V30 5373 H 513.351 0.128128 7.72694 0
M  V30 5374 H 511.696 0.10828 6.94916 0
M  V30 5375 H 514.887 -0.217212 4.67596 0
M  V30 5376 H 515.06 -0.0480779 6.47982 0
M  V30 5377 N 508.466 -1.55915 -0.229846 0
M  V30 5378 C 509.877 -1.68809 -0.797531 0
M  V30 5379 C 510.228 -0.643995 -1.8533 0
M  V30 5380 O 509.353 0.206492 -2.15413 0
M  V30 5381 C 509.948 -3.06043 -1.45338 0
M  V30 5382 C 508.507 -3.20819 -1.96856 0
M  V30 5383 C 507.654 -2.6472 -0.825736 0
M  V30 5384 H 510.605 -1.58699 -0.00533733 0
M  V30 5385 H 510.626 -3.01438 -2.32196 0
M  V30 5386 H 510.138 -3.82012 -0.684743 0
M  V30 5387 H 508.239 -2.49704 -2.76548 0
M  V30 5388 H 508.352 -4.27937 -2.15423 0
M  V30 5389 H 506.716 -2.22985 -1.23084 0
M  V30 5390 H 507.499 -3.43229 -0.0699019 0
M  V30 5391 N 509.944 0.496216 -1.49584 0
M  V30 5392 C 511.221 1.25755 -1.49816 0
M  V30 5393 C 511.601 2.09859 -0.228572 0
M  V30 5394 O 510.949 2.14449 0.788908 0
M  V30 5395 C 511.159 2.11017 -2.7798 0
M  V30 5396 C 512.507 2.70047 -3.27658 0
M  V30 5397 O 513.531 2.21281 -2.79129 0
M  V30 5398 O 512.39 3.58834 -4.1219 0
M  V30 5399 H 509.484 0.569322 -0.599834 0
M  V30 5400 H 512.03 0.510094 -1.61852 0
M  V30 5401 H 510.802 1.48879 -3.61871 0
M  V30 5402 H 510.425 2.92947 -2.68827 0
M  V30 5403 N 511.423 1.38739 0.74761 0
M  V30 5404 C 512.353 1.39173 1.87492 0
M  V30 5405 C 513.334 0.256794 1.6815 0
M  V30 5406 O 514.519 0.460762 1.88655 0
M  V30 5407 C 511.649 1.22197 3.25093 0
M  V30 5408 C 510.603 2.32957 3.59047 0
M  V30 5409 C 509.929 2.01082 4.95449 0
M  V30 5410 C 511.229 3.75237 3.6331 0
M  V30 5411 H 512.923 2.3351 1.87386 0
M  V30 5412 H 510.469 1.12399 0.900134 0
M  V30 5413 H 512.422 1.21124 4.03617 0
M  V30 5414 H 511.146 0.243241 3.25693 0
M  V30 5415 H 509.805 2.33226 2.82845 0
M  V30 5416 H 509.453 1.01678 4.92616 0
M  V30 5417 H 509.153 2.75267 5.19136 0
M  V30 5418 H 510.677 2.01638 5.76346 0
M  V30 5419 H 512.091 3.76966 4.31937 0
M  V30 5420 H 510.488 4.48677 3.98509 0
M  V30 5421 H 511.558 4.07122 2.634 0
M  V30 5422 N 512.901 -0.976442 1.23707 0
M  V30 5423 C 513.833 -2.07212 0.979574 0
M  V30 5424 C 514.846 -1.6273 -0.0478528 0
M  V30 5425 O 516.035 -1.77506 0.18815 0
M  V30 5426 C 513.135 -3.35835 0.45479 0
M  V30 5427 C 512.308 -4.09268 1.54331 0
M  V30 5428 C 511.367 -5.16166 1.02271 0
M  V30 5429 O 510.393 -5.42827 1.71254 0
M  V30 5430 N 511.595 -5.80313 -0.147419 0
M  V30 5431 H 514.36 -2.29878 1.92292 0
M  V30 5432 H 511.921 -1.14343 1.14618 0
M  V30 5433 H 513.913 -4.04597 0.0914631 0
M  V30 5434 H 512.483 -3.10106 -0.394068 0
M  V30 5435 H 511.703 -3.34906 2.07923 0
M  V30 5436 H 512.991 -4.55095 2.27522 0
M  V30 5437 H 512.389 -5.61043 -0.724353 0
M  V30 5438 H 510.946 -6.50231 -0.451972 0
M  V30 5439 N 514.379 -1.04941 -1.1758 0
M  V30 5440 C 515.79 -0.784501 -1.69418 0
M  V30 5441 C 516.141 0.693625 -1.8353 0
M  V30 5442 O 515.266 1.53925 -1.52106 0
M  V30 5443 C 515.861 -1.41746 -3.07723 0
M  V30 5444 C 514.42 -1.20066 -3.56737 0
M  V30 5445 C 513.567 -1.5026 -2.33061 0
M  V30 5446 H 516.518 -1.21469 -1.02133 0
M  V30 5447 H 516.539 -0.825381 -3.7144 0
M  V30 5448 H 516.051 -2.49325 -2.9742 0
M  V30 5449 H 514.152 -0.144006 -3.72322 0
M  V30 5450 H 514.265 -1.90384 -4.39648 0
M  V30 5451 H 512.629 -0.922598 -2.37403 0
M  V30 5452 H 513.412 -2.58967 -2.25368 0
M  V30 5453 N 515.857 1.33968 -0.830081 0
M  V30 5454 C 517.105 1.97672 -0.420734 0
M  V30 5455 C 517.426 1.66111 1.02138 0
M  V30 5456 O 516.696 0.955503 1.71017 0
M  V30 5457 H 515.276 0.73125 -0.152587 0
M  V30 5458 H 517.938 1.63483 -1.0611 0
M  V30 5459 H 517.034 3.07294 -0.545588 0
M  V30 5460 N 517.335 0.585699 1.46312 0
M  V30 5461 C 518.565 0.0780166 2.06453 0
M  V30 5462 C 518.973 -1.2336 1.43454 0
M  V30 5463 O 518.316 -1.75734 0.535086 0
M  V30 5464 C 518.378 -0.158951 3.59148 0
M  V30 5465 C 518.042 1.06752 4.44357 0
M  V30 5466 C 519.039 1.98031 4.80708 0
M  V30 5467 C 516.724 1.2902 4.85447 0
M  V30 5468 C 518.718 3.09924 5.5698 0
M  V30 5469 C 516.405 2.41218 5.61478 0
M  V30 5470 C 517.403 3.31499 5.97158 0
M  V30 5471 O 517.091 4.41747 6.71651 0
M  V30 5472 H 516.823 0.0558894 0.673686 0
M  V30 5473 H 519.377 0.806994 1.88883 0
M  V30 5474 H 517.607 -0.942575 3.75037 0
M  V30 5475 H 519.296 -0.615513 4.01206 0
M  V30 5476 H 520.062 1.82043 4.49539 0
M  V30 5477 H 515.941 0.596567 4.57124 0
M  V30 5478 H 519.485 3.80415 5.84748 0
M  V30 5479 H 515.382 2.57167 5.9206 0
M  V30 5480 H 516.15 4.40152 6.90079 0
M  V30 5481 N 518.813 -1.54241 0.323641 0
M  V30 5482 C 519.723 -2.28033 -0.551205 0
M  V30 5483 C 520.739 -1.32388 -1.12913 0
M  V30 5484 O 521.915 -1.65403 -1.14908 0
M  V30 5485 C 518.98 -3.02382 -1.69606 0
M  V30 5486 C 518.041 -4.13612 -1.14993 0
M  V30 5487 C 517.274 -4.84407 -2.24022 0
M  V30 5488 O 517.497 -4.54716 -3.44368 0
M  V30 5489 O 516.431 -5.71312 -1.89436 0
M  V30 5490 H 520.257 -3.03662 0.048066 0
M  V30 5491 H 517.842 -1.49133 0.0893289 0
M  V30 5492 H 519.724 -3.48941 -2.36259 0
M  V30 5493 H 518.399 -2.29628 -2.28151 0
M  V30 5494 H 517.306 -3.71402 -0.448484 0
M  V30 5495 H 518.639 -4.8841 -0.609608 0
M  V30 5496 N 520.291 -0.0518155 -1.57515 0
M  V30 5497 C 521.539 0.620595 -1.92336 0
M  V30 5498 C 521.86 1.71345 -0.930907 0
M  V30 5499 O 521.13 1.95885 0.0241341 0
M  V30 5500 H 519.71 0.232226 -0.709986 0
M  V30 5501 H 522.372 -0.104969 -1.94617 0
M  V30 5502 H 521.468 1.05879 -2.93592 0
M  V30 5503 N 521.769 1.56035 0.221574 0
M  V30 5504 C 523.015 1.80221 0.942973 0
M  V30 5505 C 523.37 0.624799 1.81973 0
M  V30 5506 O 522.663 -0.381145 1.87771 0
M  V30 5507 C 522.857 3.07813 1.8162 0
M  V30 5508 C 522.686 4.37852 1.02548 0
M  V30 5509 C 521.456 5.00138 0.720418 0
M  V30 5510 C 523.654 5.12813 0.390799 0
M  V30 5511 N 521.636 6.13831 -0.0917139 0
M  V30 5512 C 523.007 6.19346 -0.284728 0
M  V30 5513 C 525.062 4.96972 0.303828 0
M  V30 5514 C 523.765 7.11758 -1.03891 0
M  V30 5515 C 525.791 5.89784 -0.436883 0
M  V30 5516 C 525.153 6.95743 -1.10095 0
M  V30 5517 H 521.252 0.711117 0.325325 0
M  V30 5518 H 523.836 1.93522 0.213854 0
M  V30 5519 H 522.007 2.95795 2.51714 0
M  V30 5520 H 523.739 3.20191 2.47508 0
M  V30 5521 H 520.494 4.62075 1.03843 0
M  V30 5522 H 520.918 6.75249 -0.486615 0
M  V30 5523 H 525.56 4.15107 0.802896 0
M  V30 5524 H 523.278 7.93105 -1.54949 0
M  V30 5525 H 526.864 5.79603 -0.505181 0
M  V30 5526 H 525.744 7.66322 -1.66495 0
M  V30 5527 N 523.247 -0.488276 1.49845 0
M  V30 5528 C 524.179 -1.60539 1.63584 0
M  V30 5529 C 525.192 -1.5434 0.517972 0
M  V30 5530 O 526.381 -1.60041 0.790516 0
M  V30 5531 C 523.481 -2.99374 1.58835 0
M  V30 5532 C 522.654 -3.30624 2.86368 0
M  V30 5533 C 521.713 -4.4893 2.74496 0
M  V30 5534 O 520.739 -4.50085 3.48443 0
M  V30 5535 N 521.941 -5.49591 1.86894 0
M  V30 5536 H 524.706 -1.49176 2.59936 0
M  V30 5537 H 522.267 -0.67639 1.47094 0
M  V30 5538 H 524.259 -3.76459 1.48529 0
M  V30 5539 H 522.829 -3.04595 0.702892 0
M  V30 5540 H 522.049 -2.42314 3.1093 0
M  V30 5541 H 523.337 -3.48305 3.70892 0
M  V30 5542 H 522.735 -5.51467 1.26097 0
M  V30 5543 H 521.292 -6.25728 1.82503 0
M  V30 5544 N 524.725 -1.39134 -0.740242 0
M  V30 5545 C 525.688 -1.37217 -1.83587 0
M  V30 5546 C 526.688 -0.270221 -1.58513 0
M  V30 5547 O 527.878 -0.527843 -1.6601 0
M  V30 5548 C 525.01 -1.13959 -3.21288 0
M  V30 5549 H 526.203 -2.34705 -1.86691 0
M  V30 5550 H 523.756 -1.24622 -0.94335 0
M  V30 5551 H 524.491 -0.17131 -3.23847 0
M  V30 5552 H 524.276 -1.93754 -3.40884 0
M  V30 5553 H 525.766 -1.15346 -4.01354 0
M  V30 5554 N 526.204 0.969867 -1.24223 0
M  V30 5555 C 527.134 2.08191 -1.05729 0
M  V30 5556 C 528.115 1.70075 0.0290765 0
M  V30 5557 O 529.3 1.93712 -0.137583 0
M  V30 5558 C 526.43 3.40991 -0.658995 0
M  V30 5559 C 525.384 3.93054 -1.69389 0
M  V30 5560 C 524.71 5.22171 -1.15072 0
M  V30 5561 C 526.01 4.21137 -3.08935 0
M  V30 5562 H 527.704 2.23921 -1.98746 0
M  V30 5563 H 525.25 1.07602 -0.956967 0
M  V30 5564 H 527.203 4.18221 -0.51662 0
M  V30 5565 H 525.927 3.25155 0.30686 0
M  V30 5566 H 524.586 3.17977 -1.82444 0
M  V30 5567 H 524.234 5.02694 -0.175539 0
M  V30 5568 H 523.934 5.57973 -1.84229 0
M  V30 5569 H 525.458 6.02013 -1.02042 0
M  V30 5570 H 526.872 4.8908 -2.99121 0
M  V30 5571 H 525.269 4.68163 -3.75425 0
M  V30 5572 H 526.339 3.27996 -3.57137 0
M  V30 5573 N 527.682 1.05563 1.17022 0
M  V30 5574 C 528.959 0.68165 1.83338 0
M  V30 5575 C 529.339 -0.837665 1.93769 0
M  V30 5576 O 528.687 -1.74507 1.47511 0
M  V30 5577 C 528.897 1.375 3.20772 0
M  V30 5578 C 530.245 1.51545 3.96635 0
M  V30 5579 O 531.269 1.33431 3.30264 0
M  V30 5580 O 530.128 1.812 5.15586 0
M  V30 5581 H 527.222 0.240412 0.791285 0
M  V30 5582 H 529.768 1.15545 1.24288 0
M  V30 5583 H 528.54 2.41135 3.08171 0
M  V30 5584 H 528.163 0.890798 3.87493 0
M  V30 5585 N 529.16 -1.33526 0.837174 0
M  V30 5586 C 530.571 -1.80182 0.489017 0
M  V30 5587 C 530.922 -1.69285 -0.991826 0
M  V30 5588 O 530.047 -1.24113 -1.77271 0
M  V30 5589 C 530.642 -3.27149 0.880866 0
M  V30 5590 C 529.201 -3.71828 0.584872 0
M  V30 5591 C 528.348 -2.54974 1.09011 0
M  V30 5592 H 531.299 -1.21071 1.02603 0
M  V30 5593 H 531.32 -3.80024 0.190239 0
M  V30 5594 H 530.832 -3.35048 1.95869 0
M  V30 5595 H 528.933 -3.69457 -0.48295 0
M  V30 5596 H 529.046 -4.65366 1.13892 0
M  V30 5597 H 527.41 -2.4952 0.511047 0
M  V30 5598 H 528.193 -2.65637 2.17467 0
M  V30 5599 N 530.638 -0.59345 -1.46 0
M  V30 5600 C 531.866 -0.0890934 -2.06708 0
M  V30 5601 C 532.281 1.2205 -1.44046 0
M  V30 5602 O 531.638 1.74029 -0.549551 0
M  V30 5603 C 531.689 0.0720263 -3.61428 0
M  V30 5604 O 531.41 -1.18574 -4.21748 0
M  V30 5605 C 532.911 0.609487 -4.3909 0
M  V30 5606 H 530.131 -0.0623628 -0.668096 0
M  V30 5607 H 532.675 -0.817171 -1.87464 0
M  V30 5608 H 530.83 0.750369 -3.80063 0
M  V30 5609 H 531.244 -1.0064 -5.14754 0
M  V30 5610 H 532.718 0.671363 -5.47902 0
M  V30 5611 H 533.195 1.62878 -4.07882 0
M  V30 5612 H 533.801 -0.03434 -4.25286 0
M  V30 5613 N 532.116 1.54067 -0.331816 0
M  V30 5614 C 533.527 1.86059 0.15454 0
M  V30 5615 C 533.878 1.25331 1.50952 0
M  V30 5616 O 533.003 0.562441 2.08963 0
M  V30 5617 C 533.598 3.37581 0.287192 0
M  V30 5618 C 532.157 3.69493 0.717773 0
M  V30 5619 C 531.304 2.76863 -0.155569 0
M  V30 5620 H 534.255 1.48797 -0.55182 0
M  V30 5621 H 534.276 3.63744 1.11671 0
M  V30 5622 H 533.788 3.81751 -0.699131 0
M  V30 5623 H 531.889 3.3086 1.71354 0
M  V30 5624 H 532.002 4.76315 0.5158 0
M  V30 5625 H 530.366 2.51995 0.370213 0
M  V30 5626 H 531.149 3.23861 -1.13881 0
M  V30 5627 N 533.594 0.0601682 1.57485 0
M  V30 5628 C 534.526 -0.94047 2.09016 0
M  V30 5629 C 535.539 -1.26897 1.01985 0
M  V30 5630 O 536.728 -1.22819 1.29529 0
M  V30 5631 C 533.828 -2.25955 2.52582 0
M  V30 5632 C 533.001 -2.11163 3.83052 0
M  V30 5633 C 532.06 -3.26273 4.12835 0
M  V30 5634 O 531.086 -3.01779 4.82616 0
M  V30 5635 N 532.288 -4.51022 3.65458 0
M  V30 5636 H 535.053 -0.500578 2.9549 0
M  V30 5637 H 532.614 -0.125852 1.6141 0
M  V30 5638 H 534.606 -3.01846 2.69575 0
M  V30 5639 H 533.176 -2.61481 1.71308 0
M  V30 5640 H 532.396 -1.19808 3.75552 0
M  V30 5641 H 533.684 -1.98517 4.68475 0
M  V30 5642 H 533.082 -4.73811 3.09062 0
M  V30 5643 H 531.639 -5.23978 3.87673 0
M  V30 5644 N 535.072 -1.5615 -0.213296 0
M  V30 5645 C 535.982 -1.96265 -1.28519 0
M  V30 5646 C 536.998 -0.86765 -1.50824 0
M  V30 5647 O 538.174 -1.17191 -1.63793 0
M  V30 5648 C 535.239 -2.27836 -2.61327 0
M  V30 5649 C 534.3 -3.50949 -2.47252 0
M  V30 5650 C 533.533 -3.81004 -3.73727 0
M  V30 5651 O 533.756 -3.12612 -4.77106 0
M  V30 5652 O 532.69 -4.74477 -3.70344 0
M  V30 5653 H 536.516 -2.87631 -0.974795 0
M  V30 5654 H 534.101 -1.43467 -0.416832 0
M  V30 5655 H 535.983 -2.49299 -3.39747 0
M  V30 5656 H 534.658 -1.39643 -2.9203 0
M  V30 5657 H 533.565 -3.34754 -1.67004 0
M  V30 5658 H 534.898 -4.39551 -2.21486 0
M  V30 5659 N 536.55 0.480323 -1.50102 0
M  V30 5660 C 537.497 1.57946 -1.6829 0
M  V30 5661 C 538.467 1.57611 -0.524223 0
M  V30 5662 O 539.652 1.75282 -0.753709 0
M  V30 5663 C 536.792 2.95978 -1.77457 0
M  V30 5664 C 535.905 3.06173 -3.04766 0
M  V30 5665 C 535.04 4.35063 -3.04784 0
M  V30 5666 C 534.079 4.38966 -4.26586 0
M  V30 5667 N 533.216 5.59314 -4.24396 0
M  V30 5668 H 538.056 1.41743 -2.62131 0
M  V30 5669 H 535.593 0.689304 -1.2995 0
M  V30 5670 H 537.551 3.76011 -1.80752 0
M  V30 5671 H 536.181 3.10837 -0.870637 0
M  V30 5672 H 535.233 2.19071 -3.10986 0
M  V30 5673 H 536.545 3.04916 -3.9475 0
M  V30 5674 H 535.699 5.23436 -3.06757 0
M  V30 5675 H 534.438 4.38915 -2.12614 0
M  V30 5676 H 533.443 3.48992 -4.24835 0
M  V30 5677 H 534.668 4.36813 -5.19972 0
M  V30 5678 H 532.614 5.63969 -3.35074 0
M  V30 5679 H 532.531 5.5976 -5.08138 0
M  V30 5680 H 533.799 6.49837 -4.30502 0
M  V30 5681 N 538.028 1.39524 0.732853 0
M  V30 5682 C 539.253 1.40329 1.52717 0
M  V30 5683 C 539.678 0.000286574 1.881 0
M  V30 5684 O 539.036 -0.987262 1.52062 0
M  V30 5685 C 539.084 2.28464 2.78992 0
M  V30 5686 O 538.188 1.716 3.75003 0
M  V30 5687 H 537.529 0.47778 0.461109 0
M  V30 5688 H 540.059 1.83546 0.903996 0
M  V30 5689 H 540.069 2.43051 3.27705 0
M  V30 5690 H 538.744 3.30425 2.52572 0
M  V30 5691 H 537.321 1.66267 3.33781 0
M  V30 5692 N 539.506 -0.963266 1.24736 0
M  V30 5693 C 540.416 -2.09246 1.06082 0
M  V30 5694 C 541.432 -1.74 0.000363101 0
M  V30 5695 O 542.608 -2.0041 0.199479 0
M  V30 5696 C 539.673 -3.40115 0.672498 0
M  V30 5697 C 538.734 -3.89282 1.80993 0
M  V30 5698 C 537.967 -5.13905 1.44004 0
M  V30 5699 O 538.19 -5.69434 0.331835 0
M  V30 5700 O 537.124 -5.57566 2.26723 0
M  V30 5701 H 540.95 -2.27881 2.00759 0
M  V30 5702 H 538.535 -1.07649 1.03595 0
M  V30 5703 H 540.417 -4.18797 0.467668 0
M  V30 5704 H 539.092 -3.22771 -0.245102 0
M  V30 5705 H 537.999 -3.11642 2.06955 0
M  V30 5706 H 539.332 -4.1111 2.70646 0
M  V30 5707 N 540.985 -1.06182 -1.16461 0
M  V30 5708 C 542.233 -0.776326 -1.86595 0
M  V30 5709 C 542.554 0.69921 -1.82033 0
M  V30 5710 O 541.824 1.50579 -1.2531 0
M  V30 5711 H 540.404 -0.284184 -0.690832 0
M  V30 5712 H 543.066 -1.34308 -1.41235 0
M  V30 5713 H 542.162 -1.10022 -2.92064 0
M  V30 5714 N 542.463 1.3308 -0.844243 0
M  V30 5715 C 543.691 2.01808 -0.456203 0
M  V30 5716 C 544.106 1.63498 0.944131 0
M  V30 5717 O 543.463 0.85102 1.61443 0
M  V30 5718 C 543.514 3.56922 -0.573513 0
M  V30 5719 O 543.235 3.93851 -1.91868 0
M  V30 5720 C 544.736 4.42922 -0.183125 0
M  V30 5721 H 541.956 0.646273 -0.180477 0
M  V30 5722 H 544.5 1.69891 -1.1383 0
M  V30 5723 H 542.655 3.87352 0.0607367 0
M  V30 5724 H 543.069 4.88564 -1.90802 0
M  V30 5725 H 544.543 5.51093 -0.316241 0
M  V30 5726 H 545.02 4.30386 0.875477 0
M  V30 5727 H 545.626 4.1786 -0.792027 0
M  V30 5728 N 543.941 0.601185 1.45683 0
M  V30 5729 C 545.171 0.0999093 2.06358 0
M  V30 5730 C 545.579 -1.21831 1.44754 0
M  V30 5731 O 544.922 -1.75157 0.553695 0
M  V30 5732 C 544.984 -0.12085 3.59297 0
M  V30 5733 C 544.648 1.11459 4.432 0
M  V30 5734 C 545.645 2.03118 4.7858 0
M  V30 5735 C 543.33 1.34162 4.84051 0
M  V30 5736 C 545.324 3.15814 5.53661 0
M  V30 5737 C 543.011 2.4716 5.58888 0
M  V30 5738 C 544.009 3.37814 5.93608 0
M  V30 5739 O 543.697 4.48846 6.66928 0
M  V30 5740 H 543.429 0.0630316 0.673055 0
M  V30 5741 H 545.983 0.826982 1.88016 0
M  V30 5742 H 544.213 -0.902744 3.76015 0
M  V30 5743 H 545.902 -0.572925 4.01836 0
M  V30 5744 H 546.668 1.86801 4.47583 0
M  V30 5745 H 542.547 0.645018 4.56465 0
M  V30 5746 H 546.091 3.86596 5.8068 0
M  V30 5747 H 541.988 2.63432 5.89299 0
M  V30 5748 H 542.756 4.47446 6.85371 0
M  V30 5749 N 545.419 -1.53889 0.339982 0
M  V30 5750 C 546.659 -2.02765 -0.258011 0
M  V30 5751 C 547.023 -1.22249 -1.48051 0
M  V30 5752 O 548.224 -1.61007 -2.15245 0
M  V30 5753 C 546.495 -3.5286 -0.567872 0
M  V30 5754 S 548.054 -4.23647 -1.14318 0
M  V30 5755 H 544.872 -0.706814 -0.0770389 0
M  V30 5756 H 547.474 -1.89594 0.476917 0
M  V30 5757 H 546.178 -4.09073 0.329745 0
M  V30 5758 H 545.709 -3.70144 -1.33256 0
M  V30 5759 H 547.724 -4.32676 -2.42911 0
M  V30 5760 N 546.897 -0.0685191 -1.57451 0
M  V30 5761 C 548.137 0.605038 -1.9524 0
M  V30 5762 C 548.501 1.66974 -0.947816 0
M  V30 5763 O 549.702 2.39862 -1.21325 0
M  V30 5764 C 547.973 1.16999 -3.37707 0
M  V30 5765 S 549.532 1.85913 -3.97469 0
M  V30 5766 H 546.35 0.198203 -0.682815 0
M  V30 5767 H 548.952 -0.141594 -1.94987 0
M  V30 5768 H 547.656 0.383205 -4.08607 0
M  V30 5769 H 547.187 1.95305 -3.41496 0
M  V30 5770 H 549.202 3.14128 -3.84107 0
M  V30 5771 N 548.375 1.56261 0.205012 0
M  V30 5772 C 549.623 1.79684 0.925096 0
M  V30 5773 C 549.944 0.63989 1.84202 0
M  V30 5774 O 549.214 -0.342345 1.92885 0
M  V30 5775 H 547.794 0.662774 0.344587 0
M  V30 5776 H 550.456 1.93734 0.212899 0
M  V30 5777 H 549.552 2.72467 1.52211 0
M  V30 5778 N 549.853 -0.472356 1.50355 0
M  V30 5779 C 551.264 -1.05326 1.54154 0
M  V30 5780 C 551.615 -1.93155 0.344303 0
M  V30 5781 O 550.74 -2.09479 -0.542928 0
M  V30 5782 C 551.335 -1.91691 2.79356 0
M  V30 5783 C 549.894 -2.44892 2.8584 0
M  V30 5784 C 549.041 -1.23205 2.48426 0
M  V30 5785 H 551.992 -0.255027 1.56637 0
M  V30 5786 H 552.013 -2.76742 2.6114 0
M  V30 5787 H 551.525 -1.27741 3.66475 0
M  V30 5788 H 549.626 -3.12399 2.0307 0
M  V30 5789 H 549.739 -2.80086 3.88701 0
M  V30 5790 H 548.103 -1.56643 2.00836 0
M  V30 5791 H 548.886 -0.609194 3.37852 0
M  V30 5792 N 551.331 -1.39911 -0.725443 0
M  V30 5793 C 552.577 -1.37858 -1.48738 0
M  V30 5794 C 552.91 0.0224187 -1.94187 0
M  V30 5795 O 552.185 0.989204 -1.67466 0
M  V30 5796 C 552.468 -2.3594 -2.72038 0
M  V30 5797 C 552.321 -3.85023 -2.32546 0
M  V30 5798 C 553.64 -2.31704 -3.74167 0
M  V30 5799 H 550.759 -0.502074 -0.539528 0
M  V30 5800 H 553.401 -1.70974 -0.828728 0
M  V30 5801 H 551.551 -2.0783 -3.28236 0
M  V30 5802 H 553.223 -4.2392 -1.81905 0
M  V30 5803 H 551.466 -4.01334 -1.64661 0
M  V30 5804 H 552.137 -4.49152 -3.20884 0
M  V30 5805 H 554.613 -2.5658 -3.27576 0
M  V30 5806 H 553.489 -3.02395 -4.58092 0
M  V30 5807 H 553.75 -1.3253 -4.21768 0
M  V30 5808 N 552.809 0.956637 -1.25245 0
M  V30 5809 C 554.22 1.51569 -1.09012 0
M  V30 5810 C 554.571 1.93322 0.334813 0
M  V30 5811 O 553.696 1.78421 1.22454 0
M  V30 5812 C 554.291 2.75444 -1.97271 0
M  V30 5813 C 552.85 3.27669 -1.8523 0
M  V30 5814 C 551.997 2.00517 -1.91542 0
M  V30 5815 H 554.948 0.773746 -1.3856 0
M  V30 5816 H 554.969 3.4919 -1.51151 0
M  V30 5817 H 554.481 2.45024 -3.00973 0
M  V30 5818 H 552.582 3.62914 -0.844045 0
M  V30 5819 H 552.695 3.9582 -2.69932 0
M  V30 5820 H 551.059 2.15727 -1.35404 0
M  V30 5821 H 551.842 1.72448 -2.96844 0
M  V30 5822 N 554.287 1.06798 1.15896 0
M  V30 5823 C 555.533 0.788934 1.86825 0
M  V30 5824 C 555.866 -0.683084 1.8179 0
M  V30 5825 O 555.141 -1.50086 1.23711 0
M  V30 5826 C 555.424 1.29065 3.36176 0
M  V30 5827 C 555.277 2.8268 3.49874 0
M  V30 5828 C 556.596 0.902655 4.30744 0
M  V30 5829 H 553.715 0.288066 0.678371 0
M  V30 5830 H 556.357 1.32479 1.36195 0
M  V30 5831 H 554.507 0.834806 3.79425 0
M  V30 5832 H 556.179 3.36511 3.15528 0
M  V30 5833 H 554.422 3.21157 2.91617 0
M  V30 5834 H 555.093 3.12852 4.54783 0
M  V30 5835 H 557.569 1.29535 3.95424 0
M  V30 5836 H 556.445 1.28111 5.3374 0
M  V30 5837 H 556.706 -0.191951 4.41683 0
M  V30 5838 N 555.766 -1.3263 0.851289 0
M  V30 5839 C 557.182 -1.50162 0.5407 0
M  V30 5840 C 557.382 -1.78788 -0.929369 0
M  V30 5841 O 556.438 -1.85545 -1.71258 0
M  V30 5842 C 557.751 -2.64803 1.42478 0
M  V30 5843 C 559.299 -2.78688 1.42485 0
M  V30 5844 C 559.774 -3.96405 2.29407 0
M  V30 5845 N 561.265 -4.0366 2.27184 0
M  V30 5846 C 562 -4.93971 2.9117 0
M  V30 5847 N 561.496 -5.89313 3.64256 0
M  V30 5848 N 563.289 -4.87066 2.80576 0
M  V30 5849 H 555.44 -1.12315 1.80275 0
M  V30 5850 H 557.703 -0.553266 0.769806 0
M  V30 5851 H 557.409 -2.50368 2.46999 0
M  V30 5852 H 557.283 -3.60506 1.10974 0
M  V30 5853 H 559.67 -2.92547 0.387304 0
M  V30 5854 H 559.751 -1.83708 1.78002 0
M  V30 5855 H 559.395 -3.83304 3.33228 0
M  V30 5856 H 559.325 -4.90654 1.91224 0
M  V30 5857 H 561.816 -3.35435 1.74045 0
M  V30 5858 H 562.129 -6.54913 4.10255 0
M  V30 5859 H 560.474 -5.8935 3.68364 0
M  V30 5860 H 563.665 -4.11552 2.23031 0
M  V30 5861 H 563.838 -5.57248 3.30725 0
M  V30 5862 N 557.244 -0.608902 -1.45362 0
M  V30 5863 C 558.207 0.0992563 -2.28985 0
M  V30 5864 C 559.207 0.793841 -1.39838 0
M  V30 5865 O 560.397 0.641804 -1.61946 0
M  V30 5866 C 557.529 1.15073 -3.20891 0
M  V30 5867 H 558.722 -0.635964 -2.93079 0
M  V30 5868 H 556.275 -0.368007 -1.51906 0
M  V30 5869 H 557.01 1.91667 -2.616 0
M  V30 5870 H 556.795 0.656867 -3.86559 0
M  V30 5871 H 558.285 1.64665 -3.83765 0
M  V30 5872 N 558.722 1.53707 -0.348139 0
M  V30 5873 C 559.971 2.0017 0.247992 0
M  V30 5874 C 560.284 1.23983 1.51286 0
M  V30 5875 O 561.49 1.60946 2.18652 0
M  V30 5876 C 559.946 3.56515 0.492459 0
M  V30 5877 C 559.554 4.41562 -0.756777 0
M  V30 5878 C 561.298 4.11381 1.0472 0
M  V30 5879 C 559.205 5.89426 -0.482856 0
M  V30 5880 H 558.135 0.747806 0.0964452 0
M  V30 5881 H 560.786 1.77532 -0.464179 0
M  V30 5882 H 559.168 3.75236 1.26545 0
M  V30 5883 H 560.342 4.34615 -1.53122 0
M  V30 5884 H 558.657 3.97711 -1.23348 0
M  V30 5885 H 561.254 5.19468 1.26717 0
M  V30 5886 H 561.597 3.64885 2.00411 0
M  V30 5887 H 562.13 3.96389 0.334801 0
M  V30 5888 H 558.869 6.40164 -1.40962 0
M  V30 5889 H 558.389 5.99264 0.253416 0
M  V30 5890 H 560.068 6.4692 -0.101816 0
M  V30 5891 N 560.2 0.0768682 1.57412 0
M  V30 5892 C 561.147 -0.888577 2.13009 0
M  V30 5893 C 562.117 -1.29198 1.0439 0
M  V30 5894 O 563.302 -1.37694 1.3208 0
M  V30 5895 C 560.442 -2.14899 2.70023 0
M  V30 5896 C 559.555 -1.79777 3.92816 0
M  V30 5897 C 558.69 -3.00467 4.38056 0
M  V30 5898 C 557.729 -2.61385 5.53484 0
M  V30 5899 N 556.866 -3.74851 5.93659 0
M  V30 5900 H 561.706 -0.407593 2.95199 0
M  V30 5901 H 559.243 -0.189534 1.45874 0
M  V30 5902 H 561.201 -2.88688 3.0119 0
M  V30 5903 H 559.831 -2.60529 1.9059 0
M  V30 5904 H 558.883 -0.960301 3.68079 0
M  V30 5905 H 560.195 -1.47027 4.76639 0
M  V30 5906 H 559.349 -3.82529 4.7091 0
M  V30 5907 H 558.088 -3.36413 3.53097 0
M  V30 5908 H 557.093 -1.77746 5.20275 0
M  V30 5909 H 558.318 -2.26603 6.40178 0
M  V30 5910 H 556.264 -4.1055 5.11649 0
M  V30 5911 H 556.181 -3.45887 6.72234 0
M  V30 5912 H 557.449 -4.57477 6.31138 0
M  V30 5913 N 561.678 -1.56367 -0.196722 0
M  V30 5914 C 562.588 -1.97617 -1.2643 0
M  V30 5915 C 563.604 -0.883598 -1.49895 0
M  V30 5916 O 564.78 -1.18921 -1.62541 0
M  V30 5917 C 561.845 -2.30595 -2.58895 0
M  V30 5918 C 560.906 -3.53551 -2.43516 0
M  V30 5919 C 560.139 -3.84946 -3.69665 0
M  V30 5920 O 560.362 -3.17655 -4.73763 0
M  V30 5921 O 559.296 -4.78379 -3.65291 0
M  V30 5922 H 563.122 -2.88648 -0.944233 0
M  V30 5923 H 560.707 -1.43901 -0.401592 0
M  V30 5924 H 562.589 -2.52889 -3.37083 0
M  V30 5925 H 561.264 -1.42732 -2.90533 0
M  V30 5926 H 560.171 -3.36507 -1.63445 0
M  V30 5927 H 561.504 -4.41875 -2.16812 0
M  V30 5928 N 563.156 0.464375 -1.50603 0
M  V30 5929 C 564.404 1.21356 -1.61608 0
M  V30 5930 C 564.725 1.92329 -0.321643 0
M  V30 5931 O 563.995 1.84403 0.661232 0
M  V30 5932 H 562.575 0.45094 -0.595535 0
M  V30 5933 H 565.237 0.535046 -1.87412 0
M  V30 5934 H 564.333 1.95783 -2.43054 0
M  V30 5935 N 564.634 1.40294 0.718013 0
M  V30 5936 C 565.911 1.2894 1.47084 0
M  V30 5937 C 566.291 -0.0933625 2.10893 0
M  V30 5938 O 565.639 -1.10598 1.99951 0
M  V30 5939 C 565.849 2.4264 2.50852 0
M  V30 5940 C 567.197 2.8276 3.16752 0
M  V30 5941 O 568.221 2.42215 2.61171 0
M  V30 5942 O 567.08 3.528 4.17366 0
M  V30 5943 H 564.174 0.506236 0.653952 0
M  V30 5944 H 566.72 1.52208 0.750394 0
M  V30 5945 H 565.492 3.35009 2.022 0
M  V30 5946 H 565.115 2.21129 3.30435 0
M  V30 5947 N 566.112 -0.949982 1.2575 0
M  V30 5948 C 567.042 -2.06483 1.09028 0
M  V30 5949 C 568.023 -1.701 -0.00201532 0
M  V30 5950 O 569.208 -1.93469 0.168383 0
M  V30 5951 C 566.338 -3.39899 0.71316 0
M  V30 5952 C 565.292 -3.90309 1.75621 0
M  V30 5953 C 564.618 -5.20274 1.23365 0
M  V30 5954 C 565.918 -4.16169 3.15596 0
M  V30 5955 H 567.612 -2.20731 2.02283 0
M  V30 5956 H 565.158 -1.06066 0.973964 0
M  V30 5957 H 567.111 -4.17346 0.58309 0
M  V30 5958 H 565.835 -3.25602 -0.255091 0
M  V30 5959 H 564.494 -3.15035 1.8748 0
M  V30 5960 H 564.142 -5.02351 0.255491 0
M  V30 5961 H 563.842 -5.54971 1.93082 0
M  V30 5962 H 565.366 -6.00314 1.11607 0
M  V30 5963 H 566.78 -4.84259 3.06864 0
M  V30 5964 H 565.177 -4.62131 3.82825 0
M  V30 5965 H 566.247 -3.22273 3.6231 0
M  V30 5966 N 567.59 -1.07411 -1.15328 0
M  V30 5967 C 568.815 -0.818856 -1.90551 0
M  V30 5968 C 569.24 0.622194 -1.77512 0
M  V30 5969 O 568.598 1.43484 -1.10824 0
M  V30 5970 C 568.646 -1.23267 -3.38877 0
M  V30 5971 O 567.75 -0.378345 -4.10661 0
M  V30 5972 H 567.091 -0.29827 -0.593238 0
M  V30 5973 H 569.621 -1.43289 -1.46046 0
M  V30 5974 H 569.631 -1.20912 -3.89672 0
M  V30 5975 H 568.306 -2.28226 -3.47686 0
M  V30 5976 H 566.883 -0.464437 -3.69996 0
M  V30 5977 N 569.068 1.32177 -0.85831 0
M  V30 5978 C 570.296 2.01313 -0.477582 0
M  V30 5979 C 570.711 1.6449 0.926736 0
M  V30 5980 O 570.068 0.868096 1.60531 0
M  V30 5981 C 570.119 3.56293 -0.611337 0
M  V30 5982 O 569.84 3.91794 -1.96034 0
M  V30 5983 C 571.341 4.42702 -0.230093 0
M  V30 5984 H 568.561 0.644323 -0.187322 0
M  V30 5985 H 571.105 1.68674 -1.15626 0
M  V30 5986 H 569.26 3.87395 0.0196494 0
M  V30 5987 H 569.674 4.86513 -1.95973 0
M  V30 5988 H 571.148 5.50727 -0.374674 0
M  V30 5989 H 571.625 4.3129 0.829779 0
M  V30 5990 H 572.231 4.16997 -0.836302 0
M  V30 5991 N 570.547 0.616602 1.45037 0
M  V30 5992 C 571.494 -0.0969439 2.30596 0
M  V30 5993 C 572.464 -0.851151 1.42635 0
M  V30 5994 O 573.649 -0.835092 1.71554 0
M  V30 5995 C 570.789 -1.08234 3.27688 0
M  V30 5996 C 569.902 -0.328072 4.30752 0
M  V30 5997 C 569.037 -1.30399 5.14946 0
M  V30 5998 C 568.076 -0.538049 6.09731 0
M  V30 5999 N 567.213 -1.46371 6.86673 0
M  V30 6000 H 572.053 0.63864 2.91076 0
M  V30 6001 H 569.59 0.326733 1.43425 0
M  V30 6002 H 571.548 -1.66688 3.82454 0
M  V30 6003 H 570.178 -1.78523 2.68941 0
M  V30 6004 H 569.23 0.372136 3.78575 0
M  V30 6005 H 570.542 0.269142 4.98073 0
M  V30 6006 H 569.696 -1.96032 5.74157 0
M  V30 6007 H 568.435 -1.93514 4.47665 0
M  V30 6008 H 567.44 0.131852 5.49642 0
M  V30 6009 H 568.665 0.0881732 6.79043 0
M  V30 6010 H 566.611 -2.08233 6.22073 0
M  V30 6011 H 566.528 -0.920152 7.50379 0
M  V30 6012 H 567.796 -2.10932 7.50418 0
M  V30 6013 N 572.025 -1.5352 0.356285 0
M  V30 6014 C 573.255 -2.05236 -0.236983 0
M  V30 6015 C 573.663 -1.23016 -1.43749 0
M  V30 6016 O 573.006 -0.2615 -1.81829 0
M  V30 6017 C 573.068 -3.52549 -0.7035 0
M  V30 6018 C 572.732 -4.55425 0.379059 0
M  V30 6019 C 573.729 -5.0524 1.22592 0
M  V30 6020 C 571.414 -4.99425 0.536638 0
M  V30 6021 C 573.408 -5.97647 2.21578 0
M  V30 6022 C 571.095 -5.9164 1.52988 0
M  V30 6023 C 572.093 -6.4064 2.3679 0
M  V30 6024 O 571.781 -7.31039 3.34421 0
M  V30 6025 H 571.513 -0.674346 -0.047254 0
M  V30 6026 H 574.067 -1.98962 0.510238 0
M  V30 6027 H 572.297 -3.56331 -1.50217 0
M  V30 6028 H 573.986 -3.87171 -1.21873 0
M  V30 6029 H 574.752 -4.72002 1.11532 0
M  V30 6030 H 570.631 -4.60879 -0.105834 0
M  V30 6031 H 574.175 -6.35816 2.87025 0
M  V30 6032 H 570.072 -6.24293 1.64099 0
M  V30 6033 H 570.84 -7.49009 3.30041 0
M  V30 6034 N 573.503 -0.0852151 -1.57369 0
M  V30 6035 C 574.78 0.622534 -1.85429 0
M  V30 6036 C 575.16 1.86962 -0.980229 0
M  V30 6037 O 574.508 2.28445 -0.0500219 0
M  V30 6038 C 574.718 0.947374 -3.35896 0
M  V30 6039 C 576.066 1.31509 -4.03721 0
M  V30 6040 O 577.09 1.03869 -3.40719 0
M  V30 6041 O 575.949 1.83231 -5.14868 0
M  V30 6042 H 573.043 0.310513 -0.766492 0
M  V30 6043 H 575.589 -0.117164 -1.69295 0
M  V30 6044 H 574.361 0.0622264 -3.91251 0
M  V30 6045 H 573.984 1.74338 -3.5734 0
M  V30 6046 N 574.981 1.5647 0.188427 0
M  V30 6047 C 575.944 1.9421 1.21718 0
M  V30 6048 C 576.944 0.823901 1.38089 0
M  V30 6049 O 578.134 1.09122 1.35787 0
M  V30 6050 C 575.266 2.22197 2.58537 0
M  V30 6051 H 576.459 2.86252 0.894418 0
M  V30 6052 H 574.012 1.50263 0.430211 0
M  V30 6053 H 574.747 1.32814 2.95856 0
M  V30 6054 H 574.532 3.03688 2.48025 0
M  V30 6055 H 576.022 2.52376 3.3271 0
M  V30 6056 N 576.459 -0.456382 1.50847 0
M  V30 6057 C 577.87 -1.03685 1.55262 0
M  V30 6058 C 578.221 -1.92779 0.364771 0
M  V30 6059 O 577.346 -2.10043 -0.52068 0
M  V30 6060 C 577.941 -1.88718 2.81374 0
M  V30 6061 C 576.5 -2.41847 2.88422 0
M  V30 6062 C 575.647 -1.20564 2.49719 0
M  V30 6063 H 578.598 -0.238399 1.56899 0
M  V30 6064 H 578.619 -2.73957 2.6406 0
M  V30 6065 H 578.131 -1.23847 3.67809 0
M  V30 6066 H 576.232 -3.10228 2.06372 0
M  V30 6067 H 576.345 -2.75947 3.9165 0
M  V30 6068 H 574.709 -1.54504 2.02486 0
M  V30 6069 H 575.492 -0.573326 3.38479 0
M  V30 6070 N 577.937 -1.40673 -0.710563 0
M  V30 6071 C 579.184 -1.39222 -1.47049 0
M  V30 6072 C 579.512 0.0037691 -1.945 0
M  V30 6073 O 578.767 0.989224 -1.68857 0
M  V30 6074 C 579.066 -2.33253 -2.70791 0
M  V30 6075 C 578.732 -3.80406 -2.42079 0
M  V30 6076 C 577.394 -4.20496 -2.33959 0
M  V30 6077 C 579.746 -4.73375 -2.18094 0
M  V30 6078 C 577.074 -5.51584 -1.99929 0
M  V30 6079 C 579.426 -6.04768 -1.85576 0
M  V30 6080 C 578.09 -6.43895 -1.75941 0
M  V30 6081 H 577.36 -0.509449 -0.538092 0
M  V30 6082 H 580.007 -1.73363 -0.81348 0
M  V30 6083 H 578.312 -1.92314 -3.41354 0
M  V30 6084 H 580.009 -2.29412 -3.28894 0
M  V30 6085 H 576.599 -3.48645 -2.49288 0
M  V30 6086 H 580.783 -4.43217 -2.23321 0
M  V30 6087 H 576.039 -5.80797 -1.91011 0
M  V30 6088 H 580.213 -6.76318 -1.66033 0
M  V30 6089 H 577.84 -7.45387 -1.4934 0
M  V30 6090 N 579.415 0.9433 -1.26252 0
M  V30 6091 C 580.661 1.69175 -1.11837 0
M  V30 6092 C 580.994 1.91238 0.337891 0
M  V30 6093 O 580.269 1.49152 1.24836 0
M  V30 6094 C 580.552 3.06783 -1.88563 0
M  V30 6095 C 580.405 2.9206 -3.42083 0
M  V30 6096 C 581.724 4.06865 -1.67776 0
M  V30 6097 H 578.843 0.61399 -0.407658 0
M  V30 6098 H 581.485 1.09572 -1.55222 0
M  V30 6099 H 579.635 3.57663 -1.51689 0
M  V30 6100 H 581.307 2.48419 -3.88698 0
M  V30 6101 H 579.55 2.27731 -3.69217 0
M  V30 6102 H 580.221 3.89651 -3.90994 0
M  V30 6103 H 582.697 3.64939 -1.99897 0
M  V30 6104 H 581.573 5.01168 -2.23879 0
M  V30 6105 H 581.834 4.37705 -0.621816 0
M  V30 6106 N 580.893 1.08022 1.14757 0
M  V30 6107 C 582.14 0.807509 1.85703 0
M  V30 6108 C 582.468 -0.666617 1.8272 0
M  V30 6109 O 581.723 -1.50562 1.25018 0
M  V30 6110 C 582.022 1.26964 3.34088 0
M  V30 6111 C 581.688 2.7509 3.57262 0
M  V30 6112 C 580.35 3.15547 3.63296 0
M  V30 6113 C 582.702 3.70667 3.66409 0
M  V30 6114 C 580.03 4.50384 3.75994 0
M  V30 6115 C 582.382 5.05274 3.80632 0
M  V30 6116 C 581.046 5.45342 3.84913 0
M  V30 6117 H 580.316 0.295488 0.679535 0
M  V30 6118 H 582.963 1.35245 1.35577 0
M  V30 6119 H 581.268 0.644216 3.86467 0
M  V30 6120 H 582.965 1.03544 3.87401 0
M  V30 6121 H 579.555 2.42775 3.53212 0
M  V30 6122 H 583.739 3.40533 3.61041 0
M  V30 6123 H 578.995 4.80886 3.77569 0
M  V30 6124 H 583.169 5.79201 3.86652 0
M  V30 6125 H 580.796 6.49823 3.94505 0
M  V30 6126 N 582.371 -1.3172 0.865308 0
M  V30 6127 C 583.334 -2.26918 0.322627 0
M  V30 6128 C 584.334 -1.52031 -0.523751 0
M  V30 6129 O 585.524 -1.70973 -0.333727 0
M  V30 6130 C 582.656 -3.36558 -0.542338 0
M  V30 6131 H 583.849 -2.76432 1.16298 0
M  V30 6132 H 581.402 -1.42573 0.640512 0
M  V30 6133 H 582.137 -2.92329 -1.40407 0
M  V30 6134 H 581.922 -3.92048 0.0636395 0
M  V30 6135 H 583.412 -4.07465 -0.91446 0
M  V30 6136 N 583.85 -0.624285 -1.44708 0
M  V30 6137 C 584.76 0.0861083 -2.34442 0
M  V30 6138 C 585.776 0.84291 -1.5222 0
M  V30 6139 O 586.952 0.796723 -1.84971 0
M  V30 6140 C 584.017 1.05999 -3.30099 0
M  V30 6141 C 583.077 0.303316 -4.28227 0
M  V30 6142 C 582.311 1.23081 -5.19314 0
M  V30 6143 O 582.534 2.46929 -5.14181 0
M  V30 6144 O 581.468 0.71883 -5.97592 0
M  V30 6145 H 585.293 -0.651756 -2.96624 0
M  V30 6146 H 582.879 -0.384493 -1.44368 0
M  V30 6147 H 584.76 1.62046 -3.88997 0
M  V30 6148 H 583.436 1.77859 -2.70459 0
M  V30 6149 H 582.343 -0.300033 -3.72895 0
M  V30 6150 H 583.676 -0.375123 -4.90768 0
M  V30 6151 N 585.328 1.53329 -0.364422 0
M  V30 6152 C 586.574 2.01537 0.225969 0
M  V30 6153 C 586.907 1.25128 1.48515 0
M  V30 6154 O 586.182 0.344653 1.91422 0
M  V30 6155 C 586.465 3.56339 0.519092 0
M  V30 6156 C 586.318 4.43441 -0.753639 0
M  V30 6157 C 587.637 4.19833 1.32015 0
M  V30 6158 H 584.756 0.732573 0.0806548 0
M  V30 6159 H 587.398 1.83597 -0.489084 0
M  V30 6160 H 585.548 3.71756 1.12825 0
M  V30 6161 H 587.22 4.39823 -1.39116 0
M  V30 6162 H 585.463 4.11457 -1.37424 0
M  V30 6163 H 586.134 5.49699 -0.503517 0
M  V30 6164 H 588.61 4.08242 0.804859 0
M  V30 6165 H 587.486 5.28177 1.49399 0
M  V30 6166 H 587.747 3.75821 2.32832 0
M  V30 6167 N 586.806 0.0935595 1.57322 0
M  V30 6168 C 587.754 -0.883457 2.15169 0
M  V30 6169 C 588.748 -1.29324 1.09415 0
M  V30 6170 O 589.954 -1.26795 1.27762 0
M  V30 6171 H 586.329 -0.302923 0.688289 0
M  V30 6172 H 588.3 -0.370845 2.96087 0
M  V30 6173 C 587.049 -2.13345 2.74552 0
M  V30 6174 H 586.372 -1.82702 3.55612 0
M  V30 6175 H 587.812 -2.7977 3.18598 0
M  V30 6176 C 586.271 -2.90646 1.70371 0
M  V30 6177 O 586.801 -3.85133 1.14173 0
M  V30 6178 N 585.007 -2.54157 1.40899 0
M  V30 6179 H 584.554 -1.77391 1.86789 0
M  V30 6180 H 584.512 -3.06178 0.714301 0
M  V30 6181 N 588.284 -1.56567 -0.180126 0
M  V30 6182 C 589.247 -1.94852 -1.20686 0
M  V30 6183 C 590.247 -0.831212 -1.3765 0
M  V30 6184 O 591.437 -1.09841 -1.35206 0
M  V30 6185 C 588.569 -2.23565 -2.57355 0
M  V30 6186 H 589.762 -2.86722 -0.879225 0
M  V30 6187 H 587.315 -1.50489 -0.422237 0
M  V30 6188 H 588.05 -1.34381 -2.95148 0
M  V30 6189 H 587.835 -3.04999 -2.46411 0
M  V30 6190 H 589.325 -2.54137 -3.31367 0
M  V30 6191 N 589.762 0.448376 -1.51087 0
M  V30 6192 C 591.039 1.20926 -1.53741 0
M  V30 6193 C 591.419 2.09025 -0.295222 0
M  V30 6194 O 590.767 2.16851 0.720283 0
M  V30 6195 C 590.977 2.02067 -2.84552 0
M  V30 6196 C 592.325 2.59486 -3.36084 0
M  V30 6197 O 593.349 2.12289 -2.86028 0
M  V30 6198 O 592.208 3.45539 -4.23397 0
M  V30 6199 H 589.302 0.549951 -0.617643 0
M  V30 6200 H 591.848 0.458344 -1.63393 0
M  V30 6201 H 590.62 1.37291 -3.66425 0
M  V30 6202 H 590.243 2.84246 -2.78011 0
M  V30 6203 N 591.24 1.41047 0.703093 0
M  V30 6204 C 592.486 1.40207 1.46526 0
M  V30 6205 C 592.819 0.00847763 1.94198 0
M  V30 6206 O 592.094 -0.962437 1.69019 0
M  V30 6207 C 592.377 2.40238 2.6825 0
M  V30 6208 C 592.23 3.88674 2.26391 0
M  V30 6209 C 593.549 2.37627 3.70434 0
M  V30 6210 H 590.668 0.510594 0.531472 0
M  V30 6211 H 593.31 1.72271 0.801422 0
M  V30 6212 H 591.46 2.13026 3.24888 0
M  V30 6213 H 593.132 4.2676 1.75138 0
M  V30 6214 H 591.375 4.03903 1.58255 0
M  V30 6215 H 592.046 4.542 3.13698 0
M  V30 6216 H 594.522 2.61759 3.23452 0
M  V30 6217 H 593.398 3.09645 4.53223 0
M  V30 6218 H 593.659 1.39223 4.19606 0
M  V30 6219 N 592.718 -0.936591 1.26751 0
M  V30 6220 C 593.964 -1.6858 1.12733 0
M  V30 6221 C 594.297 -1.91414 -0.327745 0
M  V30 6222 O 593.572 -1.49812 -1.24043 0
M  V30 6223 C 593.855 -3.05779 1.90187 0
M  V30 6224 C 593.708 -2.90242 3.43627 0
M  V30 6225 C 595.027 -4.0597 1.69931 0
M  V30 6226 H 592.146 -0.61182 0.410908 0
M  V30 6227 H 594.788 -1.08747 1.55801 0
M  V30 6228 H 592.938 -3.56853 1.53584 0
M  V30 6229 H 594.61 -2.46354 3.9001 0
M  V30 6230 H 592.853 -2.2577 3.70419 0
M  V30 6231 H 593.524 -3.87572 3.93055 0
M  V30 6232 H 596 -3.63874 2.0183 0
M  V30 6233 H 594.876 -4.99974 2.26534 0
M  V30 6234 H 595.137 -4.37369 0.64502 0
M  V30 6235 N 594.196 -1.08629 -1.14182 0
M  V30 6236 C 595.473 -0.73002 -1.81466 0
M  V30 6237 C 595.853 0.785996 -1.95922 0
M  V30 6238 O 595.201 1.70535 -1.52086 0
M  V30 6239 C 595.411 -1.45957 -3.17014 0
M  V30 6240 C 596.759 -1.62008 -3.92477 0
M  V30 6241 O 597.783 -1.42141 -3.26611 0
M  V30 6242 O 596.642 -1.94806 -5.106 0
M  V30 6243 H 593.736 -0.261307 -0.784632 0
M  V30 6244 H 596.282 -1.188 -1.2118 0
M  V30 6245 H 595.054 -2.49221 -3.01669 0
M  V30 6246 H 594.677 -0.993222 -3.84995 0
M  V30 6247 N 595.674 1.31259 -0.872281 0
M  V30 6248 C 596.92 1.973 -0.494414 0
M  V30 6249 C 597.275 1.67684 0.94339 0
M  V30 6250 O 596.568 0.964186 1.65572 0
M  V30 6251 C 596.762 3.50659 -0.690889 0
M  V30 6252 C 596.591 3.95179 -2.14624 0
M  V30 6253 C 595.361 4.21405 -2.7883 0
M  V30 6254 C 597.559 4.08948 -3.11875 0
M  V30 6255 N 595.541 4.52295 -4.15093 0
M  V30 6256 C 596.912 4.43576 -4.33174 0
M  V30 6257 C 598.967 3.91334 -3.07835 0
M  V30 6258 C 597.67 4.62429 -5.50956 0
M  V30 6259 C 599.696 4.11381 -4.24876 0
M  V30 6260 C 599.058 4.46343 -5.44938 0
M  V30 6261 H 595.157 0.747411 -0.230002 0
M  V30 6262 H 597.741 1.58741 -1.12736 0
M  V30 6263 H 595.912 3.88301 -0.0875162 0
M  V30 6264 H 597.644 4.03722 -0.281179 0
M  V30 6265 H 594.399 4.14131 -2.29767 0
M  V30 6266 H 594.823 4.71897 -4.8543 0
M  V30 6267 H 599.465 3.6339 -2.16119 0
M  V30 6268 H 597.183 4.8922 -6.43187 0
M  V30 6269 H 600.769 3.99235 -4.23205 0
M  V30 6270 H 599.649 4.6154 -6.33996 0
M  V30 6271 N 597.152 0.631951 1.44375 0
M  V30 6272 C 598.401 0.134214 2.01253 0
M  V30 6273 C 598.714 -1.25171 1.50305 0
M  V30 6274 O 599.92 -1.8435 1.99317 0
M  V30 6275 C 598.376 0.189187 3.59402 0
M  V30 6276 C 597.984 1.57647 4.19346 0
M  V30 6277 C 599.728 -0.252044 4.23751 0
M  V30 6278 C 597.635 1.58651 5.69722 0
M  V30 6279 H 596.565 0.0464101 0.75257 0
M  V30 6280 H 599.216 0.790868 1.65582 0
M  V30 6281 H 597.598 -0.534584 3.92375 0
M  V30 6282 H 598.772 2.32389 3.97909 0
M  V30 6283 H 597.087 1.96186 3.67288 0
M  V30 6284 H 599.684 -0.264084 5.34047 0
M  V30 6285 H 600.027 -1.27951 3.96149 0
M  V30 6286 H 600.56 0.41926 3.95584 0
M  V30 6287 H 597.299 2.59237 6.0206 0
M  V30 6288 H 596.819 0.882039 5.93279 0
M  V30 6289 H 598.498 1.32082 6.33375 0
M  V30 6290 N 598.631 -1.53133 0.372548 0
M  V30 6291 C 599.563 -2.23557 -0.505444 0
M  V30 6292 C 600.576 -1.25211 -1.04049 0
M  V30 6293 O 601.765 -1.51391 -0.945675 0
M  V30 6294 C 598.865 -2.92516 -1.71136 0
M  V30 6295 C 598.038 -4.17428 -1.30661 0
M  V30 6296 C 597.097 -4.69535 -2.37536 0
M  V30 6297 O 596.123 -5.33042 -1.99637 0
M  V30 6298 N 597.325 -4.47947 -3.6922 0
M  V30 6299 H 600.09 -2.9954 0.0978259 0
M  V30 6300 H 597.651 -1.60684 0.198068 0
M  V30 6301 H 599.643 -3.24281 -2.42124 0
M  V30 6302 H 598.213 -2.19944 -2.22134 0
M  V30 6303 H 597.433 -3.91888 -0.426292 0
M  V30 6304 H 598.721 -4.98622 -1.01259 0
M  V30 6305 H 598.119 -3.97219 -4.02783 0
M  V30 6306 H 596.676 -4.84245 -4.36292 0
M  V30 6307 N 600.109 -0.101901 -1.5727 0
M  V30 6308 C 601.041 0.884723 -2.11436 0
M  V30 6309 C 602.054 1.24149 -1.05314 0
M  V30 6310 O 603.243 1.19341 -1.3274 0
M  V30 6311 C 600.343 2.19179 -2.58484 0
M  V30 6312 C 599.516 2.00933 -3.88516 0
M  V30 6313 C 598.575 3.15213 -4.2134 0
M  V30 6314 O 597.601 2.88877 -4.90448 0
M  V30 6315 N 598.803 4.41174 -3.77288 0
M  V30 6316 H 601.568 0.422058 -2.96713 0
M  V30 6317 H 599.129 0.0830128 -1.61687 0
M  V30 6318 H 601.121 2.94593 -2.77484 0
M  V30 6319 H 599.691 2.56847 -1.7818 0
M  V30 6320 H 598.911 1.09809 -3.78597 0
M  V30 6321 H 600.199 1.86026 -4.73573 0
M  V30 6322 H 599.597 4.6545 -3.21516 0
M  V30 6323 H 598.154 5.13515 -4.01429 0
M  V30 6324 N 601.587 1.56661 0.17182 0
M  V30 6325 C 602.864 1.72838 0.915778 0
M  V30 6326 C 603.244 0.66316 2.00413 0
M  V30 6327 O 602.592 -0.322123 2.26218 0
M  V30 6328 C 602.802 3.16019 1.48097 0
M  V30 6329 C 604.15 3.76962 1.95408 0
M  V30 6330 O 605.174 3.19294 1.57892 0
M  V30 6331 O 604.033 4.78219 2.64516 0
M  V30 6332 H 601.127 0.705797 0.431021 0
M  V30 6333 H 603.673 1.68947 0.159689 0
M  V30 6334 H 602.445 3.85031 0.697618 0
M  V30 6335 H 602.068 3.24234 2.30126 0
M  V30 6336 N 603.065 -0.440357 1.51323 0
M  V30 6337 C 604.342 -1.20109 1.5438 0
M  V30 6338 C 604.722 -2.08866 0.306303 0
M  V30 6339 O 604.07 -2.1723 -0.708773 0
M  V30 6340 C 604.28 -2.00555 2.8562 0
M  V30 6341 C 605.628 -2.577 3.37455 0
M  V30 6342 O 606.652 -2.10769 2.8715 0
M  V30 6343 O 605.511 -3.43289 4.25224 0
M  V30 6344 H 602.605 -0.546668 0.620551 0
M  V30 6345 H 605.151 -0.449672 1.63634 0
M  V30 6346 H 603.923 -1.35346 3.67147 0
M  V30 6347 H 603.546 -2.82768 2.79514 0
M  V30 6348 N 604.543 -1.41418 -0.695603 0
M  V30 6349 C 605.791 -1.40496 -1.45277 0
M  V30 6350 C 606.112 -0.0149538 -1.94994 0
M  V30 6351 O 605.382 0.9432 -1.71699 0
M  V30 6352 H 603.962 -0.517147 -0.539044 0
M  V30 6353 H 606.624 -1.76656 -0.823321 0
M  V30 6354 H 605.72 -2.09214 -2.31595 0
M  V30 6355 N 606.021 0.929856 -1.27246 0
M  V30 6356 C 607.246 1.71674 -1.16374 0
M  V30 6357 C 607.671 1.86064 0.276024 0
M  V30 6358 O 607.029 1.3591 1.19992 0
M  V30 6359 C 607.077 3.09526 -1.85003 0
M  V30 6360 O 606.181 3.96142 -1.14653 0
M  V30 6361 H 605.522 0.52629 -0.404863 0
M  V30 6362 H 608.052 1.16381 -1.68276 0
M  V30 6363 H 608.062 3.59852 -1.92276 0
M  V30 6364 H 606.737 2.98369 -2.89739 0
M  V30 6365 H 605.314 3.54584 -1.15433 0
M  V30 6366 N 607.499 1.09233 1.13605 0
M  V30 6367 C 608.745 0.828385 1.8511 0
M  V30 6368 C 609.078 -0.64437 1.83198 0
M  V30 6369 O 608.353 -1.47428 1.26867 0
M  V30 6370 C 608.636 1.36167 3.33363 0
M  V30 6371 C 608.489 2.90038 3.438 0
M  V30 6372 C 609.808 0.993819 4.28732 0
M  V30 6373 H 606.927 0.30239 0.672108 0
M  V30 6374 H 609.569 1.35339 1.33355 0
M  V30 6375 H 607.719 0.9151 3.77569 0
M  V30 6376 H 609.391 3.43128 3.08319 0
M  V30 6377 H 607.634 3.27271 2.84739 0
M  V30 6378 H 608.305 3.22428 4.48045 0
M  V30 6379 H 610.781 1.37893 3.92587 0
M  V30 6380 H 609.657 1.39403 5.30903 0
M  V30 6381 H 609.918 -0.0982206 4.41991 0
M  V30 6382 N 608.977 -1.30795 0.87923 0
M  V30 6383 C 609.927 -2.25838 0.313276 0
M  V30 6384 C 610.911 -1.51025 -0.55499 0
M  V30 6385 O 612.103 -1.72413 -0.400353 0
M  V30 6386 C 609.232 -3.39981 -0.476204 0
M  V30 6387 C 608.318 -4.22154 0.405826 0
M  V30 6388 N 608.709 -4.82934 1.50362 0
M  V30 6389 C 607.007 -4.45552 0.199909 0
M  V30 6390 C 607.708 -5.44444 2.0483 0
M  V30 6391 N 606.684 -5.26723 1.34403 0
M  V30 6392 H 610.486 -2.70374 1.15218 0
M  V30 6393 H 608 -1.45168 0.728003 0
M  V30 6394 H 609.997 -4.07108 -0.898251 0
M  V30 6395 H 608.657 -2.96986 -1.31261 0
M  V30 6396 H 609.668 -4.82319 1.8865 0
M  V30 6397 H 606.345 -4.13169 -0.599795 0
M  V30 6398 H 607.735 -6.02701 2.96986 0
M  V30 6399 N 610.455 -0.639598 -1.44038 0
M  V30 6400 C 611.402 0.0602458 -2.30721 0
M  V30 6401 C 612.372 0.828352 -1.43971 0
M  V30 6402 O 613.557 0.807693 -1.72861 0
M  V30 6403 C 610.697 1.03008 -3.29368 0
M  V30 6404 C 609.81 0.259502 -4.3122 0
M  V30 6405 C 608.945 1.22191 -5.16955 0
M  V30 6406 C 607.984 0.440978 -6.10509 0
M  V30 6407 N 607.121 1.35428 -6.88915 0
M  V30 6408 H 611.961 -0.684867 -2.90023 0
M  V30 6409 H 609.498 -0.349509 -1.42888 0
M  V30 6410 H 611.456 1.60583 -3.85057 0
M  V30 6411 H 610.086 1.74222 -2.71747 0
M  V30 6412 H 609.138 -0.432317 -3.77935 0
M  V30 6413 H 610.45 -0.348347 -4.97582 0
M  V30 6414 H 609.604 1.86873 -5.77203 0
M  V30 6415 H 608.343 1.86367 -4.50687 0
M  V30 6416 H 607.348 -0.219279 -5.49363 0
M  V30 6417 H 608.573 -0.196192 -6.78817 0
M  V30 6418 H 606.519 1.9831 -6.25307 0
M  V30 6419 H 606.436 0.800657 -7.51748 0
M  V30 6420 H 607.704 1.98967 -7.53679 0
M  V30 6421 N 611.933 1.52934 -0.380664 0
M  V30 6422 C 613.158 2.06363 0.207157 0
M  V30 6423 C 613.583 1.25122 1.4045 0
M  V30 6424 O 612.941 0.274062 1.79217 0
M  V30 6425 C 612.989 3.56162 0.563996 0
M  V30 6426 O 612.093 3.77552 1.65917 0
M  V30 6427 H 611.434 0.663468 0.0265859 0
M  V30 6428 H 613.964 1.9719 -0.545635 0
M  V30 6429 H 613.974 3.99453 0.830752 0
M  V30 6430 H 612.649 4.14732 -0.311427 0
M  V30 6431 H 611.226 3.46154 1.3868 0
M  V30 6432 N 613.412 0.11024 1.57214 0
M  V30 6433 C 614.661 -0.549638 1.94067 0
M  V30 6434 C 614.974 -1.68388 0.995234 0
M  V30 6435 O 616.18 -2.40593 1.25807 0
M  V30 6436 C 614.636 -1.02912 3.44873 0
M  V30 6437 C 614.244 0.0761861 4.47935 0
M  V30 6438 C 615.988 -1.66087 3.9066 0
M  V30 6439 C 613.895 -0.419502 5.8991 0
M  V30 6440 H 612.825 -0.209092 0.724428 0
M  V30 6441 H 615.476 0.188683 1.82527 0
M  V30 6442 H 613.858 -1.82159 3.51616 0
M  V30 6443 H 615.032 0.852185 4.52851 0
M  V30 6444 H 613.347 0.614052 4.11847 0
M  V30 6445 H 615.944 -2.04272 4.94143 0
M  V30 6446 H 616.287 -2.53591 3.30148 0
M  V30 6447 H 616.82 -0.933959 3.86681 0
M  V30 6448 H 613.559 0.419277 6.54158 0
M  V30 6449 H 613.079 -1.16217 5.88433 0
M  V30 6450 H 614.758 -0.883577 6.40938 0
M  V30 6451 N 614.89 -1.56749 -0.16351 0
M  V30 6452 C 615.838 -1.97939 -1.22159 0
M  V30 6453 C 616.832 -0.869288 -1.45395 0
M  V30 6454 O 618.038 -1.05443 -1.45883 0
M  V30 6455 H 614.413 -0.629869 -0.410815 0
M  V30 6456 H 616.384 -2.86115 -0.847381 0
M  V30 6457 C 615.133 -2.36206 -2.55151 0
M  V30 6458 H 614.456 -3.2117 -2.38097 0
M  V30 6459 H 615.896 -2.68863 -3.27854 0
M  V30 6460 C 614.355 -1.20841 -3.14482 0
M  V30 6461 O 614.885 -0.500258 -3.98573 0
M  V30 6462 N 613.091 -0.976943 -2.73686 0
M  V30 6463 H 612.638 -1.55457 -2.05404 0
M  V30 6464 H 612.596 -0.206912 -3.13718 0
M  V30 6465 N 616.368 0.432326 -1.51554 0
M  V30 6466 C 617.784 0.769195 -1.39841 0
M  V30 6467 C 617.984 1.95584 -0.484675 0
M  V30 6468 O 617.04 2.52433 0.0582829 0
M  V30 6469 C 618.353 1.04487 -2.81963 0
M  V30 6470 C 619.901 1.149 -2.91148 0
M  V30 6471 C 620.376 1.45758 -4.34187 0
M  V30 6472 N 621.867 1.52671 -4.37317 0
M  V30 6473 C 622.602 1.78129 -5.4503 0
M  V30 6474 N 622.098 2.01345 -6.62897 0
M  V30 6475 N 623.891 1.79953 -5.32516 0
M  V30 6476 H 616.042 -0.349122 -2.09511 0
M  V30 6477 H 618.305 -0.0938113 -0.943347 0
M  V30 6478 H 618.011 0.24557 -3.50842 0
M  V30 6479 H 617.885 1.97119 -3.21596 0
M  V30 6480 H 620.272 1.93891 -2.22464 0
M  V30 6481 H 620.353 0.201568 -2.55005 0
M  V30 6482 H 619.997 0.672917 -5.03423 0
M  V30 6483 H 619.927 2.41715 -4.67848 0
M  V30 6484 H 622.418 1.36612 -3.52343 0
M  V30 6485 H 622.731 2.20155 -7.40778 0
M  V30 6486 H 621.076 1.98657 -6.66003 0
M  V30 6487 H 624.267 1.61337 -4.39418 0
M  V30 6488 H 624.44 1.99455 -6.1654 0
M  V30 6489 N 617.846 1.41785 0.688094 0
M  V30 6490 C 619.071 1.45117 1.48175 0
M  V30 6491 C 619.496 0.060129 1.88004 0
M  V30 6492 O 618.854 -0.938385 1.55126 0
M  V30 6493 C 618.902 2.37224 2.71583 0
M  V30 6494 O 618.006 1.83443 3.69354 0
M  V30 6495 H 617.347 0.492208 0.445676 0
M  V30 6496 H 619.877 1.86329 0.845145 0
M  V30 6497 H 619.887 2.53353 3.19806 0
M  V30 6498 H 618.562 3.38293 2.41931 0
M  V30 6499 H 617.139 1.76802 3.28322 0
M  V30 6500 N 619.324 -0.923095 1.27737 0
M  V30 6501 C 620.254 -2.04124 1.13383 0
M  V30 6502 C 621.235 -1.70066 0.0340658 0
M  V30 6503 O 622.42 -1.93068 0.209383 0
M  V30 6504 C 619.55 -3.3831 0.785097 0
M  V30 6505 C 618.504 -3.86496 1.8386 0
M  V30 6506 C 617.83 -5.1754 1.34373 0
M  V30 6507 C 619.13 -4.09381 3.24353 0
M  V30 6508 H 620.824 -2.1639 2.06919 0
M  V30 6509 H 618.37 -1.03976 0.996243 0
M  V30 6510 H 620.323 -4.16016 0.671485 0
M  V30 6511 H 619.047 -3.2607 -0.185969 0
M  V30 6512 H 617.706 -3.10987 1.9412 0
M  V30 6513 H 617.354 -5.01696 0.361989 0
M  V30 6514 H 617.054 -5.50751 2.04811 0
M  V30 6515 H 618.578 -5.97811 1.24315 0
M  V30 6516 H 619.992 -4.77641 3.17067 0
M  V30 6517 H 618.389 -4.53906 3.92542 0
M  V30 6518 H 619.459 -3.14515 3.69064 0
M  V30 6519 N 620.802 -1.09834 -1.13024 0
M  V30 6520 C 622.051 -0.831806 -1.83749 0
M  V30 6521 C 622.364 0.644763 -1.84668 0
M  V30 6522 O 623.57 1.02697 -2.51327 0
M  V30 6523 C 622.026 -1.43817 -3.29916 0
M  V30 6524 C 621.634 -2.94759 -3.37374 0
M  V30 6525 C 623.378 -1.25077 -4.05655 0
M  V30 6526 C 621.285 -3.48461 -4.77838 0
M  V30 6527 H 620.215 -0.30751 -0.688443 0
M  V30 6528 H 622.866 -1.32156 -1.27307 0
M  V30 6529 H 621.248 -0.876106 -3.86187 0
M  V30 6530 H 622.422 -3.57228 -2.91076 0
M  V30 6531 H 620.737 -3.12581 -2.75103 0
M  V30 6532 H 623.334 -1.62649 -5.09362 0
M  V30 6533 H 623.677 -0.191782 -4.15858 0
M  V30 6534 H 624.21 -1.78057 -3.55725 0
M  V30 6535 H 620.949 -4.53998 -4.72828 0
M  V30 6536 H 620.469 -2.90757 -5.24615 0
M  V30 6537 H 622.148 -3.45914 -5.46766 0
M  V30 6538 N 622.28 1.30327 -0.886154 0
M  V30 6539 C 623.526 1.96388 -0.505941 0
M  V30 6540 C 623.859 1.69784 0.942712 0
M  V30 6541 O 623.134 1.00322 1.6663 0
M  V30 6542 C 623.417 3.51488 -0.782826 0
M  V30 6543 C 623.27 3.87603 -2.28219 0
M  V30 6544 C 624.589 4.39331 -0.260128 0
M  V30 6545 H 621.708 0.713327 -0.185292 0
M  V30 6546 H 624.35 1.54178 -1.11036 0
M  V30 6547 H 622.5 3.87572 -0.268399 0
M  V30 6548 H 624.172 3.61537 -2.86512 0
M  V30 6549 H 622.415 3.3563 -2.74837 0
M  V30 6550 H 623.086 4.95806 -2.42653 0
M  V30 6551 H 625.562 4.10162 -0.700444 0
M  V30 6552 H 624.438 5.46769 -0.483179 0
M  V30 6553 H 624.699 4.34072 0.838674 0
M  V30 6554 N 623.758 0.647228 1.43697 0
M  V30 6555 C 625.006 0.157876 2.01482 0
M  V30 6556 C 625.327 -1.23039 1.51282 0
M  V30 6557 O 624.597 -1.82071 0.722982 0
M  V30 6558 H 623.177 0.0553745 0.744945 0
M  V30 6559 H 625.839 0.83755 1.75986 0
M  V30 6560 H 624.935 0.137895 3.11795 0
M  V30 6561 N 625.236 -1.5273 0.388769 0
M  V30 6562 C 626.166 -2.29353 -0.438111 0
M  V30 6563 C 627.147 -1.32719 -1.06394 0
M  V30 6564 O 628.332 -1.61612 -1.07681 0
M  V30 6565 C 625.462 -3.09995 -1.56589 0
M  V30 6566 C 624.416 -4.14509 -1.06613 0
M  V30 6567 C 623.742 -4.83372 -2.28594 0
M  V30 6568 C 625.042 -5.22127 -0.134459 0
M  V30 6569 H 626.736 -2.98723 0.201206 0
M  V30 6570 H 624.282 -1.43665 0.0982089 0
M  V30 6571 H 626.235 -3.62357 -2.15118 0
M  V30 6572 H 624.959 -2.38357 -2.23279 0
M  V30 6573 H 623.618 -3.63128 -0.503383 0
M  V30 6574 H 623.266 -4.08283 -2.93792 0
M  V30 6575 H 622.966 -5.54012 -1.95817 0
M  V30 6576 H 624.49 -5.38538 -2.87766 0
M  V30 6577 H 625.904 -5.69851 -0.627914 0
M  V30 6578 H 624.301 -6.00011 0.103534 0
M  V30 6579 H 625.371 -4.77971 0.816798 0
M  V30 6580 N 626.714 -0.118576 -1.57153 0
M  V30 6581 C 627.661 0.831789 -2.1529 0
M  V30 6582 C 628.631 1.26385 -1.07778 0
M  V30 6583 O 629.816 1.34144 -1.35684 0
M  V30 6584 C 626.956 2.07664 -2.75626 0
M  V30 6585 C 626.069 1.69298 -3.97444 0
M  V30 6586 C 625.204 2.88747 -4.45868 0
M  V30 6587 C 624.243 2.46619 -5.60219 0
M  V30 6588 N 623.38 3.5898 -6.03389 0
M  V30 6589 H 628.22 0.329183 -2.96176 0
M  V30 6590 H 625.757 0.150792 -1.46325 0
M  V30 6591 H 627.715 2.80601 -3.08738 0
M  V30 6592 H 626.345 2.55384 -1.97431 0
M  V30 6593 H 625.397 0.862374 -3.70496 0
M  V30 6594 H 626.709 1.34338 -4.80369 0
M  V30 6595 H 625.863 3.69909 -4.80887 0
M  V30 6596 H 624.602 3.26933 -3.61892 0
M  V30 6597 H 623.607 1.63889 -5.24805 0
M  V30 6598 H 624.832 2.0955 -6.45961 0
M  V30 6599 H 622.778 3.9684 -5.22354 0
M  V30 6600 H 622.695 3.27942 -6.81168 0
M  V30 6601 H 623.963 4.40583 -6.43045 0
M  V30 6602 N 628.193 1.56834 0.155195 0
M  V30 6603 C 629.442 1.82088 0.867567 0
M  V30 6604 C 629.755 0.69849 1.82703 0
M  V30 6605 O 630.961 0.836407 2.58295 0
M  V30 6606 C 629.417 3.22707 1.59336 0
M  V30 6607 C 629.025 4.42859 0.676719 0
M  V30 6608 C 630.769 3.57242 2.293 0
M  V30 6609 C 628.676 5.74501 1.40367 0
M  V30 6610 H 627.606 0.679057 0.327715 0
M  V30 6611 H 630.257 1.83105 0.120351 0
M  V30 6612 H 628.639 3.16054 2.38591 0
M  V30 6613 H 629.813 4.60731 -0.0800196 0
M  V30 6614 H 628.128 4.16311 0.0859129 0
M  V30 6615 H 630.725 4.52847 2.84312 0
M  V30 6616 H 631.068 2.82901 3.05406 0
M  V30 6617 H 631.601 3.6552 1.56972 0
M  V30 6618 H 628.34 6.51915 0.684623 0
M  V30 6619 H 627.86 5.60579 2.13332 0
M  V30 6620 H 629.539 6.17016 1.94681 0
M  V30 6621 N 629.671 -0.424282 1.51781 0
M  V30 6622 C 630.896 -1.19928 1.6921 0
M  V30 6623 C 631.321 -1.8392 0.394355 0
M  V30 6624 O 630.679 -1.69371 -0.646778 0
M  V30 6625 C 630.727 -2.24937 2.81843 0
M  V30 6626 O 629.831 -3.3073 2.46356 0
M  V30 6627 H 629.172 -0.35078 0.563781 0
M  V30 6628 H 631.702 -0.499401 1.98412 0
M  V30 6629 H 631.712 -2.69512 3.06312 0
M  V30 6630 H 630.387 -1.77742 3.76006 0
M  V30 6631 H 628.964 -2.9154 2.32505 0
M  V30 6632 N 631.149 -1.42148 -0.680565 0
M  V30 6633 C 632.377 -1.45696 -1.46902 0
M  V30 6634 C 632.792 -0.0665858 -1.88683 0
M  V30 6635 O 632.149 0.917436 -1.57764 0
M  V30 6636 C 632.2 -2.37898 -2.72188 0
M  V30 6637 O 631.921 -3.71526 -2.32163 0
M  V30 6638 C 633.422 -2.50407 -3.65802 0
M  V30 6639 H 630.642 -0.495729 -0.45221 0
M  V30 6640 H 633.186 -1.866 -0.836709 0
M  V30 6641 H 631.341 -2.00263 -3.31622 0
M  V30 6642 H 631.755 -4.20849 -3.13027 0
M  V30 6643 H 633.229 -3.19056 -4.50452 0
M  V30 6644 H 633.706 -1.5401 -4.11312 0
M  V30 6645 H 634.312 -2.8874 -3.12265 0
M  V30 6646 N 632.627 0.916307 -1.28225 0
M  V30 6647 C 633.574 2.01841 -1.11932 0
M  V30 6648 C 634.544 1.66091 -0.0171604 0
M  V30 6649 O 635.729 1.89934 -0.181617 0
M  V30 6650 C 632.869 3.36065 -0.784504 0
M  V30 6651 C 631.982 3.847 -1.96544 0
M  V30 6652 C 631.117 5.07423 -1.57149 0
M  V30 6653 C 630.156 5.48384 -2.71922 0
M  V30 6654 N 629.293 6.62298 -2.33037 0
M  V30 6655 H 634.133 2.1511 -2.06232 0
M  V30 6656 H 631.67 1.05366 -1.02647 0
M  V30 6657 H 633.628 4.13272 -0.571148 0
M  V30 6658 H 632.258 3.22571 0.121565 0
M  V30 6659 H 631.31 3.03673 -2.291 0
M  V30 6660 H 632.622 4.1102 -2.82603 0
M  V30 6661 H 631.776 5.92165 -1.32004 0
M  V30 6662 H 630.515 4.82906 -0.682153 0
M  V30 6663 H 629.52 4.62184 -2.97768 0
M  V30 6664 H 630.745 5.7489 -3.61494 0
M  V30 6665 H 628.691 6.39416 -1.4657 0
M  V30 6666 H 628.608 6.8833 -3.12631 0
M  V30 6667 H 629.876 7.50352 -2.11169 0
M  V30 6668 N 634.105 1.10431 1.1244 0
M  V30 6669 C 635.33 0.869089 1.88313 0
M  V30 6670 C 635.755 -0.574912 1.79099 0
M  V30 6671 O 635.113 -1.40496 1.14589 0
M  V30 6672 C 635.161 1.32208 3.3549 0
M  V30 6673 O 634.265 0.487092 4.09513 0
M  V30 6674 H 633.606 0.313894 0.585121 0
M  V30 6675 H 636.136 1.47111 1.42195 0
M  V30 6676 H 636.146 1.31201 3.86329 0
M  V30 6677 H 634.821 2.37364 3.41513 0
M  V30 6678 H 633.398 0.562372 3.68635 0
M  V30 6679 N 635.583 -1.29855 0.893053 0
M  V30 6680 C 636.829 -1.96116 0.516349 0
M  V30 6681 C 637.162 -1.70281 -0.933695 0
M  V30 6682 O 636.437 -1.01205 -1.66096 0
M  V30 6683 C 636.72 -3.51068 0.801455 0
M  V30 6684 C 636.573 -3.86387 2.30272 0
M  V30 6685 C 637.892 -4.39186 0.283423 0
M  V30 6686 H 635.011 -0.712335 0.189072 0
M  V30 6687 H 637.653 -1.53587 1.11852 0
M  V30 6688 H 635.803 -3.87424 0.288949 0
M  V30 6689 H 637.475 -3.60012 2.88425 0
M  V30 6690 H 635.718 -3.34167 2.76613 0
M  V30 6691 H 636.389 -4.94512 2.45279 0
M  V30 6692 H 638.865 -4.09785 0.722187 0
M  V30 6693 H 637.741 -5.46505 0.512169 0
M  V30 6694 H 638.002 -4.34511 -0.815643 0
M  V30 6695 N 637.061 -0.65484 -1.43351 0
M  V30 6696 C 638.309 -0.168559 -2.01396 0
M  V30 6697 C 638.63 1.22235 -1.51933 0
M  V30 6698 O 637.9 1.81685 -0.732627 0
M  V30 6699 H 636.48 -0.0593244 -0.744641 0
M  V30 6700 H 639.142 -0.846871 -1.75539 0
M  V30 6701 H 638.238 -0.154428 -3.11718 0
M  V30 6702 N 638.539 1.52521 -0.396863 0
M  V30 6703 C 639.955 1.5953 -0.0471659 0
M  V30 6704 C 640.155 1.41044 1.43906 0
M  V30 6705 O 639.211 1.23122 2.20448 0
M  V30 6706 C 640.524 2.95972 -0.531113 0
M  V30 6707 C 642.072 3.09172 -0.488024 0
M  V30 6708 C 642.547 4.48075 -0.948281 0
M  V30 6709 N 644.038 4.54281 -0.9046 0
M  V30 6710 C 644.773 5.60007 -1.23205 0
M  V30 6711 N 644.269 6.73343 -1.63036 0
M  V30 6712 N 646.062 5.50151 -1.15282 0
M  V30 6713 H 638.213 1.62786 -1.36435 0
M  V30 6714 H 640.476 0.76514 -0.559701 0
M  V30 6715 H 640.182 3.14741 -1.56942 0
M  V30 6716 H 640.056 3.77143 0.0657922 0
M  V30 6717 H 642.443 2.90095 0.541211 0
M  V30 6718 H 642.524 2.29937 -1.12083 0
M  V30 6719 H 642.168 4.67894 -1.97578 0
M  V30 6720 H 642.098 5.25788 -0.292412 0
M  V30 6721 H 644.589 3.72918 -0.6116 0
M  V30 6722 H 644.902 7.49992 -1.86365 0
M  V30 6723 H 643.247 6.74655 -1.66929 0
M  V30 6724 H 646.438 4.6049 -0.840602 0
M  V30 6725 H 646.611 6.32444 -1.41133 0
M  V30 6726 N 640.017 0.126909 1.57088 0
M  V30 6727 C 641.294 -0.573152 1.87014 0
M  V30 6728 C 641.674 -1.84297 1.02945 0
M  V30 6729 O 641.022 -2.28232 0.110573 0
M  V30 6730 C 641.232 -0.857984 3.38289 0
M  V30 6731 C 642.58 -1.20759 4.07066 0
M  V30 6732 O 643.604 -0.947992 3.43353 0
M  V30 6733 O 642.463 -1.69516 5.19545 0
M  V30 6734 H 639.557 -0.290082 0.774456 0
M  V30 6735 H 642.103 0.162008 1.68925 0
M  V30 6736 H 640.875 0.0415286 3.91278 0
M  V30 6737 H 640.498 -1.64803 3.61837 0
M  V30 6738 N 641.495 -1.56914 -0.146875 0
M  V30 6739 C 642.405 -2.0154 -1.20079 0
M  V30 6740 C 643.421 -0.930838 -1.47008 0
M  V30 6741 O 644.597 -1.24032 -1.58676 0
M  V30 6742 C 641.662 -2.38715 -2.51428 0
M  V30 6743 C 640.723 -3.6112 -2.32145 0
M  V30 6744 C 639.956 -3.96512 -3.57231 0
M  V30 6745 O 640.179 -3.32566 -4.63418 0
M  V30 6746 O 639.113 -4.89758 -3.49887 0
M  V30 6747 H 642.939 -2.91506 -0.851924 0
M  V30 6748 H 640.524 -1.45106 -0.355607 0
M  V30 6749 H 642.406 -2.63485 -3.28867 0
M  V30 6750 H 641.081 -1.51903 -2.85845 0
M  V30 6751 H 639.988 -3.41536 -1.52656 0
M  V30 6752 H 641.321 -4.48549 -2.02644 0
M  V30 6753 N 642.974 0.416227 -1.52004 0
M  V30 6754 C 644.39 0.754319 -1.40649 0
M  V30 6755 C 644.59 1.95059 -0.505392 0
M  V30 6756 O 643.646 2.5248 0.0315057 0
M  V30 6757 C 644.959 1.0149 -2.83055 0
M  V30 6758 C 646.507 1.11805 -2.9235 0
M  V30 6759 C 646.982 1.41144 -4.35709 0
M  V30 6760 N 648.473 1.48024 -4.38911 0
M  V30 6761 C 649.208 1.72338 -5.46889 0
M  V30 6762 N 648.704 1.94303 -6.64995 0
M  V30 6763 N 650.497 1.74294 -5.34395 0
M  V30 6764 H 642.648 -0.371324 -2.09129 0
M  V30 6765 H 644.911 -0.103811 -0.942299 0
M  V30 6766 H 644.617 0.208345 -3.51082 0
M  V30 6767 H 644.491 1.93697 -3.23668 0
M  V30 6768 H 646.878 1.91521 -2.24508 0
M  V30 6769 H 646.959 0.17451 -2.55204 0
M  V30 6770 H 646.603 0.619484 -5.04108 0
M  V30 6771 H 646.533 2.36739 -4.70385 0
M  V30 6772 H 649.024 1.32868 -3.53772 0
M  V30 6773 H 649.337 2.12286 -7.43071 0
M  V30 6774 H 647.682 1.91582 -6.68073 0
M  V30 6775 H 650.873 1.56667 -4.41104 0
M  V30 6776 H 651.046 1.92904 -6.18621 0
M  V30 6777 N 644.452 1.42507 0.673017 0
M  V30 6778 C 645.362 1.4853 1.81593 0
M  V30 6779 C 646.378 0.373907 1.69935 0
M  V30 6780 O 647.554 0.625078 1.91454 0
M  V30 6781 C 644.619 1.387 3.17747 0
M  V30 6782 C 643.68 2.60346 3.41348 0
M  V30 6783 C 642.913 2.50975 4.71007 0
M  V30 6784 O 643.136 1.54659 5.49033 0
M  V30 6785 O 642.07 3.41138 4.95892 0
M  V30 6786 H 645.896 2.45001 1.79467 0
M  V30 6787 H 643.481 1.2429 0.82899 0
M  V30 6788 H 645.363 1.35586 3.98992 0
M  V30 6789 H 644.038 0.453555 3.20507 0
M  V30 6790 H 642.945 2.69034 2.59945 0
M  V30 6791 H 644.278 3.52595 3.43421 0
M  V30 6792 N 645.93 -0.909495 1.28709 0
M  V30 6793 C 647.207 -1.63865 1.06806 0
M  V30 6794 C 647.587 -2.07445 -0.391143 0
M  V30 6795 O 646.935 -1.82269 -1.37805 0
M  V30 6796 C 647.145 -2.82692 2.04661 0
M  V30 6797 C 648.493 -3.5361 2.35042 0
M  V30 6798 O 649.517 -2.92847 2.02779 0
M  V30 6799 O 648.376 -4.63131 2.90124 0
M  V30 6800 H 645.47 -0.719065 0.408502 0
M  V30 6801 H 648.016 -0.958424 1.40044 0
M  V30 6802 H 646.788 -2.47614 3.0299 0
M  V30 6803 H 646.411 -3.58426 1.72095 0
M  V30 6804 N 647.408 -1.11026 -1.11852 0
M  V30 6805 C 648.657 -0.851249 -1.82857 0
M  V30 6806 C 648.97 0.62514 -1.85341 0
M  V30 6807 O 650.176 1.00026 -2.52403 0
M  V30 6808 C 648.632 -1.47309 -3.28372 0
M  V30 6809 C 648.24 -2.9832 -3.34229 0
M  V30 6810 C 649.984 -1.29373 -4.04306 0
M  V30 6811 C 647.891 -3.53509 -4.74115 0
M  V30 6812 H 646.821 -0.314794 -0.685143 0
M  V30 6813 H 649.472 -1.33499 -1.25898 0
M  V30 6814 H 647.854 -0.917017 -3.85236 0
M  V30 6815 H 649.028 -3.60295 -2.87271 0
M  V30 6816 H 647.343 -3.15482 -2.71772 0
M  V30 6817 H 649.94 -1.68042 -5.07608 0
M  V30 6818 H 650.283 -0.235879 -4.15631 0
M  V30 6819 H 650.816 -1.8182 -3.53817 0
M  V30 6820 H 647.555 -4.58987 -4.67986 0
M  V30 6821 H 647.075 -2.96305 -5.21501 0
M  V30 6822 H 648.754 -3.51693 -5.43066 0
M  V30 6823 N 648.886 1.2938 -0.899927 0
M  V30 6824 C 650.114 1.99691 -0.541386 0
M  V30 6825 C 650.529 1.67355 0.873936 0
M  V30 6826 O 649.886 0.918728 1.57688 0
M  V30 6827 C 649.937 3.54168 -0.72438 0
M  V30 6828 O 649.658 3.85359 -2.08399 0
M  V30 6829 C 651.159 4.41746 -0.370819 0
M  V30 6830 H 648.379 0.638037 -0.207726 0
M  V30 6831 H 650.923 1.6491 -1.20934 0
M  V30 6832 H 649.078 3.87261 -0.103607 0
M  V30 6833 H 649.492 4.80032 -2.11352 0
M  V30 6834 H 650.966 5.49256 -0.549693 0
M  V30 6835 H 651.443 4.33712 0.692148 0
M  V30 6836 H 652.049 4.14125 -0.968543 0
M  V30 6837 N 650.364 0.662433 1.43002 0
M  V30 6838 C 651.314 -0.0460442 2.27954 0
M  V30 6839 C 652.298 -0.785753 1.40409 0
M  V30 6840 O 653.49 -0.666701 1.63964 0
M  V30 6841 C 650.619 -1.00532 3.2825 0
M  V30 6842 C 649.705 -0.263604 4.2328 0
M  V30 6843 N 650.096 0.724855 5.00579 0
M  V30 6844 C 648.394 -0.503778 4.43146 0
M  V30 6845 C 649.095 1.16594 5.69895 0
M  V30 6846 N 648.071 0.498345 5.41311 0
M  V30 6847 H 651.873 0.712314 2.85137 0
M  V30 6848 H 649.387 0.490469 1.54817 0
M  V30 6849 H 651.384 -1.52775 3.87899 0
M  V30 6850 H 650.044 -1.76364 2.72628 0
M  V30 6851 H 651.055 1.10393 5.05998 0
M  V30 6852 H 647.732 -1.24255 3.98581 0
M  V30 6853 H 649.122 1.98434 6.4193 0
M  V30 6854 N 651.842 -1.52309 0.404946 0
M  V30 6855 C 653.07 -2.06185 -0.171818 0
M  V30 6856 C 653.485 -1.27536 -1.39212 0
M  V30 6857 O 652.842 -0.326112 -1.79563 0
M  V30 6858 C 652.893 -3.57647 -0.526417 0
M  V30 6859 O 652.614 -4.3332 0.645417 0
M  V30 6860 C 654.115 -4.27925 -1.15736 0
M  V30 6861 H 651.335 -0.670632 -0.0222328 0
M  V30 6862 H 653.879 -1.96259 0.574692 0
M  V30 6863 H 652.034 -3.67595 -1.22282 0
M  V30 6864 H 652.448 -5.23328 0.35042 0
M  V30 6865 H 653.922 -5.35093 -1.35572 0
M  V30 6866 H 654.399 -3.84134 -2.12926 0
M  V30 6867 H 655.005 -4.22335 -0.501281 0
M  V30 6868 N 653.32 -0.135238 -1.57019 0
M  V30 6869 C 654.55 0.525303 -1.9981 0
M  V30 6870 C 654.958 1.59724 -1.01415 0
M  V30 6871 O 654.301 1.837 -0.00130938 0
M  V30 6872 C 654.363 1.19578 -3.3903 0
M  V30 6873 C 654.027 0.269855 -4.56203 0
M  V30 6874 C 655.024 -0.497905 -5.1751 0
M  V30 6875 C 652.709 0.176188 -5.01991 0
M  V30 6876 C 654.703 -1.3469 -6.23007 0
M  V30 6877 C 652.39 -0.676422 -6.07345 0
M  V30 6878 C 653.388 -1.43658 -6.67721 0
M  V30 6879 O 653.076 -2.27501 -7.71037 0
M  V30 6880 H 652.808 0.142296 -0.660854 0
M  V30 6881 H 655.362 -0.223272 -2.04183 0
M  V30 6882 H 653.592 1.99176 -3.3146 0
M  V30 6883 H 655.281 1.75486 -3.66005 0
M  V30 6884 H 656.047 -0.435507 -4.83041 0
M  V30 6885 H 651.926 0.757583 -4.54733 0
M  V30 6886 H 655.47 -1.9407 -6.70062 0
M  V30 6887 H 651.367 -0.740154 -6.41243 0
M  V30 6888 H 652.135 -2.20619 -7.88206 0
M  V30 6889 N 654.798 1.5699 0.138552 0
M  V30 6890 C 655.745 1.98899 1.17081 0
M  V30 6891 C 656.715 0.857922 1.42228 0
M  V30 6892 O 657.9 1.12065 1.54422 0
M  V30 6893 C 655.04 2.38189 2.4972 0
M  V30 6894 C 654.153 3.64624 2.31674 0
M  V30 6895 C 653.288 3.9298 3.57407 0
M  V30 6896 C 652.327 5.1266 3.34435 0
M  V30 6897 N 651.464 5.36983 4.5232 0
M  V30 6898 H 656.304 2.86881 0.80642 0
M  V30 6899 H 653.841 1.41925 0.386727 0
M  V30 6900 H 655.799 2.59 3.2707 0
M  V30 6901 H 654.429 1.53275 2.84089 0
M  V30 6902 H 653.481 3.51542 1.45337 0
M  V30 6903 H 654.793 4.52131 2.10664 0
M  V30 6904 H 653.947 4.14335 4.43183 0
M  V30 6905 H 652.686 3.03912 3.8143 0
M  V30 6906 H 651.691 4.9117 2.47048 0
M  V30 6907 H 652.916 6.03288 3.11802 0
M  V30 6908 H 650.862 4.50871 4.76499 0
M  V30 6909 H 650.779 6.18775 4.34343 0
M  V30 6910 H 652.047 5.62842 5.39285 0
M  V30 6911 N 656.276 -0.40816 1.52223 0
M  V30 6912 C 657.506 -1.17501 1.69932 0
M  V30 6913 C 657.914 -1.84729 0.408874 0
M  V30 6914 O 657.257 -1.7274 -0.625025 0
M  V30 6915 C 657.319 -2.27994 2.77955 0
M  V30 6916 C 656.983 -1.80894 4.19674 0
M  V30 6917 C 657.98 -1.29618 5.03483 0
M  V30 6918 C 655.665 -1.87698 4.65913 0
M  V30 6919 C 657.659 -0.857695 6.31603 0
M  V30 6920 C 655.346 -1.43461 5.94022 0
M  V30 6921 C 656.344 -0.925822 6.76696 0
M  V30 6922 O 656.032 -0.489841 8.02406 0
M  V30 6923 H 655.764 -0.359065 0.572755 0
M  V30 6924 H 658.318 -0.486188 1.99563 0
M  V30 6925 H 656.548 -3.00243 2.43703 0
M  V30 6926 H 658.237 -2.89749 2.84254 0
M  V30 6927 H 659.003 -1.23733 4.68951 0
M  V30 6928 H 654.882 -2.26244 4.01665 0
M  V30 6929 H 658.426 -0.459879 6.96083 0
M  V30 6930 H 654.323 -1.49026 6.28062 0
M  V30 6931 H 655.091 -0.613062 8.16201 0
M  V30 6932 N 657.755 -1.42862 -0.66545 0
M  V30 6933 C 659.166 -1.3901 -1.24632 0
M  V30 6934 C 659.517 -0.0880285 -1.96002 0
M  V30 6935 O 658.642 0.812947 -2.0055 0
M  V30 6936 C 659.237 -2.51806 -2.2667 0
M  V30 6937 C 657.796 -2.51257 -2.80262 0
M  V30 6938 C 656.943 -2.30124 -1.5472 0
M  V30 6939 H 659.894 -1.5194 -0.458237 0
M  V30 6940 H 659.915 -2.22593 -3.08598 0
M  V30 6941 H 659.427 -3.46558 -1.74697 0
M  V30 6942 H 657.528 -1.60349 -3.36332 0
M  V30 6943 H 657.641 -3.48614 -3.28641 0
M  V30 6944 H 656.005 -1.7856 -1.81627 0
M  V30 6945 H 656.788 -3.26945 -1.04699 0
M  V30 6946 N 659.233 0.902656 -1.29189 0
M  V30 6947 C 660.143 2.03946 -1.15944 0
M  V30 6948 C 661.159 1.738 -0.0833803 0
M  V30 6949 O 662.335 1.9923 -0.29487 0
M  V30 6950 C 659.4 3.36519 -0.834006 0
M  V30 6951 C 658.461 3.80203 -1.9936 0
M  V30 6952 C 657.694 5.06449 -1.68359 0
M  V30 6953 O 657.917 5.67202 -0.603141 0
M  V30 6954 O 656.851 5.46114 -2.53067 0
M  V30 6955 H 660.677 2.18043 -2.11403 0
M  V30 6956 H 658.262 1.02584 -1.08613 0
M  V30 6957 H 660.144 4.16089 -0.666949 0
M  V30 6958 H 658.819 3.23573 0.0908245 0
M  V30 6959 H 657.726 3.01413 -2.21588 0
M  V30 6960 H 659.059 3.97729 -2.89952 0
M  V30 6961 N 660.711 1.11618 1.11262 0
M  V30 6962 C 661.959 0.864469 1.82678 0
M  V30 6963 C 662.28 -0.611564 1.85162 0
M  V30 6964 O 661.55 -1.44429 1.32352 0
M  V30 6965 H 660.13 0.316821 0.676486 0
M  V30 6966 H 662.792 1.40894 1.34666 0
M  V30 6967 H 661.888 1.23832 2.86482 0
M  V30 6968 N 662.189 -1.289 0.906776 0
M  V30 6969 C 663.414 -1.99939 0.551303 0
M  V30 6970 C 663.839 -1.67366 -0.858496 0
M  V30 6971 O 663.197 -0.902176 -1.57259 0
M  V30 6972 C 663.245 -3.52523 0.758937 0
M  V30 6973 O 662.349 -4.11983 -0.185308 0
M  V30 6974 H 661.69 -0.628376 0.214568 0
M  V30 6975 H 664.22 -1.64225 1.2203 0
M  V30 6976 H 664.23 -4.02522 0.666329 0
M  V30 6977 H 662.905 -3.75566 1.78671 0
M  V30 6978 H 661.482 -3.72873 -0.0445577 0
M  V30 6979 N 663.667 -0.670007 -1.42649 0
M  V30 6980 C 664.892 -0.196955 -2.06463 0
M  V30 6981 C 665.317 1.1352 -1.49983 0
M  V30 6982 O 664.675 1.705 -0.616397 0
M  V30 6983 C 664.723 -0.137381 -3.60338 0
M  V30 6984 O 663.827 0.895523 -4.02559 0
M  V30 6985 H 663.168 -0.102579 -0.656029 0
M  V30 6986 H 665.698 -0.917669 -1.82866 0
M  V30 6987 H 665.708 0.0403625 -4.0798 0
M  V30 6988 H 664.383 -1.10977 -4.0082 0
M  V30 6989 H 662.96 0.689209 -3.66476 0
M  V30 6990 N 665.145 1.52092 -0.413018 0
M  V30 6991 C 666.055 2.30858 0.417318 0
M  V30 6992 C 667.071 1.38746 1.05003 0
M  V30 6993 O 668.247 1.71821 1.05069 0
M  V30 6994 C 665.312 3.11756 1.51687 0
M  V30 6995 C 664.373 4.19613 0.906825 0
M  V30 6996 C 663.606 4.96644 1.95399 0
M  V30 6997 O 663.829 4.7402 3.17271 0
M  V30 6998 O 662.763 5.81385 1.55805 0
M  V30 6999 H 666.589 3.02865 -0.225028 0
M  V30 7000 H 664.174 1.48358 -0.176126 0
M  V30 7001 H 666.056 3.62122 2.15512 0
M  V30 7002 H 664.731 2.42539 2.14375 0
M  V30 7003 H 663.638 3.73385 0.231183 0
M  V30 7004 H 664.971 4.91134 0.323814 0
M  V30 7005 N 666.623 0.143563 1.56945 0
M  V30 7006 C 667.533 -0.810562 2.20152 0
M  V30 7007 C 668.549 -1.27431 1.1848 0
M  V30 7008 O 669.725 -1.33221 1.51044 0
M  V30 7009 C 666.79 -2.03353 2.80799 0
M  V30 7010 C 665.851 -1.61936 3.97587 0
M  V30 7011 C 665.084 -2.78403 4.55332 0
M  V30 7012 O 665.307 -3.94521 4.11958 0
M  V30 7013 O 664.241 -2.54073 5.45647 0
M  V30 7014 H 668.067 -0.30253 3.02189 0
M  V30 7015 H 665.652 -0.0832925 1.49168 0
M  V30 7016 H 667.534 -2.74932 3.19359 0
M  V30 7017 H 666.209 -2.53116 2.01777 0
M  V30 7018 H 665.116 -0.873904 3.6375 0
M  V30 7019 H 666.449 -1.16892 4.78118 0
M  V30 7020 N 668.101 -1.57061 -0.130224 0
M  V30 7021 C 669.517 -1.52103 -0.483413 0
M  V30 7022 C 669.717 -0.854752 -1.82473 0
M  V30 7023 O 668.773 -0.432342 -2.48771 0
M  V30 7024 C 670.086 -2.96872 -0.47825 0
M  V30 7025 C 671.634 -3.07902 -0.562592 0
M  V30 7026 C 672.109 -4.54211 -0.587929 0
M  V30 7027 N 673.6 -4.58621 -0.649684 0
M  V30 7028 C 674.335 -5.69227 -0.690551 0
M  V30 7029 N 673.831 -6.89358 -0.689743 0
M  V30 7030 N 675.624 -5.57304 -0.732708 0
M  V30 7031 H 667.775 -1.98764 0.748779 0
M  V30 7032 H 670.038 -0.907248 0.274965 0
M  V30 7033 H 669.744 -3.48944 0.439444 0
M  V30 7034 H 669.618 -3.53716 -1.31013 0
M  V30 7035 H 672.005 -2.5584 -1.47071 0
M  V30 7036 H 672.086 -2.54073 0.296764 0
M  V30 7037 H 671.73 -5.06915 0.316096 0
M  V30 7038 H 671.66 -5.0584 -1.46401 0
M  V30 7039 H 674.151 -3.72146 -0.656927 0
M  V30 7040 H 674.464 -7.69408 -0.723239 0
M  V30 7041 H 672.809 -6.91884 -0.657347 0
M  V30 7042 H 676 -4.62363 -0.730625 0
M  V30 7043 H 676.173 -6.43515 -0.76109 0
M  V30 7044 N 669.579 0.400081 -1.52437 0
M  V30 7045 C 670.489 1.51253 -1.79331 0
M  V30 7046 C 671.505 1.60188 -0.679396 0
M  V30 7047 O 672.681 1.76733 -0.965791 0
M  V30 7048 C 669.746 2.869 -1.94652 0
M  V30 7049 C 668.807 2.87777 -3.18564 0
M  V30 7050 C 668.04 4.16954 -3.33145 0
M  V30 7051 O 668.263 5.11329 -2.52783 0
M  V30 7052 O 667.197 4.2487 -4.26343 0
M  V30 7053 H 671.023 1.31461 -2.73773 0
M  V30 7054 H 668.608 0.586834 -1.37392 0
M  V30 7055 H 670.49 3.67336 -2.065 0
M  V30 7056 H 669.165 3.06741 -1.034 0
M  V30 7057 H 668.072 2.06162 -3.12167 0
M  V30 7058 H 669.405 2.72886 -4.09627 0
M  V30 7059 N 671.057 1.43213 0.657864 0
M  V30 7060 C 672.02 1.47687 1.75275 0
M  V30 7061 C 673.02 0.362179 1.56668 0
M  V30 7062 O 674.21 0.623734 1.62651 0
M  V30 7063 C 671.342 1.32497 3.14098 0
M  V30 7064 H 672.535 2.4519 1.7269 0
M  V30 7065 H 670.088 1.2991 0.869087 0
M  V30 7066 H 670.823 0.359831 3.22298 0
M  V30 7067 H 670.608 2.13299 3.29008 0
M  V30 7068 H 672.098 1.38549 3.93946 0
M  V30 7069 N 672.536 -0.895792 1.29666 0
M  V30 7070 C 673.783 -1.64664 1.17864 0
M  V30 7071 C 674.111 -1.92631 -0.26902 0
M  V30 7072 O 673.366 -1.53787 -1.21029 0
M  V30 7073 C 673.665 -3.00075 1.94139 0
M  V30 7074 C 673.331 -2.91702 3.43833 0
M  V30 7075 C 671.993 -2.89126 3.84656 0
M  V30 7076 C 674.345 -2.80622 4.39205 0
M  V30 7077 C 671.673 -2.73293 5.1916 0
M  V30 7078 C 674.025 -2.66329 5.73805 0
M  V30 7079 C 672.689 -2.62121 6.1388 0
M  V30 7080 H 671.959 -0.602549 0.431295 0
M  V30 7081 H 674.606 -1.04234 1.60648 0
M  V30 7082 H 672.911 -3.64394 1.43958 0
M  V30 7083 H 674.608 -3.57111 1.82408 0
M  V30 7084 H 671.198 -2.94511 3.11386 0
M  V30 7085 H 675.382 -2.81686 4.08615 0
M  V30 7086 H 670.638 -2.68443 5.49316 0
M  V30 7087 H 674.812 -2.56727 6.47352 0
M  V30 7088 H 672.439 -2.49611 7.18052 0
M  V30 7089 N 674.014 -1.12206 -1.10668 0
M  V30 7090 C 675.242 -0.898635 -1.86366 0
M  V30 7091 C 675.657 0.551991 -1.80551 0
M  V30 7092 O 675.014 1.38152 -1.19249 0
M  V30 7093 C 675.065 -1.36199 -3.34861 0
M  V30 7094 O 674.786 -2.75576 -3.40573 0
M  V30 7095 C 676.287 -1.17515 -4.2744 0
M  V30 7096 H 673.507 -0.321281 -0.589084 0
M  V30 7097 H 676.051 -1.49142 -1.39918 0
M  V30 7098 H 674.206 -0.81249 -3.78784 0
M  V30 7099 H 674.62 -2.95851 -4.33096 0
M  V30 7100 H 676.094 -1.54827 -5.29842 0
M  V30 7101 H 676.571 -0.115486 -4.39048 0
M  V30 7102 H 677.177 -1.71203 -3.89319 0
M  V30 7103 N 675.492 1.28418 -0.913599 0
M  V30 7104 C 676.908 1.47411 -0.611728 0
M  V30 7105 C 677.108 1.83018 0.843008 0
M  V30 7106 O 676.164 1.93505 1.6221 0
M  V30 7107 C 677.477 2.57703 -1.5495 0
M  V30 7108 C 679.025 2.71572 -1.5562 0
M  V30 7109 C 679.5 3.85008 -2.48058 0
M  V30 7110 N 680.991 3.92361 -2.46184 0
M  V30 7111 C 681.726 4.79516 -3.14407 0
M  V30 7112 N 681.222 5.71262 -3.91958 0
M  V30 7113 N 683.015 4.73125 -3.03495 0
M  V30 7114 H 675.166 1.03585 -1.85429 0
M  V30 7115 H 677.429 0.515907 -0.795326 0
M  V30 7116 H 677.135 2.38298 -2.58663 0
M  V30 7117 H 677.009 3.54801 -1.28048 0
M  V30 7118 H 679.396 2.90366 -0.526441 0
M  V30 7119 H 679.477 1.75006 -1.86565 0
M  V30 7120 H 679.121 3.66969 -3.51136 0
M  V30 7121 H 679.051 4.80971 -2.14416 0
M  V30 7122 H 681.542 3.26749 -1.89851 0
M  V30 7123 H 681.855 6.34593 -4.41034 0
M  V30 7124 H 680.2 5.71103 -3.96063 0
M  V30 7125 H 683.391 4.00442 -2.42413 0
M  V30 7126 H 683.564 5.40834 -3.56935 0
M  V30 7127 N 676.97 0.677563 1.42291 0
M  V30 7128 C 677.933 0.0101085 2.29198 0
M  V30 7129 C 678.933 -0.726219 1.43467 0
M  V30 7130 O 680.123 -0.563807 1.64824 0
M  V30 7131 C 677.255 -0.996316 3.26016 0
M  V30 7132 H 678.448 0.775071 2.89711 0
M  V30 7133 H 676.001 0.440065 1.49977 0
M  V30 7134 H 676.736 -1.78967 2.70446 0
M  V30 7135 H 676.521 -0.471687 3.89253 0
M  V30 7136 H 678.011 -1.46167 3.91184 0
M  V30 7137 N 678.448 -1.51871 0.421078 0
M  V30 7138 C 679.396 -2.28903 -0.413066 0
M  V30 7139 C 680.39 -1.3408 -1.03532 0
M  V30 7140 O 681.596 -1.5149 -0.972146 0
M  V30 7141 H 677.971 -0.736478 -0.152003 0
M  V30 7142 H 679.942 -2.97285 0.257695 0
M  V30 7143 C 678.691 -3.13156 -1.51091 0
M  V30 7144 H 678.014 -3.85997 -1.04145 0
M  V30 7145 H 679.454 -3.7014 -2.06814 0
M  V30 7146 C 677.913 -2.27482 -2.48503 0
M  V30 7147 O 678.443 -1.92325 -3.52667 0
M  V30 7148 N 676.649 -1.91019 -2.18998 0
M  V30 7149 H 676.196 -2.19808 -1.34322 0
M  V30 7150 H 676.154 -1.3399 -2.84419 0
M  V30 7151 N 679.926 -0.151884 -1.56866 0
M  V30 7152 C 680.876 0.797799 -2.13586 0
M  V30 7153 C 681.86 1.20613 -1.06496 0
M  V30 7154 O 683.052 1.17173 -1.32663 0
M  V30 7155 C 680.181 2.03493 -2.76488 0
M  V30 7156 C 679.267 1.64948 -3.90708 0
M  V30 7157 N 679.658 0.972513 -4.96363 0
M  V30 7158 C 677.956 1.94186 -4.01507 0
M  V30 7159 C 678.657 0.785661 -5.7637 0
M  V30 7160 N 677.633 1.32105 -5.27304 0
M  V30 7161 H 681.435 0.271403 -2.92644 0
M  V30 7162 H 678.949 0.049487 -1.62325 0
M  V30 7163 H 680.946 2.72532 -3.15487 0
M  V30 7164 H 679.606 2.56646 -1.98904 0
M  V30 7165 H 680.617 0.632724 -5.1402 0
M  V30 7166 H 677.294 2.49154 -3.35005 0
M  V30 7167 H 678.684 0.251749 -6.71428 0
M  V30 7168 N 681.404 1.57128 0.121893 0
M  V30 7169 C 682.334 2.03165 1.15092 0
M  V30 7170 C 683.315 0.915587 1.43356 0
M  V30 7171 O 684.5 1.1851 1.53847 0
M  V30 7172 C 681.63 2.43352 2.47784 0
M  V30 7173 C 680.584 3.58376 2.33989 0
M  V30 7174 C 679.91 3.84454 3.71617 0
M  V30 7175 C 681.21 4.90199 1.80283 0
M  V30 7176 H 682.904 2.89382 0.768023 0
M  V30 7177 H 680.45 1.39218 0.367998 0
M  V30 7178 H 682.403 2.74163 3.20019 0
M  V30 7179 H 681.127 1.54103 2.87958 0
M  V30 7180 H 679.786 3.2777 1.64202 0
M  V30 7181 H 679.434 2.92414 4.09271 0
M  V30 7182 H 679.134 4.61877 3.6324 0
M  V30 7183 H 680.658 4.17714 4.45362 0
M  V30 7184 H 682.072 5.19565 2.42333 0
M  V30 7185 H 680.469 5.71601 1.82735 0
M  V30 7186 H 681.539 4.78904 0.760184 0
M  V30 7187 N 682.882 -0.391992 1.52647 0
M  V30 7188 C 683.83 -1.4991 1.77848 0
M  V30 7189 C 684.824 -1.56587 0.646282 0
M  V30 7190 O 686.03 -1.59789 0.828698 0
M  V30 7191 H 682.405 -0.498883 0.56269 0
M  V30 7192 H 684.376 -1.25847 2.70564 0
M  V30 7193 C 683.125 -2.87081 1.96163 0
M  V30 7194 H 682.448 -2.82692 2.82711 0
M  V30 7195 H 683.888 -3.63792 2.17787 0
M  V30 7196 C 682.347 -3.28822 0.733348 0
M  V30 7197 O 682.877 -4.01598 -0.0906481 0
M  V30 7198 N 681.083 -2.85068 0.564317 0
M  V30 7199 H 680.63 -2.26012 1.23598 0
M  V30 7200 H 680.588 -3.13355 -0.256166 0
M  V30 7201 N 684.36 -1.4356 -0.65026 0
M  V30 7202 C 685.307 -1.48948 -1.76304 0
M  V30 7203 C 686.277 -0.338919 -1.62605 0
M  V30 7204 O 687.462 -0.54649 -1.82806 0
M  V30 7205 C 684.602 -1.42131 -3.14472 0
M  V30 7206 C 683.715 -2.67415 -3.39284 0
M  V30 7207 C 682.85 -2.52565 -4.67316 0
M  V30 7208 C 681.889 -3.73103 -4.85243 0
M  V30 7209 N 681.026 -3.57046 -6.04535 0
M  V30 7210 H 685.866 -2.44032 -1.71034 0
M  V30 7211 H 683.403 -1.21131 -0.834601 0
M  V30 7212 H 685.361 -1.36172 -3.94351 0
M  V30 7213 H 683.991 -0.506273 -3.18805 0
M  V30 7214 H 683.043 -2.8364 -2.53481 0
M  V30 7215 H 684.355 -3.56943 -3.48415 0
M  V30 7216 H 683.509 -2.44331 -5.55326 0
M  V30 7217 H 682.248 -1.60566 -4.60511 0
M  V30 7218 H 681.253 -3.81743 -3.95667 0
M  V30 7219 H 682.478 -4.66115 -4.93876 0
M  V30 7220 H 680.424 -2.67783 -5.98856 0
M  V30 7221 H 680.341 -4.40178 -6.14638 0
M  V30 7222 H 681.609 -3.52669 -6.95158 0
M  V30 7223 N 685.838 0.888903 -1.30139 0
M  V30 7224 C 686.768 2.01046 -1.18755 0
M  V30 7225 C 687.749 1.69916 -0.0791438 0
M  V30 7226 O 688.934 1.92445 -0.260498 0
M  V30 7227 C 686.064 3.36109 -0.874518 0
M  V30 7228 C 685.018 3.81486 -1.94043 0
M  V30 7229 C 684.344 5.13796 -1.48047 0
M  V30 7230 C 685.644 4.00637 -3.35093 0
M  V30 7231 H 687.338 2.10828 -2.12584 0
M  V30 7232 H 684.884 1.01298 -1.02346 0
M  V30 7233 H 686.837 4.14089 -0.781548 0
M  V30 7234 H 685.561 3.26449 0.0994519 0
M  V30 7235 H 684.22 3.05731 -2.02297 0
M  V30 7236 H 683.868 5.0056 -0.494878 0
M  V30 7237 H 683.568 5.45127 -2.19341 0
M  V30 7238 H 685.092 5.94305 -1.40121 0
M  V30 7239 H 686.506 4.69067 -3.2962 0
M  V30 7240 H 684.903 4.43339 -4.04438 0
M  V30 7241 H 685.973 3.0462 -3.77273 0
M  V30 7242 N 687.317 1.12792 1.10072 0
M  V30 7243 C 688.28 0.802264 2.14701 0
M  V30 7244 C 689.28 -0.18515 1.59731 0
M  V30 7245 O 690.47 0.041109 1.74151 0
M  V30 7246 C 687.602 0.19285 3.40354 0
M  V30 7247 H 688.795 1.72932 2.45019 0
M  V30 7248 H 686.348 0.931662 1.25498 0
M  V30 7249 H 687.083 -0.743748 3.15656 0
M  V30 7250 H 686.868 0.903827 3.81541 0
M  V30 7251 H 688.358 -0.0183704 4.17596 0
M  V30 7252 N 688.795 -1.27931 0.920396 0
M  V30 7253 C 689.705 -2.30824 0.419212 0
M  V30 7254 C 690.721 -1.66767 -0.496461 0
M  V30 7255 O 691.897 -1.97763 -0.38104 0
M  V30 7256 C 688.962 -3.45158 -0.326601 0
M  V30 7257 C 688.023 -4.24754 0.623098 0
M  V30 7258 C 687.256 -5.33629 -0.0872172 0
M  V30 7259 O 687.479 -5.55204 -1.30784 0
M  V30 7260 O 686.413 -5.99091 0.580875 0
M  V30 7261 H 690.239 -2.75716 1.27337 0
M  V30 7262 H 687.824 -1.32747 0.685465 0
M  V30 7263 H 689.706 -4.14716 -0.747559 0
M  V30 7264 H 688.381 -3.02336 -1.15648 0
M  V30 7265 H 687.288 -3.57759 1.09359 0
M  V30 7266 H 688.621 -4.71272 1.41998 0
M  V30 7267 N 690.273 -0.685099 -1.4193 0
M  V30 7268 C 691.22 -0.0131869 -2.30796 0
M  V30 7269 C 692.19 0.782129 -1.46533 0
M  V30 7270 O 693.375 0.75229 -1.75343 0
M  V30 7271 C 690.515 0.924768 -3.32479 0
M  V30 7272 C 689.628 0.122181 -4.31827 0
M  V30 7273 C 688.763 1.05682 -5.20581 0
M  V30 7274 C 687.802 0.246526 -6.11603 0
M  V30 7275 N 686.939 1.13442 -6.92875 0
M  V30 7276 H 691.779 -0.776789 -2.87698 0
M  V30 7277 H 689.316 -0.394791 -1.41703 0
M  V30 7278 H 691.274 1.48251 -3.89971 0
M  V30 7279 H 689.904 1.65488 -2.77152 0
M  V30 7280 H 688.956 -0.552335 -3.76369 0
M  V30 7281 H 690.268 -0.506473 -4.96222 0
M  V30 7282 H 689.422 1.68415 -5.82856 0
M  V30 7283 H 688.161 1.71935 -4.56388 0
M  V30 7284 H 687.166 -0.393944 -5.48387 0
M  V30 7285 H 688.391 -0.412053 -6.77849 0
M  V30 7286 H 686.337 1.78316 -6.313 0
M  V30 7287 H 686.254 0.561089 -7.53915 0
M  V30 7288 H 687.522 1.74889 -7.59628 0
M  V30 7289 N 691.751 1.51645 -0.429126 0
M  V30 7290 C 692.661 2.31288 0.392809 0
M  V30 7291 C 693.677 1.39852 1.03525 0
M  V30 7292 O 694.853 1.72926 1.03241 0
M  V30 7293 C 691.918 3.13347 1.48372 0
M  V30 7294 C 690.979 4.20551 0.862268 0
M  V30 7295 C 690.212 4.98688 1.9012 0
M  V30 7296 O 690.435 4.77359 3.12225 0
M  V30 7297 O 689.369 5.83005 1.4963 0
M  V30 7298 H 693.195 3.02609 -0.257138 0
M  V30 7299 H 690.78 1.48163 -0.191851 0
M  V30 7300 H 692.662 3.64387 2.1166 0
M  V30 7301 H 691.337 2.44799 2.1179 0
M  V30 7302 H 690.244 3.73609 0.191568 0
M  V30 7303 H 691.577 4.91449 0.271704 0
M  V30 7304 N 693.229 0.160201 1.56784 0
M  V30 7305 C 694.139 -0.787167 2.21 0
M  V30 7306 C 695.155 -1.26167 1.19825 0
M  V30 7307 O 696.331 -1.31611 1.52448 0
M  V30 7308 C 693.396 -2.00364 2.8294 0
M  V30 7309 C 692.457 -1.5771 3.99282 0
M  V30 7310 C 691.69 -2.73558 4.58259 0
M  V30 7311 O 691.913 -3.90129 4.16119 0
M  V30 7312 O 690.847 -2.48271 5.48311 0
M  V30 7313 H 694.673 -0.270462 3.02493 0
M  V30 7314 H 692.258 -0.0674666 1.49248 0
M  V30 7315 H 694.14 -2.71529 3.22257 0
M  V30 7316 H 692.815 -2.50961 2.04451 0
M  V30 7317 H 691.722 -0.835274 3.64656 0
M  V30 7318 H 693.055 -1.11815 4.79331 0
M  V30 7319 N 694.707 -1.5719 -0.113559 0
M  V30 7320 C 695.935 -1.89328 -0.834422 0
M  V30 7321 C 696.35 -0.752018 -1.73177 0
M  V30 7322 O 695.707 0.276912 -1.80387 0
M  V30 7323 C 695.758 -3.20962 -1.66329 0
M  V30 7324 O 695.479 -4.30695 -0.802069 0
M  V30 7325 C 696.98 -3.6684 -2.48884 0
M  V30 7326 H 694.2 -0.626769 -0.239587 0
M  V30 7327 H 696.744 -2.04273 -0.0963195 0
M  V30 7328 H 694.899 -3.0767 -2.35409 0
M  V30 7329 H 695.313 -5.06175 -1.37431 0
M  V30 7330 H 696.787 -4.61692 -3.02563 0
M  V30 7331 H 697.264 -2.93765 -3.26495 0
M  V30 7332 H 697.87 -3.82938 -1.85036 0
M  V30 7333 N 696.185 0.383891 -1.52853 0
M  V30 7334 C 697.433 1.12619 -1.67814 0
M  V30 7335 C 697.754 1.90354 -0.423141 0
M  V30 7336 O 697.024 1.87649 0.562554 0
M  V30 7337 H 695.604 0.418738 -0.618601 0
M  V30 7338 H 698.266 0.43495 -1.89985 0
M  V30 7339 H 697.362 1.82624 -2.5309 0
M  V30 7340 N 697.663 1.43903 0.642637 0
M  V30 7341 C 698.596 1.44339 1.76753 0
M  V30 7342 C 699.574 0.303558 1.59741 0
M  V30 7343 O 700.758 0.498775 1.81781 0
M  V30 7344 C 697.885 1.26508 3.14187 0
M  V30 7345 C 696.931 2.43905 3.49875 0
M  V30 7346 S 697.764 4.0645 3.48653 0
M  V30 7347 C 698.92 3.91021 4.88726 0
M  V30 7348 H 699.153 2.39523 1.76113 0
M  V30 7349 H 696.686 1.31061 0.81623 0
M  V30 7350 H 698.644 1.16908 3.93501 0
M  V30 7351 H 697.305 0.328548 3.12377 0
M  V30 7352 H 696.498 2.27262 4.49853 0
M  V30 7353 H 696.1 2.50186 2.77998 0
M  V30 7354 H 698.392 3.54 5.77659 0
M  V30 7355 H 699.335 4.9079 5.10423 0
M  V30 7356 H 699.743 3.23287 4.62759 0
M  V30 7357 N 699.141 -0.881989 1.30609 0
M  V30 7358 C 700.104 -1.96957 1.1722 0
M  V30 7359 C 701.104 -1.60472 0.102598 0
M  V30 7360 O 702.294 -1.70628 0.350943 0
M  V30 7361 C 699.426 -3.31463 0.796572 0
M  V30 7362 H 700.619 -2.10262 2.13846 0
M  V30 7363 H 698.172 -1.06877 1.14048 0
M  V30 7364 H 698.907 -3.23859 -0.169053 0
M  V30 7365 H 698.692 -3.59314 1.56959 0
M  V30 7366 H 700.182 -4.11233 0.72645 0
M  V30 7367 N 700.619 -1.13374 -1.09472 0
M  V30 7368 C 701.552 -0.754354 -2.15371 0
M  V30 7369 C 702.53 0.259205 -1.60521 0
M  V30 7370 O 703.714 0.150819 -1.87896 0
M  V30 7371 C 700.841 -0.118197 -3.38494 0
M  V30 7372 C 699.887 -1.10017 -4.12066 0
M  V30 7373 S 700.72 -2.63242 -4.6633 0
M  V30 7374 C 701.876 -2.00984 -5.92753 0
M  V30 7375 H 702.109 -1.65135 -2.4722 0
M  V30 7376 H 699.642 -0.953838 -1.21414 0
M  V30 7377 H 701.6 0.242447 -4.09783 0
M  V30 7378 H 700.261 0.756065 -3.04865 0
M  V30 7379 H 699.454 -0.60287 -5.00381 0
M  V30 7380 H 699.056 -1.40426 -3.46636 0
M  V30 7381 H 701.348 -1.35863 -6.63738 0
M  V30 7382 H 702.291 -2.8738 -6.47162 0
M  V30 7383 H 702.699 -1.46161 -5.4525 0
M  V30 7384 N 702.098 1.27442 -0.927168 0
M  V30 7385 C 703.514 1.46754 -0.627329 0
M  V30 7386 C 703.714 1.83902 0.823549 0
M  V30 7387 O 702.77 1.95215 1.60148 0
M  V30 7388 C 704.083 2.56045 -1.57674 0
M  V30 7389 C 705.631 2.69906 -1.58491 0
M  V30 7390 C 706.106 3.82355 -2.52128 0
M  V30 7391 N 707.597 3.89728 -2.50332 0
M  V30 7392 C 708.332 4.76155 -3.19475 0
M  V30 7393 N 707.828 5.67073 -3.97995 0
M  V30 7394 N 709.621 4.6988 -3.08496 0
M  V30 7395 H 701.772 1.01613 -1.86517 0
M  V30 7396 H 704.035 0.507443 -0.800753 0
M  V30 7397 H 703.741 2.35542 -2.61176 0
M  V30 7398 H 703.615 3.53423 -1.31804 0
M  V30 7399 H 706.002 2.89792 -0.557208 0
M  V30 7400 H 706.083 1.73018 -1.8841 0
M  V30 7401 H 705.727 3.63224 -3.55008 0
M  V30 7402 H 705.657 4.7867 -2.19505 0
M  V30 7403 H 708.148 3.24717 -1.93306 0
M  V30 7404 H 708.461 6.2988 -4.4774 0
M  V30 7405 H 706.806 5.6687 -4.02098 0
M  V30 7406 H 709.997 3.97848 -2.46646 0
M  V30 7407 H 710.17 5.37017 -3.62652 0
M  V30 7408 N 703.576 0.692616 1.41565 0
M  V30 7409 C 704.825 0.219452 2.00503 0
M  V30 7410 C 705.138 -1.18683 1.55479 0
M  V30 7411 O 706.344 -1.75731 2.06956 0
M  V30 7412 C 704.8 0.341451 3.58277 0
M  V30 7413 C 704.408 1.75291 4.12283 0
M  V30 7414 C 706.152 -0.0720899 4.24439 0
M  V30 7415 C 704.059 1.82673 5.62481 0
M  V30 7416 H 702.989 0.0782874 0.749925 0
M  V30 7417 H 705.64 0.860386 1.62079 0
M  V30 7418 H 704.022 -0.367683 3.94289 0
M  V30 7419 H 705.196 2.49057 3.87695 0
M  V30 7420 H 703.511 2.11587 3.58636 0
M  V30 7421 H 706.108 -0.0373385 5.34687 0
M  V30 7422 H 706.451 -1.11034 4.0122 0
M  V30 7423 H 706.984 0.586663 3.9345 0
M  V30 7424 H 703.723 2.84539 5.90523 0
M  V30 7425 H 703.243 1.13288 5.89004 0
M  V30 7426 H 704.922 1.58827 6.27203 0
M  V30 7427 N 705.054 -1.51416 0.437162 0
M  V30 7428 C 706.47 -1.59349 0.0894459 0
M  V30 7429 C 706.67 -1.44809 -1.40116 0
M  V30 7430 O 705.726 -1.28924 -2.17106 0
M  V30 7431 C 707.039 -2.9446 0.609398 0
M  V30 7432 C 708.587 -3.07769 0.569824 0
M  V30 7433 C 709.062 -4.45404 1.06675 0
M  V30 7434 N 710.553 -4.51723 1.02473 0
M  V30 7435 C 711.288 -5.56544 1.3801 0
M  V30 7436 N 710.784 -6.68784 1.80831 0
M  V30 7437 N 712.577 -5.46901 1.29828 0
M  V30 7438 H 704.728 -1.59112 1.40703 0
M  V30 7439 H 706.991 -0.750031 0.579791 0
M  V30 7440 H 706.697 -3.1047 1.65231 0
M  V30 7441 H 706.571 -3.77184 0.0342236 0
M  V30 7442 H 708.958 -2.91428 -0.464107 0
M  V30 7443 H 709.039 -2.26885 1.1814 0
M  V30 7444 H 708.683 -4.62492 2.09914 0
M  V30 7445 H 708.613 -5.24827 0.431712 0
M  V30 7446 H 711.104 -3.71165 0.710258 0
M  V30 7447 H 711.417 -7.44787 2.06185 0
M  V30 7448 H 709.762 -6.69992 1.84757 0
M  V30 7449 H 712.953 -4.581 0.962397 0
M  V30 7450 H 713.126 -6.2848 1.57851 0
M  V30 7451 N 706.532 -0.168513 -1.56696 0
M  V30 7452 C 707.778 0.477865 -1.9709 0
M  V30 7453 C 708.111 1.63084 -1.05438 0
M  V30 7454 O 707.386 1.94238 -0.10095 0
M  V30 7455 C 707.669 0.963521 -3.4697 0
M  V30 7456 C 707.522 -0.189443 -4.49401 0
M  V30 7457 C 708.841 1.83813 -3.99876 0
M  V30 7458 H 705.96 0.172229 -0.716593 0
M  V30 7459 H 708.602 -0.254083 -1.88293 0
M  V30 7460 H 706.752 1.58724 -3.54597 0
M  V30 7461 H 708.424 -0.826451 -4.53836 0
M  V30 7462 H 706.667 -0.845366 -4.25483 0
M  V30 7463 H 707.338 0.192446 -5.51664 0
M  V30 7464 H 709.814 1.31235 -3.94863 0
M  V30 7465 H 708.69 2.14697 -5.0517 0
M  V30 7466 H 708.951 2.78289 -3.43523 0
M  V30 7467 N 708.01 1.57248 0.105221 0
M  V30 7468 C 709.258 1.85204 0.808951 0
M  V30 7469 C 709.579 0.75574 1.7976 0
M  V30 7470 O 708.849 -0.218984 1.94672 0
M  V30 7471 H 707.429 0.683346 0.301739 0
M  V30 7472 H 710.091 1.94695 0.0892605 0
M  V30 7473 H 709.187 2.81595 1.34575 0
M  V30 7474 N 709.488 -0.375779 1.53054 0
M  V30 7475 C 710.42 -1.47963 1.75042 0
M  V30 7476 C 711.433 -1.50073 0.631031 0
M  V30 7477 O 712.622 -1.53736 0.907052 0
M  V30 7478 C 709.722 -2.86767 1.80604 0
M  V30 7479 C 708.895 -3.08471 3.10104 0
M  V30 7480 C 707.954 -4.27332 3.07041 0
M  V30 7481 O 706.98 -4.22998 3.80869 0
M  V30 7482 N 708.182 -5.34214 2.27147 0
M  V30 7483 H 710.947 -1.29484 2.70285 0
M  V30 7484 H 708.508 -0.565416 1.51706 0
M  V30 7485 H 710.5 -3.64404 1.76045 0
M  V30 7486 H 709.07 -2.98542 0.926897 0
M  V30 7487 H 708.29 -2.18583 3.28048 0
M  V30 7488 H 709.578 -3.19834 3.95706 0
M  V30 7489 H 708.976 -5.40594 1.66656 0
M  V30 7490 H 707.533 -6.10467 2.28415 0
M  V30 7491 N 710.966 -1.44241 -0.634997 0
M  V30 7492 C 712.191 -1.50516 -1.42687 0
M  V30 7493 C 712.616 -0.129864 -1.87651 0
M  V30 7494 O 711.974 0.880164 -1.58502 0
M  V30 7495 C 712.022 -2.4714 -2.62591 0
M  V30 7496 O 711.126 -1.97025 -3.62291 0
M  V30 7497 H 710.467 -0.50841 -0.427101 0
M  V30 7498 H 712.997 -1.89337 -0.775408 0
M  V30 7499 H 713.007 -2.65048 -3.10183 0
M  V30 7500 H 711.682 -3.47039 -2.29209 0
M  V30 7501 H 710.259 -1.88866 -3.21534 0
M  V30 7502 N 712.444 0.87505 -1.31075 0
M  V30 7503 C 713.377 1.98471 -1.12625 0
M  V30 7504 C 714.355 1.6257 -0.0311379 0
M  V30 7505 O 715.539 1.87574 -0.186594 0
M  V30 7506 C 712.666 3.30963 -0.719799 0
M  V30 7507 C 711.712 3.85849 -1.81722 0
M  V30 7508 S 712.545 4.11926 -3.42165 0
M  V30 7509 C 713.701 5.47423 -3.03445 0
M  V30 7510 H 713.934 2.13817 -2.06566 0
M  V30 7511 H 711.467 1.02463 -1.15502 0
M  V30 7512 H 713.425 4.07541 -0.492035 0
M  V30 7513 H 712.086 3.1346 0.200413 0
M  V30 7514 H 711.279 4.81616 -1.48533 0
M  V30 7515 H 710.881 3.16046 -1.99977 0
M  V30 7516 H 713.173 6.28881 -2.52023 0
M  V30 7517 H 714.116 5.85557 -3.98157 0
M  V30 7518 H 714.524 5.10455 -2.41031 0
M  V30 7519 N 713.922 1.13953 1.08869 0
M  V30 7520 C 714.87 0.817664 2.17754 0
M  V30 7521 C 715.864 -0.202444 1.68186 0
M  V30 7522 O 717.07 -0.0590159 1.79903 0
M  V30 7523 H 713.445 0.246671 0.710392 0
M  V30 7524 H 715.416 1.74401 2.4213 0
M  V30 7525 C 714.165 0.3063 3.46348 0
M  V30 7526 H 713.488 1.08259 3.84864 0
M  V30 7527 H 714.928 0.119584 4.23831 0
M  V30 7528 C 713.387 -0.969158 3.22659 0
M  V30 7529 O 713.917 -2.04386 3.45817 0
M  V30 7530 N 712.123 -0.902516 2.7623 0
M  V30 7531 H 711.67 -0.027801 2.57585 0
M  V30 7532 H 711.628 -1.75649 2.60758 0
M  V30 7533 N 715.4 -1.26948 0.933913 0
M  V30 7534 C 716.333 -2.24977 0.382169 0
M  V30 7535 C 717.311 -1.53893 -0.524949 0
M  V30 7536 O 718.495 -1.82699 -0.464048 0
M  V30 7537 C 715.622 -3.35676 -0.451615 0
M  V30 7538 C 714.668 -4.24686 0.392947 0
M  V30 7539 S 715.501 -5.03898 1.81237 0
M  V30 7540 C 716.657 -6.18078 0.986443 0
M  V30 7541 H 716.89 -2.71429 1.21299 0
M  V30 7542 H 714.423 -1.35701 0.736523 0
M  V30 7543 H 716.381 -3.99901 -0.926797 0
M  V30 7544 H 715.042 -2.8785 -1.25703 0
M  V30 7545 H 714.235 -5.03402 -0.245533 0
M  V30 7546 H 713.837 -3.65288 0.802537 0
M  V30 7547 H 716.129 -6.77125 0.225321 0
M  V30 7548 H 717.072 -6.86216 1.74682 0
M  V30 7549 H 717.48 -5.62047 0.525711 0
M  V30 7550 N 716.879 -0.700114 -1.41195 0
M  V30 7551 C 718.127 -0.232546 -2.00758 0
M  V30 7552 C 718.448 1.1734 -1.55745 0
M  V30 7553 O 717.718 1.79262 -0.790058 0
M  V30 7554 H 716.298 -0.0829845 -0.742376 0
M  V30 7555 H 718.96 -0.902289 -1.72756 0
M  V30 7556 H 718.056 -0.253521 -3.11069 0
M  V30 7557 N 718.357 1.51182 -0.445186 0
M  V30 7558 C 719.582 2.07056 0.119445 0
M  V30 7559 C 720.007 1.30966 1.35016 0
M  V30 7560 O 719.365 0.349827 1.77893 0
M  V30 7561 C 719.413 3.58234 0.412428 0
M  V30 7562 O 718.517 3.84249 1.49754 0
M  V30 7563 H 717.858 0.663998 -0.00157797 0
M  V30 7564 H 720.388 1.94699 -0.628779 0
M  V30 7565 H 720.398 4.02617 0.660583 0
M  V30 7566 H 719.073 4.13038 -0.487049 0
M  V30 7567 H 717.65 3.51724 1.23873 0
M  V30 7568 N 719.835 0.176821 1.56605 0
M  V30 7569 C 721.112 -0.513365 1.88743 0
M  V30 7570 C 721.492 -1.80929 1.08757 0
M  V30 7571 O 720.84 -2.27765 0.183127 0
M  V30 7572 C 721.05 -0.749925 3.40848 0
M  V30 7573 C 722.398 -1.07747 4.10701 0
M  V30 7574 O 723.422 -0.838277 3.46196 0
M  V30 7575 O 722.281 -1.52901 5.24675 0
M  V30 7576 H 719.375 -0.265296 0.783292 0
M  V30 7577 H 721.921 0.215669 1.68324 0
M  V30 7578 H 720.693 0.16599 3.90948 0
M  V30 7579 H 720.316 -1.53208 3.66897 0
M  V30 7580 N 721.313 -1.57302 -0.09688 0
M  V30 7581 C 722.56 -1.85997 -0.800699 0
M  V30 7582 C 722.888 -0.765089 -1.7882 0
M  V30 7583 O 722.143 0.241492 -1.94204 0
M  V30 7584 C 722.442 -3.21272 -1.56586 0
M  V30 7585 C 722.108 -4.45104 -0.72064 0
M  V30 7586 C 720.77 -4.78723 -0.487632 0
M  V30 7587 C 723.122 -5.2103 -0.132948 0
M  V30 7588 C 720.45 -5.85697 0.34296 0
M  V30 7589 C 722.802 -6.28881 0.684957 0
M  V30 7590 C 721.466 -6.61017 0.928073 0
M  V30 7591 H 720.736 -0.680613 -0.292997 0
M  V30 7592 H 723.383 -1.91399 -0.0622474 0
M  V30 7593 H 721.688 -3.11547 -2.37583 0
M  V30 7594 H 723.385 -3.40702 -2.11478 0
M  V30 7595 H 719.975 -4.18777 -0.912359 0
M  V30 7596 H 724.159 -4.95392 -0.300132 0
M  V30 7597 H 719.415 -6.09008 0.540317 0
M  V30 7598 H 723.589 -6.86886 1.14721 0
M  V30 7599 H 721.216 -7.43738 1.57348 0
M  V30 7600 N 722.791 0.367657 -1.53252 0
M  V30 7601 C 724.068 1.12606 -1.59935 0
M  V30 7602 C 724.448 2.07167 -0.405606 0
M  V30 7603 O 723.796 2.20364 0.604323 0
M  V30 7604 C 724.006 1.86699 -2.94863 0
M  V30 7605 C 725.354 2.41306 -3.49366 0
M  V30 7606 O 726.378 1.96828 -2.96879 0
M  V30 7607 O 725.237 3.2261 -4.41118 0
M  V30 7608 H 722.331 0.516438 -0.645926 0
M  V30 7609 H 724.877 0.371088 -1.65593 0
M  V30 7610 H 723.649 1.17674 -3.73187 0
M  V30 7611 H 723.272 2.6911 -2.92687 0
M  V30 7612 N 724.269 1.44576 0.627338 0
M  V30 7613 C 725.515 1.47777 1.38888 0
M  V30 7614 C 725.848 0.111406 1.9388 0
M  V30 7615 O 725.123 -0.87149 1.73883 0
M  V30 7616 C 725.406 2.54119 2.55138 0
M  V30 7617 C 725.259 4.00128 2.0547 0
M  V30 7618 C 726.578 2.56929 3.57317 0
M  V30 7619 H 723.697 0.538048 0.50366 0
M  V30 7620 H 726.339 1.76277 0.708978 0
M  V30 7621 H 724.489 2.29948 3.13139 0
M  V30 7622 H 726.161 4.35444 1.5227 0
M  V30 7623 H 724.404 4.11724 1.36623 0
M  V30 7624 H 725.075 4.7019 2.89181 0
M  V30 7625 H 727.551 2.78536 3.09122 0
M  V30 7626 H 726.427 3.33234 4.36173 0
M  V30 7627 H 726.688 1.6127 4.11636 0
M  V30 7628 N 725.747 -0.868086 1.31537 0
M  V30 7629 C 726.994 -1.62127 1.2133 0
M  V30 7630 C 727.322 -1.93158 -0.2281 0
M  V30 7631 O 726.577 -1.5632 -1.1774 0
M  V30 7632 C 726.876 -2.95889 2.0046 0
M  V30 7633 C 726.542 -2.84343 3.49943 0
M  V30 7634 C 725.204 -2.80901 3.90702 0
M  V30 7635 C 727.556 -2.71243 4.45058 0
M  V30 7636 C 724.884 -2.6222 5.24841 0
M  V30 7637 C 727.236 -2.54098 5.79325 0
M  V30 7638 C 725.9 -2.4904 6.19302 0
M  V30 7639 H 725.17 -0.593265 0.443979 0
M  V30 7640 H 727.817 -1.00803 1.62822 0
M  V30 7641 H 726.122 -3.61259 1.51655 0
M  V30 7642 H 727.819 -3.53161 1.89942 0
M  V30 7643 H 724.409 -2.8784 3.17563 0
M  V30 7644 H 728.593 -2.72956 4.14498 0
M  V30 7645 H 723.849 -2.56731 5.54887 0
M  V30 7646 H 728.023 -2.42938 6.52652 0
M  V30 7647 H 725.65 -2.34324 7.23185 0
M  V30 7648 N 727.225 -1.14528 -1.08264 0
M  V30 7649 C 728.188 -0.83632 -2.13397 0
M  V30 7650 C 729.188 0.159715 -1.60005 0
M  V30 7651 O 730.378 -0.0688098 -1.74064 0
M  V30 7652 C 727.51 -0.246973 -3.40004 0
M  V30 7653 H 728.703 -1.76808 -2.42237 0
M  V30 7654 H 726.256 -0.951509 -1.24 0
M  V30 7655 H 726.991 0.693436 -3.168 0
M  V30 7656 H 726.776 -0.964412 -3.80055 0
M  V30 7657 H 728.266 -0.0480679 -4.17572 0
M  V30 7658 N 728.703 1.26451 -0.940633 0
M  V30 7659 C 729.653 2.24086 -0.420669 0
M  V30 7660 C 730.637 1.53501 0.482301 0
M  V30 7661 O 731.829 1.74127 0.317636 0
M  V30 7662 C 728.958 3.41866 0.313452 0
M  V30 7663 C 728.044 4.19737 -0.606779 0
M  V30 7664 N 728.435 4.7521 -1.73232 0
M  V30 7665 C 726.733 4.44091 -0.41226 0
M  V30 7666 C 727.434 5.34052 -2.30572 0
M  V30 7667 N 726.41 5.1971 -1.59381 0
M  V30 7668 H 730.212 2.64569 -1.27986 0
M  V30 7669 H 727.726 1.4153 -0.796436 0
M  V30 7670 H 729.723 4.1093 0.702991 0
M  V30 7671 H 728.383 3.0291 1.16942 0
M  V30 7672 H 729.394 4.72769 -2.11447 0
M  V30 7673 H 726.071 4.1556 0.401984 0
M  V30 7674 H 727.461 5.87845 -3.25404 0
M  V30 7675 N 730.181 0.707592 1.40822 0
M  V30 7676 C 731.43 0.240705 2.00259 0
M  V30 7677 C 731.743 -1.17027 1.56729 0
M  V30 7678 O 732.949 -1.73526 2.08809 0
M  V30 7679 C 731.405 0.379432 3.57894 0
M  V30 7680 C 731.013 1.79654 4.104 0
M  V30 7681 C 732.757 -0.0270684 4.24491 0
M  V30 7682 C 730.664 1.88628 5.60512 0
M  V30 7683 H 729.594 0.0862369 0.749052 0
M  V30 7684 H 732.245 0.877528 1.61157 0
M  V30 7685 H 730.627 -0.325842 3.94657 0
M  V30 7686 H 731.801 2.53155 3.85032 0
M  V30 7687 H 730.116 2.15379 3.56372 0
M  V30 7688 H 732.713 0.0193743 5.34696 0
M  V30 7689 H 733.056 -1.06772 4.02375 0
M  V30 7690 H 733.589 0.628361 3.92806 0
M  V30 7691 H 730.328 2.90787 5.87472 0
M  V30 7692 H 729.848 1.19528 5.8777 0
M  V30 7693 H 731.527 1.6547 6.25483 0
M  V30 7694 N 731.66 -1.50943 0.453197 0
M  V30 7695 C 732.888 -2.06628 -0.106135 0
M  V30 7696 C 733.303 -1.31901 -1.35084 0
M  V30 7697 O 732.66 -0.383074 -1.78434 0
M  V30 7698 C 732.711 -3.5914 -0.412368 0
M  V30 7699 O 732.432 -4.31047 0.782948 0
M  V30 7700 C 733.933 -4.31391 -1.02064 0
M  V30 7701 H 731.153 -0.670999 -0.000885896 0
M  V30 7702 H 733.697 -1.94331 0.63684 0
M  V30 7703 H 731.852 -3.71299 -1.10526 0
M  V30 7704 H 732.266 -5.21948 0.516736 0
M  V30 7705 H 733.74 -5.39135 -1.1848 0
M  V30 7706 H 734.217 -3.90714 -2.00598 0
M  V30 7707 H 734.823 -4.23716 -0.366664 0
M  V30 7708 N 733.138 -0.185124 -1.56509 0
M  V30 7709 C 734.086 0.756505 -2.19954 0
M  V30 7710 C 735.08 1.22725 -1.16769 0
M  V30 7711 O 736.286 1.1913 -1.34937 0
M  V30 7712 H 732.661 0.262279 -0.704779 0
M  V30 7713 H 734.632 0.197587 -2.97745 0
M  V30 7714 C 733.381 1.96975 -2.86524 0
M  V30 7715 H 732.704 1.61658 -3.65659 0
M  V30 7716 H 734.144 2.60719 -3.34367 0
M  V30 7717 C 732.603 2.80219 -1.87027 0
M  V30 7718 O 733.133 3.77821 -1.36433 0
M  V30 7719 N 731.339 2.4551 -1.55477 0
M  V30 7720 H 730.886 1.66199 -1.96813 0
M  V30 7721 H 730.844 3.01493 -0.891597 0
M  V30 7722 N 734.616 1.57351 0.0885366 0
M  V30 7723 C 735.564 2.03542 1.12576 0
M  V30 7724 C 736.558 0.937668 1.41082 0
M  V30 7725 O 737.764 1.12283 1.40686 0
M  V30 7726 H 734.139 0.648752 0.380296 0
M  V30 7727 H 736.11 2.89833 0.709906 0
M  V30 7728 C 734.859 2.4811 2.43591 0
M  V30 7729 H 734.182 3.32164 2.22502 0
M  V30 7730 H 735.622 2.842 3.14653 0
M  V30 7731 C 734.081 1.35708 3.08359 0
M  V30 7732 O 734.611 0.689852 3.95732 0
M  V30 7733 N 732.817 1.10641 2.68713 0
M  V30 7734 H 732.364 1.6508 1.97753 0
M  V30 7735 H 732.322 0.356355 3.12374 0
M  V30 7736 N 736.094 -0.359525 1.53444 0
M  V30 7737 C 737.322 -1.12198 1.73837 0
M  V30 7738 C 737.737 -1.82854 0.470107 0
M  V30 7739 O 737.094 -1.73781 -0.557349 0
M  V30 7740 C 737.145 -2.14769 2.90786 0
M  V30 7741 O 736.866 -1.46989 4.12706 0
M  V30 7742 C 738.367 -3.03514 3.231 0
M  V30 7743 H 735.587 -0.33524 0.581253 0
M  V30 7744 H 738.131 -0.416598 2.00212 0
M  V30 7745 H 736.286 -2.80896 2.66788 0
M  V30 7746 H 736.7 -2.15378 4.78239 0
M  V30 7747 H 738.174 -3.71453 4.08322 0
M  V30 7748 H 738.651 -3.68658 2.38721 0
M  V30 7749 H 739.257 -2.42996 3.49046 0
M  V30 7750 N 737.572 -1.44907 -0.619662 0
M  V30 7751 C 738.535 -1.52282 -1.71297 0
M  V30 7752 C 739.535 -0.40359 -1.55653 0
M  V30 7753 O 740.725 -0.666638 -1.6094 0
M  V30 7754 C 737.857 -1.40778 -3.10474 0
M  V30 7755 H 739.05 -2.49683 -1.66128 0
M  V30 7756 H 736.603 -1.32168 -0.834339 0
M  V30 7757 H 737.338 -0.445156 -3.2123 0
M  V30 7758 H 737.123 -2.21947 -3.23237 0
M  V30 7759 H 738.613 -1.48946 -3.90135 0
M  V30 7760 N 739.05 0.861098 -1.31996 0
M  V30 7761 C 739.96 2.00154 -1.22374 0
M  V30 7762 C 740.976 1.73447 -0.138631 0
M  V30 7763 O 742.152 1.98191 -0.358104 0
M  V30 7764 C 739.217 3.33696 -0.940645 0
M  V30 7765 C 738.278 3.73668 -2.11355 0
M  V30 7766 C 737.511 5.00837 -1.84386 0
M  V30 7767 O 737.734 5.64996 -0.783287 0
M  V30 7768 O 736.668 5.37787 -2.70313 0
M  V30 7769 H 740.494 2.11207 -2.18233 0
M  V30 7770 H 738.079 0.990768 -1.11822 0
M  V30 7771 H 739.961 4.13756 -0.798987 0
M  V30 7772 H 738.636 3.23698 -0.0121636 0
M  V30 7773 H 737.543 2.94211 -2.31065 0
M  V30 7774 H 738.876 3.88303 -3.02459 0
M  V30 7775 N 740.528 1.15101 1.07655 0
M  V30 7776 C 741.438 0.858869 2.18313 0
M  V30 7777 C 742.454 -0.163641 1.73229 0
M  V30 7778 O 743.63 0.00969541 2.01398 0
M  V30 7779 C 740.695 0.34893 3.4494 0
M  V30 7780 C 739.756 1.43495 4.04608 0
M  V30 7781 C 738.989 0.949253 5.2519 0
M  V30 7782 O 739.212 -0.20636 5.70027 0
M  V30 7783 O 738.146 1.73161 5.76454 0
M  V30 7784 H 741.972 1.78386 2.45788 0
M  V30 7785 H 739.557 0.929876 1.16934 0
M  V30 7786 H 741.439 0.070851 4.2134 0
M  V30 7787 H 740.114 -0.548237 3.19024 0
M  V30 7788 H 739.021 1.7666 3.29761 0
M  V30 7789 H 740.354 2.30692 4.3479 0
M  V30 7790 N 742.006 -1.2595 0.947325 0
M  V30 7791 C 743.236 -1.97258 0.614235 0
M  V30 7792 C 743.644 -1.70682 -0.816355 0
M  V30 7793 O 742.987 -0.97527 -1.55673 0
M  V30 7794 C 743.049 -3.50845 0.784081 0
M  V30 7795 C 742.713 -4.01084 2.19045 0
M  V30 7796 C 743.71 -4.12347 3.16648 0
M  V30 7797 C 741.395 -4.34936 2.51268 0
M  V30 7798 C 743.389 -4.56766 4.44572 0
M  V30 7799 C 741.076 -4.79043 3.79422 0
M  V30 7800 C 742.074 -4.89919 4.75887 0
M  V30 7801 O 741.762 -5.3305 6.01758 0
M  V30 7802 H 741.494 -0.635738 0.22981 0
M  V30 7803 H 744.048 -1.61268 1.27207 0
M  V30 7804 H 742.278 -3.86638 0.069101 0
M  V30 7805 H 743.967 -4.03363 0.453135 0
M  V30 7806 H 744.733 -3.86432 2.93079 0
M  V30 7807 H 740.612 -4.25702 1.76916 0
M  V30 7808 H 744.156 -4.6517 5.19868 0
M  V30 7809 H 740.053 -5.04402 4.02802 0
M  V30 7810 H 740.821 -5.51255 6.05029 0
M  V30 7811 N 743.484 -0.715051 -1.40445 0
M  V30 7812 C 744.73 -0.254705 -2.01194 0
M  V30 7813 C 745.063 1.14894 -1.56567 0
M  V30 7814 O 744.338 1.77933 -0.785491 0
M  V30 7815 C 744.621 -0.334148 -3.58546 0
M  V30 7816 C 744.474 -1.77613 -4.13248 0
M  V30 7817 C 745.793 0.294968 -4.3911 0
M  V30 7818 H 742.912 -0.094025 -0.730978 0
M  V30 7819 H 745.554 -0.907449 -1.66929 0
M  V30 7820 H 743.704 0.221609 -3.87867 0
M  V30 7821 H 745.376 -2.38723 -3.94727 0
M  V30 7822 H 743.619 -2.30402 -3.67556 0
M  V30 7823 H 744.29 -1.78311 -5.22407 0
M  V30 7824 H 746.766 -0.178563 -4.15717 0
M  V30 7825 H 745.642 0.208934 -5.48502 0
M  V30 7826 H 745.903 1.37841 -4.20062 0
M  V30 7827 N 744.962 1.50701 -0.461195 0
M  V30 7828 C 746.202 2.04174 0.0960673 0
M  V30 7829 C 746.566 1.33628 1.37868 0
M  V30 7830 O 747.767 1.77602 2.0177 0
M  V30 7831 C 746.038 3.56256 0.285676 0
M  V30 7832 S 747.597 4.31392 0.802917 0
M  V30 7833 H 744.415 0.710701 0.0206282 0
M  V30 7834 H 747.017 1.85204 -0.62607 0
M  V30 7835 H 745.721 4.05159 -0.653773 0
M  V30 7836 H 745.252 3.79562 1.03421 0
M  V30 7837 H 747.267 4.50611 2.07761 0
M  V30 7838 N 746.441 0.193421 1.56409 0
M  V30 7839 C 747.857 -0.162447 1.58771 0
M  V30 7840 C 748.057 -1.6116 1.20954 0
M  V30 7841 O 747.113 -2.3469 0.931497 0
M  V30 7842 C 748.426 0.138391 3.00381 0
M  V30 7843 C 749.974 0.0783649 3.12902 0
M  V30 7844 C 750.449 0.352491 4.56642 0
M  V30 7845 N 751.94 0.30105 4.62221 0
M  V30 7846 C 752.675 0.487028 5.71328 0
M  V30 7847 N 752.171 0.733265 6.88909 0
M  V30 7848 N 753.964 0.4214 5.60518 0
M  V30 7849 H 746.115 1.13909 1.79272 0
M  V30 7850 H 748.378 0.454528 0.83193 0
M  V30 7851 H 748.084 1.14312 3.32604 0
M  V30 7852 H 747.958 -0.559804 3.73023 0
M  V30 7853 H 750.345 -0.916963 2.80492 0
M  V30 7854 H 750.426 0.809611 2.4265 0
M  V30 7855 H 750.07 1.34513 4.89764 0
M  V30 7856 H 750 -0.399624 5.25081 0
M  V30 7857 H 752.491 0.117279 3.77718 0
M  V30 7858 H 752.804 0.86403 7.67955 0
M  V30 7859 H 751.149 0.770138 6.9072 0
M  V30 7860 H 754.34 0.229461 4.67537 0
M  V30 7861 H 754.513 0.569758 6.4549 0
M  V30 7862 N 747.919 -1.57396 -0.0801906 0
M  V30 7863 C 748.849 -2.06145 -1.09665 0
M  V30 7864 C 749.83 -0.953273 -1.40878 0
M  V30 7865 O 751.015 -1.22548 -1.50651 0
M  V30 7866 C 748.145 -2.49836 -2.41245 0
M  V30 7867 C 747.099 -3.64454 -2.24405 0
M  V30 7868 C 746.425 -3.94172 -3.61293 0
M  V30 7869 C 747.725 -4.94807 -1.67223 0
M  V30 7870 H 749.419 -2.91316 -0.691028 0
M  V30 7871 H 746.965 -1.40145 -0.330957 0
M  V30 7872 H 748.918 -2.82552 -3.12638 0
M  V30 7873 H 747.642 -1.61683 -2.83771 0
M  V30 7874 H 746.301 -3.32008 -1.55454 0
M  V30 7875 H 745.949 -3.03163 -4.01374 0
M  V30 7876 H 745.649 -4.71345 -3.50867 0
M  V30 7877 H 747.173 -4.29376 -4.3413 0
M  V30 7878 H 748.587 -5.25807 -2.28472 0
M  V30 7879 H 746.984 -5.76245 -1.67515 0
M  V30 7880 H 748.054 -4.80751 -0.632944 0
M  V30 7881 N 749.397 0.351382 -1.53633 0
M  V30 7882 C 750.327 1.43688 -1.84055 0
M  V30 7883 C 751.308 1.55251 -0.695073 0
M  V30 7884 O 752.493 1.69587 -0.946257 0
M  V30 7885 C 749.623 2.80843 -2.04315 0
M  V30 7886 C 748.577 2.84094 -3.20117 0
M  V30 7887 C 747.903 4.2406 -3.25696 0
M  V30 7888 C 749.203 2.50334 -4.58399 0
M  V30 7889 H 750.897 1.18478 -2.74961 0
M  V30 7890 H 748.443 0.568509 -1.32303 0
M  V30 7891 H 750.396 3.56821 -2.2418 0
M  V30 7892 H 749.12 3.07471 -1.10132 0
M  V30 7893 H 747.779 2.10568 -3.00094 0
M  V30 7894 H 747.427 4.47785 -2.29123 0
M  V30 7895 H 747.127 4.27147 -4.03509 0
M  V30 7896 H 748.651 5.0189 -3.47762 0
M  V30 7897 H 750.065 3.16025 -4.78332 0
M  V30 7898 H 748.462 2.64717 -5.38558 0
M  V30 7899 H 749.532 1.45542 -4.62543 0
M  V30 7900 N 750.875 1.45233 0.611969 0
M  V30 7901 C 751.805 1.5641 1.73373 0
M  V30 7902 C 752.786 0.415896 1.64937 0
M  V30 7903 O 753.971 0.638478 1.83404 0
M  V30 7904 C 751.101 1.52627 3.11965 0
M  V30 7905 C 750.055 2.66119 3.35208 0
M  V30 7906 C 749.381 2.4739 4.74028 0
M  V30 7907 C 750.681 4.08157 3.25891 0
M  V30 7908 H 752.375 2.50307 1.64277 0
M  V30 7909 H 749.921 1.20467 0.788904 0
M  V30 7910 H 751.874 1.59043 3.90235 0
M  V30 7911 H 750.598 0.552564 3.21892 0
M  V30 7912 H 749.257 2.59123 2.59327 0
M  V30 7913 H 748.905 1.48168 4.80682 0
M  V30 7914 H 748.605 3.23494 4.90536 0
M  V30 7915 H 750.129 2.55653 5.54503 0
M  V30 7916 H 751.543 4.1642 3.9404 0
M  V30 7917 H 749.94 4.84617 3.5393 0
M  V30 7918 H 751.01 4.30374 2.23397 0
M  V30 7919 N 752.353 -0.854086 1.3245 0
M  V30 7920 C 753.593 -1.62216 1.2436 0
M  V30 7921 C 753.957 -1.91042 -0.191564 0
M  V30 7922 O 755.158 -2.65864 -0.396211 0
M  V30 7923 C 753.429 -2.9066 2.0797 0
M  V30 7924 S 754.988 -3.81438 2.16911 0
M  V30 7925 H 751.806 -0.556386 0.442669 0
M  V30 7926 H 754.408 -1.01139 1.67305 0
M  V30 7927 H 753.112 -2.6743 3.11302 0
M  V30 7928 H 752.643 -3.56753 1.65805 0
M  V30 7929 H 754.658 -4.78347 1.31903 0
M  V30 7930 N 753.831 -1.1567 -1.07043 0
M  V30 7931 C 754.794 -0.858906 -2.12498 0
M  V30 7932 C 755.794 0.142735 -1.60165 0
M  V30 7933 O 756.984 -0.0872678 -1.73981 0
M  V30 7934 C 754.116 -0.283021 -3.39723 0
M  V30 7935 H 755.309 -1.79368 -2.40348 0
M  V30 7936 H 752.862 -0.964608 -1.22984 0
M  V30 7937 H 753.597 0.659796 -3.17517 0
M  V30 7938 H 753.382 -1.00467 -3.7901 0
M  V30 7939 H 754.872 -0.0923543 -4.17498 0
M  V30 7940 N 755.309 1.25446 -0.953992 0
M  V30 7941 C 756.725 1.4539 -0.658316 0
M  V30 7942 C 756.925 1.85607 0.784356 0
M  V30 7943 O 755.981 1.98568 1.55972 0
M  V30 7944 C 757.294 2.52643 -1.6307 0
M  V30 7945 C 758.842 2.66484 -1.64181 0
M  V30 7946 C 759.317 3.76921 -2.60182 0
M  V30 7947 N 760.808 3.84331 -2.58542 0
M  V30 7948 C 761.543 4.69271 -3.29503 0
M  V30 7949 N 761.039 5.58503 -4.09934 0
M  V30 7950 N 762.832 4.6323 -3.18393 0
M  V30 7951 H 754.983 0.976337 -1.8863 0
M  V30 7952 H 757.246 0.490343 -0.811337 0
M  V30 7953 H 756.952 2.29949 -2.66114 0
M  V30 7954 H 756.826 3.50547 -1.39271 0
M  V30 7955 H 759.213 2.88545 -0.618552 0
M  V30 7956 H 759.294 1.68982 -1.92038 0
M  V30 7957 H 758.938 3.55612 -3.62633 0
M  V30 7958 H 758.868 4.73906 -2.29609 0
M  V30 7959 H 761.359 3.20544 -2.0015 0
M  V30 7960 H 761.672 6.20241 -4.61 0
M  V30 7961 H 760.017 5.58214 -4.14032 0
M  V30 7962 H 763.208 3.92527 -2.5503 0
M  V30 7963 H 763.381 5.29204 -3.73961 0
M  V30 7964 N 756.787 0.722489 1.40064 0
M  V30 7965 C 758.015 0.274838 2.05066 0
M  V30 7966 C 758.43 -1.08586 1.54449 0
M  V30 7967 O 757.787 -1.68375 0.704003 0
M  V30 7968 C 757.838 0.253673 3.60609 0
M  V30 7969 O 757.559 1.56064 4.0936 0
M  V30 7970 C 759.06 -0.211684 4.42794 0
M  V30 7971 H 756.28 0.12226 0.659768 0
M  V30 7972 H 758.824 0.982632 1.79345 0
M  V30 7973 H 756.979 -0.405137 3.85276 0
M  V30 7974 H 757.393 1.46576 5.03603 0
M  V30 7975 H 758.867 -0.175341 5.51721 0
M  V30 7976 H 759.344 -1.25493 4.2089 0
M  V30 7977 H 759.95 0.4171 4.2325 0
M  V30 7978 N 758.265 -1.50454 0.469181 0
M  V30 7979 C 759.511 -2.02615 -0.0865971 0
M  V30 7980 C 759.844 -1.35062 -1.39542 0
M  V30 7981 O 759.119 -0.475701 -1.88593 0
M  V30 7982 C 759.402 -3.59068 -0.272385 0
M  V30 7983 C 759.255 -4.37196 1.05733 0
M  V30 7984 C 760.574 -4.2793 -1.0278 0
M  V30 7985 H 757.693 -0.736389 -0.0299977 0
M  V30 7986 H 760.335 -1.79792 0.614399 0
M  V30 7987 H 758.485 -3.78646 -0.869471 0
M  V30 7988 H 760.157 -4.29195 1.69084 0
M  V30 7989 H 758.4 -4.01013 1.65442 0
M  V30 7990 H 759.071 -5.44924 0.880997 0
M  V30 7991 H 761.547 -4.12816 -0.521718 0
M  V30 7992 H 760.423 -5.37214 -1.12659 0
M  V30 7993 H 760.684 -3.90968 -2.0639 0
M  V30 7994 N 759.743 -0.201713 -1.56304 0
M  V30 7995 C 760.968 0.443815 -2.02596 0
M  V30 7996 C 761.393 1.53945 -1.08086 0
M  V30 7997 O 760.751 1.81182 -0.0655056 0
M  V30 7998 C 760.799 0.971066 -3.47279 0
M  V30 7999 O 759.903 2.0836 -3.55893 0
M  V30 8000 H 759.244 0.10294 -0.655972 0
M  V30 8001 H 761.774 -0.314533 -2.02168 0
M  V30 8002 H 761.784 1.28598 -3.87204 0
M  V30 8003 H 760.459 0.169048 -4.15556 0
M  V30 8004 H 759.036 1.77683 -3.27846 0
M  V30 8005 N 761.222 1.57436 0.0718424 0
M  V30 8006 C 762.452 1.91196 0.782795 0
M  V30 8007 C 762.86 0.795927 1.71644 0
M  V30 8008 O 762.203 -0.239604 1.82131 0
M  V30 8009 C 762.265 3.20421 1.63005 0
M  V30 8010 C 761.929 4.48724 0.865782 0
M  V30 8011 C 762.926 5.19571 0.185051 0
M  V30 8012 C 760.611 4.95345 0.832971 0
M  V30 8013 C 762.605 6.3529 -0.518264 0
M  V30 8014 C 760.292 6.1097 0.125884 0
M  V30 8015 C 761.29 6.80794 -0.548533 0
M  V30 8016 O 760.978 7.94213 -1.24423 0
M  V30 8017 H 760.71 0.636486 0.227731 0
M  V30 8018 H 763.264 2.05348 0.0464187 0
M  V30 8019 H 761.494 3.02478 2.40923 0
M  V30 8020 H 763.183 3.39831 2.21968 0
M  V30 8021 H 763.949 4.8458 0.201707 0
M  V30 8022 H 759.828 4.40871 1.34737 0
M  V30 8023 H 763.372 6.89725 -1.04523 0
M  V30 8024 H 759.269 6.45411 0.107155 0
M  V30 8025 H 760.037 8.10331 -1.1535 0
M  V30 8026 N 762.7 -0.34323 1.53817 0
M  V30 8027 C 763.648 -1.44176 1.82527 0
M  V30 8028 C 764.642 -1.54452 0.695772 0
M  V30 8029 O 765.848 -1.57072 0.879114 0
M  V30 8030 H 762.223 -0.480729 0.578277 0
M  V30 8031 H 764.194 -1.17176 2.74431 0
M  V30 8032 C 762.943 -2.80695 2.05197 0
M  V30 8033 H 762.266 -2.73554 2.91561 0
M  V30 8034 H 763.706 -3.56679 2.29251 0
M  V30 8035 C 762.165 -3.26322 0.837589 0
M  V30 8036 O 762.695 -4.01683 0.0371631 0
M  V30 8037 N 760.901 -2.83128 0.654724 0
M  V30 8038 H 760.448 -2.21965 1.30725 0
M  V30 8039 H 760.406 -3.14011 -0.156345 0
M  V30 8040 N 764.178 -1.45556 -0.604258 0
M  V30 8041 C 765.426 -1.4945 -1.36048 0
M  V30 8042 C 765.747 -0.138933 -1.94504 0
M  V30 8043 O 765.017 0.832097 -1.7735 0
M  V30 8044 H 763.597 -0.550381 -0.505064 0
M  V30 8045 H 766.259 -1.81535 -0.709308 0
M  V30 8046 H 765.355 -2.23519 -2.17821 0
M  V30 8047 N 765.656 0.84705 -1.32902 0
M  V30 8048 C 766.905 1.59667 -1.23245 0
M  V30 8049 C 767.218 1.94551 0.202349 0
M  V30 8050 O 768.424 2.68218 0.420847 0
M  V30 8051 C 766.88 2.8795 -2.15901 0
M  V30 8052 C 766.488 2.60461 -3.64505 0
M  V30 8053 C 768.232 3.65968 -2.15098 0
M  V30 8054 C 766.139 3.84791 -4.49099 0
M  V30 8055 H 765.069 0.599167 -0.457728 0
M  V30 8056 H 767.72 0.934662 -1.57912 0
M  V30 8057 H 766.102 3.55648 -1.74157 0
M  V30 8058 H 767.276 2.01026 -4.14639 0
M  V30 8059 H 765.591 1.9576 -3.67515 0
M  V30 8060 H 768.188 4.58241 -2.75534 0
M  V30 8061 H 768.531 4.00275 -1.14392 0
M  V30 8062 H 769.064 3.05184 -2.55162 0
M  V30 8063 H 765.803 3.55621 -5.50649 0
M  V30 8064 H 765.323 4.43594 -4.03713 0
M  V30 8065 H 767.002 4.52454 -4.62487 0
M  V30 8066 N 767.134 1.16236 1.06428 0
M  V30 8067 C 768.064 0.890807 2.1584 0
M  V30 8068 C 769.045 -0.162333 1.69324 0
M  V30 8069 O 770.23 -0.0147191 1.94194 0
M  V30 8070 C 767.36 0.389615 3.45108 0
M  V30 8071 C 766.314 1.38051 4.05125 0
M  V30 8072 C 765.64 0.737773 5.29586 0
M  V30 8073 C 766.94 2.74965 4.44062 0
M  V30 8074 H 768.634 1.80577 2.38814 0
M  V30 8075 H 766.18 0.869657 1.14774 0
M  V30 8076 H 768.133 0.187127 4.20984 0
M  V30 8077 H 766.857 -0.560851 3.21748 0
M  V30 8078 H 765.516 1.56952 3.31303 0
M  V30 8079 H 765.164 -0.219135 5.02522 0
M  V30 8080 H 764.864 1.39914 5.70699 0
M  V30 8081 H 766.388 0.545275 6.0816 0
M  V30 8082 H 767.802 2.59855 5.11027 0
M  V30 8083 H 766.199 3.37563 4.96156 0
M  V30 8084 H 767.269 3.30321 3.54987 0
M  V30 8085 N 768.612 -1.24939 0.960631 0
M  V30 8086 C 769.86 -1.92437 0.617441 0
M  V30 8087 C 770.181 -1.75543 -0.849101 0
M  V30 8088 O 769.451 -1.12269 -1.60538 0
M  V30 8089 H 768.031 -0.712192 0.225371 0
M  V30 8090 H 770.693 -1.5198 1.22017 0
M  V30 8091 H 769.789 -3.00247 0.851933 0
M  V30 8092 N 770.09 -0.729906 -1.39679 0
M  V30 8093 C 771.501 -0.346241 -1.83461 0
M  V30 8094 C 771.852 1.1215 -1.60987 0
M  V30 8095 O 770.977 1.86456 -1.09832 0
M  V30 8096 C 771.572 -0.621656 -3.33048 0
M  V30 8097 C 770.131 -0.291543 -3.75269 0
M  V30 8098 C 769.278 -0.886844 -2.62736 0
M  V30 8099 H 772.229 -0.927949 -1.28743 0
M  V30 8100 H 772.25 0.108301 -3.80346 0
M  V30 8101 H 771.762 -1.68996 -3.49373 0
M  V30 8102 H 769.863 0.771133 -3.64533 0
M  V30 8103 H 769.976 -0.770544 -4.72863 0
M  V30 8104 H 768.34 -0.313839 -2.52759 0
M  V30 8105 H 769.123 -1.95971 -2.81869 0
M  V30 8106 N 771.568 1.50203 -0.477153 0
M  V30 8107 C 772.478 2.32421 0.319027 0
M  V30 8108 C 773.494 1.43075 0.990233 0
M  V30 8109 O 774.67 1.76123 0.976873 0
M  V30 8110 C 771.735 3.17909 1.38328 0
M  V30 8111 C 770.796 4.23082 0.728036 0
M  V30 8112 C 770.029 5.04484 1.74158 0
M  V30 8113 O 770.252 4.8705 2.96881 0
M  V30 8114 O 769.186 5.8747 1.31006 0
M  V30 8115 H 773.012 3.01638 -0.353281 0
M  V30 8116 H 770.597 1.47478 -0.238891 0
M  V30 8117 H 772.479 3.70937 1.9996 0
M  V30 8118 H 771.154 2.51413 2.03895 0
M  V30 8119 H 770.061 3.7403 0.07261 0
M  V30 8120 H 771.394 4.92065 0.115216 0
M  V30 8121 N 773.046 0.209999 1.56195 0
M  V30 8122 C 774.286 -0.4268 1.99894 0
M  V30 8123 C 774.65 -1.57763 1.0943 0
M  V30 8124 O 775.851 -2.27964 1.42428 0
M  V30 8125 C 774.122 -0.861188 3.46869 0
M  V30 8126 S 775.681 -1.49372 4.12593 0
M  V30 8127 H 772.499 -0.135922 0.697887 0
M  V30 8128 H 775.101 0.316573 1.9292 0
M  V30 8129 H 773.805 -0.0137653 4.10398 0
M  V30 8130 H 773.336 -1.63766 3.57693 0
M  V30 8131 H 775.351 -2.7827 4.10829 0
M  V30 8132 N 774.524 -1.57472 -0.0634922 0
M  V30 8133 C 775.772 -1.87283 -0.759563 0
M  V30 8134 C 776.093 -0.803135 -1.77693 0
M  V30 8135 O 775.363 0.167293 -1.95184 0
M  V30 8136 H 773.943 -0.691106 -0.283516 0
M  V30 8137 H 776.605 -1.94864 -0.0376091 0
M  V30 8138 H 775.701 -2.85064 -1.27062 0
M  V30 8139 N 776.003 0.335068 -1.53997 0
M  V30 8140 C 777.231 1.09418 -1.756 0
M  V30 8141 C 777.646 1.82083 -0.499138 0
M  V30 8142 O 777.003 1.74646 0.529631 0
M  V30 8143 C 777.054 2.10115 -2.94166 0
M  V30 8144 O 776.775 1.40404 -4.14992 0
M  V30 8145 C 778.276 2.98336 -3.27888 0
M  V30 8146 H 775.496 0.32595 -0.586513 0
M  V30 8147 H 778.04 0.384693 -2.00849 0
M  V30 8148 H 776.195 2.76616 -2.71224 0
M  V30 8149 H 776.609 2.07743 -4.81605 0
M  V30 8150 H 778.083 3.6491 -4.1418 0
M  V30 8151 H 778.56 3.64814 -2.44556 0
M  V30 8152 H 779.166 2.37412 -3.52868 0
M  V30 8153 N 777.481 1.45874 0.596531 0
M  V30 8154 C 778.428 1.55389 1.70655 0
M  V30 8155 C 779.398 0.399036 1.61236 0
M  V30 8156 O 780.583 0.61396 1.80652 0
M  V30 8157 C 777.723 1.53705 3.0898 0
M  V30 8158 C 776.836 2.79823 3.29125 0
M  V30 8159 C 775.971 2.69735 4.5762 0
M  V30 8160 C 775.01 3.90856 4.71061 0
M  V30 8161 N 774.147 3.79237 5.90867 0
M  V30 8162 H 778.987 2.50211 1.61859 0
M  V30 8163 H 776.524 1.24146 0.789069 0
M  V30 8164 H 778.482 1.50715 3.89026 0
M  V30 8165 H 777.112 0.624247 3.16706 0
M  V30 8166 H 776.164 2.92852 2.42779 0
M  V30 8167 H 777.476 3.69628 3.34927 0
M  V30 8168 H 776.63 2.64773 5.45875 0
M  V30 8169 H 775.369 1.77547 4.54234 0
M  V30 8170 H 774.374 3.96164 3.81227 0
M  V30 8171 H 775.599 4.84124 4.76236 0
M  V30 8172 H 773.545 2.89825 5.88504 0
M  V30 8173 H 773.462 4.62686 5.97877 0
M  V30 8174 H 774.73 3.78227 6.8159 0
M  V30 8175 N 778.959 -0.83999 1.33349 0
M  V30 8176 C 780.189 -1.62492 1.27593 0
M  V30 8177 C 780.597 -1.88559 -0.155597 0
M  V30 8178 O 779.94 -1.46537 -1.10782 0
M  V30 8179 C 780.002 -2.99984 1.98116 0
M  V30 8180 C 779.666 -2.96892 3.47425 0
M  V30 8181 C 780.663 -2.72688 4.42648 0
M  V30 8182 C 778.348 -3.17063 3.89585 0
M  V30 8183 C 780.342 -2.68681 5.78004 0
M  V30 8184 C 778.029 -3.12682 5.25046 0
M  V30 8185 C 779.027 -2.88522 6.19067 0
M  V30 8186 O 778.715 -2.84042 7.52047 0
M  V30 8187 H 778.447 -0.512358 0.440982 0
M  V30 8188 H 781.001 -1.0545 1.76265 0
M  V30 8189 H 779.231 -3.58875 1.44034 0
M  V30 8190 H 780.92 -3.6084 1.85875 0
M  V30 8191 H 781.686 -2.56856 4.114 0
M  V30 8192 H 777.565 -3.34889 3.16813 0
M  V30 8193 H 781.109 -2.49743 6.51363 0
M  V30 8194 H 777.006 -3.28063 5.55918 0
M  V30 8195 H 777.774 -2.99892 7.61582 0
M  V30 8196 N 780.437 -1.16799 -1.0581 0
M  V30 8197 C 781.367 -0.902241 -2.15364 0
M  V30 8198 C 782.348 0.153351 -1.69407 0
M  V30 8199 O 783.533 0.00442032 -1.94199 0
M  V30 8200 C 780.663 -0.407911 -3.44896 0
M  V30 8201 C 779.617 -1.40197 -4.04387 0
M  V30 8202 C 778.943 -0.765848 -5.29187 0
M  V30 8203 C 780.243 -2.77316 -4.42598 0
M  V30 8204 H 781.937 -1.81841 -2.37853 0
M  V30 8205 H 779.483 -0.875731 -1.14311 0
M  V30 8206 H 781.436 -0.20945 -4.20879 0
M  V30 8207 H 780.16 0.54378 -3.22041 0
M  V30 8208 H 778.819 -1.58707 -3.30466 0
M  V30 8209 H 778.467 0.192482 -5.02632 0
M  V30 8210 H 778.167 -1.42939 -5.69949 0
M  V30 8211 H 779.691 -0.577519 -6.07863 0
M  V30 8212 H 781.105 -2.62561 -5.09642 0
M  V30 8213 H 779.502 -3.4019 -4.94359 0
M  V30 8214 H 780.572 -3.32199 -3.53231 0
M  V30 8215 N 781.915 1.24427 -0.967243 0
M  V30 8216 C 782.845 2.2773 -0.515899 0
M  V30 8217 C 783.826 1.64197 0.444227 0
M  V30 8218 O 785.011 1.91193 0.340451 0
M  V30 8219 C 782.141 3.46751 0.195149 0
M  V30 8220 C 781.095 4.22548 -0.680953 0
M  V30 8221 C 780.421 5.34456 0.161561 0
M  V30 8222 C 781.721 4.83914 -1.96532 0
M  V30 8223 H 783.415 2.65735 -1.37933 0
M  V30 8224 H 780.961 1.27742 -0.664681 0
M  V30 8225 H 782.914 4.18153 0.522117 0
M  V30 8226 H 781.638 3.07771 1.09292 0
M  V30 8227 H 780.297 3.52946 -0.991186 0
M  V30 8228 H 779.945 4.91716 1.05947 0
M  V30 8229 H 779.645 5.86087 -0.421418 0
M  V30 8230 H 781.169 6.08685 0.483211 0
M  V30 8231 H 782.583 5.47392 -1.70396 0
M  V30 8232 H 780.98 5.45775 -2.49499 0
M  V30 8233 H 782.05 4.05393 -2.66053 0
M  V30 8234 N 783.393 0.737304 1.3929 0
M  V30 8235 C 784.341 0.0879867 2.32434 0
M  V30 8236 C 785.335 -0.723324 1.53181 0
M  V30 8237 O 786.541 -0.624251 1.68829 0
M  V30 8238 H 782.916 0.00965277 0.751938 0
M  V30 8239 H 784.887 0.889915 2.84821 0
M  V30 8240 C 783.636 -0.803384 3.38291 0
M  V30 8241 H 782.959 -0.18849 3.99355 0
M  V30 8242 H 784.399 -1.22528 4.0591 0
M  V30 8243 C 782.858 -1.93872 2.75527 0
M  V30 8244 O 783.388 -3.03154 2.63553 0
M  V30 8245 N 781.594 -1.72883 2.3358 0
M  V30 8246 H 781.141 -0.840005 2.43519 0
M  V30 8247 H 781.099 -2.49021 1.91927 0
M  V30 8248 N 784.871 -1.49948 0.485112 0
M  V30 8249 C 785.801 -2.31675 -0.291364 0
M  V30 8250 C 786.782 -1.39216 -0.977383 0
M  V30 8251 O 787.967 -1.68133 -0.971855 0
M  V30 8252 C 785.097 -3.19326 -1.36558 0
M  V30 8253 C 784.051 -4.2045 -0.800359 0
M  V30 8254 C 783.377 -4.96931 -1.97391 0
M  V30 8255 C 784.677 -5.21925 0.197867 0
M  V30 8256 H 786.371 -2.96839 0.390775 0
M  V30 8257 H 783.917 -1.42749 0.189375 0
M  V30 8258 H 785.87 -3.75304 -1.91638 0
M  V30 8259 H 784.594 -2.52074 -2.07668 0
M  V30 8260 H 783.253 -3.65594 -0.271428 0
M  V30 8261 H 782.901 -4.26141 -2.67232 0
M  V30 8262 H 782.601 -5.65344 -1.60187 0
M  V30 8263 H 784.125 -5.55749 -2.52935 0
M  V30 8264 H 785.539 -5.72691 -0.264239 0
M  V30 8265 H 783.936 -5.98138 0.484908 0
M  V30 8266 H 785.006 -4.71809 1.11912 0
M  V30 8267 N 786.349 -0.21828 -1.56081 0
M  V30 8268 C 787.297 0.709679 -2.21509 0
M  V30 8269 C 788.291 1.20221 -1.19346 0
M  V30 8270 O 789.497 1.16241 -1.37433 0
M  V30 8271 H 785.872 0.247271 -0.710184 0
M  V30 8272 H 787.843 0.134386 -2.98097 0
M  V30 8273 C 786.592 1.90853 -2.90638 0
M  V30 8274 H 785.915 1.53865 -3.69006 0
M  V30 8275 H 787.355 2.53568 -3.39822 0
M  V30 8276 C 785.814 2.76189 -1.92929 0
M  V30 8277 O 786.344 3.74842 -1.44416 0
M  V30 8278 N 784.55 2.42157 -1.6065 0
M  V30 8279 H 784.097 1.61987 -2.00294 0
M  V30 8280 H 784.055 2.99534 -0.955347 0
M  V30 8281 N 787.827 1.57504 0.0551401 0
M  V30 8282 C 788.757 2.07864 1.06372 0
M  V30 8283 C 789.738 0.975565 1.39344 0
M  V30 8284 O 790.923 1.24929 1.48682 0
M  V30 8285 C 788.053 2.53643 2.3724 0
M  V30 8286 C 787.007 3.67978 2.18578 0
M  V30 8287 C 786.333 3.9987 3.54976 0
M  V30 8288 C 787.633 4.97405 1.59329 0
M  V30 8289 H 789.327 2.92379 0.644595 0
M  V30 8290 H 786.873 1.40654 0.308619 0
M  V30 8291 H 788.826 2.8749 3.08103 0
M  V30 8292 H 787.55 1.66177 2.81163 0
M  V30 8293 H 786.209 3.3444 1.50152 0
M  V30 8294 H 785.857 3.0951 3.965 0
M  V30 8295 H 785.557 4.76867 3.43324 0
M  V30 8296 H 787.081 4.36228 4.27244 0
M  V30 8297 H 788.495 5.29375 2.20078 0
M  V30 8298 H 786.892 5.78837 1.58327 0
M  V30 8299 H 787.962 4.81697 0.55638 0
M  V30 8300 N 789.305 -0.326896 1.54172 0
M  V30 8301 C 790.215 -1.42525 1.86343 0
M  V30 8302 C 791.231 -1.56764 0.75505 0
M  V30 8303 O 792.407 -1.71924 1.04901 0
M  V30 8304 C 789.472 -2.77286 2.08119 0
M  V30 8305 C 788.533 -2.7225 3.31931 0
M  V30 8306 C 787.766 -4.00584 3.52659 0
M  V30 8307 O 787.989 -4.98686 2.76891 0
M  V30 8308 O 786.923 -4.04045 4.46129 0
M  V30 8309 H 790.749 -1.18249 2.79734 0
M  V30 8310 H 788.334 -0.520614 1.40036 0
M  V30 8311 H 790.216 -3.57065 2.23791 0
M  V30 8312 H 788.891 -3.01459 1.17917 0
M  V30 8313 H 787.798 -1.91033 3.21647 0
M  V30 8314 H 789.131 -2.53032 4.2218 0
M  V30 8315 N 790.784 -1.46188 -0.588786 0
M  V30 8316 C 792.195 -1.45421 -1.17088 0
M  V30 8317 C 792.546 -0.191801 -1.9526 0
M  V30 8318 O 791.671 0.705497 -2.04577 0
M  V30 8319 C 792.266 -2.63467 -2.13004 0
M  V30 8320 C 790.825 -2.6576 -2.6655 0
M  V30 8321 C 789.972 -2.38002 -1.42304 0
M  V30 8322 H 792.923 -1.54156 -0.377052 0
M  V30 8323 H 792.944 -2.38638 -2.96365 0
M  V30 8324 H 792.456 -3.55331 -1.56081 0
M  V30 8325 H 790.557 -1.77952 -3.27359 0
M  V30 8326 H 790.67 -3.65545 -3.09699 0
M  V30 8327 H 789.034 -1.87936 -1.71907 0
M  V30 8328 H 789.817 -3.32035 -0.872209 0
M  V30 8329 N 792.262 0.832906 -1.33792 0
M  V30 8330 C 793.509 1.58853 -1.25586 0
M  V30 8331 C 793.837 1.93695 0.176807 0
M  V30 8332 O 793.092 1.59386 1.13554 0
M  V30 8333 C 793.391 2.9047 -2.08235 0
M  V30 8334 C 793.057 2.74965 -3.57358 0
M  V30 8335 C 791.719 2.70444 -3.98012 0
M  V30 8336 C 794.071 2.59347 -4.52093 0
M  V30 8337 C 791.399 2.48212 -5.31608 0
M  V30 8338 C 793.751 2.38649 -5.85858 0
M  V30 8339 C 792.415 2.32533 -6.25687 0
M  V30 8340 H 791.685 0.581285 -0.459553 0
M  V30 8341 H 794.332 0.964501 -1.65438 0
M  V30 8342 H 792.637 3.57111 -1.6118 0
M  V30 8343 H 794.334 3.48001 -1.99239 0
M  V30 8344 H 790.924 2.79319 -3.25083 0
M  V30 8345 H 795.108 2.6187 -4.2159 0
M  V30 8346 H 790.364 2.41929 -5.61498 0
M  V30 8347 H 794.538 2.25549 -6.58863 0
M  V30 8348 H 792.165 2.15067 -7.29143 0
M  V30 8349 N 793.74 1.17359 1.05189 0
M  V30 8350 C 794.965 0.98709 1.82404 0
M  V30 8351 C 795.39 -0.459848 1.82392 0
M  V30 8352 O 794.748 -1.32924 1.23292 0
M  V30 8353 C 794.796 1.53276 3.26403 0
M  V30 8354 O 793.9 0.746541 4.05587 0
M  V30 8355 H 793.241 0.35047 0.563974 0
M  V30 8356 H 795.771 1.55856 1.32552 0
M  V30 8357 H 795.781 1.55504 3.77203 0
M  V30 8358 H 794.456 2.58603 3.25726 0
M  V30 8359 H 793.033 0.795671 3.64312 0
M  V30 8360 N 795.218 -1.23913 0.973828 0
M  V30 8361 C 796.128 -2.28838 0.516735 0
M  V30 8362 C 797.144 -1.68723 -0.425282 0
M  V30 8363 O 798.32 -1.99201 -0.296819 0
M  V30 8364 C 795.385 -3.46233 -0.179914 0
M  V30 8365 C 794.446 -4.21729 0.80269 0
M  V30 8366 C 793.679 -5.33518 0.139191 0
M  V30 8367 O 793.902 -5.60252 -1.07118 0
M  V30 8368 O 792.836 -5.96088 0.834447 0
M  V30 8369 H 796.662 -2.70067 1.38916 0
M  V30 8370 H 794.247 -1.2972 0.74115 0
M  V30 8371 H 796.129 -4.17514 -0.570991 0
M  V30 8372 H 794.804 -3.06969 -1.02721 0
M  V30 8373 H 793.711 -3.52799 1.24434 0
M  V30 8374 H 795.044 -4.64825 1.61859 0
M  V30 8375 N 796.696 -0.74468 -1.38897 0
M  V30 8376 C 797.643 -0.111064 -2.30533 0
M  V30 8377 C 798.613 0.719276 -1.49719 0
M  V30 8378 O 799.798 0.677244 -1.78376 0
M  V30 8379 C 796.938 0.78292 -3.36102 0
M  V30 8380 C 796.051 -0.0610817 -4.31957 0
M  V30 8381 C 795.186 0.835075 -5.24595 0
M  V30 8382 C 794.225 -0.0130974 -6.12099 0
M  V30 8383 N 793.362 0.839525 -6.97063 0
M  V30 8384 H 798.202 -0.898113 -2.84144 0
M  V30 8385 H 795.739 -0.454537 -1.39901 0
M  V30 8386 H 797.697 1.31578 -3.95908 0
M  V30 8387 H 796.327 1.53585 -2.83922 0
M  V30 8388 H 795.379 -0.711469 -3.73687 0
M  V30 8389 H 796.691 -0.716482 -4.93627 0
M  V30 8390 H 795.845 1.43542 -5.89475 0
M  V30 8391 H 794.584 1.52423 -4.63269 0
M  V30 8392 H 793.589 -0.626179 -5.46223 0
M  V30 8393 H 794.814 -0.699181 -6.75491 0
M  V30 8394 H 792.76 1.5138 -6.38295 0
M  V30 8395 H 792.677 0.240823 -7.55616 0
M  V30 8396 H 793.945 1.42513 -7.66362 0
M  V30 8397 N 798.174 1.49689 -0.493057 0
M  V30 8398 C 799.399 2.07331 0.0535114 0
M  V30 8399 C 799.824 1.35196 1.30781 0
M  V30 8400 O 799.182 0.406246 1.7669 0
M  V30 8401 C 799.23 3.59364 0.29825 0
M  V30 8402 O 798.334 3.88819 1.37454 0
M  V30 8403 H 797.675 0.663612 -0.0227018 0
M  V30 8404 H 800.205 1.926 -0.690402 0
M  V30 8405 H 800.215 4.04515 0.532159 0
M  V30 8406 H 798.89 4.1128 -0.618207 0
M  V30 8407 H 797.467 3.55487 1.12621 0
M  V30 8408 N 799.652 0.226554 1.55963 0
M  V30 8409 C 800.898 -0.404387 1.98727 0
M  V30 8410 C 801.231 -1.59059 1.11418 0
M  V30 8411 O 800.506 -1.93729 0.172971 0
M  V30 8412 C 800.789 -0.834081 3.50307 0
M  V30 8413 C 800.642 0.356104 4.48388 0
M  V30 8414 C 801.961 -1.68845 4.06423 0
M  V30 8415 H 799.08 -0.145515 0.722492 0
M  V30 8416 H 801.722 0.323791 1.87221 0
M  V30 8417 H 799.872 -1.45454 3.60244 0
M  V30 8418 H 801.544 0.99432 4.50456 0
M  V30 8419 H 799.787 1.0027 4.22053 0
M  V30 8420 H 800.458 0.0124333 5.51999 0
M  V30 8421 H 802.934 -1.16489 3.99461 0
M  V30 8422 H 801.81 -1.958 5.1279 0
M  V30 8423 H 802.071 -2.65347 3.53615 0
M  V30 8424 N 801.13 -1.57531 -0.0467866 0
M  V30 8425 C 802.541 -1.76945 -0.595603 0
M  V30 8426 C 802.892 -0.855354 -1.76573 0
M  V30 8427 O 802.017 -0.045668 -2.16352 0
M  V30 8428 C 802.612 -3.20881 -1.08725 0
M  V30 8429 C 801.171 -3.41553 -1.58172 0
M  V30 8430 C 800.318 -2.72533 -0.511968 0
M  V30 8431 H 803.269 -1.57682 0.179436 0
M  V30 8432 H 803.29 -3.26419 -1.95528 0
M  V30 8433 H 802.802 -3.87385 -0.235398 0
M  V30 8434 H 800.903 -2.80199 -2.456 0
M  V30 8435 H 801.016 -4.50104 -1.64143 0
M  V30 8436 H 799.38 -2.35797 -0.962899 0
M  V30 8437 H 800.163 -3.41709 0.330117 0
M  V30 8438 N 802.608 0.318715 -1.54344 0
M  V30 8439 C 803.538 1.39751 -1.87061 0
M  V30 8440 C 804.519 1.53741 -0.727848 0
M  V30 8441 O 805.704 1.67541 -0.982016 0
M  V30 8442 C 802.834 2.76446 -2.10226 0
M  V30 8443 C 801.788 2.77239 -3.26071 0
M  V30 8444 C 801.114 4.17056 -3.34617 0
M  V30 8445 C 802.414 2.40555 -4.63606 0
M  V30 8446 H 804.108 1.12619 -2.77412 0
M  V30 8447 H 801.654 0.540318 -1.33479 0
M  V30 8448 H 803.607 3.51985 -2.31699 0
M  V30 8449 H 802.331 3.05066 -1.16629 0
M  V30 8450 H 800.99 2.04155 -3.04493 0
M  V30 8451 H 800.638 4.42824 -2.3857 0
M  V30 8452 H 800.338 4.18492 -4.12478 0
M  V30 8453 H 801.862 4.94401 -3.5833 0
M  V30 8454 H 803.276 3.05808 -4.84927 0
M  V30 8455 H 801.673 2.53234 -5.44052 0
M  V30 8456 H 802.743 1.35698 -4.65526 0
M  V30 8457 N 804.086 1.46499 0.581025 0
M  V30 8458 C 805.326 1.53456 1.35021 0
M  V30 8459 C 805.69 0.182542 1.9113 0
M  V30 8460 O 806.891 0.126874 2.685 0
M  V30 8461 C 805.162 2.60387 2.44812 0
M  V30 8462 S 806.721 2.86762 3.32134 0
M  V30 8463 H 803.539 0.54216 0.459982 0
M  V30 8464 H 806.141 1.83742 0.667754 0
M  V30 8465 H 804.845 3.57253 2.01986 0
M  V30 8466 H 804.376 2.31839 3.17828 0
M  V30 8467 H 806.391 2.2216 4.43688 0
M  V30 8468 N 805.565 -0.825799 1.34232 0
M  V30 8469 C 806.814 -1.57686 1.2577 0
M  V30 8470 C 807.127 -1.94848 -0.171372 0
M  V30 8471 O 808.333 -2.68854 -0.378123 0
M  V30 8472 C 806.789 -2.84478 2.20454 0
M  V30 8473 C 806.397 -2.54629 3.68603 0
M  V30 8474 C 808.141 -3.625 2.20893 0
M  V30 8475 C 806.048 -3.77597 4.55164 0
M  V30 8476 H 804.978 -0.591809 0.467203 0
M  V30 8477 H 807.629 -0.909421 1.59379 0
M  V30 8478 H 806.011 -3.52832 1.79793 0
M  V30 8479 H 807.185 -1.94404 4.17784 0
M  V30 8480 H 805.5 -1.89888 3.70582 0
M  V30 8481 H 808.097 -4.538 2.82789 0
M  V30 8482 H 808.44 -3.98404 1.20746 0
M  V30 8483 H 808.973 -3.01086 2.59985 0
M  V30 8484 H 805.712 -3.46815 5.56237 0
M  V30 8485 H 805.232 -4.37116 4.10719 0
M  V30 8486 H 806.911 -4.45039 4.69627 0
M  V30 8487 N 807.043 -1.17915 -1.04565 0
M  V30 8488 C 807.973 -0.925033 -2.14395 0
M  V30 8489 C 808.954 0.135375 -1.6956 0
M  V30 8490 O 810.139 -0.0161774 -1.94193 0
M  V30 8491 C 807.269 -0.444469 -3.44444 0
M  V30 8492 C 806.223 -1.44478 -4.02877 0
M  V30 8493 C 805.549 -0.821933 -5.28345 0
M  V30 8494 C 806.849 -2.81995 -4.39632 0
M  V30 8495 H 808.543 -1.84354 -2.35911 0
M  V30 8496 H 806.089 -0.887806 -1.13375 0
M  V30 8497 H 808.042 -0.254078 -4.20633 0
M  V30 8498 H 806.766 0.509592 -3.226 0
M  V30 8499 H 805.425 -1.62203 -3.28764 0
M  V30 8500 H 805.073 0.139161 -5.02807 0
M  V30 8501 H 804.773 -1.48976 -5.68401 0
M  V30 8502 H 806.297 -0.641959 -6.07216 0
M  V30 8503 H 807.711 -2.67952 -5.06828 0
M  V30 8504 H 806.108 -3.45414 -4.90723 0
M  V30 8505 H 807.178 -3.35927 -3.49687 0
M  V30 8506 N 808.521 1.23394 -0.980386 0
M  V30 8507 C 809.751 1.9556 -0.666319 0
M  V30 8508 C 810.159 1.72786 0.770815 0
M  V30 8509 O 809.502 1.0162 1.53033 0
M  V30 8510 C 809.564 3.48643 -0.876825 0
M  V30 8511 C 809.228 3.95135 -2.29602 0
M  V30 8512 C 810.225 4.03806 -3.2747 0
M  V30 8513 C 807.91 4.28122 -2.62711 0
M  V30 8514 C 809.904 4.44818 -4.56526 0
M  V30 8515 C 807.591 4.68814 -3.9199 0
M  V30 8516 C 808.589 4.77129 -4.88709 0
M  V30 8517 O 808.277 5.16908 -6.15679 0
M  V30 8518 H 808.009 0.629422 -0.246585 0
M  V30 8519 H 810.563 1.57839 -1.31438 0
M  V30 8520 H 808.793 3.86319 -0.171587 0
M  V30 8521 H 810.482 4.0202 -0.55992 0
M  V30 8522 H 811.248 3.78526 -3.03222 0
M  V30 8523 H 807.127 4.20861 -1.8814 0
M  V30 8524 H 810.671 4.51223 -5.32018 0
M  V30 8525 H 806.568 4.93545 -4.16033 0
M  V30 8526 H 807.336 5.3502 -6.19432 0
M  V30 8527 N 809.999 0.752036 1.385 0
M  V30 8528 C 810.909 0.125318 2.34265 0
M  V30 8529 C 811.925 -0.702437 1.59191 0
M  V30 8530 O 813.101 -0.626951 1.91393 0
M  V30 8531 C 810.166 -0.758486 3.38301 0
M  V30 8532 C 809.227 0.0834636 4.29219 0
M  V30 8533 C 808.46 -0.758252 5.28286 0
M  V30 8534 O 808.683 -1.99632 5.34325 0
M  V30 8535 O 807.617 -0.177878 6.01637 0
M  V30 8536 H 811.443 0.91617 2.89551 0
M  V30 8537 H 809.028 0.512911 1.4032 0
M  V30 8538 H 810.91 -1.26365 4.02007 0
M  V30 8539 H 809.585 -1.52786 2.85374 0
M  V30 8540 H 808.492 0.634545 3.68679 0
M  V30 8541 H 809.825 0.815455 4.85398 0
M  V30 8542 N 811.477 -1.49425 0.500989 0
M  V30 8543 C 812.424 -2.29126 -0.277443 0
M  V30 8544 C 813.394 -1.35522 -0.960363 0
M  V30 8545 O 814.579 -1.64479 -0.967027 0
M  V30 8546 C 811.719 -3.18193 -1.33593 0
M  V30 8547 C 810.832 -4.26854 -0.664791 0
M  V30 8548 C 809.967 -5.03137 -1.70372 0
M  V30 8549 C 809.006 -6.03635 -1.01445 0
M  V30 8550 N 808.143 -6.73083 -1.99758 0
M  V30 8551 H 812.983 -2.95187 0.408458 0
M  V30 8552 H 810.52 -1.45546 0.213275 0
M  V30 8553 H 812.478 -3.68207 -1.96161 0
M  V30 8554 H 811.108 -2.54116 -1.9906 0
M  V30 8555 H 810.16 -3.80328 0.0741708 0
M  V30 8556 H 811.472 -4.9865 -0.122197 0
M  V30 8557 H 810.626 -5.5702 -2.40445 0
M  V30 8558 H 809.365 -4.31114 -2.28017 0
M  V30 8559 H 808.37 -5.48984 -0.299496 0
M  V30 8560 H 809.595 -6.77644 -0.444497 0
M  V30 8561 H 807.541 -6.03832 -2.56365 0
M  V30 8562 H 807.458 -7.40855 -1.50565 0
M  V30 8563 H 808.726 -7.3157 -2.69119 0
M  V30 8564 N 812.955 -0.234822 -1.55841 0
M  V30 8565 C 814.185 0.397168 -2.02746 0
M  V30 8566 C 814.593 1.52951 -1.11367 0
M  V30 8567 O 813.936 1.8332 -0.118133 0
M  V30 8568 C 813.998 0.977748 -3.45948 0
M  V30 8569 C 813.662 -0.0208193 -4.56995 0
M  V30 8570 C 814.659 -0.826015 -5.13296 0
M  V30 8571 C 812.344 -0.143416 -5.02095 0
M  V30 8572 C 814.338 -1.74038 -6.1318 0
M  V30 8573 C 812.025 -1.0613 -6.01814 0
M  V30 8574 C 813.023 -1.85832 -6.57233 0
M  V30 8575 O 812.711 -2.76075 -7.55008 0
M  V30 8576 H 812.443 0.0999802 -0.668566 0
M  V30 8577 H 814.997 -0.352673 -2.0235 0
M  V30 8578 H 813.227 1.77693 -3.43456 0
M  V30 8579 H 814.916 1.51854 -3.76424 0
M  V30 8580 H 815.682 -0.741822 -4.79293 0
M  V30 8581 H 811.561 0.466857 -4.5863 0
M  V30 8582 H 815.105 -2.36291 -6.56363 0
M  V30 8583 H 811.002 -1.14646 -6.35237 0
M  V30 8584 H 811.77 -2.703 -7.7258 0
M  V30 8585 N 814.433 1.57553 0.0384317 0
M  V30 8586 C 815.849 1.54663 0.39391 0
M  V30 8587 C 816.049 0.959685 1.77179 0
M  V30 8588 O 815.105 0.576647 2.45827 0
M  V30 8589 C 816.418 2.99156 0.304352 0
M  V30 8590 C 817.966 3.10659 0.382119 0
M  V30 8591 C 818.441 4.56866 0.322111 0
M  V30 8592 N 819.932 4.61629 0.38119 0
M  V30 8593 C 820.667 5.72284 0.357501 0
M  V30 8594 N 820.163 6.92207 0.286654 0
M  V30 8595 N 821.956 5.60628 0.406538 0
M  V30 8596 H 814.107 1.9406 -0.86339 0
M  V30 8597 H 816.37 0.889673 -0.327392 0
M  V30 8598 H 816.076 3.45788 -0.642141 0
M  V30 8599 H 815.95 3.60753 1.10168 0
M  V30 8600 H 818.337 2.6398 1.31904 0
M  V30 8601 H 818.418 2.5191 -0.444391 0
M  V30 8602 H 818.062 5.0421 -0.611104 0
M  V30 8603 H 817.992 5.13515 1.1666 0
M  V30 8604 H 820.483 3.75343 0.438838 0
M  V30 8605 H 820.796 7.72316 0.273421 0
M  V30 8606 H 819.141 6.9454 0.252841 0
M  V30 8607 H 822.332 4.65836 0.459812 0
M  V30 8608 H 822.505 6.46858 0.384608 0
M  V30 8609 N 815.911 -0.310526 1.54511 0
M  V30 8610 C 817.188 -1.06593 1.64004 0
M  V30 8611 C 817.568 -2.05519 0.482216 0
M  V30 8612 O 816.916 -2.22455 -0.52212 0
M  V30 8613 C 817.126 -1.75627 3.01589 0
M  V30 8614 C 818.474 -2.28173 3.58081 0
M  V30 8615 O 819.498 -1.85674 3.03979 0
M  V30 8616 O 818.357 -3.06015 4.52788 0
M  V30 8617 H 815.451 -0.492109 0.664649 0
M  V30 8618 H 817.997 -0.309374 1.66856 0
M  V30 8619 H 816.769 -1.03743 3.77297 0
M  V30 8620 H 816.392 -2.58061 3.02473 0
M  V30 8621 N 817.389 -1.46805 -0.573248 0
M  V30 8622 C 818.629 -1.5417 -1.34205 0
M  V30 8623 C 818.993 -0.192675 -1.91031 0
M  V30 8624 O 820.194 -0.141111 -2.68429 0
M  V30 8625 C 818.465 -2.61682 -2.43428 0
M  V30 8626 S 820.024 -2.88519 -3.30609 0
M  V30 8627 H 816.842 -0.544592 -0.4571 0
M  V30 8628 H 819.444 -1.84094 -0.658001 0
M  V30 8629 H 818.148 -3.58319 -2.00088 0
M  V30 8630 H 817.679 -2.33521 -3.16594 0
M  V30 8631 H 819.694 -2.2451 -4.42504 0
M  V30 8632 N 818.867 0.818669 -1.34668 0
M  V30 8633 C 819.797 1.94468 -1.29245 0
M  V30 8634 C 820.778 1.69257 -0.169101 0
M  V30 8635 O 821.963 1.90794 -0.362143 0
M  V30 8636 C 819.093 3.31001 -1.05145 0
M  V30 8637 C 818.047 3.70663 -2.13992 0
M  V30 8638 C 817.373 5.05226 -1.75074 0
M  V30 8639 C 818.673 3.82312 -3.55858 0
M  V30 8640 H 820.367 1.99263 -2.2346 0
M  V30 8641 H 817.913 0.957304 -1.07572 0
M  V30 8642 H 819.866 4.09364 -0.999949 0
M  V30 8643 H 818.59 3.26517 -0.0737312 0
M  V30 8644 H 817.249 2.94578 -2.18219 0
M  V30 8645 H 816.897 4.97233 -0.759518 0
M  V30 8646 H 816.597 5.32734 -2.47928 0
M  V30 8647 H 818.121 5.86042 -1.71427 0
M  V30 8648 H 819.535 4.50935 -3.5402 0
M  V30 8649 H 817.932 4.21278 -4.2737 0
M  V30 8650 H 819.002 2.84193 -3.9289 0
M  V30 8651 N 820.346 1.18468 1.03938 0
M  V30 8652 C 821.574 1.00576 1.80809 0
M  V30 8653 C 821.989 -0.445786 1.83462 0
M  V30 8654 O 821.346 -1.30964 1.27101 0
M  V30 8655 C 821.397 1.55491 3.26351 0
M  V30 8656 O 821.118 2.94963 3.23926 0
M  V30 8657 C 822.619 1.42236 4.19862 0
M  V30 8658 H 819.839 0.35508 0.56935 0
M  V30 8659 H 822.383 1.57046 1.30984 0
M  V30 8660 H 820.538 1.03195 3.73403 0
M  V30 8661 H 820.952 3.20598 4.15111 0
M  V30 8662 H 822.426 1.85455 5.19914 0
M  V30 8663 H 822.903 0.371267 4.37628 0
M  V30 8664 H 823.509 1.9361 3.78675 0
M  V30 8665 N 821.824 -1.22873 0.986916 0
M  V30 8666 C 822.734 -2.28277 0.540978 0
M  V30 8667 C 823.75 -1.69164 -0.407363 0
M  V30 8668 O 824.926 -1.99504 -0.275674 0
M  V30 8669 C 821.991 -3.46404 -0.143181 0
M  V30 8670 C 821.052 -4.20854 0.847375 0
M  V30 8671 C 820.285 -5.33341 0.19577 0
M  V30 8672 O 820.508 -5.61356 -1.0117 0
M  V30 8673 O 819.442 -5.95169 0.897623 0
M  V30 8674 H 823.268 -2.68578 1.41773 0
M  V30 8675 H 820.853 -1.28927 0.754867 0
M  V30 8676 H 822.735 -4.18096 -0.526676 0
M  V30 8677 H 821.41 -3.08041 -0.994593 0
M  V30 8678 H 820.317 -3.51459 1.28169 0
M  V30 8679 H 821.65 -4.63082 1.6678 0
M  V30 8680 N 823.302 -0.75937 -1.38099 0
M  V30 8681 C 824.527 -0.327859 -2.04792 0
M  V30 8682 C 824.952 1.03752 -1.56899 0
M  V30 8683 O 824.31 1.66235 -0.723581 0
M  V30 8684 C 824.358 -0.366264 -3.58735 0
M  V30 8685 O 823.462 0.637697 -4.0744 0
M  V30 8686 H 822.803 -0.144092 -0.648177 0
M  V30 8687 H 825.333 -1.03211 -1.7666 0
M  V30 8688 H 825.343 -0.219179 -4.07411 0
M  V30 8689 H 824.018 -1.36243 -3.92951 0
M  V30 8690 H 822.595 0.454749 -3.70117 0
M  V30 8691 N 824.78 1.49157 -0.508906 0
M  V30 8692 C 825.728 2.30922 0.278906 0
M  V30 8693 C 826.722 1.39889 0.955382 0
M  V30 8694 O 827.928 1.56901 0.882169 0
M  V30 8695 H 824.303 0.744087 0.108805 0
M  V30 8696 H 826.274 2.95277 -0.430583 0
M  V30 8697 C 825.023 3.21432 1.32576 0
M  V30 8698 H 824.346 3.91413 0.814634 0
M  V30 8699 H 825.786 3.81568 1.84882 0
M  V30 8700 C 824.245 2.41583 2.34817 0
M  V30 8701 O 824.775 2.1256 3.40854 0
M  V30 8702 N 822.981 2.03462 2.07489 0
M  V30 8703 H 822.528 2.27265 1.21278 0
M  V30 8704 H 822.486 1.50345 2.76123 0
M  V30 8705 N 826.258 0.243083 1.55714 0
M  V30 8706 C 827.188 -0.652336 2.24203 0
M  V30 8707 C 828.169 -1.1843 1.221 0
M  V30 8708 O 829.354 -1.22435 1.50743 0
M  V30 8709 C 826.484 -1.85111 2.93856 0
M  V30 8710 C 825.438 -1.45208 4.02615 0
M  V30 8711 C 824.764 -2.73137 4.59674 0
M  V30 8712 C 826.064 -0.625988 5.18535 0
M  V30 8713 H 827.758 -0.0812504 2.9929 0
M  V30 8714 H 825.304 -0.0376388 1.43951 0
M  V30 8715 H 827.257 -2.48314 3.40468 0
M  V30 8716 H 825.981 -2.44751 2.16251 0
M  V30 8717 H 824.64 -0.843406 3.56766 0
M  V30 8718 H 824.288 -3.30967 3.78774 0
M  V30 8719 H 823.988 -2.47163 5.33089 0
M  V30 8720 H 825.512 -3.37245 5.09017 0
M  V30 8721 H 826.926 -1.16223 5.61396 0
M  V30 8722 H 825.323 -0.462465 5.98315 0
M  V30 8723 H 826.393 0.362652 4.83542 0
M  V30 8724 N 827.736 -1.57571 -0.0300757 0
M  V30 8725 C 828.985 -1.88407 -0.720126 0
M  V30 8726 C 829.298 -0.841466 -1.76575 0
M  V30 8727 O 830.504 -1.03902 -2.50832 0
M  V30 8728 C 828.96 -3.34348 -1.33188 0
M  V30 8729 C 828.568 -4.46837 -0.32266 0
M  V30 8730 C 830.312 -3.74333 -2.00187 0
M  V30 8731 C 828.219 -5.83838 -0.942703 0
M  V30 8732 H 827.149 -0.702952 -0.272718 0
M  V30 8733 H 829.8 -1.83482 0.0255337 0
M  V30 8734 H 828.182 -3.34014 -2.12721 0
M  V30 8735 H 829.356 -4.58638 0.445887 0
M  V30 8736 H 827.671 -4.15678 0.245181 0
M  V30 8737 H 830.268 -4.74008 -2.47428 0
M  V30 8738 H 830.611 -3.06275 -2.81959 0
M  V30 8739 H 831.144 -3.76837 -1.2743 0
M  V30 8740 H 827.883 -6.55294 -0.164413 0
M  V30 8741 H 827.403 -5.75759 -1.68111 0
M  V30 8742 H 829.082 -6.30535 -1.45034 0
M  V30 8743 N 829.214 0.302327 -1.54673 0
M  V30 8744 C 830.161 1.37282 -1.85532 0
M  V30 8745 C 831.131 1.50437 -0.704129 0
M  V30 8746 O 832.316 1.65317 -0.952627 0
M  V30 8747 C 829.456 2.73309 -2.10704 0
M  V30 8748 C 828.569 2.68614 -3.38335 0
M  V30 8749 C 827.704 3.96626 -3.53357 0
M  V30 8750 C 826.743 3.86324 -4.74784 0
M  V30 8751 N 825.88 5.06109 -4.86619 0
M  V30 8752 H 830.72 1.10265 -2.76849 0
M  V30 8753 H 828.257 0.533346 -1.37091 0
M  V30 8754 H 830.215 3.52414 -2.23294 0
M  V30 8755 H 828.845 2.98589 -1.22656 0
M  V30 8756 H 827.897 1.81381 -3.34373 0
M  V30 8757 H 829.209 2.56891 -4.27561 0
M  V30 8758 H 828.363 4.84168 -3.65604 0
M  V30 8759 H 827.102 4.11182 -2.62261 0
M  V30 8760 H 826.107 2.97166 -4.62572 0
M  V30 8761 H 827.332 3.73315 -5.67286 0
M  V30 8762 H 825.278 5.2113 -3.98446 0
M  V30 8763 H 825.195 4.96804 -5.69844 0
M  V30 8764 H 826.463 5.95306 -5.03221 0
M  V30 8765 N 830.692 1.47107 0.565454 0
M  V30 8766 C 831.938 1.53535 1.32495 0
M  V30 8767 C 832.271 0.193537 1.93233 0
M  V30 8768 O 831.546 -0.796956 1.77423 0
M  V30 8769 C 831.829 2.64712 2.4413 0
M  V30 8770 C 831.682 4.08482 1.88314 0
M  V30 8771 C 833.001 2.71853 3.46098 0
M  V30 8772 H 830.12 0.558926 0.480386 0
M  V30 8773 H 832.762 1.79125 0.633575 0
M  V30 8774 H 830.912 2.43023 3.03104 0
M  V30 8775 H 832.584 4.4151 1.33665 0
M  V30 8776 H 830.827 4.17148 1.19037 0
M  V30 8777 H 831.498 4.82032 2.68978 0
M  V30 8778 H 833.974 2.91397 2.97031 0
M  V30 8779 H 832.85 3.51433 4.21646 0
M  V30 8780 H 833.111 1.78584 4.04426 0
M  V30 8781 N 832.17 -0.811516 1.35101 0
M  V30 8782 C 833.586 -1.10634 1.15031 0
M  V30 8783 C 833.786 -2.01459 -0.0405379 0
M  V30 8784 O 832.842 -2.42235 -0.712635 0
M  V30 8785 C 834.155 -1.74207 2.45097 0
M  V30 8786 C 835.703 -1.8665 2.51258 0
M  V30 8787 C 836.178 -2.53638 3.81355 0
M  V30 8788 N 837.669 -2.61128 3.82579 0
M  V30 8789 C 838.404 -3.13717 4.79968 0
M  V30 8790 N 837.9 -3.66782 5.87744 0
M  V30 8791 N 839.693 -3.12224 4.67411 0
M  V30 8792 H 831.844 -0.207641 2.11383 0
M  V30 8793 H 834.107 -0.154697 0.935293 0
M  V30 8794 H 833.813 -1.14936 3.32389 0
M  V30 8795 H 833.687 -2.73958 2.59281 0
M  V30 8796 H 836.074 -2.45066 1.64398 0
M  V30 8797 H 836.155 -0.857678 2.40993 0
M  V30 8798 H 835.799 -1.95873 4.68611 0
M  V30 8799 H 835.729 -3.55047 3.88907 0
M  V30 8800 H 838.22 -2.23527 3.04703 0
M  V30 8801 H 838.533 -4.05194 6.58056 0
M  V30 8802 H 836.878 -3.64994 5.91443 0
M  V30 8803 H 840.069 -2.70042 3.82354 0
M  V30 8804 H 840.242 -3.52903 5.43474 0
M  V30 8805 N 833.648 -1.19017 -1.03309 0
M  V30 8806 C 834.611 -0.926076 -2.09658 0
M  V30 8807 C 835.611 0.0917077 -1.60538 0
M  V30 8808 O 836.801 -0.142574 -1.73616 0
M  V30 8809 C 833.933 -0.390958 -3.38651 0
M  V30 8810 H 835.126 -1.86923 -2.3452 0
M  V30 8811 H 832.679 -1.00325 -1.19853 0
M  V30 8812 H 833.414 0.558446 -3.19456 0
M  V30 8813 H 833.199 -1.12474 -3.75622 0
M  V30 8814 H 834.689 -0.225131 -4.16993 0
M  V30 8815 N 835.127 1.22348 -0.993418 0
M  V30 8816 C 836.057 2.26584 -0.564088 0
M  V30 8817 C 837.038 1.65102 0.409298 0
M  V30 8818 O 838.223 1.91872 0.299819 0
M  V30 8819 C 835.353 3.47087 0.121554 0
M  V30 8820 C 834.307 4.21009 -0.770429 0
M  V30 8821 C 833.633 5.34678 0.0481586 0
M  V30 8822 C 834.933 4.79636 -2.06752 0
M  V30 8823 H 836.627 2.62749 -1.43538 0
M  V30 8824 H 834.173 1.26303 -0.691628 0
M  V30 8825 H 836.126 4.19166 0.433303 0
M  V30 8826 H 834.85 3.1002 1.0274 0
M  V30 8827 H 833.509 3.50764 -1.06583 0
M  V30 8828 H 833.157 4.93852 0.954933 0
M  V30 8829 H 832.857 5.85061 -0.545641 0
M  V30 8830 H 834.381 6.09573 0.353991 0
M  V30 8831 H 835.795 5.43654 -1.81969 0
M  V30 8832 H 834.192 5.4036 -2.61019 0
M  V30 8833 H 835.262 3.99659 -2.74592 0
M  V30 8834 N 836.605 0.766683 1.37694 0
M  V30 8835 C 837.535 0.163432 2.32927 0
M  V30 8836 C 838.516 -0.688861 1.55527 0
M  V30 8837 O 839.701 -0.627363 1.83787 0
M  V30 8838 C 836.831 -0.720416 3.39746 0
M  V30 8839 C 835.785 0.0301718 4.27989 0
M  V30 8840 C 835.111 -0.972788 5.25776 0
M  V30 8841 C 836.411 1.20623 5.0818 0
M  V30 8842 H 838.105 0.958988 2.83626 0
M  V30 8843 H 835.651 0.462601 1.36367 0
M  V30 8844 H 837.604 -1.15221 4.05342 0
M  V30 8845 H 836.328 -1.54844 2.8756 0
M  V30 8846 H 834.987 0.442685 3.63917 0
M  V30 8847 H 834.635 -1.79522 4.69873 0
M  V30 8848 H 834.335 -0.475145 5.85676 0
M  V30 8849 H 835.859 -1.40362 5.94248 0
M  V30 8850 H 837.273 0.851341 5.66944 0
M  V30 8851 H 835.67 1.63561 5.7738 0
M  V30 8852 H 836.74 2.01281 4.41151 0
M  V30 8853 N 838.083 -1.48885 0.516809 0
M  V30 8854 C 839.329 -2.02788 -0.0220928 0
M  V30 8855 C 839.662 -1.39433 -1.35175 0
M  V30 8856 O 838.937 -0.535459 -1.86984 0
M  V30 8857 C 839.22 -3.59753 -0.158012 0
M  V30 8858 C 839.073 -4.33611 1.19588 0
M  V30 8859 C 840.392 -4.30984 -0.891133 0
M  V30 8860 H 837.511 -0.736971 -0.00655488 0
M  V30 8861 H 840.153 -1.77746 0.671287 0
M  V30 8862 H 838.303 -3.8122 -0.748568 0
M  V30 8863 H 839.975 -4.23598 1.82653 0
M  V30 8864 H 838.218 -3.95547 1.78116 0
M  V30 8865 H 838.889 -5.41846 1.05391 0
M  V30 8866 H 841.365 -4.14267 -0.39012 0
M  V30 8867 H 840.241 -5.40527 -0.955107 0
M  V30 8868 H 840.502 -3.97336 -1.93847 0
M  V30 8869 N 839.561 -0.251338 -1.55583 0
M  V30 8870 C 840.471 0.656978 -2.25213 0
M  V30 8871 C 841.487 1.18966 -1.26977 0
M  V30 8872 O 842.663 1.22499 -1.59862 0
M  V30 8873 C 839.728 1.83527 -2.94141 0
M  V30 8874 C 838.789 1.34162 -4.07798 0
M  V30 8875 C 838.022 2.46375 -4.73429 0
M  V30 8876 O 838.245 3.65205 -4.38157 0
M  V30 8877 O 837.179 2.15881 -5.61853 0
M  V30 8878 H 841.005 0.0936395 -3.03556 0
M  V30 8879 H 838.59 -0.0196638 -1.49387 0
M  V30 8880 H 840.472 2.52279 -3.3754 0
M  V30 8881 H 839.147 2.38614 -2.18735 0
M  V30 8882 H 838.054 0.621249 -3.68906 0
M  V30 8883 H 839.387 0.836779 -4.85035 0
M  V30 8884 N 841.039 1.57585 0.0217189 0
M  V30 8885 C 842.45 1.7787 0.567377 0
M  V30 8886 C 842.801 0.883337 1.7519 0
M  V30 8887 O 841.926 0.0800819 2.16252 0
M  V30 8888 C 842.521 3.2257 1.03606 0
M  V30 8889 C 841.08 3.44026 1.52718 0
M  V30 8890 C 840.227 2.73313 0.468545 0
M  V30 8891 H 843.178 1.57377 -0.2045 0
M  V30 8892 H 843.199 3.29488 1.9031 0
M  V30 8893 H 842.711 3.87711 0.173739 0
M  V30 8894 H 840.812 2.8407 2.41111 0
M  V30 8895 H 840.925 4.52659 1.56962 0
M  V30 8896 H 839.289 2.37299 0.925263 0
M  V30 8897 H 840.072 3.41141 -0.384438 0
M  V30 8898 N 842.517 -0.29412 1.54831 0
M  V30 8899 C 843.763 -1.02999 1.74697 0
M  V30 8900 C 844.096 -1.86687 0.534949 0
M  V30 8901 O 843.371 -1.88789 -0.467863 0
M  V30 8902 C 843.654 -1.93024 3.03996 0
M  V30 8903 C 843.507 -1.1247 4.35512 0
M  V30 8904 C 844.826 -2.92085 3.29203 0
M  V30 8905 H 841.945 -0.373039 0.635618 0
M  V30 8906 H 844.587 -0.304065 1.87551 0
M  V30 8907 H 842.737 -2.5492 2.93169 0
M  V30 8908 H 844.409 -0.528067 4.58268 0
M  V30 8909 H 842.652 -0.427574 4.31688 0
M  V30 8910 H 843.323 -1.78728 5.22265 0
M  V30 8911 H 845.799 -2.40319 3.39685 0
M  V30 8912 H 844.675 -3.52234 4.20978 0
M  V30 8913 H 844.936 -3.66107 2.47827 0
M  V30 8914 N 843.995 -1.47404 -0.557645 0
M  V30 8915 C 845.244 -1.53268 -1.31118 0
M  V30 8916 C 845.557 -0.199414 -1.94581 0
M  V30 8917 O 846.763 -0.136039 -2.71159 0
M  V30 8918 C 845.219 -2.70178 -2.37764 0
M  V30 8919 C 844.827 -4.10032 -1.80493 0
M  V30 8920 C 846.571 -2.85334 -3.14301 0
M  V30 8921 C 844.478 -5.18244 -2.84916 0
M  V30 8922 H 843.408 -0.570491 -0.493007 0
M  V30 8923 H 846.059 -1.73678 -0.592308 0
M  V30 8924 H 844.441 -2.43147 -3.12563 0
M  V30 8925 H 845.615 -4.46964 -1.12069 0
M  V30 8926 H 843.93 -3.99759 -1.16542 0
M  V30 8927 H 846.527 -3.63347 -3.92279 0
M  V30 8928 H 846.87 -1.93761 -3.68459 0
M  V30 8929 H 847.403 -3.12133 -2.46613 0
M  V30 8930 H 844.142 -6.11691 -2.35614 0
M  V30 8931 H 843.662 -4.85829 -3.51753 0
M  V30 8932 H 845.341 -5.45174 -3.48417 0
M  V30 8933 N 845.473 0.80434 -1.35529 0
M  V30 8934 C 846.421 1.93769 -1.28671 0
M  V30 8935 C 847.415 1.68428 -0.181222 0
M  V30 8936 O 848.621 1.76617 -0.347338 0
M  V30 8937 H 844.996 0.636663 -0.400206 0
M  V30 8938 H 846.967 1.96673 -2.24415 0
M  V30 8939 C 845.716 3.30572 -1.07784 0
M  V30 8940 H 845.039 3.5063 -1.9209 0
M  V30 8941 H 846.479 4.1027 -1.07027 0
M  V30 8942 C 844.938 3.36193 0.218213 0
M  V30 8943 O 845.468 3.82941 1.21323 0
M  V30 8944 N 843.674 2.89455 0.257761 0
M  V30 8945 H 843.221 2.51604 -0.552562 0
M  V30 8946 H 843.179 2.93597 1.12465 0
M  V30 8947 N 846.951 1.19563 1.02676 0
M  V30 8948 C 848.176 1.02556 1.80269 0
M  V30 8949 C 848.601 -0.421056 1.83327 0
M  V30 8950 O 847.959 -1.30279 1.26084 0
M  V30 8951 C 848.007 1.60165 3.23078 0
M  V30 8952 O 847.111 0.832404 4.03912 0
M  V30 8953 H 846.452 0.362354 0.556413 0
M  V30 8954 H 848.982 1.58633 1.29216 0
M  V30 8955 H 848.992 1.6347 3.7382 0
M  V30 8956 H 847.667 2.65454 3.20167 0
M  V30 8957 H 846.244 0.872768 3.62543 0
M  V30 8958 N 848.429 -1.21819 0.999893 0
M  V30 8959 C 849.659 -1.94475 0.697346 0
M  V30 8960 C 850.067 -1.73991 -0.743228 0
M  V30 8961 O 849.41 -1.04042 -1.51397 0
M  V30 8962 C 849.472 -3.47204 0.932181 0
M  V30 8963 C 849.136 -3.91432 2.3586 0
M  V30 8964 C 850.133 -3.98545 3.33853 0
M  V30 8965 C 847.818 -4.23888 2.69489 0
M  V30 8966 C 849.812 -4.37499 4.63545 0
M  V30 8967 C 847.499 -4.62519 3.99399 0
M  V30 8968 C 848.497 -4.69294 4.96238 0
M  V30 8969 O 848.185 -5.07048 6.23825 0
M  V30 8970 H 847.917 -0.625419 0.256567 0
M  V30 8971 H 850.471 -1.55728 1.33933 0
M  V30 8972 H 848.701 -3.85997 0.233025 0
M  V30 8973 H 850.39 -4.01078 0.623807 0
M  V30 8974 H 851.156 -3.73654 3.09205 0
M  V30 8975 H 847.035 -4.17815 1.94812 0
M  V30 8976 H 850.579 -4.42702 5.3913 0
M  V30 8977 H 846.476 -4.86864 4.23833 0
M  V30 8978 H 847.244 -5.25098 6.27865 0
M  V30 8979 N 849.908 -0.773975 -1.37286 0
M  V30 8980 C 850.838 -0.175782 -2.32837 0
M  V30 8981 C 851.819 0.680603 -1.5589 0
M  V30 8982 O 853.004 0.617607 -1.84117 0
M  V30 8983 C 850.134 0.702388 -3.40123 0
M  V30 8984 C 849.088 -0.0528687 -4.27967 0
M  V30 8985 C 848.414 0.944891 -5.26285 0
M  V30 8986 C 849.714 -1.23316 -5.07534 0
M  V30 8987 H 851.408 -0.974016 -2.83114 0
M  V30 8988 H 848.954 -0.469826 -1.3612 0
M  V30 8989 H 850.907 1.13069 -4.05947 0
M  V30 8990 H 849.631 1.53316 -2.88378 0
M  V30 8991 H 848.29 -0.461978 -3.63678 0
M  V30 8992 H 847.938 1.77028 -4.70819 0
M  V30 8993 H 847.638 0.444079 -5.8592 0
M  V30 8994 H 849.162 1.37209 -5.94984 0
M  V30 8995 H 850.576 -0.881395 -5.66484 0
M  V30 8996 H 848.973 -1.66621 -5.76504 0
M  V30 8997 H 850.043 -2.03617 -4.40077 0
M  V30 8998 N 851.386 1.48609 -0.524698 0
M  V30 8999 C 852.316 2.32366 0.229837 0
M  V30 9000 C 853.297 1.41759 0.940129 0
M  V30 9001 O 854.482 1.7065 0.926936 0
M  V30 9002 C 851.612 3.22835 1.28043 0
M  V30 9003 C 850.566 4.22424 0.688603 0
M  V30 9004 C 849.892 5.0199 1.84146 0
M  V30 9005 C 851.192 5.21217 -0.336176 0
M  V30 9006 H 852.886 2.95698 -0.469339 0
M  V30 9007 H 850.432 1.42197 -0.227156 0
M  V30 9008 H 852.385 3.80253 1.8162 0
M  V30 9009 H 851.109 2.57492 2.00912 0
M  V30 9010 H 849.768 3.66185 0.174402 0
M  V30 9011 H 849.416 4.33076 2.5584 0
M  V30 9012 H 849.116 5.69392 1.45142 0
M  V30 9013 H 850.64 5.62259 2.38111 0
M  V30 9014 H 852.054 5.7319 0.112307 0
M  V30 9015 H 850.451 5.96642 -0.643324 0
M  V30 9016 H 851.521 4.68676 -1.24381 0
M  V30 9017 N 852.864 0.259585 1.55447 0
M  V30 9018 C 853.827 -0.621359 2.20617 0
M  V30 9019 C 854.827 -1.09317 1.17925 0
M  V30 9020 O 856.017 -0.995842 1.42929 0
M  V30 9021 C 853.149 -1.85546 2.85982 0
M  V30 9022 H 854.342 -0.0525833 2.99854 0
M  V30 9023 H 851.895 0.0101055 1.56297 0
M  V30 9024 H 852.63 -2.46515 2.10715 0
M  V30 9025 H 852.415 -1.52523 3.61219 0
M  V30 9026 H 853.905 -2.48227 3.35817 0
M  V30 9027 N 854.342 -1.57594 -0.0133615 0
M  V30 9028 C 855.252 -2.10991 -1.02566 0
M  V30 9029 C 856.268 -1.05208 -1.3859 0
M  V30 9030 O 857.444 -1.37034 -1.47593 0
M  V30 9031 C 854.509 -2.59165 -2.30292 0
M  V30 9032 C 853.57 -3.79495 -2.00704 0
M  V30 9033 C 852.803 -4.25361 -3.22341 0
M  V30 9034 O 853.026 -3.70645 -4.33565 0
M  V30 9035 O 851.96 -5.17649 -3.07121 0
M  V30 9036 H 855.786 -2.97678 -0.601806 0
M  V30 9037 H 853.371 -1.47598 -0.23135 0
M  V30 9038 H 855.253 -2.90409 -3.05354 0
M  V30 9039 H 853.928 -1.75582 -2.71942 0
M  V30 9040 H 852.835 -3.53245 -1.23161 0
M  V30 9041 H 854.168 -4.64109 -1.639 0
M  V30 9042 N 855.82 0.285905 -1.54985 0
M  V30 9043 C 857.236 0.632405 -1.46536 0
M  V30 9044 C 857.436 1.90074 -0.668888 0
M  V30 9045 O 856.492 2.51839 -0.182586 0
M  V30 9046 C 857.805 0.771361 -2.90638 0
M  V30 9047 C 859.353 0.866262 -3.00774 0
M  V30 9048 C 859.828 1.0371 -4.46103 0
M  V30 9049 N 861.319 1.10294 -4.49877 0
M  V30 9050 C 862.054 1.25369 -5.59527 0
M  V30 9051 N 861.55 1.37246 -6.7907 0
M  V30 9052 N 863.343 1.28377 -5.47244 0
M  V30 9053 H 855.494 -0.547226 -2.0523 0
M  V30 9054 H 857.757 -0.183298 -0.930111 0
M  V30 9055 H 857.463 -0.0899485 -3.51585 0
M  V30 9056 H 857.337 1.65569 -3.3892 0
M  V30 9057 H 859.724 1.71805 -2.39931 0
M  V30 9058 H 859.805 -0.0424049 -2.55765 0
M  V30 9059 H 859.449 0.190021 -5.07544 0
M  V30 9060 H 859.379 1.96022 -4.88757 0
M  V30 9061 H 861.87 1.02407 -3.6376 0
M  V30 9062 H 862.183 1.48546 -7.58389 0
M  V30 9063 H 860.528 1.34274 -6.81906 0
M  V30 9064 H 863.719 1.1872 -4.52795 0
M  V30 9065 H 863.892 1.39782 -6.32744 0
M  V30 9066 N 857.298 1.47698 0.54982 0
M  V30 9067 C 858.575 1.45185 1.31075 0
M  V30 9068 C 858.955 0.152768 2.10547 0
M  V30 9069 O 858.303 -0.865706 2.11466 0
M  V30 9070 C 858.513 2.70192 2.20902 0
M  V30 9071 C 859.861 3.1771 2.81683 0
M  V30 9072 O 860.885 2.70971 2.312 0
M  V30 9073 O 859.744 3.98986 3.7346 0
M  V30 9074 H 856.838 0.57892 0.590577 0
M  V30 9075 H 859.384 1.59908 0.568112 0
M  V30 9076 H 858.156 3.56269 1.61828 0
M  V30 9077 H 857.779 2.58091 3.02448 0
M  V30 9078 N 858.776 -0.797141 1.35954 0
M  V30 9079 C 859.706 -1.92387 1.32323 0
M  V30 9080 C 860.687 -1.68967 0.196007 0
M  V30 9081 O 861.872 -1.90193 0.39245 0
M  V30 9082 C 859.002 -3.29286 1.10398 0
M  V30 9083 C 857.956 -3.67212 2.19862 0
M  V30 9084 C 857.282 -5.02377 1.8309 0
M  V30 9085 C 858.582 -3.76602 3.61896 0
M  V30 9086 H 860.276 -1.95683 2.26602 0
M  V30 9087 H 857.822 -0.94007 1.09081 0
M  V30 9088 H 859.775 -4.07721 1.06495 0
M  V30 9089 H 858.499 -3.26358 0.125668 0
M  V30 9090 H 857.158 -2.91069 2.22878 0
M  V30 9091 H 856.806 -4.95961 0.838527 0
M  V30 9092 H 856.506 -5.28722 2.56372 0
M  V30 9093 H 858.03 -5.8324 1.80729 0
M  V30 9094 H 859.444 -4.45246 3.6115 0
M  V30 9095 H 857.841 -4.14425 4.34018 0
M  V30 9096 H 858.911 -2.77906 3.97361 0
M  V30 9097 N 860.254 -1.20106 -1.0204 0
M  V30 9098 C 861.484 -1.0329 -1.78927 0
M  V30 9099 C 861.892 0.421115 -1.84454 0
M  V30 9100 O 861.235 1.30422 -1.29367 0
M  V30 9101 C 861.297 -1.53627 -3.25021 0
M  V30 9102 C 860.961 -3.01869 -3.4311 0
M  V30 9103 C 861.958 -3.9956 -3.32638 0
M  V30 9104 C 859.643 -3.40746 -3.6905 0
M  V30 9105 C 861.637 -5.34119 -3.47844 0
M  V30 9106 C 859.324 -4.75462 -3.839 0
M  V30 9107 C 860.322 -5.71957 -3.73302 0
M  V30 9108 O 860.01 -7.04231 -3.87703 0
M  V30 9109 H 859.742 -0.363962 -0.569656 0
M  V30 9110 H 862.296 -1.59551 -1.29354 0
M  V30 9111 H 860.526 -0.917481 -3.75658 0
M  V30 9112 H 862.215 -1.32889 -3.8353 0
M  V30 9113 H 862.981 -3.70869 -3.12539 0
M  V30 9114 H 858.86 -2.66182 -3.76388 0
M  V30 9115 H 862.404 -6.09421 -3.39488 0
M  V30 9116 H 858.301 -5.03844 -4.03499 0
M  V30 9117 H 859.069 -7.11425 -4.04744 0
M  V30 9118 N 861.732 1.21287 -1.00634 0
M  V30 9119 C 862.662 2.25973 -0.588089 0
M  V30 9120 C 863.643 1.65527 0.391764 0
M  V30 9121 O 864.828 1.92179 0.279452 0
M  V30 9122 C 861.958 3.47197 0.0847336 0
M  V30 9123 C 860.912 4.20168 -0.815039 0
M  V30 9124 C 860.238 5.34699 -0.00855393 0
M  V30 9125 C 861.538 4.77416 -2.11828 0
M  V30 9126 H 863.232 2.61212 -1.46317 0
M  V30 9127 H 860.778 1.25563 -0.704985 0
M  V30 9128 H 862.731 4.19602 0.388821 0
M  V30 9129 H 861.455 3.11092 0.994456 0
M  V30 9130 H 860.114 3.49614 -1.10297 0
M  V30 9131 H 859.762 4.94837 0.902499 0
M  V30 9132 H 859.462 5.84449 -0.607664 0
M  V30 9133 H 860.986 6.09914 0.289317 0
M  V30 9134 H 862.4 5.41694 -1.87725 0
M  V30 9135 H 860.797 5.37561 -2.66736 0
M  V30 9136 H 861.867 3.96724 -2.78816 0
M  V30 9137 N 863.21 0.781244 1.36873 0
M  V30 9138 C 864.12 0.174981 2.33947 0
M  V30 9139 C 865.136 -0.668512 1.60645 0
M  V30 9140 O 866.312 -0.586213 1.9268 0
M  V30 9141 C 863.377 -0.686557 3.39834 0
M  V30 9142 C 862.438 0.174489 4.28945 0
M  V30 9143 C 861.671 -0.646024 5.29776 0
M  V30 9144 O 861.894 -1.88254 5.38439 0
M  V30 9145 O 860.828 -0.0502214 6.01879 0
M  V30 9146 H 864.654 0.977382 2.87543 0
M  V30 9147 H 862.239 0.542559 1.392 0
M  V30 9148 H 864.121 -1.1781 4.04597 0
M  V30 9149 H 862.796 -1.46699 2.8855 0
M  V30 9150 H 861.703 0.712604 3.6725 0
M  V30 9151 H 863.036 0.918232 4.83559 0
M  V30 9152 N 864.689 -1.48329 0.532571 0
M  V30 9153 C 865.637 -2.31336 -0.242133 0
M  V30 9154 C 866.631 -1.41391 -0.933006 0
M  V30 9155 O 867.837 -1.58284 -0.857096 0
M  V30 9156 H 864.212 -0.745724 -0.0969536 0
M  V30 9157 H 866.183 -2.94555 0.477504 0
M  V30 9158 C 864.932 -3.23501 -1.27446 0
M  V30 9159 H 864.255 -3.92659 -0.752261 0
M  V30 9160 H 865.695 -3.84461 -1.78789 0
M  V30 9161 C 864.154 -2.45288 -2.30944 0
M  V30 9162 O 864.684 -2.17955 -3.37429 0
M  V30 9163 N 862.89 -2.06737 -2.04226 0
M  V30 9164 H 862.437 -2.29166 -1.17647 0
M  V30 9165 H 862.395 -1.54719 -2.73696 0
M  V30 9166 N 866.167 -0.267825 -1.55308 0
M  V30 9167 C 867.578 0.231344 -1.85261 0
M  V30 9168 C 867.929 1.56006 -1.18982 0
M  V30 9169 O 867.054 2.1111 -0.475554 0
M  V30 9170 C 867.649 0.426537 -3.36104 0
M  V30 9171 C 866.208 0.869945 -3.66209 0
M  V30 9172 C 865.355 -0.0409522 -2.7727 0
M  V30 9173 H 868.306 -0.489821 -1.50952 0
M  V30 9174 H 868.327 1.26616 -3.58816 0
M  V30 9175 H 867.839 -0.540678 -3.84315 0
M  V30 9176 H 865.94 1.84889 -3.23492 0
M  V30 9177 H 866.053 0.712316 -4.73775 0
M  V30 9178 H 864.417 0.474097 -2.50249 0
M  V30 9179 H 865.2 -1.00392 -3.28293 0
M  V30 9180 N 867.645 1.57599 0.00500368 0
M  V30 9181 C 868.555 2.11532 1.01446 0
M  V30 9182 C 869.571 1.05941 1.3803 0
M  V30 9183 O 870.747 1.37815 1.46864 0
M  V30 9184 C 867.812 2.60382 2.28915 0
M  V30 9185 C 866.873 3.80554 1.98689 0
M  V30 9186 C 866.106 4.27064 3.20081 0
M  V30 9187 O 866.329 3.72939 4.31593 0
M  V30 9188 O 865.263 5.1927 3.04371 0
M  V30 9189 H 869.089 2.97993 0.586011 0
M  V30 9190 H 866.674 1.47718 0.223519 0
M  V30 9191 H 868.556 2.92024 3.03809 0
M  V30 9192 H 867.231 1.77022 2.71007 0
M  V30 9193 H 866.138 3.53893 1.21286 0
M  V30 9194 H 867.471 4.64972 1.61437 0
M  V30 9195 N 869.123 -0.277682 1.55134 0
M  V30 9196 C 870.372 -1.00766 1.74726 0
M  V30 9197 C 870.685 -1.87617 0.553092 0
M  V30 9198 O 871.891 -2.64058 0.631318 0
M  V30 9199 C 870.347 -1.84147 3.09221 0
M  V30 9200 C 869.955 -1.02186 4.3619 0
M  V30 9201 C 871.699 -2.56604 3.38164 0
M  V30 9202 C 869.606 -1.84978 5.61727 0
M  V30 9203 H 868.536 -0.379948 0.651273 0
M  V30 9204 H 871.187 -0.263543 1.81598 0
M  V30 9205 H 869.569 -2.62637 2.96375 0
M  V30 9206 H 870.743 -0.281459 4.5994 0
M  V30 9207 H 869.058 -0.412054 4.14356 0
M  V30 9208 H 871.655 -3.18942 4.29162 0
M  V30 9209 H 871.998 -3.26647 2.58085 0
M  V30 9210 H 872.531 -1.85147 3.52087 0
M  V30 9211 H 869.27 -1.19365 6.4454 0
M  V30 9212 H 868.79 -2.56628 5.42128 0
M  V30 9213 H 870.469 -2.42458 5.99853 0
M  V30 9214 N 870.601 -1.47988 -0.541979 0
M  V30 9215 C 871.548 -1.61615 -1.6477 0
M  V30 9216 C 872.518 -0.458602 -1.59644 0
M  V30 9217 O 873.703 -0.680585 -1.78249 0
M  V30 9218 C 870.843 -1.65066 -3.03063 0
M  V30 9219 C 869.956 -2.91845 -3.18513 0
M  V30 9220 C 869.091 -2.86534 -4.47294 0
M  V30 9221 C 868.13 -4.0807 -4.5623 0
M  V30 9222 N 867.267 -4.00905 -5.76385 0
M  V30 9223 H 872.107 -2.56046 -1.52461 0
M  V30 9224 H 869.644 -1.26989 -0.742449 0
M  V30 9225 H 871.602 -1.65049 -3.83164 0
M  V30 9226 H 870.232 -0.74136 -3.14171 0
M  V30 9227 H 869.284 -3.01661 -2.31743 0
M  V30 9228 H 870.596 -3.81804 -3.20978 0
M  V30 9229 H 869.75 -2.84851 -5.35672 0
M  V30 9230 H 868.489 -1.94283 -4.47332 0
M  V30 9231 H 867.494 -4.10041 -3.66261 0
M  V30 9232 H 868.719 -5.01465 -4.5794 0
M  V30 9233 H 866.665 -3.11467 -5.77342 0
M  V30 9234 H 866.582 -4.84557 -5.80293 0
M  V30 9235 H 867.85 -4.03263 -6.67083 0
M  V30 9236 N 872.079 0.78992 -1.36375 0
M  V30 9237 C 873.328 1.54296 -1.29906 0
M  V30 9238 C 873.641 1.95234 0.119651 0
M  V30 9239 O 874.847 2.69762 0.306708 0
M  V30 9240 C 873.303 2.78533 -2.27919 0
M  V30 9241 C 872.911 2.44767 -3.75224 0
M  V30 9242 C 874.655 3.56516 -2.30427 0
M  V30 9243 C 872.562 3.65397 -4.65015 0
M  V30 9244 H 871.492 0.579214 -0.482729 0
M  V30 9245 H 874.143 0.866845 -1.61735 0
M  V30 9246 H 872.525 3.47941 -1.89084 0
M  V30 9247 H 873.699 1.83259 -4.22792 0
M  V30 9248 H 872.014 1.79996 -3.75487 0
M  V30 9249 H 874.611 4.46143 -2.94722 0
M  V30 9250 H 874.954 3.95063 -1.31266 0
M  V30 9251 H 875.487 2.94087 -2.67876 0
M  V30 9252 H 872.226 3.31946 -5.65236 0
M  V30 9253 H 871.746 4.26072 -4.22164 0
M  V30 9254 H 873.425 4.32431 -4.81261 0
M  V30 9255 N 873.557 1.20646 1.01402 0
M  V30 9256 C 874.973 0.961866 1.27359 0
M  V30 9257 C 875.173 -0.357083 1.98311 0
M  V30 9258 O 874.229 -1.08498 2.28001 0
M  V30 9259 C 875.542 2.14627 2.10609 0
M  V30 9260 C 877.09 2.18753 2.23866 0
M  V30 9261 C 877.565 3.36686 3.10494 0
M  V30 9262 N 879.056 3.36716 3.18083 0
M  V30 9263 C 879.791 4.24615 3.85343 0
M  V30 9264 N 879.287 5.22697 4.54708 0
M  V30 9265 N 881.08 4.12449 3.81893 0
M  V30 9266 H 873.231 2.05481 0.537721 0
M  V30 9267 H 875.494 0.899292 0.299963 0
M  V30 9268 H 875.2 3.10159 1.65814 0
M  V30 9269 H 875.074 2.12935 3.11349 0
M  V30 9270 H 877.461 1.23782 2.67885 0
M  V30 9271 H 877.542 2.24492 1.22626 0
M  V30 9272 H 877.186 4.31945 2.67181 0
M  V30 9273 H 877.116 3.28185 4.11828 0
M  V30 9274 H 879.607 2.65728 2.68695 0
M  V30 9275 H 879.92 5.86087 5.03708 0
M  V30 9276 H 878.265 5.26631 4.53525 0
M  V30 9277 H 881.456 3.35091 3.26851 0
M  V30 9278 H 881.629 4.81162 4.34035 0
M  V30 9279 N 875.035 -1.20752 1.01276 0
M  V30 9280 C 876.284 -1.8934 0.695229 0
M  V30 9281 C 876.597 -1.79459 -0.77806 0
M  V30 9282 O 877.803 -2.43146 -1.20799 0
M  V30 9283 C 876.259 -3.39548 1.1931 0
M  V30 9284 C 875.867 -3.58023 2.69302 0
M  V30 9285 C 877.611 -4.13714 0.950823 0
M  V30 9286 C 875.518 -5.02037 3.1259 0
M  V30 9287 H 874.448 -0.709084 0.25635 0
M  V30 9288 H 877.099 -1.36629 1.22494 0
M  V30 9289 H 875.481 -3.91559 0.591395 0
M  V30 9290 H 876.655 -3.16416 3.34989 0
M  V30 9291 H 874.97 -2.97222 2.9163 0
M  V30 9292 H 877.567 -5.19891 1.24971 0
M  V30 9293 H 877.91 -4.16147 -0.112791 0
M  V30 9294 H 878.443 -3.67792 1.51571 0
M  V30 9295 H 875.182 -5.04757 4.18211 0
M  V30 9296 H 874.702 -5.44469 2.51621 0
M  V30 9297 H 876.381 -5.70594 3.0501 0
M  V30 9298 N 876.513 -0.788492 -1.36457 0
M  V30 9299 C 877.443 -0.200468 -2.32638 0
M  V30 9300 C 878.424 0.664031 -1.56603 0
M  V30 9301 O 879.609 0.598045 -1.84762 0
M  V30 9302 C 876.739 0.666274 -3.40849 0
M  V30 9303 C 875.693 -0.0982574 -4.27887 0
M  V30 9304 C 875.019 0.889018 -5.27258 0
M  V30 9305 C 876.319 -1.28692 -5.06197 0
M  V30 9306 H 878.013 -1.00399 -2.82065 0
M  V30 9307 H 875.559 -0.484237 -1.35614 0
M  V30 9308 H 877.512 1.08757 -4.07124 0
M  V30 9309 H 876.236 1.50249 -2.89987 0
M  V30 9310 H 874.895 -0.500525 -3.63167 0
M  V30 9311 H 874.543 1.72024 -4.7267 0
M  V30 9312 H 874.243 0.381909 -5.86358 0
M  V30 9313 H 875.767 1.30891 -5.96406 0
M  V30 9314 H 877.181 -0.941429 -5.65517 0
M  V30 9315 H 875.578 -1.72726 -5.74705 0
M  V30 9316 H 876.648 -2.08273 -4.37893 0
M  V30 9317 N 877.991 1.48044 -0.54043 0
M  V30 9318 C 879.239 2.02097 -0.0101367 0
M  V30 9319 C 879.56 1.41881 1.33771 0
M  V30 9320 O 878.83 0.587923 1.8687 0
M  V30 9321 H 877.41 0.747 -0.000758716 0
M  V30 9322 H 880.072 1.81639 -0.706634 0
M  V30 9323 H 879.168 3.11969 0.0904474 0
M  V30 9324 N 879.47 0.276058 1.55163 0
M  V30 9325 C 880.38 -0.621066 2.2623 0
M  V30 9326 C 881.396 -1.16931 1.28853 0
M  V30 9327 O 882.572 -1.1994 1.61791 0
M  V30 9328 C 879.637 -1.78824 2.97023 0
M  V30 9329 C 878.698 -1.27657 4.09881 0
M  V30 9330 C 877.931 -2.38812 4.77289 0
M  V30 9331 O 878.154 -3.58188 4.43912 0
M  V30 9332 O 877.088 -2.06915 5.65217 0
M  V30 9333 H 880.914 -0.0453346 3.03666 0
M  V30 9334 H 878.499 0.0434275 1.49337 0
M  V30 9335 H 880.381 -2.46877 3.41511 0
M  V30 9336 H 879.056 -2.35104 2.22503 0
M  V30 9337 H 877.963 -0.56248 3.69847 0
M  V30 9338 H 879.296 -0.759509 4.86305 0
M  V30 9339 N 880.948 -1.576 0.00335426 0
M  V30 9340 C 882.359 -1.7875 -0.539008 0
M  V30 9341 C 882.71 -0.911097 -1.73763 0
M  V30 9342 O 881.835 -0.114476 -2.16097 0
M  V30 9343 C 882.43 -3.24177 -0.984611 0
M  V30 9344 C 880.989 -3.46412 -1.47226 0
M  V30 9345 C 880.136 -2.74024 -0.425004 0
M  V30 9346 H 883.087 -1.57032 0.229511 0
M  V30 9347 H 883.108 -3.32474 -1.85044 0
M  V30 9348 H 882.62 -3.87938 -0.112035 0
M  V30 9349 H 880.721 -2.8787 -2.36562 0
M  V30 9350 H 880.834 -4.55098 -1.49741 0
M  V30 9351 H 879.198 -2.38741 -0.887394 0
M  V30 9352 H 879.981 -3.40486 0.438662 0
M  V30 9353 N 882.426 0.269451 -1.5528 0
M  V30 9354 C 883.373 1.33316 -1.88403 0
M  V30 9355 C 884.343 1.48909 -0.735881 0
M  V30 9356 O 885.528 1.63259 -0.987479 0
M  V30 9357 C 882.668 2.68778 -2.16454 0
M  V30 9358 C 881.781 2.61377 -3.43956 0
M  V30 9359 C 880.916 3.89042 -3.6169 0
M  V30 9360 C 879.955 3.76166 -4.82872 0
M  V30 9361 N 879.092 4.95673 -4.97245 0
M  V30 9362 H 883.932 1.04368 -2.79126 0
M  V30 9363 H 881.469 0.504147 -1.38191 0
M  V30 9364 H 883.427 3.47599 -2.30719 0
M  V30 9365 H 882.057 2.9592 -1.28961 0
M  V30 9366 H 881.109 1.74247 -3.38145 0
M  V30 9367 H 882.421 2.47764 -4.32914 0
M  V30 9368 H 881.575 4.76304 -3.75791 0
M  V30 9369 H 880.314 4.05526 -2.70924 0
M  V30 9370 H 879.319 2.87287 -4.68771 0
M  V30 9371 H 880.544 3.61198 -5.75077 0
M  V30 9372 H 878.49 5.12561 -4.09411 0
M  V30 9373 H 878.407 4.84605 -5.80254 0
M  V30 9374 H 879.675 5.84498 -5.15735 0
M  V30 9375 N 883.904 1.48273 0.534124 0
M  V30 9376 C 884.836 1.5857 1.65494 0
M  V30 9377 C 885.849 0.470266 1.5586 0
M  V30 9378 O 887.038 0.740928 1.62396 0
M  V30 9379 C 884.138 1.49554 3.04117 0
M  V30 9380 C 883.311 2.76066 3.39273 0
M  V30 9381 C 882.37 2.60562 4.57159 0
M  V30 9382 O 881.396 3.34438 4.60587 0
M  V30 9383 N 882.598 1.69906 5.55079 0
M  V30 9384 H 885.363 2.55226 1.57099 0
M  V30 9385 H 882.924 1.44944 0.721303 0
M  V30 9386 H 884.916 1.36882 3.80848 0
M  V30 9387 H 883.486 0.608895 3.06613 0
M  V30 9388 H 882.706 3.03332 2.51761 0
M  V30 9389 H 883.994 3.60006 3.59546 0
M  V30 9390 H 883.392 1.09079 5.55084 0
M  V30 9391 H 881.949 1.63175 6.31044 0
M  V30 9392 N 885.382 -0.782676 1.36792 0
M  V30 9393 C 886.329 -1.89558 1.31667 0
M  V30 9394 C 887.299 -1.65076 0.184147 0
M  V30 9395 O 888.484 -1.87143 0.371753 0
M  V30 9396 C 885.624 -3.26469 1.11858 0
M  V30 9397 C 884.737 -3.62978 2.34245 0
M  V30 9398 C 883.872 -4.89041 2.07394 0
M  V30 9399 C 882.911 -5.18249 3.25706 0
M  V30 9400 N 882.048 -6.35497 2.98476 0
M  V30 9401 H 886.888 -1.93274 2.26824 0
M  V30 9402 H 884.425 -0.945057 1.12726 0
M  V30 9403 H 886.383 -4.05431 0.983968 0
M  V30 9404 H 885.013 -3.22158 0.203531 0
M  V30 9405 H 884.065 -2.79087 2.58485 0
M  V30 9406 H 885.377 -3.80507 3.22514 0
M  V30 9407 H 884.531 -5.75883 1.90901 0
M  V30 9408 H 883.27 -4.73594 1.16446 0
M  V30 9409 H 882.275 -4.29887 3.4275 0
M  V30 9410 H 883.5 -5.35611 4.1749 0
M  V30 9411 H 881.446 -6.21429 2.10146 0
M  V30 9412 H 881.363 -6.5339 3.80286 0
M  V30 9413 H 882.631 -7.25304 2.85577 0
M  V30 9414 N 886.86 -1.21182 -1.00761 0
M  V30 9415 C 888.276 -0.968607 -1.26847 0
M  V30 9416 C 888.476 0.346561 -1.98497 0
M  V30 9417 O 887.532 1.07287 -2.28573 0
M  V30 9418 C 888.845 -2.1574 -2.09467 0
M  V30 9419 C 890.393 -2.19937 -2.22703 0
M  V30 9420 C 890.868 -3.38328 -3.08704 0
M  V30 9421 N 892.359 -3.38398 -3.16293 0
M  V30 9422 C 893.094 -4.26653 -3.83086 0
M  V30 9423 N 892.59 -5.25101 -4.5193 0
M  V30 9424 N 894.383 -4.14469 -3.797 0
M  V30 9425 H 886.534 -2.05763 -0.526816 0
M  V30 9426 H 888.797 -0.90087 -0.29519 0
M  V30 9427 H 888.503 -3.11034 -1.64167 0
M  V30 9428 H 888.377 -2.14584 -3.10216 0
M  V30 9429 H 890.764 -1.25201 -2.67224 0
M  V30 9430 H 890.845 -2.25139 -1.21433 0
M  V30 9431 H 890.489 -4.33356 -2.64886 0
M  V30 9432 H 890.419 -3.30364 -4.10082 0
M  V30 9433 H 892.91 -2.67149 -2.67282 0
M  V30 9434 H 893.223 -5.8875 -5.00592 0
M  V30 9435 H 891.568 -5.29029 -4.50726 0
M  V30 9436 H 894.759 -3.3682 -3.25069 0
M  V30 9437 H 894.932 -4.83458 -4.31477 0
M  V30 9438 N 888.338 1.20213 -1.01915 0
M  V30 9439 C 889.285 2.2309 -0.591571 0
M  V30 9440 C 890.255 1.61465 0.389649 0
M  V30 9441 O 891.44 1.88606 0.288511 0
M  V30 9442 C 888.58 3.45045 0.0614028 0
M  V30 9443 C 887.693 4.21091 -0.964688 0
M  V30 9444 C 886.828 5.30448 -0.282499 0
M  V30 9445 C 885.867 5.98241 -1.29517 0
M  V30 9446 N 885.004 6.99182 -0.639472 0
M  V30 9447 H 889.844 2.59023 -1.47347 0
M  V30 9448 H 887.381 1.27274 -0.737547 0
M  V30 9449 H 889.339 4.14688 0.45714 0
M  V30 9450 H 887.969 3.09797 0.906937 0
M  V30 9451 H 887.021 3.50489 -1.47857 0
M  V30 9452 H 888.333 4.67662 -1.73475 0
M  V30 9453 H 887.487 6.06466 0.168603 0
M  V30 9454 H 886.226 4.84922 0.519843 0
M  V30 9455 H 885.231 5.20982 -1.75663 0
M  V30 9456 H 886.456 6.45853 -2.09884 0
M  V30 9457 H 884.402 6.55844 0.142955 0
M  V30 9458 H 884.319 7.43893 -1.34756 0
M  V30 9459 H 885.587 7.79212 -0.212047 0
M  V30 9460 N 889.816 0.795718 1.36037 0
M  V30 9461 C 890.746 0.212803 2.32528 0
M  V30 9462 C 891.727 -0.655716 1.56953 0
M  V30 9463 O 892.912 -0.588238 1.85077 0
M  V30 9464 C 890.042 -0.648189 3.41198 0
M  V30 9465 C 888.996 0.120948 4.27829 0
M  V30 9466 C 888.322 -0.861044 5.27722 0
M  V30 9467 C 889.622 1.31375 5.05508 0
M  V30 9468 H 891.316 1.01893 2.81528 0
M  V30 9469 H 888.862 0.491422 1.35355 0
M  V30 9470 H 890.815 -1.06597 4.07695 0
M  V30 9471 H 889.539 -1.48709 2.9078 0
M  V30 9472 H 888.198 0.519777 3.62897 0
M  V30 9473 H 887.846 -1.69515 4.73575 0
M  V30 9474 H 887.546 -0.350808 5.86552 0
M  V30 9475 H 889.07 -1.27726 5.97092 0
M  V30 9476 H 890.484 0.971406 5.6501 0
M  V30 9477 H 888.881 1.75772 5.73781 0
M  V30 9478 H 889.951 2.10593 4.36782 0
M  V30 9479 N 891.294 -1.47756 0.548274 0
M  V30 9480 C 892.54 -2.02789 0.0209265 0
M  V30 9481 C 892.873 -1.42268 -1.32187 0
M  V30 9482 O 892.148 -0.575001 -1.85806 0
M  V30 9483 C 892.431 -3.60007 -0.0816674 0
M  V30 9484 C 892.284 -4.30977 1.28759 0
M  V30 9485 C 893.603 -4.32777 -0.799515 0
M  V30 9486 H 890.722 -0.736944 0.00907884 0
M  V30 9487 H 893.364 -1.76282 0.708839 0
M  V30 9488 H 891.514 -3.82722 -0.667537 0
M  V30 9489 H 893.186 -4.19629 1.91597 0
M  V30 9490 H 891.429 -3.9168 1.86466 0
M  V30 9491 H 892.1 -5.39488 1.16861 0
M  V30 9492 H 894.576 -4.15001 -0.30216 0
M  V30 9493 H 893.452 -5.42431 -0.840239 0
M  V30 9494 H 893.713 -4.01358 -1.85375 0
M  V30 9495 N 892.772 -0.284283 -1.55015 0
M  V30 9496 C 893.735 0.586182 -2.21577 0
M  V30 9497 C 894.735 1.07427 -1.1965 0
M  V30 9498 O 895.925 0.972977 -1.44495 0
M  V30 9499 C 893.057 1.80973 -2.88897 0
M  V30 9500 H 894.25 0.00487253 -2.999 0
M  V30 9501 H 891.803 -0.0349696 -1.56261 0
M  V30 9502 H 892.538 2.43131 -2.14611 0
M  V30 9503 H 892.323 1.46757 -3.636 0
M  V30 9504 H 893.813 2.42853 -3.39724 0
M  V30 9505 N 894.251 1.57596 -0.0117121 0
M  V30 9506 C 895.161 2.12596 0.991964 0
M  V30 9507 C 896.177 1.07399 1.36899 0
M  V30 9508 O 897.353 1.39365 1.45394 0
M  V30 9509 C 894.418 2.62796 2.2614 0
M  V30 9510 C 893.479 3.8264 1.94642 0
M  V30 9511 C 892.712 4.30435 3.15533 0
M  V30 9512 O 892.935 3.77495 4.27614 0
M  V30 9513 O 891.869 5.22469 2.98847 0
M  V30 9514 H 895.695 2.98597 0.554371 0
M  V30 9515 H 893.28 1.47947 0.207839 0
M  V30 9516 H 895.162 2.9523 3.00695 0
M  V30 9517 H 893.837 1.79886 2.69114 0
M  V30 9518 H 892.744 3.5516 1.17526 0
M  V30 9519 H 894.077 4.66658 1.56496 0
M  V30 9520 N 895.729 -0.261212 1.5542 0
M  V30 9521 C 896.975 -0.992699 1.76843 0
M  V30 9522 C 897.308 -1.8551 0.574428 0
M  V30 9523 O 896.583 -1.89739 -0.427713 0
M  V30 9524 C 896.866 -1.86532 3.08022 0
M  V30 9525 C 896.719 -1.03206 4.378 0
M  V30 9526 C 898.038 -2.85036 3.35324 0
M  V30 9527 H 895.157 -0.359473 0.643388 0
M  V30 9528 H 897.799 -0.264214 1.88154 0
M  V30 9529 H 895.949 -2.48644 2.9851 0
M  V30 9530 H 897.621 -0.430743 4.59285 0
M  V30 9531 H 895.864 -0.335911 4.32497 0
M  V30 9532 H 896.535 -1.6761 5.25938 0
M  V30 9533 H 899.011 -2.3306 3.44706 0
M  V30 9534 H 897.887 -3.43226 4.28354 0
M  V30 9535 H 898.148 -3.60768 2.55537 0
M  V30 9536 N 897.207 -1.48554 -0.526253 0
M  V30 9537 C 898.432 -1.60686 -1.31129 0
M  V30 9538 C 898.857 -0.268701 -1.86171 0
M  V30 9539 O 898.215 0.760167 -1.64594 0
M  V30 9540 C 898.263 -2.65938 -2.43536 0
M  V30 9541 O 897.367 -2.23356 -3.46678 0
M  V30 9542 H 896.708 -0.538691 -0.388211 0
M  V30 9543 H 899.238 -1.94567 -0.632826 0
M  V30 9544 H 899.248 -2.87327 -2.89668 0
M  V30 9545 H 897.923 -3.63085 -2.02835 0
M  V30 9546 H 896.5 -2.12196 -3.06639 0
M  V30 9547 N 898.685 0.775411 -1.37205 0
M  V30 9548 C 899.615 1.90258 -1.35367 0
M  V30 9549 C 900.596 1.68634 -0.222864 0
M  V30 9550 O 901.781 1.89545 -0.422659 0
M  V30 9551 C 898.911 3.27488 -1.15623 0
M  V30 9552 C 897.865 3.63668 -2.25676 0
M  V30 9553 C 897.191 4.994 -1.91059 0
M  V30 9554 C 898.491 3.70797 -3.67841 0
M  V30 9555 H 900.185 1.92053 -2.29687 0
M  V30 9556 H 897.731 0.922597 -1.10563 0
M  V30 9557 H 899.684 4.05976 -1.12968 0
M  V30 9558 H 898.408 3.26117 -0.177573 0
M  V30 9559 H 897.067 2.87486 -2.2748 0
M  V30 9560 H 896.715 4.94565 -0.917324 0
M  V30 9561 H 896.415 5.24576 -2.64751 0
M  V30 9562 H 897.939 5.80291 -1.89985 0
M  V30 9563 H 899.353 4.39444 -3.68187 0
M  V30 9564 H 897.75 4.07468 -4.40556 0
M  V30 9565 H 898.82 2.71549 -4.01732 0
M  V30 9566 N 900.163 1.21714 1.00117 0
M  V30 9567 C 901.095 0.937627 2.09144 0
M  V30 9568 C 902.108 -0.0806291 1.626 0
M  V30 9569 O 903.297 0.152348 1.77849 0
M  V30 9570 C 900.397 0.387036 3.36683 0
M  V30 9571 C 899.57 1.46054 4.12295 0
M  V30 9572 C 898.629 0.918505 5.18122 0
M  V30 9573 O 897.655 1.60282 5.46167 0
M  V30 9574 N 898.857 -0.264308 5.79898 0
M  V30 9575 H 901.622 1.87622 2.33705 0
M  V30 9576 H 899.183 1.12291 1.16629 0
M  V30 9577 H 901.175 0.00992825 4.04699 0
M  V30 9578 H 899.745 -0.456467 3.09249 0
M  V30 9579 H 898.965 2.01133 3.39027 0
M  V30 9580 H 900.253 2.18306 4.59587 0
M  V30 9581 H 899.651 -0.837242 5.5947 0
M  V30 9582 H 898.208 -0.582886 6.49188 0
M  V30 9583 N 901.641 -1.19671 1.02551 0
M  V30 9584 C 902.589 -2.24812 0.596867 0
M  V30 9585 C 903.583 -1.65336 -0.368839 0
M  V30 9586 O 904.789 -1.78422 -0.237786 0
M  V30 9587 H 901.164 -0.731417 0.174739 0
M  V30 9588 H 903.135 -2.58286 1.49435 0
M  V30 9589 C 901.884 -3.47677 -0.0399514 0
M  V30 9590 H 901.207 -3.93728 0.694153 0
M  V30 9591 H 902.647 -4.22917 -0.302861 0
M  V30 9592 C 901.106 -3.11411 -1.2855 0
M  V30 9593 O 901.636 -3.23757 -2.37791 0
M  V30 9594 N 899.842 -2.65875 -1.17297 0
M  V30 9595 H 899.389 -2.56029 -0.284045 0
M  V30 9596 H 899.347 -2.41981 -2.00731 0
M  V30 9597 N 903.119 -0.802921 -1.35613 0
M  V30 9598 C 904.53 -0.443004 -1.81368 0
M  V30 9599 C 904.881 1.03459 -1.66706 0
M  V30 9600 O 904.006 1.80372 -1.19561 0
M  V30 9601 C 904.601 -0.797324 -3.29284 0
M  V30 9602 C 903.16 -0.490055 -3.73196 0
M  V30 9603 C 902.307 -1.02487 -2.57666 0
M  V30 9604 H 905.258 -0.994888 -1.23643 0
M  V30 9605 H 905.279 -0.0934638 -3.80385 0
M  V30 9606 H 904.791 -1.87278 -3.39924 0
M  V30 9607 H 902.892 0.576818 -3.68108 0
M  V30 9608 H 903.005 -1.02012 -4.68114 0
M  V30 9609 H 901.369 -0.44738 -2.5074 0
M  V30 9610 H 902.152 -2.10636 -2.71085 0
M  V30 9611 N 904.597 1.47463 -0.556102 0
M  V30 9612 C 905.527 2.32801 0.180497 0
M  V30 9613 C 906.508 1.43721 0.909848 0
M  V30 9614 O 907.693 1.72578 0.89053 0
M  V30 9615 C 904.823 3.25478 1.21167 0
M  V30 9616 C 903.777 4.2379 0.598846 0
M  V30 9617 C 903.103 5.05783 1.73457 0
M  V30 9618 C 904.403 5.20387 -0.446659 0
M  V30 9619 H 906.097 2.94636 -0.531956 0
M  V30 9620 H 903.643 1.41683 -0.257267 0
M  V30 9621 H 905.596 3.8402 1.73513 0
M  V30 9622 H 904.32 2.61695 1.95405 0
M  V30 9623 H 902.979 3.66472 0.0966897 0
M  V30 9624 H 902.627 4.38405 2.46596 0
M  V30 9625 H 902.327 5.72343 1.33031 0
M  V30 9626 H 903.851 5.67183 2.26131 0
M  V30 9627 H 905.265 5.73299 -0.00930019 0
M  V30 9628 H 903.662 5.95143 -0.769735 0
M  V30 9629 H 904.732 4.65932 -1.34295 0
M  V30 9630 N 906.075 0.2925 1.54862 0
M  V30 9631 C 907.486 -0.201841 1.85606 0
M  V30 9632 C 907.837 -1.54093 1.21449 0
M  V30 9633 O 906.962 -2.10327 0.509079 0
M  V30 9634 C 907.557 -0.373011 3.3674 0
M  V30 9635 C 906.116 -0.811574 3.67547 0
M  V30 9636 C 905.263 0.0850583 2.7717 0
M  V30 9637 H 908.214 0.513774 1.50153 0
M  V30 9638 H 908.235 -1.20892 3.60785 0
M  V30 9639 H 907.747 0.601751 3.83407 0
M  V30 9640 H 905.848 -1.79719 3.26392 0
M  V30 9641 H 905.961 -0.636853 4.74848 0
M  V30 9642 H 904.325 -0.434224 2.50971 0
M  V30 9643 H 905.108 1.05602 3.26654 0
M  V30 9644 N 907.553 -1.57587 0.0200696 0
M  V30 9645 C 908.799 -1.91708 -0.661503 0
M  V30 9646 C 909.132 -0.895968 -1.72296 0
M  V30 9647 O 908.407 0.082577 -1.94325 0
M  V30 9648 C 908.69 -3.36344 -1.28627 0
M  V30 9649 C 908.543 -4.49186 -0.234982 0
M  V30 9650 C 909.862 -3.80771 -2.20685 0
M  V30 9651 H 906.981 -0.69717 -0.239005 0
M  V30 9652 H 909.623 -1.8985 0.0754764 0
M  V30 9653 H 907.773 -3.38058 -1.91439 0
M  V30 9654 H 909.445 -4.59606 0.395011 0
M  V30 9655 H 907.688 -4.31557 0.440565 0
M  V30 9656 H 908.359 -5.47395 -0.711558 0
M  V30 9657 H 910.835 -3.80735 -1.67868 0
M  V30 9658 H 909.711 -4.82685 -2.61356 0
M  V30 9659 H 909.972 -3.15764 -3.09428 0
M  V30 9660 N 909.032 0.252966 -1.55557 0
M  V30 9661 C 909.995 1.29645 -1.8901 0
M  V30 9662 C 910.995 1.41378 -0.766096 0
M  V30 9663 O 912.185 1.40183 -1.03414 0
M  V30 9664 C 909.317 2.67504 -2.11316 0
M  V30 9665 H 910.51 1.01202 -2.82309 0
M  V30 9666 H 908.063 0.491977 -1.48355 0
M  V30 9667 H 908.798 3.01095 -1.20466 0
M  V30 9668 H 908.583 2.6037 -2.93172 0
M  V30 9669 H 910.073 3.42861 -2.38403 0
M  V30 9670 N 910.51 1.48831 0.518367 0
M  V30 9671 C 911.44 1.67119 1.63075 0
M  V30 9672 C 912.421 0.519948 1.61958 0
M  V30 9673 O 913.606 0.753824 1.78972 0
M  V30 9674 C 910.736 1.72158 3.01627 0
M  V30 9675 C 909.69 2.86898 3.17606 0
M  V30 9676 C 909.016 2.77035 4.57335 0
M  V30 9677 C 910.316 4.28057 2.99274 0
M  V30 9678 H 912.01 2.60248 1.48025 0
M  V30 9679 H 909.556 1.2524 0.710694 0
M  V30 9680 H 911.509 1.83539 3.7933 0
M  V30 9681 H 910.233 0.756157 3.17726 0
M  V30 9682 H 908.892 2.75091 2.42323 0
M  V30 9683 H 908.54 1.78438 4.70286 0
M  V30 9684 H 908.24 3.54036 4.6897 0
M  V30 9685 H 909.764 2.904 5.37122 0
M  V30 9686 H 911.178 4.40636 3.6676 0
M  V30 9687 H 909.575 5.06145 3.22393 0
M  V30 9688 H 910.645 4.4371 1.95574 0
M  V30 9689 N 911.988 -0.768124 1.37614 0
M  V30 9690 C 912.898 -1.91249 1.35871 0
M  V30 9691 C 913.914 -1.7208 0.257786 0
M  V30 9692 O 915.09 -1.95253 0.493782 0
M  V30 9693 C 912.155 -3.26423 1.16829 0
M  V30 9694 C 911.216 -3.5822 2.36594 0
M  V30 9695 C 910.449 -4.86945 2.1845 0
M  V30 9696 O 910.672 -5.58258 1.17064 0
M  V30 9697 O 909.606 -5.17888 3.06718 0
M  V30 9698 H 913.432 -1.95671 2.32264 0
M  V30 9699 H 911.017 -0.911382 1.18382 0
M  V30 9700 H 912.899 -4.07269 1.08212 0
M  V30 9701 H 911.574 -3.22845 0.235123 0
M  V30 9702 H 910.481 -2.77594 2.50783 0
M  V30 9703 H 911.814 -3.66545 3.2849 0
M  V30 9704 N 913.466 -1.22244 -0.994698 0
M  V30 9705 C 914.714 -1.04384 -1.73056 0
M  V30 9706 C 915.035 0.422204 -1.90374 0
M  V30 9707 O 914.305 1.30383 -1.46209 0
M  V30 9708 H 912.885 -0.383263 -0.641185 0
M  V30 9709 H 915.547 -1.53725 -1.1981 0
M  V30 9710 H 914.643 -1.52021 -2.72573 0
M  V30 9711 N 914.944 1.19125 -1.03184 0
M  V30 9712 C 916.184 1.90582 -0.738785 0
M  V30 9713 C 916.548 1.78004 0.719627 0
M  V30 9714 O 917.749 2.44084 1.12589 0
M  V30 9715 C 916.02 3.37319 -1.18114 0
M  V30 9716 S 917.579 4.26962 -1.01238 0
M  V30 9717 H 914.397 0.6582 -0.268875 0
M  V30 9718 H 916.999 1.43999 -1.32229 0
M  V30 9719 H 915.703 3.43999 -2.23814 0
M  V30 9720 H 915.234 3.88935 -0.591051 0
M  V30 9721 H 917.249 4.96143 0.0753558 0
M  V30 9722 N 916.422 0.810101 1.35185 0
M  V30 9723 C 917.65 0.404696 2.02903 0
M  V30 9724 C 918.065 -0.985434 1.61042 0
M  V30 9725 O 917.422 -1.63557 0.809658 0
M  V30 9726 C 917.473 0.482493 3.58266 0
M  V30 9727 O 917.194 1.81782 3.98606 0
M  V30 9728 C 918.695 0.070345 4.43244 0
M  V30 9729 H 915.915 0.163972 0.650657 0
M  V30 9730 H 918.459 1.0947 1.72733 0
M  V30 9731 H 916.614 -0.159296 3.87072 0
M  V30 9732 H 917.028 1.78306 4.93262 0
M  V30 9733 H 918.502 0.175888 5.5172 0
M  V30 9734 H 918.979 -0.984724 4.28018 0
M  V30 9735 H 919.585 0.685427 4.1974 0
M  V30 9736 N 917.9 -1.47166 0.563914 0
M  V30 9737 C 919.147 -2.02456 0.042371 0
M  V30 9738 C 919.475 -1.43753 -1.31016 0
M  V30 9739 O 918.73 -0.585287 -1.86743 0
M  V30 9740 C 919.029 -3.57279 -0.0931797 0
M  V30 9741 C 918.695 -4.34932 1.18933 0
M  V30 9742 C 917.357 -4.55867 1.54073 0
M  V30 9743 C 919.709 -4.79665 2.03889 0
M  V30 9744 C 917.037 -5.18785 2.74005 0
M  V30 9745 C 919.389 -5.43907 3.23029 0
M  V30 9746 C 918.053 -5.63074 3.58475 0
M  V30 9747 H 917.323 -0.740838 0.0155047 0
M  V30 9748 H 919.97 -1.76759 0.736776 0
M  V30 9749 H 918.275 -3.82005 -0.870596 0
M  V30 9750 H 919.972 -3.97716 -0.512176 0
M  V30 9751 H 916.562 -4.18921 0.905718 0
M  V30 9752 H 920.746 -4.63264 1.78046 0
M  V30 9753 H 916.002 -5.31818 3.01628 0
M  V30 9754 H 920.176 -5.77531 3.89141 0
M  V30 9755 H 917.803 -6.11598 4.515 0
M  V30 9756 N 919.378 -0.300708 -1.54705 0
M  V30 9757 C 920.606 0.31127 -2.04545 0
M  V30 9758 C 921.021 1.47542 -1.178 0
M  V30 9759 O 920.378 1.81361 -0.203571 0
M  V30 9760 C 920.429 0.767783 -3.53253 0
M  V30 9761 O 920.15 -0.350027 -4.36699 0
M  V30 9762 C 921.651 1.44494 -4.1909 0
M  V30 9763 H 918.871 0.067668 -0.667579 0
M  V30 9764 H 921.415 -0.440254 -1.99705 0
M  V30 9765 H 919.57 1.46933 -3.58454 0
M  V30 9766 H 919.984 0.00534038 -5.245 0
M  V30 9767 H 921.458 1.71553 -5.24665 0
M  V30 9768 H 921.935 2.3849 -3.68808 0
M  V30 9769 H 922.541 0.786581 -4.17963 0
M  V30 9770 N 920.856 1.57574 -0.0284266 0
M  V30 9771 C 922.102 1.92056 0.651327 0
M  V30 9772 C 922.435 0.905092 1.71819 0
M  V30 9773 O 921.71 -0.0722703 1.94366 0
M  V30 9774 C 921.993 3.37021 1.26841 0
M  V30 9775 C 921.846 4.49304 0.211157 0
M  V30 9776 C 923.165 3.81936 2.18662 0
M  V30 9777 H 920.284 0.698428 0.235304 0
M  V30 9778 H 922.926 1.89807 -0.0855435 0
M  V30 9779 H 921.076 3.39068 1.89644 0
M  V30 9780 H 922.748 4.5939 -0.419379 0
M  V30 9781 H 920.991 4.31317 -0.463445 0
M  V30 9782 H 921.662 5.47764 0.682518 0
M  V30 9783 H 924.138 3.8162 1.65847 0
M  V30 9784 H 923.014 4.84064 2.58792 0
M  V30 9785 H 923.275 3.174 3.07749 0
M  V30 9786 N 922.334 -0.244713 1.55689 0
M  V30 9787 C 923.244 -1.32447 1.93636 0
M  V30 9788 C 924.26 -1.52541 0.837086 0
M  V30 9789 O 925.436 -1.66121 1.13867 0
M  V30 9790 C 922.501 -2.65864 2.22525 0
M  V30 9791 C 921.562 -2.54273 3.45896 0
M  V30 9792 C 920.795 -3.81327 3.73397 0
M  V30 9793 O 921.018 -4.83307 3.02936 0
M  V30 9794 O 919.952 -3.79829 4.66919 0
M  V30 9795 H 923.778 -1.03255 2.85608 0
M  V30 9796 H 921.363 -0.445652 1.42598 0
M  V30 9797 H 923.245 -3.447 2.42404 0
M  V30 9798 H 921.92 -2.94784 1.33731 0
M  V30 9799 H 920.827 -1.73715 3.31321 0
M  V30 9800 H 922.16 -2.30297 4.34999 0
M  V30 9801 N 923.813 -1.49104 -0.510467 0
M  V30 9802 C 925.061 -1.578 -1.26268 0
M  V30 9803 C 925.382 -0.262349 -1.93227 0
M  V30 9804 O 924.652 0.717624 -1.82283 0
M  V30 9805 H 923.232 -0.581387 -0.46904 0
M  V30 9806 H 925.894 -1.85678 -0.592423 0
M  V30 9807 H 924.99 -2.36919 -2.03165 0
M  V30 9808 N 925.291 0.760815 -1.38019 0
M  V30 9809 C 926.254 1.85604 -1.34476 0
M  V30 9810 C 927.254 1.58897 -0.24666 0
M  V30 9811 O 928.444 1.66776 -0.50314 0
M  V30 9812 C 925.576 3.22945 -1.09176 0
M  V30 9813 H 926.769 1.90155 -2.31908 0
M  V30 9814 H 924.322 0.961746 -1.23208 0
M  V30 9815 H 925.057 3.24066 -0.123216 0
M  V30 9816 H 924.842 3.43723 -1.88672 0
M  V30 9817 H 926.332 4.03022 -1.09375 0
M  V30 9818 N 926.769 1.22769 0.988202 0
M  V30 9819 C 928.017 1.05301 1.725 0
M  V30 9820 C 928.338 -0.412103 1.90596 0
M  V30 9821 O 927.608 -1.29606 1.46898 0
M  V30 9822 H 926.188 0.386658 0.639144 0
M  V30 9823 H 928.85 1.54359 1.18993 0
M  V30 9824 H 927.946 1.53465 2.71763 0
M  V30 9825 N 928.247 -1.18576 1.03814 0
M  V30 9826 C 929.177 -2.24334 0.647795 0
M  V30 9827 C 930.158 -1.66508 -0.34774 0
M  V30 9828 O 931.343 -1.92852 -0.228401 0
M  V30 9829 C 928.473 -3.47299 0.00734922 0
M  V30 9830 C 927.427 -4.17859 0.926152 0
M  V30 9831 C 926.753 -5.34489 0.150317 0
M  V30 9832 C 928.053 -4.71632 2.24411 0
M  V30 9833 H 929.747 -2.57241 1.53191 0
M  V30 9834 H 927.293 -1.23649 0.738028 0
M  V30 9835 H 929.246 -4.20486 -0.277434 0
M  V30 9836 H 927.97 -3.13619 -0.911626 0
M  V30 9837 H 926.629 -3.46567 1.19528 0
M  V30 9838 H 926.277 -4.97056 -0.770985 0
M  V30 9839 H 925.977 -5.82633 0.762407 0
M  V30 9840 H 927.501 -6.10467 -0.127508 0
M  V30 9841 H 928.915 -5.36526 2.02021 0
M  V30 9842 H 927.312 -5.303 2.80894 0
M  V30 9843 H 928.382 -3.89192 2.89236 0
M  V30 9844 N 929.725 -0.817259 -1.34754 0
M  V30 9845 C 930.953 -0.415451 -2.02686 0
M  V30 9846 C 931.368 0.97688 -1.61563 0
M  V30 9847 O 930.725 1.63125 -0.818321 0
M  V30 9848 C 930.776 -0.501486 -3.58005 0
M  V30 9849 O 930.497 -1.83893 -3.97637 0
M  V30 9850 C 931.998 -0.0938504 -4.43201 0
M  V30 9851 H 929.218 -0.16742 -0.649778 0
M  V30 9852 H 931.762 -1.10384 -1.7215 0
M  V30 9853 H 929.917 0.138766 -3.87151 0
M  V30 9854 H 930.331 -1.8092 -4.92309 0
M  V30 9855 H 931.805 -0.205145 -5.51619 0
M  V30 9856 H 932.282 0.962011 -4.28535 0
M  V30 9857 H 932.888 -0.707677 -4.19371 0
M  V30 9858 N 931.203 1.46865 -0.571711 0
M  V30 9859 C 932.113 2.33979 0.170571 0
M  V30 9860 C 933.129 1.49083 0.897239 0
M  V30 9861 O 934.305 1.81979 0.862888 0
M  V30 9862 C 931.37 3.26063 1.17831 0
M  V30 9863 C 930.431 4.26855 0.457499 0
M  V30 9864 C 929.664 5.14539 1.41722 0
M  V30 9865 O 929.887 5.04945 2.65305 0
M  V30 9866 O 928.821 5.94612 0.9338 0
M  V30 9867 H 932.647 2.98781 -0.544396 0
M  V30 9868 H 930.232 1.4566 -0.332198 0
M  V30 9869 H 932.114 3.82903 1.75965 0
M  V30 9870 H 930.789 2.63871 1.87493 0
M  V30 9871 H 929.696 3.73734 -0.165406 0
M  V30 9872 H 931.029 4.91802 -0.197953 0
M  V30 9873 N 932.681 0.308908 1.54543 0
M  V30 9874 C 933.591 -0.572939 2.27496 0
M  V30 9875 C 934.607 -1.14171 1.31305 0
M  V30 9876 O 935.783 -1.16481 1.64299 0
M  V30 9877 C 932.848 -1.72483 3.0075 0
M  V30 9878 C 931.909 -1.18934 4.12496 0
M  V30 9879 C 931.142 -2.28634 4.82247 0
M  V30 9880 O 931.365 -3.48691 4.5141 0
M  V30 9881 O 930.299 -1.94879 5.69478 0
M  V30 9882 H 934.125 0.0190877 3.03694 0
M  V30 9883 H 931.71 0.0750943 1.49211 0
M  V30 9884 H 933.592 -2.39578 3.46671 0
M  V30 9885 H 932.267 -2.30332 2.2744 0
M  V30 9886 H 931.174 -0.483904 3.70957 0
M  V30 9887 H 932.507 -0.656185 4.87806 0
M  V30 9888 N 934.159 -1.57557 0.0367827 0
M  V30 9889 C 935.091 -2.07597 -0.971395 0
M  V30 9890 C 936.104 -1.0009 -1.28397 0
M  V30 9891 O 937.293 -1.27692 -1.24728 0
M  V30 9892 C 934.393 -2.492 -2.2968 0
M  V30 9893 C 933.566 -3.79875 -2.16826 0
M  V30 9894 C 932.625 -4.07946 -3.32366 0
M  V30 9895 O 931.651 -4.78083 -3.0891 0
M  V30 9896 N 932.853 -3.58722 -4.56397 0
M  V30 9897 H 935.618 -2.94714 -0.544389 0
M  V30 9898 H 933.179 -1.61205 -0.1498 0
M  V30 9899 H 935.171 -2.65065 -3.05815 0
M  V30 9900 H 933.741 -1.67407 -2.63995 0
M  V30 9901 H 932.961 -3.73732 -1.2537 0
M  V30 9902 H 934.249 -4.65476 -2.0545 0
M  V30 9903 H 933.647 -3.01994 -4.78347 0
M  V30 9904 H 932.204 -3.79852 -5.29675 0
M  V30 9905 N 935.637 0.236453 -1.55816 0
M  V30 9906 C 936.584 1.29289 -1.91188 0
M  V30 9907 C 937.554 1.47315 -0.767301 0
M  V30 9908 O 938.739 1.61128 -1.02189 0
M  V30 9909 C 935.879 2.64126 -2.22107 0
M  V30 9910 C 934.992 2.54022 -3.49423 0
M  V30 9911 C 934.127 3.81282 -3.69861 0
M  V30 9912 C 933.166 3.65839 -4.90743 0
M  V30 9913 N 932.303 4.85014 -5.07647 0
M  V30 9914 H 937.143 0.98424 -2.81277 0
M  V30 9915 H 934.68 0.474722 -1.39229 0
M  V30 9916 H 936.638 3.42626 -2.3804 0
M  V30 9917 H 935.268 2.93118 -1.35209 0
M  V30 9918 H 934.32 1.67036 -3.41765 0
M  V30 9919 H 935.632 2.38525 -4.38072 0
M  V30 9920 H 934.786 4.68226 -3.8581 0
M  V30 9921 H 933.525 3.99688 -2.79465 0
M  V30 9922 H 932.53 2.77279 -4.74759 0
M  V30 9923 H 933.755 3.48918 -5.82609 0
M  V30 9924 H 931.701 5.03762 -4.20191 0
M  V30 9925 H 931.618 4.72188 -5.90402 0
M  V30 9926 H 932.886 5.73427 -5.28017 0
M  V30 9927 N 937.115 1.49373 0.502552 0
M  V30 9928 C 938.343 1.62488 1.28084 0
M  V30 9929 C 938.758 0.295667 1.86471 0
M  V30 9930 O 938.115 -0.718664 1.67754 0
M  V30 9931 C 938.166 2.69249 2.4122 0
M  V30 9932 O 937.887 3.97014 1.85234 0
M  V30 9933 C 939.388 2.93054 3.32617 0
M  V30 9934 H 936.608 0.547068 0.388533 0
M  V30 9935 H 939.152 1.95394 0.603452 0
M  V30 9936 H 937.307 2.39125 3.04792 0
M  V30 9937 H 937.721 4.55809 2.59496 0
M  V30 9938 H 939.195 3.71493 4.08285 0
M  V30 9939 H 939.672 2.02911 3.89517 0
M  V30 9940 H 940.278 3.24589 2.74813 0
M  V30 9941 N 938.594 -0.753485 1.38421 0
M  V30 9942 C 939.84 -1.51485 1.34834 0
M  V30 9943 C 940.173 -1.94102 -0.0615381 0
M  V30 9944 O 939.448 -1.65439 -1.02274 0
M  V30 9945 C 939.731 -2.76736 2.30411 0
M  V30 9946 C 939.584 -2.40256 3.80259 0
M  V30 9947 C 940.903 -3.7876 2.24119 0
M  V30 9948 H 938.022 -0.549534 0.491102 0
M  V30 9949 H 940.664 -0.863006 1.6927 0
M  V30 9950 H 938.814 -3.32357 2.01175 0
M  V30 9951 H 940.486 -1.90409 4.20169 0
M  V30 9952 H 938.729 -1.72714 3.97935 0
M  V30 9953 H 939.4 -3.29869 4.42595 0
M  V30 9954 H 941.876 -3.32679 2.49928 0
M  V30 9955 H 940.752 -4.64092 2.93104 0
M  V30 9956 H 941.013 -4.24352 1.24006 0
M  V30 9957 N 940.072 -1.23292 -0.981677 0
M  V30 9958 C 940.982 -1.02964 -2.10798 0
M  V30 9959 C 941.998 0.0254674 -1.73981 0
M  V30 9960 O 943.174 -0.169706 -2.00684 0
M  V30 9961 C 940.239 -0.621934 -3.41076 0
M  V30 9962 C 939.3 -1.75194 -3.91926 0
M  V30 9963 C 938.533 -1.36359 -5.15986 0
M  V30 9964 O 938.756 -0.247265 -5.69864 0
M  V30 9965 O 937.69 -2.18421 -5.60871 0
M  V30 9966 H 941.516 -1.97354 -2.30836 0
M  V30 9967 H 939.101 -1.01986 -1.09175 0
M  V30 9968 H 940.983 -0.405446 -4.19445 0
M  V30 9969 H 939.658 0.29299 -3.22371 0
M  V30 9970 H 938.565 -2.02305 -3.1468 0
M  V30 9971 H 939.898 -2.64513 -4.15083 0
M  V30 9972 N 941.55 1.18024 -1.04442 0
M  V30 9973 C 942.799 1.8743 -0.745185 0
M  V30 9974 C 943.112 1.81459 0.730206 0
M  V30 9975 O 944.318 2.46263 1.1431 0
M  V30 9976 C 942.774 3.36266 -1.28271 0
M  V30 9977 C 942.382 3.50757 -2.787 0
M  V30 9978 C 944.126 4.11048 -1.06018 0
M  V30 9979 C 942.033 4.93573 -3.25791 0
M  V30 9980 H 940.963 0.702038 -0.27506 0
M  V30 9981 H 943.614 1.33333 -1.26073 0
M  V30 9982 H 941.996 3.89853 -0.695002 0
M  V30 9983 H 943.17 3.07423 -3.43261 0
M  V30 9984 H 941.485 2.89385 -2.99408 0
M  V30 9985 H 944.082 5.16395 -1.38711 0
M  V30 9986 H 944.425 4.163 0.00241716 0
M  V30 9987 H 944.958 3.63644 -1.61269 0
M  V30 9988 H 941.697 4.93491 -4.31447 0
M  V30 9989 H 941.217 5.37607 -2.65968 0
M  V30 9990 H 942.896 5.62307 -3.20031 0
M  V30 9991 N 943.028 0.824394 1.34319 0
M  V30 9992 C 944.439 0.471802 1.8064 0
M  V30 9993 C 944.79 -1.00793 1.6833 0
M  V30 9994 O 943.915 -1.78447 1.22416 0
M  V30 9995 C 944.51 0.849609 3.27974 0
M  V30 9996 C 943.069 0.549365 3.72369 0
M  V30 9997 C 942.216 1.06573 2.56003 0
M  V30 9998 H 945.167 1.01443 1.22045 0
M  V30 9999 H 945.188 0.153968 3.80188 0
M  V30 10000 H 944.7 1.92663 3.36902 0
M  V30 10001 H 942.801 -0.518182 3.68979 0
M  V30 10002 H 942.914 1.09446 4.66432 0
M  V30 10003 H 941.278 0.487214 2.49997 0
M  V30 10004 H 942.061 2.14923 2.677 0
M  V30 10005 N 944.506 -1.46559 0.579492 0
M  V30 10006 C 945.783 -1.956 -0.00287136 0
M  V30 10007 C 946.163 -1.52215 -1.46266 0
M  V30 10008 O 945.511 -0.771335 -2.15088 0
M  V30 10009 C 945.721 -3.48606 0.165824 0
M  V30 10010 C 947.069 -4.24588 0.0319807 0
M  V30 10011 O 948.093 -3.56075 0.094496 0
M  V30 10012 O 946.952 -5.46396 -0.106386 0
M  V30 10013 H 944.046 -0.825387 -0.0516274 0
M  V30 10014 H 946.592 -1.56858 0.647584 0
M  V30 10015 H 945.364 -3.7306 1.18076 0
M  V30 10016 H 944.987 -3.94169 -0.521212 0
M  V30 10017 N 945.984 -0.3171 -1.54377 0
M  V30 10018 C 947.395 0.172287 -1.85903 0
M  V30 10019 C 947.746 1.52141 -1.23885 0
M  V30 10020 O 946.871 2.0949 -0.542476 0
M  V30 10021 C 947.466 0.319392 -3.37291 0
M  V30 10022 C 946.025 0.752998 -3.68791 0
M  V30 10023 C 945.172 -0.129143 -2.76999 0
M  V30 10024 H 948.123 -0.537597 -1.49317 0
M  V30 10025 H 948.144 1.15137 -3.62662 0
M  V30 10026 H 947.656 -0.662671 -3.82401 0
M  V30 10027 H 945.757 1.74504 -3.2921 0
M  V30 10028 H 945.87 0.561228 -4.75801 0
M  V30 10029 H 944.234 0.394242 -2.5163 0
M  V30 10030 H 945.017 -1.10785 -3.24933 0
M  V30 10031 N 947.462 1.57535 -0.0451378 0
M  V30 10032 C 948.708 1.92736 0.630921 0
M  V30 10033 C 949.041 0.923265 1.70849 0
M  V30 10034 O 948.316 -0.0516512 1.94431 0
M  V30 10035 C 948.599 3.38348 1.23259 0
M  V30 10036 C 948.452 4.49503 0.16349 0
M  V30 10037 C 949.771 3.84233 2.14599 0
M  V30 10038 H 946.89 0.700884 0.227883 0
M  V30 10039 H 949.532 1.89706 -0.10567 0
M  V30 10040 H 947.682 3.41061 1.86037 0
M  V30 10041 H 949.354 4.58919 -0.46808 0
M  V30 10042 H 947.597 4.30802 -0.509166 0
M  V30 10043 H 948.268 5.48457 0.624382 0
M  V30 10044 H 950.744 3.83358 1.6179 0
M  V30 10045 H 949.62 4.86781 2.53644 0
M  V30 10046 H 949.881 3.20646 3.04366 0
M  V30 10047 N 948.94 -0.228186 1.55939 0
M  V30 10048 C 949.85 -1.30386 1.9503 0
M  V30 10049 C 950.866 -1.51645 0.853218 0
M  V30 10050 O 952.042 -1.64904 1.15623 0
M  V30 10051 C 949.107 -2.63489 2.25332 0
M  V30 10052 C 948.168 -2.5059 3.48573 0
M  V30 10053 C 947.401 -3.77345 3.7742 0
M  V30 10054 O 947.624 -4.80067 3.08045 0
M  V30 10055 O 946.558 -3.74855 4.70922 0
M  V30 10056 H 950.384 -1.0022 2.86687 0
M  V30 10057 H 947.969 -0.430503 1.43063 0
M  V30 10058 H 949.851 -3.4211 2.46046 0
M  V30 10059 H 948.526 -2.93349 1.3685 0
M  V30 10060 H 947.433 -1.70191 3.33145 0
M  V30 10061 H 948.766 -2.2567 4.37417 0
M  V30 10062 N 950.418 -1.49637 -0.494624 0
M  V30 10063 C 951.381 -1.66252 -1.57775 0
M  V30 10064 C 952.381 -0.534054 -1.51672 0
M  V30 10065 O 953.571 -0.800637 -1.54711 0
M  V30 10066 C 950.703 -1.66584 -2.97426 0
M  V30 10067 H 951.896 -2.62864 -1.4437 0
M  V30 10068 H 949.449 -1.38764 -0.719323 0
M  V30 10069 H 950.184 -0.715798 -3.16302 0
M  V30 10070 H 949.969 -2.48543 -3.03264 0
M  V30 10071 H 951.459 -1.81474 -3.76108 0
M  V30 10072 N 951.896 0.746133 -1.38819 0
M  V30 10073 C 953.144 1.50247 -1.35167 0
M  V30 10074 C 953.465 1.94921 0.0553531 0
M  V30 10075 O 952.735 1.68187 1.00449 0
M  V30 10076 H 951.315 0.557337 -0.497377 0
M  V30 10077 H 953.977 0.886472 -1.73573 0
M  V30 10078 H 953.073 2.38986 -2.00728 0
M  V30 10079 N 953.375 1.23811 0.975125 0
M  V30 10080 C 954.285 1.0408 2.10249 0
M  V30 10081 C 955.301 -0.0162404 1.73992 0
M  V30 10082 O 956.477 0.180346 2.00591 0
M  V30 10083 C 953.542 0.640013 3.40741 0
M  V30 10084 C 952.603 1.7727 3.90991 0
M  V30 10085 C 951.836 1.39094 5.15256 0
M  V30 10086 O 952.059 0.277483 5.69725 0
M  V30 10087 O 950.993 2.21392 5.59704 0
M  V30 10088 H 954.819 1.98575 2.29786 0
M  V30 10089 H 952.404 1.02563 1.08633 0
M  V30 10090 H 954.286 0.427684 4.19224 0
M  V30 10091 H 952.961 -0.27589 3.22522 0
M  V30 10092 H 951.868 2.03971 3.13602 0
M  V30 10093 H 953.201 2.66711 4.13674 0
M  V30 10094 N 954.853 -1.17469 1.05066 0
M  V30 10095 C 955.763 -2.25089 0.661222 0
M  V30 10096 C 956.779 -1.71086 -0.31712 0
M  V30 10097 O 957.955 -2.00685 -0.169534 0
M  V30 10098 C 955.02 -3.46676 0.0406415 0
M  V30 10099 C 954.081 -4.15771 1.06927 0
M  V30 10100 C 953.314 -5.31553 0.478208 0
M  V30 10101 O 953.537 -5.6593 -0.712714 0
M  V30 10102 O 952.471 -5.89574 1.21185 0
M  V30 10103 H 956.297 -2.60685 1.5581 0
M  V30 10104 H 953.882 -1.24744 0.822147 0
M  V30 10105 H 955.764 -4.203 -0.304312 0
M  V30 10106 H 954.439 -3.1288 -0.829909 0
M  V30 10107 H 953.346 -3.44171 1.46619 0
M  V30 10108 H 954.679 -4.53591 1.91092 0
M  V30 10109 N 956.331 -0.831506 -1.3388 0
M  V30 10110 C 957.577 -0.424302 -1.98312 0
M  V30 10111 C 957.91 1.01211 -1.65741 0
M  V30 10112 O 957.185 1.70636 -0.933464 0
M  V30 10113 C 957.468 -0.636815 -3.54424 0
M  V30 10114 C 957.321 -2.11997 -3.96708 0
M  V30 10115 C 958.64 -0.0782411 -4.4003 0
M  V30 10116 H 955.759 -0.155637 -0.720379 0
M  V30 10117 H 958.401 -1.04566 -1.58638 0
M  V30 10118 H 956.551 -0.107907 -3.8835 0
M  V30 10119 H 958.223 -2.71317 -3.73075 0
M  V30 10120 H 956.466 -2.60723 -3.46707 0
M  V30 10121 H 957.137 -2.21944 -5.05416 0
M  V30 10122 H 959.613 -0.530243 -4.12708 0
M  V30 10123 H 958.489 -0.256676 -5.483 0
M  V30 10124 H 958.75 1.01745 -4.30233 0
M  V30 10125 N 957.809 1.4625 -0.587256 0
M  V30 10126 C 958.756 2.30354 0.143384 0
M  V30 10127 C 959.726 1.40891 0.879716 0
M  V30 10128 O 960.911 1.69837 0.869486 0
M  V30 10129 C 958.051 3.25441 1.14815 0
M  V30 10130 C 957.164 4.30004 0.414792 0
M  V30 10131 C 956.299 5.12214 1.40748 0
M  V30 10132 C 955.338 6.08523 0.660786 0
M  V30 10133 N 954.475 6.83585 1.60176 0
M  V30 10134 H 959.315 2.92304 -0.579866 0
M  V30 10135 H 956.852 1.44055 -0.29777 0
M  V30 10136 H 958.81 3.79018 1.7436 0
M  V30 10137 H 957.44 2.6529 1.83906 0
M  V30 10138 H 956.492 3.79248 -0.295787 0
M  V30 10139 H 957.804 4.98515 -0.168738 0
M  V30 10140 H 956.958 5.70091 2.0756 0
M  V30 10141 H 955.697 4.43675 2.02494 0
M  V30 10142 H 954.702 5.49796 -0.0210864 0
M  V30 10143 H 955.927 6.79083 0.0486551 0
M  V30 10144 H 953.873 6.17752 2.20724 0
M  V30 10145 H 953.79 7.48373 1.07115 0
M  V30 10146 H 955.058 7.46016 2.26009 0
M  V30 10147 N 959.287 0.325282 1.54207 0
M  V30 10148 C 960.533 -0.277185 2.00897 0
M  V30 10149 C 960.866 -1.51651 1.21308 0
M  V30 10150 O 960.141 -1.92237 0.295825 0
M  V30 10151 C 960.424 -0.60961 3.54902 0
M  V30 10152 C 960.277 0.640542 4.45216 0
M  V30 10153 C 961.596 -1.42656 4.16338 0
M  V30 10154 H 958.715 -0.0992722 0.730284 0
M  V30 10155 H 961.357 0.442201 1.84783 0
M  V30 10156 H 959.507 -1.22249 3.68765 0
M  V30 10157 H 961.179 1.27878 4.43221 0
M  V30 10158 H 959.422 1.26908 4.14821 0
M  V30 10159 H 960.093 0.363459 5.50802 0
M  V30 10160 H 962.569 -0.908494 4.06061 0
M  V30 10161 H 961.445 -1.62792 5.24204 0
M  V30 10162 H 961.706 -2.42321 3.69774 0
M  V30 10163 N 960.765 -1.57509 0.0534917 0
M  V30 10164 C 962.181 -1.56696 -0.303067 0
M  V30 10165 C 962.381 -1.06135 -1.71282 0
M  V30 10166 O 961.437 -0.71899 -2.42047 0
M  V30 10167 C 962.75 -3.00421 -0.129418 0
M  V30 10168 C 964.298 -3.12358 -0.200346 0
M  V30 10169 C 964.773 -4.57967 -0.0551971 0
M  V30 10170 N 966.264 -4.63066 -0.111398 0
M  V30 10171 C 966.999 -5.73395 -0.0232344 0
M  V30 10172 N 966.495 -6.92701 0.11741 0
M  V30 10173 N 968.288 -5.62045 -0.078984 0
M  V30 10174 H 960.439 -1.88696 0.975064 0
M  V30 10175 H 962.702 -0.869072 0.378706 0
M  V30 10176 H 962.408 -3.41456 0.842653 0
M  V30 10177 H 962.282 -3.66563 -0.889476 0
M  V30 10178 H 964.669 -2.71221 -1.16289 0
M  V30 10179 H 964.75 -2.48891 0.590506 0
M  V30 10180 H 964.394 -4.9979 0.904034 0
M  V30 10181 H 964.324 -5.19443 -0.865223 0
M  V30 10182 H 966.815 -3.77263 -0.219256 0
M  V30 10183 H 967.128 -7.72597 0.177326 0
M  V30 10184 H 965.473 -6.94833 0.152526 0
M  V30 10185 H 968.664 -4.67725 -0.187434 0
M  V30 10186 H 968.837 -6.48 -0.00681731 0
M  V30 10187 N 962.243 0.219913 -1.56058 0
M  V30 10188 C 963.176 1.29978 -1.87566 0
M  V30 10189 C 964.154 1.45131 -0.733203 0
M  V30 10190 O 965.338 1.60917 -0.981729 0
M  V30 10191 C 962.465 2.66988 -2.08411 0
M  V30 10192 C 961.511 2.68842 -3.31099 0
M  V30 10193 S 962.344 2.22745 -4.86975 0
M  V30 10194 C 963.5 3.61627 -5.10859 0
M  V30 10195 H 963.733 1.03059 -2.78866 0
M  V30 10196 H 961.266 0.422233 -1.48514 0
M  V30 10197 H 963.224 3.45866 -2.21104 0
M  V30 10198 H 961.885 2.91131 -1.17905 0
M  V30 10199 H 961.078 3.69526 -3.42734 0
M  V30 10200 H 960.68 1.98028 -3.17271 0
M  V30 10201 H 962.972 4.57328 -4.99857 0
M  V30 10202 H 963.915 3.54906 -6.12737 0
M  V30 10203 H 964.323 3.55391 -4.38586 0
M  V30 10204 N 963.721 1.49897 0.486681 0
M  V30 10205 C 964.998 1.50614 1.24799 0
M  V30 10206 C 965.378 0.24193 2.09709 0
M  V30 10207 O 964.726 -0.775237 2.14947 0
M  V30 10208 C 964.936 2.79318 2.09243 0
M  V30 10209 C 966.284 3.29371 2.67955 0
M  V30 10210 O 967.308 2.80533 2.19499 0
M  V30 10211 O 966.167 4.14466 3.56202 0
M  V30 10212 H 963.261 0.603447 0.565491 0
M  V30 10213 H 965.807 1.62174 0.499778 0
M  V30 10214 H 964.579 3.62812 1.46572 0
M  V30 10215 H 964.202 2.70687 2.91229 0
M  V30 10216 N 965.199 -0.738761 1.39212 0
M  V30 10217 C 966.129 -1.86602 1.40364 0
M  V30 10218 C 967.11 -1.67984 0.267495 0
M  V30 10219 O 968.295 -1.88358 0.472765 0
M  V30 10220 C 965.425 -3.24308 1.24265 0
M  V30 10221 C 964.379 -3.57557 2.35239 0
M  V30 10222 C 963.705 -4.94159 2.04233 0
M  V30 10223 C 965.005 -3.60914 3.77543 0
M  V30 10224 H 966.699 -1.85896 2.34698 0
M  V30 10225 H 964.245 -0.892959 1.1297 0
M  V30 10226 H 966.198 -4.02838 1.23692 0
M  V30 10227 H 964.922 -3.25531 0.263974 0
M  V30 10228 H 963.581 -2.81354 2.35022 0
M  V30 10229 H 963.229 -4.91959 1.04813 0
M  V30 10230 H 962.929 -5.17373 2.78567 0
M  V30 10231 H 964.453 -5.7505 2.05303 0
M  V30 10232 H 965.867 -4.29528 3.79709 0
M  V30 10233 H 964.264 -3.95644 4.51205 0
M  V30 10234 H 965.334 -2.60803 4.08791 0
M  V30 10235 N 966.677 -1.24326 -0.968545 0
M  V30 10236 C 967.607 -1.05951 -2.08079 0
M  V30 10237 C 968.588 0.0272666 -1.70078 0
M  V30 10238 O 969.773 -0.139644 -1.93697 0
M  V30 10239 C 966.903 -0.662623 -3.4092 0
M  V30 10240 C 965.857 -1.69807 -3.92873 0
M  V30 10241 C 965.183 -1.15628 -5.22048 0
M  V30 10242 C 966.483 -3.09383 -4.20808 0
M  V30 10243 H 968.177 -1.98984 -2.23709 0
M  V30 10244 H 965.723 -0.958112 -1.075 0
M  V30 10245 H 967.676 -0.521071 -4.18166 0
M  V30 10246 H 966.4 0.303399 -3.25188 0
M  V30 10247 H 965.059 -1.82783 -3.17783 0
M  V30 10248 H 964.707 -0.180888 -5.02675 0
M  V30 10249 H 964.407 -1.84822 -5.57776 0
M  V30 10250 H 965.931 -1.02683 -6.01904 0
M  V30 10251 H 967.345 -2.99642 -4.88761 0
M  V30 10252 H 965.742 -3.75923 -4.67763 0
M  V30 10253 H 966.812 -3.57486 -3.27616 0
M  V30 10254 N 968.156 1.1691 -1.05688 0
M  V30 10255 C 969.567 1.68915 -0.795273 0
M  V30 10256 C 969.918 1.83968 0.681925 0
M  V30 10257 O 969.043 1.53083 1.52953 0
M  V30 10258 C 969.638 3.06814 -1.43703 0
M  V30 10259 C 968.197 3.55965 -1.22335 0
M  V30 10260 C 967.344 2.32099 -1.51741 0
M  V30 10261 H 970.295 1.01357 -1.22116 0
M  V30 10262 H 970.316 3.70907 -0.849016 0
M  V30 10263 H 969.828 2.95826 -2.51214 0
M  V30 10264 H 967.929 3.72222 -0.16771 0
M  V30 10265 H 968.042 4.38427 -1.9318 0
M  V30 10266 H 966.406 2.36811 -0.937696 0
M  V30 10267 H 967.189 2.23715 -2.60397 0
M  V30 10268 N 969.634 0.838594 1.33437 0
M  V30 10269 C 970.564 0.286672 2.31734 0
M  V30 10270 C 971.545 -0.605451 1.5896 0
M  V30 10271 O 972.73 -0.529059 1.86854 0
M  V30 10272 C 969.86 -0.539311 3.43087 0
M  V30 10273 C 968.814 0.256997 4.27228 0
M  V30 10274 C 968.14 -0.692718 5.30194 0
M  V30 10275 C 969.44 1.47391 5.01072 0
M  V30 10276 H 971.134 1.10798 2.78144 0
M  V30 10277 H 968.68 0.534235 1.33723 0
M  V30 10278 H 970.633 -0.935724 4.1088 0
M  V30 10279 H 969.357 -1.39383 2.95364 0
M  V30 10280 H 968.016 0.634967 3.61059 0
M  V30 10281 H 967.664 -1.54363 4.78729 0
M  V30 10282 H 967.364 -0.164023 5.87371 0
M  V30 10283 H 968.888 -1.08665 6.00853 0
M  V30 10284 H 970.302 1.15067 5.61634 0
M  V30 10285 H 968.699 1.93937 5.67898 0
M  V30 10286 H 969.769 2.24382 4.29861 0
M  V30 10287 N 971.112 -1.45937 0.595003 0
M  V30 10288 C 972.062 -2.27491 -0.152331 0
M  V30 10289 C 973.046 -1.36591 -0.850396 0
M  V30 10290 O 974.238 -1.60675 -0.742462 0
M  V30 10291 C 971.367 -3.23203 -1.15735 0
M  V30 10292 C 970.453 -4.2159 -0.46077 0
M  V30 10293 N 970.844 -5.03416 0.490555 0
M  V30 10294 C 969.142 -4.40313 -0.709949 0
M  V30 10295 C 969.843 -5.74714 0.898825 0
M  V30 10296 N 968.819 -5.43046 0.24529 0
M  V30 10297 H 972.621 -2.8815 0.578526 0
M  V30 10298 H 970.135 -1.56936 0.417716 0
M  V30 10299 H 972.132 -3.8035 -1.70704 0
M  V30 10300 H 970.792 -2.64104 -1.8889 0
M  V30 10301 H 971.803 -5.10597 0.866692 0
M  V30 10302 H 968.48 -3.92351 -1.42713 0
M  V30 10303 H 969.87 -6.50487 1.68273 0
M  V30 10304 N 972.59 -0.333456 -1.54032 0
M  V30 10305 C 973.523 0.570776 -2.20947 0
M  V30 10306 C 974.501 1.10811 -1.18994 0
M  V30 10307 O 975.685 1.17027 -1.47773 0
M  V30 10308 C 972.812 1.7842 -2.87896 0
M  V30 10309 C 971.858 1.37722 -4.03652 0
M  V30 10310 S 972.691 0.405548 -5.33962 0
M  V30 10311 C 973.847 1.62603 -6.0441 0
M  V30 10312 H 974.08 0.0023936 -2.973 0
M  V30 10313 H 971.613 -0.117531 -1.53952 0
M  V30 10314 H 973.571 2.48038 -3.27089 0
M  V30 10315 H 972.232 2.32378 -2.11327 0
M  V30 10316 H 971.425 2.28167 -4.49395 0
M  V30 10317 H 971.027 0.760628 -3.66184 0
M  V30 10318 H 973.319 2.56202 -6.2719 0
M  V30 10319 H 974.262 1.21058 -6.97675 0
M  V30 10320 H 974.67 1.8175 -5.34441 0
M  V30 10321 N 974.068 1.57479 -0.061844 0
M  V30 10322 C 975.316 1.92727 0.608336 0
M  V30 10323 C 975.637 0.941799 1.70749 0
M  V30 10324 O 974.907 -0.0116608 1.95897 0
M  V30 10325 H 973.487 0.71145 0.2277 0
M  V30 10326 H 976.149 1.94546 -0.117359 0
M  V30 10327 H 975.245 2.9426 1.04007 0
M  V30 10328 N 975.546 -0.211634 1.56173 0
M  V30 10329 C 976.476 -1.26533 1.96244 0
M  V30 10330 C 977.457 -1.48362 0.832028 0
M  V30 10331 O 978.642 -1.60378 1.0951 0
M  V30 10332 C 975.772 -2.61307 2.2877 0
M  V30 10333 C 974.726 -2.54119 3.44395 0
M  V30 10334 C 974.052 -3.93014 3.62552 0
M  V30 10335 C 975.352 -2.08046 4.79076 0
M  V30 10336 H 977.046 -0.932407 2.84511 0
M  V30 10337 H 974.592 -0.447084 1.36884 0
M  V30 10338 H 976.545 -3.35188 2.55396 0
M  V30 10339 H 975.269 -2.96307 1.37367 0
M  V30 10340 H 973.928 -1.82694 3.17834 0
M  V30 10341 H 973.576 -4.25338 2.68508 0
M  V30 10342 H 973.276 -3.89083 4.40327 0
M  V30 10343 H 974.8 -4.68542 3.91537 0
M  V30 10344 H 976.214 -2.71676 5.04842 0
M  V30 10345 H 974.611 -2.15154 5.60204 0
M  V30 10346 H 975.681 -1.03306 4.73768 0
M  V30 10347 N 977.024 -1.50153 -0.478725 0
M  V30 10348 C 977.974 -1.64848 -1.57509 0
M  V30 10349 C 978.958 -0.503327 -1.52825 0
M  V30 10350 O 980.15 -0.75737 -1.59978 0
M  V30 10351 C 977.279 -1.73893 -2.96 0
M  V30 10352 C 976.365 -2.9406 -3.05597 0
M  V30 10353 N 976.756 -4.17844 -2.85027 0
M  V30 10354 C 975.054 -2.92459 -3.36725 0
M  V30 10355 C 975.755 -4.98739 -2.9939 0
M  V30 10356 N 974.731 -4.32542 -3.29255 0
M  V30 10357 H 978.533 -2.58254 -1.40293 0
M  V30 10358 H 976.047 -1.47232 -0.685307 0
M  V30 10359 H 978.044 -1.82523 -3.74821 0
M  V30 10360 H 976.704 -0.816402 -3.14269 0
M  V30 10361 H 977.715 -4.47465 -2.60759 0
M  V30 10362 H 974.392 -2.09675 -3.6103 0
M  V30 10363 H 975.782 -6.07146 -2.8779 0
M  V30 10364 N 978.502 0.731368 -1.39602 0
M  V30 10365 C 979.449 1.84541 -1.38612 0
M  V30 10366 C 980.419 1.64279 -0.245287 0
M  V30 10367 O 981.604 1.85635 -0.440954 0
M  V30 10368 C 978.744 3.22092 -1.23897 0
M  V30 10369 C 977.857 3.54034 -2.47555 0
M  V30 10370 C 976.992 4.81007 -2.25402 0
M  V30 10371 C 976.031 5.05804 -3.44716 0
M  V30 10372 N 975.168 6.23981 -3.21857 0
M  V30 10373 H 980.008 1.84722 -2.33841 0
M  V30 10374 H 977.545 0.902569 -1.16156 0
M  V30 10375 H 979.503 4.01499 -1.13376 0
M  V30 10376 H 978.133 3.2118 -0.322958 0
M  V30 10377 H 977.185 2.69301 -2.68665 0
M  V30 10378 H 978.497 3.68275 -3.36415 0
M  V30 10379 H 977.651 5.68401 -2.12143 0
M  V30 10380 H 976.39 4.68946 -1.33943 0
M  V30 10381 H 975.395 4.1687 -3.58468 0
M  V30 10382 H 976.62 5.19747 -4.37081 0
M  V30 10383 H 974.566 6.13202 -2.33065 0
M  V30 10384 H 974.483 6.38826 -4.04274 0
M  V30 10385 H 975.751 7.14205 -3.123 0
M  V30 10386 N 979.98 1.24838 0.961938 0
M  V30 10387 C 980.91 1.07053 2.07514 0
M  V30 10388 C 981.891 -0.0182465 1.7009 0
M  V30 10389 O 983.076 0.149915 1.9362 0
M  V30 10390 C 980.206 0.680693 3.40564 0
M  V30 10391 C 979.16 1.71889 3.91967 0
M  V30 10392 C 978.486 1.18395 5.21428 0
M  V30 10393 C 979.786 3.1161 4.19161 0
M  V30 10394 H 981.48 2.00167 2.22651 0
M  V30 10395 H 979.026 0.963799 1.0699 0
M  V30 10396 H 980.979 0.54324 4.17884 0
M  V30 10397 H 979.703 -0.28615 3.25344 0
M  V30 10398 H 978.362 1.84465 3.16809 0
M  V30 10399 H 978.01 0.207543 5.02572 0
M  V30 10400 H 977.71 1.87778 5.56788 0
M  V30 10401 H 979.234 1.05873 6.01351 0
M  V30 10402 H 980.648 3.0223 4.87165 0
M  V30 10403 H 979.045 3.78398 4.65763 0
M  V30 10404 H 980.115 3.59218 3.25715 0
M  V30 10405 N 981.458 -1.16348 1.06306 0
M  V30 10406 C 982.704 -1.87158 0.781007 0
M  V30 10407 C 983.037 -1.81499 -0.690784 0
M  V30 10408 O 982.312 -1.23074 -1.50609 0
M  V30 10409 C 982.595 -3.3672 1.27639 0
M  V30 10410 C 982.448 -3.51069 2.81194 0
M  V30 10411 C 983.767 -4.31122 0.884388 0
M  V30 10412 H 980.886 -0.679586 0.285187 0
M  V30 10413 H 983.528 -1.36756 1.31901 0
M  V30 10414 H 981.678 -3.79775 0.818715 0
M  V30 10415 H 983.35 -3.16952 3.35171 0
M  V30 10416 H 981.593 -2.92976 3.19918 0
M  V30 10417 H 982.264 -4.56105 3.10921 0
M  V30 10418 H 984.74 -3.95969 1.27858 0
M  V30 10419 H 983.616 -5.34279 1.25847 0
M  V30 10420 H 983.877 -4.41598 -0.210673 0
M  V30 10421 N 982.937 -0.845659 -1.3299 0
M  V30 10422 C 984.183 -0.445311 -1.9785 0
M  V30 10423 C 984.516 0.994476 -1.66805 0
M  V30 10424 O 983.791 1.69636 -0.95151 0
M  V30 10425 C 984.074 -0.674371 -3.53729 0
M  V30 10426 C 983.927 -2.16192 -3.94437 0
M  V30 10427 C 985.246 -0.124908 -4.39923 0
M  V30 10428 H 982.365 -0.163269 -0.718688 0
M  V30 10429 H 985.007 -1.06242 -1.5752 0
M  V30 10430 H 983.157 -0.149091 -3.88214 0
M  V30 10431 H 984.829 -2.75259 -3.70176 0
M  V30 10432 H 983.072 -2.64386 -3.43922 0
M  V30 10433 H 983.743 -2.27292 -5.03033 0
M  V30 10434 H 986.219 -0.573986 -4.12122 0
M  V30 10435 H 985.095 -0.314816 -5.47996 0
M  V30 10436 H 985.356 0.971758 -4.31288 0
M  V30 10437 N 984.415 1.45619 -0.602734 0
M  V30 10438 C 985.363 2.32228 0.131484 0
M  V30 10439 C 986.357 1.45681 0.864484 0
M  V30 10440 O 987.563 1.62193 0.7806 0
M  V30 10441 H 983.938 0.7495 0.0612638 0
M  V30 10442 H 985.909 2.91941 -0.617496 0
M  V30 10443 C 984.658 3.29213 1.11866 0
M  V30 10444 H 983.981 3.95801 0.564061 0
M  V30 10445 H 985.421 3.92554 1.60242 0
M  V30 10446 C 983.88 2.56028 2.18978 0
M  V30 10447 O 984.41 2.33806 3.26646 0
M  V30 10448 N 982.616 2.16245 1.94129 0
M  V30 10449 H 982.163 2.34518 1.06579 0
M  V30 10450 H 982.121 1.67601 2.66003 0
M  V30 10451 N 985.893 0.34162 1.53853 0
M  V30 10452 C 987.14 -0.255484 2.00882 0
M  V30 10453 C 987.468 -1.50711 1.22949 0
M  V30 10454 O 986.723 -1.93315 0.304625 0
M  V30 10455 C 987.022 -0.616989 3.52034 0
M  V30 10456 C 986.688 0.537536 4.47684 0
M  V30 10457 C 985.35 0.854379 4.73554 0
M  V30 10458 C 987.702 1.31217 5.04412 0
M  V30 10459 C 985.03 1.94826 5.53407 0
M  V30 10460 C 987.382 2.39628 5.85458 0
M  V30 10461 C 986.046 2.71874 6.09623 0
M  V30 10462 H 985.316 -0.0934881 0.735079 0
M  V30 10463 H 987.963 0.469135 1.85665 0
M  V30 10464 H 986.268 -1.42229 3.65073 0
M  V30 10465 H 987.965 -1.09084 3.85878 0
M  V30 10466 H 984.555 0.280524 4.27681 0
M  V30 10467 H 988.739 1.08064 4.84392 0
M  V30 10468 H 983.995 2.20235 5.70356 0
M  V30 10469 H 988.169 3.00084 6.28429 0
M  V30 10470 H 985.796 3.56762 6.71286 0
M  V30 10471 N 987.371 -1.57444 0.0701946 0
M  V30 10472 C 988.281 -2.16132 -0.912377 0
M  V30 10473 C 989.297 -1.12406 -1.32819 0
M  V30 10474 O 990.473 -1.44665 -1.40121 0
M  V30 10475 C 987.538 -2.71008 -2.16231 0
M  V30 10476 C 986.599 -3.896 -1.80306 0
M  V30 10477 C 985.832 -4.4185 -2.9934 0
M  V30 10478 O 986.055 -3.93106 -4.13309 0
M  V30 10479 O 984.989 -5.33201 -2.7925 0
M  V30 10480 H 988.815 -3.00449 -0.443167 0
M  V30 10481 H 986.4 -1.48617 -0.152786 0
M  V30 10482 H 988.282 -3.06186 -2.8953 0
M  V30 10483 H 986.957 -1.8975 -2.62253 0
M  V30 10484 H 985.864 -3.59277 -1.04264 0
M  V30 10485 H 987.197 -4.72145 -1.39068 0
M  V30 10486 N 988.849 0.203349 -1.56283 0
M  V30 10487 C 990.074 0.945548 -1.84592 0
M  V30 10488 C 990.499 1.7641 -0.652772 0
M  V30 10489 O 989.857 1.76867 0.398468 0
M  V30 10490 C 989.905 1.82416 -3.11057 0
M  V30 10491 O 989.009 2.92191 -2.9103 0
M  V30 10492 H 988.35 0.266739 -0.608068 0
M  V30 10493 H 990.88 0.211158 -2.03507 0
M  V30 10494 H 990.89 2.23044 -3.41636 0
M  V30 10495 H 989.565 1.22267 -3.97522 0
M  V30 10496 H 988.142 2.55378 -2.71728 0
M  V30 10497 N 990.327 1.50405 0.470755 0
M  V30 10498 C 991.604 1.51929 1.23195 0
M  V30 10499 C 991.984 0.264159 2.09441 0
M  V30 10500 O 991.332 -0.752395 2.15757 0
M  V30 10501 C 991.542 2.81521 2.06269 0
M  V30 10502 C 992.89 3.32195 2.64446 0
M  V30 10503 O 993.914 2.82845 2.16511 0
M  V30 10504 O 992.773 4.18221 3.51786 0
M  V30 10505 H 989.867 0.609411 0.559059 0
M  V30 10506 H 992.413 1.62695 0.482549 0
M  V30 10507 H 991.185 3.64346 1.42715 0
M  V30 10508 H 990.808 2.7376 2.88342 0
M  V30 10509 N 991.805 -0.723954 1.39988 0
M  V30 10510 C 992.752 -1.83803 1.39589 0
M  V30 10511 C 993.722 -1.64146 0.253996 0
M  V30 10512 O 994.907 -1.85398 0.450793 0
M  V30 10513 C 992.047 -3.21431 1.25604 0
M  V30 10514 C 991.16 -3.52717 2.49429 0
M  V30 10515 C 990.295 -4.79805 2.27949 0
M  V30 10516 C 989.334 -5.03968 3.47394 0
M  V30 10517 N 988.471 -6.22266 3.25161 0
M  V30 10518 H 993.311 -1.83479 2.34818 0
M  V30 10519 H 990.848 -0.896396 1.16633 0
M  V30 10520 H 992.806 -4.00892 1.15504 0
M  V30 10521 H 991.436 -3.21005 0.339986 0
M  V30 10522 H 990.488 -2.67872 2.7009 0
M  V30 10523 H 991.8 -3.66486 3.38363 0
M  V30 10524 H 990.954 -5.67268 2.15155 0
M  V30 10525 H 989.693 -4.68229 1.36428 0
M  V30 10526 H 988.698 -4.14963 3.60674 0
M  V30 10527 H 989.923 -5.17422 4.39831 0
M  V30 10528 H 987.869 -6.11957 2.36314 0
M  V30 10529 H 987.786 -6.36673 4.07656 0
M  V30 10530 H 989.054 -7.12539 3.16083 0
M  V30 10531 N 993.283 -1.25346 -0.955304 0
M  V30 10532 C 994.213 -1.08152 -2.06943 0
M  V30 10533 C 995.194 0.00922598 -1.70097 0
M  V30 10534 O 996.379 -0.160181 -1.93538 0
M  V30 10535 C 993.509 -0.698745 -3.40198 0
M  V30 10536 C 992.463 -1.73965 -3.9105 0
M  V30 10537 C 991.789 -1.21158 -5.20792 0
M  V30 10538 C 993.089 -3.13829 -4.17503 0
M  V30 10539 H 994.783 -2.01345 -2.21586 0
M  V30 10540 H 992.329 -0.969459 -1.06478 0
M  V30 10541 H 994.282 -0.565394 -4.1759 0
M  V30 10542 H 993.006 0.268892 -3.25491 0
M  V30 10543 H 991.665 -1.86143 -3.15827 0
M  V30 10544 H 991.313 -0.234193 -5.02455 0
M  V30 10545 H 991.013 -1.90728 -5.55785 0
M  V30 10546 H 992.537 -1.09061 -6.00781 0
M  V30 10547 H 993.951 -3.04809 -4.85556 0
M  V30 10548 H 992.348 -3.80863 -4.63749 0
M  V30 10549 H 993.418 -3.6094 -3.23806 0
M  V30 10550 N 994.761 1.15782 -1.06922 0
M  V30 10551 C 995.708 2.2038 -0.685659 0
M  V30 10552 C 996.678 1.62972 0.320816 0
M  V30 10553 O 997.863 1.8966 0.208258 0
M  V30 10554 C 995.003 3.44995 -0.084998 0
M  V30 10555 C 994.116 4.16621 -1.14242 0
M  V30 10556 C 993.251 5.28773 -0.507226 0
M  V30 10557 C 992.29 5.92209 -1.54774 0
M  V30 10558 N 991.427 6.9584 -0.935443 0
M  V30 10559 H 996.267 2.5254 -1.58201 0
M  V30 10560 H 993.804 1.24031 -0.790864 0
M  V30 10561 H 995.762 4.16254 0.280845 0
M  V30 10562 H 994.392 3.13365 0.774725 0
M  V30 10563 H 993.444 3.43903 -1.62589 0
M  V30 10564 H 994.756 4.59884 -1.93154 0
M  V30 10565 H 993.91 6.06635 -0.0887719 0
M  V30 10566 H 992.649 4.8669 0.313704 0
M  V30 10567 H 991.654 5.13063 -1.97602 0
M  V30 10568 H 992.879 6.3637 -2.37088 0
M  V30 10569 H 990.825 6.5586 -0.135339 0
M  V30 10570 H 990.742 7.37508 -1.66186 0
M  V30 10571 H 992.01 7.77611 -0.542346 0
M  V30 10572 N 996.239 0.8527 1.3254 0
M  V30 10573 C 997.202 0.300959 2.27215 0
M  V30 10574 C 998.202 -0.538235 1.51525 0
M  V30 10575 O 999.392 -0.350027 1.70647 0
M  V30 10576 C 996.524 -0.574428 3.36025 0
M  V30 10577 H 997.717 1.13655 2.77529 0
M  V30 10578 H 995.27 0.626878 1.43178 0
M  V30 10579 H 996.005 -1.43191 2.90976 0
M  V30 10580 H 995.79 0.0262265 3.92091 0
M  V30 10581 H 997.28 -0.9533 4.06573 0
M  V30 10582 N 997.718 -1.45297 0.610449 0
M  V30 10583 C 998.964 -2.02518 0.106917 0
M  V30 10584 C 999.297 -1.47747 -1.26034 0
M  V30 10585 O 998.572 -0.65329 -1.832 0
M  V30 10586 C 998.855 -3.6003 0.0710975 0
M  V30 10587 C 998.708 -4.25128 1.46922 0
M  V30 10588 C 1000.03 -4.35778 -0.61524 0
M  V30 10589 H 997.146 -0.735896 0.040327 0
M  V30 10590 H 999.788 -1.73117 0.782968 0
M  V30 10591 H 997.938 -3.85209 -0.504611 0
M  V30 10592 H 999.61 -4.11125 2.09223 0
M  V30 10593 H 997.853 -3.83418 2.02911 0
M  V30 10594 H 998.524 -5.34046 1.39637 0
M  V30 10595 H 1001 -4.1591 -0.125871 0
M  V30 10596 H 999.876 -5.45506 -0.609419 0
M  V30 10597 H 1000.14 -4.08859 -1.68186 0
M  V30 10598 N 999.196 -0.349774 -1.5367 0
M  V30 10599 C 1000.14 0.504121 -2.25227 0
M  V30 10600 C 1001.11 1.09048 -1.2529 0
M  V30 10601 O 1002.3 1.12594 -1.54037 0
M  V30 10602 C 999.438 1.64601 -3.03316 0
M  V30 10603 C 998.551 1.08635 -4.18118 0
M  V30 10604 C 997.686 2.19605 -4.83681 0
M  V30 10605 C 996.725 1.61023 -5.90541 0
M  V30 10606 N 995.862 2.6576 -6.49858 0
M  V30 10607 H 1000.7 -0.112621 -2.97787 0
M  V30 10608 H 998.239 -0.0673503 -1.46946 0
M  V30 10609 H 1000.2 2.31836 -3.46854 0
M  V30 10610 H 998.827 2.23364 -2.33041 0
M  V30 10611 H 997.879 0.304748 -3.79177 0
M  V30 10612 H 999.191 0.617911 -4.94958 0
M  V30 10613 H 998.345 2.94693 -5.30322 0
M  V30 10614 H 997.084 2.69795 -4.06278 0
M  V30 10615 H 996.089 0.844428 -5.43277 0
M  V30 10616 H 997.314 1.11677 -6.69855 0
M  V30 10617 H 995.26 3.15193 -5.75317 0
M  V30 10618 H 995.177 2.23557 -7.2219 0
M  V30 10619 H 996.445 3.40598 -7.01151 0
M  V30 10620 N 1000.67 1.57404 -0.0785433 0
M  V30 10621 C 1001.92 1.93361 0.58786 0
M  V30 10622 C 1002.24 0.959856 1.6974 0
M  V30 10623 O 1001.51 0.0091173 1.95898 0
M  V30 10624 H 1000.09 0.713825 0.220141 0
M  V30 10625 H 1002.75 1.94411 -0.137986 0
M  V30 10626 H 1001.85 2.95346 1.00881 0
M  V30 10627 N 1002.15 -0.195058 1.56388 0
M  V30 10628 C 1003.4 -0.915444 1.80626 0
M  V30 10629 C 1003.73 -1.83255 0.651768 0
M  V30 10630 O 1002.98 -1.92314 -0.362464 0
M  V30 10631 C 1003.28 -1.7637 3.10851 0
M  V30 10632 C 1002.95 -0.997572 4.39726 0
M  V30 10633 C 1001.61 -0.786043 4.74737 0
M  V30 10634 C 1003.96 -0.45851 5.19179 0
M  V30 10635 C 1001.29 -0.023972 5.86695 0
M  V30 10636 C 1003.64 0.29035 6.31933 0
M  V30 10637 C 1002.3 0.512895 6.65527 0
M  V30 10638 H 1001.57 -0.334985 0.660959 0
M  V30 10639 H 1004.22 -0.181815 1.90635 0
M  V30 10640 H 1002.53 -2.566 2.9608 0
M  V30 10641 H 1004.22 -2.3237 3.26811 0
M  V30 10642 H 1000.81 -1.17245 4.12252 0
M  V30 10643 H 1005 -0.609334 4.92545 0
M  V30 10644 H 1000.25 0.158421 6.11195 0
M  V30 10645 H 1004.43 0.715429 6.92715 0
M  V30 10646 H 1002.05 1.10531 7.52122 0
M  V30 10647 N 1003.63 -1.50653 -0.462772 0
M  V30 10648 C 1005.05 -1.38263 -0.797213 0
M  V30 10649 C 1005.25 -0.445172 -1.96521 0
M  V30 10650 O 1004.3 0.10913 -2.52264 0
M  V30 10651 C 1005.61 -2.798 -1.10146 0
M  V30 10652 C 1007.16 -2.88774 -1.20742 0
M  V30 10653 C 1007.64 -4.31163 -1.54476 0
M  V30 10654 N 1009.13 -4.34152 -1.61451 0
M  V30 10655 C 1009.86 -5.4133 -1.89074 0
M  V30 10656 N 1009.36 -6.58705 -2.1466 0
M  V30 10657 N 1011.15 -5.28783 -1.90645 0
M  V30 10658 H 1003.3 -2.10172 0.30684 0
M  V30 10659 H 1005.57 -0.945046 0.0747862 0
M  V30 10660 H 1005.27 -3.50276 -0.316207 0
M  V30 10661 H 1005.15 -3.17559 -2.03559 0
M  V30 10662 H 1007.53 -2.18512 -1.98334 0
M  V30 10663 H 1007.61 -2.54547 -0.252904 0
M  V30 10664 H 1007.26 -5.01965 -0.774207 0
M  V30 10665 H 1007.19 -4.62883 -2.51092 0
M  V30 10666 H 1009.68 -3.49519 -1.43684 0
M  V30 10667 H 1009.99 -7.36192 -2.35035 0
M  V30 10668 H 1008.34 -6.61866 -2.12035 0
M  V30 10669 H 1011.53 -4.36078 -1.70158 0
M  V30 10670 H 1011.7 -6.12396 -2.11836 0
M  V30 10671 N 1005.11 0.71652 -1.4037 0
M  V30 10672 C 1006.06 1.85194 -1.40734 0
M  V30 10673 C 1007.05 1.66934 -0.287969 0
M  V30 10674 O 1008.26 1.74051 -0.458957 0
M  V30 10675 H 1004.63 0.609922 -0.439885 0
M  V30 10676 H 1006.6 1.82003 -2.36468 0
M  V30 10677 C 1005.35 3.23048 -1.28589 0
M  V30 10678 H 1004.67 3.37704 -2.13999 0
M  V30 10679 H 1006.11 4.02633 -1.32902 0
M  V30 10680 C 1004.57 3.369 0.00396512 0
M  V30 10681 O 1005.1 3.89881 0.967243 0
M  V30 10682 N 1003.31 2.90508 0.0731565 0
M  V30 10683 H 1002.86 2.4758 -0.711454 0
M  V30 10684 H 1002.81 3.00155 0.935652 0
M  V30 10685 N 1006.59 1.25851 0.948643 0
M  V30 10686 C 1007.83 1.11119 1.69648 0
M  V30 10687 C 1008.17 -0.345995 1.91093 0
M  V30 10688 O 1007.44 -1.25467 1.48621 0
M  V30 10689 C 1007.72 1.87261 3.0758 0
M  V30 10690 C 1007.58 3.40842 2.93507 0
M  V30 10691 C 1008.9 1.6605 4.07573 0
M  V30 10692 H 1006.01 0.405052 0.615713 0
M  V30 10693 H 1008.66 1.54756 1.10229 0
M  V30 10694 H 1006.81 1.50172 3.58303 0
M  V30 10695 H 1008.48 3.87641 2.50064 0
M  V30 10696 H 1006.72 3.68248 2.29294 0
M  V30 10697 H 1007.39 3.89339 3.91305 0
M  V30 10698 H 1009.87 1.98348 3.65783 0
M  V30 10699 H 1008.74 2.21753 5.02113 0
M  V30 10700 H 1009.01 0.603256 4.37965 0
M  V30 10701 N 1008.06 -1.15214 1.07534 0
M  V30 10702 C 1009.31 -1.85388 0.794617 0
M  V30 10703 C 1009.63 -1.83331 -0.681838 0
M  V30 10704 O 1010.83 -2.49207 -1.0774 0
M  V30 10705 C 1009.29 -3.32747 1.37141 0
M  V30 10706 C 1008.9 -3.43244 2.87902 0
M  V30 10707 C 1010.64 -4.08093 1.16879 0
M  V30 10708 C 1008.55 -4.84762 3.38763 0
M  V30 10709 H 1007.48 -0.694499 0.293577 0
M  V30 10710 H 1010.13 -1.29944 1.29564 0
M  V30 10711 H 1008.51 -3.87874 0.798121 0
M  V30 10712 H 1009.68 -2.98214 3.51291 0
M  V30 10713 H 1008 -2.81345 3.06975 0
M  V30 10714 H 1010.6 -5.12535 1.52353 0
M  V30 10715 H 1010.94 -4.1616 0.107958 0
M  V30 10716 H 1011.47 -3.59241 1.70854 0
M  V30 10717 H 1008.21 -4.81879 4.4438 0
M  V30 10718 H 1007.73 -5.30366 2.80128 0
M  V30 10719 H 1009.41 -5.53624 3.34827 0
M  V30 10720 N 1009.54 -0.859717 -1.32086 0
M  V30 10721 C 1010.79 -0.461779 -1.96343 0
M  V30 10722 C 1011.1 0.988837 -1.68764 0
M  V30 10723 O 1012.31 1.49244 -2.268 0
M  V30 10724 C 1010.77 -0.77484 -3.5146 0
M  V30 10725 C 1010.37 -2.24153 -3.87891 0
M  V30 10726 C 1012.12 -0.444873 -4.22162 0
M  V30 10727 C 1010.03 -2.49754 -5.36075 0
M  V30 10728 H 1008.96 -0.168951 -0.734828 0
M  V30 10729 H 1011.61 -1.0512 -1.50406 0
M  V30 10730 H 1009.99 -0.114792 -3.95834 0
M  V30 10731 H 1011.16 -2.94378 -3.54511 0
M  V30 10732 H 1009.48 -2.53651 -3.30227 0
M  V30 10733 H 1012.07 -0.613508 -5.31169 0
M  V30 10734 H 1012.42 0.61391 -4.11749 0
M  V30 10735 H 1012.95 -1.06103 -3.83389 0
M  V30 10736 H 1009.69 -3.54276 -5.51515 0
M  V30 10737 H 1009.21 -1.84112 -5.70844 0
M  V30 10738 H 1010.89 -2.3396 -6.03218 0
M  V30 10739 N 1011.02 1.44971 -0.618145 0
M  V30 10740 C 1012.27 2.0176 -0.11725 0
M  V30 10741 C 1012.59 1.48773 1.26062 0
M  V30 10742 O 1011.86 0.686152 1.83491 0
M  V30 10743 H 1010.44 0.745909 -0.0403545 0
M  V30 10744 H 1013.1 1.77638 -0.801923 0
M  V30 10745 H 1012.2 3.1201 -0.0750477 0
M  V30 10746 N 1012.5 0.357919 1.53482 0
M  V30 10747 C 1013.91 -0.122938 1.86295 0
M  V30 10748 C 1014.26 -1.48803 1.27875 0
M  V30 10749 O 1013.39 -2.07978 0.597828 0
M  V30 10750 C 1013.98 -0.229853 3.38019 0
M  V30 10751 C 1012.54 -0.654955 3.70658 0
M  V30 10752 C 1011.69 0.202539 2.76559 0
M  V30 10753 H 1014.64 0.576997 1.47839 0
M  V30 10754 H 1014.66 -1.05481 3.65587 0
M  V30 10755 H 1014.17 0.763825 3.80509 0
M  V30 10756 H 1012.27 -1.65714 3.33721 0
M  V30 10757 H 1012.38 -0.43488 4.77122 0
M  V30 10758 H 1010.75 -0.327388 2.52587 0
M  V30 10759 H 1011.53 1.19361 3.21882 0
M  V30 10760 N 1013.98 -1.5736 0.0868897 0
M  V30 10761 C 1014.94 -2.12436 -0.860439 0
M  V30 10762 C 1015.94 -1.05175 -1.21634 0
M  V30 10763 O 1017.13 -1.31098 -1.14713 0
M  V30 10764 C 1014.26 -2.63818 -2.159 0
M  V30 10765 H 1015.45 -2.97453 -0.382346 0
M  V30 10766 H 1013.01 -1.55458 -0.162009 0
M  V30 10767 H 1013.74 -1.82298 -2.68212 0
M  V30 10768 H 1013.53 -3.42234 -1.91359 0
M  V30 10769 H 1015.02 -3.06452 -2.83685 0
M  V30 10770 O 1015.49 0.0533542 -1.61412 0
M  V30 10771 H 1016.18 0.676991 -1.81484 0
M  V30 END ATOM
M  V30 BEGIN BOND
M  V30 END BOND
M  V30 END CTAB
M  END
$$$$
