drugbank_target|P21926 CD9 antigen (DB05398)
 OpenBabel12092120313D

  0  0  0     0  0            999 V3000
M  V30 BEGIN CTAB
M  V30 COUNTS 3597 3635 0 0 0
M  V30 BEGIN ATOM
M  V30 1 H -0.908 1.98254 -0.117106 0
M  V30 2 N 0 1.576 0 0
M  V30 3 C 0.933 2.03868 1.02534 0
M  V30 4 C 1.911 0.928543 1.3348 0
M  V30 5 O 3.095 1.19667 1.45644 0
M  V30 6 C 0.222 2.43627 2.35294 0
M  V30 7 C -0.732 3.65373 2.2001 0
M  V30 8 S 0.101 5.13292 1.52614 0
M  V30 9 C 1.257 5.56322 2.86805 0
M  V30 10 H 1.49 2.90518 0.631377 0
M  V30 11 H -0.977 1.52953 0.210867 0
M  V30 12 H 0.981 2.67203 3.11629 0
M  V30 13 H -0.358 1.57376 2.7183 0
M  V30 14 H -1.165 3.90944 3.18086 0
M  V30 15 H -1.563 3.418 1.51819 0
M  V30 16 H 0.729 5.58782 3.83104 0
M  V30 17 H 1.672 6.56266 2.65933 0
M  V30 18 H 2.08 4.83886 2.90714 0
M  V30 19 N 1.4781 -0.272755 1.55222 0
M  V30 20 C 2.8891 -0.84378 1.66545 0
M  V30 21 C 3.2401 -1.87035 0.592641 0
M  V30 22 O 2.3651 -2.14761 -0.265818 0
M  V30 23 C 2.9601 -1.53723 3.01918 0
M  V30 24 C 1.5191 -2.05628 3.15268 0
M  V30 25 C 0.6661 -0.898424 2.62343 0
M  V30 26 H 3.6171 -0.0490998 1.58624 0
M  V30 27 H 3.6381 -2.40421 2.94921 0
M  V30 28 H 3.1501 -0.78983 3.79978 0
M  V30 29 H 1.2511 -2.83329 2.41983 0
M  V30 30 H 1.3641 -2.27142 4.21833 0
M  V30 31 H -0.2719 -1.29186 2.19506 0
M  V30 32 H 0.5111 -0.164528 3.42906 0
M  V30 33 N 2.9562 -1.48159 -0.537278 0
M  V30 34 C 4.2022 -1.56035 -1.29541 0
M  V30 35 C 4.5352 -0.230377 -1.92829 0
M  V30 36 O 3.8102 0.762952 -1.78911 0
M  V30 37 C 4.0932 -2.69323 -2.39034 0
M  V30 38 C 3.9462 -4.12002 -1.80485 0
M  V30 39 C 5.2652 -2.78408 -3.40847 0
M  V30 40 H 2.3842 -0.567992 -0.469632 0
M  V30 41 H 5.0262 -1.80302 -0.599277 0
M  V30 42 H 3.1762 -2.48763 -2.98412 0
M  V30 43 H 4.8482 -4.43981 -1.25215 0
M  V30 44 H 3.0912 -4.19344 -1.11055 0
M  V30 45 H 3.7622 -4.87077 -2.59731 0
M  V30 46 H 6.2382 -2.97012 -2.91416 0
M  V30 47 H 5.1142 -3.59416 -4.14863 0
M  V30 48 H 5.3752 -1.86269 -4.00944 0
M  V30 49 N 4.4343 0.785586 -1.36625 0
M  V30 50 C 5.3813 1.89838 -1.31264 0
M  V30 51 C 6.3513 1.65115 -0.180633 0
M  V30 52 O 7.5363 1.87222 -0.36777 0
M  V30 53 C 4.6763 3.26706 -1.11163 0
M  V30 54 C 3.7893 3.63476 -2.33472 0
M  V30 55 C 2.9243 4.89481 -2.06353 0
M  V30 56 C 1.9633 5.18941 -3.24602 0
M  V30 57 N 1.1003 6.36131 -2.97123 0
M  V30 58 H 5.9403 1.93756 -2.26413 0
M  V30 59 H 3.4773 0.947454 -1.12524 0
M  V30 60 H 5.4353 4.05639 -0.975337 0
M  V30 61 H 4.0653 3.222 -0.196674 0
M  V30 62 H 3.1173 2.79636 -2.57891 0
M  V30 63 H 4.4293 3.81193 -3.21704 0
M  V30 64 H 3.5833 5.76288 -1.89675 0
M  V30 65 H 2.3223 4.73841 -1.15437 0
M  V30 66 H 1.3273 4.30615 -3.41834 0
M  V30 67 H 2.5523 5.36498 -4.16349 0
M  V30 68 H 0.4983 6.21875 -2.08823 0
M  V30 69 H 0.4153 6.54198 -3.78894 0
M  V30 70 H 1.6833 7.2591 -2.84033 0
M  V30 71 N 5.9124 1.20967 1.01018 0
M  V30 72 C 7.1604 1.02172 1.74371 0
M  V30 73 C 7.4814 -0.446414 1.89821 0
M  V30 74 O 6.7514 -1.32234 1.44537 0
M  V30 75 H 5.3314 0.375066 0.646014 0
M  V30 76 H 7.9934 1.52187 1.21758 0
M  V30 77 H 7.0894 1.48538 2.74487 0
M  V30 78 N 7.3905 -1.2043 1.01659 0
M  V30 79 C 8.6385 -1.89423 0.704522 0
M  V30 80 C 8.9595 -1.79231 -0.768197 0
M  V30 81 O 8.2295 -1.1947 -1.55254 0
M  V30 82 H 6.8095 -0.701178 0.257602 0
M  V30 83 H 9.4715 -1.4626 1.28818 0
M  V30 84 H 8.5675 -2.96052 0.987916 0
M  V30 85 N 8.8686 -0.792821 -1.36206 0
M  V30 86 C 10.0966 -0.378825 -2.03402 0
M  V30 87 C 10.5116 1.00586 -1.59774 0
M  V30 88 O 9.8686 1.64574 -0.788764 0
M  V30 89 C 9.9196 -0.43683 -3.58851 0
M  V30 90 O 9.6406 -1.76691 -4.00889 0
M  V30 91 C 11.1416 -0.0138943 -4.43298 0
M  V30 92 H 8.3616 -0.155673 -0.652692 0
M  V30 93 H 10.9056 -1.07261 -1.74113 0
M  V30 94 H 9.0606 0.208575 -3.86838 0
M  V30 95 H 9.4746 -1.72011 -4.95492 0
M  V30 96 H 10.9486 -0.105615 -5.51899 0
M  V30 97 H 11.4256 1.03915 -4.2673 0
M  V30 98 H 12.0316 -0.63192 -4.20579 0
M  V30 99 N 10.3467 1.47872 -0.545128 0
M  V30 100 C 11.2937 2.29849 0.2093 0
M  V30 101 C 12.2637 1.38313 0.919707 0
M  V30 102 O 13.4487 1.67277 0.917772 0
M  V30 103 C 10.5887 3.22019 1.24088 0
M  V30 104 C 9.7017 4.2864 0.537778 0
M  V30 105 C 8.8367 5.07973 1.5536 0
M  V30 106 C 7.8757 6.06381 0.8348 0
M  V30 107 N 7.0127 6.78717 1.79688 0
M  V30 108 H 11.8527 2.93845 -0.49591 0
M  V30 109 H 9.3897 1.44848 -0.256389 0
M  V30 110 H 11.3477 3.73868 1.85144 0
M  V30 111 H 9.9777 2.59914 1.91428 0
M  V30 112 H 9.0297 3.7994 -0.187046 0
M  V30 113 H 10.3417 4.98793 -0.0258907 0
M  V30 114 H 9.4957 5.63912 2.23803 0
M  V30 115 H 8.2347 4.37693 2.15118 0
M  V30 116 H 7.2397 5.49631 0.136388 0
M  V30 117 H 8.4647 6.78665 0.24313 0
M  V30 118 H 6.4107 6.11177 2.38326 0
M  V30 119 H 6.3277 7.44998 1.28505 0
M  V30 120 H 7.5957 7.39237 2.47282 0
M  V30 121 N 11.8248 0.280983 1.55075 0
M  V30 122 C 13.0648 -0.335234 2.01632 0
M  V30 123 C 13.4288 -1.5261 1.16508 0
M  V30 124 O 14.6298 -2.21235 1.52672 0
M  V30 125 C 12.9008 -0.702172 3.50434 0
M  V30 126 S 14.4598 -1.30409 4.18974 0
M  V30 127 H 11.2778 -0.103967 0.703358 0
M  V30 128 H 13.8798 0.404187 1.91276 0
M  V30 129 H 12.5838 0.17333 4.10034 0
M  V30 130 H 12.1148 -1.4729 3.64786 0
M  V30 131 H 14.1298 -2.59253 4.23087 0
M  V30 132 N 13.3029 -1.57598 0.00835791 0
M  V30 133 C 14.5519 -1.90107 -0.673968 0
M  V30 134 C 14.8649 -0.884275 -1.7447 0
M  V30 135 O 16.0709 -1.09987 -2.48224 0
M  V30 136 C 14.5269 -3.37497 -1.24995 0
M  V30 137 C 14.1349 -4.47491 -0.2136 0
M  V30 138 C 15.8789 -3.79104 -1.90999 0
M  V30 139 C 13.7859 -5.85963 -0.80005 0
M  V30 140 H 12.7159 -0.709393 -0.255495 0
M  V30 141 H 15.3669 -1.83365 0.0702693 0
M  V30 142 H 13.7489 -3.39102 -2.04513 0
M  V30 143 H 14.9229 -4.57414 0.557596 0
M  V30 144 H 13.2379 -4.14956 0.346474 0
M  V30 145 H 15.8349 -4.79901 -2.35795 0
M  V30 146 H 16.1779 -3.1306 -2.74407 0
M  V30 147 H 16.7109 -3.79833 -1.18203 0
M  V30 148 H 13.4499 -6.555 -0.00456708 0
M  V30 149 H 12.9699 -5.79687 -1.54021 0
M  V30 150 H 14.6489 -6.33884 -1.29615 0
M  V30 151 N 14.781 0.264519 -1.55364 0
M  V30 152 C 15.728 1.32717 -1.88825 0
M  V30 153 C 16.698 1.48675 -0.740605 0
M  V30 154 O 17.883 1.62945 -0.992657 0
M  V30 155 C 15.023 2.68089 -2.17307 0
M  V30 156 C 14.136 2.60284 -3.44785 0
M  V30 157 C 13.271 3.87892 -3.62924 0
M  V30 158 C 12.31 3.74631 -4.84064 0
M  V30 159 N 11.447 4.94092 -4.98816 0
M  V30 160 H 16.287 1.03481 -2.79456 0
M  V30 161 H 13.824 0.499757 -1.3835 0
M  V30 162 H 15.782 3.46864 -2.31821 0
M  V30 163 H 14.412 2.95509 -1.299 0
M  V30 164 H 13.464 1.73173 -3.38697 0
M  V30 165 H 14.776 2.46388 -4.33698 0
M  V30 166 H 13.93 4.75109 -3.77302 0
M  V30 167 H 12.669 4.04664 -2.7221 0
M  V30 168 H 11.674 2.85797 -4.69681 0
M  V30 169 H 12.899 3.5937 -5.76221 0
M  V30 170 H 10.845 5.11259 -4.11036 0
M  V30 171 H 10.762 4.8276 -5.81789 0
M  V30 172 H 12.03 5.82857 -5.17588 0
M  V30 173 N 16.2591 1.48442 0.529413 0
M  V30 174 C 17.4891 1.59919 1.30804 0
M  V30 175 C 17.8971 0.258792 1.87422 0
M  V30 176 O 17.2401 -0.762096 1.67146 0
M  V30 177 C 17.3021 2.58693 2.49636 0
M  V30 178 C 16.9661 4.03745 2.14101 0
M  V30 179 C 17.9631 4.9141 1.6974 0
M  V30 180 C 15.6481 4.49285 2.24607 0
M  V30 181 C 17.6421 6.22645 1.36351 0
M  V30 182 C 15.3291 5.8054 1.9083 0
M  V30 183 C 16.3271 6.67043 1.46773 0
M  V30 184 O 16.0151 7.95856 1.1344 0
M  V30 185 H 15.7471 0.541981 0.404021 0
M  V30 186 H 18.3011 1.95 0.645309 0
M  V30 187 H 16.5311 2.18734 3.18892 0
M  V30 188 H 18.2201 2.59999 3.11698 0
M  V30 189 H 18.9861 4.57465 1.61094 0
M  V30 190 H 14.8651 3.82142 2.57854 0
M  V30 191 H 18.4091 6.90119 1.01891 0
M  V30 192 H 14.3061 6.14022 1.99117 0
M  V30 193 H 15.0741 8.08613 1.26832 0
M  V30 194 N 17.7372 -0.778329 1.37039 0
M  V30 195 C 18.6672 -1.90546 1.34962 0
M  V30 196 C 19.6482 -1.68681 0.219274 0
M  V30 197 O 20.8332 -1.89634 0.418624 0
M  V30 198 C 17.9632 -3.27734 1.14925 0
M  V30 199 C 16.9172 -3.64147 2.24902 0
M  V30 200 C 16.2432 -4.99806 1.89996 0
M  V30 201 C 17.5432 -3.71579 3.67051 0
M  V30 202 H 19.2372 -1.92541 2.29277 0
M  V30 203 H 16.7832 -0.924948 1.10366 0
M  V30 204 H 18.7362 -4.06215 1.12104 0
M  V30 205 H 17.4602 -3.26154 0.170631 0
M  V30 206 H 16.1192 -2.8797 2.26868 0
M  V30 207 H 15.7672 -4.94759 0.906796 0
M  V30 208 H 15.4672 -5.25139 2.63634 0
M  V30 209 H 16.9912 -5.80694 1.88749 0
M  V30 210 H 18.4052 -4.40227 3.67251 0
M  V30 211 H 16.8022 -4.08405 4.39688 0
M  V30 212 H 17.8722 -2.72404 4.01154 0
M  V30 213 N 19.2153 -1.21501 -1.00376 0
M  V30 214 C 20.1453 -0.999478 -2.11028 0
M  V30 215 C 21.1263 0.0759671 -1.6993 0
M  V30 216 O 22.3113 -0.0841106 -1.94018 0
M  V30 217 C 19.4413 -0.564709 -3.42678 0
M  V30 218 C 18.3953 -1.58486 -3.97576 0
M  V30 219 C 17.7213 -1.00628 -5.25146 0
M  V30 220 C 19.0213 -2.97204 -4.29496 0
M  V30 221 H 20.7153 -1.92495 -2.29317 0
M  V30 222 H 18.2613 -0.92693 -1.102 0
M  V30 223 H 20.2143 -0.401091 -4.19487 0
M  V30 224 H 18.9383 0.396411 -3.24185 0
M  V30 225 H 17.5973 -1.73606 -3.22888 0
M  V30 226 H 17.2453 -0.0368439 -5.02987 0
M  V30 227 H 16.9453 -1.68771 -5.62841 0
M  V30 228 H 18.4693 -0.854015 -6.04598 0
M  V30 229 H 19.8833 -2.8552 -4.97143 0
M  V30 230 H 18.2803 -3.62372 -4.78338 0
M  V30 231 H 19.3503 -3.47956 -3.3772 0
M  V30 232 N 20.6934 1.19889 -1.02296 0
M  V30 233 C 21.9404 1.8942 -0.715972 0
M  V30 234 C 22.2684 1.79251 0.754944 0
M  V30 235 O 21.5234 1.17526 1.56481 0
M  V30 236 C 21.8224 3.39883 -1.10518 0
M  V30 237 C 21.4884 3.70254 -2.57337 0
M  V30 238 C 20.1504 3.78254 -2.97452 0
M  V30 239 C 22.5024 3.84052 -3.52354 0
M  V30 240 C 19.8304 3.97514 -4.31509 0
M  V30 241 C 22.1824 4.04824 -4.86108 0
M  V30 242 C 20.8464 4.11054 -5.25919 0
M  V30 243 H 20.1164 0.693138 -0.261993 0
M  V30 244 H 22.7634 1.42012 -1.28472 0
M  V30 245 H 21.0684 3.8915 -0.454953 0
M  V30 246 H 22.7654 3.9199 -0.845261 0
M  V30 247 H 19.3554 3.64632 -2.25258 0
M  V30 248 H 23.5394 3.77221 -3.22518 0
M  V30 249 H 18.7954 4.00574 -4.61898 0
M  V30 250 H 22.9694 4.14442 -5.59653 0
M  V30 251 H 20.5964 4.2573 -6.29808 0
M  V30 252 N 22.1715 0.800033 1.35784 0
M  V30 253 C 23.4195 0.376597 1.9856 0
M  V30 254 C 23.7405 -1.05812 1.63795 0
M  V30 255 O 23.0105 -1.73103 0.917171 0
M  V30 256 H 21.5905 0.136261 0.734467 0
M  V30 257 H 24.2525 1.02442 1.65806 0
M  V30 258 H 23.3485 0.477002 3.08433 0
M  V30 259 N 23.6496 -1.47581 0.552962 0
M  V30 260 C 24.8966 -2.02482 0.0273243 0
M  V30 261 C 25.2246 -1.42776 -1.32081 0
M  V30 262 O 24.4796 -0.571393 -1.87173 0
M  V30 263 C 24.7786 -3.57199 -0.119728 0
M  V30 264 C 24.4446 -4.35804 1.15697 0
M  V30 265 C 23.1066 -4.57 1.50681 0
M  V30 266 C 25.4586 -4.81167 2.00319 0
M  V30 267 C 22.7866 -5.20807 2.70142 0
M  V30 268 C 25.1386 -5.46293 3.18978 0
M  V30 269 C 23.8026 -5.65722 3.54281 0
M  V30 270 H 23.0726 -0.740933 0.00999866 0
M  V30 271 H 25.7196 -1.77302 0.72362 0
M  V30 272 H 24.0246 -3.81348 -0.89896 0
M  V30 273 H 25.7216 -3.97324 -0.541718 0
M  V30 274 H 22.3116 -4.19582 0.874561 0
M  V30 275 H 26.4956 -4.64574 1.74599 0
M  V30 276 H 21.7516 -5.34045 2.97668 0
M  V30 277 H 25.9256 -5.80407 3.84838 0
M  V30 278 H 23.5526 -6.14936 4.46942 0
M  V30 279 N 25.1277 -0.289203 -1.54924 0
M  V30 280 C 26.0757 0.607966 -2.24514 0
M  V30 281 C 27.0697 1.14655 -1.24702 0
M  V30 282 O 28.2757 1.09856 -1.4259 0
M  V30 283 H 24.6507 0.21464 -0.720718 0
M  V30 284 H 26.6217 -0.00164182 -2.984 0
M  V30 285 C 25.3707 1.77406 -2.99036 0
M  V30 286 H 24.6937 1.36884 -3.75637 0
M  V30 287 H 26.1337 2.37814 -3.51028 0
M  V30 288 C 24.5927 2.67107 -2.05318 0
M  V30 289 O 25.1227 3.6787 -1.61353 0
M  V30 290 N 23.3287 2.34582 -1.71521 0
M  V30 291 H 22.8757 1.52688 -2.07471 0
M  V30 292 H 22.8337 2.94867 -1.0909 0
M  V30 293 N 26.6058 1.57591 -0.0167156 0
M  V30 294 C 27.8528 1.91283 0.664597 0
M  V30 295 C 28.1808 0.891949 1.72842 0
M  V30 296 O 27.4358 -0.100931 1.9544 0
M  V30 297 C 27.7348 3.3172 1.33029 0
M  V30 298 C 27.4008 4.4914 0.398047 0
M  V30 299 C 26.0628 4.80992 0.141421 0
M  V30 300 C 28.4148 5.20634 -0.242825 0
M  V30 301 C 25.7428 5.81703 -0.764092 0
M  V30 302 C 28.0948 6.22311 -1.13632 0
M  V30 303 C 26.7588 6.52611 -1.40196 0
M  V30 304 H 26.0288 0.699956 0.243193 0
M  V30 305 H 28.6758 1.9135 -0.0758267 0
M  V30 306 H 26.9808 3.27856 2.14517 0
M  V30 307 H 28.6778 3.55055 1.86379 0
M  V30 308 H 25.2678 4.24262 0.608238 0
M  V30 309 H 29.4518 4.96267 -0.0576019 0
M  V30 310 H 24.7078 6.03532 -0.977732 0
M  V30 311 H 28.8818 6.76834 -1.63917 0
M  V30 312 H 26.5088 7.30467 -2.10529 0
M  V30 313 N 28.0839 -0.256276 1.55502 0
M  V30 314 C 29.3329 -0.983486 1.76098 0
M  V30 315 C 29.6459 -1.86837 0.578896 0
M  V30 316 O 30.8519 -2.63163 0.667648 0
M  V30 317 C 29.3079 -1.79868 3.1173 0
M  V30 318 C 28.9159 -0.961648 4.37557 0
M  V30 319 C 30.6599 -2.51919 3.41668 0
M  V30 320 C 28.5669 -1.77219 5.64223 0
M  V30 321 H 27.4969 -0.370936 0.656447 0
M  V30 322 H 30.1479 -0.238492 1.81944 0
M  V30 323 H 28.5299 -2.58527 2.99966 0
M  V30 324 H 29.7039 -0.218048 4.60284 0
M  V30 325 H 28.0189 -0.354913 4.14885 0
M  V30 326 H 30.6159 -3.12998 4.33516 0
M  V30 327 H 30.9589 -3.23059 2.62562 0
M  V30 328 H 31.4919 -1.80278 3.54605 0
M  V30 329 H 28.2309 -1.10471 6.46124 0
M  V30 330 H 27.7509 -2.49132 5.45613 0
M  V30 331 H 29.4299 -2.34169 6.03137 0
M  V30 332 N 29.562 -1.4872 -0.521534 0
M  V30 333 C 30.809 -1.57168 -1.27689 0
M  V30 334 C 31.137 -0.249275 -1.92896 0
M  V30 335 O 30.392 0.761162 -1.80291 0
M  V30 336 C 30.691 -2.66497 -2.38148 0
M  V30 337 C 30.357 -4.08664 -1.90538 0
M  V30 338 C 29.019 -4.47357 -1.77271 0
M  V30 339 C 31.371 -4.97724 -1.54663 0
M  V30 340 C 28.699 -5.72905 -1.26478 0
M  V30 341 C 31.051 -6.2377 -1.05329 0
M  V30 342 C 29.715 -6.61311 -0.906861 0
M  V30 343 H 28.985 -0.575117 -0.467249 0
M  V30 344 H 31.632 -1.82472 -0.581051 0
M  V30 345 H 29.937 -2.35085 -3.13437 0
M  V30 346 H 31.634 -2.70246 -2.96257 0
M  V30 347 H 28.224 -3.78111 -2.01816 0
M  V30 348 H 32.408 -4.68501 -1.63768 0
M  V30 349 H 27.664 -6.00709 -1.13835 0
M  V30 350 H 31.838 -6.9217 -0.76644 0
M  V30 351 H 29.465 -7.5848 -0.511083 0
M  V30 352 N 31.0401 0.771051 -1.3745 0
M  V30 353 C 32.2861 1.53109 -1.339 0
M  V30 354 C 32.6411 1.9225 0.0758401 0
M  V30 355 O 31.9341 1.61264 1.03463 0
M  V30 356 C 32.1281 2.80676 -2.2126 0
M  V30 357 C 31.9571 2.54003 -3.71096 0
M  V30 358 C 30.7271 2.48097 -4.402 0
M  V30 359 C 32.9251 2.21953 -4.63941 0
M  V30 360 N 30.9071 2.13515 -5.75573 0
M  V30 361 C 32.2781 1.97516 -5.87697 0
M  V30 362 C 34.3331 2.08114 -4.5232 0
M  V30 363 C 33.0361 1.60638 -7.01133 0
M  V30 364 C 35.0621 1.72636 -5.65642 0
M  V30 365 C 34.4241 1.4906 -6.88448 0
M  V30 366 H 30.5231 0.56055 -0.54526 0
M  V30 367 H 33.1071 0.899472 -1.72678 0
M  V30 368 H 31.2781 3.41674 -1.84698 0
M  V30 369 H 33.0101 3.46578 -2.08963 0
M  V30 370 H 29.7651 2.63974 -3.93211 0
M  V30 371 H 30.1891 1.98919 -6.47117 0
M  V30 372 H 34.8311 2.25024 -3.57944 0
M  V30 373 H 32.5491 1.42467 -7.95443 0
M  V30 374 H 36.1351 1.62586 -5.58621 0
M  V30 375 H 35.0151 1.22014 -7.7465 0
M  V30 376 N 32.5182 1.22032 0.997298 0
M  V30 377 C 33.4482 1.01065 2.10495 0
M  V30 378 C 34.4292 -0.0669542 1.69968 0
M  V30 379 O 35.6142 0.0943987 1.9397 0
M  V30 380 C 32.7442 0.582874 3.42374 0
M  V30 381 C 31.6982 1.60592 3.96729 0
M  V30 382 C 31.0242 1.03412 5.24605 0
M  V30 383 C 32.3242 2.99478 4.27914 0
M  V30 384 H 34.0182 1.93708 2.28292 0
M  V30 385 H 31.5642 0.932761 1.09707 0
M  V30 386 H 33.5172 0.423332 4.19268 0
M  V30 387 H 32.2412 -0.379213 3.24391 0
M  V30 388 H 30.9002 1.75316 3.21963 0
M  V30 389 H 30.5482 0.063518 5.0296 0
M  V30 390 H 30.2482 1.71754 5.61938 0
M  V30 391 H 31.7722 0.886066 6.04137 0
M  V30 392 H 33.1862 2.88153 4.95622 0
M  V30 393 H 31.5832 3.64903 4.76409 0
M  V30 394 H 32.6532 3.49742 3.3587 0
M  V30 395 N 33.9963 -1.19345 1.0293 0
M  V30 396 C 34.9593 -2.20793 0.615069 0
M  V30 397 C 35.9593 -1.57553 -0.321533 0
M  V30 398 O 37.1493 -1.73862 -0.108483 0
M  V30 399 C 34.2813 -3.40754 -0.0999222 0
M  V30 400 H 35.4743 -2.58955 1.51269 0
M  V30 401 H 33.0273 -1.3303 0.820534 0
M  V30 402 H 33.7623 -3.0811 -1.01187 0
M  V30 403 H 33.5473 -3.87889 0.57309 0
M  V30 404 H 35.0373 -4.15898 -0.376645 0
M  V30 405 N 35.4744 -0.807222 -1.35358 0
M  V30 406 C 36.7224 -0.387122 -1.98358 0
M  V30 407 C 37.0434 1.04942 -1.64354 0
M  V30 408 O 36.3134 1.72615 -0.926339 0
M  V30 409 H 34.8934 -0.140154 -0.733734 0
M  V30 410 H 37.5554 -1.0332 -1.6526 0
M  V30 411 H 36.6514 -0.493352 -3.08176 0
M  V30 412 N 36.9525 1.47285 -0.560781 0
M  V30 413 C 38.2015 2.01668 -0.035895 0
M  V30 414 C 38.5145 1.44021 1.32353 0
M  V30 415 O 39.7205 1.90088 1.93853 0
M  V30 416 C 38.1765 3.59897 -0.0136659 0
M  V30 417 C 37.7845 4.26536 -1.37006 0
M  V30 418 C 39.5285 4.22017 0.458425 0
M  V30 419 C 37.4355 5.76782 -1.30675 0
M  V30 420 H 36.3655 0.753938 -0.00964879 0
M  V30 421 H 39.0165 1.69243 -0.709166 0
M  V30 422 H 37.3985 3.89301 0.725325 0
M  V30 423 H 38.5725 4.0877 -2.12705 0
M  V30 424 H 36.8875 3.76419 -1.78038 0
M  V30 425 H 39.4845 5.32124 0.524247 0
M  V30 426 H 39.8275 3.89437 1.4712 0
M  V30 427 H 40.3605 3.97159 -0.225818 0
M  V30 428 H 37.0995 6.13988 -2.29564 0
M  V30 429 H 36.6195 5.96875 -0.591622 0
M  V30 430 H 38.2985 6.39063 -1.01033 0
M  V30 431 N 38.4306 0.297415 1.54768 0
M  V30 432 C 39.3936 -0.567375 2.22066 0
M  V30 433 C 40.3936 -1.06409 1.20556 0
M  V30 434 O 41.5836 -0.960691 1.45315 0
M  V30 435 C 38.7156 -1.78517 2.90421 0
M  V30 436 H 39.9086 0.0205534 2.99893 0
M  V30 437 H 37.4616 0.0482163 1.56226 0
M  V30 438 H 38.1966 -2.41303 2.16664 0
M  V30 439 H 37.9816 -1.43669 3.64831 0
M  V30 440 H 39.4716 -2.39964 3.41771 0
M  V30 441 N 39.9087 -1.5758 0.0250728 0
M  V30 442 C 41.1547 -1.91917 -0.655413 0
M  V30 443 C 41.4877 -0.901433 -1.72011 0
M  V30 444 O 40.7627 0.0764069 -1.9435 0
M  V30 445 C 41.0457 -3.36751 -1.27558 0
M  V30 446 C 40.8987 -4.49258 -0.220719 0
M  V30 447 C 42.2177 -3.81469 -2.19475 0
M  V30 448 H 39.3367 -0.697925 -0.23679 0
M  V30 449 H 41.9787 -1.89825 0.0815036 0
M  V30 450 H 40.1287 -3.38664 -1.90365 0
M  V30 451 H 41.8007 -4.59478 0.409601 0
M  V30 452 H 40.0437 -4.31415 0.454264 0
M  V30 453 H 40.7147 -5.47618 -0.694175 0
M  V30 454 H 43.1907 -3.81266 -1.66659 0
M  V30 455 H 42.0667 -4.83512 -2.59822 0
M  V30 456 H 42.3277 -3.16744 -3.08424 0
M  V30 457 N 41.3868 0.248026 -1.55636 0
M  V30 458 C 42.3168 1.31079 -1.93237 0
M  V30 459 C 43.2978 1.50264 -0.797174 0
M  V30 460 O 44.4828 1.62891 -1.05737 0
M  V30 461 C 41.6128 2.66575 -2.22609 0
M  V30 462 C 40.5668 2.62087 -3.3837 0
M  V30 463 C 39.8928 4.01369 -3.53281 0
M  V30 464 C 41.1928 2.19171 -4.7409 0
M  V30 465 H 42.8868 0.998556 -2.82257 0
M  V30 466 H 40.4328 0.47891 -1.35803 0
M  V30 467 H 42.3858 3.41057 -2.47503 0
M  V30 468 H 41.1098 2.99432 -1.30414 0
M  V30 469 H 39.7688 1.90063 -3.13483 0
M  V30 470 H 39.4168 4.31489 -2.58508 0
M  V30 471 H 39.1168 3.99254 -4.31127 0
M  V30 472 H 40.6408 4.77552 -3.80495 0
M  V30 473 H 42.0548 2.83384 -4.98363 0
M  V30 474 H 40.4518 2.2817 -5.5503 0
M  V30 475 H 41.5218 1.14336 -4.71227 0
M  V30 476 N 42.8649 1.48995 0.513639 0
M  V30 477 C 43.8279 1.64229 1.59879 0
M  V30 478 C 44.8279 0.514696 1.5234 0
M  V30 479 O 46.0179 0.78087 1.55718 0
M  V30 480 C 43.1499 1.62783 2.99524 0
M  V30 481 H 44.3429 2.61004 1.47705 0
M  V30 482 H 41.8959 1.37837 0.736936 0
M  V30 483 H 42.6309 0.675461 3.17188 0
M  V30 484 H 42.4159 2.4466 3.06404 0
M  V30 485 H 43.9059 1.76669 3.78388 0
M  V30 486 N 44.343 -0.763751 1.37857 0
M  V30 487 C 45.592 -1.51789 1.32827 0
M  V30 488 C 45.905 -1.95426 -0.0823719 0
M  V30 489 O 47.111 -2.70298 -0.255172 0
M  V30 490 C 45.567 -2.74133 2.33193 0
M  V30 491 C 45.175 -2.37562 3.79827 0
M  V30 492 C 46.919 -3.52054 2.37188 0
M  V30 493 C 44.826 -3.56456 4.71904 0
M  V30 494 H 43.756 -0.569896 0.493695 0
M  V30 495 H 46.407 -0.835822 1.63359 0
M  V30 496 H 44.789 -3.4427 1.9569 0
M  V30 497 H 45.963 -1.75157 4.26212 0
M  V30 498 H 44.278 -1.72798 3.78853 0
M  V30 499 H 46.875 -4.40437 3.03182 0
M  V30 500 H 47.218 -3.92486 1.38782 0
M  V30 501 H 47.751 -2.88921 2.7344 0
M  V30 502 H 44.49 -3.21099 5.71468 0
M  V30 503 H 44.01 -4.17938 4.30218 0
M  V30 504 H 45.689 -4.23168 4.89426 0
M  V30 505 N 45.8211 -1.22559 -0.990812 0
M  V30 506 C 47.0691 -1.04933 -1.72724 0
M  V30 507 C 47.3901 0.416158 -1.90508 0
M  V30 508 O 46.6601 1.29918 -1.46622 0
M  V30 509 H 45.2401 -0.385296 -0.639965 0
M  V30 510 H 47.9021 -1.54105 -1.19322 0
M  V30 511 H 46.9981 -1.52886 -2.72089 0
M  V30 512 N 47.2992 1.18797 -1.03562 0
M  V30 513 C 48.2292 2.24472 -0.643019 0
M  V30 514 C 49.2102 1.66433 0.351283 0
M  V30 515 O 50.3952 1.92803 0.232505 0
M  V30 516 C 47.5252 3.473 4.24935e-05 0
M  V30 517 C 46.4792 4.18055 -0.917257 0
M  V30 518 C 45.8052 5.34519 -0.138941 0
M  V30 519 C 47.1052 4.72109 -2.23407 0
M  V30 520 H 48.7992 2.57566 -1.52643 0
M  V30 521 H 46.3452 1.23806 -0.735394 0
M  V30 522 H 48.2982 4.20426 0.286383 0
M  V30 523 H 47.0222 3.13424 0.918299 0
M  V30 524 H 45.6812 3.46821 -1.1879 0
M  V30 525 H 45.3292 4.96891 0.781562 0
M  V30 526 H 45.0292 5.82794 -0.750005 0
M  V30 527 H 46.5532 6.10438 0.1405 0
M  V30 528 H 47.9672 5.36955 -2.00879 0
M  V30 529 H 46.3642 5.30897 -2.79765 0
M  V30 530 H 47.4342 3.89807 -2.88407 0
M  V30 531 N 48.7773 0.814389 1.34928 0
M  V30 532 C 50.0233 0.408167 1.99263 0
M  V30 533 C 50.3783 -1.0154 1.63424 0
M  V30 534 O 49.6713 -1.69607 0.891289 0
M  V30 535 C 49.8653 0.537781 3.53331 0
M  V30 536 C 49.6943 1.9724 4.04137 0
M  V30 537 C 48.4643 2.60245 4.33129 0
M  V30 538 C 50.6623 2.93801 4.2212 0
M  V30 539 N 48.6443 3.95036 4.69914 0
M  V30 540 C 50.0153 4.1348 4.6199 0
M  V30 541 C 52.0703 2.9053 4.04348 0
M  V30 542 C 50.7733 5.3033 4.85945 0
M  V30 543 C 52.7993 4.06589 4.29464 0
M  V30 544 C 52.1613 5.25017 4.69613 0
M  V30 545 H 48.2603 0.197289 0.756704 0
M  V30 546 H 50.8443 1.05728 1.63492 0
M  V30 547 H 49.0153 -0.0813868 3.88315 0
M  V30 548 H 50.7473 0.105389 4.04563 0
M  V30 549 H 47.5023 2.11545 4.23728 0
M  V30 550 H 47.9263 4.64455 4.92555 0
M  V30 551 H 52.5683 2.00115 3.72443 0
M  V30 552 H 50.2863 6.21309 5.16721 0
M  V30 553 H 53.8723 4.05447 4.17257 0
M  V30 554 H 52.7523 6.1333 4.88667 0
M  V30 555 N 50.2554 -1.46986 0.568584 0
M  V30 556 C 51.1854 -2.32946 -0.160753 0
M  V30 557 C 52.1664 -1.44487 -0.897631 0
M  V30 558 O 53.3514 -1.73327 -0.875867 0
M  V30 559 C 50.4814 -3.26494 -1.18403 0
M  V30 560 C 49.4354 -4.24282 -0.562895 0
M  V30 561 C 48.7614 -5.07236 -1.69163 0
M  V30 562 C 50.0614 -5.19989 0.490761 0
M  V30 563 H 51.7554 -2.94175 0.556916 0
M  V30 564 H 49.3014 -1.4146 0.26927 0
M  V30 565 H 51.2544 -3.85477 -1.70251 0
M  V30 566 H 49.9784 -2.63343 -1.93179 0
M  V30 567 H 48.6374 -3.66541 -0.0656164 0
M  V30 568 H 48.2854 -4.4048 -2.42871 0
M  V30 569 H 47.9854 -5.7345 -1.28174 0
M  V30 570 H 49.5094 -5.6908 -2.21314 0
M  V30 571 H 50.9234 -5.73271 0.0579047 0
M  V30 572 H 49.3204 -5.94469 0.820165 0
M  V30 573 H 50.3904 -4.64777 1.3824 0
M  V30 574 N 51.7335 -0.305618 -1.54608 0
M  V30 575 C 53.1495 0.0476228 -1.59529 0
M  V30 576 C 53.3495 1.52025 -1.32252 0
M  V30 577 O 52.4055 2.27368 -1.09818 0
M  V30 578 C 53.7185 -0.354471 -2.98603 0
M  V30 579 C 55.2665 -0.303622 -3.11524 0
M  V30 580 C 55.7415 -0.680608 -4.52915 0
M  V30 581 N 57.2325 -0.63332 -4.5885 0
M  V30 582 C 57.9675 -0.897432 -5.66334 0
M  V30 583 N 57.4635 -1.22775 -6.81834 0
M  V30 584 N 59.2565 -0.824186 -5.56025 0
M  V30 585 H 51.4075 -1.2653 -1.70599 0
M  V30 586 H 53.6705 -0.513291 -0.797017 0
M  V30 587 H 53.3765 -1.3798 -3.23503 0
M  V30 588 H 53.2505 0.289568 -3.76087 0
M  V30 589 H 55.6375 0.712472 -2.8637 0
M  V30 590 H 55.7185 -0.982348 -2.36185 0
M  V30 591 H 55.3625 -1.69453 -4.78799 0
M  V30 592 H 55.2925 0.0202385 -5.26596 0
M  V30 593 H 57.7835 -0.389138 -3.75891 0
M  V30 594 H 58.0965 -1.41513 -7.59733 0
M  V30 595 H 56.4415 -1.26583 -6.83375 0
M  V30 596 H 59.6325 -0.565748 -4.64669 0
M  V30 597 H 59.8055 -1.03338 -6.39707 0
M  V30 598 N 53.2116 1.57565 -0.0334293 0
M  V30 599 C 54.4586 1.91978 0.644272 0
M  V30 600 C 54.7866 0.910231 1.71887 0
M  V30 601 O 54.0416 -0.0801961 1.95536 0
M  V30 602 C 54.3406 3.33112 1.29504 0
M  V30 603 C 54.0066 4.49537 0.350388 0
M  V30 604 C 52.6686 4.81115 0.0903974 0
M  V30 605 C 55.0206 5.20347 -0.298032 0
M  V30 606 C 52.3486 5.8086 -0.825746 0
M  V30 607 C 54.7006 6.2107 -1.20226 0
M  V30 608 C 53.3646 6.51088 -1.4711 0
M  V30 609 H 52.6346 0.702496 0.235756 0
M  V30 610 H 55.2816 1.91259 -0.0961176 0
M  V30 611 H 53.5866 3.30113 2.11028 0
M  V30 612 H 55.2836 3.57011 1.82603 0
M  V30 613 H 51.8736 4.24883 0.563205 0
M  V30 614 H 56.0576 4.96178 -0.110234 0
M  V30 615 H 51.3136 6.02461 -1.04169 0
M  V30 616 H 55.4876 6.75057 -1.71086 0
M  V30 617 H 53.1146 7.28193 -2.18264 0
M  V30 618 N 54.6897 -0.239769 1.55765 0
M  V30 619 C 55.9667 -0.990056 1.68693 0
M  V30 620 C 56.3467 -2.03107 0.5754 0
M  V30 621 O 55.6947 -2.24604 -0.42017 0
M  V30 622 C 55.9047 -1.61696 3.09282 0
M  V30 623 C 57.2527 -2.11613 3.6811 0
M  V30 624 O 58.2767 -1.71624 3.12127 0
M  V30 625 O 57.1357 -2.85057 4.66267 0
M  V30 626 H 54.2297 -0.461299 0.686391 0
M  V30 627 H 56.7757 -0.232991 1.68093 0
M  V30 628 H 55.5477 -0.864357 3.81634 0
M  V30 629 H 55.1707 -2.44005 3.13923 0
M  V30 630 N 56.1678 -1.49265 -0.50573 0
M  V30 631 C 57.3928 -1.62478 -1.28902 0
M  V30 632 C 57.8178 -0.294332 -1.85783 0
M  V30 633 O 57.1758 0.737412 -1.65626 0
M  V30 634 C 57.2238 -2.69268 -2.39848 0
M  V30 635 O 56.3278 -2.28113 -3.43567 0
M  V30 636 H 55.6688 -0.54399 -0.380751 0
M  V30 637 H 58.1988 -1.95421 -0.605952 0
M  V30 638 H 58.2088 -2.91291 -2.85681 0
M  V30 639 H 56.8838 -3.65846 -1.97812 0
M  V30 640 H 55.4608 -2.16401 -3.03685 0
M  V30 641 N 57.6459 0.756429 -1.3826 0
M  V30 642 C 58.5779 1.87971 -1.31147 0
M  V30 643 C 59.5909 1.61248 -0.224239 0
M  V30 644 O 60.7799 1.71881 -0.481581 0
M  V30 645 C 57.8799 3.23545 -1.00857 0
M  V30 646 C 57.0529 3.77794 -2.20432 0
M  V30 647 C 56.1119 4.91877 -1.86931 0
M  V30 648 O 55.1379 5.06659 -2.59395 0
M  V30 649 N 56.3399 5.74643 -0.822568 0
M  V30 650 H 59.1049 1.94585 -2.2794 0
M  V30 651 H 56.6659 0.936234 -1.32084 0
M  V30 652 H 58.6579 3.97403 -0.765021 0
M  V30 653 H 57.2279 3.12335 -0.128687 0
M  V30 654 H 56.4479 2.95534 -2.6087 0
M  V30 655 H 57.7359 4.10771 -3.00241 0
M  V30 656 H 57.1339 5.65266 -0.221575 0
M  V30 657 H 55.6909 6.48661 -0.638899 0
M  V30 658 N 59.124 1.23083 0.984299 0
M  V30 659 C 60.352 1.08714 1.76037 0
M  V30 660 C 60.767 -0.361691 1.85303 0
M  V30 661 O 60.124 -1.25034 1.32939 0
M  V30 662 C 60.175 1.70206 3.18923 0
M  V30 663 O 59.896 3.09423 3.10144 0
M  V30 664 C 61.397 1.61227 4.12941 0
M  V30 665 H 58.617 0.380664 0.552572 0
M  V30 666 H 61.161 1.62853 1.23689 0
M  V30 667 H 59.316 1.20109 3.6831 0
M  V30 668 H 59.73 3.39188 4.00065 0
M  V30 669 H 61.204 2.08962 5.10919 0
M  V30 670 H 61.681 0.570375 4.35481 0
M  V30 671 H 62.287 2.10671 3.69456 0
M  V30 672 N 60.6021 -1.18246 1.0419 0
M  V30 673 C 61.5491 -2.2192 0.634037 0
M  V30 674 C 62.5191 -1.62179 -0.358765 0
M  V30 675 O 63.7041 -1.89122 -0.252466 0
M  V30 676 C 60.8441 -3.451 0.00445535 0
M  V30 677 C 59.9571 -4.19174 1.04487 0
M  V30 678 C 59.0921 -5.29813 0.383676 0
M  V30 679 C 58.1311 -5.9566 1.4091 0
M  V30 680 N 57.2681 -6.97834 0.772784 0
M  V30 681 H 62.1081 -2.56164 1.52263 0
M  V30 682 H 59.6451 -1.25843 0.761701 0
M  V30 683 H 61.6031 -4.15485 -0.377919 0
M  V30 684 H 60.2331 -3.11472 -0.847652 0
M  V30 685 H 59.2851 -3.47604 1.54518 0
M  V30 686 H 60.5971 -4.64267 1.82368 0
M  V30 687 H 59.7511 -6.06677 -0.0528366 0
M  V30 688 H 58.4901 -4.85825 -0.427208 0
M  V30 689 H 57.4951 -5.17535 1.85574 0
M  V30 690 H 58.7201 -6.4173 2.22171 0
M  V30 691 H 56.6661 -6.55998 -0.0177708 0
M  V30 692 H 56.5831 -7.41186 1.48928 0
M  V30 693 H 57.8511 -7.78665 0.36071 0
M  V30 694 N 62.0802 -0.821533 -1.34494 0
M  V30 695 C 63.3052 -0.420873 -2.03085 0
M  V30 696 C 63.7302 0.964915 -1.61465 0
M  V30 697 O 63.0882 1.62763 -0.798607 0
M  V30 698 C 63.1362 -0.529414 -3.56693 0
M  V30 699 O 62.2402 0.451302 -4.09923 0
M  V30 700 H 61.5812 -0.173489 -0.640935 0
M  V30 701 H 64.1112 -1.11157 -1.71771 0
M  V30 702 H 64.1212 -0.404671 -4.05988 0
M  V30 703 H 62.7962 -1.54014 -3.86332 0
M  V30 704 H 61.3732 0.285558 -3.71805 0
M  V30 705 N 63.5583 1.46682 -0.576371 0
M  V30 706 C 64.8073 2.01619 -0.0572825 0
M  V30 707 C 65.1203 1.45417 1.30818 0
M  V30 708 O 66.3263 1.92133 1.91825 0
M  V30 709 C 64.7823 3.59863 -0.0518371 0
M  V30 710 C 64.3903 4.25059 -1.41523 0
M  V30 711 C 66.1343 4.2248 0.413639 0
M  V30 712 C 64.0413 5.75364 -1.36785 0
M  V30 713 H 62.9713 0.753794 -0.0176448 0
M  V30 714 H 65.6223 1.68481 -0.727076 0
M  V30 715 H 64.0043 3.90048 0.683994 0
M  V30 716 H 65.1783 4.06491 -2.17029 0
M  V30 717 H 63.4933 3.7451 -1.8202 0
M  V30 718 H 66.0903 5.3265 0.467779 0
M  V30 719 H 66.4333 3.90976 1.42982 0
M  V30 720 H 66.9663 3.96897 -0.267929 0
M  V30 721 H 63.7053 6.11518 -2.36063 0
M  V30 722 H 63.2253 5.96214 -0.654895 0
M  V30 723 H 64.9043 6.37955 -1.07805 0
M  V30 724 N 65.0364 0.313813 1.54444 0
M  V30 725 C 66.2834 -0.291675 2.00388 0
M  V30 726 C 66.6114 -1.52904 1.2021 0
M  V30 727 O 65.8664 -1.93833 0.269707 0
M  V30 728 C 66.1654 -0.680386 3.50864 0
M  V30 729 C 65.8314 0.456699 4.48581 0
M  V30 730 C 64.4934 0.768824 4.75018 0
M  V30 731 C 66.8454 1.22098 5.06697 0
M  V30 732 C 64.1734 1.84812 5.56831 0
M  V30 733 C 66.5254 2.29029 5.89685 0
M  V30 734 C 65.1894 2.60834 6.14428 0
M  V30 735 H 64.4594 -0.106732 0.733273 0
M  V30 736 H 67.1064 0.43557 1.86481 0
M  V30 737 H 65.4114 -1.48791 3.62448 0
M  V30 738 H 67.1084 -1.16026 3.83847 0
M  V30 739 H 63.6984 0.203337 4.28117 0
M  V30 740 H 67.8824 0.993096 4.86263 0
M  V30 741 H 63.1384 2.09912 5.74236 0
M  V30 742 H 67.3124 2.887 6.33739 0
M  V30 743 H 64.9394 3.44596 6.77612 0
M  V30 744 N 66.5145 -1.57545 0.0417849 0
M  V30 745 C 67.4245 -2.14451 -0.951213 0
M  V30 746 C 68.4405 -1.09992 -1.34825 0
M  V30 747 O 69.6165 -1.42114 -1.42708 0
M  V30 748 C 66.6815 -2.67063 -2.21084 0
M  V30 749 C 65.7425 -3.86284 -1.87304 0
M  V30 750 C 64.9755 -4.36378 -3.07261 0
M  V30 751 O 65.1985 -3.85587 -4.20332 0
M  V30 752 O 64.1325 -5.28077 -2.88822 0
M  V30 753 H 67.9585 -2.99601 -0.497287 0
M  V30 754 H 65.5435 -1.48317 -0.179567 0
M  V30 755 H 67.4255 -3.00914 -2.95006 0
M  V30 756 H 66.1005 -1.84989 -2.65633 0
M  V30 757 H 65.0075 -3.57338 -1.10727 0
M  V30 758 H 66.3405 -4.6956 -1.47562 0
M  V30 759 N 67.9926 0.231505 -1.5589 0
M  V30 760 C 68.9246 1.31006 -1.8807 0
M  V30 761 C 69.9376 1.43539 -0.768145 0
M  V30 762 O 71.1266 1.44614 -1.04638 0
M  V30 763 C 68.2266 2.68688 -2.06543 0
M  V30 764 C 67.3996 2.78228 -3.37502 0
M  V30 765 C 66.4586 3.96857 -3.4553 0
M  V30 766 O 65.4846 3.85662 -4.18633 0
M  V30 767 N 66.6866 5.1072 -2.75944 0
M  V30 768 H 69.4516 1.03731 -2.81176 0
M  V30 769 H 67.0126 0.421573 -1.56315 0
M  V30 770 H 69.0046 3.46412 -2.09239 0
M  V30 771 H 67.5746 2.88605 -1.20109 0
M  V30 772 H 66.7946 1.87059 -3.46991 0
M  V30 773 H 68.0826 2.81564 -4.23791 0
M  V30 774 H 67.4806 5.2271 -2.16311 0
M  V30 775 H 66.0376 5.86523 -2.84314 0
M  V30 776 N 69.4707 1.49531 0.497807 0
M  V30 777 C 70.3807 1.69176 1.62532 0
M  V30 778 C 71.3967 0.5744 1.64246 0
M  V30 779 O 72.5727 0.849497 1.82608 0
M  V30 780 C 69.6377 1.75695 2.98885 0
M  V30 781 C 68.6987 2.9929 3.07773 0
M  V30 782 C 67.9317 3.05488 4.37622 0
M  V30 783 O 68.1547 2.19192 5.26603 0
M  V30 784 O 67.0887 3.9798 4.51548 0
M  V30 785 H 70.9147 2.647 1.48887 0
M  V30 786 H 68.4997 1.3331 0.674441 0
M  V30 787 H 70.3817 1.82317 3.79919 0
M  V30 788 H 69.0567 0.8335 3.12785 0
M  V30 789 H 67.9637 2.98183 2.25915 0
M  V30 790 H 69.2967 3.91125 2.98801 0
M  V30 791 N 70.9488 -0.749086 1.3866 0
M  V30 792 C 72.1768 -1.53834 1.38358 0
M  V30 793 C 72.5918 -1.88783 -0.0255219 0
M  V30 794 O 71.9488 -1.53101 -0.993292 0
M  V30 795 C 71.9998 -2.83468 2.2434 0
M  V30 796 O 71.7208 -2.50008 3.5976 0
M  V30 797 C 73.2218 -3.7758 2.32267 0
M  V30 798 H 70.4418 -0.47585 0.473083 0
M  V30 799 H 72.9858 -0.926726 1.82297 0
M  V30 800 H 71.1408 -3.40995 1.83851 0
M  V30 801 H 71.5548 -3.33182 4.05081 0
M  V30 802 H 73.0288 -4.65478 2.96706 0
M  V30 803 H 73.5058 -4.18334 1.33765 0
M  V30 804 H 74.1118 -3.25976 2.73166 0
M  V30 805 N 72.4269 -1.23603 -0.977757 0
M  V30 806 C 73.3749 -1.01704 -2.09187 0
M  V30 807 C 74.3689 0.0448214 -1.69341 0
M  V30 808 O 75.5749 -0.108902 -1.7967 0
M  V30 809 H 71.9499 -0.311803 -0.684312 0
M  V30 810 H 73.9209 -1.96207 -2.24823 0
M  V30 811 C 72.6699 -0.627746 -3.41986 0
M  V30 812 H 71.9929 -1.43656 -3.73099 0
M  V30 813 H 73.4329 -0.514053 -4.20872 0
M  V30 814 C 71.8919 0.664238 -3.30287 0
M  V30 815 O 72.4219 1.71268 -3.6336 0
M  V30 816 N 70.6279 0.641156 -2.83439 0
M  V30 817 H 70.1749 -0.212376 -2.56723 0
M  V30 818 H 70.1329 1.50583 -2.75993 0
M  V30 819 N 73.905 1.17692 -1.04816 0
M  V30 820 C 74.853 2.23632 -0.63966 0
M  V30 821 C 75.847 1.6601 0.337219 0
M  V30 822 O 77.053 1.78844 0.203693 0
M  V30 823 H 73.428 0.727949 -0.188665 0
M  V30 824 H 75.399 2.55387 -1.54337 0
M  V30 825 C 74.148 3.4769 -0.0264051 0
M  V30 826 H 73.471 3.92331 -0.769164 0
M  V30 827 H 74.911 4.23418 0.222098 0
M  V30 828 C 73.37 3.13807 1.22584 0
M  V30 829 O 73.9 3.28236 2.31569 0
M  V30 830 N 72.106 2.68065 1.12202 0
M  V30 831 H 71.653 2.56525 0.235133 0
M  V30 832 H 71.611 2.45767 1.96076 0
M  V30 833 N 75.3831 0.828654 1.34056 0
M  V30 834 C 76.3311 0.242973 2.31327 0
M  V30 835 C 77.3251 -0.61944 1.57668 0
M  V30 836 O 78.5311 -0.51014 1.7262 0
M  V30 837 H 74.9061 0.059834 0.749616 0
M  V30 838 H 76.8771 1.07809 2.78244 0
M  V30 839 C 75.6261 -0.575733 3.429 0
M  V30 840 H 74.9491 0.0785582 3.99723 0
M  V30 841 H 76.3891 -0.951547 4.13185 0
M  V30 842 C 74.8481 -1.75044 2.87856 0
M  V30 843 O 75.3781 -2.84882 2.83205 0
M  V30 844 N 73.5841 -1.56903 2.44602 0
M  V30 845 H 73.1311 -0.675547 2.48584 0
M  V30 846 H 73.0891 -2.35652 2.08124 0
M  V30 847 N 76.8612 -1.46375 0.584142 0
M  V30 848 C 77.8092 -2.32042 -0.161047 0
M  V30 849 C 78.8032 -1.44569 -0.882966 0
M  V30 850 O 80.0092 -1.61186 -0.801191 0
M  V30 851 H 76.3842 -0.748659 -0.0708033 0
M  V30 852 H 78.3552 -2.92704 0.580269 0
M  V30 853 C 77.1042 -3.27762 -1.1605 0
M  V30 854 H 76.4272 -3.95051 -0.614419 0
M  V30 855 H 77.8672 -3.90481 -1.65228 0
M  V30 856 C 76.3262 -2.53218 -2.22221 0
M  V30 857 O 76.8562 -2.29628 -3.29597 0
M  V30 858 N 75.0622 -2.13756 -1.96868 0
M  V30 859 H 74.6092 -2.33142 -1.09557 0
M  V30 860 H 74.5672 -1.642 -2.68115 0
M  V30 861 N 78.3393 -0.321999 -1.54275 0
M  V30 862 C 79.5643 0.285791 -2.05422 0
M  V30 863 C 79.9893 1.45124 -1.19669 0
M  V30 864 O 79.3473 1.80132 -0.205441 0
M  V30 865 C 79.3953 0.69956 -3.53749 0
M  V30 866 O 78.4993 1.8021 -3.70942 0
M  V30 867 H 77.8403 0.0518962 -0.661969 0
M  V30 868 H 80.3703 -0.469954 -1.9913 0
M  V30 869 H 80.3803 0.982649 -3.9599 0
M  V30 870 H 79.0553 -0.152864 -4.15619 0
M  V30 871 H 77.6323 1.51794 -3.40607 0
M  V30 872 N 79.8174 1.5752 -0.0501392 0
M  V30 873 C 81.0424 1.97376 0.636997 0
M  V30 874 C 81.4674 0.927466 1.63645 0
M  V30 875 O 80.8254 -0.10941 1.8097 0
M  V30 876 C 80.8734 3.36304 1.30123 0
M  V30 877 O 79.9774 3.34156 2.41689 0
M  V30 878 H 79.3184 0.642998 0.165679 0
M  V30 879 H 81.8484 2.04258 -0.118233 0
M  V30 880 H 81.8584 3.73008 1.65315 0
M  V30 881 H 80.5334 4.11993 0.568746 0
M  V30 882 H 79.1104 3.09196 2.08451 0
M  V30 883 N 81.2955 -0.223234 1.56011 0
M  V30 884 C 82.5425 -0.947875 1.78946 0
M  V30 885 C 82.8705 -1.844 0.618608 0
M  V30 886 O 82.1255 -1.91629 -0.397093 0
M  V30 887 C 82.4245 -1.81948 3.0762 0
M  V30 888 C 82.0905 -1.07672 4.37856 0
M  V30 889 C 80.7525 -0.871544 4.73242 0
M  V30 890 C 83.1045 -0.552081 5.18268 0
M  V30 891 C 80.4325 -0.129791 5.86556 0
M  V30 892 C 82.7845 0.17632 6.32354 0
M  V30 893 C 81.4485 0.39277 6.66343 0
M  V30 894 H 80.7185 -0.346852 0.654809 0
M  V30 895 H 83.3655 -0.216171 1.90276 0
M  V30 896 H 81.6705 -2.61899 2.91404 0
M  V30 897 H 83.3675 -2.38227 3.22566 0
M  V30 898 H 79.9575 -1.24662 4.1007 0
M  V30 899 H 84.1415 -0.698076 4.91366 0
M  V30 900 H 79.3975 0.048153 6.11381 0
M  V30 901 H 83.5715 0.590367 6.93893 0
M  V30 902 H 81.1985 0.969466 7.53993 0
M  V30 903 N 82.7736 -1.49793 -0.48987 0
M  V30 904 C 84.0036 -1.6333 -1.26518 0
M  V30 905 C 84.4116 -0.308392 -1.8667 0
M  V30 906 O 83.7546 0.717512 -1.69108 0
M  V30 907 C 83.8166 -2.6522 -2.4269 0
M  V30 908 C 83.4806 -4.09279 -2.03321 0
M  V30 909 C 84.4776 -4.95738 -1.56652 0
M  V30 910 C 82.1626 -4.55082 -2.12616 0
M  V30 911 C 84.1566 -6.26041 -1.19795 0
M  V30 912 C 81.8436 -5.85396 -1.75371 0
M  V30 913 C 82.8416 -6.707 -1.29036 0
M  V30 914 O 82.5296 -7.98584 -0.92299 0
M  V30 915 H 82.2616 -0.552502 -0.389509 0
M  V30 916 H 84.8156 -1.96642 -0.593381 0
M  V30 917 H 83.0456 -2.27112 -3.12981 0
M  V30 918 H 84.7346 -2.68171 -3.04695 0
M  V30 919 H 85.5006 -4.61575 -1.48908 0
M  V30 920 H 81.3796 -3.88844 -2.47631 0
M  V30 921 H 84.9236 -6.92578 -0.835582 0
M  V30 922 H 80.8206 -6.19085 -1.82768 0
M  V30 923 H 81.5886 -8.11692 -1.05349 0
M  V30 924 N 84.2517 0.741722 -1.39055 0
M  V30 925 C 85.4797 1.53098 -1.39171 0
M  V30 926 C 85.8947 1.88794 0.0155099 0
M  V30 927 O 85.2517 1.53626 0.985159 0
M  V30 928 C 85.3027 2.82274 -2.2584 0
M  V30 929 O 85.0237 2.48097 -3.61081 0
M  V30 930 C 86.5247 3.76343 -2.34266 0
M  V30 931 H 83.7447 0.473335 -0.4756 0
M  V30 932 H 86.2887 0.917045 -1.82785 0
M  V30 933 H 84.4437 3.40015 -1.85656 0
M  V30 934 H 84.8577 3.31029 -4.06842 0
M  V30 935 H 86.3317 4.63898 -2.9917 0
M  V30 936 H 86.8087 4.17619 -1.35982 0
M  V30 937 H 87.4147 3.24523 -2.74891 0
M  V30 938 N 85.7298 1.2412 0.971189 0
M  V30 939 C 86.9778 1.07668 1.71032 0
M  V30 940 C 87.2988 -0.385797 1.91146 0
M  V30 941 O 86.5688 -1.27569 1.4867 0
M  V30 942 H 85.1488 0.395429 0.633755 0
M  V30 943 H 87.8108 1.55984 1.16855 0
M  V30 944 H 86.9068 1.57195 2.69622 0
M  V30 945 N 87.2079 -1.17134 1.05439 0
M  V30 946 C 88.4539 -1.87733 0.767077 0
M  V30 947 C 88.7869 -1.8098 -0.704253 0
M  V30 948 O 88.0619 -1.21951 -1.5152 0
M  V30 949 C 88.3449 -3.37659 1.25133 0
M  V30 950 C 88.1979 -3.53149 2.78578 0
M  V30 951 C 89.5169 -4.31768 0.852324 0
M  V30 952 H 86.6359 -0.681687 0.280129 0
M  V30 953 H 89.2779 -1.37732 1.30881 0
M  V30 954 H 87.4279 -3.80373 0.790469 0
M  V30 955 H 89.0999 -3.19434 3.32806 0
M  V30 956 H 87.3429 -2.95345 3.17732 0
M  V30 957 H 88.0139 -4.58403 3.07523 0
M  V30 958 H 90.4899 -3.96909 1.24911 0
M  V30 959 H 89.3659 -5.35199 1.21873 0
M  V30 960 H 89.6269 -4.41429 -0.243485 0
M  V30 961 N 88.686 -0.835752 -1.33615 0
M  V30 962 C 89.916 -0.442701 -2.01801 0
M  V30 963 C 90.324 0.959807 -1.63047 0
M  V30 964 O 89.667 1.63468 -0.838088 0
M  V30 965 C 89.729 -0.480125 -3.56279 0
M  V30 966 C 89.393 -1.8382 -4.18401 0
M  V30 967 C 90.39 -2.80097 -4.37998 0
M  V30 968 C 88.075 -2.13019 -4.54894 0
M  V30 969 C 90.069 -4.03736 -4.9323 0
M  V30 970 C 87.756 -3.36916 -5.09834 0
M  V30 971 C 88.754 -4.32091 -5.28948 0
M  V30 972 O 88.442 -5.53797 -5.82721 0
M  V30 973 H 88.174 -0.17441 -0.653114 0
M  V30 974 H 90.728 -1.129 -1.71589 0
M  V30 975 H 88.958 0.262931 -3.85805 0
M  V30 976 H 90.647 -0.105335 -4.05763 0
M  V30 977 H 91.413 -2.58838 -4.10156 0
M  V30 978 H 87.292 -1.39733 -4.39313 0
M  V30 979 H 90.836 -4.78034 -5.08064 0
M  V30 980 H 86.733 -3.58033 -5.37106 0
M  V30 981 H 87.501 -5.55494 -6.0114 0
M  V30 982 N 90.1641 1.46063 -0.591896 0
M  V30 983 C 91.4131 2.01547 -0.0786637 0
M  V30 984 C 91.7261 1.46796 1.29268 0
M  V30 985 O 92.9321 1.94157 1.89777 0
M  V30 986 C 91.3881 3.59787 -0.0900024 0
M  V30 987 C 90.9961 4.23534 -1.46023 0
M  V30 988 C 92.7401 4.22895 0.368806 0
M  V30 989 C 90.6471 5.73881 -1.4288 0
M  V30 990 H 89.5771 0.753564 -0.0256388 0
M  V30 991 H 92.2281 1.677 -0.744905 0
M  V30 992 H 90.6101 3.90752 0.642586 0
M  V30 993 H 91.7841 4.04167 -2.21328 0
M  V30 994 H 90.0991 3.72558 -1.85982 0
M  V30 995 H 92.6961 5.33116 0.411258 0
M  V30 996 H 93.0391 3.9247 1.38827 0
M  V30 997 H 93.5721 3.9659 -0.31001 0
M  V30 998 H 90.3111 6.0898 -2.42536 0
M  V30 999 H 89.8311 5.95486 -0.718095 0
M  V30 1000 H 91.5101 6.36776 -1.14565 0
M  V30 1001 N 91.6422 0.330177 1.54103 0
M  V30 1002 C 92.5722 -0.525353 2.27513 0
M  V30 1003 C 93.5532 -1.11383 1.2856 0
M  V30 1004 O 94.7382 -1.13773 1.57383 0
M  V30 1005 C 91.8682 -1.6831 3.03791 0
M  V30 1006 C 90.8222 -1.2236 4.10137 0
M  V30 1007 C 90.1482 -2.46882 4.74293 0
M  V30 1008 C 91.4482 -0.333697 5.21233 0
M  V30 1009 H 93.1422 0.087013 2.99274 0
M  V30 1010 H 90.6882 0.0432893 1.43935 0
M  V30 1011 H 92.6412 -2.28795 3.5388 0
M  V30 1012 H 91.3652 -2.32216 2.29659 0
M  V30 1013 H 90.0242 -0.64165 3.60941 0
M  V30 1014 H 89.6722 -3.09165 3.96769 0
M  V30 1015 H 89.3722 -2.16825 5.46133 0
M  V30 1016 H 90.8962 -3.08117 5.27159 0
M  V30 1017 H 92.3102 -0.845013 5.67038 0
M  V30 1018 H 90.7072 -0.125612 5.99969 0
M  V30 1019 H 91.7772 0.633724 4.80741 0
M  V30 1020 N 93.1203 -1.57491 0.0584922 0
M  V30 1021 C 94.3693 -1.92155 -0.613146 0
M  V30 1022 C 94.6823 -0.939334 -1.71569 0
M  V30 1023 O 95.8883 -1.17829 -2.44599 0
M  V30 1024 C 94.3443 -3.41303 -1.14195 0
M  V30 1025 C 93.9523 -4.47944 -0.0711265 0
M  V30 1026 C 95.6963 -3.84988 -1.78841 0
M  V30 1027 C 93.6033 -5.88212 -0.613225 0
M  V30 1028 H 92.5333 -0.717162 -0.232796 0
M  V30 1029 H 95.1843 -1.83049 0.12857 0
M  V30 1030 H 93.5663 -3.45437 -1.93621 0
M  V30 1031 H 94.7403 -4.55408 0.702836 0
M  V30 1032 H 93.0553 -4.13644 0.478313 0
M  V30 1033 H 95.6523 -4.87159 -2.20408 0
M  V30 1034 H 95.9953 -3.21632 -2.64308 0
M  V30 1035 H 96.5283 -3.83401 -1.06059 0
M  V30 1036 H 93.2673 -6.55183 0.203978 0
M  V30 1037 H 92.7873 -5.84294 -1.35501 0
M  V30 1038 H 94.4663 -6.37687 -1.09383 0
M  V30 1039 N 94.5984 0.214957 -1.56127 0
M  V30 1040 C 95.8464 0.936518 -1.79091 0
M  V30 1041 C 96.1674 1.84606 -0.628148 0
M  V30 1042 O 95.4374 1.92664 0.35462 0
M  V30 1043 H 94.0174 0.3488 -0.660566 0
M  V30 1044 H 96.6794 0.22523 -1.93594 0
M  V30 1045 H 95.7754 1.53943 -2.71492 0
M  V30 1046 N 96.0765 1.50051 0.48192 0
M  V30 1047 C 97.0395 1.67584 1.5636 0
M  V30 1048 C 98.0395 0.546894 1.51214 0
M  V30 1049 O 99.2295 0.813725 1.54026 0
M  V30 1050 C 96.3615 1.691 2.96003 0
M  V30 1051 H 97.5545 2.64078 1.42136 0
M  V30 1052 H 95.1075 1.39369 0.707533 0
M  V30 1053 H 95.8425 0.742589 3.15684 0
M  V30 1054 H 95.6275 2.51105 3.01146 0
M  V30 1055 H 97.1175 1.84656 3.74556 0
M  V30 1056 N 97.5546 -0.734337 1.39446 0
M  V30 1057 C 98.8026 -1.49096 1.36436 0
M  V30 1058 C 99.1236 -1.94961 -0.0388255 0
M  V30 1059 O 98.3936 -1.69033 -0.990191 0
M  V30 1060 H 96.9736 -0.5531 0.502085 0
M  V30 1061 H 99.6356 -0.871725 1.74319 0
M  V30 1062 H 98.7316 -2.37276 2.02747 0
M  V30 1063 N 99.0327 -1.24633 -0.964593 0
M  V30 1064 C 99.9957 -1.0424 -2.04124 0
M  V30 1065 C 100.996 0.00137563 -1.608 0
M  V30 1066 O 102.186 -0.239883 -1.7254 0
M  V30 1067 C 99.3177 -0.580588 -3.3592 0
M  V30 1068 H 100.511 -1.99803 -2.23649 0
M  V30 1069 H 98.0637 -1.06899 -1.14027 0
M  V30 1070 H 98.7987 0.3781 -3.22088 0
M  V30 1071 H 98.5837 -1.33398 -3.6871 0
M  V30 1072 H 100.074 -0.459034 -4.15069 0
M  V30 1073 N 100.511 1.16574 -1.06058 0
M  V30 1074 C 101.441 2.23057 -0.690488 0
M  V30 1075 C 102.422 1.67141 0.315901 0
M  V30 1076 O 103.607 1.93253 0.191556 0
M  V30 1077 C 100.737 3.47222 -0.073625 0
M  V30 1078 C 99.6908 4.16016 -1.00573 0
M  V30 1079 C 99.0168 5.34104 -0.252289 0
M  V30 1080 C 100.317 4.67264 -2.33371 0
M  V30 1081 H 102.011 2.54271 -1.58072 0
M  V30 1082 H 99.5568 1.22218 -0.76149 0
M  V30 1083 H 101.51 4.20939 0.19714 0
M  V30 1084 H 100.234 3.15302 0.85161 0
M  V30 1085 H 98.8928 3.44223 -1.2612 0
M  V30 1086 H 98.5408 4.98437 0.675988 0
M  V30 1087 H 98.2408 5.81072 -0.873455 0
M  V30 1088 H 99.7648 6.10599 0.0109857 0
M  V30 1089 H 101.179 5.32573 -2.12223 0
M  V30 1090 H 99.5758 5.24843 -2.90963 0
M  V30 1091 H 100.646 3.83602 -2.96611 0
M  V30 1092 N 101.989 0.842826 1.3317 0
M  V30 1093 C 102.922 0.223862 2.27099 0
M  V30 1094 C 103.9 -0.631311 1.49844 0
M  V30 1095 O 105.084 -0.590708 1.79005 0
M  V30 1096 C 102.211 -0.685313 3.31694 0
M  V30 1097 C 101.257 0.094919 4.26394 0
M  V30 1098 S 102.09 1.45546 5.15341 0
M  V30 1099 C 103.246 0.551685 6.23464 0
M  V30 1100 H 103.479 1.02015 2.79249 0
M  V30 1101 H 101.012 0.639797 1.4052 0
M  V30 1102 H 102.97 -1.20426 3.92438 0
M  V30 1103 H 101.631 -1.4553 2.78352 0
M  V30 1104 H 100.824 -0.597059 5.00451 0
M  V30 1105 H 100.426 0.545054 3.70007 0
M  V30 1106 H 102.718 -0.248877 6.77043 0
M  V30 1107 H 103.661 1.26253 6.96754 0
M  V30 1108 H 104.069 0.131275 5.64347 0
M  V30 1109 N 103.467 -1.45747 0.599634 0
M  V30 1110 C 104.4 -2.27547 -0.172552 0
M  V30 1111 C 105.378 -1.36657 -0.881116 0
M  V30 1112 O 106.562 -1.66081 -0.891595 0
M  V30 1113 C 103.689 -3.14829 -1.24903 0
M  V30 1114 C 102.735 -4.21603 -0.644465 0
M  V30 1115 S 103.568 -5.32754 0.541606 0
M  V30 1116 C 104.724 -6.23604 -0.535656 0
M  V30 1117 H 104.957 -2.92691 0.521468 0
M  V30 1118 H 102.49 -1.49473 0.386947 0
M  V30 1119 H 104.448 -3.65675 -1.86527 0
M  V30 1120 H 103.109 -2.48965 -1.91508 0
M  V30 1121 H 102.302 -4.82566 -1.45417 0
M  V30 1122 H 101.904 -3.73857 -0.103534 0
M  V30 1123 H 104.196 -6.62519 -1.41686 0
M  V30 1124 H 105.139 -7.0809 0.0376246 0
M  V30 1125 H 105.547 -5.58103 -0.84741 0
M  V30 1126 N 104.945 -0.338344 -1.53925 0
M  V30 1127 C 105.875 0.51328 -2.27789 0
M  V30 1128 C 106.856 1.107 -1.29149 0
M  V30 1129 O 108.041 1.12937 -1.57984 0
M  V30 1130 C 105.171 1.66697 -3.04679 0
M  V30 1131 C 104.125 1.20183 -4.1078 0
M  V30 1132 C 103.451 2.44363 -4.75595 0
M  V30 1133 C 104.751 0.30605 -5.21403 0
M  V30 1134 H 106.445 -0.102883 -2.99223 0
M  V30 1135 H 103.991 -0.0509219 -1.4391 0
M  V30 1136 H 105.944 2.26915 -3.55088 0
M  V30 1137 H 104.668 2.30995 -2.30887 0
M  V30 1138 H 103.327 0.622499 -3.61276 0
M  V30 1139 H 102.975 3.07057 -3.98403 0
M  V30 1140 H 102.675 2.13925 -5.47275 0
M  V30 1141 H 104.199 3.05317 -5.28786 0
M  V30 1142 H 105.613 0.814929 -5.67478 0
M  V30 1143 H 104.01 0.0937929 -6.00027 0
M  V30 1144 H 105.08 -0.65921 -4.80398 0
M  V30 1145 N 106.423 1.57458 -0.0668435 0
M  V30 1146 C 107.669 1.93587 0.6043 0
M  V30 1147 C 108.002 0.946722 1.69561 0
M  V30 1148 O 107.277 -0.0248516 1.94484 0
M  V30 1149 C 107.56 3.40014 1.18585 0
M  V30 1150 C 107.413 4.49685 0.101529 0
M  V30 1151 C 108.732 3.87154 2.09284 0
M  V30 1152 H 105.851 0.703958 0.218202 0
M  V30 1153 H 108.493 1.89542 -0.131804 0
M  V30 1154 H 106.643 3.43592 1.81319 0
M  V30 1155 H 108.315 4.5823 -0.531279 0
M  V30 1156 H 106.558 4.30059 -0.568487 0
M  V30 1157 H 107.229 5.49266 0.54874 0
M  V30 1158 H 109.705 3.85551 1.56491 0
M  V30 1159 H 108.581 4.90231 2.46911 0
M  V30 1160 H 108.842 3.2481 2.99918 0
M  V30 1161 N 107.901 -0.206675 1.56239 0
M  V30 1162 C 109.149 -0.927007 1.79586 0
M  V30 1163 C 109.47 -1.8427 0.637929 0
M  V30 1164 O 108.74 -1.92849 -0.344398 0
M  V30 1165 H 107.32 -0.345292 0.662407 0
M  V30 1166 H 109.982 -0.21496 1.93711 0
M  V30 1167 H 109.078 -1.52501 2.72305 0
M  V30 1168 N 109.379 -1.50304 -0.473955 0
M  V30 1169 C 110.626 -1.6115 -1.22625 0
M  V30 1170 C 110.954 -0.310517 -1.92005 0
M  V30 1171 O 110.209 0.703419 -1.82621 0
M  V30 1172 C 110.508 -2.73938 -2.29549 0
M  V30 1173 C 110.174 -4.14519 -1.7744 0
M  V30 1174 C 108.836 -4.5277 -1.62949 0
M  V30 1175 C 111.188 -5.02392 -1.3875 0
M  V30 1176 C 108.516 -5.76639 -1.08187 0
M  V30 1177 C 110.868 -6.26805 -0.854309 0
M  V30 1178 C 109.532 -6.63861 -0.696011 0
M  V30 1179 H 108.802 -0.589691 -0.448715 0
M  V30 1180 H 111.449 -1.84228 -0.522705 0
M  V30 1181 H 109.754 -2.44937 -3.05799 0
M  V30 1182 H 111.451 -2.79534 -2.87509 0
M  V30 1183 H 108.041 -3.8434 -1.89685 0
M  V30 1184 H 112.225 -4.73474 -1.4878 0
M  V30 1185 H 107.481 -6.04027 -0.946666 0
M  V30 1186 H 111.655 -6.94258 -0.545843 0
M  V30 1187 H 109.282 -7.59722 -0.26952 0
M  V30 1188 N 110.857 0.726932 -1.39834 0
M  V30 1189 C 111.787 1.85405 -1.41941 0
M  V30 1190 C 112.768 1.67751 -0.281728 0
M  V30 1191 O 113.953 1.8795 -0.488717 0
M  V30 1192 C 111.083 3.23243 -1.2701 0
M  V30 1193 C 110.037 3.55549 -2.38262 0
M  V30 1194 C 109.363 4.9241 -2.08415 0
M  V30 1195 C 110.663 3.577 -3.80589 0
M  V30 1196 H 112.357 1.83899 -2.36266 0
M  V30 1197 H 109.903 0.883349 -1.13723 0
M  V30 1198 H 111.856 4.01775 -1.27103 0
M  V30 1199 H 110.58 3.25296 -0.291564 0
M  V30 1200 H 109.239 2.79351 -2.37399 0
M  V30 1201 H 108.887 4.91052 -1.0898 0
M  V30 1202 H 108.587 5.14992 -2.82943 0
M  V30 1203 H 110.111 5.73289 -2.10171 0
M  V30 1204 H 111.525 4.26293 -3.83337 0
M  V30 1205 H 109.922 3.91804 -4.54543 0
M  V30 1206 H 110.992 2.57328 -4.10987 0
M  V30 1207 N 112.336 1.25143 0.95797 0
M  V30 1208 C 113.584 1.09476 1.69881 0
M  V30 1209 C 113.905 -0.365502 1.91544 0
M  V30 1210 O 113.175 -1.25985 1.50015 0
M  V30 1211 H 111.755 0.402128 0.629525 0
M  V30 1212 H 114.417 1.57214 1.15194 0
M  V30 1213 H 113.513 1.60046 2.6794 0
M  V30 1214 N 113.814 -1.1601 1.06675 0
M  V30 1215 C 115.054 -1.88304 0.795037 0
M  V30 1216 C 115.418 -1.80062 -0.666466 0
M  V30 1217 O 116.619 -2.47319 -1.05293 0
M  V30 1218 C 114.89 -3.33664 1.28076 0
M  V30 1219 S 116.449 -4.23768 1.13868 0
M  V30 1220 H 113.267 -0.649928 0.288296 0
M  V30 1221 H 115.869 -1.4001 1.36445 0
M  V30 1222 H 114.573 -3.37203 2.33927 0
M  V30 1223 H 114.104 -3.87009 0.706253 0
M  V30 1224 H 116.119 -4.96148 0.0719668 0
M  V30 1225 N 115.292 -0.849877 -1.32721 0
M  V30 1226 C 116.532 -0.457146 -1.99222 0
M  V30 1227 C 116.896 0.968038 -1.6581 0
M  V30 1228 O 118.097 1.46507 -2.25364 0
M  V30 1229 C 116.368 -0.683966 -3.50794 0
M  V30 1230 S 117.927 -0.388095 -4.3708 0
M  V30 1231 H 114.745 -0.171464 -0.690015 0
M  V30 1232 H 117.347 -1.10155 -1.61512 0
M  V30 1233 H 116.051 -1.72038 -3.726 0
M  V30 1234 H 115.582 -0.0258086 -3.93392 0
M  V30 1235 H 117.597 0.787791 -4.89906 0
M  V30 1236 N 116.77 1.45427 -0.607355 0
M  V30 1237 C 118.018 2.01841 -0.102253 0
M  V30 1238 C 118.339 1.47832 1.27164 0
M  V30 1239 O 117.609 0.672497 1.83995 0
M  V30 1240 H 116.189 0.746188 -0.0348101 0
M  V30 1241 H 118.851 1.78229 -0.7887 0
M  V30 1242 H 117.947 3.12057 -0.0518585 0
M  V30 1243 N 118.248 0.346503 1.53744 0
M  V30 1244 C 119.211 -0.496439 2.23759 0
M  V30 1245 C 120.211 -1.0252 1.2388 0
M  V30 1246 O 121.401 -0.913974 1.48297 0
M  V30 1247 C 118.533 -1.69187 2.95954 0
M  V30 1248 H 119.726 0.115952 2.99676 0
M  V30 1249 H 117.279 0.0978939 1.55993 0
M  V30 1250 H 118.014 -2.34288 2.24231 0
M  V30 1251 H 117.799 -1.31989 3.69217 0
M  V30 1252 H 119.289 -2.28969 3.49232 0
M  V30 1253 N 119.726 -1.57421 0.075193 0
M  V30 1254 C 120.972 -1.93905 -0.594025 0
M  V30 1255 C 121.305 -0.955701 -1.69056 0
M  V30 1256 O 120.58 0.0145373 -1.94495 0
M  V30 1257 C 120.863 -3.40638 -1.1678 0
M  V30 1258 C 120.716 -4.49733 -0.0776792 0
M  V30 1259 C 122.035 -3.88259 -2.07228 0
M  V30 1260 H 119.154 -0.705105 -0.214466 0
M  V30 1261 H 121.796 -1.8947 0.141854 0
M  V30 1262 H 119.946 -3.44549 -1.79494 0
M  V30 1263 H 121.618 -4.57942 0.555573 0
M  V30 1264 H 119.861 -4.29751 0.591286 0
M  V30 1265 H 120.532 -5.49549 -0.519603 0
M  V30 1266 H 123.008 -3.86376 -1.54445 0
M  V30 1267 H 121.884 -4.91533 -2.44308 0
M  V30 1268 H 122.145 -3.26396 -2.98191 0
M  V30 1269 N 121.204 0.198386 -1.56346 0
M  V30 1270 C 122.136 1.26987 -1.90806 0
M  V30 1271 C 123.149 1.41877 -0.798419 0
M  V30 1272 O 124.338 1.42362 -1.07682 0
M  V30 1273 C 121.438 2.64246 -2.12196 0
M  V30 1274 C 120.611 2.71007 -3.43328 0
M  V30 1275 C 119.67 3.89439 -3.5387 0
M  V30 1276 O 118.696 3.76695 -4.26719 0
M  V30 1277 N 119.898 5.04752 -2.86715 0
M  V30 1278 H 122.663 0.977433 -2.83313 0
M  V30 1279 H 120.224 0.388322 -1.57174 0
M  V30 1280 H 122.216 3.41896 -2.1654 0
M  V30 1281 H 120.786 2.85992 -1.26204 0
M  V30 1282 H 120.006 1.79657 -3.50881 0
M  V30 1283 H 121.294 2.72512 -4.29668 0
M  V30 1284 H 120.692 5.18004 -2.2735 0
M  V30 1285 H 119.249 5.8036 -2.96691 0
M  V30 1286 N 122.682 1.50554 0.465978 0
M  V30 1287 C 123.592 1.72585 1.58907 0
M  V30 1288 C 124.608 0.60911 1.6299 0
M  V30 1289 O 125.784 0.88804 1.80765 0
M  V30 1290 C 122.849 1.81995 2.95091 0
M  V30 1291 C 121.91 3.05751 3.01355 0
M  V30 1292 C 121.143 3.14702 4.31043 0
M  V30 1293 O 121.366 2.30313 5.21835 0
M  V30 1294 O 120.3 4.07468 4.43005 0
M  V30 1295 H 124.126 2.67799 1.43239 0
M  V30 1296 H 121.711 1.34711 0.646013 0
M  V30 1297 H 123.593 1.90335 3.75966 0
M  V30 1298 H 122.268 0.899659 3.10947 0
M  V30 1299 H 121.175 3.02908 2.19539 0
M  V30 1300 H 122.508 3.97375 2.90437 0
M  V30 1301 N 124.16 -0.719506 1.40217 0
M  V30 1302 C 125.385 -1.51371 1.4178 0
M  V30 1303 C 125.81 -1.88091 0.0182355 0
M  V30 1304 O 125.168 -1.52997 -0.972707 0
M  V30 1305 C 125.216 -2.768 2.31115 0
M  V30 1306 O 124.32 -3.73349 1.7517 0
M  V30 1307 H 123.661 -0.456529 0.482159 0
M  V30 1308 H 126.191 -0.88644 1.844 0
M  V30 1309 H 126.201 -3.25371 2.46167 0
M  V30 1310 H 124.876 -2.49407 3.3282 0
M  V30 1311 H 123.453 -3.32179 1.69444 0
M  V30 1312 N 125.638 -1.25649 -0.95132 0
M  V30 1313 C 126.57 -1.02112 -2.05197 0
M  V30 1314 C 127.583 0.0150571 -1.62793 0
M  V30 1315 O 128.772 -0.223874 -1.77091 0
M  V30 1316 C 125.872 -0.522361 -3.3485 0
M  V30 1317 C 125.045 -1.62546 -4.06076 0
M  V30 1318 C 124.104 -1.12649 -5.14001 0
M  V30 1319 O 123.13 -1.82156 -5.39266 0
M  V30 1320 N 124.332 0.03047 -5.80492 0
M  V30 1321 H 127.097 -1.96885 -2.25957 0
M  V30 1322 H 124.658 -1.16899 -1.1201 0
M  V30 1323 H 126.65 -0.172961 -4.0433 0
M  V30 1324 H 125.22 0.33151 -3.10837 0
M  V30 1325 H 124.44 -2.14628 -3.30649 0
M  V30 1326 H 125.728 -2.36644 -4.50419 0
M  V30 1327 H 125.126 0.611169 -5.62389 0
M  V30 1328 H 123.683 0.320875 -6.5101 0
M  V30 1329 N 127.117 1.15442 -1.07289 0
M  V30 1330 C 128.357 1.8788 -0.805012 0
M  V30 1331 C 128.721 1.80413 0.656907 0
M  V30 1332 O 129.922 2.47874 1.0398 0
M  V30 1333 C 128.193 3.3298 -1.29843 0
M  V30 1334 S 129.752 4.23158 -1.16114 0
M  V30 1335 H 126.57 0.64839 -0.291739 0
M  V30 1336 H 129.172 1.39285 -1.37186 0
M  V30 1337 H 127.876 3.35958 -2.35712 0
M  V30 1338 H 127.407 3.86629 -0.726767 0
M  V30 1339 H 129.422 4.96103 -0.0982778 0
M  V30 1340 N 128.595 0.856903 1.32268 0
M  V30 1341 C 129.528 0.247937 2.26849 0
M  V30 1342 C 130.506 -0.615382 1.50505 0
M  V30 1343 O 131.69 -0.571689 1.79622 0
M  V30 1344 C 128.817 -0.650093 3.32403 0
M  V30 1345 C 127.863 0.140138 4.2627 0
M  V30 1346 S 128.696 1.51004 5.13769 0
M  V30 1347 C 129.852 0.61778 6.22844 0
M  V30 1348 H 130.085 1.04971 2.78152 0
M  V30 1349 H 127.618 0.654665 1.39834 0
M  V30 1350 H 129.576 -1.16256 3.93694 0
M  V30 1351 H 128.237 -1.4257 2.7988 0
M  V30 1352 H 127.43 -0.543945 5.01056 0
M  V30 1353 H 127.032 0.584267 3.69408 0
M  V30 1354 H 129.324 -0.177053 6.77269 0
M  V30 1355 H 130.267 1.33636 6.95375 0
M  V30 1356 H 130.675 0.191124 5.64176 0
M  V30 1357 N 130.073 -1.45103 0.615059 0
M  V30 1358 C 131.003 -2.33339 -0.0865619 0
M  V30 1359 C 131.984 -1.4727 -0.851209 0
M  V30 1360 O 133.169 -1.76026 -0.820281 0
M  V30 1361 C 130.299 -3.30095 -1.07956 0
M  V30 1362 C 129.253 -4.25858 -0.427628 0
M  V30 1363 C 128.579 -5.12361 -1.5294 0
M  V30 1364 C 129.879 -5.18165 0.655944 0
M  V30 1365 H 131.573 -2.92254 0.650224 0
M  V30 1366 H 129.119 -1.40532 0.314138 0
M  V30 1367 H 131.072 -3.90698 -1.57901 0
M  V30 1368 H 129.796 -2.69355 -1.84703 0
M  V30 1369 H 128.455 -3.66564 0.0510292 0
M  V30 1370 H 128.103 -4.47984 -2.28734 0
M  V30 1371 H 127.803 -5.77238 -1.09865 0
M  V30 1372 H 129.327 -5.75833 -2.03098 0
M  V30 1373 H 130.741 -5.72796 0.240257 0
M  V30 1374 H 129.138 -5.91559 1.00888 0
M  V30 1375 H 130.208 -4.60144 1.52957 0
M  V30 1376 N 131.551 -0.354651 -1.53558 0
M  V30 1377 C 132.799 0.237972 -2.00694 0
M  V30 1378 C 133.12 1.50173 -1.24391 0
M  V30 1379 O 132.39 1.92673 -0.354135 0
M  V30 1380 H 130.97 0.0909256 -0.741446 0
M  V30 1381 H 133.632 -0.478368 -1.88938 0
M  V30 1382 H 132.728 0.47264 -3.085 0
M  V30 1383 N 133.029 1.57378 -0.0835403 0
M  V30 1384 C 133.959 2.1641 0.87686 0
M  V30 1385 C 134.94 1.09429 1.30228 0
M  V30 1386 O 136.125 1.37516 1.37124 0
M  V30 1387 C 133.255 2.73517 2.14022 0
M  V30 1388 C 132.209 3.85769 1.85381 0
M  V30 1389 C 131.535 4.29529 3.18448 0
M  V30 1390 C 132.835 5.09486 1.14984 0
M  V30 1391 H 134.529 2.96914 0.385059 0
M  V30 1392 H 132.075 1.42823 0.18377 0
M  V30 1393 H 134.028 3.13463 2.81636 0
M  V30 1394 H 132.752 1.90252 2.65465 0
M  V30 1395 H 131.411 3.46345 1.20169 0
M  V30 1396 H 131.059 3.43169 3.67755 0
M  V30 1397 H 130.759 5.05204 3.00071 0
M  V30 1398 H 132.283 4.72099 3.8724 0
M  V30 1399 H 133.697 5.46674 1.72687 0
M  V30 1400 H 132.094 5.90515 1.06826 0
M  V30 1401 H 133.164 4.84724 0.130749 0
M  V30 1402 N 134.507 -0.190092 1.56449 0
M  V30 1403 C 135.754 -0.909705 1.80916 0
M  V30 1404 C 136.082 -1.83047 0.657583 0
M  V30 1405 O 135.337 -1.92428 -0.356356 0
M  V30 1406 C 135.636 -1.75382 3.1141 0
M  V30 1407 C 135.302 -0.983606 4.40041 0
M  V30 1408 C 133.964 -0.770967 4.74984 0
M  V30 1409 C 136.316 -0.442024 5.19322 0
M  V30 1410 C 133.644 -0.0053448 5.867 0
M  V30 1411 C 135.996 0.310412 6.31838 0
M  V30 1412 C 134.66 0.534023 6.6536 0
M  V30 1413 H 133.93 -0.332885 0.662019 0
M  V30 1414 H 136.577 -0.175762 1.90692 0
M  V30 1415 H 134.882 -2.55659 2.96893 0
M  V30 1416 H 136.579 -2.31331 3.27547 0
M  V30 1417 H 133.169 -1.15936 4.12622 0
M  V30 1418 H 137.353 -0.593693 4.92736 0
M  V30 1419 H 132.609 0.177825 6.11141 0
M  V30 1420 H 136.783 0.737419 6.92485 0
M  V30 1421 H 134.41 1.12918 7.51767 0
M  V30 1422 N 135.985 -1.50799 -0.457987 0
M  V30 1423 C 137.232 -1.62442 -1.20908 0
M  V30 1424 C 137.56 -0.330865 -1.91665 0
M  V30 1425 O 136.815 0.68401 -1.83357 0
M  V30 1426 C 137.114 -2.76358 -2.2663 0
M  V30 1427 C 136.78 -4.16378 -1.73033 0
M  V30 1428 C 135.442 -4.54473 -1.58138 0
M  V30 1429 C 137.794 -5.03836 -1.33413 0
M  V30 1430 C 135.122 -5.77754 -1.02065 0
M  V30 1431 C 137.474 -6.27676 -0.78778 0
M  V30 1432 C 136.138 -6.64562 -0.625561 0
M  V30 1433 H 135.408 -0.594417 -0.442435 0
M  V30 1434 H 138.055 -1.84772 -0.503136 0
M  V30 1435 H 136.36 -2.48167 -3.03184 0
M  V30 1436 H 138.057 -2.82568 -2.84528 0
M  V30 1437 H 134.647 -3.86331 -1.85598 0
M  V30 1438 H 138.831 -4.75026 -1.4375 0
M  V30 1439 H 134.087 -6.04997 -0.882547 0
M  V30 1440 H 138.261 -6.94797 -0.472177 0
M  V30 1441 H 135.888 -7.59965 -0.188926 0
M  V30 1442 N 137.463 0.71206 -1.40597 0
M  V30 1443 C 138.711 1.46907 -1.38791 0
M  V30 1444 C 139.032 1.94998 0.00780391 0
M  V30 1445 O 138.302 1.70587 0.963174 0
M  V30 1446 H 136.882 0.545043 -0.51082 0
M  V30 1447 H 139.544 0.843882 -1.75683 0
M  V30 1448 H 138.64 2.34021 -2.06496 0
M  V30 1449 N 138.941 1.26152 0.944643 0
M  V30 1450 C 140.188 1.11492 1.69044 0
M  V30 1451 C 140.516 -0.342366 1.91463 0
M  V30 1452 O 139.771 -1.26812 1.49054 0
M  V30 1453 C 140.07 1.82541 3.07268 0
M  V30 1454 C 139.736 3.32445 3.04616 0
M  V30 1455 C 138.398 3.73337 3.036 0
M  V30 1456 C 140.75 4.28171 2.97185 0
M  V30 1457 C 138.078 5.08348 2.92915 0
M  V30 1458 C 140.43 5.63218 2.88041 0
M  V30 1459 C 139.094 6.03426 2.85366 0
M  V30 1460 H 138.364 0.407977 0.618576 0
M  V30 1461 H 141.011 1.56551 1.10291 0
M  V30 1462 H 139.316 1.29941 3.69625 0
M  V30 1463 H 141.013 1.68642 3.63815 0
M  V30 1464 H 137.603 2.99915 3.06185 0
M  V30 1465 H 141.787 3.97563 2.97081 0
M  V30 1466 H 137.043 5.38667 2.89219 0
M  V30 1467 H 141.217 6.37078 2.81254 0
M  V30 1468 H 138.844 7.07999 2.76842 0
M  V30 1469 N 140.419 -1.14872 1.07899 0
M  V30 1470 C 141.349 -2.2193 0.725887 0
M  V30 1471 C 142.33 -1.67622 -0.28927 0
M  V30 1472 O 143.515 -1.93533 -0.160787 0
M  V30 1473 C 140.645 -3.47061 0.128856 0
M  V30 1474 C 139.599 -4.14363 1.07178 0
M  V30 1475 C 138.925 -5.33636 0.337229 0
M  V30 1476 C 140.225 -4.63492 2.40775 0
M  V30 1477 H 141.919 -2.51724 1.62097 0
M  V30 1478 H 139.465 -1.20991 0.780838 0
M  V30 1479 H 141.418 -4.21199 -0.130147 0
M  V30 1480 H 140.142 -3.16617 -0.80134 0
M  V30 1481 H 138.801 -3.42173 1.3158 0
M  V30 1482 H 138.449 -4.99449 -0.596606 0
M  V30 1483 H 138.149 -5.79609 0.965788 0
M  V30 1484 H 139.673 -6.10539 0.0861567 0
M  V30 1485 H 141.087 -5.2913 2.20669 0
M  V30 1486 H 139.484 -5.20148 2.99276 0
M  V30 1487 H 140.554 -3.78834 3.02676 0
M  V30 1488 N 141.898 -0.863906 -1.31812 0
M  V30 1489 C 142.828 -0.330843 -2.31144 0
M  V30 1490 C 143.809 0.575005 -1.60087 0
M  V30 1491 O 144.994 0.493304 -1.8783 0
M  V30 1492 C 142.124 0.47374 -3.44054 0
M  V30 1493 C 141.078 -0.338481 -4.26659 0
M  V30 1494 C 140.404 0.591412 -5.31419 0
M  V30 1495 C 141.704 -1.56926 -4.98168 0
M  V30 1496 H 143.398 -1.16086 -2.75979 0
M  V30 1497 H 140.944 -0.559657 -1.32679 0
M  V30 1498 H 142.897 0.857143 -4.12591 0
M  V30 1499 H 141.621 1.33721 -2.9797 0
M  V30 1500 H 140.28 -0.703754 -3.59782 0
M  V30 1501 H 139.928 1.45199 -4.81587 0
M  V30 1502 H 139.628 0.0519022 -5.87577 0
M  V30 1503 H 141.152 0.97179 -6.02817 0
M  V30 1504 H 142.566 -1.25764 -5.59336 0
M  V30 1505 H 140.963 -2.04739 -5.64094 0
M  V30 1506 H 142.033 -2.32544 -4.25501 0
M  V30 1507 N 143.376 1.44774 -0.622745 0
M  V30 1508 C 144.622 2.0242 -0.124083 0
M  V30 1509 C 144.955 1.4881 1.24777 0
M  V30 1510 O 144.23 0.668799 1.8264 0
M  V30 1511 C 144.513 3.59957 -0.101619 0
M  V30 1512 C 144.366 4.23867 -1.50521 0
M  V30 1513 C 145.685 4.36284 0.578272 0
M  V30 1514 H 142.804 0.735528 -0.0465645 0
M  V30 1515 H 145.446 1.72447 -0.797617 0
M  V30 1516 H 143.596 3.85623 0.471934 0
M  V30 1517 H 145.268 4.09336 -2.12701 0
M  V30 1518 H 143.511 3.81684 -2.06154 0
M  V30 1519 H 144.182 5.32843 -1.4416 0
M  V30 1520 H 146.658 4.16001 0.0906057 0
M  V30 1521 H 145.534 5.46004 0.563149 0
M  V30 1522 H 145.795 4.10271 1.64713 0
M  V30 1523 N 144.854 0.36279 1.53368 0
M  V30 1524 C 146.103 -0.22888 2.00397 0
M  V30 1525 C 146.416 -1.50096 1.25421 0
M  V30 1526 O 147.622 -2.17106 1.63025 0
M  V30 1527 C 146.078 -0.458417 3.56969 0
M  V30 1528 C 145.686 0.798877 4.4082 0
M  V30 1529 C 147.43 -1.00789 4.12361 0
M  V30 1530 C 145.337 0.539078 5.88938 0
M  V30 1531 H 144.267 -0.089305 0.748693 0
M  V30 1532 H 146.918 0.481099 1.77081 0
M  V30 1533 H 145.3 -1.22959 3.76427 0
M  V30 1534 H 146.474 1.57262 4.33134 0
M  V30 1535 H 144.789 1.27137 3.96516 0
M  V30 1536 H 147.386 -1.21754 5.20653 0
M  V30 1537 H 147.729 -1.9692 3.66781 0
M  V30 1538 H 148.262 -0.296961 3.9669 0
M  V30 1539 H 145.001 1.47064 6.3879 0
M  V30 1540 H 144.521 -0.196222 5.99479 0
M  V30 1541 H 146.2 0.163542 6.46793 0
M  V30 1542 N 146.332 -1.57332 0.0918853 0
M  V30 1543 C 147.579 -1.94236 -0.572577 0
M  V30 1544 C 147.907 -0.973398 -1.6839 0
M  V30 1545 O 147.162 0.00756912 -1.95699 0
M  V30 1546 C 147.461 -3.37689 -1.17051 0
M  V30 1547 C 147.127 -4.50527 -0.183304 0
M  V30 1548 C 145.789 -4.81119 0.0882276 0
M  V30 1549 C 148.141 -5.18883 0.49095 0
M  V30 1550 C 145.469 -5.77395 1.04076 0
M  V30 1551 C 147.821 -6.1618 1.43193 0
M  V30 1552 C 146.485 -6.45179 1.71173 0
M  V30 1553 H 145.755 -0.710762 -0.209521 0
M  V30 1554 H 148.402 -1.9077 0.167036 0
M  V30 1555 H 146.707 -3.37718 -1.9863 0
M  V30 1556 H 148.404 -3.63543 -1.69227 0
M  V30 1557 H 144.994 -4.26681 -0.405124 0
M  V30 1558 H 149.178 -4.95427 0.294312 0
M  V30 1559 H 144.434 -5.98179 1.26457 0
M  V30 1560 H 148.608 -6.68243 1.96023 0
M  V30 1561 H 146.235 -7.1959 2.4514 0
M  V30 1562 N 147.81 0.181792 -1.56548 0
M  V30 1563 C 148.773 1.20894 -1.94724 0
M  V30 1564 C 149.773 1.37738 -0.829747 0
M  V30 1565 O 150.963 1.35323 -1.09697 0
M  V30 1566 C 148.095 2.57593 -2.23291 0
M  V30 1567 H 149.288 0.882275 -2.86629 0
M  V30 1568 H 146.841 0.423838 -1.50444 0
M  V30 1569 H 147.576 2.95291 -1.34067 0
M  V30 1570 H 147.361 2.46735 -3.04736 0
M  V30 1571 H 148.851 3.31637 -2.53785 0
M  V30 1572 N 149.288 1.51039 0.449983 0
M  V30 1573 C 150.537 1.62317 1.19733 0
M  V30 1574 C 150.85 0.339101 1.92638 0
M  V30 1575 O 152.056 0.331069 2.69474 0
M  V30 1576 C 150.512 2.86608 2.17678 0
M  V30 1577 C 150.12 4.21972 1.50479 0
M  V30 1578 C 151.864 3.07239 2.92924 0
M  V30 1579 C 149.771 5.37426 2.46834 0
M  V30 1580 H 148.701 0.604532 0.450619 0
M  V30 1581 H 151.352 1.77494 0.465625 0
M  V30 1582 H 149.734 2.65037 2.94231 0
M  V30 1583 H 150.908 4.53878 0.795716 0
M  V30 1584 H 149.223 4.07117 0.874344 0
M  V30 1585 H 151.82 3.90668 3.65079 0
M  V30 1586 H 152.163 2.19807 3.5354 0
M  V30 1587 H 152.696 3.29091 2.23481 0
M  V30 1588 H 149.435 6.27079 1.90926 0
M  V30 1589 H 148.955 5.09912 3.15832 0
M  V30 1590 H 150.634 5.68862 3.08228 0
M  V30 1591 N 150.766 -0.704594 1.40972 0
M  V30 1592 C 151.676 -1.84856 1.44448 0
M  V30 1593 C 152.692 -1.70726 0.335961 0
M  V30 1594 O 153.868 -1.92799 0.582276 0
M  V30 1595 C 150.933 -3.20758 1.31587 0
M  V30 1596 C 149.994 -3.47063 2.52677 0
M  V30 1597 C 149.227 -4.76481 2.4042 0
M  V30 1598 O 149.45 -5.52341 1.42391 0
M  V30 1599 O 148.384 -5.03367 3.30007 0
M  V30 1600 H 152.21 -1.8488 2.40942 0
M  V30 1601 H 149.795 -0.85647 1.22413 0
M  V30 1602 H 151.677 -4.01913 1.26665 0
M  V30 1603 H 150.352 -3.21438 0.382049 0
M  V30 1604 H 149.259 -2.65873 2.63177 0
M  V30 1605 H 150.592 -3.5119 3.44858 0
M  V30 1606 N 152.244 -1.26651 -0.937939 0
M  V30 1607 C 153.493 -1.11775 -1.67897 0
M  V30 1608 C 153.806 0.33794 -1.92659 0
M  V30 1609 O 155.012 0.607434 -2.64618 0
M  V30 1610 C 153.468 -1.9523 -3.02346 0
M  V30 1611 C 153.076 -3.45393 -2.8532 0
M  V30 1612 C 154.82 -1.88972 -3.80118 0
M  V30 1613 C 152.727 -4.21083 -4.15263 0
M  V30 1614 H 151.657 -0.414696 -0.629717 0
M  V30 1615 H 154.308 -1.50988 -1.04283 0
M  V30 1616 H 152.69 -1.48853 -3.66959 0
M  V30 1617 H 153.864 -3.99561 -2.29537 0
M  V30 1618 H 152.179 -3.52921 -2.20988 0
M  V30 1619 H 154.776 -2.42805 -4.76392 0
M  V30 1620 H 155.119 -0.86113 -4.07296 0
M  V30 1621 H 155.652 -2.33189 -3.22285 0
M  V30 1622 H 152.391 -5.24425 -3.93267 0
M  V30 1623 H 151.911 -3.71695 -4.70747 0
M  V30 1624 H 153.59 -4.29706 -4.83696 0
M  V30 1625 N 153.722 1.14298 -1.08507 0
M  V30 1626 C 154.685 2.17607 -0.719711 0
M  V30 1627 C 155.685 1.58907 0.245997 0
M  V30 1628 O 156.875 1.74181 0.0254081 0
M  V30 1629 C 154.007 3.40842 -0.0627695 0
M  V30 1630 H 155.2 2.51443 -1.63452 0
M  V30 1631 H 152.753 1.28963 -0.88307 0
M  V30 1632 H 153.488 3.12587 0.863716 0
M  V30 1633 H 153.273 3.84713 -0.757504 0
M  V30 1634 H 154.763 4.17221 0.177786 0
M  V30 1635 N 155.201 0.870884 1.31352 0
M  V30 1636 C 156.164 0.332243 2.26779 0
M  V30 1637 C 157.164 -0.517302 1.52252 0
M  V30 1638 O 158.354 -0.326477 1.71113 0
M  V30 1639 C 155.486 -0.528066 3.36785 0
M  V30 1640 H 156.679 1.17469 2.75937 0
M  V30 1641 H 154.232 0.64655 1.423 0
M  V30 1642 H 154.967 -1.39167 2.92922 0
M  V30 1643 H 154.752 0.0802582 3.92018 0
M  V30 1644 H 156.242 -0.897179 4.07849 0
M  V30 1645 N 156.679 -1.44442 0.630414 0
M  V30 1646 C 157.642 -2.29107 -0.0652523 0
M  V30 1647 C 158.642 -1.41002 -0.772995 0
M  V30 1648 O 159.832 -1.62881 -0.617692 0
M  V30 1649 C 156.964 -3.22564 -1.10296 0
M  V30 1650 H 158.157 -2.92103 0.679401 0
M  V30 1651 H 155.71 -1.51343 0.390517 0
M  V30 1652 H 156.445 -2.64416 -1.87762 0
M  V30 1653 H 156.23 -3.87491 -0.59941 0
M  V30 1654 H 157.72 -3.86167 -1.5895 0
M  V30 1655 N 158.157 -0.370918 -1.53173 0
M  V30 1656 C 159.406 0.218249 -2.00516 0
M  V30 1657 C 159.719 1.49429 -1.26215 0
M  V30 1658 O 160.925 2.16239 -1.64174 0
M  V30 1659 C 159.381 0.43948 -3.57207 0
M  V30 1660 C 158.989 -0.822244 -4.4039 0
M  V30 1661 C 160.733 0.986012 -4.1289 0
M  V30 1662 C 158.64 -0.570304 -5.88644 0
M  V30 1663 H 157.57 0.0853333 -0.749156 0
M  V30 1664 H 160.221 -0.490483 -1.76823 0
M  V30 1665 H 158.603 1.20961 -3.77074 0
M  V30 1666 H 159.777 -1.59557 -4.32294 0
M  V30 1667 H 158.092 -1.29238 -3.95836 0
M  V30 1668 H 160.689 1.18991 -5.21292 0
M  V30 1669 H 161.032 1.94972 -3.6782 0
M  V30 1670 H 161.565 0.27592 -3.96842 0
M  V30 1671 H 158.304 -1.50449 -6.38001 0
M  V30 1672 H 157.824 0.164427 -5.99575 0
M  V30 1673 H 159.503 -0.19784 -6.46697 0
M  V30 1674 N 159.635 1.57281 -0.100228 0
M  V30 1675 C 160.881 1.95626 0.556946 0
M  V30 1676 C 161.236 0.981655 1.65473 0
M  V30 1677 O 160.529 0.00849847 1.91598 0
M  V30 1678 C 160.723 3.38305 1.15259 0
M  V30 1679 C 160.552 4.49555 0.114035 0
M  V30 1680 C 159.322 5.0434 -0.311266 0
M  V30 1681 C 161.52 5.10051 -0.659768 0
M  V30 1682 N 159.502 5.99152 -1.33755 0
M  V30 1683 C 160.873 6.00628 -1.53774 0
M  V30 1684 C 162.928 4.92772 -0.712723 0
M  V30 1685 C 161.631 6.7578 -2.46403 0
M  V30 1686 C 163.657 5.6859 -1.62663 0
M  V30 1687 C 163.019 6.58838 -2.49222 0
M  V30 1688 H 159.118 0.7624 0.173982 0
M  V30 1689 H 161.702 1.93829 -0.183988 0
M  V30 1690 H 159.873 3.40786 1.86332 0
M  V30 1691 H 161.605 3.63817 1.77254 0
M  V30 1692 H 158.36 4.73537 0.0774812 0
M  V30 1693 H 158.784 6.5126 -1.84905 0
M  V30 1694 H 163.426 4.22761 -0.0576648 0
M  V30 1695 H 161.144 7.4505 -3.12931 0
M  V30 1696 H 164.73 5.57233 -1.67281 0
M  V30 1697 H 163.61 7.16479 -3.18791 0
M  V30 1698 N 161.113 -0.173488 1.56642 0
M  V30 1699 C 162.361 -0.888706 1.81512 0
M  V30 1700 C 162.682 -1.82875 0.676872 0
M  V30 1701 O 161.952 -1.93536 -0.303414 0
M  V30 1702 H 160.532 -0.331164 0.669582 0
M  V30 1703 H 163.194 -0.173823 1.94123 0
M  V30 1704 H 162.29 -1.46691 2.75478 0
M  V30 1705 N 162.591 -1.51276 -0.441967 0
M  V30 1706 C 163.821 -1.67273 -1.21257 0
M  V30 1707 C 164.229 -0.367624 -1.85594 0
M  V30 1708 O 163.572 0.663349 -1.71305 0
M  V30 1709 C 163.634 -2.72807 -2.34129 0
M  V30 1710 C 163.298 -4.1554 -1.90198 0
M  V30 1711 C 164.295 -5.00471 -1.40801 0
M  V30 1712 C 161.98 -4.61616 -1.9803 0
M  V30 1713 C 163.974 -6.29536 -0.998174 0
M  V30 1714 C 161.661 -5.90679 -1.56658 0
M  V30 1715 C 162.659 -6.74466 -1.07633 0
M  V30 1716 O 162.347 -8.01116 -0.668459 0
M  V30 1717 H 162.079 -0.564614 -0.371734 0
M  V30 1718 H 164.633 -1.9843 -0.530521 0
M  V30 1719 H 162.863 -2.36954 -3.05597 0
M  V30 1720 H 164.552 -2.77729 -2.96009 0
M  V30 1721 H 165.318 -4.66079 -1.34148 0
M  V30 1722 H 161.197 -3.96526 -2.35135 0
M  V30 1723 H 164.741 -6.94885 -0.61482 0
M  V30 1724 H 160.638 -6.24586 -1.62979 0
M  V30 1725 H 161.406 -8.14633 -0.794722 0
M  V30 1726 N 164.069 0.697108 -1.41344 0
M  V30 1727 C 165.294 1.49096 -1.44171 0
M  V30 1728 C 165.719 1.88038 -0.0481568 0
M  V30 1729 O 165.077 1.54525 0.948243 0
M  V30 1730 C 165.125 2.73088 -2.3549 0
M  V30 1731 O 164.229 3.70514 -1.81088 0
M  V30 1732 H 163.57 0.448801 -0.489361 0
M  V30 1733 H 166.1 0.856992 -1.85787 0
M  V30 1734 H 166.11 3.21413 -2.51312 0
M  V30 1735 H 164.785 2.44081 -3.36745 0
M  V30 1736 H 163.362 3.29441 -1.74708 0
M  V30 1737 N 165.547 1.27147 0.931209 0
M  V30 1738 C 166.497 1.06227 2.01742 0
M  V30 1739 C 167.481 -0.00859065 1.60898 0
M  V30 1740 O 168.673 0.209537 1.75755 0
M  V30 1741 C 165.802 0.707787 3.35924 0
M  V30 1742 C 164.888 1.81661 3.83223 0
M  V30 1743 N 165.279 3.05564 4.03069 0
M  V30 1744 C 163.577 1.70249 4.12227 0
M  V30 1745 C 164.278 3.77697 4.42403 0
M  V30 1746 N 163.254 3.0544 4.49675 0
M  V30 1747 H 167.056 2.00261 2.15111 0
M  V30 1748 H 164.57 1.1781 1.11779 0
M  V30 1749 H 166.567 0.539043 4.134 0
M  V30 1750 H 165.227 -0.224964 3.2392 0
M  V30 1751 H 166.238 3.41363 3.89476 0
M  V30 1752 H 162.915 0.840329 4.08956 0
M  V30 1753 H 164.305 4.84168 4.65866 0
M  V30 1754 N 167.025 -1.13721 1.09112 0
M  V30 1755 C 167.972 -2.19031 0.727591 0
M  V30 1756 C 168.942 -1.63555 -0.289656 0
M  V30 1757 O 170.127 -1.90023 -0.172026 0
M  V30 1758 C 167.267 -3.4477 0.15082 0
M  V30 1759 C 166.38 -4.14365 1.22172 0
M  V30 1760 C 165.515 -5.27709 0.608042 0
M  V30 1761 C 164.554 -5.89147 1.66047 0
M  V30 1762 N 163.691 -6.93929 1.06806 0
M  V30 1763 H 168.531 -2.49475 1.62991 0
M  V30 1764 H 166.068 -1.22499 0.81439 0
M  V30 1765 H 168.026 -4.16714 -0.201358 0
M  V30 1766 H 166.656 -3.14787 -0.714783 0
M  V30 1767 H 165.708 -3.40737 1.69122 0
M  V30 1768 H 167.02 -4.56114 2.01895 0
M  V30 1769 H 166.174 -6.06355 0.204523 0
M  V30 1770 H 164.913 -4.872 -0.220769 0
M  V30 1771 H 163.918 -5.09198 2.07357 0
M  V30 1772 H 165.143 -6.31729 2.49189 0
M  V30 1773 H 163.089 -6.55483 0.260476 0
M  V30 1774 H 163.006 -7.34202 1.8023 0
M  V30 1775 H 164.274 -7.76434 0.690644 0
M  V30 1776 N 168.503 -0.877838 -1.30888 0
M  V30 1777 C 169.78 -0.413052 -1.91189 0
M  V30 1778 C 170.16 1.1056 -1.79832 0
M  V30 1779 O 169.508 1.93771 -1.21099 0
M  V30 1780 C 169.718 -0.903191 -3.3711 0
M  V30 1781 C 171.066 -0.93395 -4.14201 0
M  V30 1782 O 172.09 -0.849373 -3.45925 0
M  V30 1783 O 170.949 -1.05772 -5.36167 0
M  V30 1784 H 168.043 -0.125035 -0.817493 0
M  V30 1785 H 170.589 -0.966269 -1.39504 0
M  V30 1786 H 169.361 -1.94692 -3.39427 0
M  V30 1787 H 168.984 -0.328732 -3.96239 0
M  V30 1788 N 169.982 1.44106 -0.638065 0
M  V30 1789 C 170.892 2.34513 0.0637334 0
M  V30 1790 C 171.908 1.53018 0.828346 0
M  V30 1791 O 173.084 1.85723 0.779036 0
M  V30 1792 C 170.149 3.31095 1.02844 0
M  V30 1793 C 169.21 4.28497 0.26244 0
M  V30 1794 C 168.443 5.20465 1.1812 0
M  V30 1795 O 168.666 5.16514 2.42011 0
M  V30 1796 O 167.6 5.98251 0.661774 0
M  V30 1797 H 171.426 2.95989 -0.68003 0
M  V30 1798 H 169.011 1.43994 -0.398252 0
M  V30 1799 H 170.893 3.90526 1.58327 0
M  V30 1800 H 169.568 2.72144 1.7527 0
M  V30 1801 H 168.475 3.72592 -0.335602 0
M  V30 1802 H 169.808 4.90388 -0.421936 0
M  V30 1803 N 171.46 0.379036 1.52974 0
M  V30 1804 C 172.706 -0.206727 2.01744 0
M  V30 1805 C 173.039 -1.47314 1.26539 0
M  V30 1806 O 172.314 -1.91084 0.362903 0
M  V30 1807 C 172.597 -0.485066 3.56818 0
M  V30 1808 C 172.45 0.795919 4.42702 0
M  V30 1809 C 173.769 -1.28003 4.21074 0
M  V30 1810 H 170.888 -0.0736607 0.73331 0
M  V30 1811 H 173.53 0.506581 1.83122 0
M  V30 1812 H 171.68 -1.09272 3.72816 0
M  V30 1813 H 173.352 1.43307 4.38476 0
M  V30 1814 H 171.595 1.41344 4.10127 0
M  V30 1815 H 172.266 0.555947 5.49193 0
M  V30 1816 H 174.742 -0.765867 4.08991 0
M  V30 1817 H 173.618 -1.44352 5.29579 0
M  V30 1818 H 173.879 -2.29236 3.78026 0
M  V30 1819 N 172.938 -1.57226 0.108567 0
M  V30 1820 C 174.187 -1.94008 -0.551703 0
M  V30 1821 C 174.5 -0.993442 -1.68494 0
M  V30 1822 O 175.706 -1.25551 -2.40726 0
M  V30 1823 C 174.162 -3.44763 -1.03279 0
M  V30 1824 C 173.77 -4.47943 0.0714193 0
M  V30 1825 C 175.514 -3.90483 -1.66503 0
M  V30 1826 C 173.421 -5.89865 -0.425779 0
M  V30 1827 H 172.351 -0.724206 -0.209863 0
M  V30 1828 H 175.002 -1.82547 0.186741 0
M  V30 1829 H 173.384 -3.51422 -1.82533 0
M  V30 1830 H 174.558 -4.52942 0.847365 0
M  V30 1831 H 172.873 -4.11913 0.609669 0
M  V30 1832 H 175.47 -4.93925 -2.04798 0
M  V30 1833 H 175.813 -3.29877 -2.53942 0
M  V30 1834 H 176.346 -3.86581 -0.938074 0
M  V30 1835 H 173.085 -6.54202 0.412316 0
M  V30 1836 H 172.605 -5.88309 -1.16843 0
M  V30 1837 H 174.284 -6.40844 -0.890397 0
M  V30 1838 N 174.416 0.165178 -1.56732 0
M  V30 1839 C 175.363 1.2044 -1.96883 0
M  V30 1840 C 176.333 1.43664 -0.833657 0
M  V30 1841 O 177.518 1.56302 -1.09427 0
M  V30 1842 C 174.658 2.53727 -2.33916 0
M  V30 1843 C 173.771 2.3783 -3.6064 0
M  V30 1844 C 172.906 3.64026 -3.86857 0
M  V30 1845 C 171.945 3.43088 -5.06909 0
M  V30 1846 N 171.082 4.61369 -5.29229 0
M  V30 1847 H 175.922 0.854996 -2.85471 0
M  V30 1848 H 173.459 0.41076 -1.41249 0
M  V30 1849 H 175.417 3.31419 -2.53411 0
M  V30 1850 H 174.047 2.8665 -1.48431 0
M  V30 1851 H 173.099 1.51282 -3.49024 0
M  V30 1852 H 174.411 2.18308 -4.4849 0
M  V30 1853 H 173.565 4.50152 -4.06753 0
M  V30 1854 H 172.304 3.86533 -2.97394 0
M  V30 1855 H 171.309 2.55349 -4.86906 0
M  V30 1856 H 172.534 3.21997 -5.97909 0
M  V30 1857 H 170.48 4.84084 -4.42718 0
M  V30 1858 H 170.397 4.44783 -6.11313 0
M  V30 1859 H 171.665 5.48761 -5.53608 0
M  V30 1860 N 175.894 1.51508 0.433938 0
M  V30 1861 C 176.804 1.75917 1.5521 0
M  V30 1862 C 177.82 0.643545 1.61662 0
M  V30 1863 O 178.996 0.926183 1.7884 0
M  V30 1864 C 176.061 1.88213 2.91164 0
M  V30 1865 C 175.122 3.12074 2.94802 0
M  V30 1866 C 174.355 3.23774 4.24271 0
M  V30 1867 O 174.578 2.4133 5.16833 0
M  V30 1868 O 173.512 4.16774 4.34262 0
M  V30 1869 H 177.338 2.70777 1.37527 0
M  V30 1870 H 174.923 1.36051 0.617293 0
M  V30 1871 H 176.805 1.98267 3.71845 0
M  V30 1872 H 175.48 0.965413 3.08968 0
M  V30 1873 H 174.387 3.07497 2.13065 0
M  V30 1874 H 175.72 4.03446 2.81943 0
M  V30 1875 N 177.372 -0.689602 1.41712 0
M  V30 1876 C 178.618 -1.45181 1.41599 0
M  V30 1877 C 178.951 -1.94181 0.0270081 0
M  V30 1878 O 178.226 -1.6993 -0.946265 0
M  V30 1879 C 178.509 -2.65945 2.42787 0
M  V30 1880 C 178.362 -2.22672 3.90816 0
M  V30 1881 C 179.681 -3.68149 2.41151 0
M  V30 1882 H 176.8 -0.526576 0.515642 0
M  V30 1883 H 179.442 -0.784947 1.73028 0
M  V30 1884 H 177.592 -3.2284 2.16116 0
M  V30 1885 H 179.264 -1.71058 4.28412 0
M  V30 1886 H 177.507 -1.54394 4.05395 0
M  V30 1887 H 178.178 -3.0935 4.57172 0
M  V30 1888 H 180.654 -3.2094 2.64834 0
M  V30 1889 H 179.53 -4.50248 3.13955 0
M  V30 1890 H 179.791 -4.18259 1.43221 0
M  V30 1891 N 178.85 -1.27639 -0.924453 0
M  V30 1892 C 179.782 -1.06442 -2.02985 0
M  V30 1893 C 180.795 -0.0194771 -1.62788 0
M  V30 1894 O 181.984 -0.261388 -1.76576 0
M  V30 1895 C 179.084 -0.59327 -3.33667 0
M  V30 1896 C 178.257 -1.71123 -4.02537 0
M  V30 1897 C 177.316 -1.23527 -5.11495 0
M  V30 1898 O 176.342 -1.93553 -5.35281 0
M  V30 1899 N 177.544 -0.0926678 -5.80426 0
M  V30 1900 H 180.309 -2.01633 -2.2173 0
M  V30 1901 H 177.87 -1.19248 -1.09505 0
M  V30 1902 H 179.862 -0.258686 -4.03872 0
M  V30 1903 H 178.432 0.265502 -3.1147 0
M  V30 1904 H 177.652 -2.21593 -3.26022 0
M  V30 1905 H 178.94 -2.46145 -4.45298 0
M  V30 1906 H 178.338 0.491741 -5.63559 0
M  V30 1907 H 176.895 0.182714 -6.51544 0
M  V30 1908 N 180.328 1.1314 -1.09713 0
M  V30 1909 C 181.238 2.22242 -0.751367 0
M  V30 1910 C 182.254 1.72224 0.247938 0
M  V30 1911 O 183.43 2.01205 0.0885463 0
M  V30 1912 C 180.495 3.46231 -0.180274 0
M  V30 1913 C 179.556 4.11125 -1.2359 0
M  V30 1914 C 178.789 5.29195 -0.691966 0
M  V30 1915 O 179.012 5.68342 0.48414 0
M  V30 1916 O 177.946 5.84214 -1.44838 0
M  V30 1917 H 181.772 2.54197 -1.66186 0
M  V30 1918 H 179.357 1.21331 -0.871735 0
M  V30 1919 H 181.239 4.21185 0.134739 0
M  V30 1920 H 179.914 3.1597 0.703185 0
M  V30 1921 H 178.821 3.37985 -1.60366 0
M  V30 1922 H 180.154 4.45524 -2.09211 0
M  V30 1923 N 181.806 0.884767 1.30421 0
M  V30 1924 C 183.053 0.503105 1.96151 0
M  V30 1925 C 183.381 -0.947676 1.69851 0
M  V30 1926 O 182.636 -1.68467 0.995861 0
M  V30 1927 C 182.935 0.724318 3.49983 0
M  V30 1928 C 182.601 2.15015 3.96332 0
M  V30 1929 C 181.263 2.54005 4.08699 0
M  V30 1930 C 183.615 3.07936 4.20505 0
M  V30 1931 C 180.943 3.85128 4.42599 0
M  V30 1932 C 183.295 4.3859 4.55874 0
M  V30 1933 C 181.959 4.77474 4.66449 0
M  V30 1934 H 181.229 0.184099 0.717766 0
M  V30 1935 H 183.876 1.12058 1.55291 0
M  V30 1936 H 182.181 0.0238086 3.91793 0
M  V30 1937 H 183.878 0.408617 3.98913 0
M  V30 1938 H 180.468 1.8375 3.87213 0
M  V30 1939 H 184.652 2.79033 4.10431 0
M  V30 1940 H 179.908 4.14996 4.48986 0
M  V30 1941 H 184.082 5.10629 4.7353 0
M  V30 1942 H 181.709 5.79115 4.92473 0
M  V30 1943 N 183.284 -1.43765 0.645699 0
M  V30 1944 C 184.514 -2.05953 0.163318 0
M  V30 1945 C 184.922 -1.48432 -1.17322 0
M  V30 1946 O 184.265 -0.607295 -1.73371 0
M  V30 1947 C 184.327 -3.59499 -0.0103065 0
M  V30 1948 C 183.991 -4.39563 1.25035 0
M  V30 1949 C 184.988 -4.72108 2.17739 0
M  V30 1950 C 182.673 -4.79697 1.48983 0
M  V30 1951 C 184.667 -5.43688 3.3269 0
M  V30 1952 C 182.354 -5.51023 2.64229 0
M  V30 1953 C 183.352 -5.8294 3.55908 0
M  V30 1954 O 183.04 -6.5281 4.69142 0
M  V30 1955 H 182.772 -0.670798 0.0836986 0
M  V30 1956 H 185.326 -1.85384 0.884407 0
M  V30 1957 H 183.556 -3.78613 -0.78669 0
M  V30 1958 H 185.245 -4.03408 -0.449087 0
M  V30 1959 H 186.011 -4.41627 2.00476 0
M  V30 1960 H 181.89 -4.54266 0.785078 0
M  V30 1961 H 185.434 -5.68517 4.04269 0
M  V30 1962 H 181.331 -5.8092 2.81429 0
M  V30 1963 H 182.099 -6.71288 4.6831 0
M  V30 1964 N 184.763 -0.387143 -1.52771 0
M  V30 1965 C 185.71 0.449048 -2.26389 0
M  V30 1966 C 186.68 1.05961 -1.27912 0
M  V30 1967 O 187.865 1.08804 -1.56737 0
M  V30 1968 C 185.005 1.57155 -3.0724 0
M  V30 1969 C 184.118 0.984066 -4.20643 0
M  V30 1970 C 183.253 2.07745 -4.88892 0
M  V30 1971 C 182.292 1.46574 -5.94292 0
M  V30 1972 N 181.429 2.49834 -6.56146 0
M  V30 1973 H 186.269 -0.185205 -2.97424 0
M  V30 1974 H 183.806 -0.103164 -1.46738 0
M  V30 1975 H 185.764 2.23309 -3.52405 0
M  V30 1976 H 184.394 2.17615 -2.38419 0
M  V30 1977 H 183.446 0.212193 -3.79808 0
M  V30 1978 H 184.758 0.497029 -4.96318 0
M  V30 1979 H 183.912 2.81673 -5.3735 0
M  V30 1980 H 182.651 2.59807 -4.12737 0
M  V30 1981 H 181.656 0.711696 -5.45174 0
M  V30 1982 H 182.881 0.953088 -6.72379 0
M  V30 1983 H 180.827 3.0107 -5.82832 0
M  V30 1984 H 180.744 2.05879 -7.27427 0
M  V30 1985 H 182.012 3.23399 -7.09249 0
M  V30 1986 N 186.241 1.57166 -0.116904 0
M  V30 1987 C 187.518 1.86645 0.585049 0
M  V30 1988 C 187.898 1.0177 1.84949 0
M  V30 1989 O 187.246 0.0960379 2.28298 0
M  V30 1990 C 187.456 3.37736 0.879507 0
M  V30 1991 C 188.804 4.06289 1.23348 0
M  V30 1992 O 189.828 3.42743 0.969836 0
M  V30 1993 O 188.687 5.18455 1.7282 0
M  V30 1994 H 185.781 0.772593 0.295007 0
M  V30 1995 H 188.327 1.69025 -0.151249 0
M  V30 1996 H 187.099 3.91296 -0.0166136 0
M  V30 1997 H 186.722 3.6078 1.67103 0
M  V30 1998 N 187.719 -0.156864 1.56817 0
M  V30 1999 C 188.947 -0.886316 1.86955 0
M  V30 2000 C 189.362 -1.75185 0.703975 0
M  V30 2001 O 188.719 -1.79555 -0.326552 0
M  V30 2002 C 188.77 -1.75117 3.16253 0
M  V30 2003 O 188.491 -0.920537 4.2832 0
M  V30 2004 C 189.992 -2.58905 3.59837 0
M  V30 2005 H 187.212 -0.25678 0.619923 0
M  V30 2006 H 189.756 -0.152615 2.0393 0
M  V30 2007 H 187.911 -2.43805 3.01062 0
M  V30 2008 H 188.325 -1.51337 5.02192 0
M  V30 2009 H 189.799 -3.1518 4.53172 0
M  V30 2010 H 190.276 -3.34472 2.84649 0
M  V30 2011 H 190.882 -1.95526 3.7769 0
M  V30 2012 N 189.197 -1.51736 -0.425897 0
M  V30 2013 C 190.427 -1.68549 -1.19476 0
M  V30 2014 C 190.835 -0.387288 -1.85194 0
M  V30 2015 O 190.178 0.645142 -1.71999 0
M  V30 2016 C 190.24 -2.75275 -2.31223 0
M  V30 2017 C 189.904 -4.17534 -1.8578 0
M  V30 2018 C 190.901 -5.01936 -1.35485 0
M  V30 2019 C 188.586 -4.6369 -1.93123 0
M  V30 2020 C 190.58 -6.30559 -0.931347 0
M  V30 2021 C 188.267 -5.92307 -1.50384 0
M  V30 2022 C 189.265 -6.75569 -1.00473 0
M  V30 2023 O 188.953 -8.0178 -0.583452 0
M  V30 2024 H 188.685 -0.568525 -0.365725 0
M  V30 2025 H 191.239 -1.98982 -0.509444 0
M  V30 2026 H 189.469 -2.40182 -3.03067 0
M  V30 2027 H 191.158 -2.80853 -2.93047 0
M  V30 2028 H 191.924 -4.67475 -1.29197 0
M  V30 2029 H 187.803 -3.98997 -2.30916 0
M  V30 2030 H 191.347 -6.95498 -0.541084 0
M  V30 2031 H 187.244 -6.2628 -1.56346 0
M  V30 2032 H 188.012 -8.1543 -0.708275 0
M  V30 2033 N 190.675 0.682077 -1.42076 0
M  V30 2034 C 191.623 1.81707 -1.45208 0
M  V30 2035 C 192.617 1.66183 -0.328591 0
M  V30 2036 O 193.823 1.7288 -0.501264 0
M  V30 2037 H 190.198 0.599014 -0.454628 0
M  V30 2038 H 192.169 1.76183 -2.40836 0
M  V30 2039 C 190.918 3.19816 -1.36428 0
M  V30 2040 H 190.241 3.32385 -2.22171 0
M  V30 2041 H 191.681 3.99272 -1.42681 0
M  V30 2042 C 190.14 3.36809 -0.078191 0
M  V30 2043 O 190.67 3.92124 0.87188 0
M  V30 2044 N 188.876 2.906 0.00229266 0
M  V30 2045 H 188.423 2.45772 -0.771616 0
M  V30 2046 H 188.381 3.02347 0.862179 0
M  V30 2047 N 192.153 1.28127 0.917671 0
M  V30 2048 C 193.1 1.11717 2.0196 0
M  V30 2049 C 194.07 0.0153929 1.66093 0
M  V30 2050 O 195.255 0.179596 1.89953 0
M  V30 2051 C 192.395 0.780927 3.36148 0
M  V30 2052 C 191.508 1.96135 3.84909 0
M  V30 2053 C 190.643 1.56609 5.0759 0
M  V30 2054 C 189.682 2.71339 5.48673 0
M  V30 2055 N 188.819 2.32332 6.62545 0
M  V30 2056 H 193.659 2.06003 2.15329 0
M  V30 2057 H 191.196 1.02535 1.05475 0
M  V30 2058 H 193.154 0.56675 4.13333 0
M  V30 2059 H 191.784 -0.124998 3.22558 0
M  V30 2060 H 190.836 2.28777 3.03916 0
M  V30 2061 H 192.148 2.82165 4.1132 0
M  V30 2062 H 191.302 1.31374 5.92305 0
M  V30 2063 H 190.041 0.677014 4.82978 0
M  V30 2064 H 189.046 2.97276 4.62501 0
M  V30 2065 H 190.271 3.60882 5.75274 0
M  V30 2066 H 188.217 1.45889 6.39572 0
M  V30 2067 H 188.134 3.11899 6.88662 0
M  V30 2068 H 189.402 2.10371 7.50576 0
M  V30 2069 N 193.631 -1.12557 1.10312 0
M  V30 2070 C 194.561 -2.20341 0.772798 0
M  V30 2071 C 195.542 -1.68198 -0.25365 0
M  V30 2072 O 196.727 -1.93831 -0.119699 0
M  V30 2073 C 193.857 -3.46709 0.202443 0
M  V30 2074 C 192.811 -4.11996 1.15943 0
M  V30 2075 C 192.137 -5.328 0.450345 0
M  V30 2076 C 193.437 -4.5828 2.50552 0
M  V30 2077 H 195.131 -2.48229 1.674 0
M  V30 2078 H 192.677 -1.19308 0.806326 0
M  V30 2079 H 194.63 -4.2138 -0.0407752 0
M  V30 2080 H 193.354 -3.18245 -0.734001 0
M  V30 2081 H 192.013 -3.39305 1.38808 0
M  V30 2082 H 191.661 -5.00602 -0.490531 0
M  V30 2083 H 191.361 -5.7743 1.08851 0
M  V30 2084 H 192.885 -6.10219 0.215642 0
M  V30 2085 H 194.299 -5.2433 2.31843 0
M  V30 2086 H 192.696 -5.13683 3.10242 0
M  V30 2087 H 193.766 -3.72329 3.10643 0
M  V30 2088 N 195.109 -0.891671 -1.2995 0
M  V30 2089 C 196.056 -0.361736 -2.27948 0
M  V30 2090 C 197.026 0.551761 -1.56668 0
M  V30 2091 O 198.211 0.478736 -1.84696 0
M  V30 2092 C 195.351 0.411825 -3.42634 0
M  V30 2093 C 194.464 -0.531651 -4.28716 0
M  V30 2094 C 193.599 0.258167 -5.30572 0
M  V30 2095 C 192.638 -0.680349 -6.08307 0
M  V30 2096 N 191.775 0.0745613 -7.0206 0
M  V30 2097 H 196.615 -1.20254 -2.72659 0
M  V30 2098 H 194.152 -0.604352 -1.34112 0
M  V30 2099 H 196.11 0.876304 -4.07893 0
M  V30 2100 H 194.74 1.21715 -2.98974 0
M  V30 2101 H 193.792 -1.11463 -3.63703 0
M  V30 2102 H 195.104 -1.25038 -4.82874 0
M  V30 2103 H 194.258 0.784204 -6.0161 0
M  V30 2104 H 192.997 1.01008 -4.77126 0
M  V30 2105 H 192.002 -1.21796 -5.3614 0
M  V30 2106 H 193.227 -1.43145 -6.63842 0
M  V30 2107 H 191.173 0.808883 -6.50994 0
M  V30 2108 H 191.09 -0.584409 -7.53738 0
M  V30 2109 H 192.358 0.581123 -7.77331 0
M  V30 2110 N 196.587 1.43421 -0.653314 0
M  V30 2111 C 197.815 2.06163 -0.174491 0
M  V30 2112 C 198.23 1.48969 1.1599 0
M  V30 2113 O 197.587 0.621042 1.71608 0
M  V30 2114 C 197.638 3.61417 -0.0774865 0
M  V30 2115 O 197.359 4.16485 -1.35912 0
M  V30 2116 C 198.86 4.41235 0.427402 0
M  V30 2117 H 196.08 0.664946 -0.0899353 0
M  V30 2118 H 198.624 1.83924 -0.893988 0
M  V30 2119 H 196.779 3.82841 0.59257 0
M  V30 2120 H 197.193 5.10153 -1.21839 0
M  V30 2121 H 198.667 5.5021 0.44423 0
M  V30 2122 H 199.144 4.14268 1.45873 0
M  V30 2123 H 199.75 4.2478 -0.210167 0
M  V30 2124 N 198.065 0.39524 1.52563 0
M  V30 2125 C 199.012 -0.437036 2.26624 0
M  V30 2126 C 199.982 -1.05281 1.28472 0
M  V30 2127 O 201.167 -1.07971 1.57311 0
M  V30 2128 C 198.307 -1.55524 3.08069 0
M  V30 2129 C 197.42 -0.961745 4.21158 0
M  V30 2130 C 196.555 -2.05149 4.89987 0
M  V30 2131 C 195.594 -1.4342 5.95061 0
M  V30 2132 N 194.731 -2.46351 6.57462 0
M  V30 2133 H 199.571 0.200976 2.97322 0
M  V30 2134 H 197.108 0.110944 1.46681 0
M  V30 2135 H 199.066 -2.21437 3.53584 0
M  V30 2136 H 197.696 -2.16348 2.3957 0
M  V30 2137 H 196.748 -0.192048 3.79915 0
M  V30 2138 H 198.06 -0.470701 4.96574 0
M  V30 2139 H 197.214 -2.78819 5.38837 0
M  V30 2140 H 195.953 -2.57615 4.14109 0
M  V30 2141 H 194.958 -0.682774 5.45544 0
M  V30 2142 H 196.183 -0.917416 6.72875 0
M  V30 2143 H 194.129 -2.97975 5.8442 0
M  V30 2144 H 194.046 -2.02019 7.28508 0
M  V30 2145 H 195.314 -3.19633 7.10954 0
M  V30 2146 N 199.544 -1.57102 0.125237 0
M  V30 2147 C 200.821 -1.86953 -0.575142 0
M  V30 2148 C 201.201 -1.02749 -1.84407 0
M  V30 2149 O 200.549 -0.108144 -2.28244 0
M  V30 2150 C 200.759 -3.38198 -0.861583 0
M  V30 2151 C 202.107 -4.06937 -1.21192 0
M  V30 2152 O 203.131 -3.43252 -0.951645 0
M  V30 2153 O 201.99 -5.19364 -1.70068 0
M  V30 2154 H 199.084 -0.774147 -0.290906 0
M  V30 2155 H 201.63 -1.68942 0.160211 0
M  V30 2156 H 200.402 -3.91282 0.0373647 0
M  V30 2157 H 200.025 -3.61661 -1.65188 0
M  V30 2158 N 201.022 0.148545 -1.56898 0
M  V30 2159 C 201.932 1.20293 -2.01412 0
M  V30 2160 C 202.948 1.47107 -0.929273 0
M  V30 2161 O 204.124 1.58807 -1.23863 0
M  V30 2162 C 201.189 2.51682 -2.38447 0
M  V30 2163 C 200.25 2.32529 -3.60872 0
M  V30 2164 C 199.483 3.57653 -3.96132 0
M  V30 2165 O 199.706 4.63771 -3.32073 0
M  V30 2166 O 198.64 3.50408 -4.89385 0
M  V30 2167 H 202.466 0.855025 -2.91416 0
M  V30 2168 H 200.051 0.357151 -1.45068 0
M  V30 2169 H 201.933 3.29147 -2.63135 0
M  V30 2170 H 200.608 2.86006 -1.51599 0
M  V30 2171 H 199.515 1.53019 -3.41373 0
M  V30 2172 H 200.848 2.03121 -4.48333 0
M  V30 2173 N 202.5 1.5196 0.417844 0
M  V30 2174 C 203.911 1.57851 0.997 0
M  V30 2175 C 204.262 0.413714 1.91789 0
M  V30 2176 O 203.387 -0.467057 2.113 0
M  V30 2177 C 203.982 2.86085 1.81496 0
M  V30 2178 C 202.541 2.94483 2.34428 0
M  V30 2179 C 201.688 2.52707 1.14169 0
M  V30 2180 H 204.639 1.57455 0.198392 0
M  V30 2181 H 204.66 2.70947 2.67148 0
M  V30 2182 H 204.172 3.70842 1.14446 0
M  V30 2183 H 202.273 2.142 3.04875 0
M  V30 2184 H 202.386 3.98546 2.65891 0
M  V30 2185 H 200.75 2.06353 1.49301 0
M  V30 2186 H 201.533 3.39828 0.486999 0
M  V30 2187 N 203.978 -0.674533 1.42435 0
M  V30 2188 C 204.91 -1.80005 1.41883 0
M  V30 2189 C 205.923 -1.59667 0.31787 0
M  V30 2190 O 207.112 -1.68781 0.580973 0
M  V30 2191 C 204.212 -3.17114 1.19549 0
M  V30 2192 C 203.385 -3.64299 2.42084 0
M  V30 2193 C 202.444 -4.80142 2.15291 0
M  V30 2194 O 201.47 -4.90673 2.88493 0
M  V30 2195 N 202.672 -5.68869 1.1562 0
M  V30 2196 H 205.437 -1.80964 2.38898 0
M  V30 2197 H 202.998 -0.857633 1.37318 0
M  V30 2198 H 204.99 -3.92267 0.995417 0
M  V30 2199 H 203.56 -3.11053 0.310569 0
M  V30 2200 H 202.78 -2.79822 2.77657 0
M  V30 2201 H 204.068 -3.92567 3.23679 0
M  V30 2202 H 203.466 -5.63012 0.550765 0
M  V30 2203 H 202.023 -6.43833 1.016 0
M  V30 2204 N 205.456 -1.28612 -0.910864 0
M  V30 2205 C 206.872 -1.06381 -1.18976 0
M  V30 2206 C 207.072 0.191998 -2.00583 0
M  V30 2207 O 206.128 0.892869 -2.36187 0
M  V30 2208 C 207.441 -2.31295 -1.92154 0
M  V30 2209 C 208.989 -2.36503 -2.05025 0
M  V30 2210 C 209.464 -3.61191 -2.81612 0
M  V30 2211 N 210.955 -3.61847 -2.89172 0
M  V30 2212 C 211.69 -4.55004 -3.4894 0
M  V30 2213 N 211.186 -5.58482 -4.09963 0
M  V30 2214 N 212.979 -4.42594 -3.46506 0
M  V30 2215 H 205.13 -2.09221 -0.366094 0
M  V30 2216 H 207.393 -0.921003 -0.224629 0
M  V30 2217 H 207.099 -3.228 -1.39618 0
M  V30 2218 H 206.973 -2.37934 -2.9269 0
M  V30 2219 H 209.36 -1.45494 -2.5674 0
M  V30 2220 H 209.441 -2.33857 -1.03657 0
M  V30 2221 H 209.085 -4.52545 -2.30576 0
M  V30 2222 H 209.015 -3.61092 -3.83302 0
M  V30 2223 H 211.506 -2.87022 -2.45819 0
M  V30 2224 H 211.819 -6.25704 -4.53557 0
M  V30 2225 H 210.164 -5.62305 -4.08459 0
M  V30 2226 H 213.355 -3.60953 -2.98045 0
M  V30 2227 H 213.528 -5.15381 -3.92793 0
M  V30 2228 N 206.934 1.1197 -1.10907 0
M  V30 2229 C 207.844 2.21433 -0.774896 0
M  V30 2230 C 208.86 1.72478 0.229657 0
M  V30 2231 O 210.036 2.01288 0.0672008 0
M  V30 2232 C 207.101 3.4602 -0.216986 0
M  V30 2233 C 206.162 4.09791 -1.27944 0
M  V30 2234 C 205.395 5.28431 -0.748055 0
M  V30 2235 O 205.618 5.68823 0.423833 0
M  V30 2236 O 204.552 5.82644 -1.51027 0
M  V30 2237 H 208.378 2.5242 -1.68873 0
M  V30 2238 H 205.963 1.20399 -0.884555 0
M  V30 2239 H 207.845 4.21304 0.090059 0
M  V30 2240 H 206.52 3.16698 0.669633 0
M  V30 2241 H 205.427 3.36265 -1.63941 0
M  V30 2242 H 206.76 4.4328 -2.13925 0
M  V30 2243 N 208.412 0.89855 1.29475 0
M  V30 2244 C 209.64 0.539261 1.99749 0
M  V30 2245 C 210.055 -0.875716 1.67262 0
M  V30 2246 O 209.412 -1.57786 0.917049 0
M  V30 2247 C 209.463 0.72061 3.54245 0
M  V30 2248 O 209.184 2.07989 3.8558 0
M  V30 2249 C 210.685 0.366118 4.41786 0
M  V30 2250 H 207.905 0.207047 0.638258 0
M  V30 2251 H 210.449 1.20758 1.65039 0
M  V30 2252 H 208.604 0.0994862 3.87272 0
M  V30 2253 H 209.018 2.10841 4.80257 0
M  V30 2254 H 210.492 0.543848 5.49314 0
M  V30 2255 H 210.969 -0.696763 4.33638 0
M  V30 2256 H 211.575 0.964135 4.14228 0
M  V30 2257 N 209.89 -1.43072 0.660911 0
M  V30 2258 C 210.82 -2.33497 -0.0122829 0
M  V30 2259 C 211.801 -1.49903 -0.803925 0
M  V30 2260 O 212.986 -1.78546 -0.763864 0
M  V30 2261 C 210.116 -3.33363 -0.973994 0
M  V30 2262 C 209.07 -4.27003 -0.291928 0
M  V30 2263 C 208.396 -5.16967 -1.36562 0
M  V30 2264 C 209.696 -5.15816 0.820462 0
M  V30 2265 H 211.39 -2.90038 0.742873 0
M  V30 2266 H 208.936 -1.39461 0.358688 0
M  V30 2267 H 210.889 -3.95524 -1.45392 0
M  V30 2268 H 209.613 -2.75095 -1.7604 0
M  V30 2269 H 208.272 -3.66217 0.167623 0
M  V30 2270 H 207.92 -4.55034 -2.14366 0
M  V30 2271 H 207.62 -5.80441 -0.914454 0
M  V30 2272 H 209.144 -5.82003 -1.84675 0
M  V30 2273 H 210.558 -5.71742 0.422366 0
M  V30 2274 H 208.955 -5.8805 1.19656 0
M  V30 2275 H 210.025 -4.55045 1.67518 0
M  V30 2276 N 211.368 -0.403325 -1.52352 0
M  V30 2277 C 212.315 0.425011 -2.26853 0
M  V30 2278 C 213.285 1.04598 -1.29029 0
M  V30 2279 O 214.47 1.07135 -1.57882 0
M  V30 2280 C 211.61 1.53888 -3.08889 0
M  V30 2281 C 210.723 0.939396 -4.21663 0
M  V30 2282 C 209.858 2.02547 -4.91068 0
M  V30 2283 C 208.897 1.40263 -5.95813 0
M  V30 2284 N 208.034 2.4286 -6.58759 0
M  V30 2285 H 212.874 -0.21674 -2.97211 0
M  V30 2286 H 210.411 -0.118722 -1.4662 0
M  V30 2287 H 212.369 2.19558 -3.54753 0
M  V30 2288 H 210.999 2.15074 -2.40714 0
M  V30 2289 H 210.051 0.171898 -3.80011 0
M  V30 2290 H 211.363 0.44436 -4.96817 0
M  V30 2291 H 210.517 2.75958 -5.40308 0
M  V30 2292 H 209.256 2.55415 -4.15469 0
M  V30 2293 H 208.261 0.653833 -5.45898 0
M  V30 2294 H 209.486 0.881719 -6.73352 0
M  V30 2295 H 207.432 2.94871 -5.85992 0
M  V30 2296 H 207.349 1.98152 -7.2957 0
M  V30 2297 H 208.617 3.15858 -7.12639 0
M  V30 2298 N 212.846 1.57033 -0.133567 0
M  V30 2299 C 213.809 2.14897 0.796995 0
M  V30 2300 C 214.809 1.0874 1.18458 0
M  V30 2301 O 215.999 1.34446 1.1077 0
M  V30 2302 C 213.131 2.70112 2.07973 0
M  V30 2303 H 214.324 2.98457 0.293873 0
M  V30 2304 H 211.877 1.55871 0.115787 0
M  V30 2305 H 212.612 1.9018 2.62682 0
M  V30 2306 H 212.397 3.47764 1.81115 0
M  V30 2307 H 213.887 3.14738 2.74462 0
M  V30 2308 N 214.325 -0.140222 1.56975 0
M  V30 2309 C 215.574 -0.850152 1.82908 0
M  V30 2310 C 215.887 -1.82028 0.715892 0
M  V30 2311 O 217.093 -2.57485 0.861016 0
M  V30 2312 C 215.549 -1.5625 3.24213 0
M  V30 2313 C 215.157 -0.63443 4.43485 0
M  V30 2314 C 216.901 -2.25881 3.59413 0
M  V30 2315 C 214.808 -1.34879 5.75814 0
M  V30 2316 H 213.738 -0.321221 0.682153 0
M  V30 2317 H 216.389 -0.102874 1.83211 0
M  V30 2318 H 214.771 -2.35565 3.18316 0
M  V30 2319 H 215.945 0.12398 4.60633 0
M  V30 2320 H 214.26 -0.0461836 4.16374 0
M  V30 2321 H 216.857 -2.79978 4.5554 0
M  V30 2322 H 217.2 -3.02693 2.85802 0
M  V30 2323 H 217.733 -1.53477 3.67001 0
M  V30 2324 H 214.472 -0.622385 6.52539 0
M  V30 2325 H 213.992 -2.07974 5.6259 0
M  V30 2326 H 215.671 -1.88784 6.18845 0
M  V30 2327 N 215.803 -1.52179 -0.40978 0
M  V30 2328 C 216.753 -1.71857 -1.49831 0
M  V30 2329 C 217.737 -0.572469 -1.50372 0
M  V30 2330 O 218.929 -0.829509 -1.56359 0
M  V30 2331 C 216.058 -1.87206 -2.87765 0
M  V30 2332 C 215.144 -3.07685 -2.91875 0
M  V30 2333 N 215.535 -4.30403 -2.65683 0
M  V30 2334 C 213.833 -3.07505 -3.23043 0
M  V30 2335 C 214.534 -5.11868 -2.76344 0
M  V30 2336 N 213.51 -4.47101 -3.09195 0
M  V30 2337 H 217.312 -2.64381 -1.28375 0
M  V30 2338 H 214.826 -1.50203 -0.617479 0
M  V30 2339 H 216.823 -1.99419 -3.66111 0
M  V30 2340 H 215.483 -0.958814 -3.10221 0
M  V30 2341 H 216.494 -4.58887 -2.4009 0
M  V30 2342 H 213.171 -2.25915 -3.51096 0
M  V30 2343 H 214.561 -6.19634 -2.59814 0
M  V30 2344 N 217.281 0.66697 -1.42791 0
M  V30 2345 C 218.511 1.45294 -1.46878 0
M  V30 2346 C 218.919 1.89027 -0.0809861 0
M  V30 2347 O 218.262 1.59219 0.916246 0
M  V30 2348 C 218.324 2.72908 -2.34012 0
M  V30 2349 C 217.988 2.51203 -3.81767 0
M  V30 2350 C 218.985 2.15302 -4.73224 0
M  V30 2351 C 216.67 2.65954 -4.26115 0
M  V30 2352 C 218.664 1.94431 -6.07022 0
M  V30 2353 C 216.351 2.44699 -5.59969 0
M  V30 2354 C 217.349 2.08992 -6.5024 0
M  V30 2355 O 217.037 1.87948 -7.81621 0
M  V30 2356 H 216.769 0.453306 -0.501487 0
M  V30 2357 H 219.323 0.826232 -1.88049 0
M  V30 2358 H 217.553 3.38089 -1.87703 0
M  V30 2359 H 219.242 3.34816 -2.29462 0
M  V30 2360 H 220.008 2.03495 -4.40244 0
M  V30 2361 H 215.887 2.92724 -3.56137 0
M  V30 2362 H 219.431 1.66484 -6.77443 0
M  V30 2363 H 215.328 2.56105 -5.9252 0
M  V30 2364 H 216.096 2.02483 -7.93059 0
M  V30 2365 N 218.759 1.29093 0.90403 0
M  V30 2366 C 219.722 1.1386 1.98919 0
M  V30 2367 C 220.722 0.0753457 1.60623 0
M  V30 2368 O 221.912 0.321931 1.71199 0
M  V30 2369 C 219.044 0.740198 3.32767 0
M  V30 2370 H 220.237 2.10246 2.13861 0
M  V30 2371 H 217.79 1.12218 1.08797 0
M  V30 2372 H 218.525 -0.223997 3.23525 0
M  V30 2373 H 218.31 1.50838 3.61926 0
M  V30 2374 H 219.8 0.656546 4.12407 0
M  V30 2375 N 220.237 -1.11381 1.11499 0
M  V30 2376 C 221.167 -2.19509 0.796125 0
M  V30 2377 C 222.148 -1.68458 -0.235796 0
M  V30 2378 O 223.333 -1.93947 -0.0991344 0
M  V30 2379 C 220.463 -3.46475 0.239205 0
M  V30 2380 C 219.417 -4.10744 1.20307 0
M  V30 2381 C 218.743 -5.32293 0.50683 0
M  V30 2382 C 220.043 -4.55597 2.55399 0
M  V30 2383 H 221.737 -2.46439 1.70024 0
M  V30 2384 H 219.283 -1.18446 0.818935 0
M  V30 2385 H 221.236 -4.214 0.00392006 0
M  V30 2386 H 219.96 -3.19006 -0.700206 0
M  V30 2387 H 218.619 -3.37813 1.42399 0
M  V30 2388 H 218.267 -5.01095 -0.437408 0
M  V30 2389 H 217.967 -5.76243 1.1497 0
M  V30 2390 H 219.491 -6.09956 0.280351 0
M  V30 2391 H 220.905 -5.21841 2.37391 0
M  V30 2392 H 219.302 -5.10363 3.15673 0
M  V30 2393 H 220.372 -3.69013 3.14575 0
M  V30 2394 N 221.715 -0.905404 -1.28997 0
M  V30 2395 C 222.663 -0.377431 -2.29517 0
M  V30 2396 C 223.657 0.526461 -1.61012 0
M  V30 2397 O 224.863 0.40863 -1.753 0
M  V30 2398 H 221.238 -0.103437 -0.744852 0
M  V30 2399 H 223.209 -1.23848 -2.71485 0
M  V30 2400 C 221.958 0.374833 -3.45674 0
M  V30 2401 H 221.281 -0.311474 -3.98585 0
M  V30 2402 H 222.721 0.70903 -4.1803 0
M  V30 2403 C 221.18 1.57963 -2.97572 0
M  V30 2404 O 221.71 2.67886 -2.99333 0
M  V30 2405 N 219.916 1.42375 -2.53333 0
M  V30 2406 H 219.463 0.529466 -2.521 0
M  V30 2407 H 219.421 2.23117 -2.21509 0
M  V30 2408 N 223.193 1.4272 -0.668489 0
M  V30 2409 C 224.433 2.03497 -0.19194 0
M  V30 2410 C 224.797 1.51684 1.17712 0
M  V30 2411 O 225.998 2.04205 1.74796 0
M  V30 2412 C 224.269 3.56734 -0.218032 0
M  V30 2413 S 225.828 4.38395 0.188438 0
M  V30 2414 H 222.646 0.706542 -0.0794959 0
M  V30 2415 H 225.248 1.74563 -0.880235 0
M  V30 2416 H 223.952 3.91943 -1.2169 0
M  V30 2417 H 223.483 3.90333 0.490303 0
M  V30 2418 H 225.498 4.75345 1.42345 0
M  V30 2419 N 224.671 0.411399 1.52136 0
M  V30 2420 C 225.911 -0.163143 2.03748 0
M  V30 2421 C 226.275 -1.42187 1.29022 0
M  V30 2422 O 227.476 -2.075 1.70872 0
M  V30 2423 C 225.747 -0.402651 3.55125 0
M  V30 2424 S 227.306 -0.944315 4.28519 0
M  V30 2425 H 224.124 -0.0439833 0.709638 0
M  V30 2426 H 226.726 0.56484 1.87163 0
M  V30 2427 H 225.43 0.520212 4.0709 0
M  V30 2428 H 224.961 -1.15844 3.75957 0
M  V30 2429 H 226.976 -2.22463 4.43536 0
M  V30 2430 N 226.149 -1.5696 0.141893 0
M  V30 2431 C 227.397 -1.95573 -0.509484 0
M  V30 2432 C 227.718 -1.02746 -1.65736 0
M  V30 2433 O 226.988 -0.0880311 -1.95702 0
M  V30 2434 H 225.568 -0.722115 -0.191205 0
M  V30 2435 H 228.23 -1.93697 0.216196 0
M  V30 2436 H 227.326 -2.99171 -0.889 0
M  V30 2437 N 227.627 0.131896 -1.57047 0
M  V30 2438 C 228.557 1.16384 -2.02428 0
M  V30 2439 C 229.538 1.43936 -0.90644 0
M  V30 2440 O 230.723 1.54599 -1.17528 0
M  V30 2441 C 227.853 2.49328 -2.4177 0
M  V30 2442 C 226.807 2.36266 -3.56879 0
M  V30 2443 C 226.133 3.74057 -3.8208 0
M  V30 2444 C 227.433 1.834 -4.89042 0
M  V30 2445 H 229.127 0.786433 -2.88887 0
M  V30 2446 H 226.673 0.376855 -1.38981 0
M  V30 2447 H 228.626 3.21759 -2.7212 0
M  V30 2448 H 227.35 2.88934 -1.52266 0
M  V30 2449 H 226.009 1.66286 -3.26718 0
M  V30 2450 H 225.657 4.11125 -2.89803 0
M  V30 2451 H 225.357 3.66174 -4.59554 0
M  V30 2452 H 226.881 4.48012 -4.1487 0
M  V30 2453 H 228.295 2.45636 -5.18011 0
M  V30 2454 H 226.692 1.8637 -5.70426 0
M  V30 2455 H 227.762 0.790662 -4.7841 0
M  V30 2456 N 229.106 1.52395 0.401703 0
M  V30 2457 C 230.069 1.75636 1.47257 0
M  V30 2458 C 231.069 0.62628 1.48103 0
M  V30 2459 O 232.259 0.894227 1.49497 0
M  V30 2460 C 229.391 1.84553 2.86624 0
M  V30 2461 H 230.584 2.71241 1.27938 0
M  V30 2462 H 228.137 1.42923 0.632662 0
M  V30 2463 H 228.872 0.908882 3.11303 0
M  V30 2464 H 228.657 2.66715 2.87412 0
M  V30 2465 H 230.147 2.04251 3.64241 0
M  V30 2466 N 230.584 -0.659388 1.43143 0
M  V30 2467 C 231.832 -1.41654 1.44147 0
M  V30 2468 C 232.153 -1.94893 0.0645739 0
M  V30 2469 O 231.423 -1.74044 -0.899198 0
M  V30 2470 H 230.003 -0.525708 0.530697 0
M  V30 2471 H 232.665 -0.778097 1.78694 0
M  V30 2472 H 231.761 -2.26195 2.1504 0
M  V30 2473 N 232.062 -1.29571 -0.897171 0
M  V30 2474 C 233.31 -1.17456 -1.64464 0
M  V30 2475 C 233.631 0.273698 -1.9307 0
M  V30 2476 O 232.901 1.18684 -1.55855 0
M  V30 2477 H 231.481 -0.431706 -0.609622 0
M  V30 2478 H 234.143 -1.62531 -1.07562 0
M  V30 2479 H 233.239 -1.72648 -2.59998 0
M  V30 2480 N 233.54 1.10788 -1.12088 0
M  V30 2481 C 234.786 1.82942 -0.875226 0
M  V30 2482 C 235.119 1.84779 0.597538 0
M  V30 2483 O 234.394 1.30578 1.44152 0
M  V30 2484 C 234.677 3.29789 -1.44606 0
M  V30 2485 C 234.53 3.36307 -2.98693 0
M  V30 2486 C 235.849 4.26064 -1.10261 0
M  V30 2487 H 232.968 0.664195 -0.319397 0
M  V30 2488 H 235.61 1.29867 -1.38689 0
M  V30 2489 H 233.76 3.75118 -1.01089 0
M  V30 2490 H 235.432 2.99487 -3.50864 0
M  V30 2491 H 233.675 2.76318 -3.34411 0
M  V30 2492 H 234.346 4.39694 -3.33726 0
M  V30 2493 H 236.822 3.88951 -1.4784 0
M  V30 2494 H 235.698 5.27183 -1.52869 0
M  V30 2495 H 235.959 4.42098 -0.0142953 0
M  V30 2496 N 235.018 0.912232 1.28515 0
M  V30 2497 C 235.928 0.404506 2.31086 0
M  V30 2498 C 236.944 -0.50707 1.66448 0
M  V30 2499 O 238.12 -0.393624 1.97516 0
M  V30 2500 C 235.185 -0.348572 3.44943 0
M  V30 2501 C 234.246 0.59604 4.25142 0
M  V30 2502 C 233.479 -0.121194 5.33562 0
M  V30 2503 O 233.702 -1.34317 5.5436 0
M  V30 2504 O 232.636 0.542716 5.99448 0
M  V30 2505 H 236.462 1.25579 2.76521 0
M  V30 2506 H 234.047 0.676998 1.33181 0
M  V30 2507 H 235.929 -0.77395 4.14232 0
M  V30 2508 H 234.604 -1.17571 3.01594 0
M  V30 2509 H 233.511 1.07079 3.58448 0
M  V30 2510 H 234.844 1.38995 4.72167 0
M  V30 2511 N 236.496 -1.42363 0.676048 0
M  V30 2512 C 237.428 -2.29164 -0.0404605 0
M  V30 2513 C 238.441 -1.43747 -0.764245 0
M  V30 2514 O 239.63 -1.67453 -0.618195 0
M  V30 2515 C 236.73 -3.21196 -1.08103 0
M  V30 2516 C 235.903 -4.35273 -0.430812 0
M  V30 2517 C 234.962 -5.08017 -1.37133 0
M  V30 2518 O 233.988 -5.62494 -0.87116 0
M  V30 2519 N 235.19 -5.13647 -2.70456 0
M  V30 2520 H 237.955 -2.91298 0.704667 0
M  V30 2521 H 235.516 -1.53303 0.520559 0
M  V30 2522 H 237.508 -3.66728 -1.71152 0
M  V30 2523 H 236.078 -2.60505 -1.72788 0
M  V30 2524 H 235.298 -3.92372 0.379209 0
M  V30 2525 H 236.586 -5.08795 0.0221132 0
M  V30 2526 H 235.984 -4.708 -3.1363 0
M  V30 2527 H 234.541 -5.62821 -3.28749 0
M  V30 2528 N 237.974 -0.419461 -1.51915 0
M  V30 2529 C 239.221 0.152939 -2.01922 0
M  V30 2530 C 239.549 1.4426 -1.30458 0
M  V30 2531 O 238.804 1.91514 -0.402593 0
M  V30 2532 C 239.103 0.437067 -3.54717 0
M  V30 2533 C 238.769 -0.764632 -4.44369 0
M  V30 2534 C 237.431 -1.09423 -4.68594 0
M  V30 2535 C 239.783 -1.56713 -4.97082 0
M  V30 2536 C 237.111 -2.22732 -5.42777 0
M  V30 2537 C 239.463 -2.69107 -5.72507 0
M  V30 2538 C 238.127 -3.02541 -5.95 0
M  V30 2539 H 237.397 0.0559644 -0.738884 0
M  V30 2540 H 240.044 -0.562998 -1.83037 0
M  V30 2541 H 238.349 1.23469 -3.71837 0
M  V30 2542 H 240.046 0.893083 -3.90928 0
M  V30 2543 H 236.636 -0.497775 -4.257 0
M  V30 2544 H 240.82 -1.32571 -4.78266 0
M  V30 2545 H 236.076 -2.48971 -5.58411 0
M  V30 2546 H 240.25 -3.31671 -6.12346 0
M  V30 2547 H 237.877 -3.90457 -6.52264 0
M  V30 2548 N 239.452 1.56882 -0.150215 0
M  V30 2549 C 240.701 1.95403 0.500071 0
M  V30 2550 C 241.014 1.03777 1.658 0
M  V30 2551 O 242.22 1.31889 2.37313 0
M  V30 2552 C 240.676 3.4738 0.941018 0
M  V30 2553 C 240.284 4.47596 -0.190158 0
M  V30 2554 C 242.028 3.9476 1.56091 0
M  V30 2555 C 239.935 5.90787 0.269237 0
M  V30 2556 H 238.865 0.729515 0.190588 0
M  V30 2557 H 241.516 1.81988 -0.235074 0
M  V30 2558 H 239.898 3.56138 1.73152 0
M  V30 2559 H 241.072 4.50536 -0.967157 0
M  V30 2560 H 239.387 4.10151 -0.718666 0
M  V30 2561 H 241.984 4.99181 1.9163 0
M  V30 2562 H 242.327 3.36494 2.45107 0
M  V30 2563 H 242.86 3.88932 0.835249 0
M  V30 2564 H 239.599 6.52879 -0.585621 0
M  V30 2565 H 239.119 5.912 1.01204 0
M  V30 2566 H 240.798 6.42979 0.720176 0
M  V30 2567 N 240.93 -0.123565 1.57115 0
M  V30 2568 C 242.155 -0.850398 1.89164 0
M  V30 2569 C 242.58 -1.7286 0.741688 0
M  V30 2570 O 241.938 -1.78665 -0.307958 0
M  V30 2571 C 241.986 -1.66353 3.19936 0
M  V30 2572 O 241.09 -2.77004 3.0552 0
M  V30 2573 H 240.431 -0.235454 0.620852 0
M  V30 2574 H 242.961 -0.107335 2.04318 0
M  V30 2575 H 242.971 -2.05372 3.52543 0
M  V30 2576 H 241.646 -1.01881 4.03228 0
M  V30 2577 H 240.223 -2.41221 2.84371 0
M  V30 2578 N 242.408 -1.52605 -0.393616 0
M  V30 2579 C 243.685 -1.58001 -1.15304 0
M  V30 2580 C 244.065 -0.370385 -2.07825 0
M  V30 2581 O 243.413 0.641638 -2.19306 0
M  V30 2582 C 243.623 -2.91652 -1.91677 0
M  V30 2583 C 244.971 -3.4522 -2.47201 0
M  V30 2584 O 245.995 -2.93495 -2.01839 0
M  V30 2585 O 244.854 -4.35579 -3.3005 0
M  V30 2586 H 241.948 -0.637068 -0.527327 0
M  V30 2587 H 244.494 -1.64939 -0.399141 0
M  V30 2588 H 243.266 -3.71136 -1.23992 0
M  V30 2589 H 242.889 -2.88077 -2.74039 0
M  V30 2590 N 243.887 0.651787 -1.4349 0
M  V30 2591 C 245.136 1.40754 -1.44469 0
M  V30 2592 C 245.449 1.95463 -0.0731845 0
M  V30 2593 O 246.655 2.71471 0.0395721 0
M  V30 2594 C 245.111 2.54735 -2.5424 0
M  V30 2595 C 244.719 2.06628 -3.97504 0
M  V30 2596 C 246.463 3.32092 -2.64414 0
M  V30 2597 C 244.37 3.17829 -4.98737 0
M  V30 2598 H 243.3 0.528862 -0.53742 0
M  V30 2599 H 245.951 0.703365 -1.69485 0
M  V30 2600 H 244.333 3.2763 -2.22428 0
M  V30 2601 H 245.507 1.40734 -4.38783 0
M  V30 2602 H 243.822 1.42146 -3.91387 0
M  V30 2603 H 246.419 4.14952 -3.37223 0
M  V30 2604 H 246.762 3.80217 -1.69532 0
M  V30 2605 H 247.295 2.66279 -2.95534 0
M  V30 2606 H 244.034 2.74671 -5.95177 0
M  V30 2607 H 243.554 3.82429 -4.62069 0
M  V30 2608 H 245.233 3.82937 -5.21505 0
M  V30 2609 N 245.365 1.30045 0.890287 0
M  V30 2610 C 246.605 1.19839 1.65584 0
M  V30 2611 C 246.969 -0.244175 1.90441 0
M  V30 2612 O 248.17 -0.469378 2.6467 0
M  V30 2613 C 246.441 1.99876 2.96284 0
M  V30 2614 S 248 2.06309 3.87275 0
M  V30 2615 H 244.818 0.427157 0.568382 0
M  V30 2616 H 247.42 1.64453 1.05715 0
M  V30 2617 H 246.124 3.03809 2.75913 0
M  V30 2618 H 245.655 1.55903 3.61189 0
M  V30 2619 H 247.67 1.18661 4.81803 0
M  V30 2620 N 246.843 -1.10192 1.12674 0
M  V30 2621 C 248.254 -1.63707 0.897604 0
M  V30 2622 C 248.605 -1.87812 -0.567546 0
M  V30 2623 O 247.73 -1.62196 -1.43253 0
M  V30 2624 C 248.325 -2.974 1.62292 0
M  V30 2625 C 246.884 -3.47772 1.43986 0
M  V30 2626 C 246.031 -2.22332 1.65722 0
M  V30 2627 H 248.982 -0.936587 1.28116 0
M  V30 2628 H 249.003 -3.64986 1.07541 0
M  V30 2629 H 248.515 -2.79824 2.68924 0
M  V30 2630 H 246.616 -3.70487 0.396206 0
M  V30 2631 H 246.729 -4.25723 2.19765 0
M  V30 2632 H 245.093 -2.30599 1.08149 0
M  V30 2633 H 245.876 -2.07285 2.73657 0
M  V30 2634 N 248.321 -0.919034 -1.28029 0
M  V30 2635 C 249.268 -0.410005 -2.27129 0
M  V30 2636 C 250.238 0.518405 -1.57803 0
M  V30 2637 O 251.423 0.439451 -1.8567 0
M  V30 2638 C 248.563 0.339054 -3.4343 0
M  V30 2639 C 247.676 -0.622468 -4.27492 0
M  V30 2640 C 246.811 0.145567 -5.31001 0
M  V30 2641 C 245.85 -0.809226 -6.06727 0
M  V30 2642 N 244.987 -0.0743728 -7.02061 0
M  V30 2643 H 249.827 -1.26011 -2.70047 0
M  V30 2644 H 247.364 -0.632663 -1.328 0
M  V30 2645 H 249.322 0.789586 -4.0966 0
M  V30 2646 H 247.952 1.15346 -3.01488 0
M  V30 2647 H 247.004 -1.19153 -3.61257 0
M  V30 2648 H 248.316 -1.35252 -4.80113 0
M  V30 2649 H 247.47 0.656417 -6.03139 0
M  V30 2650 H 246.209 0.908643 -4.79161 0
M  V30 2651 H 245.214 -1.3314 -5.33436 0
M  V30 2652 H 246.439 -1.57194 -6.60656 0
M  V30 2653 H 244.385 0.670616 -6.52563 0
M  V30 2654 H 244.302 -0.744157 -7.52329 0
M  V30 2655 H 245.57 0.416109 -7.78389 0
M  V30 2656 N 249.799 1.42003 -0.683588 0
M  V30 2657 C 250.746 2.30798 -0.0107309 0
M  V30 2658 C 251.716 1.4645 0.783688 0
M  V30 2659 O 252.901 1.75263 0.754156 0
M  V30 2660 C 250.041 3.3238 0.928306 0
M  V30 2661 C 249.154 4.31814 0.126776 0
M  V30 2662 C 248.289 5.20468 1.06236 0
M  V30 2663 C 247.328 6.11577 0.253035 0
M  V30 2664 N 246.465 6.92754 1.14179 0
M  V30 2665 H 251.305 2.8778 -0.773727 0
M  V30 2666 H 248.842 1.41745 -0.393283 0
M  V30 2667 H 250.8 3.89813 1.48666 0
M  V30 2668 H 249.43 2.76976 1.65783 0
M  V30 2669 H 248.482 3.76427 -0.54833 0
M  V30 2670 H 249.794 4.96276 -0.501192 0
M  V30 2671 H 248.948 5.82677 1.69035 0
M  V30 2672 H 247.687 4.56204 1.7242 0
M  V30 2673 H 246.692 5.48428 -0.388108 0
M  V30 2674 H 247.917 6.77892 -0.404839 0
M  V30 2675 H 245.863 6.3111 1.78987 0
M  V30 2676 H 245.78 7.53855 0.569111 0
M  V30 2677 H 247.048 7.59441 1.75697 0
M  V30 2678 N 251.277 0.427512 1.51691 0
M  V30 2679 C 252.554 -0.201684 1.94557 0
M  V30 2680 C 252.934 -1.60981 1.36559 0
M  V30 2681 O 252.282 -2.21814 0.548702 0
M  V30 2682 C 252.492 -0.189394 3.48486 0
M  V30 2683 C 253.84 -0.39978 4.22714 0
M  V30 2684 O 254.864 -0.267945 3.55191 0
M  V30 2685 O 253.723 -0.661249 5.42485 0
M  V30 2686 H 250.817 -0.135261 0.815864 0
M  V30 2687 H 253.363 0.484782 1.62628 0
M  V30 2688 H 252.135 0.795431 3.8313 0
M  V30 2689 H 251.758 -0.919187 3.86829 0
M  V30 2690 N 252.755 -1.56801 0.158532 0
M  V30 2691 C 254.001 -1.96781 -0.490405 0
M  V30 2692 C 254.334 -1.04397 -1.63753 0
M  V30 2693 O 253.609 -0.0885805 -1.94298 0
M  V30 2694 C 253.892 -3.4635 -0.985594 0
M  V30 2695 C 253.745 -4.49512 0.160824 0
M  V30 2696 C 255.064 -3.98697 -1.86355 0
M  V30 2697 H 252.183 -0.715482 -0.176788 0
M  V30 2698 H 254.825 -1.88451 0.242088 0
M  V30 2699 H 252.975 -3.53579 -1.60978 0
M  V30 2700 H 254.647 -4.54353 0.797537 0
M  V30 2701 H 252.89 -4.26013 0.818256 0
M  V30 2702 H 253.561 -5.51531 -0.227569 0
M  V30 2703 H 256.037 -3.94019 -1.33746 0
M  V30 2704 H 254.913 -5.03792 -2.17909 0
M  V30 2705 H 255.174 -3.41744 -2.8047 0
M  V30 2706 N 254.233 0.115231 -1.57178 0
M  V30 2707 C 255.163 1.1423 -2.03651 0
M  V30 2708 C 256.144 1.42967 -0.921655 0
M  V30 2709 O 257.329 1.53343 -1.19162 0
M  V30 2710 C 254.459 2.4675 -2.44401 0
M  V30 2711 C 253.413 2.32467 -3.59365 0
M  V30 2712 C 252.739 3.69984 -3.86026 0
M  V30 2713 C 254.039 1.78203 -4.90959 0
M  V30 2714 H 255.733 0.755749 -2.89705 0
M  V30 2715 H 253.279 0.362093 -1.39373 0
M  V30 2716 H 255.232 3.18854 -2.75517 0
M  V30 2717 H 253.956 2.87302 -1.55322 0
M  V30 2718 H 252.615 1.62811 -3.28463 0
M  V30 2719 H 252.263 4.08028 -2.94147 0
M  V30 2720 H 251.963 3.61279 -4.63412 0
M  V30 2721 H 253.487 4.43587 -4.19599 0
M  V30 2722 H 254.901 2.40128 -5.20587 0
M  V30 2723 H 253.298 1.8031 -5.72371 0
M  V30 2724 H 254.368 0.739876 -4.79222 0
M  V30 2725 N 255.711 1.52812 0.385517 0
M  V30 2726 C 256.621 1.80766 1.49535 0
M  V30 2727 C 257.637 0.694651 1.59532 0
M  V30 2728 O 258.813 0.982611 1.75803 0
M  V30 2729 C 255.878 1.97381 2.85029 0
M  V30 2730 C 254.939 3.21295 2.84724 0
M  V30 2731 C 254.172 3.37108 4.13756 0
M  V30 2732 O 254.395 2.5765 5.08893 0
M  V30 2733 O 253.329 4.30378 4.20783 0
M  V30 2734 H 257.155 2.75015 1.28842 0
M  V30 2735 H 254.74 1.37946 0.573697 0
M  V30 2736 H 256.622 2.09996 3.65349 0
M  V30 2737 H 255.297 1.06322 3.05741 0
M  V30 2738 H 254.204 3.1412 2.03174 0
M  V30 2739 H 255.537 4.12212 2.68965 0
M  V30 2740 N 257.189 -0.644168 1.43834 0
M  V30 2741 C 258.417 -1.43147 1.49387 0
M  V30 2742 C 258.832 -1.88452 0.114583 0
M  V30 2743 O 258.189 -1.60047 -0.876989 0
M  V30 2744 C 258.24 -2.66046 2.44748 0
M  V30 2745 O 257.961 -2.22633 3.77314 0
M  V30 2746 C 259.462 -3.59311 2.59635 0
M  V30 2747 H 256.682 -0.439447 0.507077 0
M  V30 2748 H 259.226 -0.78895 1.88669 0
M  V30 2749 H 257.381 -3.26418 2.08638 0
M  V30 2750 H 257.795 -3.02216 4.28679 0
M  V30 2751 H 259.269 -4.42187 3.30416 0
M  V30 2752 H 259.746 -4.07259 1.64427 0
M  V30 2753 H 260.352 -3.04816 2.96593 0
M  V30 2754 N 258.668 -1.30515 -0.883378 0
M  V30 2755 C 259.915 -1.1943 -1.63532 0
M  V30 2756 C 260.243 0.250627 -1.92878 0
M  V30 2757 O 259.498 1.19556 -1.54935 0
M  V30 2758 C 259.797 -1.96994 -2.98209 0
M  V30 2759 C 259.463 -3.466 -2.88408 0
M  V30 2760 C 258.125 -3.87397 -2.85442 0
M  V30 2761 C 260.477 -4.41863 -2.76418 0
M  V30 2762 C 257.805 -5.21745 -2.68327 0
M  V30 2763 C 260.157 -5.7632 -2.60841 0
M  V30 2764 C 258.821 -6.16354 -2.56251 0
M  V30 2765 H 258.091 -0.437025 -0.598406 0
M  V30 2766 H 260.738 -1.61635 -1.02696 0
M  V30 2767 H 259.043 -1.47429 -3.63004 0
M  V30 2768 H 260.74 -1.85808 -3.55354 0
M  V30 2769 H 257.33 -3.14182 -2.91527 0
M  V30 2770 H 261.514 -4.11285 -2.77775 0
M  V30 2771 H 256.77 -5.51853 -2.63189 0
M  V30 2772 H 260.944 -6.49772 -2.50538 0
M  V30 2773 H 258.571 -7.20401 -2.42748 0
M  V30 2774 N 260.146 1.09593 -1.13257 0
M  V30 2775 C 261.374 1.855 -0.916378 0
M  V30 2776 C 261.789 1.81069 0.534738 0
M  V30 2777 O 261.146 1.20562 1.37007 0
M  V30 2778 C 261.197 3.33546 -1.39388 0
M  V30 2779 O 260.918 3.37927 -2.78813 0
M  V30 2780 C 262.419 4.26299 -1.21588 0
M  V30 2781 H 259.639 0.585991 -0.326887 0
M  V30 2782 H 262.183 1.38488 -1.5047 0
M  V30 2783 H 260.338 3.77992 -0.848597 0
M  V30 2784 H 260.752 4.30254 -2.9997 0
M  V30 2785 H 262.226 5.28341 -1.59876 0
M  V30 2786 H 262.703 4.38918 -0.157376 0
M  V30 2787 H 263.309 3.87668 -1.7491 0
M  V30 2788 N 261.624 0.925811 1.2754 0
M  V30 2789 C 262.87 0.566092 1.94739 0
M  V30 2790 C 263.203 -0.890057 1.72603 0
M  V30 2791 O 262.478 -1.63467 1.05399 0
M  V30 2792 C 262.761 0.89054 3.48915 0
M  V30 2793 C 262.614 2.4003 3.80402 0
M  V30 2794 C 263.933 0.395101 4.38323 0
M  V30 2795 H 261.052 0.20714 0.707292 0
M  V30 2796 H 263.694 1.15725 1.50691 0
M  V30 2797 H 261.844 0.387452 3.86563 0
M  V30 2798 H 263.516 2.97494 3.52555 0
M  V30 2799 H 261.759 2.85028 3.2702 0
M  V30 2800 H 262.43 2.57785 4.8811 0
M  V30 2801 H 264.906 0.826241 4.07814 0
M  V30 2802 H 263.782 0.651086 5.45025 0
M  V30 2803 H 264.043 -0.704798 4.36446 0
M  V30 2804 N 263.102 -1.41638 0.69111 0
M  V30 2805 C 264.049 -2.30789 0.0229705 0
M  V30 2806 C 265.019 -1.46863 -0.775911 0
M  V30 2807 O 266.204 -1.75661 -0.74485 0
M  V30 2808 C 263.344 -3.32868 -0.910666 0
M  V30 2809 C 262.457 -4.31875 -0.103874 0
M  V30 2810 C 261.592 -5.21024 -1.03475 0
M  V30 2811 C 260.631 -6.11702 -0.220598 0
M  V30 2812 N 259.768 -6.93349 -1.10504 0
M  V30 2813 H 264.608 -2.87366 0.788978 0
M  V30 2814 H 262.145 -1.41535 0.400794 0
M  V30 2815 H 264.103 -3.90596 -1.46597 0
M  V30 2816 H 262.733 -2.77851 -1.64312 0
M  V30 2817 H 261.785 -3.76131 0.568285 0
M  V30 2818 H 263.097 -4.96003 0.527504 0
M  V30 2819 H 262.251 -5.83565 -1.65943 0
M  V30 2820 H 260.99 -4.57112 -1.69999 0
M  V30 2821 H 259.995 -5.48215 0.417187 0
M  V30 2822 H 261.22 -6.77668 0.440784 0
M  V30 2823 H 259.166 -6.3205 -1.75638 0
M  V30 2824 H 259.083 -7.54146 -0.529125 0
M  V30 2825 H 260.351 -7.60362 -1.71667 0
M  V30 2826 N 264.58 -0.43555 -1.51462 0
M  V30 2827 C 265.805 0.132627 -2.06976 0
M  V30 2828 C 266.23 1.35848 -1.30104 0
M  V30 2829 O 265.588 1.78112 -0.338493 0
M  V30 2830 C 265.636 0.43523 -3.57964 0
M  V30 2831 O 264.74 1.52198 -3.83288 0
M  V30 2832 H 264.081 0.00265 -0.663995 0
M  V30 2833 H 266.611 -0.616369 -1.95095 0
M  V30 2834 H 266.621 0.686206 -4.02188 0
M  V30 2835 H 265.296 -0.460739 -4.1334 0
M  V30 2836 H 263.873 1.2611 -3.50928 0
M  V30 2837 N 266.058 1.56714 -0.166846 0
M  V30 2838 C 267.298 1.98641 0.481763 0
M  V30 2839 C 267.662 1.05038 1.6072 0
M  V30 2840 O 268.863 1.36087 2.31805 0
M  V30 2841 C 267.134 3.44362 0.956517 0
M  V30 2842 S 268.693 4.08317 1.60694 0
M  V30 2843 H 265.511 0.693873 0.155116 0
M  V30 2844 H 268.113 1.93719 -0.263251 0
M  V30 2845 H 266.817 4.10204 0.126936 0
M  V30 2846 H 266.348 3.53041 1.73568 0
M  V30 2847 H 268.363 4.02999 2.89494 0
M  V30 2848 N 267.536 -0.106894 1.57237 0
M  V30 2849 C 268.947 -0.662723 1.74542 0
M  V30 2850 C 269.298 -1.7971 0.787319 0
M  V30 2851 O 268.423 -2.16368 -0.0369636 0
M  V30 2852 C 269.018 -1.20896 3.16496 0
M  V30 2853 C 267.577 -1.71096 3.35266 0
M  V30 2854 C 266.724 -0.615642 2.7038 0
M  V30 2855 H 269.675 0.119106 1.58252 0
M  V30 2856 H 269.696 -2.07847 3.18716 0
M  V30 2857 H 269.208 -0.383122 3.86204 0
M  V30 2858 H 267.309 -2.56119 2.70618 0
M  V30 2859 H 267.422 -1.81208 4.43509 0
M  V30 2860 H 265.786 -1.05222 2.31949 0
M  V30 2861 H 266.569 0.199419 3.4272 0
M  V30 2862 N 269.014 -1.53014 -0.377408 0
M  V30 2863 C 270.291 -1.59215 -1.13622 0
M  V30 2864 C 270.671 -0.392407 -2.07421 0
M  V30 2865 O 270.019 0.618342 -2.19975 0
M  V30 2866 C 270.229 -2.93669 -1.88573 0
M  V30 2867 C 271.577 -3.47822 -2.43526 0
M  V30 2868 O 272.601 -2.9562 -1.98715 0
M  V30 2869 O 271.46 -4.39055 -3.25412 0
M  V30 2870 H 268.554 -0.642625 -0.52054 0
M  V30 2871 H 271.1 -1.65353 -0.381625 0
M  V30 2872 H 269.872 -3.7243 -1.20048 0
M  V30 2873 H 269.495 -2.90968 -2.70968 0
M  V30 2874 N 270.492 0.636531 -1.44174 0
M  V30 2875 C 271.455 1.73063 -1.50273 0
M  V30 2876 C 272.455 1.56113 -0.385397 0
M  V30 2877 O 273.645 1.61707 -0.64781 0
M  V30 2878 C 270.777 3.12096 -1.37145 0
M  V30 2879 H 271.97 1.69031 -2.47727 0
M  V30 2880 H 269.523 0.849706 -1.31186 0
M  V30 2881 H 270.258 3.21728 -0.407636 0
M  V30 2882 H 270.043 3.25805 -2.18159 0
M  V30 2883 H 271.533 3.91846 -1.44382 0
M  V30 2884 N 271.97 1.30982 0.876444 0
M  V30 2885 C 273.219 1.19658 1.62373 0
M  V30 2886 C 273.532 -0.245636 1.94052 0
M  V30 2887 O 274.738 -0.48049 2.67214 0
M  V30 2888 C 273.194 2.09433 2.92687 0
M  V30 2889 C 272.802 3.58613 2.68516 0
M  V30 2890 C 274.546 2.06893 3.70669 0
M  V30 2891 C 272.453 4.40416 3.94699 0
M  V30 2892 H 271.383 0.444268 0.609214 0
M  V30 2893 H 274.034 1.55791 0.969605 0
M  V30 2894 H 272.416 1.66191 3.59439 0
M  V30 2895 H 273.59 4.10058 2.10212 0
M  V30 2896 H 271.905 3.63063 2.03898 0
M  V30 2897 H 274.502 2.65258 4.64265 0
M  V30 2898 H 274.845 1.05448 4.02724 0
M  V30 2899 H 275.378 2.48301 3.10792 0
M  V30 2900 H 272.117 5.42591 3.67798 0
M  V30 2901 H 271.637 3.93731 4.52477 0
M  V30 2902 H 273.316 4.52294 4.62644 0
M  V30 2903 N 273.449 -1.08991 1.13837 0
M  V30 2904 C 274.396 -2.15748 0.819835 0
M  V30 2905 C 275.366 -1.64636 -0.220026 0
M  V30 2906 O 276.551 -1.90582 -0.0912757 0
M  V30 2907 C 273.691 -3.4382 0.296913 0
M  V30 2908 C 272.804 -4.0881 1.39636 0
M  V30 2909 C 271.939 -5.24655 0.831314 0
M  V30 2910 C 270.978 -5.81575 1.90886 0
M  V30 2911 N 270.115 -6.88774 1.36142 0
M  V30 2912 H 274.955 -2.42338 1.73426 0
M  V30 2913 H 272.492 -1.18935 0.865613 0
M  V30 2914 H 274.45 -4.17193 -0.0244339 0
M  V30 2915 H 273.08 -3.17535 -0.580628 0
M  V30 2916 H 272.132 -3.33258 1.83422 0
M  V30 2917 H 273.444 -4.47141 2.21058 0
M  V30 2918 H 272.598 -6.04942 0.461515 0
M  V30 2919 H 271.337 -4.87698 -0.013932 0
M  V30 2920 H 270.342 -4.99946 2.28767 0
M  V30 2921 H 271.567 -6.20592 2.75758 0
M  V30 2922 H 269.513 -6.53788 0.538254 0
M  V30 2923 H 269.43 -7.25898 2.11208 0
M  V30 2924 H 270.698 -7.72806 1.01933 0
M  V30 2925 N 274.927 -0.932562 -1.27047 0
M  V30 2926 C 275.837 -0.441219 -2.30414 0
M  V30 2927 C 276.853 0.480525 -1.67233 0
M  V30 2928 O 278.029 0.362151 -1.98117 0
M  V30 2929 C 275.094 0.293651 -3.45454 0
M  V30 2930 C 274.155 -0.663601 -4.2414 0
M  V30 2931 C 273.388 0.0362932 -5.33688 0
M  V30 2932 O 273.611 1.2548 -5.56427 0
M  V30 2933 O 272.545 -0.638015 -5.98509 0
M  V30 2934 H 276.371 -1.29962 -2.74488 0
M  V30 2935 H 273.956 -0.6981 -1.32087 0
M  V30 2936 H 275.838 0.707951 -4.15411 0
M  V30 2937 H 274.513 1.12758 -3.03426 0
M  V30 2938 H 273.42 -1.12768 -3.56699 0
M  V30 2939 H 274.753 -1.46489 -4.69896 0
M  V30 2940 N 276.405 1.4127 -0.698611 0
M  V30 2941 C 277.651 2.01478 -0.231207 0
M  V30 2942 C 277.984 1.55215 1.16713 0
M  V30 2943 O 277.259 0.764672 1.78838 0
M  V30 2944 C 277.542 3.58912 -0.292281 0
M  V30 2945 C 277.395 4.15293 -1.72778 0
M  V30 2946 C 278.714 4.38736 0.346194 0
M  V30 2947 H 275.833 0.732025 -0.0854878 0
M  V30 2948 H 278.475 1.67977 -0.887906 0
M  V30 2949 H 276.625 3.87582 0.26686 0
M  V30 2950 H 278.297 3.97486 -2.341 0
M  V30 2951 H 276.54 3.7022 -2.26096 0
M  V30 2952 H 277.211 5.24452 -1.72202 0
M  V30 2953 H 279.687 4.15897 -0.130035 0
M  V30 2954 H 278.563 5.48221 0.272932 0
M  V30 2955 H 278.824 4.18425 1.42734 0
M  V30 2956 N 277.883 0.443576 1.51229 0
M  V30 2957 C 279.13 -0.120796 2.02139 0
M  V30 2958 C 279.458 -1.42166 1.32736 0
M  V30 2959 O 278.713 -1.90849 0.43301 0
M  V30 2960 C 279.012 -0.380579 3.55368 0
M  V30 2961 C 278.678 0.83523 4.43097 0
M  V30 2962 C 277.34 1.16864 4.66794 0
M  V30 2963 C 279.692 1.64601 4.94526 0
M  V30 2964 C 277.02 2.31339 5.39165 0
M  V30 2965 C 279.372 2.78181 5.68153 0
M  V30 2966 C 278.036 3.11969 5.90112 0
M  V30 2967 H 277.306 -0.0442023 0.73968 0
M  V30 2968 H 279.953 0.592046 1.82118 0
M  V30 2969 H 278.258 -1.17538 3.73754 0
M  V30 2970 H 279.955 -0.830777 3.923 0
M  V30 2971 H 276.545 0.565437 4.24854 0
M  V30 2972 H 280.729 1.40163 4.76097 0
M  V30 2973 H 275.985 2.57823 5.5438 0
M  V30 2974 H 280.159 3.41371 6.06992 0
M  V30 2975 H 277.786 4.00784 6.45969 0
M  V30 2976 N 279.361 -1.56624 0.175154 0
M  V30 2977 C 280.638 -1.88688 -0.515373 0
M  V30 2978 C 281.018 -1.08564 -1.81044 0
M  V30 2979 O 280.366 -0.180703 -2.27784 0
M  V30 2980 C 280.576 -3.40768 -0.753552 0
M  V30 2981 C 281.924 -4.10587 -1.08184 0
M  V30 2982 O 282.948 -3.46106 -0.841961 0
M  V30 2983 O 281.807 -5.24512 -1.53459 0
M  V30 2984 H 278.901 -0.78301 -0.26613 0
M  V30 2985 H 281.447 -1.68347 0.213877 0
M  V30 2986 H 280.219 -3.90965 0.161829 0
M  V30 2987 H 279.842 -3.66733 -1.53598 0
M  V30 2988 N 280.839 0.0985539 -1.57292 0
M  V30 2989 C 281.787 1.1387 -2.02821 0
M  V30 2990 C 282.781 1.41676 -0.928666 0
M  V30 2991 O 283.987 1.41398 -1.11385 0
M  V30 2992 H 280.362 0.384419 -0.646317 0
M  V30 2993 H 282.333 0.728347 -2.89375 0
M  V30 2994 C 281.082 2.45166 -2.46554 0
M  V30 2995 H 280.405 2.24613 -3.3074 0
M  V30 2996 H 281.845 3.16456 -2.8219 0
M  V30 2997 C 280.304 3.09216 -1.33742 0
M  V30 2998 O 280.834 3.96163 -0.66464 0
M  V30 2999 N 279.04 2.69413 -1.08928 0
M  V30 3000 H 278.587 1.98801 -1.63817 0
M  V30 3001 H 278.545 3.12594 -0.336458 0
M  V30 3002 N 282.317 1.53212 0.369288 0
M  V30 3003 C 283.264 1.79388 1.45219 0
M  V30 3004 C 284.234 0.638059 1.53356 0
M  V30 3005 O 285.419 0.879852 1.69302 0
M  V30 3006 C 282.559 1.98623 2.82211 0
M  V30 3007 C 281.672 3.26337 2.8307 0
M  V30 3008 C 280.807 3.35779 4.11614 0
M  V30 3009 C 279.846 4.5754 4.06601 0
M  V30 3010 N 278.983 4.64155 5.26787 0
M  V30 3011 H 283.823 2.71794 1.22198 0
M  V30 3012 H 281.36 1.34642 0.592444 0
M  V30 3013 H 283.318 2.07761 3.61789 0
M  V30 3014 H 281.948 1.09558 3.03639 0
M  V30 3015 H 281 3.26171 1.95747 0
M  V30 3016 H 282.312 4.15988 2.75237 0
M  V30 3017 H 281.466 3.44208 4.99606 0
M  V30 3018 H 280.205 2.44137 4.22195 0
M  V30 3019 H 279.21 4.49215 3.16996 0
M  V30 3020 H 280.435 5.50519 3.97625 0
M  V30 3021 H 278.381 3.75413 5.3796 0
M  V30 3022 H 278.298 5.47706 5.21109 0
M  V30 3023 H 279.566 4.76863 6.16621 0
M  V30 3024 N 283.795 -0.628877 1.44509 0
M  V30 3025 C 285.042 -1.38839 1.47411 0
M  V30 3026 C 285.37 -1.94202 0.10757 0
M  V30 3027 O 284.625 -1.74243 -0.890947 0
M  V30 3028 C 284.924 -2.56995 2.48371 0
M  V30 3029 C 284.59 -2.19908 3.93639 0
M  V30 3030 C 283.252 -2.09506 4.33198 0
M  V30 3031 C 285.604 -1.9064 4.85083 0
M  V30 3032 C 282.932 -1.68028 5.62124 0
M  V30 3033 C 285.284 -1.50655 6.14399 0
M  V30 3034 C 283.948 -1.38796 6.5291 0
M  V30 3035 H 283.218 -0.508048 0.539414 0
M  V30 3036 H 285.865 -0.712913 1.77735 0
M  V30 3037 H 284.17 -3.29786 2.11538 0
M  V30 3038 H 285.867 -3.15223 2.47861 0
M  V30 3039 H 282.457 -2.28922 3.62343 0
M  V30 3040 H 286.641 -1.97585 4.55273 0
M  V30 3041 H 281.897 -1.57452 5.90778 0
M  V30 3042 H 286.071 -1.27048 6.84713 0
M  V30 3043 H 283.698 -1.06429 7.52713 0
M  V30 3044 N 285.273 -1.31445 -0.869486 0
M  V30 3045 C 286.223 -1.15731 -1.96444 0
M  V30 3046 C 287.207 -0.0681855 -1.60755 0
M  V30 3047 O 288.399 -0.293154 -1.74555 0
M  V30 3048 C 285.528 -0.867255 -3.32165 0
M  V30 3049 C 284.614 -1.99738 -3.74119 0
M  V30 3050 N 285.005 -3.24447 -3.88031 0
M  V30 3051 C 283.303 -1.89723 -4.03635 0
M  V30 3052 C 284.004 -3.98374 -4.23879 0
M  V30 3053 N 282.98 -3.26547 -4.3459 0
M  V30 3054 H 286.782 -2.10296 -2.05312 0
M  V30 3055 H 284.296 -1.23009 -1.06031 0
M  V30 3056 H 286.293 -0.735668 -4.10358 0
M  V30 3057 H 284.953 0.0701614 -3.24624 0
M  V30 3058 H 285.964 -3.59557 -3.72746 0
M  V30 3059 H 282.641 -1.03449 -4.04481 0
M  V30 3060 H 284.031 -5.05844 -4.42235 0
M  V30 3061 N 286.751 1.08385 -1.14413 0
M  V30 3062 C 288 1.80153 -0.907076 0
M  V30 3063 C 288.313 1.87176 0.567851 0
M  V30 3064 O 289.519 2.55359 0.922172 0
M  V30 3065 C 287.975 3.23687 -1.57336 0
M  V30 3066 C 287.583 3.24897 -3.08457 0
M  V30 3067 C 289.327 4.00136 -1.41744 0
M  V30 3068 C 287.234 4.6302 -3.67921 0
M  V30 3069 H 286.164 0.675139 -0.335714 0
M  V30 3070 H 288.815 1.21733 -1.37307 0
M  V30 3071 H 287.197 3.82234 -1.03505 0
M  V30 3072 H 288.371 2.76055 -3.68958 0
M  V30 3073 H 286.686 2.61943 -3.2369 0
M  V30 3074 H 289.283 5.02201 -1.83572 0
M  V30 3075 H 289.626 4.14709 -0.363576 0
M  V30 3076 H 290.159 3.48058 -1.92614 0
M  V30 3077 H 286.898 4.5365 -4.73161 0
M  V30 3078 H 286.418 5.12143 -3.12201 0
M  V30 3079 H 288.097 5.31994 -3.68227 0
M  V30 3080 N 288.23 0.939286 1.26551 0
M  V30 3081 C 289.479 0.581601 1.93133 0
M  V30 3082 C 289.792 -0.883224 1.74524 0
M  V30 3083 O 290.998 -1.3502 2.35546 0
M  V30 3084 C 289.454 0.989425 3.46032 0
M  V30 3085 C 289.062 2.47573 3.73379 0
M  V30 3086 C 290.806 0.703544 4.18629 0
M  V30 3087 C 288.713 2.82235 5.19709 0
M  V30 3088 H 287.643 0.213803 0.723052 0
M  V30 3089 H 290.294 1.14167 1.4366 0
M  V30 3090 H 288.676 0.357902 3.94379 0
M  V30 3091 H 289.85 3.15614 3.35744 0
M  V30 3092 H 288.165 2.73471 3.1401 0
M  V30 3093 H 290.762 0.938869 5.26393 0
M  V30 3094 H 291.105 -0.359639 4.14744 0
M  V30 3095 H 291.638 1.2947 3.76141 0
M  V30 3096 H 288.377 3.87509 5.28694 0
M  V30 3097 H 287.897 2.18854 5.58447 0
M  V30 3098 H 289.576 2.70599 5.87695 0
M  V30 3099 N 289.708 -1.40897 0.706093 0
M  V30 3100 C 290.956 -2.00657 0.241054 0
M  V30 3101 C 291.277 -1.56241 -1.16678 0
M  V30 3102 O 290.547 -0.79765 -1.78926 0
M  V30 3103 H 289.127 -0.742018 0.0861308 0
M  V30 3104 H 291.789 -1.72372 0.909604 0
M  V30 3105 H 290.885 -3.10958 0.266705 0
M  V30 3106 N 291.186 -0.45159 -1.50991 0
M  V30 3107 C 292.149 0.341117 -2.26647 0
M  V30 3108 C 293.149 0.937422 -1.30649 0
M  V30 3109 O 294.339 0.809644 -1.54241 0
M  V30 3110 C 291.471 1.48398 -3.06905 0
M  V30 3111 H 292.664 -0.322117 -2.98165 0
M  V30 3112 H 290.217 -0.205122 -1.54948 0
M  V30 3113 H 290.952 2.18284 -2.39838 0
M  V30 3114 H 290.737 1.06241 -3.77432 0
M  V30 3115 H 292.227 2.04367 -3.64176 0
M  V30 3116 N 292.664 1.56529 -0.183458 0
M  V30 3117 C 293.91 1.97537 0.459036 0
M  V30 3118 C 294.243 1.06989 1.62071 0
M  V30 3119 O 293.518 0.11948 1.94133 0
M  V30 3120 C 293.801 3.47874 0.930368 0
M  V30 3121 C 293.654 4.492 -0.232317 0
M  V30 3122 C 294.973 4.01612 1.79989 0
M  V30 3123 H 292.092 0.718204 0.165383 0
M  V30 3124 H 294.734 1.88042 -0.272038 0
M  V30 3125 H 292.884 3.56095 1.55333 0
M  V30 3126 H 294.556 4.53027 -0.86972 0
M  V30 3127 H 292.799 4.24657 -0.885928 0
M  V30 3128 H 293.47 5.51823 0.139796 0
M  V30 3129 H 295.946 3.96097 1.27461 0
M  V30 3130 H 294.822 5.07195 2.09867 0
M  V30 3131 H 295.083 3.46163 2.74998 0
M  V30 3132 N 294.142 -0.090211 1.57342 0
M  V30 3133 C 295.39 -0.791241 1.85967 0
M  V30 3134 C 295.711 -1.7903 0.772859 0
M  V30 3135 O 294.981 -1.94872 -0.200398 0
M  V30 3136 H 293.561 -0.295205 0.686195 0
M  V30 3137 H 296.223 -0.0706782 1.94772 0
M  V30 3138 H 295.319 -1.31882 2.82867 0
M  V30 3139 N 295.62 -1.53406 -0.361157 0
M  V30 3140 C 296.869 -1.69022 -1.10066 0
M  V30 3141 C 297.182 -0.450838 -1.90333 0
M  V30 3142 O 298.388 -0.487617 -2.67085 0
M  V30 3143 C 296.844 -2.98812 -2.00598 0
M  V30 3144 C 296.452 -4.30027 -1.25621 0
M  V30 3145 C 298.196 -3.23795 -2.74513 0
M  V30 3146 C 296.103 -5.50903 -2.1508 0
M  V30 3147 H 295.033 -0.629776 -0.414606 0
M  V30 3148 H 297.684 -1.79907 -0.361348 0
M  V30 3149 H 296.066 -2.8174 -2.78278 0
M  V30 3150 H 297.24 -4.57745 -0.529739 0
M  V30 3151 H 295.555 -4.11522 -0.635496 0
M  V30 3152 H 298.152 -4.11289 -3.41681 0
M  V30 3153 H 298.495 -2.40045 -3.40123 0
M  V30 3154 H 299.028 -3.41561 -2.03914 0
M  V30 3155 H 295.767 -6.37143 -1.54041 0
M  V30 3156 H 295.287 -5.27459 -2.85565 0
M  V30 3157 H 296.966 -5.85865 -2.74538 0
M  V30 3158 N 297.098 0.621204 -1.44841 0
M  V30 3159 C 298.346 1.37783 -1.47852 0
M  V30 3160 C 298.667 1.94653 -0.116224 0
M  V30 3161 O 297.937 1.76367 0.852737 0
M  V30 3162 H 296.517 0.511453 -0.544449 0
M  V30 3163 H 299.179 0.730446 -1.80694 0
M  V30 3164 H 298.275 2.20414 -2.20961 0
M  V30 3165 N 298.576 1.31904 0.862503 0
M  V30 3166 C 299.825 1.21373 1.61094 0
M  V30 3167 C 300.138 -0.22504 1.94301 0
M  V30 3168 O 301.344 -0.452121 2.67709 0
M  V30 3169 C 299.8 2.12525 2.9045 0
M  V30 3170 C 299.408 3.61441 2.64697 0
M  V30 3171 C 301.152 2.10813 3.68454 0
M  V30 3172 C 299.059 4.44578 3.90006 0
M  V30 3173 H 297.989 0.450705 0.604468 0
M  V30 3174 H 300.64 1.56811 0.953027 0
M  V30 3175 H 299.022 1.69994 3.57656 0
M  V30 3176 H 300.196 4.12264 2.05851 0
M  V30 3177 H 298.511 3.65205 2.00036 0
M  V30 3178 H 301.108 2.70167 4.61426 0
M  V30 3179 H 301.451 1.09713 4.01583 0
M  V30 3180 H 301.984 2.51583 3.08141 0
M  V30 3181 H 298.723 5.46461 3.62023 0
M  V30 3182 H 298.243 3.98508 4.48276 0
M  V30 3183 H 299.922 4.57176 4.5782 0
M  V30 3184 N 300.054 -1.07777 1.14986 0
M  V30 3185 C 301.017 -2.13041 0.845358 0
M  V30 3186 C 302.017 -1.60071 -0.152931 0
M  V30 3187 O 303.207 -1.74033 0.0761879 0
M  V30 3188 C 300.339 -3.39896 0.261383 0
M  V30 3189 H 301.532 -2.41485 1.77834 0
M  V30 3190 H 299.085 -1.23595 0.956757 0
M  V30 3191 H 299.82 -3.17091 -0.68 0
M  V30 3192 H 299.605 -3.79642 0.980514 0
M  V30 3193 H 301.095 -4.17548 0.0657687 0
M  V30 3194 N 301.532 -0.945985 -1.26051 0
M  V30 3195 C 302.778 -0.597002 -1.93814 0
M  V30 3196 C 303.111 0.862484 -1.73997 0
M  V30 3197 O 302.386 1.61769 -1.07986 0
M  V30 3198 C 302.669 -0.945937 -3.47454 0
M  V30 3199 C 302.522 -2.46052 -3.76535 0
M  V30 3200 C 303.841 -0.464785 -4.37639 0
M  V30 3201 H 300.96 -0.218366 -0.703907 0
M  V30 3202 H 303.602 -1.18107 -1.48831 0
M  V30 3203 H 301.752 -0.448902 -3.85898 0
M  V30 3204 H 303.424 -3.03065 -3.47778 0
M  V30 3205 H 301.667 -2.90194 -3.22444 0
M  V30 3206 H 302.338 -2.65517 -4.83947 0
M  V30 3207 H 304.814 -0.891016 -4.06448 0
M  V30 3208 H 303.69 -0.737712 -5.4392 0
M  V30 3209 H 303.951 0.635274 -4.37512 0
M  V30 3210 N 303.011 1.40521 -0.713556 0
M  V30 3211 C 304.257 2.01221 -0.252564 0
M  V30 3212 C 304.59 1.56444 1.1506 0
M  V30 3213 O 303.865 0.783597 1.78017 0
M  V30 3214 C 304.148 3.58582 -0.330332 0
M  V30 3215 C 304.001 4.13437 -1.77173 0
M  V30 3216 C 305.32 4.39079 0.299641 0
M  V30 3217 H 302.439 0.731077 -0.0932471 0
M  V30 3218 H 305.081 1.67026 -0.905673 0
M  V30 3219 H 303.231 3.87844 0.225737 0
M  V30 3220 H 304.903 3.9498 -2.38303 0
M  V30 3221 H 303.146 3.67801 -2.3001 0
M  V30 3222 H 303.817 5.22597 -1.77755 0
M  V30 3223 H 306.293 4.15735 -0.174139 0
M  V30 3224 H 305.169 5.4848 0.214771 0
M  V30 3225 H 305.43 4.19915 1.38288 0
M  V30 3226 N 304.489 0.459591 1.5075 0
M  V30 3227 C 305.422 -0.386257 2.24907 0
M  V30 3228 C 306.4 -1.006 1.27744 0
M  V30 3229 O 307.584 -1.04416 1.56938 0
M  V30 3230 C 304.711 -1.54021 3.01654 0
M  V30 3231 C 303.757 -1.03898 4.13651 0
M  V30 3232 S 304.59 0.0370501 5.35487 0
M  V30 3233 C 305.746 -1.12105 6.15779 0
M  V30 3234 H 305.979 0.243272 2.96303 0
M  V30 3235 H 303.512 0.244339 1.52454 0
M  V30 3236 H 305.47 -2.20163 3.46466 0
M  V30 3237 H 304.131 -2.14121 2.29806 0
M  V30 3238 H 303.324 -1.90254 4.66711 0
M  V30 3239 H 302.926 -0.45545 3.71216 0
M  V30 3240 H 305.218 -2.03501 6.46215 0
M  V30 3241 H 306.161 -0.62995 7.05292 0
M  V30 3242 H 306.569 -1.36967 5.47631 0
M  V30 3243 N 305.967 -1.56429 0.191757 0
M  V30 3244 C 307.216 -1.9666 -0.448088 0
M  V30 3245 C 307.529 -1.08136 -1.62991 0
M  V30 3246 O 308.735 -1.38135 -2.33733 0
M  V30 3247 C 307.191 -3.49753 -0.848585 0
M  V30 3248 C 306.799 -4.46935 0.308764 0
M  V30 3249 C 308.543 -3.9876 -1.4557 0
M  V30 3250 C 306.45 -5.91293 -0.112506 0
M  V30 3251 H 305.38 -0.734312 -0.171179 0
M  V30 3252 H 308.031 -1.81301 0.283242 0
M  V30 3253 H 306.413 -3.60604 -1.63649 0
M  V30 3254 H 307.587 -4.47813 1.08627 0
M  V30 3255 H 305.902 -4.08102 0.827158 0
M  V30 3256 H 308.499 -5.04086 -1.78328 0
M  V30 3257 H 308.842 -3.42875 -2.36099 0
M  V30 3258 H 309.375 -3.9101 -0.731836 0
M  V30 3259 H 306.114 -6.51097 0.758514 0
M  V30 3260 H 305.634 -5.93676 -0.854941 0
M  V30 3261 H 307.313 -6.44663 -0.549448 0
M  V30 3262 N 307.445 0.0818655 -1.57387 0
M  V30 3263 C 308.692 0.782914 -1.86753 0
M  V30 3264 C 309.02 1.78082 -0.782118 0
M  V30 3265 O 308.275 1.94426 0.22295 0
M  V30 3266 C 308.574 1.53513 -3.22752 0
M  V30 3267 C 308.24 0.678134 -4.45771 0
M  V30 3268 C 306.902 0.441929 -4.79166 0
M  V30 3269 C 309.254 0.0832243 -5.21134 0
M  V30 3270 C 306.582 -0.398833 -5.85343 0
M  V30 3271 C 308.934 -0.744935 -6.28199 0
M  V30 3272 C 307.598 -0.991107 -6.60101 0
M  V30 3273 H 306.868 0.286489 -0.683378 0
M  V30 3274 H 309.515 0.0439808 -1.91449 0
M  V30 3275 H 307.82 2.34599 -3.138 0
M  V30 3276 H 309.517 2.08218 -3.42705 0
M  V30 3277 H 306.107 0.872357 -4.19628 0
M  V30 3278 H 310.291 0.252847 -4.95655 0
M  V30 3279 H 305.547 -0.598405 -6.08465 0
M  V30 3280 H 309.721 -1.21271 -6.8576 0
M  V30 3281 H 307.348 -1.64437 -7.42202 0
M  V30 3282 N 308.923 1.53595 0.353017 0
M  V30 3283 C 310.171 1.70049 1.09215 0
M  V30 3284 C 310.492 0.461406 1.89463 0
M  V30 3285 O 309.762 -0.524633 1.88744 0
M  V30 3286 H 308.342 0.626912 0.40619 0
M  V30 3287 H 311.004 1.90822 0.396585 0
M  V30 3288 H 310.1 2.56718 1.77488 0
M  V30 3289 N 310.401 -0.613514 1.45168 0
M  V30 3290 C 311.334 -1.73809 1.47871 0
M  V30 3291 C 312.312 -1.59097 0.33568 0
M  V30 3292 O 313.496 -1.8074 0.535299 0
M  V30 3293 C 310.623 -3.11574 1.32813 0
M  V30 3294 C 309.669 -3.4489 2.50905 0
M  V30 3295 S 310.502 -3.40393 4.13392 0
M  V30 3296 C 311.658 -4.80749 4.00789 0
M  V30 3297 H 311.891 -1.71252 2.43023 0
M  V30 3298 H 309.424 -0.789658 1.32679 0
M  V30 3299 H 311.382 -3.91065 1.24812 0
M  V30 3300 H 310.043 -3.11652 0.391418 0
M  V30 3301 H 309.236 -4.45183 2.36279 0
M  V30 3302 H 308.838 -2.72901 2.55736 0
M  V30 3303 H 311.13 -5.7041 3.65567 0
M  V30 3304 H 312.073 -5.00431 5.00974 0
M  V30 3305 H 312.481 -4.56151 3.32545 0
M  V30 3306 N 311.879 -1.3236 -0.855495 0
M  V30 3307 C 313.128 -1.22226 -1.60448 0
M  V30 3308 C 313.441 0.214733 -1.94418 0
M  V30 3309 O 314.647 0.437917 -2.67945 0
M  V30 3310 C 313.103 -2.14063 -2.89318 0
M  V30 3311 C 312.711 -3.62839 -2.62777 0
M  V30 3312 C 314.455 -2.12764 -3.67331 0
M  V30 3313 C 312.362 -4.4664 -3.87643 0
M  V30 3314 H 311.292 -0.453904 -0.602069 0
M  V30 3315 H 313.943 -1.57314 -0.944698 0
M  V30 3316 H 312.325 -1.71889 -3.5675 0
M  V30 3317 H 313.499 -4.1335 -2.03662 0
M  V30 3318 H 311.814 -3.66261 -1.98096 0
M  V30 3319 H 314.411 -2.72611 -4.59987 0
M  V30 3320 H 314.754 -1.11841 -4.00995 0
M  V30 3321 H 315.287 -2.53214 -3.06802 0
M  V30 3322 H 312.026 -5.48373 -3.5912 0
M  V30 3323 H 311.546 -4.0088 -4.46156 0
M  V30 3324 H 313.225 -4.59597 -4.55389 0
M  V30 3325 N 313.357 1.07166 -1.15556 0
M  V30 3326 C 314.604 1.79798 -0.931604 0
M  V30 3327 C 314.932 1.8682 0.54115 0
M  V30 3328 O 314.187 1.34942 1.41736 0
M  V30 3329 C 314.486 3.24707 -1.49332 0
M  V30 3330 C 314.152 3.37781 -2.98688 0
M  V30 3331 C 312.814 3.41057 -3.39461 0
M  V30 3332 C 315.166 3.40424 -3.94665 0
M  V30 3333 C 312.494 3.4458 -4.74849 0
M  V30 3334 C 314.846 3.45485 -5.29927 0
M  V30 3335 C 313.51 3.47039 -5.70193 0
M  V30 3336 H 312.78 0.657928 -0.340898 0
M  V30 3337 H 315.427 1.26091 -1.44129 0
M  V30 3338 H 313.732 3.81208 -0.904859 0
M  V30 3339 H 315.429 3.79486 -1.29582 0
M  V30 3340 H 312.019 3.35932 -2.66172 0
M  V30 3341 H 316.203 3.37113 -3.64237 0
M  V30 3342 H 311.459 3.44083 -5.05388 0
M  V30 3343 H 315.633 3.46476 -6.04092 0
M  V30 3344 H 313.26 3.49522 -6.75084 0
M  V30 3345 N 314.835 0.952656 1.25548 0
M  V30 3346 C 316.06 0.623025 1.97821 0
M  V30 3347 C 316.485 -0.7976 1.70352 0
M  V30 3348 O 315.843 -1.53905 0.958283 0
M  V30 3349 C 315.891 0.885532 3.49558 0
M  V30 3350 O 314.995 -0.0366641 4.12384 0
M  V30 3351 H 314.336 0.237082 0.620232 0
M  V30 3352 H 316.866 1.27871 1.59719 0
M  V30 3353 H 316.876 0.811009 3.99858 0
M  V30 3354 H 315.551 1.92094 3.6888 0
M  V30 3355 H 314.128 0.0898954 3.72792 0
M  V30 3356 N 316.313 -1.40141 0.720998 0
M  V30 3357 C 317.246 -2.2819 0.020916 0
M  V30 3358 C 318.224 -1.43633 -0.762129 0
M  V30 3359 O 319.408 -1.7304 -0.747633 0
M  V30 3360 C 316.535 -3.24281 -0.977715 0
M  V30 3361 C 315.581 -4.25548 -0.284836 0
M  V30 3362 S 316.414 -5.26247 0.991169 0
M  V30 3363 C 317.57 -6.259 -0.0052214 0
M  V30 3364 H 317.803 -2.87218 0.767649 0
M  V30 3365 H 315.336 -1.45656 0.512233 0
M  V30 3366 H 317.294 -3.80167 -1.54865 0
M  V30 3367 H 315.955 -2.643 -1.69719 0
M  V30 3368 H 315.148 -4.93154 -1.03996 0
M  V30 3369 H 314.75 -3.73389 0.213684 0
M  V30 3370 H 317.042 -6.72143 -0.850279 0
M  V30 3371 H 317.985 -7.05224 0.637599 0
M  V30 3372 H 318.393 -5.63277 -0.371366 0
M  V30 3373 N 317.792 -0.46758 -1.50504 0
M  V30 3374 C 319.041 0.0902868 -2.01498 0
M  V30 3375 C 319.354 1.411 -1.35463 0
M  V30 3376 O 320.56 2.0536 -1.77594 0
M  V30 3377 C 319.016 0.21142 -3.59278 0
M  V30 3378 C 318.624 -1.10065 -4.34269 0
M  V30 3379 C 320.368 0.721433 -4.18325 0
M  V30 3380 C 318.275 -0.943505 -5.83825 0
M  V30 3381 H 317.205 0.037517 -0.753066 0
M  V30 3382 H 319.856 -0.601943 -1.73346 0
M  V30 3383 H 318.238 0.967352 -3.84003 0
M  V30 3384 H 319.412 -1.86726 -4.21272 0
M  V30 3385 H 317.727 -1.5415 -3.86816 0
M  V30 3386 H 320.324 0.85598 -5.27804 0
M  V30 3387 H 320.667 1.71186 -3.79475 0
M  V30 3388 H 321.2 0.0229843 -3.97793 0
M  V30 3389 H 317.939 -1.90719 -6.27141 0
M  V30 3390 H 317.459 -0.217213 -5.99407 0
M  V30 3391 H 319.138 -0.608715 -6.4413 0
M  V30 3392 N 319.27 1.56325 -0.20005 0
M  V30 3393 C 320.2 2.22318 0.713916 0
M  V30 3394 C 321.181 1.18788 1.21752 0
M  V30 3395 O 322.366 1.47309 1.26545 0
M  V30 3396 C 319.496 2.88639 1.93144 0
M  V30 3397 C 318.45 3.98457 1.56255 0
M  V30 3398 C 317.776 4.51967 2.85709 0
M  V30 3399 C 319.076 5.16612 0.768747 0
M  V30 3400 H 320.77 2.98952 0.163755 0
M  V30 3401 H 318.316 1.43792 0.0773219 0
M  V30 3402 H 320.269 3.33491 2.57608 0
M  V30 3403 H 318.993 2.09419 2.50621 0
M  V30 3404 H 317.652 3.54305 0.941471 0
M  V30 3405 H 317.3 3.69503 3.41287 0
M  V30 3406 H 317 5.26071 2.6177 0
M  V30 3407 H 318.524 4.99523 3.51154 0
M  V30 3408 H 319.938 5.57977 1.3166 0
M  V30 3409 H 318.335 5.96812 0.627286 0
M  V30 3410 H 319.405 4.84358 -0.229168 0
M  V30 3411 N 320.748 -0.0735177 1.57428 0
M  V30 3412 C 321.988 -0.778363 1.89 0
M  V30 3413 C 322.352 -1.7483 0.793634 0
M  V30 3414 O 323.553 -2.49811 0.992367 0
M  V30 3415 C 321.824 -1.46929 3.25802 0
M  V30 3416 S 323.383 -2.20943 3.79117 0
M  V30 3417 H 320.201 -0.258874 0.662197 0
M  V30 3418 H 322.803 -0.0345338 1.95469 0
M  V30 3419 H 321.507 -0.749532 4.03497 0
M  V30 3420 H 321.038 -2.25258 3.22525 0
M  V30 3421 H 323.053 -3.47435 3.54265 0
M  V30 3422 N 322.226 -1.5378 -0.344866 0
M  V30 3423 C 323.466 -1.72677 -1.09371 0
M  V30 3424 C 323.83 -0.479084 -1.85927 0
M  V30 3425 O 325.031 -0.54505 -2.63216 0
M  V30 3426 C 323.302 -2.95457 -2.01097 0
M  V30 3427 S 324.861 -3.35158 -2.83222 0
M  V30 3428 H 321.679 -0.607402 -0.369573 0
M  V30 3429 H 324.281 -1.91922 -0.372307 0
M  V30 3430 H 322.985 -3.84437 -1.43655 0
M  V30 3431 H 322.516 -2.78673 -2.77678 0
M  V30 3432 H 324.531 -2.88789 -4.03504 0
M  V30 3433 N 323.704 0.605807 -1.45491 0
M  V30 3434 C 324.667 1.69836 -1.5391 0
M  V30 3435 C 325.667 1.55261 -0.418424 0
M  V30 3436 O 326.857 1.60296 -0.681965 0
M  V30 3437 C 323.989 3.09117 -1.43734 0
M  V30 3438 H 325.182 1.63738 -2.51257 0
M  V30 3439 H 322.735 0.821689 -1.32959 0
M  V30 3440 H 323.47 3.20791 -0.475788 0
M  V30 3441 H 323.255 3.21104 -2.25021 0
M  V30 3442 H 324.745 3.88696 -1.52661 0
M  V30 3443 N 325.182 1.32811 0.848464 0
M  V30 3444 C 326.431 1.23075 1.59798 0
M  V30 3445 C 326.744 -0.204419 1.94529 0
M  V30 3446 O 327.95 -0.423701 2.68173 0
M  V30 3447 C 326.406 2.15594 2.88179 0
M  V30 3448 C 326.014 3.64228 2.60849 0
M  V30 3449 C 327.758 2.14709 3.66197 0
M  V30 3450 C 325.665 4.48689 3.85269 0
M  V30 3451 H 324.595 0.457091 0.599653 0
M  V30 3452 H 327.246 1.57813 0.936342 0
M  V30 3453 H 325.628 1.73778 3.55833 0
M  V30 3454 H 326.802 4.14424 2.01467 0
M  V30 3455 H 325.117 3.67306 1.96151 0
M  V30 3456 H 327.714 2.75046 4.58534 0
M  V30 3457 H 328.057 1.13966 4.00397 0
M  V30 3458 H 328.59 2.54837 3.05455 0
M  V30 3459 H 325.329 5.5027 3.56207 0
M  V30 3460 H 324.849 4.03241 4.44024 0
M  V30 3461 H 326.528 4.62006 4.52946 0
M  V30 3462 N 326.66 -1.06551 1.16123 0
M  V30 3463 C 328.076 -1.3142 0.905585 0
M  V30 3464 C 328.276 -1.96571 -0.442964 0
M  V30 3465 O 327.332 -2.23068 -1.18308 0
M  V30 3466 C 328.645 -2.19741 2.05267 0
M  V30 3467 C 330.193 -2.33165 2.08813 0
M  V30 3468 C 330.668 -3.24838 3.22868 0
M  V30 3469 N 332.159 -3.32421 3.22568 0
M  V30 3470 C 332.894 -4.0344 4.0746 0
M  V30 3471 N 332.39 -4.77003 5.02434 0
M  V30 3472 N 334.183 -3.99464 3.95456 0
M  V30 3473 H 326.334 -0.626548 2.02949 0
M  V30 3474 H 328.597 -0.338777 0.8854 0
M  V30 3475 H 328.303 -1.79142 3.02657 0
M  V30 3476 H 328.177 -3.20313 1.99198 0
M  V30 3477 H 330.564 -2.73013 1.12018 0
M  V30 3478 H 330.645 -1.3227 2.18948 0
M  V30 3479 H 330.289 -2.85708 4.19921 0
M  V30 3480 H 330.219 -4.25707 3.0997 0
M  V30 3481 H 332.71 -2.79994 2.53795 0
M  V30 3482 H 333.023 -5.28712 5.63634 0
M  V30 3483 H 331.368 -4.75992 5.06415 0
M  V30 3484 H 334.559 -3.4111 3.20564 0
M  V30 3485 H 334.732 -4.54544 4.61837 0
M  V30 3486 N 328.138 -0.959301 -1.25041 0
M  V30 3487 C 329.554 -0.664474 -1.4511 0
M  V30 3488 C 329.754 0.776481 -1.85938 0
M  V30 3489 O 328.81 1.55128 -1.99227 0
M  V30 3490 C 330.123 -1.64139 -2.5195 0
M  V30 3491 C 331.671 -1.65309 -2.65786 0
M  V30 3492 C 332.146 -2.61777 -3.75815 0
M  V30 3493 N 333.637 -2.60169 -3.83231 0
M  V30 3494 C 334.372 -3.31489 -4.6787 0
M  V30 3495 N 333.868 -4.12298 -5.56761 0
M  V30 3496 N 335.661 -3.20354 -4.61876 0
M  V30 3497 H 327.812 -1.89043 -0.968332 0
M  V30 3498 H 330.075 -0.813408 -0.4869 0
M  V30 3499 H 329.781 -2.67086 -2.28819 0
M  V30 3500 H 329.655 -1.40756 -3.49954 0
M  V30 3501 H 332.042 -0.630778 -2.8828 0
M  V30 3502 H 332.123 -1.92753 -1.68167 0
M  V30 3503 H 331.767 -3.64137 -3.54071 0
M  V30 3504 H 331.697 -2.31616 -4.72929 0
M  V30 3505 H 334.188 -2.01507 -3.19692 0
M  V30 3506 H 334.501 -4.63625 -6.18281 0
M  V30 3507 H 332.846 -4.16395 -5.56454 0
M  V30 3508 H 336.037 -2.56692 -3.91442 0
M  V30 3509 H 336.21 -3.76201 -5.27614 0
M  V30 3510 N 329.616 1.39756 -0.72842 0
M  V30 3511 C 330.564 2.32485 -0.0731849 0
M  V30 3512 C 331.558 1.52717 0.733063 0
M  V30 3513 O 332.764 1.68428 0.634988 0
M  V30 3514 H 329.139 0.751984 -0.00486469 0
M  V30 3515 H 331.11 2.85382 -0.871761 0
M  V30 3516 C 329.859 3.37773 0.824908 0
M  V30 3517 H 329.182 3.99227 0.213915 0
M  V30 3518 H 330.622 4.05121 1.25111 0
M  V30 3519 C 329.081 2.74287 1.95622 0
M  V30 3520 O 329.611 2.61618 3.04826 0
M  V30 3521 N 327.817 2.32475 1.74367 0
M  V30 3522 H 327.364 2.4298 0.855494 0
M  V30 3523 H 327.322 1.90337 2.50238 0
M  V30 3524 N 331.094 0.475555 1.50254 0
M  V30 3525 C 332.51 0.12997 1.5907 0
M  V30 3526 C 332.71 -1.36385 1.48328 0
M  V30 3527 O 331.766 -2.13754 1.34407 0
M  V30 3528 C 333.079 0.684139 2.92814 0
M  V30 3529 C 334.627 0.647965 3.0622 0
M  V30 3530 C 335.102 1.17975 4.42545 0
M  V30 3531 N 336.593 1.13936 4.48969 0
M  V30 3532 C 337.328 1.52129 5.52851 0
M  V30 3533 N 336.824 1.97793 6.63965 0
M  V30 3534 N 338.617 1.43704 5.4342 0
M  V30 3535 H 330.768 1.44706 1.55479 0
M  V30 3536 H 333.031 0.598691 0.735033 0
M  V30 3537 H 332.737 1.73079 3.06164 0
M  V30 3538 H 332.611 0.130204 3.76975 0
M  V30 3539 H 334.998 -0.38979 2.92514 0
M  V30 3540 H 335.079 1.23876 2.23805 0
M  V30 3541 H 334.723 2.21616 4.57 0
M  V30 3542 H 334.653 0.565138 5.23559 0
M  V30 3543 H 337.144 0.804488 3.69238 0
M  V30 3544 H 337.457 2.25072 7.39299 0
M  V30 3545 H 335.802 2.01749 6.65073 0
M  V30 3546 H 338.993 1.07867 4.55502 0
M  V30 3547 H 339.166 1.73794 6.24259 0
M  V30 3548 N 332.573 -1.56217 0.208337 0
M  V30 3549 C 333.483 -2.23316 -0.718836 0
M  V30 3550 C 334.499 -1.23648 -1.22422 0
M  V30 3551 O 335.675 -1.56423 -1.26861 0
M  V30 3552 C 332.74 -2.88968 -1.91568 0
M  V30 3553 C 331.801 -4.03943 -1.45357 0
M  V30 3554 C 331.034 -4.66455 -2.59337 0
M  V30 3555 O 331.257 -4.27919 -3.77149 0
M  V30 3556 O 330.191 -5.55686 -2.31293 0
M  V30 3557 H 334.017 -3.03182 -0.177315 0
M  V30 3558 H 331.602 -1.49384 -0.0215402 0
M  V30 3559 H 333.484 -3.30455 -2.61491 0
M  V30 3560 H 332.159 -2.12071 -2.44556 0
M  V30 3561 H 331.066 -3.67052 -0.722746 0
M  V30 3562 H 332.399 -4.82543 -0.970219 0
M  V30 3563 N 334.051 0.0651679 -1.57465 0
M  V30 3564 C 334.984 1.10876 -1.99453 0
M  V30 3565 C 335.962 1.37205 -0.872555 0
M  V30 3566 O 337.146 1.50468 -1.13542 0
M  V30 3567 C 334.273 2.45167 -2.3369 0
M  V30 3568 C 333.319 2.3493 -3.55964 0
M  V30 3569 S 334.152 1.73708 -5.06543 0
M  V30 3570 C 335.308 3.09563 -5.43987 0
M  V30 3571 H 335.541 0.750967 -2.87659 0
M  V30 3572 H 333.074 0.273933 -1.51951 0
M  V30 3573 H 335.032 3.22412 -2.54088 0
M  V30 3574 H 333.693 2.78105 -1.46001 0
M  V30 3575 H 332.886 3.3398 -3.77457 0
M  V30 3576 H 332.488 1.65823 -3.3523 0
M  V30 3577 H 334.78 4.05882 -5.42463 0
M  V30 3578 H 335.723 2.92843 -6.44708 0
M  V30 3579 H 336.131 3.10474 -4.71451 0
M  V30 3580 N 335.529 1.53961 0.336706 0
M  V30 3581 C 336.775 1.7179 1.07777 0
M  V30 3582 C 337.108 0.483263 1.88091 0
M  V30 3583 O 336.383 -0.519747 1.87427 0
M  V30 3584 C 336.666 2.98558 2.01334 0
M  V30 3585 C 336.519 4.32245 1.24437 0
M  V30 3586 C 337.838 3.21023 3.01052 0
M  V30 3587 H 334.957 0.625089 0.390426 0
M  V30 3588 H 337.599 1.86641 0.35567 0
M  V30 3589 H 335.749 2.86028 2.62908 0
M  V30 3590 H 337.421 4.56637 0.654243 0
M  V30 3591 H 335.664 4.30344 0.546458 0
M  V30 3592 H 336.335 5.17137 1.93063 0
M  V30 3593 H 338.811 3.32929 2.49595 0
M  V30 3594 H 337.687 4.11104 3.6371 0
M  V30 3595 H 337.948 2.37637 3.72802 0
M  V30 3596 O 337.046 -0.482677 1.54118 0
M  V30 3597 H 337.737 -1.13727 1.56799 0
M  V30 END ATOM
M  V30 BEGIN BOND
M  V30 END BOND
M  V30 END CTAB
M  END
$$$$
