drugbank_target|P22033 Methylmalonyl-CoA mutase, mitochondrial (DB00115; DB00200)
 OpenBabel12092119393D

  0  0  0     0  0            999 V3000
M  V30 BEGIN CTAB
M  V30 COUNTS 11725 11836 0 0 0
M  V30 BEGIN ATOM
M  V30 1 H -0.908 1.98254 -0.117106 0
M  V30 2 N 0 1.576 0 0
M  V30 3 C 0.933 2.03868 1.02534 0
M  V30 4 C 1.911 0.928543 1.3348 0
M  V30 5 O 3.095 1.19667 1.45644 0
M  V30 6 C 0.222 2.43627 2.35294 0
M  V30 7 C -0.732 3.65373 2.2001 0
M  V30 8 S 0.101 5.13292 1.52614 0
M  V30 9 C 1.257 5.56322 2.86805 0
M  V30 10 H 1.49 2.90518 0.631377 0
M  V30 11 H -0.977 1.52953 0.210867 0
M  V30 12 H 0.981 2.67203 3.11629 0
M  V30 13 H -0.358 1.57376 2.7183 0
M  V30 14 H -1.165 3.90944 3.18086 0
M  V30 15 H -1.563 3.418 1.51819 0
M  V30 16 H 0.729 5.58782 3.83104 0
M  V30 17 H 1.672 6.56266 2.65933 0
M  V30 18 H 2.08 4.83886 2.90714 0
M  V30 19 N 1.4781 -0.272755 1.55222 0
M  V30 20 C 2.4081 -1.34136 1.91127 0
M  V30 21 C 3.3891 -1.51513 0.773168 0
M  V30 22 O 4.5741 -1.64552 1.03132 0
M  V30 23 C 1.7041 -2.70083 2.1834 0
M  V30 24 C 0.6581 -2.67437 3.34158 0
M  V30 25 C -0.0159 -4.06938 3.46851 0
M  V30 26 C 1.2841 -2.26686 4.70543 0
M  V30 27 H 2.9781 -1.04333 2.80633 0
M  V30 28 H 0.5241 -0.500454 1.35024 0
M  V30 29 H 2.4771 -3.44952 2.42046 0
M  V30 30 H 1.2011 -3.01469 1.25634 0
M  V30 31 H -0.1399 -1.95026 3.1042 0
M  V30 32 H -0.4919 -4.35547 2.51611 0
M  V30 33 H -0.7919 -4.06062 4.2472 0
M  V30 34 H 0.7321 -4.83545 3.72849 0
M  V30 35 H 2.1461 -2.91277 4.93792 0
M  V30 36 H 0.5431 -2.36971 5.5133 0
M  V30 37 H 1.6131 -1.21818 4.69349 0
M  V30 38 N 2.9562 -1.48159 -0.537278 0
M  V30 39 C 4.3722 -1.34118 -0.865129 0
M  V30 40 C 4.5722 -0.346678 -1.98495 0
M  V30 41 O 3.6282 0.234715 -2.51407 0
M  V30 42 C 4.9412 -2.73963 -1.23954 0
M  V30 43 C 6.4892 -2.82397 -1.34984 0
M  V30 44 C 6.9642 -4.22928 -1.75772 0
M  V30 45 N 8.4552 -4.25566 -1.82887 0
M  V30 46 C 9.1902 -5.31235 -2.15817 0
M  V30 47 N 8.6862 -6.47189 -2.47222 0
M  V30 48 N 10.4792 -5.18624 -2.16761 0
M  V30 49 H 2.6302 -2.1144 0.201715 0
M  V30 50 H 4.8932 -0.947598 0.0275949 0
M  V30 51 H 4.5992 -3.48264 -0.490381 0
M  V30 52 H 4.4732 -3.0702 -2.19132 0
M  V30 53 H 6.8602 -2.08356 -2.08978 0
M  V30 54 H 6.9412 -2.5297 -0.379448 0
M  V30 55 H 6.5852 -4.97482 -1.02341 0
M  V30 56 H 6.5152 -4.49794 -2.73848 0
M  V30 57 H 9.0062 -3.41924 -1.60924 0
M  V30 58 H 9.3192 -7.23564 -2.71433 0
M  V30 59 H 7.6642 -6.50476 -2.44757 0
M  V30 60 H 10.8552 -4.27056 -1.91679 0
M  V30 61 H 11.0282 -6.01078 -2.42093 0
M  V30 62 N 4.4343 0.785586 -1.36625 0
M  V30 63 C 5.3973 1.87999 -1.31107 0
M  V30 64 C 6.3973 1.59316 -0.217959 0
M  V30 65 O 7.5873 1.67656 -0.472977 0
M  V30 66 C 4.7193 3.24861 -1.03334 0
M  V30 67 H 5.9123 1.94307 -2.2844 0
M  V30 68 H 3.4653 0.983813 -1.21453 0
M  V30 69 H 4.2003 3.24235 -0.0647432 0
M  V30 70 H 3.9853 3.4707 -1.82441 0
M  V30 71 H 5.4753 4.04929 -1.02088 0
M  V30 72 N 5.9124 1.20967 1.01018 0
M  V30 73 C 6.8594 0.964281 2.09691 0
M  V30 74 C 7.8294 -0.107853 1.65749 0
M  V30 75 O 9.0144 0.0381987 1.90762 0
M  V30 76 C 6.1544 0.52943 3.41015 0
M  V30 77 C 5.2674 1.67043 3.98398 0
M  V30 78 C 4.4024 1.18525 5.17808 0
M  V30 79 C 3.4414 2.29892 5.67288 0
M  V30 80 N 2.5784 1.82546 6.77954 0
M  V30 81 H 7.4184 1.89463 2.30017 0
M  V30 82 H 4.9554 0.944289 1.1279 0
M  V30 83 H 6.9134 0.258588 4.16398 0
M  V30 84 H 5.5434 -0.363919 3.20742 0
M  V30 85 H 4.5954 2.05603 3.20049 0
M  V30 86 H 5.9074 2.50877 4.31117 0
M  V30 87 H 5.0614 0.870762 6.00419 0
M  V30 88 H 3.8004 0.316887 4.86669 0
M  V30 89 H 2.8054 2.6215 4.83278 0
M  V30 90 H 4.0304 3.17216 6.00459 0
M  V30 91 H 1.9764 0.980454 6.48632 0
M  V30 92 H 1.8934 2.59956 7.09901 0
M  V30 93 H 3.1614 1.54115 7.64113 0
M  V30 94 N 7.3905 -1.2043 1.01659 0
M  V30 95 C 8.3385 -2.25249 0.580143 0
M  V30 96 C 9.3325 -1.65057 -0.381115 0
M  V30 97 O 10.5385 -1.78241 -0.251039 0
M  V30 98 H 6.9135 -0.732695 0.169299 0
M  V30 99 H 8.8845 -2.59389 1.47512 0
M  V30 100 C 7.6335 -3.47638 -0.065788 0
M  V30 101 H 6.9565 -3.94233 0.664874 0
M  V30 102 H 8.3965 -4.2268 -0.334282 0
M  V30 103 C 6.8555 -3.10447 -1.3086 0
M  V30 104 O 7.3855 -3.21981 -2.4019 0
M  V30 105 N 5.5915 -2.64996 -1.1927 0
M  V30 106 H 5.1385 -2.55811 -0.303064 0
M  V30 107 H 5.0965 -2.40482 -2.02523 0
M  V30 108 N 8.8686 -0.792821 -1.36206 0
M  V30 109 C 9.8006 -0.151469 -2.28699 0
M  V30 110 C 10.8136 0.641262 -1.49638 0
M  V30 111 O 12.0026 0.475885 -1.72039 0
M  V30 112 C 9.1026 0.808424 -3.29117 0
M  V30 113 C 8.2756 0.0650202 -4.37352 0
M  V30 114 C 7.3346 0.941358 -5.17711 0
M  V30 115 O 6.3606 0.397352 -5.67811 0
M  V30 116 N 7.5626 2.2652 -5.3448 0
M  V30 117 H 10.3276 -0.945982 -2.84379 0
M  V30 118 H 7.8886 -0.647032 -1.48409 0
M  V30 119 H 9.8806 1.3986 -3.79765 0
M  V30 120 H 8.4506 1.5038 -2.74052 0
M  V30 121 H 7.6706 -0.706255 -3.87822 0
M  V30 122 H 8.9586 -0.447847 -5.06825 0
M  V30 123 H 8.3566 2.73128 -4.95396 0
M  V30 124 H 6.9136 2.80493 -5.88359 0
M  V30 125 N 10.3467 1.47872 -0.545128 0
M  V30 126 C 11.2767 2.32661 0.197793 0
M  V30 127 C 12.2577 1.43041 0.920504 0
M  V30 128 O 13.4427 1.71912 0.90333 0
M  V30 129 C 10.5727 3.24569 1.23582 0
M  V30 130 C 9.5267 4.23333 0.630323 0
M  V30 131 C 8.8527 5.0448 1.77211 0
M  V30 132 C 10.1527 5.20704 -0.407974 0
M  V30 133 H 11.8467 2.95024 -0.510045 0
M  V30 134 H 9.3927 1.4187 -0.246731 0
M  V30 135 H 11.3457 3.8272 1.76362 0
M  V30 136 H 10.0697 2.60236 1.97344 0
M  V30 137 H 8.7287 3.6639 0.123922 0
M  V30 138 H 8.3767 4.36561 2.49847 0
M  V30 139 H 8.0767 5.71339 1.37281 0
M  V30 140 H 9.6007 5.65487 2.3034 0
M  V30 141 H 11.0147 5.7329 0.033305 0
M  V30 142 H 9.4117 5.95699 -0.725486 0
M  V30 143 H 10.4817 4.66917 -1.30828 0
M  V30 144 N 11.8248 0.280983 1.55075 0
M  V30 145 C 13.0718 -0.334115 1.99725 0
M  V30 146 C 13.3998 -1.5542 1.1694 0
M  V30 147 O 12.6548 -1.94361 0.228531 0
M  V30 148 C 12.9538 -0.754656 3.49342 0
M  V30 149 C 12.6198 0.361445 4.49449 0
M  V30 150 C 11.2818 0.667893 4.76542 0
M  V30 151 C 13.6338 1.11322 5.09173 0
M  V30 152 C 10.9618 1.7296 5.60626 0
M  V30 153 C 13.3138 2.1647 5.9441 0
M  V30 154 C 11.9778 2.47742 6.19822 0
M  V30 155 H 11.2478 -0.122261 0.730844 0
M  V30 156 H 13.8948 0.395917 1.87363 0
M  V30 157 H 12.1998 -1.56446 3.5921 0
M  V30 158 H 13.8968 -1.24142 3.813 0
M  V30 159 H 10.4868 0.112481 4.28452 0
M  V30 160 H 14.6708 0.88973 4.8826 0
M  V30 161 H 9.9268 1.97684 5.78559 0
M  V30 162 H 14.1008 2.75193 6.3972 0
M  V30 163 H 11.7278 3.30145 6.84769 0
M  V30 164 N 13.3029 -1.57598 0.00835791 0
M  V30 165 C 14.2329 -2.1198 -0.979113 0
M  V30 166 C 15.2139 -1.03091 -1.35301 0
M  V30 167 O 16.3989 -1.30818 -1.43528 0
M  V30 168 C 13.5289 -2.62995 -2.26828 0
M  V30 169 C 12.4829 -3.76485 -2.03576 0
M  V30 170 C 11.8089 -4.13846 -3.38579 0
M  V30 171 C 13.1089 -5.0342 -1.39161 0
M  V30 172 H 14.8029 -2.94738 -0.526281 0
M  V30 173 H 12.3489 -1.41783 -0.251704 0
M  V30 174 H 14.3019 -2.99669 -2.96271 0
M  V30 175 H 13.0259 -1.7737 -2.7424 0
M  V30 176 H 11.6849 -3.40217 -1.36557 0
M  V30 177 H 11.3329 -3.25232 -3.83709 0
M  V30 178 H 11.0329 -4.90312 -3.23834 0
M  V30 179 H 12.5569 -4.53086 -4.09323 0
M  V30 180 H 13.9709 -5.37812 -1.98573 0
M  V30 181 H 12.3679 -5.84746 -1.34878 0
M  V30 182 H 13.4379 -4.83548 -0.361868 0
M  V30 183 N 14.781 0.264519 -1.55364 0
M  V30 184 C 15.711 1.33121 -1.91836 0
M  V30 185 C 16.692 1.51101 -0.781192 0
M  V30 186 O 17.877 1.64003 -1.04003 0
M  V30 187 C 15.007 2.68921 -2.19769 0
M  V30 188 C 13.961 2.65661 -3.35571 0
M  V30 189 C 13.287 4.05093 -3.49004 0
M  V30 190 C 14.587 2.24187 -4.71739 0
M  V30 191 H 16.281 1.02844 -2.81182 0
M  V30 192 H 13.827 0.493286 -1.35287 0
M  V30 193 H 15.78 3.43663 -2.43872 0
M  V30 194 H 14.504 3.00799 -1.27231 0
M  V30 195 H 13.163 1.93377 -3.1145 0
M  V30 196 H 12.811 4.34206 -2.53917 0
M  V30 197 H 12.511 4.03804 -4.26868 0
M  V30 198 H 14.035 4.81561 -3.75408 0
M  V30 199 H 15.449 2.88654 -4.9533 0
M  V30 200 H 13.846 2.34044 -5.52579 0
M  V30 201 H 14.916 1.19327 -4.69988 0
M  V30 202 N 16.2591 1.48442 0.529413 0
M  V30 203 C 17.4841 1.60406 1.31471 0
M  V30 204 C 17.9091 0.264738 1.86228 0
M  V30 205 O 17.2671 -0.763668 1.64432 0
M  V30 206 C 17.3151 2.65419 2.44101 0
M  V30 207 O 16.4191 2.22618 3.47153 0
M  V30 208 H 15.7601 0.537863 0.389357 0
M  V30 209 H 18.2901 1.94432 0.636965 0
M  V30 210 H 18.3001 2.86709 2.90279 0
M  V30 211 H 16.9751 3.62652 2.03608 0
M  V30 212 H 15.5521 2.11543 3.0709 0
M  V30 213 N 17.7372 -0.778329 1.37039 0
M  V30 214 C 19.1482 -1.35421 1.28523 0
M  V30 215 C 19.4992 -1.96075 -0.0700901 0
M  V30 216 O 18.6242 -1.93352 -0.971801 0
M  V30 217 C 19.2192 -2.46211 2.32735 0
M  V30 218 C 17.7782 -2.99585 2.27873 0
M  V30 219 C 16.9252 -1.72748 2.16918 0
M  V30 220 H 19.8762 -0.5791 1.47757 0
M  V30 221 H 19.8972 -3.2552 1.9702 0
M  V30 222 H 19.4092 -2.02036 3.31365 0
M  V30 223 H 17.5102 -3.48152 1.32745 0
M  V30 224 H 17.6232 -3.55646 3.21018 0
M  V30 225 H 15.9872 -1.95416 1.63354 0
M  V30 226 H 16.7702 -1.30686 3.17452 0
M  V30 227 N 19.2153 -1.21501 -1.00376 0
M  V30 228 C 20.1653 -0.942843 -2.07592 0
M  V30 229 C 21.1493 0.102384 -1.60574 0
M  V30 230 O 22.3413 -0.10671 -1.76678 0
M  V30 231 C 19.4703 -0.510729 -3.3948 0
M  V30 232 C 18.5563 -1.59009 -3.93163 0
M  V30 233 N 18.9473 -2.81544 -4.20198 0
M  V30 234 C 17.2453 -1.45925 -4.21452 0
M  V30 235 C 17.9463 -3.51261 -4.63671 0
M  V30 236 N 16.9223 -2.78703 -4.66718 0
M  V30 237 H 20.7243 -1.87378 -2.26421 0
M  V30 238 H 18.2383 -1.11093 -1.18458 0
M  V30 239 H 20.2353 -0.297101 -4.1584 0
M  V30 240 H 18.8953 0.413436 -3.22057 0
M  V30 241 H 19.9063 -3.18075 -4.08716 0
M  V30 242 H 16.5833 -0.600467 -4.13159 0
M  V30 243 H 17.9733 -4.56183 -4.93302 0
M  V30 244 N 20.6934 1.19889 -1.02296 0
M  V30 245 C 21.9234 1.93109 -0.734332 0
M  V30 246 C 22.3314 1.75377 0.709889 0
M  V30 247 O 21.6744 1.06912 1.49384 0
M  V30 248 C 21.7364 3.45362 -0.99827 0
M  V30 249 C 21.4004 3.8686 -2.43287 0
M  V30 250 C 22.3974 3.92102 -3.41397 0
M  V30 251 C 20.0824 4.18668 -2.77529 0
M  V30 252 C 22.0764 4.28573 -4.71809 0
M  V30 253 C 19.7634 4.54813 -4.08153 0
M  V30 254 C 20.7614 4.59739 -5.05103 0
M  V30 255 O 20.4494 4.95051 -6.33388 0
M  V30 256 H 20.1814 0.620409 -0.268456 0
M  V30 257 H 22.7354 1.53144 -1.3688 0
M  V30 258 H 20.9654 3.85482 -0.306645 0
M  V30 259 H 22.6544 3.99814 -0.700234 0
M  V30 260 H 23.4204 3.67685 -3.1628 0
M  V30 261 H 19.2994 4.14021 -2.0275 0
M  V30 262 H 22.8434 4.32333 -5.4748 0
M  V30 263 H 18.7404 4.78687 -4.33047 0
M  V30 264 H 19.5084 5.1302 -6.37772 0
M  V30 265 N 22.1715 0.800033 1.35784 0
M  V30 266 C 23.1015 0.220184 2.3246 0
M  V30 267 C 24.0825 -0.65073 1.57161 0
M  V30 268 O 25.2675 -0.582359 1.85263 0
M  V30 269 C 22.3975 -0.637353 3.41402 0
M  V30 270 C 21.3515 0.134531 4.27789 0
M  V30 271 C 20.6775 -0.844285 5.27992 0
M  V30 272 C 21.9775 1.32979 5.05088 0
M  V30 273 H 23.6715 1.02787 2.81203 0
M  V30 274 H 21.2175 0.495717 1.35199 0
M  V30 275 H 23.1705 -1.05302 4.08031 0
M  V30 276 H 21.8945 -1.47785 2.91251 0
M  V30 277 H 20.5535 0.531296 3.6273 0
M  V30 278 H 20.2015 -1.68011 4.74111 0
M  V30 279 H 19.9015 -0.332184 5.8666 0
M  V30 280 H 21.4255 -1.2583 5.97494 0
M  V30 281 H 22.8395 0.98934 5.64699 0
M  V30 282 H 21.2365 1.77593 5.7322 0
M  V30 283 H 22.3065 2.11978 4.36111 0
M  V30 284 N 23.6496 -1.47581 0.552962 0
M  V30 285 C 25.0656 -1.5818 0.212424 0
M  V30 286 C 25.2656 -1.55213 -1.28496 0
M  V30 287 O 24.3216 -1.45329 -2.06484 0
M  V30 288 C 25.6346 -2.88865 0.835318 0
M  V30 289 C 27.1826 -3.0244 0.806156 0
M  V30 290 C 27.6576 -4.35819 1.40804 0
M  V30 291 N 29.1486 -4.42444 1.37103 0
M  V30 292 C 29.8836 -5.44202 1.80641 0
M  V30 293 N 29.3796 -6.52795 2.32015 0
M  V30 294 N 31.1726 -5.35222 1.71738 0
M  V30 295 H 23.3236 -1.47753 1.52587 0
M  V30 296 H 25.5866 -0.702941 0.636064 0
M  V30 297 H 25.2926 -2.9676 1.88749 0
M  V30 298 H 25.1666 -3.7579 0.325848 0
M  V30 299 H 27.5536 -2.94144 -0.237317 0
M  V30 300 H 27.6346 -2.17068 1.35334 0
M  V30 301 H 27.2786 -4.44871 2.45056 0
M  V30 302 H 27.2086 -5.19916 0.836338 0
M  V30 303 H 29.6996 -3.6456 0.995202 0
M  V30 304 H 30.0126 -7.26609 2.63171 0
M  V30 305 H 28.3576 -6.53696 2.36023 0
M  V30 306 H 31.5486 -4.49284 1.31382 0
M  V30 307 H 31.7216 -6.14389 2.05987 0
M  V30 308 N 25.1277 -0.289203 -1.54924 0
M  V30 309 C 26.0597 0.625583 -2.20497 0
M  V30 310 C 27.0727 1.10667 -1.19402 0
M  V30 311 O 28.2617 1.02615 -1.46056 0
M  V30 312 C 25.3617 1.86702 -2.82835 0
M  V30 313 C 24.5347 1.5304 -4.09753 0
M  V30 314 C 23.5937 2.62576 -4.56005 0
M  V30 315 O 22.6197 2.28167 -5.21468 0
M  V30 316 N 23.8217 3.92901 -4.27328 0
M  V30 317 H 26.5867 0.0642801 -2.99631 0
M  V30 318 H 24.1477 -0.110896 -1.6152 0
M  V30 319 H 26.1397 2.59304 -3.10715 0
M  V30 320 H 24.7097 2.33702 -2.07611 0
M  V30 321 H 23.9297 0.637564 -3.8901 0
M  V30 322 H 25.2177 1.28072 -4.92418 0
M  V30 323 H 24.6157 4.23671 -3.74859 0
M  V30 324 H 23.1727 4.61837 -4.59946 0
M  V30 325 N 26.6058 1.57591 -0.0167156 0
M  V30 326 C 27.8518 1.91567 0.665582 0
M  V30 327 C 28.1848 0.892298 1.72487 0
M  V30 328 O 27.4598 -0.0867127 1.94307 0
M  V30 329 C 27.7428 3.36069 1.29342 0
M  V30 330 C 27.5958 4.49135 0.244541 0
M  V30 331 C 28.9148 3.803 2.21495 0
M  V30 332 H 26.0338 0.69666 0.240488 0
M  V30 333 H 28.6758 1.89866 -0.0714356 0
M  V30 334 H 26.8258 3.3765 1.92158 0
M  V30 335 H 28.4978 4.59689 -0.385228 0
M  V30 336 H 26.7408 4.3165 -0.431379 0
M  V30 337 H 27.4118 5.47242 0.723207 0
M  V30 338 H 29.8878 3.80377 1.68678 0
M  V30 339 H 28.7638 4.82127 2.62382 0
M  V30 340 H 29.0248 3.15104 3.101 0
M  V30 341 N 28.0839 -0.256276 1.55502 0
M  V30 342 C 29.0309 -1.31714 1.89526 0
M  V30 343 C 30.0009 -1.4828 0.748479 0
M  V30 344 O 31.1859 -1.62416 1.00128 0
M  V30 345 C 28.3259 -2.66933 2.18725 0
M  V30 346 C 27.4389 -2.58452 3.4616 0
M  V30 347 C 26.5739 -3.85961 3.64976 0
M  V30 348 C 25.6129 -3.72059 4.86044 0
M  V30 349 N 24.7499 -4.9144 5.01429 0
M  V30 350 H 29.5899 -1.01998 2.80001 0
M  V30 351 H 27.1269 -0.492413 1.38613 0
M  V30 352 H 29.0849 -3.4563 2.33657 0
M  V30 353 H 27.7149 -2.94816 1.31466 0
M  V30 354 H 26.7669 -1.71374 3.3961 0
M  V30 355 H 28.0789 -2.44085 4.34999 0
M  V30 356 H 27.2329 -4.73101 3.79816 0
M  V30 357 H 25.9719 -4.03215 2.74353 0
M  V30 358 H 24.9769 -2.83302 4.7119 0
M  V30 359 H 26.2019 -3.56309 5.78118 0
M  V30 360 H 24.1479 -5.09072 4.13741 0
M  V30 361 H 24.0649 -4.79668 5.84341 0
M  V30 362 H 25.3329 -5.80104 5.20672 0
M  V30 363 N 29.562 -1.4872 -0.521534 0
M  V30 364 C 30.472 -1.66569 -1.65203 0
M  V30 365 C 31.488 -0.548197 -1.65139 0
M  V30 366 O 32.664 -0.820339 -1.83936 0
M  V30 367 C 29.729 -1.70917 -3.01642 0
M  V30 368 C 28.79 -2.94356 -3.12495 0
M  V30 369 C 28.023 -2.98487 -4.42426 0
M  V30 370 O 28.246 -2.10786 -5.30024 0
M  V30 371 O 27.18 -3.90746 -4.57822 0
M  V30 372 H 31.006 -2.62298 -1.5308 0
M  V30 373 H 28.591 -1.3222 -0.695565 0
M  V30 374 H 30.473 -1.7625 -3.82771 0
M  V30 375 H 29.148 -0.783633 -3.14071 0
M  V30 376 H 28.055 -2.94552 -2.3063 0
M  V30 377 H 29.388 -3.86322 -3.04986 0
M  V30 378 N 31.0401 0.771051 -1.3745 0
M  V30 379 C 32.2651 1.56529 -1.36065 0
M  V30 380 C 32.6901 1.88029 0.0515859 0
M  V30 381 O 32.0481 1.49282 1.02882 0
M  V30 382 C 32.0961 2.85187 -2.20683 0
M  V30 383 O 31.2001 3.79593 -1.61193 0
M  V30 384 H 30.5411 0.47411 -0.464883 0
M  V30 385 H 33.0711 0.954269 -1.80983 0
M  V30 386 H 33.0811 3.34283 -2.33921 0
M  V30 387 H 31.7561 2.61588 -3.23334 0
M  V30 388 H 30.3331 3.38239 -1.56999 0
M  V30 389 N 32.5182 1.22032 0.997298 0
M  V30 390 C 33.7432 1.06921 1.77715 0
M  V30 391 C 34.1682 -0.376226 1.84299 0
M  V30 392 O 33.5262 -1.27165 1.29223 0
M  V30 393 C 33.5742 1.67996 3.19076 0
M  V30 394 O 32.6782 0.930653 4.01762 0
M  V30 395 H 32.0192 0.375814 0.547412 0
M  V30 396 H 34.5492 1.61737 1.25309 0
M  V30 397 H 34.5592 1.72538 3.69723 0
M  V30 398 H 33.2342 2.73182 3.13599 0
M  V30 399 H 31.8112 0.960917 3.60307 0
M  V30 400 N 33.9963 -1.19345 1.0293 0
M  V30 401 C 35.2443 -1.88665 0.724574 0
M  V30 402 C 35.5653 -1.80036 -0.749144 0
M  V30 403 O 34.8353 -1.2111 -1.53978 0
M  V30 404 H 33.4153 -0.698406 0.265025 0
M  V30 405 H 36.0773 -1.44885 1.30362 0
M  V30 406 H 35.1733 -2.94987 1.01926 0
M  V30 407 N 35.4744 -0.807222 -1.35358 0
M  V30 408 C 36.6994 -0.399309 -2.0352 0
M  V30 409 C 37.1244 0.981986 -1.60433 0
M  V30 410 O 36.4824 1.63601 -0.781299 0
M  V30 411 C 36.5304 -0.491552 -3.57234 0
M  V30 412 O 35.6344 0.494754 -4.09421 0
M  V30 413 H 34.9754 -0.166682 -0.642739 0
M  V30 414 H 37.5054 -1.09328 -1.72941 0
M  V30 415 H 37.5154 -0.361588 -4.06395 0
M  V30 416 H 36.1904 -1.49907 -3.87944 0
M  V30 417 H 34.7674 0.324977 -3.71481 0
M  V30 418 N 36.9525 1.47285 -0.560781 0
M  V30 419 C 38.3685 1.58065 -0.22081 0
M  V30 420 C 38.5685 1.55892 1.27671 0
M  V30 421 O 37.6245 1.46422 2.0571 0
M  V30 422 C 38.9375 2.88418 -0.850625 0
M  V30 423 C 40.4855 3.02009 -0.822184 0
M  V30 424 C 40.9605 4.35066 -1.43113 0
M  V30 425 N 42.4515 4.41711 -1.39448 0
M  V30 426 C 43.1865 5.43237 -1.83525 0
M  V30 427 N 42.6825 6.51555 -2.35474 0
M  V30 428 N 44.4755 5.34304 -1.74574 0
M  V30 429 H 36.6265 1.46941 -1.53369 0
M  V30 430 H 38.8895 0.699558 -0.639783 0
M  V30 431 H 38.5955 2.95755 -1.9032 0
M  V30 432 H 38.4695 3.75612 -0.345773 0
M  V30 433 H 40.8565 2.94266 0.221714 0
M  V30 434 H 40.9375 2.16347 -1.36483 0
M  V30 435 H 40.5815 4.43565 -2.47412 0
M  V30 436 H 40.5115 5.19465 -0.863899 0
M  V30 437 H 43.0025 3.64027 -1.01452 0
M  V30 438 H 43.3155 7.25203 -2.67021 0
M  V30 439 H 41.6605 6.52435 -2.39487 0
M  V30 440 H 44.8515 4.48581 -1.33763 0
M  V30 441 H 45.0245 6.13288 -2.09242 0
M  V30 442 N 38.4306 0.297415 1.54768 0
M  V30 443 C 39.3606 -0.573494 2.26348 0
M  V30 444 C 40.3416 -1.14085 1.26169 0
M  V30 445 O 41.5266 -1.17086 1.54934 0
M  V30 446 C 38.6566 -1.74716 3.00153 0
M  V30 447 C 37.6106 -1.31032 4.07449 0
M  V30 448 C 36.9366 -2.56887 4.68949 0
M  V30 449 C 38.2366 -0.444183 5.20408 0
M  V30 450 H 39.9306 0.0235131 2.99391 0
M  V30 451 H 37.4766 0.0127488 1.43994 0
M  V30 452 H 39.4296 -2.3625 3.48947 0
M  V30 453 H 38.1536 -2.37035 2.24682 0
M  V30 454 H 36.8126 -0.718066 3.59499 0
M  V30 455 H 36.4606 -3.17512 3.90122 0
M  V30 456 H 36.1606 -2.2836 5.41411 0
M  V30 457 H 37.6846 -3.19229 5.20505 0
M  V30 458 H 39.0986 -0.9651 5.65118 0
M  V30 459 H 37.4956 -0.252846 5.99567 0
M  V30 460 H 38.5656 0.531609 4.81977 0
M  V30 461 N 39.9087 -1.5758 0.0250728 0
M  V30 462 C 41.1577 -1.90811 -0.653767 0
M  V30 463 C 41.4707 -0.90273 -1.73523 0
M  V30 464 O 42.6767 -1.12614 -2.47043 0
M  V30 465 C 41.1327 -3.38804 -1.21409 0
M  V30 466 C 40.7407 -4.47692 -0.166126 0
M  V30 467 C 42.4847 -3.81108 -1.86967 0
M  V30 468 C 40.3917 -5.86779 -0.737856 0
M  V30 469 H 39.3217 -0.712063 -0.247956 0
M  V30 470 H 41.9727 -1.83281 0.0897137 0
M  V30 471 H 40.3547 -3.41252 -2.00905 0
M  V30 472 H 41.5287 -4.56797 0.606079 0
M  V30 473 H 39.8437 -4.14565 0.390466 0
M  V30 474 H 42.4407 -4.82375 -2.30692 0
M  V30 475 H 42.7837 -3.15953 -2.71071 0
M  V30 476 H 43.3167 -3.81065 -1.14167 0
M  V30 477 H 40.0557 -6.55468 0.0649577 0
M  V30 478 H 39.5757 -5.81288 -1.47864 0
M  V30 479 H 41.2547 -6.35223 -1.22884 0
M  V30 480 N 41.3868 0.248026 -1.55636 0
M  V30 481 C 42.3188 1.32993 -1.8667 0
M  V30 482 C 43.3318 1.44345 -0.752877 0
M  V30 483 O 44.5208 1.45715 -1.03098 0
M  V30 484 C 41.6208 2.70863 -2.03682 0
M  V30 485 C 40.7938 2.81792 -3.34532 0
M  V30 486 C 39.8528 4.005 -3.41301 0
M  V30 487 O 38.8788 3.9008 -4.14519 0
M  V30 488 N 40.0808 5.13618 -2.70512 0
M  V30 489 H 42.8458 1.06707 -2.8006 0
M  V30 490 H 40.4068 0.438129 -1.55859 0
M  V30 491 H 42.3988 3.48612 -2.05553 0
M  V30 492 H 40.9688 2.89862 -1.17041 0
M  V30 493 H 40.1888 1.90729 -3.44987 0
M  V30 494 H 41.4768 2.86043 -4.20781 0
M  V30 495 H 40.8748 5.24975 -2.10755 0
M  V30 496 H 39.4318 5.89505 -2.78077 0
M  V30 497 N 42.8649 1.48995 0.513639 0
M  V30 498 C 43.7969 1.60836 1.63293 0
M  V30 499 C 44.8099 0.491701 1.55197 0
M  V30 500 O 45.9989 0.763238 1.6136 0
M  V30 501 C 43.0989 1.53731 3.02027 0
M  V30 502 C 42.2719 2.80715 3.35437 0
M  V30 503 C 41.3309 2.66837 4.53525 0
M  V30 504 O 40.3569 3.40753 4.55934 0
M  V30 505 N 41.5589 1.77539 5.52684 0
M  V30 506 H 44.3239 2.57366 1.53566 0
M  V30 507 H 41.8849 1.45925 0.701259 0
M  V30 508 H 43.8769 1.42118 3.78926 0
M  V30 509 H 42.4469 0.651092 3.05744 0
M  V30 510 H 41.6669 3.06772 2.47557 0
M  V30 511 H 42.9549 3.64927 3.54551 0
M  V30 512 H 42.3529 1.16719 5.53528 0
M  V30 513 H 40.9099 1.71856 6.28736 0
M  V30 514 N 44.343 -0.763751 1.37857 0
M  V30 515 C 45.759 -1.06542 1.18832 0
M  V30 516 C 45.959 -2.01478 0.0299722 0
M  V30 517 O 45.015 -2.4458 -0.627447 0
M  V30 518 C 46.328 -1.65525 2.51042 0
M  V30 519 C 47.876 -1.77745 2.57635 0
M  V30 520 C 48.351 -2.4014 3.89996 0
M  V30 521 N 49.842 -2.47582 3.91481 0
M  V30 522 C 50.577 -2.96732 4.9065 0
M  V30 523 N 50.073 -3.45993 6.00217 0
M  V30 524 N 51.866 -2.95679 4.78048 0
M  V30 525 H 44.017 -0.133556 2.1198 0
M  V30 526 H 46.28 -0.121879 0.940133 0
M  V30 527 H 45.986 -1.03236 3.36207 0
M  V30 528 H 45.86 -2.64719 2.68707 0
M  V30 529 H 48.247 -2.39164 1.72872 0
M  V30 530 H 48.328 -0.772836 2.43846 0
M  V30 531 H 47.972 -1.79358 4.75177 0
M  V30 532 H 47.902 -3.41223 4.01092 0
M  V30 533 H 50.393 -2.1273 3.12337 0
M  V30 534 H 50.706 -3.81922 6.7183 0
M  V30 535 H 49.051 -3.44077 6.03851 0
M  V30 536 H 52.242 -2.56499 3.91568 0
M  V30 537 H 52.415 -3.33672 5.55488 0
M  V30 538 N 45.8211 -1.22559 -0.990812 0
M  V30 539 C 46.7511 -1.0218 -2.09956 0
M  V30 540 C 47.7321 0.0579394 -1.70001 0
M  V30 541 O 48.9171 -0.104684 -1.93918 0
M  V30 542 C 46.0471 -0.601023 -3.4206 0
M  V30 543 C 45.0011 -1.62694 -3.95872 0
M  V30 544 C 44.3271 -1.06193 -5.24049 0
M  V30 545 C 45.6271 -3.01743 -4.2632 0
M  V30 546 H 47.3211 -1.94916 -2.27262 0
M  V30 547 H 44.8671 -0.938566 -1.09211 0
M  V30 548 H 46.8201 -0.445561 -4.19038 0
M  V30 549 H 45.5441 0.362005 -3.24588 0
M  V30 550 H 44.2031 -1.77021 -3.21028 0
M  V30 551 H 43.8511 -0.0901903 -5.02919 0
M  V30 552 H 43.5511 -1.74732 -5.61019 0
M  V30 553 H 45.0751 -0.918092 -6.03658 0
M  V30 554 H 46.4891 -2.90777 -4.94087 0
M  V30 555 H 44.8861 -3.67425 -4.74467 0
M  V30 556 H 45.9561 -3.51518 -3.34011 0
M  V30 557 N 47.2992 1.18797 -1.03562 0
M  V30 558 C 48.2292 2.24472 -0.643019 0
M  V30 559 C 49.2102 1.66433 0.351283 0
M  V30 560 O 50.3952 1.92803 0.232505 0
M  V30 561 C 47.5252 3.473 4.24935e-05 0
M  V30 562 C 46.4792 4.18055 -0.917257 0
M  V30 563 C 45.8052 5.34519 -0.138941 0
M  V30 564 C 47.1052 4.72109 -2.23407 0
M  V30 565 H 48.7992 2.57566 -1.52643 0
M  V30 566 H 46.3452 1.23806 -0.735394 0
M  V30 567 H 48.2982 4.20426 0.286383 0
M  V30 568 H 47.0222 3.13424 0.918299 0
M  V30 569 H 45.6812 3.46821 -1.1879 0
M  V30 570 H 45.3292 4.96891 0.781562 0
M  V30 571 H 45.0292 5.82794 -0.750005 0
M  V30 572 H 46.5532 6.10438 0.1405 0
M  V30 573 H 47.9672 5.36955 -2.00879 0
M  V30 574 H 46.3642 5.30897 -2.79765 0
M  V30 575 H 47.4342 3.89807 -2.88407 0
M  V30 576 N 48.7773 0.814389 1.34928 0
M  V30 577 C 49.7273 0.202752 2.27097 0
M  V30 578 C 50.7113 -0.62799 1.48139 0
M  V30 579 O 51.9033 -0.483969 1.70255 0
M  V30 580 C 49.0323 -0.64146 3.37254 0
M  V30 581 C 48.1183 0.19944 4.23631 0
M  V30 582 N 48.5093 1.26628 4.89693 0
M  V30 583 C 46.8073 -0.0176433 4.45997 0
M  V30 584 C 47.5083 1.78031 5.53787 0
M  V30 585 N 46.4843 1.08553 5.32651 0
M  V30 586 H 50.2863 1.01893 2.75672 0
M  V30 587 H 47.8003 0.656332 1.48546 0
M  V30 588 H 49.7973 -1.09575 4.02243 0
M  V30 589 H 48.4573 -1.4559 2.9023 0
M  V30 590 H 49.4683 1.64901 4.90946 0
M  V30 591 H 46.1453 -0.800601 4.09752 0
M  V30 592 H 47.5353 2.67236 6.16469 0
M  V30 593 N 50.2554 -1.46986 0.568584 0
M  V30 594 C 51.1874 -2.28233 -0.210337 0
M  V30 595 C 52.2004 -1.37682 -0.868767 0
M  V30 596 O 53.3894 -1.62406 -0.740705 0
M  V30 597 C 50.4894 -3.12293 -1.3163 0
M  V30 598 C 49.6624 -4.30878 -0.7525 0
M  V30 599 C 48.7214 -4.96445 -1.74439 0
M  V30 600 O 47.7474 -5.54482 -1.286 0
M  V30 601 N 48.9494 -4.92171 -3.07812 0
M  V30 602 H 51.7144 -2.95723 0.486648 0
M  V30 603 H 49.2754 -1.56742 0.405409 0
M  V30 604 H 51.2674 -3.53022 -1.97883 0
M  V30 605 H 49.8374 -2.46971 -1.91636 0
M  V30 606 H 49.0574 -3.94104 0.0871128 0
M  V30 607 H 50.3454 -5.07558 -0.35536 0
M  V30 608 H 49.7434 -4.46239 -3.47688 0
M  V30 609 H 48.3004 -5.36884 -3.69592 0
M  V30 610 N 51.7335 -0.305618 -1.54608 0
M  V30 611 C 52.6655 0.602161 -2.21149 0
M  V30 612 C 53.6785 1.09394 -1.20569 0
M  V30 613 O 54.8675 1.0106 -1.47136 0
M  V30 614 C 51.9675 1.83692 -2.84799 0
M  V30 615 C 51.1405 1.48686 -4.11353 0
M  V30 616 C 50.1995 2.57725 -4.58764 0
M  V30 617 O 49.2255 2.22623 -5.23858 0
M  V30 618 N 50.4275 3.88346 -4.31471 0
M  V30 619 H 53.1925 0.0324966 -2.99682 0
M  V30 620 H 50.7535 -0.128021 -1.61393 0
M  V30 621 H 52.7455 2.55994 -3.13448 0
M  V30 622 H 51.3155 2.31486 -2.10078 0
M  V30 623 H 50.5355 0.596269 -3.89664 0
M  V30 624 H 51.8235 1.22842 -4.93748 0
M  V30 625 H 51.2215 4.19671 -3.79331 0
M  V30 626 H 49.7785 4.56932 -4.64818 0
M  V30 627 N 53.2116 1.57565 -0.0334293 0
M  V30 628 C 54.1436 2.0739 0.975811 0
M  V30 629 C 55.1566 0.998166 1.2861 0
M  V30 630 O 56.3456 1.27426 1.25 0
M  V30 631 C 53.4456 2.4871 2.30209 0
M  V30 632 C 52.6186 3.79413 2.17634 0
M  V30 633 C 51.6776 4.07237 3.33233 0
M  V30 634 O 50.7036 4.77425 3.09927 0
M  V30 635 N 51.9056 3.5775 4.5716 0
M  V30 636 H 54.6706 2.94598 0.55066 0
M  V30 637 H 52.2316 1.61173 0.15323 0
M  V30 638 H 54.2236 2.64413 3.06378 0
M  V30 639 H 52.7936 1.66845 2.64351 0
M  V30 640 H 52.0136 3.73465 1.26165 0
M  V30 641 H 53.3016 4.65038 2.0644 0
M  V30 642 H 52.6996 3.00976 4.78989 0
M  V30 643 H 51.2566 3.78724 5.30482 0
M  V30 644 N 54.6897 -0.239769 1.55765 0
M  V30 645 C 56.1007 -0.808263 1.68297 0
M  V30 646 C 56.4517 -1.85736 0.632181 0
M  V30 647 O 55.5767 -2.15277 -0.220204 0
M  V30 648 C 56.1717 -1.47284 3.05111 0
M  V30 649 C 54.7307 -1.98895 3.19559 0
M  V30 650 C 53.8777 -0.842575 2.64189 0
M  V30 651 H 56.8287 -0.0154422 1.58692 0
M  V30 652 H 56.8497 -2.34111 2.99954 0
M  V30 653 H 56.3617 -0.709053 3.81568 0
M  V30 654 H 54.4627 -2.78132 2.47938 0
M  V30 655 H 54.5757 -2.18143 4.26556 0
M  V30 656 H 52.9397 -1.24501 2.22197 0
M  V30 657 H 53.7227 -0.0917552 3.43177 0
M  V30 658 N 56.1678 -1.49265 -0.50573 0
M  V30 659 C 57.0978 -1.68495 -1.61653 0
M  V30 660 C 58.0788 -0.53366 -1.61512 0
M  V30 661 O 59.2638 -0.76897 -1.78327 0
M  V30 662 C 56.3938 -1.74709 -3.00157 0
M  V30 663 C 55.3478 -2.89581 -3.15162 0
M  V30 664 C 54.6738 -2.80903 -4.5497 0
M  V30 665 C 55.9738 -4.30578 -2.95634 0
M  V30 666 H 57.6678 -2.61493 -1.45814 0
M  V30 667 H 55.2138 -1.25838 -0.70005 0
M  V30 668 H 57.1668 -1.86748 -3.77761 0
M  V30 669 H 55.8908 -0.783067 -3.17074 0
M  V30 670 H 54.5498 -2.77136 -2.39982 0
M  V30 671 H 54.1978 -1.82419 -4.68756 0
M  V30 672 H 53.8978 -3.57999 -4.65951 0
M  V30 673 H 55.4218 -2.94944 -5.34641 0
M  V30 674 H 56.8358 -4.4373 -3.63011 0
M  V30 675 H 55.2328 -5.0886 -3.18091 0
M  V30 676 H 56.3028 -4.45352 -1.91806 0
M  V30 677 N 57.6459 0.756429 -1.3826 0
M  V30 678 C 58.5959 1.86069 -1.31766 0
M  V30 679 C 59.5799 1.59621 -0.202483 0
M  V30 680 O 60.7719 1.7149 -0.438211 0
M  V30 681 C 57.9009 3.23742 -1.1422 0
M  V30 682 C 56.9869 3.56091 -2.30348 0
M  V30 683 N 57.3779 3.59517 -3.55783 0
M  V30 684 C 55.6759 3.86341 -2.22838 0
M  V30 685 C 56.3769 3.89052 -4.32451 0
M  V30 686 N 55.3529 4.05736 -3.61772 0
M  V30 687 H 59.1549 1.86992 -2.26741 0
M  V30 688 H 56.6689 0.953643 -1.31451 0
M  V30 689 H 58.6659 4.02761 -1.07652 0
M  V30 690 H 57.3259 3.24073 -0.201763 0
M  V30 691 H 58.3369 3.41347 -3.89491 0
M  V30 692 H 55.0139 3.94404 -1.36937 0
M  V30 693 H 56.4039 3.98349 -5.4108 0
M  V30 694 N 59.124 1.23083 0.984299 0
M  V30 695 C 60.535 1.05609 1.5396 0
M  V30 696 C 60.886 -0.377793 1.92528 0
M  V30 697 O 60.011 -1.26398 1.75649 0
M  V30 698 C 60.606 1.91087 2.7977 0
M  V30 699 C 59.165 1.77885 3.31713 0
M  V30 700 C 58.312 1.87028 2.04733 0
M  V30 701 H 61.263 1.36802 0.804419 0
M  V30 702 H 61.284 1.43336 3.5247 0
M  V30 703 H 60.796 2.9544 2.51668 0
M  V30 704 H 58.897 0.762995 3.64704 0
M  V30 705 H 59.01 2.61047 4.01735 0
M  V30 706 H 57.374 1.30565 2.18689 0
M  V30 707 H 58.157 2.92929 1.79017 0
M  V30 708 N 60.6021 -1.18246 1.0419 0
M  V30 709 C 61.5121 -2.25574 0.644476 0
M  V30 710 C 62.5281 -1.70845 -0.329826 0
M  V30 711 O 63.7041 -2.00554 -0.184443 0
M  V30 712 C 60.7691 -3.46697 0.014877 0
M  V30 713 C 59.8301 -4.16554 1.03834 0
M  V30 714 C 59.0631 -5.31894 0.438692 0
M  V30 715 O 59.2861 -5.65385 -0.754752 0
M  V30 716 O 58.2201 -5.90459 1.168 0
M  V30 717 H 62.0461 -2.61836 1.53869 0
M  V30 718 H 59.6311 -1.25352 0.812854 0
M  V30 719 H 61.5131 -4.20062 -0.335538 0
M  V30 720 H 60.1881 -3.12255 -0.853138 0
M  V30 721 H 59.0951 -3.45251 1.44057 0
M  V30 722 H 60.4281 -4.54998 1.87716 0
M  V30 723 N 62.0802 -0.821533 -1.34494 0
M  V30 724 C 63.3262 -0.418729 -1.99043 0
M  V30 725 C 63.6812 1.00672 -1.6396 0
M  V30 726 O 62.9742 1.69132 -0.900271 0
M  V30 727 C 63.1682 -0.556512 -3.53041 0
M  V30 728 C 62.9972 -1.9938 -4.03085 0
M  V30 729 C 61.7672 -2.62539 -4.31742 0
M  V30 730 C 63.9652 -2.96035 -4.20556 0
M  V30 731 N 61.9472 -3.97523 -4.67813 0
M  V30 732 C 63.3182 -4.15924 -4.59791 0
M  V30 733 C 65.3732 -2.9267 -4.02801 0
M  V30 734 C 64.0762 -5.32899 -4.83126 0
M  V30 735 C 66.1022 -4.08861 -4.27302 0
M  V30 736 C 65.4642 -5.275 -4.66822 0
M  V30 737 H 61.5632 -0.201299 -0.755647 0
M  V30 738 H 64.1472 -1.06594 -1.62929 0
M  V30 739 H 62.3182 0.0607924 -3.88352 0
M  V30 740 H 64.0502 -0.126842 -4.04501 0
M  V30 741 H 60.8052 -2.13789 -4.22601 0
M  V30 742 H 61.2292 -4.67061 -4.90085 0
M  V30 743 H 65.8712 -2.02088 -3.71376 0
M  V30 744 H 63.5892 -6.24041 -5.13418 0
M  V30 745 H 67.1752 -4.07654 -4.15101 0
M  V30 746 H 66.0552 -6.15913 -4.85408 0
M  V30 747 N 63.5583 1.46682 -0.576371 0
M  V30 748 C 64.5213 2.28707 0.150239 0
M  V30 749 C 65.5213 1.38035 0.824794 0
M  V30 750 O 66.7113 1.60476 0.677719 0
M  V30 751 C 63.8433 3.18248 1.22192 0
M  V30 752 H 65.0363 2.94423 -0.570521 0
M  V30 753 H 62.5893 1.52688 -0.334078 0
M  V30 754 H 63.3243 2.57265 1.97447 0
M  V30 755 H 63.1093 3.85 0.742812 0
M  V30 756 H 64.5993 3.80001 1.73172 0
M  V30 757 N 65.0364 0.313813 1.54444 0
M  V30 758 C 65.9994 -0.54379 2.22656 0
M  V30 759 C 66.9994 -1.05124 1.21678 0
M  V30 760 O 68.1894 -0.945225 1.46325 0
M  V30 761 C 65.3214 -1.75427 2.92298 0
M  V30 762 H 66.5144 0.0523599 2.99854 0
M  V30 763 H 64.0674 0.0647834 1.56166 0
M  V30 764 H 64.8024 -2.38991 2.19211 0
M  V30 765 H 64.5874 -1.39791 3.66334 0
M  V30 766 H 66.0774 -2.36325 3.44297 0
M  V30 767 N 66.5145 -1.57545 0.0417849 0
M  V30 768 C 67.4445 -2.14009 -0.933929 0
M  V30 769 C 68.4255 -1.05938 -1.33083 0
M  V30 770 O 69.6105 -1.33833 -1.40721 0
M  V30 771 C 66.7405 -2.67747 -2.21199 0
M  V30 772 C 65.6945 -3.80718 -1.95544 0
M  V30 773 C 65.0205 -4.20935 -3.29724 0
M  V30 774 C 66.3205 -5.06258 -1.28452 0
M  V30 775 H 68.0145 -2.95788 -0.463645 0
M  V30 776 H 65.5605 -1.42285 -0.221573 0
M  V30 777 H 67.5135 -3.05886 -2.89848 0
M  V30 778 H 66.2375 -1.83147 -2.70416 0
M  V30 779 H 64.8965 -3.43037 -1.2931 0
M  V30 780 H 64.5445 -3.33298 -3.76724 0
M  V30 781 H 64.2445 -4.9707 -3.13361 0
M  V30 782 H 65.7685 -4.61666 -3.9962 0
M  V30 783 H 67.1825 -5.41903 -1.8712 0
M  V30 784 H 65.5795 -5.87475 -1.22445 0
M  V30 785 H 66.6495 -4.84207 -0.259219 0
M  V30 786 N 67.9926 0.231505 -1.5589 0
M  V30 787 C 68.9556 1.27028 -1.90779 0
M  V30 788 C 69.9556 1.40308 -0.785507 0
M  V30 789 O 71.1456 1.38744 -1.05336 0
M  V30 790 C 68.2776 2.64566 -2.14983 0
M  V30 791 H 69.4706 0.973017 -2.83677 0
M  V30 792 H 67.0236 0.471486 -1.49019 0
M  V30 793 H 67.7586 2.99406 -1.24604 0
M  V30 794 H 67.5436 2.56305 -2.96732 0
M  V30 795 H 69.0336 3.39543 -2.43105 0
M  V30 796 N 69.4707 1.49531 0.497807 0
M  V30 797 C 70.4177 1.66436 1.59899 0
M  V30 798 C 71.3877 0.505793 1.58212 0
M  V30 799 O 72.5727 0.733202 1.7615 0
M  V30 800 C 69.7127 1.7399 2.98029 0
M  V30 801 C 68.8257 3.01172 3.09708 0
M  V30 802 C 67.9607 2.99686 4.38591 0
M  V30 803 C 66.9997 4.21434 4.43914 0
M  V30 804 N 66.1367 4.1784 5.64229 0
M  V30 805 H 70.9767 2.60459 1.44793 0
M  V30 806 H 68.5137 1.29137 0.704423 0
M  V30 807 H 70.4717 1.76352 3.78095 0
M  V30 808 H 69.1017 0.834301 3.11832 0
M  V30 809 H 68.1537 3.08408 2.22685 0
M  V30 810 H 69.4657 3.91165 3.09502 0
M  V30 811 H 68.6197 3.00628 5.2698 0
M  V30 812 H 67.3587 2.07477 4.41367 0
M  V30 813 H 66.3637 4.20733 3.53926 0
M  V30 814 H 67.5887 5.14839 4.42851 0
M  V30 815 H 65.5347 3.28469 5.67841 0
M  V30 816 H 65.4517 5.01571 5.65652 0
M  V30 817 H 66.7197 4.22889 6.54817 0
M  V30 818 N 70.9488 -0.749086 1.3866 0
M  V30 819 C 71.8958 -1.86291 1.36251 0
M  V30 820 C 72.8658 -1.64578 0.224347 0
M  V30 821 O 74.0508 -1.86181 0.417279 0
M  V30 822 C 71.1908 -3.23644 1.19786 0
M  V30 823 C 70.3038 -3.57158 2.43027 0
M  V30 824 C 69.4388 -4.83838 2.19258 0
M  V30 825 C 68.4778 -5.10152 3.38247 0
M  V30 826 N 67.6148 -6.28029 3.13884 0
M  V30 827 H 72.4548 -1.87685 2.3147 0
M  V30 828 H 69.9918 -0.917287 1.14997 0
M  V30 829 H 71.9498 -4.0291 1.08254 0
M  V30 830 H 70.5798 -3.21566 0.282031 0
M  V30 831 H 69.6318 -2.72701 2.65214 0
M  V30 832 H 70.9438 -3.7253 3.31697 0
M  V30 833 H 70.0978 -5.71057 2.04888 0
M  V30 834 H 68.8368 -4.70614 1.2796 0
M  V30 835 H 67.8418 -4.21401 3.53131 0
M  V30 836 H 69.0668 -5.25271 4.30427 0
M  V30 837 H 67.0128 -6.1612 2.25238 0
M  V30 838 H 66.9298 -6.43922 3.96106 0
M  V30 839 H 68.1978 -7.18124 3.03179 0
M  V30 840 N 72.4269 -1.23603 -0.977757 0
M  V30 841 C 73.3589 -0.977369 -2.07317 0
M  V30 842 C 74.3719 0.0495845 -1.62724 0
M  V30 843 O 75.5609 -0.186261 -1.77526 0
M  V30 844 C 72.6609 -0.451216 -3.35883 0
M  V30 845 C 71.8339 -1.53896 -4.09432 0
M  V30 846 C 70.8929 -1.01721 -5.16274 0
M  V30 847 O 69.9189 -1.70676 -5.43009 0
M  V30 848 N 71.1209 0.153594 -5.80297 0
M  V30 849 H 73.8859 -1.92047 -2.30082 0
M  V30 850 H 71.4469 -1.14497 -1.14465 0
M  V30 851 H 73.4389 -0.0871574 -4.04606 0
M  V30 852 H 72.0089 0.397368 -3.10064 0
M  V30 853 H 71.2289 -2.07566 -3.35127 0
M  V30 854 H 72.5169 -2.27037 -4.55337 0
M  V30 855 H 71.9149 0.730323 -5.60966 0
M  V30 856 H 70.4719 0.458892 -6.50183 0
M  V30 857 N 73.905 1.17692 -1.04816 0
M  V30 858 C 74.835 2.23777 -0.666791 0
M  V30 859 C 75.816 1.66796 0.33361 0
M  V30 860 O 77.001 1.93039 0.212042 0
M  V30 861 C 74.131 3.47281 -0.0367933 0
M  V30 862 C 73.085 4.17059 -0.961546 0
M  V30 863 C 72.411 5.34342 -0.195626 0
M  V30 864 C 73.711 4.69713 -2.28402 0
M  V30 865 H 75.405 2.55933 -1.55367 0
M  V30 866 H 72.951 1.23019 -0.748484 0
M  V30 867 H 74.904 4.20706 0.241775 0
M  V30 868 H 73.628 3.14381 0.885004 0
M  V30 869 H 72.287 3.45541 -1.22462 0
M  V30 870 H 71.935 4.97692 0.728816 0
M  V30 871 H 71.635 5.81966 -0.811775 0
M  V30 872 H 73.159 6.10553 0.0757473 0
M  V30 873 H 74.573 5.34794 -2.06563 0
M  V30 874 H 72.97 5.279 -2.8538 0
M  V30 875 H 74.04 3.86726 -2.92525 0
M  V30 876 N 75.3831 0.828654 1.34056 0
M  V30 877 C 76.3301 0.252567 2.29414 0
M  V30 878 C 77.3001 -0.62588 1.53857 0
M  V30 879 O 78.4851 -0.566312 1.82202 0
M  V30 880 C 75.6251 -0.574831 3.40279 0
M  V30 881 C 74.7381 0.326499 4.30764 0
M  V30 882 C 73.8731 -0.511016 5.28736 0
M  V30 883 C 72.9121 0.389342 6.1086 0
M  V30 884 N 72.0491 -0.409439 7.00905 0
M  V30 885 H 76.8891 1.07108 2.78086 0
M  V30 886 H 74.4261 0.539677 1.36843 0
M  V30 887 H 76.3841 -1.06992 4.03248 0
M  V30 888 H 75.0141 -1.35841 2.92826 0
M  V30 889 H 74.0661 0.939837 3.68607 0
M  V30 890 H 75.3781 1.01857 4.88289 0
M  V30 891 H 74.5321 -1.07035 5.97184 0
M  V30 892 H 73.2711 -1.23657 4.71763 0
M  V30 893 H 72.2761 0.960769 5.4134 0
M  V30 894 H 73.5011 1.1131 6.69916 0
M  V30 895 H 71.4471 -1.11856 6.46393 0
M  V30 896 H 71.3641 0.224126 7.55668 0
M  V30 897 H 72.6321 -0.951336 7.73673 0
M  V30 898 N 76.8612 -1.46375 0.584142 0
M  V30 899 C 78.1092 -2.01978 0.0701287 0
M  V30 900 C 78.4302 -1.4579 -1.295 0
M  V30 901 O 77.7002 -0.64314 -1.85042 0
M  V30 902 H 76.2802 -0.746648 0.0229345 0
M  V30 903 H 78.9422 -1.79461 0.760245 0
M  V30 904 H 78.0382 -3.121 0.0022064 0
M  V30 905 N 78.3393 -0.321999 -1.54275 0
M  V30 906 C 79.2863 0.544664 -2.24281 0
M  V30 907 C 80.2563 1.1129 -1.23303 0
M  V30 908 O 81.4413 1.15354 -1.51981 0
M  V30 909 C 78.5813 1.70045 -3.00298 0
M  V30 910 C 77.6943 1.16159 -4.1609 0
M  V30 911 C 76.8293 2.28293 -4.79641 0
M  V30 912 C 75.8683 1.71648 -5.8754 0
M  V30 913 N 75.0053 2.77438 -6.44959 0
M  V30 914 H 79.8453 -0.0588907 -2.97942 0
M  V30 915 H 77.3823 -0.0408345 -1.47043 0
M  V30 916 H 79.3403 2.38054 -3.42616 0
M  V30 917 H 77.9703 2.27531 -2.28975 0
M  V30 918 H 77.0223 0.373092 -3.78566 0
M  V30 919 H 78.3343 0.707087 -4.93763 0
M  V30 920 H 77.4883 3.0421 -5.2492 0
M  V30 921 H 76.2273 2.77079 -4.01346 0
M  V30 922 H 75.2323 0.942282 -5.41665 0
M  V30 923 H 76.4573 1.23741 -6.67731 0
M  V30 924 H 74.4033 3.25519 -5.69538 0
M  V30 925 H 74.3203 2.36547 -7.1804 0
M  V30 926 H 75.5883 3.53189 -6.94894 0
M  V30 927 N 79.8174 1.5752 -0.0501392 0
M  V30 928 C 80.7654 2.12651 0.942459 0
M  V30 929 C 81.7594 1.05807 1.32292 0
M  V30 930 O 82.9654 1.24217 1.3027 0
M  V30 931 H 79.3404 0.679673 0.321789 0
M  V30 932 H 81.3114 2.94951 0.452356 0
M  V30 933 C 80.0604 2.68565 2.20836 0
M  V30 934 H 79.3834 3.50439 1.92439 0
M  V30 935 H 80.8234 3.10761 2.8845 0
M  V30 936 C 79.2824 1.62291 2.95234 0
M  V30 937 O 79.8124 1.03508 3.88135 0
M  V30 938 N 78.0184 1.33836 2.57946 0
M  V30 939 H 77.5654 1.81826 1.82475 0
M  V30 940 H 77.5234 0.629595 3.08032 0
M  V30 941 N 81.2955 -0.223234 1.56011 0
M  V30 942 C 82.7065 -0.790368 1.69145 0
M  V30 943 C 83.0575 -1.85055 0.651845 0
M  V30 944 O 82.1825 -2.15498 -0.197359 0
M  V30 945 C 82.7775 -1.4404 3.06656 0
M  V30 946 C 81.3365 -1.95494 3.2165 0
M  V30 947 C 80.4835 -0.814506 2.65068 0
M  V30 948 H 83.4345 0.00139011 1.587 0
M  V30 949 H 83.4555 -2.30916 3.0242 0
M  V30 950 H 82.9675 -0.668543 3.82298 0
M  V30 951 H 81.0685 -2.75487 2.50874 0
M  V30 952 H 81.1815 -2.13607 4.28846 0
M  V30 953 H 79.5455 -1.22137 2.23505 0
M  V30 954 H 80.3285 -0.0553515 3.43255 0
M  V30 955 N 82.7736 -1.49793 -0.48987 0
M  V30 956 C 83.6836 -1.70036 -1.61632 0
M  V30 957 C 84.6996 -0.583102 -1.63939 0
M  V30 958 O 85.8756 -0.859169 -1.82154 0
M  V30 959 C 82.9406 -1.77277 -2.97949 0
M  V30 960 C 82.0016 -3.00918 -3.06181 0
M  V30 961 C 81.2346 -3.07804 -4.35996 0
M  V30 962 O 81.4576 -2.21982 -5.25433 0
M  V30 963 O 80.3916 -4.00369 -4.49431 0
M  V30 964 H 84.2176 -2.65486 -1.47482 0
M  V30 965 H 81.8026 -1.33666 -0.667362 0
M  V30 966 H 83.6846 -1.84329 -3.78947 0
M  V30 967 H 82.3596 -0.850076 -3.12339 0
M  V30 968 H 81.2666 -2.99377 -2.2433 0
M  V30 969 H 82.5996 -3.92704 -2.96723 0
M  V30 970 N 84.2517 0.741722 -1.39055 0
M  V30 971 C 85.5287 1.49252 -1.26425 0
M  V30 972 C 85.9087 2.10705 0.129144 0
M  V30 973 O 85.2567 1.98045 1.13976 0
M  V30 974 C 85.4667 2.54934 -2.38347 0
M  V30 975 C 86.8147 3.21506 -2.77343 0
M  V30 976 O 87.8387 2.65245 -2.37747 0
M  V30 977 O 86.6977 4.23294 -3.45665 0
M  V30 978 H 83.7917 0.662451 -0.495064 0
M  V30 979 H 86.3377 0.776121 -1.50912 0
M  V30 980 H 85.1097 2.07857 -3.31529 0
M  V30 981 H 84.7327 3.34141 -2.15489 0
M  V30 982 N 85.7298 1.2412 0.971189 0
M  V30 983 C 86.6598 1.05508 2.08304 0
M  V30 984 C 87.6408 -0.0308864 1.70072 0
M  V30 985 O 88.8258 0.135521 1.93727 0
M  V30 986 C 85.9558 0.655365 3.4106 0
M  V30 987 C 84.9098 1.68971 3.93234 0
M  V30 988 C 84.2358 1.14516 5.22293 0
M  V30 989 C 85.5358 3.08487 4.21465 0
M  V30 990 H 87.2298 1.98507 2.24132 0
M  V30 991 H 84.7758 0.955821 1.07704 0
M  V30 992 H 86.7288 0.51217 4.18276 0
M  V30 993 H 85.4528 -0.31032 3.25122 0
M  V30 994 H 84.1118 1.82106 3.18171 0
M  V30 995 H 83.7598 0.170189 5.02712 0
M  V30 996 H 83.4598 1.83635 5.58168 0
M  V30 997 H 84.9838 1.01401 6.02121 0
M  V30 998 H 86.3978 2.98601 4.89398 0
M  V30 999 H 84.7948 3.74926 4.68562 0
M  V30 1000 H 85.8648 3.56787 3.28376 0
M  V30 1001 N 87.2079 -1.17134 1.05439 0
M  V30 1002 C 88.4569 -1.86791 0.761049 0
M  V30 1003 C 88.7699 -1.82072 -0.714795 0
M  V30 1004 O 89.9759 -2.47223 -1.12218 0
M  V30 1005 C 88.4319 -3.35166 1.31117 0
M  V30 1006 C 88.0399 -3.48381 2.81664 0
M  V30 1007 C 89.7839 -4.10134 1.09499 0
M  V30 1008 C 87.6909 -4.90793 3.29964 0
M  V30 1009 H 86.6209 -0.699681 0.281002 0
M  V30 1010 H 89.2719 -1.3226 1.27199 0
M  V30 1011 H 87.6539 -3.8925 0.72803 0
M  V30 1012 H 88.8279 -3.04502 3.45855 0
M  V30 1013 H 87.1429 -2.86836 3.01851 0
M  V30 1014 H 89.7399 -5.152 1.43084 0
M  V30 1015 H 90.0829 -4.16287 0.0328772 0
M  V30 1016 H 90.6159 -3.62264 1.64346 0
M  V30 1017 H 87.3549 -4.89816 4.35616 0
M  V30 1018 H 86.8749 -5.35333 2.70516 0
M  V30 1019 H 88.5539 -5.59573 3.24787 0
M  V30 1020 N 88.686 -0.835752 -1.33615 0
M  V30 1021 C 89.932 -0.439817 -1.98588 0
M  V30 1022 C 90.287 0.989274 -1.65019 0
M  V30 1023 O 89.58 1.68168 -0.918159 0
M  V30 1024 C 89.774 -0.593925 -3.52431 0
M  V30 1025 C 89.603 -2.03644 -4.00948 0
M  V30 1026 C 88.373 -2.67103 -4.28934 0
M  V30 1027 C 90.571 -3.00479 -4.17393 0
M  V30 1028 N 88.553 -4.02462 -4.6357 0
M  V30 1029 C 89.924 -4.20777 -4.55353 0
M  V30 1030 C 91.979 -2.96926 -3.99674 0
M  V30 1031 C 90.682 -5.37994 -4.77447 0
M  V30 1032 C 92.708 -4.1337 -4.22941 0
M  V30 1033 C 92.07 -5.32422 -4.61201 0
M  V30 1034 H 88.169 -0.209303 -0.75347 0
M  V30 1035 H 90.753 -1.08316 -1.61789 0
M  V30 1036 H 88.924 0.019599 -3.88395 0
M  V30 1037 H 90.656 -0.169738 -4.04344 0
M  V30 1038 H 87.411 -2.18259 -4.20309 0
M  V30 1039 H 87.835 -4.72232 -4.85104 0
M  V30 1040 H 92.477 -2.06015 -3.69212 0
M  V30 1041 H 90.195 -6.29451 -5.06771 0
M  V30 1042 H 93.781 -4.12034 -4.10754 0
M  V30 1043 H 92.661 -6.21027 -4.78848 0
M  V30 1044 N 90.1641 1.46063 -0.591896 0
M  V30 1045 C 91.1141 2.27458 0.157172 0
M  V30 1046 C 92.0981 1.3641 0.853301 0
M  V30 1047 O 93.2901 1.60517 0.74588 0
M  V30 1048 C 90.4191 3.22956 1.16423 0
M  V30 1049 C 89.5051 4.2149 0.469742 0
M  V30 1050 N 89.8961 5.03519 -0.479839 0
M  V30 1051 C 88.1941 4.40161 0.719319 0
M  V30 1052 C 88.8951 5.74904 -0.886591 0
M  V30 1053 N 87.8711 5.43097 -0.233731 0
M  V30 1054 H 91.6731 2.88272 -0.572392 0
M  V30 1055 H 89.1871 1.57024 -0.414375 0
M  V30 1056 H 91.1841 3.79986 1.71513 0
M  V30 1057 H 89.8441 2.63701 1.89451 0
M  V30 1058 H 90.8551 5.1078 -0.855823 0
M  V30 1059 H 87.5321 3.92046 1.43548 0
M  V30 1060 H 88.9221 6.50844 -1.66888 0
M  V30 1061 N 91.6422 0.330177 1.54103 0
M  V30 1062 C 92.8702 -0.272179 2.05102 0
M  V30 1063 C 93.2852 -1.45267 1.20595 0
M  V30 1064 O 92.6422 -1.8094 0.238144 0
M  V30 1065 C 92.6932 -0.70023 3.54653 0
M  V30 1066 O 92.4142 0.433301 4.35952 0
M  V30 1067 C 93.9152 -1.3647 4.21771 0
M  V30 1068 H 91.1352 -0.0549159 0.668749 0
M  V30 1069 H 93.6792 0.478285 1.98828 0
M  V30 1070 H 91.8342 -1.40066 3.61193 0
M  V30 1071 H 92.2482 0.0947539 5.24414 0
M  V30 1072 H 93.7222 -1.61509 5.27843 0
M  V30 1073 H 94.1992 -2.31409 3.73292 0
M  V30 1074 H 94.8052 -0.706675 4.19388 0
M  V30 1075 N 93.1203 -1.57491 0.0584922 0
M  V30 1076 C 94.5313 -1.80526 -0.476138 0
M  V30 1077 C 94.8823 -0.971334 -1.70469 0
M  V30 1078 O 94.0073 -0.190012 -2.15564 0
M  V30 1079 C 94.6023 -3.27424 -0.870587 0
M  V30 1080 C 93.1613 -3.51351 -1.35015 0
M  V30 1081 C 92.3083 -2.75343 -0.32887 0
M  V30 1082 H 95.2593 -1.56133 0.284312 0
M  V30 1083 H 95.2803 -3.38745 -1.73299 0
M  V30 1084 H 94.7923 -3.88093 0.0237627 0
M  V30 1085 H 92.8933 -2.95971 -2.26345 0
M  V30 1086 H 93.0063 -4.60059 -1.33726 0
M  V30 1087 H 91.3703 -2.417 -0.803321 0
M  V30 1088 H 92.1533 -3.38743 0.557521 0
M  V30 1089 N 94.5984 0.214957 -1.56127 0
M  V30 1090 C 95.5084 1.28727 -1.96129 0
M  V30 1091 C 96.5244 1.50916 -0.866044 0
M  V30 1092 O 97.7004 1.63918 -1.17016 0
M  V30 1093 C 94.7654 2.61569 -2.27558 0
M  V30 1094 C 93.8264 2.47625 -3.50685 0
M  V30 1095 C 93.0594 3.74132 -3.80606 0
M  V30 1096 O 93.2824 4.77438 -3.12104 0
M  V30 1097 O 92.2164 3.70849 -4.74083 0
M  V30 1098 H 96.0424 0.977855 -2.87527 0
M  V30 1099 H 93.6274 0.418358 -1.43423 0
M  V30 1100 H 95.5094 3.40012 -2.48938 0
M  V30 1101 H 94.1844 2.92178 -1.39332 0
M  V30 1102 H 93.0914 1.67361 -3.34576 0
M  V30 1103 H 94.4244 2.21954 -4.39315 0
M  V30 1104 N 96.0765 1.50051 0.48192 0
M  V30 1105 C 97.3245 1.60181 1.23234 0
M  V30 1106 C 97.6455 0.299176 1.92691 0
M  V30 1107 O 96.9155 -0.682708 1.83619 0
M  V30 1108 H 95.4955 0.590232 0.457859 0
M  V30 1109 H 98.1575 1.86775 0.556881 0
M  V30 1110 H 97.2535 2.40753 1.98607 0
M  V30 1111 N 97.5546 -0.734337 1.39446 0
M  V30 1112 C 98.8036 -1.48937 1.36017 0
M  V30 1113 C 99.1166 -1.95557 -0.0409005 0
M  V30 1114 O 100.323 -2.70779 -0.19778 0
M  V30 1115 C 98.7786 -2.69125 2.38955 0
M  V30 1116 C 98.3866 -2.29452 3.8478 0
M  V30 1117 C 100.131 -3.46944 2.44603 0
M  V30 1118 C 98.0376 -3.46366 4.79358 0
M  V30 1119 H 96.9676 -0.559296 0.505672 0
M  V30 1120 H 99.6186 -0.800983 1.65095 0
M  V30 1121 H 98.0006 -3.40041 2.02948 0
M  V30 1122 H 99.1746 -1.66077 4.29831 0
M  V30 1123 H 97.4896 -1.64723 3.82433 0
M  V30 1124 H 100.087 -4.33907 3.12456 0
M  V30 1125 H 100.43 -3.89454 1.47076 0
M  V30 1126 H 100.963 -2.83056 2.79507 0
M  V30 1127 H 97.7016 -3.08905 5.78151 0
M  V30 1128 H 97.2216 -4.08719 4.38986 0
M  V30 1129 H 98.9006 -4.12691 4.98292 0
M  V30 1130 N 99.0327 -1.24633 -0.964593 0
M  V30 1131 C 100.258 -1.11596 -1.74818 0
M  V30 1132 C 100.683 0.32723 -1.85232 0
M  V30 1133 O 100.041 1.23695 -1.32549 0
M  V30 1134 C 100.089 -1.76397 -3.1451 0
M  V30 1135 O 99.1927 -1.03685 -3.99153 0
M  V30 1136 H 98.5337 -0.390196 -0.537255 0
M  V30 1137 H 101.064 -1.65002 -1.20977 0
M  V30 1138 H 101.074 -1.8228 -3.65018 0
M  V30 1139 H 99.7487 -2.81401 -3.06246 0
M  V30 1140 H 98.3257 -1.05611 -3.57632 0
M  V30 1141 N 100.511 1.16574 -1.06058 0
M  V30 1142 C 101.76 1.86385 -0.770944 0
M  V30 1143 C 102.073 1.82448 0.705129 0
M  V30 1144 O 103.279 2.47815 1.10905 0
M  V30 1145 C 101.735 3.34466 -1.32893 0
M  V30 1146 C 101.343 3.46883 -2.83507 0
M  V30 1147 C 103.087 4.09548 -1.11672 0
M  V30 1148 C 100.994 4.89036 -3.32562 0
M  V30 1149 H 99.9238 0.698181 -0.284709 0
M  V30 1150 H 102.575 1.31583 -1.27899 0
M  V30 1151 H 100.957 3.88859 -0.748662 0
M  V30 1152 H 102.131 3.02663 -3.47465 0
M  V30 1153 H 100.446 2.85232 -3.03368 0
M  V30 1154 H 103.043 5.14434 -1.45814 0
M  V30 1155 H 103.386 4.16264 -0.0549535 0
M  V30 1156 H 103.919 3.61387 -1.66265 0
M  V30 1157 H 100.658 4.87499 -4.38207 0
M  V30 1158 H 100.178 5.3389 -2.73351 0
M  V30 1159 H 101.857 5.57843 -3.2775 0
M  V30 1160 N 101.989 0.842826 1.3317 0
M  V30 1161 C 102.936 0.276885 2.29133 0
M  V30 1162 C 103.906 -0.609527 1.54512 0
M  V30 1163 O 105.091 -0.546955 1.82792 0
M  V30 1164 C 102.231 -0.538707 3.40869 0
M  V30 1165 C 101.344 0.372169 4.30394 0
M  V30 1166 C 100.479 -0.454908 5.29249 0
M  V30 1167 C 99.5179 0.45411 6.10413 0
M  V30 1168 N 98.6549 -0.335075 7.013 0
M  V30 1169 H 103.495 1.10052 2.76934 0
M  V30 1170 H 101.032 0.554161 1.36262 0
M  V30 1171 H 102.99 -1.02709 4.0436 0
M  V30 1172 H 101.62 -1.32727 2.9425 0
M  V30 1173 H 100.672 0.97888 3.6759 0
M  V30 1174 H 101.984 1.0703 4.87182 0
M  V30 1175 H 101.138 -1.00695 5.98285 0
M  V30 1176 H 99.8769 -1.18646 4.73048 0
M  V30 1177 H 98.8819 1.01813 5.40291 0
M  V30 1178 H 100.107 1.18409 6.68697 0
M  V30 1179 H 98.0529 -1.04994 6.47543 0
M  V30 1180 H 97.9699 0.304262 7.55387 0
M  V30 1181 H 99.2379 -0.869224 7.74638 0
M  V30 1182 N 103.467 -1.45747 0.599634 0
M  V30 1183 C 104.878 -1.85853 0.177681 0
M  V30 1184 C 105.229 -1.50102 -1.26348 0
M  V30 1185 O 104.354 -0.923905 -1.95686 0
M  V30 1186 C 104.949 -3.37326 0.315688 0
M  V30 1187 C 103.508 -3.76365 -0.0515144 0
M  V30 1188 C 102.655 -2.69722 0.643822 0
M  V30 1189 H 105.606 -1.36661 0.806814 0
M  V30 1190 H 105.627 -3.77778 -0.454321 0
M  V30 1191 H 105.139 -3.63315 1.36468 0
M  V30 1192 H 103.24 -3.55993 -1.09999 0
M  V30 1193 H 103.353 -4.77916 0.336594 0
M  V30 1194 H 101.717 -2.54567 0.0822881 0
M  V30 1195 H 102.5 -2.98549 1.6948 0
M  V30 1196 N 104.945 -0.338344 -1.53925 0
M  V30 1197 C 105.875 0.51328 -2.27789 0
M  V30 1198 C 106.856 1.107 -1.29149 0
M  V30 1199 O 108.041 1.12937 -1.57984 0
M  V30 1200 C 105.171 1.66697 -3.04679 0
M  V30 1201 C 104.125 1.20183 -4.1078 0
M  V30 1202 C 103.451 2.44363 -4.75595 0
M  V30 1203 C 104.751 0.30605 -5.21403 0
M  V30 1204 H 106.445 -0.102883 -2.99223 0
M  V30 1205 H 103.991 -0.0509219 -1.4391 0
M  V30 1206 H 105.944 2.26915 -3.55088 0
M  V30 1207 H 104.668 2.30995 -2.30887 0
M  V30 1208 H 103.327 0.622499 -3.61276 0
M  V30 1209 H 102.975 3.07057 -3.98403 0
M  V30 1210 H 102.675 2.13925 -5.47275 0
M  V30 1211 H 104.199 3.05317 -5.28786 0
M  V30 1212 H 105.613 0.814929 -5.67478 0
M  V30 1213 H 104.01 0.0937929 -6.00027 0
M  V30 1214 H 105.08 -0.65921 -4.80398 0
M  V30 1215 N 106.423 1.57458 -0.0668435 0
M  V30 1216 C 107.653 1.97337 0.611677 0
M  V30 1217 C 108.061 0.943744 1.63982 0
M  V30 1218 O 107.404 -0.0785584 1.83532 0
M  V30 1219 C 107.466 3.33511 1.34205 0
M  V30 1220 C 107.13 4.54598 0.467941 0
M  V30 1221 C 108.127 5.19186 -0.272439 0
M  V30 1222 C 105.812 5.0075 0.39427 0
M  V30 1223 C 107.806 6.28274 -1.07476 0
M  V30 1224 C 105.493 6.09711 -0.411729 0
M  V30 1225 C 106.491 6.73335 -1.14492 0
M  V30 1226 O 106.179 7.80199 -1.93763 0
M  V30 1227 H 105.911 0.654042 0.170893 0
M  V30 1228 H 108.465 2.04961 -0.134289 0
M  V30 1229 H 106.695 3.22487 2.13398 0
M  V30 1230 H 108.384 3.58029 1.91233 0
M  V30 1231 H 109.15 4.84477 -0.225086 0
M  V30 1232 H 105.029 4.51009 0.954569 0
M  V30 1233 H 108.573 6.77866 -1.64755 0
M  V30 1234 H 104.47 6.43854 -0.460664 0
M  V30 1235 H 105.238 7.97053 -1.86142 0
M  V30 1236 N 107.901 -0.206675 1.56239 0
M  V30 1237 C 109.126 -0.949474 1.8439 0
M  V30 1238 C 109.551 -1.76549 0.649016 0
M  V30 1239 O 108.909 -1.76782 -0.402231 0
M  V30 1240 C 108.957 -1.83078 3.10668 0
M  V30 1241 O 108.061 -2.9281 2.90407 0
M  V30 1242 H 107.402 -0.268033 0.607499 0
M  V30 1243 H 109.932 -0.215488 2.03462 0
M  V30 1244 H 109.942 -2.2377 3.41161 0
M  V30 1245 H 108.617 -1.23112 3.97261 0
M  V30 1246 H 107.194 -2.55956 2.71184 0
M  V30 1247 N 109.379 -1.50304 -0.473955 0
M  V30 1248 C 110.326 -1.68959 -1.57231 0
M  V30 1249 C 111.296 -0.530899 -1.57387 0
M  V30 1250 O 112.481 -0.761133 -1.74961 0
M  V30 1251 C 109.621 -1.7871 -2.95223 0
M  V30 1252 C 108.734 -3.06061 -3.04878 0
M  V30 1253 C 107.869 -3.06626 -4.33767 0
M  V30 1254 C 106.908 -4.28443 -4.37154 0
M  V30 1255 N 106.045 -4.26763 -5.5751 0
M  V30 1256 H 110.885 -2.6273 -1.40631 0
M  V30 1257 H 108.422 -1.30241 -0.683789 0
M  V30 1258 H 110.38 -1.82344 -3.75242 0
M  V30 1259 H 109.01 -0.883806 -3.10465 0
M  V30 1260 H 108.062 -3.11911 -2.17751 0
M  V30 1261 H 109.374 -3.96039 -3.0324 0
M  V30 1262 H 108.528 -3.08973 -5.22131 0
M  V30 1263 H 107.267 -2.14473 -4.3801 0
M  V30 1264 H 106.272 -4.2631 -3.47188 0
M  V30 1265 H 107.497 -5.2182 -4.34605 0
M  V30 1266 H 105.443 -3.37462 -5.62544 0
M  V30 1267 H 105.36 -5.10507 -5.57601 0
M  V30 1268 H 106.628 -4.33253 -6.48006 0
M  V30 1269 N 110.857 0.726932 -1.39834 0
M  V30 1270 C 112.273 1.03354 -1.21615 0
M  V30 1271 C 112.473 2.01327 -0.08338 0
M  V30 1272 O 111.529 2.46158 0.56238 0
M  V30 1273 C 112.842 1.58811 -2.55342 0
M  V30 1274 C 114.39 1.70851 -2.62257 0
M  V30 1275 C 114.865 2.29716 -3.96225 0
M  V30 1276 N 116.356 2.37116 -3.97907 0
M  V30 1277 C 117.091 2.83619 -4.98345 0
M  V30 1278 N 116.587 3.29958 -6.09179 0
M  V30 1279 N 118.38 2.82901 -4.8572 0
M  V30 1280 H 110.531 0.0773069 -2.12259 0
M  V30 1281 H 112.794 0.0969102 -0.943034 0
M  V30 1282 H 112.5 0.942855 -3.38826 0
M  V30 1283 H 112.374 2.57502 -2.75632 0
M  V30 1284 H 114.761 2.34497 -1.79152 0
M  V30 1285 H 114.842 0.707913 -2.45809 0
M  V30 1286 H 114.486 1.66696 -4.79765 0
M  V30 1287 H 114.416 3.30469 -4.09997 0
M  V30 1288 H 116.907 2.04374 -3.17868 0
M  V30 1289 H 117.22 3.63976 -6.8172 0
M  V30 1290 H 115.565 3.27946 -6.12761 0
M  V30 1291 H 118.756 2.46027 -3.98231 0
M  V30 1292 H 118.929 3.18827 -5.6414 0
M  V30 1293 N 112.336 1.25143 0.95797 0
M  V30 1294 C 113.613 1.00472 1.67823 0
M  V30 1295 C 113.993 -0.470056 2.058 0
M  V30 1296 O 113.341 -1.44663 1.76875 0
M  V30 1297 C 113.551 1.9372 2.90299 0
M  V30 1298 C 114.899 2.21371 3.62326 0
M  V30 1299 O 115.923 1.91451 3.00375 0
M  V30 1300 O 114.782 2.72231 4.7387 0
M  V30 1301 H 111.876 0.380752 0.734137 0
M  V30 1302 H 114.422 1.36283 1.01119 0
M  V30 1303 H 113.194 2.93316 2.59001 0
M  V30 1304 H 112.817 1.58286 3.64735 0
M  V30 1305 N 113.814 -1.1601 1.06675 0
M  V30 1306 C 115.042 -1.90527 0.806667 0
M  V30 1307 C 115.457 -1.77643 -0.639396 0
M  V30 1308 O 114.814 -1.12369 -1.43803 0
M  V30 1309 C 114.865 -3.41106 1.19705 0
M  V30 1310 O 114.586 -3.53608 2.58636 0
M  V30 1311 C 116.087 -4.32663 0.965266 0
M  V30 1312 H 113.307 -0.604053 0.292166 0
M  V30 1313 H 115.851 -1.47026 1.4214 0
M  V30 1314 H 114.006 -3.82296 0.626774 0
M  V30 1315 H 114.42 -4.47011 2.74375 0
M  V30 1316 H 115.894 -5.36763 1.288 0
M  V30 1317 H 116.371 -4.39089 -0.0987936 0
M  V30 1318 H 116.977 -3.97206 1.52011 0
M  V30 1319 N 115.292 -0.849877 -1.32721 0
M  V30 1320 C 116.225 -0.235903 -2.26977 0
M  V30 1321 C 117.203 0.623355 -1.50177 0
M  V30 1322 O 118.387 0.581207 -1.79316 0
M  V30 1323 C 115.514 0.667712 -3.32053 0
M  V30 1324 C 114.56 -0.11753 -4.26338 0
M  V30 1325 S 115.393 -1.48277 -5.14562 0
M  V30 1326 C 116.549 -0.584741 -6.23163 0
M  V30 1327 H 116.782 -1.03495 -2.78704 0
M  V30 1328 H 114.315 -0.64724 -1.40179 0
M  V30 1329 H 116.273 1.18343 -3.93072 0
M  V30 1330 H 114.934 1.44052 -2.7912 0
M  V30 1331 H 114.127 0.57051 -5.00761 0
M  V30 1332 H 113.729 -0.564668 -3.69713 0
M  V30 1333 H 116.021 0.212968 -6.77165 0
M  V30 1334 H 116.964 -1.29947 -6.96074 0
M  V30 1335 H 117.372 -0.161202 -5.6427 0
M  V30 1336 N 116.77 1.45427 -0.607355 0
M  V30 1337 C 118.047 1.9557 -0.0344566 0
M  V30 1338 C 118.427 1.54979 1.43334 0
M  V30 1339 O 117.775 0.812241 2.13576 0
M  V30 1340 C 117.985 3.48226 -0.232321 0
M  V30 1341 C 119.333 4.2445 -0.113001 0
M  V30 1342 O 120.357 3.55829 -0.162431 0
M  V30 1343 O 119.216 5.465 0.00209442 0
M  V30 1344 H 116.31 0.826222 0.0358667 0
M  V30 1345 H 118.856 1.55594 -0.6774 0
M  V30 1346 H 117.628 3.70739 -1.25174 0
M  V30 1347 H 117.251 3.95092 0.445896 0
M  V30 1348 N 118.248 0.346503 1.53744 0
M  V30 1349 C 119.178 -0.501193 2.28058 0
M  V30 1350 C 120.159 -1.10014 1.29734 0
M  V30 1351 O 121.344 -1.12097 1.58581 0
M  V30 1352 C 118.474 -1.65078 3.05559 0
M  V30 1353 C 117.428 -1.18003 4.11411 0
M  V30 1354 C 116.754 -2.41837 4.76884 0
M  V30 1355 C 118.054 -0.278394 5.21558 0
M  V30 1356 H 119.748 0.11875 2.99164 0
M  V30 1357 H 117.294 0.0585531 1.43881 0
M  V30 1358 H 119.247 -2.25028 3.56287 0
M  V30 1359 H 117.971 -2.29767 2.32109 0
M  V30 1360 H 116.63 -0.603331 3.61601 0
M  V30 1361 H 116.278 -3.0494 4.00026 0
M  V30 1362 H 115.978 -2.1102 5.48402 0
M  V30 1363 H 117.502 -3.02508 5.30397 0
M  V30 1364 H 118.916 -0.784823 5.67903 0
M  V30 1365 H 117.313 -0.0619707 6.00068 0
M  V30 1366 H 118.383 0.684677 4.80042 0
M  V30 1367 N 119.726 -1.57421 0.075193 0
M  V30 1368 C 121.137 -1.81021 -0.456964 0
M  V30 1369 C 121.488 -0.98936 -1.69429 0
M  V30 1370 O 120.613 -0.212865 -2.15351 0
M  V30 1371 C 121.208 -3.28329 -0.83581 0
M  V30 1372 C 119.767 -3.52764 -1.31281 0
M  V30 1373 C 118.914 -2.75676 -0.299648 0
M  V30 1374 H 121.865 -1.55822 0.300856 0
M  V30 1375 H 121.886 -3.40564 -1.69696 0
M  V30 1376 H 121.398 -3.88046 0.0649238 0
M  V30 1377 H 119.499 -2.98355 -2.23193 0
M  V30 1378 H 119.612 -4.61451 -1.28839 0
M  V30 1379 H 117.976 -2.42538 -0.777641 0
M  V30 1380 H 118.759 -3.38132 0.593417 0
M  V30 1381 N 121.204 0.198386 -1.56346 0
M  V30 1382 C 122.114 1.2664 -1.97483 0
M  V30 1383 C 123.13 1.49989 -0.882002 0
M  V30 1384 O 124.306 1.62668 -1.18748 0
M  V30 1385 C 121.371 2.59141 -2.30319 0
M  V30 1386 C 120.432 2.43892 -3.53292 0
M  V30 1387 C 119.665 3.70074 -3.84553 0
M  V30 1388 O 119.888 4.74101 -3.1715 0
M  V30 1389 O 118.822 3.658 -4.7799 0
M  V30 1390 H 122.648 0.947304 -2.88548 0
M  V30 1391 H 120.233 0.403123 -1.43859 0
M  V30 1392 H 122.115 3.37352 -2.5253 0
M  V30 1393 H 120.79 2.90684 -1.42423 0
M  V30 1394 H 119.697 1.63803 -3.36332 0
M  V30 1395 H 121.03 2.17282 -4.41644 0
M  V30 1396 N 122.682 1.50554 0.465978 0
M  V30 1397 C 123.592 1.72585 1.58907 0
M  V30 1398 C 124.608 0.60911 1.6299 0
M  V30 1399 O 125.784 0.88804 1.80765 0
M  V30 1400 C 122.849 1.81995 2.95091 0
M  V30 1401 C 121.91 3.05751 3.01355 0
M  V30 1402 C 121.143 3.14702 4.31043 0
M  V30 1403 O 121.366 2.30313 5.21835 0
M  V30 1404 O 120.3 4.07468 4.43005 0
M  V30 1405 H 124.126 2.67799 1.43239 0
M  V30 1406 H 121.711 1.34711 0.646013 0
M  V30 1407 H 123.593 1.90335 3.75966 0
M  V30 1408 H 122.268 0.899659 3.10947 0
M  V30 1409 H 121.175 3.02908 2.19539 0
M  V30 1410 H 122.508 3.97375 2.90437 0
M  V30 1411 N 124.16 -0.719506 1.40217 0
M  V30 1412 C 125.09 -1.8465 1.42922 0
M  V30 1413 C 126.071 -1.67599 0.29062 0
M  V30 1414 O 127.256 -1.87688 0.498677 0
M  V30 1415 C 124.386 -3.22565 1.28722 0
M  V30 1416 C 123.34 -3.54281 2.40144 0
M  V30 1417 C 122.666 -4.91298 2.11023 0
M  V30 1418 C 123.966 -3.55676 3.82481 0
M  V30 1419 H 125.66 -1.82644 2.37237 0
M  V30 1420 H 123.206 -0.877305 1.1419 0
M  V30 1421 H 125.159 -4.01095 1.29232 0
M  V30 1422 H 123.883 -3.25137 0.308811 0
M  V30 1423 H 122.542 -2.78088 2.38877 0
M  V30 1424 H 122.19 -4.90468 1.11582 0
M  V30 1425 H 121.89 -5.13485 2.8567 0
M  V30 1426 H 123.414 -5.72166 2.13209 0
M  V30 1427 H 124.828 -4.24254 3.85592 0
M  V30 1428 H 123.225 -3.89388 4.56614 0
M  V30 1429 H 124.295 -2.55144 4.12346 0
M  V30 1430 N 125.638 -1.25649 -0.95132 0
M  V30 1431 C 127.049 -1.09654 -1.51106 0
M  V30 1432 C 127.4 0.326615 -1.93462 0
M  V30 1433 O 126.525 1.21697 -1.78938 0
M  V30 1434 C 127.12 -1.98437 -2.74605 0
M  V30 1435 C 125.679 -1.86618 -3.2688 0
M  V30 1436 C 124.826 -1.9239 -1.99703 0
M  V30 1437 H 127.777 -1.38887 -0.767865 0
M  V30 1438 H 127.798 -1.5263 -3.48546 0
M  V30 1439 H 127.31 -3.02009 -2.43746 0
M  V30 1440 H 125.411 -0.859421 -3.62553 0
M  V30 1441 H 125.524 -2.71607 -3.94673 0
M  V30 1442 H 123.888 -1.36317 -2.15151 0
M  V30 1443 H 124.671 -2.97573 -1.71188 0
M  V30 1444 N 127.117 1.15442 -1.07289 0
M  V30 1445 C 128.365 1.85845 -0.794096 0
M  V30 1446 C 128.686 1.82692 0.681809 0
M  V30 1447 O 127.956 1.26741 1.49377 0
M  V30 1448 H 126.536 0.688089 -0.290763 0
M  V30 1449 H 129.198 1.39947 -1.3565 0
M  V30 1450 H 128.294 2.91001 -1.12804 0
M  V30 1451 N 128.595 0.856903 1.32268 0
M  V30 1452 C 129.841 0.462069 1.97466 0
M  V30 1453 C 130.174 -0.980298 1.67642 0
M  V30 1454 O 129.449 -1.68824 0.965858 0
M  V30 1455 C 129.732 0.704336 3.53145 0
M  V30 1456 C 129.585 2.19529 3.9259 0
M  V30 1457 C 130.904 0.1622 4.39801 0
M  V30 1458 H 128.023 0.169357 0.717278 0
M  V30 1459 H 130.665 1.07574 1.56614 0
M  V30 1460 H 128.815 0.181999 3.88073 0
M  V30 1461 H 130.487 2.78387 3.67829 0
M  V30 1462 H 128.73 2.67292 3.41668 0
M  V30 1463 H 129.401 2.31549 5.01088 0
M  V30 1464 H 131.877 0.608905 4.11621 0
M  V30 1465 H 130.753 0.361265 5.4771 0
M  V30 1466 H 131.014 -0.935158 4.32096 0
M  V30 1467 N 130.073 -1.45103 0.615059 0
M  V30 1468 C 131.02 -2.30586 -0.0993978 0
M  V30 1469 C 131.99 -1.42544 -0.852669 0
M  V30 1470 O 133.175 -1.71465 -0.836917 0
M  V30 1471 C 130.315 -3.27572 -1.08583 0
M  V30 1472 C 129.428 -4.30717 -0.332656 0
M  V30 1473 C 128.563 -5.14807 -1.30947 0
M  V30 1474 C 127.602 -6.09673 -0.544538 0
M  V30 1475 N 126.739 -6.86517 -1.47101 0
M  V30 1476 H 131.579 -2.91144 0.635542 0
M  V30 1477 H 129.116 -1.4346 0.325206 0
M  V30 1478 H 131.074 -3.82276 -1.67095 0
M  V30 1479 H 129.704 -2.68751 -1.78809 0
M  V30 1480 H 128.756 -3.78615 0.368107 0
M  V30 1481 H 130.068 -4.98102 0.263842 0
M  V30 1482 H 129.222 -5.73948 -1.96643 0
M  V30 1483 H 127.961 -4.47458 -1.9399 0
M  V30 1484 H 126.966 -5.49656 0.126003 0
M  V30 1485 H 128.191 -6.79052 0.080947 0
M  V30 1486 H 126.137 -6.21851 -2.08895 0
M  V30 1487 H 126.054 -7.50281 -0.928137 0
M  V30 1488 H 127.322 -7.50194 -2.11731 0
M  V30 1489 N 131.551 -0.354651 -1.53558 0
M  V30 1490 C 132.962 0.126902 -1.86268 0
M  V30 1491 C 133.313 1.49075 -1.27558 0
M  V30 1492 O 132.438 2.08105 -0.5934 0
M  V30 1493 C 133.033 0.237046 -3.3797 0
M  V30 1494 C 131.592 0.662842 -3.70518 0
M  V30 1495 C 130.739 -0.196652 -2.76602 0
M  V30 1496 H 133.69 -0.573849 -1.47962 0
M  V30 1497 H 133.711 1.06259 -3.65362 0
M  V30 1498 H 133.223 -0.755725 -3.80671 0
M  V30 1499 H 131.324 1.66424 -3.33367 0
M  V30 1500 H 131.437 0.445034 -4.77029 0
M  V30 1501 H 129.801 0.332763 -2.52517 0
M  V30 1502 H 130.584 -1.18676 -3.22135 0
M  V30 1503 N 133.029 1.57378 -0.0835403 0
M  V30 1504 C 134.276 1.9393 0.58287 0
M  V30 1505 C 134.604 0.964455 1.68904 0
M  V30 1506 O 133.859 -0.0179474 1.95692 0
M  V30 1507 C 134.158 3.37063 1.1884 0
M  V30 1508 C 133.824 4.50424 0.207194 0
M  V30 1509 C 132.486 4.81159 -0.0627115 0
M  V30 1510 C 134.838 5.19136 -0.463426 0
M  V30 1511 C 132.166 5.77939 -1.01012 0
M  V30 1512 C 134.518 6.16931 -1.39924 0
M  V30 1513 C 133.182 6.46078 -1.67749 0
M  V30 1514 H 132.452 0.70964 0.213287 0
M  V30 1515 H 135.099 1.90856 -0.156916 0
M  V30 1516 H 133.404 3.3666 2.00418 0
M  V30 1517 H 135.101 3.6264 1.71153 0
M  V30 1518 H 131.691 4.2646 0.427747 0
M  V30 1519 H 135.875 4.95576 -0.268034 0
M  V30 1520 H 131.131 5.98842 -1.23283 0
M  V30 1521 H 135.305 6.69273 -1.92476 0
M  V30 1522 H 132.932 7.2088 -2.41321 0
M  V30 1523 N 134.507 -0.190092 1.56449 0
M  V30 1524 C 135.735 -0.925772 1.85033 0
M  V30 1525 C 136.15 -1.76638 0.666658 0
M  V30 1526 O 135.507 -1.78822 -0.364565 0
M  V30 1527 C 135.558 -1.81786 3.12468 0
M  V30 1528 O 135.279 -1.01118 4.26271 0
M  V30 1529 C 136.78 -2.6648 3.54265 0
M  V30 1530 H 134 -0.269872 0.614337 0
M  V30 1531 H 136.544 -0.195837 2.0356 0
M  V30 1532 H 134.699 -2.50136 2.95822 0
M  V30 1533 H 135.113 -1.61956 4.98869 0
M  V30 1534 H 136.587 -3.24722 4.46385 0
M  V30 1535 H 137.064 -3.40434 2.77491 0
M  V30 1536 H 137.67 -2.03493 3.73458 0
M  V30 1537 N 135.985 -1.50799 -0.457987 0
M  V30 1538 C 137.401 -1.38515 -0.792819 0
M  V30 1539 C 137.601 -0.451409 -1.96379 0
M  V30 1540 O 136.657 0.10112 -2.52297 0
M  V30 1541 C 137.97 -2.80149 -1.09258 0
M  V30 1542 C 139.518 -2.89156 -1.19825 0
M  V30 1543 C 139.993 -4.31651 -1.53106 0
M  V30 1544 N 141.484 -4.34662 -1.60072 0
M  V30 1545 C 142.219 -5.41928 -1.87354 0
M  V30 1546 N 141.715 -6.59384 -2.12568 0
M  V30 1547 N 143.508 -5.29385 -1.88965 0
M  V30 1548 H 135.659 -2.10073 0.313511 0
M  V30 1549 H 137.922 -0.944803 0.0777862 0
M  V30 1550 H 137.628 -3.50374 -0.305084 0
M  V30 1551 H 137.502 -3.18204 -2.02549 0
M  V30 1552 H 139.889 -2.19141 -1.97639 0
M  V30 1553 H 139.97 -2.54626 -0.244821 0
M  V30 1554 H 139.614 -5.02208 -0.758266 0
M  V30 1555 H 139.544 -4.63678 -2.49621 0
M  V30 1556 H 142.035 -3.49973 -1.42573 0
M  V30 1557 H 142.348 -7.36934 -2.32696 0
M  V30 1558 H 140.693 -6.62535 -2.09933 0
M  V30 1559 H 143.884 -4.36616 -1.68772 0
M  V30 1560 H 144.057 -6.13066 -2.09891 0
M  V30 1561 N 137.463 0.71206 -1.40597 0
M  V30 1562 C 138.711 1.46907 -1.38791 0
M  V30 1563 C 139.032 1.94998 0.00780391 0
M  V30 1564 O 138.302 1.70587 0.963174 0
M  V30 1565 H 136.882 0.545043 -0.51082 0
M  V30 1566 H 139.544 0.843882 -1.75683 0
M  V30 1567 H 138.64 2.34021 -2.06496 0
M  V30 1568 N 138.941 1.26152 0.944643 0
M  V30 1569 C 140.352 1.10454 1.50522 0
M  V30 1570 C 140.703 -0.31635 1.93633 0
M  V30 1571 O 139.828 -1.20746 1.79581 0
M  V30 1572 C 140.423 1.99891 2.73549 0
M  V30 1573 C 138.982 1.88348 3.25886 0
M  V30 1574 C 138.129 1.93447 1.9868 0
M  V30 1575 H 141.08 1.39292 0.760489 0
M  V30 1576 H 141.101 1.54477 3.47732 0
M  V30 1577 H 140.613 3.03297 2.42141 0
M  V30 1578 H 138.714 0.878636 3.62092 0
M  V30 1579 H 138.827 2.73696 3.93227 0
M  V30 1580 H 137.191 1.37456 2.14425 0
M  V30 1581 H 137.974 2.98476 1.69607 0
M  V30 1582 N 140.419 -1.14872 1.07899 0
M  V30 1583 C 141.649 -1.89386 0.825631 0
M  V30 1584 C 142.057 -1.78565 -0.625406 0
M  V30 1585 O 141.4 -1.13918 -1.44113 0
M  V30 1586 C 141.462 -3.40206 1.16191 0
M  V30 1587 C 141.126 -3.74812 2.61467 0
M  V30 1588 C 142.123 -3.75367 3.59716 0
M  V30 1589 C 139.808 -4.0495 2.97189 0
M  V30 1590 C 141.802 -4.05574 4.9172 0
M  V30 1591 C 139.489 -4.34821 4.29388 0
M  V30 1592 C 140.487 -4.35116 5.26463 0
M  V30 1593 O 140.175 -4.64267 6.56286 0
M  V30 1594 H 139.907 -0.606894 0.297751 0
M  V30 1595 H 142.461 -1.46438 1.44031 0
M  V30 1596 H 140.691 -3.8358 0.490214 0
M  V30 1597 H 142.38 -3.96018 0.890193 0
M  V30 1598 H 143.146 -3.52176 3.33462 0
M  V30 1599 H 139.025 -4.03876 2.22273 0
M  V30 1600 H 142.569 -4.05719 5.67484 0
M  V30 1601 H 138.466 -4.5748 4.55392 0
M  V30 1602 H 139.234 -4.82007 6.61522 0
M  V30 1603 N 141.898 -0.863906 -1.31812 0
M  V30 1604 C 143.309 -0.52522 -1.7916 0
M  V30 1605 C 143.66 0.957518 -1.71248 0
M  V30 1606 O 142.785 1.74734 -1.27659 0
M  V30 1607 C 143.38 -0.9466 -3.25307 0
M  V30 1608 C 141.939 -0.659668 -3.70574 0
M  V30 1609 C 141.086 -1.14126 -2.52726 0
M  V30 1610 H 144.037 -1.05022 -1.1898 0
M  V30 1611 H 144.058 -0.266766 -3.79564 0
M  V30 1612 H 143.57 -2.02579 -3.31034 0
M  V30 1613 H 141.671 0.408416 -3.70355 0
M  V30 1614 H 141.784 -1.23245 -4.62977 0
M  V30 1615 H 140.148 -0.561216 -2.4844 0
M  V30 1616 H 140.931 -2.22775 -2.61201 0
M  V30 1617 N 143.376 1.44774 -0.622745 0
M  V30 1618 C 144.604 2.06487 -0.130722 0
M  V30 1619 C 145.019 1.46476 1.19123 0
M  V30 1620 O 144.376 0.584502 1.72887 0
M  V30 1621 C 144.427 3.615 -0.000807207 0
M  V30 1622 O 144.148 4.19274 -1.27048 0
M  V30 1623 C 145.649 4.40229 0.520898 0
M  V30 1624 H 142.869 0.666704 -0.0758106 0
M  V30 1625 H 145.413 1.85779 -0.854774 0
M  V30 1626 H 143.568 3.81498 0.673643 0
M  V30 1627 H 143.982 5.12622 -1.1099 0
M  V30 1628 H 145.456 5.49144 0.560838 0
M  V30 1629 H 145.933 4.1108 1.54627 0
M  V30 1630 H 146.539 4.25131 -0.120018 0
M  V30 1631 N 144.854 0.36279 1.53368 0
M  V30 1632 C 145.787 -0.528507 2.21996 0
M  V30 1633 C 146.765 -1.0852 1.21087 0
M  V30 1634 O 147.949 -1.14186 1.4998 0
M  V30 1635 C 145.076 -1.72893 2.91249 0
M  V30 1636 C 144.122 -1.29994 4.06207 0
M  V30 1637 S 144.955 -0.303575 5.34639 0
M  V30 1638 C 146.111 -1.51039 6.07403 0
M  V30 1639 H 146.344 0.0543423 2.9725 0
M  V30 1640 H 143.877 0.146889 1.537 0
M  V30 1641 H 145.835 -2.41751 3.31763 0
M  V30 1642 H 144.496 -2.28303 2.15724 0
M  V30 1643 H 143.689 -2.19549 4.53667 0
M  V30 1644 H 143.291 -0.690608 3.67569 0
M  V30 1645 H 145.583 -2.44186 6.31965 0
M  V30 1646 H 146.526 -1.07721 6.99858 0
M  V30 1647 H 146.934 -1.71518 5.37812 0
M  V30 1648 N 146.332 -1.57332 0.0918853 0
M  V30 1649 C 147.562 -1.98286 -0.580205 0
M  V30 1650 C 147.97 -0.969713 -1.6246 0
M  V30 1651 O 147.313 0.0493501 -1.83634 0
M  V30 1652 C 147.375 -3.35603 -1.28882 0
M  V30 1653 C 147.039 -4.55285 -0.395559 0
M  V30 1654 C 148.036 -5.18687 0.355002 0
M  V30 1655 C 145.721 -5.01314 -0.314556 0
M  V30 1656 C 147.715 -6.26484 1.17458 0
M  V30 1657 C 145.402 -6.08979 0.508677 0
M  V30 1658 C 146.4 -6.71429 1.2519 0
M  V30 1659 O 146.088 -7.77018 2.06151 0
M  V30 1660 H 145.82 -0.656678 -0.160466 0
M  V30 1661 H 148.374 -2.04721 0.16688 0
M  V30 1662 H 146.604 -3.25842 -2.08241 0
M  V30 1663 H 148.293 -3.61026 -1.85512 0
M  V30 1664 H 149.059 -4.84058 0.302134 0
M  V30 1665 H 144.938 -4.5247 -0.882697 0
M  V30 1666 H 148.482 -6.75159 1.75518 0
M  V30 1667 H 144.379 -6.4304 0.563037 0
M  V30 1668 H 145.147 -7.93991 1.98799 0
M  V30 1669 N 147.81 0.181792 -1.56548 0
M  V30 1670 C 149.038 0.915947 -1.85521 0
M  V30 1671 C 149.453 1.76282 -0.676016 0
M  V30 1672 O 148.81 1.79012 0.355077 0
M  V30 1673 C 148.861 1.80126 -3.13427 0
M  V30 1674 O 148.582 0.988562 -4.26801 0
M  V30 1675 C 150.083 2.64597 -3.55673 0
M  V30 1676 H 147.303 0.26661 -0.61576 0
M  V30 1677 H 149.847 0.185039 -2.03661 0
M  V30 1678 H 148.002 2.48563 -2.97145 0
M  V30 1679 H 148.416 1.59308 -4.99721 0
M  V30 1680 H 149.89 3.2235 -4.48101 0
M  V30 1681 H 150.367 3.38958 -2.79292 0
M  V30 1682 H 150.973 2.0151 -3.74532 0
M  V30 1683 N 149.288 1.51039 0.449983 0
M  V30 1684 C 150.535 1.63081 1.20045 0
M  V30 1685 C 150.863 0.341024 1.91487 0
M  V30 1686 O 150.118 -0.674276 1.83717 0
M  V30 1687 C 150.417 2.77556 2.25161 0
M  V30 1688 C 150.083 4.17289 1.70823 0
M  V30 1689 C 148.745 4.55305 1.55725 0
M  V30 1690 C 151.097 5.04536 1.3074 0
M  V30 1691 C 148.425 5.78287 0.989999 0
M  V30 1692 C 150.777 6.28085 0.754482 0
M  V30 1693 C 149.441 6.64885 0.590308 0
M  V30 1694 H 148.711 0.596755 0.439277 0
M  V30 1695 H 151.358 1.85037 0.49333 0
M  V30 1696 H 149.663 2.49771 3.01863 0
M  V30 1697 H 151.36 2.84073 2.83026 0
M  V30 1698 H 147.95 3.8731 1.83546 0
M  V30 1699 H 152.134 4.75782 1.41229 0
M  V30 1700 H 147.39 6.05456 0.850451 0
M  V30 1701 H 151.564 6.95038 0.435324 0
M  V30 1702 H 149.191 7.60055 0.14862 0
M  V30 1703 N 150.766 -0.704594 1.40972 0
M  V30 1704 C 152.182 -1.01406 1.23244 0
M  V30 1705 C 152.382 -2.01169 0.115399 0
M  V30 1706 O 151.438 -2.47021 -0.523147 0
M  V30 1707 C 152.751 -1.54728 2.57836 0
M  V30 1708 C 154.299 -1.66658 2.64942 0
M  V30 1709 C 154.774 -2.23383 3.9983 0
M  V30 1710 N 156.265 -2.30756 4.01629 0
M  V30 1711 C 157 -2.75655 5.02794 0
M  V30 1712 N 156.496 -3.20225 6.14352 0
M  V30 1713 N 158.289 -2.75138 4.90159 0
M  V30 1714 H 150.44 -0.0435285 2.12355 0
M  V30 1715 H 152.703 -0.0818951 0.944456 0
M  V30 1716 H 152.409 -0.888832 3.40283 0
M  V30 1717 H 152.283 -2.53084 2.79693 0
M  V30 1718 H 154.67 -2.31617 1.8286 0
M  V30 1719 H 154.751 -0.668717 2.46904 0
M  V30 1720 H 154.395 -1.59043 4.82357 0
M  V30 1721 H 154.325 -3.23904 4.15203 0
M  V30 1722 H 156.816 -1.99291 3.21079 0
M  V30 1723 H 157.129 -3.53084 6.87424 0
M  V30 1724 H 155.474 -3.18156 6.17901 0
M  V30 1725 H 158.665 -2.39661 4.02095 0
M  V30 1726 H 158.838 -3.09812 5.6914 0
M  V30 1727 N 152.244 -1.26651 -0.937939 0
M  V30 1728 C 153.655 -1.1125 -1.49934 0
M  V30 1729 C 154.006 0.306077 -1.93798 0
M  V30 1730 O 153.131 1.19792 -1.80219 0
M  V30 1731 C 153.726 -2.01339 -2.72485 0
M  V30 1732 C 152.285 -1.90074 -3.24883 0
M  V30 1733 C 151.432 -1.94498 -1.97651 0
M  V30 1734 H 154.383 -1.39693 -0.753091 0
M  V30 1735 H 154.404 -1.56319 -3.46907 0
M  V30 1736 H 153.916 -3.04577 -2.40529 0
M  V30 1737 H 152.017 -0.897827 -3.61621 0
M  V30 1738 H 152.13 -2.75778 -3.9177 0
M  V30 1739 H 150.494 -1.38591 -2.13693 0
M  V30 1740 H 151.277 -2.99372 -1.68022 0
M  V30 1741 N 153.722 1.14298 -1.08507 0
M  V30 1742 C 154.968 1.85854 -0.826438 0
M  V30 1743 C 155.323 1.81413 0.640878 0
M  V30 1744 O 154.616 1.23463 1.46518 0
M  V30 1745 C 154.81 3.33547 -1.28379 0
M  V30 1746 C 154.639 3.52369 -2.79403 0
M  V30 1747 C 153.409 3.67159 -3.47164 0
M  V30 1748 C 155.607 3.49203 -3.77573 0
M  V30 1749 N 153.589 3.74149 -4.86709 0
M  V30 1750 C 154.96 3.6245 -5.03021 0
M  V30 1751 C 157.015 3.32547 -3.70563 0
M  V30 1752 C 155.718 3.60761 -6.2229 0
M  V30 1753 C 157.744 3.32162 -4.89308 0
M  V30 1754 C 157.106 3.45949 -6.13595 0
M  V30 1755 H 153.205 0.696705 -0.355143 0
M  V30 1756 H 155.789 1.36981 -1.38362 0
M  V30 1757 H 153.96 3.81008 -0.754166 0
M  V30 1758 H 155.692 3.92867 -0.971469 0
M  V30 1759 H 152.447 3.68433 -2.9758 0
M  V30 1760 H 152.871 3.81359 -5.5937 0
M  V30 1761 H 157.513 3.20797 -2.75407 0
M  V30 1762 H 155.231 3.71286 -7.17755 0
M  V30 1763 H 158.817 3.20485 -4.85573 0
M  V30 1764 H 157.697 3.456 -7.03939 0
M  V30 1765 N 155.201 0.870884 1.31352 0
M  V30 1766 C 156.429 0.49677 2.00848 0
M  V30 1767 C 156.844 -0.910998 1.65367 0
M  V30 1768 O 156.201 -1.59696 0.883374 0
M  V30 1769 C 156.252 0.645308 3.55694 0
M  V30 1770 O 155.973 1.99764 3.89905 0
M  V30 1771 C 157.474 0.272326 4.42463 0
M  V30 1772 H 154.694 0.193462 0.642506 0
M  V30 1773 H 157.238 1.1723 1.67563 0
M  V30 1774 H 155.393 0.0173176 3.87396 0
M  V30 1775 H 155.807 2.00607 4.84621 0
M  V30 1776 H 157.281 0.427208 5.50344 0
M  V30 1777 H 157.758 -0.788587 4.32062 0
M  V30 1778 H 158.364 0.876054 4.1618 0
M  V30 1779 N 156.679 -1.44442 0.630414 0
M  V30 1780 C 157.928 -2.01267 0.132073 0
M  V30 1781 C 158.241 -1.50172 -1.25331 0
M  V30 1782 O 159.447 -1.9912 -1.84562 0
M  V30 1783 C 157.903 -3.59422 0.185362 0
M  V30 1784 C 157.511 -4.19514 1.57201 0
M  V30 1785 C 159.255 -4.23724 -0.256553 0
M  V30 1786 C 157.162 -5.69891 1.58045 0
M  V30 1787 H 156.092 -0.752619 0.0456092 0
M  V30 1788 H 158.743 -1.65666 0.789106 0
M  V30 1789 H 157.125 -3.92318 -0.538759 0
M  V30 1790 H 158.299 -3.98156 2.31966 0
M  V30 1791 H 156.614 -3.67496 1.95795 0
M  V30 1792 H 159.211 -5.34019 -0.269767 0
M  V30 1793 H 159.554 -3.96013 -1.28372 0
M  V30 1794 H 160.087 -3.95629 0.41505 0
M  V30 1795 H 156.826 -6.02336 2.58597 0
M  V30 1796 H 156.346 -5.93373 0.875725 0
M  V30 1797 H 158.025 -6.33515 1.31408 0
M  V30 1798 N 158.157 -0.370918 -1.53173 0
M  V30 1799 C 159.573 -0.0200818 -1.59587 0
M  V30 1800 C 159.773 1.46279 -1.38581 0
M  V30 1801 O 158.829 2.22506 -1.19363 0
M  V30 1802 C 160.142 -0.4808 -2.96831 0
M  V30 1803 C 161.69 -0.435477 -3.09956 0
M  V30 1804 C 162.165 -0.872092 -4.4962 0
M  V30 1805 N 163.656 -0.827364 -4.55751 0
M  V30 1806 C 164.391 -1.13683 -5.62018 0
M  V30 1807 N 163.887 -1.51584 -6.76014 0
M  V30 1808 N 165.68 -1.05927 -5.52029 0
M  V30 1809 H 157.831 -1.33652 -1.65079 0
M  V30 1810 H 160.094 -0.546634 -0.774529 0
M  V30 1811 H 159.8 -1.51577 -3.1736 0
M  V30 1812 H 159.674 0.129796 -3.76977 0
M  V30 1813 H 162.061 0.590371 -2.89134 0
M  V30 1814 H 162.142 -1.08164 -2.31806 0
M  V30 1815 H 161.786 -1.89608 -4.71181 0
M  V30 1816 H 161.716 -0.203127 -5.26208 0
M  V30 1817 H 164.207 -0.548216 -3.73902 0
M  V30 1818 H 164.52 -1.73609 -7.53047 0
M  V30 1819 H 162.865 -1.55454 -6.77391 0
M  V30 1820 H 166.056 -0.762321 -4.61851 0
M  V30 1821 H 166.229 -1.30378 -6.34749 0
M  V30 1822 N 159.635 1.57281 -0.100228 0
M  V30 1823 C 160.567 2.11342 0.886972 0
M  V30 1824 C 161.58 1.05182 1.24261 0
M  V30 1825 O 162.769 1.32613 1.19483 0
M  V30 1826 C 159.869 2.5825 2.19454 0
M  V30 1827 C 159.042 3.88302 2.01346 0
M  V30 1828 C 158.101 4.21004 3.15661 0
M  V30 1829 O 157.127 4.9014 2.89398 0
M  V30 1830 N 158.329 3.76818 4.41575 0
M  V30 1831 H 161.094 2.96668 0.425216 0
M  V30 1832 H 158.655 1.61678 0.0847334 0
M  V30 1833 H 160.647 2.7717 2.94888 0
M  V30 1834 H 159.217 1.77907 2.57037 0
M  V30 1835 H 158.437 3.7848 1.10212 0
M  V30 1836 H 159.725 4.73375 1.8653 0
M  V30 1837 H 159.123 3.2102 4.65792 0
M  V30 1838 H 157.68 4.00882 5.13942 0
M  V30 1839 N 161.113 -0.173488 1.56642 0
M  V30 1840 C 162.343 -0.904781 1.85734 0
M  V30 1841 C 162.751 -1.76431 0.68328 0
M  V30 1842 O 162.094 -1.802 -0.356865 0
M  V30 1843 C 162.156 -1.83382 3.09211 0
M  V30 1844 C 161.82 -1.15411 4.42187 0
M  V30 1845 C 162.817 -0.520609 5.17287 0
M  V30 1846 C 160.502 -1.15151 4.88923 0
M  V30 1847 C 162.496 0.106412 6.37311 0
M  V30 1848 C 160.183 -0.520664 6.08878 0
M  V30 1849 C 161.181 0.107196 6.82916 0
M  V30 1850 O 160.869 0.728102 8.00596 0
M  V30 1851 H 160.601 -0.268408 0.62043 0
M  V30 1852 H 163.155 -0.179096 2.04618 0
M  V30 1853 H 161.385 -2.59976 2.86268 0
M  V30 1854 H 163.074 -2.43476 3.24768 0
M  V30 1855 H 163.84 -0.514606 4.82262 0
M  V30 1856 H 159.719 -1.62961 4.31236 0
M  V30 1857 H 163.263 0.597081 6.9504 0
M  V30 1858 H 159.16 -0.524242 6.43368 0
M  V30 1859 H 159.928 0.627138 8.16094 0
M  V30 1860 N 162.591 -1.51276 -0.441967 0
M  V30 1861 C 163.554 -1.7167 -1.51862 0
M  V30 1862 C 164.554 -0.586793 -1.49711 0
M  V30 1863 O 165.744 -0.854276 -1.51815 0
M  V30 1864 C 162.876 -1.76889 -2.91416 0
M  V30 1865 H 164.069 -2.67754 -1.35084 0
M  V30 1866 H 161.622 -1.41196 -0.670333 0
M  V30 1867 H 162.357 -0.826026 -3.13604 0
M  V30 1868 H 162.142 -2.59001 -2.94382 0
M  V30 1869 H 163.632 -1.94522 -3.69528 0
M  V30 1870 N 164.069 0.697108 -1.41344 0
M  V30 1871 C 165.317 1.45426 -1.40341 0
M  V30 1872 C 165.638 1.94996 -0.0128787 0
M  V30 1873 O 164.908 1.71599 0.945027 0
M  V30 1874 H 163.488 0.539594 -0.516573 0
M  V30 1875 H 166.15 0.825201 -1.76569 0
M  V30 1876 H 165.246 2.31817 -2.08967 0
M  V30 1877 N 165.547 1.27147 0.931209 0
M  V30 1878 C 166.794 1.13278 1.67852 0
M  V30 1879 C 167.122 -0.32204 1.91815 0
M  V30 1880 O 166.377 -1.25224 1.50391 0
M  V30 1881 C 166.676 1.8579 3.05314 0
M  V30 1882 C 166.342 3.35657 3.01073 0
M  V30 1883 C 165.004 3.76536 2.99623 0
M  V30 1884 C 167.356 4.31299 2.92627 0
M  V30 1885 C 164.684 5.11426 2.87506 0
M  V30 1886 C 167.036 5.66242 2.82051 0
M  V30 1887 C 165.7 6.06418 2.7895 0
M  V30 1888 H 164.97 0.414515 0.614214 0
M  V30 1889 H 167.617 1.57712 1.08624 0
M  V30 1890 H 165.922 1.33854 3.68226 0
M  V30 1891 H 167.619 1.72491 3.62005 0
M  V30 1892 H 164.209 3.03146 3.02986 0
M  V30 1893 H 168.393 4.00692 2.92848 0
M  V30 1894 H 163.649 5.41705 2.83489 0
M  V30 1895 H 167.823 6.40026 2.74481 0
M  V30 1896 H 165.45 7.10895 2.69318 0
M  V30 1897 N 167.025 -1.13721 1.09112 0
M  V30 1898 C 168.25 -1.89314 0.847053 0
M  V30 1899 C 168.675 -1.78416 -0.595774 0
M  V30 1900 O 168.033 -1.12942 -1.41823 0
M  V30 1901 C 168.081 -3.3701 1.28284 0
M  V30 1902 O 167.185 -4.10054 0.439267 0
M  V30 1903 H 166.526 -0.588745 0.307044 0
M  V30 1904 H 169.056 -1.43902 1.45442 0
M  V30 1905 H 169.066 -3.87834 1.26683 0
M  V30 1906 H 167.741 -3.4426 2.33363 0
M  V30 1907 H 166.318 -3.69266 0.519312 0
M  V30 1908 N 168.503 -0.877838 -1.30888 0
M  V30 1909 C 169.731 -0.507414 -2.00581 0
M  V30 1910 C 170.146 0.902216 -1.65848 0
M  V30 1911 O 169.503 1.59225 -0.891831 0
M  V30 1912 C 169.554 -0.664162 -3.55347 0
M  V30 1913 O 169.275 -2.01829 -3.8884 0
M  V30 1914 C 170.776 -0.295787 -4.42312 0
M  V30 1915 H 167.996 -0.196866 -0.641471 0
M  V30 1916 H 170.54 -1.18117 -1.66939 0
M  V30 1917 H 168.695 -0.0378619 -3.87381 0
M  V30 1918 H 169.109 -2.03174 -4.8355 0
M  V30 1919 H 170.583 -0.456388 -5.5011 0
M  V30 1920 H 171.06 0.765663 -4.32475 0
M  V30 1921 H 171.666 -0.898113 -4.15709 0
M  V30 1922 N 169.982 1.44106 -0.638065 0
M  V30 1923 C 171.228 2.02277 -0.145546 0
M  V30 1924 C 171.561 1.50125 1.23191 0
M  V30 1925 O 170.836 0.688133 1.8192 0
M  V30 1926 C 171.119 3.59829 -0.139791 0
M  V30 1927 C 170.972 4.22247 -1.55008 0
M  V30 1928 C 172.291 4.36873 0.531966 0
M  V30 1929 H 169.41 0.734992 -0.0543632 0
M  V30 1930 H 172.052 1.71592 -0.815863 0
M  V30 1931 H 170.202 3.86102 0.431007 0
M  V30 1932 H 171.874 4.07057 -2.1703 0
M  V30 1933 H 170.117 3.79476 -2.10191 0
M  V30 1934 H 170.788 5.31284 -1.49804 0
M  V30 1935 H 173.264 4.16074 0.0464781 0
M  V30 1936 H 172.14 5.4657 0.505206 0
M  V30 1937 H 172.401 4.11995 1.60352 0
M  V30 1938 N 171.46 0.379036 1.52974 0
M  V30 1939 C 172.37 -0.468639 2.29872 0
M  V30 1940 C 173.386 -1.08067 1.36373 0
M  V30 1941 O 174.562 -1.08871 1.69438 0
M  V30 1942 C 171.627 -1.58594 3.083 0
M  V30 1943 C 170.688 -1.00007 4.17489 0
M  V30 1944 C 169.921 -2.06413 4.92168 0
M  V30 1945 O 170.144 -3.27751 4.66835 0
M  V30 1946 O 169.078 -1.68717 5.7777 0
M  V30 1947 H 172.904 0.157508 3.03291 0
M  V30 1948 H 170.489 0.143035 1.48714 0
M  V30 1949 H 172.371 -2.23525 3.57232 0
M  V30 1950 H 171.046 -2.19724 2.37703 0
M  V30 1951 H 169.953 -0.314299 3.72777 0
M  V30 1952 H 171.286 -0.433135 4.90291 0
M  V30 1953 N 172.938 -1.57226 0.108567 0
M  V30 1954 C 173.848 -2.18292 -0.859401 0
M  V30 1955 C 174.864 -1.15612 -1.30038 0
M  V30 1956 O 176.04 -1.48039 -1.36552 0
M  V30 1957 C 173.105 -2.762 -2.09558 0
M  V30 1958 C 172.166 -3.93881 -1.70752 0
M  V30 1959 C 171.399 -4.49018 -2.88477 0
M  V30 1960 O 171.622 -4.03068 -4.036 0
M  V30 1961 O 170.556 -5.39852 -2.66164 0
M  V30 1962 H 174.382 -3.01441 -0.369769 0
M  V30 1963 H 171.967 -1.48945 -0.1165 0
M  V30 1964 H 173.849 -3.13156 -2.81978 0
M  V30 1965 H 172.524 -1.96089 -2.57548 0
M  V30 1966 H 171.431 -3.61713 -0.954714 0
M  V30 1967 H 172.764 -4.75396 -1.27513 0
M  V30 1968 N 174.416 0.165178 -1.56732 0
M  V30 1969 C 175.641 0.900253 -1.86843 0
M  V30 1970 C 176.066 1.74766 -0.695596 0
M  V30 1971 O 175.424 1.77786 0.35522 0
M  V30 1972 C 175.472 1.74777 -3.15413 0
M  V30 1973 O 174.576 2.85007 -2.98068 0
M  V30 1974 H 173.917 0.251832 -0.614391 0
M  V30 1975 H 176.447 0.161468 -2.03962 0
M  V30 1976 H 176.457 2.14646 -3.46974 0
M  V30 1977 H 175.132 1.12537 -4.00385 0
M  V30 1978 H 173.709 2.48676 -2.77875 0
M  V30 1979 N 175.894 1.51508 0.433938 0
M  V30 1980 C 176.842 1.73646 1.54757 0
M  V30 1981 C 177.836 0.602854 1.5831 0
M  V30 1982 O 179.042 0.784318 1.62014 0
M  V30 1983 H 175.417 0.548718 0.51421 0
M  V30 1984 H 177.388 2.66991 1.33261 0
M  V30 1985 C 176.137 1.88172 2.92381 0
M  V30 1986 H 175.46 2.74808 2.90381 0
M  V30 1987 H 176.9 2.07672 3.6966 0
M  V30 1988 C 175.359 0.64239 3.30719 0
M  V30 1989 O 175.889 -0.201362 4.01195 0
M  V30 1990 N 174.095 0.485489 2.86516 0
M  V30 1991 H 173.642 1.17318 2.29334 0
M  V30 1992 H 173.6 -0.342482 3.12529 0
M  V30 1993 N 177.372 -0.689602 1.41712 0
M  V30 1994 C 178.319 -1.80345 1.44029 0
M  V30 1995 C 179.289 -1.63478 0.293948 0
M  V30 1996 O 180.474 -1.84244 0.495869 0
M  V30 1997 C 177.614 -3.18272 1.33405 0
M  V30 1998 C 176.727 -3.46529 2.57956 0
M  V30 1999 C 175.862 -4.74103 2.39582 0
M  V30 2000 C 174.901 -4.95347 3.5958 0
M  V30 2001 N 174.038 -6.14151 3.40239 0
M  V30 2002 H 178.878 -1.77698 2.39222 0
M  V30 2003 H 176.415 -0.867688 1.18784 0
M  V30 2004 H 178.373 -3.97956 1.25246 0
M  V30 2005 H 177.003 -3.2008 0.418164 0
M  V30 2006 H 176.055 -2.61207 2.76542 0
M  V30 2007 H 177.367 -3.58126 3.47199 0
M  V30 2008 H 176.521 -5.61853 2.28924 0
M  V30 2009 H 175.26 -4.64763 1.47805 0
M  V30 2010 H 174.265 -4.06044 3.70686 0
M  V30 2011 H 175.49 -5.06542 4.52318 0
M  V30 2012 H 173.436 -6.06013 2.51167 0
M  V30 2013 H 173.353 -6.26543 4.23061 0
M  V30 2014 H 174.621 -7.04619 3.33365 0
M  V30 2015 N 178.85 -1.27639 -0.924453 0
M  V30 2016 C 180.097 -1.14167 -1.67249 0
M  V30 2017 C 180.425 0.311863 -1.91984 0
M  V30 2018 O 179.68 1.24425 -1.51053 0
M  V30 2019 C 179.979 -1.87407 -3.04325 0
M  V30 2020 C 179.645 -3.37249 -2.99289 0
M  V30 2021 C 178.307 -3.7812 -2.97622 0
M  V30 2022 C 180.659 -4.32845 -2.90336 0
M  V30 2023 C 177.987 -5.12944 -2.8479 0
M  V30 2024 C 180.339 -5.6773 -2.79045 0
M  V30 2025 C 179.003 -6.07889 -2.7573 0
M  V30 2026 H 178.273 -0.417766 -0.612007 0
M  V30 2027 H 180.92 -1.58286 -1.07786 0
M  V30 2028 H 179.225 -1.35805 -3.67511 0
M  V30 2029 H 180.922 -1.74408 -3.61086 0
M  V30 2030 H 177.512 -3.04748 -3.01374 0
M  V30 2031 H 181.696 -4.02239 -2.90719 0
M  V30 2032 H 176.952 -5.432 -2.80612 0
M  V30 2033 H 181.126 -6.41472 -2.71083 0
M  V30 2034 H 178.753 -7.12314 -2.65544 0
M  V30 2035 N 180.328 1.1314 -1.09713 0
M  V30 2036 C 181.558 1.88048 -0.855656 0
M  V30 2037 C 181.966 1.79537 0.596919 0
M  V30 2038 O 181.309 1.16196 1.42282 0
M  V30 2039 C 181.371 3.38314 -1.21589 0
M  V30 2040 C 181.035 3.70605 -2.67397 0
M  V30 2041 C 182.032 3.69596 -3.65643 0
M  V30 2042 C 179.717 4.0017 -3.03593 0
M  V30 2043 C 181.711 3.977 -4.9811 0
M  V30 2044 C 179.398 4.27935 -4.36251 0
M  V30 2045 C 180.396 4.26685 -5.33318 0
M  V30 2046 O 180.084 4.53767 -6.63589 0
M  V30 2047 H 179.816 0.60208 -0.307368 0
M  V30 2048 H 182.37 1.44128 -1.46343 0
M  V30 2049 H 180.6 3.82752 -0.551177 0
M  V30 2050 H 182.289 3.94552 -0.953083 0
M  V30 2051 H 183.055 3.46826 -3.39023 0
M  V30 2052 H 178.934 4.00289 -2.2867 0
M  V30 2053 H 182.478 3.9664 -5.73866 0
M  V30 2054 H 178.375 4.50178 -4.62613 0
M  V30 2055 H 179.143 4.71422 -6.69107 0
M  V30 2056 N 181.806 0.884767 1.30421 0
M  V30 2057 C 182.753 0.349642 2.28136 0
M  V30 2058 C 183.723 -0.560061 1.56373 0
M  V30 2059 O 184.908 -0.488524 1.8444 0
M  V30 2060 C 182.048 -0.42999 3.42411 0
M  V30 2061 C 181.161 0.508907 4.28992 0
M  V30 2062 C 180.296 -0.286301 5.30428 0
M  V30 2063 C 179.335 0.648079 6.08659 0
M  V30 2064 N 178.472 -0.111792 7.02011 0
M  V30 2065 H 183.312 1.18807 2.73293 0
M  V30 2066 H 180.849 0.597231 1.3443 0
M  V30 2067 H 182.807 -0.897923 4.07423 0
M  V30 2068 H 181.437 -1.23299 2.98324 0
M  V30 2069 H 180.489 1.09533 3.64289 0
M  V30 2070 H 181.801 1.22475 4.8353 0
M  V30 2071 H 180.955 -0.816098 6.01186 0
M  V30 2072 H 179.694 -1.03536 4.76583 0
M  V30 2073 H 178.699 1.18951 5.36778 0
M  V30 2074 H 179.924 1.39623 6.64592 0
M  V30 2075 H 177.87 -0.843395 6.50556 0
M  V30 2076 H 177.787 0.544429 7.54037 0
M  V30 2077 H 179.055 -0.622339 7.77012 0
M  V30 2078 N 183.284 -1.43765 0.645699 0
M  V30 2079 C 184.561 -1.9541 0.0862963 0
M  V30 2080 C 184.941 -1.58725 -1.39175 0
M  V30 2081 O 184.289 -0.868581 -2.11348 0
M  V30 2082 C 184.499 -3.47488 0.324565 0
M  V30 2083 C 185.847 -4.24001 0.225497 0
M  V30 2084 O 186.871 -3.55274 0.256715 0
M  V30 2085 O 185.73 -5.46313 0.142801 0
M  V30 2086 H 182.824 -0.826882 -0.0139483 0
M  V30 2087 H 185.37 -1.53743 0.718415 0
M  V30 2088 H 184.142 -3.67289 1.3496 0
M  V30 2089 H 183.765 -3.96135 -0.340987 0
M  V30 2090 N 184.763 -0.387143 -1.52771 0
M  V30 2091 C 185.711 0.463953 -2.27926 0
M  V30 2092 C 186.705 1.06493 -1.31741 0
M  V30 2093 O 187.911 1.00565 -1.49287 0
M  V30 2094 H 184.286 0.16837 -0.732909 0
M  V30 2095 H 186.257 -0.19141 -2.97785 0
M  V30 2096 C 185.006 1.5803 -3.09713 0
M  V30 2097 H 184.329 1.12718 -3.83581 0
M  V30 2098 H 185.769 2.15008 -3.65442 0
M  V30 2099 C 184.228 2.53509 -2.2189 0
M  V30 2100 O 184.758 3.56863 -1.84422 0
M  V30 2101 N 182.964 2.23199 -1.86093 0
M  V30 2102 H 182.511 1.39185 -2.16761 0
M  V30 2103 H 182.469 2.87333 -1.27621 0
M  V30 2104 N 186.241 1.57166 -0.116904 0
M  V30 2105 C 187.49 1.94298 0.541407 0
M  V30 2106 C 187.803 1.00236 1.67964 0
M  V30 2107 O 189.009 1.26826 2.40057 0
M  V30 2108 C 187.465 3.45306 1.01449 0
M  V30 2109 C 187.073 4.47899 -0.0951738 0
M  V30 2110 C 188.817 3.91361 1.6443 0
M  V30 2111 C 186.724 5.90083 0.394491 0
M  V30 2112 H 185.654 0.725308 0.206019 0
M  V30 2113 H 188.305 1.82446 -0.196419 0
M  V30 2114 H 186.687 3.52385 1.80667 0
M  V30 2115 H 187.861 4.52486 -0.871374 0
M  V30 2116 H 186.176 4.11583 -0.631505 0
M  V30 2117 H 188.773 4.95004 2.02176 0
M  V30 2118 H 189.116 3.3122 2.52189 0
M  V30 2119 H 189.649 3.87073 0.917559 0
M  V30 2120 H 186.388 6.53974 -0.447004 0
M  V30 2121 H 185.908 5.88921 1.13722 0
M  V30 2122 H 187.587 6.41307 0.856399 0
M  V30 2123 N 187.719 -0.156864 1.56817 0
M  V30 2124 C 188.666 -1.19394 1.97519 0
M  V30 2125 C 189.636 -1.4322 0.841265 0
M  V30 2126 O 190.821 -1.55719 1.10255 0
M  V30 2127 C 187.961 -2.52483 2.35258 0
M  V30 2128 C 187.074 -2.35914 3.61896 0
M  V30 2129 C 186.209 -3.61969 3.88782 0
M  V30 2130 C 185.248 -3.40395 5.08722 0
M  V30 2131 N 184.385 -4.58556 5.31668 0
M  V30 2132 H 189.225 -0.839845 2.85921 0
M  V30 2133 H 186.762 -0.403264 1.41464 0
M  V30 2134 H 188.72 -3.30071 2.55165 0
M  V30 2135 H 187.35 -2.85859 1.49949 0
M  V30 2136 H 186.402 -1.49429 3.49821 0
M  V30 2137 H 187.714 -2.15926 4.49641 0
M  V30 2138 H 186.868 -4.47989 4.09135 0
M  V30 2139 H 185.607 -3.84951 2.9944 0
M  V30 2140 H 184.612 -2.52763 4.88253 0
M  V30 2141 H 185.837 -3.18822 5.99608 0
M  V30 2142 H 183.783 -4.81729 4.45279 0
M  V30 2143 H 183.7 -4.41535 6.13664 0
M  V30 2144 H 184.968 -5.45817 5.5651 0
M  V30 2145 N 189.197 -1.51736 -0.425897 0
M  V30 2146 C 190.16 -1.73271 -1.50032 0
M  V30 2147 C 191.16 -0.602639 -1.4908 0
M  V30 2148 O 192.35 -0.87033 -1.509 0
M  V30 2149 C 189.482 -1.79969 -2.89523 0
M  V30 2150 H 190.675 -2.69172 -1.32237 0
M  V30 2151 H 188.228 -1.41899 -0.65532 0
M  V30 2152 H 188.963 -0.859241 -3.1271 0
M  V30 2153 H 188.748 -2.62109 -2.91619 0
M  V30 2154 H 190.238 -1.9843 -3.67444 0
M  V30 2155 N 190.675 0.682077 -1.42076 0
M  V30 2156 C 191.923 1.4393 -1.41876 0
M  V30 2157 C 192.244 1.94971 -0.0335599 0
M  V30 2158 O 191.514 1.72591 0.926773 0
M  V30 2159 H 190.094 0.534085 -0.522267 0
M  V30 2160 H 192.756 0.806427 -1.77434 0
M  V30 2161 H 191.852 2.29588 -2.11414 0
M  V30 2162 N 192.153 1.28127 0.917671 0
M  V30 2163 C 193.085 1.07517 2.02417 0
M  V30 2164 C 194.098 0.0281099 1.62776 0
M  V30 2165 O 195.287 0.270748 1.76435 0
M  V30 2166 C 192.387 0.610957 3.33347 0
M  V30 2167 C 191.56 1.73255 4.01624 0
M  V30 2168 C 190.619 1.26238 5.10833 0
M  V30 2169 O 189.645 1.96389 5.34247 0
M  V30 2170 N 190.847 0.123448 5.80369 0
M  V30 2171 H 193.612 2.02806 2.20658 0
M  V30 2172 H 191.173 1.19827 1.08871 0
M  V30 2173 H 193.165 0.280101 4.0373 0
M  V30 2174 H 191.735 -0.24898 3.11607 0
M  V30 2175 H 190.955 2.23319 3.24842 0
M  V30 2176 H 192.243 2.48503 4.43986 0
M  V30 2177 H 191.641 -0.461847 5.63812 0
M  V30 2178 H 190.198 -0.148158 6.51632 0
M  V30 2179 N 193.631 -1.12557 1.10312 0
M  V30 2180 C 194.563 -2.17971 0.708625 0
M  V30 2181 C 195.576 -1.60806 -0.254027 0
M  V30 2182 O 196.765 -1.78458 -0.0386891 0
M  V30 2183 C 193.865 -3.38891 0.0248198 0
M  V30 2184 C 193.038 -4.25548 1.01132 0
M  V30 2185 C 192.097 -5.24972 0.35924 0
M  V30 2186 O 191.123 -5.60174 1.00965 0
M  V30 2187 N 192.325 -5.73747 -0.882847 0
M  V30 2188 H 195.09 -2.52427 1.61557 0
M  V30 2189 H 192.651 -1.27967 0.991771 0
M  V30 2190 H 194.643 -4.02485 -0.422852 0
M  V30 2191 H 193.213 -3.02596 -0.784514 0
M  V30 2192 H 192.433 -3.58589 1.6373 0
M  V30 2193 H 193.721 -4.80294 1.67914 0
M  V30 2194 H 193.119 -5.4731 -1.43065 0
M  V30 2195 H 191.676 -6.39234 -1.27369 0
M  V30 2196 N 195.109 -0.891671 -1.2995 0
M  V30 2197 C 196.357 -0.512486 -1.95494 0
M  V30 2198 C 196.678 0.942776 -1.70695 0
M  V30 2199 O 195.948 1.66374 -1.03424 0
M  V30 2200 H 194.528 -0.186533 -0.723336 0
M  V30 2201 H 197.19 -1.13621 -1.58355 0
M  V30 2202 H 196.286 -0.688342 -3.04415 0
M  V30 2203 N 196.587 1.43421 -0.653314 0
M  V30 2204 C 197.517 2.33487 0.0246656 0
M  V30 2205 C 198.498 1.49475 0.811863 0
M  V30 2206 O 199.683 1.78139 0.773322 0
M  V30 2207 C 196.813 3.32841 0.99166 0
M  V30 2208 C 195.767 4.26842 0.314568 0
M  V30 2209 C 195.093 5.16236 1.39302 0
M  V30 2210 C 196.393 5.16243 -0.793095 0
M  V30 2211 H 198.087 2.90427 -0.727481 0
M  V30 2212 H 195.633 1.39649 -0.351287 0
M  V30 2213 H 197.586 3.94747 1.47487 0
M  V30 2214 H 196.31 2.74158 1.77497 0
M  V30 2215 H 194.969 3.663 -0.148199 0
M  V30 2216 H 194.617 4.53891 2.16776 0
M  V30 2217 H 194.317 5.79948 0.945223 0
M  V30 2218 H 195.841 5.81015 1.87759 0
M  V30 2219 H 197.255 5.71958 -0.392039 0
M  V30 2220 H 195.652 5.88676 -1.16536 0
M  V30 2221 H 196.722 4.55927 -1.65103 0
M  V30 2222 N 198.065 0.39524 1.52563 0
M  V30 2223 C 199.29 -0.187456 2.06551 0
M  V30 2224 C 199.715 -1.39249 1.26457 0
M  V30 2225 O 199.073 -1.78947 0.291151 0
M  V30 2226 C 199.121 -0.529985 3.56684 0
M  V30 2227 O 198.225 -1.62307 3.79118 0
M  V30 2228 H 197.566 -0.0202537 0.663691 0
M  V30 2229 H 200.096 0.564426 1.96661 0
M  V30 2230 H 200.106 -0.792598 4.00227 0
M  V30 2231 H 198.781 0.350987 4.14416 0
M  V30 2232 H 197.358 -1.3537 3.47461 0
M  V30 2233 N 199.544 -1.57102 0.125237 0
M  V30 2234 C 200.79 -1.95697 -0.532035 0
M  V30 2235 C 201.123 -1.009 -1.6593 0
M  V30 2236 O 200.398 -0.047347 -1.94442 0
M  V30 2237 C 200.681 -3.44181 -1.05884 0
M  V30 2238 C 200.534 -4.49752 0.0654392 0
M  V30 2239 C 201.853 -3.94655 -1.9477 0
M  V30 2240 H 198.972 -0.711571 -0.191925 0
M  V30 2241 H 201.614 -1.88923 0.20206 0
M  V30 2242 H 199.764 -3.50085 -1.68442 0
M  V30 2243 H 201.436 -4.55943 0.700982 0
M  V30 2244 H 199.679 -4.27653 0.727709 0
M  V30 2245 H 200.35 -5.50924 -0.344505 0
M  V30 2246 H 202.826 -3.91094 -1.42074 0
M  V30 2247 H 201.702 -4.99057 -2.28546 0
M  V30 2248 H 201.963 -3.35718 -2.87656 0
M  V30 2249 N 201.022 0.148545 -1.56898 0
M  V30 2250 C 201.985 1.16736 -1.97244 0
M  V30 2251 C 202.985 1.35947 -0.858777 0
M  V30 2252 O 204.175 1.32966 -1.12542 0
M  V30 2253 C 201.307 2.52798 -2.28705 0
M  V30 2254 H 202.5 0.821279 -2.88435 0
M  V30 2255 H 200.053 0.391831 -1.51309 0
M  V30 2256 H 200.788 2.92381 -1.403 0
M  V30 2257 H 200.573 2.40216 -3.09901 0
M  V30 2258 H 202.063 3.26179 -2.60762 0
M  V30 2259 N 202.5 1.5196 0.417844 0
M  V30 2260 C 203.747 1.65591 1.16559 0
M  V30 2261 C 204.075 0.381565 1.90721 0
M  V30 2262 O 203.33 -0.635156 1.85106 0
M  V30 2263 C 203.629 2.82269 2.19223 0
M  V30 2264 C 203.295 4.20819 1.61933 0
M  V30 2265 C 201.957 4.58506 1.46033 0
M  V30 2266 C 204.309 5.07196 1.20008 0
M  V30 2267 C 201.637 5.80257 0.867113 0
M  V30 2268 C 203.989 6.29544 0.621086 0
M  V30 2269 C 202.653 6.65987 0.449144 0
M  V30 2270 H 201.923 0.605939 0.42652 0
M  V30 2271 H 204.57 1.86041 0.45397 0
M  V30 2272 H 202.875 2.56118 2.96498 0
M  V30 2273 H 204.572 2.90012 2.76936 0
M  V30 2274 H 201.162 3.91116 1.7529 0
M  V30 2275 H 205.346 4.7867 1.31105 0
M  V30 2276 H 200.602 6.07124 0.721833 0
M  V30 2277 H 204.776 6.95805 0.287798 0
M  V30 2278 H 202.403 7.60199 -0.012632 0
M  V30 2279 N 203.978 -0.674533 1.42435 0
M  V30 2280 C 205.255 -1.4305 1.33402 0
M  V30 2281 C 205.635 -2.11081 -0.0284674 0
M  V30 2282 O 204.983 -2.03257 -1.04397 0
M  V30 2283 C 205.193 -2.43272 2.50239 0
M  V30 2284 C 206.541 -3.07907 2.92367 0
M  V30 2285 O 207.565 -2.53599 2.50132 0
M  V30 2286 O 206.424 -4.0632 3.65467 0
M  V30 2287 H 203.518 -0.638076 0.526106 0
M  V30 2288 H 206.064 -0.703235 1.54443 0
M  V30 2289 H 204.836 -1.91803 3.41068 0
M  V30 2290 H 204.459 -3.23479 2.31186 0
M  V30 2291 N 205.456 -1.28612 -0.910864 0
M  V30 2292 C 206.386 -1.15326 -2.03032 0
M  V30 2293 C 207.367 -0.0502924 -1.70026 0
M  V30 2294 O 208.552 -0.227797 -1.92859 0
M  V30 2295 C 205.682 -0.817343 -3.37545 0
M  V30 2296 C 204.636 -1.8754 -3.84724 0
M  V30 2297 C 203.962 -1.39305 -5.16235 0
M  V30 2298 C 205.262 -3.28244 -4.06267 0
M  V30 2299 H 206.956 -2.08975 -2.14406 0
M  V30 2300 H 204.502 -1.00612 -1.03021 0
M  V30 2301 H 206.455 -0.711151 -4.15356 0
M  V30 2302 H 205.179 0.154846 -3.26233 0
M  V30 2303 H 203.838 -1.97079 -3.09121 0
M  V30 2304 H 203.486 -0.409846 -5.01328 0
M  V30 2305 H 203.186 -2.10057 -5.48771 0
M  V30 2306 H 204.71 -1.30014 -5.96598 0
M  V30 2307 H 206.124 -3.21611 -4.74594 0
M  V30 2308 H 204.521 -3.96855 -4.5014 0
M  V30 2309 H 205.591 -3.72048 -3.10979 0
M  V30 2310 N 206.934 1.1197 -1.10907 0
M  V30 2311 C 207.897 2.16031 -0.765707 0
M  V30 2312 C 208.897 1.59393 0.212235 0
M  V30 2313 O 210.087 1.74196 -0.0115441 0
M  V30 2314 C 207.219 3.40632 -0.135053 0
M  V30 2315 H 208.412 2.47919 -1.68748 0
M  V30 2316 H 205.965 1.27061 -0.910226 0
M  V30 2317 H 206.7 3.14348 0.797218 0
M  V30 2318 H 206.485 3.8302 -0.838937 0
M  V30 2319 H 207.975 4.17505 0.0892469 0
M  V30 2320 N 208.412 0.89855 1.29475 0
M  V30 2321 C 209.64 0.539261 1.99749 0
M  V30 2322 C 210.055 -0.875716 1.67262 0
M  V30 2323 O 209.412 -1.57786 0.917049 0
M  V30 2324 C 209.463 0.72061 3.54245 0
M  V30 2325 O 209.184 2.07989 3.8558 0
M  V30 2326 C 210.685 0.366118 4.41786 0
M  V30 2327 H 207.905 0.207047 0.638258 0
M  V30 2328 H 210.449 1.20758 1.65039 0
M  V30 2329 H 208.604 0.0994862 3.87272 0
M  V30 2330 H 209.018 2.10841 4.80257 0
M  V30 2331 H 210.492 0.543848 5.49314 0
M  V30 2332 H 210.969 -0.696763 4.33638 0
M  V30 2333 H 211.575 0.964135 4.14228 0
M  V30 2334 N 209.89 -1.43072 0.660911 0
M  V30 2335 C 210.84 -2.27948 -0.04847 0
M  V30 2336 C 211.824 -1.40325 -0.787246 0
M  V30 2337 O 213.016 -1.63893 -0.668446 0
M  V30 2338 C 210.145 -3.28143 -1.00881 0
M  V30 2339 C 209.231 -4.23252 -0.268108 0
M  V30 2340 N 209.622 -5.00656 0.719528 0
M  V30 2341 C 207.92 -4.43092 -0.508493 0
M  V30 2342 C 208.621 -5.70019 1.15988 0
M  V30 2343 N 207.597 -5.41364 0.492584 0
M  V30 2344 H 211.399 -2.85213 0.709279 0
M  V30 2345 H 208.913 -1.54869 0.488822 0
M  V30 2346 H 210.91 -3.87736 -1.53188 0
M  V30 2347 H 209.57 -2.7244 -1.76654 0
M  V30 2348 H 210.581 -5.06115 1.09855 0
M  V30 2349 H 207.258 -3.98449 -1.24679 0
M  V30 2350 H 208.648 -6.4214 1.97751 0
M  V30 2351 N 211.368 -0.403325 -1.52352 0
M  V30 2352 C 212.784 -0.0539281 -1.59509 0
M  V30 2353 C 212.984 1.43307 -1.41652 0
M  V30 2354 O 212.04 2.19924 -1.24056 0
M  V30 2355 C 213.353 -0.543654 -2.95745 0
M  V30 2356 C 214.901 -0.501125 -3.08962 0
M  V30 2357 C 215.376 -0.967267 -4.47669 0
M  V30 2358 N 216.867 -0.923849 -4.53893 0
M  V30 2359 C 217.602 -1.25578 -5.5948 0
M  V30 2360 N 217.098 -1.65889 -6.72646 0
M  V30 2361 N 218.891 -1.17613 -5.49658 0
M  V30 2362 H 211.042 -1.37123 -1.62206 0
M  V30 2363 H 213.305 -0.56294 -0.76276 0
M  V30 2364 H 213.011 -1.58275 -3.14073 0
M  V30 2365 H 212.885 0.0498042 -3.77167 0
M  V30 2366 H 215.272 0.528909 -2.90321 0
M  V30 2367 H 215.353 -1.13056 -2.2946 0
M  V30 2368 H 214.997 -1.9956 -4.67053 0
M  V30 2369 H 214.927 -0.314698 -5.25659 0
M  V30 2370 H 217.418 -0.627403 -3.72655 0
M  V30 2371 H 217.731 -1.89543 -7.49195 0
M  V30 2372 H 216.076 -1.69787 -6.73942 0
M  V30 2373 H 219.267 -0.860115 -4.6013 0
M  V30 2374 H 219.44 -1.43812 -6.3184 0
M  V30 2375 N 212.846 1.57033 -0.133567 0
M  V30 2376 C 214.094 1.953 0.519848 0
M  V30 2377 C 214.415 1.01866 1.66278 0
M  V30 2378 O 213.685 0.0776513 1.95746 0
M  V30 2379 H 212.265 0.721091 0.195032 0
M  V30 2380 H 214.927 1.93809 -0.205921 0
M  V30 2381 H 214.023 2.98695 0.904854 0
M  V30 2382 N 214.325 -0.140222 1.56975 0
M  V30 2383 C 215.555 -0.865181 1.87612 0
M  V30 2384 C 215.963 -1.74942 0.72055 0
M  V30 2385 O 215.306 -1.80917 -0.318561 0
M  V30 2386 C 215.368 -1.76782 3.13031 0
M  V30 2387 C 215.032 -1.06005 4.44536 0
M  V30 2388 C 216.029 -0.410768 5.18275 0
M  V30 2389 C 213.714 -1.04754 4.91255 0
M  V30 2390 C 215.708 0.241572 6.36942 0
M  V30 2391 C 213.395 -0.391394 6.09845 0
M  V30 2392 C 214.393 0.252029 6.82535 0
M  V30 2393 O 214.081 0.897757 7.98871 0
M  V30 2394 H 213.813 -0.255188 0.625983 0
M  V30 2395 H 216.367 -0.135653 2.04952 0
M  V30 2396 H 214.597 -2.53846 2.91718 0
M  V30 2397 H 216.286 -2.36533 3.29859 0
M  V30 2398 H 217.052 -0.412195 4.83245 0
M  V30 2399 H 212.931 -1.53777 4.34596 0
M  V30 2400 H 216.475 0.744375 6.93617 0
M  V30 2401 H 212.372 -0.387656 6.44335 0
M  V30 2402 H 213.14 0.800102 8.1458 0
M  V30 2403 N 215.803 -1.52179 -0.40978 0
M  V30 2404 C 217.08 -1.56769 -1.16974 0
M  V30 2405 C 217.46 -0.348322 -2.08206 0
M  V30 2406 O 216.808 0.664862 -2.18613 0
M  V30 2407 C 217.018 -2.89603 -1.9476 0
M  V30 2408 C 218.366 -3.42579 -2.50849 0
M  V30 2409 O 219.39 -2.91338 -2.04941 0
M  V30 2410 O 218.249 -4.32054 -3.34652 0
M  V30 2411 H 215.343 -0.631439 -0.534054 0
M  V30 2412 H 217.889 -1.64507 -0.416613 0
M  V30 2413 H 216.661 -3.698 -1.27921 0
M  V30 2414 H 216.284 -2.85155 -2.77079 0
M  V30 2415 N 217.281 0.66697 -1.42791 0
M  V30 2416 C 218.506 1.46004 -1.47301 0
M  V30 2417 C 218.931 1.87894 -0.0880317 0
M  V30 2418 O 218.289 1.56502 0.915253 0
M  V30 2419 C 218.337 2.68031 -2.41229 0
M  V30 2420 O 217.441 3.6659 -1.88906 0
M  V30 2421 H 216.782 0.43832 -0.49877 0
M  V30 2422 H 219.312 0.817391 -1.87563 0
M  V30 2423 H 219.322 3.1601 -2.58073 0
M  V30 2424 H 217.997 2.36883 -3.41847 0
M  V30 2425 H 216.574 3.25661 -1.81656 0
M  V30 2426 N 218.759 1.29093 0.90403 0
M  V30 2427 C 220.036 1.075 1.63411 0
M  V30 2428 C 220.416 -0.382346 2.07609 0
M  V30 2429 O 219.764 -1.37031 1.82851 0
M  V30 2430 C 219.974 2.05858 2.81822 0
M  V30 2431 C 221.322 2.36539 3.52611 0
M  V30 2432 O 222.346 2.04019 2.91984 0
M  V30 2433 O 221.205 2.92085 4.61897 0
M  V30 2434 H 218.299 0.411547 0.717327 0
M  V30 2435 H 220.845 1.40449 0.952479 0
M  V30 2436 H 219.617 3.04037 2.46327 0
M  V30 2437 H 219.24 1.73613 3.57693 0
M  V30 2438 N 220.237 -1.11381 1.11499 0
M  V30 2439 C 221.185 -2.19522 0.768956 0
M  V30 2440 C 222.179 -1.67693 -0.239857 0
M  V30 2441 O 223.385 -1.79727 -0.0990755 0
M  V30 2442 H 219.76 -0.715711 0.230786 0
M  V30 2443 H 221.731 -2.45954 1.68964 0
M  V30 2444 C 220.48 -3.46945 0.229073 0
M  V30 2445 H 219.803 -3.8718 0.996596 0
M  V30 2446 H 221.243 -4.23993 0.0251441 0
M  V30 2447 C 219.702 -3.2042 -1.04079 0
M  V30 2448 O 220.232 -3.41178 -2.12038 0
M  V30 2449 N 218.438 -2.74151 -0.963823 0
M  V30 2450 H 217.985 -2.57459 -0.0851722 0
M  V30 2451 H 217.943 -2.56781 -1.81414 0
M  V30 2452 N 221.715 -0.905404 -1.28997 0
M  V30 2453 C 223.126 -0.581953 -1.77398 0
M  V30 2454 C 223.477 0.902552 -1.74208 0
M  V30 2455 O 222.602 1.70584 -1.33154 0
M  V30 2456 C 223.197 -1.04961 -3.22131 0
M  V30 2457 C 221.756 -0.777229 -3.68288 0
M  V30 2458 C 220.903 -1.22109 -2.48967 0
M  V30 2459 H 223.854 -1.08754 -1.15578 0
M  V30 2460 H 223.875 -0.387387 -3.78523 0
M  V30 2461 H 223.387 -2.13008 -3.24421 0
M  V30 2462 H 221.488 0.290383 -3.71467 0
M  V30 2463 H 221.601 -1.37911 -4.58822 0
M  V30 2464 H 219.965 -0.639971 -2.46529 0
M  V30 2465 H 220.748 -2.30972 -2.53982 0
M  V30 2466 N 223.193 1.4272 -0.668489 0
M  V30 2467 C 224.609 1.55992 -0.33745 0
M  V30 2468 C 224.809 1.64933 1.15756 0
M  V30 2469 O 223.865 1.61278 1.94282 0
M  V30 2470 C 225.178 2.81314 -1.06222 0
M  V30 2471 C 226.726 2.95078 -1.04394 0
M  V30 2472 C 227.201 4.23252 -1.74991 0
M  V30 2473 N 228.692 4.3015 -1.71829 0
M  V30 2474 C 229.427 5.28127 -2.23315 0
M  V30 2475 N 228.923 6.32293 -2.83156 0
M  V30 2476 N 230.716 5.19882 -2.13726 0
M  V30 2477 H 222.867 1.3516 -1.63846 0
M  V30 2478 H 225.13 0.650174 -0.689912 0
M  V30 2479 H 224.836 2.80823 -2.11734 0
M  V30 2480 H 224.71 3.72012 -0.62344 0
M  V30 2481 H 227.097 2.951 0.0028244 0
M  V30 2482 H 227.178 2.05627 -1.52155 0
M  V30 2483 H 226.822 4.2399 -2.79633 0
M  V30 2484 H 226.752 5.11626 -1.24685 0
M  V30 2485 H 229.243 3.55499 -1.28175 0
M  V30 2486 H 229.556 7.03398 -3.20079 0
M  V30 2487 H 227.901 6.32873 -2.87223 0
M  V30 2488 H 231.092 4.37423 -1.66669 0
M  V30 2489 H 231.265 5.96077 -2.54158 0
M  V30 2490 N 224.671 0.411399 1.52136 0
M  V30 2491 C 225.917 -0.163888 2.02137 0
M  V30 2492 C 226.25 -1.44597 1.29636 0
M  V30 2493 O 225.525 -1.90272 0.403353 0
M  V30 2494 C 225.808 -0.40927 3.57767 0
M  V30 2495 C 225.661 0.889643 4.40914 0
M  V30 2496 C 226.98 -1.19042 4.23694 0
M  V30 2497 H 224.099 -0.0580896 0.734707 0
M  V30 2498 H 226.741 0.54531 1.82007 0
M  V30 2499 H 224.891 -1.0134 3.7505 0
M  V30 2500 H 226.563 1.52575 4.35337 0
M  V30 2501 H 224.806 1.50011 4.07037 0
M  V30 2502 H 225.477 0.672314 5.4789 0
M  V30 2503 H 227.953 -0.678942 4.10524 0
M  V30 2504 H 226.829 -1.33086 5.32522 0
M  V30 2505 H 227.09 -2.21166 3.82803 0
M  V30 2506 N 226.149 -1.5696 0.141893 0
M  V30 2507 C 227.565 -1.58151 -0.21456 0
M  V30 2508 C 227.765 -1.1559 -1.65049 0
M  V30 2509 O 226.821 -0.853832 -2.37626 0
M  V30 2510 C 228.134 -3.00674 0.0395576 0
M  V30 2511 C 229.682 -3.1299 -0.0245529 0
M  V30 2512 C 230.157 -4.57554 0.202167 0
M  V30 2513 N 231.648 -4.62961 0.148919 0
M  V30 2514 C 232.383 -5.7262 0.298924 0
M  V30 2515 N 231.879 -6.90947 0.50637 0
M  V30 2516 N 233.672 -5.61601 0.236886 0
M  V30 2517 H 225.823 -1.8292 1.07953 0
M  V30 2518 H 228.086 -0.846425 0.42693 0
M  V30 2519 H 227.792 -3.36183 1.03315 0
M  V30 2520 H 227.666 -3.70981 -0.682143 0
M  V30 2521 H 230.053 -2.77326 -1.00869 0
M  V30 2522 H 230.134 -2.4518 0.729396 0
M  V30 2523 H 229.778 -4.93922 1.18338 0
M  V30 2524 H 229.708 -5.23484 -0.572044 0
M  V30 2525 H 232.199 -3.77899 -0.00697015 0
M  V30 2526 H 232.512 -7.7038 0.611076 0
M  V30 2527 H 230.857 -6.92878 0.542628 0
M  V30 2528 H 234.048 -4.68039 0.0756209 0
M  V30 2529 H 234.221 -6.47015 0.357227 0
M  V30 2530 N 227.627 0.131896 -1.57047 0
M  V30 2531 C 228.875 0.840269 -1.83804 0
M  V30 2532 C 229.196 1.81017 -0.72512 0
M  V30 2533 O 228.466 1.94272 0.251995 0
M  V30 2534 H 227.046 0.313294 -0.678127 0
M  V30 2535 H 229.708 0.122294 -1.94516 0
M  V30 2536 H 228.804 1.39335 -2.79271 0
M  V30 2537 N 229.106 1.52395 0.401703 0
M  V30 2538 C 230.383 1.57387 1.16141 0
M  V30 2539 C 230.763 0.359359 2.08019 0
M  V30 2540 O 230.111 -0.65326 2.18963 0
M  V30 2541 C 230.321 2.90631 1.93221 0
M  V30 2542 C 231.669 3.43904 2.49028 0
M  V30 2543 O 232.693 2.92421 2.03393 0
M  V30 2544 O 231.552 4.33823 3.32356 0
M  V30 2545 H 228.646 0.634262 0.530698 0
M  V30 2546 H 231.192 1.64725 0.407883 0
M  V30 2547 H 229.964 3.70473 1.25958 0
M  V30 2548 H 229.587 2.8662 2.75563 0
M  V30 2549 N 230.584 -0.659388 1.43143 0
M  V30 2550 C 231.83 -1.42145 1.44647 0
M  V30 2551 C 232.163 -1.9408 0.0681907 0
M  V30 2552 O 231.438 -1.71899 -0.910007 0
M  V30 2553 C 231.721 -2.60735 2.48373 0
M  V30 2554 C 231.574 -2.14332 3.95451 0
M  V30 2555 C 232.893 -3.62951 2.48906 0
M  V30 2556 H 230.012 -0.51552 0.526696 0
M  V30 2557 H 232.654 -0.748069 1.74654 0
M  V30 2558 H 230.804 -3.18184 2.22916 0
M  V30 2559 H 232.476 -1.61932 4.31944 0
M  V30 2560 H 230.719 -1.4576 4.08578 0
M  V30 2561 H 231.39 -2.99583 4.63631 0
M  V30 2562 H 233.866 -3.1525 2.71582 0
M  V30 2563 H 232.742 -4.43487 3.23435 0
M  V30 2564 H 233.003 -4.15126 1.52061 0
M  V30 2565 N 232.062 -1.29571 -0.897171 0
M  V30 2566 C 233.31 -1.17456 -1.64464 0
M  V30 2567 C 233.631 0.273698 -1.9307 0
M  V30 2568 O 232.901 1.18684 -1.55855 0
M  V30 2569 H 231.481 -0.431706 -0.609622 0
M  V30 2570 H 234.143 -1.62531 -1.07562 0
M  V30 2571 H 233.239 -1.72648 -2.59998 0
M  V30 2572 N 233.54 1.10788 -1.12088 0
M  V30 2573 C 234.473 2.16237 -0.729168 0
M  V30 2574 C 235.451 1.60207 0.277921 0
M  V30 2575 O 236.635 1.87707 0.172737 0
M  V30 2576 C 233.762 3.38609 -0.0786848 0
M  V30 2577 C 232.808 4.13322 -1.05201 0
M  V30 2578 S 233.641 4.69371 -2.57781 0
M  V30 2579 C 234.797 5.95058 -1.94053 0
M  V30 2580 H 235.03 2.4913 -1.62239 0
M  V30 2581 H 232.563 1.22519 -0.939603 0
M  V30 2582 H 234.521 4.09473 0.290254 0
M  V30 2583 H 233.182 3.03962 0.791593 0
M  V30 2584 H 232.375 5.01051 -0.544433 0
M  V30 2585 H 231.977 3.48251 -1.36371 0
M  V30 2586 H 234.269 6.65278 -1.28107 0
M  V30 2587 H 235.212 6.50472 -2.79807 0
M  V30 2588 H 235.62 5.46918 -1.39787 0
M  V30 2589 N 235.018 0.912232 1.28515 0
M  V30 2590 C 235.981 0.404223 2.25607 0
M  V30 2591 C 236.981 -0.468602 1.53821 0
M  V30 2592 O 238.171 -0.271873 1.72065 0
M  V30 2593 C 235.303 -0.420653 3.38295 0
M  V30 2594 H 236.496 1.26188 2.7206 0
M  V30 2595 H 234.049 0.691495 1.40171 0
M  V30 2596 H 234.784 -1.29777 2.97201 0
M  V30 2597 H 234.569 0.204935 3.91564 0
M  V30 2598 H 236.059 -0.766971 4.10496 0
M  V30 2599 N 236.496 -1.42363 0.676048 0
M  V30 2600 C 237.744 -2.01123 0.198437 0
M  V30 2601 C 238.065 -1.53731 -1.19966 0
M  V30 2602 O 237.335 -0.759518 -1.80577 0
M  V30 2603 H 235.915 -0.743678 0.0703721 0
M  V30 2604 H 238.577 -1.74263 0.872837 0
M  V30 2605 H 237.673 -3.11454 0.200686 0
M  V30 2606 N 237.974 -0.419461 -1.51915 0
M  V30 2607 C 239.22 0.153166 -2.02221 0
M  V30 2608 C 239.553 1.43907 -1.30401 0
M  V30 2609 O 238.828 1.90055 -0.413438 0
M  V30 2610 C 239.111 0.390291 -3.57979 0
M  V30 2611 C 238.964 -0.913014 -4.40436 0
M  V30 2612 C 240.283 1.16794 -4.2432 0
M  V30 2613 H 237.402 0.0541924 -0.735005 0
M  V30 2614 H 240.044 -0.554955 -1.81715 0
M  V30 2615 H 238.194 0.993491 -3.75582 0
M  V30 2616 H 239.866 -1.54882 -4.34522 0
M  V30 2617 H 238.109 -1.52168 -4.06236 0
M  V30 2618 H 238.78 -0.701361 -5.47526 0
M  V30 2619 H 241.256 0.657161 -4.10878 0
M  V30 2620 H 240.132 1.3026 -5.3322 0
M  V30 2621 H 240.393 2.19132 -3.83971 0
M  V30 2622 N 239.452 1.56882 -0.150215 0
M  V30 2623 C 240.415 2.1573 0.774157 0
M  V30 2624 C 241.415 1.0999 1.17298 0
M  V30 2625 O 242.605 1.35613 1.09338 0
M  V30 2626 C 239.737 2.72302 2.05096 0
M  V30 2627 H 240.93 2.98752 0.262201 0
M  V30 2628 H 238.483 1.55985 0.099248 0
M  V30 2629 H 239.218 1.92956 2.6065 0
M  V30 2630 H 239.003 3.49665 1.77416 0
M  V30 2631 H 240.493 3.17632 2.71109 0
M  V30 2632 N 240.93 -0.123565 1.57115 0
M  V30 2633 C 242.179 -0.830704 1.83799 0
M  V30 2634 C 242.492 -1.81259 0.735158 0
M  V30 2635 O 243.698 -2.56558 0.888278 0
M  V30 2636 C 242.154 -1.52802 3.25852 0
M  V30 2637 C 241.762 -0.587356 4.44133 0
M  V30 2638 C 243.506 -2.22056 3.61789 0
M  V30 2639 C 241.413 -1.28764 5.77212 0
M  V30 2640 H 240.343 -0.313967 0.685522 0
M  V30 2641 H 242.994 -0.0834359 1.8331 0
M  V30 2642 H 241.376 -2.32175 3.20797 0
M  V30 2643 H 242.55 0.172829 4.60476 0
M  V30 2644 H 240.865 -0.00201892 4.164 0
M  V30 2645 H 243.462 -2.75131 4.58483 0
M  V30 2646 H 243.805 -2.99644 2.88997 0
M  V30 2647 H 244.338 -1.49576 3.68608 0
M  V30 2648 H 241.077 -0.55314 6.53162 0
M  V30 2649 H 240.597 -2.01995 5.64764 0
M  V30 2650 H 242.276 -1.8221 6.20813 0
M  V30 2651 N 242.408 -1.52605 -0.393616 0
M  V30 2652 C 243.685 -1.58001 -1.15304 0
M  V30 2653 C 244.065 -0.370385 -2.07825 0
M  V30 2654 O 243.413 0.641638 -2.19306 0
M  V30 2655 C 243.623 -2.91652 -1.91677 0
M  V30 2656 C 244.971 -3.4522 -2.47201 0
M  V30 2657 O 245.995 -2.93495 -2.01839 0
M  V30 2658 O 244.854 -4.35579 -3.3005 0
M  V30 2659 H 241.948 -0.637068 -0.527327 0
M  V30 2660 H 244.494 -1.64939 -0.399141 0
M  V30 2661 H 243.266 -3.71136 -1.23992 0
M  V30 2662 H 242.889 -2.88077 -2.74039 0
M  V30 2663 N 243.887 0.651787 -1.4349 0
M  V30 2664 C 245.115 1.43937 -1.48626 0
M  V30 2665 C 245.53 1.8851 -0.104587 0
M  V30 2666 O 244.887 1.5958 0.885464 0
M  V30 2667 C 244.938 2.6734 -2.43334 0
M  V30 2668 O 244.659 2.24631 -3.76128 0
M  V30 2669 C 246.16 3.60683 -2.57726 0
M  V30 2670 H 243.38 0.44213 -0.504739 0
M  V30 2671 H 245.924 0.798944 -1.88248 0
M  V30 2672 H 244.079 3.2752 -2.06904 0
M  V30 2673 H 244.493 3.04485 -4.2707 0
M  V30 2674 H 245.967 4.43933 -3.28067 0
M  V30 2675 H 246.444 4.08126 -1.62265 0
M  V30 2676 H 247.05 3.06384 -2.94973 0
M  V30 2677 N 245.365 1.30045 0.890287 0
M  V30 2678 C 246.611 1.18737 1.64406 0
M  V30 2679 C 246.944 -0.258525 1.92472 0
M  V30 2680 O 246.219 -1.18562 1.54186 0
M  V30 2681 C 246.502 2.01087 2.98724 0
M  V30 2682 C 246.355 3.53867 2.77665 0
M  V30 2683 C 247.674 1.84457 3.9958 0
M  V30 2684 H 244.793 0.432698 0.596608 0
M  V30 2685 H 247.435 1.5962 1.0306 0
M  V30 2686 H 245.585 1.66349 3.51084 0
M  V30 2687 H 247.257 3.98637 2.32133 0
M  V30 2688 H 245.5 3.78318 2.12269 0
M  V30 2689 H 246.171 4.06772 3.7315 0
M  V30 2690 H 248.647 2.14817 3.56361 0
M  V30 2691 H 247.523 2.44411 4.91482 0
M  V30 2692 H 247.784 0.802276 4.3476 0
M  V30 2693 N 246.843 -1.10192 1.12674 0
M  V30 2694 C 247.753 -2.20172 0.810026 0
M  V30 2695 C 248.769 -1.72821 -0.202188 0
M  V30 2696 O 249.945 -2.01369 -0.0351691 0
M  V30 2697 C 247.01 -3.45631 0.272007 0
M  V30 2698 C 246.071 -4.07704 1.34447 0
M  V30 2699 C 245.304 -5.27175 0.832029 0
M  V30 2700 O 245.527 -5.69425 -0.333284 0
M  V30 2701 O 244.461 -5.80168 1.60277 0
M  V30 2702 H 248.287 -2.49701 1.72867 0
M  V30 2703 H 245.872 -1.18977 0.903597 0
M  V30 2704 H 247.754 -4.21394 -0.0230219 0
M  V30 2705 H 246.429 -3.17723 -0.619164 0
M  V30 2706 H 245.336 -3.33614 1.6927 0
M  V30 2707 H 246.669 -4.3982 2.2095 0
M  V30 2708 N 248.321 -0.919034 -1.28029 0
M  V30 2709 C 249.598 -0.473668 -1.89778 0
M  V30 2710 C 249.978 1.04783 -1.83259 0
M  V30 2711 O 249.326 1.8982 -1.27202 0
M  V30 2712 C 249.536 -1.00998 -3.34066 0
M  V30 2713 C 250.884 -1.06525 -4.1102 0
M  V30 2714 O 251.908 -0.958996 -3.43048 0
M  V30 2715 O 250.767 -1.22776 -5.3253 0
M  V30 2716 H 247.861 -0.15098 -0.813101 0
M  V30 2717 H 250.407 -1.01016 -1.36359 0
M  V30 2718 H 249.179 -2.05392 -3.33061 0
M  V30 2719 H 248.802 -0.454626 -3.94992 0
M  V30 2720 N 249.799 1.42003 -0.683588 0
M  V30 2721 C 251.027 2.05746 -0.218182 0
M  V30 2722 C 251.442 1.51396 1.12804 0
M  V30 2723 O 250.799 0.657303 1.70252 0
M  V30 2724 C 250.85 3.61171 -0.154131 0
M  V30 2725 O 250.571 4.13508 -1.44716 0
M  V30 2726 C 252.072 4.42042 0.333713 0
M  V30 2727 H 249.292 0.662888 -0.10402 0
M  V30 2728 H 251.836 1.81987 -0.9328 0
M  V30 2729 H 249.991 3.84012 0.511231 0
M  V30 2730 H 250.405 5.07453 -1.32632 0
M  V30 2731 H 251.879 5.51028 0.327423 0
M  V30 2732 H 252.356 4.17269 1.37053 0
M  V30 2733 H 252.962 4.24239 -0.300222 0
M  V30 2734 N 251.277 0.427512 1.51691 0
M  V30 2735 C 252.224 -0.388867 2.275 0
M  V30 2736 C 253.194 -1.02532 1.30677 0
M  V30 2737 O 254.379 -1.0461 1.59566 0
M  V30 2738 C 251.519 -1.48954 3.11298 0
M  V30 2739 C 250.632 -0.872194 4.23104 0
M  V30 2740 C 249.767 -1.94709 4.94228 0
M  V30 2741 C 248.806 -1.30766 5.97969 0
M  V30 2742 N 247.943 -2.32349 6.62539 0
M  V30 2743 H 252.783 0.263997 2.96828 0
M  V30 2744 H 250.32 0.142033 1.46413 0
M  V30 2745 H 252.278 -2.13887 3.58201 0
M  V30 2746 H 250.908 -2.11217 2.44105 0
M  V30 2747 H 249.96 -0.111419 3.80237 0
M  V30 2748 H 251.272 -0.365264 4.97461 0
M  V30 2749 H 250.426 -2.67327 5.44629 0
M  V30 2750 H 249.165 -2.48773 4.1948 0
M  V30 2751 H 248.17 -0.566902 5.4687 0
M  V30 2752 H 249.395 -0.774483 6.74669 0
M  V30 2753 H 247.341 -2.85511 5.90609 0
M  V30 2754 H 247.258 -1.8652 7.3263 0
M  V30 2755 H 248.526 -3.04481 7.17574 0
M  V30 2756 N 252.755 -1.56801 0.158532 0
M  V30 2757 C 254.004 -1.95665 -0.489702 0
M  V30 2758 C 254.317 -1.04654 -1.65248 0
M  V30 2759 O 255.523 -1.33146 -2.3661 0
M  V30 2760 C 253.979 -3.47874 -0.922582 0
M  V30 2761 C 253.587 -4.47489 0.213893 0
M  V30 2762 C 255.331 -3.95583 -1.53996 0
M  V30 2763 C 253.238 -5.90921 -0.237903 0
M  V30 2764 H 252.168 -0.730516 -0.186716 0
M  V30 2765 H 254.819 -1.81861 0.244722 0
M  V30 2766 H 253.201 -3.57051 -1.71261 0
M  V30 2767 H 254.375 -4.50017 0.991036 0
M  V30 2768 H 252.69 -4.09764 0.740407 0
M  V30 2769 H 255.287 -5.0019 -1.8898 0
M  V30 2770 H 255.63 -3.37789 -2.43319 0
M  V30 2771 H 256.163 -3.8937 -0.814611 0
M  V30 2772 H 252.902 -6.52559 0.620236 0
M  V30 2773 H 252.422 -5.91729 -0.980676 0
M  V30 2774 H 254.101 -6.43352 -0.686067 0
M  V30 2775 N 254.233 0.115231 -1.57178 0
M  V30 2776 C 255.163 1.1423 -2.03651 0
M  V30 2777 C 256.144 1.42967 -0.921655 0
M  V30 2778 O 257.329 1.53343 -1.19162 0
M  V30 2779 C 254.459 2.4675 -2.44401 0
M  V30 2780 C 253.413 2.32467 -3.59365 0
M  V30 2781 C 252.739 3.69984 -3.86026 0
M  V30 2782 C 254.039 1.78203 -4.90959 0
M  V30 2783 H 255.733 0.755749 -2.89705 0
M  V30 2784 H 253.279 0.362093 -1.39373 0
M  V30 2785 H 255.232 3.18854 -2.75517 0
M  V30 2786 H 253.956 2.87302 -1.55322 0
M  V30 2787 H 252.615 1.62811 -3.28463 0
M  V30 2788 H 252.263 4.08028 -2.94147 0
M  V30 2789 H 251.963 3.61279 -4.63412 0
M  V30 2790 H 253.487 4.43587 -4.19599 0
M  V30 2791 H 254.901 2.40128 -5.20587 0
M  V30 2792 H 253.298 1.8031 -5.72371 0
M  V30 2793 H 254.368 0.739876 -4.79222 0
M  V30 2794 N 255.711 1.52812 0.385517 0
M  V30 2795 C 256.958 1.68026 1.1302 0
M  V30 2796 C 257.286 0.421934 1.89868 0
M  V30 2797 O 256.541 -0.595749 1.86412 0
M  V30 2798 C 256.84 2.86856 2.13187 0
M  V30 2799 C 256.506 4.24159 1.5297 0
M  V30 2800 C 255.168 4.61501 1.36274 0
M  V30 2801 C 257.52 5.09627 1.09223 0
M  V30 2802 C 254.848 5.81966 0.743837 0
M  V30 2803 C 257.2 6.30719 0.487411 0
M  V30 2804 C 255.864 6.6679 0.307777 0
M  V30 2805 H 255.134 0.614849 0.413571 0
M  V30 2806 H 257.781 1.86962 0.414405 0
M  V30 2807 H 256.086 2.6235 2.90998 0
M  V30 2808 H 257.783 2.95821 2.70722 0
M  V30 2809 H 254.373 3.94746 1.66954 0
M  V30 2810 H 258.557 4.81343 1.20922 0
M  V30 2811 H 253.813 6.08519 0.592891 0
M  V30 2812 H 257.987 6.96259 0.140143 0
M  V30 2813 H 255.614 7.60001 -0.173879 0
M  V30 2814 N 257.189 -0.644168 1.43834 0
M  V30 2815 C 258.466 -1.40188 1.36406 0
M  V30 2816 C 258.846 -2.11094 0.0163124 0
M  V30 2817 O 258.194 -2.05426 -1.00062 0
M  V30 2818 C 258.404 -2.3791 2.55343 0
M  V30 2819 C 259.752 -3.01637 2.98832 0
M  V30 2820 O 260.776 -2.48237 2.55455 0
M  V30 2821 O 259.635 -3.98477 3.74003 0
M  V30 2822 H 256.729 -0.626773 0.539523 0
M  V30 2823 H 259.275 -0.670317 1.559 0
M  V30 2824 H 258.047 -1.84525 3.4506 0
M  V30 2825 H 257.67 -3.18503 2.37995 0
M  V30 2826 N 258.668 -1.30515 -0.883378 0
M  V30 2827 C 259.916 -1.19194 -1.63209 0
M  V30 2828 C 260.237 0.253205 -1.93349 0
M  V30 2829 O 259.507 1.17025 -1.57105 0
M  V30 2830 H 258.087 -0.438148 -0.605009 0
M  V30 2831 H 260.749 -1.63663 -1.05832 0
M  V30 2832 H 259.845 -1.75396 -2.58153 0
M  V30 2833 N 260.146 1.09593 -1.13257 0
M  V30 2834 C 261.395 1.81105 -0.887917 0
M  V30 2835 C 261.708 1.86563 0.587672 0
M  V30 2836 O 262.914 2.54367 0.949204 0
M  V30 2837 C 261.37 3.25338 -1.53895 0
M  V30 2838 C 260.978 3.28151 -3.04994 0
M  V30 2839 C 262.722 4.01617 -1.37492 0
M  V30 2840 C 260.629 4.66897 -3.6299 0
M  V30 2841 H 259.559 0.678661 -0.328534 0
M  V30 2842 H 262.21 1.23183 -1.36008 0
M  V30 2843 H 260.592 3.8331 -0.994446 0
M  V30 2844 H 261.766 2.79953 -3.66009 0
M  V30 2845 H 260.081 2.65361 -3.20893 0
M  V30 2846 H 262.678 5.04119 -1.78235 0
M  V30 2847 H 263.021 4.15072 -0.31957 0
M  V30 2848 H 263.554 3.50082 -1.88912 0
M  V30 2849 H 260.293 4.58643 -4.68323 0
M  V30 2850 H 259.813 5.15426 -3.06752 0
M  V30 2851 H 261.492 5.3587 -3.62563 0
M  V30 2852 N 261.624 0.925811 1.2754 0
M  V30 2853 C 263.035 0.610102 1.7645 0
M  V30 2854 C 263.386 -0.874723 1.75622 0
M  V30 2855 O 262.511 -1.68444 1.35851 0
M  V30 2856 C 263.106 1.10073 3.20421 0
M  V30 2857 C 261.665 0.835723 3.67005 0
M  V30 2858 C 260.812 1.26054 2.46993 0
M  V30 2859 H 263.763 1.10579 1.13833 0
M  V30 2860 H 263.784 0.447557 3.77859 0
M  V30 2861 H 263.296 2.18143 3.20991 0
M  V30 2862 H 261.397 -0.231249 3.71882 0
M  V30 2863 H 261.51 1.45193 4.56569 0
M  V30 2864 H 259.874 0.679111 2.45479 0
M  V30 2865 H 260.657 2.34984 2.50275 0
M  V30 2866 N 263.102 -1.41638 0.69111 0
M  V30 2867 C 264.032 -2.3347 0.037248 0
M  V30 2868 C 265.013 -1.51575 -0.771947 0
M  V30 2869 O 266.198 -1.80126 -0.72582 0
M  V30 2870 C 263.328 -3.35354 -0.903064 0
M  V30 2871 C 262.282 -4.27526 -0.201288 0
M  V30 2872 C 261.608 -5.19747 -1.25565 0
M  V30 2873 C 262.908 -5.13959 0.929689 0
M  V30 2874 H 264.602 -2.88397 0.804227 0
M  V30 2875 H 262.148 -1.38669 0.388189 0
M  V30 2876 H 264.101 -3.98519 -1.36969 0
M  V30 2877 H 262.825 -2.78767 -1.70166 0
M  V30 2878 H 261.484 -3.65779 0.245265 0
M  V30 2879 H 261.132 -4.59479 -2.04666 0
M  V30 2880 H 260.832 -5.8225 -0.791128 0
M  V30 2881 H 262.356 -5.85789 -1.72288 0
M  V30 2882 H 263.77 -5.70718 0.543546 0
M  V30 2883 H 262.167 -5.85379 1.32103 0
M  V30 2884 H 263.237 -4.51389 1.77133 0
M  V30 2885 N 264.58 -0.43555 -1.51462 0
M  V30 2886 C 265.49 0.383001 -2.31453 0
M  V30 2887 C 266.506 1.02931 -1.4029 0
M  V30 2888 O 267.682 1.02507 -1.73362 0
M  V30 2889 C 264.747 1.47043 -3.13973 0
M  V30 2890 C 263.808 0.844433 -4.20913 0
M  V30 2891 C 263.041 1.88004 -4.9949 0
M  V30 2892 O 263.264 3.10199 -4.78678 0
M  V30 2893 O 262.198 1.47157 -5.83634 0
M  V30 2894 H 266.024 -0.269964 -3.02498 0
M  V30 2895 H 263.609 -0.19813 -1.4808 0
M  V30 2896 H 265.491 2.10113 -3.65281 0
M  V30 2897 H 264.166 2.10751 -2.45695 0
M  V30 2898 H 263.073 0.175729 -3.73687 0
M  V30 2899 H 264.406 0.250869 -4.9156 0
M  V30 2900 N 266.058 1.56714 -0.166846 0
M  V30 2901 C 267.005 2.17746 0.765193 0
M  V30 2902 C 267.975 1.11614 1.23011 0
M  V30 2903 O 269.16 1.39745 1.29908 0
M  V30 2904 C 266.3 2.81882 1.9909 0
M  V30 2905 C 265.413 4.02462 1.56997 0
M  V30 2906 C 264.548 4.54537 2.749 0
M  V30 2907 C 263.587 5.67538 2.29275 0
M  V30 2908 N 262.724 6.14142 3.40255 0
M  V30 2909 H 267.564 2.97048 0.237952 0
M  V30 2910 H 265.101 1.4672 0.105725 0
M  V30 2911 H 267.059 3.17221 2.70974 0
M  V30 2912 H 265.689 2.05191 2.49192 0
M  V30 2913 H 264.741 3.72973 0.748037 0
M  V30 2914 H 266.053 4.84273 1.19503 0
M  V30 2915 H 265.207 4.92035 3.54946 0
M  V30 2916 H 263.946 3.71774 3.1565 0
M  V30 2917 H 262.951 5.29597 1.47674 0
M  V30 2918 H 264.176 6.52099 1.89588 0
M  V30 2919 H 262.122 5.3431 3.8059 0
M  V30 2920 H 262.039 6.9093 3.06841 0
M  V30 2921 H 263.307 6.56289 4.206 0
M  V30 2922 N 267.536 -0.106894 1.57237 0
M  V30 2923 C 268.469 -1.16125 1.96444 0
M  V30 2924 C 269.447 -1.3947 0.835871 0
M  V30 2925 O 270.631 -1.53425 1.09513 0
M  V30 2926 C 267.758 -2.51277 2.27107 0
M  V30 2927 C 266.804 -2.44285 3.4961 0
M  V30 2928 S 267.637 -1.87077 5.01759 0
M  V30 2929 C 268.793 -3.23877 5.35588 0
M  V30 2930 H 269.026 -0.826971 2.85567 0
M  V30 2931 H 266.559 -0.314124 1.51171 0
M  V30 2932 H 268.517 -3.29035 2.45451 0
M  V30 2933 H 267.178 -2.81879 1.38576 0
M  V30 2934 H 266.371 -3.4387 3.68469 0
M  V30 2935 H 265.973 -1.74652 3.30715 0
M  V30 2936 H 268.265 -4.20122 5.31511 0
M  V30 2937 H 269.208 -3.09833 6.36717 0
M  V30 2938 H 269.616 -3.22864 4.63054 0
M  V30 2939 N 269.014 -1.53014 -0.377408 0
M  V30 2940 C 270.239 -1.72818 -1.14668 0
M  V30 2941 C 270.664 -0.450725 -1.8262 0
M  V30 2942 O 270.022 0.59439 -1.7128 0
M  V30 2943 C 270.07 -2.88627 -2.16164 0
M  V30 2944 O 269.174 -2.56409 -3.22998 0
M  V30 2945 H 268.515 -0.574301 -0.333278 0
M  V30 2946 H 271.045 -1.99853 -0.438152 0
M  V30 2947 H 271.055 -3.14455 -2.59966 0
M  V30 2948 H 269.73 -3.81294 -1.66095 0
M  V30 2949 H 268.307 -2.4136 -2.84253 0
M  V30 2950 N 270.492 0.636531 -1.44174 0
M  V30 2951 C 271.738 1.39826 -1.4689 0
M  V30 2952 C 272.071 1.93947 -0.0990585 0
M  V30 2953 O 271.346 1.73325 0.882544 0
M  V30 2954 C 271.629 2.56751 -2.5249 0
M  V30 2955 C 271.482 2.08014 -3.98811 0
M  V30 2956 C 272.801 3.58946 -2.54649 0
M  V30 2957 H 269.92 0.507075 -0.53483 0
M  V30 2958 H 272.562 0.720188 -1.75822 0
M  V30 2959 H 270.712 3.14597 -2.2795 0
M  V30 2960 H 272.384 1.5504 -4.34466 0
M  V30 2961 H 270.627 1.39242 -4.10846 0
M  V30 2962 H 271.298 2.92169 -4.68339 0
M  V30 2963 H 273.774 3.1089 -2.76563 0
M  V30 2964 H 272.65 4.38286 -3.3045 0
M  V30 2965 H 272.911 4.12655 -1.58646 0
M  V30 2966 N 271.97 1.30982 0.876444 0
M  V30 2967 C 273.195 1.23373 1.66715 0
M  V30 2968 C 273.62 -0.19885 1.87046 0
M  V30 2969 O 272.978 -1.1427 1.40756 0
M  V30 2970 C 273.026 1.97644 3.01611 0
M  V30 2971 O 272.13 1.30935 3.91062 0
M  V30 2972 H 271.471 0.426279 0.509099 0
M  V30 2973 H 274.001 1.72944 1.09323 0
M  V30 2974 H 274.011 2.06992 3.51594 0
M  V30 2975 H 272.686 3.01829 2.86133 0
M  V30 2976 H 271.263 1.29996 3.49507 0
M  V30 2977 N 273.449 -1.08991 1.13837 0
M  V30 2978 C 274.382 -2.15049 0.763477 0
M  V30 2979 C 275.36 -1.60629 -0.252398 0
M  V30 2980 O 276.544 -1.87958 -0.142853 0
M  V30 2981 C 273.671 -3.38441 0.132545 0
M  V30 2982 C 272.717 -4.11596 1.11763 0
M  V30 2983 S 273.55 -4.6521 2.65216 0
M  V30 2984 C 274.706 -5.91896 2.03495 0
M  V30 2985 H 274.939 -2.46518 1.66182 0
M  V30 2986 H 272.472 -1.21008 0.958976 0
M  V30 2987 H 274.43 -4.09883 -0.225074 0
M  V30 2988 H 273.091 -3.05182 -0.743135 0
M  V30 2989 H 272.284 -5.00121 0.624076 0
M  V30 2990 H 271.886 -3.46038 1.41894 0
M  V30 2991 H 274.178 -6.63156 1.38675 0
M  V30 2992 H 275.121 -6.45938 2.9012 0
M  V30 2993 H 275.529 -5.44625 1.48471 0
M  V30 2994 N 274.927 -0.932562 -1.27047 0
M  V30 2995 C 276.155 -0.592031 -1.98249 0
M  V30 2996 C 276.57 0.831062 -1.69525 0
M  V30 2997 O 275.927 1.55299 -0.958561 0
M  V30 2998 C 275.978 -0.814279 -3.5221 0
M  V30 2999 O 275.699 -2.18139 -3.7993 0
M  V30 3000 C 277.2 -0.483121 -4.4066 0
M  V30 3001 H 274.42 -0.223896 -0.632544 0
M  V30 3002 H 276.964 -1.25091 -1.61779 0
M  V30 3003 H 275.119 -0.20213 -3.86872 0
M  V30 3004 H 275.533 -2.235 -4.74498 0
M  V30 3005 H 277.007 -0.689298 -5.47679 0
M  V30 3006 H 277.484 0.581546 -4.35333 0
M  V30 3007 H 278.09 -1.07362 -4.11526 0
M  V30 3008 N 276.405 1.4127 -0.698611 0
M  V30 3009 C 277.338 2.28195 0.0153898 0
M  V30 3010 C 278.316 1.42402 0.784883 0
M  V30 3011 O 279.5 1.71828 0.775067 0
M  V30 3012 C 276.627 3.22685 1.02918 0
M  V30 3013 C 275.673 4.25041 0.352501 0
M  V30 3014 S 276.506 5.27757 -0.907322 0
M  V30 3015 C 277.662 6.25812 0.104796 0
M  V30 3016 H 277.895 2.88403 -0.721858 0
M  V30 3017 H 275.428 1.46452 -0.488996 0
M  V30 3018 H 277.386 3.77655 1.60893 0
M  V30 3019 H 276.047 2.61566 1.73902 0
M  V30 3020 H 275.24 4.91437 1.11828 0
M  V30 3021 H 274.842 3.73682 -0.154254 0
M  V30 3022 H 277.134 6.70705 0.957103 0
M  V30 3023 H 278.077 7.06149 -0.525323 0
M  V30 3024 H 278.485 5.62615 0.460931 0
M  V30 3025 N 277.883 0.443576 1.51229 0
M  V30 3026 C 278.831 -0.37904 2.29491 0
M  V30 3027 C 279.825 -1.0153 1.35603 0
M  V30 3028 O 281.031 -0.94955 1.52917 0
M  V30 3029 H 277.406 -0.141053 0.738653 0
M  V30 3030 H 279.377 0.301799 2.9687 0
M  V30 3031 C 278.126 -1.46426 3.15364 0
M  V30 3032 H 277.449 -0.984037 3.87501 0
M  V30 3033 H 278.889 -2.01297 3.7317 0
M  V30 3034 C 277.348 -2.45099 2.31146 0
M  V30 3035 O 277.878 -3.49773 1.9754 0
M  V30 3036 N 276.084 -2.16139 1.94249 0
M  V30 3037 H 275.631 -1.31044 2.21777 0
M  V30 3038 H 275.589 -2.82398 1.38198 0
M  V30 3039 N 279.361 -1.56624 0.175154 0
M  V30 3040 C 280.609 -1.96609 -0.467885 0
M  V30 3041 C 280.93 -1.06238 -1.63519 0
M  V30 3042 O 280.2 -0.129523 -1.95471 0
M  V30 3043 H 278.78 -0.726008 -0.175845 0
M  V30 3044 H 281.442 -1.93195 0.257234 0
M  V30 3045 H 280.538 -3.00989 -0.825342 0
M  V30 3046 N 280.839 0.0985539 -1.57292 0
M  V30 3047 C 281.802 1.10402 -2.00858 0
M  V30 3048 C 282.802 1.33146 -0.901593 0
M  V30 3049 O 283.992 1.29318 -1.16716 0
M  V30 3050 C 281.124 2.45394 -2.36632 0
M  V30 3051 H 282.317 0.729099 -2.90902 0
M  V30 3052 H 279.87 0.343495 -1.52479 0
M  V30 3053 H 280.605 2.87769 -1.49531 0
M  V30 3054 H 280.39 2.30235 -3.17387 0
M  V30 3055 H 281.88 3.17718 -2.71007 0
M  V30 3056 N 282.317 1.53212 0.369288 0
M  V30 3057 C 283.563 1.69466 1.11397 0
M  V30 3058 C 283.896 0.443257 1.89074 0
M  V30 3059 O 283.171 -0.559386 1.86282 0
M  V30 3060 C 283.454 2.9422 2.07621 0
M  V30 3061 C 283.307 4.29508 1.33577 0
M  V30 3062 C 284.626 3.14565 3.07794 0
M  V30 3063 H 281.745 0.616667 0.403597 0
M  V30 3064 H 284.387 1.85845 0.395179 0
M  V30 3065 H 282.537 2.80387 2.68916 0
M  V30 3066 H 284.209 4.55147 0.750955 0
M  V30 3067 H 282.452 4.29088 0.637618 0
M  V30 3068 H 283.123 5.12926 2.03989 0
M  V30 3069 H 285.599 3.2756 2.56601 0
M  V30 3070 H 284.475 4.03297 3.72348 0
M  V30 3071 H 284.736 2.29675 3.77759 0
M  V30 3072 N 283.795 -0.628877 1.44509 0
M  V30 3073 C 285.044 -1.38437 1.4669 0
M  V30 3074 C 285.357 -1.95322 0.104272 0
M  V30 3075 O 286.563 -2.715 0.00362163 0
M  V30 3076 C 285.019 -2.50659 2.5826 0
M  V30 3077 C 284.627 -2.00277 4.0074 0
M  V30 3078 C 286.371 -3.27844 2.69664 0
M  V30 3079 C 284.278 -3.09854 5.0373 0
M  V30 3080 H 283.208 -0.520245 0.545766 0
M  V30 3081 H 285.859 -0.676313 1.70582 0
M  V30 3082 H 284.241 -3.2405 2.27612 0
M  V30 3083 H 285.415 -1.33736 4.40966 0
M  V30 3084 H 283.73 -1.35901 3.93599 0
M  V30 3085 H 286.327 -4.09534 3.43781 0
M  V30 3086 H 286.67 -3.77471 1.75559 0
M  V30 3087 H 287.203 -2.61543 2.99733 0
M  V30 3088 H 283.942 -2.65168 5.99472 0
M  V30 3089 H 283.462 -3.7503 4.68095 0
M  V30 3090 H 285.141 -3.74592 5.27532 0
M  V30 3091 N 285.273 -1.31445 -0.869486 0
M  V30 3092 C 286.684 -1.19042 -1.43826 0
M  V30 3093 C 287.035 0.202919 -1.95148 0
M  V30 3094 O 286.16 1.10071 -1.86315 0
M  V30 3095 C 286.755 -2.15499 -2.6143 0
M  V30 3096 C 285.314 -2.07028 -3.14351 0
M  V30 3097 C 284.461 -2.04701 -1.87063 0
M  V30 3098 H 287.412 -1.43489 -0.677984 0
M  V30 3099 H 287.433 -1.74488 -3.38134 0
M  V30 3100 H 286.945 -3.16899 -2.24046 0
M  V30 3101 H 285.046 -1.08825 -3.56354 0
M  V30 3102 H 285.159 -2.96157 -3.766 0
M  V30 3103 H 283.523 -1.49724 -2.06046 0
M  V30 3104 H 284.306 -3.07857 -1.51917 0
M  V30 3105 N 286.751 1.08385 -1.14413 0
M  V30 3106 C 287.997 1.81044 -0.913834 0
M  V30 3107 C 288.33 1.86004 0.558209 0
M  V30 3108 O 287.605 1.33606 1.4135 0
M  V30 3109 C 287.888 3.26648 -1.51569 0
M  V30 3110 C 287.741 3.29895 -3.0576 0
M  V30 3111 C 289.06 4.23629 -1.19273 0
M  V30 3112 H 286.179 0.65727 -0.333414 0
M  V30 3113 H 288.821 1.26896 -1.41412 0
M  V30 3114 H 286.971 3.72889 -1.09023 0
M  V30 3115 H 288.643 2.91977 -3.57137 0
M  V30 3116 H 286.886 2.69163 -3.40197 0
M  V30 3117 H 287.557 4.32516 -3.42977 0
M  V30 3118 H 290.033 3.85727 -1.56057 0
M  V30 3119 H 288.909 5.23822 -1.64017 0
M  V30 3120 H 289.17 4.41968 -0.108068 0
M  V30 3121 N 288.23 0.939286 1.26551 0
M  V30 3122 C 289.16 0.465044 2.28822 0
M  V30 3123 C 290.141 -0.480692 1.63167 0
M  V30 3124 O 291.326 -0.382955 1.90387 0
M  V30 3125 C 288.456 -0.27234 3.46231 0
M  V30 3126 C 287.41 0.58666 4.2396 0
M  V30 3127 C 286.736 -0.280573 5.33963 0
M  V30 3128 C 288.036 1.85704 4.88171 0
M  V30 3129 H 289.73 1.31979 2.68741 0
M  V30 3130 H 287.276 0.636061 1.29191 0
M  V30 3131 H 289.229 -0.615133 4.16886 0
M  V30 3132 H 287.953 -1.16121 3.0526 0
M  V30 3133 H 286.612 0.91232 3.55067 0
M  V30 3134 H 286.26 -1.16874 4.89234 0
M  V30 3135 H 285.96 0.29076 5.8688 0
M  V30 3136 H 287.484 -0.618678 6.07458 0
M  V30 3137 H 288.898 1.58161 5.51052 0
M  V30 3138 H 287.295 2.37279 5.51197 0
M  V30 3139 H 288.365 2.56957 4.11219 0
M  V30 3140 N 289.708 -1.40897 0.706093 0
M  V30 3141 C 290.671 -2.29131 0.0562841 0
M  V30 3142 C 291.671 -1.44901 -0.697166 0
M  V30 3143 O 292.861 -1.65926 -0.530484 0
M  V30 3144 C 289.993 -3.27957 -0.93043 0
M  V30 3145 H 291.186 -2.88091 0.833284 0
M  V30 3146 H 288.739 -1.4906 0.470192 0
M  V30 3147 H 289.474 -2.73997 -1.73482 0
M  V30 3148 H 289.259 -3.90124 -0.393166 0
M  V30 3149 H 290.749 -3.94049 -1.38256 0
M  V30 3150 N 291.186 -0.45159 -1.50991 0
M  V30 3151 C 292.134 0.366864 -2.29689 0
M  V30 3152 C 293.128 1.00809 -1.36139 0
M  V30 3153 O 294.334 0.941427 -1.53418 0
M  V30 3154 H 290.709 0.137133 -0.739391 0
M  V30 3155 H 292.68 -0.317538 -2.96706 0
M  V30 3156 C 291.429 1.44751 -3.16137 0
M  V30 3157 H 290.752 0.963473 -3.88017 0
M  V30 3158 H 292.192 1.99315 -3.74232 0
M  V30 3159 C 290.651 2.43869 -2.32442 0
M  V30 3160 O 291.181 3.4872 -1.99392 0
M  V30 3161 N 289.387 2.15105 -1.95392 0
M  V30 3162 H 288.934 1.29866 -2.22469 0
M  V30 3163 H 288.892 2.81661 -1.39693 0
M  V30 3164 N 292.664 1.56529 -0.183458 0
M  V30 3165 C 293.911 1.97244 0.458357 0
M  V30 3166 C 294.239 1.06992 1.62428 0
M  V30 3167 O 293.494 0.106542 1.9541 0
M  V30 3168 C 293.793 3.43939 0.971637 0
M  V30 3169 C 293.459 4.5083 -0.0796784 0
M  V30 3170 C 292.121 4.79786 -0.368584 0
M  V30 3171 C 294.473 5.15138 -0.792638 0
M  V30 3172 C 291.801 5.70345 -1.37563 0
M  V30 3173 C 294.153 6.06784 -1.78875 0
M  V30 3174 C 292.817 6.34102 -2.08497 0
M  V30 3175 H 292.087 0.721768 0.167725 0
M  V30 3176 H 294.734 1.89472 -0.277976 0
M  V30 3177 H 293.039 3.48724 1.78602 0
M  V30 3178 H 294.736 3.72791 1.47744 0
M  V30 3179 H 291.326 4.28317 0.155668 0
M  V30 3180 H 295.51 4.92868 -0.582659 0
M  V30 3181 H 290.766 5.89789 -1.61118 0
M  V30 3182 H 294.94 6.55677 -2.3465 0
M  V30 3183 H 292.567 7.04074 -2.86678 0
M  V30 3184 N 294.142 -0.090211 1.57342 0
M  V30 3185 C 295.391 -0.791531 1.8552 0
M  V30 3186 C 295.704 -1.79659 0.773441 0
M  V30 3187 O 296.91 -2.54616 0.942497 0
M  V30 3188 C 295.366 -1.45856 3.2902 0
M  V30 3189 C 294.974 -0.493017 4.45279 0
M  V30 3190 C 296.718 -2.14332 3.66418 0
M  V30 3191 C 294.625 -1.16491 5.79814 0
M  V30 3192 H 293.555 -0.299356 0.692027 0
M  V30 3193 H 296.206 -0.0445343 1.83446 0
M  V30 3194 H 294.588 -2.25318 3.2565 0
M  V30 3195 H 295.762 0.270464 4.60006 0
M  V30 3196 H 294.077 0.0863061 4.16311 0
M  V30 3197 H 296.674 -2.65344 4.64216 0
M  V30 3198 H 297.017 -2.93447 2.95287 0
M  V30 3199 H 297.55 -1.41724 3.71698 0
M  V30 3200 H 294.289 -0.41447 6.54188 0
M  V30 3201 H 293.809 -1.8997 5.68921 0
M  V30 3202 H 295.488 -1.69001 6.24538 0
M  V30 3203 N 295.62 -1.53406 -0.361157 0
M  V30 3204 C 296.866 -1.70054 -1.10496 0
M  V30 3205 C 297.199 -0.453278 -1.88836 0
M  V30 3206 O 296.474 0.5495 -1.86576 0
M  V30 3207 C 296.757 -2.95317 -2.06058 0
M  V30 3208 C 296.61 -4.3021 -1.31298 0
M  V30 3209 C 297.929 -3.16193 -3.06121 0
M  V30 3210 H 295.048 -0.618799 -0.400321 0
M  V30 3211 H 297.69 -1.86052 -0.385318 0
M  V30 3212 H 295.84 -2.81809 -2.67425 0
M  V30 3213 H 297.512 -4.55538 -0.726807 0
M  V30 3214 H 295.755 -4.29421 -0.614853 0
M  V30 3215 H 296.426 -5.14 -2.01265 0
M  V30 3216 H 298.902 -3.28916 -2.5486 0
M  V30 3217 H 297.778 -4.05266 -3.70204 0
M  V30 3218 H 298.039 -2.31676 -3.76535 0
M  V30 3219 N 297.098 0.621204 -1.44841 0
M  V30 3220 C 298.326 1.40752 -1.51646 0
M  V30 3221 C 298.741 1.88246 -0.144549 0
M  V30 3222 O 298.098 1.61422 0.851416 0
M  V30 3223 C 298.149 2.62119 -2.4895 0
M  V30 3224 O 297.87 2.16602 -3.80808 0
M  V30 3225 C 299.371 3.55135 -2.65319 0
M  V30 3226 H 296.591 0.431325 -0.514004 0
M  V30 3227 H 299.135 0.758835 -1.899 0
M  V30 3228 H 297.29 3.23058 -2.13805 0
M  V30 3229 H 297.704 2.95358 -4.33433 0
M  V30 3230 H 299.178 4.36874 -3.37409 0
M  V30 3231 H 299.655 4.04592 -1.70886 0
M  V30 3232 H 300.261 3.00058 -3.01405 0
M  V30 3233 N 298.576 1.31904 0.862503 0
M  V30 3234 C 299.824 1.21776 1.61292 0
M  V30 3235 C 300.145 -0.222413 1.93727 0
M  V30 3236 O 299.415 -1.1451 1.58947 0
M  V30 3237 H 297.995 0.447717 0.597962 0
M  V30 3238 H 300.657 1.65326 1.03215 0
M  V30 3239 H 299.753 1.7948 2.5533 0
M  V30 3240 N 300.054 -1.07777 1.14986 0
M  V30 3241 C 300.964 -2.18404 0.856546 0
M  V30 3242 C 301.98 -1.73211 -0.165485 0
M  V30 3243 O 303.156 -2.01399 0.00755219 0
M  V30 3244 C 300.221 -3.44977 0.34526 0
M  V30 3245 C 299.282 -4.0476 1.43065 0
M  V30 3246 C 298.515 -5.25291 0.943663 0
M  V30 3247 O 298.738 -5.70004 -0.212426 0
M  V30 3248 O 297.672 -5.76638 1.72547 0
M  V30 3249 H 301.498 -2.45978 1.78125 0
M  V30 3250 H 299.083 -1.17033 0.928631 0
M  V30 3251 H 300.965 -4.21348 0.0663671 0
M  V30 3252 H 299.64 -3.18965 -0.551631 0
M  V30 3253 H 298.547 -3.29949 1.76309 0
M  V30 3254 H 299.88 -4.35035 2.30229 0
M  V30 3255 N 301.532 -0.945985 -1.26051 0
M  V30 3256 C 302.442 -0.465633 -2.29933 0
M  V30 3257 C 303.458 0.462761 -1.67733 0
M  V30 3258 O 304.634 0.341118 -1.9849 0
M  V30 3259 C 301.699 0.256994 -3.45746 0
M  V30 3260 C 300.76 -0.708549 -4.23412 0
M  V30 3261 C 299.993 -0.0203135 -5.33696 0
M  V30 3262 O 300.216 1.19571 -5.57726 0
M  V30 3263 O 299.15 -0.701459 -5.97799 0
M  V30 3264 H 302.976 -1.32866 -2.73094 0
M  V30 3265 H 300.561 -0.712071 -1.31339 0
M  V30 3266 H 302.443 0.663852 -4.16138 0
M  V30 3267 H 301.118 1.09533 -3.04605 0
M  V30 3268 H 300.025 -1.16545 -3.55483 0
M  V30 3269 H 301.358 -1.51465 -4.68315 0
M  V30 3270 N 303.011 1.40521 -0.713556 0
M  V30 3271 C 303.943 2.29191 -0.0203126 0
M  V30 3272 C 304.956 1.45723 0.725864 0
M  V30 3273 O 306.145 1.69033 0.573581 0
M  V30 3274 C 303.245 3.2395 0.995486 0
M  V30 3275 C 302.418 4.36262 0.315256 0
M  V30 3276 C 301.477 5.11474 1.23616 0
M  V30 3277 O 300.503 5.64606 0.721719 0
M  V30 3278 N 301.705 5.20638 2.56743 0
M  V30 3279 H 304.47 2.89327 -0.781652 0
M  V30 3280 H 302.031 1.51869 -0.561022 0
M  V30 3281 H 304.023 3.71137 1.61368 0
M  V30 3282 H 302.593 2.64995 1.6582 0
M  V30 3283 H 301.813 3.91228 -0.483106 0
M  V30 3284 H 303.101 5.08558 -0.157004 0
M  V30 3285 H 302.499 4.7895 3.01037 0
M  V30 3286 H 301.056 5.71339 3.13712 0
M  V30 3287 N 304.489 0.459591 1.5075 0
M  V30 3288 C 305.737 -0.0991532 2.01857 0
M  V30 3289 C 306.058 -1.41247 1.34441 0
M  V30 3290 O 305.328 -1.89775 0.486022 0
M  V30 3291 H 303.908 -0.039633 0.745948 0
M  V30 3292 H 306.57 0.607387 1.85194 0
M  V30 3293 H 305.666 -0.258998 3.11023 0
M  V30 3294 N 305.967 -1.56429 0.191757 0
M  V30 3295 C 307.213 -1.97777 -0.448554 0
M  V30 3296 C 307.546 -1.07847 -1.61501 0
M  V30 3297 O 306.821 -0.129774 -1.94067 0
M  V30 3298 C 307.104 -3.48362 -0.911906 0
M  V30 3299 C 306.957 -4.4907 0.256136 0
M  V30 3300 C 308.276 -4.02561 -1.77857 0
M  V30 3301 H 305.395 -0.719071 -0.161572 0
M  V30 3302 H 308.037 -1.87896 0.282007 0
M  V30 3303 H 306.187 -3.56914 -1.53442 0
M  V30 3304 H 307.859 -4.5256 0.893733 0
M  V30 3305 H 306.102 -4.24181 0.908436 0
M  V30 3306 H 306.773 -5.51889 -0.11053 0
M  V30 3307 H 309.249 -3.96767 -1.25359 0
M  V30 3308 H 308.125 -5.08301 -2.07174 0
M  V30 3309 H 308.386 -3.47616 -2.73158 0
M  V30 3310 N 307.445 0.0818655 -1.57387 0
M  V30 3311 C 308.856 0.634871 -1.75574 0
M  V30 3312 C 309.207 1.78435 -0.815809 0
M  V30 3313 O 308.332 2.164 0.0025366 0
M  V30 3314 C 308.927 1.15845 -3.18379 0
M  V30 3315 C 307.486 1.65741 -3.37945 0
M  V30 3316 C 306.633 0.572549 -2.71325 0
M  V30 3317 H 309.584 -0.144268 -1.58043 0
M  V30 3318 H 309.605 2.02751 -3.21982 0
M  V30 3319 H 309.117 0.321631 -3.86765 0
M  V30 3320 H 307.218 2.51781 -2.74658 0
M  V30 3321 H 307.331 1.74129 -4.46336 0
M  V30 3322 H 305.695 1.01518 -2.33594 0
M  V30 3323 H 306.478 -0.253918 -3.4236 0
M  V30 3324 N 308.923 1.53595 0.353017 0
M  V30 3325 C 309.87 1.80919 1.43308 0
M  V30 3326 C 310.84 0.654288 1.5267 0
M  V30 3327 O 312.025 0.897759 1.6836 0
M  V30 3328 C 309.165 2.01605 2.80089 0
M  V30 3329 C 308.278 3.29321 2.79593 0
M  V30 3330 C 307.413 3.40125 4.0803 0
M  V30 3331 C 306.452 4.61826 4.01725 0
M  V30 3332 N 305.589 4.69716 5.21834 0
M  V30 3333 H 310.429 2.73074 1.19308 0
M  V30 3334 H 307.966 1.35263 0.578131 0
M  V30 3335 H 309.924 2.11586 3.59565 0
M  V30 3336 H 308.554 1.12772 3.0246 0
M  V30 3337 H 307.606 3.28229 1.92276 0
M  V30 3338 H 308.918 4.18884 2.70809 0
M  V30 3339 H 308.072 3.49488 4.95927 0
M  V30 3340 H 306.811 2.48601 4.19582 0
M  V30 3341 H 305.816 4.52552 3.12213 0
M  V30 3342 H 307.041 5.54705 3.91764 0
M  V30 3343 H 304.987 3.81097 5.33948 0
M  V30 3344 H 304.904 5.53202 5.1527 0
M  V30 3345 H 306.172 4.83376 6.11529 0
M  V30 3346 N 310.401 -0.613514 1.45168 0
M  V30 3347 C 311.311 -1.75296 1.55912 0
M  V30 3348 C 312.327 -1.68244 0.443856 0
M  V30 3349 O 313.503 -1.88706 0.70371 0
M  V30 3350 C 310.568 -3.1174 1.5172 0
M  V30 3351 C 309.629 -3.30291 2.74238 0
M  V30 3352 C 308.862 -4.60226 2.70236 0
M  V30 3353 O 309.085 -5.42168 1.77229 0
M  V30 3354 O 308.019 -4.81361 3.61352 0
M  V30 3355 H 311.845 -1.69183 2.52212 0
M  V30 3356 H 309.43 -0.776886 1.27612 0
M  V30 3357 H 311.312 -3.93044 1.51968 0
M  V30 3358 H 309.987 -3.18357 0.585697 0
M  V30 3359 H 308.894 -2.48598 2.79553 0
M  V30 3360 H 310.227 -3.28547 3.66494 0
M  V30 3361 N 311.879 -1.3236 -0.855495 0
M  V30 3362 C 312.826 -1.21225 -1.964 0
M  V30 3363 C 313.796 -0.0946204 -1.6583 0
M  V30 3364 O 314.981 -0.27002 -1.8888 0
M  V30 3365 C 312.121 -0.940419 -3.32039 0
M  V30 3366 C 311.234 -2.14276 -3.75113 0
M  V30 3367 C 310.369 -1.80648 -4.9954 0
M  V30 3368 C 309.408 -2.97208 -5.35102 0
M  V30 3369 N 308.545 -2.63678 -6.50706 0
M  V30 3370 H 313.385 -2.16042 -2.05255 0
M  V30 3371 H 310.922 -1.07451 -1.00463 0
M  V30 3372 H 312.88 -0.763311 -4.10158 0
M  V30 3373 H 311.51 -0.0290413 -3.22787 0
M  V30 3374 H 310.562 -2.43017 -2.92655 0
M  V30 3375 H 311.874 -3.01468 -3.97389 0
M  V30 3376 H 311.028 -1.59484 -5.85363 0
M  V30 3377 H 309.767 -0.906678 -4.79198 0
M  V30 3378 H 308.772 -3.19004 -4.47791 0
M  V30 3379 H 309.997 -3.87918 -5.57401 0
M  V30 3380 H 307.943 -1.76238 -6.31883 0
M  V30 3381 H 307.86 -3.444 -6.72997 0
M  V30 3382 H 309.128 -2.45942 -7.39684 0
M  V30 3383 N 313.357 1.07166 -1.15556 0
M  V30 3384 C 314.287 2.16403 -0.877046 0
M  V30 3385 C 315.268 1.69217 0.173111 0
M  V30 3386 O 316.453 1.94181 0.027084 0
M  V30 3387 C 313.583 3.45349 -0.367632 0
M  V30 3388 C 312.537 4.05995 -1.35468 0
M  V30 3389 C 311.863 5.30045 -0.704038 0
M  V30 3390 C 313.163 4.45804 -2.72132 0
M  V30 3391 H 314.857 2.39959 -1.79053 0
M  V30 3392 H 312.403 1.15325 -0.862331 0
M  V30 3393 H 314.356 4.21095 -0.160317 0
M  V30 3394 H 313.08 3.21385 0.581326 0
M  V30 3395 H 311.739 3.32296 -1.54839 0
M  V30 3396 H 311.387 5.02373 0.251128 0
M  V30 3397 H 311.087 5.71579 -1.36277 0
M  V30 3398 H 312.611 6.08495 -0.50654 0
M  V30 3399 H 314.025 5.12671 -2.56595 0
M  V30 3400 H 312.422 4.98296 -3.34397 0
M  V30 3401 H 313.492 3.57083 -3.28054 0
M  V30 3402 N 314.835 0.952656 1.25548 0
M  V30 3403 C 316.063 0.623496 1.97282 0
M  V30 3404 C 316.478 -0.803987 1.70826 0
M  V30 3405 O 315.835 -1.53755 0.983147 0
M  V30 3406 C 315.886 0.870209 3.5087 0
M  V30 3407 O 315.607 2.24156 3.76412 0
M  V30 3408 C 317.108 0.553164 4.39835 0
M  V30 3409 H 314.328 0.233931 0.628902 0
M  V30 3410 H 316.872 1.27649 1.59768 0
M  V30 3411 H 315.027 0.263652 3.86502 0
M  V30 3412 H 315.441 2.31021 4.70882 0
M  V30 3413 H 316.915 0.776342 5.46513 0
M  V30 3414 H 317.392 -0.512215 4.36203 0
M  V30 3415 H 317.998 1.13896 4.09766 0
M  V30 3416 N 316.313 -1.40141 0.720998 0
M  V30 3417 C 317.561 -2.0039 0.262323 0
M  V30 3418 C 317.882 -1.57469 -1.15015 0
M  V30 3419 O 317.152 -0.816582 -1.78069 0
M  V30 3420 H 315.732 -0.741063 0.093996 0
M  V30 3421 H 318.394 -1.71398 0.927835 0
M  V30 3422 H 317.49 -3.10658 0.299671 0
M  V30 3423 N 317.792 -0.46758 -1.50504 0
M  V30 3424 C 319.02 0.0864133 -2.06719 0
M  V30 3425 C 319.435 1.33819 -1.33184 0
M  V30 3426 O 318.792 1.78061 -0.400083 0
M  V30 3427 C 318.843 0.378079 -3.59517 0
M  V30 3428 O 318.564 -0.824044 -4.3028 0
M  V30 3429 C 320.065 0.979426 -4.32345 0
M  V30 3430 H 317.285 -0.00551697 -0.670977 0
M  V30 3431 H 319.829 -0.655354 -1.93715 0
M  V30 3432 H 317.984 1.06977 -3.72337 0
M  V30 3433 H 318.398 -0.566518 -5.21432 0
M  V30 3434 H 319.872 1.1333 -5.40241 0
M  V30 3435 H 320.349 1.9686 -3.9261 0
M  V30 3436 H 320.955 0.326216 -4.24047 0
M  V30 3437 N 319.27 1.56325 -0.20005 0
M  V30 3438 C 320.519 1.96895 0.437652 0
M  V30 3439 C 320.832 1.08999 1.62415 0
M  V30 3440 O 322.038 1.39372 2.32997 0
M  V30 3441 C 320.494 3.50198 0.830025 0
M  V30 3442 C 320.102 4.46765 -0.332461 0
M  V30 3443 C 321.846 3.99526 1.43453 0
M  V30 3444 C 319.753 5.91344 0.0811468 0
M  V30 3445 H 318.683 0.735209 0.167282 0
M  V30 3446 H 321.334 1.81148 -0.292853 0
M  V30 3447 H 319.716 3.61467 1.61734 0
M  V30 3448 H 320.89 4.47231 -1.11 0
M  V30 3449 H 319.205 4.07657 -0.848789 0
M  V30 3450 H 321.802 5.05025 1.75652 0
M  V30 3451 H 322.145 3.44122 2.34277 0
M  V30 3452 H 322.678 3.91393 0.71109 0
M  V30 3453 H 319.417 6.50685 -0.793033 0
M  V30 3454 H 318.937 5.94121 0.823445 0
M  V30 3455 H 320.616 6.44945 0.515252 0
M  V30 3456 N 320.748 -0.0735177 1.57428 0
M  V30 3457 C 321.68 -1.11423 2.00294 0
M  V30 3458 C 322.693 -1.35084 0.908637 0
M  V30 3459 O 323.882 -1.33355 1.18654 0
M  V30 3460 C 320.982 -2.46548 2.32523 0
M  V30 3461 C 320.155 -2.42867 3.63778 0
M  V30 3462 C 319.214 -3.60087 3.83697 0
M  V30 3463 O 318.24 -3.41595 4.55304 0
M  V30 3464 N 319.442 -4.80372 3.25919 0
M  V30 3465 H 322.207 -0.749206 2.90184 0
M  V30 3466 H 319.768 -0.262195 1.59763 0
M  V30 3467 H 321.76 -3.23607 2.43024 0
M  V30 3468 H 320.33 -2.75059 1.48531 0
M  V30 3469 H 319.55 -1.51206 3.64047 0
M  V30 3470 H 320.838 -2.37506 4.49965 0
M  V30 3471 H 320.236 -4.983 2.67795 0
M  V30 3472 H 318.793 -5.54948 3.41871 0
M  V30 3473 N 322.226 -1.5378 -0.344866 0
M  V30 3474 C 323.174 -1.82373 -1.4437 0
M  V30 3475 C 324.168 -0.694128 -1.54526 0
M  V30 3476 O 325.374 -0.877442 -1.57165 0
M  V30 3477 H 321.749 -0.577765 -0.481344 0
M  V30 3478 H 323.72 -2.74306 -1.17468 0
M  V30 3479 C 322.469 -2.04898 -2.80913 0
M  V30 3480 H 321.792 -2.9127 -2.73865 0
M  V30 3481 H 323.232 -2.28871 -3.56923 0
M  V30 3482 C 321.691 -0.834116 -3.26411 0
M  V30 3483 O 322.221 -0.0328885 -4.01687 0
M  V30 3484 N 320.427 -0.65171 -2.83198 0
M  V30 3485 H 319.974 -1.30489 -2.22104 0
M  V30 3486 H 319.932 0.159686 -3.13994 0
M  V30 3487 N 323.704 0.605807 -1.45491 0
M  V30 3488 C 324.981 1.36522 -1.40075 0
M  V30 3489 C 325.361 2.10976 -0.0722744 0
M  V30 3490 O 324.709 2.08007 0.945808 0
M  V30 3491 C 324.919 2.31056 -2.61561 0
M  V30 3492 C 326.267 2.93608 -3.06724 0
M  V30 3493 O 327.291 2.41376 -2.61946 0
M  V30 3494 O 326.15 3.88421 -3.84437 0
M  V30 3495 H 323.244 0.612248 -0.555951 0
M  V30 3496 H 325.79 0.628747 -1.57623 0
M  V30 3497 H 324.562 1.75311 -3.49831 0
M  V30 3498 H 324.185 3.12081 -2.46356 0
M  V30 3499 N 325.182 1.32811 0.848464 0
M  V30 3500 C 326.431 1.23075 1.59798 0
M  V30 3501 C 326.744 -0.204419 1.94529 0
M  V30 3502 O 327.95 -0.423701 2.68173 0
M  V30 3503 C 326.406 2.15594 2.88179 0
M  V30 3504 C 326.014 3.64228 2.60849 0
M  V30 3505 C 327.758 2.14709 3.66197 0
M  V30 3506 C 325.665 4.48689 3.85269 0
M  V30 3507 H 324.595 0.457091 0.599653 0
M  V30 3508 H 327.246 1.57813 0.936342 0
M  V30 3509 H 325.628 1.73778 3.55833 0
M  V30 3510 H 326.802 4.14424 2.01467 0
M  V30 3511 H 325.117 3.67306 1.96151 0
M  V30 3512 H 327.714 2.75046 4.58534 0
M  V30 3513 H 328.057 1.13966 4.00397 0
M  V30 3514 H 328.59 2.54837 3.05455 0
M  V30 3515 H 325.329 5.5027 3.56207 0
M  V30 3516 H 324.849 4.03241 4.44024 0
M  V30 3517 H 326.528 4.62006 4.52946 0
M  V30 3518 N 326.66 -1.06551 1.16123 0
M  V30 3519 C 327.59 -2.15935 0.88851 0
M  V30 3520 C 328.571 -1.69306 -0.164135 0
M  V30 3521 O 329.756 -1.94193 -0.0167857 0
M  V30 3522 C 326.886 -3.45149 0.385942 0
M  V30 3523 C 325.84 -4.05271 1.3762 0
M  V30 3524 C 325.166 -5.29664 0.732137 0
M  V30 3525 C 326.466 -4.44355 2.74493 0
M  V30 3526 H 328.16 -2.39006 1.80323 0
M  V30 3527 H 325.706 -1.14866 0.868435 0
M  V30 3528 H 327.659 -4.21004 0.182647 0
M  V30 3529 H 326.383 -3.21689 -0.564274 0
M  V30 3530 H 325.042 -3.3147 1.56599 0
M  V30 3531 H 324.69 -5.02499 -0.224483 0
M  V30 3532 H 324.39 -5.70848 1.39307 0
M  V30 3533 H 325.914 -6.08218 0.538802 0
M  V30 3534 H 327.328 -5.11303 2.59311 0
M  V30 3535 H 325.725 -4.96515 3.37035 0
M  V30 3536 H 326.795 -3.55339 3.29943 0
M  V30 3537 N 328.138 -0.959301 -1.25041 0
M  V30 3538 C 329.085 -0.482057 -2.2571 0
M  V30 3539 C 330.055 0.467939 -1.59372 0
M  V30 3540 O 331.24 0.380159 -1.86974 0
M  V30 3541 C 328.38 0.229623 -3.44335 0
M  V30 3542 C 327.493 -0.758156 -4.25295 0
M  V30 3543 C 326.628 -0.0234403 -5.31195 0
M  V30 3544 C 325.667 -1.00184 -6.03846 0
M  V30 3545 N 324.804 -0.29769 -7.01469 0
M  V30 3546 H 329.644 -1.34538 -2.65901 0
M  V30 3547 H 327.181 -0.674592 -1.3072 0
M  V30 3548 H 329.139 0.658856 -4.11965 0
M  V30 3549 H 327.769 1.05696 -3.05005 0
M  V30 3550 H 326.821 -1.30586 -3.57284 0
M  V30 3551 H 328.133 -1.50458 -4.75567 0
M  V30 3552 H 327.287 0.464201 -6.04922 0
M  V30 3553 H 326.026 0.755741 -4.81809 0
M  V30 3554 H 325.031 -1.50044 -5.2893 0
M  V30 3555 H 326.256 -1.78133 -6.55321 0
M  V30 3556 H 324.202 0.462668 -6.54366 0
M  V30 3557 H 324.119 -0.983128 -7.4958 0
M  V30 3558 H 325.387 0.16826 -7.79318 0
M  V30 3559 N 329.616 1.39756 -0.72842 0
M  V30 3560 C 330.526 2.34444 -0.0855374 0
M  V30 3561 C 331.542 1.57976 0.729356 0
M  V30 3562 O 332.718 1.90301 0.659346 0
M  V30 3563 C 329.783 3.36965 0.815798 0
M  V30 3564 C 328.844 4.29299 -0.0105996 0
M  V30 3565 C 328.077 5.26923 0.84781 0
M  V30 3566 O 328.3 5.30859 2.08673 0
M  V30 3567 O 327.234 6.01249 0.279969 0
M  V30 3568 H 331.06 2.91065 -0.866892 0
M  V30 3569 H 328.645 1.4117 -0.48902 0
M  V30 3570 H 330.527 3.99804 1.33171 0
M  V30 3571 H 329.202 2.82739 1.57608 0
M  V30 3572 H 328.109 3.69703 -0.571877 0
M  V30 3573 H 329.442 4.86712 -0.73295 0
M  V30 3574 N 331.094 0.475555 1.50254 0
M  V30 3575 C 332.341 -0.0778919 2.0235 0
M  V30 3576 C 332.669 -1.39319 1.35722 0
M  V30 3577 O 331.924 -1.89888 0.473395 0
M  V30 3578 C 332.223 -0.305114 3.56095 0
M  V30 3579 C 331.889 0.92903 4.41225 0
M  V30 3580 C 330.551 1.26739 4.6421 0
M  V30 3581 C 332.903 1.75054 4.90923 0
M  V30 3582 C 330.231 2.42724 5.34137 0
M  V30 3583 C 332.583 2.9017 5.62125 0
M  V30 3584 C 331.247 3.24416 5.83362 0
M  V30 3585 H 330.517 -0.0285027 0.740452 0
M  V30 3586 H 333.164 0.630543 1.80821 0
M  V30 3587 H 331.469 -1.09584 3.76163 0
M  V30 3588 H 333.166 -0.747377 3.93974 0
M  V30 3589 H 329.756 0.655428 4.23559 0
M  V30 3590 H 333.94 1.50231 4.73016 0
M  V30 3591 H 329.196 2.69525 5.48786 0
M  V30 3592 H 333.37 3.54169 5.99614 0
M  V30 3593 H 330.997 4.14396 6.37323 0
M  V30 3594 N 332.573 -1.56217 0.208337 0
M  V30 3595 C 333.506 -2.15633 -0.746842 0
M  V30 3596 C 334.484 -1.09685 -1.20034 0
M  V30 3597 O 335.668 -1.3787 -1.28547 0
M  V30 3598 C 332.795 -2.72594 -2.01023 0
M  V30 3599 C 331.841 -3.91251 -1.69779 0
M  V30 3600 S 332.674 -5.28962 -0.834209 0
M  V30 3601 C 333.83 -5.89353 -2.10745 0
M  V30 3602 H 334.063 -2.96315 -0.241789 0
M  V30 3603 H 331.596 -1.54398 -0.00682183 0
M  V30 3604 H 333.554 -3.06053 -2.73572 0
M  V30 3605 H 332.215 -1.91929 -2.48641 0
M  V30 3606 H 331.408 -4.29562 -2.63614 0
M  V30 3607 H 331.01 -3.58869 -1.05303 0
M  V30 3608 H 333.302 -6.04522 -3.05875 0
M  V30 3609 H 334.245 -6.85661 -1.76845 0
M  V30 3610 H 334.653 -5.1807 -2.24196 0
M  V30 3611 N 334.051 0.0651679 -1.57465 0
M  V30 3612 C 335.297 0.764193 -1.87851 0
M  V30 3613 C 335.63 1.76889 -0.801495 0
M  V30 3614 O 334.905 1.93594 0.187528 0
M  V30 3615 C 335.188 1.46625 -3.28897 0
M  V30 3616 C 335.041 0.477515 -4.47258 0
M  V30 3617 C 336.36 2.4095 -3.68281 0
M  V30 3618 H 333.479 0.276351 -0.683227 0
M  V30 3619 H 336.121 0.0272868 -1.8998 0
M  V30 3620 H 334.271 2.09438 -3.27212 0
M  V30 3621 H 335.943 -0.145922 -4.61069 0
M  V30 3622 H 334.186 -0.206576 -4.33308 0
M  V30 3623 H 334.857 1.0065 -5.42746 0
M  V30 3624 H 337.333 1.88209 -3.71102 0
M  V30 3625 H 336.209 2.87072 -4.67847 0
M  V30 3626 H 336.47 3.26049 -2.98571 0
M  V30 3627 N 335.529 1.53961 0.336706 0
M  V30 3628 C 336.945 1.44378 0.680241 0
M  V30 3629 C 337.145 0.606034 1.9217 0
M  V30 3630 O 336.201 0.099688 2.52303 0
M  V30 3631 C 337.514 2.87945 0.8665 0
M  V30 3632 C 339.062 2.97763 0.964682 0
M  V30 3633 C 339.537 4.42453 1.18321 0
M  V30 3634 N 341.028 4.46008 1.25025 0
M  V30 3635 C 341.763 5.55102 1.43697 0
M  V30 3636 N 341.259 6.7419 1.59498 0
M  V30 3637 N 343.052 5.42727 1.463 0
M  V30 3638 H 335.203 2.06918 -0.479455 0
M  V30 3639 H 337.466 0.935634 -0.152619 0
M  V30 3640 H 337.172 3.51691 0.0256937 0
M  V30 3641 H 337.046 3.33293 1.76623 0
M  V30 3642 H 339.433 2.34153 1.796 0
M  V30 3643 H 339.514 2.55766 0.041708 0
M  V30 3644 H 339.158 5.06645 0.356788 0
M  V30 3645 H 339.088 4.82048 2.11985 0
M  V30 3646 H 341.579 3.60196 1.14312 0
M  V30 3647 H 341.892 7.53095 1.734 0
M  V30 3648 H 340.237 6.77123 1.56621 0
M  V30 3649 H 343.428 4.48647 1.33543 0
M  V30 3650 H 343.601 6.27806 1.6051 0
M  V30 3651 N 337.007 -0.598083 1.45811 0
M  V30 3652 C 337.955 -1.72932 1.55555 0
M  V30 3653 C 338.949 -1.63984 0.424921 0
M  V30 3654 O 340.155 -1.69663 0.601205 0
M  V30 3655 H 336.53 -0.571489 0.488779 0
M  V30 3656 H 338.501 -1.61842 2.50699 0
M  V30 3657 C 337.25 -3.11318 1.54843 0
M  V30 3658 H 336.573 -3.18867 2.41172 0
M  V30 3659 H 338.013 -3.90274 1.65717 0
M  V30 3660 C 336.472 -3.3578 0.274427 0
M  V30 3661 O 337.002 -3.9654 -0.641778 0
M  V30 3662 N 335.208 -2.90119 0.167139 0
M  V30 3663 H 334.755 -2.40855 0.913596 0
M  V30 3664 H 334.713 -3.0686 -0.684435 0
M  V30 3665 N 338.485 -1.33259 -0.841409 0
M  V30 3666 C 339.713 -1.27605 -1.62864 0
M  V30 3667 C 340.128 0.153507 -1.88175 0
M  V30 3668 O 339.485 1.09485 -1.46011 0
M  V30 3669 C 339.536 -2.04596 -2.98031 0
M  V30 3670 O 339.257 -3.41975 -2.73834 0
M  V30 3671 C 340.758 -2.06122 -3.92465 0
M  V30 3672 H 337.978 -0.439718 -0.506842 0
M  V30 3673 H 340.522 -1.75591 -1.04824 0
M  V30 3674 H 338.677 -1.60299 -3.5268 0
M  V30 3675 H 339.091 -3.81549 -3.59889 0
M  V30 3676 H 340.565 -2.64451 -4.84531 0
M  V30 3677 H 341.042 -1.05083 -4.26444 0
M  V30 3678 H 341.648 -2.50427 -3.43753 0
M  V30 3679 N 339.963 1.05934 -1.16686 0
M  V30 3680 C 341.193 1.82226 -0.973515 0
M  V30 3681 C 341.601 1.8297 0.481532 0
M  V30 3682 O 340.944 1.25009 1.34604 0
M  V30 3683 C 341.006 3.29897 -1.42858 0
M  V30 3684 C 340.67 3.52849 -2.90425 0
M  V30 3685 C 341.667 3.45595 -3.88407 0
M  V30 3686 C 339.352 3.80053 -3.28428 0
M  V30 3687 C 341.346 3.65217 -5.22394 0
M  V30 3688 C 339.033 3.99325 -4.62583 0
M  V30 3689 C 340.031 3.91905 -5.59374 0
M  V30 3690 O 339.719 4.10647 -6.91104 0
M  V30 3691 H 339.451 0.581314 -0.345036 0
M  V30 3692 H 342.005 1.3453 -1.55212 0
M  V30 3693 H 340.235 3.78472 -0.793477 0
M  V30 3694 H 341.924 3.87692 -1.20207 0
M  V30 3695 H 342.69 3.24564 -3.60393 0
M  V30 3696 H 338.569 3.84936 -2.53664 0
M  V30 3697 H 342.113 3.59341 -5.9793 0
M  V30 3698 H 338.01 4.19846 -4.90306 0
M  V30 3699 H 338.778 4.27915 -6.97733 0
M  V30 3700 N 341.441 0.965919 1.2453 0
M  V30 3701 C 342.69 0.622437 1.91856 0
M  V30 3702 C 343.003 -0.846006 1.76358 0
M  V30 3703 O 344.209 -1.29993 2.38357 0
M  V30 3704 C 342.665 1.0626 3.43856 0
M  V30 3705 C 342.273 2.55437 3.68043 0
M  V30 3706 C 344.017 0.792183 4.17043 0
M  V30 3707 C 341.924 2.93196 5.13605 0
M  V30 3708 H 340.854 0.229092 0.718354 0
M  V30 3709 H 343.505 1.17189 1.41206 0
M  V30 3710 H 341.887 0.441476 3.93531 0
M  V30 3711 H 343.061 3.22665 3.28974 0
M  V30 3712 H 341.376 2.8007 3.08139 0
M  V30 3713 H 343.973 1.05031 5.24283 0
M  V30 3714 H 344.316 -0.271584 4.15413 0
M  V30 3715 H 344.849 1.37419 3.73311 0
M  V30 3716 H 341.588 3.98636 5.20355 0
M  V30 3717 H 341.108 2.30651 5.53679 0
M  V30 3718 H 342.787 2.83004 5.81823 0
M  V30 3719 N 342.919 -1.39368 0.735821 0
M  V30 3720 C 344.166 -2.00497 0.284123 0
M  V30 3721 C 344.494 -1.58387 -1.12889 0
M  V30 3722 O 343.749 -0.804359 -1.78406 0
M  V30 3723 C 344.048 -3.5583 0.334651 0
M  V30 3724 C 343.714 -4.17593 1.7008 0
M  V30 3725 C 342.376 -4.34176 2.07472 0
M  V30 3726 C 344.728 -4.51848 2.59775 0
M  V30 3727 C 342.056 -4.82304 3.34065 0
M  V30 3728 C 344.408 -5.01384 3.85741 0
M  V30 3729 C 343.072 -5.16175 4.23225 0
M  V30 3730 H 342.342 -0.73367 0.103968 0
M  V30 3731 H 344.989 -1.66683 0.942825 0
M  V30 3732 H 343.294 -3.89674 -0.407625 0
M  V30 3733 H 344.991 -4.00986 -0.0329927 0
M  V30 3734 H 341.581 -4.05087 1.40008 0
M  V30 3735 H 345.765 -4.38653 2.32157 0
M  V30 3736 H 341.021 -4.91941 3.63049 0
M  V30 3737 H 345.195 -5.26863 4.55399 0
M  V30 3738 H 342.822 -5.5323 5.21384 0
M  V30 3739 N 344.397 -0.483516 -1.5 0
M  V30 3740 C 345.808 -0.0314176 -1.86674 0
M  V30 3741 C 346.159 1.37728 -1.39733 0
M  V30 3742 O 345.284 2.02327 -0.767635 0
M  V30 3743 C 345.879 -0.0502376 -3.38763 0
M  V30 3744 C 344.438 0.346442 -3.74802 0
M  V30 3745 C 343.585 -0.430366 -2.7394 0
M  V30 3746 H 346.536 -0.697182 -1.42566 0
M  V30 3747 H 346.557 0.749116 -3.73053 0
M  V30 3748 H 346.069 -1.07563 -3.72897 0
M  V30 3749 H 344.17 1.37572 -3.46273 0
M  V30 3750 H 344.283 0.0391486 -4.79084 0
M  V30 3751 H 342.647 0.117557 -2.54429 0
M  V30 3752 H 343.43 -1.4555 -3.10918 0
M  V30 3753 N 345.875 1.56104 -0.216619 0
M  V30 3754 C 347.286 1.844 0.292128 0
M  V30 3755 C 347.637 1.13788 1.59833 0
M  V30 3756 O 346.762 0.405888 2.12559 0
M  V30 3757 C 347.357 3.3452 0.53681 0
M  V30 3758 C 345.916 3.63151 0.989876 0
M  V30 3759 C 345.063 2.77255 0.0502302 0
M  V30 3760 H 348.014 1.52481 -0.439926 0
M  V30 3761 H 348.035 3.54459 1.38345 0
M  V30 3762 H 347.547 3.85885 -0.414031 0
M  V30 3763 H 345.648 3.17238 1.95425 0
M  V30 3764 H 345.761 4.71177 0.867698 0
M  V30 3765 H 344.125 2.48555 0.556117 0
M  V30 3766 H 344.908 3.31416 -0.89544 0
M  V30 3767 N 347.353 -0.0568162 1.57498 0
M  V30 3768 C 348.263 -1.08346 2.08083 0
M  V30 3769 C 349.279 -1.41439 1.01346 0
M  V30 3770 O 350.455 -1.51316 1.32912 0
M  V30 3771 C 347.52 -2.37352 2.52715 0
M  V30 3772 C 346.581 -2.11093 3.73816 0
M  V30 3773 C 345.814 -3.33949 4.1631 0
M  V30 3774 O 346.037 -4.43622 3.58547 0
M  V30 3775 O 344.971 -3.21279 5.08983 0
M  V30 3776 H 348.797 -0.683667 2.95905 0
M  V30 3777 H 346.382 -0.271965 1.46904 0
M  V30 3778 H 348.264 -3.13246 2.81877 0
M  V30 3779 H 346.939 -2.76681 1.68016 0
M  V30 3780 H 345.846 -1.32856 3.49714 0
M  V30 3781 H 347.179 -1.76637 4.59413 0
M  V30 3782 N 348.832 -1.54138 -0.328536 0
M  V30 3783 C 350.243 -1.63395 -0.903272 0
M  V30 3784 C 350.594 -0.524828 -1.8905 0
M  V30 3785 O 349.719 0.343068 -2.13663 0
M  V30 3786 C 350.314 -2.9618 -1.64507 0
M  V30 3787 C 348.873 -3.0765 -2.1686 0
M  V30 3788 C 348.02 -2.58933 -0.992416 0
M  V30 3789 H 350.971 -1.58344 -0.106253 0
M  V30 3790 H 350.992 -2.86061 -2.50897 0
M  V30 3791 H 350.504 -3.76884 -0.926302 0
M  V30 3792 H 348.605 -2.31611 -2.91868 0
M  V30 3793 H 348.718 -4.1337 -2.42202 0
M  V30 3794 H 347.082 -2.14706 -1.37016 0
M  V30 3795 H 347.865 -3.42089 -0.288041 0
M  V30 3796 N 350.31 0.590341 -1.46126 0
M  V30 3797 C 351.535 1.37991 -1.54833 0
M  V30 3798 C 351.96 1.87163 -0.187506 0
M  V30 3799 O 351.318 1.61133 0.831008 0
M  V30 3800 C 351.366 2.54867 -2.55098 0
M  V30 3801 O 350.47 3.56061 -2.08073 0
M  V30 3802 H 349.811 0.411265 -0.521303 0
M  V30 3803 H 352.341 0.716819 -1.91632 0
M  V30 3804 H 352.351 3.01886 -2.74461 0
M  V30 3805 H 351.026 2.18429 -3.53923 0
M  V30 3806 H 349.603 3.15574 -1.98664 0
M  V30 3807 N 351.788 1.33704 0.83433 0
M  V30 3808 C 352.721 1.18675 1.94914 0
M  V30 3809 C 353.699 0.0811145 1.62398 0
M  V30 3810 O 354.883 0.244186 1.86912 0
M  V30 3811 C 352.01 0.821231 3.28593 0
M  V30 3812 C 351.056 1.93501 3.80079 0
M  V30 3813 S 351.889 3.54671 4.01209 0
M  V30 3814 C 353.045 3.20136 5.37833 0
M  V30 3815 H 353.278 2.13043 2.07364 0
M  V30 3816 H 350.811 1.18598 0.988624 0
M  V30 3817 H 352.769 0.617123 4.05835 0
M  V30 3818 H 351.43 -0.103927 3.13928 0
M  V30 3819 H 350.623 1.63273 4.76821 0
M  V30 3820 H 350.225 2.09601 3.09747 0
M  V30 3821 H 352.517 2.71242 6.20833 0
M  V30 3822 H 353.46 4.15975 5.73036 0
M  V30 3823 H 353.868 2.56613 5.02802 0
M  V30 3824 N 353.266 -1.05314 1.17247 0
M  V30 3825 C 354.213 -2.13031 0.888058 0
M  V30 3826 C 355.183 -1.65253 -0.167537 0
M  V30 3827 O 356.368 -1.90775 -0.0305974 0
M  V30 3828 C 353.508 -3.42702 0.406147 0
M  V30 3829 C 352.621 -4.04161 1.52572 0
M  V30 3830 C 351.756 -5.21744 0.997808 0
M  V30 3831 C 350.795 -5.75207 2.09291 0
M  V30 3832 N 349.932 -6.84094 1.57986 0
M  V30 3833 H 354.772 -2.36698 1.81048 0
M  V30 3834 H 352.309 -1.16121 0.903013 0
M  V30 3835 H 354.267 -4.17059 0.108305 0
M  V30 3836 H 352.897 -3.19222 -0.479313 0
M  V30 3837 H 351.949 -3.27253 1.93931 0
M  V30 3838 H 353.261 -4.39881 2.35172 0
M  V30 3839 H 352.415 -6.03168 0.653739 0
M  V30 3840 H 351.154 -4.87495 0.141232 0
M  V30 3841 H 350.159 -4.92414 2.44557 0
M  V30 3842 H 351.384 -6.11505 2.95362 0
M  V30 3843 H 349.33 -6.51745 0.74598 0
M  V30 3844 H 349.247 -7.18811 2.34195 0
M  V30 3845 H 350.515 -7.69172 1.26468 0
M  V30 3846 N 354.744 -0.972509 -1.24016 0
M  V30 3847 C 355.993 -0.632603 -1.91523 0
M  V30 3848 C 356.306 0.836641 -1.76804 0
M  V30 3849 O 357.512 1.28728 -2.39043 0
M  V30 3850 C 355.968 -1.08082 -3.43287 0
M  V30 3851 C 355.576 -2.57386 -3.66683 0
M  V30 3852 C 357.32 -0.814288 -4.16617 0
M  V30 3853 C 355.227 -2.95915 -5.12043 0
M  V30 3854 H 354.157 -0.232898 -0.717129 0
M  V30 3855 H 356.808 -1.17936 -1.40582 0
M  V30 3856 H 355.19 -0.462339 -3.93292 0
M  V30 3857 H 356.364 -3.24405 -3.27258 0
M  V30 3858 H 354.679 -2.81701 -3.06649 0
M  V30 3859 H 357.276 -1.0781 -5.23718 0
M  V30 3860 H 357.619 0.24955 -4.15551 0
M  V30 3861 H 358.152 -1.39397 -3.72577 0
M  V30 3862 H 354.891 -4.0139 -5.18234 0
M  V30 3863 H 354.411 -2.33584 -5.52448 0
M  V30 3864 H 356.09 -2.86086 -5.80314 0
M  V30 3865 N 356.222 1.38976 -0.743202 0
M  V30 3866 C 357.471 1.99581 -0.291592 0
M  V30 3867 C 357.784 1.59656 1.13001 0
M  V30 3868 O 358.99 2.13157 1.68156 0
M  V30 3869 C 357.446 3.56813 -0.470391 0
M  V30 3870 C 357.054 4.05695 -1.90041 0
M  V30 3871 C 358.798 4.24423 -0.0809709 0
M  V30 3872 C 356.705 5.5553 -2.02832 0
M  V30 3873 H 355.635 0.746615 -0.105272 0
M  V30 3874 H 358.286 1.58872 -0.918258 0
M  V30 3875 H 356.668 3.95359 0.225299 0
M  V30 3876 H 357.842 3.78464 -2.62872 0
M  V30 3877 H 356.157 3.50775 -2.24379 0
M  V30 3878 H 358.754 5.34474 -0.155445 0
M  V30 3879 H 359.097 4.04962 0.96497 0
M  V30 3880 H 359.63 3.9108 -0.728124 0
M  V30 3881 H 356.369 5.79881 -3.05643 0
M  V30 3882 H 355.889 5.84537 -1.34448 0
M  V30 3883 H 357.568 6.21069 -1.81335 0
M  V30 3884 N 357.7 0.491464 1.49741 0
M  V30 3885 C 358.663 -0.280906 2.27472 0
M  V30 3886 C 359.663 -0.902454 1.33088 0
M  V30 3887 O 360.853 -0.768465 1.56334 0
M  V30 3888 C 357.985 -1.40209 3.10732 0
M  V30 3889 H 359.178 0.401056 2.97206 0
M  V30 3890 H 356.731 0.246131 1.5435 0
M  V30 3891 H 357.466 -2.11849 2.45541 0
M  V30 3892 H 357.251 -0.961969 3.80117 0
M  V30 3893 H 358.741 -1.9464 3.69466 0
M  V30 3894 N 359.178 -1.55987 0.224894 0
M  V30 3895 C 360.455 -1.90232 -0.455083 0
M  V30 3896 C 360.835 -1.14269 -1.77499 0
M  V30 3897 O 360.183 -0.253079 -2.27094 0
M  V30 3898 C 360.393 -3.42993 -0.644758 0
M  V30 3899 C 361.741 -4.13821 -0.950669 0
M  V30 3900 O 362.765 -3.4861 -0.731423 0
M  V30 3901 O 361.624 -5.29128 -1.36695 0
M  V30 3902 H 358.718 -0.79108 -0.241084 0
M  V30 3903 H 361.264 -1.67581 0.267327 0
M  V30 3904 H 360.036 -3.90252 0.28613 0
M  V30 3905 H 359.659 -3.71434 -1.41853 0
M  V30 3906 N 360.656 0.0484629 -1.57525 0
M  V30 3907 C 361.905 0.742065 -1.87553 0
M  V30 3908 C 362.218 1.77545 -0.820802 0
M  V30 3909 O 363.424 2.52027 -1.00967 0
M  V30 3910 C 361.88 1.37081 -3.32771 0
M  V30 3911 C 361.488 0.374786 -4.4643 0
M  V30 3912 C 363.232 2.04542 -3.71972 0
M  V30 3913 C 361.139 1.01077 -5.82698 0
M  V30 3914 H 360.069 0.280903 -0.699721 0
M  V30 3915 H 362.72 -0.00411877 -1.835 0
M  V30 3916 H 361.102 2.16605 -3.31509 0
M  V30 3917 H 362.276 -0.392331 -4.59127 0
M  V30 3918 H 360.591 -0.196653 -4.15935 0
M  V30 3919 H 363.188 2.52943 -4.71088 0
M  V30 3920 H 363.531 2.85515 -3.02964 0
M  V30 3921 H 364.064 1.31819 -3.75325 0
M  V30 3922 H 360.803 0.240878 -6.55057 0
M  V30 3923 H 360.323 1.74819 -5.73758 0
M  V30 3924 H 362.002 1.52383 -6.28799 0
M  V30 3925 N 362.134 1.5431 0.320358 0
M  V30 3926 C 363.381 1.72668 1.05792 0
M  V30 3927 C 363.709 0.502084 1.87908 0
M  V30 3928 O 362.964 -0.516149 1.88771 0
M  V30 3929 C 363.263 2.95639 2.00828 0
M  V30 3930 C 362.929 4.30265 1.34843 0
M  V30 3931 C 361.591 4.66865 1.16578 0
M  V30 3932 C 363.943 5.13801 0.875095 0
M  V30 3933 C 361.271 5.84597 0.496336 0
M  V30 3934 C 363.623 6.32219 0.219463 0
M  V30 3935 C 362.287 6.67495 0.0246915 0
M  V30 3936 H 361.557 0.631837 0.387121 0
M  V30 3937 H 364.204 1.88552 0.334735 0
M  V30 3938 H 362.509 2.74456 2.79609 0
M  V30 3939 H 364.206 3.07038 2.57932 0
M  V30 3940 H 360.796 4.01472 1.50061 0
M  V30 3941 H 364.98 4.86039 1.00398 0
M  V30 3942 H 360.236 6.10486 0.334264 0
M  V30 3943 H 364.41 6.96227 -0.155291 0
M  V30 3944 H 362.037 7.5858 -0.496065 0
M  V30 3945 N 363.613 -0.582584 1.46437 0
M  V30 3946 C 364.523 -1.71949 1.59595 0
M  V30 3947 C 365.539 -1.67264 0.479443 0
M  V30 3948 O 366.715 -1.87171 0.743579 0
M  V30 3949 C 363.78 -3.08452 1.58298 0
M  V30 3950 C 362.841 -3.244 2.81182 0
M  V30 3951 C 362.074 -4.54391 2.79937 0
M  V30 3952 O 362.297 -5.38287 1.8869 0
M  V30 3953 O 361.231 -4.73588 3.71481 0
M  V30 3954 H 365.057 -1.63795 2.55744 0
M  V30 3955 H 362.642 -0.749643 1.29231 0
M  V30 3956 H 364.524 -3.89732 1.60271 0
M  V30 3957 H 363.199 -3.17043 0.653094 0
M  V30 3958 H 362.106 -2.42613 2.84763 0
M  V30 3959 H 363.439 -3.20699 3.7338 0
M  V30 3960 N 365.091 -1.34144 -0.827227 0
M  V30 3961 C 366.321 -1.29138 -1.61267 0
M  V30 3962 C 366.729 0.137597 -1.88699 0
M  V30 3963 O 366.072 1.09379 -1.47587 0
M  V30 3964 C 366.134 -2.0097 -2.9808 0
M  V30 3965 C 365.798 -3.50242 -2.93563 0
M  V30 3966 C 366.795 -4.4523 -2.68452 0
M  V30 3967 C 364.48 -3.92592 -3.13331 0
M  V30 3968 C 366.474 -5.80542 -2.63154 0
M  V30 3969 C 364.161 -5.28005 -3.07658 0
M  V30 3970 C 365.159 -6.21792 -2.82602 0
M  V30 3971 O 364.847 -7.54723 -2.76853 0
M  V30 3972 H 364.579 -0.445851 -0.508127 0
M  V30 3973 H 367.133 -1.77263 -1.03763 0
M  V30 3974 H 365.363 -1.47451 -3.57484 0
M  V30 3975 H 367.052 -1.89309 -3.5905 0
M  V30 3976 H 367.818 -4.13832 -2.52919 0
M  V30 3977 H 363.697 -3.19994 -3.31851 0
M  V30 3978 H 367.241 -6.53717 -2.43516 0
M  V30 3979 H 363.138 -5.59023 -3.22743 0
M  V30 3980 H 363.906 -7.64409 -2.92611 0
M  V30 3981 N 366.569 1.04691 -1.17803 0
M  V30 3982 C 367.797 1.81446 -0.99423 0
M  V30 3983 C 368.212 1.83174 0.457459 0
M  V30 3984 O 367.569 1.26265 1.31771 0
M  V30 3985 C 367.62 3.27334 -1.5341 0
M  V30 3986 O 367.341 3.25798 -2.92895 0
M  V30 3987 C 368.842 4.20759 -1.39559 0
M  V30 3988 H 366.062 0.571599 -0.351447 0
M  V30 3989 H 368.606 1.31982 -1.56208 0
M  V30 3990 H 366.761 3.74052 -1.00815 0
M  V30 3991 H 367.175 4.17144 -3.17949 0
M  V30 3992 H 368.649 5.21084 -1.82141 0
M  V30 3993 H 369.126 4.37856 -0.343394 0
M  V30 3994 H 369.732 3.79901 -1.91195 0
M  V30 3995 N 368.047 0.979072 1.23499 0
M  V30 3996 C 369.01 0.523244 2.23147 0
M  V30 3997 C 370.01 -0.386406 1.56088 0
M  V30 3998 O 371.2 -0.180283 1.73265 0
M  V30 3999 C 368.332 -0.240739 3.40049 0
M  V30 4000 H 369.525 1.40432 2.64989 0
M  V30 4001 H 367.078 0.764824 1.36309 0
M  V30 4002 H 367.813 -1.13841 3.03662 0
M  V30 4003 H 367.598 0.412207 3.89927 0
M  V30 4004 H 369.088 -0.548297 4.13985 0
M  V30 4005 N 369.525 -1.3858 0.750561 0
M  V30 4006 C 370.472 -2.30483 0.120835 0
M  V30 4007 C 371.442 -1.50022 -0.712923 0
M  V30 4008 O 372.627 -1.78662 -0.669676 0
M  V30 4009 C 369.767 -3.36431 -0.768666 0
M  V30 4010 C 368.88 -4.31927 0.0793922 0
M  V30 4011 C 368.015 -5.24944 -0.81283 0
M  V30 4012 C 367.054 -6.12088 0.0390447 0
M  V30 4013 N 366.191 -6.97412 -0.809969 0
M  V30 4014 H 371.031 -2.83761 0.91015 0
M  V30 4015 H 368.568 -1.39707 0.460463 0
M  V30 4016 H 370.526 -3.96462 -1.29898 0
M  V30 4017 H 369.156 -2.8457 -1.5238 0
M  V30 4018 H 368.208 -3.73382 0.727303 0
M  V30 4019 H 369.52 -4.93319 0.737401 0
M  V30 4020 H 368.674 -5.90078 -1.41042 0
M  V30 4021 H 367.413 -4.63911 -1.50458 0
M  V30 4022 H 366.418 -5.45952 0.649328 0
M  V30 4023 H 367.643 -6.75189 0.727809 0
M  V30 4024 H 365.589 -6.38931 -1.48672 0
M  V30 4025 H 365.506 -7.55712 -0.208789 0
M  V30 4026 H 366.774 -7.66959 -1.39263 0
M  V30 4027 N 371.003 -0.499398 -1.49478 0
M  V30 4028 C 371.953 0.299103 -2.2603 0
M  V30 4029 C 372.937 0.936934 -1.30807 0
M  V30 4030 O 374.129 0.844798 -1.55538 0
M  V30 4031 C 371.258 1.36391 -3.15044 0
M  V30 4032 C 370.344 0.732398 -4.17728 0
M  V30 4033 N 370.735 -0.164028 -5.05534 0
M  V30 4034 C 369.033 0.993162 -4.34801 0
M  V30 4035 C 369.734 -0.525345 -5.79323 0
M  V30 4036 N 368.71 0.106348 -5.43496 0
M  V30 4037 H 372.512 -0.391003 -2.91287 0
M  V30 4038 H 370.026 -0.31537 -1.59308 0
M  V30 4039 H 372.023 1.94939 -3.68516 0
M  V30 4040 H 370.683 2.05571 -2.51338 0
M  V30 4041 H 371.694 -0.534736 -5.15132 0
M  V30 4042 H 368.371 1.67783 -3.82302 0
M  V30 4043 H 369.761 -1.25862 -6.60006 0
M  V30 4044 N 372.481 1.55866 -0.233164 0
M  V30 4045 C 373.414 2.16794 0.712442 0
M  V30 4046 C 374.392 1.1158 1.18273 0
M  V30 4047 O 375.576 1.39897 1.26337 0
M  V30 4048 C 372.703 2.75757 1.96661 0
M  V30 4049 C 371.749 3.93902 1.63533 0
M  V30 4050 S 372.582 5.30223 0.74995 0
M  V30 4051 C 373.738 5.92631 2.01343 0
M  V30 4052 H 373.971 2.96662 0.194617 0
M  V30 4053 H 371.504 1.5439 -0.0177425 0
M  V30 4054 H 373.462 3.10367 2.68668 0
M  V30 4055 H 372.123 1.9586 2.45556 0
M  V30 4056 H 371.316 4.33702 2.56747 0
M  V30 4057 H 370.918 3.60499 0.995804 0
M  V30 4058 H 373.21 6.09312 2.96219 0
M  V30 4059 H 374.153 6.88388 1.65915 0
M  V30 4060 H 374.561 5.21571 2.15925 0
M  V30 4061 N 373.959 -0.0401083 1.57549 0
M  V30 4062 C 375.37 -0.588097 1.77196 0
M  V30 4063 C 375.721 -1.76209 0.862832 0
M  V30 4064 O 374.846 -2.16331 0.0548389 0
M  V30 4065 C 375.441 -1.07363 3.21339 0
M  V30 4066 C 374 -1.56723 3.42221 0
M  V30 4067 C 373.147 -0.50041 2.72747 0
M  V30 4068 H 376.098 0.186119 1.57605 0
M  V30 4069 H 376.119 -1.94143 3.27244 0
M  V30 4070 H 375.631 -0.218975 3.87482 0
M  V30 4071 H 373.732 -2.4441 2.81237 0
M  V30 4072 H 373.845 -1.62234 4.50796 0
M  V30 4073 H 372.209 -0.952894 2.36203 0
M  V30 4074 H 372.992 0.344599 3.41566 0
M  V30 4075 N 375.437 -1.54477 -0.31217 0
M  V30 4076 C 376.384 -1.84655 -1.38461 0
M  V30 4077 C 377.354 -0.694536 -1.50882 0
M  V30 4078 O 378.539 -0.942081 -1.6592 0
M  V30 4079 C 375.679 -2.0896 -2.74645 0
M  V30 4080 C 374.792 -3.36618 -2.70763 0
M  V30 4081 C 373.927 -3.50824 -3.98868 0
M  V30 4082 C 372.966 -4.72315 -3.89339 0
M  V30 4083 N 372.103 -4.83387 -5.09197 0
M  V30 4084 H 376.943 -2.76142 -1.12026 0
M  V30 4085 H 374.48 -1.36748 -0.542065 0
M  V30 4086 H 376.438 -2.21045 -3.53829 0
M  V30 4087 H 375.068 -1.20752 -2.99364 0
M  V30 4088 H 374.12 -3.33211 -1.83506 0
M  V30 4089 H 375.432 -4.25917 -2.59608 0
M  V30 4090 H 374.586 -3.62513 -4.86486 0
M  V30 4091 H 373.325 -2.59638 -4.12843 0
M  V30 4092 H 372.33 -4.6067 -3.00105 0
M  V30 4093 H 373.555 -5.64897 -3.76919 0
M  V30 4094 H 371.501 -3.9512 -5.23657 0
M  V30 4095 H 371.418 -5.66669 -5.00422 0
M  V30 4096 H 372.686 -4.9942 -5.98498 0
M  V30 4097 N 376.915 0.57481 -1.46744 0
M  V30 4098 C 378.162 1.33272 -1.52462 0
M  V30 4099 C 378.49 1.93669 -0.179572 0
M  V30 4100 O 377.745 1.7743 0.825664 0
M  V30 4101 C 378.044 2.476 -2.57738 0
M  V30 4102 C 377.71 2.05146 -4.01529 0
M  V30 4103 C 376.372 1.93284 -4.40676 0
M  V30 4104 C 378.724 1.72506 -4.91824 0
M  V30 4105 C 376.052 1.47049 -5.67973 0
M  V30 4106 C 378.404 1.27748 -6.19567 0
M  V30 4107 C 377.068 1.14468 -6.57612 0
M  V30 4108 H 376.338 0.487678 -0.557899 0
M  V30 4109 H 378.985 0.646456 -1.80259 0
M  V30 4110 H 377.29 3.21708 -2.23632 0
M  V30 4111 H 378.987 3.05807 -2.5939 0
M  V30 4112 H 375.577 2.15316 -3.7059 0
M  V30 4113 H 379.761 1.80552 -4.62293 0
M  V30 4114 H 375.017 1.35417 -5.96215 0
M  V30 4115 H 379.191 1.01547 -6.88957 0
M  V30 4116 H 376.818 0.78419 -7.56145 0
M  V30 4117 N 378.394 1.34581 0.820102 0
M  V30 4118 C 379.342 1.26401 1.95258 0
M  V30 4119 C 380.336 0.161553 1.68628 0
M  V30 4120 O 381.542 0.326703 1.7701 0
M  V30 4121 H 377.917 0.392749 0.64129 0
M  V30 4122 H 379.888 2.22105 1.99279 0
M  V30 4123 C 378.637 1.03919 3.31807 0
M  V30 4124 H 377.96 1.87984 3.52848 0
M  V30 4125 H 379.4 1.02232 4.11491 0
M  V30 4126 C 377.859 -0.257433 3.35915 0
M  V30 4127 O 378.389 -1.25784 3.81499 0
M  V30 4128 N 376.595 -0.291524 2.89134 0
M  V30 4129 H 376.142 0.523161 2.52232 0
M  V30 4130 H 376.1 -1.15883 2.92264 0
M  V30 4131 N 379.872 -1.04064 1.18357 0
M  V30 4132 C 381.097 -1.81454 1.00445 0
M  V30 4133 C 381.522 -1.82823 -0.442423 0
M  V30 4134 O 380.88 -1.24555 -1.31741 0
M  V30 4135 C 380.928 -3.24925 1.56384 0
M  V30 4136 O 380.032 -4.04856 0.785209 0
M  V30 4137 H 379.373 -0.560604 0.355835 0
M  V30 4138 H 381.903 -1.31059 1.57114 0
M  V30 4139 H 381.913 -3.75702 1.59097 0
M  V30 4140 H 380.588 -3.23244 2.61699 0
M  V30 4141 H 379.165 -3.63537 0.830399 0
M  V30 4142 N 381.35 -0.985608 -1.22978 0
M  V30 4143 C 382.599 -0.652881 -1.90841 0
M  V30 4144 C 382.912 0.817842 -1.77681 0
M  V30 4145 O 384.118 1.26185 -2.40395 0
M  V30 4146 C 382.574 -1.11717 -3.42122 0
M  V30 4147 C 382.182 -2.6126 -3.63933 0
M  V30 4148 C 383.926 -0.85843 -4.1573 0
M  V30 4149 C 381.833 -3.0133 -5.08876 0
M  V30 4150 H 380.763 -0.240491 -0.714619 0
M  V30 4151 H 383.414 -1.1942 -1.39324 0
M  V30 4152 H 381.796 -0.504027 -3.92779 0
M  V30 4153 H 382.97 -3.27858 -3.23799 0
M  V30 4154 H 381.285 -2.84937 -3.03644 0
M  V30 4155 H 383.882 -1.13359 -5.22546 0
M  V30 4156 H 384.225 0.205461 -4.15793 0
M  V30 4157 H 384.758 -1.43341 -3.71077 0
M  V30 4158 H 381.497 -4.06864 -5.13947 0
M  V30 4159 H 381.017 -2.3943 -5.49939 0
M  V30 4160 H 382.696 -2.92224 -5.77247 0
M  V30 4161 N 382.828 1.3818 -0.7579 0
M  V30 4162 C 384.053 2.04827 -0.325679 0
M  V30 4163 C 384.478 1.56788 1.03919 0
M  V30 4164 O 383.836 0.721811 1.66312 0
M  V30 4165 C 383.884 3.58774 -0.362447 0
M  V30 4166 O 382.988 4.07372 0.642033 0
M  V30 4167 H 382.329 0.64833 -0.143402 0
M  V30 4168 H 384.859 1.7677 -1.03023 0
M  V30 4169 H 384.869 4.07434 -0.214844 0
M  V30 4170 H 383.544 3.93096 -1.35824 0
M  V30 4171 H 382.121 3.70068 0.458688 0
M  V30 4172 N 384.306 0.507319 1.49211 0
M  V30 4173 C 385.555 -0.0368315 2.01666 0
M  V30 4174 C 385.868 -1.37459 1.39156 0
M  V30 4175 O 387.074 -2.00579 1.82976 0
M  V30 4176 C 385.53 -0.116089 3.59713 0
M  V30 4177 C 385.138 1.2154 4.31198 0
M  V30 4178 C 386.882 -0.610268 4.2009 0
M  V30 4179 C 384.789 1.09796 5.81119 0
M  V30 4180 H 383.719 -0.0175376 0.753796 0
M  V30 4181 H 386.37 0.647691 1.71689 0
M  V30 4182 H 384.752 -0.8652 3.86433 0
M  V30 4183 H 385.926 1.9783 4.16173 0
M  V30 4184 H 384.241 1.64352 3.82593 0
M  V30 4185 H 386.838 -0.715742 5.29888 0
M  V30 4186 H 387.181 -1.61064 3.8388 0
M  V30 4187 H 387.714 0.0824916 3.97714 0
M  V30 4188 H 384.453 2.0728 6.21864 0
M  V30 4189 H 383.973 0.376058 5.9862 0
M  V30 4190 H 385.652 0.779281 6.4229 0
M  V30 4191 N 385.784 -1.5574 0.241426 0
M  V30 4192 C 387.009 -2.0366 -0.392111 0
M  V30 4193 C 387.434 -1.11969 -1.51144 0
M  V30 4194 O 386.792 -0.111594 -1.80956 0
M  V30 4195 C 386.84 -3.49638 -0.882371 0
M  V30 4196 O 385.944 -3.6108 -1.99235 0
M  V30 4197 H 385.285 -0.658379 -0.0862122 0
M  V30 4198 H 387.815 -2.01302 0.365881 0
M  V30 4199 H 387.825 -3.90351 -1.18702 0
M  V30 4200 H 386.5 -4.15852 -0.0632361 0
M  V30 4201 H 385.077 -3.32262 -1.69282 0
M  V30 4202 N 387.262 0.0317525 -1.57568 0
M  V30 4203 C 388.51 0.721676 -1.88776 0
M  V30 4204 C 388.831 1.76039 -0.838772 0
M  V30 4205 O 388.101 1.95482 0.127935 0
M  V30 4206 H 386.681 0.269534 -0.696678 0
M  V30 4207 H 389.343 -0.00165879 -1.949 0
M  V30 4208 H 388.439 1.21293 -2.87566 0
M  V30 4209 N 388.74 1.54641 0.303973 0
M  V30 4210 C 389.97 1.77511 1.05705 0
M  V30 4211 C 390.378 0.533228 1.81531 0
M  V30 4212 O 389.721 -0.506423 1.76582 0
M  V30 4213 C 389.783 2.92779 2.08617 0
M  V30 4214 C 389.447 4.30977 1.52013 0
M  V30 4215 C 390.444 5.11115 0.9517 0
M  V30 4216 C 388.129 4.77571 1.55665 0
M  V30 4217 C 390.123 6.35966 0.427327 0
M  V30 4218 C 387.81 6.02384 1.02841 0
M  V30 4219 C 388.808 6.81417 0.464713 0
M  V30 4220 O 388.496 8.03881 -0.0555283 0
M  V30 4221 H 388.228 0.59579 0.319391 0
M  V30 4222 H 390.782 2.02401 0.349712 0
M  V30 4223 H 389.012 2.63506 2.83022 0
M  V30 4224 H 390.701 3.03252 2.69802 0
M  V30 4225 H 391.467 4.76264 0.916407 0
M  V30 4226 H 387.346 4.16085 1.9848 0
M  V30 4227 H 390.89 6.97599 -0.0133062 0
M  V30 4228 H 386.787 6.36723 1.06084 0
M  V30 4229 H 387.555 8.18479 0.0580522 0
M  V30 4230 N 390.218 -0.567019 1.47046 0
M  V30 4231 C 391.168 -1.67018 1.55207 0
M  V30 4232 C 392.152 -1.55543 0.411714 0
M  V30 4233 O 393.344 -1.64192 0.661064 0
M  V30 4234 C 390.473 -3.05801 1.56014 0
M  V30 4235 C 389.559 -3.22515 2.75399 0
M  V30 4236 N 389.95 -3.09329 4.00186 0
M  V30 4237 C 388.248 -3.53493 2.71954 0
M  V30 4238 C 388.949 -3.2847 4.80086 0
M  V30 4239 N 387.925 -3.54352 4.12233 0
M  V30 4240 H 391.727 -1.55377 2.4947 0
M  V30 4241 H 389.241 -0.771503 1.42904 0
M  V30 4242 H 391.238 -3.84996 1.59949 0
M  V30 4243 H 389.898 -3.18561 0.628396 0
M  V30 4244 H 390.909 -2.86863 4.31196 0
M  V30 4245 H 387.586 -3.7284 1.87873 0
M  V30 4246 H 388.976 -3.23326 5.88991 0
M  V30 4247 N 391.696 -1.35014 -0.812953 0
M  V30 4248 C 392.629 -1.21761 -1.93001 0
M  V30 4249 C 393.607 -0.10694 -1.62248 0
M  V30 4250 O 394.791 -0.273891 -1.865 0
M  V30 4251 C 391.918 -0.873404 -3.27245 0
M  V30 4252 C 390.964 -1.99523 -3.76952 0
M  V30 4253 S 391.797 -3.61009 -3.95516 0
M  V30 4254 C 392.953 -3.28651 -5.32672 0
M  V30 4255 H 393.186 -2.16315 -2.03948 0
M  V30 4256 H 390.719 -1.20156 -0.969631 0
M  V30 4257 H 392.677 -0.68161 -4.04802 0
M  V30 4258 H 391.338 0.053971 -3.14054 0
M  V30 4259 H 390.531 -1.70838 -4.74163 0
M  V30 4260 H 390.133 -2.14503 -3.06373 0
M  V30 4261 H 392.425 -2.81085 -6.1644 0
M  V30 4262 H 393.368 -4.25039 -5.66346 0
M  V30 4263 H 393.776 -2.6458 -4.98656 0
M  V30 4264 N 393.175 1.03435 -1.18907 0
M  V30 4265 C 394.107 2.1165 -0.879595 0
M  V30 4266 C 395.12 1.62316 0.125439 0
M  V30 4267 O 396.309 1.78201 -0.103245 0
M  V30 4268 C 393.409 3.37622 -0.294042 0
M  V30 4269 C 392.582 4.16166 -1.34629 0
M  V30 4270 C 391.641 5.20457 -0.775274 0
M  V30 4271 O 390.667 5.50379 -1.4516 0
M  V30 4272 N 391.869 5.78949 0.424126 0
M  V30 4273 H 394.634 2.38791 -1.81105 0
M  V30 4274 H 392.195 1.19681 -1.09032 0
M  V30 4275 H 394.187 4.04572 0.101679 0
M  V30 4276 H 392.757 3.07873 0.541575 0
M  V30 4277 H 391.977 3.44444 -1.91707 0
M  V30 4278 H 393.265 4.65432 -2.05549 0
M  V30 4279 H 392.663 5.56948 0.991209 0
M  V30 4280 H 391.22 6.47334 0.761691 0
M  V30 4281 N 394.653 0.992116 1.22453 0
M  V30 4282 C 395.563 0.55065 2.28046 0
M  V30 4283 C 396.579 -0.400189 1.69335 0
M  V30 4284 O 397.755 -0.267215 1.99619 0
M  V30 4285 C 394.82 -0.128496 3.46462 0
M  V30 4286 C 393.881 0.865208 4.20491 0
M  V30 4287 C 393.114 0.218377 5.33253 0
M  V30 4288 O 393.337 -0.987894 5.6178 0
M  V30 4289 O 392.271 0.922845 5.94783 0
M  V30 4290 H 396.097 1.4291 2.67975 0
M  V30 4291 H 393.682 0.760326 1.28606 0
M  V30 4292 H 395.564 -0.508947 4.18315 0
M  V30 4293 H 394.239 -0.981526 3.0846 0
M  V30 4294 H 393.146 1.29658 3.50913 0
M  V30 4295 H 394.479 1.68741 4.62371 0
M  V30 4296 N 396.131 -1.37776 0.765217 0
M  V30 4297 C 397.094 -2.28686 0.153416 0
M  V30 4298 C 398.094 -1.47727 -0.635081 0
M  V30 4299 O 399.284 -1.68027 -0.459632 0
M  V30 4300 C 396.416 -3.31608 -0.790495 0
M  V30 4301 H 397.609 -2.84297 0.954723 0
M  V30 4302 H 395.162 -1.46932 0.53299 0
M  V30 4303 H 395.897 -2.81109 -1.61705 0
M  V30 4304 H 395.682 -3.9144 -0.227348 0
M  V30 4305 H 397.172 -3.99559 -1.21419 0
M  V30 4306 N 397.609 -0.515225 -1.4894 0
M  V30 4307 C 398.857 0.0241671 -2.02086 0
M  V30 4308 C 399.178 1.3616 -1.3959 0
M  V30 4309 O 398.448 1.87841 -0.556121 0
M  V30 4310 H 397.028 0.0119203 -0.746905 0
M  V30 4311 H 399.69 -0.675702 -1.82812 0
M  V30 4312 H 398.786 0.143385 -3.1177 0
M  V30 4313 N 399.087 1.5561 -0.249682 0
M  V30 4314 C 400.05 2.20217 0.635394 0
M  V30 4315 C 401.05 1.17227 1.10066 0
M  V30 4316 O 402.24 1.42292 1.00492 0
M  V30 4317 C 399.372 2.84794 1.87363 0
M  V30 4318 H 400.565 2.99814 0.0716752 0
M  V30 4319 H 398.118 1.563 -0.000153234 0
M  V30 4320 H 398.853 2.09142 2.47851 0
M  V30 4321 H 398.638 3.60241 1.5482 0
M  V30 4322 H 400.128 3.3423 2.5036 0
M  V30 4323 N 400.565 -0.0233959 1.57583 0
M  V30 4324 C 401.842 -0.748794 1.807 0
M  V30 4325 C 402.222 -1.9327 0.849106 0
M  V30 4326 O 401.57 -2.28247 -0.107468 0
M  V30 4327 C 401.78 -1.17651 3.28571 0
M  V30 4328 C 403.128 -1.59008 3.93702 0
M  V30 4329 O 404.152 -1.27094 3.32755 0
M  V30 4330 O 403.011 -2.18264 5.01022 0
M  V30 4331 H 400.105 -0.362578 0.743281 0
M  V30 4332 H 402.651 0.000261958 1.697 0
M  V30 4333 H 401.423 -0.331603 3.89892 0
M  V30 4334 H 401.046 -1.98541 3.44481 0
M  V30 4335 N 402.043 -1.548 -0.295768 0
M  V30 4336 C 403.006 -1.85363 -1.34808 0
M  V30 4337 C 404.006 -0.726817 -1.43436 0
M  V30 4338 O 405.196 -0.995088 -1.42981 0
M  V30 4339 C 402.328 -2.03859 -2.73229 0
M  V30 4340 H 403.521 -2.7941 -1.08949 0
M  V30 4341 H 401.074 -1.46942 -0.532702 0
M  V30 4342 H 401.809 -1.12117 -3.04303 0
M  V30 4343 H 401.594 -2.8588 -2.68356 0
M  V30 4344 H 403.084 -2.28857 -3.49305 0
M  V30 4345 N 403.521 0.559213 -1.47345 0
M  V30 4346 C 404.77 1.31281 -1.53128 0
M  V30 4347 C 405.083 1.94602 -0.197344 0
M  V30 4348 O 406.289 2.71173 -0.133154 0
M  V30 4349 C 404.745 2.38051 -2.69925 0
M  V30 4350 C 404.353 1.8093 -4.0984 0
M  V30 4351 C 406.097 3.14604 -2.84999 0
M  V30 4352 C 404.004 2.85468 -5.1794 0
M  V30 4353 H 402.934 0.493614 -0.569966 0
M  V30 4354 H 405.585 0.594155 -1.73615 0
M  V30 4355 H 403.967 3.12822 -2.42814 0
M  V30 4356 H 405.141 1.12544 -4.46845 0
M  V30 4357 H 403.456 1.16967 -3.99634 0
M  V30 4358 H 406.053 3.92666 -3.62929 0
M  V30 4359 H 406.396 3.68665 -1.93369 0
M  V30 4360 H 406.929 2.46945 -3.1187 0
M  V30 4361 H 403.668 2.36264 -6.1144 0
M  V30 4362 H 403.188 3.52269 -4.85455 0
M  V30 4363 H 404.867 3.48996 -5.44803 0
M  V30 4364 N 404.999 1.35443 0.805782 0
M  V30 4365 C 405.929 1.31095 1.93226 0
M  V30 4366 C 406.91 0.185244 1.69088 0
M  V30 4367 O 408.095 0.380332 1.90439 0
M  V30 4368 C 405.225 1.08299 3.29983 0
M  V30 4369 C 404.179 2.17519 3.68605 0
M  V30 4370 C 403.505 1.79887 5.03532 0
M  V30 4371 C 404.805 3.5949 3.78898 0
M  V30 4372 H 406.499 2.25352 1.97122 0
M  V30 4373 H 404.045 1.0848 0.946996 0
M  V30 4374 H 405.998 1.03897 4.08391 0
M  V30 4375 H 404.722 0.104885 3.26432 0
M  V30 4376 H 403.381 2.2102 2.92482 0
M  V30 4377 H 403.029 0.80693 4.96485 0
M  V30 4378 H 402.729 2.53001 5.30344 0
M  V30 4379 H 404.253 1.77011 5.84379 0
M  V30 4380 H 405.667 3.58307 4.47536 0
M  V30 4381 H 404.064 4.31371 4.1718 0
M  V30 4382 H 405.134 3.95584 2.80431 0
M  V30 4383 N 406.477 -1.02803 1.19454 0
M  V30 4384 C 407.387 -2.14575 0.948408 0
M  V30 4385 C 408.403 -1.73757 -0.091871 0
M  V30 4386 O 409.579 -2.01185 0.0929654 0
M  V30 4387 C 406.644 -3.43202 0.491265 0
M  V30 4388 C 405.705 -3.98328 1.60103 0
M  V30 4389 C 404.938 -5.20816 1.16561 0
M  V30 4390 O 405.161 -5.70392 0.0295238 0
M  V30 4391 O 404.095 -5.68801 1.96849 0
M  V30 4392 H 407.921 -2.38202 1.88397 0
M  V30 4393 H 405.506 -1.12989 0.977433 0
M  V30 4394 H 407.388 -4.20687 0.245015 0
M  V30 4395 H 406.063 -3.21018 -0.415851 0
M  V30 4396 H 404.97 -3.22174 1.90144 0
M  V30 4397 H 406.303 -4.24879 2.48473 0
M  V30 4398 N 407.956 -0.998596 -1.21925 0
M  V30 4399 C 408.886 -0.573688 -2.26343 0
M  V30 4400 C 409.867 0.402296 -1.65274 0
M  V30 4401 O 411.052 0.291683 -1.91997 0
M  V30 4402 C 408.182 0.106839 -3.47136 0
M  V30 4403 C 407.136 -0.788269 -4.20678 0
M  V30 4404 C 406.462 0.0254927 -5.34694 0
M  V30 4405 C 407.762 -2.08784 -4.78755 0
M  V30 4406 H 409.456 -1.44651 -2.62138 0
M  V30 4407 H 407.002 -0.696975 -1.26009 0
M  V30 4408 H 408.955 0.415531 -4.19346 0
M  V30 4409 H 407.679 1.01424 -3.10452 0
M  V30 4410 H 406.338 -1.08069 -3.50309 0
M  V30 4411 H 405.986 0.933989 -4.94253 0
M  V30 4412 H 405.686 -0.570437 -5.84825 0
M  V30 4413 H 407.21 0.328147 -6.09718 0
M  V30 4414 H 408.624 -1.84272 -5.42878 0
M  V30 4415 H 407.021 -2.63307 -5.39249 0
M  V30 4416 H 408.091 -2.76284 -3.98491 0
M  V30 4417 N 409.434 1.37368 -0.772513 0
M  V30 4418 C 410.397 2.28601 -0.165541 0
M  V30 4419 C 411.397 1.48062 0.627238 0
M  V30 4420 O 412.587 1.68268 0.450715 0
M  V30 4421 C 409.719 3.32023 0.772897 0
M  V30 4422 H 410.912 2.83787 -0.969787 0
M  V30 4423 H 408.465 1.46647 -0.540775 0
M  V30 4424 H 409.2 2.81962 1.60212 0
M  V30 4425 H 408.985 3.91555 0.206585 0
M  V30 4426 H 410.475 4.00197 1.19298 0
M  V30 4427 N 410.912 0.523116 1.48665 0
M  V30 4428 C 412.142 -0.00961724 2.06598 0
M  V30 4429 C 412.55 -1.29333 1.38093 0
M  V30 4430 O 411.893 -1.77846 0.46007 0
M  V30 4431 C 411.955 -0.311135 3.58151 0
M  V30 4432 C 411.619 0.878092 4.48485 0
M  V30 4433 C 412.616 1.77464 4.88674 0
M  V30 4434 C 410.301 1.08315 4.90483 0
M  V30 4435 C 412.295 2.86021 5.69623 0
M  V30 4436 C 409.982 2.17187 5.71203 0
M  V30 4437 C 410.98 3.05873 6.10681 0
M  V30 4438 O 410.668 4.12862 6.89783 0
M  V30 4439 H 410.4 0.0272658 0.67545 0
M  V30 4440 H 412.954 0.726156 1.92136 0
M  V30 4441 H 411.184 -1.10079 3.70701 0
M  V30 4442 H 412.873 -0.785125 3.98234 0
M  V30 4443 H 413.639 1.62813 4.56855 0
M  V30 4444 H 409.518 0.402149 4.59243 0
M  V30 4445 H 413.062 3.55272 6.00356 0
M  V30 4446 H 408.959 2.31824 6.02435 0
M  V30 4447 H 409.727 4.10487 7.08126 0
M  V30 4448 N 412.39 -1.55475 0.257931 0
M  V30 4449 C 413.618 -2.03609 -0.367559 0
M  V30 4450 C 414.033 -1.13687 -1.50734 0
M  V30 4451 O 413.39 -0.153479 -1.81853 0
M  V30 4452 C 413.441 -3.51001 -0.864908 0
M  V30 4453 O 413.162 -4.37499 0.229465 0
M  V30 4454 C 414.663 -4.14946 -1.55997 0
M  V30 4455 H 411.883 -0.665459 -0.0860521 0
M  V30 4456 H 414.427 -2.00843 0.385014 0
M  V30 4457 H 412.582 -3.54266 -1.56762 0
M  V30 4458 H 412.996 -5.24286 -0.14998 0
M  V30 4459 H 414.47 -5.19735 -1.85956 0
M  V30 4460 H 414.947 -3.6209 -2.4857 0
M  V30 4461 H 415.553 -4.15635 -0.901543 0
M  V30 4462 N 413.868 0.0150385 -1.57593 0
M  V30 4463 C 414.798 1.01047 -2.10503 0
M  V30 4464 C 415.779 1.36816 -1.01071 0
M  V30 4465 O 416.964 1.45455 -1.28672 0
M  V30 4466 C 414.094 2.30708 -2.59598 0
M  V30 4467 C 413.048 2.09142 -3.73421 0
M  V30 4468 C 412.374 3.44685 -4.08774 0
M  V30 4469 C 413.674 1.46619 -5.01298 0
M  V30 4470 H 415.368 0.569978 -2.93925 0
M  V30 4471 H 412.914 0.272724 -1.41394 0
M  V30 4472 H 414.867 3.00687 -2.95238 0
M  V30 4473 H 413.591 2.76843 -1.73279 0
M  V30 4474 H 412.25 1.41592 -3.38153 0
M  V30 4475 H 411.898 3.88495 -3.195 0
M  V30 4476 H 411.598 3.31077 -4.8545 0
M  V30 4477 H 413.122 4.16004 -4.4696 0
M  V30 4478 H 414.536 2.06535 -5.34805 0
M  V30 4479 H 412.933 1.43544 -5.82679 0
M  V30 4480 H 414.003 0.433611 -4.82957 0
M  V30 4481 N 415.346 1.54954 0.287554 0
M  V30 4482 C 416.309 1.86076 1.33823 0
M  V30 4483 C 417.309 0.734414 1.43049 0
M  V30 4484 O 418.499 1.00266 1.42452 0
M  V30 4485 C 415.631 2.05305 2.72144 0
M  V30 4486 H 416.824 2.79984 1.07465 0
M  V30 4487 H 414.377 1.47223 0.524902 0
M  V30 4488 H 415.112 1.1373 3.03704 0
M  V30 4489 H 414.897 2.873 2.66836 0
M  V30 4490 H 416.387 2.30706 3.48087 0
M  V30 4491 N 416.824 -0.551391 1.4764 0
M  V30 4492 C 418.101 -1.31229 1.45046 0
M  V30 4493 C 418.481 -2.10563 0.150527 0
M  V30 4494 O 417.829 -2.11374 -0.867956 0
M  V30 4495 C 418.039 -2.21189 2.69956 0
M  V30 4496 C 419.387 -2.82021 3.1741 0
M  V30 4497 O 420.411 -2.31488 2.70724 0
M  V30 4498 O 419.27 -3.73885 3.98588 0
M  V30 4499 H 416.364 -0.591193 0.578291 0
M  V30 4500 H 418.91 -0.569813 1.59847 0
M  V30 4501 H 417.682 -1.62207 3.56096 0
M  V30 4502 H 417.305 -3.02722 2.57769 0
M  V30 4503 N 418.302 -1.35869 -0.798587 0
M  V30 4504 C 419.55 -1.29332 -1.55298 0
M  V30 4505 C 419.871 0.129729 -1.94568 0
M  V30 4506 O 419.141 1.06796 -1.6423 0
M  V30 4507 H 417.721 -0.475737 -0.57592 0
M  V30 4508 H 420.383 -1.70062 -0.952093 0
M  V30 4509 H 419.479 -1.91458 -2.46476 0
M  V30 4510 N 419.78 1.02168 -1.19998 0
M  V30 4511 C 420.71 2.12488 -0.96804 0
M  V30 4512 C 421.691 1.69799 0.101185 0
M  V30 4513 O 422.876 1.94121 -0.0552993 0
M  V30 4514 C 420.006 3.43479 -0.513776 0
M  V30 4515 C 418.96 3.99884 -1.52566 0
M  V30 4516 C 418.286 5.26582 -0.928214 0
M  V30 4517 C 419.586 4.33861 -2.90795 0
M  V30 4518 H 421.28 2.32149 -1.89069 0
M  V30 4519 H 418.826 1.11564 -0.910468 0
M  V30 4520 H 420.779 4.20036 -0.338774 0
M  V30 4521 H 419.503 3.23561 0.444493 0
M  V30 4522 H 418.162 3.25429 -1.68794 0
M  V30 4523 H 417.81 5.02986 0.0378289 0
M  V30 4524 H 417.51 5.65284 -1.60397 0
M  V30 4525 H 419.034 6.05799 -0.764167 0
M  V30 4526 H 420.448 5.01327 -2.78109 0
M  V30 4527 H 418.845 4.83664 -3.55231 0
M  V30 4528 H 419.915 3.42848 -3.42904 0
M  V30 4529 N 421.258 1.00505 1.21394 0
M  V30 4530 C 422.168 0.574806 2.27449 0
M  V30 4531 C 423.184 -0.382206 1.6975 0
M  V30 4532 O 424.36 -0.246027 1.99892 0
M  V30 4533 C 421.425 -0.0917414 3.46579 0
M  V30 4534 C 420.486 0.909758 4.1955 0
M  V30 4535 C 419.719 0.274924 5.32991 0
M  V30 4536 O 419.942 -0.928254 5.62796 0
M  V30 4537 O 418.876 0.985877 5.93771 0
M  V30 4538 H 422.702 1.45744 2.66444 0
M  V30 4539 H 420.287 0.773923 1.27792 0
M  V30 4540 H 422.169 -0.464551 4.18832 0
M  V30 4541 H 420.844 -0.948755 3.09484 0
M  V30 4542 H 419.751 1.33372 3.49518 0
M  V30 4543 H 421.084 1.73636 4.60555 0
M  V30 4544 N 422.737 -1.36956 0.779787 0
M  V30 4545 C 423.967 -2.03459 0.358877 0
M  V30 4546 C 424.375 -1.58939 -1.02641 0
M  V30 4547 O 423.718 -0.769777 -1.66794 0
M  V30 4548 C 423.78 -3.5796 0.332393 0
M  V30 4549 C 423.444 -4.25644 1.66362 0
M  V30 4550 C 424.441 -4.49205 2.61746 0
M  V30 4551 C 422.126 -4.63313 1.94027 0
M  V30 4552 C 424.12 -5.09503 3.82996 0
M  V30 4553 C 421.807 -5.2333 3.15546 0
M  V30 4554 C 422.805 -5.46363 4.0985 0
M  V30 4555 O 422.493 -6.05122 5.29228 0
M  V30 4556 H 422.225 -0.659767 0.147254 0
M  V30 4557 H 424.779 -1.76111 1.05708 0
M  V30 4558 H 423.009 -3.84388 -0.422237 0
M  V30 4559 H 424.698 -4.05852 -0.0625389 0
M  V30 4560 H 425.464 -4.20508 2.41657 0
M  V30 4561 H 421.343 -4.44715 1.21448 0
M  V30 4562 H 424.887 -5.27397 4.56617 0
M  V30 4563 H 420.784 -5.51451 3.35517 0
M  V30 4564 H 421.552 -6.23595 5.30161 0
M  V30 4565 N 424.215 -0.530993 -1.48385 0
M  V30 4566 C 425.44 0.000729535 -2.074 0
M  V30 4567 C 425.865 1.27298 -1.3848 0
M  V30 4568 O 425.223 1.75599 -0.451081 0
M  V30 4569 C 425.271 0.206697 -3.60007 0
M  V30 4570 O 424.375 1.27514 -3.92191 0
M  V30 4571 H 423.716 -0.039583 -0.662819 0
M  V30 4572 H 426.246 -0.739194 -1.9078 0
M  V30 4573 H 426.256 0.42904 -4.05738 0
M  V30 4574 H 424.931 -0.722675 -4.09573 0
M  V30 4575 H 423.508 1.03537 -3.58238 0
M  V30 4576 N 425.693 1.55336 -0.266172 0
M  V30 4577 C 427.109 1.59356 0.0882065 0
M  V30 4578 C 427.309 1.2834 1.55342 0
M  V30 4579 O 426.365 1.03996 2.30089 0
M  V30 4580 C 427.678 2.99409 -0.278364 0
M  V30 4581 C 429.226 3.12196 -0.224243 0
M  V30 4582 C 429.701 4.545 -0.565123 0
M  V30 4583 N 431.192 4.60313 -0.51634 0
M  V30 4584 C 431.927 5.68434 -0.753013 0
M  V30 4585 N 431.423 6.84738 -1.05383 0
M  V30 4586 N 433.216 5.57942 -0.682414 0
M  V30 4587 H 425.367 1.73764 -1.22147 0
M  V30 4588 H 427.63 0.809822 -0.492841 0
M  V30 4589 H 427.336 3.2691 -1.29703 0
M  V30 4590 H 427.21 3.75228 0.385186 0
M  V30 4591 H 429.597 2.84464 0.78512 0
M  V30 4592 H 429.678 2.38609 -0.921922 0
M  V30 4593 H 429.322 4.82956 -1.57213 0
M  V30 4594 H 429.252 5.26374 0.154248 0
M  V30 4595 H 431.743 3.7676 -0.29335 0
M  V30 4596 H 432.056 7.63088 -1.22133 0
M  V30 4597 H 430.401 6.86375 -1.09151 0
M  V30 4598 H 433.592 4.65958 -0.44731 0
M  V30 4599 H 433.765 6.4213 -0.870248 0
M  V30 4600 N 427.171 -0.0066808 1.57599 0
M  V30 4601 C 428.399 -0.704087 1.94551 0
M  V30 4602 C 428.814 -1.67677 0.867746 0
M  V30 4603 O 428.171 -1.8185 -0.153925 0
M  V30 4604 C 428.222 -1.44177 3.31505 0
M  V30 4605 O 427.943 -0.508097 4.35144 0
M  V30 4606 C 429.444 -2.23429 3.82876 0
M  V30 4607 H 426.664 -0.196523 0.641576 0
M  V30 4608 H 429.208 0.042453 2.04456 0
M  V30 4609 H 427.363 -2.13999 3.22929 0
M  V30 4610 H 427.777 -1.02782 5.14331 0
M  V30 4611 H 429.251 -2.70552 4.8115 0
M  V30 4612 H 429.728 -3.05818 3.15233 0
M  V30 4613 H 430.334 -1.58636 3.94607 0
M  V30 4614 N 428.649 -1.55105 -0.279332 0
M  V30 4615 C 429.897 -1.75066 -1.00977 0
M  V30 4616 C 430.218 -0.551276 -1.87045 0
M  V30 4617 O 429.488 0.433984 -1.91032 0
M  V30 4618 H 428.068 -0.645578 -0.375816 0
M  V30 4619 H 430.73 -1.92497 -0.305089 0
M  V30 4620 H 429.826 -2.64894 -1.65038 0
M  V30 4621 N 430.127 0.543554 -1.4793 0
M  V30 4622 C 431.057 1.65888 -1.64327 0
M  V30 4623 C 432.038 1.62818 -0.492383 0
M  V30 4624 O 433.223 1.80226 -0.723338 0
M  V30 4625 C 430.353 3.04506 -1.67013 0
M  V30 4626 C 429.307 3.2243 -2.81466 0
M  V30 4627 C 428.633 4.61972 -2.69233 0
M  V30 4628 C 429.933 3.06496 -4.22915 0
M  V30 4629 H 431.627 1.52421 -2.57698 0
M  V30 4630 H 429.173 0.731849 -1.24016 0
M  V30 4631 H 431.126 3.82391 -1.77074 0
M  V30 4632 H 429.85 3.18964 -0.70212 0
M  V30 4633 H 428.509 2.46957 -2.70938 0
M  V30 4634 H 428.157 4.73247 -1.7043 0
M  V30 4635 H 427.857 4.74911 -3.46025 0
M  V30 4636 H 429.381 5.41974 -2.81242 0
M  V30 4637 H 430.795 3.74186 -4.34348 0
M  V30 4638 H 429.192 3.30938 -5.006 0
M  V30 4639 H 430.262 2.03077 -4.40327 0
M  V30 4640 N 431.605 1.3629 0.791371 0
M  V30 4641 C 432.537 1.26321 1.91248 0
M  V30 4642 C 433.55 0.18313 1.61767 0
M  V30 4643 O 434.739 0.437682 1.73051 0
M  V30 4644 C 431.839 0.925901 3.26007 0
M  V30 4645 C 431.012 2.10746 3.83281 0
M  V30 4646 C 430.071 1.74352 4.96475 0
M  V30 4647 O 429.097 2.46416 5.13096 0
M  V30 4648 N 430.299 0.676058 5.7655 0
M  V30 4649 H 433.064 2.22915 2.00323 0
M  V30 4650 H 430.625 1.29659 0.969546 0
M  V30 4651 H 432.617 0.663636 3.99222 0
M  V30 4652 H 431.187 0.0491581 3.12561 0
M  V30 4653 H 430.407 2.53264 3.02077 0
M  V30 4654 H 431.695 2.8969 4.18279 0
M  V30 4655 H 431.093 0.0776467 5.65647 0
M  V30 4656 H 429.65 0.473612 6.50077 0
M  V30 4657 N 433.083 -1.0153 1.20538 0
M  V30 4658 C 434.046 -2.0826 0.957098 0
M  V30 4659 C 435.046 -1.60657 -0.0678655 0
M  V30 4660 O 436.236 -1.73385 0.168332 0
M  V30 4661 C 433.368 -3.38033 0.441188 0
M  V30 4662 H 434.561 -2.31719 1.90384 0
M  V30 4663 H 432.114 -1.1835 1.02093 0
M  V30 4664 H 432.849 -3.20249 -0.510961 0
M  V30 4665 H 432.634 -3.73911 1.18038 0
M  V30 4666 H 434.124 -4.16613 0.287009 0
M  V30 4667 N 434.561 -1.01147 -1.20859 0
M  V30 4668 C 435.809 -0.696486 -1.89719 0
M  V30 4669 C 436.13 0.775788 -1.78904 0
M  V30 4670 O 435.4 1.55759 -1.18811 0
M  V30 4671 H 433.98 -0.254628 -0.702263 0
M  V30 4672 H 436.642 -1.28197 -1.46804 0
M  V30 4673 H 435.738 -0.975357 -2.96468 0
M  V30 4674 N 436.039 1.36541 -0.78704 0
M  V30 4675 C 436.969 2.32659 -0.197992 0
M  V30 4676 C 437.95 1.56533 0.665697 0
M  V30 4677 O 439.135 1.84698 0.60001 0
M  V30 4678 C 436.265 3.40778 0.669901 0
M  V30 4679 C 435.219 4.27897 -0.0937039 0
M  V30 4680 C 434.545 5.27163 0.894629 0
M  V30 4681 C 435.845 5.06334 -1.28154 0
M  V30 4682 H 437.539 2.82171 -1.00099 0
M  V30 4683 H 435.085 1.35665 -0.482793 0
M  V30 4684 H 437.038 4.07008 1.09191 0
M  V30 4685 H 435.762 2.89827 1.50558 0
M  V30 4686 H 434.421 3.6322 -0.49666 0
M  V30 4687 H 434.069 4.72486 1.72527 0
M  V30 4688 H 433.769 5.86317 0.388149 0
M  V30 4689 H 435.293 5.96266 1.31525 0
M  V30 4690 H 436.707 5.65617 -0.93541 0
M  V30 4691 H 435.104 5.74888 -1.72115 0
M  V30 4692 H 436.174 4.38114 -2.07807 0
M  V30 4693 N 437.518 0.538854 1.48102 0
M  V30 4694 C 438.746 0.0123136 2.06896 0
M  V30 4695 C 439.161 -1.27312 1.39417 0
M  V30 4696 O 438.518 -1.75949 0.484582 0
M  V30 4697 C 438.569 -0.206118 3.60912 0
M  V30 4698 O 438.29 1.0284 4.25859 0
M  V30 4699 C 439.791 -0.772033 4.36526 0
M  V30 4700 H 437.011 0.0375239 0.66995 0
M  V30 4701 H 439.555 0.747032 1.90367 0
M  V30 4702 H 437.71 -0.89091 3.77017 0
M  V30 4703 H 438.124 0.814654 5.18135 0
M  V30 4704 H 439.598 -0.874251 5.45033 0
M  V30 4705 H 440.075 -1.77904 4.01555 0
M  V30 4706 H 440.681 -0.123526 4.25121 0
M  V30 4707 N 438.996 -1.55193 0.274407 0
M  V30 4708 C 440.245 -1.98758 -0.343213 0
M  V30 4709 C 440.558 -1.16624 -1.5703 0
M  V30 4710 O 441.764 -1.5033 -2.26082 0
M  V30 4711 C 440.22 -3.53759 -0.661996 0
M  V30 4712 C 439.828 -4.4467 0.54524 0
M  V30 4713 C 441.572 -4.05916 -1.24228 0
M  V30 4714 C 439.479 -5.91058 0.201084 0
M  V30 4715 H 438.409 -0.742353 -0.132014 0
M  V30 4716 H 441.06 -1.79545 0.378948 0
M  V30 4717 H 439.442 -3.68772 -1.44304 0
M  V30 4718 H 440.616 -4.41426 1.32212 0
M  V30 4719 H 438.931 -4.03143 1.04232 0
M  V30 4720 H 441.528 -5.12831 -1.51357 0
M  V30 4721 H 441.871 -3.54908 -2.17592 0
M  V30 4722 H 442.404 -3.9434 -0.523542 0
M  V30 4723 H 439.143 -6.46161 1.10258 0
M  V30 4724 H 438.663 -5.97373 -0.539045 0
M  V30 4725 H 440.342 -6.46669 -0.206954 0
M  V30 4726 N 440.474 -0.00167713 -1.576 0
M  V30 4727 C 441.751 0.719951 -1.81868 0
M  V30 4728 C 442.131 1.91895 -0.879747 0
M  V30 4729 O 441.479 2.28389 0.0711423 0
M  V30 4730 C 441.689 1.12409 -3.30402 0
M  V30 4731 C 443.037 1.52724 -3.96182 0
M  V30 4732 O 444.061 1.21784 -3.34734 0
M  V30 4733 O 442.92 2.10265 -5.04431 0
M  V30 4734 H 440.014 0.350707 -0.748955 0
M  V30 4735 H 442.56 -0.0272597 -1.69678 0
M  V30 4736 H 441.332 0.269532 -3.90371 0
M  V30 4737 H 440.955 1.93035 -3.47596 0
M  V30 4738 N 441.952 1.55251 0.271103 0
M  V30 4739 C 442.862 1.9136 1.35714 0
M  V30 4740 C 443.878 0.811075 1.5394 0
M  V30 4741 O 445.054 1.11031 1.6803 0
M  V30 4742 C 442.119 2.1798 2.69603 0
M  V30 4743 C 441.18 3.4153 2.60107 0
M  V30 4744 C 440.413 3.66871 3.8761 0
M  V30 4745 O 440.636 2.94689 4.8838 0
M  V30 4746 O 439.57 4.60405 3.87699 0
M  V30 4747 H 443.396 2.83815 1.08088 0
M  V30 4748 H 440.981 1.41821 0.469792 0
M  V30 4749 H 442.863 2.36518 3.48765 0
M  V30 4750 H 441.538 1.28708 2.97012 0
M  V30 4751 H 440.445 3.28325 1.79314 0
M  V30 4752 H 441.778 4.31027 2.37647 0
M  V30 4753 N 443.43 -0.535701 1.48216 0
M  V30 4754 C 444.677 -1.29183 1.55942 0
M  V30 4755 C 445.005 -1.93125 0.230857 0
M  V30 4756 O 444.26 -1.79556 -0.778331 0
M  V30 4757 C 444.559 -2.4068 2.64212 0
M  V30 4758 C 444.225 -1.94428 4.06827 0
M  V30 4759 C 442.887 -1.81532 4.45645 0
M  V30 4760 C 445.239 -1.59405 4.96225 0
M  V30 4761 C 442.567 -1.31939 5.71672 0
M  V30 4762 C 444.919 -1.11276 6.22736 0
M  V30 4763 C 443.583 -0.969924 6.60416 0
M  V30 4764 H 442.853 -0.472715 0.570632 0
M  V30 4765 H 445.5 -0.598437 1.81909 0
M  V30 4766 H 443.805 -3.15666 2.32083 0
M  V30 4767 H 445.502 -2.98822 2.67407 0
M  V30 4768 H 442.092 -2.05415 3.76168 0
M  V30 4769 H 446.276 -1.68231 4.66917 0
M  V30 4770 H 441.532 -1.19562 5.99596 0
M  V30 4771 H 445.706 -0.832453 6.91407 0
M  V30 4772 H 443.333 -0.583436 7.57958 0
M  V30 4773 N 444.908 -1.36708 -0.784132 0
M  V30 4774 C 445.871 -1.31307 -1.87859 0
M  V30 4775 C 446.871 -0.219654 -1.59293 0
M  V30 4776 O 448.061 -0.47476 -1.67606 0
M  V30 4777 C 445.193 -1.03679 -3.24751 0
M  V30 4778 H 446.386 -2.28647 -1.94064 0
M  V30 4779 H 443.939 -1.21558 -0.98252 0
M  V30 4780 H 444.674 -0.0681936 -3.24228 0
M  V30 4781 H 444.459 -1.82811 -3.46876 0
M  V30 4782 H 445.949 -1.02518 -4.04821 0
M  V30 4783 N 446.386 1.0089 -1.21074 0
M  V30 4784 C 447.797 1.56056 -1.02486 0
M  V30 4785 C 448.148 1.91728 0.416506 0
M  V30 4786 O 447.273 1.73066 1.29912 0
M  V30 4787 C 447.868 2.83563 -1.85411 0
M  V30 4788 C 446.427 3.3523 -1.71166 0
M  V30 4789 C 445.574 2.0846 -1.82865 0
M  V30 4790 H 448.525 0.831818 -1.35154 0
M  V30 4791 H 448.546 3.55286 -1.36205 0
M  V30 4792 H 448.058 2.57569 -2.9031 0
M  V30 4793 H 446.159 3.66167 -0.689361 0
M  V30 4794 H 446.272 4.06913 -2.52901 0
M  V30 4795 H 444.636 2.21275 -1.26132 0
M  V30 4796 H 445.419 1.84883 -2.89263 0
M  V30 4797 N 447.864 1.01787 1.20321 0
M  V30 4798 C 449.28 0.732951 1.41774 0
M  V30 4799 C 449.48 -0.686883 1.89431 0
M  V30 4800 O 448.536 -1.45446 2.06402 0
M  V30 4801 C 449.849 1.75973 2.43832 0
M  V30 4802 C 451.397 1.77802 2.57596 0
M  V30 4803 C 451.872 2.7941 3.62897 0
M  V30 4804 N 453.363 2.78157 3.70382 0
M  V30 4805 C 454.098 3.53434 4.51521 0
M  V30 4806 N 453.594 4.38392 5.36455 0
M  V30 4807 N 455.387 3.42026 4.46066 0
M  V30 4808 H 447.538 1.93447 0.877035 0
M  V30 4809 H 449.801 0.835712 0.447536 0
M  V30 4810 H 449.507 2.77699 2.15815 0
M  V30 4811 H 449.381 1.57292 3.4284 0
M  V30 4812 H 451.768 0.767602 2.84942 0
M  V30 4813 H 451.849 2.00557 1.58779 0
M  V30 4814 H 451.493 3.80616 3.36295 0
M  V30 4815 H 451.423 2.53916 4.61339 0
M  V30 4816 H 453.914 2.16531 3.09714 0
M  V30 4817 H 454.227 4.92596 5.95457 0
M  V30 4818 H 452.572 4.4247 5.35953 0
M  V30 4819 H 455.763 2.75075 3.78749 0
M  V30 4820 H 455.936 4.00946 5.09064 0
M  V30 4821 N 449.342 -1.36122 0.79427 0
M  V30 4822 C 450.272 -2.32551 0.210328 0
M  V30 4823 C 451.253 -1.56884 -0.657386 0
M  V30 4824 O 452.438 -1.85014 -0.590207 0
M  V30 4825 C 449.568 -3.41128 -0.651819 0
M  V30 4826 C 448.522 -4.27842 0.116395 0
M  V30 4827 C 447.848 -5.2763 -0.86666 0
M  V30 4828 C 449.148 -5.05647 1.30837 0
M  V30 4829 H 450.842 -2.81636 1.01594 0
M  V30 4830 H 448.388 -1.35407 0.489981 0
M  V30 4831 H 450.341 -4.07581 -1.07031 0
M  V30 4832 H 449.065 -2.90622 -1.49019 0
M  V30 4833 H 447.724 -3.62952 0.515915 0
M  V30 4834 H 447.372 -4.73395 -1.70019 0
M  V30 4835 H 447.072 -5.86514 -0.35705 0
M  V30 4836 H 448.596 -5.96955 -1.28361 0
M  V30 4837 H 450.01 -5.65113 0.965393 0
M  V30 4838 H 448.407 -5.73967 1.75161 0
M  V30 4839 H 449.477 -4.37006 2.10128 0
M  V30 4840 N 450.82 -0.546701 -1.47814 0
M  V30 4841 C 452.045 -0.021268 -2.07389 0
M  V30 4842 C 452.47 1.25822 -1.39822 0
M  V30 4843 O 451.828 1.75111 -0.46968 0
M  V30 4844 C 451.876 0.168502 -3.60206 0
M  V30 4845 O 450.98 1.23347 -3.93522 0
M  V30 4846 H 450.321 -0.0466108 -0.662362 0
M  V30 4847 H 452.851 -0.759387 -1.89985 0
M  V30 4848 H 452.861 0.385982 -4.0617 0
M  V30 4849 H 451.536 -0.766075 -4.08784 0
M  V30 4850 H 450.113 0.997319 -3.59316 0
M  V30 4851 N 452.299 1.55045 -0.282633 0
M  V30 4852 C 453.546 1.9976 0.33199 0
M  V30 4853 C 453.874 1.17105 1.55295 0
M  V30 4854 O 453.129 0.230599 1.94337 0
M  V30 4855 C 453.428 3.49422 0.750938 0
M  V30 4856 C 453.094 4.4941 -0.366228 0
M  V30 4857 C 451.756 4.76471 -0.672964 0
M  V30 4858 C 454.108 5.09054 -1.11864 0
M  V30 4859 C 451.436 5.60442 -1.73556 0
M  V30 4860 C 453.788 5.9418 -2.17102 0
M  V30 4861 C 452.452 6.19558 -2.48402 0
M  V30 4862 H 451.722 0.730974 0.121484 0
M  V30 4863 H 454.369 1.8732 -0.39791 0
M  V30 4864 H 452.674 3.59377 1.56063 0
M  V30 4865 H 454.371 3.81432 1.23736 0
M  V30 4866 H 450.961 4.2844 -0.117041 0
M  V30 4867 H 455.145 4.88165 -0.894925 0
M  V30 4868 H 450.401 5.78349 -1.983 0
M  V30 4869 H 454.575 6.39427 -2.75873 0
M  V30 4870 H 452.202 6.84417 -3.30874 0
M  V30 4871 N 453.777 0.010035 1.57597 0
M  V30 4872 C 455.024 -0.6727 1.91 0
M  V30 4873 C 455.352 -1.73219 0.884614 0
M  V30 4874 O 454.607 -1.95395 -0.109215 0
M  V30 4875 C 454.906 -1.34434 3.31153 0
M  V30 4876 C 454.572 -0.417083 4.48967 0
M  V30 4877 C 453.234 -0.161809 4.80928 0
M  V30 4878 C 455.586 0.220753 5.20732 0
M  V30 4879 C 452.914 0.739426 5.82022 0
M  V30 4880 C 455.266 1.10993 6.22787 0
M  V30 4881 C 453.93 1.37428 6.532 0
M  V30 4882 H 453.2 -0.246158 0.698918 0
M  V30 4883 H 455.847 0.0677145 1.9138 0
M  V30 4884 H 454.152 -2.15905 3.26944 0
M  V30 4885 H 455.849 -1.87883 3.54261 0
M  V30 4886 H 452.439 -0.626217 4.24001 0
M  V30 4887 H 456.623 0.0365643 4.96287 0
M  V30 4888 H 451.879 0.952139 6.03941 0
M  V30 4889 H 456.053 1.61046 6.77523 0
M  V30 4890 H 453.68 2.0743 7.31353 0
M  V30 4891 N 455.255 -1.55392 -0.262866 0
M  V30 4892 C 456.501 -1.77657 -0.990424 0
M  V30 4893 C 456.856 -0.576333 -1.83565 0
M  V30 4894 O 456.149 0.430795 -1.86694 0
M  V30 4895 C 456.343 -3.02889 -1.89718 0
M  V30 4896 C 456.172 -4.34979 -1.14121 0
M  V30 4897 C 454.942 -4.98052 -0.852768 0
M  V30 4898 C 457.14 -5.11597 -0.526625 0
M  V30 4899 N 455.122 -6.13859 -0.0710649 0
M  V30 4900 C 456.493 -6.19883 0.12042 0
M  V30 4901 C 458.548 -4.95992 -0.435485 0
M  V30 4902 C 457.251 -7.14262 0.849833 0
M  V30 4903 C 459.277 -5.90735 0.280359 0
M  V30 4904 C 458.639 -6.98417 0.916103 0
M  V30 4905 H 454.738 -0.702242 -0.344064 0
M  V30 4906 H 457.322 -1.92887 -0.265088 0
M  V30 4907 H 455.493 -2.89017 -2.59468 0
M  V30 4908 H 457.225 -3.13516 -2.5591 0
M  V30 4909 H 453.98 -4.5916 -1.16058 0
M  V30 4910 H 454.404 -6.76302 0.307413 0
M  V30 4911 H 459.046 -4.12832 -0.912671 0
M  V30 4912 H 456.764 -7.96935 1.33867 0
M  V30 4913 H 460.35 -5.80738 0.351332 0
M  V30 4914 H 459.23 -7.70467 1.46119 0
M  V30 4915 N 456.733 0.527833 -1.48498 0
M  V30 4916 C 457.981 1.28101 -1.56316 0
M  V30 4917 C 458.302 1.9352 -0.239781 0
M  V30 4918 O 457.572 1.81433 0.738849 0
M  V30 4919 H 456.152 0.475793 -0.575873 0
M  V30 4920 H 458.814 0.614052 -1.84974 0
M  V30 4921 H 457.91 2.05916 -2.34532 0
M  V30 4922 N 458.211 1.37122 0.776871 0
M  V30 4923 C 459.46 1.31373 1.53049 0
M  V30 4924 C 459.773 -0.101016 1.95339 0
M  V30 4925 O 460.979 -0.280953 2.70042 0
M  V30 4926 C 459.435 2.30567 2.76346 0
M  V30 4927 C 459.043 3.77543 2.41175 0
M  V30 4928 C 460.787 2.33818 3.54301 0
M  V30 4929 C 458.694 4.68481 3.60943 0
M  V30 4930 H 457.624 0.488234 0.574581 0
M  V30 4931 H 460.275 1.62554 0.851372 0
M  V30 4932 H 458.657 1.92396 3.46121 0
M  V30 4933 H 459.831 4.24521 1.79216 0
M  V30 4934 H 458.146 3.77187 1.76405 0
M  V30 4935 H 460.743 2.98965 4.4331 0
M  V30 4936 H 461.086 1.3503 3.93793 0
M  V30 4937 H 461.619 2.7067 2.91518 0
M  V30 4938 H 458.358 5.68378 3.26537 0
M  V30 4939 H 457.878 4.2621 4.22025 0
M  V30 4940 H 459.557 4.85366 4.27819 0
M  V30 4941 N 459.689 -1.00246 1.21608 0
M  V30 4942 C 460.937 -1.73717 1.0328 0
M  V30 4943 C 461.258 -1.90102 -0.434318 0
M  V30 4944 O 460.528 -1.45376 -1.31311 0
M  V30 4945 H 459.108 -0.643613 0.379172 0
M  V30 4946 H 461.77 -1.20787 1.52959 0
M  V30 4947 H 460.866 -2.73535 1.50283 0
M  V30 4948 N 461.167 -1.02423 -1.1978 0
M  V30 4949 C 462.1 -0.545641 -2.21581 0
M  V30 4950 C 463.078 0.411024 -1.57319 0
M  V30 4951 O 464.262 0.329223 -1.85603 0
M  V30 4952 C 461.389 0.204973 -3.38079 0
M  V30 4953 C 460.435 -0.70241 -4.20676 0
M  V30 4954 S 461.268 -2.17595 -4.89298 0
M  V30 4955 C 462.424 -1.43572 -6.09211 0
M  V30 4956 H 462.657 -1.4082 -2.61834 0
M  V30 4957 H 460.19 -0.833771 -1.29952 0
M  V30 4958 H 462.148 0.631924 -4.05607 0
M  V30 4959 H 460.809 1.0432 -2.9627 0
M  V30 4960 H 460.002 -0.123193 -5.03849 0
M  V30 4961 H 459.604 -1.06747 -3.58442 0
M  V30 4962 H 461.896 -0.719806 -6.73665 0
M  V30 4963 H 462.839 -2.24388 -6.71607 0
M  V30 4964 H 463.247 -0.935252 -5.56699 0
M  V30 4965 N 462.645 1.35699 -0.801477 0
M  V30 4966 C 463.593 2.3177 -0.196317 0
M  V30 4967 C 464.587 1.56388 0.651081 0
M  V30 4968 O 465.793 1.71557 0.544815 0
M  V30 4969 H 462.168 0.750669 -0.0447189 0
M  V30 4970 H 464.139 2.8036 -1.02181 0
M  V30 4971 C 462.888 3.41671 0.644702 0
M  V30 4972 H 462.211 3.998 0.0019921 0
M  V30 4973 H 463.651 4.11184 1.0346 0
M  V30 4974 C 462.11 2.84271 1.80808 0
M  V30 4975 O 462.64 2.77408 2.9053 0
M  V30 4976 N 460.846 2.41391 1.61799 0
M  V30 4977 H 460.393 2.47173 0.725493 0
M  V30 4978 H 460.351 2.03334 2.39797 0
M  V30 4979 N 464.123 0.554532 1.47522 0
M  V30 4980 C 465.37 0.029479 2.02479 0
M  V30 4981 C 465.698 -1.31929 1.42916 0
M  V30 4982 O 464.953 -1.87112 0.573385 0
M  V30 4983 C 465.252 -0.115927 3.57212 0
M  V30 4984 C 464.918 1.16161 4.3568 0
M  V30 4985 C 463.58 1.51168 4.56839 0
M  V30 4986 C 465.932 2.0083 4.80954 0
M  V30 4987 C 463.26 2.70696 5.2052 0
M  V30 4988 C 465.612 3.19559 5.45953 0
M  V30 4989 C 464.276 3.54882 5.65345 0
M  V30 4990 H 463.546 0.0107871 0.740921 0
M  V30 4991 H 466.193 0.725506 1.77225 0
M  V30 4992 H 464.498 -0.894902 3.81443 0
M  V30 4993 H 466.195 -0.53749 3.97381 0
M  V30 4994 H 462.785 0.879026 4.19489 0
M  V30 4995 H 466.969 1.75093 4.64388 0
M  V30 4996 H 462.225 2.98236 5.33728 0
M  V30 4997 H 466.399 3.85456 5.79997 0
M  V30 4998 H 464.026 4.47596 6.1446 0
M  V30 4999 N 465.601 -1.54893 0.290851 0
M  V30 5000 C 466.831 -2.04047 -0.323818 0
M  V30 5001 C 467.239 -1.16809 -1.48837 0
M  V30 5002 O 466.582 -0.184145 -1.82775 0
M  V30 5003 C 466.644 -3.49248 -0.852395 0
M  V30 5004 C 466.308 -4.56623 0.185557 0
M  V30 5005 C 467.305 -5.09985 1.01053 0
M  V30 5006 C 464.99 -5.01252 0.324332 0
M  V30 5007 C 466.984 -6.06507 1.96031 0
M  V30 5008 C 464.671 -5.97596 1.27757 0
M  V30 5009 C 465.669 -6.50107 2.09405 0
M  V30 5010 O 465.357 -7.44565 3.03114 0
M  V30 5011 H 465.089 -0.671735 -0.0758129 0
M  V30 5012 H 467.643 -2.00947 0.425393 0
M  V30 5013 H 465.873 -3.49639 -1.65195 0
M  V30 5014 H 467.562 -3.81654 -1.38185 0
M  V30 5015 H 468.328 -4.76307 0.914129 0
M  V30 5016 H 464.207 -4.60015 -0.301213 0
M  V30 5017 H 467.751 -6.47418 2.598 0
M  V30 5018 H 463.648 -6.30691 1.37473 0
M  V30 5019 H 464.416 -7.62334 2.97976 0
M  V30 5020 N 467.08 -0.0183926 -1.57589 0
M  V30 5021 C 468.013 1.00148 -2.0505 0
M  V30 5022 C 468.991 1.32387 -0.944058 0
M  V30 5023 O 470.175 1.44237 -1.21358 0
M  V30 5024 C 467.302 2.32435 -2.46357 0
M  V30 5025 C 466.348 2.15731 -3.67916 0
M  V30 5026 S 467.181 1.46613 -5.15039 0
M  V30 5027 C 468.337 2.80293 -5.59631 0
M  V30 5028 H 468.57 0.597429 -2.91235 0
M  V30 5029 H 466.103 0.193002 -1.53189 0
M  V30 5030 H 468.061 3.0849 -2.70822 0
M  V30 5031 H 466.722 2.69975 -1.60537 0
M  V30 5032 H 465.915 3.13502 -3.9463 0
M  V30 5033 H 465.517 1.4782 -3.43548 0
M  V30 5034 H 467.809 3.76557 -5.63215 0
M  V30 5035 H 468.752 2.58256 -6.59325 0
M  V30 5036 H 469.16 2.85047 -4.87246 0
M  V30 5037 N 468.558 1.5553 0.254621 0
M  V30 5038 C 469.468 1.92789 1.33677 0
M  V30 5039 C 470.484 0.827356 1.53071 0
M  V30 5040 O 471.66 1.12807 1.66843 0
M  V30 5041 C 468.725 2.20827 2.67275 0
M  V30 5042 C 467.786 3.4427 2.5647 0
M  V30 5043 C 467.019 3.70961 3.83697 0
M  V30 5044 O 467.242 2.99852 4.85227 0
M  V30 5045 O 466.176 4.64491 3.82794 0
M  V30 5046 H 470.002 2.84945 1.05071 0
M  V30 5047 H 467.587 1.42312 0.454723 0
M  V30 5048 H 469.469 2.40204 3.46237 0
M  V30 5049 H 468.144 1.31851 2.9563 0
M  V30 5050 H 467.051 3.30209 1.75821 0
M  V30 5051 H 468.384 4.33524 2.33062 0
M  V30 5052 N 470.036 -0.519951 1.48776 0
M  V30 5053 C 471.285 -1.27175 1.56555 0
M  V30 5054 C 471.598 -1.9401 0.248869 0
M  V30 5055 O 472.804 -2.70725 0.205004 0
M  V30 5056 C 471.26 -2.30811 2.76142 0
M  V30 5057 C 470.868 -1.7 4.14493 0
M  V30 5058 C 472.612 -3.06937 2.9324 0
M  V30 5059 C 470.519 -2.71635 5.25327 0
M  V30 5060 H 469.449 -0.478329 0.582853 0
M  V30 5061 H 472.1 -0.547916 1.75129 0
M  V30 5062 H 470.482 -3.06274 2.51023 0
M  V30 5063 H 471.656 -1.00658 4.49672 0
M  V30 5064 H 469.971 -1.06331 4.02595 0
M  V30 5065 H 472.568 -3.82905 3.73213 0
M  V30 5066 H 472.911 -3.63409 2.03075 0
M  V30 5067 H 473.444 -2.38589 3.18308 0
M  V30 5068 H 470.183 -2.1997 6.1749 0
M  V30 5069 H 469.703 -3.39275 4.94624 0
M  V30 5070 H 471.382 -3.34429 5.53865 0
M  V30 5071 N 471.514 -1.37532 -0.769588 0
M  V30 5072 C 472.477 -1.33292 -1.86456 0
M  V30 5073 C 473.477 -0.236537 -1.59051 0
M  V30 5074 O 474.667 -0.492511 -1.67093 0
M  V30 5075 C 471.799 -1.07118 -3.23633 0
M  V30 5076 H 472.992 -2.30692 -1.91628 0
M  V30 5077 H 470.545 -1.22593 -0.969572 0
M  V30 5078 H 471.28 -0.102578 -3.24138 0
M  V30 5079 H 471.065 -1.86479 -3.44917 0
M  V30 5080 H 472.555 -1.06806 -4.03711 0
M  V30 5081 N 472.992 0.995999 -1.22138 0
M  V30 5082 C 473.939 2.08551 -0.988687 0
M  V30 5083 C 474.909 1.65864 0.0885021 0
M  V30 5084 O 476.094 1.90704 -0.0604589 0
M  V30 5085 C 473.234 3.40374 -0.569191 0
M  V30 5086 C 472.347 3.96421 -1.71681 0
M  V30 5087 C 471.482 5.1639 -1.2456 0
M  V30 5088 C 470.521 5.64567 -2.36497 0
M  V30 5089 N 469.658 6.75777 -1.90445 0
M  V30 5090 H 474.498 2.2779 -1.92135 0
M  V30 5091 H 472.035 1.1168 -0.957388 0
M  V30 5092 H 473.993 4.16068 -0.307166 0
M  V30 5093 H 472.623 3.21145 0.326462 0
M  V30 5094 H 471.675 3.17628 -2.09324 0
M  V30 5095 H 472.987 4.2816 -2.55891 0
M  V30 5096 H 472.141 5.99362 -0.940774 0
M  V30 5097 H 470.88 4.86266 -0.373662 0
M  V30 5098 H 469.885 4.80185 -2.67772 0
M  V30 5099 H 471.11 5.96716 -3.24202 0
M  V30 5100 H 469.056 6.47443 -1.05609 0
M  V30 5101 H 468.973 7.06818 -2.68223 0
M  V30 5102 H 470.241 7.62262 -1.63022 0
M  V30 5103 N 474.47 1.03057 1.19235 0
M  V30 5104 C 475.403 0.557384 2.21288 0
M  V30 5105 C 476.381 -0.402675 1.57535 0
M  V30 5106 O 477.565 -0.319376 1.85775 0
M  V30 5107 C 474.692 -0.187041 3.38183 0
M  V30 5108 C 473.738 0.72471 4.20298 0
M  V30 5109 S 474.571 2.20187 4.88137 0
M  V30 5110 C 475.727 1.46801 6.08441 0
M  V30 5111 H 475.96 1.42207 2.61083 0
M  V30 5112 H 473.493 0.840651 1.29508 0
M  V30 5113 H 475.451 -0.610405 4.05936 0
M  V30 5114 H 474.112 -1.02748 2.96819 0
M  V30 5115 H 473.305 0.149911 5.03777 0
M  V30 5116 H 472.907 1.08647 3.57871 0
M  V30 5117 H 475.199 0.755522 6.73274 0
M  V30 5118 H 476.142 2.27946 6.70407 0
M  V30 5119 H 476.55 0.964762 5.56195 0
M  V30 5120 N 475.948 -1.35272 0.808662 0
M  V30 5121 C 477.364 -1.51806 0.492653 0
M  V30 5122 C 477.564 -1.7574 -0.985778 0
M  V30 5123 O 476.62 -1.80003 -1.77074 0
M  V30 5124 C 477.933 -2.69202 1.33981 0
M  V30 5125 C 479.481 -2.8308 1.33547 0
M  V30 5126 C 479.956 -4.03502 2.16679 0
M  V30 5127 N 481.447 -4.10684 2.14227 0
M  V30 5128 C 482.182 -5.02984 2.75308 0
M  V30 5129 N 481.678 -6.00603 3.45323 0
M  V30 5130 N 483.471 -4.95746 2.64938 0
M  V30 5131 H 475.622 -1.17993 1.76611 0
M  V30 5132 H 477.885 -0.577476 0.751814 0
M  V30 5133 H 477.591 -2.581 2.38909 0
M  V30 5134 H 477.465 -3.63854 0.994491 0
M  V30 5135 H 479.852 -2.93631 0.294036 0
M  V30 5136 H 479.933 -1.89278 1.72068 0
M  V30 5137 H 479.577 -3.93711 3.20864 0
M  V30 5138 H 479.507 -4.96489 1.75517 0
M  V30 5139 H 481.998 -3.40802 1.63285 0
M  V30 5140 H 482.311 -6.67633 3.89212 0
M  V30 5141 H 480.656 -6.0077 3.49428 0
M  V30 5142 H 483.847 -4.18439 2.09825 0
M  V30 5143 H 484.02 -5.67487 3.12829 0
M  V30 5144 N 477.426 -0.562348 -1.47226 0
M  V30 5145 C 478.389 0.172056 -2.28553 0
M  V30 5146 C 479.389 0.837928 -1.37242 0
M  V30 5147 O 480.579 0.693001 -1.59822 0
M  V30 5148 C 477.711 1.25223 -3.17068 0
M  V30 5149 H 478.904 -0.542401 -2.94954 0
M  V30 5150 H 476.457 -0.319493 -1.53 0
M  V30 5151 H 477.192 1.99892 -2.55369 0
M  V30 5152 H 476.977 0.779515 -3.84273 0
M  V30 5153 H 478.467 1.76791 -3.78332 0
M  V30 5154 N 478.904 1.54736 -0.299062 0
M  V30 5155 C 480.152 1.99706 0.31017 0
M  V30 5156 C 480.473 1.18896 1.54559 0
M  V30 5157 O 479.743 0.284445 1.93824 0
M  V30 5158 H 478.323 0.737686 0.117596 0
M  V30 5159 H 480.985 1.9054 -0.409943 0
M  V30 5160 H 480.081 3.06596 0.58355 0
M  V30 5161 N 480.382 0.0267497 1.57577 0
M  V30 5162 C 481.798 -0.32962 1.56159 0
M  V30 5163 C 481.998 -1.73059 1.03213 0
M  V30 5164 O 481.054 -2.43233 0.677804 0
M  V30 5165 C 482.367 -0.18039 3.00158 0
M  V30 5166 C 483.915 -0.253334 3.11973 0
M  V30 5167 C 484.39 -0.132921 4.57807 0
M  V30 5168 N 485.881 -0.189979 4.6281 0
M  V30 5169 C 486.616 -0.120554 5.73273 0
M  V30 5170 N 486.112 -0.000180315 6.928 0
M  V30 5171 N 487.905 -0.174369 5.61829 0
M  V30 5172 H 480.056 0.942896 1.90324 0
M  V30 5173 H 482.319 0.3639 0.875375 0
M  V30 5174 H 482.025 0.784576 3.42837 0
M  V30 5175 H 481.899 -0.951565 3.65 0
M  V30 5176 H 484.286 -1.20876 2.69208 0
M  V30 5177 H 484.367 0.548177 2.49857 0
M  V30 5178 H 484.011 0.819073 5.01252 0
M  V30 5179 H 483.941 -0.953264 5.179 0
M  V30 5180 H 486.432 -0.283257 3.76837 0
M  V30 5181 H 486.745 0.0461666 7.72786 0
M  V30 5182 H 485.09 0.034569 6.94991 0
M  V30 5183 H 488.281 -0.266794 4.67339 0
M  V30 5184 H 488.454 -0.116802 6.47895 0
M  V30 5185 N 481.861 -1.55662 -0.24637 0
M  V30 5186 C 483.277 -1.48098 -0.594907 0
M  V30 5187 C 483.477 -0.717044 -1.8831 0
M  V30 5188 O 482.533 -0.246618 -2.51293 0
M  V30 5189 C 483.846 -2.92507 -0.697146 0
M  V30 5190 C 485.394 -3.02881 -0.789436 0
M  V30 5191 C 485.869 -4.48598 -0.923232 0
M  V30 5192 N 487.36 -4.52538 -0.988088 0
M  V30 5193 C 488.095 -5.62536 -1.11089 0
M  V30 5194 N 487.591 -6.82342 -1.19919 0
M  V30 5195 N 489.384 -5.50334 -1.14408 0
M  V30 5196 H 481.535 -2.0377 0.599278 0
M  V30 5197 H 483.798 -0.925145 0.20691 0
M  V30 5198 H 483.504 -3.51242 0.179396 0
M  V30 5199 H 483.378 -3.43024 -1.5689 0
M  V30 5200 H 485.765 -2.44226 -1.65643 0
M  V30 5201 H 485.846 -2.55574 0.107482 0
M  V30 5202 H 485.49 -5.07864 -0.0607927 0
M  V30 5203 H 485.42 -4.93587 -1.8352 0
M  V30 5204 H 487.911 -3.66248 -0.931167 0
M  V30 5205 H 488.224 -7.61924 -1.29197 0
M  V30 5206 H 486.569 -6.85102 -1.16876 0
M  V30 5207 H 489.76 -4.5567 -1.07158 0
M  V30 5208 H 489.933 -6.36096 -1.23634 0
M  V30 5209 N 483.339 0.512053 -1.4905 0
M  V30 5210 C 484.269 1.62365 -1.67809 0
M  V30 5211 C 485.25 1.61737 -0.526809 0
M  V30 5212 O 486.435 1.78651 -0.761404 0
M  V30 5213 C 483.565 3.00895 -1.73435 0
M  V30 5214 C 482.519 3.16387 -2.88242 0
M  V30 5215 C 481.845 4.56157 -2.78971 0
M  V30 5216 C 483.145 2.97457 -4.29321 0
M  V30 5217 H 484.839 1.46921 -2.60873 0
M  V30 5218 H 482.385 0.705379 -1.2554 0
M  V30 5219 H 484.338 3.78549 -1.85145 0
M  V30 5220 H 483.062 3.17403 -0.769619 0
M  V30 5221 H 481.721 2.41155 -2.76116 0
M  V30 5222 H 481.369 4.69525 -1.8043 0
M  V30 5223 H 481.069 4.67465 -3.5602 0
M  V30 5224 H 482.593 5.35886 -2.92675 0
M  V30 5225 H 484.007 3.64888 -4.42187 0
M  V30 5226 H 482.404 3.20245 -5.07507 0
M  V30 5227 H 483.474 1.93692 -4.44535 0
M  V30 5228 N 484.817 1.37938 0.762283 0
M  V30 5229 C 486.063 1.34873 1.52253 0
M  V30 5230 C 486.418 -0.0635972 1.92295 0
M  V30 5231 O 485.711 -1.02434 1.61919 0
M  V30 5232 C 485.905 2.23042 2.79261 0
M  V30 5233 C 485.734 3.72706 2.51635 0
M  V30 5234 C 484.504 4.41771 2.45289 0
M  V30 5235 C 486.702 4.65345 2.18994 0
M  V30 5236 N 484.684 5.76921 2.09846 0
M  V30 5237 C 486.055 5.88943 1.9377 0
M  V30 5238 C 488.11 4.53636 2.0523 0
M  V30 5239 C 486.813 7.02142 1.5617 0
M  V30 5240 C 488.839 5.6673 1.69031 0
M  V30 5241 C 488.201 6.89383 1.44673 0
M  V30 5242 H 484.3 0.548818 0.557067 0
M  V30 5243 H 486.884 1.73247 0.888458 0
M  V30 5244 H 485.055 1.8687 3.40491 0
M  V30 5245 H 486.787 2.11165 3.45241 0
M  V30 5246 H 483.542 3.94883 2.61465 0
M  V30 5247 H 483.966 6.4837 1.94794 0
M  V30 5248 H 488.608 3.5937 2.2274 0
M  V30 5249 H 486.326 7.96334 1.37399 0
M  V30 5250 H 489.912 5.59645 1.59026 0
M  V30 5251 H 488.792 7.75411 1.17079 0
M  V30 5252 N 486.295 -0.989507 1.22664 0
M  V30 5253 C 487.258 -2.06183 1.00106 0
M  V30 5254 C 488.258 -1.60765 -0.0337726 0
M  V30 5255 O 489.448 -1.72989 0.205072 0
M  V30 5256 C 486.58 -3.37021 0.51279 0
M  V30 5257 H 487.773 -2.27629 1.95256 0
M  V30 5258 H 485.326 -1.16158 1.0458 0
M  V30 5259 H 486.061 -3.21261 -0.442917 0
M  V30 5260 H 485.846 -3.71323 1.25942 0
M  V30 5261 H 487.336 -4.1591 0.375315 0
M  V30 5262 N 487.773 -1.03688 -1.18687 0
M  V30 5263 C 488.723 -0.595067 -2.20098 0
M  V30 5264 C 489.707 0.360465 -1.5681 0
M  V30 5265 O 490.899 0.180136 -1.76081 0
M  V30 5266 C 488.028 0.0444495 -3.43271 0
M  V30 5267 C 487.114 -0.934002 -4.13687 0
M  V30 5268 N 487.505 -2.09957 -4.60165 0
M  V30 5269 C 485.803 -0.759177 -4.39491 0
M  V30 5270 C 486.504 -2.71735 -5.1433 0
M  V30 5271 N 485.48 -1.99638 -5.05614 0
M  V30 5272 H 489.282 -1.48336 -2.5372 0
M  V30 5273 H 486.796 -0.904949 -1.3485 0
M  V30 5274 H 488.793 0.37864 -4.15177 0
M  V30 5275 H 487.453 0.928325 -3.11147 0
M  V30 5276 H 488.464 -2.47863 -4.54735 0
M  V30 5277 H 485.141 0.0749292 -4.17433 0
M  V30 5278 H 486.531 -3.70492 -5.60523 0
M  V30 5279 N 489.251 1.34841 -0.815825 0
M  V30 5280 C 490.181 2.32187 -0.247298 0
M  V30 5281 C 491.162 1.5791 0.632344 0
M  V30 5282 O 492.347 1.8593 0.560698 0
M  V30 5283 C 489.477 3.42122 0.597466 0
M  V30 5284 C 488.431 4.27602 -0.184446 0
M  V30 5285 C 487.757 5.28942 0.782609 0
M  V30 5286 C 489.057 5.03502 -1.38865 0
M  V30 5287 H 490.751 2.79985 -1.06061 0
M  V30 5288 H 488.297 1.34611 -0.511461 0
M  V30 5289 H 490.25 4.09232 1.00533 0
M  V30 5290 H 488.974 2.92956 1.44376 0
M  V30 5291 H 487.633 3.62085 -0.573592 0
M  V30 5292 H 487.281 4.7604 1.62466 0
M  V30 5293 H 486.981 5.87008 0.263695 0
M  V30 5294 H 488.505 5.98922 1.18848 0
M  V30 5295 H 489.919 5.63506 -1.05518 0
M  V30 5296 H 488.316 5.71108 -1.8427 0
M  V30 5297 H 489.386 4.33608 -2.17054 0
M  V30 5298 N 490.729 0.570148 1.46925 0
M  V30 5299 C 491.978 0.0487352 2.01641 0
M  V30 5300 C 492.291 -1.31433 1.44861 0
M  V30 5301 O 493.497 -1.92638 1.91318 0
M  V30 5302 C 491.953 0.0365817 3.59881 0
M  V30 5303 C 491.561 1.39719 4.25655 0
M  V30 5304 C 493.305 -0.431545 4.22301 0
M  V30 5305 C 491.212 1.34345 5.75939 0
M  V30 5306 H 490.142 0.0144492 0.753862 0
M  V30 5307 H 492.793 0.719928 1.68788 0
M  V30 5308 H 491.175 -0.700522 3.89755 0
M  V30 5309 H 492.349 2.15303 4.07408 0
M  V30 5310 H 490.664 1.80431 3.75278 0
M  V30 5311 H 493.261 -0.490354 5.32447 0
M  V30 5312 H 493.604 -1.44638 3.90366 0
M  V30 5313 H 494.137 0.251102 3.97007 0
M  V30 5314 H 490.876 2.33469 6.12513 0
M  V30 5315 H 490.396 0.629615 5.96486 0
M  V30 5316 H 492.075 1.051 6.38407 0
M  V30 5317 N 492.207 -1.54576 0.307264 0
M  V30 5318 C 493.117 -2.27435 -0.57536 0
M  V30 5319 C 494.133 -1.31183 -1.14311 0
M  V30 5320 O 495.309 -1.64175 -1.16656 0
M  V30 5321 C 492.374 -3.00566 -1.72803 0
M  V30 5322 C 491.435 -4.12369 -1.19373 0
M  V30 5323 C 490.668 -4.82003 -2.29147 0
M  V30 5324 O 490.891 -4.51038 -3.49171 0
M  V30 5325 O 489.825 -5.69271 -1.95485 0
M  V30 5326 H 493.651 -3.03696 0.0158558 0
M  V30 5327 H 491.236 -1.49219 0.0735064 0
M  V30 5328 H 493.118 -3.46416 -2.39946 0
M  V30 5329 H 491.793 -2.27195 -2.30574 0
M  V30 5330 H 490.7 -3.70905 -0.487851 0
M  V30 5331 H 492.033 -4.87736 -0.661376 0
M  V30 5332 N 493.685 -0.035106 -1.57561 0
M  V30 5333 C 494.632 0.94474 -2.10578 0
M  V30 5334 C 495.602 1.3192 -1.00927 0
M  V30 5335 O 496.787 1.41147 -1.28382 0
M  V30 5336 C 493.927 2.21982 -2.64231 0
M  V30 5337 C 493.04 1.90128 -3.87911 0
M  V30 5338 C 492.175 3.11975 -4.29936 0
M  V30 5339 C 491.214 2.75968 -5.46359 0
M  V30 5340 N 490.351 3.90459 -5.83512 0
M  V30 5341 H 495.191 0.485717 -2.94015 0
M  V30 5342 H 492.728 0.228143 -1.4532 0
M  V30 5343 H 494.686 2.96572 -2.9343 0
M  V30 5344 H 493.316 2.6549 -1.83616 0
M  V30 5345 H 492.368 1.05755 -3.65404 0
M  V30 5346 H 493.68 1.59613 -4.72573 0
M  V30 5347 H 492.834 3.9488 -4.60603 0
M  V30 5348 H 491.573 3.45657 -3.44053 0
M  V30 5349 H 490.578 1.91478 -5.1538 0
M  V30 5350 H 491.803 2.43497 -6.33945 0
M  V30 5351 H 489.749 4.23971 -5.00584 0
M  V30 5352 H 489.666 3.63588 -6.62827 0
M  V30 5353 H 490.934 4.7405 -6.18787 0
M  V30 5354 N 495.163 1.55791 0.238111 0
M  V30 5355 C 496.096 1.86036 1.32158 0
M  V30 5356 C 497.074 0.716216 1.45976 0
M  V30 5357 O 498.258 0.962882 1.62052 0
M  V30 5358 C 495.385 2.05281 2.69402 0
M  V30 5359 C 494.431 3.27939 2.72687 0
M  V30 5360 S 495.264 4.84342 2.28413 0
M  V30 5361 C 496.42 5.06604 3.67565 0
M  V30 5362 H 496.653 2.77644 1.06306 0
M  V30 5363 H 494.186 1.48012 0.439537 0
M  V30 5364 H 496.144 2.17053 3.48423 0
M  V30 5365 H 494.805 1.14499 2.92487 0
M  V30 5366 H 493.998 3.38398 3.73501 0
M  V30 5367 H 493.6 3.14938 2.01717 0
M  V30 5368 H 495.892 4.94486 4.6313 0
M  V30 5369 H 496.835 6.08554 3.62033 0
M  V30 5370 H 497.243 4.34409 3.60485 0
M  V30 5371 N 496.642 -0.504142 1.49319 0
M  V30 5372 C 497.889 -1.25846 1.58647 0
M  V30 5373 C 498.217 -1.92592 0.27177 0
M  V30 5374 O 497.472 -1.81167 -0.74007 0
M  V30 5375 C 497.771 -2.35021 2.69258 0
M  V30 5376 C 497.437 -1.85755 4.1086 0
M  V30 5377 C 496.099 -1.72038 4.49395 0
M  V30 5378 C 498.451 -1.48844 4.99495 0
M  V30 5379 C 495.779 -1.19783 5.74342 0
M  V30 5380 C 498.131 -0.980422 6.24956 0
M  V30 5381 C 496.795 -0.829622 6.62324 0
M  V30 5382 H 496.065 -0.460505 0.580531 0
M  V30 5383 H 498.712 -0.559716 1.83138 0
M  V30 5384 H 497.017 -3.10672 2.38726 0
M  V30 5385 H 498.714 -2.93083 2.73685 0
M  V30 5386 H 495.304 -1.9739 3.80441 0
M  V30 5387 H 499.488 -1.5829 4.70381 0
M  V30 5388 H 494.744 -1.06817 6.01997 0
M  V30 5389 H 498.918 -0.685608 6.93017 0
M  V30 5390 H 496.545 -0.42253 7.59025 0
M  V30 5391 N 498.12 -1.38341 -0.754957 0
M  V30 5392 C 499.052 -1.31347 -1.87831 0
M  V30 5393 C 500.065 -0.225955 -1.61224 0
M  V30 5394 O 501.254 -0.48341 -1.7183 0
M  V30 5395 C 498.354 -1.01201 -3.23437 0
M  V30 5396 C 497.527 -2.20834 -3.77559 0
M  V30 5397 C 496.586 -1.87454 -4.91678 0
M  V30 5398 O 495.612 -2.59934 -5.06382 0
M  V30 5399 N 496.814 -0.828682 -5.74555 0
M  V30 5400 H 499.579 -2.28147 -1.94342 0
M  V30 5401 H 497.14 -1.32184 -0.934828 0
M  V30 5402 H 499.132 -0.769249 -3.97322 0
M  V30 5403 H 497.702 -0.132011 -3.12321 0
M  V30 5404 H 496.922 -2.61184 -2.95256 0
M  V30 5405 H 498.21 -3.00678 -4.10451 0
M  V30 5406 H 497.608 -0.227591 -5.65242 0
M  V30 5407 H 496.165 -0.645802 -6.48593 0
M  V30 5408 N 499.598 0.982988 -1.23187 0
M  V30 5409 C 501.009 1.53847 -1.05773 0
M  V30 5410 C 501.36 1.92568 0.375744 0
M  V30 5411 O 500.485 1.75783 1.26211 0
M  V30 5412 C 501.08 2.79567 -1.91384 0
M  V30 5413 C 499.639 3.31524 -1.78238 0
M  V30 5414 C 498.786 2.04534 -1.87246 0
M  V30 5415 H 501.737 0.802962 -1.36888 0
M  V30 5416 H 501.758 3.52317 -1.43711 0
M  V30 5417 H 501.27 2.51353 -2.95708 0
M  V30 5418 H 499.371 3.64623 -0.766875 0
M  V30 5419 H 499.484 4.01457 -2.61475 0
M  V30 5420 H 497.848 2.1855 -1.30797 0
M  V30 5421 H 498.631 1.78706 -2.9312 0
M  V30 5422 N 501.076 1.04316 1.18135 0
M  V30 5423 C 502.023 0.636398 2.21853 0
M  V30 5424 C 502.993 -0.357039 1.62217 0
M  V30 5425 O 504.178 -0.250453 1.89149 0
M  V30 5426 C 501.318 0.00812779 3.45099 0
M  V30 5427 C 500.431 1.04933 4.19062 0
M  V30 5428 C 499.566 0.389313 5.29771 0
M  V30 5429 C 498.605 1.41544 5.9551 0
M  V30 5430 N 497.742 0.78021 6.97751 0
M  V30 5431 H 502.582 1.52536 2.56002 0
M  V30 5432 H 500.119 0.76304 1.25762 0
M  V30 5433 H 502.077 -0.373497 4.15525 0
M  V30 5434 H 500.707 -0.844336 3.11562 0
M  V30 5435 H 499.759 1.54888 3.47439 0
M  V30 5436 H 501.071 1.82862 4.64072 0
M  V30 5437 H 500.225 -0.0463805 6.06682 0
M  V30 5438 H 498.964 -0.422038 4.8587 0
M  V30 5439 H 497.969 1.86124 5.17337 0
M  V30 5440 H 499.194 2.22854 6.41493 0
M  V30 5441 H 497.14 -0.0107899 6.55999 0
M  V30 5442 H 497.057 1.49716 7.41027 0
M  V30 5443 H 498.325 0.368996 7.78626 0
M  V30 5444 N 502.554 -1.34406 0.822964 0
M  V30 5445 C 503.502 -2.31428 0.233165 0
M  V30 5446 C 504.496 -1.57404 -0.626118 0
M  V30 5447 O 505.702 -1.72402 -0.517453 0
M  V30 5448 H 502.077 -0.749863 0.0566557 0
M  V30 5449 H 504.048 -2.78699 1.06628 0
M  V30 5450 C 502.797 -3.42653 -0.590264 0
M  V30 5451 H 502.12 -3.99753 0.0616129 0
M  V30 5452 H 503.56 -4.12778 -0.969054 0
M  V30 5453 C 502.019 -2.87112 -1.76262 0
M  V30 5454 O 502.549 -2.81995 -2.8608 0
M  V30 5455 N 500.755 -2.43934 -1.57938 0
M  V30 5456 H 500.302 -2.48296 -0.686078 0
M  V30 5457 H 500.26 -2.07123 -2.36532 0
M  V30 5458 N 504.032 -0.577932 -1.46621 0
M  V30 5459 C 505.257 -0.0652536 -2.07297 0
M  V30 5460 C 505.682 1.22828 -1.4246 0
M  V30 5461 O 505.04 1.74075 -0.506718 0
M  V30 5462 C 505.088 0.0920589 -3.60482 0
M  V30 5463 O 504.192 1.14972 -3.96049 0
M  V30 5464 H 503.533 -0.06065 -0.661224 0
M  V30 5465 H 506.063 -0.799515 -1.88332 0
M  V30 5466 H 506.073 0.299741 -4.06897 0
M  V30 5467 H 504.748 -0.852612 -4.07067 0
M  V30 5468 H 503.325 0.920879 -3.61351 0
M  V30 5469 N 505.51 1.54411 -0.315457 0
M  V30 5470 C 506.457 2.24048 0.554166 0
M  V30 5471 C 507.427 1.2283 1.11812 0
M  V30 5472 O 508.612 1.51491 1.15997 0
M  V30 5473 C 505.752 2.99574 1.71316 0
M  V30 5474 C 504.865 4.15594 1.17922 0
M  V30 5475 C 504 4.78669 2.30324 0
M  V30 5476 C 503.039 5.86807 1.74137 0
M  V30 5477 N 502.176 6.43777 2.8017 0
M  V30 5478 H 507.016 2.97964 -0.0462602 0
M  V30 5479 H 504.553 1.47059 -0.0346009 0
M  V30 5480 H 506.511 3.41604 2.39505 0
M  V30 5481 H 505.141 2.28008 2.285 0
M  V30 5482 H 504.193 3.78404 0.389136 0
M  V30 5483 H 505.505 4.93459 0.728012 0
M  V30 5484 H 504.659 5.23626 3.06433 0
M  V30 5485 H 503.398 4.00168 2.78778 0
M  V30 5486 H 502.403 5.41261 0.965236 0
M  V30 5487 H 503.628 6.67201 1.2657 0
M  V30 5488 H 501.574 5.68153 3.2793 0
M  V30 5489 H 501.491 7.17031 2.39588 0
M  V30 5490 H 502.759 6.9339 3.56132 0
M  V30 5491 N 506.988 0.0434614 1.5754 0
M  V30 5492 C 508.213 -0.645358 1.97104 0
M  V30 5493 C 508.638 -1.64037 0.920521 0
M  V30 5494 O 507.996 -1.80922 -0.11708 0
M  V30 5495 C 508.044 -1.31547 3.35749 0
M  V30 5496 O 507.148 -2.43103 3.33129 0
M  V30 5497 H 506.489 -0.168403 0.64229 0
M  V30 5498 H 509.019 0.109573 2.04306 0
M  V30 5499 H 509.029 -1.66895 3.72304 0
M  V30 5500 H 507.704 -0.586205 4.11748 0
M  V30 5501 H 506.281 -2.0976 3.0831 0
M  V30 5502 N 508.466 -1.55915 -0.229846 0
M  V30 5503 C 509.396 -1.94754 -1.28815 0
M  V30 5504 C 510.377 -0.814657 -1.49323 0
M  V30 5505 O 511.562 -1.07631 -1.61645 0
M  V30 5506 C 508.692 -2.25705 -2.63959 0
M  V30 5507 C 507.646 -3.41406 -2.5812 0
M  V30 5508 C 506.972 -3.57941 -3.97218 0
M  V30 5509 C 508.272 -4.76616 -2.13623 0
M  V30 5510 H 509.966 -2.83404 -0.965547 0
M  V30 5511 H 507.512 -1.36353 -0.463028 0
M  V30 5512 H 509.465 -2.51467 -3.38146 0
M  V30 5513 H 508.189 -1.339 -2.9789 0
M  V30 5514 H 506.848 -3.1568 -1.86391 0
M  V30 5515 H 506.496 -2.63526 -4.28443 0
M  V30 5516 H 506.196 -4.35757 -3.94195 0
M  V30 5517 H 507.72 -3.86042 -4.73079 0
M  V30 5518 H 509.134 -5.01637 -2.77549 0
M  V30 5519 H 507.531 -5.57655 -2.21677 0
M  V30 5520 H 508.601 -4.7253 -1.08829 0
M  V30 5521 N 509.944 0.496216 -1.49584 0
M  V30 5522 C 510.874 1.60576 -1.69521 0
M  V30 5523 C 511.855 1.61169 -0.543933 0
M  V30 5524 O 513.04 1.77834 -0.78031 0
M  V30 5525 C 510.17 2.99038 -1.76616 0
M  V30 5526 C 509.124 3.13312 -2.91581 0
M  V30 5527 C 508.45 4.53172 -2.83794 0
M  V30 5528 C 509.75 2.92886 -4.32452 0
M  V30 5529 H 511.444 1.44146 -2.62416 0
M  V30 5530 H 508.99 0.692024 -1.26282 0
M  V30 5531 H 510.943 3.76564 -1.8915 0
M  V30 5532 H 509.667 3.16568 -0.80324 0
M  V30 5533 H 508.326 2.38213 -2.78658 0
M  V30 5534 H 507.974 4.67585 -1.854 0
M  V30 5535 H 507.674 4.63662 -3.60958 0
M  V30 5536 H 509.198 5.32752 -2.98342 0
M  V30 5537 H 510.612 3.60178 -4.46032 0
M  V30 5538 H 509.009 3.14844 -5.10875 0
M  V30 5539 H 510.079 1.88966 -4.46565 0
M  V30 5540 N 511.423 1.38739 0.74761 0
M  V30 5541 C 512.353 1.39173 1.87492 0
M  V30 5542 C 513.334 0.256794 1.6815 0
M  V30 5543 O 514.519 0.460762 1.88655 0
M  V30 5544 C 511.649 1.22197 3.25093 0
M  V30 5545 C 510.603 2.32957 3.59047 0
M  V30 5546 C 509.929 2.01082 4.95449 0
M  V30 5547 C 511.229 3.75237 3.6331 0
M  V30 5548 H 512.923 2.3351 1.87386 0
M  V30 5549 H 510.469 1.12399 0.900134 0
M  V30 5550 H 512.422 1.21124 4.03617 0
M  V30 5551 H 511.146 0.243241 3.25693 0
M  V30 5552 H 509.805 2.33226 2.82845 0
M  V30 5553 H 509.453 1.01678 4.92616 0
M  V30 5554 H 509.153 2.75267 5.19136 0
M  V30 5555 H 510.677 2.01638 5.76346 0
M  V30 5556 H 512.091 3.76966 4.31937 0
M  V30 5557 H 510.488 4.48677 3.98509 0
M  V30 5558 H 511.558 4.07122 2.634 0
M  V30 5559 N 512.901 -0.976442 1.23707 0
M  V30 5560 C 514.317 -1.24341 1.00058 0
M  V30 5561 C 514.517 -1.99315 -0.295932 0
M  V30 5562 O 513.573 -2.3123 -1.01435 0
M  V30 5563 C 514.886 -2.03909 2.21001 0
M  V30 5564 C 516.434 -2.17034 2.25534 0
M  V30 5565 C 516.909 -2.99994 3.46075 0
M  V30 5566 N 518.4 -3.07578 3.46338 0
M  V30 5567 C 519.135 -3.72104 4.36264 0
M  V30 5568 N 518.631 -4.3842 5.36432 0
M  V30 5569 N 520.424 -3.69029 4.23998 0
M  V30 5570 H 512.575 -0.47428 2.07037 0
M  V30 5571 H 514.838 -0.272167 0.908091 0
M  V30 5572 H 514.544 -1.56198 3.15111 0
M  V30 5573 H 514.418 -3.04654 2.22409 0
M  V30 5574 H 516.805 -2.63951 1.31961 0
M  V30 5575 H 516.886 -1.15664 2.28156 0
M  V30 5576 H 516.53 -2.53772 4.39957 0
M  V30 5577 H 516.46 -4.01541 3.40694 0
M  V30 5578 H 518.951 -2.60397 2.73865 0
M  V30 5579 H 519.264 -4.85447 6.013 0
M  V30 5580 H 517.609 -4.37116 5.40328 0
M  V30 5581 H 520.8 -3.16392 3.44984 0
M  V30 5582 H 520.973 -4.19034 4.94282 0
M  V30 5583 N 514.379 -1.04941 -1.1758 0
M  V30 5584 C 515.342 -0.652456 -2.19717 0
M  V30 5585 C 516.342 0.294745 -1.58076 0
M  V30 5586 O 517.532 0.0789579 -1.74021 0
M  V30 5587 C 514.664 0.0420712 -3.40874 0
M  V30 5588 H 515.857 -1.55642 -2.5635 0
M  V30 5589 H 513.41 -0.842995 -1.31618 0
M  V30 5590 H 514.145 0.95943 -3.09783 0
M  V30 5591 H 513.93 -0.638844 -3.86861 0
M  V30 5592 H 515.42 0.306 -4.16477 0
M  V30 5593 N 515.857 1.33968 -0.830081 0
M  V30 5594 C 516.807 2.26845 -0.229242 0
M  V30 5595 C 517.791 1.48862 0.610659 0
M  V30 5596 O 518.983 1.70808 0.464067 0
M  V30 5597 C 516.112 3.3798 0.602057 0
M  V30 5598 C 515.198 4.23369 -0.248866 0
M  V30 5599 N 515.589 4.88182 -1.32334 0
M  V30 5600 C 513.887 4.45987 -0.0344077 0
M  V30 5601 C 514.588 5.51671 -1.84482 0
M  V30 5602 N 513.564 5.31348 -1.14762 0
M  V30 5603 H 517.366 2.74464 -1.05104 0
M  V30 5604 H 514.88 1.4777 -0.673623 0
M  V30 5605 H 516.877 4.03494 1.04873 0
M  V30 5606 H 515.537 2.9191 1.42193 0
M  V30 5607 H 516.548 4.88988 -1.70619 0
M  V30 5608 H 513.225 4.10658 0.752727 0
M  V30 5609 H 514.615 6.13308 -2.74413 0
M  V30 5610 N 517.335 0.585699 1.46312 0
M  V30 5611 C 518.575 0.0751432 2.04262 0
M  V30 5612 C 518.939 -1.26201 1.44697 0
M  V30 5613 O 520.14 -1.86198 1.93865 0
M  V30 5614 C 518.411 0.013478 3.57397 0
M  V30 5615 S 519.97 -0.439068 4.36598 0
M  V30 5616 H 516.788 0.0389228 0.709934 0
M  V30 5617 H 519.39 0.778871 1.79315 0
M  V30 5618 H 518.094 0.990558 3.98266 0
M  V30 5619 H 517.625 -0.712927 3.86886 0
M  V30 5620 H 519.64 -1.6932 4.66417 0
M  V30 5621 N 518.813 -1.54241 0.323641 0
M  V30 5622 C 519.745 -2.21836 -0.576311 0
M  V30 5623 C 520.758 -1.21837 -1.07979 0
M  V30 5624 O 521.947 -1.48306 -0.99336 0
M  V30 5625 C 519.047 -2.86923 -1.80356 0
M  V30 5626 C 518.22 -4.1306 -1.43875 0
M  V30 5627 C 517.279 -4.6174 -2.52353 0
M  V30 5628 O 516.305 -5.26421 -2.16494 0
M  V30 5629 N 517.507 -4.35974 -3.83284 0
M  V30 5630 H 520.272 -2.997 0.00247987 0
M  V30 5631 H 517.833 -1.61233 0.146848 0
M  V30 5632 H 519.825 -3.16414 -2.52318 0
M  V30 5633 H 518.395 -2.12765 -2.29019 0
M  V30 5634 H 517.615 -3.90334 -0.550752 0
M  V30 5635 H 518.903 -4.95148 -1.17071 0
M  V30 5636 H 518.301 -3.84203 -4.15216 0
M  V30 5637 H 516.858 -4.70119 -4.51477 0
M  V30 5638 N 520.291 -0.0518155 -1.57515 0
M  V30 5639 C 521.519 0.631395 -1.9703 0
M  V30 5640 C 521.934 1.64341 -0.92938 0
M  V30 5641 O 521.291 1.82296 0.0863266 0
M  V30 5642 C 521.342 1.31774 -3.36627 0
M  V30 5643 O 521.063 0.346247 -4.3673 0
M  V30 5644 C 522.564 2.09065 -3.90905 0
M  V30 5645 H 519.784 0.172576 -0.648428 0
M  V30 5646 H 522.328 -0.118306 -2.04158 0
M  V30 5647 H 520.483 2.01867 -3.30649 0
M  V30 5648 H 520.897 0.836226 -5.17791 0
M  V30 5649 H 522.371 2.52508 -4.9086 0
M  V30 5650 H 522.848 2.93908 -3.26366 0
M  V30 5651 H 523.454 1.43882 -4.00223 0
M  V30 5652 N 521.769 1.56035 0.221574 0
M  V30 5653 C 522.994 1.83476 0.967026 0
M  V30 5654 C 523.419 0.632139 1.7716 0
M  V30 5655 O 522.777 -0.419082 1.7639 0
M  V30 5656 C 522.825 3.08907 1.86034 0
M  V30 5657 O 521.929 2.876 2.95567 0
M  V30 5658 H 521.27 0.604913 0.273817 0
M  V30 5659 H 523.8 2.03247 0.234893 0
M  V30 5660 H 523.81 3.3901 2.27016 0
M  V30 5661 H 522.485 3.96068 1.26898 0
M  V30 5662 H 521.062 2.6873 2.58532 0
M  V30 5663 N 523.247 -0.488276 1.49845 0
M  V30 5664 C 524.495 -1.23911 1.59657 0
M  V30 5665 C 524.816 -1.92816 0.291005 0
M  V30 5666 O 524.086 -1.83328 -0.690485 0
M  V30 5667 H 522.666 -0.460357 0.588286 0
M  V30 5668 H 525.328 -0.564794 1.86537 0
M  V30 5669 H 524.424 -1.99625 2.39909 0
M  V30 5670 N 524.725 -1.39134 -0.740242 0
M  V30 5671 C 525.971 -1.37278 -1.50088 0
M  V30 5672 C 526.326 0.0329967 -1.92372 0
M  V30 5673 O 525.619 0.998447 -1.63529 0
M  V30 5674 C 525.813 -2.27457 -2.75678 0
M  V30 5675 C 525.642 -3.76662 -2.45674 0
M  V30 5676 C 524.412 -4.45617 -2.38229 0
M  V30 5677 C 526.61 -4.6877 -2.11563 0
M  V30 5678 N 524.592 -5.80187 -2.00641 0
M  V30 5679 C 525.963 -5.91951 -1.84376 0
M  V30 5680 C 528.018 -4.56843 -1.97987 0
M  V30 5681 C 526.721 -7.04538 -1.4498 0
M  V30 5682 C 528.747 -5.69347 -1.59994 0
M  V30 5683 C 528.109 -6.91597 -1.33687 0
M  V30 5684 H 524.208 -0.557611 -0.548265 0
M  V30 5685 H 526.792 -1.74638 -0.860784 0
M  V30 5686 H 524.963 -1.92263 -3.37475 0
M  V30 5687 H 526.695 -2.16631 -3.41838 0
M  V30 5688 H 523.45 -3.98993 -2.5515 0
M  V30 5689 H 523.874 -6.51387 -1.84454 0
M  V30 5690 H 528.516 -3.62868 -2.16995 0
M  V30 5691 H 526.234 -7.98419 -1.24712 0
M  V30 5692 H 529.82 -5.62104 -1.50102 0
M  V30 5693 H 528.7 -7.77176 -1.04728 0
M  V30 5694 N 526.204 0.969867 -1.24223 0
M  V30 5695 C 527.429 1.75289 -1.10853 0
M  V30 5696 C 527.854 1.85091 0.335079 0
M  V30 5697 O 527.212 1.32024 1.24255 0
M  V30 5698 C 527.26 3.15255 -1.75062 0
M  V30 5699 O 526.364 3.99589 -1.01992 0
M  V30 5700 H 525.705 0.538904 -0.387915 0
M  V30 5701 H 528.235 1.21675 -1.64488 0
M  V30 5702 H 528.245 3.65787 -1.80731 0
M  V30 5703 H 526.92 3.07436 -2.801 0
M  V30 5704 H 525.497 3.58077 -1.04094 0
M  V30 5705 N 527.682 1.05563 1.17022 0
M  V30 5706 C 528.612 0.681026 2.23348 0
M  V30 5707 C 529.593 -0.322983 1.67005 0
M  V30 5708 O 530.778 -0.199746 1.9317 0
M  V30 5709 C 527.908 0.0589053 3.4725 0
M  V30 5710 C 526.862 0.988082 4.16438 0
M  V30 5711 C 526.188 0.229646 5.34207 0
M  V30 5712 C 527.488 2.31388 4.68249 0
M  V30 5713 H 529.182 1.56993 2.54938 0
M  V30 5714 H 526.728 0.756302 1.2254 0
M  V30 5715 H 528.681 -0.214982 4.20851 0
M  V30 5716 H 527.405 -0.864968 3.14938 0
M  V30 5717 H 526.064 1.24659 3.44754 0
M  V30 5718 H 525.712 -0.697111 4.98146 0
M  V30 5719 H 525.412 0.848815 5.81437 0
M  V30 5720 H 526.936 -0.0368694 6.10589 0
M  V30 5721 H 528.35 2.09964 5.33468 0
M  V30 5722 H 526.747 2.88736 5.26072 0
M  V30 5723 H 527.817 2.94982 3.84855 0
M  V30 5724 N 529.16 -1.33526 0.837174 0
M  V30 5725 C 530.388 -2.02047 0.445494 0
M  V30 5726 C 530.803 -1.62995 -0.952788 0
M  V30 5727 O 530.16 -0.842447 -1.61892 0
M  V30 5728 C 530.211 -3.57221 0.554577 0
M  V30 5729 O 529.932 -3.94863 1.89776 0
M  V30 5730 C 531.433 -4.43012 0.159634 0
M  V30 5731 H 528.653 -0.647221 0.177048 0
M  V30 5732 H 531.197 -1.70492 1.12928 0
M  V30 5733 H 529.352 -3.87315 -0.0812781 0
M  V30 5734 H 529.766 -4.89569 1.88208 0
M  V30 5735 H 531.24 -5.51253 0.28701 0
M  V30 5736 H 531.717 -4.29916 -0.898289 0
M  V30 5737 H 532.323 -4.18274 0.769855 0
M  V30 5738 N 530.638 -0.59345 -1.46 0
M  V30 5739 C 531.548 0.135817 -2.34207 0
M  V30 5740 C 532.564 0.875008 -1.50398 0
M  V30 5741 O 533.74 0.835778 -1.83239 0
M  V30 5742 C 530.805 1.12977 -3.27776 0
M  V30 5743 C 529.866 0.394081 -4.27487 0
M  V30 5744 C 529.099 1.34068 -5.16586 0
M  V30 5745 O 529.322 2.5778 -5.08828 0
M  V30 5746 O 528.256 0.845426 -5.95933 0
M  V30 5747 H 532.082 -0.588691 -2.9794 0
M  V30 5748 H 529.667 -0.353784 -1.45151 0
M  V30 5749 H 531.549 1.70261 -3.85473 0
M  V30 5750 H 530.224 1.83556 -2.66625 0
M  V30 5751 H 529.131 -0.220869 -3.73447 0
M  V30 5752 H 530.464 -0.270939 -4.91454 0
M  V30 5753 N 532.116 1.54067 -0.331816 0
M  V30 5754 C 533.048 2.22139 0.564538 0
M  V30 5755 C 534.061 1.22408 1.07332 0
M  V30 5756 O 535.25 1.4883 0.985481 0
M  V30 5757 C 532.35 2.87876 1.78831 0
M  V30 5758 C 531.523 4.13817 1.41682 0
M  V30 5759 C 530.582 4.63072 2.49901 0
M  V30 5760 O 529.608 5.27562 2.13699 0
M  V30 5761 N 530.81 4.38001 3.80967 0
M  V30 5762 H 533.575 2.99694 -0.0183736 0
M  V30 5763 H 531.136 1.61153 -0.155396 0
M  V30 5764 H 533.128 3.17747 2.50637 0
M  V30 5765 H 531.698 2.13977 2.27887 0
M  V30 5766 H 530.918 3.9062 0.530044 0
M  V30 5767 H 532.206 4.95762 1.14443 0
M  V30 5768 H 531.604 3.864 4.13173 0
M  V30 5769 H 530.161 4.72507 4.48977 0
M  V30 5770 N 533.594 0.0601682 1.57485 0
M  V30 5771 C 534.871 -0.651956 1.84415 0
M  V30 5772 C 535.251 -1.88498 0.950361 0
M  V30 5773 O 534.599 -2.28496 0.0136719 0
M  V30 5774 C 534.809 -1.00069 3.34346 0
M  V30 5775 C 536.157 -1.37915 4.01578 0
M  V30 5776 O 537.181 -1.09277 3.39024 0
M  V30 5777 O 536.04 -1.91399 5.11887 0
M  V30 5778 H 533.134 -0.322668 0.761455 0
M  V30 5779 H 535.68 0.0902159 1.6946 0
M  V30 5780 H 534.452 -0.124463 3.91102 0
M  V30 5781 H 534.075 -1.80001 3.54521 0
M  V30 5782 N 535.072 -1.5615 -0.213296 0
M  V30 5783 C 536.483 -1.69645 -0.779582 0
M  V30 5784 C 536.834 -0.663615 -1.84636 0
M  V30 5785 O 535.959 0.183633 -2.15619 0
M  V30 5786 C 536.554 -3.07567 -1.42084 0
M  V30 5787 C 535.113 -3.22889 -1.93442 0
M  V30 5788 C 534.26 -2.65581 -0.797612 0
M  V30 5789 H 537.211 -1.58696 0.0114951 0
M  V30 5790 H 537.232 -3.03884 -2.28986 0
M  V30 5791 H 536.744 -3.82716 -0.644187 0
M  V30 5792 H 534.845 -2.52623 -2.73884 0
M  V30 5793 H 534.958 -4.30197 -2.10872 0
M  V30 5794 H 533.322 -2.24278 -1.20712 0
M  V30 5795 H 534.105 -3.43284 -0.033494 0
M  V30 5796 N 536.55 0.480323 -1.50102 0
M  V30 5797 C 537.78 1.25475 -1.64133 0
M  V30 5798 C 538.188 1.8647 -0.320272 0
M  V30 5799 O 537.531 1.69561 0.70673 0
M  V30 5800 C 537.593 2.40996 -2.6676 0
M  V30 5801 C 537.257 2.00711 -4.10565 0
M  V30 5802 C 538.254 1.53492 -4.96725 0
M  V30 5803 C 535.939 2.09714 -4.56427 0
M  V30 5804 C 537.933 1.15806 -6.26792 0
M  V30 5805 C 535.62 1.7164 -5.86501 0
M  V30 5806 C 536.618 1.24763 -6.71508 0
M  V30 5807 O 536.306 0.872122 -7.99155 0
M  V30 5808 H 536.038 0.385983 -0.554971 0
M  V30 5809 H 538.592 0.580848 -1.97016 0
M  V30 5810 H 536.822 3.11528 -2.291 0
M  V30 5811 H 538.511 3.02981 -2.70106 0
M  V30 5812 H 539.277 1.45966 -4.62514 0
M  V30 5813 H 535.156 2.4515 -3.90413 0
M  V30 5814 H 538.7 0.791465 -6.93096 0
M  V30 5815 H 534.597 1.78822 -6.20236 0
M  V30 5816 H 535.365 1.00178 -8.12346 0
M  V30 5817 N 538.028 1.39524 0.732853 0
M  V30 5818 C 538.976 1.38563 1.86824 0
M  V30 5819 C 539.97 0.268467 1.67259 0
M  V30 5820 O 541.176 0.438613 1.74574 0
M  V30 5821 H 537.551 0.432737 0.615014 0
M  V30 5822 H 539.522 2.34328 1.84751 0
M  V30 5823 C 538.271 1.2481 3.24527 0
M  V30 5824 H 537.594 2.10044 3.40179 0
M  V30 5825 H 539.034 1.28194 4.04156 0
M  V30 5826 C 537.493 -0.0432825 3.36872 0
M  V30 5827 O 538.023 -1.01268 3.88726 0
M  V30 5828 N 536.229 -0.107055 2.90403 0
M  V30 5829 H 535.776 0.682512 2.48394 0
M  V30 5830 H 535.734 -0.970618 2.99042 0
M  V30 5831 N 539.506 -0.963266 1.24736 0
M  V30 5832 C 540.454 -2.07985 1.04139 0
M  V30 5833 C 541.448 -1.69381 -0.0250556 0
M  V30 5834 O 542.654 -1.79531 0.129863 0
M  V30 5835 H 539.029 -0.680627 0.319768 0
M  V30 5836 H 541 -2.22517 1.98818 0
M  V30 5837 C 539.749 -3.4123 0.667615 0
M  V30 5838 H 539.072 -3.71397 1.48 0
M  V30 5839 H 540.512 -4.20244 0.563136 0
M  V30 5840 C 538.971 -3.3104 -0.625647 0
M  V30 5841 O 539.501 -3.65334 -1.67016 0
M  V30 5842 N 537.707 -2.84168 -0.608033 0
M  V30 5843 H 537.254 -2.56458 0.242323 0
M  V30 5844 H 537.212 -2.77732 -1.47352 0
M  V30 5845 N 540.985 -1.06182 -1.16461 0
M  V30 5846 C 542.234 -0.772927 -1.86303 0
M  V30 5847 C 542.547 0.703187 -1.82523 0
M  V30 5848 O 543.753 1.10641 -2.47933 0
M  V30 5849 C 542.209 -1.33249 -3.34324 0
M  V30 5850 C 541.817 -2.83876 -3.46581 0
M  V30 5851 C 543.561 -1.12108 -4.09429 0
M  V30 5852 C 541.468 -3.33082 -4.88682 0
M  V30 5853 H 540.398 -0.285452 -0.697878 0
M  V30 5854 H 543.049 -1.28039 -1.31447 0
M  V30 5855 H 541.431 -0.7528 -3.88779 0
M  V30 5856 H 542.605 -3.47786 -3.02293 0
M  V30 5857 H 540.92 -3.03671 -2.84909 0
M  V30 5858 H 543.517 -1.46361 -5.14279 0
M  V30 5859 H 543.86 -0.0593832 -4.16258 0
M  V30 5860 H 544.393 -1.6665 -3.6121 0
M  V30 5861 H 541.132 -4.38726 -4.87032 0
M  V30 5862 H 540.652 -2.73919 -5.33599 0
M  V30 5863 H 542.331 -3.28344 -5.57494 0
M  V30 5864 N 542.463 1.3308 -0.844243 0
M  V30 5865 C 543.709 1.97898 -0.443206 0
M  V30 5866 C 544.042 1.66699 0.99625 0
M  V30 5867 O 543.317 0.949704 1.69738 0
M  V30 5868 C 543.6 3.53801 -0.670606 0
M  V30 5869 C 543.453 3.94667 -2.15772 0
M  V30 5870 C 544.772 4.39936 -0.120226 0
M  V30 5871 H 541.891 0.718861 -0.162504 0
M  V30 5872 H 544.533 1.57633 -1.06075 0
M  V30 5873 H 542.683 3.88229 -0.14496 0
M  V30 5874 H 544.355 3.70469 -2.74865 0
M  V30 5875 H 542.598 3.44203 -2.6402 0
M  V30 5876 H 543.269 5.03275 -2.26757 0
M  V30 5877 H 545.745 4.12183 -0.5696 0
M  V30 5878 H 544.621 5.4803 -0.308984 0
M  V30 5879 H 544.882 4.31184 0.976347 0
M  V30 5880 N 543.941 0.601185 1.45683 0
M  V30 5881 C 545.357 0.264315 1.57396 0
M  V30 5882 C 545.557 -1.23324 1.59353 0
M  V30 5883 O 544.613 -2.01594 1.52039 0
M  V30 5884 C 545.926 0.929839 2.85962 0
M  V30 5885 C 547.474 0.905156 2.99626 0
M  V30 5886 C 547.949 1.55057 4.30954 0
M  V30 5887 N 549.44 1.51576 4.37697 0
M  V30 5888 C 550.175 1.98436 5.37969 0
M  V30 5889 N 549.671 2.53352 6.44813 0
M  V30 5890 N 551.464 1.89242 5.29286 0
M  V30 5891 H 543.615 1.57363 1.42656 0
M  V30 5892 H 545.878 0.658831 0.681649 0
M  V30 5893 H 545.584 1.98404 2.90394 0
M  V30 5894 H 545.458 0.449224 3.74515 0
M  V30 5895 H 547.845 -0.14048 2.94765 0
M  V30 5896 H 547.926 1.42397 2.12501 0
M  V30 5897 H 547.57 2.5955 4.36573 0
M  V30 5898 H 547.5 1.00682 5.16886 0
M  V30 5899 H 549.991 1.11452 3.61091 0
M  V30 5900 H 550.304 2.86918 7.17564 0
M  V30 5901 H 548.649 2.57388 6.45582 0
M  V30 5902 H 551.84 1.46083 4.44722 0
M  V30 5903 H 552.013 2.26075 6.07284 0
M  V30 5904 N 545.419 -1.53889 0.339982 0
M  V30 5905 C 546.647 -2.05271 -0.259114 0
M  V30 5906 C 547.062 -1.21517 -1.44496 0
M  V30 5907 O 546.419 -0.24966 -1.80784 0
M  V30 5908 C 546.47 -3.55092 -0.677634 0
M  V30 5909 O 546.191 -4.35667 0.461051 0
M  V30 5910 C 547.692 -4.22631 -1.33782 0
M  V30 5911 H 544.912 -0.669085 -0.0506566 0
M  V30 5912 H 547.456 -1.9852 0.490935 0
M  V30 5913 H 545.611 -3.62077 -1.37763 0
M  V30 5914 H 546.025 -5.24343 0.128144 0
M  V30 5915 H 547.499 -5.28861 -1.58145 0
M  V30 5916 H 547.976 -3.74758 -2.29027 0
M  V30 5917 H 548.582 -4.19829 -0.679957 0
M  V30 5918 N 546.897 -0.0685191 -1.57451 0
M  V30 5919 C 547.86 0.885173 -2.11417 0
M  V30 5920 C 548.86 1.22853 -1.03748 0
M  V30 5921 O 550.05 1.16235 -1.2975 0
M  V30 5922 C 547.182 2.18964 -2.61281 0
M  V30 5923 H 548.375 0.417034 -2.96986 0
M  V30 5924 H 545.928 0.18014 -1.55258 0
M  V30 5925 H 546.663 2.70321 -1.79156 0
M  V30 5926 H 546.448 1.9534 -3.39977 0
M  V30 5927 H 547.938 2.87242 -3.0312 0
M  V30 5928 N 548.375 1.56261 0.205012 0
M  V30 5929 C 549.624 1.79236 0.925058 0
M  V30 5930 C 549.937 0.640011 1.84833 0
M  V30 5931 O 551.143 0.753809 2.60826 0
M  V30 5932 C 549.599 3.17475 1.69522 0
M  V30 5933 C 549.207 4.40482 0.817269 0
M  V30 5934 C 550.951 3.49766 2.4055 0
M  V30 5935 C 548.858 5.69744 1.58573 0
M  V30 5936 H 547.788 0.668287 0.349153 0
M  V30 5937 H 550.439 1.82629 0.178544 0
M  V30 5938 H 548.821 3.08304 2.48526 0
M  V30 5939 H 549.995 4.60752 0.0665988 0
M  V30 5940 H 548.31 4.15827 0.218316 0
M  V30 5941 H 550.907 4.43573 2.98575 0
M  V30 5942 H 551.25 2.73041 3.14252 0
M  V30 5943 H 551.783 3.60341 1.68522 0
M  V30 5944 H 548.522 6.49407 0.891679 0
M  V30 5945 H 548.042 5.53509 2.31059 0
M  V30 5946 H 549.721 6.1051 2.14212 0
M  V30 5947 N 549.853 -0.472356 1.50355 0
M  V30 5948 C 550.763 -1.59637 1.7191 0
M  V30 5949 C 551.779 -1.63247 0.602195 0
M  V30 5950 O 552.955 -1.81139 0.880369 0
M  V30 5951 C 550.02 -2.9586 1.80742 0
M  V30 5952 C 549.081 -3.02649 3.04471 0
M  V30 5953 C 548.314 -4.32374 3.12872 0
M  V30 5954 O 548.537 -5.22807 2.28099 0
M  V30 5955 O 547.471 -4.44728 4.05587 0
M  V30 5956 H 551.297 -1.44373 2.67189 0
M  V30 5957 H 548.882 -0.651717 1.34436 0
M  V30 5958 H 550.764 -3.7677 1.88739 0
M  V30 5959 H 549.439 -3.11325 0.88647 0
M  V30 5960 H 548.346 -2.20821 3.01975 0
M  V30 5961 H 549.679 -2.92119 3.9614 0
M  V30 5962 N 551.331 -1.39911 -0.725443 0
M  V30 5963 C 552.294 -1.39156 -1.82121 0
M  V30 5964 C 553.294 -0.287018 -1.58218 0
M  V30 5965 O 554.484 -0.545421 -1.65441 0
M  V30 5966 C 551.616 -1.1736 -3.20062 0
M  V30 5967 H 552.809 -2.36672 -1.84191 0
M  V30 5968 H 550.362 -1.25615 -0.930079 0
M  V30 5969 H 551.097 -0.205648 -3.23647 0
M  V30 5970 H 550.882 -1.97358 -3.3881 0
M  V30 5971 H 552.372 -1.19596 -4.00108 0
M  V30 5972 N 552.809 0.956637 -1.25245 0
M  V30 5973 C 553.742 2.05232 -0.99775 0
M  V30 5974 C 554.72 1.62439 0.0723137 0
M  V30 5975 O 555.904 1.88381 -0.066926 0
M  V30 5976 C 553.031 3.34871 -0.507861 0
M  V30 5977 C 552.077 3.96625 -1.56815 0
M  V30 5978 S 552.91 4.32853 -3.15276 0
M  V30 5979 C 554.066 5.65613 -2.68017 0
M  V30 5980 H 554.299 2.26521 -1.9255 0
M  V30 5981 H 551.832 1.09601 -1.08752 0
M  V30 5982 H 553.79 4.09845 -0.231858 0
M  V30 5983 H 552.451 3.11551 0.399356 0
M  V30 5984 H 551.644 4.90087 -1.17604 0
M  V30 5985 H 551.246 3.28124 -1.79473 0
M  V30 5986 H 553.538 6.43635 -2.11518 0
M  V30 5987 H 554.481 6.09693 -3.60112 0
M  V30 5988 H 554.889 5.24751 -2.0808 0
M  V30 5989 N 554.287 1.06798 1.15896 0
M  V30 5990 C 555.25 0.687328 2.18651 0
M  V30 5991 C 556.25 -0.269559 1.58524 0
M  V30 5992 O 557.44 -0.0512627 1.74125 0
M  V30 5993 C 554.572 0.0121642 3.40898 0
M  V30 5994 H 555.765 1.59701 2.53842 0
M  V30 5995 H 553.318 0.863828 1.3026 0
M  V30 5996 H 554.053 -0.910025 3.1127 0
M  V30 5997 H 553.838 0.700309 3.85795 0
M  V30 5998 H 555.328 -0.239703 4.16911 0
M  V30 5999 N 555.766 -1.3263 0.851289 0
M  V30 6000 C 556.729 -2.27247 0.298541 0
M  V30 6001 C 557.729 -1.51467 -0.539847 0
M  V30 6002 O 558.919 -1.7061 -0.351843 0
M  V30 6003 C 556.051 -3.35964 -0.578004 0
M  V30 6004 H 557.244 -2.7765 1.13359 0
M  V30 6005 H 554.797 -1.43245 0.625354 0
M  V30 6006 H 555.532 -2.90823 -1.435 0
M  V30 6007 H 555.317 -3.92094 0.0220539 0
M  V30 6008 H 556.807 -4.06472 -0.957626 0
M  V30 6009 N 557.244 -0.608902 -1.45362 0
M  V30 6010 C 558.49 -0.104762 -2.02529 0
M  V30 6011 C 558.823 1.26191 -1.47613 0
M  V30 6012 O 558.098 1.8327 -0.65134 0
M  V30 6013 C 558.381 -0.0672661 -3.60037 0
M  V30 6014 C 558.234 -1.4647 -4.25284 0
M  V30 6015 C 559.553 0.619877 -4.35713 0
M  V30 6016 H 556.672 -0.0395438 -0.735938 0
M  V30 6017 H 559.314 -0.781126 -1.73201 0
M  V30 6018 H 557.464 0.50871 -3.85155 0
M  V30 6019 H 559.136 -2.08785 -4.11347 0
M  V30 6020 H 557.379 -2.02502 -3.83634 0
M  V30 6021 H 558.05 -1.39069 -5.34195 0
M  V30 6022 H 560.526 0.130297 -4.15896 0
M  V30 6023 H 559.402 0.615224 -5.45441 0
M  V30 6024 H 559.663 1.68621 -4.0868 0
M  V30 6025 N 558.722 1.53707 -0.348139 0
M  V30 6026 C 559.969 2.00988 0.246966 0
M  V30 6027 C 560.297 1.23586 1.50189 0
M  V30 6028 O 559.552 0.312817 1.93184 0
M  V30 6029 C 559.851 3.52292 0.602061 0
M  V30 6030 C 559.517 4.47453 -0.556509 0
M  V30 6031 C 558.179 4.73188 -0.874446 0
M  V30 6032 C 560.531 5.03851 -1.33354 0
M  V30 6033 C 557.859 5.52577 -1.9717 0
M  V30 6034 C 560.211 5.84437 -2.42108 0
M  V30 6035 C 558.875 6.08465 -2.74456 0
M  V30 6036 H 558.145 0.735469 0.0903712 0
M  V30 6037 H 560.792 1.85464 -0.477001 0
M  V30 6038 H 559.097 3.65672 1.40681 0
M  V30 6039 H 560.794 3.86337 1.07447 0
M  V30 6040 H 557.384 4.27558 -0.298652 0
M  V30 6041 H 561.568 4.8393 -1.10117 0
M  V30 6042 H 556.824 5.69418 -2.22651 0
M  V30 6043 H 560.998 6.27151 -3.02745 0
M  V30 6044 H 558.625 6.69768 -3.59604 0
M  V30 6045 N 560.2 0.0768682 1.57412 0
M  V30 6046 C 561.448 -0.589918 1.93299 0
M  V30 6047 C 561.769 -1.69842 0.958049 0
M  V30 6048 O 561.039 -1.95899 0.00703261 0
M  V30 6049 H 559.619 -0.220901 0.713591 0
M  V30 6050 H 562.281 0.135917 1.94425 0
M  V30 6051 H 561.377 -1.01195 2.95239 0
M  V30 6052 N 561.678 -1.56367 -0.196722 0
M  V30 6053 C 562.926 -1.80172 -0.915554 0
M  V30 6054 C 563.247 -0.649649 -1.8386 0
M  V30 6055 O 562.517 0.332111 -1.93064 0
M  V30 6056 H 561.097 -0.664592 -0.341067 0
M  V30 6057 H 563.759 -1.93844 -0.202622 0
M  V30 6058 H 562.855 -2.7327 -1.50764 0
M  V30 6059 N 563.156 0.464375 -1.50603 0
M  V30 6060 C 564.384 1.23907 -1.65695 0
M  V30 6061 C 564.799 1.85658 -0.343027 0
M  V30 6062 O 564.156 1.69529 0.675739 0
M  V30 6063 C 564.207 2.3429 -2.75301 0
M  V30 6064 O 563.928 1.7507 -4.01599 0
M  V30 6065 C 565.429 3.25051 -3.01424 0
M  V30 6066 H 562.649 0.374485 -0.556778 0
M  V30 6067 H 565.193 0.55353 -1.96866 0
M  V30 6068 H 563.348 2.98607 -2.46804 0
M  V30 6069 H 563.762 2.47812 -4.62266 0
M  V30 6070 H 565.236 3.98699 -3.81763 0
M  V30 6071 H 565.713 3.84227 -2.12758 0
M  V30 6072 H 566.319 2.66463 -3.31477 0
M  V30 6073 N 564.634 1.40294 0.718013 0
M  V30 6074 C 565.566 1.36281 1.84283 0
M  V30 6075 C 566.579 0.268621 1.60569 0
M  V30 6076 O 567.768 0.528798 1.70487 0
M  V30 6077 C 564.868 1.09741 3.2064 0
M  V30 6078 C 564.041 2.30767 3.71571 0
M  V30 6079 C 563.1 2.00424 4.86535 0
M  V30 6080 O 562.126 2.73268 4.99313 0
M  V30 6081 N 563.328 0.980724 5.72156 0
M  V30 6082 H 566.093 2.3322 1.88225 0
M  V30 6083 H 563.654 1.34616 0.899453 0
M  V30 6084 H 565.646 0.874322 3.95143 0
M  V30 6085 H 564.216 0.214771 3.11861 0
M  V30 6086 H 563.436 2.68921 2.88228 0
M  V30 6087 H 564.724 3.11455 4.02335 0
M  V30 6088 H 564.122 0.377375 5.6444 0
M  V30 6089 H 562.679 0.817538 6.46653 0
M  V30 6090 N 566.112 -0.949982 1.2575 0
M  V30 6091 C 567.337 -1.73503 1.13628 0
M  V30 6092 C 567.762 -1.85601 -0.30559 0
M  V30 6093 O 567.12 -1.33984 -1.22139 0
M  V30 6094 C 567.168 -3.1243 1.80055 0
M  V30 6095 O 566.272 -3.97916 1.08336 0
M  V30 6096 H 565.613 -0.532665 0.396439 0
M  V30 6097 H 568.143 -1.19043 1.66403 0
M  V30 6098 H 568.153 -3.62866 1.86527 0
M  V30 6099 H 566.828 -3.02941 2.84956 0
M  V30 6100 H 565.405 -3.56375 1.09777 0
M  V30 6101 N 567.59 -1.07411 -1.15328 0
M  V30 6102 C 568.52 -0.716472 -2.22236 0
M  V30 6103 C 569.501 0.296373 -1.67498 0
M  V30 6104 O 570.686 0.168989 -1.93463 0
M  V30 6105 C 567.816 -0.114142 -3.47112 0
M  V30 6106 C 566.77 -1.05421 -4.14814 0
M  V30 6107 C 566.096 -0.314604 -5.33774 0
M  V30 6108 C 567.396 -2.38808 -4.64508 0
M  V30 6109 H 569.09 -1.61029 -2.52408 0
M  V30 6110 H 566.636 -0.775702 -1.21321 0
M  V30 6111 H 568.589 0.148001 -4.2114 0
M  V30 6112 H 567.313 0.814755 -3.16274 0
M  V30 6113 H 565.972 -1.30128 -3.42728 0
M  V30 6114 H 565.62 0.617772 -4.99192 0
M  V30 6115 H 565.32 -0.941209 -5.80013 0
M  V30 6116 H 566.844 -0.0602747 -6.1057 0
M  V30 6117 H 568.258 -2.18424 -5.3006 0
M  V30 6118 H 566.655 -2.97069 -5.21412 0
M  V30 6119 H 567.725 -3.01067 -3.80114 0
M  V30 6120 N 569.068 1.32177 -0.85831 0
M  V30 6121 C 570.018 2.26307 -0.277307 0
M  V30 6122 C 571.002 1.50123 0.578946 0
M  V30 6123 O 572.194 1.71754 0.427731 0
M  V30 6124 C 569.323 3.39181 0.530232 0
M  V30 6125 C 568.409 4.22746 -0.338613 0
M  V30 6126 N 568.8 4.85265 -1.4266 0
M  V30 6127 C 567.098 4.45813 -0.129 0
M  V30 6128 C 567.799 5.47634 -1.96142 0
M  V30 6129 N 566.775 5.28794 -1.26007 0
M  V30 6130 H 570.577 2.72173 -1.10902 0
M  V30 6131 H 568.091 1.46308 -0.704816 0
M  V30 6132 H 570.088 4.05628 0.962904 0
M  V30 6133 H 568.748 2.9486 1.35969 0
M  V30 6134 H 569.759 4.85259 -1.80953 0
M  V30 6135 H 566.436 4.12163 0.665451 0
M  V30 6136 H 567.826 6.0735 -2.8736 0
M  V30 6137 N 570.547 0.616602 1.45037 0
M  V30 6138 C 571.775 0.121968 2.0654 0
M  V30 6139 C 572.19 -1.19743 1.45969 0
M  V30 6140 O 571.547 -1.73133 0.577168 0
M  V30 6141 C 571.598 -0.0145171 3.61497 0
M  V30 6142 O 571.319 1.25269 4.19809 0
M  V30 6143 C 572.82 -0.539555 4.40004 0
M  V30 6144 H 570.04 0.0729837 0.667019 0
M  V30 6145 H 572.584 0.846891 1.8614 0
M  V30 6146 H 570.739 -0.689809 3.81209 0
M  V30 6147 H 571.153 1.08816 5.13088 0
M  V30 6148 H 572.627 -0.584112 5.48901 0
M  V30 6149 H 573.104 -1.56368 4.10421 0
M  V30 6150 H 573.71 0.101995 4.25178 0
M  V30 6151 N 572.025 -1.5352 0.356285 0
M  V30 6152 C 572.973 -2.26945 -0.50978 0
M  V30 6153 C 573.967 -1.29569 -1.09125 0
M  V30 6154 O 575.173 -1.47231 -1.03552 0
M  V30 6155 H 571.548 -0.729368 -0.183102 0
M  V30 6156 H 573.519 -2.98111 0.131374 0
M  V30 6157 C 572.268 -3.06466 -1.64237 0
M  V30 6158 H 571.591 -3.81233 -1.20423 0
M  V30 6159 H 573.031 -3.61035 -2.22327 0
M  V30 6160 C 571.49 -2.16737 -2.57928 0
M  V30 6161 O 572.02 -1.77195 -3.60507 0
M  V30 6162 N 570.226 -1.81558 -2.26903 0
M  V30 6163 H 569.773 -2.13913 -1.43524 0
M  V30 6164 H 569.731 -1.21806 -2.89846 0
M  V30 6165 N 573.503 -0.0852151 -1.57369 0
M  V30 6166 C 574.728 0.592872 -1.98746 0
M  V30 6167 C 575.153 1.61538 -0.963689 0
M  V30 6168 O 574.511 1.81168 0.069071 0
M  V30 6169 C 574.559 1.22599 -3.39119 0
M  V30 6170 O 573.663 2.34185 -3.39457 0
M  V30 6171 H 573.004 0.151314 -0.646529 0
M  V30 6172 H 575.534 -0.163703 -2.03944 0
M  V30 6173 H 575.544 1.56965 -3.76598 0
M  V30 6174 H 574.219 0.476831 -4.13158 0
M  V30 6175 H 572.796 2.01512 -3.13763 0
M  V30 6176 N 574.981 1.5647 0.188427 0
M  V30 6177 C 576.228 1.81013 0.907779 0
M  V30 6178 C 576.556 0.65953 1.82977 0
M  V30 6179 O 575.811 -0.354308 1.92466 0
M  V30 6180 C 576.11 3.11596 1.7505 0
M  V30 6181 C 575.776 4.40145 0.978922 0
M  V30 6182 C 574.438 4.75066 0.765912 0
M  V30 6183 C 576.79 5.19369 0.436498 0
M  V30 6184 C 574.118 5.867 -0.00089868 0
M  V30 6185 C 576.47 6.31805 -0.317136 0
M  V30 6186 C 575.134 6.65303 -0.541103 0
M  V30 6187 H 574.404 0.662373 0.33218 0
M  V30 6188 H 577.051 1.9071 0.173732 0
M  V30 6189 H 575.356 2.97165 2.55343 0
M  V30 6190 H 577.053 3.27793 2.30983 0
M  V30 6191 H 573.643 4.12745 1.15497 0
M  V30 6192 H 577.827 4.92799 0.588449 0
M  V30 6193 H 573.083 6.11122 -0.184329 0
M  V30 6194 H 577.257 6.92406 -0.744788 0
M  V30 6195 H 574.884 7.51646 -1.13718 0
M  V30 6196 N 576.459 -0.456382 1.50847 0
M  V30 6197 C 577.736 -1.21739 1.53098 0
M  V30 6198 C 578.116 -2.09179 0.284132 0
M  V30 6199 O 577.464 -2.16466 -0.731773 0
M  V30 6200 C 577.674 -2.03573 2.83477 0
M  V30 6201 C 579.022 -2.61264 3.34703 0
M  V30 6202 O 580.046 -2.13802 2.84898 0
M  V30 6203 O 578.905 -3.47779 4.21559 0
M  V30 6204 H 575.999 -0.553219 0.614718 0
M  V30 6205 H 578.545 -0.467003 1.63148 0
M  V30 6206 H 577.317 -1.39232 3.65691 0
M  V30 6207 H 576.94 -2.85716 2.76499 0
M  V30 6208 N 577.937 -1.40673 -0.710563 0
M  V30 6209 C 578.847 -1.43663 -1.85467 0
M  V30 6210 C 579.863 -0.328721 -1.70867 0
M  V30 6211 O 581.039 -0.574098 -1.93044 0
M  V30 6212 C 578.104 -1.30226 -3.21313 0
M  V30 6213 C 577.165 -2.51204 -3.48131 0
M  V30 6214 C 576.398 -2.38398 -4.77495 0
M  V30 6215 O 576.621 -1.40048 -5.5294 0
M  V30 6216 O 575.555 -3.2787 -5.04762 0
M  V30 6217 H 579.381 -2.40156 -1.859 0
M  V30 6218 H 576.966 -1.22049 -0.861652 0
M  V30 6219 H 578.848 -1.2496 -4.02446 0
M  V30 6220 H 577.523 -0.368419 -3.21597 0
M  V30 6221 H 576.43 -2.62048 -2.66987 0
M  V30 6222 H 577.763 -3.43366 -3.52648 0
M  V30 6223 N 579.415 0.9433 -1.26252 0
M  V30 6224 C 580.378 2.02326 -1.07689 0
M  V30 6225 C 581.378 1.60779 -0.0259174 0
M  V30 6226 O 582.568 1.72108 -0.269134 0
M  V30 6227 C 579.7 3.34886 -0.63752 0
M  V30 6228 H 580.893 2.20225 -2.0357 0
M  V30 6229 H 578.446 1.12197 -1.08819 0
M  V30 6230 H 579.181 3.22684 0.323377 0
M  V30 6231 H 578.966 3.66393 -1.39637 0
M  V30 6232 H 580.456 4.14231 -0.529418 0
M  V30 6233 N 580.893 1.08022 1.14757 0
M  V30 6234 C 581.823 0.728248 2.21853 0
M  V30 6235 C 582.804 -0.287486 1.67653 0
M  V30 6236 O 583.989 -0.158727 1.9355 0
M  V30 6237 C 581.119 0.132549 3.47047 0
M  V30 6238 C 580.073 1.07619 4.14249 0
M  V30 6239 C 579.399 0.342907 5.33599 0
M  V30 6240 C 580.699 2.41268 4.63235 0
M  V30 6241 H 582.393 1.62365 2.51551 0
M  V30 6242 H 579.939 0.782125 1.20908 0
M  V30 6243 H 581.892 -0.125665 4.21213 0
M  V30 6244 H 580.616 -0.797971 3.16702 0
M  V30 6245 H 579.275 1.31944 3.42033 0
M  V30 6246 H 578.923 -0.59129 4.99513 0
M  V30 6247 H 578.623 0.971955 5.79506 0
M  V30 6248 H 580.147 0.0926538 6.1053 0
M  V30 6249 H 581.561 2.21232 5.28894 0
M  V30 6250 H 579.958 2.9983 5.19829 0
M  V30 6251 H 581.028 3.03079 3.78512 0
M  V30 6252 N 582.371 -1.3172 0.865308 0
M  V30 6253 C 583.619 -1.96487 0.472995 0
M  V30 6254 C 583.94 -1.68761 -0.976975 0
M  V30 6255 O 583.21 -1.00051 -1.68424 0
M  V30 6256 H 581.79 -0.726947 0.171922 0
M  V30 6257 H 584.452 -1.60612 1.10407 0
M  V30 6258 H 583.548 -3.0574 0.62687 0
M  V30 6259 N 583.85 -0.624285 -1.44708 0
M  V30 6260 C 584.779 0.0717025 -2.3339 0
M  V30 6261 C 585.76 0.841814 -1.47809 0
M  V30 6262 O 586.946 0.809056 -1.76544 0
M  V30 6263 C 584.076 1.05852 -3.30776 0
M  V30 6264 C 583.029 0.400503 -4.26122 0
M  V30 6265 C 582.356 1.49674 -5.13324 0
M  V30 6266 C 583.656 -0.688924 -5.17737 0
M  V30 6267 H 585.35 -0.668819 -2.91834 0
M  V30 6268 H 582.896 -0.32308 -1.40329 0
M  V30 6269 H 584.849 1.5541 -3.91696 0
M  V30 6270 H 583.572 1.82984 -2.70526 0
M  V30 6271 H 582.231 -0.0743687 -3.66525 0
M  V30 6272 H 581.88 2.25877 -4.49431 0
M  V30 6273 H 581.58 1.06188 -5.77926 0
M  V30 6274 H 583.104 1.99427 -5.77115 0
M  V30 6275 H 584.518 -0.276724 -5.72632 0
M  V30 6276 H 582.915 -1.04652 -5.90904 0
M  V30 6277 H 583.985 -1.55884 -4.5916 0
M  V30 6278 N 585.328 1.53329 -0.364422 0
M  V30 6279 C 586.739 1.86345 0.115039 0
M  V30 6280 C 587.09 1.28505 1.4826 0
M  V30 6281 O 586.215 0.606639 2.07723 0
M  V30 6282 C 586.81 3.38114 0.215522 0
M  V30 6283 C 585.369 3.70932 0.639237 0
M  V30 6284 C 584.516 2.76471 -0.214261 0
M  V30 6285 H 587.467 1.47593 -0.583258 0
M  V30 6286 H 587.488 3.66031 1.0393 0
M  V30 6287 H 587 3.80182 -0.779948 0
M  V30 6288 H 585.101 3.3442 1.64298 0
M  V30 6289 H 585.214 4.77302 0.41465 0
M  V30 6290 H 583.578 2.52724 0.316678 0
M  V30 6291 H 584.361 3.21373 -1.20725 0
M  V30 6292 N 586.806 0.0935595 1.57322 0
M  V30 6293 C 588.034 -0.578934 1.98635 0
M  V30 6294 C 588.449 -1.61819 0.972626 0
M  V30 6295 O 587.806 -1.82461 -0.0379638 0
M  V30 6296 C 587.857 -1.22802 3.40003 0
M  V30 6297 O 587.578 -0.230334 4.37494 0
M  V30 6298 C 589.079 -1.98627 3.96311 0
M  V30 6299 H 586.299 -0.155324 0.652775 0
M  V30 6300 H 588.843 0.172393 2.03772 0
M  V30 6301 H 586.998 -1.93029 3.35885 0
M  V30 6302 H 587.412 -0.698649 5.19826 0
M  V30 6303 H 588.886 -2.39405 4.97382 0
M  V30 6304 H 589.363 -2.85151 3.34044 0
M  V30 6305 H 589.969 -1.3322 4.03897 0
M  V30 6306 N 588.284 -1.56567 -0.180126 0
M  V30 6307 C 589.53 -1.81761 -0.899497 0
M  V30 6308 C 589.863 -0.670015 -1.82276 0
M  V30 6309 O 589.138 0.328575 -1.91705 0
M  V30 6310 C 589.421 -3.17296 -1.7028 0
M  V30 6311 C 589.274 -4.4257 -0.803255 0
M  V30 6312 C 590.593 -3.49678 -2.67233 0
M  V30 6313 H 587.712 -0.661192 -0.325567 0
M  V30 6314 H 590.354 -1.89272 -0.16612 0
M  V30 6315 H 588.504 -3.11023 -2.32802 0
M  V30 6316 H 590.176 -4.60902 -0.191585 0
M  V30 6317 H 588.419 -4.33658 -0.110796 0
M  V30 6318 H 589.09 -5.33935 -1.40064 0
M  V30 6319 H 591.566 -3.56347 -2.14839 0
M  V30 6320 H 590.442 -4.45605 -3.20511 0
M  V30 6321 H 590.703 -2.73932 -3.47007 0
M  V30 6322 N 589.762 0.448376 -1.51087 0
M  V30 6323 C 590.709 1.54341 -1.71603 0
M  V30 6324 C 591.679 1.56463 -0.557536 0
M  V30 6325 O 592.864 1.73644 -0.79072 0
M  V30 6326 C 590.004 2.92148 -1.83695 0
M  V30 6327 C 589.117 2.99639 -3.11192 0
M  V30 6328 C 588.252 4.285 -3.13944 0
M  V30 6329 C 587.291 4.29819 -4.35801 0
M  V30 6330 N 586.428 5.50186 -4.36164 0
M  V30 6331 H 591.268 1.36151 -2.65079 0
M  V30 6332 H 588.805 0.661585 -1.31383 0
M  V30 6333 H 590.763 3.72093 -1.88687 0
M  V30 6334 H 589.393 3.0892 -0.936374 0
M  V30 6335 H 588.445 2.12425 -3.15562 0
M  V30 6336 H 589.757 2.96474 -4.01129 0
M  V30 6337 H 588.911 5.16811 -3.17791 0
M  V30 6338 H 587.65 4.34307 -2.21876 0
M  V30 6339 H 586.655 3.39902 -4.32142 0
M  V30 6340 H 587.88 4.25685 -5.29121 0
M  V30 6341 H 585.826 5.56735 -3.46961 0
M  V30 6342 H 585.743 5.48856 -5.19897 0
M  V30 6343 H 587.011 6.40559 -4.44189 0
M  V30 6344 N 591.24 1.41047 0.703093 0
M  V30 6345 C 592.465 1.43537 1.49706 0
M  V30 6346 C 592.89 0.0401853 1.88057 0
M  V30 6347 O 592.248 -0.954785 1.54122 0
M  V30 6348 C 592.296 2.3433 2.74084 0
M  V30 6349 O 591.4 1.79515 3.71279 0
M  V30 6350 H 590.741 0.487454 0.450871 0
M  V30 6351 H 593.271 1.85422 0.86486 0
M  V30 6352 H 593.281 2.49947 3.22476 0
M  V30 6353 H 591.956 3.35708 2.45506 0
M  V30 6354 H 590.533 1.7331 3.30179 0
M  V30 6355 N 592.718 -0.936591 1.26751 0
M  V30 6356 C 593.681 -2.01752 1.08761 0
M  V30 6357 C 594.681 -1.60763 0.0344435 0
M  V30 6358 O 595.871 -1.71963 0.278258 0
M  V30 6359 C 593.003 -3.34543 0.655271 0
M  V30 6360 H 594.196 -2.19143 2.04735 0
M  V30 6361 H 591.749 -1.11618 1.09413 0
M  V30 6362 H 592.484 -3.22851 -0.30626 0
M  V30 6363 H 592.269 -3.65647 1.41578 0
M  V30 6364 H 593.759 -4.13944 0.551378 0
M  V30 6365 N 594.196 -1.08629 -1.14182 0
M  V30 6366 C 595.612 -0.814363 -1.3726 0
M  V30 6367 C 595.812 0.575271 -1.93114 0
M  V30 6368 O 594.868 1.33165 -2.1453 0
M  V30 6369 C 596.181 -1.8989 -2.33157 0
M  V30 6370 C 597.729 -1.92518 -2.46791 0
M  V30 6371 C 598.204 -3.00092 -3.45989 0
M  V30 6372 N 599.695 -2.99279 -3.53534 0
M  V30 6373 C 600.43 -3.79158 -4.30147 0
M  V30 6374 N 599.926 -4.68923 -5.09983 0
M  V30 6375 N 601.719 -3.67451 -4.25366 0
M  V30 6376 H 593.87 -1.98232 -0.762758 0
M  V30 6377 H 596.133 -0.860383 -0.398051 0
M  V30 6378 H 595.839 -2.89809 -1.99257 0
M  V30 6379 H 595.713 -1.77013 -3.33086 0
M  V30 6380 H 598.1 -0.932425 -2.79982 0
M  V30 6381 H 598.181 -2.09473 -1.46816 0
M  V30 6382 H 597.825 -3.99575 -3.13532 0
M  V30 6383 H 597.755 -2.80382 -4.45751 0
M  V30 6384 H 600.246 -2.3422 -2.96563 0
M  V30 6385 H 600.559 -5.26475 -5.65724 0
M  V30 6386 H 598.904 -4.72964 -5.09244 0
M  V30 6387 H 602.095 -2.9669 -3.62067 0
M  V30 6388 H 602.268 -4.29944 -4.84822 0
M  V30 6389 N 595.674 1.31259 -0.872281 0
M  V30 6390 C 596.923 1.95893 -0.480493 0
M  V30 6391 C 597.236 1.697 0.972688 0
M  V30 6392 O 598.442 2.28214 1.47073 0
M  V30 6393 C 596.898 3.50705 -0.808342 0
M  V30 6394 C 596.506 3.85735 -2.27844 0
M  V30 6395 C 598.25 4.21719 -0.485136 0
M  V30 6396 C 596.157 5.33668 -2.54858 0
M  V30 6397 H 595.087 0.733182 -0.175955 0
M  V30 6398 H 597.738 1.49396 -1.0655 0
M  V30 6399 H 596.12 3.95706 -0.152558 0
M  V30 6400 H 597.294 3.51686 -2.97748 0
M  V30 6401 H 595.609 3.27792 -2.56791 0
M  V30 6402 H 598.206 5.30559 -0.664166 0
M  V30 6403 H 598.549 4.12316 0.574592 0
M  V30 6404 H 599.082 3.82359 -1.09756 0
M  V30 6405 H 595.821 5.48109 -3.59523 0
M  V30 6406 H 595.341 5.69061 -1.8955 0
M  V30 6407 H 597.02 6.00958 -2.39706 0
M  V30 6408 N 597.152 0.631951 1.44375 0
M  V30 6409 C 598.115 -0.0628142 2.29114 0
M  V30 6410 C 599.115 -0.771494 1.41084 0
M  V30 6411 O 600.305 -0.615959 1.62947 0
M  V30 6412 C 597.437 -1.09953 3.22681 0
M  V30 6413 H 598.63 0.682509 2.92031 0
M  V30 6414 H 596.183 0.392128 1.51301 0
M  V30 6415 H 596.918 -1.87481 2.64616 0
M  V30 6416 H 596.703 -0.595286 3.87555 0
M  V30 6417 H 598.193 -1.58538 3.86336 0
M  V30 6418 N 598.631 -1.53133 0.372548 0
M  V30 6419 C 600.047 -1.59585 0.02178 0
M  V30 6420 C 600.247 -1.38736 -1.46132 0
M  V30 6421 O 599.303 -1.19599 -2.22379 0
M  V30 6422 C 600.616 -2.9678 0.483959 0
M  V30 6423 C 602.164 -3.09909 0.438775 0
M  V30 6424 C 602.639 -4.49527 0.876876 0
M  V30 6425 N 604.13 -4.55663 0.832214 0
M  V30 6426 C 604.865 -5.61896 1.14281 0
M  V30 6427 N 604.361 -6.75852 1.52303 0
M  V30 6428 N 606.154 -5.51916 1.06515 0
M  V30 6429 H 598.305 -1.64936 1.33827 0
M  V30 6430 H 600.568 -0.773947 0.547458 0
M  V30 6431 H 600.274 -3.17198 1.51915 0
M  V30 6432 H 600.148 -3.7699 -0.125784 0
M  V30 6433 H 602.535 -2.89197 -0.587294 0
M  V30 6434 H 602.616 -2.31691 1.0841 0
M  V30 6435 H 602.26 -4.70979 1.90109 0
M  V30 6436 H 602.19 -5.26186 0.208727 0
M  V30 6437 H 604.681 -3.73844 0.552195 0
M  V30 6438 H 604.994 -7.52862 1.7441 0
M  V30 6439 H 603.339 -6.77226 1.56175 0
M  V30 6440 H 606.53 -4.6177 0.767235 0
M  V30 6441 H 606.703 -6.34609 1.31053 0
M  V30 6442 N 600.109 -0.101901 -1.5727 0
M  V30 6443 C 601.057 0.872034 -2.15635 0
M  V30 6444 C 602.051 1.28742 -1.10099 0
M  V30 6445 O 603.257 1.26116 -1.28432 0
M  V30 6446 H 599.632 0.299269 -0.689886 0
M  V30 6447 H 601.603 0.355137 -2.96279 0
M  V30 6448 C 600.352 2.11886 -2.7568 0
M  V30 6449 H 599.675 1.80813 -3.56576 0
M  V30 6450 H 601.115 2.78077 -3.20077 0
M  V30 6451 C 599.574 2.89739 -1.7191 0
M  V30 6452 O 600.104 3.84522 -1.16213 0
M  V30 6453 N 598.31 2.53407 -1.42245 0
M  V30 6454 H 597.857 1.76398 -1.87727 0
M  V30 6455 H 597.815 3.05795 -0.730529 0
M  V30 6456 N 601.587 1.56661 0.17182 0
M  V30 6457 C 602.815 1.861 0.904115 0
M  V30 6458 C 603.23 0.687227 1.75848 0
M  V30 6459 O 602.587 -0.343671 1.79235 0
M  V30 6460 C 602.638 3.14568 1.78127 0
M  V30 6461 O 602.359 4.27422 0.961366 0
M  V30 6462 C 603.86 3.5735 2.62327 0
M  V30 6463 H 601.08 0.617445 0.262684 0
M  V30 6464 H 603.624 2.03775 0.172068 0
M  V30 6465 H 601.779 2.98721 2.46666 0
M  V30 6466 H 602.193 5.00725 1.56123 0
M  V30 6467 H 603.667 4.50144 3.1949 0
M  V30 6468 H 604.144 2.81445 3.37173 0
M  V30 6469 H 604.75 3.75807 1.99121 0
M  V30 6470 N 603.065 -0.440357 1.51323 0
M  V30 6471 C 603.997 -1.55254 1.68609 0
M  V30 6472 C 605.01 -1.52614 0.566812 0
M  V30 6473 O 606.199 -1.57445 0.841032 0
M  V30 6474 C 603.299 -2.94169 1.68279 0
M  V30 6475 C 602.472 -3.21346 2.96742 0
M  V30 6476 C 601.531 -4.3997 2.8864 0
M  V30 6477 O 600.557 -4.38771 3.62586 0
M  V30 6478 N 601.759 -5.43367 2.04285 0
M  V30 6479 H 604.524 -1.40831 2.6455 0
M  V30 6480 H 602.085 -0.629251 1.49171 0
M  V30 6481 H 604.077 -3.71543 1.60431 0
M  V30 6482 H 602.647 -3.02205 0.799441 0
M  V30 6483 H 601.867 -2.32299 3.18482 0
M  V30 6484 H 603.155 -3.3633 3.81785 0
M  V30 6485 H 602.553 -5.47176 1.43578 0
M  V30 6486 H 601.11 -6.19605 2.02318 0
M  V30 6487 N 604.543 -1.41418 -0.695603 0
M  V30 6488 C 605.792 -1.40073 -1.4513 0
M  V30 6489 C 606.105 -0.0130439 -1.95596 0
M  V30 6490 O 607.311 0.123032 -2.71221 0
M  V30 6491 C 605.767 -2.46286 -2.62433 0
M  V30 6492 C 605.375 -3.90962 -2.18753 0
M  V30 6493 C 607.119 -2.54077 -3.40066 0
M  V30 6494 C 605.026 -4.88728 -3.33015 0
M  V30 6495 H 603.956 -0.520903 -0.545138 0
M  V30 6496 H 606.607 -1.67242 -0.75515 0
M  V30 6497 H 604.989 -2.12248 -3.34315 0
M  V30 6498 H 606.163 -4.34248 -1.54161 0
M  V30 6499 H 604.478 -3.86831 -1.54114 0
M  V30 6500 H 607.075 -3.24303 -4.25125 0
M  V30 6501 H 607.418 -1.5776 -3.8525 0
M  V30 6502 H 607.951 -2.87206 -2.75241 0
M  V30 6503 H 604.69 -5.86449 -2.92844 0
M  V30 6504 H 604.21 -4.50091 -3.96457 0
M  V30 6505 H 605.889 -5.09483 -3.98793 0
M  V30 6506 N 606.021 0.929856 -1.27246 0
M  V30 6507 C 607.27 1.67182 -1.12842 0
M  V30 6508 C 607.583 1.9287 0.325666 0
M  V30 6509 O 608.789 2.64999 0.590572 0
M  V30 6510 C 607.245 3.01097 -1.97151 0
M  V30 6511 C 606.853 2.83115 -3.47203 0
M  V30 6512 C 608.597 3.78907 -1.91389 0
M  V30 6513 C 606.504 4.12573 -4.23719 0
M  V30 6514 H 605.434 0.627064 -0.418697 0
M  V30 6515 H 608.085 1.0332 -1.51649 0
M  V30 6516 H 606.467 3.66004 -1.51186 0
M  V30 6517 H 607.641 2.26989 -4.01015 0
M  V30 6518 H 605.956 2.18736 -3.54321 0
M  V30 6519 H 608.553 4.74837 -2.45834 0
M  V30 6520 H 608.896 4.0674 -0.887047 0
M  V30 6521 H 609.429 3.20794 -2.35237 0
M  V30 6522 H 606.168 3.8992 -5.26918 0
M  V30 6523 H 605.688 4.68371 -3.74685 0
M  V30 6524 H 607.367 4.8095 -4.32777 0
M  V30 6525 N 607.499 1.09233 1.13605 0
M  V30 6526 C 608.748 0.82205 1.84188 0
M  V30 6527 C 609.061 -0.654548 1.84323 0
M  V30 6528 O 610.267 -1.04029 2.50779 0
M  V30 6529 C 608.723 1.42066 3.30674 0
M  V30 6530 C 608.331 2.92965 3.38933 0
M  V30 6531 C 610.075 1.22924 4.06313 0
M  V30 6532 C 607.982 3.45922 4.79679 0
M  V30 6533 H 606.912 0.303854 0.690064 0
M  V30 6534 H 609.563 1.31479 1.28006 0
M  V30 6535 H 607.945 0.855613 3.86646 0
M  V30 6536 H 609.119 3.55679 2.92966 0
M  V30 6537 H 607.434 3.11118 2.76757 0
M  V30 6538 H 610.031 1.59945 5.10217 0
M  V30 6539 H 610.374 0.169726 4.15954 0
M  V30 6540 H 610.907 1.76168 3.56665 0
M  V30 6541 H 607.646 4.51484 4.75229 0
M  V30 6542 H 607.166 2.87971 5.26149 0
M  V30 6543 H 608.845 3.43009 5.48592 0
M  V30 6544 N 608.977 -1.30795 0.87923 0
M  V30 6545 C 609.909 -2.27241 0.299025 0
M  V30 6546 C 610.922 -1.53472 -0.543166 0
M  V30 6547 O 612.111 -1.74756 -0.363651 0
M  V30 6548 C 609.211 -3.33655 -0.593931 0
M  V30 6549 C 608.384 -4.36857 0.2179 0
M  V30 6550 C 607.443 -5.22715 -0.604646 0
M  V30 6551 O 606.469 -5.69192 -0.0293838 0
M  V30 6552 N 607.671 -5.48008 -1.91488 0
M  V30 6553 H 610.436 -2.77667 1.12788 0
M  V30 6554 H 607.997 -1.43914 0.741637 0
M  V30 6555 H 609.989 -3.88013 -1.15012 0
M  V30 6556 H 608.559 -2.83202 -1.32346 0
M  V30 6557 H 607.779 -3.82444 0.955536 0
M  V30 6558 H 609.067 -5.02869 0.774614 0
M  V30 6559 H 608.465 -5.1202 -2.40525 0
M  V30 6560 H 607.022 -6.05264 -2.41864 0
M  V30 6561 N 610.455 -0.639598 -1.44038 0
M  V30 6562 C 611.365 0.0612377 -2.3452 0
M  V30 6563 C 612.381 0.826717 -1.53106 0
M  V30 6564 O 613.557 0.777059 -1.85806 0
M  V30 6565 C 610.622 1.02492 -3.31204 0
M  V30 6566 C 609.683 0.25788 -4.28525 0
M  V30 6567 C 608.916 1.17566 -5.2059 0
M  V30 6568 O 609.139 2.41461 -5.16771 0
M  V30 6569 O 608.073 0.655407 -5.98321 0
M  V30 6570 H 611.899 -0.68318 -2.95916 0
M  V30 6571 H 609.484 -0.399784 -1.43952 0
M  V30 6572 H 611.366 1.57911 -3.90694 0
M  V30 6573 H 610.041 1.7498 -2.7233 0
M  V30 6574 H 608.948 -0.339566 -3.72556 0
M  V30 6575 H 610.281 -0.427154 -4.90343 0
M  V30 6576 N 611.933 1.52934 -0.380664 0
M  V30 6577 C 612.843 2.29921 0.466192 0
M  V30 6578 C 613.859 1.36488 1.07922 0
M  V30 6579 O 615.035 1.69553 1.0869 0
M  V30 6580 C 612.1 3.08468 1.58266 0
M  V30 6581 C 611.161 4.17595 0.995627 0
M  V30 6582 C 610.394 4.92387 2.05889 0
M  V30 6583 O 610.617 4.67184 3.27254 0
M  V30 6584 O 609.551 5.77949 1.68102 0
M  V30 6585 H 613.377 3.03274 -0.160735 0
M  V30 6586 H 610.962 1.48698 -0.144617 0
M  V30 6587 H 612.844 3.57469 2.23145 0
M  V30 6588 H 611.519 2.37937 2.19471 0
M  V30 6589 H 610.426 3.72811 0.310332 0
M  V30 6590 H 611.759 4.90336 0.427918 0
M  V30 6591 N 613.412 0.11024 1.57214 0
M  V30 6592 C 614.637 -0.561179 1.99664 0
M  V30 6593 C 615.062 -1.59985 0.989266 0
M  V30 6594 O 614.42 -1.81255 -0.0402399 0
M  V30 6595 C 614.468 -1.17189 3.41027 0
M  V30 6596 O 613.572 -2.28755 3.4314 0
M  V30 6597 H 612.913 -0.14101 0.648855 0
M  V30 6598 H 615.443 0.196128 2.03658 0
M  V30 6599 H 615.453 -1.50954 3.79047 0
M  V30 6600 H 614.128 -0.411041 4.13864 0
M  V30 6601 H 612.705 -1.96495 3.16929 0
M  V30 6602 N 614.89 -1.56749 -0.16351 0
M  V30 6603 C 616.138 -1.82074 -0.87713 0
M  V30 6604 C 616.459 -0.688503 -1.82441 0
M  V30 6605 O 615.729 0.291085 -1.93725 0
M  V30 6606 H 614.309 -0.671677 -0.326893 0
M  V30 6607 H 616.971 -1.9423 -0.161459 0
M  V30 6608 H 616.067 -2.76407 -1.44934 0
M  V30 6609 N 616.368 0.432326 -1.51554 0
M  V30 6610 C 617.617 1.17831 -1.63703 0
M  V30 6611 C 617.93 1.92229 -0.36156 0
M  V30 6612 O 619.136 2.69069 -0.362495 0
M  V30 6613 C 617.592 2.14318 -2.89129 0
M  V30 6614 C 617.2 1.45544 -4.23699 0
M  V30 6615 C 618.944 2.89319 -3.10636 0
M  V30 6616 C 616.851 2.40545 -5.4027 0
M  V30 6617 H 615.781 0.443533 -0.60975 0
M  V30 6618 H 618.432 0.444878 -1.78026 0
M  V30 6619 H 616.814 2.91117 -2.68452 0
M  V30 6620 H 617.988 0.742693 -4.54775 0
M  V30 6621 H 616.303 0.826772 -4.0811 0
M  V30 6622 H 618.9 3.60495 -3.94902 0
M  V30 6623 H 619.243 3.50951 -2.23918 0
M  V30 6624 H 619.776 2.19625 -3.31677 0
M  V30 6625 H 616.515 1.83594 -6.29264 0
M  V30 6626 H 616.035 3.09859 -5.13563 0
M  V30 6627 H 617.714 3.01569 -5.72421 0
M  V30 6628 N 617.846 1.41785 0.688094 0
M  V30 6629 C 619.257 1.3701 1.26828 0
M  V30 6630 C 619.608 0.056835 1.96118 0
M  V30 6631 O 618.733 -0.84475 1.99231 0
M  V30 6632 C 619.328 2.48168 2.30648 0
M  V30 6633 C 617.887 2.46766 2.84224 0
M  V30 6634 C 617.034 2.27633 1.58361 0
M  V30 6635 H 619.985 1.51192 0.482351 0
M  V30 6636 H 620.006 2.17655 3.121 0
M  V30 6637 H 619.518 3.43735 1.80188 0
M  V30 6638 H 617.619 1.54978 3.3884 0
M  V30 6639 H 617.732 3.43342 3.34145 0
M  V30 6640 H 616.096 1.75648 1.84445 0
M  V30 6641 H 616.879 3.25238 1.09887 0
M  V30 6642 N 619.324 -0.923095 1.27737 0
M  V30 6643 C 620.271 -2.02432 1.1086 0
M  V30 6644 C 621.241 -1.66098 0.00835195 0
M  V30 6645 O 622.426 -1.90027 0.171542 0
M  V30 6646 C 619.566 -3.36476 0.766671 0
M  V30 6647 C 618.679 -3.85737 1.94501 0
M  V30 6648 C 617.814 -5.08249 1.54455 0
M  V30 6649 C 616.853 -5.49818 2.6901 0
M  V30 6650 N 615.99 -6.63524 2.29521 0
M  V30 6651 H 620.83 -2.16201 2.05089 0
M  V30 6652 H 618.367 -1.05909 1.02087 0
M  V30 6653 H 620.325 -4.13569 0.549223 0
M  V30 6654 H 618.955 -3.22502 -0.13867 0
M  V30 6655 H 618.007 -3.04883 2.27487 0
M  V30 6656 H 619.319 -4.12513 2.80419 0
M  V30 6657 H 618.473 -5.92857 1.28862 0
M  V30 6658 H 617.212 -4.83261 0.656534 0
M  V30 6659 H 616.217 -4.63757 2.95313 0
M  V30 6660 H 617.442 -5.76799 3.5844 0
M  V30 6661 H 615.388 -6.40185 1.43177 0
M  V30 6662 H 615.305 -6.89978 3.08977 0
M  V30 6663 H 616.573 -7.51461 2.07187 0
M  V30 6664 N 620.802 -1.09834 -1.13024 0
M  V30 6665 C 622.048 -0.83819 -1.84668 0
M  V30 6666 C 622.381 0.634645 -1.83537 0
M  V30 6667 O 621.656 1.46753 -1.27647 0
M  V30 6668 C 621.939 -1.37933 -3.32636 0
M  V30 6669 C 621.792 -2.91857 -3.42257 0
M  V30 6670 C 623.111 -1.01654 -4.28199 0
M  V30 6671 H 620.23 -0.30595 -0.670495 0
M  V30 6672 H 622.872 -1.36044 -1.32635 0
M  V30 6673 H 621.022 -0.935111 -3.77078 0
M  V30 6674 H 622.694 -3.44759 -3.06495 0
M  V30 6675 H 620.937 -3.28776 -2.83 0
M  V30 6676 H 621.608 -3.24799 -4.46329 0
M  V30 6677 H 624.084 -1.39973 -3.9185 0
M  V30 6678 H 622.96 -1.42217 -5.30156 0
M  V30 6679 H 623.221 0.0747794 -4.42037 0
M  V30 6680 N 622.28 1.30327 -0.886154 0
M  V30 6681 C 623.243 2.26376 -0.358687 0
M  V30 6682 C 624.243 1.52845 0.499498 0
M  V30 6683 O 625.433 1.71483 0.306485 0
M  V30 6684 C 622.565 3.37379 0.488726 0
M  V30 6685 H 623.758 2.74547 -1.20681 0
M  V30 6686 H 621.311 1.41536 -0.663113 0
M  V30 6687 H 622.046 2.94526 1.35739 0
M  V30 6688 H 621.831 3.91897 -0.126003 0
M  V30 6689 H 623.321 4.08868 0.84952 0
M  V30 6690 N 623.758 0.647228 1.43697 0
M  V30 6691 C 625.035 0.0883758 1.954 0
M  V30 6692 C 625.415 -1.39006 1.58873 0
M  V30 6693 O 624.763 -2.11255 0.87083 0
M  V30 6694 C 624.973 0.328263 3.47453 0
M  V30 6695 C 626.321 0.230009 4.23977 0
M  V30 6696 O 627.345 0.260496 3.55246 0
M  V30 6697 O 626.204 0.148615 5.46298 0
M  V30 6698 H 623.298 -0.0130683 0.826897 0
M  V30 6699 H 625.844 0.72005 1.53666 0
M  V30 6700 H 624.616 1.3535 3.67146 0
M  V30 6701 H 624.239 -0.336772 3.96171 0
M  V30 6702 N 625.236 -1.5273 0.388769 0
M  V30 6703 C 626.647 -1.86505 -0.0853788 0
M  V30 6704 C 626.998 -1.30847 -1.46197 0
M  V30 6705 O 626.123 -0.639609 -2.06732 0
M  V30 6706 C 626.718 -3.38414 -0.161703 0
M  V30 6707 C 625.277 -3.71902 -0.580144 0
M  V30 6708 C 624.424 -2.76095 0.258218 0
M  V30 6709 H 627.375 -1.46647 0.606665 0
M  V30 6710 H 627.396 -3.67638 -0.980936 0
M  V30 6711 H 626.908 -3.78893 0.840333 0
M  V30 6712 H 625.009 -3.36992 -1.58957 0
M  V30 6713 H 625.122 -4.77902 -0.338663 0
M  V30 6714 H 623.486 -2.53195 -0.276432 0
M  V30 6715 H 624.269 -3.19411 1.25822 0
M  V30 6716 N 626.714 -0.118576 -1.57153 0
M  V30 6717 C 627.96 0.534078 -1.96263 0
M  V30 6718 C 628.315 1.64316 -1.0009 0
M  V30 6719 O 627.608 1.91575 -0.0308582 0
M  V30 6720 C 627.802 1.11303 -3.39627 0
M  V30 6721 C 627.631 0.0615624 -4.49658 0
M  V30 6722 C 626.401 -0.370103 -5.03943 0
M  V30 6723 C 628.599 -0.719249 -5.09246 0
M  V30 6724 N 626.581 -1.40738 -5.9755 0
M  V30 6725 C 627.952 -1.60774 -5.98792 0
M  V30 6726 C 630.007 -0.770183 -4.91907 0
M  V30 6727 C 628.71 -2.54272 -6.72858 0
M  V30 6728 C 630.736 -1.69288 -5.66653 0
M  V30 6729 C 630.098 -2.56894 -6.55885 0
M  V30 6730 H 626.197 0.165072 -0.764379 0
M  V30 6731 H 628.781 -0.206596 -1.93601 0
M  V30 6732 H 626.952 1.82342 -3.42937 0
M  V30 6733 H 628.684 1.72996 -3.65861 0
M  V30 6734 H 625.439 0.0222121 -4.73595 0
M  V30 6735 H 625.863 -1.92493 -6.49057 0
M  V30 6736 H 630.505 -0.106999 -4.22665 0
M  V30 6737 H 628.223 -3.21605 -7.41347 0
M  V30 6738 H 631.809 -1.73772 -5.55243 0
M  V30 6739 H 630.689 -3.27131 -7.1271 0
M  V30 6740 N 628.193 1.56834 0.155195 0
M  V30 6741 C 629.441 1.82536 0.867462 0
M  V30 6742 C 629.762 0.698168 1.82073 0
M  V30 6743 O 629.032 -0.280807 1.93877 0
M  V30 6744 H 627.612 0.673401 0.323327 0
M  V30 6745 H 630.274 1.94313 0.151156 0
M  V30 6746 H 629.37 2.77171 1.43466 0
M  V30 6747 N 629.671 -0.424282 1.51781 0
M  V30 6748 C 630.919 -1.17028 1.64769 0
M  V30 6749 C 631.24 -1.91409 0.372523 0
M  V30 6750 O 630.51 -1.86091 -0.612108 0
M  V30 6751 H 629.09 -0.434992 0.607282 0
M  V30 6752 H 631.752 -0.485169 1.88765 0
M  V30 6753 H 630.848 -1.8927 2.4816 0
M  V30 6754 N 631.149 -1.42148 -0.680565 0
M  V30 6755 C 632.374 -1.45901 -1.47403 0
M  V30 6756 C 632.799 -0.0700985 -1.87969 0
M  V30 6757 O 632.157 0.930145 -1.55621 0
M  V30 6758 C 632.205 -2.38661 -2.70321 0
M  V30 6759 O 631.309 -1.85399 -3.68376 0
M  V30 6760 H 630.65 -0.494565 -0.443059 0
M  V30 6761 H 633.18 -1.86774 -0.835251 0
M  V30 6762 H 633.19 -2.55046 -3.18458 0
M  V30 6763 H 631.865 -3.39571 -2.40134 0
M  V30 6764 H 630.442 -1.78541 -3.2738 0
M  V30 6765 N 632.627 0.916307 -1.28225 0
M  V30 6766 C 633.857 1.69654 -1.17902 0
M  V30 6767 C 634.265 1.87331 0.265268 0
M  V30 6768 O 633.608 1.39828 1.19137 0
M  V30 6769 C 633.67 3.11024 -1.80289 0
M  V30 6770 C 633.334 3.16643 -3.29525 0
M  V30 6771 C 634.331 2.98032 -4.25997 0
M  V30 6772 C 632.016 3.39238 -3.70436 0
M  V30 6773 C 634.01 3.01924 -5.61356 0
M  V30 6774 C 631.697 3.42762 -5.05922 0
M  V30 6775 C 632.695 3.24125 -6.01192 0
M  V30 6776 O 632.383 3.27406 -7.34208 0
M  V30 6777 H 632.115 0.537197 -0.41036 0
M  V30 6778 H 634.669 1.15547 -1.69817 0
M  V30 6779 H 632.899 3.66662 -1.22865 0
M  V30 6780 H 634.588 3.71063 -1.6452 0
M  V30 6781 H 635.354 2.80405 -3.95725 0
M  V30 6782 H 631.233 3.52791 -2.96749 0
M  V30 6783 H 634.777 2.87295 -6.35694 0
M  V30 6784 H 630.674 3.59916 -5.35846 0
M  V30 6785 H 631.442 3.43784 -7.42802 0
M  V30 6786 N 634.105 1.10431 1.1244 0
M  V30 6787 C 635.038 0.696987 2.17296 0
M  V30 6788 C 636.016 -0.301673 1.59777 0
M  V30 6789 O 637.2 -0.200583 1.8743 0
M  V30 6790 C 634.327 0.0284094 3.38688 0
M  V30 6791 C 633.373 0.990536 4.14838 0
M  V30 6792 S 634.206 2.50785 4.73146 0
M  V30 6793 C 635.362 1.85198 5.97873 0
M  V30 6794 H 635.595 1.58523 2.51511 0
M  V30 6795 H 633.128 0.921312 1.239 0
M  V30 6796 H 635.086 -0.351009 4.08997 0
M  V30 6797 H 633.747 -0.836629 3.02753 0
M  V30 6798 H 632.94 0.469991 5.01804 0
M  V30 6799 H 632.542 1.31186 3.50237 0
M  V30 6800 H 634.834 1.18217 6.67106 0
M  V30 6801 H 635.777 2.7012 6.54554 0
M  V30 6802 H 636.185 1.31653 5.48933 0
M  V30 6803 N 635.583 -1.29855 0.893053 0
M  V30 6804 C 636.516 -2.26079 0.3104 0
M  V30 6805 C 637.494 -1.52145 -0.573644 0
M  V30 6806 O 638.678 -1.8113 -0.521937 0
M  V30 6807 C 635.805 -3.34069 -0.558179 0
M  V30 6808 C 634.851 -4.25721 0.257638 0
M  V30 6809 S 635.684 -5.09409 1.65114 0
M  V30 6810 C 636.84 -6.20903 0.789307 0
M  V30 6811 H 637.073 -2.75151 1.12602 0
M  V30 6812 H 634.606 -1.37975 0.692978 0
M  V30 6813 H 636.564 -3.9675 -1.05355 0
M  V30 6814 H 635.225 -2.83705 -1.34797 0
M  V30 6815 H 634.418 -5.02366 -0.405562 0
M  V30 6816 H 634.02 -3.67656 0.685917 0
M  V30 6817 H 636.312 -6.77499 0.00978451 0
M  V30 6818 H 637.255 -6.91426 1.52762 0
M  V30 6819 H 637.663 -5.63435 0.346634 0
M  V30 6820 N 637.061 -0.65484 -1.43351 0
M  V30 6821 C 637.971 0.0363603 -2.34572 0
M  V30 6822 C 638.987 0.810432 -1.53974 0
M  V30 6823 O 640.163 0.757308 -1.86619 0
M  V30 6824 C 637.228 0.989733 -3.32273 0
M  V30 6825 C 636.289 0.212414 -4.28774 0
M  V30 6826 C 635.522 1.12038 -5.21808 0
M  V30 6827 O 635.745 2.35967 -5.19303 0
M  V30 6828 O 634.679 0.59191 -5.98982 0
M  V30 6829 H 638.505 -0.714527 -2.95175 0
M  V30 6830 H 636.09 -0.415029 -1.4352 0
M  V30 6831 H 637.972 1.53759 -3.92347 0
M  V30 6832 H 636.647 1.72082 -2.74171 0
M  V30 6833 H 635.554 -0.379062 -3.72175 0
M  V30 6834 H 636.887 -0.479138 -4.89862 0
M  V30 6835 N 638.539 1.52521 -0.396863 0
M  V30 6836 C 639.779 2.03583 0.182578 0
M  V30 6837 C 640.143 1.2766 1.43412 0
M  V30 6838 O 641.344 1.68884 2.09121 0
M  V30 6839 C 639.615 3.54724 0.436519 0
M  V30 6840 S 641.174 4.27598 0.985163 0
M  V30 6841 H 637.992 0.709186 0.0507529 0
M  V30 6842 H 640.594 1.87693 -0.546955 0
M  V30 6843 H 639.298 4.07567 -0.481343 0
M  V30 6844 H 638.829 3.74834 1.19427 0
M  V30 6845 H 640.844 4.41393 2.26686 0
M  V30 6846 N 640.017 0.126909 1.57088 0
M  V30 6847 C 640.947 -0.816847 2.18746 0
M  V30 6848 C 641.928 -1.27161 1.12979 0
M  V30 6849 O 643.113 -1.33279 1.41246 0
M  V30 6850 C 640.243 -2.06398 2.79315 0
M  V30 6851 C 639.197 -1.74673 3.90735 0
M  V30 6852 C 638.523 -3.06482 4.38147 0
M  V30 6853 C 639.823 -1.0089 5.12463 0
M  V30 6854 H 641.517 -0.303032 2.97863 0
M  V30 6855 H 639.063 -0.144314 1.43275 0
M  V30 6856 H 641.016 -2.72885 3.2111 0
M  V30 6857 H 639.74 -2.60118 1.975 0
M  V30 6858 H 638.399 -1.10572 3.49527 0
M  V30 6859 H 638.047 -3.58152 3.5318 0
M  V30 6860 H 637.747 -2.86025 5.13287 0
M  V30 6861 H 639.271 -3.74073 4.82599 0
M  V30 6862 H 640.685 -1.57546 5.51228 0
M  V30 6863 H 639.082 -0.905006 5.93237 0
M  V30 6864 H 640.152 0.00297335 4.849 0
M  V30 6865 N 641.495 -1.56914 -0.146875 0
M  V30 6866 C 642.723 -1.87515 -0.874394 0
M  V30 6867 C 643.138 -0.715116 -1.74733 0
M  V30 6868 O 642.495 0.315113 -1.79759 0
M  V30 6869 C 642.546 -3.17362 -1.731 0
M  V30 6870 O 642.267 -4.28897 -0.893245 0
M  V30 6871 C 643.768 -3.61479 -2.56609 0
M  V30 6872 H 640.988 -0.621546 -0.252827 0
M  V30 6873 H 643.532 -2.04023 -0.139627 0
M  V30 6874 H 641.687 -3.02608 -2.41883 0
M  V30 6875 H 642.101 -5.03146 -1.48137 0
M  V30 6876 H 643.575 -4.5517 -3.12289 0
M  V30 6877 H 644.052 -2.86773 -3.32653 0
M  V30 6878 H 644.658 -3.78927 -1.93117 0
M  V30 6879 N 642.974 0.416227 -1.52004 0
M  V30 6880 C 643.922 1.5272 -1.7544 0
M  V30 6881 C 644.916 1.57596 -0.621289 0
M  V30 6882 O 646.122 1.61087 -0.803172 0
M  V30 6883 H 642.497 0.507772 -0.554682 0
M  V30 6884 H 644.468 1.30136 -2.68528 0
M  V30 6885 C 643.217 2.90165 -1.91571 0
M  V30 6886 H 642.54 2.87154 -2.78178 0
M  V30 6887 H 643.98 3.67211 -2.11972 0
M  V30 6888 C 642.439 3.29947 -0.680942 0
M  V30 6889 O 642.969 4.01403 0.154527 0
M  V30 6890 N 641.175 2.8593 -0.518894 0
M  V30 6891 H 640.722 2.2795 -1.19986 0
M  V30 6892 H 640.68 3.12907 0.305985 0
M  V30 6893 N 644.452 1.42507 0.673017 0
M  V30 6894 C 645.729 1.33554 1.42908 0
M  V30 6895 C 646.109 -0.0262211 2.11084 0
M  V30 6896 O 645.457 -1.04181 2.03368 0
M  V30 6897 C 645.667 2.50498 2.43006 0
M  V30 6898 C 647.015 2.92694 3.07596 0
M  V30 6899 O 648.039 2.50401 2.53333 0
M  V30 6900 O 646.898 3.65899 4.05931 0
M  V30 6901 H 643.992 0.526785 0.637516 0
M  V30 6902 H 646.538 1.54518 0.701591 0
M  V30 6903 H 645.31 3.41272 1.9144 0
M  V30 6904 H 644.933 2.3153 3.23233 0
M  V30 6905 N 645.93 -0.909495 1.28709 0
M  V30 6906 C 647.176 -1.66151 1.16283 0
M  V30 6907 C 647.509 -1.92067 -0.287069 0
M  V30 6908 O 646.784 -1.52409 -1.20837 0
M  V30 6909 C 647.067 -3.01676 1.9663 0
M  V30 6910 C 646.92 -2.82888 3.49707 0
M  V30 6911 C 648.239 -4.02274 1.78504 0
M  V30 6912 H 645.358 -0.602966 0.423793 0
M  V30 6913 H 648 -1.05418 1.58073 0
M  V30 6914 H 646.15 -3.53515 1.61119 0
M  V30 6915 H 647.822 -2.38026 3.95147 0
M  V30 6916 H 646.065 -2.17862 3.75125 0
M  V30 6917 H 646.736 -3.79147 4.01187 0
M  V30 6918 H 649.212 -3.59511 2.09503 0
M  V30 6919 H 648.088 -4.95056 2.37088 0
M  V30 6920 H 648.349 -4.35903 0.737647 0
M  V30 6921 N 647.408 -1.11026 -1.11852 0
M  V30 6922 C 648.638 -0.877544 -1.87037 0
M  V30 6923 C 649.046 0.575925 -1.80221 0
M  V30 6924 O 648.389 1.40916 -1.17849 0
M  V30 6925 C 648.451 -1.25529 -3.36872 0
M  V30 6926 C 648.115 -2.71704 -3.67459 0
M  V30 6927 C 649.112 -3.69931 -3.65304 0
M  V30 6928 C 646.797 -3.08243 -3.966 0
M  V30 6929 C 648.791 -5.02717 -3.9186 0
M  V30 6930 C 646.478 -4.41215 -4.22815 0
M  V30 6931 C 647.476 -5.38262 -4.20432 0
M  V30 6932 O 647.164 -6.68839 -4.45992 0
M  V30 6933 H 646.896 -0.314374 -0.598452 0
M  V30 6934 H 649.45 -1.48015 -1.42411 0
M  V30 6935 H 647.68 -0.595808 -3.82082 0
M  V30 6936 H 649.369 -0.999064 -3.93413 0
M  V30 6937 H 650.135 -3.43047 -3.42846 0
M  V30 6938 H 646.014 -2.33326 -3.97593 0
M  V30 6939 H 649.558 -5.78456 -3.89916 0
M  V30 6940 H 645.455 -4.67835 -4.44748 0
M  V30 6941 H 646.223 -6.74563 -4.63581 0
M  V30 6942 N 648.886 1.2938 -0.899927 0
M  V30 6943 C 650.163 1.9046 -0.445443 0
M  V30 6944 C 650.543 1.81683 1.07492 0
M  V30 6945 O 649.891 1.24371 1.91688 0
M  V30 6946 C 650.101 3.35529 -0.960279 0
M  V30 6947 C 651.449 4.12556 -1.00412 0
M  V30 6948 O 652.473 3.44434 -0.907965 0
M  V30 6949 O 651.332 5.34294 -1.14857 0
M  V30 6950 H 648.426 0.815253 -0.138893 0
M  V30 6951 H 650.972 1.37844 -0.989808 0
M  V30 6952 H 649.744 3.36074 -2.00425 0
M  V30 6953 H 649.367 3.95624 -0.395939 0
M  V30 6954 N 650.364 0.662433 1.43002 0
M  V30 6955 C 651.327 -0.0142016 2.29196 0
M  V30 6956 C 652.327 -0.741394 1.42688 0
M  V30 6957 O 653.517 -0.581257 1.64216 0
M  V30 6958 C 650.649 -1.03084 3.24941 0
M  V30 6959 H 651.842 0.7443 2.90517 0
M  V30 6960 H 649.395 0.424133 1.50435 0
M  V30 6961 H 650.13 -1.81826 2.68533 0
M  V30 6962 H 649.915 -0.512946 3.8873 0
M  V30 6963 H 651.405 -1.50308 3.89612 0
M  V30 6964 N 651.842 -1.52309 0.404946 0
M  V30 6965 C 652.805 -2.25491 -0.410651 0
M  V30 6966 C 653.805 -1.27704 -0.977154 0
M  V30 6967 O 654.995 -1.51679 -0.856691 0
M  V30 6968 C 652.127 -3.02197 -1.57765 0
M  V30 6969 H 653.32 -2.99015 0.230277 0
M  V30 6970 H 650.873 -1.55506 0.157377 0
M  V30 6971 H 651.608 -2.33013 -2.25556 0
M  V30 6972 H 651.393 -3.73987 -1.17797 0
M  V30 6973 H 652.883 -3.57719 -2.15469 0
M  V30 6974 N 653.32 -0.135238 -1.57019 0
M  V30 6975 C 654.25 0.805235 -2.19176 0
M  V30 6976 C 655.231 1.2656 -1.13651 0
M  V30 6977 O 656.416 1.32528 -1.4195 0
M  V30 6978 C 653.546 2.04914 -2.80406 0
M  V30 6979 C 652.5 1.72598 -3.91655 0
M  V30 6980 C 651.826 3.04154 -4.39766 0
M  V30 6981 C 653.126 0.981709 -5.12991 0
M  V30 6982 H 654.82 0.287232 -2.98019 0
M  V30 6983 H 652.366 0.136714 -1.4335 0
M  V30 6984 H 654.319 2.71178 -3.22553 0
M  V30 6985 H 653.043 2.59067 -1.98877 0
M  V30 6986 H 651.702 1.08717 -3.50109 0
M  V30 6987 H 651.35 3.56274 -3.55075 0
M  V30 6988 H 651.05 2.83299 -5.14796 0
M  V30 6989 H 652.574 3.71509 -4.84576 0
M  V30 6990 H 653.988 1.5462 -5.52056 0
M  V30 6991 H 652.385 0.873533 -5.93708 0
M  V30 6992 H 653.455 -0.0286887 -4.84892 0
M  V30 6993 N 654.798 1.5699 0.138552 0
M  V30 6994 C 655.745 1.98899 1.17081 0
M  V30 6995 C 656.715 0.857922 1.42228 0
M  V30 6996 O 657.9 1.12065 1.54422 0
M  V30 6997 C 655.04 2.38189 2.4972 0
M  V30 6998 C 654.153 3.64624 2.31674 0
M  V30 6999 C 653.288 3.9298 3.57407 0
M  V30 7000 C 652.327 5.1266 3.34435 0
M  V30 7001 N 651.464 5.36983 4.5232 0
M  V30 7002 H 656.304 2.86881 0.80642 0
M  V30 7003 H 653.841 1.41925 0.386727 0
M  V30 7004 H 655.799 2.59 3.2707 0
M  V30 7005 H 654.429 1.53275 2.84089 0
M  V30 7006 H 653.481 3.51542 1.45337 0
M  V30 7007 H 654.793 4.52131 2.10664 0
M  V30 7008 H 653.947 4.14335 4.43183 0
M  V30 7009 H 652.686 3.03912 3.8143 0
M  V30 7010 H 651.691 4.9117 2.47048 0
M  V30 7011 H 652.916 6.03288 3.11802 0
M  V30 7012 H 650.862 4.50871 4.76499 0
M  V30 7013 H 650.779 6.18775 4.34343 0
M  V30 7014 H 652.047 5.62842 5.39285 0
M  V30 7015 N 656.276 -0.40816 1.52223 0
M  V30 7016 C 657.206 -1.5042 1.78595 0
M  V30 7017 C 658.187 -1.57723 0.636974 0
M  V30 7018 O 659.372 -1.72982 0.882664 0
M  V30 7019 C 656.502 -2.88232 1.93751 0
M  V30 7020 C 655.456 -2.95779 3.09352 0
M  V30 7021 C 654.782 -4.35855 3.09732 0
M  V30 7022 C 656.082 -2.67175 4.48793 0
M  V30 7023 H 657.776 -1.28601 2.70374 0
M  V30 7024 H 655.322 -0.617221 1.30101 0
M  V30 7025 H 657.275 -3.64895 2.10783 0
M  V30 7026 H 655.999 -3.11347 0.986443 0
M  V30 7027 H 654.658 -2.21561 2.92072 0
M  V30 7028 H 654.306 -4.55981 2.12346 0
M  V30 7029 H 654.006 -4.41829 3.87377 0
M  V30 7030 H 655.53 -5.14451 3.28895 0
M  V30 7031 H 656.944 -3.3356 4.66273 0
M  V30 7032 H 655.341 -2.84523 5.28362 0
M  V30 7033 H 656.411 -1.62609 4.56822 0
M  V30 7034 N 657.755 -1.42862 -0.66545 0
M  V30 7035 C 659.004 -1.43119 -1.42126 0
M  V30 7036 C 659.317 -0.0545297 -1.95524 0
M  V30 7037 O 660.523 0.0654747 -2.71421 0
M  V30 7038 C 658.979 -2.51797 -2.5715 0
M  V30 7039 C 658.587 -3.95514 -2.10411 0
M  V30 7040 C 660.331 -2.61233 -3.346 0
M  V30 7041 C 658.238 -4.95682 -3.22573 0
M  V30 7042 H 657.168 -0.532349 -0.533966 0
M  V30 7043 H 659.819 -1.68806 -0.719506 0
M  V30 7044 H 658.201 -2.19292 -3.29738 0
M  V30 7045 H 659.375 -4.3742 -1.44915 0
M  V30 7046 H 657.69 -3.90012 -1.45874 0
M  V30 7047 H 660.287 -3.33248 -4.18151 0
M  V30 7048 H 660.63 -1.65896 -3.81817 0
M  V30 7049 H 661.163 -2.9298 -2.69087 0
M  V30 7050 H 657.902 -5.92529 -2.80338 0
M  V30 7051 H 657.422 -4.58399 -3.86821 0
M  V30 7052 H 659.101 -5.17828 -3.87896 0
M  V30 7053 N 659.233 0.902656 -1.29189 0
M  V30 7054 C 660.181 2.0278 -1.13943 0
M  V30 7055 C 661.175 1.69308 -0.055787 0
M  V30 7056 O 662.381 1.78707 -0.215371 0
M  V30 7057 H 658.756 0.664595 -0.351877 0
M  V30 7058 H 660.727 2.12778 -2.09208 0
M  V30 7059 C 659.476 3.37657 -0.82966 0
M  V30 7060 H 658.799 3.63913 -1.65551 0
M  V30 7061 H 660.239 4.17078 -0.762998 0
M  V30 7062 C 658.698 3.33648 0.466991 0
M  V30 7063 O 659.228 3.72886 1.49395 0
M  V30 7064 N 657.434 2.86745 0.471761 0
M  V30 7065 H 656.981 2.55009 -0.364406 0
M  V30 7066 H 656.939 2.84446 1.33933 0
M  V30 7067 N 660.711 1.11618 1.11262 0
M  V30 7068 C 661.621 0.78898 2.20935 0
M  V30 7069 C 662.637 -0.21867 1.7262 0
M  V30 7070 O 663.813 -0.0543826 2.01327 0
M  V30 7071 C 660.878 0.239014 3.45875 0
M  V30 7072 C 659.939 1.3055 4.08968 0
M  V30 7073 C 659.172 0.781687 5.27944 0
M  V30 7074 O 659.395 -0.387605 5.69082 0
M  V30 7075 O 658.329 1.54734 5.81671 0
M  V30 7076 H 662.155 1.70477 2.51339 0
M  V30 7077 H 659.74 0.892203 1.19834 0
M  V30 7078 H 661.622 -0.0632312 4.21353 0
M  V30 7079 H 660.297 -0.649454 3.17118 0
M  V30 7080 H 659.204 1.66079 3.35214 0
M  V30 7081 H 660.537 2.16743 4.41909 0
M  V30 7082 N 662.189 -1.289 0.906776 0
M  V30 7083 C 663.438 -1.9455 0.532262 0
M  V30 7084 C 663.751 -1.72219 -0.927353 0
M  V30 7085 O 664.957 -2.32033 -1.40971 0
M  V30 7086 C 663.413 -3.48438 0.901041 0
M  V30 7087 C 663.021 -3.79558 2.37991 0
M  V30 7088 C 664.765 -4.20284 0.596777 0
M  V30 7089 C 662.672 -5.26723 2.68918 0
M  V30 7090 H 661.602 -0.728259 0.195333 0
M  V30 7091 H 664.253 -1.46519 1.10474 0
M  V30 7092 H 662.635 -3.95162 0.257419 0
M  V30 7093 H 663.809 -3.43668 3.06967 0
M  V30 7094 H 662.124 -3.20868 2.65391 0
M  V30 7095 H 664.721 -5.28612 0.8046 0
M  V30 7096 H 665.064 -4.13694 -0.465072 0
M  V30 7097 H 665.597 -3.79315 1.19855 0
M  V30 7098 H 662.336 -5.38384 3.73928 0
M  V30 7099 H 661.856 -5.63836 2.04571 0
M  V30 7100 H 663.535 -5.94391 2.55555 0
M  V30 7101 N 663.667 -0.670007 -1.42649 0
M  V30 7102 C 664.577 0.0114788 -2.34597 0
M  V30 7103 C 665.593 0.794055 -1.54825 0
M  V30 7104 O 666.769 0.737472 -1.87412 0
M  V30 7105 C 663.834 0.954436 -3.33304 0
M  V30 7106 C 662.895 0.166925 -4.28975 0
M  V30 7107 C 662.128 1.06497 -5.22967 0
M  V30 7108 O 662.351 2.30446 -5.21777 0
M  V30 7109 O 661.285 0.528347 -5.99577 0
M  V30 7110 H 665.111 -0.745794 -2.944 0
M  V30 7111 H 662.696 -0.430228 -1.43071 0
M  V30 7112 H 664.578 1.49589 -3.93956 0
M  V30 7113 H 663.253 1.69164 -2.7598 0
M  V30 7114 H 662.16 -0.418515 -3.71752 0
M  V30 7115 H 663.493 -0.531067 -4.89327 0
M  V30 7116 N 665.145 1.52092 -0.413018 0
M  V30 7117 C 666.055 2.30858 0.417318 0
M  V30 7118 C 667.071 1.38746 1.05003 0
M  V30 7119 O 668.247 1.71821 1.05069 0
M  V30 7120 C 665.312 3.11756 1.51687 0
M  V30 7121 C 664.373 4.19613 0.906825 0
M  V30 7122 C 663.606 4.96644 1.95399 0
M  V30 7123 O 663.829 4.7402 3.17271 0
M  V30 7124 O 662.763 5.81385 1.55805 0
M  V30 7125 H 666.589 3.02865 -0.225028 0
M  V30 7126 H 664.174 1.48358 -0.176126 0
M  V30 7127 H 666.056 3.62122 2.15512 0
M  V30 7128 H 664.731 2.42539 2.14375 0
M  V30 7129 H 663.638 3.73385 0.231183 0
M  V30 7130 H 664.971 4.91134 0.323814 0
M  V30 7131 N 666.623 0.143563 1.56945 0
M  V30 7132 C 667.556 -0.835367 2.1236 0
M  V30 7133 C 668.534 -1.24466 1.04627 0
M  V30 7134 O 669.718 -1.34138 1.32436 0
M  V30 7135 C 666.845 -2.12123 2.64048 0
M  V30 7136 C 665.891 -1.85812 3.83896 0
M  V30 7137 S 666.724 -1.05222 5.25061 0
M  V30 7138 C 667.88 -2.34935 5.80135 0
M  V30 7139 H 668.113 -0.364109 2.95062 0
M  V30 7140 H 665.646 -0.0706601 1.54238 0
M  V30 7141 H 667.604 -2.85993 2.94479 0
M  V30 7142 H 666.265 -2.56364 1.81483 0
M  V30 7143 H 665.458 -2.81151 4.18294 0
M  V30 7144 H 665.06 -1.20052 3.54208 0
M  V30 7145 H 667.352 -3.3061 5.91357 0
M  V30 7146 H 668.295 -2.05046 6.77762 0
M  V30 7147 H 668.703 -2.45426 5.08356 0
M  V30 7148 N 668.101 -1.57061 -0.130224 0
M  V30 7149 C 669.349 -1.83893 -0.838313 0
M  V30 7150 C 669.67 -0.727046 -1.80939 0
M  V30 7151 O 668.94 0.249927 -1.94299 0
M  V30 7152 H 667.52 -0.67846 -0.312573 0
M  V30 7153 H 670.182 -1.94529 -0.120224 0
M  V30 7154 H 669.278 -2.79419 -1.39038 0
M  V30 7155 N 669.579 0.400081 -1.52437 0
M  V30 7156 C 670.827 1.14392 -1.6661 0
M  V30 7157 C 671.148 1.90792 -0.402927 0
M  V30 7158 O 670.418 1.87042 0.582425 0
M  V30 7159 H 668.998 0.425275 -0.614125 0
M  V30 7160 H 671.66 0.455076 -1.89513 0
M  V30 7161 H 670.756 1.85298 -2.51139 0
M  V30 7162 N 671.057 1.43213 0.657864 0
M  V30 7163 C 671.99 1.42456 1.78273 0
M  V30 7164 C 672.968 0.286598 1.60054 0
M  V30 7165 O 674.152 0.479467 1.823 0
M  V30 7166 C 671.279 1.23169 3.15511 0
M  V30 7167 C 670.325 2.40181 3.52442 0
M  V30 7168 S 671.158 4.02729 3.52944 0
M  V30 7169 C 672.314 3.85816 4.92846 0
M  V30 7170 H 672.547 2.37642 1.78644 0
M  V30 7171 H 670.08 1.30188 0.830084 0
M  V30 7172 H 672.038 1.12728 3.94719 0
M  V30 7173 H 670.699 0.295398 3.12708 0
M  V30 7174 H 669.892 2.22478 4.52239 0
M  V30 7175 H 669.494 2.47224 2.80636 0
M  V30 7176 H 671.786 3.47853 5.81381 0
M  V30 7177 H 672.729 4.85348 5.15599 0
M  V30 7178 H 673.137 3.18361 4.66162 0
M  V30 7179 N 672.536 -0.895792 1.29666 0
M  V30 7180 C 673.499 -1.98189 1.15124 0
M  V30 7181 C 674.499 -1.60572 0.0855717 0
M  V30 7182 O 675.689 -1.70991 0.332826 0
M  V30 7183 C 672.821 -3.32289 0.761372 0
M  V30 7184 H 674.014 -2.12518 2.11603 0
M  V30 7185 H 671.567 -1.0808 1.12908 0
M  V30 7186 H 672.302 -3.23662 -0.203393 0
M  V30 7187 H 672.087 -3.60958 1.53139 0
M  V30 7188 H 673.577 -4.1198 0.682792 0
M  V30 7189 N 674.014 -1.12206 -1.10668 0
M  V30 7190 C 674.961 -0.787716 -2.16942 0
M  V30 7191 C 675.931 0.244442 -1.64291 0
M  V30 7192 O 677.116 0.119558 -1.90425 0
M  V30 7193 C 674.256 -0.24584 -3.44223 0
M  V30 7194 C 673.369 -1.33552 -4.10838 0
M  V30 7195 C 672.504 -0.753337 -5.25831 0
M  V30 7196 C 671.543 -1.82231 -5.84344 0
M  V30 7197 N 670.68 -1.25902 -6.90719 0
M  V30 7198 H 675.52 -1.69809 -2.44885 0
M  V30 7199 H 673.057 -0.847862 -1.20207 0
M  V30 7200 H 675.015 0.0863639 -4.17111 0
M  V30 7201 H 673.645 0.627702 -3.16638 0
M  V30 7202 H 672.697 -1.78454 -3.35944 0
M  V30 7203 H 674.009 -2.14396 -4.50373 0
M  V30 7204 H 673.163 -0.37166 -6.05561 0
M  V30 7205 H 671.902 0.0863297 -4.87624 0
M  V30 7206 H 670.907 -2.2132 -5.03287 0
M  V30 7207 H 672.132 -2.66515 -6.24617 0
M  V30 7208 H 670.078 -0.44114 -6.54515 0
M  V30 7209 H 669.995 -2.00408 -7.28953 0
M  V30 7210 H 671.263 -0.904498 -7.74235 0
M  V30 7211 N 675.492 1.28418 -0.913599 0
M  V30 7212 C 676.455 2.25564 -0.406624 0
M  V30 7213 C 677.455 1.5387 0.466965 0
M  V30 7214 O 678.645 1.72094 0.270042 0
M  V30 7215 C 675.777 3.38339 0.417053 0
M  V30 7216 H 676.97 2.71926 -1.26477 0
M  V30 7217 H 674.523 1.40098 -0.692986 0
M  V30 7218 H 675.258 2.97339 1.29461 0
M  V30 7219 H 675.043 3.91542 -0.209102 0
M  V30 7220 H 676.533 4.10578 0.762602 0
M  V30 7221 N 676.97 0.677563 1.42291 0
M  V30 7222 C 678.216 0.201272 2.01799 0
M  V30 7223 C 678.549 -1.19004 1.53465 0
M  V30 7224 O 677.824 -1.79953 0.738039 0
M  V30 7225 C 678.107 0.238968 3.59306 0
M  V30 7226 C 677.96 1.66594 4.17812 0
M  V30 7227 C 679.279 -0.411287 4.38174 0
M  V30 7228 H 676.398 0.0746114 0.733214 0
M  V30 7229 H 679.04 0.862872 1.69276 0
M  V30 7230 H 677.19 -0.324368 3.87144 0
M  V30 7231 H 678.862 2.28173 4.00917 0
M  V30 7232 H 677.105 2.20576 3.73536 0
M  V30 7233 H 677.776 1.64398 5.26951 0
M  V30 7234 H 680.252 0.0682804 4.16044 0
M  V30 7235 H 679.128 -0.354286 5.47755 0
M  V30 7236 H 679.389 -1.4893 4.1626 0
M  V30 7237 N 678.448 -1.51871 0.421078 0
M  V30 7238 C 679.411 -2.25914 -0.386712 0
M  V30 7239 C 680.411 -1.28733 -0.963555 0
M  V30 7240 O 681.601 -1.52579 -0.840556 0
M  V30 7241 C 678.733 -3.03853 -1.54551 0
M  V30 7242 H 679.926 -2.98754 0.261978 0
M  V30 7243 H 677.479 -1.5533 0.173862 0
M  V30 7244 H 678.214 -2.35392 -2.23072 0
M  V30 7245 H 677.999 -3.75215 -1.13824 0
M  V30 7246 H 679.489 -3.59984 -2.11663 0
M  V30 7247 N 679.926 -0.151884 -1.56866 0
M  V30 7248 C 680.836 0.798876 -2.20579 0
M  V30 7249 C 681.852 1.268 -1.19154 0
M  V30 7250 O 683.028 1.32418 -1.51748 0
M  V30 7251 C 680.093 2.01861 -2.81874 0
M  V30 7252 C 679.154 1.59825 -3.9844 0
M  V30 7253 C 678.387 2.75984 -4.56802 0
M  V30 7254 O 678.61 3.92331 -4.14044 0
M  V30 7255 O 677.544 2.51175 -5.46987 0
M  V30 7256 H 681.37 0.2865 -3.02346 0
M  V30 7257 H 678.955 0.0753806 -1.4921 0
M  V30 7258 H 680.837 2.73235 -3.20813 0
M  V30 7259 H 679.512 2.52042 -2.03117 0
M  V30 7260 H 678.419 0.854601 -3.64208 0
M  V30 7261 H 679.752 1.14355 -4.78731 0
M  V30 7262 N 681.404 1.57128 0.121893 0
M  V30 7263 C 682.652 1.84335 0.828548 0
M  V30 7264 C 682.973 0.736632 1.80551 0
M  V30 7265 O 682.243 -0.23962 1.94429 0
M  V30 7266 H 680.823 0.680108 0.30897 0
M  V30 7267 H 683.485 1.9459 0.109906 0
M  V30 7268 H 682.581 2.80152 1.37554 0
M  V30 7269 N 682.882 -0.391992 1.52647 0
M  V30 7270 C 684.131 -1.13449 1.6677 0
M  V30 7271 C 684.444 -1.91203 0.412399 0
M  V30 7272 O 685.65 -2.68013 0.433707 0
M  V30 7273 C 684.106 -2.06577 2.9471 0
M  V30 7274 C 683.714 -1.3426 4.27409 0
M  V30 7275 C 685.458 -2.80981 3.18198 0
M  V30 7276 C 683.365 -2.26136 5.46458 0
M  V30 7277 H 682.295 -0.427211 0.621295 0
M  V30 7278 H 684.946 -0.397522 1.79142 0
M  V30 7279 H 683.328 -2.83898 2.76076 0
M  V30 7280 H 684.502 -0.621856 4.56585 0
M  V30 7281 H 682.817 -0.718279 4.10158 0
M  V30 7282 H 685.414 -3.49898 4.04321 0
M  V30 7283 H 685.757 -3.44891 2.33144 0
M  V30 7284 H 686.29 -2.10754 3.37383 0
M  V30 7285 H 683.029 -1.66846 6.33911 0
M  V30 7286 H 682.549 -2.96134 5.21598 0
M  V30 7287 H 684.228 -2.86286 5.80215 0
M  V30 7288 N 684.36 -1.4356 -0.65026 0
M  V30 7289 C 685.771 -1.40324 -1.2315 0
M  V30 7290 C 686.122 -0.108812 -1.95898 0
M  V30 7291 O 685.247 0.79163 -2.01401 0
M  V30 7292 C 685.842 -2.54195 -2.23987 0
M  V30 7293 C 684.401 -2.54215 -2.77582 0
M  V30 7294 C 683.548 -2.31752 -1.5227 0
M  V30 7295 H 686.499 -1.52418 -0.442095 0
M  V30 7296 H 686.52 -2.25854 -3.0622 0
M  V30 7297 H 686.032 -3.48392 -1.71011 0
M  V30 7298 H 684.133 -1.63907 -3.34612 0
M  V30 7299 H 684.246 -3.52081 -3.24925 0
M  V30 7300 H 682.61 -1.80476 -1.79723 0
M  V30 7301 H 683.393 -3.28037 -1.01225 0
M  V30 7302 N 685.838 0.888903 -1.30139 0
M  V30 7303 C 686.785 1.99422 -1.16188 0
M  V30 7304 C 687.755 1.66017 -0.0523869 0
M  V30 7305 O 688.94 1.89506 -0.221864 0
M  V30 7306 C 686.08 3.34325 -0.855612 0
M  V30 7307 C 685.193 3.80445 -2.0466 0
M  V30 7308 C 684.328 5.03975 -1.67876 0
M  V30 7309 C 683.367 5.42492 -2.83493 0
M  V30 7310 N 682.504 6.57206 -2.47032 0
M  V30 7311 H 687.344 2.10687 -2.10749 0
M  V30 7312 H 684.881 1.03165 -1.04859 0
M  V30 7313 H 686.839 4.11968 -0.658681 0
M  V30 7314 H 685.469 3.22756 0.0531155 0
M  V30 7315 H 684.521 2.98745 -2.3549 0
M  V30 7316 H 685.833 4.04933 -2.91257 0
M  V30 7317 H 684.987 5.89232 -1.44535 0
M  V30 7318 H 683.726 4.8135 -0.784431 0
M  V30 7319 H 682.731 4.55764 -3.07505 0
M  V30 7320 H 683.956 5.67093 -3.73607 0
M  V30 7321 H 681.902 6.36164 -1.601 0
M  V30 7322 H 681.819 6.81543 -3.27161 0
M  V30 7323 H 683.087 7.45704 -2.27038 0
M  V30 7324 N 687.317 1.12792 1.10072 0
M  V30 7325 C 688.247 0.821688 2.18565 0
M  V30 7326 C 689.228 -0.21612 1.68721 0
M  V30 7327 O 690.413 -0.0764932 1.94049 0
M  V30 7328 C 687.543 0.279624 3.46172 0
M  V30 7329 C 686.497 1.25092 4.09312 0
M  V30 7330 C 685.823 0.568916 5.31665 0
M  V30 7331 C 687.123 2.60699 4.52585 0
M  V30 7332 H 688.817 1.72888 2.44438 0
M  V30 7333 H 686.363 0.832702 1.17482 0
M  V30 7334 H 688.316 0.053099 4.21367 0
M  V30 7335 H 687.04 -0.662929 3.19801 0
M  V30 7336 H 685.699 1.46332 3.36129 0
M  V30 7337 H 685.347 -0.378898 5.01571 0
M  V30 7338 H 685.047 1.21687 5.74862 0
M  V30 7339 H 686.571 0.351517 6.09587 0
M  V30 7340 H 687.985 2.43465 5.19035 0
M  V30 7341 H 686.382 3.21608 5.06644 0
M  V30 7342 H 687.452 3.1886 3.65317 0
M  V30 7343 N 688.795 -1.27931 0.920396 0
M  V30 7344 C 690.211 -1.47085 0.619537 0
M  V30 7345 C 690.411 -1.83463 -0.833291 0
M  V30 7346 O 689.467 -1.94363 -1.61181 0
M  V30 7347 C 690.78 -2.56878 1.56314 0
M  V30 7348 C 692.328 -2.70743 1.57058 0
M  V30 7349 C 692.803 -3.83687 2.50097 0
M  V30 7350 N 694.294 -3.9105 2.48262 0
M  V30 7351 C 695.029 -4.77842 3.16945 0
M  V30 7352 N 694.525 -5.69176 3.94982 0
M  V30 7353 N 696.318 -4.71509 3.06 0
M  V30 7354 H 688.469 -1.02601 1.85975 0
M  V30 7355 H 690.732 -0.511682 0.798051 0
M  V30 7356 H 690.438 -2.36923 2.59923 0
M  V30 7357 H 690.312 -3.54117 1.29928 0
M  V30 7358 H 692.699 -2.90083 0.541832 0
M  V30 7359 H 692.78 -1.74015 1.8749 0
M  V30 7360 H 692.424 -3.65101 3.53077 0
M  V30 7361 H 692.354 -4.79827 2.16964 0
M  V30 7362 H 694.845 -3.25738 1.91581 0
M  V30 7363 H 695.158 -6.32245 4.44394 0
M  V30 7364 H 693.503 -5.68995 3.99086 0
M  V30 7365 H 696.694 -3.99151 2.44533 0
M  V30 7366 H 696.867 -5.38933 3.59799 0
M  V30 7367 N 690.273 -0.685099 -1.4193 0
M  V30 7368 C 691.522 -0.208816 -2.00616 0
M  V30 7369 C 691.835 1.19506 -1.54847 0
M  V30 7370 O 693.041 1.76826 -2.06021 0
M  V30 7371 C 691.497 -0.322446 -3.58453 0
M  V30 7372 C 691.105 -1.73102 -4.13206 0
M  V30 7373 C 692.849 0.0945979 -4.24395 0
M  V30 7374 C 690.756 -1.79687 -5.63442 0
M  V30 7375 H 689.686 -0.0743092 -0.750329 0
M  V30 7376 H 692.337 -0.851778 -1.62533 0
M  V30 7377 H 690.719 0.388588 -3.94089 0
M  V30 7378 H 691.893 -2.46997 -3.8901 0
M  V30 7379 H 690.208 -2.09682 -3.59753 0
M  V30 7380 H 692.805 0.0656937 -5.3466 0
M  V30 7381 H 693.148 1.1316 -4.00625 0
M  V30 7382 H 693.681 -0.56579 -3.93756 0
M  V30 7383 H 690.42 -2.81404 -5.92024 0
M  V30 7384 H 689.94 -1.10162 -5.89597 0
M  V30 7385 H 691.619 -1.55498 -6.28036 0
M  V30 7386 N 691.751 1.51645 -0.429126 0
M  V30 7387 C 692.661 2.31288 0.392809 0
M  V30 7388 C 693.677 1.39852 1.03525 0
M  V30 7389 O 694.853 1.72926 1.03241 0
M  V30 7390 C 691.918 3.13347 1.48372 0
M  V30 7391 C 690.979 4.20551 0.862268 0
M  V30 7392 C 690.212 4.98688 1.9012 0
M  V30 7393 O 690.435 4.77359 3.12225 0
M  V30 7394 O 689.369 5.83005 1.4963 0
M  V30 7395 H 693.195 3.02609 -0.257138 0
M  V30 7396 H 690.78 1.48163 -0.191851 0
M  V30 7397 H 692.662 3.64387 2.1166 0
M  V30 7398 H 691.337 2.44799 2.1179 0
M  V30 7399 H 690.244 3.73609 0.191568 0
M  V30 7400 H 691.577 4.91449 0.271704 0
M  V30 7401 N 693.229 0.160201 1.56784 0
M  V30 7402 C 694.139 -0.787167 2.21 0
M  V30 7403 C 695.155 -1.26167 1.19825 0
M  V30 7404 O 696.331 -1.31611 1.52448 0
M  V30 7405 C 693.396 -2.00364 2.8294 0
M  V30 7406 C 692.457 -1.5771 3.99282 0
M  V30 7407 C 691.69 -2.73558 4.58259 0
M  V30 7408 O 691.913 -3.90129 4.16119 0
M  V30 7409 O 690.847 -2.48271 5.48311 0
M  V30 7410 H 694.673 -0.270462 3.02493 0
M  V30 7411 H 692.258 -0.0674666 1.49248 0
M  V30 7412 H 694.14 -2.71529 3.22257 0
M  V30 7413 H 692.815 -2.50961 2.04451 0
M  V30 7414 H 691.722 -0.835274 3.64656 0
M  V30 7415 H 693.055 -1.11815 4.79331 0
M  V30 7416 N 694.707 -1.5719 -0.113559 0
M  V30 7417 C 695.947 -1.86958 -0.82621 0
M  V30 7418 C 696.311 -0.748884 -1.76793 0
M  V30 7419 O 697.512 -0.92847 -2.52256 0
M  V30 7420 C 695.783 -3.21957 -1.55173 0
M  V30 7421 S 697.342 -3.73371 -2.3052 0
M  V30 7422 H 694.16 -0.655394 -0.275643 0
M  V30 7423 H 696.762 -1.95318 -0.0842684 0
M  V30 7424 H 695.466 -4.01459 -0.851977 0
M  V30 7425 H 694.997 -3.16688 -2.33393 0
M  V30 7426 H 697.012 -3.45308 -3.56338 0
M  V30 7427 N 696.185 0.383891 -1.52853 0
M  V30 7428 C 697.148 1.45197 -1.77343 0
M  V30 7429 C 698.148 1.47362 -0.643522 0
M  V30 7430 O 699.338 1.48443 -0.911613 0
M  V30 7431 C 696.47 2.8445 -1.87885 0
M  V30 7432 H 697.663 1.24764 -2.72716 0
M  V30 7433 H 695.216 0.615939 -1.43652 0
M  V30 7434 H 695.951 3.10222 -0.94515 0
M  V30 7435 H 695.736 2.8428 -2.70051 0
M  V30 7436 H 697.226 3.61832 -2.08488 0
M  V30 7437 N 697.663 1.43903 0.642637 0
M  V30 7438 C 698.626 1.49538 1.73698 0
M  V30 7439 C 699.626 0.378776 1.56275 0
M  V30 7440 O 700.816 0.64095 1.6198 0
M  V30 7441 C 697.948 1.35821 3.12675 0
M  V30 7442 H 699.141 2.47008 1.70079 0
M  V30 7443 H 696.694 1.30824 0.85526 0
M  V30 7444 H 697.429 0.393994 3.21898 0
M  V30 7445 H 697.214 2.16776 3.26727 0
M  V30 7446 H 698.704 1.4272 3.92455 0
M  V30 7447 N 699.141 -0.881989 1.30609 0
M  V30 7448 C 700.557 -1.16576 1.09005 0
M  V30 7449 C 700.757 -2.00961 -0.14727 0
M  V30 7450 O 699.813 -2.38117 -0.840036 0
M  V30 7451 C 701.126 -1.86954 2.35518 0
M  V30 7452 C 702.674 -1.99706 2.41011 0
M  V30 7453 C 703.149 -2.73497 3.67374 0
M  V30 7454 N 704.64 -2.8104 3.68199 0
M  V30 7455 C 705.375 -3.38718 4.62664 0
M  V30 7456 N 704.871 -3.97421 5.67475 0
M  V30 7457 N 706.664 -3.36561 4.50203 0
M  V30 7458 H 698.815 -0.319398 2.09985 0
M  V30 7459 H 701.078 -0.204058 0.925778 0
M  V30 7460 H 700.784 -1.32393 3.2583 0
M  V30 7461 H 700.658 -2.87317 2.44395 0
M  V30 7462 H 703.045 -2.53436 1.51176 0
M  V30 7463 H 703.126 -0.984218 2.36108 0
M  V30 7464 H 702.77 -2.20438 4.57569 0
M  V30 7465 H 702.7 -3.75163 3.6954 0
M  V30 7466 H 705.191 -2.39365 2.92426 0
M  V30 7467 H 705.504 -4.39507 6.35652 0
M  V30 7468 H 703.849 -3.95832 5.71264 0
M  V30 7469 H 707.04 -2.8993 3.67503 0
M  V30 7470 H 707.213 -3.81215 5.24003 0
M  V30 7471 N 700.619 -1.13374 -1.09472 0
M  V30 7472 C 702.035 -0.871846 -1.33682 0
M  V30 7473 C 702.235 0.492847 -1.9538 0
M  V30 7474 O 701.291 1.23946 -2.19985 0
M  V30 7475 C 702.604 -1.99608 -2.24893 0
M  V30 7476 C 704.152 -2.02812 -2.38404 0
M  V30 7477 C 704.627 -3.14497 -3.3295 0
M  V30 7478 N 706.118 -3.14004 -3.40523 0
M  V30 7479 C 706.853 -3.97061 -4.13679 0
M  V30 7480 N 706.349 -4.90131 -4.89636 0
M  V30 7481 N 708.142 -3.85162 -4.09398 0
M  V30 7482 H 700.293 -2.01288 -0.677995 0
M  V30 7483 H 702.556 -0.876492 -0.361201 0
M  V30 7484 H 702.262 -2.98 -1.86786 0
M  V30 7485 H 702.136 -1.90981 -3.25278 0
M  V30 7486 H 704.523 -1.05034 -2.75775 0
M  V30 7487 H 704.604 -2.15511 -1.37799 0
M  V30 7488 H 704.248 -4.12514 -2.96302 0
M  V30 7489 H 704.178 -2.99035 -4.33458 0
M  V30 7490 H 706.669 -2.46587 -2.86362 0
M  V30 7491 H 706.982 -5.49996 -5.42885 0
M  V30 7492 H 705.327 -4.94138 -4.88726 0
M  V30 7493 H 708.518 -3.11779 -3.49158 0
M  V30 7494 H 708.691 -4.5012 -4.6615 0
M  V30 7495 N 702.098 1.27442 -0.927168 0
M  V30 7496 C 703.03 2.25975 -0.383158 0
M  V30 7497 C 704.043 1.55382 0.485832 0
M  V30 7498 O 705.232 1.75986 0.298541 0
M  V30 7499 C 702.332 3.35629 0.469688 0
M  V30 7500 C 701.505 4.35747 -0.379886 0
M  V30 7501 C 700.564 5.24598 0.410227 0
M  V30 7502 O 699.59 5.68909 -0.181888 0
M  V30 7503 N 700.792 5.54737 1.71017 0
M  V30 7504 H 703.557 2.7329 -1.23015 0
M  V30 7505 H 701.118 1.41063 -0.794539 0
M  V30 7506 H 703.11 3.92015 1.00532 0
M  V30 7507 H 701.68 2.87919 1.21744 0
M  V30 7508 H 700.9 3.78634 -1.09682 0
M  V30 7509 H 702.188 4.99648 -0.960717 0
M  V30 7510 H 701.586 5.20594 2.21356 0
M  V30 7511 H 700.143 6.13824 2.19234 0
M  V30 7512 N 703.576 0.692616 1.41565 0
M  V30 7513 C 704.539 0.0344174 2.29174 0
M  V30 7514 C 705.539 -0.710961 1.44229 0
M  V30 7515 O 706.729 -0.546293 1.65412 0
M  V30 7516 C 703.861 -0.961682 3.27054 0
M  V30 7517 H 705.054 0.805755 2.88873 0
M  V30 7518 H 702.607 0.455947 1.49502 0
M  V30 7519 H 703.342 -1.76089 2.72329 0
M  V30 7520 H 703.127 -0.430375 3.89731 0
M  V30 7521 H 704.617 -1.4201 3.92712 0
M  V30 7522 N 705.054 -1.51416 0.437162 0
M  V30 7523 C 706.47 -1.59349 0.0894459 0
M  V30 7524 C 706.67 -1.44809 -1.40116 0
M  V30 7525 O 705.726 -1.28924 -2.17106 0
M  V30 7526 C 707.039 -2.9446 0.609398 0
M  V30 7527 C 708.587 -3.07769 0.569824 0
M  V30 7528 C 709.062 -4.45404 1.06675 0
M  V30 7529 N 710.553 -4.51723 1.02473 0
M  V30 7530 C 711.288 -5.56544 1.3801 0
M  V30 7531 N 710.784 -6.68784 1.80831 0
M  V30 7532 N 712.577 -5.46901 1.29828 0
M  V30 7533 H 704.728 -1.59112 1.40703 0
M  V30 7534 H 706.991 -0.750031 0.579791 0
M  V30 7535 H 706.697 -3.1047 1.65231 0
M  V30 7536 H 706.571 -3.77184 0.0342236 0
M  V30 7537 H 708.958 -2.91428 -0.464107 0
M  V30 7538 H 709.039 -2.26885 1.1814 0
M  V30 7539 H 708.683 -4.62492 2.09914 0
M  V30 7540 H 708.613 -5.24827 0.431712 0
M  V30 7541 H 711.104 -3.71165 0.710258 0
M  V30 7542 H 711.417 -7.44787 2.06185 0
M  V30 7543 H 709.762 -6.69992 1.84757 0
M  V30 7544 H 712.953 -4.581 0.962397 0
M  V30 7545 H 713.126 -6.2848 1.57851 0
M  V30 7546 N 706.532 -0.168513 -1.56696 0
M  V30 7547 C 707.781 0.477233 -1.95973 0
M  V30 7548 C 708.094 1.64578 -1.05704 0
M  V30 7549 O 709.3 2.35758 -1.3465 0
M  V30 7550 C 707.756 0.900413 -3.48455 0
M  V30 7551 C 707.364 -0.242382 -4.47344 0
M  V30 7552 C 709.108 1.51474 -3.96555 0
M  V30 7553 C 707.015 0.200272 -5.91061 0
M  V30 7554 H 705.945 0.182061 -0.73169 0
M  V30 7555 H 708.596 -0.256297 -1.81701 0
M  V30 7556 H 706.978 1.68984 -3.58135 0
M  V30 7557 H 708.152 -1.01967 -4.49377 0
M  V30 7558 H 706.467 -0.766484 -4.09285 0
M  V30 7559 H 709.064 1.85792 -5.01384 0
M  V30 7560 H 709.407 2.41163 -3.39332 0
M  V30 7561 H 709.94 0.789802 -3.89881 0
M  V30 7562 H 706.679 -0.661775 -6.52151 0
M  V30 7563 H 706.199 0.942979 -5.92341 0
M  V30 7564 H 707.878 0.645088 -6.43776 0
M  V30 7565 N 708.01 1.57248 0.105221 0
M  V30 7566 C 709.287 1.76566 0.841647 0
M  V30 7567 C 709.667 0.747566 1.9742 0
M  V30 7568 O 709.015 -0.225886 2.27381 0
M  V30 7569 C 709.225 3.22016 1.3456 0
M  V30 7570 C 710.573 3.84911 1.79244 0
M  V30 7571 O 711.597 3.25703 1.44207 0
M  V30 7572 O 710.456 4.89008 2.43995 0
M  V30 7573 H 707.55 0.723443 0.400698 0
M  V30 7574 H 710.096 1.69472 0.0878893 0
M  V30 7575 H 708.868 3.87644 0.533685 0
M  V30 7576 H 708.491 3.33703 2.16167 0
M  V30 7577 N 709.488 -0.375779 1.53054 0
M  V30 7578 C 710.713 -1.14484 1.7294 0
M  V30 7579 C 711.138 -1.82572 0.452668 0
M  V30 7580 O 710.496 -1.71343 -0.592567 0
M  V30 7581 C 710.544 -2.15857 2.88857 0
M  V30 7582 O 709.648 -3.22725 2.56753 0
M  V30 7583 H 708.989 -0.332666 0.574656 0
M  V30 7584 H 711.519 -0.436025 1.999 0
M  V30 7585 H 711.529 -2.59631 3.14731 0
M  V30 7586 H 710.204 -1.65689 3.81471 0
M  V30 7587 H 708.781 -2.83996 2.41663 0
M  V30 7588 N 710.966 -1.44241 -0.634997 0
M  V30 7589 C 712.214 -1.46531 -1.39187 0
M  V30 7590 C 712.535 -0.0976441 -1.94755 0
M  V30 7591 O 711.805 0.869528 -1.75545 0
M  V30 7592 H 710.385 -0.539544 -0.516625 0
M  V30 7593 H 713.047 -1.79989 -0.747655 0
M  V30 7594 H 712.143 -2.18848 -2.22513 0
M  V30 7595 N 712.444 0.87505 -1.31075 0
M  V30 7596 C 713.669 1.66583 -1.23551 0
M  V30 7597 C 714.094 1.87067 0.19686 0
M  V30 7598 O 713.452 1.40877 1.1412 0
M  V30 7599 C 713.5 3.01401 -1.97965 0
M  V30 7600 O 712.604 3.90923 -1.31351 0
M  V30 7601 H 711.945 0.508645 -0.426821 0
M  V30 7602 H 714.475 1.09139 -1.7306 0
M  V30 7603 H 714.485 3.51374 -2.07366 0
M  V30 7604 H 713.16 2.85812 -3.02133 0
M  V30 7605 H 711.737 3.49369 -1.30368 0
M  V30 7606 N 713.922 1.13953 1.08869 0
M  V30 7607 C 714.832 0.835666 2.19212 0
M  V30 7608 C 715.848 -0.182005 1.73045 0
M  V30 7609 O 717.024 -0.0116661 2.01397 0
M  V30 7610 C 714.089 0.312325 3.4529 0
M  V30 7611 C 713.15 1.39196 4.06107 0
M  V30 7612 C 712.383 0.893496 5.26168 0
M  V30 7613 O 712.606 -0.266807 5.69776 0
M  V30 7614 O 711.54 1.67037 5.78258 0
M  V30 7615 H 715.366 1.75769 2.47667 0
M  V30 7616 H 712.951 0.917421 1.17914 0
M  V30 7617 H 714.833 0.0261582 4.21392 0
M  V30 7618 H 713.508 -0.582042 3.18424 0
M  V30 7619 H 712.415 1.73152 3.31616 0
M  V30 7620 H 713.748 2.26068 4.37212 0
M  V30 7621 N 715.4 -1.26948 0.933913 0
M  V30 7622 C 716.646 -1.94374 0.57848 0
M  V30 7623 C 716.979 -1.73166 -0.879048 0
M  V30 7624 O 716.254 -1.06438 -1.62792 0
M  V30 7625 C 716.537 -3.4834 0.912739 0
M  V30 7626 C 716.39 -3.78866 2.42448 0
M  V30 7627 C 717.709 -4.38062 0.423003 0
M  V30 7628 H 714.828 -0.705959 0.211639 0
M  V30 7629 H 717.47 -1.49951 1.16682 0
M  V30 7630 H 715.62 -3.86309 0.412058 0
M  V30 7631 H 717.292 -3.50654 2.99733 0
M  V30 7632 H 715.535 -3.25198 2.87104 0
M  V30 7633 H 716.206 -4.86458 2.60887 0
M  V30 7634 H 718.682 -4.0728 0.852191 0
M  V30 7635 H 717.558 -5.44599 0.685776 0
M  V30 7636 H 717.819 -4.36886 -0.676994 0
M  V30 7637 N 716.879 -0.700114 -1.41195 0
M  V30 7638 C 718.128 -0.230082 -2.00383 0
M  V30 7639 C 718.441 1.17857 -1.56106 0
M  V30 7640 O 719.647 1.74631 -2.07885 0
M  V30 7641 C 718.103 -0.360447 -3.5809 0
M  V30 7642 C 717.711 -1.77475 -4.11347 0
M  V30 7643 C 719.455 0.0495799 -4.24471 0
M  V30 7644 C 717.362 -1.85653 -5.61504 0
M  V30 7645 H 716.292 -0.0822633 -0.749499 0
M  V30 7646 H 718.943 -0.868969 -1.6162 0
M  V30 7647 H 717.325 0.346768 -3.94479 0
M  V30 7648 H 718.499 -2.51109 -3.86369 0
M  V30 7649 H 716.814 -2.13486 -3.57509 0
M  V30 7650 H 719.411 0.00898219 -5.34699 0
M  V30 7651 H 719.754 1.08904 -4.01803 0
M  V30 7652 H 720.287 -0.607521 -3.93134 0
M  V30 7653 H 717.026 -2.87667 -5.89006 0
M  V30 7654 H 716.546 -1.1641 -5.88395 0
M  V30 7655 H 718.225 -1.62151 -6.26351 0
M  V30 7656 N 718.357 1.51182 -0.445186 0
M  V30 7657 C 719.603 2.02452 0.11882 0
M  V30 7658 C 719.936 1.32824 1.41673 0
M  V30 7659 O 719.211 0.445637 1.89326 0
M  V30 7660 C 719.494 3.5859 0.329475 0
M  V30 7661 C 719.347 4.38823 -0.987638 0
M  V30 7662 C 720.666 4.26241 1.09575 0
M  V30 7663 H 717.785 0.735819 0.0417092 0
M  V30 7664 H 720.427 1.80747 -0.585718 0
M  V30 7665 H 718.577 3.77214 0.9296 0
M  V30 7666 H 720.249 4.3183 -1.62235 0
M  V30 7667 H 718.492 4.03594 -1.59041 0
M  V30 7668 H 719.163 5.46257 -0.794192 0
M  V30 7669 H 721.639 4.11934 0.587328 0
M  V30 7670 H 720.515 5.35354 1.21191 0
M  V30 7671 H 720.776 3.87635 2.12584 0
M  V30 7672 N 719.835 0.176821 1.56605 0
M  V30 7673 C 721.083 -0.465793 1.96659 0
M  V30 7674 C 721.404 -1.63406 1.06412 0
M  V30 7675 O 720.674 -1.95457 0.131603 0
M  V30 7676 H 719.254 -0.175072 0.726195 0
M  V30 7677 H 721.916 0.25929 1.93168 0
M  V30 7678 H 721.012 -0.822138 3.01077 0
M  V30 7679 N 721.313 -1.57302 -0.09688 0
M  V30 7680 C 722.559 -1.86273 -0.801885 0
M  V30 7681 C 722.892 -0.765694 -1.78468 0
M  V30 7682 O 722.167 0.226495 -1.93177 0
M  V30 7683 C 722.45 -3.25876 -1.53221 0
M  V30 7684 C 722.303 -4.46205 -0.567529 0
M  V30 7685 C 723.622 -3.63352 -2.48321 0
M  V30 7686 H 720.741 -0.67752 -0.29006 0
M  V30 7687 H 723.383 -1.89887 -0.0655577 0
M  V30 7688 H 721.533 -3.22926 -2.15988 0
M  V30 7689 H 723.205 -4.6127 0.0529982 0
M  V30 7690 H 721.448 -4.33636 0.119233 0
M  V30 7691 H 722.119 -5.40608 -1.11564 0
M  V30 7692 H 724.595 -3.67234 -1.95648 0
M  V30 7693 H 723.471 -4.61968 -2.9644 0
M  V30 7694 H 723.732 -2.91941 -3.31998 0
M  V30 7695 N 722.791 0.367657 -1.53252 0
M  V30 7696 C 723.739 1.47061 -1.8021 0
M  V30 7697 C 724.733 1.55539 -0.671112 0
M  V30 7698 O 725.939 1.58451 -0.854014 0
M  V30 7699 H 722.314 0.489868 -0.570555 0
M  V30 7700 H 724.285 1.21527 -2.72532 0
M  V30 7701 C 723.034 2.83924 -2.00706 0
M  V30 7702 H 722.357 2.78158 -2.87172 0
M  V30 7703 H 723.797 3.60281 -2.23547 0
M  V30 7704 C 722.256 3.27613 -0.785568 0
M  V30 7705 O 722.786 4.01691 0.0267459 0
M  V30 7706 N 720.992 2.84134 -0.609597 0
M  V30 7707 H 720.539 2.24017 -1.27178 0
M  V30 7708 H 720.497 3.13723 0.206281 0
M  V30 7709 N 724.269 1.44576 0.627338 0
M  V30 7710 C 725.216 1.51734 1.73912 0
M  V30 7711 C 726.186 0.364745 1.62046 0
M  V30 7712 O 727.371 0.575503 1.81914 0
M  V30 7713 C 724.511 1.47116 3.12171 0
M  V30 7714 C 723.624 2.72778 3.34986 0
M  V30 7715 C 722.759 2.59968 4.63239 0
M  V30 7716 C 721.798 3.80776 4.79245 0
M  V30 7717 N 720.935 3.66618 5.98778 0
M  V30 7718 H 725.775 2.46722 1.6713 0
M  V30 7719 H 723.312 1.22444 0.815224 0
M  V30 7720 H 725.27 1.42429 3.92135 0
M  V30 7721 H 723.9 0.556928 3.17959 0
M  V30 7722 H 722.952 2.87637 2.48936 0
M  V30 7723 H 724.264 3.62441 3.42692 0
M  V30 7724 H 723.418 2.53135 5.51369 0
M  V30 7725 H 722.157 1.67872 4.57898 0
M  V30 7726 H 721.162 3.87989 3.89544 0
M  V30 7727 H 722.387 4.73913 4.86398 0
M  V30 7728 H 720.333 2.77277 5.9452 0
M  V30 7729 H 720.25 4.499 6.07557 0
M  V30 7730 H 721.518 3.63684 6.89459 0
M  V30 7731 N 725.747 -0.868086 1.31537 0
M  V30 7732 C 726.977 -1.65162 1.24118 0
M  V30 7733 C 727.385 -1.88187 -0.195558 0
M  V30 7734 O 726.728 -1.44154 -1.13866 0
M  V30 7735 C 726.79 -3.04119 1.91708 0
M  V30 7736 C 726.454 -3.04194 3.4105 0
M  V30 7737 C 727.451 -2.82016 4.36764 0
M  V30 7738 C 725.136 -3.25256 3.82772 0
M  V30 7739 C 727.13 -2.80881 5.72175 0
M  V30 7740 C 724.817 -3.23749 5.18295 0
M  V30 7741 C 725.815 -3.01589 6.12808 0
M  V30 7742 O 725.503 -2.9993 7.45853 0
M  V30 7743 H 725.235 -0.521597 0.430015 0
M  V30 7744 H 727.789 -1.09165 1.73989 0
M  V30 7745 H 726.019 -3.61849 1.36389 0
M  V30 7746 H 727.708 -3.64701 1.78179 0
M  V30 7747 H 728.474 -2.65525 4.05859 0
M  V30 7748 H 724.353 -3.41534 3.09638 0
M  V30 7749 H 727.897 -2.63503 6.45919 0
M  V30 7750 H 723.794 -3.39781 5.48834 0
M  V30 7751 H 724.562 -3.15979 7.55049 0
M  V30 7752 N 727.225 -1.14528 -1.08264 0
M  V30 7753 C 728.157 -0.791325 -2.15106 0
M  V30 7754 C 729.17 0.192449 -1.61659 0
M  V30 7755 O 730.359 -0.0294704 -1.78476 0
M  V30 7756 C 727.459 -0.154183 -3.38549 0
M  V30 7757 C 726.632 -1.17305 -4.21377 0
M  V30 7758 C 725.691 -0.559401 -5.23218 0
M  V30 7759 O 724.717 -1.22277 -5.55911 0
M  V30 7760 N 725.919 0.663159 -5.767 0
M  V30 7761 H 728.684 -1.71076 -2.46075 0
M  V30 7762 H 726.245 -1.0399 -1.24087 0
M  V30 7763 H 728.237 0.268884 -4.03806 0
M  V30 7764 H 726.807 0.668418 -3.0537 0
M  V30 7765 H 726.027 -1.773 -3.52077 0
M  V30 7766 H 727.315 -1.86128 -4.73533 0
M  V30 7767 H 726.713 1.22066 -5.52373 0
M  V30 7768 H 725.27 1.02871 -6.43631 0
M  V30 7769 N 728.703 1.26451 -0.940633 0
M  V30 7770 C 729.633 2.28773 -0.467479 0
M  V30 7771 C 730.614 1.63218 0.478955 0
M  V30 7772 O 731.799 1.90427 0.380929 0
M  V30 7773 C 728.929 3.46259 0.268656 0
M  V30 7774 C 727.883 4.23898 -0.591171 0
M  V30 7775 C 727.209 5.33993 0.274891 0
M  V30 7776 C 728.509 4.87974 -1.86223 0
M  V30 7777 H 730.203 2.68601 -1.32265 0
M  V30 7778 H 727.749 1.29123 -0.637436 0
M  V30 7779 H 729.702 4.16951 0.610696 0
M  V30 7780 H 728.426 3.05383 1.15796 0
M  V30 7781 H 727.085 3.54969 -0.916098 0
M  V30 7782 H 726.733 4.89358 1.16353 0
M  V30 7783 H 726.433 5.86849 -0.297006 0
M  V30 7784 H 727.957 6.07523 0.612213 0
M  V30 7785 H 729.371 5.50883 -1.58747 0
M  V30 7786 H 727.768 5.50945 -2.37866 0
M  V30 7787 H 728.838 4.10945 -2.57394 0
M  V30 7788 N 730.181 0.707592 1.40822 0
M  V30 7789 C 731.091 0.0507246 2.34545 0
M  V30 7790 C 732.107 -0.752727 1.56876 0
M  V30 7791 O 733.283 -0.687524 1.89302 0
M  V30 7792 C 730.348 -0.865731 3.35717 0
M  V30 7793 C 729.409 -0.0531313 4.29267 0
M  V30 7794 C 728.642 -0.925939 5.25606 0
M  V30 7795 O 728.865 -2.16531 5.27703 0
M  V30 7796 O 727.799 -0.369194 6.00767 0
M  V30 7797 H 731.625 0.823587 2.9232 0
M  V30 7798 H 729.21 0.46801 1.4188 0
M  V30 7799 H 731.092 -1.39091 3.97783 0
M  V30 7800 H 729.767 -1.61788 2.80368 0
M  V30 7801 H 728.674 0.516931 3.70511 0
M  V30 7802 H 730.007 0.660617 4.87747 0
M  V30 7803 N 731.66 -1.50943 0.453197 0
M  V30 7804 C 732.607 -2.28128 -0.350197 0
M  V30 7805 C 733.577 -1.32398 -1.00299 0
M  V30 7806 O 734.762 -1.61319 -1.01887 0
M  V30 7807 C 731.902 -3.13782 -1.43649 0
M  V30 7808 C 731.015 -4.24523 -0.800255 0
M  V30 7809 C 730.15 -4.97462 -1.86293 0
M  V30 7810 C 729.189 -6.00102 -1.20598 0
M  V30 7811 N 728.326 -6.66387 -2.21071 0
M  V30 7812 H 733.166 -2.96337 0.31434 0
M  V30 7813 H 730.703 -1.46151 0.166863 0
M  V30 7814 H 732.661 -3.6178 -2.07776 0
M  V30 7815 H 731.291 -2.47655 -2.07044 0
M  V30 7816 H 730.343 -3.80371 -0.0468651 0
M  V30 7817 H 731.655 -4.98009 -0.280777 0
M  V30 7818 H 730.809 -5.49088 -2.58044 0
M  V30 7819 H 729.548 -4.23642 -2.41617 0
M  V30 7820 H 728.553 -5.47753 -0.474 0
M  V30 7821 H 729.778 -6.75887 -0.659859 0
M  V30 7822 H 727.724 -5.9537 -2.75446 0
M  V30 7823 H 727.641 -7.3569 -1.74058 0
M  V30 7824 H 728.909 -7.22638 -2.92257 0
M  V30 7825 N 733.138 -0.185124 -1.56509 0
M  V30 7826 C 734.048 0.751908 -2.22224 0
M  V30 7827 C 735.064 1.24244 -1.21817 0
M  V30 7828 O 736.24 1.29169 -1.54523 0
M  V30 7829 C 733.305 1.95837 -2.86092 0
M  V30 7830 C 732.366 1.51337 -4.01741 0
M  V30 7831 C 731.599 2.66233 -4.62554 0
M  V30 7832 O 731.822 3.8346 -4.22273 0
M  V30 7833 O 730.756 2.39517 -5.52191 0
M  V30 7834 H 734.582 0.222304 -3.02885 0
M  V30 7835 H 732.167 0.0437141 -1.49336 0
M  V30 7836 H 734.049 2.66368 -3.26536 0
M  V30 7837 H 732.724 2.47677 -2.08417 0
M  V30 7838 H 731.631 0.777155 -3.65939 0
M  V30 7839 H 732.964 1.04175 -4.81049 0
M  V30 7840 N 734.616 1.57351 0.0885366 0
M  V30 7841 C 735.893 1.77449 0.822873 0
M  V30 7842 C 736.273 0.768463 1.96616 0
M  V30 7843 O 735.621 -0.201757 2.27608 0
M  V30 7844 C 735.831 3.23425 1.31137 0
M  V30 7845 C 737.179 3.86791 1.75152 0
M  V30 7846 O 738.203 3.27215 1.40745 0
M  V30 7847 O 737.062 4.91568 2.38794 0
M  V30 7848 H 734.156 0.727653 0.393002 0
M  V30 7849 H 736.702 1.69556 0.0699095 0
M  V30 7850 H 735.474 3.88188 0.49254 0
M  V30 7851 H 735.097 3.35977 2.12615 0
M  V30 7852 N 736.094 -0.359525 1.53444 0
M  V30 7853 C 737.057 -1.42357 1.7963 0
M  V30 7854 C 738.057 -1.46319 0.666884 0
M  V30 7855 O 739.247 -1.46974 0.935113 0
M  V30 7856 C 736.379 -2.81425 1.92387 0
M  V30 7857 H 737.572 -1.20409 2.74666 0
M  V30 7858 H 735.125 -0.593007 1.44614 0
M  V30 7859 H 735.86 -3.08679 0.994384 0
M  V30 7860 H 735.645 -2.79947 2.74539 0
M  V30 7861 H 737.135 -3.5847 2.14218 0
M  V30 7862 N 737.572 -1.44907 -0.619662 0
M  V30 7863 C 738.818 -1.48512 -1.38102 0
M  V30 7864 C 739.151 -0.121686 -1.93818 0
M  V30 7865 O 738.426 0.862256 -1.74343 0
M  V30 7866 C 738.709 -2.55469 -2.53787 0
M  V30 7867 C 738.562 -4.01212 -2.03345 0
M  V30 7868 C 739.881 -2.58821 -3.55949 0
M  V30 7869 H 737 -0.540712 -0.500799 0
M  V30 7870 H 739.642 -1.7665 -0.69962 0
M  V30 7871 H 737.792 -2.31606 -3.11915 0
M  V30 7872 H 739.464 -4.36245 -1.49959 0
M  V30 7873 H 737.707 -4.12443 -1.34438 0
M  V30 7874 H 738.378 -4.71717 -2.86683 0
M  V30 7875 H 740.854 -2.80172 -3.07641 0
M  V30 7876 H 739.73 -3.35542 -4.34399 0
M  V30 7877 H 739.991 -1.63451 -4.10775 0
M  V30 7878 N 739.05 0.861098 -1.31996 0
M  V30 7879 C 739.96 2.00154 -1.22374 0
M  V30 7880 C 740.976 1.73447 -0.138631 0
M  V30 7881 O 742.152 1.98191 -0.358104 0
M  V30 7882 C 739.217 3.33696 -0.940645 0
M  V30 7883 C 738.278 3.73668 -2.11355 0
M  V30 7884 C 737.511 5.00837 -1.84386 0
M  V30 7885 O 737.734 5.64996 -0.783287 0
M  V30 7886 O 736.668 5.37787 -2.70313 0
M  V30 7887 H 740.494 2.11207 -2.18233 0
M  V30 7888 H 738.079 0.990768 -1.11822 0
M  V30 7889 H 739.961 4.13756 -0.798987 0
M  V30 7890 H 738.636 3.23698 -0.0121636 0
M  V30 7891 H 737.543 2.94211 -2.31065 0
M  V30 7892 H 738.876 3.88303 -3.02459 0
M  V30 7893 N 740.528 1.15101 1.07655 0
M  V30 7894 C 741.774 0.925343 1.80458 0
M  V30 7895 C 742.107 -0.546354 1.86356 0
M  V30 7896 O 741.382 -1.40496 1.34503 0
M  V30 7897 C 741.665 1.53646 3.25676 0
M  V30 7898 C 741.518 3.07854 3.27942 0
M  V30 7899 C 742.837 1.21968 4.22861 0
M  V30 7900 H 739.956 0.337592 0.655134 0
M  V30 7901 H 742.598 1.42217 1.25993 0
M  V30 7902 H 740.748 1.11395 3.72187 0
M  V30 7903 H 742.42 3.58989 2.89697 0
M  V30 7904 H 740.663 3.41904 2.66991 0
M  V30 7905 H 741.334 3.45725 4.30324 0
M  V30 7906 H 743.81 1.5851 3.84726 0
M  V30 7907 H 742.686 1.67349 5.22767 0
M  V30 7908 H 742.947 0.136207 4.4189 0
M  V30 7909 N 742.006 -1.2595 0.947325 0
M  V30 7910 C 742.936 -2.28521 0.479604 0
M  V30 7911 C 743.917 -1.63469 -0.470293 0
M  V30 7912 O 745.102 -1.90627 -0.370824 0
M  V30 7913 C 742.232 -3.46397 -0.250289 0
M  V30 7914 C 741.186 -4.23578 0.613643 0
M  V30 7915 C 740.512 -5.34131 -0.246568 0
M  V30 7916 C 741.812 -4.86979 1.88809 0
M  V30 7917 H 743.506 -2.67895 1.33688 0
M  V30 7918 H 741.052 -1.28783 0.644274 0
M  V30 7919 H 743.005 -4.17269 -0.588576 0
M  V30 7920 H 741.729 -3.05993 -1.14175 0
M  V30 7921 H 740.388 -3.54478 0.93491 0
M  V30 7922 H 740.036 -4.89968 -1.13756 0
M  V30 7923 H 739.736 -5.86683 0.328123 0
M  V30 7924 H 741.26 -6.07839 -0.579986 0
M  V30 7925 H 742.674 -5.50034 1.61666 0
M  V30 7926 H 741.071 -5.49675 2.40784 0
M  V30 7927 H 742.141 -4.09575 2.5957 0
M  V30 7928 N 743.484 -0.715051 -1.40445 0
M  V30 7929 C 744.447 -0.0708726 -2.2909 0
M  V30 7930 C 745.447 0.687926 -1.45342 0
M  V30 7931 O 746.637 0.519908 -1.66261 0
M  V30 7932 C 743.769 0.909528 -3.28543 0
M  V30 7933 H 744.962 -0.851611 -2.87555 0
M  V30 7934 H 742.515 -0.479674 -1.48758 0
M  V30 7935 H 743.25 1.71734 -2.75096 0
M  V30 7936 H 743.035 0.368318 -3.90366 0
M  V30 7937 H 744.525 1.35744 -3.94922 0
M  V30 7938 N 744.962 1.50701 -0.461195 0
M  V30 7939 C 746.211 2.01458 0.0988277 0
M  V30 7940 C 746.524 1.34863 1.41673 0
M  V30 7941 O 747.73 1.76721 2.06111 0
M  V30 7942 C 746.186 3.59186 0.226648 0
M  V30 7943 C 745.794 4.34732 -1.08223 0
M  V30 7944 C 747.538 4.18015 0.73916 0
M  V30 7945 C 745.445 5.8422 -0.918747 0
M  V30 7946 H 744.375 0.7529 0.040709 0
M  V30 7947 H 747.026 1.736 -0.594589 0
M  V30 7948 H 745.408 3.83589 0.983621 0
M  V30 7949 H 746.582 4.22059 -1.84939 0
M  V30 7950 H 744.897 3.87466 -1.52509 0
M  V30 7951 H 747.494 5.27436 0.878347 0
M  V30 7952 H 747.837 3.78746 1.72793 0
M  V30 7953 H 748.37 3.9778 0.0398469 0
M  V30 7954 H 745.109 6.27944 -1.88059 0
M  V30 7955 H 744.629 5.99493 -0.191801 0
M  V30 7956 H 746.308 6.44382 -0.581405 0
M  V30 7957 N 746.441 0.193421 1.56409 0
M  V30 7958 C 747.718 -0.493318 1.89277 0
M  V30 7959 C 748.098 -1.79765 1.10669 0
M  V30 7960 O 747.446 -2.27558 0.207274 0
M  V30 7961 C 747.656 -0.713732 3.41624 0
M  V30 7962 C 749.004 -1.03385 4.11821 0
M  V30 7963 O 750.028 -0.801511 3.47065 0
M  V30 7964 O 748.887 -1.47327 5.26267 0
M  V30 7965 H 745.981 -0.256973 0.786062 0
M  V30 7966 H 748.527 0.23351 1.68086 0
M  V30 7967 H 747.299 0.207446 3.9075 0
M  V30 7968 H 746.922 -1.49308 3.68501 0
M  V30 7969 N 747.919 -1.57396 -0.0801906 0
M  V30 7970 C 748.867 -2.04136 -1.11495 0
M  V30 7971 C 749.861 -0.945137 -1.40583 0
M  V30 7972 O 751.067 -1.13028 -1.40088 0
M  V30 7973 H 747.442 -0.65076 -0.37685 0
M  V30 7974 H 749.413 -2.90205 -0.694526 0
M  V30 7975 C 748.162 -2.49399 -2.42272 0
M  V30 7976 H 747.485 -3.33339 -2.20737 0
M  V30 7977 H 748.925 -2.85864 -3.13142 0
M  V30 7978 C 747.384 -1.37341 -3.07635 0
M  V30 7979 O 747.914 -0.710829 -3.95361 0
M  V30 7980 N 746.12 -1.12064 -2.68123 0
M  V30 7981 H 745.667 -1.66126 -1.96875 0
M  V30 7982 H 745.625 -0.372916 -3.12181 0
M  V30 7983 N 749.397 0.351382 -1.53633 0
M  V30 7984 C 750.625 1.11275 -1.74429 0
M  V30 7985 C 751.04 1.82602 -0.479798 0
M  V30 7986 O 750.397 1.74074 0.548125 0
M  V30 7987 C 750.448 2.13223 -2.91921 0
M  V30 7988 O 750.169 1.44798 -4.13479 0
M  V30 7989 C 751.67 3.01797 -3.24706 0
M  V30 7990 H 748.89 0.332153 -0.583023 0
M  V30 7991 H 751.434 0.405974 -2.0043 0
M  V30 7992 H 749.589 2.79477 -2.68274 0
M  V30 7993 H 750.003 2.12839 -4.79374 0
M  V30 7994 H 751.477 3.69282 -4.10286 0
M  V30 7995 H 751.954 3.67387 -2.40673 0
M  V30 7996 H 752.56 2.41141 -3.5033 0
M  V30 7997 N 750.875 1.45233 0.611969 0
M  V30 7998 C 752.1 1.52767 1.40274 0
M  V30 7999 C 752.525 0.159701 1.87421 0
M  V30 8000 O 751.883 -0.854837 1.59882 0
M  V30 8001 C 751.931 2.51286 2.58626 0
M  V30 8002 O 751.035 2.02764 3.59111 0
M  V30 8003 H 750.376 0.515141 0.418958 0
M  V30 8004 H 752.906 1.90547 0.745188 0
M  V30 8005 H 752.916 2.69949 3.05927 0
M  V30 8006 H 751.591 3.50641 2.23659 0
M  V30 8007 H 750.168 1.93957 3.18489 0
M  V30 8008 N 752.353 -0.854086 1.3245 0
M  V30 8009 C 753.599 -1.61069 1.23225 0
M  V30 8010 C 753.932 -1.93111 -0.205349 0
M  V30 8011 O 753.207 -1.57397 -1.14265 0
M  V30 8012 C 753.49 -2.93065 2.09249 0
M  V30 8013 C 753.343 -2.67801 3.6139 0
M  V30 8014 C 754.662 -3.94341 1.95406 0
M  V30 8015 H 751.781 -0.584449 0.448986 0
M  V30 8016 H 754.423 -0.986189 1.62402 0
M  V30 8017 H 752.573 -3.46364 1.75967 0
M  V30 8018 H 754.245 -2.21052 4.04887 0
M  V30 8019 H 752.488 -2.01756 3.84027 0
M  V30 8020 H 753.159 -3.6179 4.16907 0
M  V30 8021 H 755.635 -3.50301 2.24562 0
M  V30 8022 H 754.511 -4.84555 2.57872 0
M  V30 8023 H 754.772 -4.32382 0.921865 0
M  V30 8024 N 753.831 -1.1567 -1.07043 0
M  V30 8025 C 755.247 -0.900006 -1.31803 0
M  V30 8026 C 755.447 0.451293 -1.96381 0
M  V30 8027 O 754.503 1.19252 -2.22565 0
M  V30 8028 C 755.816 -2.04334 -2.20609 0
M  V30 8029 C 757.364 -2.07823 -2.34048 0
M  V30 8030 C 757.839 -3.21488 -3.26204 0
M  V30 8031 N 759.33 -3.21156 -3.33786 0
M  V30 8032 C 760.065 -4.05746 -4.05163 0
M  V30 8033 N 759.561 -5.00407 -4.79129 0
M  V30 8034 N 761.354 -3.93759 -4.01136 0
M  V30 8035 H 753.505 -2.02681 -0.635146 0
M  V30 8036 H 755.768 -0.883956 -0.342528 0
M  V30 8037 H 755.474 -3.01895 -1.80423 0
M  V30 8038 H 755.348 -1.97838 -3.21154 0
M  V30 8039 H 757.735 -1.1086 -2.73485 0
M  V30 8040 H 757.816 -2.18386 -1.33197 0
M  V30 8041 H 757.46 -4.18706 -2.87485 0
M  V30 8042 H 757.39 -3.08162 -4.27017 0
M  V30 8043 H 759.881 -2.52606 -2.81067 0
M  V30 8044 H 760.194 -5.61387 -5.31097 0
M  V30 8045 H 758.539 -5.04393 -4.78135 0
M  V30 8046 H 761.73 -3.19115 -3.42466 0
M  V30 8047 H 761.903 -4.59906 -4.56498 0
M  V30 8048 N 755.309 1.25446 -0.953992 0
M  V30 8049 C 756.257 2.27909 -0.46478 0
M  V30 8050 C 757.251 1.62904 0.464607 0
M  V30 8051 O 758.457 1.76733 0.341407 0
M  V30 8052 H 754.832 0.74036 -0.131798 0
M  V30 8053 H 756.803 2.66559 -1.34122 0
M  V30 8054 C 755.552 3.46853 0.242589 0
M  V30 8055 H 754.875 3.97105 -0.463418 0
M  V30 8056 H 756.315 4.20432 0.548919 0
M  V30 8057 C 754.774 3.03386 1.46487 0
M  V30 8058 O 755.304 3.09342 2.56262 0
M  V30 8059 N 753.51 2.58584 1.32599 0
M  V30 8060 H 753.057 2.53938 0.432834 0
M  V30 8061 H 753.015 2.29866 2.14497 0
M  V30 8062 N 756.787 0.722489 1.40064 0
M  V30 8063 C 758.203 0.396758 1.5459 0
M  V30 8064 C 758.403 -1.09375 1.69232 0
M  V30 8065 O 757.459 -1.87984 1.68578 0
M  V30 8066 C 758.772 1.16885 2.77053 0
M  V30 8067 C 760.32 1.15583 2.90877 0
M  V30 8068 C 760.795 1.91023 4.16262 0
M  V30 8069 N 762.286 1.88126 4.23276 0
M  V30 8070 C 763.021 2.43315 5.19216 0
M  V30 8071 N 762.517 3.07089 6.21022 0
M  V30 8072 N 764.31 2.33418 5.11344 0
M  V30 8073 H 756.461 1.68887 1.28806 0
M  V30 8074 H 758.724 0.714231 0.62336 0
M  V30 8075 H 758.43 2.22301 2.72534 0
M  V30 8076 H 758.304 0.765011 3.69361 0
M  V30 8077 H 760.691 0.10984 2.94896 0
M  V30 8078 H 760.772 1.59895 1.99668 0
M  V30 8079 H 760.416 2.95616 4.13006 0
M  V30 8080 H 760.346 1.44126 5.06493 0
M  V30 8081 H 762.837 1.41654 3.50346 0
M  V30 8082 H 763.15 3.467 6.90666 0
M  V30 8083 H 761.495 3.11175 6.21446 0
M  V30 8084 H 764.686 1.83248 4.30741 0
M  V30 8085 H 764.859 2.7673 5.85939 0
M  V30 8086 N 758.265 -1.50454 0.469181 0
M  V30 8087 C 759.197 -2.26319 -0.362247 0
M  V30 8088 C 760.21 -1.31574 -0.958751 0
M  V30 8089 O 761.399 -1.57099 -0.847482 0
M  V30 8090 C 758.499 -3.02808 -1.52187 0
M  V30 8091 C 757.672 -4.24893 -1.03849 0
M  V30 8092 C 756.731 -4.83691 -2.07194 0
M  V30 8093 O 755.757 -5.44659 -1.65333 0
M  V30 8094 N 756.959 -4.70522 -3.39985 0
M  V30 8095 H 759.724 -2.98312 0.288124 0
M  V30 8096 H 757.285 -1.59099 0.299856 0
M  V30 8097 H 759.277 -3.39023 -2.21011 0
M  V30 8098 H 757.847 -2.33625 -2.07697 0
M  V30 8099 H 757.067 -3.93806 -0.176203 0
M  V30 8100 H 758.355 -5.04053 -0.693435 0
M  V30 8101 H 757.753 -4.2203 -3.76706 0
M  V30 8102 H 756.31 -5.11011 -4.04612 0
M  V30 8103 N 759.743 -0.201713 -1.56304 0
M  V30 8104 C 760.992 0.435557 -1.96941 0
M  V30 8105 C 761.305 1.62299 -1.09172 0
M  V30 8106 O 762.511 2.32849 -1.3962 0
M  V30 8107 C 760.967 0.826298 -3.50286 0
M  V30 8108 C 760.575 -0.337216 -4.46729 0
M  V30 8109 C 762.319 1.43028 -3.99679 0
M  V30 8110 C 760.226 0.0748539 -5.91353 0
M  V30 8111 H 759.156 0.1665 -0.735387 0
M  V30 8112 H 761.807 -0.294781 -1.81117 0
M  V30 8113 H 760.189 1.61349 -3.61639 0
M  V30 8114 H 761.363 -1.11476 -4.47113 0
M  V30 8115 H 759.678 -0.853126 -4.07567 0
M  V30 8116 H 762.275 1.75115 -5.05212 0
M  V30 8117 H 762.618 2.33911 -3.44371 0
M  V30 8118 H 763.151 0.706924 -3.91468 0
M  V30 8119 H 759.89 -0.799957 -6.506 0
M  V30 8120 H 759.41 0.817122 -5.94208 0
M  V30 8121 H 761.089 0.508389 -6.45 0
M  V30 8122 N 761.222 1.57436 0.0718424 0
M  V30 8123 C 762.132 2.07039 1.10326 0
M  V30 8124 C 763.148 0.999918 1.424 0
M  V30 8125 O 764.324 1.31462 1.52577 0
M  V30 8126 C 761.389 2.50439 2.39752 0
M  V30 8127 C 760.45 3.71784 2.14651 0
M  V30 8128 C 759.683 4.13104 3.37906 0
M  V30 8129 O 759.906 3.54298 4.47023 0
M  V30 8130 O 758.84 5.05894 3.26121 0
M  V30 8131 H 762.666 2.95239 0.711872 0
M  V30 8132 H 760.251 1.46638 0.28597 0
M  V30 8133 H 762.133 2.78876 3.15921 0
M  V30 8134 H 760.808 1.65368 2.78271 0
M  V30 8135 H 759.715 3.48431 1.36187 0
M  V30 8136 H 761.048 4.57707 1.81012 0
M  V30 8137 N 762.7 -0.34323 1.53817 0
M  V30 8138 C 763.647 -1.42153 1.81827 0
M  V30 8139 C 764.617 -1.52251 0.663996 0
M  V30 8140 O 765.802 -1.67784 0.908461 0
M  V30 8141 C 762.942 -2.78799 2.03384 0
M  V30 8142 C 762.055 -2.7749 3.31094 0
M  V30 8143 C 761.19 -4.05856 3.42717 0
M  V30 8144 C 760.229 -3.98776 4.64375 0
M  V30 8145 N 759.366 -5.18833 4.73029 0
M  V30 8146 H 764.206 -1.17567 2.73829 0
M  V30 8147 H 761.743 -0.569506 1.35628 0
M  V30 8148 H 763.701 -3.58211 2.13872 0
M  V30 8149 H 762.331 -3.01736 1.14696 0
M  V30 8150 H 761.383 -1.90182 3.29446 0
M  V30 8151 H 762.695 -2.68137 4.206 0
M  V30 8152 H 761.849 -4.93691 3.52638 0
M  V30 8153 H 760.588 -4.1799 2.51267 0
M  V30 8154 H 759.593 -3.09325 4.5453 0
M  V30 8155 H 760.818 -3.88224 5.57189 0
M  V30 8156 H 758.764 -5.31511 3.84489 0
M  V30 8157 H 758.681 -5.11737 5.56472 0
M  V30 8158 H 759.949 -6.08439 4.87261 0
M  V30 8159 N 764.178 -1.45556 -0.604258 0
M  V30 8160 C 765.108 -1.57327 -1.72541 0
M  V30 8161 C 766.089 -0.424637 -1.64714 0
M  V30 8162 O 767.274 -0.648196 -1.83063 0
M  V30 8163 C 764.404 -1.54279 -3.11152 0
M  V30 8164 C 763.358 -2.67893 -3.33792 0
M  V30 8165 C 762.684 -2.499 -4.72709 0
M  V30 8166 C 763.984 -4.0988 -3.23722 0
M  V30 8167 H 765.678 -2.51175 -1.62947 0
M  V30 8168 H 763.224 -1.20884 -0.782504 0
M  V30 8169 H 765.177 -1.6111 -3.89386 0
M  V30 8170 H 763.901 -0.569627 -3.21594 0
M  V30 8171 H 762.56 -2.60495 -2.57949 0
M  V30 8172 H 762.208 -1.50715 -4.79889 0
M  V30 8173 H 761.908 -3.26091 -4.88813 0
M  V30 8174 H 763.432 -2.5859 -5.5314 0
M  V30 8175 H 764.846 -4.18503 -3.91826 0
M  V30 8176 H 763.243 -4.86487 -3.51355 0
M  V30 8177 H 764.313 -4.31553 -2.21111 0
M  V30 8178 N 765.656 0.84705 -1.32902 0
M  V30 8179 C 766.603 1.95624 -1.22473 0
M  V30 8180 C 767.573 1.65767 -0.105178 0
M  V30 8181 O 768.758 1.88704 -0.282042 0
M  V30 8182 C 765.898 3.31434 -0.961542 0
M  V30 8183 C 765.011 3.73741 -2.1666 0
M  V30 8184 C 764.146 4.98379 -1.83825 0
M  V30 8185 C 763.185 5.33199 -3.00609 0
M  V30 8186 N 762.322 6.49014 -2.67816 0
M  V30 8187 H 767.162 2.03875 -2.17345 0
M  V30 8188 H 764.699 0.997764 -1.08088 0
M  V30 8189 H 766.657 4.09663 -0.789411 0
M  V30 8190 H 765.287 3.22762 -0.0495938 0
M  V30 8191 H 764.339 2.91102 -2.44875 0
M  V30 8192 H 765.651 3.95462 -3.03993 0
M  V30 8193 H 764.805 5.84336 -1.63208 0
M  V30 8194 H 763.544 4.78611 -0.937172 0
M  V30 8195 H 762.549 4.4575 -3.21849 0
M  V30 8196 H 763.774 5.5492 -3.9146 0
M  V30 8197 H 761.72 6.30748 -1.80258 0
M  V30 8198 H 761.637 6.7079 -3.48679 0
M  V30 8199 H 762.905 7.38103 -2.50647 0
M  V30 8200 N 767.134 1.16236 1.06428 0
M  V30 8201 C 768.081 0.86769 2.13869 0
M  V30 8202 C 769.051 -0.183298 1.65086 0
M  V30 8203 O 770.236 -0.0488002 1.90738 0
M  V30 8204 C 767.376 0.373427 3.43074 0
M  V30 8205 C 766.489 1.48708 4.05598 0
M  V30 8206 C 765.624 0.947977 5.22673 0
M  V30 8207 C 764.663 2.03793 5.77178 0
M  V30 8208 N 763.8 1.51451 6.85571 0
M  V30 8209 H 768.64 1.78781 2.38414 0
M  V30 8210 H 766.177 0.891892 1.16977 0
M  V30 8211 H 768.135 0.0685035 4.17144 0
M  V30 8212 H 766.765 -0.509752 3.1875 0
M  V30 8213 H 765.817 1.908 3.29089 0
M  V30 8214 H 767.129 2.30964 4.42105 0
M  V30 8215 H 766.283 0.596154 6.03764 0
M  V30 8216 H 765.022 0.0947081 4.87608 0
M  V30 8217 H 764.027 2.39847 4.94726 0
M  V30 8218 H 765.252 2.89514 6.14295 0
M  V30 8219 H 763.198 0.683755 6.52427 0
M  V30 8220 H 763.115 2.27325 7.21013 0
M  V30 8221 H 764.383 1.19123 7.70344 0
M  V30 8222 N 768.612 -1.24939 0.960631 0
M  V30 8223 C 769.861 -1.92118 0.614298 0
M  V30 8224 C 770.174 -1.75998 -0.853474 0
M  V30 8225 O 771.38 -2.37804 -1.31003 0
M  V30 8226 C 769.836 -3.44303 1.04801 0
M  V30 8227 C 769.444 -3.69123 2.53875 0
M  V30 8228 C 771.188 -4.17375 0.774497 0
M  V30 8229 C 769.095 -5.14843 2.91016 0
M  V30 8230 H 768.025 -0.719319 0.226045 0
M  V30 8231 H 770.676 -1.41701 1.16589 0
M  V30 8232 H 769.058 -3.93715 0.42479 0
M  V30 8233 H 770.232 -3.30339 3.21267 0
M  V30 8234 H 768.547 -3.09323 2.78762 0
M  V30 8235 H 771.144 -5.24723 1.02808 0
M  V30 8236 H 771.487 -4.15294 -0.289192 0
M  V30 8237 H 772.02 -3.7389 1.35835 0
M  V30 8238 H 768.759 -5.2204 3.96427 0
M  V30 8239 H 768.279 -5.54652 2.28302 0
M  V30 8240 H 769.958 -5.83017 2.80535 0
M  V30 8241 N 770.09 -0.729906 -1.39679 0
M  V30 8242 C 771.037 -0.0866063 -2.30637 0
M  V30 8243 C 772.007 0.735115 -1.48947 0
M  V30 8244 O 773.192 0.696125 -1.77648 0
M  V30 8245 C 770.332 0.818524 -3.35252 0
M  V30 8246 C 769.445 -0.0152635 -4.31997 0
M  V30 8247 C 768.58 0.890669 -5.2368 0
M  V30 8248 C 767.619 0.0518246 -6.12078 0
M  V30 8249 N 766.756 0.913411 -6.96133 0
M  V30 8250 H 771.596 -0.867925 -2.85081 0
M  V30 8251 H 769.133 -0.439673 -1.40376 0
M  V30 8252 H 771.091 1.3577 -3.9449 0
M  V30 8253 H 769.721 1.56587 -2.82277 0
M  V30 8254 H 768.773 -0.671794 -3.74421 0
M  V30 8255 H 770.085 -0.664086 -4.9436 0
M  V30 8256 H 769.239 1.49787 -5.87919 0
M  V30 8257 H 767.978 1.57328 -4.61627 0
M  V30 8258 H 766.983 -0.568209 -5.46856 0
M  V30 8259 H 768.208 -0.627497 -6.76195 0
M  V30 8260 H 766.154 1.58141 -6.36653 0
M  V30 8261 H 766.071 0.320952 -7.55318 0
M  V30 8262 H 767.339 1.50633 -7.64807 0
M  V30 8263 N 771.568 1.50203 -0.477153 0
M  V30 8264 C 772.793 2.07263 0.0754986 0
M  V30 8265 C 773.218 1.33801 1.32208 0
M  V30 8266 O 772.576 0.387482 1.77111 0
M  V30 8267 C 772.624 3.59028 0.336348 0
M  V30 8268 O 771.728 3.87339 1.4157 0
M  V30 8269 H 771.069 0.663815 -0.015662 0
M  V30 8270 H 773.599 1.93321 -0.669936 0
M  V30 8271 H 773.609 4.03927 0.575034 0
M  V30 8272 H 772.284 4.11912 -0.574551 0
M  V30 8273 H 770.861 3.54272 1.16385 0
M  V30 8274 N 773.046 0.209999 1.56195 0
M  V30 8275 C 774.271 -0.433064 2.02828 0
M  V30 8276 C 774.696 -1.5337 1.08901 0
M  V30 8277 O 774.054 -1.81144 0.0751132 0
M  V30 8278 C 774.102 -0.952635 3.47789 0
M  V30 8279 O 773.206 -2.0647 3.56993 0
M  V30 8280 H 772.547 -0.0994594 0.656509 0
M  V30 8281 H 775.077 0.32525 2.01998 0
M  V30 8282 H 775.087 -1.26542 3.8788 0
M  V30 8283 H 773.762 -0.147007 4.1564 0
M  V30 8284 H 772.339 -1.75942 3.28784 0
M  V30 8285 N 774.524 -1.57472 -0.0634922 0
M  V30 8286 C 775.94 -1.54016 -0.418466 0
M  V30 8287 C 776.14 -0.931376 -1.78683 0
M  V30 8288 O 775.196 -0.537465 -2.46714 0
M  V30 8289 C 776.509 -2.98634 -0.351906 0
M  V30 8290 C 778.057 -3.10012 -0.431494 0
M  V30 8291 C 778.532 -4.56296 -0.394754 0
M  V30 8292 N 780.023 -4.60964 -0.454583 0
M  V30 8293 C 780.758 -5.71643 -0.448501 0
M  V30 8294 N 780.254 -6.91663 -0.396742 0
M  V30 8295 N 782.047 -5.5991 -0.495677 0
M  V30 8296 H 774.198 -1.95409 0.832408 0
M  V30 8297 H 776.461 -0.894769 0.313197 0
M  V30 8298 H 776.167 -3.46766 0.587048 0
M  V30 8299 H 776.041 -3.58955 -1.15893 0
M  V30 8300 H 778.428 -2.61848 -1.36087 0
M  V30 8301 H 778.509 -2.52585 0.404258 0
M  V30 8302 H 778.153 -5.05119 0.530811 0
M  V30 8303 H 778.083 -5.11594 -1.24815 0
M  V30 8304 H 780.574 -3.74598 -0.498496 0
M  V30 8305 H 780.887 -7.71783 -0.396256 0
M  V30 8306 H 779.232 -6.9405 -0.363304 0
M  V30 8307 H 782.423 -4.65046 -0.533864 0
M  V30 8308 H 782.596 -6.46164 -0.487469 0
M  V30 8309 N 776.003 0.335068 -1.53997 0
M  V30 8310 C 777.28 1.09188 -1.62288 0
M  V30 8311 C 777.66 2.0626 -0.449458 0
M  V30 8312 O 777.008 2.21596 0.557444 0
M  V30 8313 C 777.218 1.80403 -2.98757 0
M  V30 8314 C 778.566 2.33841 -3.54406 0
M  V30 8315 O 779.59 1.90487 -3.00987 0
M  V30 8316 O 778.449 3.1318 -4.47862 0
M  V30 8317 H 775.543 0.502621 -0.656736 0
M  V30 8318 H 778.089 0.33588 -1.66343 0
M  V30 8319 H 776.861 1.09732 -3.75599 0
M  V30 8320 H 776.484 2.62841 -2.9833 0
M  V30 8321 N 777.481 1.45874 0.596531 0
M  V30 8322 C 778.413 1.51408 1.7207 0
M  V30 8323 C 779.426 0.403738 1.57714 0
M  V30 8324 O 780.615 0.671384 1.65393 0
M  V30 8325 C 777.715 1.3652 3.10186 0
M  V30 8326 C 776.888 2.61428 3.50677 0
M  V30 8327 C 775.947 2.40937 4.67799 0
M  V30 8328 O 774.973 3.14602 4.74357 0
M  V30 8329 N 776.175 1.4621 5.61785 0
M  V30 8330 H 778.94 2.48333 1.67782 0
M  V30 8331 H 776.501 1.41755 0.782129 0
M  V30 8332 H 778.493 1.20606 3.86311 0
M  V30 8333 H 777.063 0.478302 3.08919 0
M  V30 8334 H 776.283 2.92381 2.644 0
M  V30 8335 H 777.571 3.44432 3.74491 0
M  V30 8336 H 776.969 0.854382 5.59211 0
M  V30 8337 H 775.526 1.36264 6.37397 0
M  V30 8338 N 778.959 -0.83999 1.33349 0
M  V30 8339 C 779.922 -1.93128 1.23426 0
M  V30 8340 C 780.922 -1.60065 0.153599 0
M  V30 8341 O 782.112 -1.69425 0.405049 0
M  V30 8342 C 779.244 -3.28761 0.901622 0
M  V30 8343 H 780.437 -2.03352 2.20427 0
M  V30 8344 H 777.99 -1.03194 1.17391 0
M  V30 8345 H 778.725 -3.24233 -0.0659337 0
M  V30 8346 H 778.51 -3.54138 1.68311 0
M  V30 8347 H 780 -4.08714 0.856913 0
M  V30 8348 N 780.437 -1.16799 -1.0581 0
M  V30 8349 C 781.367 -0.902241 -2.15364 0
M  V30 8350 C 782.348 0.153351 -1.69407 0
M  V30 8351 O 783.533 0.00442032 -1.94199 0
M  V30 8352 C 780.663 -0.407911 -3.44896 0
M  V30 8353 C 779.617 -1.40197 -4.04387 0
M  V30 8354 C 778.943 -0.765848 -5.29187 0
M  V30 8355 C 780.243 -2.77316 -4.42598 0
M  V30 8356 H 781.937 -1.81841 -2.37853 0
M  V30 8357 H 779.483 -0.875731 -1.14311 0
M  V30 8358 H 781.436 -0.20945 -4.20879 0
M  V30 8359 H 780.16 0.54378 -3.22041 0
M  V30 8360 H 778.819 -1.58707 -3.30466 0
M  V30 8361 H 778.467 0.192482 -5.02632 0
M  V30 8362 H 778.167 -1.42939 -5.69949 0
M  V30 8363 H 779.691 -0.577519 -6.07863 0
M  V30 8364 H 781.105 -2.62561 -5.09642 0
M  V30 8365 H 779.502 -3.4019 -4.94359 0
M  V30 8366 H 780.572 -3.32199 -3.53231 0
M  V30 8367 N 781.915 1.24427 -0.967243 0
M  V30 8368 C 782.878 2.23637 -0.501927 0
M  V30 8369 C 783.878 1.55712 0.401283 0
M  V30 8370 O 785.068 1.73085 0.196808 0
M  V30 8371 C 782.2 3.39804 0.273176 0
M  V30 8372 H 783.393 2.66317 -1.37897 0
M  V30 8373 H 780.946 1.37033 -0.751783 0
M  V30 8374 H 781.681 3.02562 1.16733 0
M  V30 8375 H 781.466 3.90303 -0.37498 0
M  V30 8376 H 782.956 4.13443 0.587776 0
M  V30 8377 N 783.393 0.737304 1.3929 0
M  V30 8378 C 784.303 0.100464 2.34385 0
M  V30 8379 C 785.319 -0.719282 1.58437 0
M  V30 8380 O 786.495 -0.647216 1.90717 0
M  V30 8381 C 783.56 -0.794325 3.37478 0
M  V30 8382 C 782.621 0.0379345 4.29283 0
M  V30 8383 C 781.854 -0.814241 5.27452 0
M  V30 8384 O 782.077 -2.05288 5.32177 0
M  V30 8385 O 781.011 -0.241679 6.01415 0
M  V30 8386 H 784.837 0.885407 2.90507 0
M  V30 8387 H 782.422 0.497999 1.40856 0
M  V30 8388 H 784.304 -1.30622 4.00644 0
M  V30 8389 H 782.979 -1.55804 2.83737 0
M  V30 8390 H 781.886 0.595405 3.69331 0
M  V30 8391 H 783.219 0.763926 4.86236 0
M  V30 8392 N 784.871 -1.49948 0.485112 0
M  V30 8393 C 786.287 -1.58984 0.140096 0
M  V30 8394 C 786.487 -1.49194 -1.35438 0
M  V30 8395 O 785.543 -1.35765 -2.12894 0
M  V30 8396 C 786.856 -2.92372 0.702769 0
M  V30 8397 C 788.404 -3.05801 0.66745 0
M  V30 8398 C 788.879 -4.41785 1.20791 0
M  V30 8399 N 790.37 -4.48234 1.16792 0
M  V30 8400 C 791.105 -5.51871 1.55646 0
M  V30 8401 N 790.601 -6.62692 2.02016 0
M  V30 8402 N 792.394 -5.42494 1.47161 0
M  V30 8403 H 784.545 -1.54555 1.45693 0
M  V30 8404 H 786.808 -0.731206 0.603359 0
M  V30 8405 H 786.514 -3.05056 1.75025 0
M  V30 8406 H 786.388 -3.76885 0.154205 0
M  V30 8407 H 788.775 -2.92757 -0.371157 0
M  V30 8408 H 788.856 -2.23011 1.25298 0
M  V30 8409 H 788.5 -4.55579 2.24522 0
M  V30 8410 H 788.43 -5.23188 0.598464 0
M  V30 8411 H 790.921 -3.68718 0.827982 0
M  V30 8412 H 791.234 -7.3785 2.29775 0
M  V30 8413 H 789.579 -6.63775 2.05979 0
M  V30 8414 H 792.77 -4.54806 1.10765 0
M  V30 8415 H 792.943 -6.2314 1.77766 0
M  V30 8416 N 786.349 -0.21828 -1.56081 0
M  V30 8417 C 787.589 0.416193 -2.00118 0
M  V30 8418 C 787.953 1.5718 -1.10265 0
M  V30 8419 O 789.154 2.27206 -1.43635 0
M  V30 8420 C 787.425 0.842781 -3.47321 0
M  V30 8421 S 788.984 1.47182 -4.1338 0
M  V30 8422 H 785.802 0.132219 -0.698598 0
M  V30 8423 H 788.404 -0.326799 -1.92749 0
M  V30 8424 H 787.108 -0.00799925 -4.10399 0
M  V30 8425 H 786.639 1.61867 -3.58556 0
M  V30 8426 H 788.654 2.76087 -4.12299 0
M  V30 8427 N 787.827 1.57504 0.0551401 0
M  V30 8428 C 788.757 2.07864 1.06372 0
M  V30 8429 C 789.738 0.975565 1.39344 0
M  V30 8430 O 790.923 1.24929 1.48682 0
M  V30 8431 C 788.053 2.53643 2.3724 0
M  V30 8432 C 787.007 3.67978 2.18578 0
M  V30 8433 C 786.333 3.9987 3.54976 0
M  V30 8434 C 787.633 4.97405 1.59329 0
M  V30 8435 H 789.327 2.92379 0.644595 0
M  V30 8436 H 786.873 1.40654 0.308619 0
M  V30 8437 H 788.826 2.8749 3.08103 0
M  V30 8438 H 787.55 1.66177 2.81163 0
M  V30 8439 H 786.209 3.3444 1.50152 0
M  V30 8440 H 785.857 3.0951 3.965 0
M  V30 8441 H 785.557 4.76867 3.43324 0
M  V30 8442 H 787.081 4.36228 4.27244 0
M  V30 8443 H 788.495 5.29375 2.20078 0
M  V30 8444 H 786.892 5.78837 1.58327 0
M  V30 8445 H 787.962 4.81697 0.55638 0
M  V30 8446 N 789.305 -0.326896 1.54172 0
M  V30 8447 C 790.268 -1.38515 1.8261 0
M  V30 8448 C 791.268 -1.44872 0.697771 0
M  V30 8449 O 792.458 -1.44957 0.966078 0
M  V30 8450 C 789.59 -2.77281 1.98313 0
M  V30 8451 H 790.783 -1.14556 2.77159 0
M  V30 8452 H 788.336 -0.562199 1.45839 0
M  V30 8453 H 789.071 -3.065 1.05964 0
M  V30 8454 H 788.856 -2.74061 2.80416 0
M  V30 8455 H 790.346 -3.53845 2.21773 0
M  V30 8456 N 790.784 -1.46188 -0.588786 0
M  V30 8457 C 791.747 -1.55882 -1.68029 0
M  V30 8458 C 792.747 -0.436515 -1.54762 0
M  V30 8459 O 793.937 -0.700626 -1.59489 0
M  V30 8460 C 791.069 -1.47332 -3.07418 0
M  V30 8461 H 792.262 -2.5315 -1.60795 0
M  V30 8462 H 789.815 -1.33908 -0.806116 0
M  V30 8463 H 790.55 -0.513193 -3.20214 0
M  V30 8464 H 790.335 -2.28753 -3.18456 0
M  V30 8465 H 791.825 -1.57187 -3.86887 0
M  V30 8466 N 792.262 0.832906 -1.33792 0
M  V30 8467 C 793.192 1.95828 -1.27176 0
M  V30 8468 C 794.173 1.69427 -0.15114 0
M  V30 8469 O 795.358 1.91167 -0.341886 0
M  V30 8470 C 792.488 3.32098 -1.01629 0
M  V30 8471 C 791.442 3.72912 -2.10049 0
M  V30 8472 C 790.768 5.07054 -1.69706 0
M  V30 8473 C 792.068 3.86064 -3.51783 0
M  V30 8474 H 793.762 2.01622 -2.21334 0
M  V30 8475 H 791.308 0.96866 -1.0655 0
M  V30 8476 H 793.261 4.10402 -0.956474 0
M  V30 8477 H 791.985 3.26577 -0.0390956 0
M  V30 8478 H 790.644 2.96876 -2.15082 0
M  V30 8479 H 790.292 4.9801 -0.706737 0
M  V30 8480 H 789.992 5.35333 -2.42264 0
M  V30 8481 H 791.516 5.87827 -1.65202 0
M  V30 8482 H 792.93 4.54665 -3.49218 0
M  V30 8483 H 791.327 4.25787 -4.22878 0
M  V30 8484 H 792.397 2.88344 -3.89854 0
M  V30 8485 N 793.74 1.17359 1.05189 0
M  V30 8486 C 794.968 0.986529 1.81866 0
M  V30 8487 C 795.383 -0.46522 1.82979 0
M  V30 8488 O 794.74 -1.32305 1.25705 0
M  V30 8489 C 794.791 1.52021 3.27982 0
M  V30 8490 O 794.512 2.91511 3.27037 0
M  V30 8491 C 796.013 1.37774 4.21347 0
M  V30 8492 H 793.233 0.349021 0.573084 0
M  V30 8493 H 795.777 1.55648 1.32643 0
M  V30 8494 H 793.932 0.992287 3.74476 0
M  V30 8495 H 794.346 3.16178 4.18488 0
M  V30 8496 H 795.82 1.7993 5.21852 0
M  V30 8497 H 796.297 0.32483 4.37997 0
M  V30 8498 H 796.903 1.89583 3.80708 0
M  V30 8499 N 795.218 -1.23913 0.973828 0
M  V30 8500 C 796.128 -2.28838 0.516735 0
M  V30 8501 C 797.144 -1.68723 -0.425282 0
M  V30 8502 O 798.32 -1.99201 -0.296819 0
M  V30 8503 C 795.385 -3.46233 -0.179914 0
M  V30 8504 C 794.446 -4.21729 0.80269 0
M  V30 8505 C 793.679 -5.33518 0.139191 0
M  V30 8506 O 793.902 -5.60252 -1.07118 0
M  V30 8507 O 792.836 -5.96088 0.834447 0
M  V30 8508 H 796.662 -2.70067 1.38916 0
M  V30 8509 H 794.247 -1.2972 0.74115 0
M  V30 8510 H 796.129 -4.17514 -0.570991 0
M  V30 8511 H 794.804 -3.06969 -1.02721 0
M  V30 8512 H 793.711 -3.52799 1.24434 0
M  V30 8513 H 795.044 -4.64825 1.61859 0
M  V30 8514 N 796.696 -0.74468 -1.38897 0
M  V30 8515 C 797.936 -0.301691 -2.02161 0
M  V30 8516 C 798.3 1.09338 -1.57826 0
M  V30 8517 O 799.501 1.63499 -2.13358 0
M  V30 8518 C 797.772 -0.410601 -3.55034 0
M  V30 8519 S 799.331 -0.0488802 -4.38773 0
M  V30 8520 H 796.149 -0.117583 -0.70121 0
M  V30 8521 H 798.751 -0.973334 -1.69548 0
M  V30 8522 H 797.455 -1.42705 -3.8479 0
M  V30 8523 H 796.986 0.278531 -3.92413 0
M  V30 8524 H 799.001 1.16434 -4.82346 0
M  V30 8525 N 798.174 1.49689 -0.493057 0
M  V30 8526 C 799.137 2.27502 0.278485 0
M  V30 8527 C 800.137 1.33184 0.901037 0
M  V30 8528 O 801.327 1.56415 0.766801 0
M  V30 8529 C 798.459 3.10881 1.39878 0
M  V30 8530 H 799.652 2.97163 -0.404219 0
M  V30 8531 H 797.205 1.54324 -0.247774 0
M  V30 8532 H 797.94 2.45767 2.11587 0
M  V30 8533 H 797.725 3.80219 0.957924 0
M  V30 8534 H 799.215 3.69673 1.94247 0
M  V30 8535 N 799.652 0.226554 1.55963 0
M  V30 8536 C 800.615 -0.668015 2.19249 0
M  V30 8537 C 801.615 -1.11794 1.1558 0
M  V30 8538 O 802.805 -1.02593 1.40784 0
M  V30 8539 C 799.937 -1.91571 2.81981 0
M  V30 8540 H 801.13 -0.116175 2.99675 0
M  V30 8541 H 798.683 -0.0230497 1.56283 0
M  V30 8542 H 799.418 -2.50929 2.05439 0
M  V30 8543 H 799.203 -1.6015 3.57903 0
M  V30 8544 H 800.693 -2.55294 3.30477 0
M  V30 8545 N 801.13 -1.57531 -0.0467866 0
M  V30 8546 C 802.355 -1.93087 -0.757123 0
M  V30 8547 C 802.78 -0.825116 -1.69037 0
M  V30 8548 O 802.138 0.220449 -1.79955 0
M  V30 8549 C 802.186 -3.27669 -1.5055 0
M  V30 8550 O 801.29 -3.18667 -2.61773 0
M  V30 8551 H 800.631 -0.631597 -0.204892 0
M  V30 8552 H 803.161 -2.04599 -0.00755232 0
M  V30 8553 H 803.171 -3.6214 -1.87932 0
M  V30 8554 H 801.846 -4.07717 -0.820931 0
M  V30 8555 H 800.423 -2.95798 -2.27064 0
M  V30 8556 N 802.608 0.318715 -1.54344 0
M  V30 8557 C 803.856 1.054 -1.72439 0
M  V30 8558 C 804.177 1.88388 -0.503495 0
M  V30 8559 O 803.447 1.89866 0.48246 0
M  V30 8560 H 802.027 0.392124 -0.635805 0
M  V30 8561 H 804.689 0.35398 -1.91659 0
M  V30 8562 H 803.785 1.71726 -2.60608 0
M  V30 8563 N 804.086 1.46499 0.581025 0
M  V30 8564 C 805.363 1.42372 1.34125 0
M  V30 8565 C 805.743 0.108073 2.10823 0
M  V30 8566 O 805.091 -0.910366 2.09582 0
M  V30 8567 C 805.301 2.65445 2.26583 0
M  V30 8568 C 806.649 3.11664 2.88359 0
M  V30 8569 O 807.673 2.66006 2.36896 0
M  V30 8570 O 806.532 3.90974 3.81839 0
M  V30 8571 H 803.626 0.566262 0.602724 0
M  V30 8572 H 806.172 1.58667 0.601903 0
M  V30 8573 H 804.944 3.52756 1.69348 0
M  V30 8574 H 804.567 2.51618 3.07854 0
M  V30 8575 N 805.565 -0.825799 1.34232 0
M  V30 8576 C 806.813 -1.57873 1.26177 0
M  V30 8577 C 807.134 -1.94267 -0.168904 0
M  V30 8578 O 806.404 -1.62045 -1.10084 0
M  V30 8579 H 804.984 -0.585388 0.464037 0
M  V30 8580 H 807.646 -0.986163 1.6811 0
M  V30 8581 H 806.742 -2.50283 1.86453 0
M  V30 8582 N 807.043 -1.17915 -1.04565 0
M  V30 8583 C 807.991 -0.897919 -2.1457 0
M  V30 8584 C 808.985 0.139883 -1.68821 0
M  V30 8585 O 810.191 -0.00779463 -1.79998 0
M  V30 8586 H 806.566 -0.272867 -0.700748 0
M  V30 8587 H 808.537 -1.83268 -2.3549 0
M  V30 8588 C 807.286 -0.434634 -3.44973 0
M  V30 8589 H 806.609 -1.22469 -3.8058 0
M  V30 8590 H 808.049 -0.276804 -4.23095 0
M  V30 8591 C 806.508 0.848738 -3.26034 0
M  V30 8592 O 807.038 1.9141 -3.53164 0
M  V30 8593 N 805.244 0.799373 -2.79389 0
M  V30 8594 H 804.791 -0.0678192 -2.57511 0
M  V30 8595 H 804.749 1.6585 -2.67098 0
M  V30 8596 N 808.521 1.23394 -0.980386 0
M  V30 8597 C 809.77 1.91116 -0.644785 0
M  V30 8598 C 810.083 1.77333 0.825367 0
M  V30 8599 O 811.289 2.39858 1.27203 0
M  V30 8600 C 809.745 3.42592 -1.10266 0
M  V30 8601 C 809.353 3.65037 -2.59715 0
M  V30 8602 C 811.097 4.1609 -0.8408 0
M  V30 8603 C 809.004 5.10148 -2.9917 0
M  V30 8604 H 807.934 0.715632 -0.23746 0
M  V30 8605 H 810.585 1.39829 -1.18828 0
M  V30 8606 H 808.967 3.92989 -0.487372 0
M  V30 8607 H 810.141 3.25186 -3.26482 0
M  V30 8608 H 808.456 3.04849 -2.83647 0
M  V30 8609 H 811.053 5.23021 -1.11143 0
M  V30 8610 H 811.396 4.15702 0.223085 0
M  V30 8611 H 811.929 3.71681 -1.41767 0
M  V30 8612 H 808.668 5.15668 -4.04682 0
M  V30 8613 H 808.188 5.50949 -2.37097 0
M  V30 8614 H 809.867 5.7848 -2.89775 0
M  V30 8615 N 809.999 0.752036 1.385 0
M  V30 8616 C 810.929 0.138718 2.33088 0
M  V30 8617 C 811.91 -0.705318 1.54788 0
M  V30 8618 O 813.095 -0.646821 1.83112 0
M  V30 8619 C 810.225 -0.75641 3.38963 0
M  V30 8620 C 809.179 -0.0152239 4.27997 0
M  V30 8621 C 808.505 -1.0285 5.24715 0
M  V30 8622 C 809.805 1.15226 5.09431 0
M  V30 8623 H 811.499 0.928852 2.84627 0
M  V30 8624 H 809.045 0.448111 1.3685 0
M  V30 8625 H 810.998 -1.19513 4.04097 0
M  V30 8626 H 809.722 -1.57885 2.85902 0
M  V30 8627 H 808.381 0.404061 3.64366 0
M  V30 8628 H 808.029 -1.84496 4.67943 0
M  V30 8629 H 807.729 -0.537238 5.85139 0
M  V30 8630 H 809.253 -1.46657 5.92726 0
M  V30 8631 H 810.667 0.791161 5.67815 0
M  V30 8632 H 809.064 1.57428 5.79082 0
M  V30 8633 H 810.134 1.9659 4.43261 0
M  V30 8634 N 811.477 -1.49425 0.500989 0
M  V30 8635 C 812.44 -2.27646 -0.266416 0
M  V30 8636 C 813.44 -1.3366 -0.893961 0
M  V30 8637 O 814.63 -1.5682 -0.758495 0
M  V30 8638 C 811.762 -3.11618 -1.38227 0
M  V30 8639 H 812.955 -2.96945 0.419973 0
M  V30 8640 H 810.508 -1.5419 0.255954 0
M  V30 8641 H 811.243 -2.46885 -2.10281 0
M  V30 8642 H 811.028 -3.80721 -0.937746 0
M  V30 8643 H 812.518 -3.70698 -1.92283 0
M  V30 8644 N 812.955 -0.234822 -1.55841 0
M  V30 8645 C 813.885 0.664217 -2.23854 0
M  V30 8646 C 814.866 1.19076 -1.2147 0
M  V30 8647 O 816.051 1.23232 -1.50091 0
M  V30 8648 C 813.181 1.86666 -2.9287 0
M  V30 8649 C 812.135 1.47341 -4.01839 0
M  V30 8650 C 811.461 2.75571 -4.58219 0
M  V30 8651 C 812.761 0.653479 -5.18196 0
M  V30 8652 H 814.455 0.0971213 -2.99242 0
M  V30 8653 H 812.001 0.0452724 -1.43929 0
M  V30 8654 H 813.954 2.50116 -3.39146 0
M  V30 8655 H 812.678 2.45894 -2.1495 0
M  V30 8656 H 811.337 0.862314 -3.56314 0
M  V30 8657 H 810.985 3.32971 -3.77014 0
M  V30 8658 H 810.685 2.49987 -5.31771 0
M  V30 8659 H 812.209 3.39939 -5.07221 0
M  V30 8660 H 813.623 1.19198 -5.60771 0
M  V30 8661 H 812.02 0.494188 -5.98062 0
M  V30 8662 H 813.09 -0.337004 -4.83728 0
M  V30 8663 N 814.433 1.57553 0.0384317 0
M  V30 8664 C 815.396 2.04927 1.02653 0
M  V30 8665 C 816.396 0.951768 1.29607 0
M  V30 8666 O 817.586 1.21568 1.24768 0
M  V30 8667 C 814.718 2.45828 2.36181 0
M  V30 8668 H 815.911 2.93474 0.617508 0
M  V30 8669 H 813.464 1.53679 0.285031 0
M  V30 8670 H 814.199 1.60408 2.8185 0
M  V30 8671 H 813.984 3.25945 2.1795 0
M  V30 8672 H 815.474 2.82939 3.0714 0
M  V30 8673 N 815.911 -0.310526 1.54511 0
M  V30 8674 C 817.157 -1.04846 1.73595 0
M  V30 8675 C 817.49 -1.87244 0.515118 0
M  V30 8676 O 816.765 -1.88282 -0.48786 0
M  V30 8677 C 817.048 -1.96237 3.01932 0
M  V30 8678 C 816.901 -1.17082 4.34295 0
M  V30 8679 C 818.22 -2.9556 3.26086 0
M  V30 8680 H 815.339 -0.37976 0.631626 0
M  V30 8681 H 817.981 -0.32394 1.87218 0
M  V30 8682 H 816.131 -2.58015 2.90449 0
M  V30 8683 H 817.803 -0.576643 4.57682 0
M  V30 8684 H 816.046 -0.473336 4.3121 0
M  V30 8685 H 816.717 -1.84257 5.20339 0
M  V30 8686 H 819.193 -2.43908 3.37117 0
M  V30 8687 H 818.069 -3.5668 4.17218 0
M  V30 8688 H 818.33 -3.68715 2.4393 0
M  V30 8689 N 817.389 -1.46805 -0.573248 0
M  V30 8690 C 818.666 -1.43082 -1.33368 0
M  V30 8691 C 819.046 -0.119252 -2.10763 0
M  V30 8692 O 818.394 0.899239 -2.10062 0
M  V30 8693 C 818.604 -2.66643 -2.25172 0
M  V30 8694 C 819.952 -3.13188 -2.86702 0
M  V30 8695 O 820.976 -2.67258 -2.35482 0
M  V30 8696 O 819.835 -3.92994 -3.79761 0
M  V30 8697 H 816.929 -0.569451 -0.599712 0
M  V30 8698 H 819.475 -1.58984 -0.59348 0
M  V30 8699 H 818.247 -3.53649 -1.67475 0
M  V30 8700 H 817.87 -2.53247 -3.06516 0
M  V30 8701 N 818.867 0.818669 -1.34668 0
M  V30 8702 C 819.83 1.9114 -1.26483 0
M  V30 8703 C 820.83 1.598 -0.179044 0
M  V30 8704 O 822.02 1.6876 -0.431952 0
M  V30 8705 C 819.152 3.27285 -0.95381 0
M  V30 8706 H 820.345 1.9982 -2.23634 0
M  V30 8707 H 817.898 1.01314 -1.19018 0
M  V30 8708 H 818.633 3.24297 0.0143428 0
M  V30 8709 H 818.418 3.51416 -1.73924 0
M  V30 8710 H 819.908 4.07299 -0.921827 0
M  V30 8711 N 820.346 1.18468 1.03938 0
M  V30 8712 C 821.571 1.00638 1.81347 0
M  V30 8713 C 821.996 -0.440477 1.8287 0
M  V30 8714 O 821.354 -1.31609 1.24695 0
M  V30 8715 C 821.402 1.5673 3.24759 0
M  V30 8716 O 820.506 0.789517 4.04772 0
M  V30 8717 H 819.847 0.356432 0.560225 0
M  V30 8718 H 822.377 1.57253 1.30891 0
M  V30 8719 H 822.387 1.59496 3.75533 0
M  V30 8720 H 821.062 2.62043 3.22965 0
M  V30 8721 H 819.639 0.834267 3.63448 0
M  V30 8722 N 821.824 -1.22873 0.986916 0
M  V30 8723 C 823.24 -1.43594 0.696633 0
M  V30 8724 C 823.44 -1.87622 -0.734869 0
M  V30 8725 O 822.496 -2.02633 -1.50652 0
M  V30 8726 C 823.809 -2.48231 1.69711 0
M  V30 8727 C 825.357 -2.62037 1.71188 0
M  V30 8728 C 825.832 -3.6989 2.70084 0
M  V30 8729 N 827.323 -3.77341 2.68641 0
M  V30 8730 C 828.058 -4.6037 3.41829 0
M  V30 8731 N 827.554 -5.47438 4.24598 0
M  V30 8732 N 829.347 -4.54626 3.30563 0
M  V30 8733 H 821.498 -0.925982 1.91153 0
M  V30 8734 H 823.761 -0.46866 0.824052 0
M  V30 8735 H 823.467 -2.22812 2.72117 0
M  V30 8736 H 823.341 -3.46731 1.48516 0
M  V30 8737 H 825.728 -2.86803 0.694837 0
M  V30 8738 H 825.809 -1.63831 1.96451 0
M  V30 8739 H 825.453 -3.45872 3.71934 0
M  V30 8740 H 825.383 -4.67652 2.42093 0
M  V30 8741 H 827.874 -3.15124 2.08578 0
M  V30 8742 H 828.187 -6.078 4.77283 0
M  V30 8743 H 826.532 -5.4704 4.28687 0
M  V30 8744 H 829.723 -3.85627 2.65347 0
M  V30 8745 H 829.896 -5.19103 3.8786 0
M  V30 8746 N 823.302 -0.75937 -1.38099 0
M  V30 8747 C 824.265 -0.14372 -2.28749 0
M  V30 8748 C 825.265 0.641338 -1.47457 0
M  V30 8749 O 826.455 0.466751 -1.67831 0
M  V30 8750 C 823.587 0.804545 -3.3127 0
M  V30 8751 H 824.78 -0.942663 -2.847 0
M  V30 8752 H 822.333 -0.526757 -1.47156 0
M  V30 8753 H 823.068 1.62895 -2.80421 0
M  V30 8754 H 822.853 0.243939 -3.9134 0
M  V30 8755 H 824.343 1.23111 -3.99041 0
M  V30 8756 N 824.78 1.49157 -0.508906 0
M  V30 8757 C 826.196 1.58741 -0.165372 0
M  V30 8758 C 826.396 1.5133 1.33047 0
M  V30 8759 O 825.452 1.39135 2.10707 0
M  V30 8760 C 826.765 2.91217 -0.749194 0
M  V30 8761 C 828.313 3.047 -0.716015 0
M  V30 8762 C 828.788 4.39807 -1.27804 0
M  V30 8763 N 830.279 4.46319 -1.23908 0
M  V30 8764 C 831.014 5.49325 -1.64406 0
M  V30 8765 N 830.51 6.59395 -2.12534 0
M  V30 8766 N 832.303 5.40084 -1.55773 0
M  V30 8767 H 824.454 1.52217 -1.48134 0
M  V30 8768 H 826.717 0.721514 -0.614915 0
M  V30 8769 H 826.423 3.02233 -1.79856 0
M  V30 8770 H 826.297 3.76592 -0.214144 0
M  V30 8771 H 828.684 2.9331 0.324535 0
M  V30 8772 H 828.765 2.2099 -1.2883 0
M  V30 8773 H 828.409 4.5195 -2.31741 0
M  V30 8774 H 828.339 5.2217 -0.681623 0
M  V30 8775 H 830.83 3.67354 -0.886537 0
M  V30 8776 H 831.143 7.34102 -2.41485 0
M  V30 8777 H 829.488 6.60414 -2.16513 0
M  V30 8778 H 832.679 4.52986 -1.17987 0
M  V30 8779 H 832.852 6.20233 -1.87657 0
M  V30 8780 N 826.258 0.243083 1.55714 0
M  V30 8781 C 827.498 -0.384303 2.00755 0
M  V30 8782 C 827.862 -1.55406 1.12752 0
M  V30 8783 O 829.063 -2.24892 1.47231 0
M  V30 8784 C 827.334 -0.787419 3.48618 0
M  V30 8785 S 828.893 -1.40587 4.15669 0
M  V30 8786 H 825.711 -0.121088 0.700613 0
M  V30 8787 H 828.313 0.357423 1.92205 0
M  V30 8788 H 827.017 0.0732892 4.10335 0
M  V30 8789 H 826.548 -1.56142 3.61086 0
M  V30 8790 H 828.563 -2.69493 4.16639 0
M  V30 8791 N 827.736 -1.57571 -0.0300757 0
M  V30 8792 C 828.964 -1.93485 -0.732891 0
M  V30 8793 C 829.379 -0.842758 -1.68947 0
M  V30 8794 O 828.736 0.180904 -1.81601 0
M  V30 8795 C 828.787 -3.29328 -1.49082 0
M  V30 8796 O 828.508 -4.34341 -0.572639 0
M  V30 8797 C 830.009 -3.79517 -2.29088 0
M  V30 8798 H 827.229 -0.638588 -0.206026 0
M  V30 8799 H 829.773 -2.04496 0.0120966 0
M  V30 8800 H 827.928 -3.19716 -2.1877 0
M  V30 8801 H 828.342 -5.12748 -1.10406 0
M  V30 8802 H 829.816 -4.77081 -2.77665 0
M  V30 8803 H 830.293 -3.10659 -3.10464 0
M  V30 8804 H 830.899 -3.92208 -1.64477 0
M  V30 8805 N 829.214 0.302327 -1.54673 0
M  V30 8806 C 830.46 1.03924 -1.74149 0
M  V30 8807 C 830.793 1.86968 -0.525041 0
M  V30 8808 O 830.068 1.88538 0.477868 0
M  V30 8809 C 830.351 1.94633 -3.02969 0
M  V30 8810 C 830.204 1.14778 -4.34909 0
M  V30 8811 C 831.523 2.93826 -3.27649 0
M  V30 8812 H 828.642 0.376405 -0.633631 0
M  V30 8813 H 831.284 0.314007 -1.87387 0
M  V30 8814 H 829.434 2.56471 -2.91813 0
M  V30 8815 H 831.106 0.552363 -4.57981 0
M  V30 8816 H 829.349 0.450462 -4.31455 0
M  V30 8817 H 830.02 1.81495 -5.21309 0
M  V30 8818 H 832.496 2.42117 -3.38406 0
M  V30 8819 H 831.372 3.54462 -4.19104 0
M  V30 8820 H 831.633 3.67416 -2.45882 0
M  V30 8821 N 830.692 1.47107 0.565454 0
M  V30 8822 C 831.94 1.53005 1.32038 0
M  V30 8823 C 832.261 0.190453 1.94068 0
M  V30 8824 O 831.531 -0.784783 1.79494 0
M  V30 8825 H 830.111 0.563578 0.490294 0
M  V30 8826 H 832.773 1.83351 0.660928 0
M  V30 8827 H 831.869 2.29215 2.11818 0
M  V30 8828 N 832.17 -0.811516 1.35101 0
M  V30 8829 C 833.08 -1.95475 1.29718 0
M  V30 8830 C 834.096 -1.72813 0.202909 0
M  V30 8831 O 835.272 -1.96725 0.431414 0
M  V30 8832 C 832.337 -3.29975 1.06385 0
M  V30 8833 C 831.398 -3.65566 2.25077 0
M  V30 8834 C 830.631 -4.93648 2.02848 0
M  V30 8835 O 830.854 -5.617 0.992442 0
M  V30 8836 O 829.788 -5.27384 2.90087 0
M  V30 8837 H 833.614 -2.02961 2.25921 0
M  V30 8838 H 831.199 -0.948583 1.15422 0
M  V30 8839 H 833.081 -4.10506 0.951999 0
M  V30 8840 H 831.756 -3.2343 0.132294 0
M  V30 8841 H 830.663 -2.85432 2.41825 0
M  V30 8842 H 831.996 -3.7681 3.16662 0
M  V30 8843 N 833.648 -1.19017 -1.03309 0
M  V30 8844 C 834.897 -0.984542 -1.76039 0
M  V30 8845 C 835.21 0.485937 -1.89468 0
M  V30 8846 O 836.416 0.810278 -2.59127 0
M  V30 8847 C 834.872 -1.71261 -3.1654 0
M  V30 8848 C 834.48 -3.22291 -3.11179 0
M  V30 8849 C 836.224 -1.59007 -3.93595 0
M  V30 8850 C 834.131 -3.87704 -4.46587 0
M  V30 8851 H 833.061 -0.364749 -0.659905 0
M  V30 8852 H 835.712 -1.4247 -1.15649 0
M  V30 8853 H 834.094 -1.20025 -3.77373 0
M  V30 8854 H 835.268 -3.80611 -2.59753 0
M  V30 8855 H 833.583 -3.34772 -2.47622 0
M  V30 8856 H 836.18 -2.05232 -4.93745 0
M  V30 8857 H 836.523 -0.543534 -4.12736 0
M  V30 8858 H 837.056 -2.07564 -3.39355 0
M  V30 8859 H 833.795 -4.92437 -4.3265 0
M  V30 8860 H 833.315 -3.34172 -4.98085 0
M  V30 8861 H 834.994 -3.91008 -5.15482 0
M  V30 8862 N 835.127 1.22348 -0.993418 0
M  V30 8863 C 836.355 1.95125 -0.688021 0
M  V30 8864 C 836.77 1.73377 0.747388 0
M  V30 8865 O 836.127 1.03317 1.50439 0
M  V30 8866 C 836.178 3.47819 -0.985097 0
M  V30 8867 O 835.899 3.68838 -2.3641 0
M  V30 8868 C 837.4 4.37779 -0.697474 0
M  V30 8869 H 834.62 0.62087 -0.254481 0
M  V30 8870 H 837.164 1.55485 -1.32833 0
M  V30 8871 H 835.319 3.85426 -0.390583 0
M  V30 8872 H 835.733 4.63032 -2.46377 0
M  V30 8873 H 837.207 5.43666 -0.955604 0
M  V30 8874 H 837.684 4.37651 0.368524 0
M  V30 8875 H 838.29 4.05799 -1.27306 0
M  V30 8876 N 836.605 0.766683 1.37694 0
M  V30 8877 C 837.882 0.25366 1.93948 0
M  V30 8878 C 838.262 -1.25041 1.70082 0
M  V30 8879 O 837.61 -2.03115 1.04674 0
M  V30 8880 C 837.82 0.621549 3.43421 0
M  V30 8881 C 839.168 0.588504 4.20502 0
M  V30 8882 O 840.192 0.560632 3.5176 0
M  V30 8883 O 839.051 0.61107 5.43073 0
M  V30 8884 H 836.145 0.0570586 0.825029 0
M  V30 8885 H 838.691 0.847693 1.47011 0
M  V30 8886 H 837.463 1.65979 3.54354 0
M  V30 8887 H 837.086 0.000197027 3.976 0
M  V30 8888 N 838.083 -1.48885 0.516809 0
M  V30 8889 C 839.046 -2.27916 -0.242256 0
M  V30 8890 C 840.046 -1.34601 -0.879735 0
M  V30 8891 O 841.236 -1.57616 -0.74182 0
M  V30 8892 C 838.368 -3.13067 -1.34914 0
M  V30 8893 H 839.561 -2.96483 0.451444 0
M  V30 8894 H 837.114 -1.5391 0.272294 0
M  V30 8895 H 837.849 -2.49102 -2.07651 0
M  V30 8896 H 837.634 -3.81695 -0.897313 0
M  V30 8897 H 839.124 -3.72716 -1.88341 0
M  V30 8898 N 839.561 -0.251338 -1.55583 0
M  V30 8899 C 840.491 0.640437 -2.24545 0
M  V30 8900 C 841.472 1.17781 -1.22726 0
M  V30 8901 O 842.657 1.21633 -1.5139 0
M  V30 8902 C 839.787 1.8355 -2.94834 0
M  V30 8903 C 838.741 1.4307 -4.03379 0
M  V30 8904 C 838.067 2.70695 -4.61116 0
M  V30 8905 C 839.367 0.59848 -5.1886 0
M  V30 8906 H 841.061 0.0653772 -2.99329 0
M  V30 8907 H 838.607 0.0300042 -1.43969 0
M  V30 8908 H 840.56 2.46505 -3.4178 0
M  V30 8909 H 839.284 2.43601 -2.17546 0
M  V30 8910 H 837.943 0.824474 -3.57209 0
M  V30 8911 H 837.591 3.28954 -3.80524 0
M  V30 8912 H 837.291 2.44332 -5.34393 0
M  V30 8913 H 838.815 3.34541 -5.10798 0
M  V30 8914 H 840.229 1.13244 -5.62004 0
M  V30 8915 H 838.626 0.430728 -5.98552 0
M  V30 8916 H 839.696 -0.38829 -4.83343 0
M  V30 8917 N 841.039 1.57585 0.0217189 0
M  V30 8918 C 841.986 2.07036 1.02004 0
M  V30 8919 C 842.956 0.96106 1.35473 0
M  V30 8920 O 844.141 1.23211 1.45684 0
M  V30 8921 C 841.281 2.56056 2.31364 0
M  V30 8922 C 840.394 3.80805 2.03989 0
M  V30 8923 C 839.529 4.18409 3.27272 0
M  V30 8924 C 838.568 5.36055 2.95486 0
M  V30 8925 N 837.705 5.69056 4.11242 0
M  V30 8926 H 842.545 2.92073 0.591396 0
M  V30 8927 H 840.082 1.44403 0.280384 0
M  V30 8928 H 842.04 2.82548 3.06957 0
M  V30 8929 H 840.67 1.73925 2.71937 0
M  V30 8930 H 839.722 3.61354 1.1886 0
M  V30 8931 H 841.034 4.66512 1.76546 0
M  V30 8932 H 840.188 4.46068 4.11228 0
M  V30 8933 H 838.927 3.31369 3.57835 0
M  V30 8934 H 837.932 5.08142 2.09933 0
M  V30 8935 H 839.157 6.24755 2.66193 0
M  V30 8936 H 837.103 4.84974 4.41742 0
M  V30 8937 H 837.02 6.49288 3.87247 0
M  V30 8938 H 838.288 6.01295 4.96049 0
M  V30 8939 N 842.517 -0.29412 1.54831 0
M  V30 8940 C 843.464 -1.36296 1.86258 0
M  V30 8941 C 844.434 -1.50061 0.712097 0
M  V30 8942 O 845.619 -1.64809 0.961381 0
M  V30 8943 C 842.759 -2.72187 2.12151 0
M  V30 8944 C 841.872 -2.66816 3.39755 0
M  V30 8945 C 841.007 -3.94747 3.55455 0
M  V30 8946 C 840.046 -3.838 4.76827 0
M  V30 8947 N 839.183 -5.03521 4.89296 0
M  V30 8948 H 844.023 -1.08796 2.7743 0
M  V30 8949 H 841.56 -0.526069 1.37371 0
M  V30 8950 H 843.518 -3.51225 2.25159 0
M  V30 8951 H 842.148 -2.97934 1.24237 0
M  V30 8952 H 841.2 -1.79605 3.3533 0
M  V30 8953 H 842.512 -2.5462 4.28917 0
M  V30 8954 H 841.666 -4.82223 3.68166 0
M  V30 8955 H 840.405 -4.09785 2.64438 0
M  V30 8956 H 839.41 -2.94708 4.64141 0
M  V30 8957 H 840.635 -3.70301 5.69258 0
M  V30 8958 H 838.581 -5.1901 4.01204 0
M  V30 8959 H 838.498 -4.93775 5.72471 0
M  V30 8960 H 839.766 -5.92629 5.06371 0
M  V30 8961 N 843.995 -1.47404 -0.557645 0
M  V30 8962 C 845.241 -1.54235 -1.31679 0
M  V30 8963 C 845.574 -0.203782 -1.93128 0
M  V30 8964 O 844.849 0.787536 -1.77843 0
M  V30 8965 C 845.132 -2.66003 -2.42723 0
M  V30 8966 C 844.985 -4.09475 -1.86145 0
M  V30 8967 C 846.304 -2.73685 -3.44652 0
M  V30 8968 H 843.423 -0.561466 -0.477415 0
M  V30 8969 H 846.065 -1.79459 -0.624067 0
M  V30 8970 H 844.215 -2.44627 -3.01811 0
M  V30 8971 H 845.887 -4.42213 -1.31321 0
M  V30 8972 H 844.13 -4.17774 -1.16823 0
M  V30 8973 H 844.801 -4.83451 -2.66418 0
M  V30 8974 H 847.277 -2.92968 -2.95481 0
M  V30 8975 H 846.153 -3.53665 -4.19777 0
M  V30 8976 H 846.414 -1.80726 -4.03473 0
M  V30 8977 N 845.473 0.80434 -1.35529 0
M  V30 8978 C 846.72 1.56154 -1.28927 0
M  V30 8979 C 847.048 1.94026 0.135682 0
M  V30 8980 O 846.303 1.61759 1.10148 0
M  V30 8981 C 846.602 2.85988 -2.14349 0
M  V30 8982 C 846.268 2.67323 -3.6311 0
M  V30 8983 C 844.93 2.61941 -4.03659 0
M  V30 8984 C 847.282 2.49699 -4.57493 0
M  V30 8985 C 844.61 2.3688 -5.36754 0
M  V30 8986 C 846.962 2.26168 -5.90788 0
M  V30 8987 C 845.626 2.19209 -6.30479 0
M  V30 8988 H 844.896 0.571407 -0.471779 0
M  V30 8989 H 847.543 0.929193 -1.67446 0
M  V30 8990 H 845.848 3.53612 -1.68718 0
M  V30 8991 H 847.545 3.43697 -2.06576 0
M  V30 8992 H 844.135 2.72361 -3.30934 0
M  V30 8993 H 848.319 2.52869 -4.27049 0
M  V30 8994 H 843.575 2.29964 -5.66504 0
M  V30 8995 H 847.749 2.11522 -6.63499 0
M  V30 8996 H 845.376 1.99553 -7.33541 0
M  V30 8997 N 846.951 1.19563 1.02676 0
M  V30 8998 C 848.199 0.997593 1.75763 0
M  V30 8999 C 848.52 -0.47253 1.89188 0
M  V30 9000 O 847.79 -1.34214 1.42701 0
M  V30 9001 H 846.37 0.366128 0.651122 0
M  V30 9002 H 849.032 1.50495 1.23844 0
M  V30 9003 H 848.128 1.44741 2.76508 0
M  V30 9004 N 848.429 -1.21819 0.999893 0
M  V30 9005 C 849.339 -2.27691 0.565159 0
M  V30 9006 C 850.355 -1.69587 -0.389398 0
M  V30 9007 O 851.531 -1.99786 -0.254499 0
M  V30 9008 C 848.596 -3.46537 -0.106432 0
M  V30 9009 C 847.657 -4.19932 0.891964 0
M  V30 9010 C 846.89 -5.33103 0.252327 0
M  V30 9011 O 847.113 -5.62398 -0.952103 0
M  V30 9012 O 846.047 -5.94184 0.960698 0
M  V30 9013 H 849.873 -2.67059 1.44613 0
M  V30 9014 H 847.458 -1.28119 0.768499 0
M  V30 9015 H 849.34 -4.18631 -0.482301 0
M  V30 9016 H 848.015 -3.09079 -0.961865 0
M  V30 9017 H 846.922 -3.5008 1.3189 0
M  V30 9018 H 848.255 -4.61287 1.71682 0
M  V30 9019 N 849.908 -0.773975 -1.37286 0
M  V30 9020 C 850.858 -0.135245 -2.27599 0
M  V30 9021 C 851.842 0.671691 -1.46209 0
M  V30 9022 O 853.034 0.534299 -1.68743 0
M  V30 9023 C 850.163 0.741298 -3.35201 0
M  V30 9024 C 849.249 -0.0735896 -4.24036 0
M  V30 9025 N 849.64 -1.12035 -4.93236 0
M  V30 9026 C 847.938 0.150038 -4.45748 0
M  V30 9027 C 848.639 -1.61512 -5.58828 0
M  V30 9028 N 847.615 -0.926922 -5.35639 0
M  V30 9029 H 851.417 -0.936646 -2.78575 0
M  V30 9030 H 848.931 -0.611944 -1.50429 0
M  V30 9031 H 850.928 1.21468 -3.98812 0
M  V30 9032 H 849.588 1.54142 -2.8578 0
M  V30 9033 H 850.599 -1.50253 -4.95625 0
M  V30 9034 H 847.276 0.921891 -4.07195 0
M  V30 9035 H 848.666 -2.48818 -6.24131 0
M  V30 9036 N 851.386 1.48609 -0.524698 0
M  V30 9037 C 852.333 2.29539 0.240956 0
M  V30 9038 C 853.303 1.37033 0.938681 0
M  V30 9039 O 854.488 1.65996 0.940737 0
M  V30 9040 C 851.628 3.20278 1.28514 0
M  V30 9041 C 850.741 4.27858 0.596798 0
M  V30 9042 C 849.876 5.05784 1.62346 0
M  V30 9043 C 848.915 6.05173 0.918287 0
M  V30 9044 N 848.052 6.76176 1.89025 0
M  V30 9045 H 852.892 2.945 -0.455368 0
M  V30 9046 H 850.429 1.45188 -0.236403 0
M  V30 9047 H 852.387 3.71281 1.90279 0
M  V30 9048 H 851.017 2.57251 1.94992 0
M  V30 9049 H 850.069 3.80162 -0.134668 0
M  V30 9050 H 851.381 4.98782 0.0428506 0
M  V30 9051 H 850.535 5.60775 2.31553 0
M  V30 9052 H 849.274 4.34687 2.2113 0
M  V30 9053 H 848.279 5.49391 0.21212 0
M  V30 9054 H 849.504 6.78265 0.336633 0
M  V30 9055 H 847.45 6.07834 2.46726 0
M  V30 9056 H 847.367 7.43157 1.3876 0
M  V30 9057 H 848.635 7.35759 2.57446 0
M  V30 9058 N 852.864 0.259585 1.55447 0
M  V30 9059 C 853.827 -0.621359 2.20617 0
M  V30 9060 C 854.827 -1.09317 1.17925 0
M  V30 9061 O 856.017 -0.995842 1.42929 0
M  V30 9062 C 853.149 -1.85546 2.85982 0
M  V30 9063 H 854.342 -0.0525833 2.99854 0
M  V30 9064 H 851.895 0.0101055 1.56297 0
M  V30 9065 H 852.63 -2.46515 2.10715 0
M  V30 9066 H 852.415 -1.52523 3.61219 0
M  V30 9067 H 853.905 -2.48227 3.35817 0
M  V30 9068 N 854.342 -1.57594 -0.0133615 0
M  V30 9069 C 855.29 -2.08682 -1.02736 0
M  V30 9070 C 856.284 -1.00391 -1.36448 0
M  V30 9071 O 857.49 -1.18868 -1.35168 0
M  V30 9072 H 853.865 -0.666158 -0.34891 0
M  V30 9073 H 855.836 -2.9289 -0.570815 0
M  V30 9074 C 854.585 -2.5945 -2.31476 0
M  V30 9075 H 853.908 -3.42401 -2.06401 0
M  V30 9076 H 855.348 -2.98888 -3.00735 0
M  V30 9077 C 853.807 -1.50266 -3.01533 0
M  V30 9078 O 854.337 -0.877875 -3.9199 0
M  V30 9079 N 852.543 -1.23336 -2.63129 0
M  V30 9080 H 852.09 -1.74327 -1.89652 0
M  V30 9081 H 852.048 -0.504987 -3.10318 0
M  V30 9082 N 855.82 0.285905 -1.54985 0
M  V30 9083 C 857.097 1.0397 -1.65679 0
M  V30 9084 C 857.477 2.04725 -0.514851 0
M  V30 9085 O 856.825 2.23257 0.486663 0
M  V30 9086 C 857.035 1.70807 -3.04345 0
M  V30 9087 C 858.383 2.22447 -3.61666 0
M  V30 9088 O 859.407 1.80815 -3.06895 0
M  V30 9089 O 858.266 2.98773 -4.57599 0
M  V30 9090 H 855.36 0.481473 -0.672394 0
M  V30 9091 H 857.906 0.282789 -1.67327 0
M  V30 9092 H 856.678 0.977271 -3.789 0
M  V30 9093 H 856.301 2.53217 -3.06541 0
M  V30 9094 N 857.298 1.47698 0.54982 0
M  V30 9095 C 858.714 1.3338 0.876468 0
M  V30 9096 C 858.914 0.329837 1.98782 0
M  V30 9097 O 857.97 -0.256022 2.51199 0
M  V30 9098 C 859.283 2.72903 1.26272 0
M  V30 9099 C 860.831 2.81243 1.37373 0
M  V30 9100 C 861.306 4.21423 1.79351 0
M  V30 9101 N 862.797 4.24 1.86489 0
M  V30 9102 C 863.532 5.29386 2.20313 0
M  V30 9103 N 863.028 6.4507 2.527 0
M  V30 9104 N 864.821 5.16768 2.2115 0
M  V30 9105 H 856.972 2.11603 -0.183781 0
M  V30 9106 H 859.235 0.947798 -0.0195601 0
M  V30 9107 H 858.941 3.47836 0.519889 0
M  V30 9108 H 858.815 3.05151 2.21727 0
M  V30 9109 H 861.202 2.06577 2.10737 0
M  V30 9110 H 861.283 2.52639 0.400882 0
M  V30 9111 H 860.927 4.96597 1.06555 0
M  V30 9112 H 860.857 4.47456 2.77652 0
M  V30 9113 H 863.348 3.40547 1.63817 0
M  V30 9114 H 863.661 7.21236 2.77557 0
M  V30 9115 H 862.006 6.48377 2.50263 0
M  V30 9116 H 865.197 4.25416 1.95293 0
M  V30 9117 H 865.37 5.99004 2.4718 0
M  V30 9118 N 858.776 -0.797141 1.35954 0
M  V30 9119 C 859.709 -1.91567 1.24005 0
M  V30 9120 C 860.687 -1.62112 0.125868 0
M  V30 9121 O 861.871 -1.86167 0.295638 0
M  V30 9122 C 858.998 -3.26204 0.911535 0
M  V30 9123 C 858.044 -3.74598 2.03909 0
M  V30 9124 S 858.877 -3.91276 3.656 0
M  V30 9125 C 860.033 -5.288 3.34846 0
M  V30 9126 H 860.266 -2.0141 2.18681 0
M  V30 9127 H 857.799 -0.955542 1.2128 0
M  V30 9128 H 859.757 -4.03979 0.728805 0
M  V30 9129 H 858.418 -3.14095 -0.0173159 0
M  V30 9130 H 857.611 -4.72137 1.7636 0
M  V30 9131 H 857.213 -3.03849 2.18064 0
M  V30 9132 H 859.505 -6.13117 2.8826 0
M  V30 9133 H 860.448 -5.61347 4.31619 0
M  V30 9134 H 860.856 -4.95534 2.70382 0
M  V30 9135 N 860.254 -1.20106 -1.0204 0
M  V30 9136 C 861.5 -1.01039 -1.75838 0
M  V30 9137 C 861.833 0.456819 -1.88751 0
M  V30 9138 O 861.108 1.33919 -1.41053 0
M  V30 9139 C 861.391 -1.69009 -3.17975 0
M  V30 9140 C 861.244 -3.2315 -3.1288 0
M  V30 9141 C 862.563 -1.42005 -4.16561 0
M  V30 9142 H 859.682 -0.368465 -0.638281 0
M  V30 9143 H 862.324 -1.48066 -1.19064 0
M  V30 9144 H 860.474 -1.29026 -3.66449 0
M  V30 9145 H 862.146 -3.72402 -2.72239 0
M  V30 9146 H 860.389 -3.54253 -2.50374 0
M  V30 9147 H 861.06 -3.65862 -4.13339 0
M  V30 9148 H 863.536 -1.76685 -3.76725 0
M  V30 9149 H 862.412 -1.92101 -5.14187 0
M  V30 9150 H 862.673 -0.346884 -4.40737 0
M  V30 9151 N 861.732 1.21287 -1.00634 0
M  V30 9152 C 862.957 1.94925 -0.708441 0
M  V30 9153 C 863.382 1.73659 0.722783 0
M  V30 9154 O 862.74 1.02429 1.49593 0
M  V30 9155 C 862.788 3.45377 -1.03667 0
M  V30 9156 O 861.892 4.12153 -0.142661 0
M  V30 9157 H 861.233 0.609338 -0.263824 0
M  V30 9158 H 863.763 1.54008 -1.34695 0
M  V30 9159 H 863.773 3.95954 -0.984086 0
M  V30 9160 H 862.448 3.6018 -2.0795 0
M  V30 9161 H 861.025 3.72048 -0.251888 0
M  V30 9162 N 863.21 0.781244 1.36873 0
M  V30 9163 C 864.458 0.349198 1.9906 0
M  V30 9164 C 864.779 -1.0806 1.62321 0
M  V30 9165 O 864.049 -1.74351 0.893229 0
M  V30 9166 H 862.629 0.126126 0.736275 0
M  V30 9167 H 865.291 1.00148 1.67202 0
M  V30 9168 H 864.387 0.434451 3.09061 0
M  V30 9169 N 864.689 -1.48329 0.532571 0
M  V30 9170 C 865.652 -2.2816 -0.218069 0
M  V30 9171 C 866.652 -1.35526 -0.865409 0
M  V30 9172 O 867.842 -1.58394 -0.725061 0
M  V30 9173 C 864.974 -3.1448 -1.31586 0
M  V30 9174 H 866.167 -2.95987 0.482865 0
M  V30 9175 H 863.72 -1.53612 0.288603 0
M  V30 9176 H 864.455 -2.5129 -2.04997 0
M  V30 9177 H 864.24 -3.82625 -0.856779 0
M  V30 9178 H 865.73 -3.74693 -1.84377 0
M  V30 9179 N 866.167 -0.267825 -1.55308 0
M  V30 9180 C 867.397 0.354073 -2.03543 0
M  V30 9181 C 867.805 1.50554 -1.14586 0
M  V30 9182 O 867.148 1.83028 -0.156991 0
M  V30 9183 C 867.21 0.904148 -3.47945 0
M  V30 9184 C 866.874 -0.11775 -4.56848 0
M  V30 9185 C 867.871 -0.934707 -5.11429 0
M  V30 9186 C 865.556 -0.249885 -5.01678 0
M  V30 9187 C 867.55 -1.87005 -6.0935 0
M  V30 9188 C 865.237 -1.18872 -5.99427 0
M  V30 9189 C 866.235 -1.99731 -6.53144 0
M  V30 9190 O 865.923 -2.92028 -7.48983 0
M  V30 9191 H 865.655 0.0857765 -0.670536 0
M  V30 9192 H 868.209 -0.395515 -2.01556 0
M  V30 9193 H 866.439 1.70368 -3.47148 0
M  V30 9194 H 868.128 1.43835 -3.79561 0
M  V30 9195 H 868.894 -0.84332 -4.77612 0
M  V30 9196 H 864.773 0.369469 -4.59517 0
M  V30 9197 H 868.317 -2.5016 -6.51203 0
M  V30 9198 H 864.214 -1.28095 -6.32663 0
M  V30 9199 H 864.982 -2.86627 -7.66673 0
M  V30 9200 N 867.645 1.57599 0.00500368 0
M  V30 9201 C 869.061 1.55463 0.361015 0
M  V30 9202 C 869.261 0.997051 1.75103 0
M  V30 9203 O 868.317 0.628661 2.44549 0
M  V30 9204 C 869.63 2.99734 0.240828 0
M  V30 9205 C 871.178 3.11399 0.316138 0
M  V30 9206 C 871.653 4.57446 0.22513 0
M  V30 9207 N 873.144 4.62334 0.283186 0
M  V30 9208 C 873.879 5.72914 0.23603 0
M  V30 9209 N 873.375 6.92659 0.139762 0
M  V30 9210 N 875.168 5.61364 0.287529 0
M  V30 9211 H 867.319 1.92185 -0.904359 0
M  V30 9212 H 869.582 0.882529 -0.34619 0
M  V30 9213 H 869.288 3.44348 -0.715343 0
M  V30 9214 H 869.162 3.63009 1.02491 0
M  V30 9215 H 871.549 2.66718 1.26275 0
M  V30 9216 H 871.63 2.50911 -0.497725 0
M  V30 9217 H 871.274 5.02801 -0.717917 0
M  V30 9218 H 871.204 5.15874 1.05742 0
M  V30 9219 H 873.695 3.7619 0.359123 0
M  V30 9220 H 874.008 7.72722 0.10954 0
M  V30 9221 H 872.353 6.9492 0.105462 0
M  V30 9222 H 875.544 4.66707 0.360897 0
M  V30 9223 H 875.717 6.47528 0.247313 0
M  V30 9224 N 869.123 -0.277682 1.55134 0
M  V30 9225 C 870.055 -1.36531 1.84098 0
M  V30 9226 C 871.068 -1.45756 0.725194 0
M  V30 9227 O 872.257 -1.47656 1.00299 0
M  V30 9228 C 869.357 -2.74701 1.98476 0
M  V30 9229 C 868.53 -2.88125 3.29094 0
M  V30 9230 C 867.589 -4.0694 3.33596 0
M  V30 9231 O 866.615 -3.9792 4.06999 0
M  V30 9232 N 867.817 -5.18687 2.60661 0
M  V30 9233 H 870.582 -1.12032 2.77973 0
M  V30 9234 H 868.143 -0.467793 1.54995 0
M  V30 9235 H 870.135 -3.52471 1.98863 0
M  V30 9236 H 868.705 -2.92043 1.11488 0
M  V30 9237 H 867.925 -1.97277 3.41285 0
M  V30 9238 H 869.213 -2.94021 4.15246 0
M  V30 9239 H 868.611 -5.28901 2.00699 0
M  V30 9240 H 867.168 -5.94705 2.66776 0
M  V30 9241 N 870.601 -1.47988 -0.541979 0
M  V30 9242 C 871.511 -1.64276 -1.67483 0
M  V30 9243 C 872.527 -0.525387 -1.65879 0
M  V30 9244 O 873.703 -0.794912 -1.85049 0
M  V30 9245 C 870.768 -1.66744 -3.03969 0
M  V30 9246 C 869.829 -2.90021 -3.16522 0
M  V30 9247 C 869.062 -2.92362 -4.46498 0
M  V30 9248 O 869.285 -2.03462 -5.32878 0
M  V30 9249 O 868.219 -3.84399 -4.63164 0
M  V30 9250 H 872.045 -2.60164 -1.5668 0
M  V30 9251 H 869.63 -1.31249 -0.71372 0
M  V30 9252 H 871.512 -1.70958 -3.85164 0
M  V30 9253 H 870.187 -0.740277 -3.15122 0
M  V30 9254 H 869.094 -2.91345 -2.34667 0
M  V30 9255 H 870.427 -3.82082 -3.10281 0
M  V30 9256 N 872.079 0.78992 -1.36375 0
M  V30 9257 C 873.326 1.54777 -1.30576 0
M  V30 9258 C 873.654 1.94159 0.115095 0
M  V30 9259 O 872.909 1.62918 1.08426 0
M  V30 9260 C 873.208 2.83698 -2.17371 0
M  V30 9261 C 872.874 2.63457 -3.65925 0
M  V30 9262 C 871.536 2.57645 -4.06415 0
M  V30 9263 C 873.888 2.44833 -4.60115 0
M  V30 9264 C 871.216 2.31174 -5.39236 0
M  V30 9265 C 873.568 2.19889 -5.93154 0
M  V30 9266 C 872.232 2.1251 -6.32768 0
M  V30 9267 H 871.502 0.566371 -0.477813 0
M  V30 9268 H 874.149 0.91138 -1.68422 0
M  V30 9269 H 872.454 3.51802 -1.72459 0
M  V30 9270 H 874.151 3.41487 -2.10209 0
M  V30 9271 H 870.741 2.68836 -3.33804 0
M  V30 9272 H 874.925 2.48325 -4.29707 0
M  V30 9273 H 870.181 2.23942 -5.68911 0
M  V30 9274 H 874.355 2.04473 -6.65705 0
M  V30 9275 H 871.982 1.91761 -7.35616 0
M  V30 9276 N 873.557 1.20646 1.01402 0
M  V30 9277 C 874.805 1.01618 1.74695 0
M  V30 9278 C 875.126 -0.452438 1.89679 0
M  V30 9279 O 874.396 -1.32693 1.44116 0
M  V30 9280 H 872.976 0.373013 0.647202 0
M  V30 9281 H 875.638 1.518 1.22241 0
M  V30 9282 H 874.734 1.47666 2.74957 0
M  V30 9283 N 875.035 -1.20752 1.01276 0
M  V30 9284 C 875.945 -2.27079 0.589277 0
M  V30 9285 C 876.961 -1.6999 -0.371389 0
M  V30 9286 O 878.137 -2.00044 -0.233294 0
M  V30 9287 C 875.202 -3.4663 -0.0696715 0
M  V30 9288 C 874.263 -4.18962 0.936454 0
M  V30 9289 C 873.496 -5.32806 0.308856 0
M  V30 9290 O 873.719 -5.63376 -0.8924 0
M  V30 9291 O 872.653 -5.93131 1.02367 0
M  V30 9292 H 876.479 -2.6551 1.47438 0
M  V30 9293 H 874.064 -1.27297 0.782045 0
M  V30 9294 H 875.946 -4.19119 -0.437873 0
M  V30 9295 H 874.621 -3.10082 -0.929029 0
M  V30 9296 H 873.528 -3.48661 1.35595 0
M  V30 9297 H 874.861 -4.59441 1.76565 0
M  V30 9298 N 876.513 -0.788492 -1.36457 0
M  V30 9299 C 877.738 -0.371224 -2.04051 0
M  V30 9300 C 878.163 1.004 -1.59064 0
M  V30 9301 O 877.521 1.64663 -0.758679 0
M  V30 9302 C 877.569 -0.442275 -3.57877 0
M  V30 9303 O 876.673 0.55113 -4.08701 0
M  V30 9304 H 876.014 -0.157808 -0.644975 0
M  V30 9305 H 878.544 -1.06935 -1.74431 0
M  V30 9306 H 878.554 -0.305548 -4.06854 0
M  V30 9307 H 877.229 -1.44547 -3.89973 0
M  V30 9308 H 875.806 0.37614 -3.70998 0
M  V30 9309 N 877.991 1.48044 -0.54043 0
M  V30 9310 C 878.938 2.29781 0.216597 0
M  V30 9311 C 879.908 1.38021 0.924094 0
M  V30 9312 O 881.093 1.66985 0.923078 0
M  V30 9313 C 878.233 3.21623 1.2511 0
M  V30 9314 C 877.346 4.28467 0.551384 0
M  V30 9315 C 876.481 5.07477 1.56972 0
M  V30 9316 C 875.52 6.06113 0.854048 0
M  V30 9317 N 874.657 6.78143 1.81842 0
M  V30 9318 H 879.497 2.94001 -0.486578 0
M  V30 9319 H 877.034 1.44929 -0.251789 0
M  V30 9320 H 878.992 3.73279 1.8633 0
M  V30 9321 H 877.622 2.59305 1.92252 0
M  V30 9322 H 876.674 3.79997 -0.174982 0
M  V30 9323 H 877.986 4.98799 -0.0100542 0
M  V30 9324 H 877.14 5.63199 2.25592 0
M  V30 9325 H 875.879 4.37008 2.16507 0
M  V30 9326 H 874.884 5.49585 0.153838 0
M  V30 9327 H 876.109 6.78584 0.264675 0
M  V30 9328 H 874.055 6.10417 2.40265 0
M  V30 9329 H 873.972 7.44587 1.3087 0
M  V30 9330 H 875.24 7.38448 2.49628 0
M  V30 9331 N 879.47 0.276058 1.55163 0
M  V30 9332 C 880.38 -0.621066 2.2623 0
M  V30 9333 C 881.396 -1.16931 1.28853 0
M  V30 9334 O 882.572 -1.1994 1.61791 0
M  V30 9335 C 879.637 -1.78824 2.97023 0
M  V30 9336 C 878.698 -1.27657 4.09881 0
M  V30 9337 C 877.931 -2.38812 4.77289 0
M  V30 9338 O 878.154 -3.58188 4.43912 0
M  V30 9339 O 877.088 -2.06915 5.65217 0
M  V30 9340 H 880.914 -0.0453346 3.03666 0
M  V30 9341 H 878.499 0.0434275 1.49337 0
M  V30 9342 H 880.381 -2.46877 3.41511 0
M  V30 9343 H 879.056 -2.35104 2.22503 0
M  V30 9344 H 877.963 -0.56248 3.69847 0
M  V30 9345 H 879.296 -0.759509 4.86305 0
M  V30 9346 N 880.948 -1.576 0.00335426 0
M  V30 9347 C 882.197 -1.89892 -0.680001 0
M  V30 9348 C 882.51 -0.878731 -1.7475 0
M  V30 9349 O 883.716 -1.09199 -2.48572 0
M  V30 9350 C 882.172 -3.37098 -1.26066 0
M  V30 9351 C 881.78 -4.4742 -0.227807 0
M  V30 9352 C 883.524 -3.78495 -1.92202 0
M  V30 9353 C 881.431 -5.85706 -0.81865 0
M  V30 9354 H 880.361 -0.708578 -0.257746 0
M  V30 9355 H 883.012 -1.83387 0.0644472 0
M  V30 9356 H 881.394 -3.38451 -2.05589 0
M  V30 9357 H 882.568 -4.57589 0.54307 0
M  V30 9358 H 880.883 -4.15064 0.333297 0
M  V30 9359 H 883.48 -4.7915 -2.37318 0
M  V30 9360 H 883.823 -3.12187 -2.75399 0
M  V30 9361 H 884.356 -3.79456 -1.19408 0
M  V30 9362 H 881.095 -6.55495 -0.0253787 0
M  V30 9363 H 880.615 -5.79196 -1.55861 0
M  V30 9364 H 882.294 -6.33469 -1.31627 0
M  V30 9365 N 882.426 0.269451 -1.5528 0
M  V30 9366 C 883.654 1.01872 -1.80082 0
M  V30 9367 C 884.069 1.79802 -0.575917 0
M  V30 9368 O 883.426 1.76735 0.455081 0
M  V30 9369 C 883.477 1.9745 -3.02813 0
M  V30 9370 O 883.198 1.22677 -4.20573 0
M  V30 9371 C 884.699 2.8416 -3.40247 0
M  V30 9372 H 881.919 0.300781 -0.59981 0
M  V30 9373 H 884.463 0.29916 -2.023 0
M  V30 9374 H 882.618 2.64864 -2.82712 0
M  V30 9375 H 883.032 1.87129 -4.89982 0
M  V30 9376 H 884.506 3.47014 -4.29284 0
M  V30 9377 H 884.983 3.54113 -2.59809 0
M  V30 9378 H 885.589 2.22232 -3.6262 0
M  V30 9379 N 883.904 1.48273 0.534124 0
M  V30 9380 C 885.129 1.59988 1.31979 0
M  V30 9381 C 885.554 0.258824 1.86311 0
M  V30 9382 O 884.912 -0.768885 1.64188 0
M  V30 9383 C 884.96 2.64642 2.44943 0
M  V30 9384 O 884.064 2.21515 3.47858 0
M  V30 9385 H 883.405 0.536625 0.391063 0
M  V30 9386 H 885.935 1.94229 0.643135 0
M  V30 9387 H 885.945 2.85786 2.91187 0
M  V30 9388 H 884.62 3.62004 2.04758 0
M  V30 9389 H 883.197 2.10567 3.0776 0
M  V30 9390 N 885.382 -0.782676 1.36792 0
M  V30 9391 C 886.345 -1.8772 1.31507 0
M  V30 9392 C 887.345 -1.59269 0.221349 0
M  V30 9393 O 888.535 -1.67555 0.476544 0
M  V30 9394 C 885.667 -3.24641 1.04025 0
M  V30 9395 H 886.86 -1.9382 2.28853 0
M  V30 9396 H 884.413 -0.981226 1.21662 0
M  V30 9397 H 885.148 -3.24221 0.0716439 0
M  V30 9398 H 884.933 -3.46681 1.8318 0
M  V30 9399 H 886.423 -4.04711 1.02949 0
M  V30 9400 N 886.86 -1.21182 -1.00761 0
M  V30 9401 C 888.109 -1.02166 -1.73911 0
M  V30 9402 C 888.422 0.445638 -1.90456 0
M  V30 9403 O 889.628 0.755132 -2.60787 0
M  V30 9404 C 888.084 -1.77936 -3.12837 0
M  V30 9405 C 887.692 -3.28819 -3.04273 0
M  V30 9406 C 889.436 -1.67319 -3.90134 0
M  V30 9407 C 887.343 -3.97089 -4.38262 0
M  V30 9408 H 886.273 -0.378665 -0.652019 0
M  V30 9409 H 888.924 -1.44891 -1.12601 0
M  V30 9410 H 887.306 -1.28003 -3.74742 0
M  V30 9411 H 888.48 -3.86035 -2.51622 0
M  V30 9412 H 886.795 -3.39949 -2.40465 0
M  V30 9413 H 889.392 -2.15659 -4.8928 0
M  V30 9414 H 889.735 -0.630959 -4.11491 0
M  V30 9415 H 890.268 -2.14716 -3.34876 0
M  V30 9416 H 887.007 -5.01503 -4.22107 0
M  V30 9417 H 886.527 -3.44662 -4.90885 0
M  V30 9418 H 888.206 -4.01854 -5.07072 0
M  V30 9419 N 888.338 1.20213 -1.01915 0
M  V30 9420 C 889.285 2.2309 -0.591571 0
M  V30 9421 C 890.255 1.61465 0.389649 0
M  V30 9422 O 891.44 1.88606 0.288511 0
M  V30 9423 C 888.58 3.45045 0.0614028 0
M  V30 9424 C 887.693 4.21091 -0.964688 0
M  V30 9425 C 886.828 5.30448 -0.282499 0
M  V30 9426 C 885.867 5.98241 -1.29517 0
M  V30 9427 N 885.004 6.99182 -0.639472 0
M  V30 9428 H 889.844 2.59023 -1.47347 0
M  V30 9429 H 887.381 1.27274 -0.737547 0
M  V30 9430 H 889.339 4.14688 0.45714 0
M  V30 9431 H 887.969 3.09797 0.906937 0
M  V30 9432 H 887.021 3.50489 -1.47857 0
M  V30 9433 H 888.333 4.67662 -1.73475 0
M  V30 9434 H 887.487 6.06466 0.168603 0
M  V30 9435 H 886.226 4.84922 0.519843 0
M  V30 9436 H 885.231 5.20982 -1.75663 0
M  V30 9437 H 886.456 6.45853 -2.09884 0
M  V30 9438 H 884.402 6.55844 0.142955 0
M  V30 9439 H 884.319 7.43893 -1.34756 0
M  V30 9440 H 885.587 7.79212 -0.212047 0
M  V30 9441 N 889.816 0.795718 1.36037 0
M  V30 9442 C 891.232 0.478145 1.52269 0
M  V30 9443 C 891.432 -1.0025 1.74792 0
M  V30 9444 O 890.488 -1.78783 1.78305 0
M  V30 9445 C 891.801 1.31406 2.70468 0
M  V30 9446 C 893.349 1.3084 2.84341 0
M  V30 9447 C 893.824 2.12819 4.05551 0
M  V30 9448 N 895.315 2.10298 4.12709 0
M  V30 9449 C 896.05 2.70495 5.05589 0
M  V30 9450 N 895.546 3.39576 6.03871 0
M  V30 9451 N 897.339 2.60195 4.98252 0
M  V30 9452 H 889.49 1.75477 1.19673 0
M  V30 9453 H 891.753 0.74627 0.584624 0
M  V30 9454 H 891.459 2.36435 2.60368 0
M  V30 9455 H 891.333 0.959726 3.64786 0
M  V30 9456 H 893.72 0.266003 2.93899 0
M  V30 9457 H 893.801 1.70254 1.90912 0
M  V30 9458 H 893.445 3.17093 3.96755 0
M  V30 9459 H 893.375 1.70772 4.98141 0
M  V30 9460 H 895.866 1.60026 3.42345 0
M  V30 9461 H 896.179 3.82823 6.71317 0
M  V30 9462 H 894.524 3.43679 6.04077 0
M  V30 9463 H 897.715 2.05823 4.20422 0
M  V30 9464 H 897.888 3.074 5.70447 0
M  V30 9465 N 891.294 -1.47756 0.548274 0
M  V30 9466 C 892.54 -2.02789 0.0209265 0
M  V30 9467 C 892.873 -1.42268 -1.32187 0
M  V30 9468 O 892.148 -0.575001 -1.85806 0
M  V30 9469 C 892.431 -3.60007 -0.0816674 0
M  V30 9470 C 892.284 -4.30977 1.28759 0
M  V30 9471 C 893.603 -4.32777 -0.799515 0
M  V30 9472 H 890.722 -0.736944 0.00907884 0
M  V30 9473 H 893.364 -1.76282 0.708839 0
M  V30 9474 H 891.514 -3.82722 -0.667537 0
M  V30 9475 H 893.186 -4.19629 1.91597 0
M  V30 9476 H 891.429 -3.9168 1.86466 0
M  V30 9477 H 892.1 -5.39488 1.16861 0
M  V30 9478 H 894.576 -4.15001 -0.30216 0
M  V30 9479 H 893.452 -5.42431 -0.840239 0
M  V30 9480 H 893.713 -4.01358 -1.85375 0
M  V30 9481 N 892.772 -0.284283 -1.55015 0
M  V30 9482 C 893.722 0.613913 -2.19579 0
M  V30 9483 C 894.706 1.11153 -1.16335 0
M  V30 9484 O 895.898 1.05508 -1.42116 0
M  V30 9485 C 893.027 1.79329 -2.92739 0
M  V30 9486 C 892.113 1.31242 -4.03282 0
M  V30 9487 N 892.504 0.548344 -5.02819 0
M  V30 9488 C 890.802 1.5946 -4.1652 0
M  V30 9489 C 891.503 0.294358 -5.80955 0
M  V30 9490 N 890.479 0.869406 -5.36603 0
M  V30 9491 H 894.281 0.0224088 -2.93891 0
M  V30 9492 H 891.795 -0.0882619 -1.6216 0
M  V30 9493 H 893.792 2.44814 -3.37449 0
M  V30 9494 H 892.452 2.38865 -2.1994 0
M  V30 9495 H 893.463 0.194812 -5.17533 0
M  V30 9496 H 890.14 2.19866 -3.54916 0
M  V30 9497 H 891.53 -0.318195 -6.71146 0
M  V30 9498 N 894.251 1.57596 -0.0117121 0
M  V30 9499 C 895.198 2.09153 0.975897 0
M  V30 9500 C 896.168 0.989579 1.33404 0
M  V30 9501 O 897.353 1.26273 1.43038 0
M  V30 9502 C 894.493 2.60906 2.2588 0
M  V30 9503 C 893.606 3.85046 1.95866 0
M  V30 9504 C 892.741 4.25257 3.18323 0
M  V30 9505 C 891.78 5.42202 2.84049 0
M  V30 9506 N 890.917 5.77651 3.99079 0
M  V30 9507 H 895.757 2.93261 0.52931 0
M  V30 9508 H 893.294 1.44965 0.249691 0
M  V30 9509 H 895.252 2.88995 3.00895 0
M  V30 9510 H 893.882 1.79654 2.68187 0
M  V30 9511 H 892.934 3.63794 1.11168 0
M  V30 9512 H 894.246 4.70151 1.66611 0
M  V30 9513 H 893.4 4.5469 4.01674 0
M  V30 9514 H 892.139 3.38884 3.50726 0
M  V30 9515 H 891.144 5.1248 1.99107 0
M  V30 9516 H 892.369 6.3026 2.52881 0
M  V30 9517 H 890.315 4.94235 4.31356 0
M  V30 9518 H 890.232 6.57356 3.73388 0
M  V30 9519 H 891.5 6.11681 4.83183 0
M  V30 9520 N 895.729 -0.261212 1.5542 0
M  V30 9521 C 896.976 -0.99123 1.76581 0
M  V30 9522 C 897.304 -1.85854 0.573457 0
M  V30 9523 O 896.559 -1.90604 -0.443705 0
M  V30 9524 C 896.858 -1.89395 3.03091 0
M  V30 9525 C 896.524 -1.18318 4.351 0
M  V30 9526 C 895.186 -0.986688 4.70975 0
M  V30 9527 C 897.538 -0.678299 5.16767 0
M  V30 9528 C 894.866 -0.272788 5.86065 0
M  V30 9529 C 897.218 0.0220646 6.32596 0
M  V30 9530 C 895.882 0.230161 6.67103 0
M  V30 9531 H 895.152 -0.362717 0.646156 0
M  V30 9532 H 897.799 -0.262506 1.89692 0
M  V30 9533 H 896.104 -2.68927 2.8493 0
M  V30 9534 H 897.801 -2.46022 3.16661 0
M  V30 9535 H 894.391 -1.34625 4.06908 0
M  V30 9536 H 898.575 -0.817691 4.89518 0
M  V30 9537 H 893.831 -0.10095 6.11317 0
M  V30 9538 H 898.005 0.420981 6.95126 0
M  V30 9539 H 895.632 0.785312 7.56133 0
M  V30 9540 N 897.207 -1.48554 -0.526253 0
M  V30 9541 C 898.14 -1.57928 -1.64724 0
M  V30 9542 C 899.118 -0.429536 -1.56824 0
M  V30 9543 O 900.302 -0.641651 -1.77243 0
M  V30 9544 C 897.429 -1.51075 -3.0314 0
M  V30 9545 C 896.475 -2.70937 -3.29386 0
M  V30 9546 S 897.308 -4.3287 -3.15251 0
M  V30 9547 C 898.464 -4.28622 -4.56108 0
M  V30 9548 H 898.697 -2.52761 -1.56523 0
M  V30 9549 H 896.23 -1.37133 -0.7095 0
M  V30 9550 H 898.188 -1.47808 -3.82966 0
M  V30 9551 H 896.849 -0.57574 -3.08778 0
M  V30 9552 H 896.042 -2.62291 -4.30371 0
M  V30 9553 H 895.644 -2.71486 -2.57238 0
M  V30 9554 H 897.936 -3.98784 -5.47702 0
M  V30 9555 H 898.879 -5.29798 -4.69808 0
M  V30 9556 H 899.287 -3.59038 -4.35605 0
M  V30 9557 N 898.685 0.775411 -1.37205 0
M  V30 9558 C 899.595 1.91967 -1.34855 0
M  V30 9559 C 900.611 1.72214 -0.248656 0
M  V30 9560 O 901.787 1.95512 -0.483421 0
M  V30 9561 C 898.852 3.27038 -1.15096 0
M  V30 9562 C 897.913 3.5947 -2.34691 0
M  V30 9563 C 897.146 4.88097 -2.15865 0
M  V30 9564 O 897.369 5.58871 -1.14102 0
M  V30 9565 O 896.303 5.19507 -3.03967 0
M  V30 9566 H 900.129 1.969 -2.31223 0
M  V30 9567 H 897.714 0.917647 -1.17897 0
M  V30 9568 H 899.596 4.07837 -1.0605 0
M  V30 9569 H 898.271 3.22965 -0.217999 0
M  V30 9570 H 897.178 2.7892 -2.49308 0
M  V30 9571 H 898.511 3.68282 -3.26541 0
M  V30 9572 N 900.163 1.21714 1.00117 0
M  V30 9573 C 901.579 0.97532 1.26332 0
M  V30 9574 C 901.779 -0.336029 1.98678 0
M  V30 9575 O 900.835 -1.06073 2.29139 0
M  V30 9576 C 902.148 2.16848 2.0832 0
M  V30 9577 C 903.696 2.21115 2.21533 0
M  V30 9578 C 904.171 3.3996 3.06906 0
M  V30 9579 N 905.662 3.40071 3.14494 0
M  V30 9580 C 906.397 4.28678 3.80818 0
M  V30 9581 N 905.893 5.2749 4.49139 0
M  V30 9582 N 907.686 4.16476 3.77497 0
M  V30 9583 H 899.837 2.06039 0.515897 0
M  V30 9584 H 902.1 0.902423 0.290408 0
M  V30 9585 H 901.806 3.119 1.62515 0
M  V30 9586 H 901.68 2.16226 3.09073 0
M  V30 9587 H 904.067 1.26616 2.66557 0
M  V30 9588 H 904.148 2.2578 1.20238 0
M  V30 9589 H 903.792 4.34755 2.62585 0
M  V30 9590 H 903.722 3.32534 4.08324 0
M  V30 9591 H 906.213 2.68563 2.65861 0
M  V30 9592 H 906.526 5.91397 4.97463 0
M  V30 9593 H 904.871 5.31412 4.47914 0
M  V30 9594 H 908.062 3.38539 3.23278 0
M  V30 9595 H 908.235 4.85739 4.28908 0
M  V30 9596 N 901.641 -1.19671 1.02551 0
M  V30 9597 C 902.551 -2.26441 0.613329 0
M  V30 9598 C 903.567 -1.70375 -0.353339 0
M  V30 9599 O 904.743 -2.0028 -0.212064 0
M  V30 9600 C 901.808 -3.46684 -0.0329028 0
M  V30 9601 C 900.869 -4.17945 0.980837 0
M  V30 9602 C 900.102 -5.32448 0.36535 0
M  V30 9603 O 900.325 -5.64291 -0.832596 0
M  V30 9604 O 899.259 -5.92012 1.08652 0
M  V30 9605 H 903.085 -2.63932 1.50246 0
M  V30 9606 H 900.67 -1.2646 0.795502 0
M  V30 9607 H 902.552 -4.1956 -0.393395 0
M  V30 9608 H 901.227 -3.1105 -0.896089 0
M  V30 9609 H 900.134 -3.47204 1.39286 0
M  V30 9610 H 901.467 -4.57542 1.81428 0
M  V30 9611 N 903.119 -0.802921 -1.35613 0
M  V30 9612 C 904.367 -0.380822 -1.9848 0
M  V30 9613 C 904.688 1.05464 -1.6402 0
M  V30 9614 O 903.958 1.72908 -0.920854 0
M  V30 9615 H 902.538 -0.137824 -0.734176 0
M  V30 9616 H 905.2 -1.02795 -1.65587 0
M  V30 9617 H 904.296 -0.483565 -3.08331 0
M  V30 9618 N 904.597 1.47463 -0.556102 0
M  V30 9619 C 906.013 1.58134 -0.21579 0
M  V30 9620 C 906.213 1.55486 1.28166 0
M  V30 9621 O 905.269 1.45768 2.06174 0
M  V30 9622 C 906.582 2.88686 -0.841464 0
M  V30 9623 C 908.13 3.02268 -0.812591 0
M  V30 9624 C 908.605 4.35518 -1.41731 0
M  V30 9625 N 910.096 4.42151 -1.38045 0
M  V30 9626 C 910.831 5.43817 -1.81799 0
M  V30 9627 N 910.327 6.52299 -2.33404 0
M  V30 9628 N 912.12 5.34855 -1.72877 0
M  V30 9629 H 904.271 1.47428 -1.52901 0
M  V30 9630 H 906.534 0.701586 -0.637559 0
M  V30 9631 H 906.24 2.96358 -1.8938 0
M  V30 9632 H 906.114 3.7572 -0.333846 0
M  V30 9633 H 908.501 2.94194 0.231056 0
M  V30 9634 H 908.582 2.16779 -1.35796 0
M  V30 9635 H 908.226 4.44348 -2.46002 0
M  V30 9636 H 908.156 5.19737 -0.847402 0
M  V30 9637 H 910.647 3.64348 -1.00296 0
M  V30 9638 H 910.96 7.26047 -2.64717 0
M  V30 9639 H 909.305 6.53192 -2.37414 0
M  V30 9640 H 912.496 4.49004 -1.32338 0
M  V30 9641 H 912.669 6.13949 -2.07294 0
M  V30 9642 N 906.075 0.2925 1.54862 0
M  V30 9643 C 907.491 -0.0611461 1.59483 0
M  V30 9644 C 907.691 -1.53141 1.30958 0
M  V30 9645 O 906.747 -2.28291 1.07887 0
M  V30 9646 C 908.06 0.329143 2.98893 0
M  V30 9647 C 909.608 0.2772 3.1177 0
M  V30 9648 C 910.083 0.642185 4.53475 0
M  V30 9649 N 911.574 0.594396 4.5937 0
M  V30 9650 C 912.309 0.849385 5.67074 0
M  V30 9651 N 911.805 1.1699 6.82851 0
M  V30 9652 N 913.598 0.777016 5.56704 0
M  V30 9653 H 905.749 1.25079 1.71665 0
M  V30 9654 H 908.012 0.506516 0.80134 0
M  V30 9655 H 907.718 1.35233 3.24661 0
M  V30 9656 H 907.592 -0.321442 3.75828 0
M  V30 9657 H 909.979 -0.736725 2.85756 0
M  V30 9658 H 910.06 0.962289 2.3701 0
M  V30 9659 H 909.704 1.65388 4.80218 0
M  V30 9660 H 909.634 -0.0648831 5.2656 0
M  V30 9661 H 912.125 0.357256 3.76208 0
M  V30 9662 H 912.438 1.35067 7.60905 0
M  V30 9663 H 910.783 1.20785 6.84424 0
M  V30 9664 H 913.974 0.526333 4.65132 0
M  V30 9665 H 914.147 0.979113 6.4056 0
M  V30 9666 N 907.553 -1.57587 0.0200696 0
M  V30 9667 C 908.964 -1.79312 -0.520019 0
M  V30 9668 C 909.315 -0.929475 -1.72787 0
M  V30 9669 O 908.44 -0.137389 -2.15963 0
M  V30 9670 C 909.035 -3.25203 -0.950172 0
M  V30 9671 C 907.594 -3.47954 -1.43543 0
M  V30 9672 C 906.741 -2.74459 -0.395917 0
M  V30 9673 H 909.692 -1.56779 0.246153 0
M  V30 9674 H 909.713 -3.34418 -1.81508 0
M  V30 9675 H 909.225 -3.88035 -0.070883 0
M  V30 9676 H 907.326 -2.90363 -2.33495 0
M  V30 9677 H 907.439 -4.56661 -1.44905 0
M  V30 9678 H 905.803 -2.39669 -0.862022 0
M  V30 9679 H 906.586 -3.40001 0.47475 0
M  V30 9680 N 909.032 0.252966 -1.55557 0
M  V30 9681 C 910.448 0.60118 -1.47844 0
M  V30 9682 C 910.648 1.88612 -0.709055 0
M  V30 9683 O 909.704 2.51395 -0.235964 0
M  V30 9684 C 911.017 0.709539 -2.92209 0
M  V30 9685 C 912.565 0.802269 -3.02544 0
M  V30 9686 C 913.04 0.94224 -4.48203 0
M  V30 9687 N 914.531 1.00726 -4.52116 0
M  V30 9688 C 915.266 1.13472 -5.6206 0
M  V30 9689 N 914.762 1.22811 -6.81828 0
M  V30 9690 N 916.555 1.1674 -5.49844 0
M  V30 9691 H 908.706 -0.590635 -2.04023 0
M  V30 9692 H 910.969 -0.202986 -0.926013 0
M  V30 9693 H 910.675 -0.164505 -3.51315 0
M  V30 9694 H 910.549 1.58343 -3.42356 0
M  V30 9695 H 912.936 1.66677 -2.43522 0
M  V30 9696 H 913.017 -0.0966469 -2.55617 0
M  V30 9697 H 912.661 0.0823209 -5.07833 0
M  V30 9698 H 912.591 1.85611 -4.92805 0
M  V30 9699 H 915.082 0.946684 -3.6585 0
M  V30 9700 H 915.395 1.32426 -7.61369 0
M  V30 9701 H 913.74 1.19779 -6.84601 0
M  V30 9702 H 916.931 1.09089 -4.55211 0
M  V30 9703 H 917.104 1.26329 -6.35567 0
M  V30 9704 N 910.51 1.48831 0.518367 0
M  V30 9705 C 911.44 1.67119 1.63075 0
M  V30 9706 C 912.421 0.519948 1.61958 0
M  V30 9707 O 913.606 0.753824 1.78972 0
M  V30 9708 C 910.736 1.72158 3.01627 0
M  V30 9709 C 909.69 2.86898 3.17606 0
M  V30 9710 C 909.016 2.77035 4.57335 0
M  V30 9711 C 910.316 4.28057 2.99274 0
M  V30 9712 H 912.01 2.60248 1.48025 0
M  V30 9713 H 909.556 1.2524 0.710694 0
M  V30 9714 H 911.509 1.83539 3.7933 0
M  V30 9715 H 910.233 0.756157 3.17726 0
M  V30 9716 H 908.892 2.75091 2.42323 0
M  V30 9717 H 908.54 1.78438 4.70286 0
M  V30 9718 H 908.24 3.54036 4.6897 0
M  V30 9719 H 909.764 2.904 5.37122 0
M  V30 9720 H 911.178 4.40636 3.6676 0
M  V30 9721 H 909.575 5.06145 3.22393 0
M  V30 9722 H 910.645 4.4371 1.95574 0
M  V30 9723 N 911.988 -0.768124 1.37614 0
M  V30 9724 C 912.918 -1.89537 1.36374 0
M  V30 9725 C 913.899 -1.68513 0.231803 0
M  V30 9726 O 915.084 -1.89318 0.432705 0
M  V30 9727 C 912.214 -3.26871 1.17358 0
M  V30 9728 C 911.168 -3.62466 2.27602 0
M  V30 9729 C 910.494 -4.9838 1.93705 0
M  V30 9730 C 911.794 -3.68841 3.69802 0
M  V30 9731 H 913.488 -1.90832 2.30702 0
M  V30 9732 H 911.034 -0.91672 1.11051 0
M  V30 9733 H 912.987 -4.05371 1.15119 0
M  V30 9734 H 911.711 -3.26018 0.194865 0
M  V30 9735 H 910.37 -2.86276 2.29002 0
M  V30 9736 H 910.018 -4.94071 0.943539 0
M  V30 9737 H 909.718 -5.23165 2.6753 0
M  V30 9738 H 911.242 -5.79276 1.93059 0
M  V30 9739 H 912.656 -4.37485 3.70513 0
M  V30 9740 H 911.053 -4.05126 4.42711 0
M  V30 9741 H 912.123 -2.69415 4.03167 0
M  V30 9742 N 913.466 -1.22244 -0.994698 0
M  V30 9743 C 914.712 -1.04746 -1.73655 0
M  V30 9744 C 915.045 0.41668 -1.89677 0
M  V30 9745 O 914.32 1.30897 -1.43862 0
M  V30 9746 C 914.603 -1.75716 -3.14318 0
M  V30 9747 C 914.456 -3.29714 -3.05955 0
M  V30 9748 C 915.775 -1.50809 -4.13455 0
M  V30 9749 H 912.894 -0.381921 -0.630322 0
M  V30 9750 H 915.536 -1.50559 -1.15897 0
M  V30 9751 H 913.686 -1.3677 -3.63629 0
M  V30 9752 H 915.358 -3.78093 -2.64279 0
M  V30 9753 H 913.601 -3.59484 -2.42804 0
M  V30 9754 H 914.272 -3.74547 -4.05485 0
M  V30 9755 H 916.748 -1.84636 -3.72892 0
M  V30 9756 H 915.624 -2.02964 -5.09997 0
M  V30 9757 H 915.885 -0.440292 -4.39902 0
M  V30 9758 N 914.944 1.19125 -1.03184 0
M  V30 9759 C 915.907 2.20662 -0.619766 0
M  V30 9760 C 916.907 1.57621 0.318179 0
M  V30 9761 O 918.097 1.73885 0.104783 0
M  V30 9762 C 915.229 3.40774 0.0926696 0
M  V30 9763 H 916.422 2.58633 -1.5182 0
M  V30 9764 H 913.975 1.32855 -0.823364 0
M  V30 9765 H 914.71 3.08324 1.00531 0
M  V30 9766 H 914.495 3.87766 -0.581344 0
M  V30 9767 H 915.985 4.15977 0.367792 0
M  V30 9768 N 916.422 0.810101 1.35185 0
M  V30 9769 C 917.369 0.220927 2.2974 0
M  V30 9770 C 918.339 -0.647024 1.5298 0
M  V30 9771 O 919.524 -0.591367 1.81404 0
M  V30 9772 C 916.664 -0.62167 3.39454 0
M  V30 9773 C 915.777 0.267104 4.31173 0
M  V30 9774 C 914.912 -0.583833 5.27982 0
M  V30 9775 C 913.951 0.305123 6.11339 0
M  V30 9776 N 913.088 -0.505992 7.00274 0
M  V30 9777 H 917.928 1.03266 2.79536 0
M  V30 9778 H 915.465 0.520768 1.37573 0
M  V30 9779 H 917.423 -1.12539 4.01735 0
M  V30 9780 H 916.053 -1.39863 2.90926 0
M  V30 9781 H 915.105 0.88895 3.69867 0
M  V30 9782 H 916.417 0.951182 4.89647 0
M  V30 9783 H 915.571 -1.15254 5.95652 0
M  V30 9784 H 914.31 -1.30146 4.70014 0
M  V30 9785 H 913.315 0.886075 5.42613 0
M  V30 9786 H 914.54 1.02067 6.71386 0
M  V30 9787 H 912.486 -1.20753 6.4479 0
M  V30 9788 H 912.403 0.119966 7.55905 0
M  V30 9789 H 913.671 -1.05787 7.72288 0
M  V30 9790 N 917.9 -1.47166 0.563914 0
M  V30 9791 C 918.833 -2.27058 -0.227989 0
M  V30 9792 C 919.811 -1.34468 -0.914179 0
M  V30 9793 O 920.995 -1.63857 -0.931829 0
M  V30 9794 C 918.122 -3.11689 -1.32543 0
M  V30 9795 C 917.168 -4.19906 -0.747084 0
M  V30 9796 S 918.001 -5.33916 0.41153 0
M  V30 9797 C 919.157 -6.22112 -0.687566 0
M  V30 9798 H 919.39 -2.93876 0.449939 0
M  V30 9799 H 916.923 -1.50372 0.350382 0
M  V30 9800 H 918.881 -3.61017 -1.95389 0
M  V30 9801 H 917.542 -2.44221 -1.97522 0
M  V30 9802 H 916.735 -4.78876 -1.57141 0
M  V30 9803 H 916.337 -3.73493 -0.194671 0
M  V30 9804 H 918.629 -6.58867 -1.578 0
M  V30 9805 H 919.572 -7.07971 -0.135058 0
M  V30 9806 H 919.98 -5.55871 -0.983255 0
M  V30 9807 N 919.378 -0.300708 -1.54705 0
M  V30 9808 C 920.626 0.308044 -1.99739 0
M  V30 9809 C 920.947 1.54433 -1.19061 0
M  V30 9810 O 920.217 1.93794 -0.286507 0
M  V30 9811 H 918.797 0.116811 -0.73781 0
M  V30 9812 H 921.459 -0.41197 -1.90496 0
M  V30 9813 H 920.555 0.580287 -3.06658 0
M  V30 9814 N 920.856 1.57574 -0.0284266 0
M  V30 9815 C 921.788 2.07079 0.982391 0
M  V30 9816 C 922.801 0.994078 1.28926 0
M  V30 9817 O 923.99 1.27028 1.25404 0
M  V30 9818 C 921.09 2.47978 2.30998 0
M  V30 9819 C 920.263 3.7872 2.18838 0
M  V30 9820 C 919.322 4.06177 3.34524 0
M  V30 9821 O 918.348 4.76438 3.11441 0
M  V30 9822 N 919.55 3.56297 4.58293 0
M  V30 9823 H 922.315 2.94421 0.560011 0
M  V30 9824 H 919.876 1.61124 0.158347 0
M  V30 9825 H 921.868 2.63439 3.07216 0
M  V30 9826 H 920.438 1.66005 2.64879 0
M  V30 9827 H 919.658 3.73062 1.27351 0
M  V30 9828 H 920.946 4.6438 2.07915 0
M  V30 9829 H 920.344 2.99453 4.79942 0
M  V30 9830 H 918.901 3.77038 5.31682 0
M  V30 9831 N 922.334 -0.244713 1.55689 0
M  V30 9832 C 923.611 -0.995407 1.68378 0
M  V30 9833 C 923.991 -2.03288 0.568949 0
M  V30 9834 O 923.339 -2.24469 -0.427299 0
M  V30 9835 C 923.549 -1.62678 3.08767 0
M  V30 9836 C 924.897 -2.1278 3.67437 0
M  V30 9837 O 925.921 -1.72614 3.11581 0
M  V30 9838 O 924.78 -2.86536 4.65359 0
M  V30 9839 H 921.874 -0.463476 0.684923 0
M  V30 9840 H 924.42 -0.238326 1.68018 0
M  V30 9841 H 923.192 -0.876469 3.81358 0
M  V30 9842 H 922.815 -2.45 3.13146 0
M  V30 9843 N 923.813 -1.49104 -0.510467 0
M  V30 9844 C 925.061 -1.578 -1.26268 0
M  V30 9845 C 925.382 -0.262349 -1.93227 0
M  V30 9846 O 924.652 0.717624 -1.82283 0
M  V30 9847 H 923.232 -0.581387 -0.46904 0
M  V30 9848 H 925.894 -1.85678 -0.592423 0
M  V30 9849 H 924.99 -2.36919 -2.03165 0
M  V30 9850 N 925.291 0.760815 -1.38019 0
M  V30 9851 C 926.241 1.86487 -1.31174 0
M  V30 9852 C 927.225 1.59684 -0.197414 0
M  V30 9853 O 928.417 1.71628 -0.432764 0
M  V30 9854 C 925.546 3.24103 -1.13192 0
M  V30 9855 C 924.632 3.5682 -2.29216 0
M  V30 9856 N 925.023 3.60644 -3.5464 0
M  V30 9857 C 923.321 3.87047 -2.2161 0
M  V30 9858 C 924.022 3.90423 -4.31214 0
M  V30 9859 N 922.998 4.06883 -3.60482 0
M  V30 9860 H 926.8 1.87711 -2.26146 0
M  V30 9861 H 924.314 0.957811 -1.31148 0
M  V30 9862 H 926.311 4.03101 -1.06372 0
M  V30 9863 H 924.971 3.24135 -0.191473 0
M  V30 9864 H 925.982 3.42581 -3.88405 0
M  V30 9865 H 922.659 3.94837 -1.35684 0
M  V30 9866 H 924.049 4.00065 -5.39812 0
M  V30 9867 N 926.769 1.22769 0.988202 0
M  V30 9868 C 928.046 0.9635 1.70223 0
M  V30 9869 C 928.426 -0.520102 2.04593 0
M  V30 9870 O 927.774 -1.48934 1.73295 0
M  V30 9871 C 927.984 1.86583 2.94937 0
M  V30 9872 C 929.332 2.12469 3.67616 0
M  V30 9873 O 930.356 1.84069 3.04954 0
M  V30 9874 O 929.215 2.60595 4.80367 0
M  V30 9875 H 926.309 0.362737 0.743203 0
M  V30 9876 H 928.855 1.33776 1.04412 0
M  V30 9877 H 927.627 2.86913 2.66077 0
M  V30 9878 H 927.25 1.49344 3.68486 0
M  V30 9879 N 928.247 -1.18576 1.03814 0
M  V30 9880 C 929.663 -1.4051 0.756909 0
M  V30 9881 C 929.863 -1.9057 -0.654631 0
M  V30 9882 O 928.919 -2.0884 -1.41922 0
M  V30 9883 C 930.232 -2.4081 1.80087 0
M  V30 9884 C 931.78 -2.54541 1.82148 0
M  V30 9885 C 932.255 -3.58102 2.85529 0
M  V30 9886 N 933.746 -3.65607 2.84404 0
M  V30 9887 C 934.481 -4.45458 3.61047 0
M  V30 9888 N 933.977 -5.28937 4.47434 0
M  V30 9889 N 935.77 -4.40196 3.49548 0
M  V30 9890 H 927.921 -0.844075 1.94908 0
M  V30 9891 H 930.184 -0.433287 0.843188 0
M  V30 9892 H 929.89 -2.1107 2.81322 0
M  V30 9893 H 929.764 -3.4012 1.63089 0
M  V30 9894 H 932.151 -2.83598 0.815855 0
M  V30 9895 H 932.232 -1.55352 2.03223 0
M  V30 9896 H 931.876 -3.29786 3.86269 0
M  V30 9897 H 931.806 -4.56963 2.6171 0
M  V30 9898 H 934.297 -3.05994 2.21756 0
M  V30 9899 H 934.61 -5.8701 5.02632 0
M  V30 9900 H 932.955 -5.28366 4.51503 0
M  V30 9901 H 936.146 -3.74026 2.81464 0
M  V30 9902 H 936.319 -5.02186 4.09528 0
M  V30 9903 N 929.725 -0.817259 -1.34754 0
M  V30 9904 C 930.973 -0.401852 -1.98065 0
M  V30 9905 C 931.294 1.03718 -1.65129 0
M  V30 9906 O 930.564 1.71921 -0.939141 0
M  V30 9907 H 929.144 -0.145603 -0.732672 0
M  V30 9908 H 931.806 -1.04545 -1.64488 0
M  V30 9909 H 930.902 -0.516241 -3.07801 0
M  V30 9910 N 931.203 1.46865 -0.571711 0
M  V30 9911 C 932.166 2.28658 0.157499 0
M  V30 9912 C 933.166 1.37773 0.829172 0
M  V30 9913 O 934.356 1.6026 0.682811 0
M  V30 9914 C 931.488 3.17859 1.23202 0
M  V30 9915 H 932.681 2.94603 -0.561171 0
M  V30 9916 H 930.234 1.52793 -0.329229 0
M  V30 9917 H 930.969 2.56637 1.98262 0
M  V30 9918 H 930.754 3.84762 0.755031 0
M  V30 9919 H 932.244 3.7945 1.74378 0
M  V30 9920 N 932.681 0.308908 1.54543 0
M  V30 9921 C 933.628 -0.563659 2.23811 0
M  V30 9922 C 934.598 -1.12332 1.22355 0
M  V30 9923 O 935.783 -1.16638 1.50997 0
M  V30 9924 C 932.923 -1.72585 2.98845 0
M  V30 9925 C 932.036 -1.19682 4.1509 0
M  V30 9926 C 931.171 -2.32351 4.77688 0
M  V30 9927 C 930.21 -1.76623 5.86064 0
M  V30 9928 N 929.347 -2.82896 6.42584 0
M  V30 9929 H 934.187 0.0336288 2.97981 0
M  V30 9930 H 931.724 0.0283666 1.47073 0
M  V30 9931 H 933.682 -2.40951 3.40586 0
M  V30 9932 H 932.312 -2.29464 2.27037 0
M  V30 9933 H 931.364 -0.405173 3.78236 0
M  V30 9934 H 932.676 -0.748923 4.93146 0
M  V30 9935 H 931.83 -3.0865 5.22322 0
M  V30 9936 H 930.569 -2.80472 3.98982 0
M  V30 9937 H 929.574 -0.988171 5.40847 0
M  V30 9938 H 930.799 -1.29398 6.66658 0
M  V30 9939 H 928.745 -3.30336 5.66758 0
M  V30 9940 H 928.662 -2.42626 7.16009 0
M  V30 9941 H 929.93 -3.59068 6.91875 0
M  V30 9942 N 934.159 -1.57557 0.0367827 0
M  V30 9943 C 935.405 -1.92399 -0.641133 0
M  V30 9944 C 935.738 -0.914191 -1.71336 0
M  V30 9945 O 935.013 0.0619616 -1.94401 0
M  V30 9946 C 935.296 -3.37689 -1.25052 0
M  V30 9947 C 935.149 -4.4941 -0.187326 0
M  V30 9948 C 936.468 -3.8309 -2.16634 0
M  V30 9949 H 933.587 -0.699666 -0.231597 0
M  V30 9950 H 936.229 -1.89759 0.0956083 0
M  V30 9951 H 934.379 -3.40069 -1.87843 0
M  V30 9952 H 936.051 -4.59161 0.443736 0
M  V30 9953 H 934.294 -4.31065 0.486313 0
M  V30 9954 H 934.965 -5.48119 -0.653459 0
M  V30 9955 H 937.441 -3.82494 -1.63821 0
M  V30 9956 H 936.317 -4.85429 -2.56222 0
M  V30 9957 H 936.578 -3.19028 -3.06062 0
M  V30 9958 N 935.637 0.236453 -1.55816 0
M  V30 9959 C 936.886 0.960981 -1.77336 0
M  V30 9960 C 937.199 1.86085 -0.602641 0
M  V30 9961 O 938.405 2.62291 -0.701106 0
M  V30 9962 C 936.861 1.75884 -3.13995 0
M  V30 9963 C 936.469 0.905849 -4.38746 0
M  V30 9964 C 938.213 2.47548 -3.44848 0
M  V30 9965 C 936.12 1.7002 -5.66434 0
M  V30 9966 H 935.05 0.362547 -0.661117 0
M  V30 9967 H 937.701 0.215303 -1.82233 0
M  V30 9968 H 936.083 2.54687 -3.03234 0
M  V30 9969 H 937.257 0.159415 -4.60524 0
M  V30 9970 H 935.572 0.30205 -4.15303 0
M  V30 9971 H 938.169 3.07452 -4.37467 0
M  V30 9972 H 938.512 3.19689 -2.66655 0
M  V30 9973 H 939.045 1.75747 -3.56872 0
M  V30 9974 H 935.784 1.02234 -6.47479 0
M  V30 9975 H 935.304 2.42164 -5.48741 0
M  V30 9976 H 936.983 2.26469 -6.0607 0
M  V30 9977 N 937.115 1.49373 0.502552 0
M  V30 9978 C 938.078 1.65413 1.58654 0
M  V30 9979 C 939.078 0.526003 1.51953 0
M  V30 9980 O 940.268 0.792421 1.55133 0
M  V30 9981 C 937.4 1.65005 2.98306 0
M  V30 9982 H 938.593 2.62095 1.45762 0
M  V30 9983 H 936.146 1.38381 0.726672 0
M  V30 9984 H 936.881 0.699014 3.16677 0
M  V30 9985 H 936.666 2.46931 3.04578 0
M  V30 9986 H 938.156 1.79477 3.77065 0
M  V30 9987 N 938.594 -0.753485 1.38421 0
M  V30 9988 C 939.822 -1.54272 1.37868 0
M  V30 9989 C 940.237 -1.88774 -0.0315155 0
M  V30 9990 O 939.594 -1.52785 -0.998148 0
M  V30 9991 C 939.645 -2.84179 2.23438 0
M  V30 9992 O 939.366 -2.51149 3.58965 0
M  V30 9993 C 940.867 -3.78316 2.31067 0
M  V30 9994 H 938.087 -0.47735 0.47157 0
M  V30 9995 H 940.631 -0.932509 1.82001 0
M  V30 9996 H 938.786 -3.41577 1.82767 0
M  V30 9997 H 939.2 -3.34466 4.04021 0
M  V30 9998 H 940.674 -4.66418 2.95226 0
M  V30 9999 H 941.151 -4.18757 1.32436 0
M  V30 10000 H 941.757 -3.26842 2.72129 0
M  V30 10001 N 940.072 -1.23292 -0.981677 0
M  V30 10002 C 941.32 -1.06214 -1.71939 0
M  V30 10003 C 941.641 0.401989 -1.90812 0
M  V30 10004 O 940.911 1.28825 -1.47584 0
M  V30 10005 H 939.491 -0.390042 -0.637084 0
M  V30 10006 H 942.153 -1.54988 -1.18173 0
M  V30 10007 H 941.249 -1.54904 -2.70945 0
M  V30 10008 N 941.55 1.18024 -1.04442 0
M  V30 10009 C 942.797 1.88098 -0.750022 0
M  V30 10010 C 943.125 1.80583 0.722489 0
M  V30 10011 O 942.38 1.20329 1.54335 0
M  V30 10012 C 942.679 3.37834 -1.16631 0
M  V30 10013 C 942.345 3.65553 -2.63974 0
M  V30 10014 C 941.007 3.72827 -3.04226 0
M  V30 10015 C 943.359 3.77634 -3.59224 0
M  V30 10016 C 940.687 3.89666 -4.38608 0
M  V30 10017 C 943.039 3.9599 -4.9333 0
M  V30 10018 C 941.703 4.01501 -5.33248 0
M  V30 10019 H 940.973 0.6883 -0.274452 0
M  V30 10020 H 943.62 1.39671 -1.31012 0
M  V30 10021 H 941.925 3.88266 -0.525071 0
M  V30 10022 H 943.622 3.90402 -0.915827 0
M  V30 10023 H 940.212 3.6051 -2.31798 0
M  V30 10024 H 944.396 3.71342 -3.2927 0
M  V30 10025 H 939.652 3.92178 -4.69048 0
M  V30 10026 H 943.826 4.0428 -5.67037 0
M  V30 10027 H 941.453 4.14301 -6.37384 0
M  V30 10028 N 943.028 0.824394 1.34319 0
M  V30 10029 C 943.991 0.252696 2.27803 0
M  V30 10030 C 944.991 -0.570254 1.50349 0
M  V30 10031 O 946.181 -0.386145 1.69866 0
M  V30 10032 C 943.313 -0.645575 3.34731 0
M  V30 10033 H 944.506 1.07742 2.79878 0
M  V30 10034 H 942.059 0.596367 1.44475 0
M  V30 10035 H 942.794 -1.4933 2.87873 0
M  V30 10036 H 942.579 -0.0569478 3.92059 0
M  V30 10037 H 944.069 -1.03933 4.0446 0
M  V30 10038 N 944.506 -1.46559 0.579492 0
M  V30 10039 C 945.783 -1.956 -0.00287136 0
M  V30 10040 C 946.163 -1.52215 -1.46266 0
M  V30 10041 O 945.511 -0.771335 -2.15088 0
M  V30 10042 C 945.721 -3.48606 0.165824 0
M  V30 10043 C 947.069 -4.24588 0.0319807 0
M  V30 10044 O 948.093 -3.56075 0.094496 0
M  V30 10045 O 946.952 -5.46396 -0.106386 0
M  V30 10046 H 944.046 -0.825387 -0.0516274 0
M  V30 10047 H 946.592 -1.56858 0.647584 0
M  V30 10048 H 945.364 -3.7306 1.18076 0
M  V30 10049 H 944.987 -3.94169 -0.521212 0
M  V30 10050 N 945.984 -0.3171 -1.54377 0
M  V30 10051 C 946.914 0.544623 -2.2706 0
M  V30 10052 C 947.895 1.12469 -1.27611 0
M  V30 10053 O 949.08 1.15103 -1.56413 0
M  V30 10054 C 946.21 1.70879 -3.02353 0
M  V30 10055 C 945.164 1.25833 -4.09084 0
M  V30 10056 C 944.49 2.50894 -4.72182 0
M  V30 10057 C 945.79 0.377876 -5.20931 0
M  V30 10058 H 947.484 -0.0616372 -2.99337 0
M  V30 10059 H 945.03 -0.0310848 -1.43966 0
M  V30 10060 H 946.983 2.31787 -3.51927 0
M  V30 10061 H 945.707 2.34155 -2.27682 0
M  V30 10062 H 944.366 0.672228 -3.60384 0
M  V30 10063 H 944.014 3.12518 -3.94134 0
M  V30 10064 H 943.714 2.21447 -5.44275 0
M  V30 10065 H 945.238 3.12575 -5.24528 0
M  V30 10066 H 946.652 0.893056 -5.66302 0
M  V30 10067 H 945.049 0.176474 -5.9984 0
M  V30 10068 H 946.119 -0.592943 -4.81261 0
M  V30 10069 N 947.462 1.57535 -0.0451378 0
M  V30 10070 C 948.71 1.92071 0.628743 0
M  V30 10071 C 949.031 0.923635 1.71738 0
M  V30 10072 O 948.301 -0.0324376 1.95873 0
M  V30 10073 H 946.881 0.708995 0.235233 0
M  V30 10074 H 949.543 1.9466 -0.0967177 0
M  V30 10075 H 948.639 2.9314 1.07123 0
M  V30 10076 N 948.94 -0.228186 1.55939 0
M  V30 10077 C 950.187 -0.953552 1.78644 0
M  V30 10078 C 950.515 -1.84596 0.61275 0
M  V30 10079 O 949.77 -1.91502 -0.403175 0
M  V30 10080 C 950.069 -1.82924 3.0704 0
M  V30 10081 C 949.735 -1.09062 4.37511 0
M  V30 10082 C 948.397 -0.886565 4.72962 0
M  V30 10083 C 950.749 -0.568533 5.1809 0
M  V30 10084 C 948.077 -0.148413 5.86512 0
M  V30 10085 C 950.429 0.156243 6.32407 0
M  V30 10086 C 949.093 0.371612 6.66465 0
M  V30 10087 H 948.363 -0.348929 0.653704 0
M  V30 10088 H 951.01 -0.222211 1.90206 0
M  V30 10089 H 949.315 -2.62823 2.90571 0
M  V30 10090 H 951.012 -2.3925 3.21808 0
M  V30 10091 H 947.602 -1.25963 4.09672 0
M  V30 10092 H 951.786 -0.713673 4.91142 0
M  V30 10093 H 947.042 0.0287418 6.11393 0
M  V30 10094 H 951.216 0.568333 6.94077 0
M  V30 10095 H 948.843 0.945522 7.54297 0
M  V30 10096 N 950.418 -1.49637 -0.494624 0
M  V30 10097 C 951.695 -1.4995 -1.25596 0
M  V30 10098 C 952.075 -0.230805 -2.09834 0
M  V30 10099 O 951.423 0.786625 -2.14533 0
M  V30 10100 C 951.633 -2.78204 -2.10721 0
M  V30 10101 C 952.981 -3.27946 -2.69698 0
M  V30 10102 O 954.005 -2.79365 -2.20984 0
M  V30 10103 O 952.864 -4.12571 -3.58395 0
M  V30 10104 H 949.958 -0.60044 -0.568684 0
M  V30 10105 H 952.504 -1.61906 -0.508371 0
M  V30 10106 H 951.276 -3.62029 -1.48494 0
M  V30 10107 H 950.899 -2.69139 -2.92661 0
M  V30 10108 N 951.896 0.746133 -1.38819 0
M  V30 10109 C 953.142 1.50768 -1.35635 0
M  V30 10110 C 953.475 1.94132 0.0512435 0
M  V30 10111 O 952.75 1.65979 1.01396 0
M  V30 10112 C 953.033 2.7551 -2.31875 0
M  V30 10113 C 952.886 2.38236 -3.81528 0
M  V30 10114 C 954.205 3.77566 -2.26124 0
M  V30 10115 H 951.324 0.546922 -0.494009 0
M  V30 10116 H 953.966 0.854017 -1.69725 0
M  V30 10117 H 952.116 3.31285 -2.02935 0
M  V30 10118 H 953.788 1.88178 -4.21173 0
M  V30 10119 H 952.031 1.70601 -3.98846 0
M  V30 10120 H 952.702 3.27517 -4.44339 0
M  V30 10121 H 955.178 3.31349 -2.51689 0
M  V30 10122 H 954.054 4.62531 -2.95561 0
M  V30 10123 H 954.315 4.23689 -1.26254 0
M  V30 10124 N 953.375 1.23811 0.975125 0
M  V30 10125 C 954.652 0.9815 1.69192 0
M  V30 10126 C 955.032 -0.498373 2.05133 0
M  V30 10127 O 954.38 -1.47087 1.74864 0
M  V30 10128 C 954.59 1.89701 2.92941 0
M  V30 10129 C 955.938 2.16357 3.65342 0
M  V30 10130 O 956.962 1.87293 3.02985 0
M  V30 10131 O 955.821 2.65675 4.77576 0
M  V30 10132 H 952.915 0.370599 0.739314 0
M  V30 10133 H 955.461 1.34876 1.02988 0
M  V30 10134 H 954.233 2.89719 2.63018 0
M  V30 10135 H 953.856 1.53244 3.66881 0
M  V30 10136 N 954.853 -1.17469 1.05066 0
M  V30 10137 C 956.102 -1.87032 0.755114 0
M  V30 10138 C 956.415 -1.81844 -0.720572 0
M  V30 10139 O 957.621 -2.46866 -1.13002 0
M  V30 10140 C 956.077 -3.35581 1.30052 0
M  V30 10141 C 955.685 -3.49274 2.80556 0
M  V30 10142 C 957.429 -4.1048 1.08196 0
M  V30 10143 C 955.336 -4.91838 3.28404 0
M  V30 10144 H 954.266 -0.70057 0.278779 0
M  V30 10145 H 956.917 -1.32663 1.26779 0
M  V30 10146 H 955.299 -3.89479 0.715667 0
M  V30 10147 H 956.473 -3.05598 3.44886 0
M  V30 10148 H 954.788 -2.87793 3.00939 0
M  V30 10149 H 957.385 -5.15652 1.41447 0
M  V30 10150 H 957.728 -4.16295 0.0196603 0
M  V30 10151 H 958.261 -3.62784 1.63195 0
M  V30 10152 H 955 -4.91196 4.34058 0
M  V30 10153 H 954.52 -5.36189 2.68815 0
M  V30 10154 H 956.199 -5.60602 3.23009 0
M  V30 10155 N 956.331 -0.831506 -1.3388 0
M  V30 10156 C 957.579 -0.422837 -1.97627 0
M  V30 10157 C 957.9 1.01961 -1.6622 0
M  V30 10158 O 957.17 1.70916 -0.957323 0
M  V30 10159 H 955.75 -0.153365 -0.731087 0
M  V30 10160 H 958.412 -1.06284 -1.6337 0
M  V30 10161 H 957.508 -0.548858 -3.07236 0
M  V30 10162 N 957.809 1.4625 -0.587256 0
M  V30 10163 C 959.22 1.85997 -0.161918 0
M  V30 10164 C 959.571 1.49025 1.27616 0
M  V30 10165 O 958.696 0.907282 1.96462 0
M  V30 10166 C 959.291 3.37582 -0.287077 0
M  V30 10167 C 957.85 3.76308 0.0834211 0
M  V30 10168 C 956.997 2.70259 -0.620932 0
M  V30 10169 H 959.948 1.3734 -0.795199 0
M  V30 10170 H 959.969 3.77379 0.486333 0
M  V30 10171 H 959.481 3.64459 -1.33383 0
M  V30 10172 H 957.582 3.55047 1.13013 0
M  V30 10173 H 957.695 4.78184 -0.296064 0
M  V30 10174 H 956.059 2.54628 -0.0607027 0
M  V30 10175 H 956.842 2.99975 -1.66942 0
M  V30 10176 N 959.287 0.325282 1.54207 0
M  V30 10177 C 960.217 -0.532574 2.27345 0
M  V30 10178 C 961.198 -1.11791 1.28206 0
M  V30 10179 O 962.383 -1.14272 1.57021 0
M  V30 10180 C 959.513 -1.69274 3.03255 0
M  V30 10181 C 958.467 -1.23662 4.09746 0
M  V30 10182 C 957.793 -2.48386 4.73506 0
M  V30 10183 C 959.093 -0.350244 5.21124 0
M  V30 10184 H 960.787 0.0775108 2.993 0
M  V30 10185 H 958.333 0.0387193 1.43948 0
M  V30 10186 H 960.286 -2.29917 3.53152 0
M  V30 10187 H 959.01 -2.32944 2.28921 0
M  V30 10188 H 957.669 -0.653106 3.60735 0
M  V30 10189 H 957.317 -3.10424 3.95786 0
M  V30 10190 H 957.017 -2.18558 5.45441 0
M  V30 10191 H 958.541 -3.09789 5.26178 0
M  V30 10192 H 959.955 -0.863011 5.66767 0
M  V30 10193 H 958.352 -0.14466 5.99926 0
M  V30 10194 H 959.422 0.618457 4.8094 0
M  V30 10195 N 960.765 -1.57509 0.0534917 0
M  V30 10196 C 962.012 -1.92782 -0.619772 0
M  V30 10197 C 962.34 -0.932046 -1.70714 0
M  V30 10198 O 961.595 0.0552891 -1.95622 0
M  V30 10199 C 961.894 -3.34734 -1.25251 0
M  V30 10200 C 961.56 -4.49946 -0.293113 0
M  V30 10201 C 960.222 -4.81191 -0.0291223 0
M  V30 10202 C 962.574 -5.19925 0.364271 0
M  V30 10203 C 959.902 -5.79761 0.899649 0
M  V30 10204 C 962.254 -6.19489 1.28125 0
M  V30 10205 C 960.918 -6.49161 1.55389 0
M  V30 10206 H 960.188 -0.705441 -0.226791 0
M  V30 10207 H 962.835 -1.91121 0.120466 0
M  V30 10208 H 961.14 -3.32774 -2.06807 0
M  V30 10209 H 962.837 -3.59308 -1.78042 0
M  V30 10210 H 959.427 -4.25566 -0.509053 0
M  V30 10211 H 963.611 -4.95997 0.173411 0
M  V30 10212 H 958.867 -6.01085 1.11833 0
M  V30 10213 H 963.041 -6.72824 1.79669 0
M  V30 10214 H 960.668 -7.25354 2.2752 0
M  V30 10215 N 962.243 0.219913 -1.56058 0
M  V30 10216 C 963.175 1.29604 -1.89038 0
M  V30 10217 C 964.188 1.42964 -0.778791 0
M  V30 10218 O 965.377 1.43832 -1.0571 0
M  V30 10219 C 962.477 2.67145 -2.08534 0
M  V30 10220 C 961.65 2.75712 -3.39561 0
M  V30 10221 C 960.709 3.94279 -3.48469 0
M  V30 10222 O 959.735 3.8254 -4.21487 0
M  V30 10223 N 960.937 5.08655 -2.79732 0
M  V30 10224 H 963.702 1.01638 -2.81939 0
M  V30 10225 H 961.263 0.409945 -1.56624 0
M  V30 10226 H 963.255 3.44847 -2.11808 0
M  V30 10227 H 961.825 2.87704 -1.2225 0
M  V30 10228 H 961.045 1.84475 -3.48371 0
M  V30 10229 H 962.333 2.78407 -4.25872 0
M  V30 10230 H 961.731 5.21088 -2.2019 0
M  V30 10231 H 960.288 5.84394 -2.88665 0
M  V30 10232 N 963.721 1.49897 0.486681 0
M  V30 10233 C 964.949 1.63837 1.26353 0
M  V30 10234 C 965.364 0.315428 1.86146 0
M  V30 10235 O 964.721 -0.700831 1.68507 0
M  V30 10236 C 964.772 2.71792 2.38351 0
M  V30 10237 O 964.493 3.98956 1.81013 0
M  V30 10238 C 965.994 2.96566 3.2949 0
M  V30 10239 H 963.214 0.551158 0.382709 0
M  V30 10240 H 965.758 1.96023 0.582694 0
M  V30 10241 H 963.913 2.42344 3.02238 0
M  V30 10242 H 964.327 4.58536 2.54647 0
M  V30 10243 H 965.801 3.75803 4.04322 0
M  V30 10244 H 966.278 2.07031 3.87343 0
M  V30 10245 H 966.884 3.27485 2.71355 0
M  V30 10246 N 965.199 -0.738761 1.39212 0
M  V30 10247 C 966.61 -1.31684 1.32348 0
M  V30 10248 C 966.961 -1.96195 -0.0139041 0
M  V30 10249 O 966.086 -1.96056 -0.916025 0
M  V30 10250 C 966.681 -2.39444 2.39691 0
M  V30 10251 C 965.24 -2.92935 2.36359 0
M  V30 10252 C 964.387 -1.66465 2.21776 0
M  V30 10253 H 967.338 -0.536543 1.49355 0
M  V30 10254 H 967.359 -3.19744 2.06262 0
M  V30 10255 H 966.871 -1.92463 3.37016 0
M  V30 10256 H 964.972 -3.44207 1.42662 0
M  V30 10257 H 965.085 -3.46306 3.31073 0
M  V30 10258 H 963.449 -1.90657 1.68884 0
M  V30 10259 H 964.232 -1.21541 3.21065 0
M  V30 10260 N 966.677 -1.24326 -0.968545 0
M  V30 10261 C 968.093 -1.00847 -1.23701 0
M  V30 10262 C 968.293 0.283235 -1.99499 0
M  V30 10263 O 967.349 0.999607 -2.31871 0
M  V30 10264 C 968.662 -2.22295 -2.02498 0
M  V30 10265 C 970.21 -2.26911 -2.15593 0
M  V30 10266 C 970.685 -3.47978 -2.97784 0
M  V30 10267 N 972.176 -3.48289 -3.05367 0
M  V30 10268 C 972.911 -4.38625 -3.69318 0
M  V30 10269 N 972.407 -5.39213 -4.34995 0
M  V30 10270 N 974.2 -4.26339 -3.66322 0
M  V30 10271 H 966.351 -2.07335 -0.461087 0
M  V30 10272 H 968.614 -0.909805 -0.26638 0
M  V30 10273 H 968.32 -3.161 -1.54188 0
M  V30 10274 H 968.194 -2.24344 -3.03232 0
M  V30 10275 H 970.581 -1.33639 -2.63106 0
M  V30 10276 H 970.662 -2.28888 -1.14209 0
M  V30 10277 H 970.306 -4.41564 -2.50965 0
M  V30 10278 H 970.236 -3.43244 -3.99364 0
M  V30 10279 H 972.727 -2.75517 -2.58648 0
M  V30 10280 H 973.04 -6.04378 -4.81608 0
M  V30 10281 H 971.385 -5.43101 -4.33667 0
M  V30 10282 H 974.576 -3.46991 -3.14189 0
M  V30 10283 H 974.749 -4.9694 -4.15878 0
M  V30 10284 N 968.156 1.1691 -1.05688 0
M  V30 10285 C 969.066 2.24735 -0.67315 0
M  V30 10286 C 970.082 1.71252 0.308043 0
M  V30 10287 O 971.258 2.00772 0.158889 0
M  V30 10288 C 968.323 3.4665 -0.059026 0
M  V30 10289 C 967.384 4.15198 -1.0913 0
M  V30 10290 C 966.617 5.31292 -0.50639 0
M  V30 10291 O 966.84 5.663 0.682692 0
M  V30 10292 O 965.774 5.88923 -1.2431 0
M  V30 10293 H 969.6 2.59855 -1.57191 0
M  V30 10294 H 967.185 1.24306 -0.828751 0
M  V30 10295 H 969.067 4.20455 0.282018 0
M  V30 10296 H 967.742 3.13316 0.813304 0
M  V30 10297 H 966.649 3.43389 -1.48442 0
M  V30 10298 H 967.982 4.52571 -1.93495 0
M  V30 10299 N 969.634 0.838594 1.33437 0
M  V30 10300 C 970.88 0.434813 1.98084 0
M  V30 10301 C 971.213 -1.00331 1.66275 0
M  V30 10302 O 970.488 -1.70139 0.942501 0
M  V30 10303 C 970.771 0.655602 3.54082 0
M  V30 10304 C 970.624 2.14097 3.95578 0
M  V30 10305 C 971.943 0.101576 4.39983 0
M  V30 10306 H 969.062 0.159456 0.719544 0
M  V30 10307 H 971.704 1.05406 1.58081 0
M  V30 10308 H 969.854 0.128501 3.88287 0
M  V30 10309 H 971.526 2.73292 3.71631 0
M  V30 10310 H 969.769 2.62558 3.4532 0
M  V30 10311 H 970.44 2.24621 5.04231 0
M  V30 10312 H 972.916 0.552122 4.12421 0
M  V30 10313 H 971.792 0.28575 5.48156 0
M  V30 10314 H 972.053 -0.994616 4.30767 0
M  V30 10315 N 971.112 -1.45937 0.595003 0
M  V30 10316 C 972.075 -2.2888 -0.121102 0
M  V30 10317 C 973.075 -1.39075 -0.807149 0
M  V30 10318 O 974.265 -1.61326 -0.657228 0
M  V30 10319 C 971.397 -3.19778 -1.1813 0
M  V30 10320 H 972.59 -2.93673 0.607968 0
M  V30 10321 H 970.143 -1.5225 0.353495 0
M  V30 10322 H 970.878 -2.59759 -1.94154 0
M  V30 10323 H 970.663 -3.85914 -0.693724 0
M  V30 10324 H 972.153 -3.82176 -1.68319 0
M  V30 10325 N 972.59 -0.333456 -1.54032 0
M  V30 10326 C 973.522 0.562174 -2.22199 0
M  V30 10327 C 974.535 1.07202 -1.22522 0
M  V30 10328 O 975.724 0.983897 -1.48935 0
M  V30 10329 C 972.824 1.78525 -2.88066 0
M  V30 10330 C 971.997 1.41242 -4.13968 0
M  V30 10331 C 971.056 2.49408 -4.63338 0
M  V30 10332 O 970.082 2.13138 -5.27789 0
M  V30 10333 N 971.284 3.805 -4.38406 0
M  V30 10334 H 974.049 -0.0215629 -2.99692 0
M  V30 10335 H 971.61 -0.157111 -1.61136 0
M  V30 10336 H 973.602 2.50298 -3.18014 0
M  V30 10337 H 972.172 2.2766 -2.14219 0
M  V30 10338 H 971.392 0.525887 -3.90676 0
M  V30 10339 H 972.68 1.13916 -4.95884 0
M  V30 10340 H 972.078 4.12761 -3.86839 0
M  V30 10341 H 970.635 4.48474 -4.72984 0
M  V30 10342 N 974.068 1.57479 -0.061844 0
M  V30 10343 C 975 2.09116 0.938245 0
M  V30 10344 C 976.013 1.0212 1.26788 0
M  V30 10345 O 977.202 1.2966 1.22681 0
M  V30 10346 C 974.302 2.52822 2.25686 0
M  V30 10347 C 973.475 3.83277 2.10755 0
M  V30 10348 C 972.534 4.13182 3.25833 0
M  V30 10349 O 971.56 4.82937 3.01265 0
M  V30 10350 N 972.762 3.65938 4.50633 0
M  V30 10351 H 975.527 2.95543 0.497433 0
M  V30 10352 H 973.088 1.61423 0.124134 0
M  V30 10353 H 975.08 2.69896 3.01559 0
M  V30 10354 H 973.65 1.71586 2.61299 0
M  V30 10355 H 972.87 3.7568 1.19409 0
M  V30 10356 H 974.158 4.68686 1.98018 0
M  V30 10357 H 973.556 3.09566 4.73482 0
M  V30 10358 H 972.113 3.8823 5.23565 0
M  V30 10359 N 975.546 -0.211634 1.56173 0
M  V30 10360 C 976.509 -1.24588 1.92381 0
M  V30 10361 C 977.509 -1.39297 0.803311 0
M  V30 10362 O 978.699 -1.37392 1.07094 0
M  V30 10363 C 975.831 -2.61807 2.18335 0
M  V30 10364 H 977.024 -0.936814 2.84893 0
M  V30 10365 H 974.577 -0.452471 1.49607 0
M  V30 10366 H 975.312 -2.97795 1.28407 0
M  V30 10367 H 975.097 -2.52506 2.99972 0
M  V30 10368 H 976.587 -3.3642 2.4741 0
M  V30 10369 N 977.024 -1.50153 -0.478725 0
M  V30 10370 C 978.27 -1.60998 -1.23318 0
M  V30 10371 C 978.603 -0.305868 -1.91776 0
M  V30 10372 O 977.878 0.692158 -1.81767 0
M  V30 10373 C 978.161 -2.78495 -2.28282 0
M  V30 10374 C 978.014 -4.18767 -1.64178 0
M  V30 10375 C 979.333 -2.91569 -3.2966 0
M  V30 10376 H 976.452 -0.585983 -0.446982 0
M  V30 10377 H 979.094 -1.82514 -0.528063 0
M  V30 10378 H 977.244 -2.60281 -2.8842 0
M  V30 10379 H 978.916 -4.48552 -1.07696 0
M  V30 10380 H 977.159 -4.23379 -0.94514 0
M  V30 10381 H 977.83 -4.96894 -2.40417 0
M  V30 10382 H 980.306 -3.08219 -2.79536 0
M  V30 10383 H 979.182 -3.75419 -4.0044 0
M  V30 10384 H 979.443 -2.01859 -3.93326 0
M  V30 10385 N 978.502 0.731368 -1.39602 0
M  V30 10386 C 979.779 1.48308 -1.27531 0
M  V30 10387 C 980.159 2.10795 0.113482 0
M  V30 10388 O 979.507 1.98886 1.12501 0
M  V30 10389 C 979.717 2.53156 -2.40235 0
M  V30 10390 C 981.065 3.19436 -2.79725 0
M  V30 10391 O 982.089 2.6347 -2.39712 0
M  V30 10392 O 980.948 4.20714 -3.48801 0
M  V30 10393 H 978.042 0.658753 -0.499973 0
M  V30 10394 H 980.588 0.764884 -1.51485 0
M  V30 10395 H 979.36 2.05387 -3.33064 0
M  V30 10396 H 978.983 3.3253 -2.17966 0
M  V30 10397 N 979.98 1.24838 0.961938 0
M  V30 10398 C 980.943 1.04674 2.03902 0
M  V30 10399 C 981.943 0.00204674 1.608 0
M  V30 10400 O 983.133 0.243555 1.72489 0
M  V30 10401 C 980.265 0.587736 3.35795 0
M  V30 10402 H 981.458 2.00278 2.23223 0
M  V30 10403 H 979.011 1.07142 1.138 0
M  V30 10404 H 979.746 -0.371244 3.22168 0
M  V30 10405 H 979.531 1.34182 3.68426 0
M  V30 10406 H 981.021 0.467867 4.14971 0
M  V30 10407 N 981.458 -1.16348 1.06306 0
M  V30 10408 C 982.735 -1.829 0.69331 0
M  V30 10409 C 983.115 -1.94298 -0.82531 0
M  V30 10410 O 982.463 -1.48619 -1.73565 0
M  V30 10411 C 982.673 -3.1989 1.3954 0
M  V30 10412 C 984.021 -3.95662 1.54068 0
M  V30 10413 O 985.045 -3.29408 1.35532 0
M  V30 10414 O 983.904 -5.14422 1.84479 0
M  V30 10415 H 980.998 -0.789738 0.245445 0
M  V30 10416 H 983.544 -1.23549 1.16334 0
M  V30 10417 H 982.316 -3.06629 2.43093 0
M  V30 10418 H 981.939 -3.86918 0.915453 0
M  V30 10419 N 982.937 -0.845659 -1.3299 0
M  V30 10420 C 984.183 -0.445311 -1.9785 0
M  V30 10421 C 984.516 0.994476 -1.66805 0
M  V30 10422 O 983.791 1.69636 -0.95151 0
M  V30 10423 C 984.074 -0.674371 -3.53729 0
M  V30 10424 C 983.927 -2.16192 -3.94437 0
M  V30 10425 C 985.246 -0.124908 -4.39923 0
M  V30 10426 H 982.365 -0.163269 -0.718688 0
M  V30 10427 H 985.007 -1.06242 -1.5752 0
M  V30 10428 H 983.157 -0.149091 -3.88214 0
M  V30 10429 H 984.829 -2.75259 -3.70176 0
M  V30 10430 H 983.072 -2.64386 -3.43922 0
M  V30 10431 H 983.743 -2.27292 -5.03033 0
M  V30 10432 H 986.219 -0.573986 -4.12122 0
M  V30 10433 H 985.095 -0.314816 -5.47996 0
M  V30 10434 H 985.356 0.971758 -4.31288 0
M  V30 10435 N 984.415 1.45619 -0.602734 0
M  V30 10436 C 985.365 2.27568 0.140264 0
M  V30 10437 C 986.349 1.3704 0.84314 0
M  V30 10438 O 987.541 1.61067 0.733931 0
M  V30 10439 C 984.67 3.23812 1.14019 0
M  V30 10440 C 983.756 4.21828 0.438406 0
M  V30 10441 N 984.147 5.03148 -0.517245 0
M  V30 10442 C 982.445 4.40684 0.686588 0
M  V30 10443 C 983.146 5.74229 -0.929291 0
M  V30 10444 N 982.122 5.42909 -0.274086 0
M  V30 10445 H 985.924 2.87839 -0.5938 0
M  V30 10446 H 983.438 1.56712 -0.426033 0
M  V30 10447 H 985.435 3.8125 1.68684 0
M  V30 10448 H 984.095 2.65102 1.87486 0
M  V30 10449 H 985.106 5.1013 -0.893758 0
M  V30 10450 H 981.783 3.93102 1.4063 0
M  V30 10451 H 983.173 6.49586 -1.7172 0
M  V30 10452 N 985.893 0.34162 1.53853 0
M  V30 10453 C 986.856 -0.503541 2.236 0
M  V30 10454 C 987.856 -1.02912 1.23554 0
M  V30 10455 O 989.046 -0.918678 1.48007 0
M  V30 10456 C 986.178 -1.70126 2.95415 0
M  V30 10457 H 987.371 0.106437 2.99711 0
M  V30 10458 H 984.924 0.0929408 1.56023 0
M  V30 10459 H 985.659 -2.34999 2.23486 0
M  V30 10460 H 985.444 -1.33161 3.68796 0
M  V30 10461 H 986.934 -2.30077 3.48503 0
M  V30 10462 N 987.371 -1.57444 0.0701946 0
M  V30 10463 C 988.617 -1.93716 -0.600178 0
M  V30 10464 C 988.95 -0.950329 -1.69359 0
M  V30 10465 O 988.225 0.0207123 -1.94489 0
M  V30 10466 C 988.508 -3.40266 -1.17861 0
M  V30 10467 C 988.361 -4.49706 -0.0919575 0
M  V30 10468 C 989.68 -3.87599 -2.08459 0
M  V30 10469 H 986.799 -0.704421 -0.216704 0
M  V30 10470 H 989.441 -1.89514 0.135838 0
M  V30 10471 H 987.591 -3.43977 -1.80587 0
M  V30 10472 H 989.263 -4.58116 0.541031 0
M  V30 10473 H 987.506 -4.29937 0.577639 0
M  V30 10474 H 988.177 -5.49381 -0.537048 0
M  V30 10475 H 990.653 -3.85883 -1.5567 0
M  V30 10476 H 989.529 -4.90755 -2.45867 0
M  V30 10477 H 989.79 -3.25448 -2.99226 0
M  V30 10478 N 988.849 0.203349 -1.56283 0
M  V30 10479 C 990.097 0.923183 -1.79782 0
M  V30 10480 C 990.418 1.84134 -0.64185 0
M  V30 10481 O 989.688 1.92922 0.340292 0
M  V30 10482 H 988.268 0.343881 -0.66314 0
M  V30 10483 H 990.93 0.210837 -1.93756 0
M  V30 10484 H 990.026 1.51921 -2.72629 0
M  V30 10485 N 990.327 1.50405 0.470755 0
M  V30 10486 C 991.576 1.60652 1.21959 0
M  V30 10487 C 991.889 0.312521 1.93087 0
M  V30 10488 O 993.095 0.293901 2.69905 0
M  V30 10489 C 991.551 2.83581 2.21607 0
M  V30 10490 C 991.159 4.19858 1.5628 0
M  V30 10491 C 992.903 3.03173 2.9713 0
M  V30 10492 C 990.81 5.33974 2.54217 0
M  V30 10493 H 989.74 0.598264 0.458907 0
M  V30 10494 H 992.391 1.76836 0.490041 0
M  V30 10495 H 990.773 2.60957 2.97855 0
M  V30 10496 H 991.947 4.52738 0.85819 0
M  V30 10497 H 990.262 4.05873 0.930366 0
M  V30 10498 H 992.859 3.856 3.70428 0
M  V30 10499 H 993.202 2.14914 3.56536 0
M  V30 10500 H 993.735 3.2598 2.27995 0
M  V30 10501 H 990.474 6.24388 1.99549 0
M  V30 10502 H 989.994 5.05511 3.22829 0
M  V30 10503 H 991.673 5.64561 3.16039 0
M  V30 10504 N 991.805 -0.723954 1.39988 0
M  V30 10505 C 993.03 -1.5182 1.41299 0
M  V30 10506 C 993.455 -1.88096 0.0122636 0
M  V30 10507 O 992.813 -1.52687 -0.977559 0
M  V30 10508 C 992.861 -2.77532 2.30235 0
M  V30 10509 O 991.965 -3.73903 1.73984 0
M  V30 10510 H 991.306 -0.458058 0.480707 0
M  V30 10511 H 993.836 -0.892291 1.84118 0
M  V30 10512 H 993.846 -3.2615 2.45132 0
M  V30 10513 H 992.521 -2.50462 3.32026 0
M  V30 10514 H 991.098 -3.32715 1.68389 0
M  V30 10515 N 993.283 -1.25346 -0.955304 0
M  V30 10516 C 994.511 -1.12793 -1.73451 0
M  V30 10517 C 994.926 0.318344 -1.86097 0
M  V30 10518 O 994.283 1.21897 -1.35821 0
M  V30 10519 C 994.334 -1.77603 -3.14864 0
M  V30 10520 O 994.055 -3.16577 -3.02837 0
M  V30 10521 C 995.556 -1.70821 -4.09066 0
M  V30 10522 H 992.776 -0.393457 -0.543537 0
M  V30 10523 H 995.32 -1.65696 -1.19855 0
M  V30 10524 H 993.475 -1.28673 -3.65407 0
M  V30 10525 H 993.889 -3.48433 -3.92039 0
M  V30 10526 H 995.363 -2.2083 -5.05903 0
M  V30 10527 H 995.84 -0.671858 -4.34031 0
M  V30 10528 H 996.446 -2.19237 -3.64438 0
M  V30 10529 N 994.761 1.15782 -1.06922 0
M  V30 10530 C 995.691 2.22538 -0.707045 0
M  V30 10531 C 996.672 1.67371 0.303471 0
M  V30 10532 O 997.857 1.9339 0.177189 0
M  V30 10533 C 994.987 3.47158 -0.0994269 0
M  V30 10534 C 993.941 4.15257 -1.03661 0
M  V30 10535 C 993.267 5.33902 -0.291974 0
M  V30 10536 C 994.567 4.65516 -2.36837 0
M  V30 10537 H 996.261 2.53089 -1.59958 0
M  V30 10538 H 993.807 1.21649 -0.770552 0
M  V30 10539 H 995.76 4.21073 0.165852 0
M  V30 10540 H 994.484 3.15926 0.828155 0
M  V30 10541 H 993.143 3.43276 -1.28674 0
M  V30 10542 H 992.791 4.98926 0.638928 0
M  V30 10543 H 992.491 5.80407 -0.916613 0
M  V30 10544 H 994.015 6.1059 -0.0343915 0
M  V30 10545 H 995.429 5.30981 -2.16175 0
M  V30 10546 H 993.826 5.22666 -2.94856 0
M  V30 10547 H 994.896 3.81387 -2.99453 0
M  V30 10548 N 996.239 0.8527 1.3254 0
M  V30 10549 C 997.202 0.300959 2.27215 0
M  V30 10550 C 998.202 -0.538235 1.51525 0
M  V30 10551 O 999.392 -0.350027 1.70647 0
M  V30 10552 C 996.524 -0.574428 3.36025 0
M  V30 10553 H 997.717 1.13655 2.77529 0
M  V30 10554 H 995.27 0.626878 1.43178 0
M  V30 10555 H 996.005 -1.43191 2.90976 0
M  V30 10556 H 995.79 0.0262265 3.92091 0
M  V30 10557 H 997.28 -0.9533 4.06573 0
M  V30 10558 N 997.718 -1.45297 0.610449 0
M  V30 10559 C 998.681 -2.28995 -0.0968194 0
M  V30 10560 C 999.681 -1.39923 -0.792353 0
M  V30 10561 O 1000.87 -1.62014 -0.64008 0
M  V30 10562 C 998.003 -3.21013 -1.14731 0
M  V30 10563 H 999.196 -2.93012 0.639082 0
M  V30 10564 H 996.749 -1.51867 0.369624 0
M  V30 10565 H 997.484 -2.61803 -1.91388 0
M  V30 10566 H 997.269 -3.86628 -0.652753 0
M  V30 10567 H 998.759 -3.8394 -1.64256 0
M  V30 10568 N 999.196 -0.349774 -1.5367 0
M  V30 10569 C 1000.44 0.244343 -2.00617 0
M  V30 10570 C 1000.76 1.50567 -1.23914 0
M  V30 10571 O 1000.03 1.92784 -0.348016 0
M  V30 10572 H 998.615 0.0932792 -0.741153 0
M  V30 10573 H 1001.28 -0.472367 -1.89089 0
M  V30 10574 H 1000.37 0.482433 -3.08349 0
M  V30 10575 N 1000.67 1.57404 -0.0785433 0
M  V30 10576 C 1001.62 2.09632 0.896565 0
M  V30 10577 C 1002.61 1.00754 1.25449 0
M  V30 10578 O 1003.8 1.27053 1.23234 0
M  V30 10579 C 1000.93 2.66694 2.16169 0
M  V30 10580 C 1000.01 3.82588 1.82994 0
M  V30 10581 N 1000.41 4.91286 1.203 0
M  V30 10582 C 998.704 3.92011 2.12704 0
M  V30 10583 C 999.405 5.72077 1.05367 0
M  V30 10584 N 998.381 5.20567 1.56559 0
M  V30 10585 H 1002.18 2.9106 0.407621 0
M  V30 10586 H 999.697 1.61917 0.125155 0
M  V30 10587 H 1001.69 3.0243 2.86952 0
M  V30 10588 H 1000.35 1.86716 2.65645 0
M  V30 10589 H 1001.36 5.10509 0.871817 0
M  V30 10590 H 998.042 3.23018 2.6451 0
M  V30 10591 H 999.432 6.69523 0.564685 0
M  V30 10592 N 1002.15 -0.195058 1.56388 0
M  V30 10593 C 1003.1 -1.24175 1.94549 0
M  V30 10594 C 1004.07 -1.45229 0.806089 0
M  V30 10595 O 1005.25 -1.58362 1.06425 0
M  V30 10596 C 1002.39 -2.58145 2.29031 0
M  V30 10597 C 1001.51 -2.44669 3.56035 0
M  V30 10598 C 1000.64 -3.71342 3.7984 0
M  V30 10599 C 999.681 -3.52699 5.0027 0
M  V30 10600 N 998.818 -4.71385 5.20328 0
M  V30 10601 H 1003.66 -0.909319 2.83788 0
M  V30 10602 H 1001.19 -0.437641 1.40439 0
M  V30 10603 H 1003.15 -3.36195 2.4704 0
M  V30 10604 H 1001.78 -2.8943 1.42933 0
M  V30 10605 H 1000.83 -1.57916 3.46073 0
M  V30 10606 H 1002.15 -2.26827 4.44242 0
M  V30 10607 H 1001.3 -4.57832 3.98088 0
M  V30 10608 H 1000.04 -3.92138 2.89964 0
M  V30 10609 H 999.045 -2.64594 4.81944 0
M  V30 10610 H 1000.27 -3.33349 5.91655 0
M  V30 10611 H 998.216 -4.92444 4.33399 0
M  V30 10612 H 998.133 -4.56368 6.02714 0
M  V30 10613 H 999.401 -5.59226 5.43035 0
M  V30 10614 N 1003.63 -1.50653 -0.462772 0
M  V30 10615 C 1004.86 -1.65826 -1.23731 0
M  V30 10616 C 1005.27 -0.345002 -1.85621 0
M  V30 10617 O 1004.63 0.673935 -1.69601 0
M  V30 10618 C 1004.68 -2.7555 -2.33997 0
M  V30 10619 O 1004.4 -4.01785 -1.74643 0
M  V30 10620 C 1005.9 -3.0177 -3.2473 0
M  V30 10621 H 1003.12 -0.557177 -0.373892 0
M  V30 10622 H 1005.67 -1.96925 -0.551434 0
M  V30 10623 H 1003.82 -2.47122 -2.98345 0
M  V30 10624 H 1004.24 -4.62529 -2.4732 0
M  V30 10625 H 1005.71 -3.82188 -3.98292 0
M  V30 10626 H 1006.19 -2.13167 -3.84001 0
M  V30 10627 H 1006.79 -3.31761 -2.66111 0
M  V30 10628 N 1005.11 0.71652 -1.4037 0
M  V30 10629 C 1006.04 1.84345 -1.43315 0
M  V30 10630 C 1007.02 1.67537 -0.294186 0
M  V30 10631 O 1008.2 1.87582 -0.502671 0
M  V30 10632 C 1005.33 3.2229 -1.29408 0
M  V30 10633 C 1004.29 3.53769 -2.40897 0
M  V30 10634 C 1003.61 4.90847 -2.12068 0
M  V30 10635 C 1004.91 3.54862 -3.83237 0
M  V30 10636 H 1006.61 1.82138 -2.37626 0
M  V30 10637 H 1004.15 0.874873 -1.14376 0
M  V30 10638 H 1006.11 4.00819 -1.30085 0
M  V30 10639 H 1004.83 3.2507 -0.31573 0
M  V30 10640 H 1003.49 2.77579 -2.39469 0
M  V30 10641 H 1003.14 4.90229 -1.12626 0
M  V30 10642 H 1002.84 5.12875 -2.86762 0
M  V30 10643 H 1004.36 5.71711 -2.14426 0
M  V30 10644 H 1005.78 4.23432 -3.86494 0
M  V30 10645 H 1004.17 3.88416 -4.57442 0
M  V30 10646 H 1005.24 2.54266 -4.12888 0
M  V30 10647 N 1006.59 1.25851 0.948643 0
M  V30 10648 C 1007.83 1.11119 1.69648 0
M  V30 10649 C 1008.17 -0.345995 1.91093 0
M  V30 10650 O 1007.44 -1.25467 1.48621 0
M  V30 10651 C 1007.72 1.87261 3.0758 0
M  V30 10652 C 1007.58 3.40842 2.93507 0
M  V30 10653 C 1008.9 1.6605 4.07573 0
M  V30 10654 H 1006.01 0.405052 0.615713 0
M  V30 10655 H 1008.66 1.54756 1.10229 0
M  V30 10656 H 1006.81 1.50172 3.58303 0
M  V30 10657 H 1008.48 3.87641 2.50064 0
M  V30 10658 H 1006.72 3.68248 2.29294 0
M  V30 10659 H 1007.39 3.89339 3.91305 0
M  V30 10660 H 1009.87 1.98348 3.65783 0
M  V30 10661 H 1008.74 2.21753 5.02113 0
M  V30 10662 H 1009.01 0.603256 4.37965 0
M  V30 10663 N 1008.06 -1.15214 1.07534 0
M  V30 10664 C 1009.48 -1.67628 0.822045 0
M  V30 10665 C 1009.83 -1.8503 -0.652571 0
M  V30 10666 O 1008.95 -1.55497 -1.50498 0
M  V30 10667 C 1009.55 -3.04489 1.48566 0
M  V30 10668 C 1008.11 -3.53974 1.27983 0
M  V30 10669 C 1007.25 -2.29656 1.55414 0
M  V30 10670 H 1010.2 -0.994016 1.23713 0
M  V30 10671 H 1010.22 -3.69509 0.907916 0
M  V30 10672 H 1009.74 -2.91792 2.55888 0
M  V30 10673 H 1007.84 -3.71908 0.226906 0
M  V30 10674 H 1007.95 -4.35298 2.0013 0
M  V30 10675 H 1006.31 -2.35289 0.975251 0
M  V30 10676 H 1007.1 -2.19544 2.63923 0
M  V30 10677 N 1009.54 -0.859717 -1.32086 0
M  V30 10678 C 1010.45 -0.31108 -2.32528 0
M  V30 10679 C 1011.47 0.573714 -1.6427 0
M  V30 10680 O 1012.64 0.472878 -1.9577 0
M  V30 10681 C 1009.71 0.487256 -3.43259 0
M  V30 10682 C 1008.77 -0.424279 -4.27198 0
M  V30 10683 C 1008 0.336051 -5.32641 0
M  V30 10684 O 1008.23 1.56541 -5.48499 0
M  V30 10685 O 1007.16 -0.300777 -6.01148 0
M  V30 10686 H 1010.99 -1.14336 -2.81355 0
M  V30 10687 H 1008.57 -0.622794 -1.358 0
M  V30 10688 H 1010.45 0.940203 -4.10777 0
M  V30 10689 H 1009.13 1.29626 -2.96612 0
M  V30 10690 H 1008.04 -0.925509 -3.62471 0
M  V30 10691 H 1009.37 -1.1986 -4.77383 0
M  V30 10692 N 1011.02 1.44971 -0.618145 0
M  V30 10693 C 1011.95 2.33357 0.0815955 0
M  V30 10694 C 1012.93 1.47451 0.848072 0
M  V30 10695 O 1014.12 1.762 0.816532 0
M  V30 10696 C 1011.25 3.30324 1.07253 0
M  V30 10697 C 1010.2 4.25948 0.418563 0
M  V30 10698 C 1009.53 5.12685 1.51849 0
M  V30 10699 C 1010.83 5.18024 -0.66697 0
M  V30 10700 H 1012.52 2.92115 -0.656442 0
M  V30 10701 H 1010.07 1.40465 -0.317129 0
M  V30 10702 H 1012.02 3.91033 1.57069 0
M  V30 10703 H 1010.74 2.69748 1.8413 0
M  V30 10704 H 1009.4 3.66553 -0.0588308 0
M  V30 10705 H 1009.05 4.4847 2.2778 0
M  V30 10706 H 1008.75 5.7747 1.08637 0
M  V30 10707 H 1010.27 5.76264 2.01871 0
M  V30 10708 H 1011.69 5.72744 -0.252448 0
M  V30 10709 H 1010.09 5.91343 -1.02146 0
M  V30 10710 H 1011.16 4.59817 -1.53936 0
M  V30 10711 N 1012.5 0.357919 1.53482 0
M  V30 10712 C 1013.75 -0.235241 2.00324 0
M  V30 10713 C 1014.06 -1.50494 1.24944 0
M  V30 10714 O 1015.27 -2.17623 1.62335 0
M  V30 10715 C 1013.72 -0.469748 3.56821 0
M  V30 10716 C 1013.33 0.784877 4.41071 0
M  V30 10717 C 1015.07 -1.02098 4.12039 0
M  V30 10718 C 1012.98 0.520377 5.89106 0
M  V30 10719 H 1011.91 -0.0916816 0.748405 0
M  V30 10720 H 1014.56 0.475474 1.77233 0
M  V30 10721 H 1012.94 -1.24153 3.76035 0
M  V30 10722 H 1014.12 1.55886 4.33631 0
M  V30 10723 H 1012.43 1.25878 3.96918 0
M  V30 10724 H 1015.03 -1.23406 5.20264 0
M  V30 10725 H 1015.37 -1.98084 3.66154 0
M  V30 10726 H 1015.91 -0.309554 3.96594 0
M  V30 10727 H 1012.65 1.45035 6.39254 0
M  V30 10728 H 1012.17 -0.215254 5.99414 0
M  V30 10729 H 1013.84 0.143006 6.46842 0
M  V30 10730 N 1013.98 -1.5736 0.0868897 0
M  V30 10731 C 1014.92 -2.13571 -0.874996 0
M  V30 10732 C 1015.89 -1.0521 -1.2853 0
M  V30 10733 O 1017.08 -1.32954 -1.3685 0
M  V30 10734 C 1014.22 -2.71386 -2.13175 0
M  V30 10735 C 1013.33 -3.93953 -1.77272 0
M  V30 10736 C 1012.47 -4.3996 -2.97671 0
M  V30 10737 C 1011.51 -5.55137 -2.57856 0
M  V30 10738 N 1010.64 -5.96034 -3.71064 0
M  V30 10739 H 1015.48 -2.95453 -0.388789 0
M  V30 10740 H 1013.02 -1.45992 -0.180242 0
M  V30 10741 H 1014.98 -3.03022 -2.86764 0
M  V30 10742 H 1013.61 -1.92245 -2.5931 0
M  V30 10743 H 1012.66 -3.68683 -0.936845 0
M  V30 10744 H 1013.97 -4.77565 -1.43989 0
M  V30 10745 H 1013.13 -4.73337 -3.79522 0
M  V30 10746 H 1011.86 -3.55232 -3.34158 0
M  V30 10747 H 1010.87 -5.21397 -1.7443 0
M  V30 10748 H 1012.09 -6.41608 -2.22522 0
M  V30 10749 H 1010.04 -5.14253 -4.07284 0
M  V30 10750 H 1009.96 -6.74423 -3.41599 0
M  V30 10751 H 1011.23 -6.34038 -4.53449 0
M  V30 10752 N 1015.45 0.186762 -1.56489 0
M  V30 10753 C 1016.36 1.25169 -1.98419 0
M  V30 10754 C 1017.38 1.49329 -0.893124 0
M  V30 10755 O 1018.56 1.61781 -1.19954 0
M  V30 10756 C 1015.62 2.57422 -2.32239 0
M  V30 10757 C 1014.68 2.4126 -3.55095 0
M  V30 10758 C 1013.92 3.67206 -3.87292 0
M  V30 10759 O 1014.14 4.71731 -3.20665 0
M  V30 10760 O 1013.07 3.62238 -4.80695 0
M  V30 10761 H 1016.9 0.925834 -2.89244 0
M  V30 10762 H 1014.48 0.392421 -1.44154 0
M  V30 10763 H 1016.37 3.35466 -2.5503 0
M  V30 10764 H 1015.04 2.89618 -1.44579 0
M  V30 10765 H 1013.95 1.61299 -3.37541 0
M  V30 10766 H 1015.28 2.13994 -4.43247 0
M  V30 10767 N 1016.93 1.50896 0.454776 0
M  V30 10768 C 1017.86 1.73885 1.5584 0
M  V30 10769 C 1018.84 0.588172 1.59607 0
M  V30 10770 O 1020.03 0.829054 1.75614 0
M  V30 10771 C 1017.16 1.84796 2.94054 0
M  V30 10772 C 1016.11 3.00111 3.05152 0
M  V30 10773 C 1015.44 2.96183 4.45174 0
M  V30 10774 C 1016.74 4.40365 2.80849 0
M  V30 10775 H 1018.43 2.66292 1.36854 0
M  V30 10776 H 1015.98 1.28142 0.656936 0
M  V30 10777 H 1017.93 1.99462 3.71204 0
M  V30 10778 H 1016.66 0.890235 3.14233 0
M  V30 10779 H 1015.31 2.85121 2.30438 0
M  V30 10780 H 1014.96 1.98224 4.62295 0
M  V30 10781 H 1014.66 3.73608 4.53532 0
M  V30 10782 H 1016.19 3.1292 5.24322 0
M  V30 10783 H 1017.6 4.55795 3.47741 0
M  V30 10784 H 1016 5.19363 3.00636 0
M  V30 10785 H 1017.07 4.51606 1.76579 0
M  V30 10786 N 1018.41 -0.709066 1.40748 0
M  V30 10787 C 1019.36 -1.84445 1.41714 0
M  V30 10788 C 1020.35 -1.66779 0.296818 0
M  V30 10789 O 1021.56 -1.73805 0.468181 0
M  V30 10790 H 1017.93 -0.607581 0.443114 0
M  V30 10791 H 1019.9 -1.80747 2.3743 0
M  V30 10792 C 1018.65 -3.22362 1.303 0
M  V30 10793 H 1017.98 -3.36565 2.15787 0
M  V30 10794 H 1019.42 -4.01922 1.35036 0
M  V30 10795 C 1017.88 -3.36897 0.0139015 0
M  V30 10796 O 1018.41 -3.90389 -0.946553 0
M  V30 10797 N 1016.61 -2.90543 -0.0577491 0
M  V30 10798 H 1016.16 -2.472 0.724574 0
M  V30 10799 H 1016.12 -3.00647 -0.919721 0
M  V30 10800 N 1019.89 -1.26353 -0.941956 0
M  V30 10801 C 1021.11 -1.14731 -1.72776 0
M  V30 10802 C 1021.54 0.293766 -1.85792 0
M  V30 10803 O 1020.9 1.21284 -1.34759 0
M  V30 10804 C 1020.95 -1.82041 -3.11277 0
M  V30 10805 O 1020.05 -1.10867 -3.97218 0
M  V30 10806 H 1019.39 -0.399823 -0.53013 0
M  V30 10807 H 1021.92 -1.67157 -1.17981 0
M  V30 10808 H 1021.93 -1.88834 -3.61671 0
M  V30 10809 H 1020.61 -2.86879 -3.0112 0
M  V30 10810 H 1019.18 -1.12044 -3.55669 0
M  V30 10811 N 1021.37 1.14642 -1.08144 0
M  V30 10812 C 1022.3 2.21775 -0.730609 0
M  V30 10813 C 1023.28 1.67683 0.285702 0
M  V30 10814 O 1024.46 1.93567 0.156667 0
M  V30 10815 C 1021.59 3.47033 -0.136242 0
M  V30 10816 C 1020.55 4.14134 -1.0806 0
M  V30 10817 C 1019.87 5.33563 -0.348585 0
M  V30 10818 C 1021.17 4.62978 -2.41761 0
M  V30 10819 H 1022.87 2.51378 -1.62633 0
M  V30 10820 H 1020.41 1.20825 -0.783411 0
M  V30 10821 H 1022.37 4.21226 0.121182 0
M  V30 10822 H 1021.09 3.16786 0.7946 0
M  V30 10823 H 1019.75 3.41892 -1.32308 0
M  V30 10824 H 1019.4 4.99575 0.585974 0
M  V30 10825 H 1019.1 5.79402 -0.978122 0
M  V30 10826 H 1020.62 6.10519 -0.0991508 0
M  V30 10827 H 1022.04 5.28659 -2.21795 0
M  V30 10828 H 1020.43 5.1951 -3.00383 0
M  V30 10829 H 1021.5 3.78189 -3.03482 0
M  V30 10830 N 1022.85 0.866709 1.31628 0
M  V30 10831 C 1024.09 0.475086 1.96437 0
M  V30 10832 C 1024.41 -0.975179 1.68865 0
M  V30 10833 O 1023.68 -1.68317 1.0023 0
M  V30 10834 H 1022.26 0.172695 0.726764 0
M  V30 10835 H 1024.93 1.10578 1.60494 0
M  V30 10836 H 1024.02 0.630123 3.05673 0
M  V30 10837 N 1024.32 -1.44642 0.625825 0
M  V30 10838 C 1025.74 -1.56925 0.290992 0
M  V30 10839 C 1025.94 -1.61424 -1.20601 0
M  V30 10840 O 1025 -1.55439 -1.98985 0
M  V30 10841 C 1026.31 -2.84343 0.978242 0
M  V30 10842 C 1027.86 -2.98047 0.955882 0
M  V30 10843 C 1028.33 -4.2826 1.62349 0
M  V30 10844 N 1029.82 -4.35062 1.58983 0
M  V30 10845 C 1030.56 -5.34524 2.07538 0
M  V30 10846 N 1030.05 -6.4042 2.6426 0
M  V30 10847 N 1031.85 -5.25998 1.98198 0
M  V30 10848 H 1024 -1.39965 1.59761 0
M  V30 10849 H 1026.26 -0.670368 0.670306 0
M  V30 10850 H 1025.97 -2.86985 2.03304 0
M  V30 10851 H 1025.84 -3.73699 0.512726 0
M  V30 10852 H 1028.23 -2.94961 -0.0904292 0
M  V30 10853 H 1028.31 -2.10053 1.45984 0
M  V30 10854 H 1027.95 -4.32105 2.66923 0
M  V30 10855 H 1027.88 -5.15102 1.09441 0
M  V30 10856 H 1030.37 -3.59147 1.17565 0
M  V30 10857 H 1030.69 -7.1259 2.99056 0
M  V30 10858 H 1029.03 -6.41121 2.68308 0
M  V30 10859 H 1032.22 -4.42178 1.5361 0
M  V30 10860 H 1032.4 -6.03359 2.3635 0
M  V30 10861 N 1025.8 -0.366053 -1.5329 0
M  V30 10862 C 1027.21 0.113056 -1.86357 0
M  V30 10863 C 1027.56 1.48123 -1.28662 0
M  V30 10864 O 1026.69 2.07658 -0.608849 0
M  V30 10865 C 1027.28 0.211923 -3.38137 0
M  V30 10866 C 1025.84 0.635289 -3.71 0
M  V30 10867 C 1024.99 -0.217203 -2.76448 0
M  V30 10868 H 1027.94 -0.584829 -1.47531 0
M  V30 10869 H 1027.96 1.0354 -3.66142 0
M  V30 10870 H 1027.47 -0.783994 -3.80099 0
M  V30 10871 H 1025.57 1.63942 -3.34595 0
M  V30 10872 H 1025.69 0.409571 -4.77346 0
M  V30 10873 H 1024.05 0.313988 -2.52757 0
M  V30 10874 H 1024.83 -1.21067 -3.21244 0
M  V30 10875 N 1027.28 1.57312 -0.0952337 0
M  V30 10876 C 1028.56 1.85822 0.610715 0
M  V30 10877 C 1028.94 0.992114 1.86334 0
M  V30 10878 O 1028.28 0.0645669 2.28409 0
M  V30 10879 C 1028.49 3.36492 0.925967 0
M  V30 10880 C 1029.84 4.0455 1.28936 0
M  V30 10881 O 1030.87 3.41374 1.01698 0
M  V30 10882 O 1029.73 5.16024 1.79949 0
M  V30 10883 H 1026.82 0.768454 0.305626 0
M  V30 10884 H 1029.37 1.69217 -0.127941 0
M  V30 10885 H 1028.14 3.91282 0.0373127 0
M  V30 10886 H 1027.76 3.58443 1.7206 0
M  V30 10887 N 1028.76 -0.17846 1.56586 0
M  V30 10888 C 1030.01 -0.894502 1.8078 0
M  V30 10889 C 1030.32 -1.8372 0.67129 0
M  V30 10890 O 1031.53 -2.59509 0.797971 0
M  V30 10891 C 1029.98 -1.64109 3.20306 0
M  V30 10892 C 1029.59 -0.742387 4.41806 0
M  V30 10893 C 1031.33 -2.34578 3.53798 0
M  V30 10894 C 1029.24 -1.4888 5.72354 0
M  V30 10895 H 1028.17 -0.33776 0.674117 0
M  V30 10896 H 1030.82 -0.14752 1.82906 0
M  V30 10897 H 1029.2 -2.43257 3.12477 0
M  V30 10898 H 1030.38 0.011615 4.60799 0
M  V30 10899 H 1028.69 -0.147705 4.16138 0
M  V30 10900 H 1031.29 -2.91004 4.48577 0
M  V30 10901 H 1031.63 -3.09572 2.78336 0
M  V30 10902 H 1032.17 -1.62381 3.63149 0
M  V30 10903 H 1028.9 -0.781325 6.50827 0
M  V30 10904 H 1028.42 -2.21631 5.57351 0
M  V30 10905 H 1030.1 -2.03819 6.14058 0
M  V30 10906 N 1030.24 -1.51135 -0.446768 0
M  V30 10907 C 1031.17 -1.74709 -1.54916 0
M  V30 10908 C 1032.15 -0.596628 -1.59293 0
M  V30 10909 O 1033.33 -0.838356 -1.75172 0
M  V30 10910 C 1030.46 -1.86353 -2.9307 0
M  V30 10911 C 1029.42 -3.01725 -3.03556 0
M  V30 10912 C 1028.74 -2.9854 -4.43597 0
M  V30 10913 C 1030.04 -4.41848 -2.7851 0
M  V30 10914 H 1031.74 -2.67014 -1.3544 0
M  V30 10915 H 1029.28 -1.28489 -0.650131 0
M  V30 10916 H 1031.23 -2.01428 -3.70141 0
M  V30 10917 H 1029.96 -0.906887 -3.13756 0
M  V30 10918 H 1028.62 -2.86339 -2.28922 0
M  V30 10919 H 1028.27 -2.00673 -4.61237 0
M  V30 10920 H 1027.97 -3.76008 -4.51544 0
M  V30 10921 H 1029.49 -3.15696 -5.22655 0
M  V30 10922 H 1030.9 -4.57633 -3.45319 0
M  V30 10923 H 1029.3 -5.2095 -2.97877 0
M  V30 10924 H 1030.37 -4.52536 -1.74182 0
M  V30 10925 N 1031.71 0.701592 -1.41122 0
M  V30 10926 C 1032.96 1.46376 -1.40363 0
M  V30 10927 C 1033.29 1.94197 -0.0105442 0
M  V30 10928 O 1032.57 1.69121 0.960637 0
M  V30 10929 C 1032.85 2.67994 -2.40523 0
M  V30 10930 C 1032.7 2.25977 -3.88914 0
M  V30 10931 C 1034.02 3.70181 -2.38022 0
M  V30 10932 H 1031.14 0.530929 -0.511159 0
M  V30 10933 H 1033.78 0.799588 -1.72356 0
M  V30 10934 H 1031.93 3.24661 -2.13372 0
M  V30 10935 H 1033.61 1.74684 -4.26946 0
M  V30 10936 H 1031.85 1.57826 -4.04071 0
M  V30 10937 H 1032.52 3.13215 -4.54533 0
M  V30 10938 H 1035 3.23174 -2.62103 0
M  V30 10939 H 1033.87 4.52894 -3.10127 0
M  V30 10940 H 1034.13 4.19458 -1.3967 0
M  V30 10941 N 1033.19 1.2685 0.935242 0
M  V30 10942 C 1034.12 1.03244 2.03509 0
M  V30 10943 C 1035.1 -0.0447323 1.62538 0
M  V30 10944 O 1036.29 0.0988905 1.8824 0
M  V30 10945 C 1033.41 0.564626 3.33961 0
M  V30 10946 C 1032.46 1.63524 3.93906 0
M  V30 10947 S 1033.29 3.22577 4.27439 0
M  V30 10948 C 1034.45 2.77579 5.60982 0
M  V30 10949 H 1034.68 1.96367 2.2322 0
M  V30 10950 H 1032.21 1.10597 1.07739 0
M  V30 10951 H 1034.17 0.301388 4.09392 0
M  V30 10952 H 1032.83 -0.346419 3.12184 0
M  V30 10953 H 1032.03 1.25905 4.8802 0
M  V30 10954 H 1031.63 1.85017 3.25031 0
M  V30 10955 H 1033.92 2.22412 6.39952 0
M  V30 10956 H 1034.86 3.70408 6.03493 0
M  V30 10957 H 1035.27 2.16956 5.21143 0
M  V30 10958 N 1034.67 -1.14067 1.0875 0
M  V30 10959 C 1035.91 -1.8684 0.828873 0
M  V30 10960 C 1036.27 -1.81235 -0.633879 0
M  V30 10961 O 1037.48 -2.49178 -1.00815 0
M  V30 10962 C 1035.75 -3.31299 1.34073 0
M  V30 10963 S 1037.31 -4.21645 1.21494 0
M  V30 10964 H 1034.12 -0.644622 0.299972 0
M  V30 10965 H 1036.73 -1.37526 1.38949 0
M  V30 10966 H 1035.43 -3.32929 2.39972 0
M  V30 10967 H 1034.96 -3.85672 0.775944 0
M  V30 10968 H 1036.98 -4.95937 0.161446 0
M  V30 10969 N 1036.15 -0.873678 -1.31166 0
M  V30 10970 C 1037.4 -0.485497 -1.96182 0
M  V30 10971 C 1037.72 0.96621 -1.69379 0
M  V30 10972 O 1036.99 1.67783 -1.01121 0
M  V30 10973 H 1035.57 -0.176547 -0.725838 0
M  V30 10974 H 1038.23 -1.11428 -1.59906 0
M  V30 10975 H 1037.33 -0.646325 -3.05334 0
M  V30 10976 N 1037.63 1.44308 -0.633487 0
M  V30 10977 C 1038.87 2.01624 -0.138643 0
M  V30 10978 C 1039.2 1.50101 1.24477 0
M  V30 10979 O 1038.47 0.705575 1.82752 0
M  V30 10980 H 1037.05 0.745439 -0.0482636 0
M  V30 10981 H 1039.71 1.76777 -0.820719 0
M  V30 10982 H 1038.8 3.11913 -0.108136 0
M  V30 10983 N 1039.1 0.374177 1.53094 0
M  V30 10984 C 1040.35 -0.213131 2.01677 0
M  V30 10985 C 1040.68 -1.47715 1.26071 0
M  V30 10986 O 1039.96 -1.91199 0.356834 0
M  V30 10987 C 1040.24 -0.496392 3.56662 0
M  V30 10988 C 1040.09 0.781859 4.42953 0
M  V30 10989 C 1041.41 -1.29339 4.20666 0
M  V30 10990 H 1038.53 -0.0759885 0.733072 0
M  V30 10991 H 1041.17 0.500765 1.83282 0
M  V30 10992 H 1039.32 -1.10455 3.72467 0
M  V30 10993 H 1041 1.41914 4.38928 0
M  V30 10994 H 1039.24 1.40041 4.10574 0
M  V30 10995 H 1039.91 0.538508 5.49367 0
M  V30 10996 H 1042.39 -0.778848 4.08746 0
M  V30 10997 H 1041.26 -1.46033 5.29118 0
M  V30 10998 H 1041.52 -2.30435 3.77296 0
M  V30 10999 N 1040.58 -1.57259 0.103575 0
M  V30 11000 C 1041.83 -1.93832 -0.55786 0
M  V30 11001 C 1042.14 -0.988087 -1.68808 0
M  V30 11002 O 1043.35 -1.24786 -2.41124 0
M  V30 11003 C 1041.81 -3.44433 -1.04373 0
M  V30 11004 C 1041.41 -4.47963 0.0571971 0
M  V30 11005 C 1043.16 -3.89953 -1.67742 0
M  V30 11006 C 1041.07 -5.89727 -0.444505 0
M  V30 11007 H 1040 -0.723536 -0.212161 0
M  V30 11008 H 1042.65 -1.82606 0.180944 0
M  V30 11009 H 1041.03 -3.50841 -1.83648 0
M  V30 11010 H 1042.2 -4.53209 0.83298 0
M  V30 11011 H 1040.52 -4.12104 0.596588 0
M  V30 11012 H 1043.11 -4.93272 -2.06365 0
M  V30 11013 H 1043.46 -3.2907 -2.54988 0
M  V30 11014 H 1043.99 -3.86281 -0.950342 0
M  V30 11015 H 1040.73 -6.5433 0.391543 0
M  V30 11016 H 1040.25 -5.87935 -1.18711 0
M  V30 11017 H 1041.93 -6.40558 -0.910739 0
M  V30 11018 N 1042.06 0.170153 -1.56679 0
M  V30 11019 C 1043.47 0.732502 -1.7173 0
M  V30 11020 C 1043.82 1.82736 -0.71428 0
M  V30 11021 O 1042.95 2.16044 0.124102 0
M  V30 11022 C 1043.54 1.33548 -3.11368 0
M  V30 11023 C 1042.1 1.84464 -3.281 0
M  V30 11024 C 1041.25 0.724069 -2.6768 0
M  V30 11025 H 1044.2 -0.0552543 -1.58604 0
M  V30 11026 H 1044.22 2.20519 -3.10083 0
M  V30 11027 H 1043.73 0.5384 -3.84347 0
M  V30 11028 H 1041.83 2.66813 -2.6008 0
M  V30 11029 H 1041.95 1.98928 -4.35849 0
M  V30 11030 H 1040.31 1.14481 -2.27522 0
M  V30 11031 H 1041.09 -0.0611861 -3.43245 0
M  V30 11032 N 1043.54 1.5137 0.438746 0
M  V30 11033 C 1044.95 1.56462 1.01866 0
M  V30 11034 C 1045.3 0.387244 1.9234 0
M  V30 11035 O 1044.43 -0.496131 2.10636 0
M  V30 11036 C 1045.02 2.83557 1.85421 0
M  V30 11037 C 1043.58 2.91224 2.38464 0
M  V30 11038 C 1042.73 2.51109 1.17641 0
M  V30 11039 H 1045.68 1.57167 0.220072 0
M  V30 11040 H 1045.7 2.6724 2.70857 0
M  V30 11041 H 1045.21 3.69229 1.19546 0
M  V30 11042 H 1043.31 2.09979 3.07798 0
M  V30 11043 H 1043.42 3.94844 2.71358 0
M  V30 11044 H 1041.79 2.04276 1.5213 0
M  V30 11045 H 1042.57 3.39125 0.533785 0
M  V30 11046 N 1045.02 -0.694098 1.41492 0
M  V30 11047 C 1045.95 -1.81943 1.39389 0
M  V30 11048 C 1046.96 -1.6009 0.295836 0
M  V30 11049 O 1048.15 -1.69565 0.557658 0
M  V30 11050 C 1045.25 -3.18731 1.15167 0
M  V30 11051 C 1044.42 -3.67601 2.37041 0
M  V30 11052 C 1043.48 -4.83063 2.08654 0
M  V30 11053 O 1042.51 -4.94603 2.81704 0
M  V30 11054 N 1043.71 -5.70409 1.0777 0
M  V30 11055 H 1046.48 -1.84239 2.36381 0
M  V30 11056 H 1044.04 -0.876475 1.36123 0
M  V30 11057 H 1046.03 -3.93602 0.941264 0
M  V30 11058 H 1044.6 -3.11452 0.267673 0
M  V30 11059 H 1043.82 -2.83622 2.73774 0
M  V30 11060 H 1045.11 -3.96991 3.18239 0
M  V30 11061 H 1044.5 -5.63718 0.473123 0
M  V30 11062 H 1043.06 -6.45172 0.927177 0
M  V30 11063 N 1046.49 -1.27344 -0.928501 0
M  V30 11064 C 1047.77 -1.04362 -1.65433 0
M  V30 11065 C 1048.15 0.421896 -2.06841 0
M  V30 11066 O 1047.5 1.40496 -1.80203 0
M  V30 11067 C 1047.71 -2.00442 -2.85699 0
M  V30 11068 C 1049.06 -2.29767 -3.57061 0
M  V30 11069 O 1050.08 -1.98409 -2.95825 0
M  V30 11070 O 1048.94 -2.83217 -4.67387 0
M  V30 11071 H 1046.03 -0.397783 -0.72505 0
M  V30 11072 H 1048.58 -1.38606 -0.979109 0
M  V30 11073 H 1047.35 -2.99281 -2.52085 0
M  V30 11074 H 1046.98 -1.66755 -3.60941 0
M  V30 11075 N 1047.97 1.13488 -1.09353 0
M  V30 11076 C 1049.2 1.88319 -0.849681 0
M  V30 11077 C 1049.61 1.79347 0.602616 0
M  V30 11078 O 1048.95 1.15744 1.4265 0
M  V30 11079 C 1049.02 3.38698 -1.20514 0
M  V30 11080 C 1048.68 3.71452 -2.66219 0
M  V30 11081 C 1049.68 3.70755 -3.64467 0
M  V30 11082 C 1047.36 4.01132 -3.02321 0
M  V30 11083 C 1049.36 3.9928 -4.96845 0
M  V30 11084 C 1047.04 4.29318 -4.3489 0
M  V30 11085 C 1048.04 4.28376 -5.31961 0
M  V30 11086 O 1047.73 4.55872 -6.62145 0
M  V30 11087 H 1047.46 0.603053 -0.305455 0
M  V30 11088 H 1050.01 1.44592 -1.45884 0
M  V30 11089 H 1048.24 3.82925 -0.539022 0
M  V30 11090 H 1049.93 3.94852 -0.940552 0
M  V30 11091 H 1050.7 3.47901 -3.3792 0
M  V30 11092 H 1046.58 4.01013 -2.27398 0
M  V30 11093 H 1050.12 3.9846 -5.72604 0
M  V30 11094 H 1046.02 4.51644 -4.61181 0
M  V30 11095 H 1046.79 4.73544 -6.67607 0
M  V30 11096 N 1049.45 0.880621 1.30701 0
M  V30 11097 C 1050.36 0.348034 2.32004 0
M  V30 11098 C 1051.38 -0.547508 1.65162 0
M  V30 11099 O 1052.55 -0.441673 1.96497 0
M  V30 11100 C 1049.62 -0.432585 3.43991 0
M  V30 11101 C 1048.68 0.492189 4.26469 0
M  V30 11102 C 1047.91 -0.25127 5.33108 0
M  V30 11103 O 1048.14 -1.47795 5.5092 0
M  V30 11104 O 1047.07 0.396376 6.00593 0
M  V30 11105 H 1050.9 1.18798 2.79501 0
M  V30 11106 H 1048.48 0.64432 1.34792 0
M  V30 11107 H 1050.36 -0.874733 4.12221 0
M  V30 11108 H 1049.04 -1.2489 2.98637 0
M  V30 11109 H 1047.94 0.983058 3.60953 0
M  V30 11110 H 1049.28 1.27439 4.75416 0
M  V30 11111 N 1050.93 -1.4397 0.641131 0
M  V30 11112 C 1052.18 -2.01946 0.149629 0
M  V30 11113 C 1052.5 -1.50496 -1.23212 0
M  V30 11114 O 1051.76 -0.683453 -1.83378 0
M  V30 11115 C 1052.06 -3.5727 0.0963368 0
M  V30 11116 C 1051.72 -4.28016 1.4182 0
M  V30 11117 C 1050.39 -4.47059 1.78021 0
M  V30 11118 C 1052.74 -4.68183 2.29028 0
M  V30 11119 C 1050.07 -5.03532 3.01119 0
M  V30 11120 C 1052.42 -5.26019 3.51406 0
M  V30 11121 C 1051.08 -5.4328 3.87818 0
M  V30 11122 H 1050.35 -0.738974 0.0547531 0
M  V30 11123 H 1053 -1.72605 0.829436 0
M  V30 11124 H 1051.3 -3.86083 -0.666879 0
M  V30 11125 H 1053 -3.99871 -0.300635 0
M  V30 11126 H 1049.59 -4.13531 1.12651 0
M  V30 11127 H 1053.78 -4.53175 2.02353 0
M  V30 11128 H 1049.03 -5.15082 3.29395 0
M  V30 11129 H 1053.21 -5.56092 4.19208 0
M  V30 11130 H 1050.83 -5.86805 4.83284 0
M  V30 11131 N 1052.41 -0.382291 -1.52893 0
M  V30 11132 C 1053.34 0.447829 -2.29165 0
M  V30 11133 C 1054.32 1.06956 -1.32267 0
M  V30 11134 O 1055.5 1.08365 -1.61154 0
M  V30 11135 C 1052.63 1.57902 -3.09329 0
M  V30 11136 C 1051.59 1.08369 -4.14053 0
M  V30 11137 C 1050.91 2.30641 -4.82399 0
M  V30 11138 C 1052.21 0.156591 -5.22065 0
M  V30 11139 H 1053.91 -0.188541 -2.98806 0
M  V30 11140 H 1051.45 -0.0921179 -1.43705 0
M  V30 11141 H 1053.41 2.16652 -3.61442 0
M  V30 11142 H 1052.13 2.24287 -2.37409 0
M  V30 11143 H 1050.79 0.518772 -3.62911 0
M  V30 11144 H 1050.44 2.9552 -4.07034 0
M  V30 11145 H 1050.14 1.98163 -5.53177 0
M  V30 11146 H 1051.66 2.90047 -5.37313 0
M  V30 11147 H 1053.08 0.652065 -5.6958 0
M  V30 11148 H 1051.47 -0.0780978 -6.00049 0
M  V30 11149 H 1052.54 -0.796529 -4.78313 0
M  V30 11150 N 1053.89 1.57202 -0.111913 0
M  V30 11151 C 1055.13 1.9495 0.547795 0
M  V30 11152 C 1055.46 0.994763 1.67137 0
M  V30 11153 O 1054.72 0.0173528 1.95692 0
M  V30 11154 C 1055.01 3.39152 1.12741 0
M  V30 11155 C 1054.68 4.50724 0.125916 0
M  V30 11156 C 1053.34 4.80968 -0.149489 0
M  V30 11157 C 1055.69 5.18215 -0.556987 0
M  V30 11158 C 1053.02 5.76023 -1.1142 0
M  V30 11159 C 1055.37 6.14307 -1.51029 0
M  V30 11160 C 1054.04 6.42947 -1.79375 0
M  V30 11161 H 1053.31 0.713372 0.200453 0
M  V30 11162 H 1055.96 1.90542 -0.191316 0
M  V30 11163 H 1054.26 3.4022 1.94313 0
M  V30 11164 H 1055.96 3.65668 1.64584 0
M  V30 11165 H 1052.55 4.27162 0.350756 0
M  V30 11166 H 1056.73 4.95012 -0.357378 0
M  V30 11167 H 1051.99 5.9652 -1.34064 0
M  V30 11168 H 1056.16 6.65692 -2.04516 0
M  V30 11169 H 1053.79 7.1641 -2.54284 0
M  V30 11170 N 1055.36 -0.161842 1.56767 0
M  V30 11171 C 1056.27 -1.21996 2.00385 0
M  V30 11172 C 1057.29 -1.4789 0.916768 0
M  V30 11173 O 1058.47 -1.59852 1.22513 0
M  V30 11174 C 1055.53 -2.53695 2.36305 0
M  V30 11175 C 1054.59 -2.3558 3.58888 0
M  V30 11176 C 1053.82 -3.60998 3.93085 0
M  V30 11177 O 1054.05 -4.6657 3.28129 0
M  V30 11178 O 1052.98 -3.54544 4.86397 0
M  V30 11179 H 1056.81 -0.879701 2.9068 0
M  V30 11180 H 1054.39 -0.369437 1.4476 0
M  V30 11181 H 1056.27 -3.31366 2.60335 0
M  V30 11182 H 1054.95 -2.87281 1.49169 0
M  V30 11183 H 1053.86 -1.55908 3.40064 0
M  V30 11184 H 1055.19 -2.06915 4.46595 0
M  V30 11185 N 1056.84 -1.516 -0.430713 0
M  V30 11186 C 1058.09 -1.6484 -1.18134 0
M  V30 11187 C 1058.42 -0.366725 -1.90706 0
M  V30 11188 O 1057.7 0.63398 -1.83878 0
M  V30 11189 C 1057.98 -2.85617 -2.19306 0
M  V30 11190 C 1057.83 -4.23778 -1.50773 0
M  V30 11191 C 1059.15 -3.01909 -3.20217 0
M  V30 11192 H 1056.27 -0.599907 -0.428113 0
M  V30 11193 H 1058.91 -1.84102 -0.46973 0
M  V30 11194 H 1057.06 -2.69325 -2.79993 0
M  V30 11195 H 1058.73 -4.51752 -0.93371 0
M  V30 11196 H 1056.98 -4.26171 -0.809966 0
M  V30 11197 H 1057.65 -5.04291 -2.24487 0
M  V30 11198 H 1060.12 -3.16956 -2.69589 0
M  V30 11199 H 1059 -3.87968 -3.88293 0
M  V30 11200 H 1059.26 -2.1427 -3.86705 0
M  V30 11201 N 1058.32 0.686584 -1.41858 0
M  V30 11202 C 1059.57 1.44379 -1.41418 0
M  V30 11203 C 1059.89 1.94981 -0.0273696 0
M  V30 11204 O 1059.16 1.72296 0.932248 0
M  V30 11205 H 1057.74 0.53574 -0.520568 0
M  V30 11206 H 1060.4 0.812056 -1.77177 0
M  V30 11207 H 1059.5 2.30258 -2.10684 0
M  V30 11208 N 1059.8 1.27835 0.921735 0
M  V30 11209 C 1061.04 1.14692 1.67253 0
M  V30 11210 C 1061.38 -0.305384 1.91784 0
M  V30 11211 O 1060.65 -1.22286 1.51249 0
M  V30 11212 C 1060.93 1.93743 3.03539 0
M  V30 11213 C 1060.79 3.46991 2.86212 0
M  V30 11214 C 1062.11 1.74658 4.03959 0
M  V30 11215 H 1059.23 0.418021 0.606983 0
M  V30 11216 H 1061.87 1.5706 1.06922 0
M  V30 11217 H 1060.02 1.57738 3.55037 0
M  V30 11218 H 1061.69 3.92858 2.41785 0
M  V30 11219 H 1059.93 3.73029 2.21432 0
M  V30 11220 H 1060.6 3.97551 3.82958 0
M  V30 11221 H 1063.08 2.06063 3.61493 0
M  V30 11222 H 1061.96 2.32353 4.97296 0
M  V30 11223 H 1062.22 0.696019 4.36587 0
M  V30 11224 N 1061.28 -1.12907 1.09954 0
M  V30 11225 C 1062.5 -1.88679 0.861099 0
M  V30 11226 C 1062.93 -1.78853 -0.582499 0
M  V30 11227 O 1062.28 -1.13992 -1.4098 0
M  V30 11228 C 1062.33 -3.36047 1.30785 0
M  V30 11229 O 1061.44 -4.09716 0.469728 0
M  V30 11230 H 1060.78 -0.586447 0.31141 0
M  V30 11231 H 1063.31 -1.42818 1.46507 0
M  V30 11232 H 1063.32 -3.86882 1.29562 0
M  V30 11233 H 1061.99 -3.42516 2.35914 0
M  V30 11234 H 1060.57 -3.6887 0.54674 0
M  V30 11235 N 1062.75 -0.88754 -1.30232 0
M  V30 11236 C 1063.7 -0.345765 -2.30016 0
M  V30 11237 C 1064.7 0.5486 -1.60271 0
M  V30 11238 O 1065.9 0.43275 -1.74721 0
M  V30 11239 H 1062.28 -0.0931623 -0.746207 0
M  V30 11240 H 1064.25 -1.20095 -2.73166 0
M  V30 11241 C 1063 0.422435 -3.45124 0
M  V30 11242 H 1062.32 -0.256516 -3.98976 0
M  V30 11243 H 1063.76 0.766572 -4.17013 0
M  V30 11244 C 1062.22 1.62049 -2.95367 0
M  V30 11245 O 1062.75 2.71985 -2.95613 0
M  V30 11246 N 1060.95 1.45852 -2.51347 0
M  V30 11247 H 1060.5 0.564158 -2.51346 0
M  V30 11248 H 1060.46 2.26148 -2.18413 0
M  V30 11249 N 1064.23 1.43628 -0.648757 0
M  V30 11250 C 1065.48 2.02163 -0.160574 0
M  V30 11251 C 1065.81 1.51037 1.22072 0
M  V30 11252 O 1065.09 0.701633 1.81404 0
M  V30 11253 C 1065.37 3.59715 -0.166528 0
M  V30 11254 C 1065.22 4.21083 -1.58142 0
M  V30 11255 C 1066.54 4.37256 0.499485 0
M  V30 11256 H 1063.66 0.734568 -0.0598238 0
M  V30 11257 H 1066.3 1.70981 -0.828592 0
M  V30 11258 H 1064.45 3.86411 0.402302 0
M  V30 11259 H 1066.12 4.05433 -2.2005 0
M  V30 11260 H 1064.37 3.77904 -2.13005 0
M  V30 11261 H 1065.04 5.30156 -1.53748 0
M  V30 11262 H 1067.51 4.16097 0.0155561 0
M  V30 11263 H 1066.39 5.4693 0.464574 0
M  V30 11264 H 1066.65 4.13175 1.57286 0
M  V30 11265 N 1065.71 0.390394 1.52688 0
M  V30 11266 C 1066.96 -0.191445 2.01593 0
M  V30 11267 C 1067.29 -1.46723 1.27681 0
M  V30 11268 O 1066.54 -1.92248 0.365972 0
M  V30 11269 C 1066.84 -0.50468 3.53819 0
M  V30 11270 C 1066.51 0.679691 4.45748 0
M  V30 11271 C 1065.17 1.0046 4.70597 0
M  V30 11272 C 1067.52 1.47198 4.99982 0
M  V30 11273 C 1064.85 2.12334 5.46929 0
M  V30 11274 C 1067.2 2.58133 5.77538 0
M  V30 11275 C 1065.86 2.91131 6.00665 0
M  V30 11276 H 1065.13 -0.0700548 0.737681 0
M  V30 11277 H 1067.78 0.527965 1.84078 0
M  V30 11278 H 1066.09 -1.30543 3.69413 0
M  V30 11279 H 1067.78 -0.967524 3.89153 0
M  V30 11280 H 1064.37 0.416446 4.26572 0
M  V30 11281 H 1068.56 1.2342 4.80709 0
M  V30 11282 H 1063.81 2.38269 5.63061 0
M  V30 11283 H 1067.99 3.19925 6.18564 0
M  V30 11284 H 1065.61 3.77938 6.59596 0
M  V30 11285 N 1067.19 -1.57141 0.120249 0
M  V30 11286 C 1068.44 -1.94852 -0.536387 0
M  V30 11287 C 1068.76 -1.00452 -1.67136 0
M  V30 11288 O 1068.03 -0.061053 -1.95805 0
M  V30 11289 H 1066.61 -0.719411 -0.201138 0
M  V30 11290 H 1069.27 -1.93977 0.189482 0
M  V30 11291 H 1068.37 -2.97917 -0.930145 0
M  V30 11292 N 1068.67 0.153526 -1.5685 0
M  V30 11293 C 1070.08 0.714247 -1.72498 0
M  V30 11294 C 1070.43 1.81968 -0.733621 0
M  V30 11295 O 1069.55 2.16163 0.10118 0
M  V30 11296 C 1070.15 1.30238 -3.12767 0
M  V30 11297 C 1068.71 1.80974 -3.30038 0
M  V30 11298 C 1067.85 0.695638 -2.68433 0
M  V30 11299 H 1070.81 -0.0720733 -1.58536 0
M  V30 11300 H 1070.83 2.17217 -3.12405 0
M  V30 11301 H 1070.34 0.497605 -3.84897 0
M  V30 11302 H 1068.44 2.64039 -2.62895 0
M  V30 11303 H 1068.55 1.94294 -4.37934 0
M  V30 11304 H 1066.92 1.12061 -2.28723 0
M  V30 11305 H 1067.7 -0.0975885 -3.43161 0
M  V30 11306 N 1070.14 1.51827 0.422667 0
M  V30 11307 C 1071.39 1.64893 1.16853 0
M  V30 11308 C 1071.71 0.37456 1.91369 0
M  V30 11309 O 1070.98 -0.610128 1.86157 0
M  V30 11310 H 1069.56 0.607744 0.434345 0
M  V30 11311 H 1072.23 1.88816 0.483159 0
M  V30 11312 H 1071.32 2.48361 1.89006 0
M  V30 11313 N 1071.62 -0.679052 1.4222 0
M  V30 11314 C 1072.85 -1.46747 1.45852 0
M  V30 11315 C 1073.27 -1.88675 0.0685937 0
M  V30 11316 O 1072.62 -1.57861 -0.915757 0
M  V30 11317 C 1072.67 -2.71935 2.38188 0
M  V30 11318 O 1072.39 -2.31768 3.71773 0
M  V30 11319 C 1073.9 -3.65536 2.50796 0
M  V30 11320 H 1071.12 -0.451682 0.49621 0
M  V30 11321 H 1073.66 -0.834723 1.86689 0
M  V30 11322 H 1071.81 -3.31409 2.00616 0
M  V30 11323 H 1072.23 -3.12579 4.21182 0
M  V30 11324 H 1073.7 -4.50113 3.19535 0
M  V30 11325 H 1074.18 -4.11148 1.54447 0
M  V30 11326 H 1074.79 -3.11957 2.89072 0
M  V30 11327 N 1073.1 -1.28322 -0.914942 0
M  V30 11328 C 1074.52 -1.06003 -1.19313 0
M  V30 11329 C 1074.72 0.198366 -2.00521 0
M  V30 11330 O 1073.77 0.900364 -2.35902 0
M  V30 11331 C 1075.09 -2.30684 -1.92887 0
M  V30 11332 C 1076.63 -2.35851 -2.05775 0
M  V30 11333 C 1077.11 -3.60295 -2.82757 0
M  V30 11334 N 1078.6 -3.60928 -2.9032 0
M  V30 11335 C 1079.33 -4.53894 -3.50383 0
M  V30 11336 N 1078.83 -5.57178 -4.11734 0
M  V30 11337 N 1080.62 -4.41492 -3.4791 0
M  V30 11338 H 1072.77 -2.09104 -0.372735 0
M  V30 11339 H 1075.04 -0.920285 -0.227552 0
M  V30 11340 H 1074.74 -3.22355 -1.40643 0
M  V30 11341 H 1074.62 -2.37003 -2.93444 0
M  V30 11342 H 1077 -1.44678 -2.57201 0
M  V30 11343 H 1077.09 -2.33526 -1.04399 0
M  V30 11344 H 1076.73 -4.51811 -2.32011 0
M  V30 11345 H 1076.66 -3.59873 -3.84446 0
M  V30 11346 H 1079.15 -2.8624 -2.46729 0
M  V30 11347 H 1079.46 -6.24261 -4.55541 0
M  V30 11348 H 1077.81 -5.61005 -4.10242 0
M  V30 11349 H 1081 -3.60005 -2.99189 0
M  V30 11350 H 1081.17 -5.14132 -3.94427 0
M  V30 11351 N 1074.58 1.12322 -1.10551 0
M  V30 11352 C 1075.83 1.83216 -0.84349 0
M  V30 11353 C 1076.14 1.85075 0.632992 0
M  V30 11354 O 1077.35 2.51976 1.01095 0
M  V30 11355 C 1075.8 3.28994 -1.45915 0
M  V30 11356 C 1075.41 3.3549 -2.96901 0
M  V30 11357 C 1077.15 4.0485 -1.27657 0
M  V30 11358 C 1075.06 4.7561 -3.51496 0
M  V30 11359 H 1073.99 0.686471 -0.311887 0
M  V30 11360 H 1076.64 1.26463 -1.32964 0
M  V30 11361 H 1075.02 3.85621 -0.900678 0
M  V30 11362 H 1076.2 2.88795 -3.59074 0
M  V30 11363 H 1074.51 2.73107 -3.14327 0
M  V30 11364 H 1077.11 5.08316 -1.65889 0
M  V30 11365 H 1077.45 4.15727 -0.218258 0
M  V30 11366 H 1077.99 3.54584 -1.80318 0
M  V30 11367 H 1074.73 4.69927 -4.56999 0
M  V30 11368 H 1074.25 5.22753 -2.94091 0
M  V30 11369 H 1075.92 5.44552 -3.49388 0
M  V30 11370 N 1076.06 0.894434 1.2976 0
M  V30 11371 C 1077.47 0.566892 1.77885 0
M  V30 11372 C 1077.82 -0.917289 1.73437 0
M  V30 11373 O 1076.94 -1.71707 1.31703 0
M  V30 11374 C 1077.54 1.02227 3.2301 0
M  V30 11375 C 1076.1 0.745978 3.68934 0
M  V30 11376 C 1075.24 1.19993 2.49994 0
M  V30 11377 H 1078.2 1.0777 1.16496 0
M  V30 11378 H 1078.22 0.355281 3.78838 0
M  V30 11379 H 1077.73 2.1025 3.26215 0
M  V30 11380 H 1075.83 -0.321866 3.71207 0
M  V30 11381 H 1075.94 1.34017 4.59974 0
M  V30 11382 H 1074.31 0.619047 2.47063 0
M  V30 11383 H 1075.09 2.28811 2.55931 0
M  V30 11384 N 1077.53 -1.43282 0.656365 0
M  V30 11385 C 1078.48 -2.30776 -0.0333155 0
M  V30 11386 C 1079.45 -1.44928 -0.811493 0
M  V30 11387 O 1080.64 -1.73792 -0.787465 0
M  V30 11388 C 1077.78 -3.30548 -0.991566 0
M  V30 11389 C 1076.89 -4.31493 -0.209159 0
M  V30 11390 C 1076.02 -5.18346 -1.16149 0
M  V30 11391 C 1075.06 -6.10983 -0.369699 0
M  V30 11392 N 1074.2 -6.90449 -1.27378 0
M  V30 11393 H 1079.04 -2.89204 0.718668 0
M  V30 11394 H 1076.58 -1.4247 0.366161 0
M  V30 11395 H 1078.54 -3.86905 -1.56078 0
M  V30 11396 H 1077.17 -2.73762 -1.71039 0
M  V30 11397 H 1076.22 -3.77405 0.476394 0
M  V30 11398 H 1077.53 -4.97142 0.406394 0
M  V30 11399 H 1076.68 -5.79345 -1.80124 0
M  V30 11400 H 1075.42 -4.52831 -1.81095 0
M  V30 11401 H 1074.43 -5.49069 0.283377 0
M  V30 11402 H 1075.65 -6.78541 0.275399 0
M  V30 11403 H 1073.6 -6.27579 -1.90999 0
M  V30 11404 H 1073.52 -7.52631 -0.71287 0
M  V30 11405 H 1074.78 -7.5595 -1.90158 0
M  V30 11406 N 1079.01 -0.398486 -1.52479 0
M  V30 11407 C 1079.98 0.420206 -2.25315 0
M  V30 11408 C 1080.98 0.982559 -1.27289 0
M  V30 11409 O 1082.17 0.863113 -1.51314 0
M  V30 11410 C 1079.3 1.59045 -3.01525 0
M  V30 11411 H 1080.49 -0.217599 -2.9911 0
M  V30 11412 H 1078.04 -0.150784 -1.55571 0
M  V30 11413 H 1078.78 2.26542 -2.32054 0
M  V30 11414 H 1078.56 1.19382 -3.73484 0
M  V30 11415 H 1080.05 2.16984 -3.56802 0
M  V30 11416 N 1080.49 1.57075 -0.12858 0
M  V30 11417 C 1081.45 2.14643 0.803813 0
M  V30 11418 C 1082.45 1.08363 1.18803 0
M  V30 11419 O 1083.64 1.34093 1.11197 0
M  V30 11420 C 1080.78 2.6945 2.08829 0
M  V30 11421 H 1081.97 2.98362 0.303347 0
M  V30 11422 H 1079.52 1.55833 0.120735 0
M  V30 11423 H 1080.26 1.89345 2.63285 0
M  V30 11424 H 1080.04 3.47187 1.82218 0
M  V30 11425 H 1081.53 3.13865 2.7546 0
M  V30 11426 N 1081.97 -0.145205 1.5693 0
M  V30 11427 C 1083.22 -0.858786 1.83719 0
M  V30 11428 C 1083.55 -1.80738 0.710452 0
M  V30 11429 O 1082.82 -1.92389 -0.285791 0
M  V30 11430 C 1083.11 -1.6317 3.2101 0
M  V30 11431 C 1082.96 -0.704472 4.44249 0
M  V30 11432 C 1084.28 -2.59377 3.55544 0
M  V30 11433 H 1081.4 -0.310757 0.66828 0
M  V30 11434 H 1084.04 -0.123918 1.89595 0
M  V30 11435 H 1082.19 -2.25816 3.16132 0
M  V30 11436 H 1083.86 -0.08887 4.61214 0
M  V30 11437 H 1082.1 -0.0141693 4.33798 0
M  V30 11438 H 1082.78 -1.28135 5.36922 0
M  V30 11439 H 1085.25 -2.06848 3.61044 0
M  V30 11440 H 1084.13 -3.10506 4.52634 0
M  V30 11441 H 1084.39 -3.40819 2.81594 0
M  V30 11442 N 1083.45 -1.52049 -0.414609 0
M  V30 11443 C 1084.38 -1.7122 -1.52369 0
M  V30 11444 C 1085.39 -0.592634 -1.5163 0
M  V30 11445 O 1086.58 -0.867634 -1.55995 0
M  V30 11446 C 1083.68 -1.73247 -2.91271 0
M  V30 11447 C 1082.85 -3.02153 -3.16263 0
M  V30 11448 C 1081.91 -2.96066 -4.35007 0
M  V30 11449 O 1080.94 -3.69981 -4.32554 0
M  V30 11450 N 1082.14 -2.13478 -5.39822 0
M  V30 11451 H 1084.91 -2.66902 -1.3632 0
M  V30 11452 H 1082.47 -1.50218 -0.603842 0
M  V30 11453 H 1084.46 -1.66714 -3.68766 0
M  V30 11454 H 1083.03 -0.85062 -3.00804 0
M  V30 11455 H 1082.25 -3.22379 -2.2686 0
M  V30 11456 H 1083.54 -3.87439 -3.29801 0
M  V30 11457 H 1082.94 -1.52844 -5.44661 0
M  V30 11458 H 1081.49 -2.12805 -6.16082 0
M  V30 11459 N 1084.93 0.6715 -1.42579 0
M  V30 11460 C 1086.17 1.43366 -1.43436 0
M  V30 11461 C 1086.5 1.94131 -0.0517339 0
M  V30 11462 O 1085.78 1.71121 0.924548 0
M  V30 11463 C 1086.06 2.62832 -2.46154 0
M  V30 11464 C 1085.92 2.17677 -3.9362 0
M  V30 11465 C 1087.23 3.65049 -2.4582 0
M  V30 11466 H 1084.35 0.519967 -0.522306 0
M  V30 11467 H 1087 0.762849 -1.74013 0
M  V30 11468 H 1085.15 3.20062 -2.2021 0
M  V30 11469 H 1086.82 1.65588 -4.30556 0
M  V30 11470 H 1085.06 1.49219 -4.07328 0
M  V30 11471 H 1085.73 3.03503 -4.61075 0
M  V30 11472 H 1088.21 3.17541 -2.68899 0
M  V30 11473 H 1087.08 4.46213 -3.19664 0
M  V30 11474 H 1087.34 4.16401 -1.48536 0
M  V30 11475 N 1086.4 1.28806 0.908124 0
M  V30 11476 C 1087.33 1.15758 2.02787 0
M  V30 11477 C 1088.31 0.053911 1.70015 0
M  V30 11478 O 1089.5 0.231901 1.9281 0
M  V30 11479 C 1086.63 0.824526 3.37371 0
M  V30 11480 C 1085.58 1.88359 3.84324 0
M  V30 11481 C 1084.91 1.40404 5.15937 0
M  V30 11482 C 1086.21 3.29108 4.05568 0
M  V30 11483 H 1087.9 2.09431 2.13961 0
M  V30 11484 H 1085.45 1.00831 1.02806 0
M  V30 11485 H 1087.4 0.71999 4.15204 0
M  V30 11486 H 1086.13 -0.147902 3.26265 0
M  V30 11487 H 1084.79 1.97736 3.087 0
M  V30 11488 H 1084.43 0.420515 5.01239 0
M  V30 11489 H 1084.13 2.11224 5.48323 0
M  V30 11490 H 1085.66 1.31283 5.9632 0
M  V30 11491 H 1087.07 3.2262 4.73909 0
M  V30 11492 H 1085.47 3.97812 4.49294 0
M  V30 11493 H 1086.54 3.72709 3.10187 0
M  V30 11494 N 1087.88 -1.11734 1.11145 0
M  V30 11495 C 1089.16 -1.79795 0.770261 0
M  V30 11496 C 1089.54 -1.97624 -0.742158 0
M  V30 11497 O 1088.89 -1.55847 -1.67105 0
M  V30 11498 C 1089.1 -3.13684 1.52982 0
M  V30 11499 C 1090.44 -3.88771 1.70711 0
M  V30 11500 O 1091.47 -3.23363 1.49381 0
M  V30 11501 O 1090.33 -5.06134 2.06132 0
M  V30 11502 H 1087.42 -0.778617 0.27872 0
M  V30 11503 H 1089.97 -1.18504 1.2147 0
M  V30 11504 H 1088.74 -2.96043 2.55879 0
M  V30 11505 H 1088.36 -3.82687 1.07873 0
M  V30 11506 N 1089.36 -0.901303 -1.29284 0
M  V30 11507 C 1090.64 -0.44747 -1.90413 0
M  V30 11508 C 1091.02 1.07298 -1.81797 0
M  V30 11509 O 1090.36 1.91555 -1.24574 0
M  V30 11510 C 1090.57 -0.963849 -3.35427 0
M  V30 11511 C 1091.92 -1.00851 -4.12449 0
M  V30 11512 O 1092.95 -0.91163 -3.44337 0
M  V30 11513 O 1091.81 -1.15426 -5.34171 0
M  V30 11514 H 1088.9 -0.13976 -0.815105 0
M  V30 11515 H 1091.45 -0.991274 -1.37738 0
M  V30 11516 H 1090.22 -2.00782 -3.3586 0
M  V30 11517 H 1089.84 -0.400149 -3.95581 0
M  V30 11518 N 1090.84 1.42931 -0.663954 0
M  V30 11519 C 1092.09 2.00904 -0.179011 0
M  V30 11520 C 1092.4 1.53056 1.21791 0
M  V30 11521 O 1093.61 2.03374 1.79865 0
M  V30 11522 C 1092.06 3.58892 -0.269198 0
M  V30 11523 C 1091.67 4.15731 -1.66949 0
M  V30 11524 C 1093.41 4.24207 0.157589 0
M  V30 11525 C 1091.32 5.66047 -1.71303 0
M  V30 11526 H 1090.25 0.75135 -0.0631623 0
M  V30 11527 H 1092.9 1.6378 -0.827556 0
M  V30 11528 H 1091.28 3.93469 0.447048 0
M  V30 11529 H 1092.46 3.92634 -2.41195 0
M  V30 11530 H 1090.77 3.62826 -2.04318 0
M  V30 11531 H 1093.37 5.34503 0.145057 0
M  V30 11532 H 1093.71 3.98901 1.19095 0
M  V30 11533 H 1094.25 3.94552 -0.507274 0
M  V30 11534 H 1090.98 5.96136 -2.72584 0
M  V30 11535 H 1090.5 5.91167 -1.01398 0
M  V30 11536 H 1092.18 6.30275 -1.46158 0
M  V30 11537 N 1092.32 0.406567 1.52266 0
M  V30 11538 C 1093.23 -0.4271 2.30679 0
M  V30 11539 C 1094.24 -1.0559 1.383 0
M  V30 11540 O 1095.42 -1.05797 1.71374 0
M  V30 11541 C 1092.48 -1.53008 3.1111 0
M  V30 11542 C 1091.54 -0.924604 4.19225 0
M  V30 11543 C 1090.78 -1.97502 4.95811 0
M  V30 11544 O 1091 -3.19277 4.72671 0
M  V30 11545 O 1089.93 -1.58268 5.80719 0
M  V30 11546 H 1093.76 0.212187 3.02958 0
M  V30 11547 H 1091.34 0.169835 1.48432 0
M  V30 11548 H 1093.23 -2.17046 3.61205 0
M  V30 11549 H 1091.9 -2.15401 2.41628 0
M  V30 11550 H 1090.81 -0.247009 3.73284 0
M  V30 11551 H 1092.14 -0.34463 4.90992 0
M  V30 11552 N 1093.79 -1.57004 0.136909 0
M  V30 11553 C 1094.74 -2.16246 -0.806607 0
M  V30 11554 C 1095.71 -1.09246 -1.25118 0
M  V30 11555 O 1096.9 -1.3724 -1.32551 0
M  V30 11556 C 1094.04 -2.78031 -2.04433 0
M  V30 11557 C 1093.15 -3.99393 -1.64649 0
M  V30 11558 C 1092.28 -4.49208 -2.83524 0
M  V30 11559 C 1091.32 -5.63059 -2.40064 0
M  V30 11560 N 1090.46 -6.07537 -3.51913 0
M  V30 11561 H 1095.3 -2.9654 -0.294596 0
M  V30 11562 H 1092.84 -1.46491 -0.133705 0
M  V30 11563 H 1094.8 -3.11992 -2.76978 0
M  V30 11564 H 1093.43 -2.00398 -2.53062 0
M  V30 11565 H 1092.48 -3.71477 -0.819077 0
M  V30 11566 H 1093.79 -4.81904 -1.28723 0
M  V30 11567 H 1092.94 -4.85171 -3.64271 0
M  V30 11568 H 1091.68 -3.65683 -3.22688 0
M  V30 11569 H 1090.69 -5.26682 -1.57754 0
M  V30 11570 H 1091.91 -6.48362 -2.01997 0
M  V30 11571 H 1089.86 -5.2695 -3.90717 0
M  V30 11572 H 1089.78 -6.84949 -3.1997 0
M  V30 11573 H 1091.04 -6.48143 -4.33048 0
M  V30 11574 N 1095.27 0.136881 -1.57004 0
M  V30 11575 C 1096.51 0.853873 -1.8571 0
M  V30 11576 C 1096.88 1.77885 -0.722556 0
M  V30 11577 O 1098.08 2.53606 -0.89092 0
M  V30 11578 C 1096.35 1.59935 -3.19618 0
M  V30 11579 S 1097.91 2.36038 -3.69908 0
M  V30 11580 H 1094.73 0.285342 -0.65123 0
M  V30 11581 H 1097.33 0.113254 -1.95172 0
M  V30 11582 H 1096.03 0.91148 -4.0015 0
M  V30 11583 H 1095.56 2.38069 -3.13188 0
M  V30 11584 H 1097.58 3.61425 -3.3998 0
M  V30 11585 N 1096.75 1.52266 0.40654 0
M  V30 11586 C 1097.68 1.78755 1.50229 0
M  V30 11587 C 1098.66 0.638652 1.57655 0
M  V30 11588 O 1099.85 0.884505 1.72888 0
M  V30 11589 C 1096.98 1.94057 2.88026 0
M  V30 11590 C 1095.93 3.09667 2.95449 0
M  V30 11591 C 1095.26 3.10196 4.35526 0
M  V30 11592 C 1096.56 4.49077 2.66697 0
M  V30 11593 H 1098.25 2.70511 1.28313 0
M  V30 11594 H 1095.8 1.30167 0.615836 0
M  V30 11595 H 1097.75 2.11171 3.64671 0
M  V30 11596 H 1096.47 0.989755 3.11242 0
M  V30 11597 H 1095.13 2.92308 2.2125 0
M  V30 11598 H 1094.78 2.12831 4.55754 0
M  V30 11599 H 1094.48 3.87847 4.41416 0
M  V30 11600 H 1096 3.29443 5.14101 0
M  V30 11601 H 1097.42 4.66628 3.33064 0
M  V30 11602 H 1095.82 5.28665 2.8396 0
M  V30 11603 H 1096.89 4.56995 1.62122 0
M  V30 11604 N 1098.23 -0.663929 1.42933 0
M  V30 11605 C 1099.14 -1.80643 1.49683 0
M  V30 11606 C 1100.15 -1.69694 0.38472 0
M  V30 11607 O 1101.33 -1.91052 0.637256 0
M  V30 11608 C 1098.4 -3.16858 1.4072 0
M  V30 11609 C 1097.46 -3.39684 2.62514 0
M  V30 11610 C 1096.69 -4.69399 2.53969 0
M  V30 11611 O 1096.91 -5.48037 1.58152 0
M  V30 11612 O 1095.85 -4.93709 3.44289 0
M  V30 11613 H 1099.67 -1.77903 2.46138 0
M  V30 11614 H 1097.26 -0.821059 1.24816 0
M  V30 11615 H 1099.14 -3.9812 1.38124 0
M  V30 11616 H 1097.81 -3.20211 0.473954 0
M  V30 11617 H 1096.72 -2.58227 2.70684 0
M  V30 11618 H 1098.05 -3.41169 3.54774 0
M  V30 11619 N 1099.71 -1.29285 -0.901281 0
M  V30 11620 C 1100.65 -1.1428 -2.00521 0
M  V30 11621 C 1101.62 -0.0365428 -1.6606 0
M  V30 11622 O 1102.81 -0.203771 -1.89709 0
M  V30 11623 C 1099.95 -0.823671 -3.35126 0
M  V30 11624 C 1099.06 -2.01021 -3.8238 0
M  V30 11625 C 1098.2 -1.6306 -5.05554 0
M  V30 11626 C 1097.24 -2.78304 -5.45173 0
M  V30 11627 N 1096.37 -2.4075 -6.59533 0
M  V30 11628 H 1101.21 -2.08729 -2.12688 0
M  V30 11629 H 1098.75 -1.0387 -1.04161 0
M  V30 11630 H 1100.71 -0.61934 -4.12577 0
M  V30 11631 H 1099.34 0.0839113 -3.22691 0
M  V30 11632 H 1098.39 -2.32629 -3.00978 0
M  V30 11633 H 1099.7 -2.8738 -4.07694 0
M  V30 11634 H 1098.86 -1.38906 -5.90584 0
M  V30 11635 H 1097.59 -0.738464 -4.82077 0
M  V30 11636 H 1096.6 -3.03142 -4.58678 0
M  V30 11637 H 1097.82 -3.68179 -5.70632 0
M  V30 11638 H 1095.77 -1.54022 -6.37662 0
M  V30 11639 H 1095.69 -3.20643 -6.84634 0
M  V30 11640 H 1096.96 -2.19912 -7.47836 0
M  V30 11641 N 1101.18 1.11143 -1.11736 0
M  V30 11642 C 1102.13 2.17274 -0.778513 0
M  V30 11643 C 1103.1 1.64186 0.251405 0
M  V30 11644 O 1104.29 1.90373 0.127629 0
M  V30 11645 C 1101.43 3.44324 -0.231246 0
M  V30 11646 C 1100.54 4.114 -1.31809 0
M  V30 11647 C 1099.67 5.26146 -0.73104 0
M  V30 11648 C 1098.71 5.85112 -1.79752 0
M  V30 11649 N 1097.85 6.91247 -1.22973 0
M  V30 11650 H 1102.69 2.45603 -1.68769 0
M  V30 11651 H 1100.23 1.20565 -0.842759 0
M  V30 11652 H 1102.19 4.1707 0.104045 0
M  V30 11653 H 1100.82 3.16369 0.641119 0
M  V30 11654 H 1099.87 3.36697 -1.77029 0
M  V30 11655 H 1101.18 4.51278 -2.12485 0
M  V30 11656 H 1100.33 6.05713 -0.345987 0
M  V30 11657 H 1099.07 4.87583 0.107 0
M  V30 11658 H 1098.08 5.0422 -2.19185 0
M  V30 11659 H 1099.3 6.25741 -2.63865 0
M  V30 11660 H 1097.25 6.54696 -0.41339 0
M  V30 11661 H 1097.17 7.29796 -1.97316 0
M  V30 11662 H 1098.43 7.74611 -0.87167 0
M  V30 11663 N 1102.66 0.908147 1.28804 0
M  V30 11664 C 1103.59 0.34957 2.26519 0
M  V30 11665 C 1104.61 -0.508845 1.54643 0
M  V30 11666 O 1105.8 -0.324633 1.75523 0
M  V30 11667 C 1102.9 -0.519461 3.34895 0
M  V30 11668 C 1102.07 0.315157 4.36263 0
M  V30 11669 C 1101.13 -0.488059 5.23932 0
M  V30 11670 O 1100.15 0.0974133 5.69117 0
M  V30 11671 N 1101.36 -1.79233 5.52137 0
M  V30 11672 H 1104.12 1.18945 2.75086 0
M  V30 11673 H 1101.68 0.77351 1.42227 0
M  V30 11674 H 1103.67 -1.0634 3.90479 0
M  V30 11675 H 1102.24 -1.26004 2.8608 0
M  V30 11676 H 1101.46 1.04049 3.8022 0
M  V30 11677 H 1102.75 0.886438 5.01019 0
M  V30 11678 H 1102.15 -2.2906 5.1725 0
M  V30 11679 H 1100.71 -2.28322 6.10502 0
M  V30 11680 N 1104.14 -1.42577 0.671525 0
M  V30 11681 C 1105.07 -2.2915 -0.0477361 0
M  V30 11682 C 1106.09 -1.43503 -0.768805 0
M  V30 11683 O 1107.27 -1.67256 -0.623509 0
M  V30 11684 C 1104.37 -3.20851 -1.09122 0
M  V30 11685 C 1103.55 -4.35134 -0.44463 0
M  V30 11686 C 1102.61 -5.07579 -1.38745 0
M  V30 11687 O 1101.63 -5.62215 -0.889015 0
M  V30 11688 N 1102.83 -5.12786 -2.72086 0
M  V30 11689 H 1105.6 -2.9152 0.695415 0
M  V30 11690 H 1103.16 -1.53467 0.515689 0
M  V30 11691 H 1105.15 -3.66183 -1.72315 0
M  V30 11692 H 1103.72 -2.59956 -1.73614 0
M  V30 11693 H 1102.94 -3.9249 0.36675 0
M  V30 11694 H 1104.23 -5.088 0.00595927 0
M  V30 11695 H 1103.63 -4.69802 -3.15123 0
M  V30 11696 H 1102.19 -5.61774 -3.30535 0
M  V30 11697 N 1105.62 -0.414636 -1.52048 0
M  V30 11698 C 1106.84 0.161137 -2.06773 0
M  V30 11699 C 1107.27 1.37628 -1.2822 0
M  V30 11700 O 1106.63 1.78562 -0.313915 0
M  V30 11701 C 1106.67 0.48452 -3.5733 0
M  V30 11702 O 1105.78 1.57466 -3.81154 0
M  V30 11703 H 1105.12 0.0118003 -0.663895 0
M  V30 11704 H 1107.65 -0.589424 -1.95926 0
M  V30 11705 H 1107.66 0.741567 -4.01204 0
M  V30 11706 H 1106.33 -0.403733 -4.13936 0
M  V30 11707 H 1104.91 1.30935 -3.49157 0
M  V30 11708 N 1107.1 1.56929 -0.145233 0
M  V30 11709 C 1108.34 1.96358 0.50707 0
M  V30 11710 C 1108.68 1.03005 1.64632 0
M  V30 11711 O 1107.95 0.0721045 1.94366 0
M  V30 11712 C 1108.23 3.45502 1.01492 0
M  V30 11713 C 1108.09 4.49633 -0.122708 0
M  V30 11714 C 1109.41 3.97103 1.89729 0
M  V30 11715 H 1106.52 0.713958 0.182848 0
M  V30 11716 H 1109.17 1.8865 -0.226102 0
M  V30 11717 H 1107.32 3.52202 1.6397 0
M  V30 11718 H 1108.99 4.55013 -0.758988 0
M  V30 11719 H 1107.23 4.26691 -0.782109 0
M  V30 11720 H 1107.9 5.51318 0.27432 0
M  V30 11721 H 1110.38 3.92871 1.37082 0
M  V30 11722 H 1109.25 5.01927 2.22173 0
M  V30 11723 H 1109.52 3.39354 2.83357 0
M  V30 11724 O 1108.61 0.00658954 1.61499 0
M  V30 11725 H 1109.3 -0.609168 1.83872 0
M  V30 END ATOM
M  V30 BEGIN BOND
M  V30 END BOND
M  V30 END CTAB
M  END
$$$$
