drugbank_target|P22061 Protein-L-isoaspartate(D-aspartate) O-methyltransferase (DB01752)
 OpenBabel12092119483D

  0  0  0     0  0            999 V3000
M  V30 BEGIN CTAB
M  V30 COUNTS 3467 3503 0 0 0
M  V30 BEGIN ATOM
M  V30 1 H -0.908 1.98254 -0.117106 0
M  V30 2 N 0 1.576 0 0
M  V30 3 C 0.933 2.03868 1.02534 0
M  V30 4 C 1.911 0.928543 1.3348 0
M  V30 5 O 3.095 1.19667 1.45644 0
M  V30 6 C 0.222 2.43627 2.35294 0
M  V30 7 C -0.732 3.65373 2.2001 0
M  V30 8 S 0.101 5.13292 1.52614 0
M  V30 9 C 1.257 5.56322 2.86805 0
M  V30 10 H 1.49 2.90518 0.631377 0
M  V30 11 H -0.977 1.52953 0.210867 0
M  V30 12 H 0.981 2.67203 3.11629 0
M  V30 13 H -0.358 1.57376 2.7183 0
M  V30 14 H -1.165 3.90944 3.18086 0
M  V30 15 H -1.563 3.418 1.51819 0
M  V30 16 H 0.729 5.58782 3.83104 0
M  V30 17 H 1.672 6.56266 2.65933 0
M  V30 18 H 2.08 4.83886 2.90714 0
M  V30 19 N 1.4781 -0.272755 1.55222 0
M  V30 20 C 2.4411 -1.32041 1.87344 0
M  V30 21 C 3.4411 -1.42342 0.74803 0
M  V30 22 O 4.6311 -1.41488 1.0162 0
M  V30 23 C 1.7631 -2.70173 2.07893 0
M  V30 24 H 2.9561 -1.04789 2.80997 0
M  V30 25 H 0.5091 -0.51083 1.47717 0
M  V30 26 H 1.2441 -3.02605 1.16622 0
M  V30 27 H 1.0291 -2.64082 2.89833 0
M  V30 28 H 2.5191 -3.45869 2.34017 0
M  V30 29 N 2.9562 -1.48159 -0.537278 0
M  V30 30 C 4.2022 -1.57015 -1.29297 0
M  V30 31 C 4.5572 -0.237791 -1.90925 0
M  V30 32 O 3.8502 0.758621 -1.75942 0
M  V30 33 C 4.0442 -2.63956 -2.40961 0
M  V30 34 C 3.8732 -4.07461 -1.90278 0
M  V30 35 C 2.6432 -4.74685 -1.73213 0
M  V30 36 C 4.8412 -4.93858 -1.43556 0
M  V30 37 N 2.8232 -6.02633 -1.17078 0
M  V30 38 C 4.1942 -6.11993 -0.993204 0
M  V30 39 C 6.2492 -4.80141 -1.31792 0
M  V30 40 C 4.9522 -7.17923 -0.444872 0
M  V30 41 C 6.9782 -5.86186 -0.783585 0
M  V30 42 C 6.3402 -7.03524 -0.351261 0
M  V30 43 H 2.4392 -0.629154 -0.464423 0
M  V30 44 H 5.0232 -1.85006 -0.606705 0
M  V30 45 H 3.1942 -2.378 -3.07093 0
M  V30 46 H 4.9262 -2.62539 -3.07986 0
M  V30 47 H 1.6812 -4.30902 -1.9652 0
M  V30 48 H 2.1052 -6.7085 -0.910421 0
M  V30 49 H 6.7472 -3.89772 -1.63823 0
M  V30 50 H 4.4652 -8.08022 -0.11222 0
M  V30 51 H 8.0512 -5.77624 -0.695835 0
M  V30 52 H 6.9312 -7.8418 0.055777 0
M  V30 53 N 4.4343 0.785586 -1.36625 0
M  V30 54 C 5.3813 1.89838 -1.31264 0
M  V30 55 C 6.3513 1.65115 -0.180633 0
M  V30 56 O 7.5363 1.87222 -0.36777 0
M  V30 57 C 4.6763 3.26706 -1.11163 0
M  V30 58 C 3.7893 3.63476 -2.33472 0
M  V30 59 C 2.9243 4.89481 -2.06353 0
M  V30 60 C 1.9633 5.18941 -3.24602 0
M  V30 61 N 1.1003 6.36131 -2.97123 0
M  V30 62 H 5.9403 1.93756 -2.26413 0
M  V30 63 H 3.4773 0.947454 -1.12524 0
M  V30 64 H 5.4353 4.05639 -0.975337 0
M  V30 65 H 4.0653 3.222 -0.196674 0
M  V30 66 H 3.1173 2.79636 -2.57891 0
M  V30 67 H 4.4293 3.81193 -3.21704 0
M  V30 68 H 3.5833 5.76288 -1.89675 0
M  V30 69 H 2.3223 4.73841 -1.15437 0
M  V30 70 H 1.3273 4.30615 -3.41834 0
M  V30 71 H 2.5523 5.36498 -4.16349 0
M  V30 72 H 0.4983 6.21875 -2.08823 0
M  V30 73 H 0.4153 6.54198 -3.78894 0
M  V30 74 H 1.6833 7.2591 -2.84033 0
M  V30 75 N 5.9124 1.20967 1.01018 0
M  V30 76 C 7.1374 1.0503 1.78839 0
M  V30 77 C 7.5624 -0.395752 1.8389 0
M  V30 78 O 6.9204 -1.28529 1.27867 0
M  V30 79 C 6.9684 1.64602 3.2084 0
M  V30 80 O 6.0724 0.887988 4.02726 0
M  V30 81 H 5.4134 0.369987 0.551367 0
M  V30 82 H 7.9434 1.60399 1.27018 0
M  V30 83 H 7.9534 1.68607 3.71532 0
M  V30 84 H 6.6284 2.69841 3.16479 0
M  V30 85 H 5.2054 0.922648 3.61305 0
M  V30 86 N 7.3905 -1.2043 1.01659 0
M  V30 87 C 8.6385 -1.89423 0.704522 0
M  V30 88 C 8.9595 -1.79231 -0.768197 0
M  V30 89 O 8.2295 -1.1947 -1.55254 0
M  V30 90 H 6.8095 -0.701178 0.257602 0
M  V30 91 H 9.4715 -1.4626 1.28818 0
M  V30 92 H 8.5675 -2.96052 0.987916 0
M  V30 93 N 8.8686 -0.792821 -1.36206 0
M  V30 94 C 10.1166 -0.366062 -1.98757 0
M  V30 95 C 10.4376 1.0668 -1.63231 0
M  V30 96 O 9.7076 1.73587 -0.907978 0
M  V30 97 H 8.2876 -0.132364 -0.735179 0
M  V30 98 H 10.9496 -1.01562 -1.66347 0
M  V30 99 H 10.0456 -0.460638 -3.08682 0
M  V30 100 N 10.3467 1.47872 -0.545128 0
M  V30 101 C 11.3097 2.28337 0.198717 0
M  V30 102 C 12.3097 1.36255 0.853888 0
M  V30 103 O 13.4997 1.59003 0.711606 0
M  V30 104 C 10.6317 3.15585 1.28915 0
M  V30 105 H 11.8247 2.95567 -0.507941 0
M  V30 106 H 9.3777 1.53362 -0.301616 0
M  V30 107 H 10.1127 2.53019 2.02859 0
M  V30 108 H 9.8977 3.83337 0.824309 0
M  V30 109 H 11.3877 3.76243 1.81194 0
M  V30 110 N 11.8248 0.280983 1.55075 0
M  V30 111 C 13.0498 -0.340154 2.04592 0
M  V30 112 C 13.4748 -1.48246 1.15779 0
M  V30 113 O 12.8328 -1.80614 0.15761 0
M  V30 114 C 12.8808 -0.793104 3.5177 0
M  V30 115 O 11.9848 -1.89981 3.66034 0
M  V30 116 H 11.3258 -0.0694289 0.66036 0
M  V30 117 H 13.8558 0.416993 2.00306 0
M  V30 118 H 13.8658 -1.08729 3.93245 0
M  V30 119 H 12.5408 0.0426163 4.15878 0
M  V30 120 H 11.1178 -1.60771 3.36463 0
M  V30 121 N 13.3029 -1.57598 0.00835791 0
M  V30 122 C 14.2529 -2.05431 -0.989045 0
M  V30 123 C 15.2369 -0.950662 -1.29812 0
M  V30 124 O 16.4289 -1.21438 -1.28771 0
M  V30 125 C 13.5579 -2.56801 -2.27833 0
M  V30 126 C 12.6439 -3.74058 -1.99853 0
M  V30 127 N 13.0349 -4.8544 -1.42062 0
M  V30 128 C 11.3329 -3.82148 -2.29953 0
M  V30 129 C 12.0339 -5.66817 -1.30743 0
M  V30 130 N 11.0099 -5.13077 -1.7959 0
M  V30 131 H 14.8119 -2.88955 -0.536853 0
M  V30 132 H 12.3259 -1.61199 -0.197148 0
M  V30 133 H 14.3229 -2.89349 -3.00137 0
M  V30 134 H 12.9829 -1.74699 -2.73698 0
M  V30 135 H 13.9939 -5.0612 -1.09833 0
M  V30 136 H 10.6709 -3.10916 -2.78635 0
M  V30 137 H 12.0609 -6.66343 -0.862328 0
M  V30 138 N 14.781 0.264519 -1.55364 0
M  V30 139 C 16.006 1.01726 -1.80739 0
M  V30 140 C 16.431 1.78836 -0.583044 0
M  V30 141 O 15.789 1.75167 0.467566 0
M  V30 142 C 15.837 1.94482 -3.03659 0
M  V30 143 O 14.941 3.03386 -2.7934 0
M  V30 144 H 14.282 0.290395 -0.597132 0
M  V30 145 H 16.812 0.290854 -2.02522 0
M  V30 146 H 16.822 2.36278 -3.32621 0
M  V30 147 H 15.497 1.37772 -3.92418 0
M  V30 148 H 14.074 2.65844 -2.61498 0
M  V30 149 N 16.2591 1.48442 0.529413 0
M  V30 150 C 17.1691 1.6569 1.66084 0
M  V30 151 C 18.1851 0.539432 1.65427 0
M  V30 152 O 19.3611 0.810572 1.84368 0
M  V30 153 C 16.4261 1.69315 3.02545 0
M  V30 154 C 15.4871 2.92694 3.14052 0
M  V30 155 C 14.7201 2.96137 4.44003 0
M  V30 156 O 14.9431 2.07973 5.31134 0
M  V30 157 O 13.8771 3.88312 4.59888 0
M  V30 158 H 17.7031 2.61483 1.54469 0
M  V30 159 H 15.2881 1.3185 0.702567 0
M  V30 160 H 17.1701 1.74217 3.83701 0
M  V30 161 H 15.8451 0.766966 3.14483 0
M  V30 162 H 14.7521 2.93324 2.32189 0
M  V30 163 H 16.0851 3.84699 3.0703 0
M  V30 164 N 17.7372 -0.778329 1.37039 0
M  V30 165 C 18.6672 -1.90546 1.34962 0
M  V30 166 C 19.6482 -1.68681 0.219274 0
M  V30 167 O 20.8332 -1.89634 0.418624 0
M  V30 168 C 17.9632 -3.27734 1.14925 0
M  V30 169 C 16.9172 -3.64147 2.24902 0
M  V30 170 C 16.2432 -4.99806 1.89996 0
M  V30 171 C 17.5432 -3.71579 3.67051 0
M  V30 172 H 19.2372 -1.92541 2.29277 0
M  V30 173 H 16.7832 -0.924948 1.10366 0
M  V30 174 H 18.7362 -4.06215 1.12104 0
M  V30 175 H 17.4602 -3.26154 0.170631 0
M  V30 176 H 16.1192 -2.8797 2.26868 0
M  V30 177 H 15.7672 -4.94759 0.906796 0
M  V30 178 H 15.4672 -5.25139 2.63634 0
M  V30 179 H 16.9912 -5.80694 1.88749 0
M  V30 180 H 18.4052 -4.40227 3.67251 0
M  V30 181 H 16.8022 -4.08405 4.39688 0
M  V30 182 H 17.8722 -2.72404 4.01154 0
M  V30 183 N 19.2153 -1.21501 -1.00376 0
M  V30 184 C 20.4643 -1.02718 -1.73586 0
M  V30 185 C 20.7773 0.439589 -1.90596 0
M  V30 186 O 21.9833 0.746848 -2.61026 0
M  V30 187 C 20.4393 -1.78929 -3.1227 0
M  V30 188 C 20.0473 -3.29783 -3.03228 0
M  V30 189 C 21.7913 -1.68557 -3.89601 0
M  V30 190 C 19.6983 -3.98479 -4.36999 0
M  V30 191 H 18.6283 -0.380733 -0.650814 0
M  V30 192 H 21.2793 -1.45248 -1.1214 0
M  V30 193 H 19.6613 -1.29192 -3.74333 0
M  V30 194 H 20.8353 -3.86832 -2.50395 0
M  V30 195 H 19.1503 -3.40711 -2.39385 0
M  V30 196 H 21.7473 -2.17211 -4.88593 0
M  V30 197 H 22.0903 -0.644021 -4.11288 0
M  V30 198 H 22.6233 -2.15778 -3.34193 0
M  V30 199 H 19.3623 -5.02841 -4.20513 0
M  V30 200 H 18.8823 -3.46219 -4.89788 0
M  V30 201 H 20.5613 -4.03462 -5.05794 0
M  V30 202 N 20.6934 1.19889 -1.02296 0
M  V30 203 C 21.6434 2.20777 -0.56934 0
M  V30 204 C 22.6274 1.56379 0.378741 0
M  V30 205 O 23.8194 1.75859 0.200673 0
M  V30 206 C 20.9484 3.43196 0.0845077 0
M  V30 207 C 20.0344 4.14749 -0.88566 0
M  V30 208 N 20.4254 4.62584 -2.04573 0
M  V30 209 C 18.7234 4.40347 -0.707835 0
M  V30 210 C 19.4244 5.17466 -2.65714 0
M  V30 211 N 18.4004 5.0791 -1.93723 0
M  V30 212 H 22.2024 2.55434 -1.45365 0
M  V30 213 H 19.7164 1.35897 -0.88915 0
M  V30 214 H 21.7134 4.14707 0.427067 0
M  V30 215 H 20.3734 3.10042 0.964574 0
M  V30 216 H 21.3844 4.57597 -2.4254 0
M  V30 217 H 18.0614 4.17317 0.12364 0
M  V30 218 H 19.4514 5.64808 -3.63925 0
M  V30 219 N 22.1715 0.800033 1.35784 0
M  V30 220 C 23.1195 0.193851 2.31791 0
M  V30 221 C 24.1135 -0.652744 1.56319 0
M  V30 222 O 25.3195 -0.546641 1.71499 0
M  V30 223 H 21.6945 0.04392 0.750716 0
M  V30 224 H 23.6655 1.01883 2.80468 0
M  V30 225 C 22.4145 -0.648338 3.41602 0
M  V30 226 H 21.7375 -0.00624665 3.998 0
M  V30 227 H 23.1775 -1.03898 4.11073 0
M  V30 228 C 21.6365 -1.8111 2.84079 0
M  V30 229 O 22.1665 -2.90825 2.77099 0
M  V30 230 N 20.3725 -1.62056 2.41218 0
M  V30 231 H 19.9195 -0.728123 2.47095 0
M  V30 232 H 19.8775 -2.40013 2.03079 0
M  V30 233 N 23.6496 -1.47581 0.552962 0
M  V30 234 C 24.5796 -2.32762 -0.185451 0
M  V30 235 C 25.5606 -1.43527 -0.912905 0
M  V30 236 O 26.7456 -1.72388 -0.894201 0
M  V30 237 C 23.8756 -3.25219 -1.21859 0
M  V30 238 C 22.8296 -4.23661 -0.607864 0
M  V30 239 C 22.1556 -5.05413 -1.74533 0
M  V30 240 C 23.4556 -5.20481 0.435582 0
M  V30 241 H 25.1496 -2.94749 0.525684 0
M  V30 242 H 22.6956 -1.41738 0.254251 0
M  V30 243 H 24.6486 -3.8365 -1.7433 0
M  V30 244 H 23.3726 -2.61279 -1.95961 0
M  V30 245 H 22.0316 -3.66451 -0.104489 0
M  V30 246 H 21.6796 -4.3788 -2.47529 0
M  V30 247 H 21.3796 -5.72059 -1.34249 0
M  V30 248 H 22.9036 -5.66701 -2.27338 0
M  V30 249 H 24.3176 -5.733 -0.00290157 0
M  V30 250 H 22.7146 -5.95305 0.757067 0
M  V30 251 H 23.7846 -4.66217 1.33303 0
M  V30 252 N 25.1277 -0.289203 -1.54924 0
M  V30 253 C 26.5437 0.0645403 -1.59469 0
M  V30 254 C 26.7437 1.53419 -1.30632 0
M  V30 255 O 25.7997 2.2852 -1.074 0
M  V30 256 C 27.1127 -0.32278 -2.98963 0
M  V30 257 C 28.6607 -0.270564 -3.11828 0
M  V30 258 C 29.1357 -0.632532 -4.53611 0
M  V30 259 N 30.6267 -0.584617 -4.59496 0
M  V30 260 C 31.3617 -0.837314 -5.67254 0
M  V30 261 N 30.8577 -1.15536 -6.83098 0
M  V30 262 N 32.6507 -0.765166 -5.56868 0
M  V30 263 H 24.8017 -1.24714 -1.71931 0
M  V30 264 H 27.0647 -0.504809 -0.802416 0
M  V30 265 H 26.7707 -1.34541 -3.24948 0
M  V30 266 H 26.6447 0.32944 -3.75759 0
M  V30 267 H 29.0317 0.742805 -2.85598 0
M  V30 268 H 29.1127 -0.957242 -2.37214 0
M  V30 269 H 28.7567 -1.64365 -4.80569 0
M  V30 270 H 28.6867 0.07609 -5.26545 0
M  V30 271 H 31.1777 -0.349248 -3.76283 0
M  V30 272 H 31.4907 -1.33447 -7.61191 0
M  V30 273 H 29.8357 -1.19328 -6.84679 0
M  V30 274 H 33.0267 -0.516432 -4.65243 0
M  V30 275 H 33.1997 -0.965477 -6.40767 0
M  V30 276 N 26.6058 1.57591 -0.0167156 0
M  V30 277 C 27.5528 2.09462 0.969251 0
M  V30 278 C 28.5228 0.99381 1.33089 0
M  V30 279 O 29.7078 1.26726 1.42636 0
M  V30 280 C 26.8478 2.61622 2.25051 0
M  V30 281 C 25.9608 3.85666 1.94642 0
M  V30 282 C 25.0958 4.26266 3.16972 0
M  V30 283 C 24.1348 5.43101 2.82326 0
M  V30 284 N 23.2718 5.78915 3.97243 0
M  V30 285 H 28.1118 2.93428 0.519997 0
M  V30 286 H 25.6488 1.45044 0.245087 0
M  V30 287 H 27.6068 2.89949 2.99976 0
M  V30 288 H 26.2368 1.80505 2.67615 0
M  V30 289 H 25.2888 3.64145 1.10013 0
M  V30 290 H 26.6008 4.70678 1.65117 0
M  V30 291 H 25.7548 4.55963 4.00228 0
M  V30 292 H 24.4938 3.39996 3.49648 0
M  V30 293 H 23.4988 5.1311 1.97479 0
M  V30 294 H 24.7238 6.3106 2.50879 0
M  V30 295 H 22.6698 4.95602 4.29785 0
M  V30 296 H 22.5868 6.58539 3.71299 0
M  V30 297 H 23.8548 6.13212 4.81239 0
M  V30 298 N 28.0839 -0.256276 1.55502 0
M  V30 299 C 29.0319 -1.33694 1.90338 0
M  V30 300 C 30.0259 -1.50299 0.781441 0
M  V30 301 O 31.2319 -1.51885 0.965966 0
M  V30 302 H 27.6069 -0.447483 0.60437 0
M  V30 303 H 29.5779 -1.01574 2.8058 0
M  V30 304 C 28.3269 -2.68724 2.20642 0
M  V30 305 H 27.6499 -2.56743 3.06469 0
M  V30 306 H 29.0899 -3.43237 2.48926 0
M  V30 307 C 27.5489 -3.21101 1.01959 0
M  V30 308 O 28.0789 -4.0084 0.262762 0
M  V30 309 N 26.2849 -2.79003 0.812746 0
M  V30 310 H 25.8319 -2.14271 1.42989 0
M  V30 311 H 25.7899 -3.14393 0.0203076 0
M  V30 312 N 29.562 -1.4872 -0.521534 0
M  V30 313 C 30.81 -1.56857 -1.27437 0
M  V30 314 C 31.131 -0.247982 -1.93417 0
M  V30 315 O 30.401 0.731151 -1.81744 0
M  V30 316 H 28.981 -0.577885 -0.473347 0
M  V30 317 H 31.643 -1.85233 -0.606205 0
M  V30 318 H 30.739 -2.35402 -2.0492 0
M  V30 319 N 31.0401 0.771051 -1.3745 0
M  V30 320 C 32.2891 1.52491 -1.3202 0
M  V30 321 C 32.6021 1.9538 0.0927347 0
M  V30 322 O 33.8081 2.70159 0.269503 0
M  V30 323 C 32.2641 2.75366 -2.31736 0
M  V30 324 C 31.8721 2.39573 -3.78562 0
M  V30 325 C 33.6161 3.53307 -2.35318 0
M  V30 326 C 31.5231 3.58954 -4.70007 0
M  V30 327 H 30.4531 0.572506 -0.490666 0
M  V30 328 H 33.1041 0.844474 -1.62914 0
M  V30 329 H 31.4861 3.45303 -1.93861 0
M  V30 330 H 32.6601 1.77415 -4.25277 0
M  V30 331 H 30.9751 1.74805 -3.77932 0
M  V30 332 H 33.5721 4.42039 -3.00842 0
M  V30 333 H 33.9151 3.93217 -1.36698 0
M  V30 334 H 34.4481 2.90367 -2.71904 0
M  V30 335 H 31.1871 3.24125 -5.69757 0
M  V30 336 H 30.7071 4.20214 -4.27996 0
M  V30 337 H 32.3861 4.25758 -4.87175 0
M  V30 338 N 32.5182 1.22032 0.997298 0
M  V30 339 C 33.7672 1.03637 1.73038 0
M  V30 340 C 34.0802 -0.429475 1.90827 0
M  V30 341 O 35.2862 -0.732995 2.61418 0
M  V30 342 C 33.7422 1.80582 3.11317 0
M  V30 343 C 33.3502 3.31387 3.01474 0
M  V30 344 C 35.0942 1.70621 3.88701 0
M  V30 345 C 33.0012 4.00791 4.3488 0
M  V30 346 H 31.9312 0.384179 0.648785 0
M  V30 347 H 34.5822 1.4584 1.11368 0
M  V30 348 H 32.9642 1.31175 3.73643 0
M  V30 349 H 34.1382 3.88155 2.4834 0
M  V30 350 H 32.4532 3.41976 2.37575 0
M  V30 351 H 35.0502 2.19799 4.87434 0
M  V30 352 H 35.3932 0.665823 4.10941 0
M  V30 353 H 35.9262 2.17547 3.33044 0
M  V30 354 H 32.6652 5.05064 4.1784 0
M  V30 355 H 32.1852 3.48811 4.87945 0
M  V30 356 H 33.8642 4.06139 5.03647 0
M  V30 357 N 33.9963 -1.19345 1.0293 0
M  V30 358 C 34.9433 -2.2258 0.610464 0
M  V30 359 C 35.9133 -1.6179 -0.375946 0
M  V30 360 O 37.0983 -1.88844 -0.272511 0
M  V30 361 C 34.2383 -3.45085 -0.0321473 0
M  V30 362 C 33.3513 -4.20258 1.00035 0
M  V30 363 C 32.4863 -5.3019 0.32746 0
M  V30 364 C 31.5253 -5.97121 1.34584 0
M  V30 365 N 30.6623 -6.98615 0.698726 0
M  V30 366 H 35.5023 -2.57764 1.49538 0
M  V30 367 H 33.0393 -1.26644 0.748311 0
M  V30 368 H 34.9973 -4.15061 -0.421966 0
M  V30 369 H 33.6273 -3.10555 -0.88064 0
M  V30 370 H 32.6793 -3.49223 1.50823 0
M  V30 371 H 33.9913 -4.66175 1.77433 0
M  V30 372 H 33.1453 -6.06587 -0.11718 0
M  V30 373 H 31.8843 -4.85345 -0.478713 0
M  V30 374 H 30.8893 -5.19474 1.80074 0
M  V30 375 H 32.1143 -6.4405 2.15352 0
M  V30 376 H 30.0603 -6.55942 -0.0873471 0
M  V30 377 H 29.9773 -7.42724 1.41058 0
M  V30 378 H 31.2453 -7.79004 0.278102 0
M  V30 379 N 35.4744 -0.807222 -1.35358 0
M  V30 380 C 36.7024 -0.400377 -2.02989 0
M  V30 381 C 37.1174 0.988859 -1.60832 0
M  V30 382 O 36.4744 1.63729 -0.806175 0
M  V30 383 C 36.5254 -0.474867 -3.58368 0
M  V30 384 O 36.2464 -1.80933 -3.98992 0
M  V30 385 C 37.7474 -0.0609112 -4.43258 0
M  V30 386 H 34.9674 -0.162587 -0.651004 0
M  V30 387 H 37.5114 -1.09102 -1.72965 0
M  V30 388 H 35.6664 0.167534 -3.87038 0
M  V30 389 H 36.0804 -1.77256 -4.9364 0
M  V30 390 H 37.5544 -0.164145 -5.51756 0
M  V30 391 H 38.0314 0.993831 -4.27808 0
M  V30 392 H 38.6374 -0.676492 -4.19885 0
M  V30 393 N 36.9525 1.47285 -0.560781 0
M  V30 394 C 38.2295 1.9558 0.0277798 0
M  V30 395 C 38.6095 1.5034 1.48192 0
M  V30 396 O 37.9575 0.743882 2.16052 0
M  V30 397 C 38.1675 3.48789 -0.121418 0
M  V30 398 C 39.5155 4.24594 0.0220912 0
M  V30 399 O 40.5395 3.56166 -0.0491439 0
M  V30 400 O 39.3985 5.46217 0.175958 0
M  V30 401 H 36.4925 0.824663 0.0621342 0
M  V30 402 H 39.0385 1.5767 -0.627556 0
M  V30 403 H 37.8105 3.74533 -1.13316 0
M  V30 404 H 37.4335 3.93473 0.571366 0
M  V30 405 N 38.4306 0.297415 1.54768 0
M  V30 406 C 39.3776 -0.580276 2.23386 0
M  V30 407 C 40.3476 -1.13238 1.21517 0
M  V30 408 O 41.5326 -1.17757 1.50126 0
M  V30 409 C 38.6726 -1.74801 2.97555 0
M  V30 410 C 37.7856 -1.22764 4.1419 0
M  V30 411 C 36.9206 -2.35895 4.75949 0
M  V30 412 C 35.9596 -1.80974 5.84735 0
M  V30 413 N 35.0966 -2.87664 6.40464 0
M  V30 414 H 39.9366 0.0114833 2.97998 0
M  V30 415 H 37.4736 0.0174361 1.4709 0
M  V30 416 H 39.4316 -2.43475 3.38786 0
M  V30 417 H 38.0616 -2.31145 2.25326 0
M  V30 418 H 37.1136 -0.433271 3.77924 0
M  V30 419 H 38.4256 -0.785551 4.92575 0
M  V30 420 H 37.5796 -3.12523 5.20014 0
M  V30 421 H 36.3186 -2.83429 3.96887 0
M  V30 422 H 35.3236 -1.02834 5.40097 0
M  V30 423 H 36.5486 -1.34348 6.65678 0
M  V30 424 H 34.4946 -3.34538 5.64287 0
M  V30 425 H 34.4116 -2.4794 7.14186 0
M  V30 426 H 35.6796 -3.642 6.89187 0
M  V30 427 N 39.9087 -1.5758 0.0250728 0
M  V30 428 C 41.1547 -1.91917 -0.655413 0
M  V30 429 C 41.4877 -0.901433 -1.72011 0
M  V30 430 O 40.7627 0.0764069 -1.9435 0
M  V30 431 C 41.0457 -3.36751 -1.27558 0
M  V30 432 C 40.8987 -4.49258 -0.220719 0
M  V30 433 C 42.2177 -3.81469 -2.19475 0
M  V30 434 H 39.3367 -0.697925 -0.23679 0
M  V30 435 H 41.9787 -1.89825 0.0815036 0
M  V30 436 H 40.1287 -3.38664 -1.90365 0
M  V30 437 H 41.8007 -4.59478 0.409601 0
M  V30 438 H 40.0437 -4.31415 0.454264 0
M  V30 439 H 40.7147 -5.47618 -0.694175 0
M  V30 440 H 43.1907 -3.81266 -1.66659 0
M  V30 441 H 42.0667 -4.83512 -2.59822 0
M  V30 442 H 42.3277 -3.16744 -3.08424 0
M  V30 443 N 41.3868 0.248026 -1.55636 0
M  V30 444 C 42.6338 0.976224 -1.77415 0
M  V30 445 C 42.9618 1.85361 -0.589193 0
M  V30 446 O 42.2168 1.90973 0.427529 0
M  V30 447 C 42.5158 1.86819 -3.04686 0
M  V30 448 C 42.1818 1.14625 -4.36087 0
M  V30 449 C 40.8438 0.946723 -4.71795 0
M  V30 450 C 43.1958 0.634463 -5.17324 0
M  V30 451 C 40.5238 0.223091 -5.86276 0
M  V30 452 C 42.8758 -0.0756959 -6.32555 0
M  V30 453 C 41.5398 -0.286711 -6.66884 0
M  V30 454 H 40.8098 0.357226 -0.649208 0
M  V30 455 H 43.4568 0.246415 -1.89908 0
M  V30 456 H 41.7618 2.66502 -2.872 0
M  V30 457 H 43.4588 2.43329 -3.18735 0
M  V30 458 H 40.0488 1.3117 -4.08035 0
M  V30 459 H 44.2328 0.77616 -4.90193 0
M  V30 460 H 39.4888 0.0491185 -6.1138 0
M  V30 461 H 43.6628 -0.479899 -6.94745 0
M  V30 462 H 41.2898 -0.849389 -7.5544 0
M  V30 463 N 42.8649 1.48995 0.513639 0
M  V30 464 C 43.7749 1.67443 1.64317 0
M  V30 465 C 44.7909 0.556947 1.64846 0
M  V30 466 O 45.9669 0.830082 1.83498 0
M  V30 467 C 43.0319 1.72515 3.00732 0
M  V30 468 C 42.0929 2.96009 3.1093 0
M  V30 469 C 41.3259 3.00829 4.40837 0
M  V30 470 O 41.5489 2.13594 5.28898 0
M  V30 471 O 40.4829 3.93168 4.55744 0
M  V30 472 H 44.3089 2.63106 1.51687 0
M  V30 473 H 41.8939 1.32588 0.688543 0
M  V30 474 H 43.7759 1.78277 3.81831 0
M  V30 475 H 42.4509 0.800278 3.13651 0
M  V30 476 H 41.3579 2.9577 2.29065 0
M  V30 477 H 42.6909 3.87934 3.02933 0
M  V30 478 N 44.343 -0.763751 1.37857 0
M  V30 479 C 45.589 -1.52483 1.33704 0
M  V30 480 C 45.922 -1.94051 -0.0759612 0
M  V30 481 O 45.197 -1.64675 -1.03501 0
M  V30 482 C 45.48 -2.78441 2.28348 0
M  V30 483 C 45.333 -2.43075 3.78463 0
M  V30 484 C 46.652 -3.80415 2.21298 0
M  V30 485 H 43.771 -0.553169 0.487005 0
M  V30 486 H 46.413 -0.875562 1.68624 0
M  V30 487 H 44.563 -3.33842 1.987 0
M  V30 488 H 46.235 -1.93527 4.18742 0
M  V30 489 H 44.478 -1.75666 3.96641 0
M  V30 490 H 45.149 -3.33149 4.40132 0
M  V30 491 H 47.625 -3.34527 2.47449 0
M  V30 492 H 46.501 -4.66257 2.89647 0
M  V30 493 H 46.762 -4.25262 1.20849 0
M  V30 494 N 45.8211 -1.22559 -0.990812 0
M  V30 495 C 46.7541 -0.940773 -2.07905 0
M  V30 496 C 47.7321 0.117082 -1.62178 0
M  V30 497 O 48.9161 -0.0149506 -1.88494 0
M  V30 498 C 46.0431 -0.415321 -3.36144 0
M  V30 499 C 45.0891 -1.45818 -4.00799 0
M  V30 500 S 45.9221 -3.03219 -4.41382 0
M  V30 501 C 47.0781 -2.52317 -5.72789 0
M  V30 502 H 47.3111 -1.8623 -2.31745 0
M  V30 503 H 44.8441 -1.05688 -1.12558 0
M  V30 504 H 46.8021 -0.118747 -4.10328 0
M  V30 505 H 45.4631 0.485121 -3.10331 0
M  V30 506 H 44.6561 -1.04044 -4.93144 0
M  V30 507 H 44.2581 -1.70356 -3.32949 0
M  V30 508 H 46.5501 -1.93688 -6.49224 0
M  V30 509 H 47.4931 -3.43161 -6.19392 0
M  V30 510 H 47.9011 -1.93529 -5.30289 0
M  V30 511 N 47.2992 1.18797 -1.03562 0
M  V30 512 C 48.2292 2.24472 -0.643019 0
M  V30 513 C 49.2102 1.66433 0.351283 0
M  V30 514 O 50.3952 1.92803 0.232505 0
M  V30 515 C 47.5252 3.473 4.24935e-05 0
M  V30 516 C 46.4792 4.18055 -0.917257 0
M  V30 517 C 45.8052 5.34519 -0.138941 0
M  V30 518 C 47.1052 4.72109 -2.23407 0
M  V30 519 H 48.7992 2.57566 -1.52643 0
M  V30 520 H 46.3452 1.23806 -0.735394 0
M  V30 521 H 48.2982 4.20426 0.286383 0
M  V30 522 H 47.0222 3.13424 0.918299 0
M  V30 523 H 45.6812 3.46821 -1.1879 0
M  V30 524 H 45.3292 4.96891 0.781562 0
M  V30 525 H 45.0292 5.82794 -0.750005 0
M  V30 526 H 46.5532 6.10438 0.1405 0
M  V30 527 H 47.9672 5.36955 -2.00879 0
M  V30 528 H 46.3642 5.30897 -2.79765 0
M  V30 529 H 47.4342 3.89807 -2.88407 0
M  V30 530 N 48.7773 0.814389 1.34928 0
M  V30 531 C 49.7403 0.235759 2.27984 0
M  V30 532 C 50.7403 -0.581412 1.49921 0
M  V30 533 O 51.9303 -0.398758 1.69575 0
M  V30 534 C 49.0623 -0.670433 3.34242 0
M  V30 535 H 50.2553 1.05659 2.80671 0
M  V30 536 H 47.8083 0.585614 1.44915 0
M  V30 537 H 48.5433 -1.51466 2.86755 0
M  V30 538 H 48.3283 -0.0860822 3.92005 0
M  V30 539 H 49.8183 -1.06935 4.03676 0
M  V30 540 N 50.2554 -1.46986 0.568584 0
M  V30 541 C 51.4834 -2.0683 0.0539956 0
M  V30 542 C 51.8984 -1.41953 -1.24478 0
M  V30 543 O 51.2554 -0.519933 -1.74937 0
M  V30 544 C 51.3064 -3.61254 -0.133362 0
M  V30 545 O 51.0274 -4.237 1.11399 0
M  V30 546 C 52.5284 -4.37992 -0.683927 0
M  V30 547 H 49.7484 -0.669058 0.0510141 0
M  V30 548 H 52.2924 -1.88824 0.785234 0
M  V30 549 H 50.4474 -3.78735 -0.81477 0
M  V30 550 H 50.8614 -5.16388 0.91888 0
M  V30 551 H 52.3354 -5.46684 -0.764263 0
M  V30 552 H 52.8124 -4.05058 -1.69778 0
M  V30 553 H 53.4184 -4.25283 -0.0378494 0
M  V30 554 N 51.7335 -0.305618 -1.54608 0
M  V30 555 C 53.0105 0.355652 -1.92339 0
M  V30 556 C 53.3905 1.71324 -1.23335 0
M  V30 557 O 52.7385 2.25473 -0.370702 0
M  V30 558 C 52.9485 0.46572 -3.45879 0
M  V30 559 C 54.2965 0.734426 -4.182 0
M  V30 560 O 55.3205 0.54935 -3.51938 0
M  V30 561 O 54.1795 1.09024 -5.35515 0
M  V30 562 H 51.2735 0.199666 -0.802535 0
M  V30 563 H 53.8195 -0.354017 -1.65966 0
M  V30 564 H 52.5915 -0.488461 -3.88239 0
M  V30 565 H 52.2145 1.22367 -3.78301 0
M  V30 566 N 53.2116 1.57565 -0.0334293 0
M  V30 567 C 54.6276 1.56297 0.322997 0
M  V30 568 C 54.8276 1.03945 1.7262 0
M  V30 569 O 53.8836 0.688109 2.42943 0
M  V30 570 C 55.1966 3.00232 0.167664 0
M  V30 571 C 56.7446 3.12078 0.240107 0
M  V30 572 C 57.2196 4.57859 0.113513 0
M  V30 573 N 58.7106 4.62887 0.170359 0
M  V30 574 C 59.4456 5.73319 0.0962517 0
M  V30 575 N 58.9416 6.92794 -0.0291881 0
M  V30 576 N 60.7346 5.61898 0.150551 0
M  V30 577 H 52.8856 1.89923 -0.950956 0
M  V30 578 H 55.1486 0.873824 -0.367608 0
M  V30 579 H 54.8546 3.42501 -0.799102 0
M  V30 580 H 54.7286 3.654 0.936083 0
M  V30 581 H 57.1156 2.69718 1.19733 0
M  V30 582 H 57.1966 2.49623 -0.558763 0
M  V30 583 H 56.8406 5.009 -0.840314 0
M  V30 584 H 56.7706 5.18299 0.931302 0
M  V30 585 H 59.2616 3.76954 0.26728 0
M  V30 586 H 59.5746 7.7276 -0.0789252 0
M  V30 587 H 57.9196 6.94971 -0.0640299 0
M  V30 588 H 61.1106 4.67448 0.246981 0
M  V30 589 H 61.2836 6.47938 0.0893365 0
M  V30 590 N 54.6897 -0.239769 1.55765 0
M  V30 591 C 55.9147 -0.988373 1.82335 0
M  V30 592 C 56.3397 -1.77886 0.611421 0
M  V30 593 O 55.6977 -1.75889 -0.439639 0
M  V30 594 C 55.7457 -1.89627 3.06715 0
M  V30 595 O 54.8497 -2.98904 2.84131 0
M  V30 596 H 54.1907 -0.280858 0.601677 0
M  V30 597 H 56.7207 -0.258597 2.02959 0
M  V30 598 H 56.7307 -2.30957 3.36338 0
M  V30 599 H 55.4057 -1.31511 3.9456 0
M  V30 600 H 53.9827 -2.61651 2.65694 0
M  V30 601 N 56.1678 -1.49265 -0.50573 0
M  V30 602 C 57.1178 -1.6198 -1.60457 0
M  V30 603 C 58.1018 -0.47568 -1.53708 0
M  V30 604 O 59.2938 -0.728392 -1.61318 0
M  V30 605 C 56.4228 -1.68526 -2.99089 0
M  V30 606 C 55.5088 -2.885 -3.10852 0
M  V30 607 N 55.8998 -4.12635 -2.92517 0
M  V30 608 C 54.1978 -2.86338 -3.41945 0
M  V30 609 C 54.8988 -4.93258 -3.08337 0
M  V30 610 N 53.8748 -4.26533 -3.37003 0
M  V30 611 H 57.6768 -2.55681 -1.44928 0
M  V30 612 H 55.1908 -1.45972 -0.711752 0
M  V30 613 H 57.1878 -1.75732 -3.78053 0
M  V30 614 H 55.8478 -0.759584 -3.1569 0
M  V30 615 H 56.8588 -4.42689 -2.68787 0
M  V30 616 H 53.5358 -2.03129 -3.64753 0
M  V30 617 H 54.9258 -6.01856 -2.98695 0
M  V30 618 N 57.6459 0.756429 -1.3826 0
M  V30 619 C 58.8759 1.54341 -1.3734 0
M  V30 620 C 59.2839 1.89159 0.0393917 0
M  V30 621 O 58.6269 1.5307 1.01565 0
M  V30 622 C 58.6889 2.87238 -2.16182 0
M  V30 623 C 58.3529 2.74973 -3.65019 0
M  V30 624 C 59.3499 2.44962 -4.58574 0
M  V30 625 C 57.0349 2.92515 -4.08338 0
M  V30 626 C 59.0289 2.32642 -5.93428 0
M  V30 627 C 56.7159 2.79815 -5.43274 0
M  V30 628 C 57.7139 2.49921 -6.35632 0
M  V30 629 O 57.4019 2.37275 -7.68086 0
M  V30 630 H 57.1339 0.484281 -0.471643 0
M  V30 631 H 59.6879 0.944152 -1.82414 0
M  V30 632 H 57.9179 3.49342 -1.65822 0
M  V30 633 H 59.6069 3.48731 -2.07705 0
M  V30 634 H 60.3729 2.31081 -4.26412 0
M  V30 635 H 56.2519 3.14781 -3.368 0
M  V30 636 H 59.7959 2.0923 -6.65484 0
M  V30 637 H 55.6929 2.93269 -5.75034 0
M  V30 638 H 56.4609 2.52509 -7.78577 0
M  V30 639 N 59.124 1.23083 0.984299 0
M  V30 640 C 60.087 1.00979 2.05757 0
M  V30 641 C 61.087 -0.0269573 1.60777 0
M  V30 642 O 62.277 0.212403 1.729 0
M  V30 643 C 59.409 0.527072 3.36801 0
M  V30 644 H 60.602 1.9622 2.26799 0
M  V30 645 H 58.155 1.05072 1.15714 0
M  V30 646 H 58.89 -0.429294 3.21446 0
M  V30 647 H 58.675 1.27515 3.70786 0
M  V30 648 H 60.165 0.392942 4.15747 0
M  V30 649 N 60.6021 -1.18246 1.0419 0
M  V30 650 C 61.5491 -2.2192 0.634037 0
M  V30 651 C 62.5191 -1.62179 -0.358765 0
M  V30 652 O 63.7041 -1.89122 -0.252466 0
M  V30 653 C 60.8441 -3.451 0.00445535 0
M  V30 654 C 59.9571 -4.19174 1.04487 0
M  V30 655 C 59.0921 -5.29813 0.383676 0
M  V30 656 C 58.1311 -5.9566 1.4091 0
M  V30 657 N 57.2681 -6.97834 0.772784 0
M  V30 658 H 62.1081 -2.56164 1.52263 0
M  V30 659 H 59.6451 -1.25843 0.761701 0
M  V30 660 H 61.6031 -4.15485 -0.377919 0
M  V30 661 H 60.2331 -3.11472 -0.847652 0
M  V30 662 H 59.2851 -3.47604 1.54518 0
M  V30 663 H 60.5971 -4.64267 1.82368 0
M  V30 664 H 59.7511 -6.06677 -0.0528366 0
M  V30 665 H 58.4901 -4.85825 -0.427208 0
M  V30 666 H 57.4951 -5.17535 1.85574 0
M  V30 667 H 58.7201 -6.4173 2.22171 0
M  V30 668 H 56.6661 -6.55998 -0.0177708 0
M  V30 669 H 56.5831 -7.41186 1.48928 0
M  V30 670 H 57.8511 -7.78665 0.36071 0
M  V30 671 N 62.0802 -0.821533 -1.34494 0
M  V30 672 C 63.3202 -0.414785 -2.00147 0
M  V30 673 C 63.6842 1.00299 -1.6372 0
M  V30 674 O 64.8852 1.51255 -2.22206 0
M  V30 675 C 63.1562 -0.609403 -3.52166 0
M  V30 676 S 64.7152 -0.295297 -4.37805 0
M  V30 677 H 61.5332 -0.15679 -0.693497 0
M  V30 678 H 64.1352 -1.06705 -1.63812 0
M  V30 679 H 62.8392 -1.64096 -3.76166 0
M  V30 680 H 62.3702 0.0576414 -3.93358 0
M  V30 681 H 64.3852 0.891531 -4.88125 0
M  V30 682 N 63.5583 1.46682 -0.576371 0
M  V30 683 C 64.5063 2.31953 0.17335 0
M  V30 684 C 65.5003 1.44098 0.89062 0
M  V30 685 O 66.7063 1.60759 0.809728 0
M  V30 686 H 63.0813 0.748273 0.0747727 0
M  V30 687 H 65.0523 2.93007 -0.564738 0
M  V30 688 C 63.8013 3.27142 1.17786 0
M  V30 689 H 63.1243 3.94719 0.635361 0
M  V30 690 H 64.5643 3.896 1.67296 0
M  V30 691 C 63.0233 2.52036 2.23561 0
M  V30 692 O 63.5533 2.27877 3.3081 0
M  V30 693 N 61.7593 2.12709 1.97998 0
M  V30 694 H 61.3063 2.32557 1.10792 0
M  V30 695 H 61.2643 1.62776 2.68982 0
M  V30 696 N 65.0364 0.313813 1.54444 0
M  V30 697 C 66.4474 -0.176243 1.85866 0
M  V30 698 C 66.7984 -1.52405 1.23561 0
M  V30 699 O 65.9234 -2.09605 0.538016 0
M  V30 700 C 66.5184 -0.32657 3.37222 0
M  V30 701 C 65.0774 -0.760846 3.6863 0
M  V30 702 C 64.2244 0.123247 2.77026 0
M  V30 703 H 67.1754 0.534418 1.49431 0
M  V30 704 H 67.1964 -1.15908 3.62416 0
M  V30 705 H 66.7084 0.654531 3.82541 0
M  V30 706 H 64.8094 -1.75204 3.28838 0
M  V30 707 H 64.9224 -0.571353 4.75681 0
M  V30 708 H 63.2864 -0.399597 2.51546 0
M  V30 709 H 64.0694 1.10094 3.25168 0
M  V30 710 N 66.5145 -1.57545 0.0417849 0
M  V30 711 C 67.7445 -1.96339 -0.642995 0
M  V30 712 C 68.1525 -0.917536 -1.65463 0
M  V30 713 O 67.4955 0.107747 -1.83384 0
M  V30 714 C 67.5575 -3.31333 -1.39494 0
M  V30 715 C 67.2215 -4.53796 -0.540204 0
M  V30 716 C 68.2185 -5.19553 0.189806 0
M  V30 717 C 65.9035 -5.0006 -0.473886 0
M  V30 718 C 67.8975 -6.29904 0.974674 0
M  V30 719 C 65.5845 -6.10289 0.314677 0
M  V30 720 C 66.5825 -6.75072 1.03765 0
M  V30 721 O 66.2705 -7.83183 1.81327 0
M  V30 722 H 66.0025 -0.651241 -0.181277 0
M  V30 723 H 68.5565 -2.05148 0.101665 0
M  V30 724 H 66.7865 -3.19052 -2.18502 0
M  V30 725 H 68.4755 -3.54942 -1.96904 0
M  V30 726 H 69.2415 -4.84774 0.147981 0
M  V30 727 H 65.1205 -4.49433 -1.0262 0
M  V30 728 H 68.6645 -6.80401 1.5395 0
M  V30 729 H 64.5615 -6.44506 0.358174 0
M  V30 730 H 65.3295 -7.99913 1.73438 0
M  V30 731 N 67.9926 0.231505 -1.5589 0
M  V30 732 C 68.9256 1.31369 -1.86595 0
M  V30 733 C 69.9036 1.45671 -0.722397 0
M  V30 734 O 71.0876 1.61642 -0.969743 0
M  V30 735 C 68.2146 2.68529 -2.06421 0
M  V30 736 C 67.2606 2.71295 -3.29092 0
M  V30 737 S 68.0936 2.26358 -4.85306 0
M  V30 738 C 69.2496 3.65414 -5.08157 0
M  V30 739 H 69.4826 1.05128 -2.78092 0
M  V30 740 H 67.0156 0.433259 -1.48197 0
M  V30 741 H 68.9736 3.47499 -2.18528 0
M  V30 742 H 67.6346 2.91999 -1.15738 0
M  V30 743 H 66.8276 3.72063 -3.39978 0
M  V30 744 H 66.4296 2.0038 -3.15791 0
M  V30 745 H 68.7216 4.6103 -4.96445 0
M  V30 746 H 69.6646 3.5945 -6.10083 0
M  V30 747 H 70.0726 3.5864 -4.35933 0
M  V30 748 N 69.4707 1.49531 0.497807 0
M  V30 749 C 70.7477 1.49682 1.25915 0
M  V30 750 C 71.1277 0.226339 2.09883 0
M  V30 751 O 70.4757 -0.791189 2.14365 0
M  V30 752 C 70.6857 2.77755 2.11313 0
M  V30 753 C 72.0337 3.27371 2.70395 0
M  V30 754 O 73.0577 2.78894 2.21578 0
M  V30 755 O 71.9167 4.11808 3.59272 0
M  V30 756 H 69.0107 0.599228 0.56996 0
M  V30 757 H 71.5567 1.61798 0.511816 0
M  V30 758 H 70.3287 3.61713 1.49264 0
M  V30 759 H 69.9517 2.68515 2.93233 0
M  V30 760 N 70.9488 -0.749086 1.3866 0
M  V30 761 C 72.1738 -1.54344 1.38538 0
M  V30 762 C 72.5988 -1.88088 -0.0216655 0
M  V30 763 O 71.9568 -1.50899 -1.00494 0
M  V30 764 C 72.0048 -2.8164 2.25192 0
M  V30 765 O 71.1088 -3.7698 1.67212 0
M  V30 766 H 70.4498 -0.466654 0.472367 0
M  V30 767 H 72.9798 -0.925355 1.82478 0
M  V30 768 H 72.9898 -3.30519 2.3921 0
M  V30 769 H 71.6648 -2.56411 3.27454 0
M  V30 770 H 70.2418 -3.35699 1.6236 0
M  V30 771 N 72.4269 -1.23603 -0.977757 0
M  V30 772 C 73.8379 -1.06424 -1.53398 0
M  V30 773 C 74.1889 0.367578 -1.92726 0
M  V30 774 O 73.3139 1.25465 -1.76316 0
M  V30 775 C 73.9089 -1.92568 -2.78753 0
M  V30 776 C 72.4679 -1.79642 -3.30765 0
M  V30 777 C 71.6149 -1.88111 -2.03739 0
M  V30 778 H 74.5659 -1.37227 -0.797152 0
M  V30 779 H 74.5869 -1.45203 -3.51705 0
M  V30 780 H 74.0989 -2.96771 -2.50098 0
M  V30 781 H 72.1999 -0.782325 -3.64294 0
M  V30 782 H 72.3129 -2.63174 -4.00345 0
M  V30 783 H 70.6769 -1.31723 -2.17994 0
M  V30 784 H 71.4599 -2.93875 -1.77461 0
M  V30 785 N 73.905 1.17692 -1.04816 0
M  V30 786 C 74.837 2.21103 -0.603822 0
M  V30 787 C 75.85 1.59411 0.33046 0
M  V30 788 O 77.039 1.7807 0.12379 0
M  V30 789 C 74.139 3.38623 0.136898 0
M  V30 790 C 73.312 4.29888 -0.807137 0
M  V30 791 C 72.371 5.26088 -0.10836 0
M  V30 792 O 71.397 5.64353 -0.741232 0
M  V30 793 N 72.599 5.68882 1.15558 0
M  V30 794 H 75.364 2.59848 -1.49329 0
M  V30 795 H 72.925 1.32553 -0.929587 0
M  V30 796 H 74.917 4.00009 0.614401 0
M  V30 797 H 73.487 2.98508 0.927993 0
M  V30 798 H 72.707 3.65993 -1.46434 0
M  V30 799 H 73.995 4.87759 -1.44807 0
M  V30 800 H 73.393 5.39861 1.69015 0
M  V30 801 H 71.95 6.32429 1.57722 0
M  V30 802 N 75.3831 0.828654 1.34056 0
M  V30 803 C 76.6081 0.431637 2.02859 0
M  V30 804 C 77.0331 -0.956339 1.61975 0
M  V30 805 O 76.3911 -1.62338 0.807228 0
M  V30 806 C 76.4391 0.548323 3.56407 0
M  V30 807 O 75.5431 -0.429556 4.10157 0
M  V30 808 H 74.8841 0.176886 0.640006 0
M  V30 809 H 77.4141 1.12066 1.71179 0
M  V30 810 H 77.4241 0.426196 4.05768 0
M  V30 811 H 76.0991 1.5606 3.8551 0
M  V30 812 H 74.6761 -0.265836 3.71951 0
M  V30 813 N 76.8612 -1.46375 0.584142 0
M  V30 814 C 78.1102 -2.01585 0.0679741 0
M  V30 815 C 78.4232 -1.46109 -1.30045 0
M  V30 816 O 79.6292 -1.93148 -1.90804 0
M  V30 817 C 78.0852 -3.5983 0.0709207 0
M  V30 818 C 77.6932 -4.24303 1.43775 0
M  V30 819 C 79.4372 -4.22693 -0.391228 0
M  V30 820 C 77.3442 -5.74631 1.39834 0
M  V30 821 H 76.2742 -0.753689 0.0216421 0
M  V30 822 H 78.9252 -1.68093 0.736001 0
M  V30 823 H 77.3072 -3.90405 -0.663299 0
M  V30 824 H 78.4812 -4.05335 2.19181 0
M  V30 825 H 76.7962 -3.73539 1.84004 0
M  V30 826 H 79.3932 -5.3289 -0.439524 0
M  V30 827 H 79.7362 -3.91728 -1.40906 0
M  V30 828 H 80.2692 -3.96749 0.288974 0
M  V30 829 H 77.0082 -6.10258 2.39303 0
M  V30 830 H 76.5282 -5.95858 0.686505 0
M  V30 831 H 78.2072 -6.37375 1.11187 0
M  V30 832 N 78.3393 -0.321999 -1.54275 0
M  V30 833 C 79.5873 0.280489 -2.00144 0
M  V30 834 C 79.9083 1.52777 -1.21178 0
M  V30 835 O 79.1783 1.9338 -0.313187 0
M  V30 836 H 77.7583 0.106632 -0.73935 0
M  V30 837 H 80.4203 -0.438184 -1.8991 0
M  V30 838 H 79.5163 0.537972 -3.07428 0
M  V30 839 N 79.8174 1.5752 -0.0501392 0
M  V30 840 C 81.0644 1.9265 0.623874 0
M  V30 841 C 81.3924 0.928411 1.70912 0
M  V30 842 O 80.6474 -0.0594525 1.9561 0
M  V30 843 C 80.9464 3.34467 1.25963 0
M  V30 844 C 80.6124 4.49883 0.302689 0
M  V30 845 C 79.2744 4.81184 0.0393636 0
M  V30 846 C 81.6264 5.20002 -0.353205 0
M  V30 847 C 78.9544 5.79951 -0.887308 0
M  V30 848 C 81.3064 6.1976 -1.26806 0
M  V30 849 C 79.9704 6.49491 -1.54007 0
M  V30 850 H 79.2404 0.704957 0.228292 0
M  V30 851 H 81.8874 1.91146 -0.116398 0
M  V30 852 H 80.1924 3.32333 2.07514 0
M  V30 853 H 81.8894 3.58928 1.78806 0
M  V30 854 H 78.4794 4.25457 0.518109 0
M  V30 855 H 82.6634 4.96033 -0.162854 0
M  V30 856 H 77.9194 6.01322 -1.10553 0
M  V30 857 H 82.0934 6.73205 -1.78236 0
M  V30 858 H 79.7204 7.25837 -2.25976 0
M  V30 859 N 81.2955 -0.223234 1.56011 0
M  V30 860 C 82.2275 -1.30006 1.88762 0
M  V30 861 C 83.2405 -1.43129 0.775746 0
M  V30 862 O 84.4295 -1.44057 1.05403 0
M  V30 863 C 81.5295 -2.67589 2.07965 0
M  V30 864 C 80.7025 -2.76434 3.38973 0
M  V30 865 C 79.7615 -3.95019 3.47629 0
M  V30 866 O 78.7875 -3.83436 4.20672 0
M  V30 867 N 79.9895 -5.09249 2.78649 0
M  V30 868 H 82.7545 -1.02238 2.81722 0
M  V30 869 H 80.3155 -0.413278 1.56536 0
M  V30 870 H 82.3075 -3.45297 2.11073 0
M  V30 871 H 80.8775 -2.87964 1.21638 0
M  V30 872 H 80.0975 -1.85216 3.47978 0
M  V30 873 H 81.3855 -2.79313 4.25278 0
M  V30 874 H 80.7835 -5.21556 2.19081 0
M  V30 875 H 79.3405 -5.85007 2.8742 0
M  V30 876 N 82.7736 -1.49793 -0.48987 0
M  V30 877 C 83.7366 -1.66752 -1.57246 0
M  V30 878 C 84.7366 -0.538867 -1.51502 0
M  V30 879 O 85.9266 -0.805545 -1.54456 0
M  V30 880 C 83.0586 -1.67528 -2.96896 0
M  V30 881 H 84.2516 -2.63321 -1.43534 0
M  V30 882 H 81.8046 -1.38992 -0.714914 0
M  V30 883 H 82.5396 -0.725837 -3.16073 0
M  V30 884 H 82.3246 -2.49504 -3.02473 0
M  V30 885 H 83.8146 -1.82667 -3.7553 0
M  V30 886 N 84.2517 0.741722 -1.39055 0
M  V30 887 C 85.4797 1.53098 -1.39171 0
M  V30 888 C 85.8947 1.88794 0.0155099 0
M  V30 889 O 85.2517 1.53626 0.985159 0
M  V30 890 C 85.3027 2.82274 -2.2584 0
M  V30 891 O 85.0237 2.48097 -3.61081 0
M  V30 892 C 86.5247 3.76343 -2.34266 0
M  V30 893 H 83.7447 0.473335 -0.4756 0
M  V30 894 H 86.2887 0.917045 -1.82785 0
M  V30 895 H 84.4437 3.40015 -1.85656 0
M  V30 896 H 84.8577 3.31029 -4.06842 0
M  V30 897 H 86.3317 4.63898 -2.9917 0
M  V30 898 H 86.8087 4.17619 -1.35982 0
M  V30 899 H 87.4147 3.24523 -2.74891 0
M  V30 900 N 85.7298 1.2412 0.971189 0
M  V30 901 C 86.9788 1.07284 1.70801 0
M  V30 902 C 87.2918 -0.388902 1.91695 0
M  V30 903 O 88.4978 -0.677379 2.62914 0
M  V30 904 C 86.9538 1.87145 3.07416 0
M  V30 905 C 86.5618 3.37707 2.94377 0
M  V30 906 C 88.3058 1.78828 3.84995 0
M  V30 907 C 86.2128 4.09925 4.26281 0
M  V30 908 H 85.1428 0.397854 0.64049 0
M  V30 909 H 87.7938 1.4817 1.0825 0
M  V30 910 H 86.1758 1.39071 3.70777 0
M  V30 911 H 87.3498 3.93335 2.4005 0
M  V30 912 H 85.6648 3.46938 2.30267 0
M  V30 913 H 88.2618 2.30089 4.82662 0
M  V30 914 H 88.6048 0.75284 4.09436 0
M  V30 915 H 89.1378 2.24563 3.28354 0
M  V30 916 H 85.8768 5.13813 4.07033 0
M  V30 917 H 85.3968 3.59083 4.80437 0
M  V30 918 H 87.0758 4.1673 4.94919 0
M  V30 919 N 87.2079 -1.17134 1.05439 0
M  V30 920 C 88.4329 -1.91913 0.786396 0
M  V30 921 C 88.8579 -1.7643 -0.652234 0
M  V30 922 O 88.2159 -1.08372 -1.45345 0
M  V30 923 C 88.2639 -3.40921 1.17497 0
M  V30 924 O 87.3679 -4.11244 0.308589 0
M  V30 925 H 86.7089 -0.598215 0.288158 0
M  V30 926 H 89.2389 -1.48457 1.4079 0
M  V30 927 H 89.2489 -3.91668 1.14281 0
M  V30 928 H 87.9239 -3.5151 2.22292 0
M  V30 929 H 86.5009 -3.70731 0.40157 0
M  V30 930 N 88.686 -0.835752 -1.33615 0
M  V30 931 C 89.649 -0.272 -2.2758 0
M  V30 932 C 90.649 0.557487 -1.50827 0
M  V30 933 O 91.839 0.37173 -1.70188 0
M  V30 934 C 88.971 0.617173 -3.35267 0
M  V30 935 H 90.164 -1.10111 -2.78954 0
M  V30 936 H 87.717 -0.608594 -1.43965 0
M  V30 937 H 88.452 1.46884 -2.89129 0
M  V30 938 H 88.237 0.0237066 -3.92093 0
M  V30 939 H 89.727 1.005 -4.05326 0
M  V30 940 N 90.1641 1.46063 -0.591896 0
M  V30 941 C 91.5751 1.85944 -0.167822 0
M  V30 942 C 91.9261 1.49429 1.27143 0
M  V30 943 O 91.0511 0.913515 1.96173 0
M  V30 944 C 91.6461 3.37489 -0.297794 0
M  V30 945 C 90.2051 3.76332 0.0714732 0
M  V30 946 C 89.3521 2.7006 -0.629509 0
M  V30 947 H 92.3031 1.37087 -0.799555 0
M  V30 948 H 92.3241 3.77532 0.474349 0
M  V30 949 H 91.8361 3.64034 -1.3454 0
M  V30 950 H 89.9371 3.55405 1.11886 0
M  V30 951 H 90.0501 4.78088 -0.311245 0
M  V30 952 H 88.4141 2.54607 -0.0687867 0
M  V30 953 H 89.1971 2.99444 -1.67894 0
M  V30 954 N 91.6422 0.330177 1.54103 0
M  V30 955 C 92.5922 -0.548456 2.21305 0
M  V30 956 C 93.5762 -1.07651 1.19583 0
M  V30 957 O 94.7682 -1.01243 1.45186 0
M  V30 958 C 91.8972 -1.70559 2.97934 0
M  V30 959 C 90.9832 -1.19212 4.07 0
M  V30 960 N 91.3742 -0.398831 5.04225 0
M  V30 961 C 89.6722 -1.47024 4.2107 0
M  V30 962 C 90.3732 -0.121761 5.81573 0
M  V30 963 N 89.3492 -0.709722 5.38947 0
M  V30 964 H 93.1512 0.0648483 2.93828 0
M  V30 965 H 90.6652 0.136363 1.61826 0
M  V30 966 H 92.6622 -2.34688 3.44568 0
M  V30 967 H 91.3222 -2.32231 2.26934 0
M  V30 968 H 92.3332 -0.0410869 5.17884 0
M  V30 969 H 89.0102 -2.09232 3.61287 0
M  V30 970 H 90.4002 0.517298 6.69906 0
M  V30 971 N 93.1203 -1.57491 0.0584922 0
M  V30 972 C 94.0533 -2.07533 -0.948969 0
M  V30 973 C 95.0313 -0.977444 -1.29942 0
M  V30 974 O 96.2153 -1.2499 -1.41102 0
M  V30 975 C 93.3423 -2.52192 -2.2609 0
M  V30 976 C 92.3883 -3.73287 -2.06298 0
M  V30 977 S 93.2213 -5.18603 -1.33459 0
M  V30 978 C 94.3773 -5.66583 -2.65959 0
M  V30 979 H 94.6103 -2.92662 -0.523118 0
M  V30 980 H 92.1433 -1.53631 -0.153954 0
M  V30 981 H 94.1013 -2.78585 -3.01498 0
M  V30 982 H 92.7623 -1.67356 -2.65802 0
M  V30 983 H 91.9553 -4.0248 -3.03357 0
M  V30 984 H 91.5573 -3.47199 -1.39029 0
M  V30 985 H 93.8493 -5.72616 -3.62101 0
M  V30 986 H 94.7923 -6.65684 -2.41393 0
M  V30 987 H 95.2003 -4.94342 -2.72554 0
M  V30 988 N 94.5984 0.214957 -1.56127 0
M  V30 989 C 95.5484 1.27006 -1.8935 0
M  V30 990 C 96.5324 1.41969 -0.757202 0
M  V30 991 O 97.7244 1.44673 -1.01973 0
M  V30 992 C 94.8534 2.61911 -2.2194 0
M  V30 993 C 93.9394 2.50822 -3.41978 0
M  V30 994 N 94.3304 2.09391 -4.60423 0
M  V30 995 C 92.6284 2.81765 -3.45723 0
M  V30 996 C 93.3294 2.09712 -5.42582 0
M  V30 997 N 92.3054 2.50454 -4.82466 0
M  V30 998 H 96.1074 0.940734 -2.78437 0
M  V30 999 H 93.6214 0.423492 -1.56781 0
M  V30 1000 H 95.6184 3.38096 -2.43919 0
M  V30 1001 H 94.2784 2.95684 -1.34169 0
M  V30 1002 H 95.2894 1.80416 -4.85459 0
M  V30 1003 H 91.9664 3.19865 -2.68314 0
M  V30 1004 H 93.3564 1.79748 -6.4741 0
M  V30 1005 N 96.0765 1.50051 0.48192 0
M  V30 1006 C 97.0395 1.67584 1.5636 0
M  V30 1007 C 98.0395 0.546894 1.51214 0
M  V30 1008 O 99.2295 0.813725 1.54026 0
M  V30 1009 C 96.3615 1.691 2.96003 0
M  V30 1010 H 97.5545 2.64078 1.42136 0
M  V30 1011 H 95.1075 1.39369 0.707533 0
M  V30 1012 H 95.8425 0.742589 3.15684 0
M  V30 1013 H 95.6275 2.51105 3.01146 0
M  V30 1014 H 97.1175 1.84656 3.74556 0
M  V30 1015 N 97.5546 -0.734337 1.39446 0
M  V30 1016 C 98.7846 -1.52137 1.39778 0
M  V30 1017 C 99.1926 -1.89198 -0.00929312 0
M  V30 1018 O 98.5356 -1.54666 -0.991168 0
M  V30 1019 C 98.5976 -2.83762 2.20724 0
M  V30 1020 C 98.2616 -2.69131 3.69347 0
M  V30 1021 C 99.2586 -2.37635 4.62413 0
M  V30 1022 C 96.9436 -2.85982 4.1294 0
M  V30 1023 C 98.9376 -2.23172 5.97054 0
M  V30 1024 C 96.6246 -2.71137 5.47657 0
M  V30 1025 C 97.6226 -2.39777 6.39528 0
M  V30 1026 O 97.3106 -2.25026 7.71763 0
M  V30 1027 H 97.0426 -0.476717 0.479288 0
M  V30 1028 H 99.5966 -0.915012 1.83893 0
M  V30 1029 H 97.8266 -3.4666 1.71359 0
M  V30 1030 H 99.5156 -3.45383 2.13226 0
M  V30 1031 H 100.282 -2.24267 4.30034 0
M  V30 1032 H 96.1606 -3.09383 3.41765 0
M  V30 1033 H 99.7046 -1.98617 6.68728 0
M  V30 1034 H 95.6016 -2.84083 5.79626 0
M  V30 1035 H 96.3696 -2.40091 7.82495 0
M  V30 1036 N 99.0327 -1.24633 -0.964593 0
M  V30 1037 C 99.9957 -1.0424 -2.04124 0
M  V30 1038 C 100.996 0.00137563 -1.608 0
M  V30 1039 O 102.186 -0.239883 -1.7254 0
M  V30 1040 C 99.3177 -0.580588 -3.3592 0
M  V30 1041 H 100.511 -1.99803 -2.23649 0
M  V30 1042 H 98.0637 -1.06899 -1.14027 0
M  V30 1043 H 98.7987 0.3781 -3.22088 0
M  V30 1044 H 98.5837 -1.33398 -3.6871 0
M  V30 1045 H 100.074 -0.459034 -4.15069 0
M  V30 1046 N 100.511 1.16574 -1.06058 0
M  V30 1047 C 101.441 2.23057 -0.690488 0
M  V30 1048 C 102.422 1.67141 0.315901 0
M  V30 1049 O 103.607 1.93253 0.191556 0
M  V30 1050 C 100.737 3.47222 -0.073625 0
M  V30 1051 C 99.6908 4.16016 -1.00573 0
M  V30 1052 C 99.0168 5.34104 -0.252289 0
M  V30 1053 C 100.317 4.67264 -2.33371 0
M  V30 1054 H 102.011 2.54271 -1.58072 0
M  V30 1055 H 99.5568 1.22218 -0.76149 0
M  V30 1056 H 101.51 4.20939 0.19714 0
M  V30 1057 H 100.234 3.15302 0.85161 0
M  V30 1058 H 98.8928 3.44223 -1.2612 0
M  V30 1059 H 98.5408 4.98437 0.675988 0
M  V30 1060 H 98.2408 5.81072 -0.873455 0
M  V30 1061 H 99.7648 6.10599 0.0109857 0
M  V30 1062 H 101.179 5.32573 -2.12223 0
M  V30 1063 H 99.5758 5.24843 -2.90963 0
M  V30 1064 H 100.646 3.83602 -2.96611 0
M  V30 1065 N 101.989 0.842826 1.3317 0
M  V30 1066 C 102.899 0.281444 2.32906 0
M  V30 1067 C 103.915 -0.594587 1.63526 0
M  V30 1068 O 105.091 -0.49777 1.95152 0
M  V30 1069 C 102.156 -0.530929 3.42611 0
M  V30 1070 C 101.217 0.369843 4.27704 0
M  V30 1071 C 100.45 -0.403853 5.3217 0
M  V30 1072 O 100.673 -1.63513 5.46461 0
M  V30 1073 O 99.6069 0.224199 6.01482 0
M  V30 1074 H 103.433 1.10744 2.82789 0
M  V30 1075 H 101.018 0.60545 1.36582 0
M  V30 1076 H 102.9 -0.992437 4.09547 0
M  V30 1077 H 101.575 -1.33392 2.94938 0
M  V30 1078 H 100.482 0.879275 3.6362 0
M  V30 1079 H 101.815 1.13771 4.78871 0
M  V30 1080 N 103.467 -1.45747 0.599634 0
M  V30 1081 C 104.397 -2.33235 -0.111306 0
M  V30 1082 C 105.378 -1.46359 -0.866781 0
M  V30 1083 O 106.563 -1.75146 -0.838904 0
M  V30 1084 C 103.693 -3.28932 -1.11451 0
M  V30 1085 C 102.647 -4.25381 -0.472772 0
M  V30 1086 C 101.973 -5.1071 -1.58365 0
M  V30 1087 C 103.273 -5.18831 0.600948 0
M  V30 1088 H 104.967 -2.92927 0.61919 0
M  V30 1089 H 102.513 -1.40857 0.299215 0
M  V30 1090 H 104.466 -3.89002 -1.62036 0
M  V30 1091 H 103.19 -2.67381 -1.8755 0
M  V30 1092 H 101.849 -3.66598 0.0121472 0
M  V30 1093 H 101.497 -4.45533 -2.33473 0
M  V30 1094 H 101.197 -5.7604 -1.15982 0
M  V30 1095 H 102.721 -5.73647 -2.09194 0
M  V30 1096 H 104.135 -5.73019 0.179491 0
M  V30 1097 H 102.532 -5.92595 0.946076 0
M  V30 1098 H 103.602 -4.6174 1.48068 0
M  V30 1099 N 104.945 -0.338344 -1.53925 0
M  V30 1100 C 105.875 0.51328 -2.27789 0
M  V30 1101 C 106.856 1.107 -1.29149 0
M  V30 1102 O 108.041 1.12937 -1.57984 0
M  V30 1103 C 105.171 1.66697 -3.04679 0
M  V30 1104 C 104.125 1.20183 -4.1078 0
M  V30 1105 C 103.451 2.44363 -4.75595 0
M  V30 1106 C 104.751 0.30605 -5.21403 0
M  V30 1107 H 106.445 -0.102883 -2.99223 0
M  V30 1108 H 103.991 -0.0509219 -1.4391 0
M  V30 1109 H 105.944 2.26915 -3.55088 0
M  V30 1110 H 104.668 2.30995 -2.30887 0
M  V30 1111 H 103.327 0.622499 -3.61276 0
M  V30 1112 H 102.975 3.07057 -3.98403 0
M  V30 1113 H 102.675 2.13925 -5.47275 0
M  V30 1114 H 104.199 3.05317 -5.28786 0
M  V30 1115 H 105.613 0.814929 -5.67478 0
M  V30 1116 H 104.01 0.0937929 -6.00027 0
M  V30 1117 H 105.08 -0.65921 -4.80398 0
M  V30 1118 N 106.423 1.57458 -0.0668435 0
M  V30 1119 C 107.67 1.93301 0.603406 0
M  V30 1120 C 107.998 0.946486 1.69917 0
M  V30 1121 O 107.253 -0.0387021 1.95662 0
M  V30 1122 C 107.552 3.35784 1.22409 0
M  V30 1123 C 107.218 4.50179 0.254955 0
M  V30 1124 C 105.88 4.81199 -0.0116746 0
M  V30 1125 C 108.232 5.19598 -0.408338 0
M  V30 1126 C 105.56 5.78978 -0.94877 0
M  V30 1127 C 107.912 6.18381 -1.33372 0
M  V30 1128 C 106.576 6.47821 -1.60887 0
M  V30 1129 H 105.846 0.707338 0.220802 0
M  V30 1130 H 108.493 1.91012 -0.136665 0
M  V30 1131 H 106.798 3.34515 2.03978 0
M  V30 1132 H 108.495 3.60804 1.74989 0
M  V30 1133 H 105.085 4.25983 0.472954 0
M  V30 1134 H 109.269 4.95832 -0.215456 0
M  V30 1135 H 104.525 6.00115 -1.16925 0
M  V30 1136 H 108.699 6.71277 -1.85367 0
M  V30 1137 H 106.326 7.23399 -2.33661 0
M  V30 1138 N 107.901 -0.206675 1.56239 0
M  V30 1139 C 109.178 -0.954051 1.70755 0
M  V30 1140 C 109.558 -2.01841 0.618353 0
M  V30 1141 O 108.906 -2.25444 -0.372434 0
M  V30 1142 C 109.116 -1.551 3.12642 0
M  V30 1143 C 110.464 -2.03757 3.72516 0
M  V30 1144 O 111.488 -1.64965 3.15698 0
M  V30 1145 O 110.347 -2.75103 4.72208 0
M  V30 1146 H 107.441 -0.446636 0.696021 0
M  V30 1147 H 109.987 -0.197283 1.68549 0
M  V30 1148 H 108.759 -0.783212 3.83382 0
M  V30 1149 H 108.382 -2.37291 3.19028 0
M  V30 1150 N 109.379 -1.50304 -0.473955 0
M  V30 1151 C 110.311 -1.65109 -1.58971 0
M  V30 1152 C 111.324 -0.532676 -1.53839 0
M  V30 1153 O 112.513 -0.805751 -1.59279 0
M  V30 1154 C 109.613 -1.61684 -2.97845 0
M  V30 1155 C 108.786 -2.8951 -3.27876 0
M  V30 1156 C 107.845 -2.78768 -4.4629 0
M  V30 1157 O 106.871 -3.52722 -4.46739 0
M  V30 1158 N 108.073 -1.9213 -5.47783 0
M  V30 1159 H 110.838 -2.61347 -1.46689 0
M  V30 1160 H 108.399 -1.47732 -0.662324 0
M  V30 1161 H 110.391 -1.52114 -3.75024 0
M  V30 1162 H 108.961 -0.731925 -3.03911 0
M  V30 1163 H 108.181 -3.13228 -2.39336 0
M  V30 1164 H 109.469 -3.74199 -3.4475 0
M  V30 1165 H 108.867 -1.31353 -5.50239 0
M  V30 1166 H 107.424 -1.88466 -6.23958 0
M  V30 1167 N 110.857 0.726932 -1.39834 0
M  V30 1168 C 111.787 1.85405 -1.41941 0
M  V30 1169 C 112.768 1.67751 -0.281728 0
M  V30 1170 O 113.953 1.8795 -0.488717 0
M  V30 1171 C 111.083 3.23243 -1.2701 0
M  V30 1172 C 110.037 3.55549 -2.38262 0
M  V30 1173 C 109.363 4.9241 -2.08415 0
M  V30 1174 C 110.663 3.577 -3.80589 0
M  V30 1175 H 112.357 1.83899 -2.36266 0
M  V30 1176 H 109.903 0.883349 -1.13723 0
M  V30 1177 H 111.856 4.01775 -1.27103 0
M  V30 1178 H 110.58 3.25296 -0.291564 0
M  V30 1179 H 109.239 2.79351 -2.37399 0
M  V30 1180 H 108.887 4.91052 -1.0898 0
M  V30 1181 H 108.587 5.14992 -2.82943 0
M  V30 1182 H 110.111 5.73289 -2.10171 0
M  V30 1183 H 111.525 4.26293 -3.83337 0
M  V30 1184 H 109.922 3.91804 -4.54543 0
M  V30 1185 H 110.992 2.57328 -4.10987 0
M  V30 1186 N 112.336 1.25143 0.95797 0
M  V30 1187 C 113.286 1.01924 2.0395 0
M  V30 1188 C 114.27 -0.0427175 1.60843 0
M  V30 1189 O 115.462 0.17221 1.7616 0
M  V30 1190 C 112.591 0.636373 3.3735 0
M  V30 1191 C 111.677 1.73492 3.8699 0
M  V30 1192 N 112.068 2.96945 4.0946 0
M  V30 1193 C 110.366 1.61467 4.15746 0
M  V30 1194 C 111.067 3.68228 4.50315 0
M  V30 1195 N 110.043 2.95833 4.56053 0
M  V30 1196 H 113.845 1.95653 2.19311 0
M  V30 1197 H 111.359 1.15413 1.14253 0
M  V30 1198 H 113.356 0.451233 4.14451 0
M  V30 1199 H 112.016 -0.293621 3.2337 0
M  V30 1200 H 113.027 3.33025 3.96629 0
M  V30 1201 H 109.704 0.753394 4.10646 0
M  V30 1202 H 111.094 4.74178 4.76031 0
M  V30 1203 N 113.814 -1.1601 1.06675 0
M  V30 1204 C 114.724 -2.24156 0.692179 0
M  V30 1205 C 115.74 -1.71507 -0.293513 0
M  V30 1206 O 116.916 -2.009 -0.141861 0
M  V30 1207 C 113.981 -3.46587 0.0884131 0
M  V30 1208 C 113.042 -4.14257 1.12646 0
M  V30 1209 C 112.275 -5.30844 0.551416 0
M  V30 1210 O 112.498 -5.66858 -0.634656 0
M  V30 1211 O 111.432 -5.87848 1.29298 0
M  V30 1212 H 115.258 -2.58513 1.59388 0
M  V30 1213 H 112.843 -1.23599 0.83926 0
M  V30 1214 H 114.725 -4.20679 -0.246361 0
M  V30 1215 H 113.4 -3.13994 -0.786712 0
M  V30 1216 H 112.307 -3.42118 1.51348 0
M  V30 1217 H 113.64 -4.50914 1.97325 0
M  V30 1218 N 115.292 -0.849877 -1.32721 0
M  V30 1219 C 116.54 -0.450032 -1.97026 0
M  V30 1220 C 116.861 0.996604 -1.67609 0
M  V30 1221 O 116.131 1.6958 -0.980786 0
M  V30 1222 H 114.711 -0.163426 -0.728904 0
M  V30 1223 H 117.373 -1.08526 -1.6189 0
M  V30 1224 H 116.469 -0.591146 -3.0645 0
M  V30 1225 N 116.77 1.45427 -0.607355 0
M  V30 1226 C 117.733 2.28974 0.101693 0
M  V30 1227 C 118.733 1.39754 0.795329 0
M  V30 1228 O 119.923 1.61878 0.643527 0
M  V30 1229 C 117.055 3.20768 1.15414 0
M  V30 1230 H 118.248 2.93147 -0.632844 0
M  V30 1231 H 115.801 1.51945 -0.366391 0
M  V30 1232 H 116.536 2.61395 1.91945 0
M  V30 1233 H 116.321 3.86489 0.66098 0
M  V30 1234 H 117.811 3.83589 1.65073 0
M  V30 1235 N 118.248 0.346503 1.53744 0
M  V30 1236 C 119.195 -0.508914 2.25119 0
M  V30 1237 C 120.165 -1.09315 1.25058 0
M  V30 1238 O 121.35 -1.12921 1.53797 0
M  V30 1239 C 118.49 -1.65246 3.02965 0
M  V30 1240 C 117.603 -1.09525 4.17886 0
M  V30 1241 C 116.738 -2.20634 4.83212 0
M  V30 1242 C 115.777 -1.62279 5.90196 0
M  V30 1243 N 114.914 -2.67143 6.49291 0
M  V30 1244 H 119.754 0.106283 2.9781 0
M  V30 1245 H 117.291 0.0642227 1.4696 0
M  V30 1246 H 119.249 -2.32574 3.4636 0
M  V30 1247 H 117.879 -2.2386 2.32565 0
M  V30 1248 H 116.931 -0.312818 3.79112 0
M  V30 1249 H 118.243 -0.628444 4.94825 0
M  V30 1250 H 117.397 -2.95821 5.29693 0
M  V30 1251 H 116.136 -2.70659 4.05703 0
M  V30 1252 H 115.141 -0.855989 5.43096 0
M  V30 1253 H 116.366 -1.13102 6.69615 0
M  V30 1254 H 114.312 -3.16417 5.74645 0
M  V30 1255 H 114.229 -2.25093 7.21713 0
M  V30 1256 H 115.497 -3.4209 7.00425 0
M  V30 1257 N 119.726 -1.57421 0.075193 0
M  V30 1258 C 120.689 -2.11791 -0.876203 0
M  V30 1259 C 121.689 -1.04268 -1.22412 0
M  V30 1260 O 122.879 -1.30242 -1.15684 0
M  V30 1261 C 120.011 -2.62207 -2.17854 0
M  V30 1262 H 121.204 -2.9716 -0.40444 0
M  V30 1263 H 118.757 -1.55333 -0.173557 0
M  V30 1264 H 119.492 -1.803 -2.6956 0
M  V30 1265 H 119.277 -3.40802 -1.93897 0
M  V30 1266 H 120.767 -3.04335 -2.85955 0
M  V30 1267 N 121.204 0.198386 -1.56346 0
M  V30 1268 C 122.134 1.24865 -1.9731 0
M  V30 1269 C 123.115 1.47651 -0.844576 0
M  V30 1270 O 124.3 1.59444 -1.10866 0
M  V30 1271 C 121.43 2.59358 -2.30977 0
M  V30 1272 C 120.384 2.5119 -3.46537 0
M  V30 1273 C 119.71 3.89926 -3.65871 0
M  V30 1274 C 121.01 2.03977 -4.80823 0
M  V30 1275 H 122.704 0.908252 -2.85291 0
M  V30 1276 H 120.25 0.435462 -1.37258 0
M  V30 1277 H 122.203 3.33011 -2.58228 0
M  V30 1278 H 120.927 2.95132 -1.39874 0
M  V30 1279 H 119.586 1.79993 -3.19371 0
M  V30 1280 H 119.234 4.23046 -2.72105 0
M  V30 1281 H 118.934 3.85336 -4.4361 0
M  V30 1282 H 120.458 4.65205 -3.95495 0
M  V30 1283 H 121.872 2.67386 -5.07127 0
M  V30 1284 H 120.269 2.10397 -5.62008 0
M  V30 1285 H 121.339 0.992861 -4.74626 0
M  V30 1286 N 122.682 1.50554 0.465978 0
M  V30 1287 C 123.959 1.5232 1.22712 0
M  V30 1288 C 124.339 0.270807 2.09356 0
M  V30 1289 O 123.687 -0.745541 2.15995 0
M  V30 1290 C 123.897 2.82175 2.05374 0
M  V30 1291 C 125.245 3.33033 2.6339 0
M  V30 1292 O 126.269 2.83531 2.15612 0
M  V30 1293 O 125.128 4.19336 3.50456 0
M  V30 1294 H 122.222 0.611183 0.557122 0
M  V30 1295 H 124.768 1.62847 0.477381 0
M  V30 1296 H 123.54 3.64797 1.41558 0
M  V30 1297 H 123.163 2.74675 2.87471 0
M  V30 1298 N 124.16 -0.719506 1.40217 0
M  V30 1299 C 125.406 -1.48152 1.38488 0
M  V30 1300 C 125.739 -1.94195 -0.0141867 0
M  V30 1301 O 125.014 -1.67884 -0.982096 0
M  V30 1302 C 125.297 -2.71035 2.37091 0
M  V30 1303 C 125.15 -2.30912 3.86005 0
M  V30 1304 C 126.469 -3.73182 2.33288 0
M  V30 1305 H 123.588 -0.537395 0.504357 0
M  V30 1306 H 126.23 -0.821472 1.71324 0
M  V30 1307 H 124.38 -3.27352 2.0922 0
M  V30 1308 H 126.052 -1.80107 4.24687 0
M  V30 1309 H 124.295 -1.62958 4.02029 0
M  V30 1310 H 124.966 -3.18978 4.50508 0
M  V30 1311 H 127.442 -3.26485 2.57966 0
M  V30 1312 H 126.318 -4.56806 3.04334 0
M  V30 1313 H 126.579 -4.21202 1.34317 0
M  V30 1314 N 125.638 -1.25649 -0.95132 0
M  V30 1315 C 126.886 -1.10375 -1.69298 0
M  V30 1316 C 127.207 0.355339 -1.91735 0
M  V30 1317 O 126.477 1.25188 -1.50681 0
M  V30 1318 H 125.057 -0.405461 -0.627384 0
M  V30 1319 H 127.719 -1.57823 -1.14358 0
M  V30 1320 H 126.815 -1.61465 -2.67087 0
M  V30 1321 N 127.117 1.15442 -1.07289 0
M  V30 1322 C 128.342 1.90638 -0.816828 0
M  V30 1323 C 128.767 1.77445 0.624083 0
M  V30 1324 O 128.125 1.10671 1.43602 0
M  V30 1325 C 128.173 3.39008 -1.22906 0
M  V30 1326 O 127.277 4.10701 -0.373975 0
M  V30 1327 H 126.618 0.593555 -0.297638 0
M  V30 1328 H 129.148 1.46198 -1.43134 0
M  V30 1329 H 129.158 3.89801 -1.20497 0
M  V30 1330 H 127.833 3.47929 -2.27856 0
M  V30 1331 H 126.41 3.70046 -0.460499 0
M  V30 1332 N 128.595 0.856903 1.32268 0
M  V30 1333 C 129.843 0.460474 1.96784 0
M  V30 1334 C 130.164 -0.987701 1.68135 0
M  V30 1335 O 129.434 -1.69058 0.989765 0
M  V30 1336 H 128.014 0.167289 0.728027 0
M  V30 1337 H 130.676 1.09383 1.61312 0
M  V30 1338 H 129.772 0.60739 3.06133 0
M  V30 1339 N 130.073 -1.45103 0.615059 0
M  V30 1340 C 131.298 -2.07064 0.117988 0
M  V30 1341 C 131.723 -1.4554 -1.19163 0
M  V30 1342 O 131.081 -0.550855 -1.72729 0
M  V30 1343 C 131.129 -3.606 -0.000288387 0
M  V30 1344 O 130.233 -3.98847 -1.04856 0
M  V30 1345 H 129.574 -0.659467 0.0774581 0
M  V30 1346 H 132.104 -1.86236 0.847186 0
M  V30 1347 H 132.114 -4.07529 -0.196091 0
M  V30 1348 H 130.789 -4.04765 0.955932 0
M  V30 1349 H 129.366 -3.63577 -0.828619 0
M  V30 1350 N 131.551 -0.354651 -1.53558 0
M  V30 1351 C 132.799 0.237972 -2.00694 0
M  V30 1352 C 133.12 1.50173 -1.24391 0
M  V30 1353 O 132.39 1.92673 -0.354135 0
M  V30 1354 H 130.97 0.0909256 -0.741446 0
M  V30 1355 H 133.632 -0.478368 -1.88938 0
M  V30 1356 H 132.728 0.47264 -3.085 0
M  V30 1357 N 133.029 1.57378 -0.0835403 0
M  V30 1358 C 134.278 1.93106 0.582498 0
M  V30 1359 C 134.591 0.96651 1.70053 0
M  V30 1360 O 135.797 1.21705 2.42693 0
M  V30 1361 C 134.253 3.43076 1.08751 0
M  V30 1362 C 133.861 4.48 -0.000146404 0
M  V30 1363 C 135.605 3.87785 1.72694 0
M  V30 1364 C 133.512 5.89113 0.519568 0
M  V30 1365 H 132.442 0.720775 0.221358 0
M  V30 1366 H 135.093 1.82821 -0.157675 0
M  V30 1367 H 133.475 3.48474 1.88101 0
M  V30 1368 H 134.649 4.54233 -0.775199 0
M  V30 1369 H 132.964 4.1283 -0.54406 0
M  V30 1370 H 135.561 4.90604 2.1263 0
M  V30 1371 H 135.904 3.25796 2.59158 0
M  V30 1372 H 136.437 3.8504 0.999457 0
M  V30 1373 H 133.176 6.54775 -0.308186 0
M  V30 1374 H 132.696 5.86376 1.26188 0
M  V30 1375 H 134.375 6.39346 0.992237 0
M  V30 1376 N 134.507 -0.190092 1.56449 0
M  V30 1377 C 135.437 -1.23816 1.97969 0
M  V30 1378 C 136.418 -1.47201 0.852395 0
M  V30 1379 O 137.603 -1.58854 1.1171 0
M  V30 1380 C 134.733 -2.5813 2.3235 0
M  V30 1381 C 133.687 -2.49348 3.47864 0
M  V30 1382 C 133.013 -3.8798 3.67934 0
M  V30 1383 C 134.313 -2.01424 4.81898 0
M  V30 1384 H 136.007 -0.89311 2.85769 0
M  V30 1385 H 133.553 -0.428177 1.37487 0
M  V30 1386 H 135.506 -3.31637 2.59991 0
M  V30 1387 H 134.23 -2.94386 1.41438 0
M  V30 1388 H 132.889 -1.78297 3.20321 0
M  V30 1389 H 132.537 -4.21597 2.74344 0
M  V30 1390 H 132.237 -3.82978 4.45648 0
M  V30 1391 H 133.761 -4.63101 3.97957 0
M  V30 1392 H 135.175 -2.64693 5.08538 0
M  V30 1393 H 133.572 -2.07413 5.63116 0
M  V30 1394 H 134.642 -0.967677 4.75146 0
M  V30 1395 N 135.985 -1.50799 -0.457987 0
M  V30 1396 C 137.213 -1.66218 -1.23203 0
M  V30 1397 C 137.628 -0.350894 -1.85511 0
M  V30 1398 O 136.985 0.668546 -1.69814 0
M  V30 1399 C 137.036 -2.76291 -2.33121 0
M  V30 1400 O 136.757 -4.02338 -1.73366 0
M  V30 1401 C 138.258 -3.028 -3.2377 0
M  V30 1402 H 135.478 -0.558361 -0.372121 0
M  V30 1403 H 138.022 -1.97099 -0.545179 0
M  V30 1404 H 136.177 -2.48068 -2.97558 0
M  V30 1405 H 136.591 -4.63312 -2.4585 0
M  V30 1406 H 138.065 -3.8345 -3.97077 0
M  V30 1407 H 138.542 -2.14385 -3.83322 0
M  V30 1408 H 139.148 -3.32604 -2.65056 0
M  V30 1409 N 137.463 0.71206 -1.40597 0
M  V30 1410 C 138.426 1.80785 -1.40888 0
M  V30 1411 C 139.426 1.57937 -0.302103 0
M  V30 1412 O 140.616 1.64913 -0.561182 0
M  V30 1413 C 137.748 3.18927 -1.20409 0
M  V30 1414 H 138.941 1.81924 -2.38419 0
M  V30 1415 H 136.494 0.91805 -1.26497 0
M  V30 1416 H 137.229 3.23436 -0.236522 0
M  V30 1417 H 137.014 3.36911 -2.00582 0
M  V30 1418 H 138.504 3.98949 -1.23408 0
M  V30 1419 N 138.941 1.26152 0.944643 0
M  V30 1420 C 140.181 1.12708 1.70517 0
M  V30 1421 C 140.545 -0.324727 1.89234 0
M  V30 1422 O 141.746 -0.581211 2.62441 0
M  V30 1423 C 140.017 1.8713 3.04495 0
M  V30 1424 S 141.576 1.89698 3.95677 0
M  V30 1425 H 138.394 0.402665 0.585988 0
M  V30 1426 H 140.996 1.59821 1.12594 0
M  V30 1427 H 139.7 2.91833 2.88551 0
M  V30 1428 H 139.231 1.40444 3.67477 0
M  V30 1429 H 141.246 0.981198 4.86402 0
M  V30 1430 N 140.419 -1.14872 1.07899 0
M  V30 1431 C 141.666 -1.85789 0.805532 0
M  V30 1432 C 141.994 -1.82649 -0.668561 0
M  V30 1433 O 141.249 -1.24858 -1.50695 0
M  V30 1434 C 141.548 -3.34223 1.26609 0
M  V30 1435 C 141.214 -3.57555 2.74709 0
M  V30 1436 C 139.876 -3.63631 3.1516 0
M  V30 1437 C 142.228 -3.66803 3.70277 0
M  V30 1438 C 139.556 -3.76473 4.49983 0
M  V30 1439 C 141.908 -3.8117 5.04869 0
M  V30 1440 C 140.572 -3.85494 5.44932 0
M  V30 1441 H 139.842 -0.679849 0.294765 0
M  V30 1442 H 142.489 -1.3572 1.35101 0
M  V30 1443 H 140.794 -3.86536 0.640103 0
M  V30 1444 H 142.491 -3.87511 1.03132 0
M  V30 1445 H 139.081 -3.5347 2.42398 0
M  V30 1446 H 143.265 -3.61404 3.40149 0
M  V30 1447 H 138.521 -3.7808 4.80484 0
M  V30 1448 H 142.695 -3.87268 5.78789 0
M  V30 1449 H 140.322 -3.95197 6.49403 0
M  V30 1450 N 141.898 -0.863906 -1.31812 0
M  V30 1451 C 142.861 -0.320212 -2.26952 0
M  V30 1452 C 143.861 0.525369 -1.51975 0
M  V30 1453 O 145.051 0.335547 -1.70938 0
M  V30 1454 C 142.183 0.545919 -3.365 0
M  V30 1455 H 143.376 -1.16004 -2.76556 0
M  V30 1456 H 140.929 -0.638995 -1.42641 0
M  V30 1457 H 141.664 1.40718 -2.92179 0
M  V30 1458 H 141.449 -0.0594674 -3.92055 0
M  V30 1459 H 142.939 0.918796 -4.07367 0
M  V30 1460 N 143.376 1.44774 -0.622745 0
M  V30 1461 C 144.792 1.56986 -0.287652 0
M  V30 1462 C 144.992 1.61167 1.20944 0
M  V30 1463 O 144.048 1.55015 1.99315 0
M  V30 1464 C 145.361 2.84551 -0.972188 0
M  V30 1465 C 146.909 2.9825 -0.949536 0
M  V30 1466 C 147.384 4.28605 -1.61437 0
M  V30 1467 N 148.875 4.35399 -1.58057 0
M  V30 1468 C 149.61 5.34964 -2.064 0
M  V30 1469 N 149.106 6.40981 -2.62897 0
M  V30 1470 N 150.899 5.26419 -1.97078 0
M  V30 1471 H 143.05 1.40304 -1.59463 0
M  V30 1472 H 145.313 0.671794 -0.668878 0
M  V30 1473 H 145.019 2.87417 -2.02693 0
M  V30 1474 H 144.893 3.73807 -0.504771 0
M  V30 1475 H 147.28 2.94941 0.0967067 0
M  V30 1476 H 147.361 2.10364 -1.45536 0
M  V30 1477 H 147.005 4.32672 -2.66002 0
M  V30 1478 H 146.935 5.15334 -1.08344 0
M  V30 1479 H 149.426 3.59397 -1.16801 0
M  V30 1480 H 149.739 7.13225 -2.97539 0
M  V30 1481 H 148.084 6.4169 -2.66943 0
M  V30 1482 H 151.275 4.42504 -1.52669 0
M  V30 1483 H 151.448 6.03861 -2.35066 0
M  V30 1484 N 144.854 0.36279 1.53368 0
M  V30 1485 C 145.787 -0.528507 2.21996 0
M  V30 1486 C 146.765 -1.0852 1.21087 0
M  V30 1487 O 147.949 -1.14186 1.4998 0
M  V30 1488 C 145.076 -1.72893 2.91249 0
M  V30 1489 C 144.122 -1.29994 4.06207 0
M  V30 1490 S 144.955 -0.303575 5.34639 0
M  V30 1491 C 146.111 -1.51039 6.07403 0
M  V30 1492 H 146.344 0.0543423 2.9725 0
M  V30 1493 H 143.877 0.146889 1.537 0
M  V30 1494 H 145.835 -2.41751 3.31763 0
M  V30 1495 H 144.496 -2.28303 2.15724 0
M  V30 1496 H 143.689 -2.19549 4.53667 0
M  V30 1497 H 143.291 -0.690608 3.67569 0
M  V30 1498 H 145.583 -2.44186 6.31965 0
M  V30 1499 H 146.526 -1.07721 6.99858 0
M  V30 1500 H 146.934 -1.71518 5.37812 0
M  V30 1501 N 146.332 -1.57332 0.0918853 0
M  V30 1502 C 147.578 -1.94524 -0.573425 0
M  V30 1503 C 147.911 -0.973578 -1.68033 0
M  V30 1504 O 147.186 -0.00609226 -1.94499 0
M  V30 1505 C 147.469 -3.41858 -1.13161 0
M  V30 1506 C 147.322 -4.4979 -0.0299747 0
M  V30 1507 C 148.641 -3.90435 -2.03098 0
M  V30 1508 H 145.76 -0.70734 -0.206975 0
M  V30 1509 H 148.402 -1.89309 0.161942 0
M  V30 1510 H 146.552 -3.46433 -1.7583 0
M  V30 1511 H 148.224 -4.57327 0.604112 0
M  V30 1512 H 146.467 -4.291 0.636833 0
M  V30 1513 H 147.138 -5.50069 -0.461287 0
M  V30 1514 H 149.614 -3.87992 -1.50338 0
M  V30 1515 H 148.49 -4.94097 -2.39081 0
M  V30 1516 H 148.751 -3.29541 -2.94712 0
M  V30 1517 N 147.81 0.181792 -1.56548 0
M  V30 1518 C 149.058 0.89832 -1.81038 0
M  V30 1519 C 149.379 1.83232 -0.667164 0
M  V30 1520 O 148.649 1.93372 0.313673 0
M  V30 1521 H 147.229 0.33471 -0.667816 0
M  V30 1522 H 149.891 0.184116 -1.94028 0
M  V30 1523 H 148.987 1.4815 -2.74696 0
M  V30 1524 N 149.288 1.51039 0.449983 0
M  V30 1525 C 150.528 1.64732 1.21007 0
M  V30 1526 C 150.892 0.349865 1.88785 0
M  V30 1527 O 152.093 0.362431 2.66345 0
M  V30 1528 C 150.364 2.80902 2.20973 0
M  V30 1529 S 151.923 3.14851 3.05638 0
M  V30 1530 H 148.741 0.5805 0.410538 0
M  V30 1531 H 151.343 1.88901 0.503634 0
M  V30 1532 H 150.047 3.73627 1.69796 0
M  V30 1533 H 149.578 2.58882 2.96215 0
M  V30 1534 H 151.593 2.60306 4.22439 0
M  V30 1535 N 150.766 -0.704594 1.40972 0
M  V30 1536 C 151.994 -1.49354 1.43182 0
M  V30 1537 C 152.409 -1.88768 0.0345508 0
M  V30 1538 O 151.766 -1.56184 -0.944081 0
M  V30 1539 C 151.817 -2.76187 2.33244 0
M  V30 1540 O 151.538 -2.38436 3.67532 0
M  V30 1541 C 153.039 -3.7 2.44162 0
M  V30 1542 H 150.259 -0.460559 0.487982 0
M  V30 1543 H 152.803 -0.868261 1.85153 0
M  V30 1544 H 150.958 -3.34974 1.94606 0
M  V30 1545 H 151.372 -3.20126 4.15475 0
M  V30 1546 H 152.846 -4.55803 3.11364 0
M  V30 1547 H 153.323 -4.13867 1.47006 0
M  V30 1548 H 153.929 -3.17121 2.83398 0
M  V30 1549 N 152.244 -1.26651 -0.937939 0
M  V30 1550 C 153.492 -1.12165 -1.68118 0
M  V30 1551 C 153.813 0.334983 -1.92101 0
M  V30 1552 O 153.083 1.23583 -1.52 0
M  V30 1553 H 151.663 -0.412093 -0.623048 0
M  V30 1554 H 154.325 -1.59027 -1.12678 0
M  V30 1555 H 153.421 -1.64289 -2.6536 0
M  V30 1556 N 153.722 1.14298 -1.08507 0
M  V30 1557 C 154.669 2.19414 -0.715965 0
M  V30 1558 C 155.639 1.63399 0.298326 0
M  V30 1559 O 156.824 1.89929 0.182101 0
M  V30 1560 C 153.964 3.44845 -0.132534 0
M  V30 1561 C 153.077 4.15007 -1.19973 0
M  V30 1562 C 152.212 5.28024 -0.580048 0
M  V30 1563 C 151.251 5.9002 -1.62921 0
M  V30 1564 N 150.388 6.94485 -1.03125 0
M  V30 1565 H 155.228 2.50336 -1.61666 0
M  V30 1566 H 152.765 1.2293 -0.807882 0
M  V30 1567 H 154.723 4.16601 0.223454 0
M  V30 1568 H 153.353 3.14403 0.731467 0
M  V30 1569 H 152.405 3.41629 -1.67313 0
M  V30 1570 H 153.717 4.57178 -1.99473 0
M  V30 1571 H 152.871 6.06455 -0.172364 0
M  V30 1572 H 151.61 4.87076 0.246603 0
M  V30 1573 H 150.615 5.10291 -2.04654 0
M  V30 1574 H 151.84 6.33042 -2.45835 0
M  V30 1575 H 149.786 6.55612 -0.225711 0
M  V30 1576 H 149.703 7.35148 -1.76334 0
M  V30 1577 H 150.971 7.7679 -0.649458 0
M  V30 1578 N 155.201 0.870884 1.31352 0
M  V30 1579 C 156.447 0.482987 1.96965 0
M  V30 1580 C 156.78 -0.962462 1.68672 0
M  V30 1581 O 156.055 -1.6779 0.98371 0
M  V30 1582 C 156.338 0.741752 3.52378 0
M  V30 1583 C 156.191 2.2368 3.9024 0
M  V30 1584 C 157.51 0.208838 4.39604 0
M  V30 1585 H 154.629 0.176955 0.715441 0
M  V30 1586 H 157.271 1.09229 1.55464 0
M  V30 1587 H 155.421 0.223149 3.87859 0
M  V30 1588 H 157.093 2.82273 3.64856 0
M  V30 1589 H 155.336 2.70901 3.38814 0
M  V30 1590 H 156.007 2.3685 4.98604 0
M  V30 1591 H 158.483 0.652529 4.10952 0
M  V30 1592 H 157.359 0.419336 5.47296 0
M  V30 1593 H 157.62 -0.889275 4.33064 0
M  V30 1594 N 156.679 -1.44442 0.630414 0
M  V30 1595 C 157.928 -2.01267 0.132073 0
M  V30 1596 C 158.241 -1.50172 -1.25331 0
M  V30 1597 O 159.447 -1.9912 -1.84562 0
M  V30 1598 C 157.903 -3.59422 0.185362 0
M  V30 1599 C 157.511 -4.19514 1.57201 0
M  V30 1600 C 159.255 -4.23724 -0.256553 0
M  V30 1601 C 157.162 -5.69891 1.58045 0
M  V30 1602 H 156.092 -0.752619 0.0456092 0
M  V30 1603 H 158.743 -1.65666 0.789106 0
M  V30 1604 H 157.125 -3.92318 -0.538759 0
M  V30 1605 H 158.299 -3.98156 2.31966 0
M  V30 1606 H 156.614 -3.67496 1.95795 0
M  V30 1607 H 159.211 -5.34019 -0.269767 0
M  V30 1608 H 159.554 -3.96013 -1.28372 0
M  V30 1609 H 160.087 -3.95629 0.41505 0
M  V30 1610 H 156.826 -6.02336 2.58597 0
M  V30 1611 H 156.346 -5.93373 0.875725 0
M  V30 1612 H 158.025 -6.33515 1.31408 0
M  V30 1613 N 158.157 -0.370918 -1.53173 0
M  V30 1614 C 159.405 0.216673 -2.00935 0
M  V30 1615 C 159.726 1.48845 -1.25977 0
M  V30 1616 O 158.996 1.92286 -0.374551 0
M  V30 1617 H 157.576 0.0830565 -0.742368 0
M  V30 1618 H 160.238 -0.49838 -1.8842 0
M  V30 1619 H 159.334 0.439893 -3.08984 0
M  V30 1620 N 159.635 1.57281 -0.100228 0
M  V30 1621 C 160.884 1.93713 0.561984 0
M  V30 1622 C 161.197 0.984492 1.69018 0
M  V30 1623 O 162.403 1.24273 2.41389 0
M  V30 1624 C 160.859 3.4421 1.05106 0
M  V30 1625 C 160.467 4.47975 -0.0476628 0
M  V30 1626 C 162.211 3.89595 1.68571 0
M  V30 1627 C 160.118 5.89631 0.457055 0
M  V30 1628 H 159.048 0.723082 0.2137 0
M  V30 1629 H 161.699 1.82644 -0.177057 0
M  V30 1630 H 160.081 3.50449 1.84395 0
M  V30 1631 H 161.255 4.53385 -0.823333 0
M  V30 1632 H 159.57 4.1223 -0.587816 0
M  V30 1633 H 162.167 4.92832 2.07414 0
M  V30 1634 H 162.51 3.28526 2.55688 0
M  V30 1635 H 163.043 3.86078 0.958562 0
M  V30 1636 H 159.782 6.54411 -0.377616 0
M  V30 1637 H 159.302 5.87681 1.19962 0
M  V30 1638 H 160.981 6.40363 0.92437 0
M  V30 1639 N 161.113 -0.173488 1.56642 0
M  V30 1640 C 162.39 -0.917617 1.7274 0
M  V30 1641 C 162.77 -2.00484 0.661027 0
M  V30 1642 O 162.118 -2.26184 -0.32453 0
M  V30 1643 C 162.328 -1.48433 3.15862 0
M  V30 1644 C 163.676 -1.95809 3.76754 0
M  V30 1645 O 164.7 -1.58231 3.19126 0
M  V30 1646 O 163.559 -2.65024 4.77938 0
M  V30 1647 H 160.653 -0.431772 0.705338 0
M  V30 1648 H 163.199 -0.161487 1.6893 0
M  V30 1649 H 161.971 -0.701715 3.84957 0
M  V30 1650 H 161.594 -2.30471 3.23989 0
M  V30 1651 N 162.591 -1.51276 -0.441967 0
M  V30 1652 C 163.541 -1.6864 -1.53442 0
M  V30 1653 C 164.525 -0.540444 -1.51552 0
M  V30 1654 O 165.717 -0.796157 -1.58083 0
M  V30 1655 C 162.846 -1.8106 -2.91672 0
M  V30 1656 C 161.932 -3.01424 -2.98336 0
M  V30 1657 N 162.323 -4.2467 -2.74752 0
M  V30 1658 C 160.621 -3.00584 -3.29493 0
M  V30 1659 C 161.322 -5.05891 -2.87139 0
M  V30 1660 N 160.298 -4.40442 -3.18609 0
M  V30 1661 H 164.1 -2.61598 -1.33954 0
M  V30 1662 H 161.614 -1.4886 -0.6492 0
M  V30 1663 H 163.611 -1.91609 -3.70259 0
M  V30 1664 H 162.271 -0.892795 -3.12185 0
M  V30 1665 H 163.282 -4.53691 -2.49769 0
M  V30 1666 H 159.959 -2.18417 -3.55809 0
M  V30 1667 H 161.349 -6.13983 -2.72899 0
M  V30 1668 N 164.069 0.697108 -1.41344 0
M  V30 1669 C 165.318 1.45279 -1.39918 0
M  V30 1670 C 165.631 1.95597 -0.0109624 0
M  V30 1671 O 166.837 2.71208 0.125919 0
M  V30 1672 C 165.293 2.62695 -2.46007 0
M  V30 1673 C 164.901 2.19169 -3.90729 0
M  V30 1674 C 166.645 3.40336 -2.53715 0
M  V30 1675 C 164.552 3.33535 -4.88373 0
M  V30 1676 H 163.482 0.545692 -0.520323 0
M  V30 1677 H 166.133 0.756929 -1.67161 0
M  V30 1678 H 164.515 3.34541 -2.11892 0
M  V30 1679 H 165.689 1.54623 -4.34083 0
M  V30 1680 H 164.004 1.54525 -3.86666 0
M  V30 1681 H 166.601 4.2547 -3.2385 0
M  V30 1682 H 166.944 3.85418 -1.5735 0
M  V30 1683 H 167.477 2.75546 -2.86913 0
M  V30 1684 H 164.216 2.93468 -5.86137 0
M  V30 1685 H 163.736 3.96936 -4.49668 0
M  V30 1686 H 165.415 3.99335 -5.09059 0
M  V30 1687 N 165.547 1.27147 0.931209 0
M  V30 1688 C 166.494 1.09568 2.03134 0
M  V30 1689 C 167.464 -0.00222433 1.661 0
M  V30 1690 O 168.649 0.159439 1.90133 0
M  V30 1691 C 165.789 0.745231 3.36957 0
M  V30 1692 C 164.902 1.92041 3.86968 0
M  V30 1693 C 164.037 1.51216 5.09222 0
M  V30 1694 C 163.076 2.65504 5.5152 0
M  V30 1695 N 162.213 2.25291 6.64972 0
M  V30 1696 H 167.053 2.03708 2.17502 0
M  V30 1697 H 164.59 1.01411 1.06556 0
M  V30 1698 H 166.548 0.522878 4.1391 0
M  V30 1699 H 165.178 -0.159202 3.22407 0
M  V30 1700 H 164.23 2.25541 3.06326 0
M  V30 1701 H 165.542 2.77787 4.1429 0
M  V30 1702 H 164.696 1.25084 5.93666 0
M  V30 1703 H 163.435 0.625749 4.83669 0
M  V30 1704 H 162.44 2.92354 4.65628 0
M  V30 1705 H 163.665 3.54761 5.7907 0
M  V30 1706 H 161.611 1.39098 6.41083 0
M  V30 1707 H 161.528 3.04577 6.91931 0
M  V30 1708 H 162.796 2.02398 7.52765 0
M  V30 1709 N 167.025 -1.13721 1.09112 0
M  V30 1710 C 167.935 -2.22638 0.73957 0
M  V30 1711 C 168.951 -1.72091 -0.257068 0
M  V30 1712 O 170.127 -2.01155 -0.0992154 0
M  V30 1713 C 167.192 -3.46322 0.16191 0
M  V30 1714 C 166.253 -4.11775 1.21408 0
M  V30 1715 C 165.486 -5.29555 0.663891 0
M  V30 1716 O 165.709 -5.68077 -0.514274 0
M  V30 1717 O 164.643 -5.84973 1.41738 0
M  V30 1718 H 168.469 -2.55074 1.64836 0
M  V30 1719 H 166.054 -1.21791 0.865289 0
M  V30 1720 H 167.936 -4.21107 -0.157073 0
M  V30 1721 H 166.611 -3.15593 -0.719932 0
M  V30 1722 H 165.518 -3.3883 1.58571 0
M  V30 1723 H 166.851 -4.46627 2.06845 0
M  V30 1724 N 168.503 -0.877838 -1.30888 0
M  V30 1725 C 169.433 -0.35534 -2.3078 0
M  V30 1726 C 170.414 0.557994 -1.60687 0
M  V30 1727 O 171.599 0.473355 -1.88343 0
M  V30 1728 C 168.729 0.437221 -3.44537 0
M  V30 1729 C 167.683 -0.383715 -4.26276 0
M  V30 1730 C 167.009 0.535014 -5.32017 0
M  V30 1731 C 168.309 -1.62201 -4.96476 0
M  V30 1732 H 170.003 -1.19007 -2.74732 0
M  V30 1733 H 167.549 -0.573698 -1.32078 0
M  V30 1734 H 169.502 0.813334 -4.13477 0
M  V30 1735 H 168.226 1.30553 -2.99372 0
M  V30 1736 H 166.885 -0.741874 -3.59015 0
M  V30 1737 H 166.533 1.40083 -4.831 0
M  V30 1738 H 166.233 -0.0104211 -5.87599 0
M  V30 1739 H 167.757 0.907799 -6.03814 0
M  V30 1740 H 169.171 -1.31689 -5.5797 0
M  V30 1741 H 167.568 -2.10711 -5.61891 0
M  V30 1742 H 168.638 -2.37044 -4.23011 0
M  V30 1743 N 169.982 1.44106 -0.638065 0
M  V30 1744 C 171.228 2.02277 -0.145546 0
M  V30 1745 C 171.561 1.50125 1.23191 0
M  V30 1746 O 170.836 0.688133 1.8192 0
M  V30 1747 C 171.119 3.59829 -0.139791 0
M  V30 1748 C 170.972 4.22247 -1.55008 0
M  V30 1749 C 172.291 4.36873 0.531966 0
M  V30 1750 H 169.41 0.734992 -0.0543632 0
M  V30 1751 H 172.052 1.71592 -0.815863 0
M  V30 1752 H 170.202 3.86102 0.431007 0
M  V30 1753 H 171.874 4.07057 -2.1703 0
M  V30 1754 H 170.117 3.79476 -2.10191 0
M  V30 1755 H 170.788 5.31284 -1.49804 0
M  V30 1756 H 173.264 4.16074 0.0464781 0
M  V30 1757 H 172.14 5.4657 0.505206 0
M  V30 1758 H 172.401 4.11995 1.60352 0
M  V30 1759 N 171.46 0.379036 1.52974 0
M  V30 1760 C 172.737 -0.263479 1.93817 0
M  V30 1761 C 173.117 -1.65244 1.31368 0
M  V30 1762 O 172.465 -2.23448 0.477856 0
M  V30 1763 C 172.675 -0.300166 3.47707 0
M  V30 1764 C 174.023 -0.534061 4.21228 0
M  V30 1765 O 175.047 -0.38081 3.54159 0
M  V30 1766 O 173.906 -0.833501 5.40106 0
M  V30 1767 H 171 -0.161149 0.811147 0
M  V30 1768 H 173.546 0.432798 1.64088 0
M  V30 1769 H 172.318 0.673138 3.85467 0
M  V30 1770 H 171.941 -1.04179 3.83709 0
M  V30 1771 N 172.938 -1.57226 0.108567 0
M  V30 1772 C 174.215 -1.86333 -0.594939 0
M  V30 1773 C 174.595 -1.00788 -1.85486 0
M  V30 1774 O 173.943 -0.0839293 -2.28346 0
M  V30 1775 C 174.153 -3.37265 -0.897405 0
M  V30 1776 C 175.501 -4.05629 -1.25501 0
M  V30 1777 O 176.525 -3.42224 -0.987998 0
M  V30 1778 O 175.384 -5.17531 -1.75567 0
M  V30 1779 H 172.478 -0.771018 -0.2991 0
M  V30 1780 H 175.024 -1.69102 0.142283 0
M  V30 1781 H 173.796 -3.913 -0.00413806 0
M  V30 1782 H 173.419 -3.59889 -1.69014 0
M  V30 1783 N 174.416 0.165178 -1.56732 0
M  V30 1784 C 175.641 0.900253 -1.86843 0
M  V30 1785 C 176.066 1.74766 -0.695596 0
M  V30 1786 O 175.424 1.77786 0.35522 0
M  V30 1787 C 175.472 1.74777 -3.15413 0
M  V30 1788 O 174.576 2.85007 -2.98068 0
M  V30 1789 H 173.917 0.251832 -0.614391 0
M  V30 1790 H 176.447 0.161468 -2.03962 0
M  V30 1791 H 176.457 2.14646 -3.46974 0
M  V30 1792 H 175.132 1.12537 -4.00385 0
M  V30 1793 H 173.709 2.48676 -2.77875 0
M  V30 1794 N 175.894 1.51508 0.433938 0
M  V30 1795 C 177.14 1.64588 1.18484 0
M  V30 1796 C 177.473 0.362666 1.90784 0
M  V30 1797 O 176.748 -0.637892 1.83742 0
M  V30 1798 C 177.031 2.85149 2.19913 0
M  V30 1799 C 176.884 4.23456 1.51674 0
M  V30 1800 C 178.203 3.01227 3.20858 0
M  V30 1801 H 175.322 0.598994 0.429389 0
M  V30 1802 H 177.964 1.84002 0.473647 0
M  V30 1803 H 176.114 2.68729 2.80566 0
M  V30 1804 H 177.786 4.51552 0.943322 0
M  V30 1805 H 176.029 4.25998 0.819035 0
M  V30 1806 H 176.7 5.03812 2.2556 0
M  V30 1807 H 179.176 3.16382 2.70263 0
M  V30 1808 H 178.052 3.87141 3.89118 0
M  V30 1809 H 178.313 2.13447 3.8716 0
M  V30 1810 N 177.372 -0.689602 1.41712 0
M  V30 1811 C 178.32 -1.82475 1.44242 0
M  V30 1812 C 179.314 -1.66354 0.319774 0
M  V30 1813 O 180.52 -1.73143 0.492089 0
M  V30 1814 H 176.895 -0.601416 0.451445 0
M  V30 1815 H 178.866 -1.77458 2.39899 0
M  V30 1816 C 177.615 -3.20535 1.3473 0
M  V30 1817 H 176.938 -3.33559 2.20405 0
M  V30 1818 H 178.378 -4.00023 1.40562 0
M  V30 1819 C 176.837 -3.36846 0.0603281 0
M  V30 1820 O 177.367 -3.91656 -0.892663 0
M  V30 1821 N 175.573 -2.90595 -0.0177039 0
M  V30 1822 H 175.12 -2.46178 0.758572 0
M  V30 1823 H 175.078 -3.01886 -0.878201 0
M  V30 1824 N 178.85 -1.27639 -0.924453 0
M  V30 1825 C 179.798 -1.10485 -2.04685 0
M  V30 1826 C 180.792 -0.0270421 -1.69378 0
M  V30 1827 O 181.998 -0.185008 -1.79047 0
M  V30 1828 H 178.373 -0.340546 -0.670472 0
M  V30 1829 H 180.344 -2.05566 -2.16298 0
M  V30 1830 C 179.093 -0.772229 -3.39016 0
M  V30 1831 H 178.416 -1.59351 -3.66671 0
M  V30 1832 H 179.856 -0.692097 -4.18313 0
M  V30 1833 C 178.315 0.523554 -3.32807 0
M  V30 1834 O 178.845 1.55702 -3.70297 0
M  V30 1835 N 177.051 0.520363 -2.85903 0
M  V30 1836 H 176.598 -0.32107 -2.55591 0
M  V30 1837 H 176.556 1.38742 -2.82131 0
M  V30 1838 N 180.328 1.1314 -1.09713 0
M  V30 1839 C 181.574 1.84757 -0.836224 0
M  V30 1840 C 181.907 1.8347 0.636598 0
M  V30 1841 O 181.182 1.27491 1.46889 0
M  V30 1842 C 181.465 3.32782 -1.37578 0
M  V30 1843 C 181.318 3.42567 -2.91493 0
M  V30 1844 C 182.637 4.28307 -1.01198 0
M  V30 1845 H 179.756 0.67082 -0.305236 0
M  V30 1846 H 182.398 1.3278 -1.35903 0
M  V30 1847 H 180.548 3.77177 -0.931097 0
M  V30 1848 H 182.22 3.06862 -3.44432 0
M  V30 1849 H 180.463 2.83349 -3.28475 0
M  V30 1850 H 181.134 4.46674 -3.24324 0
M  V30 1851 H 183.61 3.91999 -1.39556 0
M  V30 1852 H 182.486 5.30307 -1.41653 0
M  V30 1853 H 182.747 4.42029 0.0794833 0
M  V30 1854 N 181.806 0.884767 1.30421 0
M  V30 1855 C 183.222 0.57874 1.48737 0
M  V30 1856 C 183.422 -0.883567 1.81095 0
M  V30 1857 O 182.478 -1.6648 1.89844 0
M  V30 1858 C 183.791 1.49171 2.61091 0
M  V30 1859 C 185.339 1.49532 2.74971 0
M  V30 1860 C 185.814 2.39421 3.90438 0
M  V30 1861 N 187.305 2.37383 3.97748 0
M  V30 1862 C 188.04 3.03647 4.86401 0
M  V30 1863 N 187.536 3.79136 5.79852 0
M  V30 1864 N 189.329 2.9288 4.79768 0
M  V30 1865 H 181.48 1.83075 1.0769 0
M  V30 1866 H 183.743 0.783637 0.533495 0
M  V30 1867 H 183.449 2.53291 2.44001 0
M  V30 1868 H 183.323 1.20113 3.57565 0
M  V30 1869 H 185.71 0.46163 2.91467 0
M  V30 1870 H 185.791 1.8262 1.79119 0
M  V30 1871 H 185.435 3.42874 3.74699 0
M  V30 1872 H 185.365 2.03649 4.85628 0
M  V30 1873 H 187.856 1.82525 3.30897 0
M  V30 1874 H 188.169 4.26789 6.4426 0
M  V30 1875 H 186.514 3.83243 5.79784 0
M  V30 1876 H 189.705 2.33433 4.05742 0
M  V30 1877 H 189.878 3.448 5.4865 0
M  V30 1878 N 183.284 -1.43765 0.645699 0
M  V30 1879 C 184.231 -2.30745 -0.0504648 0
M  V30 1880 C 185.201 -1.4432 -0.822241 0
M  V30 1881 O 186.386 -1.73202 -0.800358 0
M  V30 1882 C 183.526 -3.29802 -1.0161 0
M  V30 1883 C 182.639 -4.31326 -0.241219 0
M  V30 1884 C 181.774 -5.17469 -1.19998 0
M  V30 1885 C 180.813 -6.10691 -0.415094 0
M  V30 1886 N 179.95 -6.89483 -1.32506 0
M  V30 1887 H 184.79 -2.8973 0.697155 0
M  V30 1888 H 182.327 -1.42738 0.355563 0
M  V30 1889 H 184.285 -3.85734 -1.58949 0
M  V30 1890 H 182.915 -2.72483 -1.73069 0
M  V30 1891 H 181.967 -3.77749 0.448334 0
M  V30 1892 H 183.279 -4.9743 0.369437 0
M  V30 1893 H 182.433 -5.7799 -1.84424 0
M  V30 1894 H 181.172 -4.51473 -1.84455 0
M  V30 1895 H 180.177 -5.49265 0.242565 0
M  V30 1896 H 181.402 -6.78727 0.224966 0
M  V30 1897 H 179.348 -6.26142 -1.95657 0
M  V30 1898 H 179.265 -7.52081 -0.768783 0
M  V30 1899 H 180.533 -7.54516 -1.9577 0
M  V30 1900 N 184.763 -0.387143 -1.52771 0
M  V30 1901 C 186.04 0.253197 -1.93954 0
M  V30 1902 C 186.42 1.64545 -1.32243 0
M  V30 1903 O 185.768 2.23191 -0.489699 0
M  V30 1904 C 185.978 0.281722 -3.47861 0
M  V30 1905 C 187.326 0.511715 -4.21505 0
M  V30 1906 O 188.35 0.362023 -3.54356 0
M  V30 1907 O 187.209 0.804847 -5.40541 0
M  V30 1908 H 184.303 0.156845 -0.811991 0
M  V30 1909 H 186.849 -0.441494 -1.63856 0
M  V30 1910 H 185.621 -0.693571 -3.85104 0
M  V30 1911 H 185.244 1.02142 -3.84256 0
M  V30 1912 N 186.241 1.57166 -0.116904 0
M  V30 1913 C 187.518 1.86645 0.585049 0
M  V30 1914 C 187.898 1.0177 1.84949 0
M  V30 1915 O 187.246 0.0960379 2.28298 0
M  V30 1916 C 187.456 3.37736 0.879507 0
M  V30 1917 C 188.804 4.06289 1.23348 0
M  V30 1918 O 189.828 3.42743 0.969836 0
M  V30 1919 O 188.687 5.18455 1.7282 0
M  V30 1920 H 185.781 0.772593 0.295007 0
M  V30 1921 H 188.327 1.69025 -0.151249 0
M  V30 1922 H 187.099 3.91296 -0.0166136 0
M  V30 1923 H 186.722 3.6078 1.67103 0
M  V30 1924 N 187.719 -0.156864 1.56817 0
M  V30 1925 C 189.13 -0.717916 1.72345 0
M  V30 1926 C 189.481 -1.82124 0.729747 0
M  V30 1927 O 188.606 -2.16141 -0.105781 0
M  V30 1928 C 189.201 -1.30904 3.12489 0
M  V30 1929 C 187.76 -1.81676 3.29653 0
M  V30 1930 C 186.907 -0.701349 2.68284 0
M  V30 1931 H 189.858 0.0686989 1.58551 0
M  V30 1932 H 189.879 -2.17882 3.11942 0
M  V30 1933 H 189.391 -0.505796 3.8479 0
M  V30 1934 H 187.492 -2.64598 2.62333 0
M  V30 1935 H 187.605 -1.95226 4.3752 0
M  V30 1936 H 185.969 -1.12548 2.28484 0
M  V30 1937 H 186.752 0.0902846 3.43181 0
M  V30 1938 N 189.197 -1.51736 -0.425897 0
M  V30 1939 C 190.425 -1.68794 -1.1965 0
M  V30 1940 C 190.84 -0.390164 -1.84725 0
M  V30 1941 O 190.197 0.632376 -1.71194 0
M  V30 1942 C 190.248 -2.81174 -2.27208 0
M  V30 1943 O 189.969 -4.05925 -1.64793 0
M  V30 1944 C 191.47 -3.09599 -3.17275 0
M  V30 1945 H 188.69 -0.566128 -0.360194 0
M  V30 1946 H 191.234 -1.98211 -0.503249 0
M  V30 1947 H 189.389 -2.54324 -2.9223 0
M  V30 1948 H 189.803 -4.68423 -2.35967 0
M  V30 1949 H 191.277 -3.91786 -3.88854 0
M  V30 1950 H 191.754 -2.22468 -3.78688 0
M  V30 1951 H 192.36 -3.38151 -2.57941 0
M  V30 1952 N 190.675 0.682077 -1.42076 0
M  V30 1953 C 191.605 1.80796 -1.47767 0
M  V30 1954 C 192.586 1.6677 -0.334954 0
M  V30 1955 O 193.771 1.863 -0.548264 0
M  V30 1956 C 190.901 3.19038 -1.37229 0
M  V30 1957 C 189.855 3.47789 -2.49453 0
M  V30 1958 C 189.181 4.8553 -2.23975 0
M  V30 1959 C 190.481 3.45411 -3.91776 0
M  V30 1960 H 192.175 1.7629 -2.41997 0
M  V30 1961 H 189.721 0.846721 -1.16476 0
M  V30 1962 H 191.674 3.97528 -1.39821 0
M  V30 1963 H 190.398 3.24204 -0.394907 0
M  V30 1964 H 189.057 2.71657 -2.46166 0
M  V30 1965 H 188.705 4.87337 -1.24547 0
M  V30 1966 H 188.405 5.0573 -2.99184 0
M  V30 1967 H 189.929 5.66312 -2.28304 0
M  V30 1968 H 191.343 4.13882 -3.96705 0
M  V30 1969 H 189.74 3.77145 -4.66778 0
M  V30 1970 H 190.81 2.44122 -4.18966 0
M  V30 1971 N 192.153 1.28127 0.917671 0
M  V30 1972 C 193.083 1.14248 2.03641 0
M  V30 1973 C 194.064 0.0412748 1.7005 0
M  V30 1974 O 195.249 0.217566 1.92977 0
M  V30 1975 C 192.379 0.799431 3.37974 0
M  V30 1976 C 191.333 1.85497 3.85713 0
M  V30 1977 C 190.659 1.36565 5.16966 0
M  V30 1978 C 191.959 3.26085 4.08002 0
M  V30 1979 H 193.653 2.07835 2.15511 0
M  V30 1980 H 191.199 1.00064 1.03553 0
M  V30 1981 H 193.152 0.689114 4.15727 0
M  V30 1982 H 191.876 -0.172145 3.26146 0
M  V30 1983 H 190.535 1.95437 3.10161 0
M  V30 1984 H 190.183 0.383253 5.01538 0
M  V30 1985 H 189.883 2.07143 5.49878 0
M  V30 1986 H 191.407 1.26848 5.97279 0
M  V30 1987 H 192.821 3.19089 4.76293 0
M  V30 1988 H 191.218 3.94462 4.52238 0
M  V30 1989 H 192.288 3.70394 3.12948 0
M  V30 1990 N 193.631 -1.12557 1.10312 0
M  V30 1991 C 194.856 -1.88405 0.867085 0
M  V30 1992 C 195.281 -1.79038 -0.576817 0
M  V30 1993 O 194.639 -1.14439 -1.40618 0
M  V30 1994 C 194.687 -3.3563 1.31851 0
M  V30 1995 O 193.791 -4.09565 0.482734 0
M  V30 1996 H 193.132 -0.585455 0.313271 0
M  V30 1997 H 195.662 -1.42352 1.4696 0
M  V30 1998 H 195.672 -3.86469 1.3079 0
M  V30 1999 H 194.347 -3.41765 2.37001 0
M  V30 2000 H 192.924 -3.68695 0.558448 0
M  V30 2001 N 195.109 -0.891671 -1.2995 0
M  V30 2002 C 196.334 -0.527932 -2.00568 0
M  V30 2003 C 196.759 0.877969 -1.66353 0
M  V30 2004 O 196.117 1.58301 -0.883762 0
M  V30 2005 C 196.165 -0.717745 -3.53385 0
M  V30 2006 O 195.269 0.233376 -4.11739 0
M  V30 2007 H 194.61 -0.20722 -0.630837 0
M  V30 2008 H 197.14 -1.20105 -1.65638 0
M  V30 2009 H 197.15 -0.619307 -4.03272 0
M  V30 2010 H 195.825 -1.74276 -3.77625 0
M  V30 2011 H 194.402 0.0880706 -3.72796 0
M  V30 2012 N 196.587 1.43421 -0.653314 0
M  V30 2013 C 197.835 2.01414 -0.166415 0
M  V30 2014 C 198.156 1.51803 1.22397 0
M  V30 2015 O 197.426 0.730693 1.81763 0
M  V30 2016 H 196.006 0.744703 -0.0585319 0
M  V30 2017 H 198.668 1.75629 -0.845003 0
M  V30 2018 H 197.764 3.11734 -0.151111 0
M  V30 2019 N 198.065 0.39524 1.52563 0
M  V30 2020 C 199.481 0.0454682 1.59535 0
M  V30 2021 C 199.681 -1.44056 1.4089 0
M  V30 2022 O 198.737 -2.20579 1.22888 0
M  V30 2023 C 200.05 0.527963 2.96029 0
M  V30 2024 C 201.598 0.484733 3.09224 0
M  V30 2025 C 202.073 0.943512 4.48176 0
M  V30 2026 N 203.564 0.899765 4.54377 0
M  V30 2027 C 204.299 1.22609 5.60138 0
M  V30 2028 N 203.795 1.62319 6.73516 0
M  V30 2029 N 205.588 1.14696 5.50274 0
M  V30 2030 H 197.739 1.36261 1.62931 0
M  V30 2031 H 200.002 0.558887 0.765735 0
M  V30 2032 H 199.708 1.56607 3.14908 0
M  V30 2033 H 199.582 -0.0698056 3.77135 0
M  V30 2034 H 201.969 -0.544298 2.90037 0
M  V30 2035 H 202.05 1.11838 2.30056 0
M  V30 2036 H 201.694 1.9708 4.68104 0
M  V30 2037 H 201.624 0.286817 5.25818 0
M  V30 2038 H 204.115 0.607632 3.72983 0
M  V30 2039 H 204.428 1.85567 7.5019 0
M  V30 2040 H 202.773 1.66211 6.74833 0
M  V30 2041 H 205.964 0.835701 4.6058 0
M  V30 2042 H 206.137 1.40459 6.32594 0
M  V30 2043 N 199.544 -1.57102 0.125237 0
M  V30 2044 C 200.79 -1.95697 -0.532035 0
M  V30 2045 C 201.123 -1.009 -1.6593 0
M  V30 2046 O 200.398 -0.047347 -1.94442 0
M  V30 2047 C 200.681 -3.44181 -1.05884 0
M  V30 2048 C 200.534 -4.49752 0.0654392 0
M  V30 2049 C 201.853 -3.94655 -1.9477 0
M  V30 2050 H 198.972 -0.711571 -0.191925 0
M  V30 2051 H 201.614 -1.88923 0.20206 0
M  V30 2052 H 199.764 -3.50085 -1.68442 0
M  V30 2053 H 201.436 -4.55943 0.700982 0
M  V30 2054 H 199.679 -4.27653 0.727709 0
M  V30 2055 H 200.35 -5.50924 -0.344505 0
M  V30 2056 H 202.826 -3.91094 -1.42074 0
M  V30 2057 H 201.702 -4.99057 -2.28546 0
M  V30 2058 H 201.963 -3.35718 -2.87656 0
M  V30 2059 N 201.022 0.148545 -1.56898 0
M  V30 2060 C 201.954 1.20852 -1.9475 0
M  V30 2061 C 202.967 1.39265 -0.843152 0
M  V30 2062 O 204.156 1.38864 -1.12156 0
M  V30 2063 C 201.256 2.57362 -2.20495 0
M  V30 2064 C 200.429 2.59947 -3.51776 0
M  V30 2065 C 199.488 3.77984 -3.6608 0
M  V30 2066 O 198.514 3.62929 -4.38487 0
M  V30 2067 N 199.716 4.95375 -3.02629 0
M  V30 2068 H 202.481 0.886804 -2.86279 0
M  V30 2069 H 200.042 0.338121 -1.5833 0
M  V30 2070 H 202.034 3.34833 -2.27307 0
M  V30 2071 H 200.604 2.81832 -1.35238 0
M  V30 2072 H 199.824 1.68403 -3.56419 0
M  V30 2073 H 201.112 2.58704 -4.38121 0
M  V30 2074 H 200.51 5.10509 -2.43715 0
M  V30 2075 H 199.067 5.70627 -3.15004 0
M  V30 2076 N 202.5 1.5196 0.417844 0
M  V30 2077 C 203.43 1.77634 1.51554 0
M  V30 2078 C 204.411 0.626918 1.58126 0
M  V30 2079 O 205.596 0.871632 1.7354 0
M  V30 2080 C 202.726 1.91911 2.8946 0
M  V30 2081 C 201.68 3.07463 2.97743 0
M  V30 2082 C 201.006 3.06951 4.37819 0
M  V30 2083 C 202.306 4.47082 2.70027 0
M  V30 2084 H 204 2.6955 1.3032 0
M  V30 2085 H 201.546 1.29706 0.625492 0
M  V30 2086 H 203.499 2.08455 3.6623 0
M  V30 2087 H 202.223 0.966598 3.11969 0
M  V30 2088 H 200.882 2.90656 2.23416 0
M  V30 2089 H 200.53 2.09438 4.57323 0
M  V30 2090 H 200.23 3.84556 4.44286 0
M  V30 2091 H 201.754 3.25613 5.16535 0
M  V30 2092 H 203.168 4.6414 3.36522 0
M  V30 2093 H 201.565 5.2654 2.87881 0
M  V30 2094 H 202.635 4.55777 1.65514 0
M  V30 2095 N 203.978 -0.674533 1.42435 0
M  V30 2096 C 205.224 -1.43671 1.43131 0
M  V30 2097 C 205.557 -1.94142 0.0476021 0
M  V30 2098 O 204.832 -1.70924 -0.928188 0
M  V30 2099 C 205.115 -2.63355 2.45594 0
M  V30 2100 C 204.968 -2.18514 3.93156 0
M  V30 2101 C 206.287 -3.65571 2.45043 0
M  V30 2102 H 203.406 -0.521077 0.521198 0
M  V30 2103 H 206.048 -0.766551 1.7385 0
M  V30 2104 H 204.198 -3.2053 2.19528 0
M  V30 2105 H 205.87 -1.66504 4.30202 0
M  V30 2106 H 204.113 -1.50086 4.07009 0
M  V30 2107 H 204.784 -3.04484 4.60428 0
M  V30 2108 H 207.26 -3.18113 2.68223 0
M  V30 2109 H 206.136 -4.46893 3.18713 0
M  V30 2110 H 206.397 -4.16716 1.47649 0
M  V30 2111 N 205.456 -1.28612 -0.910864 0
M  V30 2112 C 206.702 -1.16106 -1.66274 0
M  V30 2113 C 207.035 0.289113 -1.92036 0
M  V30 2114 O 206.31 1.21 -1.52281 0
M  V30 2115 C 206.593 -1.96309 -3.01885 0
M  V30 2116 C 206.446 -3.49405 -2.8326 0
M  V30 2117 C 207.765 -1.78076 -4.02463 0
M  V30 2118 H 204.884 -0.423152 -0.603417 0
M  V30 2119 H 207.526 -1.57961 -1.05586 0
M  V30 2120 H 205.676 -1.60742 -3.53687 0
M  V30 2121 H 207.348 -3.94894 -2.38446 0
M  V30 2122 H 205.591 -3.74893 -2.18261 0
M  V30 2123 H 206.262 -4.00784 -3.79574 0
M  V30 2124 H 208.738 -2.0912 -3.59733 0
M  V30 2125 H 207.614 -2.36561 -4.95308 0
M  V30 2126 H 207.875 -0.733008 -4.35981 0
M  V30 2127 N 206.934 1.1197 -1.10907 0
M  V30 2128 C 208.182 1.83225 -0.852819 0
M  V30 2129 C 208.503 1.84769 0.623341 0
M  V30 2130 O 207.773 1.3143 1.45269 0
M  V30 2131 H 206.353 0.67849 -0.312507 0
M  V30 2132 H 209.015 1.3556 -1.40033 0
M  V30 2133 H 208.111 2.87265 -1.22005 0
M  V30 2134 N 208.412 0.89855 1.29475 0
M  V30 2135 C 209.689 0.443416 1.90508 0
M  V30 2136 C 210.069 -1.07685 1.81569 0
M  V30 2137 O 209.417 -1.9182 1.24166 0
M  V30 2138 C 209.627 0.956708 3.35631 0
M  V30 2139 C 210.975 0.999728 4.12663 0
M  V30 2140 O 211.999 0.904299 3.4453 0
M  V30 2141 O 210.858 1.14289 5.34416 0
M  V30 2142 H 207.952 0.138025 0.815401 0
M  V30 2143 H 210.498 0.98834 1.37949 0
M  V30 2144 H 209.27 2.00067 3.36287 0
M  V30 2145 H 208.893 0.391728 3.95666 0
M  V30 2146 N 209.89 -1.43072 0.660911 0
M  V30 2147 C 211.138 -2.01323 0.177094 0
M  V30 2148 C 211.459 -1.5245 -1.2159 0
M  V30 2149 O 210.729 -0.740322 -1.81373 0
M  V30 2150 H 209.309 -0.744382 0.0624804 0
M  V30 2151 H 211.971 -1.75179 0.854305 0
M  V30 2152 H 211.067 -3.11649 0.167641 0
M  V30 2153 N 211.368 -0.403325 -1.52352 0
M  V30 2154 C 212.784 -0.0539281 -1.59509 0
M  V30 2155 C 212.984 1.43307 -1.41652 0
M  V30 2156 O 212.04 2.19924 -1.24056 0
M  V30 2157 C 213.353 -0.543654 -2.95745 0
M  V30 2158 C 214.901 -0.501125 -3.08962 0
M  V30 2159 C 215.376 -0.967267 -4.47669 0
M  V30 2160 N 216.867 -0.923849 -4.53893 0
M  V30 2161 C 217.602 -1.25578 -5.5948 0
M  V30 2162 N 217.098 -1.65889 -6.72646 0
M  V30 2163 N 218.891 -1.17613 -5.49658 0
M  V30 2164 H 211.042 -1.37123 -1.62206 0
M  V30 2165 H 213.305 -0.56294 -0.76276 0
M  V30 2166 H 213.011 -1.58275 -3.14073 0
M  V30 2167 H 212.885 0.0498042 -3.77167 0
M  V30 2168 H 215.272 0.528909 -2.90321 0
M  V30 2169 H 215.353 -1.13056 -2.2946 0
M  V30 2170 H 214.997 -1.9956 -4.67053 0
M  V30 2171 H 214.927 -0.314698 -5.25659 0
M  V30 2172 H 217.418 -0.627403 -3.72655 0
M  V30 2173 H 217.731 -1.89543 -7.49195 0
M  V30 2174 H 216.076 -1.69787 -6.73942 0
M  V30 2175 H 219.267 -0.860115 -4.6013 0
M  V30 2176 H 219.44 -1.43812 -6.3184 0
M  V30 2177 N 212.846 1.57033 -0.133567 0
M  V30 2178 C 213.779 2.11824 0.848872 0
M  V30 2179 C 214.757 1.03833 1.2513 0
M  V30 2180 O 215.941 1.31579 1.34978 0
M  V30 2181 C 213.068 2.62692 2.138 0
M  V30 2182 C 212.114 3.82705 1.88253 0
M  V30 2183 S 212.947 5.2438 1.08563 0
M  V30 2184 C 214.103 5.78627 2.38624 0
M  V30 2185 H 214.336 2.94824 0.38289 0
M  V30 2186 H 211.869 1.5419 0.0804796 0
M  V30 2187 H 213.827 2.92652 2.87863 0
M  V30 2188 H 212.488 1.79847 2.57515 0
M  V30 2189 H 211.681 4.16496 2.83809 0
M  V30 2190 H 211.283 3.53437 1.22305 0
M  V30 2191 H 213.575 5.8924 3.34369 0
M  V30 2192 H 214.518 6.76443 2.09358 0
M  V30 2193 H 214.926 5.06783 2.48658 0
M  V30 2194 N 214.325 -0.140222 1.56975 0
M  V30 2195 C 215.573 -0.850005 1.83356 0
M  V30 2196 C 215.894 -1.81399 0.71551 0
M  V30 2197 O 215.164 -1.94136 -0.262294 0
M  V30 2198 H 213.744 -0.316886 0.676456 0
M  V30 2199 H 216.406 -0.132608 1.94448 0
M  V30 2200 H 215.502 -1.40814 2.78528 0
M  V30 2201 N 215.803 -1.52179 -0.40978 0
M  V30 2202 C 217.033 -1.69807 -1.17682 0
M  V30 2203 C 217.441 -0.406908 -1.84773 0
M  V30 2204 O 216.784 0.626863 -1.72673 0
M  V30 2205 C 216.846 -2.77712 -2.2829 0
M  V30 2206 C 216.51 -4.19481 -1.81341 0
M  V30 2207 C 217.507 -5.03345 -1.30154 0
M  V30 2208 C 215.192 -4.65713 -1.88194 0
M  V30 2209 C 217.186 -6.31511 -0.864416 0
M  V30 2210 C 214.873 -5.93869 -1.44093 0
M  V30 2211 C 215.871 -6.76597 -0.933023 0
M  V30 2212 O 215.559 -8.02354 -0.49838 0
M  V30 2213 H 215.291 -0.572372 -0.359675 0
M  V30 2214 H 217.845 -1.99511 -0.488311 0
M  V30 2215 H 216.075 -2.43383 -3.00502 0
M  V30 2216 H 217.764 -2.83946 -2.90051 0
M  V30 2217 H 218.53 -4.68819 -1.24232 0
M  V30 2218 H 214.409 -4.01424 -2.26671 0
M  V30 2219 H 217.953 -6.96033 -0.467286 0
M  V30 2220 H 213.85 -6.27903 -1.49694 0
M  V30 2221 H 214.618 -8.16135 -0.621747 0
M  V30 2222 N 217.281 0.66697 -1.42791 0
M  V30 2223 C 218.244 1.76211 -1.46568 0
M  V30 2224 C 219.244 1.56896 -0.352196 0
M  V30 2225 O 220.434 1.63044 -0.613364 0
M  V30 2226 C 217.566 3.14935 -1.30494 0
M  V30 2227 H 218.759 1.74247 -2.44086 0
M  V30 2228 H 216.312 0.877342 -1.29354 0
M  V30 2229 H 217.047 3.2252 -0.339301 0
M  V30 2230 H 216.832 3.30359 -2.11199 0
M  V30 2231 H 218.322 3.94821 -1.36038 0
M  V30 2232 N 218.759 1.29093 0.90403 0
M  V30 2233 C 219.669 1.15727 2.0407 0
M  V30 2234 C 220.685 0.0815308 1.73809 0
M  V30 2235 O 221.861 0.292749 1.99261 0
M  V30 2236 C 218.926 0.830424 3.36608 0
M  V30 2237 C 217.987 1.98955 3.80415 0
M  V30 2238 C 217.22 1.6782 5.06628 0
M  V30 2239 O 217.443 0.597105 5.67266 0
M  V30 2240 O 216.377 2.52486 5.46383 0
M  V30 2241 H 220.203 2.11171 2.18267 0
M  V30 2242 H 217.788 1.08504 1.027 0
M  V30 2243 H 219.67 0.662521 4.16159 0
M  V30 2244 H 218.345 -0.0942678 3.23563 0
M  V30 2245 H 217.252 2.21267 3.01648 0
M  V30 2246 H 218.585 2.89529 3.98037 0
M  V30 2247 N 220.237 -1.11381 1.11499 0
M  V30 2248 C 221.147 -2.21019 0.786628 0
M  V30 2249 C 222.163 -1.72597 -0.220507 0
M  V30 2250 O 223.339 -2.01321 -0.0565251 0
M  V30 2251 C 220.404 -3.459 0.235333 0
M  V30 2252 C 219.465 -4.09107 1.30115 0
M  V30 2253 C 218.698 -5.28027 0.776068 0
M  V30 2254 O 218.921 -5.6904 -0.393661 0
M  V30 2255 O 217.855 -5.81835 1.54114 0
M  V30 2256 H 221.681 -2.51521 1.70209 0
M  V30 2257 H 219.266 -1.19928 0.890928 0
M  V30 2258 H 221.148 -4.21346 -0.067715 0
M  V30 2259 H 219.823 -3.17049 -0.652828 0
M  V30 2260 H 218.73 -3.35391 1.65722 0
M  V30 2261 H 220.063 -4.42139 2.16273 0
M  V30 2262 N 221.715 -0.905404 -1.28997 0
M  V30 2263 C 222.678 -0.392253 -2.25819 0
M  V30 2264 C 223.678 0.476753 -1.5357 0
M  V30 2265 O 224.868 0.280994 -1.71919 0
M  V30 2266 C 222 0.438588 -3.38067 0
M  V30 2267 H 223.193 -1.24743 -2.72725 0
M  V30 2268 H 220.746 -0.684051 -1.40536 0
M  V30 2269 H 221.481 1.31352 -2.96508 0
M  V30 2270 H 221.266 -0.184167 -3.91667 0
M  V30 2271 H 222.756 0.78873 -4.10084 0
M  V30 2272 N 223.193 1.4272 -0.668489 0
M  V30 2273 C 224.604 1.84793 -0.266151 0
M  V30 2274 C 224.955 1.55959 1.19043 0
M  V30 2275 O 224.08 1.01622 1.91055 0
M  V30 2276 C 224.675 3.35436 -0.476271 0
M  V30 2277 C 223.234 3.76182 -0.128113 0
M  V30 2278 C 222.381 2.66344 -0.771777 0
M  V30 2279 H 225.332 1.32656 -0.871098 0
M  V30 2280 H 225.353 3.79515 0.273561 0
M  V30 2281 H 224.865 3.5639 -1.53647 0
M  V30 2282 H 222.966 3.60836 0.928891 0
M  V30 2283 H 223.079 4.75766 -0.564231 0
M  V30 2284 H 221.443 2.53885 -0.203652 0
M  V30 2285 H 222.226 2.90123 -1.83531 0
M  V30 2286 N 224.671 0.411399 1.52136 0
M  V30 2287 C 225.901 -0.16284 2.05957 0
M  V30 2288 C 226.309 -1.3922 1.28119 0
M  V30 2289 O 225.652 -1.80768 0.326881 0
M  V30 2290 C 225.714 -0.575946 3.54856 0
M  V30 2291 C 225.378 0.542998 4.53763 0
M  V30 2292 C 226.375 1.40726 5.00492 0
M  V30 2293 C 224.06 0.716337 4.97166 0
M  V30 2294 C 226.054 2.4298 5.8927 0
M  V30 2295 C 223.741 1.74218 5.8574 0
M  V30 2296 C 224.739 2.59731 6.31687 0
M  V30 2297 O 224.427 3.60558 7.18507 0
M  V30 2298 H 224.159 -0.0229125 0.675612 0
M  V30 2299 H 226.713 0.581634 1.96993 0
M  V30 2300 H 224.943 -1.37274 3.61515 0
M  V30 2301 H 226.632 -1.07836 3.91313 0
M  V30 2302 H 227.398 1.28476 4.67674 0
M  V30 2303 H 223.277 0.0603857 4.6096 0
M  V30 2304 H 226.821 3.0976 6.25055 0
M  V30 2305 H 222.718 1.86498 6.17971 0
M  V30 2306 H 223.486 3.56829 7.36624 0
M  V30 2307 N 226.149 -1.5696 0.141893 0
M  V30 2308 C 227.426 -1.87553 -0.555281 0
M  V30 2309 C 227.806 -1.04699 -1.83306 0
M  V30 2310 O 227.154 -0.132346 -2.28116 0
M  V30 2311 C 227.364 -3.39093 -0.825664 0
M  V30 2312 C 228.712 -4.08199 -1.16869 0
M  V30 2313 O 229.736 -3.44242 -0.915185 0
M  V30 2314 O 228.595 -5.21139 -1.6455 0
M  V30 2315 H 225.689 -0.777188 -0.282679 0
M  V30 2316 H 228.235 -1.68763 0.17812 0
M  V30 2317 H 227.007 -3.91221 0.0788633 0
M  V30 2318 H 226.63 -3.63393 -1.61343 0
M  V30 2319 N 227.627 0.131896 -1.57047 0
M  V30 2320 C 228.59 1.14638 -1.98471 0
M  V30 2321 C 229.59 1.35029 -0.873148 0
M  V30 2322 O 230.78 1.31764 -1.13946 0
M  V30 2323 C 227.912 2.50358 -2.31373 0
M  V30 2324 H 229.105 0.79064 -2.8929 0
M  V30 2325 H 226.658 0.375761 -1.51716 0
M  V30 2326 H 227.393 2.90876 -1.43393 0
M  V30 2327 H 227.178 2.36915 -3.12432 0
M  V30 2328 H 228.668 3.23395 -2.64207 0
M  V30 2329 N 229.106 1.52395 0.401703 0
M  V30 2330 C 230.355 1.66044 1.14509 0
M  V30 2331 C 230.668 0.400216 1.91462 0
M  V30 2332 O 231.874 0.416632 2.68284 0
M  V30 2333 C 230.33 2.93388 2.0845 0
M  V30 2334 C 229.938 4.26545 1.36978 0
M  V30 2335 C 231.682 3.16402 2.83001 0
M  V30 2336 C 229.589 5.45007 2.29611 0
M  V30 2337 H 228.519 0.618562 0.431158 0
M  V30 2338 H 231.17 1.78886 0.40892 0
M  V30 2339 H 229.552 2.74263 2.8565 0
M  V30 2340 H 230.726 4.56179 0.650916 0
M  V30 2341 H 229.041 4.09692 0.74438 0
M  V30 2342 H 231.638 4.02085 3.52465 0
M  V30 2343 H 231.981 2.30943 3.46368 0
M  V30 2344 H 232.514 3.36034 2.12898 0
M  V30 2345 H 229.253 6.32835 1.70879 0
M  V30 2346 H 228.773 5.19702 2.9945 0
M  V30 2347 H 230.452 5.7838 2.89974 0
M  V30 2348 N 230.584 -0.659388 1.43143 0
M  V30 2349 C 231.534 -1.7655 1.44271 0
M  V30 2350 C 232.518 -1.57847 0.311961 0
M  V30 2351 O 233.71 -1.68064 0.555306 0
M  V30 2352 C 230.839 -3.15104 1.36251 0
M  V30 2353 C 229.925 -3.39377 2.54331 0
M  V30 2354 N 230.316 -3.34153 3.79704 0
M  V30 2355 C 228.614 -3.70072 2.48922 0
M  V30 2356 C 229.315 -3.58337 4.58225 0
M  V30 2357 N 228.291 -3.79851 3.88863 0
M  V30 2358 H 232.093 -1.70928 2.39083 0
M  V30 2359 H 229.607 -0.860823 1.37708 0
M  V30 2360 H 231.604 -3.94389 1.35141 0
M  V30 2361 H 230.264 -3.21913 0.424531 0
M  V30 2362 H 231.275 -3.13704 4.1208 0
M  V30 2363 H 227.952 -3.84034 1.63781 0
M  V30 2364 H 229.342 -3.60129 5.67236 0
M  V30 2365 N 232.062 -1.29571 -0.897171 0
M  V30 2366 C 233.308 -1.17863 -1.65034 0
M  V30 2367 C 233.641 0.268729 -1.92332 0
M  V30 2368 O 232.916 1.19378 -1.53555 0
M  V30 2369 C 233.199 -1.995 -2.99786 0
M  V30 2370 C 233.052 -3.5239 -2.79538 0
M  V30 2371 C 234.371 -1.82335 -4.00552 0
M  V30 2372 H 231.49 -0.429528 -0.598895 0
M  V30 2373 H 234.132 -1.59072 -1.03905 0
M  V30 2374 H 232.282 -1.64485 -3.51962 0
M  V30 2375 H 233.954 -3.97401 -2.34244 0
M  V30 2376 H 232.197 -3.77187 -2.14273 0
M  V30 2377 H 232.868 -4.04787 -3.75302 0
M  V30 2378 H 235.344 -2.12924 -3.57495 0
M  V30 2379 H 234.22 -2.41801 -4.92771 0
M  V30 2380 H 234.481 -0.779209 -4.35179 0
M  V30 2381 N 233.54 1.10788 -1.12088 0
M  V30 2382 C 234.788 1.8231 -0.872205 0
M  V30 2383 C 235.109 1.85419 0.603709 0
M  V30 2384 O 234.379 1.32963 1.43867 0
M  V30 2385 H 232.959 0.675137 -0.319686 0
M  V30 2386 H 235.621 1.34068 -1.41463 0
M  V30 2387 H 234.717 2.85955 -1.25045 0
M  V30 2388 N 235.018 0.912232 1.28515 0
M  V30 2389 C 235.981 0.404223 2.25607 0
M  V30 2390 C 236.981 -0.468602 1.53821 0
M  V30 2391 O 238.171 -0.271873 1.72065 0
M  V30 2392 C 235.303 -0.420653 3.38295 0
M  V30 2393 H 236.496 1.26188 2.7206 0
M  V30 2394 H 234.049 0.691495 1.40171 0
M  V30 2395 H 234.784 -1.29777 2.97201 0
M  V30 2396 H 234.569 0.204935 3.91564 0
M  V30 2397 H 236.059 -0.766971 4.10496 0
M  V30 2398 N 236.496 -1.42363 0.676048 0
M  V30 2399 C 237.459 -2.29199 0.00766941 0
M  V30 2400 C 238.459 -1.43389 -0.727745 0
M  V30 2401 O 239.649 -1.64764 -0.56556 0
M  V30 2402 C 236.781 -3.2591 -0.999785 0
M  V30 2403 H 237.974 -2.89794 0.771988 0
M  V30 2404 H 235.527 -1.50024 0.438468 0
M  V30 2405 H 236.262 -2.70256 -1.79255 0
M  V30 2406 H 236.047 -3.89202 -0.475829 0
M  V30 2407 H 237.537 -3.91028 -1.46583 0
M  V30 2408 N 237.974 -0.419461 -1.51915 0
M  V30 2409 C 238.937 0.389116 -2.25873 0
M  V30 2410 C 239.937 0.964924 -1.28631 0
M  V30 2411 O 241.127 0.842179 -1.52489 0
M  V30 2412 C 238.259 1.54874 -3.03689 0
M  V30 2413 H 239.452 -0.258799 -2.98781 0
M  V30 2414 H 237.005 -0.172209 -1.55348 0
M  V30 2415 H 237.74 2.23323 -2.35154 0
M  V30 2416 H 237.525 1.14223 -3.75094 0
M  V30 2417 H 239.015 2.12046 -3.59759 0
M  V30 2418 N 239.452 1.56882 -0.150215 0
M  V30 2419 C 240.863 1.82995 0.370076 0
M  V30 2420 C 241.214 1.06907 1.64515 0
M  V30 2421 O 240.339 0.315369 2.1409 0
M  V30 2422 C 240.934 3.31942 0.678208 0
M  V30 2423 C 239.493 3.58625 1.14301 0
M  V30 2424 C 238.64 2.76792 0.167778 0
M  V30 2425 H 241.591 1.54209 -0.374858 0
M  V30 2426 H 241.612 3.48272 1.53254 0
M  V30 2427 H 241.124 3.87294 -0.249991 0
M  V30 2428 H 239.225 3.08664 2.08704 0
M  V30 2429 H 239.338 4.67073 1.06676 0
M  V30 2430 H 237.702 2.45972 0.661037 0
M  V30 2431 H 238.485 3.34916 -0.754069 0
M  V30 2432 N 240.93 -0.123565 1.57115 0
M  V30 2433 C 242.176 -0.833386 1.84885 0
M  V30 2434 C 242.509 -1.79742 0.735292 0
M  V30 2435 O 241.784 -1.92764 -0.25925 0
M  V30 2436 C 242.067 -1.5873 3.23228 0
M  V30 2437 C 241.92 -0.643183 4.45178 0
M  V30 2438 C 243.239 -2.54453 3.59085 0
M  V30 2439 H 240.358 -0.301518 0.6725 0
M  V30 2440 H 243 -0.097778 1.89748 0
M  V30 2441 H 241.15 -2.21438 3.19214 0
M  V30 2442 H 242.822 -0.0253015 4.61293 0
M  V30 2443 H 241.065 0.0456139 4.33776 0
M  V30 2444 H 241.736 -1.20724 5.38637 0
M  V30 2445 H 244.212 -2.01853 3.63861 0
M  V30 2446 H 243.088 -3.04238 4.5687 0
M  V30 2447 H 243.349 -3.36906 2.86264 0
M  V30 2448 N 242.408 -1.52605 -0.393616 0
M  V30 2449 C 243.654 -1.67672 -1.14079 0
M  V30 2450 C 243.987 -0.413121 -1.89755 0
M  V30 2451 O 243.262 0.588952 -1.85369 0
M  V30 2452 C 243.545 -2.9088 -2.12276 0
M  V30 2453 C 243.398 -4.27329 -1.40394 0
M  V30 2454 C 244.717 -3.09628 -3.12759 0
M  V30 2455 H 241.836 -0.610168 -0.413356 0
M  V30 2456 H 244.478 -1.85193 -0.424696 0
M  V30 2457 H 242.628 -2.76073 -2.73342 0
M  V30 2458 H 244.3 -4.53894 -0.82327 0
M  V30 2459 H 242.543 -4.2802 -0.705801 0
M  V30 2460 H 243.214 -5.09615 -2.12123 0
M  V30 2461 H 245.69 -3.23436 -2.61779 0
M  V30 2462 H 244.566 -3.97322 -3.78717 0
M  V30 2463 H 244.827 -2.23637 -3.81365 0
M  V30 2464 N 243.887 0.651787 -1.4349 0
M  V30 2465 C 245.298 1.233 -1.40193 0
M  V30 2466 C 245.649 1.9591 -0.106727 0
M  V30 2467 O 244.774 2.01316 0.793773 0
M  V30 2468 C 245.369 2.24257 -2.53957 0
M  V30 2469 C 243.928 2.77852 -2.5392 0
M  V30 2470 C 243.075 1.52517 -2.3159 0
M  V30 2471 H 246.026 0.443717 -1.52371 0
M  V30 2472 H 246.047 3.0646 -2.25528 0
M  V30 2473 H 245.559 1.71382 -3.4821 0
M  V30 2474 H 243.66 3.34786 -1.63551 0
M  V30 2475 H 243.773 3.25299 -3.51735 0
M  V30 2476 H 242.137 1.79915 -1.80285 0
M  V30 2477 H 242.92 1.01574 -3.27929 0
M  V30 2478 N 245.365 1.30045 0.890287 0
M  V30 2479 C 246.297 1.11786 2.00091 0
M  V30 2480 C 247.31 0.0626307 1.62679 0
M  V30 2481 O 248.499 0.308112 1.75821 0
M  V30 2482 C 245.599 0.681527 3.31977 0
M  V30 2483 C 244.772 1.81735 3.97858 0
M  V30 2484 C 243.831 1.37045 5.08041 0
M  V30 2485 O 242.857 2.07677 5.29961 0
M  V30 2486 N 244.059 0.246525 5.79976 0
M  V30 2487 H 246.824 2.07441 2.16306 0
M  V30 2488 H 244.385 1.2211 1.06305 0
M  V30 2489 H 246.377 0.365675 4.03045 0
M  V30 2490 H 244.947 -0.182828 3.12065 0
M  V30 2491 H 244.167 2.30159 3.20032 0
M  V30 2492 H 245.455 2.57865 4.38615 0
M  V30 2493 H 244.853 -0.34215 5.64664 0
M  V30 2494 H 243.41 -0.00990438 6.51799 0
M  V30 2495 N 246.843 -1.10192 1.12674 0
M  V30 2496 C 247.806 -2.14786 0.799979 0
M  V30 2497 C 248.806 -1.59711 -0.18685 0
M  V30 2498 O 249.996 -1.74156 0.0392558 0
M  V30 2499 C 247.128 -3.40374 0.189228 0
M  V30 2500 H 248.321 -2.45203 1.72671 0
M  V30 2501 H 245.874 -1.25597 0.930326 0
M  V30 2502 H 246.609 -3.15577 -0.747107 0
M  V30 2503 H 246.394 -3.81637 0.899766 0
M  V30 2504 H 247.884 -4.17594 -0.0228143 0
M  V30 2505 N 248.321 -0.919034 -1.28029 0
M  V30 2506 C 249.251 -0.428581 -2.29533 0
M  V30 2507 C 250.232 0.50659 -1.62381 0
M  V30 2508 O 251.417 0.413195 -1.89753 0
M  V30 2509 C 248.547 0.327388 -3.45753 0
M  V30 2510 C 247.501 -0.519137 -4.2484 0
M  V30 2511 C 246.827 0.365486 -5.33449 0
M  V30 2512 C 248.127 -1.77914 -4.91064 0
M  V30 2513 H 249.821 -1.27687 -2.70807 0
M  V30 2514 H 247.367 -0.615428 -1.30186 0
M  V30 2515 H 249.32 0.681378 -4.15855 0
M  V30 2516 H 248.044 1.20963 -3.03374 0
M  V30 2517 H 246.703 -0.855717 -3.56473 0
M  V30 2518 H 246.351 1.24642 -4.87312 0
M  V30 2519 H 246.051 -0.197356 -5.87268 0
M  V30 2520 H 247.575 0.715241 -6.06396 0
M  V30 2521 H 248.989 -1.49374 -5.53498 0
M  V30 2522 H 247.386 -2.2848 -5.54903 0
M  V30 2523 H 248.456 -2.50382 -4.15255 0
M  V30 2524 N 249.799 1.42003 -0.683588 0
M  V30 2525 C 251.048 2.00638 -0.206681 0
M  V30 2526 C 251.361 1.5472 1.19671 0
M  V30 2527 O 252.567 2.05833 1.77045 0
M  V30 2528 C 251.023 3.58487 -0.318632 0
M  V30 2529 C 250.631 4.1339 -1.72663 0
M  V30 2530 C 252.375 4.24384 0.0991141 0
M  V30 2531 C 250.282 5.63633 -1.79087 0
M  V30 2532 H 249.212 0.750408 -0.0735107 0
M  V30 2533 H 251.863 1.62624 -0.850048 0
M  V30 2534 H 250.245 3.94047 0.392781 0
M  V30 2535 H 251.419 3.89273 -2.46583 0
M  V30 2536 H 249.734 3.59976 -2.09299 0
M  V30 2537 H 252.331 5.34652 0.0713833 0
M  V30 2538 H 252.674 4.00505 1.13586 0
M  V30 2539 H 253.207 3.93816 -0.561599 0
M  V30 2540 H 249.946 5.92323 -2.80774 0
M  V30 2541 H 249.466 5.89714 -1.09535 0
M  V30 2542 H 251.145 6.28201 -1.5483 0
M  V30 2543 N 251.277 0.427512 1.51691 0
M  V30 2544 C 252.554 -0.201684 1.94557 0
M  V30 2545 C 252.934 -1.60981 1.36559 0
M  V30 2546 O 252.282 -2.21814 0.548702 0
M  V30 2547 C 252.492 -0.189394 3.48486 0
M  V30 2548 C 253.84 -0.39978 4.22714 0
M  V30 2549 O 254.864 -0.267945 3.55191 0
M  V30 2550 O 253.723 -0.661249 5.42485 0
M  V30 2551 H 250.817 -0.135261 0.815864 0
M  V30 2552 H 253.363 0.484782 1.62628 0
M  V30 2553 H 252.135 0.795431 3.8313 0
M  V30 2554 H 251.758 -0.919187 3.86829 0
M  V30 2555 N 252.755 -1.56801 0.158532 0
M  V30 2556 C 253.687 -2.14488 -0.807923 0
M  V30 2557 C 254.7 -1.09721 -1.20271 0
M  V30 2558 O 255.889 -1.36956 -1.14478 0
M  V30 2559 C 252.989 -2.66217 -2.09718 0
M  V30 2560 C 252.162 -3.95507 -1.86796 0
M  V30 2561 C 251.221 -4.3243 -2.99818 0
M  V30 2562 O 250.247 -5.00543 -2.71008 0
M  V30 2563 N 251.449 -3.92947 -4.27285 0
M  V30 2564 H 254.214 -2.98042 -0.314816 0
M  V30 2565 H 251.775 -1.61881 -0.0246692 0
M  V30 2566 H 253.767 -2.87924 -2.84398 0
M  V30 2567 H 252.337 -1.87324 -2.50257 0
M  V30 2568 H 251.557 -3.82309 -0.96089 0
M  V30 2569 H 252.845 -4.79972 -1.68833 0
M  V30 2570 H 252.243 -3.38087 -4.53557 0
M  V30 2571 H 250.8 -4.19681 -4.9871 0
M  V30 2572 N 254.233 0.115231 -1.57178 0
M  V30 2573 C 255.163 1.1423 -2.03651 0
M  V30 2574 C 256.144 1.42967 -0.921655 0
M  V30 2575 O 257.329 1.53343 -1.19162 0
M  V30 2576 C 254.459 2.4675 -2.44401 0
M  V30 2577 C 253.413 2.32467 -3.59365 0
M  V30 2578 C 252.739 3.69984 -3.86026 0
M  V30 2579 C 254.039 1.78203 -4.90959 0
M  V30 2580 H 255.733 0.755749 -2.89705 0
M  V30 2581 H 253.279 0.362093 -1.39373 0
M  V30 2582 H 255.232 3.18854 -2.75517 0
M  V30 2583 H 253.956 2.87302 -1.55322 0
M  V30 2584 H 252.615 1.62811 -3.28463 0
M  V30 2585 H 252.263 4.08028 -2.94147 0
M  V30 2586 H 251.963 3.61279 -4.63412 0
M  V30 2587 H 253.487 4.43587 -4.19599 0
M  V30 2588 H 254.901 2.40128 -5.20587 0
M  V30 2589 H 253.298 1.8031 -5.72371 0
M  V30 2590 H 254.368 0.739876 -4.79222 0
M  V30 2591 N 255.711 1.52812 0.385517 0
M  V30 2592 C 256.658 1.77838 1.47113 0
M  V30 2593 C 257.628 0.621757 1.54024 0
M  V30 2594 O 258.813 0.861846 1.70226 0
M  V30 2595 C 255.953 1.95618 2.84302 0
M  V30 2596 C 255.066 3.23316 2.86515 0
M  V30 2597 C 254.201 3.31394 4.15152 0
M  V30 2598 C 253.24 4.53201 4.1143 0
M  V30 2599 N 252.377 4.58542 5.3168 0
M  V30 2600 H 257.217 2.70482 1.25073 0
M  V30 2601 H 254.754 1.34006 0.606692 0
M  V30 2602 H 256.712 2.03912 3.63972 0
M  V30 2603 H 255.342 1.06331 3.04784 0
M  V30 2604 H 254.394 3.24076 1.99195 0
M  V30 2605 H 255.706 4.13045 2.79634 0
M  V30 2606 H 254.86 3.3889 5.03228 0
M  V30 2607 H 253.599 2.39645 4.24761 0
M  V30 2608 H 252.604 4.45827 3.21742 0
M  V30 2609 H 253.829 5.46271 4.03442 0
M  V30 2610 H 251.775 3.69686 5.41912 0
M  V30 2611 H 251.692 5.42148 5.26889 0
M  V30 2612 H 252.96 4.70296 6.21644 0
M  V30 2613 N 257.189 -0.644168 1.43834 0
M  V30 2614 C 258.6 -1.22554 1.40845 0
M  V30 2615 C 258.951 -1.9585 0.117115 0
M  V30 2616 O 258.076 -2.01734 -0.783086 0
M  V30 2617 C 258.671 -2.22907 2.55143 0
M  V30 2618 C 257.23 -2.76501 2.5539 0
M  V30 2619 C 256.377 -1.51287 2.32396 0
M  V30 2620 H 259.328 -0.43563 1.52604 0
M  V30 2621 H 259.349 -3.05259 2.2715 0
M  V30 2622 H 258.861 -1.69533 3.49114 0
M  V30 2623 H 256.962 -3.33914 1.65324 0
M  V30 2624 H 257.075 -3.23429 3.53455 0
M  V30 2625 H 255.439 -1.78957 1.81236 0
M  V30 2626 H 256.222 -0.998336 3.28463 0
M  V30 2627 N 258.668 -1.30515 -0.883378 0
M  V30 2628 C 259.916 -1.19194 -1.63209 0
M  V30 2629 C 260.237 0.253205 -1.93349 0
M  V30 2630 O 259.507 1.17025 -1.57105 0
M  V30 2631 H 258.087 -0.438148 -0.605009 0
M  V30 2632 H 260.749 -1.63663 -1.05832 0
M  V30 2633 H 259.845 -1.75396 -2.58153 0
M  V30 2634 N 260.146 1.09593 -1.13257 0
M  V30 2635 C 261.394 1.81375 -0.891492 0
M  V30 2636 C 261.715 1.86049 0.584009 0
M  V30 2637 O 260.985 1.34481 1.42449 0
M  V30 2638 H 259.565 0.671708 -0.326828 0
M  V30 2639 H 262.227 1.3256 -1.42877 0
M  V30 2640 H 261.323 2.84612 -1.28071 0
M  V30 2641 N 261.624 0.925811 1.2754 0
M  V30 2642 C 263.04 0.625767 1.46821 0
M  V30 2643 C 263.24 -0.825506 1.83814 0
M  V30 2644 O 262.296 -1.60356 1.95044 0
M  V30 2645 C 263.609 1.57402 2.56213 0
M  V30 2646 C 265.157 1.58204 2.70075 0
M  V30 2647 C 265.632 2.51721 3.82623 0
M  V30 2648 N 267.123 2.49917 3.89994 0
M  V30 2649 C 267.858 3.18968 4.76494 0
M  V30 2650 N 267.354 3.97391 5.67496 0
M  V30 2651 N 269.147 3.07996 4.70208 0
M  V30 2652 H 261.298 1.86409 1.01811 0
M  V30 2653 H 263.561 0.800213 0.508295 0
M  V30 2654 H 263.267 2.60925 2.35819 0
M  V30 2655 H 263.141 1.31428 3.53563 0
M  V30 2656 H 265.528 0.554124 2.89851 0
M  V30 2657 H 265.609 1.88226 1.73218 0
M  V30 2658 H 265.253 3.54622 3.63601 0
M  V30 2659 H 265.183 2.18996 4.78903 0
M  V30 2660 H 267.674 1.9296 3.24923 0
M  V30 2661 H 267.987 4.4707 6.30356 0
M  V30 2662 H 266.332 4.01495 5.67298 0
M  V30 2663 H 269.523 2.46223 3.9811 0
M  V30 2664 H 269.696 3.6208 5.37403 0
M  V30 2665 N 263.102 -1.41638 0.69111 0
M  V30 2666 C 264.032 -2.3347 0.037248 0
M  V30 2667 C 265.013 -1.51575 -0.771947 0
M  V30 2668 O 266.198 -1.80126 -0.72582 0
M  V30 2669 C 263.328 -3.35354 -0.903064 0
M  V30 2670 C 262.282 -4.27526 -0.201288 0
M  V30 2671 C 261.608 -5.19747 -1.25565 0
M  V30 2672 C 262.908 -5.13959 0.929689 0
M  V30 2673 H 264.602 -2.88397 0.804227 0
M  V30 2674 H 262.148 -1.38669 0.388189 0
M  V30 2675 H 264.101 -3.98519 -1.36969 0
M  V30 2676 H 262.825 -2.78767 -1.70166 0
M  V30 2677 H 261.484 -3.65779 0.245265 0
M  V30 2678 H 261.132 -4.59479 -2.04666 0
M  V30 2679 H 260.832 -5.8225 -0.791128 0
M  V30 2680 H 262.356 -5.85789 -1.72288 0
M  V30 2681 H 263.77 -5.70718 0.543546 0
M  V30 2682 H 262.167 -5.85379 1.32103 0
M  V30 2683 H 263.237 -4.51389 1.77133 0
M  V30 2684 N 264.58 -0.43555 -1.51462 0
M  V30 2685 C 265.829 0.133007 -2.01261 0
M  V30 2686 C 266.142 1.43942 -1.32439 0
M  V30 2687 O 267.348 2.09081 -1.73198 0
M  V30 2688 C 265.804 0.287581 -3.58749 0
M  V30 2689 C 265.412 -1.00829 -4.36506 0
M  V30 2690 C 267.156 0.810004 -4.167 0
M  V30 2691 C 265.063 -0.819454 -5.85695 0
M  V30 2692 H 263.993 0.0534822 -0.752101 0
M  V30 2693 H 266.644 -0.565038 -1.74584 0
M  V30 2694 H 265.026 1.04859 -3.81865 0
M  V30 2695 H 266.2 -1.77749 -4.25138 0
M  V30 2696 H 264.515 -1.45911 -3.89999 0
M  V30 2697 H 267.112 0.967743 -5.2587 0
M  V30 2698 H 267.455 1.79196 -3.75758 0
M  V30 2699 H 267.988 0.107357 -3.97655 0
M  V30 2700 H 264.727 -1.77374 -6.31046 0
M  V30 2701 H 264.247 -0.0900208 -5.99732 0
M  V30 2702 H 265.926 -0.471949 -6.45276 0
M  V30 2703 N 266.058 1.56714 -0.166846 0
M  V30 2704 C 266.988 2.20754 0.760913 0
M  V30 2705 C 267.969 1.16178 1.24244 0
M  V30 2706 O 269.154 1.44592 1.29641 0
M  V30 2707 C 266.284 2.84478 1.99223 0
M  V30 2708 C 265.238 3.95053 1.64672 0
M  V30 2709 C 264.564 4.45805 2.95232 0
M  V30 2710 C 265.864 5.14865 0.878155 0
M  V30 2711 H 267.558 2.98537 0.22713 0
M  V30 2712 H 265.104 1.43596 0.107805 0
M  V30 2713 H 267.057 3.27951 2.64624 0
M  V30 2714 H 265.781 2.04056 2.55007 0
M  V30 2715 H 264.44 3.52228 1.01641 0
M  V30 2716 H 264.088 3.62181 3.49047 0
M  V30 2717 H 263.788 5.204 2.7287 0
M  V30 2718 H 265.312 4.91962 3.6167 0
M  V30 2719 H 266.726 5.55059 1.43466 0
M  V30 2720 H 265.123 5.95348 0.753738 0
M  V30 2721 H 266.193 4.84735 -0.126377 0
M  V30 2722 N 267.536 -0.106894 1.57237 0
M  V30 2723 C 268.947 -0.662723 1.74542 0
M  V30 2724 C 269.298 -1.7971 0.787319 0
M  V30 2725 O 268.423 -2.16368 -0.0369636 0
M  V30 2726 C 269.018 -1.20896 3.16496 0
M  V30 2727 C 267.577 -1.71096 3.35266 0
M  V30 2728 C 266.724 -0.615642 2.7038 0
M  V30 2729 H 269.675 0.119106 1.58252 0
M  V30 2730 H 269.696 -2.07847 3.18716 0
M  V30 2731 H 269.208 -0.383122 3.86204 0
M  V30 2732 H 267.309 -2.56119 2.70618 0
M  V30 2733 H 267.422 -1.81208 4.43509 0
M  V30 2734 H 265.786 -1.05222 2.31949 0
M  V30 2735 H 266.569 0.199419 3.4272 0
M  V30 2736 N 269.014 -1.53014 -0.377408 0
M  V30 2737 C 270.26 -1.68872 -1.12294 0
M  V30 2738 C 270.593 -0.433224 -1.89306 0
M  V30 2739 O 269.868 0.569258 -1.85983 0
M  V30 2740 C 270.151 -2.93115 -2.09179 0
M  V30 2741 C 270.004 -4.28794 -1.35853 0
M  V30 2742 C 271.323 -3.12928 -3.09458 0
M  V30 2743 H 268.442 -0.614518 -0.406862 0
M  V30 2744 H 271.084 -1.85633 -0.40503 0
M  V30 2745 H 269.234 -2.78956 -2.70399 0
M  V30 2746 H 270.906 -4.54742 -0.775082 0
M  V30 2747 H 269.149 -4.28744 -0.660364 0
M  V30 2748 H 269.82 -5.11837 -2.06706 0
M  V30 2749 H 272.296 -3.26194 -2.58334 0
M  V30 2750 H 271.172 -4.01316 -3.74482 0
M  V30 2751 H 271.433 -2.27669 -3.78971 0
M  V30 2752 N 270.492 0.636531 -1.44174 0
M  V30 2753 C 271.74 1.39343 -1.46383 0
M  V30 2754 C 272.061 1.94766 -0.0955715 0
M  V30 2755 O 271.331 1.75452 0.871395 0
M  V30 2756 H 269.911 0.517199 -0.538994 0
M  V30 2757 H 272.573 0.74957 -1.7991 0
M  V30 2758 H 271.669 2.22746 -2.18611 0
M  V30 2759 N 271.97 1.30982 0.876444 0
M  V30 2760 C 273.381 1.18277 1.44456 0
M  V30 2761 C 273.732 -0.213265 1.95037 0
M  V30 2762 O 272.857 -1.11057 1.85729 0
M  V30 2763 C 273.452 2.1411 2.62569 0
M  V30 2764 C 272.011 2.05358 3.15444 0
M  V30 2765 C 271.158 2.03706 1.88146 0
M  V30 2766 H 274.109 1.43127 0.685584 0
M  V30 2767 H 274.13 1.72692 3.39054 0
M  V30 2768 H 273.642 3.15706 2.25724 0
M  V30 2769 H 271.743 1.06934 3.56926 0
M  V30 2770 H 271.856 2.94156 3.78166 0
M  V30 2771 H 270.22 1.48629 2.06837 0
M  V30 2772 H 271.003 3.07047 1.53547 0
M  V30 2773 N 273.449 -1.08991 1.13837 0
M  V30 2774 C 274.412 -2.13925 0.822715 0
M  V30 2775 C 275.412 -1.599 -0.1699 0
M  V30 2776 O 276.602 -1.74104 0.0577251 0
M  V30 2777 C 273.734 -3.40155 0.225318 0
M  V30 2778 H 274.927 -2.43358 1.75262 0
M  V30 2779 H 272.48 -1.24603 0.943594 0
M  V30 2780 H 273.215 -3.16352 -0.713594 0
M  V30 2781 H 273 -3.80661 0.940193 0
M  V30 2782 H 274.49 -4.17594 0.0214784 0
M  V30 2783 N 274.927 -0.932562 -1.27047 0
M  V30 2784 C 276.175 -0.574422 -1.93765 0
M  V30 2785 C 276.496 0.887993 -1.73608 0
M  V30 2786 O 275.766 1.62999 -1.08665 0
M  V30 2787 H 274.346 -0.209451 -0.717035 0
M  V30 2788 H 277.008 -1.18601 -1.5466 0
M  V30 2789 H 276.104 -0.784841 -3.02071 0
M  V30 2790 N 276.405 1.4127 -0.698611 0
M  V30 2791 C 277.653 2.00782 -0.230409 0
M  V30 2792 C 277.974 1.5562 1.17505 0
M  V30 2793 O 277.244 0.78815 1.79346 0
M  V30 2794 H 275.824 0.742464 -0.0821944 0
M  V30 2795 H 278.486 1.72852 -0.90045 0
M  V30 2796 H 277.582 3.11095 -0.25021 0
M  V30 2797 N 277.883 0.443576 1.51229 0
M  V30 2798 C 278.831 -0.37904 2.29491 0
M  V30 2799 C 279.825 -1.0153 1.35603 0
M  V30 2800 O 281.031 -0.94955 1.52917 0
M  V30 2801 H 277.406 -0.141053 0.738653 0
M  V30 2802 H 279.377 0.301799 2.9687 0
M  V30 2803 C 278.126 -1.46426 3.15364 0
M  V30 2804 H 277.449 -0.984037 3.87501 0
M  V30 2805 H 278.889 -2.01297 3.7317 0
M  V30 2806 C 277.348 -2.45099 2.31146 0
M  V30 2807 O 277.878 -3.49773 1.9754 0
M  V30 2808 N 276.084 -2.16139 1.94249 0
M  V30 2809 H 275.631 -1.31044 2.21777 0
M  V30 2810 H 275.589 -2.82398 1.38198 0
M  V30 2811 N 279.361 -1.56624 0.175154 0
M  V30 2812 C 280.293 -2.15333 -0.785128 0
M  V30 2813 C 281.306 -1.1099 -1.19101 0
M  V30 2814 O 282.495 -1.38162 -1.13019 0
M  V30 2815 C 279.595 -2.68427 -2.06882 0
M  V30 2816 C 278.768 -3.97466 -1.8259 0
M  V30 2817 C 277.827 -4.35585 -2.95215 0
M  V30 2818 O 276.853 -5.03389 -2.65684 0
M  V30 2819 N 278.055 -3.97457 -4.23094 0
M  V30 2820 H 280.82 -2.98359 -0.283187 0
M  V30 2821 H 278.381 -1.61898 -0.00749817 0
M  V30 2822 H 280.373 -2.90924 -2.81328 0
M  V30 2823 H 278.943 -1.89968 -2.48256 0
M  V30 2824 H 278.163 -3.83307 -0.920287 0
M  V30 2825 H 279.451 -4.81736 -1.63733 0
M  V30 2826 H 278.849 -3.42878 -4.49945 0
M  V30 2827 H 277.406 -4.24947 -4.9423 0
M  V30 2828 N 280.839 0.0985539 -1.57292 0
M  V30 2829 C 281.772 1.15082 -1.97057 0
M  V30 2830 C 282.75 1.39025 -0.843255 0
M  V30 2831 O 283.934 1.52842 -1.10325 0
M  V30 2832 C 281.061 2.50069 -2.28437 0
M  V30 2833 C 280.107 2.42428 -3.509 0
M  V30 2834 S 280.94 1.84414 -5.02744 0
M  V30 2835 C 282.096 3.21032 -5.37298 0
M  V30 2836 H 282.329 0.811815 -2.86002 0
M  V30 2837 H 279.862 0.306102 -1.51335 0
M  V30 2838 H 281.82 3.27729 -2.47192 0
M  V30 2839 H 280.481 2.8114 -1.40069 0
M  V30 2840 H 279.674 3.41911 -3.70288 0
M  V30 2841 H 279.276 1.72896 -3.31637 0
M  V30 2842 H 281.568 4.17297 -5.33731 0
M  V30 2843 H 282.511 3.06452 -6.38352 0
M  V30 2844 H 282.919 3.20404 -4.64759 0
M  V30 2845 N 282.317 1.53212 0.369288 0
M  V30 2846 C 283.247 1.82365 1.45826 0
M  V30 2847 C 284.228 0.676907 1.56051 0
M  V30 2848 O 285.413 0.926401 1.70679 0
M  V30 2849 C 282.543 2.01023 2.83208 0
M  V30 2850 C 281.497 3.1678 2.8781 0
M  V30 2851 C 280.823 3.20724 4.27832 0
M  V30 2852 C 282.123 4.55447 2.55667 0
M  V30 2853 H 283.817 2.73559 1.21678 0
M  V30 2854 H 281.363 1.3163 0.583911 0
M  V30 2855 H 283.316 2.20001 3.59413 0
M  V30 2856 H 282.04 1.06536 3.08736 0
M  V30 2857 H 280.699 2.97616 2.14056 0
M  V30 2858 H 280.347 2.23882 4.50429 0
M  V30 2859 H 280.047 3.98496 4.31827 0
M  V30 2860 H 281.571 3.41881 5.05915 0
M  V30 2861 H 282.985 4.74611 3.21586 0
M  V30 2862 H 281.382 5.35432 2.70984 0
M  V30 2863 H 282.452 4.60812 1.5093 0
M  V30 2864 N 283.795 -0.628877 1.44509 0
M  V30 2865 C 284.705 -1.7694 1.54044 0
M  V30 2866 C 285.721 -1.68705 0.425987 0
M  V30 2867 O 286.897 -1.89442 0.683656 0
M  V30 2868 C 283.962 -3.13332 1.48405 0
M  V30 2869 C 283.023 -3.33181 2.70719 0
M  V30 2870 C 282.256 -4.63067 2.6534 0
M  V30 2871 O 282.479 -5.44017 1.71469 0
M  V30 2872 O 281.413 -4.85167 3.56226 0
M  V30 2873 H 285.239 -1.71848 2.50403 0
M  V30 2874 H 282.824 -0.790378 1.26781 0
M  V30 2875 H 284.706 -3.94634 1.47791 0
M  V30 2876 H 283.381 -3.1896 0.551898 0
M  V30 2877 H 282.288 -2.51549 2.769 0
M  V30 2878 H 283.621 -3.32416 3.62988 0
M  V30 2879 N 285.273 -1.31445 -0.869486 0
M  V30 2880 C 286.205 -1.14955 -1.98287 0
M  V30 2881 C 287.218 -0.0885037 -1.62559 0
M  V30 2882 O 288.407 -0.336044 -1.75308 0
M  V30 2883 C 285.507 -0.734255 -3.3085 0
M  V30 2884 C 284.68 -1.88042 -3.94917 0
M  V30 2885 C 283.739 -1.4511 -5.05796 0
M  V30 2886 O 282.765 -2.16082 -5.2659 0
M  V30 2887 N 283.967 -0.338763 -5.79511 0
M  V30 2888 H 286.732 -2.10856 -2.12979 0
M  V30 2889 H 284.293 -1.23786 -1.04349 0
M  V30 2890 H 286.285 -0.42975 -4.02412 0
M  V30 2891 H 284.855 0.133158 -3.12316 0
M  V30 2892 H 284.075 -2.35222 -3.1633 0
M  V30 2893 H 285.363 -2.6481 -4.34457 0
M  V30 2894 H 284.761 0.252274 -5.65137 0
M  V30 2895 H 283.318 -0.0937925 -6.51733 0
M  V30 2896 N 286.751 1.08385 -1.14413 0
M  V30 2897 C 287.981 1.8425 -0.934644 0
M  V30 2898 C 288.389 1.81907 0.520234 0
M  V30 2899 O 287.732 1.22126 1.37226 0
M  V30 2900 C 287.794 3.32853 -1.35828 0
M  V30 2901 C 287.458 3.5893 -2.82875 0
M  V30 2902 C 288.455 3.53756 -3.80989 0
M  V30 2903 C 286.14 3.86934 -3.20293 0
M  V30 2904 C 288.134 3.76216 -5.14529 0
M  V30 2905 C 285.821 4.09047 -4.54008 0
M  V30 2906 C 286.819 4.03682 -5.50936 0
M  V30 2907 O 286.507 4.25214 -6.82238 0
M  V30 2908 H 286.239 0.588502 -0.332628 0
M  V30 2909 H 288.793 1.37792 -1.52324 0
M  V30 2910 H 287.023 3.8007 -0.713019 0
M  V30 2911 H 288.712 3.90154 -1.11957 0
M  V30 2912 H 289.478 3.32135 -3.53428 0
M  V30 2913 H 285.357 3.9023 -2.45442 0
M  V30 2914 H 288.901 3.71943 -5.90173 0
M  V30 2915 H 284.798 4.30151 -4.8129 0
M  V30 2916 H 285.566 4.42619 -6.88499 0
M  V30 2917 N 288.23 0.939286 1.26551 0
M  V30 2918 C 289.507 0.5038 1.89001 0
M  V30 2919 C 289.887 -1.01854 1.84903 0
M  V30 2920 O 289.235 -1.87773 1.30206 0
M  V30 2921 C 289.445 1.063 3.32417 0
M  V30 2922 C 290.793 1.13051 4.09273 0
M  V30 2923 O 291.817 1.01345 3.41479 0
M  V30 2924 O 290.676 1.31233 5.30509 0
M  V30 2925 H 287.77 0.163897 0.810597 0
M  V30 2926 H 290.316 1.03173 1.34735 0
M  V30 2927 H 289.088 2.10665 3.29752 0
M  V30 2928 H 288.711 0.517408 3.94219 0
M  V30 2929 N 289.708 -1.40897 0.706093 0
M  V30 2930 C 290.655 -2.30751 0.0474474 0
M  V30 2931 C 291.625 -1.47678 -0.76029 0
M  V30 2932 O 292.81 -1.76441 -0.726177 0
M  V30 2933 C 289.95 -3.33815 -0.875309 0
M  V30 2934 C 289.063 -4.31961 -0.0580623 0
M  V30 2935 C 288.198 -5.22093 -0.979425 0
M  V30 2936 C 287.237 -6.11902 -0.155706 0
M  V30 2937 N 286.374 -6.94482 -1.03144 0
M  V30 2938 H 291.214 -2.86513 0.819413 0
M  V30 2939 H 288.751 -1.41102 0.415783 0
M  V30 2940 H 290.709 -3.92129 -1.42446 0
M  V30 2941 H 289.339 -2.79579 -1.61356 0
M  V30 2942 H 288.391 -3.75507 0.608147 0
M  V30 2943 H 289.703 -4.95415 0.580082 0
M  V30 2944 H 288.857 -5.85292 -1.59744 0
M  V30 2945 H 287.596 -4.5889 -1.65141 0
M  V30 2946 H 286.601 -5.47742 0.475309 0
M  V30 2947 H 287.826 -6.77162 0.512635 0
M  V30 2948 H 285.772 -6.33877 -1.68924 0
M  V30 2949 H 285.689 -7.54665 -0.449108 0
M  V30 2950 H 286.957 -7.6214 -1.63593 0
M  V30 2951 N 291.186 -0.45159 -1.50991 0
M  V30 2952 C 292.116 0.342898 -2.30969 0
M  V30 2953 C 293.097 1.00815 -1.37005 0
M  V30 2954 O 294.282 1.00907 -1.65926 0
M  V30 2955 C 291.412 1.43637 -3.16205 0
M  V30 2956 C 290.366 0.893818 -4.18563 0
M  V30 2957 C 289.692 2.08411 -4.92411 0
M  V30 2958 C 290.992 -0.0815568 -5.22236 0
M  V30 2959 H 292.686 -0.324556 -2.97636 0
M  V30 2960 H 290.232 -0.157531 -1.43136 0
M  V30 2961 H 292.185 1.9995 -3.70942 0
M  V30 2962 H 290.909 2.13232 -2.47386 0
M  V30 2963 H 289.568 0.352798 -3.64898 0
M  V30 2964 H 289.216 2.76658 -4.20082 0
M  V30 2965 H 288.916 1.72741 -5.61636 0
M  V30 2966 H 290.44 2.65251 -5.49976 0
M  V30 2967 H 291.854 0.391742 -5.7196 0
M  V30 2968 H 290.251 -0.351551 -5.99069 0
M  V30 2969 H 291.321 -1.01374 -4.74185 0
M  V30 2970 N 292.664 1.56529 -0.183458 0
M  V30 2971 C 293.596 2.15747 0.773697 0
M  V30 2972 C 294.609 1.1162 1.1851 0
M  V30 2973 O 295.798 1.3876 1.12285 0
M  V30 2974 C 292.898 2.6952 2.05456 0
M  V30 2975 C 292.071 3.98429 1.8048 0
M  V30 2976 C 291.13 4.37145 2.92901 0
M  V30 2977 O 290.156 5.04791 2.6301 0
M  V30 2978 N 291.358 3.99695 4.2098 0
M  V30 2979 H 294.123 2.98505 0.26736 0
M  V30 2980 H 291.684 1.619 -0.0010878 0
M  V30 2981 H 293.676 2.92412 2.79781 0
M  V30 2982 H 292.246 1.91282 2.47245 0
M  V30 2983 H 291.466 3.8379 0.899947 0
M  V30 2984 H 292.754 4.82597 1.61175 0
M  V30 2985 H 292.152 3.4526 4.48121 0
M  V30 2986 H 290.709 4.27562 4.9197 0
M  V30 2987 N 294.142 -0.090211 1.57342 0
M  V30 2988 C 295.419 -0.824761 1.77361 0
M  V30 2989 C 295.799 -1.96698 0.76637 0
M  V30 2990 O 295.147 -2.27586 -0.204179 0
M  V30 2991 C 295.357 -1.31481 3.23286 0
M  V30 2992 C 296.705 -1.75563 3.86604 0
M  V30 2993 O 297.729 -1.41093 3.27065 0
M  V30 2994 O 296.588 -2.39317 4.91314 0
M  V30 2995 H 293.682 -0.393776 0.727234 0
M  V30 2996 H 296.228 -0.0717138 1.69548 0
M  V30 2997 H 295 -0.496671 3.88135 0
M  V30 2998 H 294.623 -2.12973 3.35751 0
M  V30 2999 N 295.62 -1.53406 -0.361157 0
M  V30 3000 C 296.868 -1.69467 -1.10115 0
M  V30 3001 C 297.189 -0.451352 -1.89705 0
M  V30 3002 O 296.459 0.534636 -1.88463 0
M  V30 3003 H 295.039 -0.624749 -0.409508 0
M  V30 3004 H 297.701 -1.90609 -0.406699 0
M  V30 3005 H 296.797 -2.55774 -1.78847 0
M  V30 3006 N 297.098 0.621204 -1.44841 0
M  V30 3007 C 298.323 1.41244 -1.51871 0
M  V30 3008 C 298.748 1.87519 -0.147764 0
M  V30 3009 O 298.106 1.59334 0.865 0
M  V30 3010 C 298.154 2.60221 -2.49634 0
M  V30 3011 O 297.258 3.60395 -2.00473 0
M  V30 3012 H 296.599 0.42223 -0.512463 0
M  V30 3013 H 299.129 0.757305 -1.90069 0
M  V30 3014 H 299.139 3.0764 -2.67996 0
M  V30 3015 H 297.814 2.25887 -3.4921 0
M  V30 3016 H 296.391 3.19717 -1.91925 0
M  V30 3017 N 298.576 1.31904 0.862503 0
M  V30 3018 C 299.825 1.21373 1.61094 0
M  V30 3019 C 300.138 -0.22504 1.94301 0
M  V30 3020 O 301.344 -0.452121 2.67709 0
M  V30 3021 C 299.8 2.12525 2.9045 0
M  V30 3022 C 299.408 3.61441 2.64697 0
M  V30 3023 C 301.152 2.10813 3.68454 0
M  V30 3024 C 299.059 4.44578 3.90006 0
M  V30 3025 H 297.989 0.450705 0.604468 0
M  V30 3026 H 300.64 1.56811 0.953027 0
M  V30 3027 H 299.022 1.69994 3.57656 0
M  V30 3028 H 300.196 4.12264 2.05851 0
M  V30 3029 H 298.511 3.65205 2.00036 0
M  V30 3030 H 301.108 2.70167 4.61426 0
M  V30 3031 H 301.451 1.09713 4.01583 0
M  V30 3032 H 301.984 2.51583 3.08141 0
M  V30 3033 H 298.723 5.46461 3.62023 0
M  V30 3034 H 298.243 3.98508 4.48276 0
M  V30 3035 H 299.922 4.57176 4.5782 0
M  V30 3036 N 300.054 -1.07777 1.14986 0
M  V30 3037 C 301.001 -2.14867 0.842672 0
M  V30 3038 C 301.971 -1.6486 -0.202552 0
M  V30 3039 O 303.156 -1.90668 -0.0710568 0
M  V30 3040 C 300.296 -3.43486 0.333363 0
M  V30 3041 C 299.409 -4.07306 1.43965 0
M  V30 3042 C 298.544 -5.23744 0.886914 0
M  V30 3043 C 297.583 -5.79517 1.97043 0
M  V30 3044 N 296.72 -6.87291 1.4344 0
M  V30 3045 H 301.56 -2.40485 1.75986 0
M  V30 3046 H 299.097 -1.1801 0.878179 0
M  V30 3047 H 301.055 -4.17195 0.0198163 0
M  V30 3048 H 299.685 -3.18133 -0.546916 0
M  V30 3049 H 298.737 -3.31293 1.86946 0
M  V30 3050 H 300.049 -4.44771 2.25788 0
M  V30 3051 H 299.203 -6.04419 0.525651 0
M  V30 3052 H 297.942 -4.87685 0.0377957 0
M  V30 3053 H 296.947 -4.97491 2.34057 0
M  V30 3054 H 298.172 -6.17632 2.82325 0
M  V30 3055 H 296.118 -6.5318 0.607567 0
M  V30 3056 H 296.035 -7.23617 2.18895 0
M  V30 3057 H 297.303 -7.71682 1.10124 0
M  V30 3058 N 301.532 -0.945985 -1.26051 0
M  V30 3059 C 302.465 -0.403619 -2.24602 0
M  V30 3060 C 303.443 0.510241 -1.54387 0
M  V30 3061 O 304.627 0.446593 -1.83133 0
M  V30 3062 C 301.754 0.419564 -3.36091 0
M  V30 3063 C 300.8 -0.433454 -4.24292 0
M  V30 3064 S 301.633 -1.86037 -5.02146 0
M  V30 3065 C 302.789 -1.04538 -6.17108 0
M  V30 3066 H 303.022 -1.23883 -2.7026 0
M  V30 3067 H 300.555 -0.749438 -1.34992 0
M  V30 3068 H 302.513 0.888595 -4.00767 0
M  V30 3069 H 301.174 1.22951 -2.89036 0
M  V30 3070 H 300.367 0.197486 -5.03613 0
M  V30 3071 H 299.969 -0.837357 -3.64506 0
M  V30 3072 H 302.261 -0.289923 -6.76879 0
M  V30 3073 H 303.204 -1.81222 -6.84518 0
M  V30 3074 H 303.612 -0.579319 -5.61519 0
M  V30 3075 N 303.011 1.40521 -0.713556 0
M  V30 3076 C 303.958 2.30723 -0.059684 0
M  V30 3077 C 304.928 1.48079 0.752448 0
M  V30 3078 O 306.113 1.76823 0.71681 0
M  V30 3079 C 303.253 3.34274 0.857594 0
M  V30 3080 C 302.366 4.31986 0.0351536 0
M  V30 3081 C 301.501 5.22605 0.951724 0
M  V30 3082 C 300.54 6.11976 0.123253 0
M  V30 3083 N 299.677 6.9502 0.99459 0
M  V30 3084 H 304.517 2.86074 -0.834596 0
M  V30 3085 H 302.054 1.40879 -0.42326 0
M  V30 3086 H 304.012 3.92879 1.40364 0
M  V30 3087 H 302.642 2.8043 1.59871 0
M  V30 3088 H 301.694 3.7518 -0.628052 0
M  V30 3089 H 303.006 4.95101 -0.606347 0
M  V30 3090 H 302.16 5.86131 1.56638 0
M  V30 3091 H 300.899 4.59759 1.62705 0
M  V30 3092 H 299.904 5.47482 -0.50435 0
M  V30 3093 H 301.129 6.76881 -0.548539 0
M  V30 3094 H 299.075 6.34764 1.6556 0
M  V30 3095 H 298.992 7.54892 0.40908 0
M  V30 3096 H 300.26 7.62997 1.59549 0
M  V30 3097 N 304.489 0.459591 1.5075 0
M  V30 3098 C 305.9 0.00171547 1.867 0
M  V30 3099 C 306.251 -1.39934 1.37525 0
M  V30 3100 O 305.376 -2.03523 0.735349 0
M  V30 3101 C 305.971 -0.00366298 3.388 0
M  V30 3102 C 304.53 -0.406026 3.74204 0
M  V30 3103 C 303.677 0.38673 2.7459 0
M  V30 3104 H 306.628 0.674413 1.43657 0
M  V30 3105 H 306.649 -0.808371 3.71814 0
M  V30 3106 H 306.161 1.01617 3.74561 0
M  V30 3107 H 304.262 -1.43063 3.4404 0
M  V30 3108 H 304.375 -0.115362 4.78961 0
M  V30 3109 H 302.739 -0.158019 2.54209 0
M  V30 3110 H 303.522 1.40585 3.13194 0
M  V30 3111 N 305.967 -1.56429 0.191757 0
M  V30 3112 C 306.897 -2.21937 -0.725696 0
M  V30 3113 C 307.878 -1.1814 -1.2238 0
M  V30 3114 O 309.063 -1.46636 -1.27325 0
M  V30 3115 C 306.193 -2.87611 -1.94672 0
M  V30 3116 C 305.147 -3.97623 -1.58366 0
M  V30 3117 C 304.473 -4.50446 -2.88102 0
M  V30 3118 C 305.773 -5.16197 -0.796133 0
M  V30 3119 H 307.467 -2.98861 -0.179606 0
M  V30 3120 H 305.013 -1.43749 -0.0849464 0
M  V30 3121 H 306.966 -3.3212 -2.59373 0
M  V30 3122 H 305.69 -2.08087 -2.51728 0
M  V30 3123 H 304.349 -3.53801 -0.960247 0
M  V30 3124 H 303.997 -3.67688 -3.43241 0
M  V30 3125 H 303.697 -5.24675 -2.64556 0
M  V30 3126 H 305.221 -4.97654 -3.53798 0
M  V30 3127 H 306.635 -5.57271 -1.34618 0
M  V30 3128 H 305.032 -5.96471 -0.658928 0
M  V30 3129 H 306.102 -4.84473 0.203478 0
M  V30 3130 N 307.445 0.0818655 -1.57387 0
M  V30 3131 C 308.378 1.12986 -1.98266 0
M  V30 3132 C 309.356 1.38123 -0.857954 0
M  V30 3133 O 310.54 1.51663 -1.1194 0
M  V30 3134 C 307.667 2.47632 -2.31076 0
M  V30 3135 C 306.713 2.38693 -3.53452 0
M  V30 3136 S 307.546 1.79071 -5.04672 0
M  V30 3137 C 308.702 3.15316 -5.40673 0
M  V30 3138 H 308.935 0.781435 -2.86846 0
M  V30 3139 H 306.468 0.290034 -1.51651 0
M  V30 3140 H 308.426 3.25089 -2.50654 0
M  V30 3141 H 307.087 2.79638 -1.43043 0
M  V30 3142 H 306.28 3.37964 -3.73893 0
M  V30 3143 H 305.882 1.69369 -3.33452 0
M  V30 3144 H 308.174 4.11613 -5.38127 0
M  V30 3145 H 309.117 2.99664 -6.41566 0
M  V30 3146 H 309.525 3.15457 -4.68132 0
M  V30 3147 N 308.923 1.53595 0.353017 0
M  V30 3148 C 310.171 1.70049 1.09215 0
M  V30 3149 C 310.492 0.461406 1.89463 0
M  V30 3150 O 309.762 -0.524633 1.88744 0
M  V30 3151 H 308.342 0.626912 0.40619 0
M  V30 3152 H 311.004 1.90822 0.396585 0
M  V30 3153 H 310.1 2.56718 1.77488 0
M  V30 3154 N 310.401 -0.613514 1.45168 0
M  V30 3155 C 311.647 -1.37471 1.49096 0
M  V30 3156 C 311.98 -1.93765 0.129901 0
M  V30 3157 O 311.255 -1.74707 -0.854858 0
M  V30 3158 C 311.538 -2.52701 2.56542 0
M  V30 3159 C 311.391 -2.01643 4.0207 0
M  V30 3160 C 312.71 -3.54849 2.60327 0
M  V30 3161 H 309.829 -0.498502 0.54283 0
M  V30 3162 H 312.471 -0.692125 1.76945 0
M  V30 3163 H 310.621 -3.10931 2.32926 0
M  V30 3164 H 312.293 -1.48108 4.36877 0
M  V30 3165 H 310.536 -1.32688 4.13009 0
M  V30 3166 H 311.207 -2.84681 4.72928 0
M  V30 3167 H 313.683 -3.0645 2.81474 0
M  V30 3168 H 312.559 -4.32973 3.37381 0
M  V30 3169 H 312.82 -4.10079 1.6519 0
M  V30 3170 N 311.879 -1.3236 -0.855495 0
M  V30 3171 C 313.128 -1.22226 -1.60448 0
M  V30 3172 C 313.441 0.214733 -1.94418 0
M  V30 3173 O 314.647 0.437917 -2.67945 0
M  V30 3174 C 313.103 -2.14063 -2.89318 0
M  V30 3175 C 312.711 -3.62839 -2.62777 0
M  V30 3176 C 314.455 -2.12764 -3.67331 0
M  V30 3177 C 312.362 -4.4664 -3.87643 0
M  V30 3178 H 311.292 -0.453904 -0.602069 0
M  V30 3179 H 313.943 -1.57314 -0.944698 0
M  V30 3180 H 312.325 -1.71889 -3.5675 0
M  V30 3181 H 313.499 -4.1335 -2.03662 0
M  V30 3182 H 311.814 -3.66261 -1.98096 0
M  V30 3183 H 314.411 -2.72611 -4.59987 0
M  V30 3184 H 314.754 -1.11841 -4.00995 0
M  V30 3185 H 315.287 -2.53214 -3.06802 0
M  V30 3186 H 312.026 -5.48373 -3.5912 0
M  V30 3187 H 311.546 -4.0088 -4.46156 0
M  V30 3188 H 313.225 -4.59597 -4.55389 0
M  V30 3189 N 313.357 1.07166 -1.15556 0
M  V30 3190 C 314.587 1.83248 -0.954133 0
M  V30 3191 C 314.995 1.82449 0.500911 0
M  V30 3192 O 314.338 1.23575 1.35923 0
M  V30 3193 C 314.4 3.31393 -1.39351 0
M  V30 3194 C 314.064 3.5591 -2.86666 0
M  V30 3195 C 315.061 3.49695 -3.8472 0
M  V30 3196 C 312.746 3.83515 -3.24379 0
M  V30 3197 C 314.74 3.70737 -5.18491 0
M  V30 3198 C 312.427 4.04209 -4.58321 0
M  V30 3199 C 313.425 3.97815 -5.55186 0
M  V30 3200 O 313.113 4.17954 -6.86709 0
M  V30 3201 H 312.845 0.584941 -0.338851 0
M  V30 3202 H 315.399 1.36169 -1.53777 0
M  V30 3203 H 313.629 3.79292 -0.75329 0
M  V30 3204 H 315.318 3.88945 -1.16089 0
M  V30 3205 H 316.084 3.28368 -3.56931 0
M  V30 3206 H 311.963 3.87605 -2.49567 0
M  V30 3207 H 315.507 3.65663 -5.94085 0
M  V30 3208 H 311.404 4.25023 -4.85825 0
M  V30 3209 H 312.172 4.35291 -6.93155 0
M  V30 3210 N 314.835 0.952656 1.25548 0
M  V30 3211 C 316.081 0.607272 1.93494 0
M  V30 3212 C 316.414 -0.853245 1.74452 0
M  V30 3213 O 315.689 -1.61194 1.08843 0
M  V30 3214 C 315.972 0.96435 3.46947 0
M  V30 3215 C 315.825 2.48045 3.75225 0
M  V30 3216 C 317.144 0.487987 4.37386 0
M  V30 3217 H 314.263 0.222096 0.702739 0
M  V30 3218 H 316.905 1.18895 1.48203 0
M  V30 3219 H 315.055 0.469361 3.85654 0
M  V30 3220 H 316.727 3.04905 3.46166 0
M  V30 3221 H 314.97 2.919 3.209 0
M  V30 3222 H 315.641 2.6808 4.82532 0
M  V30 3223 H 318.117 0.912558 4.0597 0
M  V30 3224 H 316.993 0.766547 5.43521 0
M  V30 3225 H 317.254 -0.612063 4.37843 0
M  V30 3226 N 316.313 -1.40141 0.720998 0
M  V30 3227 C 317.724 -1.83678 0.334553 0
M  V30 3228 C 318.075 -1.6027 -1.13173 0
M  V30 3229 O 317.2 -1.08643 -1.87152 0
M  V30 3230 C 317.795 -3.33437 0.600437 0
M  V30 3231 C 316.354 -3.75447 0.267642 0
M  V30 3232 C 315.501 -2.63296 0.870097 0
M  V30 3233 H 318.452 -1.29331 0.919732 0
M  V30 3234 H 318.473 -3.80269 -0.132517 0
M  V30 3235 H 317.985 -3.50442 1.66768 0
M  V30 3236 H 316.086 -3.64035 -0.794329 0
M  V30 3237 H 316.199 -4.73344 0.74042 0
M  V30 3238 H 314.563 -2.52954 0.297739 0
M  V30 3239 H 315.346 -2.83112 1.94172 0
M  V30 3240 N 317.792 -0.46758 -1.50504 0
M  V30 3241 C 318.722 0.318381 -2.31319 0
M  V30 3242 C 319.703 0.993564 -1.38066 0
M  V30 3243 O 320.888 0.991411 -1.66987 0
M  V30 3244 C 318.018 1.40275 -3.17711 0
M  V30 3245 C 316.972 0.849373 -4.19487 0
M  V30 3246 C 316.298 2.03177 -4.94594 0
M  V30 3247 C 317.598 -0.136942 -5.2212 0
M  V30 3248 H 319.292 -0.356106 -2.97275 0
M  V30 3249 H 316.838 -0.172703 -1.42961 0
M  V30 3250 H 318.791 1.96004 -3.73042 0
M  V30 3251 H 317.515 2.10596 -2.49634 0
M  V30 3252 H 316.174 0.314076 -3.65252 0
M  V30 3253 H 315.822 2.72187 -4.22993 0
M  V30 3254 H 315.522 1.66774 -5.63436 0
M  V30 3255 H 317.046 2.59403 -5.52759 0
M  V30 3256 H 318.46 0.331056 -5.72343 0
M  V30 3257 H 316.857 -0.41507 -5.98663 0
M  V30 3258 H 317.927 -1.06398 -4.73083 0
M  V30 3259 N 319.27 1.56325 -0.20005 0
M  V30 3260 C 320.498 2.02105 0.442874 0
M  V30 3261 C 320.913 1.08014 1.5485 0
M  V30 3262 O 320.27 0.0858797 1.82298 0
M  V30 3263 C 320.321 3.47549 0.994583 0
M  V30 3264 O 320.042 4.38049 -0.0669322 0
M  V30 3265 C 321.543 4.0887 1.7129 0
M  V30 3266 H 318.763 0.661807 0.110691 0
M  V30 3267 H 321.307 2.02134 -0.310207 0
M  V30 3268 H 319.462 3.48204 1.69803 0
M  V30 3269 H 319.876 5.23368 0.344462 0
M  V30 3270 H 321.35 5.12475 2.05118 0
M  V30 3271 H 321.827 3.52615 2.61838 0
M  V30 3272 H 322.433 4.12002 1.05518 0
M  V30 3273 N 320.748 -0.0735177 1.57428 0
M  V30 3274 C 322.025 -0.805903 1.78226 0
M  V30 3275 C 322.405 -1.95874 0.787189 0
M  V30 3276 O 321.753 -2.2779 -0.180029 0
M  V30 3277 C 321.963 -1.28045 3.24662 0
M  V30 3278 C 323.311 -1.71453 3.88444 0
M  V30 3279 O 324.335 -1.37616 3.28543 0
M  V30 3280 O 323.194 -2.34093 4.93825 0
M  V30 3281 H 320.288 -0.386041 0.73137 0
M  V30 3282 H 322.834 -0.0537269 1.69615 0
M  V30 3283 H 321.606 -0.455476 3.8864 0
M  V30 3284 H 321.229 -2.094 3.37991 0
M  V30 3285 N 322.226 -1.5378 -0.344866 0
M  V30 3286 C 323.173 -1.81676 -1.42346 0
M  V30 3287 C 324.143 -0.662376 -1.52321 0
M  V30 3288 O 325.328 -0.906675 -1.67881 0
M  V30 3289 C 322.468 -2.03087 -2.79015 0
M  V30 3290 C 321.581 -3.30799 -2.77842 0
M  V30 3291 C 320.716 -3.42285 -4.0622 0
M  V30 3292 C 319.755 -4.6395 -3.9927 0
M  V30 3293 N 318.892 -4.72477 -5.19336 0
M  V30 3294 H 323.732 -2.73703 -1.17858 0
M  V30 3295 H 321.269 -1.35568 -0.570949 0
M  V30 3296 H 323.227 -2.1349 -3.58438 0
M  V30 3297 H 321.857 -1.14375 -3.01858 0
M  V30 3298 H 320.909 -3.29244 -1.90533 0
M  V30 3299 H 322.221 -4.20314 -2.68584 0
M  V30 3300 H 321.375 -3.52113 -4.94066 0
M  V30 3301 H 320.114 -2.50823 -4.18258 0
M  V30 3302 H 319.119 -4.54201 -3.09809 0
M  V30 3303 H 320.344 -5.56775 -3.88817 0
M  V30 3304 H 318.29 -3.83924 -5.3192 0
M  V30 3305 H 318.207 -5.55927 -5.12329 0
M  V30 3306 H 319.475 -4.86613 -6.08957 0
M  V30 3307 N 323.704 0.605807 -1.45491 0
M  V30 3308 C 324.614 1.74466 -1.56839 0
M  V30 3309 C 325.63 1.68006 -0.452772 0
M  V30 3310 O 326.806 1.8833 -0.713708 0
M  V30 3311 C 323.871 3.10931 -1.53371 0
M  V30 3312 C 322.932 3.28832 -2.75986 0
M  V30 3313 C 322.165 4.58787 -2.72673 0
M  V30 3314 O 322.388 5.4122 -1.80102 0
M  V30 3315 O 321.322 4.79438 -3.63899 0
M  V30 3316 H 325.148 1.67843 -2.53106 0
M  V30 3317 H 322.733 0.770108 -1.28022 0
M  V30 3318 H 324.615 3.92233 -1.54051 0
M  V30 3319 H 323.29 3.18042 -0.602572 0
M  V30 3320 H 322.197 2.47112 -2.80867 0
M  V30 3321 H 323.53 3.26599 -3.68231 0
M  V30 3322 N 325.182 1.32811 0.848464 0
M  V30 3323 C 326.129 1.22265 1.95755 0
M  V30 3324 C 327.099 0.103413 1.65778 0
M  V30 3325 O 328.284 0.280033 1.88734 0
M  V30 3326 C 325.424 0.958014 3.31536 0
M  V30 3327 C 324.537 2.16262 3.73971 0
M  V30 3328 C 323.672 1.83295 4.98575 0
M  V30 3329 C 322.711 3.00041 5.33518 0
M  V30 3330 N 321.848 2.67125 6.49299 0
M  V30 3331 H 326.688 2.17128 2.04107 0
M  V30 3332 H 324.225 1.07982 0.998913 0
M  V30 3333 H 326.183 0.785052 4.09747 0
M  V30 3334 H 324.813 0.046159 3.22767 0
M  V30 3335 H 323.865 2.44565 2.91362 0
M  V30 3336 H 325.177 3.03572 3.95785 0
M  V30 3337 H 324.331 1.62586 5.84509 0
M  V30 3338 H 323.07 0.932078 4.7871 0
M  V30 3339 H 322.075 3.21374 4.46093 0
M  V30 3340 H 323.3 3.90869 5.55336 0
M  V30 3341 H 321.246 1.79586 6.3094 0
M  V30 3342 H 321.163 3.47965 6.71161 0
M  V30 3343 H 322.431 2.49861 7.3837 0
M  V30 3344 N 326.66 -1.06551 1.16123 0
M  V30 3345 C 327.592 -2.13908 0.823171 0
M  V30 3346 C 328.605 -1.61926 -0.16843 0
M  V30 3347 O 329.794 -1.78412 0.055962 0
M  V30 3348 C 326.894 -3.38283 0.204424 0
M  V30 3349 C 326.067 -4.19589 1.23548 0
M  V30 3350 C 325.126 -5.2233 0.637011 0
M  V30 3351 O 324.152 -5.54034 1.30516 0
M  V30 3352 N 325.354 -5.77621 -0.577474 0
M  V30 3353 H 328.119 -2.43508 1.74711 0
M  V30 3354 H 325.68 -1.2253 1.05821 0
M  V30 3355 H 327.672 -4.0416 -0.208909 0
M  V30 3356 H 326.242 -3.06329 -0.623012 0
M  V30 3357 H 325.462 -3.49406 1.82507 0
M  V30 3358 H 326.75 -4.70718 1.93137 0
M  V30 3359 H 326.148 -5.54125 -1.13853 0
M  V30 3360 H 324.705 -6.45087 -0.933053 0
M  V30 3361 N 328.138 -0.959301 -1.25041 0
M  V30 3362 C 329.384 -0.627096 -1.93492 0
M  V30 3363 C 329.739 0.827484 -1.73696 0
M  V30 3364 O 329.032 1.58651 -1.07427 0
M  V30 3365 C 329.226 -0.927136 -3.45165 0
M  V30 3366 C 329.055 -2.40933 -3.79712 0
M  V30 3367 C 327.825 -3.0677 -4.01522 0
M  V30 3368 C 330.023 -3.38894 -3.86853 0
M  V30 3369 N 328.005 -4.44815 -4.231 0
M  V30 3370 C 329.376 -4.62263 -4.13174 0
M  V30 3371 C 331.431 -3.33668 -3.69554 0
M  V30 3372 C 330.134 -5.81052 -4.23995 0
M  V30 3373 C 332.16 -4.518 -3.81616 0
M  V30 3374 C 331.522 -5.73957 -4.08354 0
M  V30 3375 H 327.621 -0.280166 -0.73009 0
M  V30 3376 H 330.205 -1.23244 -1.50729 0
M  V30 3377 H 328.376 -0.350685 -3.86814 0
M  V30 3378 H 330.108 -0.554361 -4.00885 0
M  V30 3379 H 326.863 -2.57327 -3.97593 0
M  V30 3380 H 327.287 -5.16319 -4.37885 0
M  V30 3381 H 331.929 -2.40268 -3.47895 0
M  V30 3382 H 329.647 -6.74888 -4.44468 0
M  V30 3383 H 333.233 -4.49309 -3.69612 0
M  V30 3384 H 332.113 -6.6384 -4.17475 0
M  V30 3385 N 329.616 1.39756 -0.72842 0
M  V30 3386 C 330.841 2.05472 -0.282159 0
M  V30 3387 C 331.266 1.54549 1.07221 0
M  V30 3388 O 330.624 0.686372 1.67805 0
M  V30 3389 C 330.672 3.59462 -0.286264 0
M  V30 3390 O 329.776 4.05918 0.728298 0
M  V30 3391 H 329.117 0.651226 -0.129618 0
M  V30 3392 H 331.647 1.78915 -0.992499 0
M  V30 3393 H 331.657 4.07798 -0.128373 0
M  V30 3394 H 330.332 3.95889 -1.27456 0
M  V30 3395 H 328.909 3.69012 0.537081 0
M  V30 3396 N 331.094 0.475555 1.50254 0
M  V30 3397 C 332.51 0.12997 1.5907 0
M  V30 3398 C 332.71 -1.36385 1.48328 0
M  V30 3399 O 331.766 -2.13754 1.34407 0
M  V30 3400 C 333.079 0.684139 2.92814 0
M  V30 3401 C 334.627 0.647965 3.0622 0
M  V30 3402 C 335.102 1.17975 4.42545 0
M  V30 3403 N 336.593 1.13936 4.48969 0
M  V30 3404 C 337.328 1.52129 5.52851 0
M  V30 3405 N 336.824 1.97793 6.63965 0
M  V30 3406 N 338.617 1.43704 5.4342 0
M  V30 3407 H 330.768 1.44706 1.55479 0
M  V30 3408 H 333.031 0.598691 0.735033 0
M  V30 3409 H 332.737 1.73079 3.06164 0
M  V30 3410 H 332.611 0.130204 3.76975 0
M  V30 3411 H 334.998 -0.38979 2.92514 0
M  V30 3412 H 335.079 1.23876 2.23805 0
M  V30 3413 H 334.723 2.21616 4.57 0
M  V30 3414 H 334.653 0.565138 5.23559 0
M  V30 3415 H 337.144 0.804488 3.69238 0
M  V30 3416 H 337.457 2.25072 7.39299 0
M  V30 3417 H 335.802 2.01749 6.65073 0
M  V30 3418 H 338.993 1.07867 4.55502 0
M  V30 3419 H 339.166 1.73794 6.24259 0
M  V30 3420 N 332.573 -1.56217 0.208337 0
M  V30 3421 C 333.819 -1.98998 -0.42086 0
M  V30 3422 C 334.174 -1.09331 -1.58317 0
M  V30 3423 O 333.467 -0.140466 -1.91084 0
M  V30 3424 C 333.661 -3.45441 -0.916797 0
M  V30 3425 C 333.49 -4.49273 0.195925 0
M  V30 3426 C 332.26 -5.00998 0.657956 0
M  V30 3427 C 334.458 -5.04294 1.00956 0
M  V30 3428 N 332.44 -5.88514 1.74712 0
M  V30 3429 C 333.811 -5.88607 1.94785 0
M  V30 3430 C 335.866 -4.86692 1.05049 0
M  V30 3431 C 334.569 -6.572 2.9237 0
M  V30 3432 C 336.595 -5.56034 2.01446 0
M  V30 3433 C 335.957 -6.40105 2.94016 0
M  V30 3434 H 332.056 -0.772574 -0.121048 0
M  V30 3435 H 334.64 -1.92101 0.317075 0
M  V30 3436 H 332.811 -3.52812 -1.62413 0
M  V30 3437 H 334.543 -3.75164 -1.51771 0
M  V30 3438 H 331.298 -4.72945 0.248912 0
M  V30 3439 H 331.722 -6.36975 2.2933 0
M  V30 3440 H 336.364 -4.21359 0.348759 0
M  V30 3441 H 334.082 -7.21723 3.63512 0
M  V30 3442 H 337.668 -5.44385 2.0527 0
M  V30 3443 H 336.548 -6.92816 3.6739 0
M  V30 3444 N 334.051 0.0651679 -1.57465 0
M  V30 3445 C 334.998 1.07675 -2.04144 0
M  V30 3446 C 335.968 1.38071 -0.923335 0
M  V30 3447 O 337.153 1.49026 -1.19146 0
M  V30 3448 C 334.293 2.38337 -2.49579 0
M  V30 3449 C 333.406 2.14413 -3.75035 0
M  V30 3450 C 332.541 3.38686 -4.09225 0
M  V30 3451 C 331.58 3.10156 -5.27702 0
M  V30 3452 N 330.717 4.26778 -5.57499 0
M  V30 3453 H 335.557 0.671716 -2.90331 0
M  V30 3454 H 333.094 0.3201 -1.43575 0
M  V30 3455 H 335.052 3.14632 -2.73975 0
M  V30 3456 H 333.682 2.7663 -1.6636 0
M  V30 3457 H 332.734 1.2878 -3.57939 0
M  V30 3458 H 334.046 1.89344 -4.61466 0
M  V30 3459 H 333.2 4.23373 -4.34558 0
M  V30 3460 H 331.939 3.66837 -3.21374 0
M  V30 3461 H 330.944 2.23866 -5.02159 0
M  V30 3462 H 332.169 2.8332 -6.17176 0
M  V30 3463 H 330.115 4.54948 -4.72608 0
M  V30 3464 H 330.032 4.05005 -6.38362 0
M  V30 3465 H 331.3 5.12443 -5.87386 0
M  V30 3466 O 335.568 1.60146 0.208664 0
M  V30 3467 H 336.259 1.74115 0.848742 0
M  V30 END ATOM
M  V30 BEGIN BOND
M  V30 END BOND
M  V30 END CTAB
M  END
$$$$
