drugbank_target|P22234 Multifunctional protein ADE2 (DB00128)
 OpenBabel12092120073D

  0  0  0     0  0            999 V3000
M  V30 BEGIN CTAB
M  V30 COUNTS 6645 6712 0 0 0
M  V30 BEGIN ATOM
M  V30 1 H -0.908 1.98254 -0.117106 0
M  V30 2 N 0 1.576 0 0
M  V30 3 C 0.933 2.03868 1.02534 0
M  V30 4 C 1.911 0.928543 1.3348 0
M  V30 5 O 3.095 1.19667 1.45644 0
M  V30 6 C 0.222 2.43627 2.35294 0
M  V30 7 C -0.732 3.65373 2.2001 0
M  V30 8 S 0.101 5.13292 1.52614 0
M  V30 9 C 1.257 5.56322 2.86805 0
M  V30 10 H 1.49 2.90518 0.631377 0
M  V30 11 H -0.977 1.52953 0.210867 0
M  V30 12 H 0.981 2.67203 3.11629 0
M  V30 13 H -0.358 1.57376 2.7183 0
M  V30 14 H -1.165 3.90944 3.18086 0
M  V30 15 H -1.563 3.418 1.51819 0
M  V30 16 H 0.729 5.58782 3.83104 0
M  V30 17 H 1.672 6.56266 2.65933 0
M  V30 18 H 2.08 4.83886 2.90714 0
M  V30 19 N 1.4781 -0.272755 1.55222 0
M  V30 20 C 2.4411 -1.32041 1.87344 0
M  V30 21 C 3.4411 -1.42342 0.74803 0
M  V30 22 O 4.6311 -1.41488 1.0162 0
M  V30 23 C 1.7631 -2.70173 2.07893 0
M  V30 24 H 2.9561 -1.04789 2.80997 0
M  V30 25 H 0.5091 -0.51083 1.47717 0
M  V30 26 H 1.2441 -3.02605 1.16622 0
M  V30 27 H 1.0291 -2.64082 2.89833 0
M  V30 28 H 2.5191 -3.45869 2.34017 0
M  V30 29 N 2.9562 -1.48159 -0.537278 0
M  V30 30 C 4.1842 -1.59454 -1.31841 0
M  V30 31 C 4.5992 -0.252065 -1.8711 0
M  V30 32 O 3.9562 0.757621 -1.66031 0
M  V30 33 C 4.0072 -2.63546 -2.47439 0
M  V30 34 O 3.7282 -3.92583 -1.94449 0
M  V30 35 C 5.2292 -2.85212 -3.39366 0
M  V30 36 H 2.4492 -0.53785 -0.401196 0
M  V30 37 H 4.9932 -1.93932 -0.648891 0
M  V30 38 H 3.1482 -2.31946 -3.1029 0
M  V30 39 H 3.5622 -4.49629 -2.70063 0
M  V30 40 H 5.0362 -3.61863 -4.16844 0
M  V30 41 H 5.5132 -1.93765 -3.94147 0
M  V30 42 H 6.1192 -3.18086 -2.82314 0
M  V30 43 N 4.4343 0.785586 -1.36625 0
M  V30 44 C 5.3973 1.87999 -1.31107 0
M  V30 45 C 6.3973 1.59316 -0.217959 0
M  V30 46 O 7.5873 1.67656 -0.472977 0
M  V30 47 C 4.7193 3.24861 -1.03334 0
M  V30 48 H 5.9123 1.94307 -2.2844 0
M  V30 49 H 3.4653 0.983813 -1.21453 0
M  V30 50 H 4.2003 3.24235 -0.0647432 0
M  V30 51 H 3.9853 3.4707 -1.82441 0
M  V30 52 H 5.4753 4.04929 -1.02088 0
M  V30 53 N 5.9124 1.20967 1.01018 0
M  V30 54 C 6.8224 0.980157 2.13143 0
M  V30 55 C 7.8384 -0.0660665 1.73875 0
M  V30 56 O 9.0144 0.122821 2.01025 0
M  V30 57 C 6.0794 0.54216 3.42435 0
M  V30 58 C 5.1404 1.65999 3.95908 0
M  V30 59 C 4.3734 1.2428 5.19028 0
M  V30 60 O 4.5964 0.114196 5.70286 0
M  V30 61 O 3.5304 2.05271 5.65816 0
M  V30 62 H 7.3564 1.91913 2.35379 0
M  V30 63 H 4.9414 0.994099 1.11526 0
M  V30 64 H 6.8234 0.30744 4.20277 0
M  V30 65 H 5.4984 -0.36815 3.216 0
M  V30 66 H 4.4054 1.94906 3.19316 0
M  V30 67 H 5.7384 2.54753 4.21143 0
M  V30 68 N 7.3905 -1.2043 1.01659 0
M  V30 69 C 8.6365 -1.90079 0.706963 0
M  V30 70 C 8.9695 -1.78648 -0.761474 0
M  V30 71 O 8.2445 -1.17069 -1.55323 0
M  V30 72 C 8.5275 -3.41469 1.14327 0
M  V30 73 C 8.3805 -3.61833 2.67201 0
M  V30 74 C 9.6995 -4.34261 0.714529 0
M  V30 75 H 6.8185 -0.690254 0.2583 0
M  V30 76 H 9.4605 -1.41826 1.26433 0
M  V30 77 H 7.6105 -3.82696 0.669056 0
M  V30 78 H 9.2825 -3.2986 3.22475 0
M  V30 79 H 7.5255 -3.05304 3.08175 0
M  V30 80 H 8.1965 -4.67955 2.92783 0
M  V30 81 H 10.6725 -4.00682 1.12221 0
M  V30 82 H 9.5485 -5.38806 1.04784 0
M  V30 83 H 9.8095 -4.40431 -0.383799 0
M  V30 84 N 8.8686 -0.792821 -1.36206 0
M  V30 85 C 9.7986 -0.207853 -2.32573 0
M  V30 86 C 10.7796 0.659055 -1.56813 0
M  V30 87 O 11.9646 0.592176 -1.84951 0
M  V30 88 C 9.0946 0.655449 -3.41059 0
M  V30 89 C 8.0486 -0.111842 -4.27854 0
M  V30 90 C 7.3746 0.872274 -5.27537 0
M  V30 91 C 8.6746 -1.30299 -5.05786 0
M  V30 92 H 10.3686 -1.01294 -2.81744 0
M  V30 93 H 7.9146 -0.48854 -1.3546 0
M  V30 94 H 9.8676 1.07464 -4.07467 0
M  V30 95 H 8.5916 1.49328 -2.90463 0
M  V30 96 H 7.2506 -0.512053 -3.63006 0
M  V30 97 H 6.8986 1.70523 -4.73214 0
M  V30 98 H 6.5986 0.363291 -5.86476 0
M  V30 99 H 8.1226 1.28996 -5.96818 0
M  V30 100 H 9.5366 -0.959379 -5.65216 0
M  V30 101 H 7.9336 -1.7455 -5.74154 0
M  V30 102 H 9.0036 -2.09663 -4.37229 0
M  V30 103 N 10.3467 1.47872 -0.545128 0
M  V30 104 C 11.2947 2.31533 0.222512 0
M  V30 105 C 12.2887 1.42177 0.920985 0
M  V30 106 O 13.4947 1.59005 0.843645 0
M  V30 107 H 9.8697 0.746519 0.0906278 0
M  V30 108 H 11.8407 2.94139 -0.50246 0
M  V30 109 C 10.5897 3.2457 1.24699 0
M  V30 110 H 9.9127 3.93283 0.718944 0
M  V30 111 H 11.3527 3.85963 1.75523 0
M  V30 112 C 9.8117 2.47237 2.28856 0
M  V30 113 O 10.3417 2.20808 3.35569 0
M  V30 114 N 8.5477 2.08461 2.02466 0
M  V30 115 H 8.0947 2.30155 1.157 0
M  V30 116 H 8.0527 1.57033 2.72375 0
M  V30 117 N 11.8248 0.280983 1.55075 0
M  V30 118 C 13.0738 -0.334784 1.98902 0
M  V30 119 C 13.3868 -1.56534 1.17288 0
M  V30 120 O 14.5928 -2.25443 1.51287 0
M  V30 121 C 13.0488 -0.646994 3.54037 0
M  V30 122 C 12.6568 0.564085 4.44435 0
M  V30 123 C 14.4008 -1.22506 4.06439 0
M  V30 124 C 12.3078 0.226137 5.90967 0
M  V30 125 H 11.2378 -0.128866 0.742906 0
M  V30 126 H 13.8888 0.386556 1.79382 0
M  V30 127 H 12.2708 -1.42739 3.6938 0
M  V30 128 H 13.4448 1.34082 4.40861 0
M  V30 129 H 11.7598 1.0594 4.02698 0
M  V30 130 H 14.3568 -1.49182 5.13468 0
M  V30 131 H 14.6998 -2.16085 3.55827 0
M  V30 132 H 15.2328 -0.50682 3.94558 0
M  V30 133 H 11.9718 1.12996 6.45687 0
M  V30 134 H 11.4918 -0.513717 5.97596 0
M  V30 135 H 13.1708 -0.179539 6.46751 0
M  V30 136 N 13.3029 -1.57598 0.00835791 0
M  V30 137 C 14.5509 -1.90551 -0.6734 0
M  V30 138 C 14.8719 -0.883301 -1.73847 0
M  V30 139 O 14.1419 0.0781442 -1.95744 0
M  V30 140 H 12.7219 -0.703312 -0.251717 0
M  V30 141 H 15.3839 -1.94833 0.0512592 0
M  V30 142 H 14.4799 -2.9056 -1.13935 0
M  V30 143 N 14.781 0.264519 -1.55364 0
M  V30 144 C 15.728 1.32717 -1.88825 0
M  V30 145 C 16.698 1.48675 -0.740605 0
M  V30 146 O 17.883 1.62945 -0.992657 0
M  V30 147 C 15.023 2.68089 -2.17307 0
M  V30 148 C 14.136 2.60284 -3.44785 0
M  V30 149 C 13.271 3.87892 -3.62924 0
M  V30 150 C 12.31 3.74631 -4.84064 0
M  V30 151 N 11.447 4.94092 -4.98816 0
M  V30 152 H 16.287 1.03481 -2.79456 0
M  V30 153 H 13.824 0.499757 -1.3835 0
M  V30 154 H 15.782 3.46864 -2.31821 0
M  V30 155 H 14.412 2.95509 -1.299 0
M  V30 156 H 13.464 1.73173 -3.38697 0
M  V30 157 H 14.776 2.46388 -4.33698 0
M  V30 158 H 13.93 4.75109 -3.77302 0
M  V30 159 H 12.669 4.04664 -2.7221 0
M  V30 160 H 11.674 2.85797 -4.69681 0
M  V30 161 H 12.899 3.5937 -5.76221 0
M  V30 162 H 10.845 5.11259 -4.11036 0
M  V30 163 H 10.762 4.8276 -5.81789 0
M  V30 164 H 12.03 5.82857 -5.17588 0
M  V30 165 N 16.2591 1.48442 0.529413 0
M  V30 166 C 17.2061 1.63007 1.63394 0
M  V30 167 C 18.1761 0.47212 1.59249 0
M  V30 168 O 19.3611 0.695673 1.77666 0
M  V30 169 C 16.5011 1.6763 3.01653 0
M  V30 170 C 15.6141 2.94535 3.16027 0
M  V30 171 C 14.7491 2.90316 4.44849 0
M  V30 172 C 13.7881 4.11923 4.52754 0
M  V30 173 N 12.9251 4.05777 5.72965 0
M  V30 174 H 17.7651 2.5733 1.50285 0
M  V30 175 H 15.3021 1.27613 0.731656 0
M  V30 176 H 17.2601 1.68292 3.81751 0
M  V30 177 H 15.8901 0.76797 3.13532 0
M  V30 178 H 14.9421 3.03615 2.29177 0
M  V30 179 H 16.2541 3.84512 3.17729 0
M  V30 180 H 15.4081 2.89382 5.33238 0
M  V30 181 H 14.1471 1.98068 4.45668 0
M  V30 182 H 13.1521 4.13131 3.62771 0
M  V30 183 H 14.3771 5.0533 4.53672 0
M  V30 184 H 12.3231 3.16351 5.74681 0
M  V30 185 H 12.2401 4.8946 5.76164 0
M  V30 186 H 13.5081 4.08904 6.6364 0
M  V30 187 N 17.7372 -0.778329 1.37039 0
M  V30 188 C 18.6672 -1.90546 1.34962 0
M  V30 189 C 19.6482 -1.68681 0.219274 0
M  V30 190 O 20.8332 -1.89634 0.418624 0
M  V30 191 C 17.9632 -3.27734 1.14925 0
M  V30 192 C 16.9172 -3.64147 2.24902 0
M  V30 193 C 16.2432 -4.99806 1.89996 0
M  V30 194 C 17.5432 -3.71579 3.67051 0
M  V30 195 H 19.2372 -1.92541 2.29277 0
M  V30 196 H 16.7832 -0.924948 1.10366 0
M  V30 197 H 18.7362 -4.06215 1.12104 0
M  V30 198 H 17.4602 -3.26154 0.170631 0
M  V30 199 H 16.1192 -2.8797 2.26868 0
M  V30 200 H 15.7672 -4.94759 0.906796 0
M  V30 201 H 15.4672 -5.25139 2.63634 0
M  V30 202 H 16.9912 -5.80694 1.88749 0
M  V30 203 H 18.4052 -4.40227 3.67251 0
M  V30 204 H 16.8022 -4.08405 4.39688 0
M  V30 205 H 17.8722 -2.72404 4.01154 0
M  V30 206 N 19.2153 -1.21501 -1.00376 0
M  V30 207 C 20.4453 -1.05746 -1.77486 0
M  V30 208 C 20.8533 0.395655 -1.85017 0
M  V30 209 O 20.1963 1.28626 -1.31152 0
M  V30 210 C 20.2583 -1.58092 -3.22873 0
M  V30 211 C 19.9223 -3.06568 -3.38917 0
M  V30 212 C 20.9193 -4.04106 -3.271 0
M  V30 213 C 18.6043 -3.45799 -3.64319 0
M  V30 214 C 20.5983 -5.38862 -3.40451 0
M  V30 215 C 18.2853 -4.80707 -3.77311 0
M  V30 216 C 19.2833 -5.77047 -3.65384 0
M  V30 217 O 18.9713 -7.09507 -3.77961 0
M  V30 218 H 18.7033 -0.371778 -0.564586 0
M  V30 219 H 21.2573 -1.61319 -1.27143 0
M  V30 220 H 19.4873 -0.969163 -3.74358 0
M  V30 221 H 21.1763 -1.38162 -3.81662 0
M  V30 222 H 21.9423 -3.75141 -3.07399 0
M  V30 223 H 17.8213 -2.71344 -3.72684 0
M  V30 224 H 21.3653 -6.14041 -3.31058 0
M  V30 225 H 17.2623 -5.09357 -3.96517 0
M  V30 226 H 18.0303 -7.16935 -3.94901 0
M  V30 227 N 20.6934 1.19889 -1.02296 0
M  V30 228 C 21.6034 2.26571 -0.608508 0
M  V30 229 C 22.6194 1.70299 0.356964 0
M  V30 230 O 23.7954 2.00235 0.216326 0
M  V30 231 C 20.8604 3.46677 0.0402814 0
M  V30 232 C 19.9214 4.18153 -0.97194 0
M  V30 233 C 19.1544 5.32525 -0.354016 0
M  V30 234 O 19.3774 5.64112 0.844604 0
M  V30 235 O 18.3114 5.92242 -1.07391 0
M  V30 236 H 22.1374 2.64251 -1.49684 0
M  V30 237 H 19.7224 1.26629 -0.792809 0
M  V30 238 H 21.6044 4.19475 0.402324 0
M  V30 239 H 20.2794 3.10858 0.902707 0
M  V30 240 H 19.1864 3.47499 -1.38546 0
M  V30 241 H 20.5194 4.57927 -1.80454 0
M  V30 242 N 22.1715 0.800033 1.35784 0
M  V30 243 C 23.4195 0.376597 1.9856 0
M  V30 244 C 23.7405 -1.05812 1.63795 0
M  V30 245 O 23.0105 -1.73103 0.917171 0
M  V30 246 H 21.5905 0.136261 0.734467 0
M  V30 247 H 24.2525 1.02442 1.65806 0
M  V30 248 H 23.3485 0.477002 3.08433 0
M  V30 249 N 23.6496 -1.47581 0.552962 0
M  V30 250 C 24.5966 -2.29957 -0.197108 0
M  V30 251 C 25.5666 -1.38799 -0.912359 0
M  V30 252 O 26.7516 -1.67761 -0.908888 0
M  V30 253 C 23.8916 -3.22672 -1.22379 0
M  V30 254 C 23.0046 -4.28919 -0.515038 0
M  V30 255 C 22.1396 -5.0879 -1.52664 0
M  V30 256 C 21.1786 -6.06815 -0.802631 0
M  V30 257 N 20.3156 -6.7966 -1.76086 0
M  V30 258 H 25.1556 -2.93578 0.511486 0
M  V30 259 H 22.6926 -1.4471 0.264067 0
M  V30 260 H 24.6506 -3.74845 -1.83159 0
M  V30 261 H 23.2806 -2.60925 -1.90047 0
M  V30 262 H 22.3326 -3.79835 0.207192 0
M  V30 263 H 23.6446 -4.98773 0.0523425 0
M  V30 264 H 22.7986 -5.65091 -2.20809 0
M  V30 265 H 21.5376 -4.38828 -2.12794 0
M  V30 266 H 20.5426 -5.49695 -0.107238 0
M  V30 267 H 21.7676 -6.78784 -0.207135 0
M  V30 268 H 19.7136 -6.12432 -2.35081 0
M  V30 269 H 19.6306 -7.45669 -1.24552 0
M  V30 270 H 20.8986 -7.40538 -2.43359 0
M  V30 271 N 25.1277 -0.289203 -1.54924 0
M  V30 272 C 26.3557 0.326463 -2.04308 0
M  V30 273 C 26.7707 1.48413 -1.16701 0
M  V30 274 O 26.1277 1.81507 -0.190087 0
M  V30 275 C 26.1787 0.794014 -3.52672 0
M  V30 276 O 25.8997 -0.317564 -4.36948 0
M  V30 277 C 27.4007 1.47605 -4.18004 0
M  V30 278 H 24.6207 0.0726272 -0.667058 0
M  V30 279 H 27.1647 -0.425401 -2.00026 0
M  V30 280 H 25.3197 1.49593 -3.57352 0
M  V30 281 H 25.7337 0.0443186 -5.24481 0
M  V30 282 H 27.2077 1.75447 -5.23376 0
M  V30 283 H 27.6847 2.41224 -3.67025 0
M  V30 284 H 28.2907 0.81762 -4.17367 0
M  V30 285 N 26.6058 1.57591 -0.0167156 0
M  V30 286 C 27.5528 2.09462 0.969251 0
M  V30 287 C 28.5228 0.99381 1.33089 0
M  V30 288 O 29.7078 1.26726 1.42636 0
M  V30 289 C 26.8478 2.61622 2.25051 0
M  V30 290 C 25.9608 3.85666 1.94642 0
M  V30 291 C 25.0958 4.26266 3.16972 0
M  V30 292 C 24.1348 5.43101 2.82326 0
M  V30 293 N 23.2718 5.78915 3.97243 0
M  V30 294 H 28.1118 2.93428 0.519997 0
M  V30 295 H 25.6488 1.45044 0.245087 0
M  V30 296 H 27.6068 2.89949 2.99976 0
M  V30 297 H 26.2368 1.80505 2.67615 0
M  V30 298 H 25.2888 3.64145 1.10013 0
M  V30 299 H 26.6008 4.70678 1.65117 0
M  V30 300 H 25.7548 4.55963 4.00228 0
M  V30 301 H 24.4938 3.39996 3.49648 0
M  V30 302 H 23.4988 5.1311 1.97479 0
M  V30 303 H 24.7238 6.3106 2.50879 0
M  V30 304 H 22.6698 4.95602 4.29785 0
M  V30 305 H 22.5868 6.58539 3.71299 0
M  V30 306 H 23.8548 6.13212 4.81239 0
M  V30 307 N 28.0839 -0.256276 1.55502 0
M  V30 308 C 28.9939 -1.33882 1.92647 0
M  V30 309 C 30.0099 -1.53159 0.825727 0
M  V30 310 O 31.1859 -1.66963 1.12629 0
M  V30 311 C 28.2509 -2.6751 2.20543 0
M  V30 312 C 27.3119 -2.56836 3.43997 0
M  V30 313 C 26.5449 -3.84092 3.70553 0
M  V30 314 O 26.7679 -4.85545 2.99336 0
M  V30 315 O 25.7019 -3.83288 4.64084 0
M  V30 316 H 29.5279 -1.05374 2.84833 0
M  V30 317 H 27.1129 -0.456237 1.42263 0
M  V30 318 H 28.9949 -3.46492 2.39835 0
M  V30 319 H 27.6699 -2.9577 1.31536 0
M  V30 320 H 26.5769 -1.76172 3.30021 0
M  V30 321 H 27.9099 -2.33523 4.33275 0
M  V30 322 N 29.562 -1.4872 -0.521534 0
M  V30 323 C 30.808 -1.574 -1.27879 0
M  V30 324 C 31.141 -0.250817 -1.92573 0
M  V30 325 O 30.416 0.743934 -1.79711 0
M  V30 326 C 30.699 -2.71843 -2.36164 0
M  V30 327 C 30.552 -4.13893 -1.76105 0
M  V30 328 C 31.871 -2.82008 -3.37875 0
M  V30 329 H 28.99 -0.572941 -0.463581 0
M  V30 330 H 31.632 -1.80927 -0.580119 0
M  V30 331 H 29.782 -2.51914 -2.95756 0
M  V30 332 H 31.454 -4.45284 -1.20499 0
M  V30 333 H 29.697 -4.20498 -1.06601 0
M  V30 334 H 30.368 -4.89804 -2.5455 0
M  V30 335 H 32.844 -3.00086 -2.88249 0
M  V30 336 H 31.72 -3.63796 -4.11028 0
M  V30 337 H 31.981 -1.90511 -3.98946 0
M  V30 338 N 31.0401 0.771051 -1.3745 0
M  V30 339 C 32.2701 1.55789 -1.35696 0
M  V30 340 C 32.6781 1.89107 0.0594523 0
M  V30 341 O 32.0211 1.51984 1.03183 0
M  V30 342 C 32.0831 2.89515 -2.13123 0
M  V30 343 C 31.7471 2.78829 -3.62082 0
M  V30 344 C 32.7441 2.49812 -4.5595 0
M  V30 345 C 30.4291 2.9683 -4.05213 0
M  V30 346 C 32.4231 2.38923 -5.90927 0
M  V30 347 C 30.1101 2.85562 -5.40276 0
M  V30 348 C 31.1081 2.56649 -6.32946 0
M  V30 349 O 30.7961 2.45408 -7.65526 0
M  V30 350 H 30.5281 0.489257 -0.466481 0
M  V30 351 H 33.0821 0.963446 -1.81403 0
M  V30 352 H 31.3121 3.51081 -1.62107 0
M  V30 353 H 33.0011 3.50915 -2.03994 0
M  V30 354 H 33.7671 2.3559 -4.23937 0
M  V30 355 H 29.6461 3.18335 -3.33442 0
M  V30 356 H 33.1901 2.16277 -6.63227 0
M  V30 357 H 29.0871 2.99351 -5.71891 0
M  V30 358 H 29.8551 2.60753 -7.75855 0
M  V30 359 N 32.5182 1.22032 0.997298 0
M  V30 360 C 33.4282 1.00271 2.12092 0
M  V30 361 C 34.4442 -0.047621 1.73935 0
M  V30 362 O 35.6202 0.144136 2.00884 0
M  V30 363 C 32.6852 0.578449 3.4184 0
M  V30 364 C 31.7462 1.70189 3.94125 0
M  V30 365 C 30.9792 1.29778 5.17681 0
M  V30 366 O 31.2022 0.174676 5.70132 0
M  V30 367 O 30.1362 2.11261 5.63607 0
M  V30 368 H 33.9622 1.94398 2.3333 0
M  V30 369 H 31.5472 1.00587 1.10465 0
M  V30 370 H 33.4292 0.351998 4.19927 0
M  V30 371 H 32.1042 -0.334019 3.21972 0
M  V30 372 H 31.0112 1.98282 3.1723 0
M  V30 373 H 32.3442 2.59206 4.18417 0
M  V30 374 N 33.9963 -1.19345 1.0293 0
M  V30 375 C 34.9263 -2.2481 0.631105 0
M  V30 376 C 35.9073 -1.66245 -0.360104 0
M  V30 377 O 37.0923 -1.92677 -0.242726 0
M  V30 378 C 34.2223 -3.47295 -0.0184607 0
M  V30 379 C 33.1763 -4.18536 0.895073 0
M  V30 380 C 32.5023 -5.34586 0.110592 0
M  V30 381 C 33.8023 -4.73287 2.209 0
M  V30 382 H 35.4963 -2.58372 1.51275 0
M  V30 383 H 33.0423 -1.24194 0.728818 0
M  V30 384 H 34.9953 -4.20268 -0.308675 0
M  V30 385 H 33.7193 -3.12933 -0.934907 0
M  V30 386 H 32.3783 -3.47446 1.16949 0
M  V30 387 H 32.0263 -4.96469 -0.807902 0
M  V30 388 H 31.7263 -5.83183 0.719087 0
M  V30 389 H 33.2503 -6.10355 -0.172871 0
M  V30 390 H 34.6643 -5.38013 1.98028 0
M  V30 391 H 33.0613 -5.32373 2.76946 0
M  V30 392 H 34.1313 -3.91331 2.86336 0
M  V30 393 N 35.4744 -0.807222 -1.35358 0
M  V30 394 C 36.4044 -0.232509 -2.3234 0
M  V30 395 C 37.3854 0.642386 -1.57504 0
M  V30 396 O 38.5704 0.572526 -1.85569 0
M  V30 397 C 35.7004 0.619238 -3.41735 0
M  V30 398 C 34.6544 -0.157215 -4.27711 0
M  V30 399 C 33.9804 0.816273 -5.28433 0
M  V30 400 C 35.2804 -1.35656 -5.04376 0
M  V30 401 H 36.9744 -1.04276 -2.80654 0
M  V30 402 H 34.5204 -0.50288 -1.34934 0
M  V30 403 H 36.4734 1.03137 -4.08584 0
M  V30 404 H 35.1974 1.46239 -2.92031 0
M  V30 405 H 33.8564 -0.550525 -3.62443 0
M  V30 406 H 33.5044 1.65494 -4.74996 0
M  V30 407 H 33.2044 0.301067 -5.86828 0
M  V30 408 H 34.7284 1.22659 -5.98153 0
M  V30 409 H 36.1424 -1.01927 -5.64166 0
M  V30 410 H 34.5394 -1.8063 -5.7227 0
M  V30 411 H 35.6094 -2.14288 -4.34981 0
M  V30 412 N 36.9525 1.47285 -0.560781 0
M  V30 413 C 38.2295 1.9558 0.0277798 0
M  V30 414 C 38.6095 1.5034 1.48192 0
M  V30 415 O 37.9575 0.743882 2.16052 0
M  V30 416 C 38.1675 3.48789 -0.121418 0
M  V30 417 C 39.5155 4.24594 0.0220912 0
M  V30 418 O 40.5395 3.56166 -0.0491439 0
M  V30 419 O 39.3985 5.46217 0.175958 0
M  V30 420 H 36.4925 0.824663 0.0621342 0
M  V30 421 H 39.0385 1.5767 -0.627556 0
M  V30 422 H 37.8105 3.74533 -1.13316 0
M  V30 423 H 37.4335 3.93473 0.571366 0
M  V30 424 N 38.4306 0.297415 1.54768 0
M  V30 425 C 39.6556 -0.318435 2.04941 0
M  V30 426 C 40.0806 -1.4701 1.17345 0
M  V30 427 O 39.4386 -1.80436 0.176758 0
M  V30 428 C 39.4866 -0.755749 3.52592 0
M  V30 429 O 38.5906 -1.86088 3.68028 0
M  V30 430 H 37.9316 -0.062421 0.661059 0
M  V30 431 H 40.4616 0.438215 1.99852 0
M  V30 432 H 40.4716 -1.04552 3.94376 0
M  V30 433 H 39.1466 0.0867233 4.1581 0
M  V30 434 H 37.7236 -1.57193 3.38149 0
M  V30 435 N 39.9087 -1.5758 0.0250728 0
M  V30 436 C 41.3197 -1.79476 -0.514323 0
M  V30 437 C 41.6707 -0.934956 -1.72491 0
M  V30 438 O 40.7957 -0.144245 -2.15919 0
M  V30 439 C 41.3907 -3.25503 -0.939842 0
M  V30 440 C 39.9497 -3.48408 -1.42438 0
M  V30 441 C 39.0967 -2.74583 -0.387201 0
M  V30 442 H 42.0477 -1.567 0.25113 0
M  V30 443 H 42.0687 -3.34992 -1.80445 0
M  V30 444 H 41.5807 -3.88056 -0.0585628 0
M  V30 445 H 39.6817 -2.91103 -2.32572 0
M  V30 446 H 39.7947 -4.57119 -1.43455 0
M  V30 447 H 38.1587 -2.39942 -0.854409 0
M  V30 448 H 38.9417 -3.39849 0.485543 0
M  V30 449 N 41.3868 0.248026 -1.55636 0
M  V30 450 C 42.6348 0.974295 -1.77065 0
M  V30 451 C 42.9558 1.85897 -0.588849 0
M  V30 452 O 42.2258 1.91868 0.395407 0
M  V30 453 H 40.8058 0.362733 -0.653019 0
M  V30 454 H 43.4678 0.266244 -1.93073 0
M  V30 455 H 42.5638 1.59667 -2.68166 0
M  V30 456 N 42.8649 1.48995 0.513639 0
M  V30 457 C 43.8119 1.6473 1.61656 0
M  V30 458 C 44.7819 0.488984 1.58739 0
M  V30 459 O 45.9669 0.714478 1.76918 0
M  V30 460 C 43.1069 1.7082 2.99858 0
M  V30 461 C 42.2199 2.9787 3.12885 0
M  V30 462 C 41.3549 2.95017 4.41744 0
M  V30 463 C 40.3939 4.16702 4.48359 0
M  V30 464 N 39.5309 4.11832 5.68629 0
M  V30 465 H 44.3709 2.58909 1.47547 0
M  V30 466 H 41.9079 1.28382 0.71808 0
M  V30 467 H 43.8659 1.72331 3.79944 0
M  V30 468 H 42.4959 0.801181 3.12699 0
M  V30 469 H 41.5479 3.06029 2.25944 0
M  V30 470 H 42.8599 3.8786 3.13633 0
M  V30 471 H 42.0139 2.95021 5.30139 0
M  V30 472 H 40.7529 2.02784 4.43542 0
M  V30 473 H 39.7579 4.16955 3.58369 0
M  V30 474 H 40.9829 5.10113 4.48287 0
M  V30 475 H 38.9289 3.22428 5.71293 0
M  V30 476 H 38.8459 4.95543 5.7094 0
M  V30 477 H 40.1139 4.1592 6.59266 0
M  V30 478 N 44.343 -0.763751 1.37857 0
M  V30 479 C 45.589 -1.52483 1.33704 0
M  V30 480 C 45.922 -1.94051 -0.0759612 0
M  V30 481 O 45.197 -1.64675 -1.03501 0
M  V30 482 C 45.48 -2.78441 2.28348 0
M  V30 483 C 45.333 -2.43075 3.78463 0
M  V30 484 C 46.652 -3.80415 2.21298 0
M  V30 485 H 43.771 -0.553169 0.487005 0
M  V30 486 H 46.413 -0.875562 1.68624 0
M  V30 487 H 44.563 -3.33842 1.987 0
M  V30 488 H 46.235 -1.93527 4.18742 0
M  V30 489 H 44.478 -1.75666 3.96641 0
M  V30 490 H 45.149 -3.33149 4.40132 0
M  V30 491 H 47.625 -3.34527 2.47449 0
M  V30 492 H 46.501 -4.66257 2.89647 0
M  V30 493 H 46.762 -4.25262 1.20849 0
M  V30 494 N 45.8211 -1.22559 -0.990812 0
M  V30 495 C 46.7511 -1.0218 -2.09956 0
M  V30 496 C 47.7321 0.0579394 -1.70001 0
M  V30 497 O 48.9171 -0.104684 -1.93918 0
M  V30 498 C 46.0471 -0.601023 -3.4206 0
M  V30 499 C 45.0011 -1.62694 -3.95872 0
M  V30 500 C 44.3271 -1.06193 -5.24049 0
M  V30 501 C 45.6271 -3.01743 -4.2632 0
M  V30 502 H 47.3211 -1.94916 -2.27262 0
M  V30 503 H 44.8671 -0.938566 -1.09211 0
M  V30 504 H 46.8201 -0.445561 -4.19038 0
M  V30 505 H 45.5441 0.362005 -3.24588 0
M  V30 506 H 44.2031 -1.77021 -3.21028 0
M  V30 507 H 43.8511 -0.0901903 -5.02919 0
M  V30 508 H 43.5511 -1.74732 -5.61019 0
M  V30 509 H 45.0751 -0.918092 -6.03658 0
M  V30 510 H 46.4891 -2.90777 -4.94087 0
M  V30 511 H 44.8861 -3.67425 -4.74467 0
M  V30 512 H 45.9561 -3.51518 -3.34011 0
M  V30 513 N 47.2992 1.18797 -1.03562 0
M  V30 514 C 48.2292 2.24472 -0.643019 0
M  V30 515 C 49.2102 1.66433 0.351283 0
M  V30 516 O 50.3952 1.92803 0.232505 0
M  V30 517 C 47.5252 3.473 4.24935e-05 0
M  V30 518 C 46.4792 4.18055 -0.917257 0
M  V30 519 C 45.8052 5.34519 -0.138941 0
M  V30 520 C 47.1052 4.72109 -2.23407 0
M  V30 521 H 48.7992 2.57566 -1.52643 0
M  V30 522 H 46.3452 1.23806 -0.735394 0
M  V30 523 H 48.2982 4.20426 0.286383 0
M  V30 524 H 47.0222 3.13424 0.918299 0
M  V30 525 H 45.6812 3.46821 -1.1879 0
M  V30 526 H 45.3292 4.96891 0.781562 0
M  V30 527 H 45.0292 5.82794 -0.750005 0
M  V30 528 H 46.5532 6.10438 0.1405 0
M  V30 529 H 47.9672 5.36955 -2.00879 0
M  V30 530 H 46.3642 5.30897 -2.79765 0
M  V30 531 H 47.4342 3.89807 -2.88407 0
M  V30 532 N 48.7773 0.814389 1.34928 0
M  V30 533 C 49.7093 0.187834 2.28429 0
M  V30 534 C 50.7223 -0.617374 1.5064 0
M  V30 535 O 51.9113 -0.448454 1.72775 0
M  V30 536 C 49.0113 -0.755962 3.30361 0
M  V30 537 C 48.1843 0.00456686 4.374 0
M  V30 538 C 47.2433 -0.858876 5.19143 0
M  V30 539 O 46.2693 -0.306968 5.68372 0
M  V30 540 N 47.4713 -2.17988 5.38016 0
M  V30 541 H 50.2363 0.991105 2.82838 0
M  V30 542 H 47.7973 0.670561 1.4736 0
M  V30 543 H 49.7893 -1.338 3.81942 0
M  V30 544 H 48.3593 -1.46001 2.7641 0
M  V30 545 H 47.5793 0.767865 3.86649 0
M  V30 546 H 48.8673 0.528422 5.06049 0
M  V30 547 H 48.2653 -2.65212 4.99679 0
M  V30 548 H 46.8223 -2.71098 5.92747 0
M  V30 549 N 50.2554 -1.46986 0.568584 0
M  V30 550 C 51.4804 -2.07335 0.0520528 0
M  V30 551 C 51.9054 -1.41675 -1.23733 0
M  V30 552 O 51.2634 -0.495623 -1.74394 0
M  V30 553 C 51.3114 -3.60417 -0.11501 0
M  V30 554 O 50.4154 -3.95309 -1.17492 0
M  V30 555 H 49.7564 -0.661597 0.0564385 0
M  V30 556 H 52.2864 -1.88837 0.787507 0
M  V30 557 H 52.2964 -4.06698 -0.325644 0
M  V30 558 H 50.9714 -4.07601 0.826675 0
M  V30 559 H 49.5484 -3.60757 -0.943869 0
M  V30 560 N 51.7335 -0.305618 -1.54608 0
M  V30 561 C 52.6805 0.568421 -2.23691 0
M  V30 562 C 53.6505 1.12592 -1.22116 0
M  V30 563 O 54.8355 1.16959 -1.50749 0
M  V30 564 C 51.9755 1.7322 -2.98477 0
M  V30 565 C 51.0885 1.20566 -4.14835 0
M  V30 566 C 50.2235 2.33368 -4.77193 0
M  V30 567 C 49.2625 1.7787 -5.85686 0
M  V30 568 N 48.3995 2.84263 -6.4198 0
M  V30 569 H 53.2395 -0.0272867 -2.97988 0
M  V30 570 H 50.7765 -0.0252363 -1.47078 0
M  V30 571 H 52.7345 2.41675 -3.40072 0
M  V30 572 H 51.3645 2.29947 -2.26548 0
M  V30 573 H 50.4165 0.413223 -3.78149 0
M  V30 574 H 51.7285 0.759417 -4.92985 0
M  V30 575 H 50.8825 3.09761 -5.21664 0
M  V30 576 H 49.6215 2.8132 -3.98385 0
M  V30 577 H 48.6265 0.99968 -5.40635 0
M  V30 578 H 49.8515 1.30816 -6.66381 0
M  V30 579 H 47.7975 3.31541 -5.66053 0
M  V30 580 H 47.7145 2.44149 -7.15491 0
M  V30 581 H 48.9825 3.6054 -6.91109 0
M  V30 582 N 53.2116 1.57565 -0.0334293 0
M  V30 583 C 54.4886 1.83282 0.683163 0
M  V30 584 C 54.8686 0.91823 1.90084 0
M  V30 585 O 54.2166 -0.025113 2.28486 0
M  V30 586 C 54.4266 3.32599 1.0573 0
M  V30 587 C 55.7746 3.99179 1.44711 0
M  V30 588 O 56.7986 3.3712 1.15015 0
M  V30 589 O 55.6576 5.08565 2.0006 0
M  V30 590 H 52.7516 0.755869 0.335546 0
M  V30 591 H 55.2976 1.69589 -0.0614402 0
M  V30 592 H 54.0696 3.90834 0.190828 0
M  V30 593 H 53.6926 3.51415 1.85993 0
M  V30 594 N 54.6897 -0.239769 1.55765 0
M  V30 595 C 55.6217 -1.32001 1.87372 0
M  V30 596 C 56.6347 -1.43944 0.760522 0
M  V30 597 O 57.8237 -1.45167 1.0387 0
M  V30 598 C 54.9237 -2.69779 2.05115 0
M  V30 599 C 54.0967 -2.80014 3.36022 0
M  V30 600 C 53.1557 -3.98684 3.4342 0
M  V30 601 O 52.1817 -3.87877 4.16582 0
M  V30 602 N 53.3837 -5.12176 2.73232 0
M  V30 603 H 56.1487 -1.0522 2.80622 0
M  V30 604 H 53.7097 -0.429857 1.56089 0
M  V30 605 H 55.7017 -3.47517 2.07399 0
M  V30 606 H 54.2717 -2.89237 1.18577 0
M  V30 607 H 53.4917 -1.88896 3.45994 0
M  V30 608 H 54.7797 -2.83808 4.22292 0
M  V30 609 H 54.1777 -5.2385 2.13536 0
M  V30 610 H 52.7347 -5.88022 2.81199 0
M  V30 611 N 56.1678 -1.49265 -0.50573 0
M  V30 612 C 57.4168 -1.57761 -1.25675 0
M  V30 613 C 57.7298 -0.267371 -1.93764 0
M  V30 614 O 58.9358 -0.230827 -2.70517 0
M  V30 615 C 57.3918 -2.78332 -2.28165 0
M  V30 616 C 56.9998 -4.16096 -1.66037 0
M  V30 617 C 58.7438 -2.96155 -3.04125 0
M  V30 618 C 56.6508 -5.27895 -2.6661 0
M  V30 619 H 55.5808 -0.587391 -0.472745 0
M  V30 620 H 58.2318 -1.75644 -0.53118 0
M  V30 621 H 56.6138 -2.53934 -3.03865 0
M  V30 622 H 57.7878 -4.50612 -0.963622 0
M  V30 623 H 56.1028 -4.03591 -1.02484 0
M  V30 624 H 58.6998 -3.76849 -3.79327 0
M  V30 625 H 59.0428 -2.06534 -3.61455 0
M  V30 626 H 59.5758 -3.2057 -2.35541 0
M  V30 627 H 56.3148 -6.1956 -2.14068 0
M  V30 628 H 55.8348 -4.97839 -3.34539 0
M  V30 629 H 57.5138 -5.57031 -3.29129 0
M  V30 630 N 57.6459 0.756429 -1.3826 0
M  V30 631 C 58.8739 1.54565 -1.3754 0
M  V30 632 C 59.2889 1.88767 0.0355331 0
M  V30 633 O 58.6459 1.52572 1.0014 0
M  V30 634 C 58.6969 2.84654 -2.22833 0
M  V30 635 O 58.4179 2.51912 -3.5843 0
M  V30 636 C 59.9189 3.78807 -2.30261 0
M  V30 637 H 57.1389 0.478353 -0.470553 0
M  V30 638 H 59.6829 0.936381 -1.81803 0
M  V30 639 H 57.8379 3.41965 -1.8204 0
M  V30 640 H 58.2519 3.35325 -4.03308 0
M  V30 641 H 59.7259 4.67045 -2.94233 0
M  V30 642 H 60.2029 4.19038 -1.31545 0
M  V30 643 H 60.8089 3.2742 -2.71433 0
M  V30 644 N 59.124 1.23083 0.984299 0
M  V30 645 C 60.087 1.00979 2.05757 0
M  V30 646 C 61.087 -0.0269573 1.60777 0
M  V30 647 O 62.277 0.212403 1.729 0
M  V30 648 C 59.409 0.527072 3.36801 0
M  V30 649 H 60.602 1.9622 2.26799 0
M  V30 650 H 58.155 1.05072 1.15714 0
M  V30 651 H 58.89 -0.429294 3.21446 0
M  V30 652 H 58.675 1.27515 3.70786 0
M  V30 653 H 60.165 0.392942 4.15747 0
M  V30 654 N 60.6021 -1.18246 1.0419 0
M  V30 655 C 61.8501 -1.87886 0.744543 0
M  V30 656 C 62.1711 -1.8082 -0.730006 0
M  V30 657 O 61.4411 -1.22736 -1.52685 0
M  V30 658 H 60.0211 -0.695556 0.272417 0
M  V30 659 H 62.6831 -1.43494 1.31892 0
M  V30 660 H 61.7791 -2.9389 1.05049 0
M  V30 661 N 62.0802 -0.821533 -1.34494 0
M  V30 662 C 63.0282 -0.230702 -2.31453 0
M  V30 663 C 64.0222 0.627793 -1.57338 0
M  V30 664 O 65.2282 0.519288 -1.72347 0
M  V30 665 H 61.6032 -0.0558577 -0.749923 0
M  V30 666 H 63.5742 -1.06332 -2.78812 0
M  V30 667 C 62.3232 0.59391 -3.4259 0
M  V30 668 H 61.6462 -0.0573588 -3.99759 0
M  V30 669 H 63.0862 0.973446 -4.12674 0
M  V30 670 C 61.5452 1.76568 -2.86924 0
M  V30 671 O 62.0752 2.8638 -2.81691 0
M  V30 672 N 60.2812 1.58198 -2.43766 0
M  V30 673 H 59.8282 0.68872 -2.48222 0
M  V30 674 H 59.7862 2.36752 -2.06871 0
M  V30 675 N 63.5583 1.46682 -0.576371 0
M  V30 676 C 64.5213 2.28707 0.150239 0
M  V30 677 C 65.5213 1.38035 0.824794 0
M  V30 678 O 66.7113 1.60476 0.677719 0
M  V30 679 C 63.8433 3.18248 1.22192 0
M  V30 680 H 65.0363 2.94423 -0.570521 0
M  V30 681 H 62.5893 1.52688 -0.334078 0
M  V30 682 H 63.3243 2.57265 1.97447 0
M  V30 683 H 63.1093 3.85 0.742812 0
M  V30 684 H 64.5993 3.80001 1.73172 0
M  V30 685 N 65.0364 0.313813 1.54444 0
M  V30 686 C 65.9994 -0.54379 2.22656 0
M  V30 687 C 66.9994 -1.05124 1.21678 0
M  V30 688 O 68.1894 -0.945225 1.46325 0
M  V30 689 C 65.3214 -1.75427 2.92298 0
M  V30 690 H 66.5144 0.0523599 2.99854 0
M  V30 691 H 64.0674 0.0647834 1.56166 0
M  V30 692 H 64.8024 -2.38991 2.19211 0
M  V30 693 H 64.5874 -1.39791 3.66334 0
M  V30 694 H 66.0774 -2.36325 3.44297 0
M  V30 695 N 66.5145 -1.57545 0.0417849 0
M  V30 696 C 67.9305 -1.56467 -0.314704 0
M  V30 697 C 68.1305 -1.04859 -1.72066 0
M  V30 698 O 67.1865 -0.700983 -2.42575 0
M  V30 699 C 68.4995 -3.00317 -0.15174 0
M  V30 700 C 70.0475 -3.12201 -0.223553 0
M  V30 701 C 70.5225 -4.57913 -0.0892295 0
M  V30 702 N 72.0135 -4.6297 -0.145808 0
M  V30 703 C 72.7485 -5.73362 -0.0658459 0
M  V30 704 N 72.2445 -6.92769 0.0659282 0
M  V30 705 N 74.0375 -5.6197 -0.12075 0
M  V30 706 H 66.1885 -1.89416 0.961014 0
M  V30 707 H 68.4515 -0.871862 0.372237 0
M  V30 708 H 68.1575 -3.42073 0.817254 0
M  V30 709 H 68.0315 -3.65892 -0.916692 0
M  V30 710 H 70.4185 -2.70349 -1.18301 0
M  V30 711 H 70.4995 -2.49323 0.571994 0
M  V30 712 H 70.1435 -5.00448 0.866867 0
M  V30 713 H 70.0735 -5.18786 -0.903802 0
M  V30 714 H 72.5645 -3.7709 -0.247286 0
M  V30 715 H 72.8775 -7.72707 0.119905 0
M  V30 716 H 71.2225 -6.94927 0.100885 0
M  V30 717 H 74.4135 -4.67572 -0.222187 0
M  V30 718 H 74.5865 -6.47977 -0.0549735 0
M  V30 719 N 67.9926 0.231505 -1.5589 0
M  V30 720 C 68.9396 1.28682 -1.91598 0
M  V30 721 C 69.9096 1.47071 -0.771974 0
M  V30 722 O 71.0946 1.60802 -1.027 0
M  V30 723 C 68.2346 2.6342 -2.22944 0
M  V30 724 C 67.3476 2.52912 -3.50228 0
M  V30 725 C 66.4826 3.80106 -3.7107 0
M  V30 726 C 65.5216 3.64279 -4.91902 0
M  V30 727 N 64.6586 4.834 -5.09184 0
M  V30 728 H 69.4986 0.975305 -2.81588 0
M  V30 729 H 67.0356 0.470299 -1.39379 0
M  V30 730 H 68.9936 3.41869 -2.39126 0
M  V30 731 H 67.6236 2.92687 -1.36139 0
M  V30 732 H 66.6756 1.6595 -3.42294 0
M  V30 733 H 67.9876 2.37133 -4.38827 0
M  V30 734 H 67.1416 4.66999 -3.87295 0
M  V30 735 H 65.8806 3.98799 -2.80733 0
M  V30 736 H 64.8856 2.7577 -4.75637 0
M  V30 737 H 66.1106 3.47067 -5.83714 0
M  V30 738 H 64.0566 5.02425 -4.21788 0
M  V30 739 H 63.9736 4.70311 -5.91898 0
M  V30 740 H 65.2416 5.71747 -5.29835 0
M  V30 741 N 69.4707 1.49531 0.497807 0
M  V30 742 C 70.4187 1.66926 1.61983 0
M  V30 743 C 71.4127 0.535167 1.60724 0
M  V30 744 O 72.6187 0.714896 1.65195 0
M  V30 745 H 68.9937 0.526415 0.537021 0
M  V30 746 H 70.9647 2.61098 1.44465 0
M  V30 747 C 69.7137 1.75602 3.00099 0
M  V30 748 H 69.0367 2.62244 3.01775 0
M  V30 749 H 70.4767 1.91807 3.78135 0
M  V30 750 C 68.9357 0.501543 3.33146 0
M  V30 751 O 69.4657 -0.371342 3.9998 0
M  V30 752 N 67.6717 0.363531 2.88317 0
M  V30 753 H 67.2187 1.07485 2.34104 0
M  V30 754 H 67.1767 -0.474728 3.10795 0
M  V30 755 N 70.9488 -0.749086 1.3866 0
M  V30 756 C 71.8988 -1.85368 1.32751 0
M  V30 757 C 72.8828 -1.59511 0.210945 0
M  V30 758 O 74.0748 -1.71255 0.447299 0
M  V30 759 C 71.2038 -3.23131 1.15935 0
M  V30 760 C 70.2898 -3.54864 2.32233 0
M  V30 761 N 70.6808 -3.57625 3.57684 0
M  V30 762 C 68.9788 -3.85154 2.24883 0
M  V30 763 C 69.6798 -3.86753 4.34508 0
M  V30 764 N 68.6558 -4.03812 3.63918 0
M  V30 765 H 72.4578 -1.85787 2.27729 0
M  V30 766 H 69.9718 -0.946658 1.31955 0
M  V30 767 H 71.9688 -4.02185 1.09786 0
M  V30 768 H 70.6288 -3.23961 0.218947 0
M  V30 769 H 71.6398 -3.39276 3.91295 0
M  V30 770 H 68.3168 -3.93672 1.39027 0
M  V30 771 H 69.7068 -3.95474 5.43185 0
M  V30 772 N 72.4269 -1.23603 -0.977757 0
M  V30 773 C 73.3569 -1.04401 -2.0886 0
M  V30 774 C 74.3379 0.0399052 -1.70053 0
M  V30 775 O 75.5229 -0.125246 -1.93796 0
M  V30 776 C 72.6529 -0.637269 -3.41403 0
M  V30 777 C 71.6069 -1.66883 -3.94124 0
M  V30 778 C 70.9329 -1.11745 -5.22893 0
M  V30 779 C 72.2329 -3.06247 -4.23096 0
M  V30 780 H 73.9269 -1.97316 -2.25182 0
M  V30 781 H 71.4729 -0.950096 -1.08209 0
M  V30 782 H 73.4259 -0.48998 -4.18542 0
M  V30 783 H 72.1499 0.327557 -3.24953 0
M  V30 784 H 70.8089 -1.80416 -3.19133 0
M  V30 785 H 70.4569 -0.143527 -5.02795 0
M  V30 786 H 70.1569 -1.80672 -5.59134 0
M  V30 787 H 71.6809 -0.982067 -6.02651 0
M  V30 788 H 73.0949 -2.96001 -4.90975 0
M  V30 789 H 71.4919 -3.72436 -4.70544 0
M  V30 790 H 72.5619 -3.55041 -3.30263 0
M  V30 791 N 73.905 1.17692 -1.04816 0
M  V30 792 C 74.815 2.25229 -0.65643 0
M  V30 793 C 75.831 1.71018 0.320761 0
M  V30 794 O 77.007 2.00649 0.173805 0
M  V30 795 C 74.072 3.46684 -0.0332629 0
M  V30 796 C 73.133 4.15997 -1.06042 0
M  V30 797 C 72.366 5.31654 -0.466893 0
M  V30 798 O 72.589 5.65777 0.724758 0
M  V30 799 O 71.523 5.89831 -1.1993 0
M  V30 800 H 75.349 2.61016 -1.55255 0
M  V30 801 H 72.934 1.24919 -0.81949 0
M  V30 802 H 74.816 4.20234 0.313256 0
M  V30 803 H 73.491 3.12703 0.836566 0
M  V30 804 H 72.398 3.44482 -1.45886 0
M  V30 805 H 73.731 4.53996 -1.90127 0
M  V30 806 N 75.3831 0.828654 1.34056 0
M  V30 807 C 76.6311 0.41863 1.97717 0
M  V30 808 C 76.9521 -1.02314 1.66002 0
M  V30 809 O 76.2221 -1.71119 0.953683 0
M  V30 810 H 74.8021 0.151809 0.731412 0
M  V30 811 H 77.4641 1.05936 1.63596 0
M  V30 812 H 76.5601 0.542318 3.07352 0
M  V30 813 N 76.8612 -1.46375 0.584142 0
M  V30 814 C 77.8082 -2.30323 -0.148286 0
M  V30 815 C 78.7782 -1.40703 -0.882713 0
M  V30 816 O 79.9632 -1.69651 -0.873099 0
M  V30 817 C 77.1032 -3.25196 -1.15507 0
M  V30 818 C 76.2162 -4.29915 -0.423943 0
M  V30 819 C 75.3512 -5.11914 -1.41838 0
M  V30 820 C 74.3902 -6.08381 -0.673736 0
M  V30 821 N 73.5272 -6.83242 -1.6163 0
M  V30 822 H 78.3672 -2.92427 0.573644 0
M  V30 823 H 75.9042 -1.44118 0.294703 0
M  V30 824 H 77.8622 -3.78646 -1.75166 0
M  V30 825 H 76.4922 -2.64898 -1.8447 0
M  V30 826 H 75.5442 -3.7931 0.287714 0
M  V30 827 H 76.8562 -4.98549 0.158128 0
M  V30 828 H 76.0102 -5.69648 -2.08773 0
M  V30 829 H 74.7492 -4.43243 -2.03438 0
M  V30 830 H 73.7542 -5.49799 0.00938483 0
M  V30 831 H 74.9792 -6.79071 -0.0631082 0
M  V30 832 H 72.9252 -6.1728 -2.22038 0
M  V30 833 H 72.8422 -7.48144 -1.08707 0
M  V30 834 H 74.1102 -7.45534 -2.27596 0
M  V30 835 N 78.3393 -0.321999 -1.54275 0
M  V30 836 C 79.3023 0.531975 -2.22941 0
M  V30 837 C 80.3023 1.04478 -1.22234 0
M  V30 838 O 81.4923 0.937452 -1.46825 0
M  V30 839 C 78.6243 1.73874 -2.93224 0
M  V30 840 H 79.8173 -0.0682612 -2.99822 0
M  V30 841 H 77.3703 -0.0730644 -1.56129 0
M  V30 842 H 78.1053 2.37825 -2.20476 0
M  V30 843 H 77.8903 1.37847 -3.6707 0
M  V30 844 H 79.3803 2.34496 -3.45545 0
M  V30 845 N 79.8174 1.5752 -0.0501392 0
M  V30 846 C 80.7804 2.1037 0.909786 0
M  V30 847 C 81.7804 1.02308 1.24056 0
M  V30 848 O 82.9704 1.28385 1.17741 0
M  V30 849 C 80.1024 2.58708 2.21998 0
M  V30 850 H 81.2954 2.96479 0.451665 0
M  V30 851 H 78.8484 1.55038 0.198248 0
M  V30 852 H 79.5834 1.75989 2.72394 0
M  V30 853 H 79.3684 3.37675 1.99295 0
M  V30 854 H 80.8584 2.99747 2.9076 0
M  V30 855 N 81.2955 -0.223234 1.56011 0
M  V30 856 C 82.5445 -0.945912 1.78144 0
M  V30 857 C 82.8575 -1.85567 0.618396 0
M  V30 858 O 84.0635 -2.61688 0.723318 0
M  V30 859 C 82.5195 -1.73216 3.15475 0
M  V30 860 C 82.1275 -0.868619 4.39499 0
M  V30 861 C 83.8715 -2.44615 3.46935 0
M  V30 862 C 81.7785 -1.65212 5.67855 0
M  V30 863 H 80.7085 -0.356929 0.664167 0
M  V30 864 H 83.3595 -0.199845 1.82409 0
M  V30 865 H 81.7415 -2.52107 3.05382 0
M  V30 866 H 82.9155 -0.120366 4.60643 0
M  V30 867 H 81.2305 -0.26683 4.15544 0
M  V30 868 H 83.8275 -3.03732 4.40058 0
M  V30 869 H 84.1705 -3.17417 2.69355 0
M  V30 870 H 84.7035 -1.72715 3.58349 0
M  V30 871 H 81.4425 -0.967407 6.48322 0
M  V30 872 H 80.9625 -2.37503 5.50774 0
M  V30 873 H 82.6415 -2.21322 6.07968 0
M  V30 874 N 82.7736 -1.49793 -0.48987 0
M  V30 875 C 83.9986 -1.63836 -1.27172 0
M  V30 876 C 84.4236 -0.31402 -1.8546 0
M  V30 877 O 83.7816 0.719803 -1.66399 0
M  V30 878 C 83.8296 -2.71797 -2.36978 0
M  V30 879 O 82.9336 -2.31744 -3.41128 0
M  V30 880 H 82.2746 -0.547997 -0.37496 0
M  V30 881 H 84.8046 -1.96053 -0.585191 0
M  V30 882 H 84.8146 -2.94305 -2.82575 0
M  V30 883 H 83.4896 -3.67923 -1.93921 0
M  V30 884 H 82.0666 -2.1961 -3.01373 0
M  V30 885 N 84.2517 0.741722 -1.39055 0
M  V30 886 C 85.1997 1.87702 -1.3737 0
M  V30 887 C 86.1937 1.67427 -0.257812 0
M  V30 888 O 87.3997 1.7485 -0.427489 0
M  V30 889 H 83.7747 0.617757 -0.428812 0
M  V30 890 H 85.7457 1.86239 -2.33147 0
M  V30 891 C 84.4947 3.25315 -1.22741 0
M  V30 892 H 83.8177 3.41509 -2.07873 0
M  V30 893 H 85.2577 4.04964 -1.25618 0
M  V30 894 C 83.7167 3.36838 0.0647316 0
M  V30 895 O 84.2467 3.88073 1.03741 0
M  V30 896 N 82.4527 2.90329 0.125544 0
M  V30 897 H 81.9997 2.48823 -0.666682 0
M  V30 898 H 81.9577 2.98418 0.989639 0
M  V30 899 N 85.7298 1.2412 0.971189 0
M  V30 900 C 86.6768 1.0305 2.06517 0
M  V30 901 C 87.6468 -0.0550666 1.66009 0
M  V30 902 O 88.8318 0.0988688 1.90544 0
M  V30 903 C 85.9718 0.637653 3.39158 0
M  V30 904 C 85.0848 1.79633 3.92882 0
M  V30 905 C 84.2198 1.34939 5.13775 0
M  V30 906 C 83.2588 2.47823 5.59687 0
M  V30 907 N 82.3958 2.04022 6.71803 0
M  V30 908 H 87.2358 1.96685 2.23873 0
M  V30 909 H 84.7728 0.979694 1.09729 0
M  V30 910 H 86.7308 0.390931 4.15364 0
M  V30 911 H 85.3608 -0.261693 3.21737 0
M  V30 912 H 84.4128 2.15681 3.13346 0
M  V30 913 H 85.7248 2.64466 4.22918 0
M  V30 914 H 84.8788 1.06134 5.97345 0
M  V30 915 H 83.6178 0.471557 4.85415 0
M  V30 916 H 82.6228 2.77392 4.74693 0
M  V30 917 H 83.8478 3.36158 5.90063 0
M  V30 918 H 81.7938 1.18632 6.45184 0
M  V30 919 H 81.7108 2.82409 7.01271 0
M  V30 920 H 82.9788 1.78347 7.58823 0
M  V30 921 N 87.2079 -1.17134 1.05439 0
M  V30 922 C 88.4569 -1.86791 0.761049 0
M  V30 923 C 88.7699 -1.82072 -0.714795 0
M  V30 924 O 89.9759 -2.47223 -1.12218 0
M  V30 925 C 88.4319 -3.35166 1.31117 0
M  V30 926 C 88.0399 -3.48381 2.81664 0
M  V30 927 C 89.7839 -4.10134 1.09499 0
M  V30 928 C 87.6909 -4.90793 3.29964 0
M  V30 929 H 86.6209 -0.699681 0.281002 0
M  V30 930 H 89.2719 -1.3226 1.27199 0
M  V30 931 H 87.6539 -3.8925 0.72803 0
M  V30 932 H 88.8279 -3.04502 3.45855 0
M  V30 933 H 87.1429 -2.86836 3.01851 0
M  V30 934 H 89.7399 -5.152 1.43084 0
M  V30 935 H 90.0829 -4.16287 0.0328772 0
M  V30 936 H 90.6159 -3.62264 1.64346 0
M  V30 937 H 87.3549 -4.89816 4.35616 0
M  V30 938 H 86.8749 -5.35333 2.70516 0
M  V30 939 H 88.5539 -5.59573 3.24787 0
M  V30 940 N 88.686 -0.835752 -1.33615 0
M  V30 941 C 89.914 -0.443344 -2.02094 0
M  V30 942 C 90.329 0.954522 -1.62894 0
M  V30 943 O 89.686 1.61982 -0.840723 0
M  V30 944 C 89.737 -0.550775 -3.5728 0
M  V30 945 O 89.458 -1.89356 -3.95065 0
M  V30 946 C 90.959 -0.154919 -4.43029 0
M  V30 947 H 88.179 -0.176359 -0.647409 0
M  V30 948 H 90.723 -1.12746 -1.70612 0
M  V30 949 H 88.878 0.0853997 -3.87306 0
M  V30 950 H 89.292 -1.87687 -4.89769 0
M  V30 951 H 90.766 -0.281144 -5.51284 0
M  V30 952 H 91.243 0.902863 -4.2982 0
M  V30 953 H 91.849 -0.765404 -4.18356 0
M  V30 954 N 90.1641 1.46063 -0.591896 0
M  V30 955 C 91.3891 2.07226 -0.0850314 0
M  V30 956 C 91.8141 1.43625 1.21463 0
M  V30 957 O 91.1721 0.523305 1.73583 0
M  V30 958 C 91.2201 3.60554 0.0576567 0
M  V30 959 O 90.3241 3.97128 1.11188 0
M  V30 960 H 89.6651 0.660615 -0.0669568 0
M  V30 961 H 92.1951 1.8756 -0.81745 0
M  V30 962 H 92.2051 4.07165 0.2609 0
M  V30 963 H 90.8801 4.06235 -0.891416 0
M  V30 964 H 89.4571 3.62213 0.886356 0
M  V30 965 N 91.6422 0.330177 1.54103 0
M  V30 966 C 92.8822 -0.270916 2.02597 0
M  V30 967 C 93.2462 -1.48826 1.21304 0
M  V30 968 O 94.4472 -2.16266 1.59633 0
M  V30 969 C 92.7182 -0.590328 3.52491 0
M  V30 970 S 94.2772 -1.17014 4.2291 0
M  V30 971 H 91.0952 -0.0815379 0.706309 0
M  V30 972 H 93.6972 0.464835 1.89893 0
M  V30 973 H 92.4012 0.303691 4.09275 0
M  V30 974 H 91.9322 -1.3561 3.69288 0
M  V30 975 H 93.9472 -2.45662 4.3112 0
M  V30 976 N 93.1203 -1.57491 0.0584922 0
M  V30 977 C 94.3693 -1.92155 -0.613146 0
M  V30 978 C 94.6823 -0.939334 -1.71569 0
M  V30 979 O 95.8883 -1.17829 -2.44599 0
M  V30 980 C 94.3443 -3.41303 -1.14195 0
M  V30 981 C 93.9523 -4.47944 -0.0711265 0
M  V30 982 C 95.6963 -3.84988 -1.78841 0
M  V30 983 C 93.6033 -5.88212 -0.613225 0
M  V30 984 H 92.5333 -0.717162 -0.232796 0
M  V30 985 H 95.1843 -1.83049 0.12857 0
M  V30 986 H 93.5663 -3.45437 -1.93621 0
M  V30 987 H 94.7403 -4.55408 0.702836 0
M  V30 988 H 93.0553 -4.13644 0.478313 0
M  V30 989 H 95.6523 -4.87159 -2.20408 0
M  V30 990 H 95.9953 -3.21632 -2.64308 0
M  V30 991 H 96.5283 -3.83401 -1.06059 0
M  V30 992 H 93.2673 -6.55183 0.203978 0
M  V30 993 H 92.7873 -5.84294 -1.35501 0
M  V30 994 H 94.4663 -6.37687 -1.09383 0
M  V30 995 N 94.5984 0.214957 -1.56127 0
M  V30 996 C 95.8454 0.938372 -1.79446 0
M  V30 997 C 96.1734 1.8407 -0.628378 0
M  V30 998 O 95.4284 1.91837 0.386925 0
M  V30 999 C 95.7274 1.80314 -3.0858 0
M  V30 1000 C 95.3934 1.05349 -4.3842 0
M  V30 1001 C 94.0554 0.846435 -4.73697 0
M  V30 1002 C 96.4074 0.524588 -5.18553 0
M  V30 1003 C 93.7354 0.098683 -5.86617 0
M  V30 1004 C 96.0874 -0.209853 -6.32252 0
M  V30 1005 C 94.7514 -0.428102 -6.66126 0
M  V30 1006 H 94.0214 0.343375 -0.656639 0
M  V30 1007 H 96.6684 0.206077 -1.90388 0
M  V30 1008 H 94.9734 2.6035 -2.92789 0
M  V30 1009 H 96.6704 2.36513 -3.23825 0
M  V30 1010 H 93.2604 1.22486 -4.10725 0
M  V30 1011 H 97.4444 0.672008 -4.91729 0
M  V30 1012 H 92.7004 -0.0805753 -6.11347 0
M  V30 1013 H 96.8744 -0.627157 -6.9357 0
M  V30 1014 H 94.5014 -1.00944 -7.53468 0
M  V30 1015 N 96.0765 1.50051 0.48192 0
M  V30 1016 C 97.0085 1.64263 1.59844 0
M  V30 1017 C 98.0215 0.52451 1.54119 0
M  V30 1018 O 99.2105 0.797293 1.59704 0
M  V30 1019 C 96.3105 1.60102 2.98698 0
M  V30 1020 C 95.4835 2.87767 3.29407 0
M  V30 1021 C 94.5425 2.76397 4.47762 0
M  V30 1022 O 93.5685 3.50348 4.48603 0
M  V30 1023 N 94.7705 1.89222 5.48794 0
M  V30 1024 H 97.5355 2.60566 1.48073 0
M  V30 1025 H 95.0965 1.47379 0.670149 0
M  V30 1026 H 97.0885 1.50123 3.75826 0
M  V30 1027 H 95.6585 0.715798 3.04294 0
M  V30 1028 H 94.8785 3.11954 2.40994 0
M  V30 1029 H 96.1665 3.72365 3.4673 0
M  V30 1030 H 95.5645 1.28434 5.50928 0
M  V30 1031 H 94.1215 1.85154 6.24949 0
M  V30 1032 N 97.5546 -0.734337 1.39446 0
M  V30 1033 C 98.4846 -1.86155 1.40955 0
M  V30 1034 C 99.4656 -1.67898 0.272827 0
M  V30 1035 O 100.651 -1.88207 0.478743 0
M  V30 1036 C 97.7806 -3.23912 1.25294 0
M  V30 1037 C 96.7346 -3.56808 2.36373 0
M  V30 1038 C 96.0606 -4.93508 2.058 0
M  V30 1039 C 97.3606 -3.59713 3.78687 0
M  V30 1040 H 99.0546 -1.8515 2.35287 0
M  V30 1041 H 96.6006 -0.889367 1.13253 0
M  V30 1042 H 98.5536 -4.02443 1.2497 0
M  V30 1043 H 97.2776 -3.25446 0.274308 0
M  V30 1044 H 95.9366 -2.80606 2.35914 0
M  V30 1045 H 95.5846 -4.91623 1.06374 0
M  V30 1046 H 95.2846 -5.16486 2.80208 0
M  V30 1047 H 96.8086 -5.74396 2.07128 0
M  V30 1048 H 98.2226 -4.2832 3.81071 0
M  V30 1049 H 96.6196 -3.94209 4.52459 0
M  V30 1050 H 97.6896 -2.59504 4.09617 0
M  V30 1051 N 99.0327 -1.24633 -0.964593 0
M  V30 1052 C 99.9627 -1.06611 -2.07741 0
M  V30 1053 C 100.944 0.0218666 -1.70086 0
M  V30 1054 O 102.129 -0.145793 -1.93652 0
M  V30 1055 C 99.2587 -0.673444 -3.40708 0
M  V30 1056 C 98.2127 -1.71054 -3.92332 0
M  V30 1057 C 97.5387 -1.17285 -5.21678 0
M  V30 1058 C 98.8387 -3.10718 -4.19824 0
M  V30 1059 H 100.533 -1.99693 -2.23076 0
M  V30 1060 H 98.0787 -0.96152 -1.07195 0
M  V30 1061 H 100.032 -0.534345 -4.17998 0
M  V30 1062 H 98.7557 0.293073 -3.25282 0
M  V30 1063 H 97.4147 -1.83791 -3.17201 0
M  V30 1064 H 97.0627 -0.196847 -5.02615 0
M  V30 1065 H 96.7627 -1.86592 -5.57187 0
M  V30 1066 H 98.2867 -1.04593 -6.01575 0
M  V30 1067 H 99.7007 -3.01192 -4.87808 0
M  V30 1068 H 98.0977 -3.77406 -4.66567 0
M  V30 1069 H 99.1677 -3.58524 -3.26479 0
M  V30 1070 N 100.511 1.16574 -1.06058 0
M  V30 1071 C 101.443 2.2045 -0.627239 0
M  V30 1072 C 102.456 1.59752 0.313534 0
M  V30 1073 O 103.645 1.78192 0.104896 0
M  V30 1074 C 100.745 3.3875 0.100974 0
M  V30 1075 C 99.9178 4.29008 -0.852687 0
M  V30 1076 C 98.9768 5.25944 -0.164152 0
M  V30 1077 O 98.0028 5.63535 -0.801047 0
M  V30 1078 N 99.2048 5.70075 1.09518 0
M  V30 1079 H 101.97 2.58249 -1.52077 0
M  V30 1080 H 99.5308 1.3156 -0.943594 0
M  V30 1081 H 101.523 4.00638 0.57194 0
M  V30 1082 H 100.093 2.99476 0.89628 0
M  V30 1083 H 99.3128 3.64419 -1.50308 0
M  V30 1084 H 100.601 4.86195 -1.49972 0
M  V30 1085 H 99.9988 5.41624 1.6328 0
M  V30 1086 H 98.5558 6.34067 1.51006 0
M  V30 1087 N 101.989 0.842826 1.3317 0
M  V30 1088 C 102.899 0.281444 2.32906 0
M  V30 1089 C 103.915 -0.594587 1.63526 0
M  V30 1090 O 105.091 -0.49777 1.95152 0
M  V30 1091 C 102.156 -0.530929 3.42611 0
M  V30 1092 C 101.217 0.369843 4.27704 0
M  V30 1093 C 100.45 -0.403853 5.3217 0
M  V30 1094 O 100.673 -1.63513 5.46461 0
M  V30 1095 O 99.6069 0.224199 6.01482 0
M  V30 1096 H 103.433 1.10744 2.82789 0
M  V30 1097 H 101.018 0.60545 1.36582 0
M  V30 1098 H 102.9 -0.992437 4.09547 0
M  V30 1099 H 101.575 -1.33392 2.94938 0
M  V30 1100 H 100.482 0.879275 3.6362 0
M  V30 1101 H 101.815 1.13771 4.78871 0
M  V30 1102 N 103.467 -1.45747 0.599634 0
M  V30 1103 C 104.43 -2.28917 -0.113835 0
M  V30 1104 C 105.43 -1.3933 -0.802729 0
M  V30 1105 O 106.62 -1.61534 -0.652103 0
M  V30 1106 C 103.752 -3.20152 -1.17114 0
M  V30 1107 H 104.945 -2.93478 0.617289 0
M  V30 1108 H 102.498 -1.52137 0.358327 0
M  V30 1109 H 103.233 -2.60374 -1.93329 0
M  V30 1110 H 103.018 -3.86133 -0.681468 0
M  V30 1111 H 104.508 -3.82708 -1.67105 0
M  V30 1112 N 104.945 -0.338344 -1.53925 0
M  V30 1113 C 106.193 0.259245 -2.0043 0
M  V30 1114 C 106.514 1.51484 -1.22791 0
M  V30 1115 O 105.784 1.93037 -0.33368 0
M  V30 1116 H 104.364 0.0987845 -0.740439 0
M  V30 1117 H 107.026 -0.458302 -1.89435 0
M  V30 1118 H 106.122 0.505334 -3.07982 0
M  V30 1119 N 106.423 1.57458 -0.0668435 0
M  V30 1120 C 107.672 1.92477 0.602947 0
M  V30 1121 C 107.985 0.948419 1.71068 0
M  V30 1122 O 109.191 1.19124 2.43971 0
M  V30 1123 C 107.647 3.41903 1.12383 0
M  V30 1124 C 107.255 4.47975 0.04737 0
M  V30 1125 C 108.999 3.85931 1.76797 0
M  V30 1126 C 106.906 5.88529 0.582022 0
M  V30 1127 H 105.836 0.718387 0.22899 0
M  V30 1128 H 108.487 1.82978 -0.138276 0
M  V30 1129 H 106.869 3.46459 1.91787 0
M  V30 1130 H 108.043 4.55029 -0.726978 0
M  V30 1131 H 106.358 4.13384 -0.500243 0
M  V30 1132 H 108.955 4.88322 2.17821 0
M  V30 1133 H 109.298 3.23029 2.62599 0
M  V30 1134 H 109.831 3.83958 1.04024 0
M  V30 1135 H 106.57 6.55065 -0.238721 0
M  V30 1136 H 106.09 5.85004 1.324 0
M  V30 1137 H 107.769 6.38258 1.05999 0
M  V30 1138 N 107.901 -0.206675 1.56239 0
M  V30 1139 C 108.848 -1.25617 1.93621 0
M  V30 1140 C 109.818 -1.45824 0.795274 0
M  V30 1141 O 111.003 -1.59148 1.05245 0
M  V30 1142 C 108.143 -2.59839 2.27107 0
M  V30 1143 C 107.256 -2.47308 3.54207 0
M  V30 1144 C 106.391 -3.74155 3.7707 0
M  V30 1145 C 105.43 -3.56407 4.97635 0
M  V30 1146 N 104.567 -4.75238 5.1681 0
M  V30 1147 H 109.407 -0.930383 2.83104 0
M  V30 1148 H 106.944 -0.448065 1.4011 0
M  V30 1149 H 108.902 -3.38021 2.44535 0
M  V30 1150 H 107.532 -2.90485 1.40778 0
M  V30 1151 H 106.584 -1.60483 3.4489 0
M  V30 1152 H 107.896 -2.30122 4.42544 0
M  V30 1153 H 107.05 -4.60778 3.94675 0
M  V30 1154 H 105.789 -3.94282 2.87042 0
M  V30 1155 H 104.794 -2.68168 4.79964 0
M  V30 1156 H 106.019 -3.37736 5.89161 0
M  V30 1157 H 103.965 -4.95651 4.29728 0
M  V30 1158 H 103.882 -4.60835 5.99306 0
M  V30 1159 H 105.15 -5.63246 5.38864 0
M  V30 1160 N 109.379 -1.50304 -0.473955 0
M  V30 1161 C 110.607 -1.64902 -1.24959 0
M  V30 1162 C 111.022 -0.331198 -1.85872 0
M  V30 1163 O 110.379 0.68652 -1.69095 0
M  V30 1164 C 110.43 -2.73803 -2.36038 0
M  V30 1165 O 110.151 -4.00477 -1.77624 0
M  V30 1166 C 111.652 -2.99349 -3.26964 0
M  V30 1167 H 108.872 -0.554383 -0.378022 0
M  V30 1168 H 111.416 -1.9651 -0.566054 0
M  V30 1169 H 109.571 -2.44898 -3.00173 0
M  V30 1170 H 109.985 -4.60678 -2.5075 0
M  V30 1171 H 111.459 -3.79217 -4.01121 0
M  V30 1172 H 111.936 -2.10307 -3.85574 0
M  V30 1173 H 112.542 -3.29774 -2.68569 0
M  V30 1174 N 110.857 0.726932 -1.39834 0
M  V30 1175 C 111.82 1.82269 -1.38962 0
M  V30 1176 C 112.82 1.58248 -0.285334 0
M  V30 1177 O 114.01 1.65499 -0.54366 0
M  V30 1178 C 111.142 3.20186 -1.17019 0
M  V30 1179 H 112.335 1.84443 -2.36476 0
M  V30 1180 H 109.888 0.931416 -1.25516 0
M  V30 1181 H 110.623 3.23669 -0.202204 0
M  V30 1182 H 110.408 3.3902 -1.96998 0
M  V30 1183 H 111.898 4.00235 -1.1917 0
M  V30 1184 N 112.336 1.25143 0.95797 0
M  V30 1185 C 113.583 1.09692 1.70217 0
M  V30 1186 C 113.911 -0.362654 1.91089 0
M  V30 1187 O 113.166 -1.28386 1.47701 0
M  V30 1188 C 113.465 1.79272 3.09187 0
M  V30 1189 C 113.131 3.29196 3.08125 0
M  V30 1190 C 111.793 3.70096 3.07543 0
M  V30 1191 C 114.145 4.24995 3.0171 0
M  V30 1192 C 111.473 5.05213 2.9829 0
M  V30 1193 C 113.825 5.60132 2.93999 0
M  V30 1194 C 112.489 6.00365 2.9175 0
M  V30 1195 H 111.759 0.401393 0.622868 0
M  V30 1196 H 114.406 1.55372 1.11945 0
M  V30 1197 H 112.711 1.26014 3.70982 0
M  V30 1198 H 114.408 1.64773 3.65583 0
M  V30 1199 H 110.998 2.96651 3.09348 0
M  V30 1200 H 115.182 3.9439 3.01281 0
M  V30 1201 H 110.438 5.35569 2.94916 0
M  V30 1202 H 114.612 6.3406 2.87996 0
M  V30 1203 H 112.239 7.05023 2.84336 0
M  V30 1204 N 113.814 -1.1601 1.06675 0
M  V30 1205 C 115.042 -1.90527 0.806667 0
M  V30 1206 C 115.457 -1.77643 -0.639396 0
M  V30 1207 O 114.814 -1.12369 -1.43803 0
M  V30 1208 C 114.865 -3.41106 1.19705 0
M  V30 1209 O 114.586 -3.53608 2.58636 0
M  V30 1210 C 116.087 -4.32663 0.965266 0
M  V30 1211 H 113.307 -0.604053 0.292166 0
M  V30 1212 H 115.851 -1.47026 1.4214 0
M  V30 1213 H 114.006 -3.82296 0.626774 0
M  V30 1214 H 114.42 -4.47011 2.74375 0
M  V30 1215 H 115.894 -5.36763 1.288 0
M  V30 1216 H 116.371 -4.39089 -0.0987936 0
M  V30 1217 H 116.977 -3.97206 1.52011 0
M  V30 1218 N 115.292 -0.849877 -1.32721 0
M  V30 1219 C 116.708 -0.539102 -1.50219 0
M  V30 1220 C 116.908 0.931271 -1.78689 0
M  V30 1221 O 115.964 1.71455 -1.85363 0
M  V30 1222 C 117.277 -1.42196 -2.64954 0
M  V30 1223 C 118.825 -1.42189 -2.78839 0
M  V30 1224 C 119.3 -2.28985 -3.96648 0
M  V30 1225 N 120.791 -2.26754 -4.03902 0
M  V30 1226 C 121.526 -2.90644 -4.94281 0
M  V30 1227 N 121.022 -3.63629 -5.897 0
M  V30 1228 N 122.815 -2.80057 -4.87365 0
M  V30 1229 H 114.966 -1.80156 -1.12506 0
M  V30 1230 H 117.229 -0.769217 -0.554085 0
M  V30 1231 H 116.935 -2.46733 -2.50631 0
M  V30 1232 H 116.809 -1.10591 -3.60624 0
M  V30 1233 H 119.196 -0.38419 -2.92588 0
M  V30 1234 H 119.277 -1.77807 -1.83898 0
M  V30 1235 H 118.921 -3.32819 -3.83658 0
M  V30 1236 H 118.851 -1.90702 -4.90857 0
M  V30 1237 H 121.342 -1.73688 -3.3562 0
M  V30 1238 H 121.655 -4.09558 -6.55349 0
M  V30 1239 H 120 -3.67737 -5.89741 0
M  V30 1240 H 123.191 -2.22593 -4.11789 0
M  V30 1241 H 123.364 -3.30132 -5.57599 0
M  V30 1242 N 116.77 1.45427 -0.607355 0
M  V30 1243 C 117.717 2.3053 0.111625 0
M  V30 1244 C 118.687 1.4209 0.860216 0
M  V30 1245 O 119.872 1.71019 0.845998 0
M  V30 1246 C 117.012 3.26992 1.10319 0
M  V30 1247 C 116.125 4.30535 0.355493 0
M  V30 1248 C 115.26 5.14105 1.33676 0
M  V30 1249 C 114.299 6.09376 0.576862 0
M  V30 1250 N 113.436 6.85727 1.5074 0
M  V30 1251 H 118.276 2.91477 -0.620093 0
M  V30 1252 H 115.813 1.43631 -0.317594 0
M  V30 1253 H 117.771 3.81385 1.6912 0
M  V30 1254 H 116.401 2.67799 1.80232 0
M  V30 1255 H 115.453 3.78805 -0.348023 0
M  V30 1256 H 116.765 4.98235 -0.237423 0
M  V30 1257 H 115.919 5.72897 1.99684 0
M  V30 1258 H 114.658 4.46423 1.9636 0
M  V30 1259 H 113.663 5.49715 -0.0968519 0
M  V30 1260 H 114.888 6.79085 -0.0449341 0
M  V30 1261 H 112.834 6.20735 2.12189 0
M  V30 1262 H 112.751 7.49778 0.967913 0
M  V30 1263 H 114.019 7.4906 2.15706 0
M  V30 1264 N 118.248 0.346503 1.53744 0
M  V30 1265 C 119.488 -0.249413 2.02873 0
M  V30 1266 C 119.852 -1.47532 1.22876 0
M  V30 1267 O 121.053 -2.1456 1.61918 0
M  V30 1268 C 119.324 -0.552909 3.53097 0
M  V30 1269 S 120.883 -1.12521 4.24128 0
M  V30 1270 H 117.701 -0.074042 0.707134 0
M  V30 1271 H 120.303 0.48495 1.8939 0
M  V30 1272 H 119.007 0.347083 4.0893 0
M  V30 1273 H 118.538 -1.31686 3.70705 0
M  V30 1274 H 120.553 -2.41075 4.33702 0
M  V30 1275 N 119.726 -1.57421 0.075193 0
M  V30 1276 C 120.974 -1.93236 -0.591974 0
M  V30 1277 C 121.295 -0.956241 -1.69944 0
M  V30 1278 O 120.565 -0.00494792 -1.95899 0
M  V30 1279 H 119.145 -0.713355 -0.22166 0
M  V30 1280 H 121.807 -1.9444 0.133848 0
M  V30 1281 H 120.903 -2.95131 -1.01509 0
M  V30 1282 N 121.204 0.198386 -1.56346 0
M  V30 1283 C 122.114 1.2664 -1.97483 0
M  V30 1284 C 123.13 1.49989 -0.882002 0
M  V30 1285 O 124.306 1.62668 -1.18748 0
M  V30 1286 C 121.371 2.59141 -2.30319 0
M  V30 1287 C 120.432 2.43892 -3.53292 0
M  V30 1288 C 119.665 3.70074 -3.84553 0
M  V30 1289 O 119.888 4.74101 -3.1715 0
M  V30 1290 O 118.822 3.658 -4.7799 0
M  V30 1291 H 122.648 0.947304 -2.88548 0
M  V30 1292 H 120.233 0.403123 -1.43859 0
M  V30 1293 H 122.115 3.37352 -2.5253 0
M  V30 1294 H 120.79 2.90684 -1.42423 0
M  V30 1295 H 119.697 1.63803 -3.36332 0
M  V30 1296 H 121.03 2.17282 -4.41644 0
M  V30 1297 N 122.682 1.50554 0.465978 0
M  V30 1298 C 123.91 1.65563 1.24083 0
M  V30 1299 C 124.325 0.341051 1.85694 0
M  V30 1300 O 123.682 -0.677543 1.69457 0
M  V30 1301 C 123.733 2.75051 2.34583 0
M  V30 1302 O 123.454 4.01413 1.75497 0
M  V30 1303 C 124.955 3.01078 3.25372 0
M  V30 1304 H 122.175 0.55638 0.375077 0
M  V30 1305 H 124.719 1.96807 0.555624 0
M  V30 1306 H 122.874 2.46486 2.9887 0
M  V30 1307 H 123.288 4.62002 2.48303 0
M  V30 1308 H 124.762 3.81339 3.99105 0
M  V30 1309 H 125.239 2.12349 3.84453 0
M  V30 1310 H 125.845 3.31194 2.66816 0
M  V30 1311 N 124.16 -0.719506 1.40217 0
M  V30 1312 C 125.123 -1.8153 1.39927 0
M  V30 1313 C 126.123 -1.58095 0.293723 0
M  V30 1314 O 127.313 -1.65209 0.552429 0
M  V30 1315 C 124.445 -3.19561 1.18716 0
M  V30 1316 H 125.638 -1.83186 2.37451 0
M  V30 1317 H 123.191 -0.924746 1.26008 0
M  V30 1318 H 123.926 -3.23557 0.219366 0
M  V30 1319 H 123.711 -3.3797 1.98793 0
M  V30 1320 H 125.201 -3.99598 1.21291 0
M  V30 1321 N 125.638 -1.25649 -0.95132 0
M  V30 1322 C 126.885 -1.10594 -1.69633 0
M  V30 1323 C 127.213 0.352515 -1.91279 0
M  V30 1324 O 126.468 1.27601 -1.4838 0
M  V30 1325 C 126.767 -1.80909 -3.08231 0
M  V30 1326 C 126.433 -3.30825 -3.06375 0
M  V30 1327 C 125.095 -3.71722 -3.05576 0
M  V30 1328 C 127.447 -4.26589 -2.99452 0
M  V30 1329 C 124.775 -5.06788 -2.95606 0
M  V30 1330 C 127.127 -5.61683 -2.91024 0
M  V30 1331 C 125.791 -6.01904 -2.88562 0
M  V30 1332 H 125.061 -0.404691 -0.620731 0
M  V30 1333 H 127.708 -1.55964 -1.11119 0
M  V30 1334 H 126.013 -1.27979 -3.70309 0
M  V30 1335 H 127.71 -1.6671 -3.64704 0
M  V30 1336 H 124.3 -2.98287 -3.07771 0
M  V30 1337 H 128.484 -3.95982 -2.99185 0
M  V30 1338 H 123.74 -5.37126 -2.92071 0
M  V30 1339 H 127.914 -6.35578 -2.84629 0
M  V30 1340 H 125.541 -7.06521 -2.80593 0
M  V30 1341 N 127.117 1.15442 -1.07289 0
M  V30 1342 C 128.366 1.85557 -0.790669 0
M  V30 1343 C 128.679 1.83186 0.685739 0
M  V30 1344 O 129.885 2.48977 1.0827 0
M  V30 1345 C 128.341 3.33038 -1.36433 0
M  V30 1346 C 127.949 3.43856 -2.8717 0
M  V30 1347 C 129.693 4.0834 -1.1601 0
M  V30 1348 C 127.6 4.85482 -3.3773 0
M  V30 1349 H 126.53 0.695122 -0.292098 0
M  V30 1350 H 129.181 1.30219 -1.29287 0
M  V30 1351 H 127.563 3.88043 -0.789864 0
M  V30 1352 H 128.737 2.98961 -3.50655 0
M  V30 1353 H 127.052 2.81998 -3.06376 0
M  V30 1354 H 129.649 5.12859 -1.51262 0
M  V30 1355 H 129.992 4.16182 -0.0991007 0
M  V30 1356 H 130.525 3.59603 -1.70089 0
M  V30 1357 H 127.264 4.82823 -4.43353 0
M  V30 1358 H 126.784 5.30961 -2.78999 0
M  V30 1359 H 128.463 5.54335 -3.33648 0
M  V30 1360 N 128.595 0.856903 1.32268 0
M  V30 1361 C 129.558 0.308171 2.27119 0
M  V30 1362 C 130.558 -0.533421 1.51695 0
M  V30 1363 O 131.748 -0.344607 1.70757 0
M  V30 1364 C 128.88 -0.563757 3.36206 0
M  V30 1365 H 130.073 1.14535 2.77167 0
M  V30 1366 H 127.626 0.631421 1.42978 0
M  V30 1367 H 128.361 -1.42266 2.91429 0
M  V30 1368 H 128.146 0.0386749 3.92081 0
M  V30 1369 H 129.636 -0.940386 4.06874 0
M  V30 1370 N 130.073 -1.45103 0.615059 0
M  V30 1371 C 131.484 -1.85654 0.197383 0
M  V30 1372 C 131.835 -1.51433 -1.24749 0
M  V30 1373 O 130.96 -0.944608 -1.94695 0
M  V30 1374 C 131.555 -3.36972 0.351448 0
M  V30 1375 C 130.114 -3.76398 -0.011593 0
M  V30 1376 C 129.261 -2.69024 0.672394 0
M  V30 1377 H 132.212 -1.35797 0.821263 0
M  V30 1378 H 132.233 -3.78239 -0.414227 0
M  V30 1379 H 131.745 -3.61847 1.40314 0
M  V30 1380 H 129.846 -3.5714 -1.06217 0
M  V30 1381 H 129.959 -4.77532 0.387265 0
M  V30 1382 H 128.323 -2.54465 0.109284 0
M  V30 1383 H 129.106 -2.96735 1.72636 0
M  V30 1384 N 131.551 -0.354651 -1.53558 0
M  V30 1385 C 132.483 0.5315 -2.22952 0
M  V30 1386 C 133.496 1.05503 -1.23988 0
M  V30 1387 O 134.685 0.963279 -1.50277 0
M  V30 1388 C 131.785 1.74538 -2.90499 0
M  V30 1389 C 130.958 1.35524 -4.15875 0
M  V30 1390 C 130.017 2.42999 -4.66731 0
M  V30 1391 O 129.043 2.05844 -5.30676 0
M  V30 1392 N 130.245 3.74423 -4.43608 0
M  V30 1393 H 133.01 -0.0628615 -2.99634 0
M  V30 1394 H 130.571 -0.179302 -1.60904 0
M  V30 1395 H 132.563 2.45892 -3.21433 0
M  V30 1396 H 131.133 2.24686 -2.17336 0
M  V30 1397 H 130.353 0.471998 -3.91364 0
M  V30 1398 H 131.641 1.07071 -4.97406 0
M  V30 1399 H 131.039 4.07391 -3.92491 0
M  V30 1400 H 129.596 4.41913 -4.7912 0
M  V30 1401 N 133.029 1.57378 -0.0835403 0
M  V30 1402 C 134.269 1.95808 0.586381 0
M  V30 1403 C 134.633 0.963706 1.66062 0
M  V30 1404 O 135.834 1.23608 2.38693 0
M  V30 1405 C 134.105 3.38808 1.13771 0
M  V30 1406 S 135.664 3.99225 1.82112 0
M  V30 1407 H 132.482 0.684675 0.191679 0
M  V30 1408 H 135.084 1.94843 -0.160194 0
M  V30 1409 H 133.788 4.08954 0.344197 0
M  V30 1410 H 133.319 3.43344 1.92038 0
M  V30 1411 H 135.334 3.87087 3.10449 0
M  V30 1412 N 134.507 -0.190092 1.56449 0
M  V30 1413 C 135.417 -1.25591 1.98152 0
M  V30 1414 C 136.433 -1.49519 0.889944 0
M  V30 1415 O 137.609 -1.62036 1.19609 0
M  V30 1416 C 134.674 -2.57916 2.3169 0
M  V30 1417 C 133.735 -2.42015 3.5458 0
M  V30 1418 C 132.968 -3.6803 3.8651 0
M  V30 1419 O 133.191 -4.72413 3.1966 0
M  V30 1420 O 132.125 -3.6326 4.79923 0
M  V30 1421 H 135.951 -0.931988 2.89046 0
M  V30 1422 H 133.536 -0.395488 1.4407 0
M  V30 1423 H 135.418 -3.36008 2.54316 0
M  V30 1424 H 134.093 -2.89925 1.43963 0
M  V30 1425 H 133 -1.62017 3.37196 0
M  V30 1426 H 134.333 -2.14937 4.4279 0
M  V30 1427 N 135.985 -1.50799 -0.457987 0
M  V30 1428 C 136.918 -1.65273 -1.57353 0
M  V30 1429 C 137.896 -0.500578 -1.54703 0
M  V30 1430 O 139.08 -0.721781 -1.74134 0
M  V30 1431 C 136.207 -1.64737 -2.95938 0
M  V30 1432 C 135.253 -2.8567 -3.16693 0
M  V30 1433 S 136.086 -4.46791 -2.95191 0
M  V30 1434 C 137.242 -4.48968 -4.36095 0
M  V30 1435 H 137.475 -2.59633 -1.44838 0
M  V30 1436 H 135.008 -1.40225 -0.64625 0
M  V30 1437 H 136.966 -1.65112 -3.7583 0
M  V30 1438 H 135.627 -0.715899 -3.05833 0
M  V30 1439 H 134.82 -2.81637 -4.17967 0
M  V30 1440 H 134.422 -2.8293 -2.44594 0
M  V30 1441 H 136.714 -4.23337 -5.28954 0
M  V30 1442 H 137.657 -5.50664 -4.45168 0
M  V30 1443 H 138.065 -3.78522 -4.18786 0
M  V30 1444 N 137.463 0.71206 -1.40597 0
M  V30 1445 C 138.712 1.46754 -1.38369 0
M  V30 1446 C 139.025 1.95598 0.0097839 0
M  V30 1447 O 140.231 2.71059 0.154677 0
M  V30 1448 C 138.687 2.65289 -2.43207 0
M  V30 1449 C 138.295 2.23301 -3.88382 0
M  V30 1450 C 140.039 3.43008 -2.50091 0
M  V30 1451 C 137.946 3.38696 -4.84808 0
M  V30 1452 H 136.876 0.55118 -0.514506 0
M  V30 1453 H 139.527 0.774616 -1.66349 0
M  V30 1454 H 137.909 3.36769 -2.08332 0
M  V30 1455 H 139.083 1.59218 -4.32419 0
M  V30 1456 H 137.398 1.58618 -3.85006 0
M  V30 1457 H 139.995 4.28881 -3.1932 0
M  V30 1458 H 140.338 3.87065 -1.53253 0
M  V30 1459 H 140.871 2.78574 -2.83974 0
M  V30 1460 H 137.61 2.99668 -5.82992 0
M  V30 1461 H 137.13 4.01683 -4.45433 0
M  V30 1462 H 138.809 4.04712 -5.04794 0
M  V30 1463 N 138.941 1.26152 0.944643 0
M  V30 1464 C 140.352 1.10454 1.50522 0
M  V30 1465 C 140.703 -0.31635 1.93633 0
M  V30 1466 O 139.828 -1.20746 1.79581 0
M  V30 1467 C 140.423 1.99891 2.73549 0
M  V30 1468 C 138.982 1.88348 3.25886 0
M  V30 1469 C 138.129 1.93447 1.9868 0
M  V30 1470 H 141.08 1.39292 0.760489 0
M  V30 1471 H 141.101 1.54477 3.47732 0
M  V30 1472 H 140.613 3.03297 2.42141 0
M  V30 1473 H 138.714 0.878636 3.62092 0
M  V30 1474 H 138.827 2.73696 3.93227 0
M  V30 1475 H 137.191 1.37456 2.14425 0
M  V30 1476 H 137.974 2.98476 1.69607 0
M  V30 1477 N 140.419 -1.14872 1.07899 0
M  V30 1478 C 141.668 -1.85135 0.800499 0
M  V30 1479 C 141.981 -1.83547 -0.676014 0
M  V30 1480 O 143.187 -2.49548 -1.06948 0
M  V30 1481 C 141.643 -3.3231 1.38197 0
M  V30 1482 C 141.251 -3.42329 2.8899 0
M  V30 1483 C 142.995 -4.0772 1.18174 0
M  V30 1484 C 140.902 -4.83684 3.403 0
M  V30 1485 H 139.832 -0.693563 0.29578 0
M  V30 1486 H 142.483 -1.29532 1.29976 0
M  V30 1487 H 140.865 -3.87618 0.810431 0
M  V30 1488 H 142.039 -2.97097 3.52236 0
M  V30 1489 H 140.354 -2.80369 3.07867 0
M  V30 1490 H 142.951 -5.12049 1.5398 0
M  V30 1491 H 143.294 -4.16124 0.12117 0
M  V30 1492 H 143.827 -3.58696 1.71994 0
M  V30 1493 H 140.566 -4.80465 4.45907 0
M  V30 1494 H 140.086 -5.29474 2.81811 0
M  V30 1495 H 141.765 -5.52558 3.36584 0
M  V30 1496 N 141.898 -0.863906 -1.31812 0
M  V30 1497 C 142.808 -0.318461 -2.32428 0
M  V30 1498 C 143.824 0.568496 -1.64451 0
M  V30 1499 O 145 0.46666 -1.95919 0
M  V30 1500 C 142.065 0.476355 -3.43412 0
M  V30 1501 C 141.126 -0.43784 -4.27061 0
M  V30 1502 C 140.359 0.319138 -5.32745 0
M  V30 1503 O 140.582 1.54799 -5.48993 0
M  V30 1504 O 139.516 -0.319861 -6.01049 0
M  V30 1505 H 143.342 -1.15229 -2.80991 0
M  V30 1506 H 140.927 -0.627103 -1.35602 0
M  V30 1507 H 142.809 0.927156 -4.11074 0
M  V30 1508 H 141.484 1.28683 -2.97022 0
M  V30 1509 H 140.391 -0.937013 -3.62175 0
M  V30 1510 H 141.724 -1.21375 -4.77 0
M  V30 1511 N 143.376 1.44774 -0.622745 0
M  V30 1512 C 144.622 2.02968 -0.13257 0
M  V30 1513 C 144.977 1.48047 1.22881 0
M  V30 1514 O 144.27 0.651625 1.80179 0
M  V30 1515 C 144.464 3.57364 -0.0508323 0
M  V30 1516 C 144.293 4.27262 -1.40275 0
M  V30 1517 C 143.063 4.64577 -1.98737 0
M  V30 1518 C 145.261 4.58248 -2.3348 0
M  V30 1519 N 143.243 5.19404 -3.27251 0
M  V30 1520 C 144.614 5.14069 -3.46603 0
M  V30 1521 C 146.669 4.40195 -2.32664 0
M  V30 1522 C 145.372 5.53738 -4.59093 0
M  V30 1523 C 147.398 4.80907 -3.44213 0
M  V30 1524 C 146.76 5.36834 -4.56058 0
M  V30 1525 H 142.859 0.776541 -0.0922354 0
M  V30 1526 H 145.443 1.76385 -0.82441 0
M  V30 1527 H 143.614 3.83576 0.610265 0
M  V30 1528 H 145.346 4.02219 0.447397 0
M  V30 1529 H 142.101 4.48622 -1.51774 0
M  V30 1530 H 142.525 5.51301 -3.92933 0
M  V30 1531 H 147.167 3.96257 -1.47446 0
M  V30 1532 H 144.885 5.96635 -5.45025 0
M  V30 1533 H 148.471 4.68659 -3.44747 0
M  V30 1534 H 147.351 5.67755 -5.40947 0
M  V30 1535 N 144.854 0.36279 1.53368 0
M  V30 1536 C 146.1 -0.228113 2.01513 0
M  V30 1537 C 146.433 -1.48648 1.2497 0
M  V30 1538 O 145.708 -1.91459 0.342616 0
M  V30 1539 C 145.991 -0.522884 3.56284 0
M  V30 1540 C 145.844 0.74892 4.43521 0
M  V30 1541 C 147.163 -1.32461 4.19693 0
M  V30 1542 H 144.282 -0.0814343 0.732487 0
M  V30 1543 H 146.924 0.48713 1.83649 0
M  V30 1544 H 145.074 -1.1322 3.71636 0
M  V30 1545 H 146.746 1.38648 4.39971 0
M  V30 1546 H 144.989 1.36986 4.11603 0
M  V30 1547 H 145.66 0.497667 5.49752 0
M  V30 1548 H 148.136 -0.809203 4.08156 0
M  V30 1549 H 147.012 -1.49961 5.28018 0
M  V30 1550 H 147.273 -2.33232 3.75573 0
M  V30 1551 N 146.332 -1.57332 0.0918853 0
M  V30 1552 C 147.572 -1.96117 -0.575988 0
M  V30 1553 C 147.936 -0.972499 -1.65549 0
M  V30 1554 O 149.137 -1.24872 -2.38034 0
M  V30 1555 C 147.408 -3.39407 -1.11973 0
M  V30 1556 S 148.967 -4.00185 -1.79992 0
M  V30 1557 H 145.785 -0.685682 -0.188045 0
M  V30 1558 H 148.387 -1.94755 0.170525 0
M  V30 1559 H 147.091 -4.09131 -0.322504 0
M  V30 1560 H 146.622 -3.44358 -1.90214 0
M  V30 1561 H 148.637 -3.88728 -3.08391 0
M  V30 1562 N 147.81 0.181792 -1.56548 0
M  V30 1563 C 149.226 0.53316 -1.50431 0
M  V30 1564 C 149.426 1.85184 -0.794297 0
M  V30 1565 O 148.482 2.50058 -0.350318 0
M  V30 1566 C 149.795 0.575597 -2.9514 0
M  V30 1567 C 151.343 0.663519 -3.05886 0
M  V30 1568 C 151.818 0.736946 -4.52032 0
M  V30 1569 N 153.309 0.800118 -4.56237 0
M  V30 1570 C 154.044 0.877327 -5.66649 0
M  V30 1571 N 153.54 0.916016 -6.86718 0
M  V30 1572 N 155.333 0.915542 -5.54594 0
M  V30 1573 H 147.484 -0.683025 -2.01118 0
M  V30 1574 H 149.747 -0.244988 -0.915797 0
M  V30 1575 H 149.453 -0.324482 -3.502 0
M  V30 1576 H 149.327 1.42572 -3.49218 0
M  V30 1577 H 151.714 1.55403 -2.50867 0
M  V30 1578 H 151.795 -0.21307 -2.54911 0
M  V30 1579 H 151.439 -0.149262 -5.07681 0
M  V30 1580 H 151.369 1.62953 -5.00753 0
M  V30 1581 H 153.86 0.778926 -3.69785 0
M  V30 1582 H 154.173 0.975813 -7.66614 0
M  V30 1583 H 152.518 0.884469 -6.89349 0
M  V30 1584 H 155.709 0.882245 -4.59711 0
M  V30 1585 H 155.882 0.972253 -6.40665 0
M  V30 1586 N 149.288 1.51039 0.449983 0
M  V30 1587 C 150.704 1.38934 0.785462 0
M  V30 1588 C 150.904 0.461817 1.96136 0
M  V30 1589 O 149.96 -0.0877389 2.52348 0
M  V30 1590 C 151.273 2.80724 1.0777 0
M  V30 1591 C 152.821 2.89787 1.1829 0
M  V30 1592 C 153.296 4.32457 1.50815 0
M  V30 1593 N 154.787 4.35505 1.57764 0
M  V30 1594 C 155.522 5.42914 1.84477 0
M  V30 1595 N 155.018 6.60502 2.09068 0
M  V30 1596 N 156.811 5.3038 1.86155 0
M  V30 1597 H 148.962 2.09904 -0.324647 0
M  V30 1598 H 151.225 0.944378 -0.0827957 0
M  V30 1599 H 150.931 3.50531 0.286498 0
M  V30 1600 H 150.805 3.19273 2.00859 0
M  V30 1601 H 153.192 2.20186 1.96474 0
M  V30 1602 H 153.273 2.54752 0.231314 0
M  V30 1603 H 152.917 5.02603 0.731622 0
M  V30 1604 H 152.847 4.64995 2.47158 0
M  V30 1605 H 155.338 3.50724 1.40715 0
M  V30 1606 H 155.651 7.38158 2.28785 0
M  V30 1607 H 153.996 6.63639 2.06416 0
M  V30 1608 H 157.187 4.37505 1.66454 0
M  V30 1609 H 157.36 6.1417 2.06637 0
M  V30 1610 N 150.766 -0.704594 1.40972 0
M  V30 1611 C 152.015 -1.46018 1.39146 0
M  V30 1612 C 152.328 -1.956 0.000589254 0
M  V30 1613 O 153.534 -2.71137 -0.1403 0
M  V30 1614 C 151.99 -2.63996 2.4461 0
M  V30 1615 C 151.598 -2.21238 3.89561 0
M  V30 1616 C 153.342 -3.41677 2.51907 0
M  V30 1617 C 151.249 -3.3612 4.86598 0
M  V30 1618 H 150.179 -0.548444 0.517422 0
M  V30 1619 H 152.83 -0.765784 1.66757 0
M  V30 1620 H 151.212 -3.3566 2.10115 0
M  V30 1621 H 152.386 -1.56923 4.33257 0
M  V30 1622 H 150.701 -1.56574 3.85841 0
M  V30 1623 H 153.298 -4.27182 3.2159 0
M  V30 1624 H 153.641 -3.86247 1.55303 0
M  V30 1625 H 154.174 -2.77064 2.85448 0
M  V30 1626 H 150.913 -2.96572 5.84573 0
M  V30 1627 H 150.433 -3.99315 4.47557 0
M  V30 1628 H 152.112 -4.02029 5.06934 0
M  V30 1629 N 152.244 -1.26651 -0.937939 0
M  V30 1630 C 153.207 -1.08546 -2.01867 0
M  V30 1631 C 154.207 -0.0327327 -1.60767 0
M  V30 1632 O 155.397 -0.276427 -1.71993 0
M  V30 1633 C 152.529 -0.651711 -3.34613 0
M  V30 1634 H 153.722 -2.04502 -2.1936 0
M  V30 1635 H 151.275 -1.09294 -1.11734 0
M  V30 1636 H 152.01 0.309696 -3.22818 0
M  V30 1637 H 151.795 -1.41189 -3.65798 0
M  V30 1638 H 153.285 -0.546973 -4.14002 0
M  V30 1639 N 153.722 1.14298 -1.08507 0
M  V30 1640 C 154.95 1.89219 -0.836876 0
M  V30 1641 C 155.365 1.78638 0.611054 0
M  V30 1642 O 154.722 1.14643 1.41998 0
M  V30 1643 C 154.773 3.39158 -1.25116 0
M  V30 1644 O 154.494 3.49449 -2.64229 0
M  V30 1645 C 155.995 4.31073 -1.03398 0
M  V30 1646 H 153.215 0.599328 -0.301739 0
M  V30 1647 H 155.759 1.44746 -1.44461 0
M  V30 1648 H 153.914 3.81251 -0.687514 0
M  V30 1649 H 154.328 4.42589 -2.81452 0
M  V30 1650 H 155.802 5.34646 -1.37323 0
M  V30 1651 H 156.279 4.3919 0.0289259 0
M  V30 1652 H 156.885 3.94738 -1.58311 0
M  V30 1653 N 155.201 0.870884 1.31352 0
M  V30 1654 C 156.449 0.48132 1.96285 0
M  V30 1655 C 156.77 -0.969813 1.69173 0
M  V30 1656 O 156.04 -1.67998 1.00764 0
M  V30 1657 H 154.62 0.175002 0.726212 0
M  V30 1658 H 157.282 1.11087 1.60143 0
M  V30 1659 H 156.378 0.639825 3.05471 0
M  V30 1660 N 156.679 -1.44442 0.630414 0
M  V30 1661 C 157.904 -2.06927 0.139944 0
M  V30 1662 C 158.329 -1.46795 -1.17613 0
M  V30 1663 O 157.687 -0.569144 -1.72135 0
M  V30 1664 C 157.735 -3.6058 0.0379581 0
M  V30 1665 O 156.839 -3.99937 -1.0062 0
M  V30 1666 H 156.18 -0.658608 0.0844483 0
M  V30 1667 H 158.71 -1.85327 0.866891 0
M  V30 1668 H 158.72 -4.07714 -0.152856 0
M  V30 1669 H 157.395 -4.03728 0.998809 0
M  V30 1670 H 155.972 -3.64436 -0.79001 0
M  V30 1671 N 158.157 -0.370918 -1.53173 0
M  V30 1672 C 159.404 0.217102 -2.01333 0
M  V30 1673 C 159.732 1.48338 -1.25802 0
M  V30 1674 O 158.987 1.92698 -0.34146 0
M  V30 1675 C 159.286 0.549696 -3.53147 0
M  V30 1676 C 158.952 -0.622872 -4.46577 0
M  V30 1677 C 157.614 -0.944595 -4.71838 0
M  V30 1678 C 159.966 -1.40819 -5.01816 0
M  V30 1679 C 157.294 -2.05351 -5.49589 0
M  V30 1680 C 159.646 -2.50757 -5.80778 0
M  V30 1681 C 158.31 -2.83458 -6.04324 0
M  V30 1682 H 157.58 0.0794431 -0.736729 0
M  V30 1683 H 160.227 -0.504481 -1.84736 0
M  V30 1684 H 158.532 1.35237 -3.6772 0
M  V30 1685 H 160.229 1.017 -3.87889 0
M  V30 1686 H 156.819 -0.36209 -4.27068 0
M  V30 1687 H 161.003 -1.17289 -4.82242 0
M  V30 1688 H 156.259 -2.3108 -5.6605 0
M  V30 1689 H 160.433 -3.12022 -6.22588 0
M  V30 1690 H 158.06 -3.69508 -6.64355 0
M  V30 1691 N 159.635 1.57281 -0.100228 0
M  V30 1692 C 160.565 2.17328 0.853857 0
M  V30 1693 C 161.546 1.10804 1.2906 0
M  V30 1694 O 162.731 1.38963 1.35657 0
M  V30 1695 C 159.861 2.75772 2.11109 0
M  V30 1696 C 158.815 3.87713 1.81279 0
M  V30 1697 C 158.141 4.32882 3.13874 0
M  V30 1698 C 159.441 5.10677 1.09574 0
M  V30 1699 H 161.135 2.97305 0.353545 0
M  V30 1700 H 158.681 1.43009 0.168612 0
M  V30 1701 H 160.634 3.16433 2.78296 0
M  V30 1702 H 159.358 1.93057 2.63432 0
M  V30 1703 H 158.017 3.476 1.16489 0
M  V30 1704 H 157.665 3.47051 3.64095 0
M  V30 1705 H 157.365 5.08358 2.94696 0
M  V30 1706 H 158.889 4.7618 3.82211 0
M  V30 1707 H 160.303 5.48474 1.66879 0
M  V30 1708 H 158.7 5.91615 1.00557 0
M  V30 1709 H 159.77 4.84835 0.0793299 0
M  V30 1710 N 161.113 -0.173488 1.56642 0
M  V30 1711 C 162.06 -1.21482 1.96242 0
M  V30 1712 C 163.03 -1.44104 0.826027 0
M  V30 1713 O 164.215 -1.5688 1.08597 0
M  V30 1714 C 161.355 -2.54964 2.32567 0
M  V30 1715 C 160.468 -2.39739 3.59373 0
M  V30 1716 C 159.603 -3.66072 3.84921 0
M  V30 1717 C 158.642 -3.45771 5.05083 0
M  V30 1718 N 157.779 -4.64169 5.26775 0
M  V30 1719 H 162.619 -0.870123 2.85014 0
M  V30 1720 H 160.156 -0.418245 1.41029 0
M  V30 1721 H 162.114 -3.32758 2.5165 0
M  V30 1722 H 160.744 -2.87433 1.46908 0
M  V30 1723 H 159.796 -1.53131 3.48217 0
M  V30 1724 H 161.108 -2.20683 4.47326 0
M  V30 1725 H 160.262 -4.52303 4.0436 0
M  V30 1726 H 159.001 -3.88105 2.9534 0
M  V30 1727 H 158.006 -2.57927 4.85545 0
M  V30 1728 H 159.231 -3.25163 5.96193 0
M  V30 1729 H 157.177 -4.86425 4.40144 0
M  V30 1730 H 157.094 -4.48019 6.08946 0
M  V30 1731 H 158.362 -5.51689 5.5069 0
M  V30 1732 N 162.591 -1.51276 -0.441967 0
M  V30 1733 C 164.007 -1.39349 -0.778083 0
M  V30 1734 C 164.207 -0.472212 -1.95889 0
M  V30 1735 O 163.263 0.0743551 -2.5239 0
M  V30 1736 C 164.576 -2.81292 -1.0628 0
M  V30 1737 C 166.124 -2.9041 -1.16751 0
M  V30 1738 C 166.599 -4.33251 -1.48519 0
M  V30 1739 N 168.09 -4.36336 -1.55453 0
M  V30 1740 C 168.825 -5.43885 -1.81596 0
M  V30 1741 N 168.321 -6.61601 -2.05562 0
M  V30 1742 N 170.114 -5.3136 -1.8334 0
M  V30 1743 H 162.265 -2.09729 0.335774 0
M  V30 1744 H 164.528 -0.943925 0.0878028 0
M  V30 1745 H 164.234 -3.50678 -0.267905 0
M  V30 1746 H 164.108 -3.20334 -1.99163 0
M  V30 1747 H 166.495 -2.21225 -1.95304 0
M  V30 1748 H 166.576 -2.54871 -0.217801 0
M  V30 1749 H 166.22 -5.02984 -0.704958 0
M  V30 1750 H 166.15 -4.66299 -2.44689 0
M  V30 1751 H 168.641 -3.51466 -1.38853 0
M  V30 1752 H 168.954 -7.39361 -2.24867 0
M  V30 1753 H 167.299 -6.64725 -2.02894 0
M  V30 1754 H 170.49 -4.38382 -1.64132 0
M  V30 1755 H 170.663 -6.15258 -2.03377 0
M  V30 1756 N 164.069 0.697108 -1.41344 0
M  V30 1757 C 165.017 1.83237 -1.43272 0
M  V30 1758 C 166.011 1.66522 -0.310947 0
M  V30 1759 O 167.217 1.73402 -0.482899 0
M  V30 1760 H 163.592 0.603802 -0.448249 0
M  V30 1761 H 165.563 1.78727 -2.38954 0
M  V30 1762 C 164.312 3.21245 -1.33029 0
M  V30 1763 H 163.635 3.34723 -2.18633 0
M  V30 1764 H 165.075 4.00763 -1.38439 0
M  V30 1765 C 163.534 3.36873 -0.0424635 0
M  V30 1766 O 164.064 3.91177 0.913421 0
M  V30 1767 N 162.27 2.90581 0.0331145 0
M  V30 1768 H 161.817 2.46577 -0.745506 0
M  V30 1769 H 161.775 3.01416 0.894199 0
M  V30 1770 N 165.547 1.27147 0.931209 0
M  V30 1771 C 166.958 1.12044 1.49342 0
M  V30 1772 C 167.309 -0.295795 1.93957 0
M  V30 1773 O 166.434 -1.18835 1.80852 0
M  V30 1774 C 167.029 2.02781 2.71414 0
M  V30 1775 C 165.588 1.91794 3.2387 0
M  V30 1776 C 164.735 1.95543 1.96617 0
M  V30 1777 H 167.686 1.40091 0.745672 0
M  V30 1778 H 167.707 1.58156 3.46074 0
M  V30 1779 H 167.219 3.05848 2.38911 0
M  V30 1780 H 165.32 0.916992 3.6114 0
M  V30 1781 H 165.433 2.77852 3.90302 0
M  V30 1782 H 163.797 1.39722 2.12955 0
M  V30 1783 H 164.58 3.00259 1.66432 0
M  V30 1784 N 167.025 -1.13721 1.09112 0
M  V30 1785 C 168.273 -1.84559 0.823562 0
M  V30 1786 C 168.594 -1.83754 -0.652658 0
M  V30 1787 O 167.864 -1.29102 -1.47342 0
M  V30 1788 H 166.444 -0.683376 0.301673 0
M  V30 1789 H 169.106 -1.37771 1.37859 0
M  V30 1790 H 168.202 -2.8917 1.17419 0
M  V30 1791 N 168.503 -0.877838 -1.30888 0
M  V30 1792 C 169.749 -0.493426 -1.96706 0
M  V30 1793 C 170.082 0.953504 -1.6918 0
M  V30 1794 O 169.357 1.67266 -0.992594 0
M  V30 1795 C 169.64 -0.760429 -3.51979 0
M  V30 1796 C 169.493 -2.25747 -3.89048 0
M  V30 1797 C 170.812 -0.232148 -4.39487 0
M  V30 1798 H 167.931 -0.180746 -0.714493 0
M  V30 1799 H 170.573 -1.10052 -1.54882 0
M  V30 1800 H 168.723 -0.243715 -3.87735 0
M  V30 1801 H 170.395 -2.84204 -3.63354 0
M  V30 1802 H 168.638 -2.72694 -3.37373 0
M  V30 1803 H 169.309 -2.39491 -4.97341 0
M  V30 1804 H 171.785 -0.674314 -4.106 0
M  V30 1805 H 170.661 -0.448355 -5.47066 0
M  V30 1806 H 170.922 0.866297 -4.33529 0
M  V30 1807 N 169.982 1.44106 -0.638065 0
M  V30 1808 C 170.929 2.30715 0.062701 0
M  V30 1809 C 171.899 1.43882 0.829883 0
M  V30 1810 O 173.084 1.72775 0.809532 0
M  V30 1811 C 170.224 3.29258 1.03358 0
M  V30 1812 C 169.337 4.31192 0.26409 0
M  V30 1813 C 168.472 5.16825 1.22741 0
M  V30 1814 C 167.511 6.10462 0.447475 0
M  V30 1815 N 166.648 6.8877 1.36161 0
M  V30 1816 H 171.488 2.90096 -0.681781 0
M  V30 1817 H 169.025 1.42925 -0.347988 0
M  V30 1818 H 170.983 3.84886 1.60992 0
M  V30 1819 H 169.613 2.71562 1.74511 0
M  V30 1820 H 168.665 3.77981 -0.428295 0
M  V30 1821 H 169.977 4.97619 -0.343052 0
M  V30 1822 H 169.131 5.77004 1.87487 0
M  V30 1823 H 167.87 4.50488 1.86847 0
M  V30 1824 H 166.875 5.49386 -0.213433 0
M  V30 1825 H 168.1 6.78837 -0.188968 0
M  V30 1826 H 166.046 6.25096 1.98975 0
M  V30 1827 H 165.963 7.51663 0.808656 0
M  V30 1828 H 167.231 7.53467 1.99769 0
M  V30 1829 N 171.46 0.379036 1.52974 0
M  V30 1830 C 172.37 -0.468639 2.29872 0
M  V30 1831 C 173.386 -1.08067 1.36373 0
M  V30 1832 O 174.562 -1.08871 1.69438 0
M  V30 1833 C 171.627 -1.58594 3.083 0
M  V30 1834 C 170.688 -1.00007 4.17489 0
M  V30 1835 C 169.921 -2.06413 4.92168 0
M  V30 1836 O 170.144 -3.27751 4.66835 0
M  V30 1837 O 169.078 -1.68717 5.7777 0
M  V30 1838 H 172.904 0.157508 3.03291 0
M  V30 1839 H 170.489 0.143035 1.48714 0
M  V30 1840 H 172.371 -2.23525 3.57232 0
M  V30 1841 H 171.046 -2.19724 2.37703 0
M  V30 1842 H 169.953 -0.314299 3.72777 0
M  V30 1843 H 171.286 -0.433135 4.90291 0
M  V30 1844 N 172.938 -1.57226 0.108567 0
M  V30 1845 C 174.186 -1.94448 -0.550853 0
M  V30 1846 C 174.507 -0.992074 -1.67878 0
M  V30 1847 O 173.777 -0.0465 -1.95845 0
M  V30 1848 H 172.357 -0.717897 -0.206479 0
M  V30 1849 H 175.019 -1.94112 0.175062 0
M  V30 1850 H 174.115 -2.97218 -0.952259 0
M  V30 1851 N 174.416 0.165178 -1.56732 0
M  V30 1852 C 175.646 0.894919 -1.86212 0
M  V30 1853 C 176.054 1.76066 -0.692627 0
M  V30 1854 O 175.397 1.80387 0.347303 0
M  V30 1855 C 175.459 1.8174 -3.10179 0
M  V30 1856 C 175.123 1.13064 -4.42793 0
M  V30 1857 C 176.12 0.493169 -5.17556 0
M  V30 1858 C 173.805 1.12556 -4.89527 0
M  V30 1859 C 175.799 -0.140209 -6.37246 0
M  V30 1860 C 173.486 0.488366 -6.09145 0
M  V30 1861 C 174.484 -0.143411 -6.82849 0
M  V30 1862 O 174.172 -0.77055 -8.00199 0
M  V30 1863 H 173.904 0.265114 -0.621844 0
M  V30 1864 H 176.458 0.168242 -2.0471 0
M  V30 1865 H 174.688 2.58455 -2.87642 0
M  V30 1866 H 176.377 2.4175 -3.26055 0
M  V30 1867 H 177.143 0.489023 -4.82528 0
M  V30 1868 H 173.022 1.60672 -4.32094 0
M  V30 1869 H 176.566 -0.633932 -6.94714 0
M  V30 1870 H 172.463 0.490116 -6.43637 0
M  V30 1871 H 173.231 -0.670408 -8.1575 0
M  V30 1872 N 175.894 1.51508 0.433938 0
M  V30 1873 C 176.841 1.73068 1.52696 0
M  V30 1874 C 177.811 0.572441 1.55924 0
M  V30 1875 O 178.996 0.807253 1.72882 0
M  V30 1876 C 176.136 1.86474 2.90381 0
M  V30 1877 C 175.249 3.14037 2.96656 0
M  V30 1878 C 174.384 3.18019 4.25485 0
M  V30 1879 C 173.423 4.39882 4.2564 0
M  V30 1880 N 172.56 4.41394 5.45999 0
M  V30 1881 H 177.4 2.66366 1.33615 0
M  V30 1882 H 174.937 1.32008 0.649018 0
M  V30 1883 H 176.895 1.92229 3.70275 0
M  V30 1884 H 175.525 0.965809 3.08013 0
M  V30 1885 H 174.577 3.17575 2.09404 0
M  V30 1886 H 175.889 4.0394 2.92633 0
M  V30 1887 H 175.043 3.22708 5.13755 0
M  V30 1888 H 173.782 2.2601 4.3217 0
M  V30 1889 H 172.787 4.35366 3.35763 0
M  V30 1890 H 174.012 5.33159 4.20617 0
M  V30 1891 H 171.958 3.52258 5.53399 0
M  V30 1892 H 171.875 5.25111 5.4387 0
M  V30 1893 H 173.143 4.50281 6.36292 0
M  V30 1894 N 177.372 -0.689602 1.41712 0
M  V30 1895 C 178.619 -1.44966 1.4139 0
M  V30 1896 C 178.947 -1.94484 0.025105 0
M  V30 1897 O 178.202 -1.70307 -0.964048 0
M  V30 1898 C 178.501 -2.67298 2.37247 0
M  V30 1899 C 178.167 -2.36405 3.83958 0
M  V30 1900 C 176.829 -2.27691 4.23923 0
M  V30 1901 C 179.181 -2.11043 4.76561 0
M  V30 1902 C 176.509 -1.91719 5.54492 0
M  V30 1903 C 178.861 -1.76578 6.07456 0
M  V30 1904 C 177.525 -1.66363 6.46436 0
M  V30 1905 H 176.795 -0.53047 0.517381 0
M  V30 1906 H 179.442 -0.787655 1.74552 0
M  V30 1907 H 177.747 -3.38461 1.9736 0
M  V30 1908 H 179.444 -3.25452 2.34269 0
M  V30 1909 H 176.034 -2.44085 3.52308 0
M  V30 1910 H 180.218 -2.16717 4.46483 0
M  V30 1911 H 175.474 -1.82367 5.83568 0
M  V30 1912 H 179.648 -1.55974 6.78708 0
M  V30 1913 H 177.275 -1.38258 7.47522 0
M  V30 1914 N 178.85 -1.27639 -0.924453 0
M  V30 1915 C 180.08 -1.16819 -1.70402 0
M  V30 1916 C 180.488 0.277191 -1.87158 0
M  V30 1917 O 179.831 1.20025 -1.39067 0
M  V30 1918 C 179.893 -1.78305 -3.12166 0
M  V30 1919 C 179.557 -3.27502 -3.18734 0
M  V30 1920 C 180.554 -4.2409 -3.00738 0
M  V30 1921 C 178.239 -3.68269 -3.4159 0
M  V30 1922 C 180.233 -5.59422 -3.05492 0
M  V30 1923 C 177.92 -5.0373 -3.45977 0
M  V30 1924 C 178.918 -5.99116 -3.27946 0
M  V30 1925 O 178.606 -7.32108 -3.32074 0
M  V30 1926 H 178.338 -0.406931 -0.539799 0
M  V30 1927 H 180.892 -1.69078 -1.16626 0
M  V30 1928 H 179.122 -1.20528 -3.67437 0
M  V30 1929 H 180.811 -1.62154 -3.72103 0
M  V30 1930 H 181.577 -3.93931 -2.82919 0
M  V30 1931 H 177.456 -2.94496 -3.54673 0
M  V30 1932 H 181 -6.33852 -2.91337 0
M  V30 1933 H 176.897 -5.33543 -3.63321 0
M  V30 1934 H 177.665 -7.40598 -3.48507 0
M  V30 1935 N 180.328 1.1314 -1.09713 0
M  V30 1936 C 181.739 1.66029 -0.853885 0
M  V30 1937 C 182.09 1.86241 0.617142 0
M  V30 1938 O 181.215 1.5834 1.47503 0
M  V30 1939 C 181.81 3.01599 -1.5435 0
M  V30 1940 C 180.369 3.51467 -1.34714 0
M  V30 1941 C 179.516 2.26648 -1.59769 0
M  V30 1942 H 182.467 0.970226 -1.25588 0
M  V30 1943 H 182.488 3.67709 -0.978267 0
M  V30 1944 H 182 2.86856 -2.6141 0
M  V30 1945 H 180.101 3.71408 -0.297838 0
M  V30 1946 H 180.214 4.314 -2.08401 0
M  V30 1947 H 178.578 2.33385 -1.01998 0
M  V30 1948 H 179.361 2.14467 -2.68065 0
M  V30 1949 N 181.806 0.884767 1.30421 0
M  V30 1950 C 183.217 0.553656 1.78302 0
M  V30 1951 C 183.568 -0.930153 1.7275 0
M  V30 1952 O 182.693 -1.72681 1.30423 0
M  V30 1953 C 183.288 0.998234 3.2376 0
M  V30 1954 C 181.847 0.71854 3.69478 0
M  V30 1955 C 180.994 1.18132 2.50879 0
M  V30 1956 H 183.945 1.06901 1.17294 0
M  V30 1957 H 183.966 0.327118 3.79091 0
M  V30 1958 H 183.478 2.0782 3.27769 0
M  V30 1959 H 181.579 -0.349444 3.70958 0
M  V30 1960 H 181.692 1.30595 4.60958 0
M  V30 1961 H 180.056 0.600669 2.47516 0
M  V30 1962 H 180.839 2.26902 2.57624 0
M  V30 1963 N 183.284 -1.43765 0.645699 0
M  V30 1964 C 184.231 -2.30745 -0.0504648 0
M  V30 1965 C 185.201 -1.4432 -0.822241 0
M  V30 1966 O 186.386 -1.73202 -0.800358 0
M  V30 1967 C 183.526 -3.29802 -1.0161 0
M  V30 1968 C 182.639 -4.31326 -0.241219 0
M  V30 1969 C 181.774 -5.17469 -1.19998 0
M  V30 1970 C 180.813 -6.10691 -0.415094 0
M  V30 1971 N 179.95 -6.89483 -1.32506 0
M  V30 1972 H 184.79 -2.8973 0.697155 0
M  V30 1973 H 182.327 -1.42738 0.355563 0
M  V30 1974 H 184.285 -3.85734 -1.58949 0
M  V30 1975 H 182.915 -2.72483 -1.73069 0
M  V30 1976 H 181.967 -3.77749 0.448334 0
M  V30 1977 H 183.279 -4.9743 0.369437 0
M  V30 1978 H 182.433 -5.7799 -1.84424 0
M  V30 1979 H 181.172 -4.51473 -1.84455 0
M  V30 1980 H 180.177 -5.49265 0.242565 0
M  V30 1981 H 181.402 -6.78727 0.224966 0
M  V30 1982 H 179.348 -6.26142 -1.95657 0
M  V30 1983 H 179.265 -7.52081 -0.768783 0
M  V30 1984 H 180.533 -7.54516 -1.9577 0
M  V30 1985 N 184.763 -0.387143 -1.52771 0
M  V30 1986 C 186.009 0.196025 -2.0185 0
M  V30 1987 C 186.342 1.46641 -1.27319 0
M  V30 1988 O 185.617 1.90889 -0.373032 0
M  V30 1989 C 185.9 0.466136 -3.5707 0
M  V30 1990 C 185.753 -0.819385 -4.42274 0
M  V30 1991 C 187.072 1.25768 -4.21747 0
M  V30 1992 H 184.191 0.0697708 -0.73369 0
M  V30 1993 H 186.833 -0.516286 -1.82851 0
M  V30 1994 H 184.983 1.07293 -3.7339 0
M  V30 1995 H 186.655 -1.4563 -4.37709 0
M  V30 1996 H 184.898 -1.43517 -4.09372 0
M  V30 1997 H 185.569 -0.585065 -5.48891 0
M  V30 1998 H 188.045 0.744167 -4.09391 0
M  V30 1999 H 186.921 1.41541 -5.30337 0
M  V30 2000 H 187.182 2.27228 -3.79236 0
M  V30 2001 N 186.241 1.57166 -0.116904 0
M  V30 2002 C 187.151 2.18745 0.847812 0
M  V30 2003 C 188.167 1.163 1.29423 0
M  V30 2004 O 189.343 1.48761 1.35765 0
M  V30 2005 C 186.408 2.77307 2.0809 0
M  V30 2006 C 185.469 3.94781 1.68661 0
M  V30 2007 C 184.702 4.50541 2.86091 0
M  V30 2008 O 184.925 4.05202 4.01456 0
M  V30 2009 O 183.859 5.41256 2.63298 0
M  V30 2010 H 187.685 3.01632 0.353778 0
M  V30 2011 H 185.27 1.49005 0.108599 0
M  V30 2012 H 187.152 3.14647 2.80313 0
M  V30 2013 H 185.827 1.97452 2.56504 0
M  V30 2014 H 184.734 3.62214 0.935518 0
M  V30 2015 H 186.067 4.76065 1.24991 0
M  V30 2016 N 187.719 -0.156864 1.56817 0
M  V30 2017 C 188.649 -1.19589 2.00551 0
M  V30 2018 C 189.63 -1.4536 0.883426 0
M  V30 2019 O 190.815 -1.56449 1.15054 0
M  V30 2020 C 187.945 -2.53143 2.37773 0
M  V30 2021 C 186.899 -2.41913 3.53075 0
M  V30 2022 C 186.225 -3.80088 3.76081 0
M  V30 2023 C 187.525 -1.91157 4.86062 0
M  V30 2024 H 189.219 -0.832293 2.87599 0
M  V30 2025 H 186.765 -0.398918 1.38364 0
M  V30 2026 H 188.718 -3.26047 2.66967 0
M  V30 2027 H 187.442 -2.91319 1.4765 0
M  V30 2028 H 186.101 -1.71462 3.24031 0
M  V30 2029 H 185.749 -4.15683 2.83225 0
M  V30 2030 H 185.449 -3.73439 4.53671 0
M  V30 2031 H 186.973 -4.54556 4.0769 0
M  V30 2032 H 188.387 -2.53846 5.14038 0
M  V30 2033 H 186.784 -1.95422 5.67389 0
M  V30 2034 H 187.854 -0.866673 4.77092 0
M  V30 2035 N 189.197 -1.51736 -0.425897 0
M  V30 2036 C 190.444 -1.6497 -1.17436 0
M  V30 2037 C 190.772 -0.371445 -1.9092 0
M  V30 2038 O 190.027 0.644963 -1.84767 0
M  V30 2039 C 190.326 -2.81103 -2.20717 0
M  V30 2040 C 189.992 -4.19954 -1.64162 0
M  V30 2041 C 188.654 -4.57725 -1.48462 0
M  V30 2042 C 191.006 -5.06552 -1.22696 0
M  V30 2043 C 188.334 -5.79789 -0.897873 0
M  V30 2044 C 190.686 -6.29205 -0.654464 0
M  V30 2045 C 189.35 -6.6574 -0.484456 0
M  V30 2046 H 188.62 -0.603668 -0.429727 0
M  V30 2047 H 191.267 -1.85798 -0.463829 0
M  V30 2048 H 189.572 -2.54542 -2.97852 0
M  V30 2049 H 191.269 -2.8854 -2.78471 0
M  V30 2050 H 187.859 -3.90181 -1.77361 0
M  V30 2051 H 192.043 -4.77968 -1.33642 0
M  V30 2052 H 187.299 -6.06733 -0.75402 0
M  V30 2053 H 191.473 -6.95643 -0.324694 0
M  V30 2054 H 189.1 -7.60195 -0.0276833 0
M  V30 2055 N 190.675 0.682077 -1.42076 0
M  V30 2056 C 191.922 1.44215 -1.42156 0
M  V30 2057 C 192.25 1.94468 -0.0354186 0
M  V30 2058 O 191.505 1.70816 0.955002 0
M  V30 2059 C 191.804 2.66036 -2.38662 0
M  V30 2060 C 191.47 2.34366 -3.85206 0
M  V30 2061 C 190.132 2.25439 -4.25124 0
M  V30 2062 C 192.484 2.08513 -4.77673 0
M  V30 2063 C 189.812 1.88775 -5.55501 0
M  V30 2064 C 192.164 1.73354 -6.08384 0
M  V30 2065 C 190.828 1.62933 -6.47309 0
M  V30 2066 H 190.098 0.527718 -0.520187 0
M  V30 2067 H 192.745 0.778387 -1.74967 0
M  V30 2068 H 191.05 3.3741 -1.99152 0
M  V30 2069 H 192.747 3.24205 -2.35991 0
M  V30 2070 H 189.337 2.42213 -3.53597 0
M  V30 2071 H 193.521 2.14346 -4.47626 0
M  V30 2072 H 188.777 1.7927 -5.84527 0
M  V30 2073 H 192.951 1.52373 -6.79526 0
M  V30 2074 H 190.578 1.34292 -7.48244 0
M  V30 2075 N 192.153 1.28127 0.917671 0
M  V30 2076 C 193.1 1.11717 2.0196 0
M  V30 2077 C 194.07 0.0153929 1.66093 0
M  V30 2078 O 195.255 0.179596 1.89953 0
M  V30 2079 C 192.395 0.780927 3.36148 0
M  V30 2080 C 191.508 1.96135 3.84909 0
M  V30 2081 C 190.643 1.56609 5.0759 0
M  V30 2082 C 189.682 2.71339 5.48673 0
M  V30 2083 N 188.819 2.32332 6.62545 0
M  V30 2084 H 193.659 2.06003 2.15329 0
M  V30 2085 H 191.196 1.02535 1.05475 0
M  V30 2086 H 193.154 0.56675 4.13333 0
M  V30 2087 H 191.784 -0.124998 3.22558 0
M  V30 2088 H 190.836 2.28777 3.03916 0
M  V30 2089 H 192.148 2.82165 4.1132 0
M  V30 2090 H 191.302 1.31374 5.92305 0
M  V30 2091 H 190.041 0.677014 4.82978 0
M  V30 2092 H 189.046 2.97276 4.62501 0
M  V30 2093 H 190.271 3.60882 5.75274 0
M  V30 2094 H 188.217 1.45889 6.39572 0
M  V30 2095 H 188.134 3.11899 6.88662 0
M  V30 2096 H 189.402 2.10371 7.50576 0
M  V30 2097 N 193.631 -1.12557 1.10312 0
M  V30 2098 C 194.908 -1.80363 0.756878 0
M  V30 2099 C 195.288 -1.97067 -0.756824 0
M  V30 2100 O 194.636 -1.54601 -1.68259 0
M  V30 2101 C 194.846 -3.14812 1.50647 0
M  V30 2102 C 196.194 -3.90029 1.67817 0
M  V30 2103 O 197.218 -3.24464 1.46974 0
M  V30 2104 O 196.077 -5.07652 2.02365 0
M  V30 2105 H 193.171 -0.780667 0.272926 0
M  V30 2106 H 195.717 -1.19404 1.20586 0
M  V30 2107 H 194.489 -2.97936 2.53672 0
M  V30 2108 H 194.112 -3.83478 1.05026 0
M  V30 2109 N 195.109 -0.891671 -1.2995 0
M  V30 2110 C 196.386 -0.433307 -1.9074 0
M  V30 2111 C 196.766 1.08646 -1.80995 0
M  V30 2112 O 196.114 1.92476 -1.23147 0
M  V30 2113 C 196.324 -0.938895 -3.36134 0
M  V30 2114 C 197.672 -0.977829 -4.13187 0
M  V30 2115 O 198.696 -0.886015 -3.45005 0
M  V30 2116 O 197.555 -1.11453 -5.35015 0
M  V30 2117 H 194.649 -0.133699 -0.816121 0
M  V30 2118 H 197.195 -0.981011 -1.38471 0
M  V30 2119 H 195.967 -1.98281 -3.37343 0
M  V30 2120 H 195.59 -0.37074 -3.95868 0
M  V30 2121 N 196.587 1.43421 -0.653314 0
M  V30 2122 C 197.55 2.29182 0.0287951 0
M  V30 2123 C 198.55 1.42213 0.750465 0
M  V30 2124 O 199.74 1.63843 0.591701 0
M  V30 2125 C 196.872 3.24278 1.05151 0
M  V30 2126 H 198.065 2.90985 -0.725786 0
M  V30 2127 H 195.618 1.50702 -0.414545 0
M  V30 2128 H 196.353 2.6737 1.83532 0
M  V30 2129 H 196.138 3.88396 0.537687 0
M  V30 2130 H 197.628 3.88647 1.52786 0
M  V30 2131 N 198.065 0.39524 1.52563 0
M  V30 2132 C 199.013 -0.451859 2.28169 0
M  V30 2133 C 200.007 -1.05792 1.32304 0
M  V30 2134 O 201.213 -0.997718 1.49818 0
M  V30 2135 H 197.588 -0.164481 0.733792 0
M  V30 2136 H 199.559 0.207199 2.9768 0
M  V30 2137 C 198.308 -1.56385 3.10546 0
M  V30 2138 H 197.631 -1.10682 3.84174 0
M  V30 2139 H 199.071 -2.13067 3.66577 0
M  V30 2140 C 197.53 -2.52328 2.23231 0
M  V30 2141 O 198.06 -3.5588 1.86312 0
M  V30 2142 N 196.266 -2.22209 1.87274 0
M  V30 2143 H 195.813 -1.38033 2.17496 0
M  V30 2144 H 195.771 -2.86652 1.29143 0
M  V30 2145 N 199.544 -1.57102 0.125237 0
M  V30 2146 C 200.492 -2.16905 -0.839927 0
M  V30 2147 C 201.486 -1.11998 -1.27094 0
M  V30 2148 O 202.692 -1.3029 -1.24195 0
M  V30 2149 H 199.067 -0.694252 -0.288995 0
M  V30 2150 H 201.038 -2.96774 -0.311115 0
M  V30 2151 C 199.787 -2.78795 -2.07771 0
M  V30 2152 H 199.11 -3.59221 -1.755 0
M  V30 2153 H 200.55 -3.2417 -2.73295 0
M  V30 2154 C 199.009 -1.76193 -2.87155 0
M  V30 2155 O 199.539 -1.21909 -3.82755 0
M  V30 2156 N 197.745 -1.45991 -2.51267 0
M  V30 2157 H 197.292 -1.90325 -1.73592 0
M  V30 2158 H 197.25 -0.775844 -3.04677 0
M  V30 2159 N 201.022 0.148545 -1.56898 0
M  V30 2160 C 202.299 0.890019 -1.74178 0
M  V30 2161 C 202.679 1.99407 -0.692839 0
M  V30 2162 O 202.027 2.26671 0.288505 0
M  V30 2163 C 202.237 1.43389 -3.18183 0
M  V30 2164 C 203.585 1.89791 -3.79822 0
M  V30 2165 O 204.609 1.53134 -3.21603 0
M  V30 2166 O 203.468 2.57387 -4.82093 0
M  V30 2167 H 200.562 0.420496 -0.712118 0
M  V30 2168 H 203.108 0.134591 -1.69165 0
M  V30 2169 H 201.88 0.640383 -3.86024 0
M  V30 2170 H 201.503 2.25287 -3.27615 0
M  V30 2171 N 202.5 1.5196 0.417844 0
M  V30 2172 C 203.911 1.57851 0.997 0
M  V30 2173 C 204.262 0.413714 1.91789 0
M  V30 2174 O 203.387 -0.467057 2.113 0
M  V30 2175 C 203.982 2.86085 1.81496 0
M  V30 2176 C 202.541 2.94483 2.34428 0
M  V30 2177 C 201.688 2.52707 1.14169 0
M  V30 2178 H 204.639 1.57455 0.198392 0
M  V30 2179 H 204.66 2.70947 2.67148 0
M  V30 2180 H 204.172 3.70842 1.14446 0
M  V30 2181 H 202.273 2.142 3.04875 0
M  V30 2182 H 202.386 3.98546 2.65891 0
M  V30 2183 H 200.75 2.06353 1.49301 0
M  V30 2184 H 201.533 3.39828 0.486999 0
M  V30 2185 N 203.978 -0.674533 1.42435 0
M  V30 2186 C 204.91 -1.80005 1.41883 0
M  V30 2187 C 205.923 -1.59667 0.31787 0
M  V30 2188 O 207.112 -1.68781 0.580973 0
M  V30 2189 C 204.212 -3.17114 1.19549 0
M  V30 2190 C 203.385 -3.64299 2.42084 0
M  V30 2191 C 202.444 -4.80142 2.15291 0
M  V30 2192 O 201.47 -4.90673 2.88493 0
M  V30 2193 N 202.672 -5.68869 1.1562 0
M  V30 2194 H 205.437 -1.80964 2.38898 0
M  V30 2195 H 202.998 -0.857633 1.37318 0
M  V30 2196 H 204.99 -3.92267 0.995417 0
M  V30 2197 H 203.56 -3.11053 0.310569 0
M  V30 2198 H 202.78 -2.79822 2.77657 0
M  V30 2199 H 204.068 -3.92567 3.23679 0
M  V30 2200 H 203.466 -5.63012 0.550765 0
M  V30 2201 H 202.023 -6.43833 1.016 0
M  V30 2202 N 205.456 -1.28612 -0.910864 0
M  V30 2203 C 206.702 -1.17116 -1.66299 0
M  V30 2204 C 207.057 0.276917 -1.90397 0
M  V30 2205 O 206.35 1.19795 -1.49532 0
M  V30 2206 C 206.544 -1.90624 -3.0232 0
M  V30 2207 C 206.373 -3.42431 -2.91498 0
M  V30 2208 C 205.143 -4.11773 -2.92867 0
M  V30 2209 C 207.341 -4.38124 -2.69355 0
M  V30 2210 N 205.323 -5.50025 -2.72664 0
M  V30 2211 C 206.694 -5.63759 -2.58023 0
M  V30 2212 C 208.749 -4.28016 -2.54375 0
M  V30 2213 C 207.452 -6.80436 -2.33238 0
M  V30 2214 C 209.478 -5.44433 -2.30969 0
M  V30 2215 C 208.84 -6.69034 -2.20394 0
M  V30 2216 H 204.939 -0.483506 -0.61461 0
M  V30 2217 H 207.523 -1.62299 -1.0755 0
M  V30 2218 H 205.694 -1.4787 -3.5915 0
M  V30 2219 H 207.426 -1.71488 -3.66571 0
M  V30 2220 H 204.181 -3.63378 -3.03732 0
M  V30 2221 H 204.605 -6.22705 -2.65646 0
M  V30 2222 H 209.247 -3.32388 -2.613 0
M  V30 2223 H 206.965 -7.7613 -2.25051 0
M  V30 2224 H 210.551 -5.38504 -2.20238 0
M  V30 2225 H 209.431 -7.57595 -2.02531 0
M  V30 2226 N 206.934 1.1197 -1.10907 0
M  V30 2227 C 208.159 1.87942 -0.877064 0
M  V30 2228 C 208.584 1.79341 0.567314 0
M  V30 2229 O 207.942 1.15184 1.40009 0
M  V30 2230 C 207.99 3.34926 -1.33629 0
M  V30 2231 O 207.094 4.09303 -0.504447 0
M  V30 2232 H 206.435 0.583785 -0.316371 0
M  V30 2233 H 208.965 1.4157 -1.47712 0
M  V30 2234 H 208.975 3.8577 -1.32837 0
M  V30 2235 H 207.65 3.40504 -2.3881 0
M  V30 2236 H 206.227 3.68393 -0.577993 0
M  V30 2237 N 208.412 0.89855 1.29475 0
M  V30 2238 C 209.322 0.379974 2.31502 0
M  V30 2239 C 210.338 -0.524695 1.659 0
M  V30 2240 O 211.514 -0.414551 1.97087 0
M  V30 2241 C 208.579 -0.385138 3.44554 0
M  V30 2242 C 207.64 0.550914 4.2575 0
M  V30 2243 C 206.873 -0.177778 5.33404 0
M  V30 2244 O 207.096 -1.40189 5.52904 0
M  V30 2245 O 206.03 0.479106 5.9999 0
M  V30 2246 H 209.856 1.22639 2.77837 0
M  V30 2247 H 207.441 0.662834 1.33891 0
M  V30 2248 H 209.323 -0.817841 4.13388 0
M  V30 2249 H 207.998 -1.20763 3.0033 0
M  V30 2250 H 206.905 1.03271 3.59564 0
M  V30 2251 H 208.238 1.33979 4.73614 0
M  V30 2252 N 209.89 -1.43072 0.660911 0
M  V30 2253 C 210.8 -2.34585 -0.0264163 0
M  V30 2254 C 211.816 -1.54316 -0.803898 0
M  V30 2255 O 212.992 -1.86939 -0.749391 0
M  V30 2256 C 210.057 -3.32689 -0.975639 0
M  V30 2257 C 209.118 -4.2886 -0.194236 0
M  V30 2258 C 208.351 -5.22278 -1.09825 0
M  V30 2259 O 208.574 -5.20299 -2.33763 0
M  V30 2260 O 207.508 -5.99228 -0.566513 0
M  V30 2261 H 211.334 -2.94869 0.727034 0
M  V30 2262 H 208.919 -1.43342 0.42111 0
M  V30 2263 H 210.801 -3.92995 -1.52094 0
M  V30 2264 H 209.476 -2.74898 -1.70918 0
M  V30 2265 H 208.383 -3.72011 0.394835 0
M  V30 2266 H 209.716 -4.89655 0.499899 0
M  V30 2267 N 211.368 -0.403325 -1.52352 0
M  V30 2268 C 212.3 0.4603 -2.2453 0
M  V30 2269 C 213.313 1.01505 -1.27282 0
M  V30 2270 O 214.502 0.914982 -1.53266 0
M  V30 2271 C 211.602 1.65208 -2.95905 0
M  V30 2272 C 210.775 1.22224 -4.19976 0
M  V30 2273 C 209.834 2.28028 -4.74226 0
M  V30 2274 O 208.86 1.88857 -5.36956 0
M  V30 2275 N 210.062 3.6012 -4.55295 0
M  V30 2276 H 212.827 -0.158156 -2.99282 0
M  V30 2277 H 210.388 -0.230402 -1.60252 0
M  V30 2278 H 212.38 2.35541 -3.29093 0
M  V30 2279 H 210.95 2.17658 -2.24374 0
M  V30 2280 H 210.17 0.34725 -3.92668 0
M  V30 2281 H 211.458 0.911924 -5.00561 0
M  V30 2282 H 210.856 3.94698 -4.05253 0
M  V30 2283 H 209.413 4.26447 -4.92936 0
M  V30 2284 N 212.846 1.57033 -0.133567 0
M  V30 2285 C 213.776 2.1909 0.807567 0
M  V30 2286 C 214.757 1.13517 1.26681 0
M  V30 2287 O 215.942 1.41809 1.32679 0
M  V30 2288 C 213.072 2.80188 2.05212 0
M  V30 2289 C 212.026 3.91471 1.73015 0
M  V30 2290 C 211.352 4.39443 3.04622 0
M  V30 2291 C 212.652 5.12886 0.987168 0
M  V30 2292 H 214.346 2.97988 0.290403 0
M  V30 2293 H 211.892 1.43335 0.138239 0
M  V30 2294 H 213.845 3.22264 2.71521 0
M  V30 2295 H 212.569 1.98601 2.59278 0
M  V30 2296 H 211.228 3.49993 1.0909 0
M  V30 2297 H 210.876 3.54695 3.56651 0
M  V30 2298 H 210.576 5.14495 2.83847 0
M  V30 2299 H 212.1 4.8418 3.72024 0
M  V30 2300 H 213.514 5.51891 1.55208 0
M  V30 2301 H 211.911 5.93615 0.87985 0
M  V30 2302 H 212.981 4.84894 -0.0235286 0
M  V30 2303 N 214.325 -0.140222 1.56975 0
M  V30 2304 C 215.574 -0.850152 1.82908 0
M  V30 2305 C 215.887 -1.82028 0.715892 0
M  V30 2306 O 217.093 -2.57485 0.861016 0
M  V30 2307 C 215.549 -1.5625 3.24213 0
M  V30 2308 C 215.157 -0.63443 4.43485 0
M  V30 2309 C 216.901 -2.25881 3.59413 0
M  V30 2310 C 214.808 -1.34879 5.75814 0
M  V30 2311 H 213.738 -0.321221 0.682153 0
M  V30 2312 H 216.389 -0.102874 1.83211 0
M  V30 2313 H 214.771 -2.35565 3.18316 0
M  V30 2314 H 215.945 0.12398 4.60633 0
M  V30 2315 H 214.26 -0.0461836 4.16374 0
M  V30 2316 H 216.857 -2.79978 4.5554 0
M  V30 2317 H 217.2 -3.02693 2.85802 0
M  V30 2318 H 217.733 -1.53477 3.67001 0
M  V30 2319 H 214.472 -0.622385 6.52539 0
M  V30 2320 H 213.992 -2.07974 5.6259 0
M  V30 2321 H 215.671 -1.88784 6.18845 0
M  V30 2322 N 215.803 -1.52179 -0.40978 0
M  V30 2323 C 216.766 -1.74853 -1.48186 0
M  V30 2324 C 217.766 -0.618417 -1.48433 0
M  V30 2325 O 218.956 -0.886286 -1.49969 0
M  V30 2326 C 216.088 -1.8303 -2.87598 0
M  V30 2327 H 217.281 -2.70559 -1.29374 0
M  V30 2328 H 214.834 -1.42586 -0.640233 0
M  V30 2329 H 215.569 -0.89236 -3.11781 0
M  V30 2330 H 215.354 -2.65187 -2.88822 0
M  V30 2331 H 216.844 -2.02316 -3.65319 0
M  V30 2332 N 217.281 0.66697 -1.42791 0
M  V30 2333 C 218.244 1.76211 -1.46568 0
M  V30 2334 C 219.244 1.56896 -0.352196 0
M  V30 2335 O 220.434 1.63044 -0.613364 0
M  V30 2336 C 217.566 3.14935 -1.30494 0
M  V30 2337 H 218.759 1.74247 -2.44086 0
M  V30 2338 H 216.312 0.877342 -1.29354 0
M  V30 2339 H 217.047 3.2252 -0.339301 0
M  V30 2340 H 216.832 3.30359 -2.11199 0
M  V30 2341 H 218.322 3.94821 -1.36038 0
M  V30 2342 N 218.759 1.29093 0.90403 0
M  V30 2343 C 219.706 1.13853 2.00764 0
M  V30 2344 C 220.676 0.0330084 1.66067 0
M  V30 2345 O 221.861 0.199733 1.89752 0
M  V30 2346 C 219.001 0.816537 3.35301 0
M  V30 2347 C 218.114 2.00206 3.82807 0
M  V30 2348 C 217.249 1.61983 5.059 0
M  V30 2349 C 216.288 2.77143 5.45764 0
M  V30 2350 N 215.425 2.39346 6.60044 0
M  V30 2351 H 220.265 2.08276 2.13132 0
M  V30 2352 H 217.802 1.03648 1.04381 0
M  V30 2353 H 219.76 0.610557 4.12708 0
M  V30 2354 H 218.39 -0.090779 3.22672 0
M  V30 2355 H 217.442 2.31988 3.01473 0
M  V30 2356 H 218.754 2.86512 4.08304 0
M  V30 2357 H 217.908 1.37649 5.90879 0
M  V30 2358 H 216.647 0.728202 4.82233 0
M  V30 2359 H 215.652 3.02165 4.59322 0
M  V30 2360 H 216.877 3.66964 5.71414 0
M  V30 2361 H 214.823 1.52665 6.37989 0
M  V30 2362 H 214.74 3.19185 6.85315 0
M  V30 2363 H 216.008 2.1832 7.48303 0
M  V30 2364 N 220.237 -1.11381 1.11499 0
M  V30 2365 C 221.484 -1.83132 0.864231 0
M  V30 2366 C 221.812 -1.84683 -0.610114 0
M  V30 2367 O 221.067 -1.29589 -1.46646 0
M  V30 2368 C 221.366 -3.30026 1.37177 0
M  V30 2369 C 221.032 -3.48634 2.85946 0
M  V30 2370 C 219.694 -3.53421 3.26569 0
M  V30 2371 C 222.046 -3.54837 3.81759 0
M  V30 2372 C 219.374 -3.61967 4.61733 0
M  V30 2373 C 221.726 -3.64915 5.1674 0
M  V30 2374 C 220.39 -3.67962 5.5692 0
M  V30 2375 H 219.66 -0.670127 0.316245 0
M  V30 2376 H 222.307 -1.31354 1.3935 0
M  V30 2377 H 220.612 -3.84304 0.762753 0
M  V30 2378 H 222.309 -3.84034 1.15408 0
M  V30 2379 H 218.899 -3.45579 2.53521 0
M  V30 2380 H 223.083 -3.50399 3.51474 0
M  V30 2381 H 218.339 -3.62603 4.92269 0
M  V30 2382 H 222.513 -3.68658 5.90816 0
M  V30 2383 H 220.14 -3.74336 6.61647 0
M  V30 2384 N 221.715 -0.905404 -1.28997 0
M  V30 2385 C 222.955 -0.541232 -1.97104 0
M  V30 2386 C 223.319 0.896841 -1.69767 0
M  V30 2387 O 224.52 1.36817 -2.31375 0
M  V30 2388 C 222.791 -0.832134 -3.47578 0
M  V30 2389 S 224.35 -0.573127 -4.35041 0
M  V30 2390 H 221.168 -0.200576 -0.682122 0
M  V30 2391 H 223.77 -1.16906 -1.56694 0
M  V30 2392 H 222.474 -1.87687 -3.64968 0
M  V30 2393 H 222.005 -0.192636 -3.92928 0
M  V30 2394 H 224.02 0.579297 -4.92807 0
M  V30 2395 N 223.193 1.4272 -0.668489 0
M  V30 2396 C 224.44 2.01624 -0.18814 0
M  V30 2397 C 224.768 1.5282 1.20317 0
M  V30 2398 O 224.023 0.718323 1.8204 0
M  V30 2399 C 224.322 3.57021 -0.164499 0
M  V30 2400 C 223.988 4.25232 -1.49962 0
M  V30 2401 C 222.65 4.4358 -1.8652 0
M  V30 2402 C 225.002 4.63727 -2.37921 0
M  V30 2403 C 222.33 4.97694 -3.10674 0
M  V30 2404 C 224.682 5.19218 -3.6138 0
M  V30 2405 C 223.346 5.3578 -3.98115 0
M  V30 2406 H 222.616 0.737795 -0.0688454 0
M  V30 2407 H 225.263 1.70991 -0.862225 0
M  V30 2408 H 223.568 3.87285 0.593079 0
M  V30 2409 H 225.265 4.00372 0.224271 0
M  V30 2410 H 221.855 4.11306 -1.20522 0
M  V30 2411 H 226.039 4.4923 -2.10964 0
M  V30 2412 H 221.295 5.08702 -3.39164 0
M  V30 2413 H 225.469 5.4799 -4.29743 0
M  V30 2414 H 223.096 5.77475 -4.94395 0
M  V30 2415 N 224.671 0.411399 1.52136 0
M  V30 2416 C 225.634 -0.401089 2.25663 0
M  V30 2417 C 226.634 -0.971732 1.28117 0
M  V30 2418 O 227.824 -0.850254 1.52041 0
M  V30 2419 C 224.956 -1.56483 3.02863 0
M  V30 2420 H 226.149 0.24295 2.98914 0
M  V30 2421 H 223.702 0.163968 1.55438 0
M  V30 2422 H 224.437 -2.24567 2.33967 0
M  V30 2423 H 224.222 -1.16211 3.74483 0
M  V30 2424 H 225.712 -2.13951 3.58629 0
M  V30 2425 N 226.149 -1.5696 0.141893 0
M  V30 2426 C 227.397 -1.95573 -0.509484 0
M  V30 2427 C 227.718 -1.02746 -1.65736 0
M  V30 2428 O 226.988 -0.0880311 -1.95702 0
M  V30 2429 H 225.568 -0.722115 -0.191205 0
M  V30 2430 H 228.23 -1.93697 0.216196 0
M  V30 2431 H 227.326 -2.99171 -0.889 0
M  V30 2432 N 227.627 0.131896 -1.57047 0
M  V30 2433 C 228.557 1.16384 -2.02428 0
M  V30 2434 C 229.538 1.43936 -0.90644 0
M  V30 2435 O 230.723 1.54599 -1.17528 0
M  V30 2436 C 227.853 2.49328 -2.4177 0
M  V30 2437 C 226.807 2.36266 -3.56879 0
M  V30 2438 C 226.133 3.74057 -3.8208 0
M  V30 2439 C 227.433 1.834 -4.89042 0
M  V30 2440 H 229.127 0.786433 -2.88887 0
M  V30 2441 H 226.673 0.376855 -1.38981 0
M  V30 2442 H 228.626 3.21759 -2.7212 0
M  V30 2443 H 227.35 2.88934 -1.52266 0
M  V30 2444 H 226.009 1.66286 -3.26718 0
M  V30 2445 H 225.657 4.11125 -2.89803 0
M  V30 2446 H 225.357 3.66174 -4.59554 0
M  V30 2447 H 226.881 4.48012 -4.1487 0
M  V30 2448 H 228.295 2.45636 -5.18011 0
M  V30 2449 H 226.692 1.8637 -5.70426 0
M  V30 2450 H 227.762 0.790662 -4.7841 0
M  V30 2451 N 229.106 1.52395 0.401703 0
M  V30 2452 C 230.036 1.79231 1.49661 0
M  V30 2453 C 231.017 0.643654 1.57452 0
M  V30 2454 O 232.202 0.889989 1.72606 0
M  V30 2455 C 229.332 1.94971 2.87409 0
M  V30 2456 C 228.286 3.10604 2.94465 0
M  V30 2457 C 227.612 3.11577 4.34538 0
M  V30 2458 C 228.912 4.49921 2.6527 0
M  V30 2459 H 230.606 2.70917 1.27454 0
M  V30 2460 H 228.152 1.30362 0.6117 0
M  V30 2461 H 230.105 2.12328 3.63999 0
M  V30 2462 H 228.829 0.999632 3.10926 0
M  V30 2463 H 227.488 2.93009 2.20321 0
M  V30 2464 H 227.136 2.14277 4.55076 0
M  V30 2465 H 226.836 3.89247 4.40183 0
M  V30 2466 H 228.36 3.31073 5.13053 0
M  V30 2467 H 229.774 4.67683 3.31581 0
M  V30 2468 H 228.171 5.29564 2.82281 0
M  V30 2469 H 229.241 4.57507 1.60671 0
M  V30 2470 N 230.584 -0.659388 1.43143 0
M  V30 2471 C 231.833 -1.41518 1.43721 0
M  V30 2472 C 232.146 -1.95499 0.0628176 0
M  V30 2473 O 233.352 -2.71446 -0.0539683 0
M  V30 2474 C 231.808 -2.5608 2.52885 0
M  V30 2475 C 231.416 -2.08733 3.96402 0
M  V30 2476 C 233.16 -3.3349 2.62649 0
M  V30 2477 C 231.067 -3.20469 4.97045 0
M  V30 2478 H 229.997 -0.531705 0.534608 0
M  V30 2479 H 232.648 -0.712343 1.69109 0
M  V30 2480 H 231.03 -3.28805 2.20688 0
M  V30 2481 H 232.204 -1.43059 4.3803 0
M  V30 2482 H 230.519 -1.44219 3.90627 0
M  V30 2483 H 233.116 -4.16734 3.35017 0
M  V30 2484 H 233.459 -3.8111 1.67513 0
M  V30 2485 H 233.992 -2.67842 2.94118 0
M  V30 2486 H 230.731 -2.77824 5.93712 0
M  V30 2487 H 230.251 -3.84874 4.60034 0
M  V30 2488 H 231.93 -3.85698 5.19467 0
M  V30 2489 N 232.062 -1.29571 -0.897171 0
M  V30 2490 C 233.31 -1.17456 -1.64464 0
M  V30 2491 C 233.631 0.273698 -1.9307 0
M  V30 2492 O 232.901 1.18684 -1.55855 0
M  V30 2493 H 231.481 -0.431706 -0.609622 0
M  V30 2494 H 234.143 -1.62531 -1.07562 0
M  V30 2495 H 233.239 -1.72648 -2.59998 0
M  V30 2496 N 233.54 1.10788 -1.12088 0
M  V30 2497 C 234.472 2.16816 -0.743213 0
M  V30 2498 C 235.485 1.6119 0.228412 0
M  V30 2499 O 236.674 1.78497 0.0102931 0
M  V30 2500 C 233.774 3.38809 -0.0787313 0
M  V30 2501 C 232.947 4.23885 -1.0789 0
M  V30 2502 C 232.006 5.24334 -0.442713 0
M  V30 2503 O 231.032 5.58497 -1.09864 0
M  V30 2504 N 232.234 5.75079 0.791457 0
M  V30 2505 H 234.999 2.49825 -1.65552 0
M  V30 2506 H 232.56 1.26373 -1.012 0
M  V30 2507 H 234.552 4.03107 0.358766 0
M  V30 2508 H 233.122 3.03805 0.736275 0
M  V30 2509 H 232.342 3.55939 -1.69414 0
M  V30 2510 H 233.63 4.77562 -1.75533 0
M  V30 2511 H 233.028 5.49517 1.3434 0
M  V30 2512 H 231.585 6.4118 1.17183 0
M  V30 2513 N 235.018 0.912232 1.28515 0
M  V30 2514 C 236.246 0.560416 1.99166 0
M  V30 2515 C 236.661 -0.857927 1.68182 0
M  V30 2516 O 236.018 -1.56805 0.933733 0
M  V30 2517 C 236.069 0.758142 3.53461 0
M  V30 2518 O 235.79 2.12067 3.83352 0
M  V30 2519 C 237.291 0.412954 4.41372 0
M  V30 2520 H 234.511 0.213805 0.636026 0
M  V30 2521 H 237.055 1.22502 1.63749 0
M  V30 2522 H 235.21 0.140556 3.87145 0
M  V30 2523 H 235.624 2.15923 4.77993 0
M  V30 2524 H 237.098 0.60208 5.48707 0
M  V30 2525 H 237.575 -0.65073 4.34353 0
M  V30 2526 H 238.181 1.00802 4.13182 0
M  V30 2527 N 236.496 -1.42363 0.676048 0
M  V30 2528 C 237.406 -2.346 -0.00153389 0
M  V30 2529 C 238.422 -1.5516 -0.787485 0
M  V30 2530 O 239.598 -1.87723 -0.729521 0
M  V30 2531 C 236.663 -3.33705 -0.940298 0
M  V30 2532 C 235.724 -4.29042 -0.148739 0
M  V30 2533 C 234.957 -5.23413 -1.04279 0
M  V30 2534 O 235.18 -5.22749 -2.28232 0
M  V30 2535 O 234.114 -5.99795 -0.502925 0
M  V30 2536 H 237.94 -2.94082 0.758268 0
M  V30 2537 H 235.525 -1.42888 0.436289 0
M  V30 2538 H 237.407 -3.94586 -1.47917 0
M  V30 2539 H 236.082 -2.76695 -1.67993 0
M  V30 2540 H 234.989 -3.71571 0.43427 0
M  V30 2541 H 236.322 -4.89097 0.551805 0
M  V30 2542 N 237.974 -0.419461 -1.51915 0
M  V30 2543 C 239.22 0.153166 -2.02221 0
M  V30 2544 C 239.553 1.43907 -1.30401 0
M  V30 2545 O 238.828 1.90055 -0.413438 0
M  V30 2546 C 239.111 0.390291 -3.57979 0
M  V30 2547 C 238.964 -0.913014 -4.40436 0
M  V30 2548 C 240.283 1.16794 -4.2432 0
M  V30 2549 H 237.402 0.0541924 -0.735005 0
M  V30 2550 H 240.044 -0.554955 -1.81715 0
M  V30 2551 H 238.194 0.993491 -3.75582 0
M  V30 2552 H 239.866 -1.54882 -4.34522 0
M  V30 2553 H 238.109 -1.52168 -4.06236 0
M  V30 2554 H 238.78 -0.701361 -5.47526 0
M  V30 2555 H 241.256 0.657161 -4.10878 0
M  V30 2556 H 240.132 1.3026 -5.3322 0
M  V30 2557 H 240.393 2.19132 -3.83971 0
M  V30 2558 N 239.452 1.56882 -0.150215 0
M  V30 2559 C 240.729 1.87844 0.545327 0
M  V30 2560 C 241.109 1.0567 1.82749 0
M  V30 2561 O 240.457 0.144442 2.28043 0
M  V30 2562 C 240.667 3.39526 0.80767 0
M  V30 2563 C 242.015 4.08814 1.14703 0
M  V30 2564 O 243.039 3.44723 0.896917 0
M  V30 2565 O 241.898 5.22004 1.61784 0
M  V30 2566 H 238.992 0.778677 0.278553 0
M  V30 2567 H 241.538 1.68666 -0.187068 0
M  V30 2568 H 240.31 3.91173 -0.0996096 0
M  V30 2569 H 239.933 3.64243 1.59413 0
M  V30 2570 N 240.93 -0.123565 1.57115 0
M  V30 2571 C 242.179 -0.830704 1.83799 0
M  V30 2572 C 242.492 -1.81259 0.735158 0
M  V30 2573 O 243.698 -2.56558 0.888278 0
M  V30 2574 C 242.154 -1.52802 3.25852 0
M  V30 2575 C 241.762 -0.587356 4.44133 0
M  V30 2576 C 243.506 -2.22056 3.61789 0
M  V30 2577 C 241.413 -1.28764 5.77212 0
M  V30 2578 H 240.343 -0.313967 0.685522 0
M  V30 2579 H 242.994 -0.0834359 1.8331 0
M  V30 2580 H 241.376 -2.32175 3.20797 0
M  V30 2581 H 242.55 0.172829 4.60476 0
M  V30 2582 H 240.865 -0.00201892 4.164 0
M  V30 2583 H 243.462 -2.75131 4.58483 0
M  V30 2584 H 243.805 -2.99644 2.88997 0
M  V30 2585 H 244.338 -1.49576 3.68608 0
M  V30 2586 H 241.077 -0.55314 6.53162 0
M  V30 2587 H 240.597 -2.01995 5.64764 0
M  V30 2588 H 242.276 -1.8221 6.20813 0
M  V30 2589 N 242.408 -1.52605 -0.393616 0
M  V30 2590 C 243.341 -1.71798 -1.50202 0
M  V30 2591 C 244.319 -0.565743 -1.52441 0
M  V30 2592 O 245.503 -0.794987 -1.70916 0
M  V30 2593 C 242.63 -1.7714 -2.88685 0
M  V30 2594 C 241.676 -2.98845 -3.04292 0
M  V30 2595 S 242.509 -4.58909 -2.75976 0
M  V30 2596 C 243.665 -4.6706 -4.1666 0
M  V30 2597 H 243.898 -2.65542 -1.33696 0
M  V30 2598 H 241.431 -1.42839 -0.586195 0
M  V30 2599 H 243.389 -1.80903 -3.68489 0
M  V30 2600 H 242.05 -0.844969 -3.02521 0
M  V30 2601 H 241.243 -2.99111 -4.05646 0
M  V30 2602 H 240.845 -2.9305 -2.32374 0
M  V30 2603 H 243.137 -4.45391 -5.10523 0
M  V30 2604 H 244.08 -5.6905 -4.21412 0
M  V30 2605 H 244.488 -3.95944 -4.02354 0
M  V30 2606 N 243.887 0.651787 -1.4349 0
M  V30 2607 C 245.112 1.44434 -1.48841 0
M  V30 2608 C 245.537 1.8779 -0.107955 0
M  V30 2609 O 244.895 1.57464 0.898602 0
M  V30 2610 C 244.943 2.65458 -2.44059 0
M  V30 2611 O 244.047 3.64566 -1.92784 0
M  V30 2612 H 243.388 0.433005 -0.503391 0
M  V30 2613 H 245.918 0.797451 -1.88419 0
M  V30 2614 H 245.928 3.13255 -2.6141 0
M  V30 2615 H 244.603 2.33244 -3.4434 0
M  V30 2616 H 243.18 3.23716 -1.851 0
M  V30 2617 N 245.365 1.30045 0.890287 0
M  V30 2618 C 246.315 1.12592 1.9826 0
M  V30 2619 C 247.299 0.0426021 1.60844 0
M  V30 2620 O 248.491 0.265346 1.75 0
M  V30 2621 C 245.62 0.814301 3.33503 0
M  V30 2622 C 244.706 1.93761 3.7725 0
M  V30 2623 N 245.097 3.18232 3.93143 0
M  V30 2624 C 243.395 1.83277 4.06602 0
M  V30 2625 C 244.096 3.9158 4.30163 0
M  V30 2626 N 243.072 3.19591 4.3973 0
M  V30 2627 H 246.874 2.07003 2.08631 0
M  V30 2628 H 244.388 1.21307 1.07974 0
M  V30 2629 H 246.385 0.67029 4.11476 0
M  V30 2630 H 245.045 -0.121797 3.24471 0
M  V30 2631 H 246.056 3.53581 3.78419 0
M  V30 2632 H 242.733 0.97001 4.06075 0
M  V30 2633 H 244.123 4.98744 4.50226 0
M  V30 2634 N 246.843 -1.10192 1.12674 0
M  V30 2635 C 247.806 -2.14786 0.799979 0
M  V30 2636 C 248.806 -1.59711 -0.18685 0
M  V30 2637 O 249.996 -1.74156 0.0392558 0
M  V30 2638 C 247.128 -3.40374 0.189228 0
M  V30 2639 H 248.321 -2.45203 1.72671 0
M  V30 2640 H 245.874 -1.25597 0.930326 0
M  V30 2641 H 246.609 -3.15577 -0.747107 0
M  V30 2642 H 246.394 -3.81637 0.899766 0
M  V30 2643 H 247.884 -4.17594 -0.0228143 0
M  V30 2644 N 248.321 -0.919034 -1.28029 0
M  V30 2645 C 249.549 -0.570971 -1.98866 0
M  V30 2646 C 249.964 0.848996 -1.68634 0
M  V30 2647 O 249.321 1.56307 -0.942036 0
M  V30 2648 C 249.372 -0.776876 -3.53054 0
M  V30 2649 O 249.093 -2.14097 -3.82222 0
M  V30 2650 C 250.594 -0.436356 -4.41147 0
M  V30 2651 H 247.814 -0.217175 -0.634883 0
M  V30 2652 H 250.358 -1.23368 -1.63097 0
M  V30 2653 H 248.513 -0.161085 -3.87065 0
M  V30 2654 H 248.927 -2.18455 -4.76841 0
M  V30 2655 H 250.401 -0.63117 -5.4838 0
M  V30 2656 H 250.878 0.627686 -4.34692 0
M  V30 2657 H 251.484 -1.02991 -4.12641 0
M  V30 2658 N 249.799 1.42003 -0.683588 0
M  V30 2659 C 250.731 2.29183 0.0283068 0
M  V30 2660 C 251.744 1.4415 0.756611 0
M  V30 2661 O 252.933 1.67779 0.609306 0
M  V30 2662 C 250.033 3.21765 1.06398 0
M  V30 2663 C 249.206 4.35496 0.407723 0
M  V30 2664 C 248.265 5.08737 1.34437 0
M  V30 2665 O 247.291 5.62948 0.841318 0
M  V30 2666 N 248.493 5.15075 2.67728 0
M  V30 2667 H 251.258 2.9092 -0.720105 0
M  V30 2668 H 248.819 1.53025 -0.528682 0
M  V30 2669 H 250.811 3.6763 1.69204 0
M  V30 2670 H 249.381 2.61418 1.71404 0
M  V30 2671 H 248.601 3.92165 -0.400012 0
M  V30 2672 H 249.889 5.08776 -0.0490956 0
M  V30 2673 H 249.287 4.72457 3.11129 0
M  V30 2674 H 247.844 5.64556 3.2576 0
M  V30 2675 N 251.277 0.427512 1.51691 0
M  V30 2676 C 252.24 -0.377132 2.26076 0
M  V30 2677 C 253.24 -0.958089 1.29141 0
M  V30 2678 O 254.43 -0.83408 1.52934 0
M  V30 2679 C 251.562 -1.53262 3.04506 0
M  V30 2680 H 252.755 0.27464 2.9864 0
M  V30 2681 H 250.308 0.180445 1.55255 0
M  V30 2682 H 251.043 -2.22072 2.36335 0
M  V30 2683 H 250.828 -1.12232 3.75694 0
M  V30 2684 H 252.318 -2.10135 3.60878 0
M  V30 2685 N 252.755 -1.56801 0.158532 0
M  V30 2686 C 254.004 -1.95665 -0.489702 0
M  V30 2687 C 254.317 -1.04654 -1.65248 0
M  V30 2688 O 255.523 -1.33146 -2.3661 0
M  V30 2689 C 253.979 -3.47874 -0.922582 0
M  V30 2690 C 253.587 -4.47489 0.213893 0
M  V30 2691 C 255.331 -3.95583 -1.53996 0
M  V30 2692 C 253.238 -5.90921 -0.237903 0
M  V30 2693 H 252.168 -0.730516 -0.186716 0
M  V30 2694 H 254.819 -1.81861 0.244722 0
M  V30 2695 H 253.201 -3.57051 -1.71261 0
M  V30 2696 H 254.375 -4.50017 0.991036 0
M  V30 2697 H 252.69 -4.09764 0.740407 0
M  V30 2698 H 255.287 -5.0019 -1.8898 0
M  V30 2699 H 255.63 -3.37789 -2.43319 0
M  V30 2700 H 256.163 -3.8937 -0.814611 0
M  V30 2701 H 252.902 -6.52559 0.620236 0
M  V30 2702 H 252.422 -5.91729 -0.980676 0
M  V30 2703 H 254.101 -6.43352 -0.686067 0
M  V30 2704 N 254.233 0.115231 -1.57178 0
M  V30 2705 C 255.48 0.822351 -1.8505 0
M  V30 2706 C 255.808 1.79701 -0.744168 0
M  V30 2707 O 255.063 1.93909 0.26414 0
M  V30 2708 C 255.362 1.60324 -3.19423 0
M  V30 2709 C 255.028 0.772536 -4.44233 0
M  V30 2710 C 253.69 0.543468 -4.78121 0
M  V30 2711 C 256.042 0.193746 -5.2084 0
M  V30 2712 C 253.37 -0.274583 -5.86057 0
M  V30 2713 C 255.722 -0.611517 -6.29637 0
M  V30 2714 C 254.386 -0.850867 -6.62055 0
M  V30 2715 H 253.656 0.30092 -0.677147 0
M  V30 2716 H 256.303 0.0845802 -1.91313 0
M  V30 2717 H 254.608 2.41203 -3.08753 0
M  V30 2718 H 256.305 2.1544 -3.38211 0
M  V30 2719 H 252.895 0.96117 -4.17683 0
M  V30 2720 H 257.079 0.357926 -4.95008 0
M  V30 2721 H 252.335 -0.469206 -6.09597 0
M  V30 2722 H 256.509 -1.06697 -6.88178 0
M  V30 2723 H 254.136 -1.48657 -7.45523 0
M  V30 2724 N 255.711 1.52812 0.385517 0
M  V30 2725 C 256.621 1.80766 1.49535 0
M  V30 2726 C 257.637 0.694651 1.59532 0
M  V30 2727 O 258.813 0.982611 1.75803 0
M  V30 2728 C 255.878 1.97381 2.85029 0
M  V30 2729 C 254.939 3.21295 2.84724 0
M  V30 2730 C 254.172 3.37108 4.13756 0
M  V30 2731 O 254.395 2.5765 5.08893 0
M  V30 2732 O 253.329 4.30378 4.20783 0
M  V30 2733 H 257.155 2.75015 1.28842 0
M  V30 2734 H 254.74 1.37946 0.573697 0
M  V30 2735 H 256.622 2.09996 3.65349 0
M  V30 2736 H 255.297 1.06322 3.05741 0
M  V30 2737 H 254.204 3.1412 2.03174 0
M  V30 2738 H 255.537 4.12212 2.68965 0
M  V30 2739 N 257.189 -0.644168 1.43834 0
M  V30 2740 C 258.438 -1.39985 1.45214 0
M  V30 2741 C 258.751 -1.95421 0.0835494 0
M  V30 2742 O 259.957 -2.71488 -0.0251748 0
M  V30 2743 C 258.413 -2.53384 2.55587 0
M  V30 2744 C 258.021 -2.04517 3.98594 0
M  V30 2745 C 259.765 -3.30685 2.66172 0
M  V30 2746 C 257.672 -3.1518 5.00416 0
M  V30 2747 H 256.602 -0.526005 0.540218 0
M  V30 2748 H 259.253 -0.694367 1.69855 0
M  V30 2749 H 257.635 -3.26446 2.24163 0
M  V30 2750 H 258.809 -1.38405 4.39523 0
M  V30 2751 H 257.124 -1.40068 3.92135 0
M  V30 2752 H 259.721 -4.13158 3.39418 0
M  V30 2753 H 260.064 -3.79312 1.71546 0
M  V30 2754 H 260.597 -2.64708 2.96942 0
M  V30 2755 H 257.336 -2.71511 5.96625 0
M  V30 2756 H 256.856 -3.79974 4.64091 0
M  V30 2757 H 258.535 -3.80166 5.23529 0
M  V30 2758 N 258.668 -1.30515 -0.883378 0
M  V30 2759 C 259.598 -1.19607 -2.00541 0
M  V30 2760 C 260.579 -0.086346 -1.69881 0
M  V30 2761 O 261.764 -0.268654 -1.92333 0
M  V30 2762 C 258.894 -0.888758 -3.35736 0
M  V30 2763 C 257.848 -1.95659 -3.8066 0
M  V30 2764 C 257.174 -1.50224 -5.13164 0
M  V30 2765 C 258.474 -3.36788 -3.99213 0
M  V30 2766 H 260.168 -2.13476 -2.09925 0
M  V30 2767 H 257.714 -1.02775 -1.00863 0
M  V30 2768 H 259.667 -0.799094 -4.13754 0
M  V30 2769 H 258.391 0.0856125 -3.26488 0
M  V30 2770 H 257.05 -2.03591 -3.04871 0
M  V30 2771 H 256.698 -0.516092 -5.00345 0
M  V30 2772 H 256.398 -2.2165 -5.44192 0
M  V30 2773 H 257.922 -1.42639 -5.93706 0
M  V30 2774 H 259.336 -3.31605 -4.67665 0
M  V30 2775 H 257.733 -4.06314 -4.41621 0
M  V30 2776 H 258.803 -3.78561 -3.03017 0
M  V30 2777 N 260.146 1.09593 -1.13257 0
M  V30 2778 C 261.056 2.19739 -0.821691 0
M  V30 2779 C 262.072 1.72926 0.19302 0
M  V30 2780 O 263.248 2.01385 0.0244895 0
M  V30 2781 C 260.313 3.45482 -0.290333 0
M  V30 2782 C 259.374 4.06985 -1.36607 0
M  V30 2783 C 258.607 5.26726 -0.859975 0
M  V30 2784 O 258.83 5.69594 0.303082 0
M  V30 2785 O 257.764 5.7931 -1.63351 0
M  V30 2786 H 261.59 2.48781 -1.74189 0
M  V30 2787 H 259.175 1.18496 -0.909894 0
M  V30 2788 H 261.057 4.214 0.000674022 0
M  V30 2789 H 259.732 3.18047 0.602306 0
M  V30 2790 H 258.639 3.32712 -1.71037 0
M  V30 2791 H 259.972 4.38643 -2.23279 0
M  V30 2792 N 261.624 0.925811 1.2754 0
M  V30 2793 C 262.571 0.422045 2.26908 0
M  V30 2794 C 263.541 -0.510029 1.58076 0
M  V30 2795 O 264.726 -0.429599 1.85901 0
M  V30 2796 C 261.866 -0.320837 3.43605 0
M  V30 2797 C 260.979 0.64513 4.27156 0
M  V30 2798 C 260.114 -0.117405 5.3107 0
M  V30 2799 C 259.153 0.841391 6.0629 0
M  V30 2800 N 258.29 0.111604 7.02011 0
M  V30 2801 H 263.13 1.27441 2.69375 0
M  V30 2802 H 260.667 0.639697 1.32462 0
M  V30 2803 H 262.625 -0.76785 4.10073 0
M  V30 2804 H 261.255 -1.13745 3.02096 0
M  V30 2805 H 260.307 1.21067 3.6062 0
M  V30 2806 H 261.619 1.37797 4.79389 0
M  V30 2807 H 260.773 -0.624422 6.03478 0
M  V30 2808 H 259.512 -0.883219 4.79636 0
M  V30 2809 H 258.517 1.35967 5.32722 0
M  V30 2810 H 259.742 1.60696 6.59813 0
M  V30 2811 H 257.688 -0.635999 6.5291 0
M  V30 2812 H 257.605 0.784044 7.51923 0
M  V30 2813 H 258.873 -0.374823 7.78598 0
M  V30 2814 N 263.102 -1.41638 0.69111 0
M  V30 2815 C 264.327 -2.06148 0.227583 0
M  V30 2816 C 264.752 -1.51652 -1.11281 0
M  V30 2817 O 264.11 -0.64164 -1.69566 0
M  V30 2818 C 264.158 -3.60095 0.190858 0
M  V30 2819 O 263.262 -4.03845 -0.835664 0
M  V30 2820 H 262.603 -0.654434 0.112306 0
M  V30 2821 H 265.133 -1.81484 0.944714 0
M  V30 2822 H 265.143 -4.07995 0.020207 0
M  V30 2823 H 263.818 -3.99129 1.16915 0
M  V30 2824 H 262.395 -3.67458 -0.63473 0
M  V30 2825 N 264.58 -0.43555 -1.51462 0
M  V30 2826 C 265.826 0.123979 -2.03022 0
M  V30 2827 C 266.181 1.4054 -1.31401 0
M  V30 2828 O 265.474 1.86948 -0.419634 0
M  V30 2829 C 265.668 0.39942 -3.55161 0
M  V30 2830 C 265.497 -0.853754 -4.41521 0
M  V30 2831 C 264.267 -1.38675 -4.85898 0
M  V30 2832 C 266.465 -1.73939 -4.83994 0
M  V30 2833 N 264.447 -2.59265 -5.56466 0
M  V30 2834 C 265.818 -2.79135 -5.5361 0
M  V30 2835 C 267.873 -1.75402 -4.65981 0
M  V30 2836 C 266.576 -3.85737 -6.07124 0
M  V30 2837 C 268.602 -2.80938 -5.20411 0
M  V30 2838 C 267.964 -3.84854 -5.89972 0
M  V30 2839 H 264.063 0.00624887 -0.781975 0
M  V30 2840 H 266.647 -0.59582 -1.85359 0
M  V30 2841 H 264.818 1.08825 -3.72843 0
M  V30 2842 H 266.55 0.95015 -3.93388 0
M  V30 2843 H 263.305 -0.94094 -4.64159 0
M  V30 2844 H 263.729 -3.2041 -5.96378 0
M  V30 2845 H 268.371 -0.963926 -4.11665 0
M  V30 2846 H 266.089 -4.65586 -6.60496 0
M  V30 2847 H 269.675 -2.8301 -5.08327 0
M  V30 2848 H 268.555 -4.65176 -6.31333 0
M  V30 2849 N 266.058 1.56714 -0.166846 0
M  V30 2850 C 266.988 2.20754 0.760913 0
M  V30 2851 C 267.969 1.16178 1.24244 0
M  V30 2852 O 269.154 1.44592 1.29641 0
M  V30 2853 C 266.284 2.84478 1.99223 0
M  V30 2854 C 265.238 3.95053 1.64672 0
M  V30 2855 C 264.564 4.45805 2.95232 0
M  V30 2856 C 265.864 5.14865 0.878155 0
M  V30 2857 H 267.558 2.98537 0.22713 0
M  V30 2858 H 265.104 1.43596 0.107805 0
M  V30 2859 H 267.057 3.27951 2.64624 0
M  V30 2860 H 265.781 2.04056 2.55007 0
M  V30 2861 H 264.44 3.52228 1.01641 0
M  V30 2862 H 264.088 3.62181 3.49047 0
M  V30 2863 H 263.788 5.204 2.7287 0
M  V30 2864 H 265.312 4.91962 3.6167 0
M  V30 2865 H 266.726 5.55059 1.43466 0
M  V30 2866 H 265.123 5.95348 0.753738 0
M  V30 2867 H 266.193 4.84735 -0.126377 0
M  V30 2868 N 267.536 -0.106894 1.57237 0
M  V30 2869 C 268.947 -0.662723 1.74542 0
M  V30 2870 C 269.298 -1.7971 0.787319 0
M  V30 2871 O 268.423 -2.16368 -0.0369636 0
M  V30 2872 C 269.018 -1.20896 3.16496 0
M  V30 2873 C 267.577 -1.71096 3.35266 0
M  V30 2874 C 266.724 -0.615642 2.7038 0
M  V30 2875 H 269.675 0.119106 1.58252 0
M  V30 2876 H 269.696 -2.07847 3.18716 0
M  V30 2877 H 269.208 -0.383122 3.86204 0
M  V30 2878 H 267.309 -2.56119 2.70618 0
M  V30 2879 H 267.422 -1.81208 4.43509 0
M  V30 2880 H 265.786 -1.05222 2.31949 0
M  V30 2881 H 266.569 0.199419 3.4272 0
M  V30 2882 N 269.014 -1.53014 -0.377408 0
M  V30 2883 C 269.946 -1.74884 -1.48149 0
M  V30 2884 C 270.959 -0.629433 -1.5014 0
M  V30 2885 O 272.148 -0.905416 -1.53833 0
M  V30 2886 C 269.248 -1.80299 -2.86959 0
M  V30 2887 C 268.421 -3.09776 -3.08801 0
M  V30 2888 C 267.48 -3.06586 -4.27658 0
M  V30 2889 O 266.506 -3.80419 -4.23403 0
M  V30 2890 N 267.708 -2.26578 -5.34455 0
M  V30 2891 H 270.473 -2.70147 -1.29771 0
M  V30 2892 H 268.034 -1.51646 -0.56703 0
M  V30 2893 H 270.026 -1.75657 -3.64591 0
M  V30 2894 H 268.596 -0.92372 -2.98641 0
M  V30 2895 H 267.816 -3.27815 -2.18931 0
M  V30 2896 H 269.104 -3.95366 -3.20255 0
M  V30 2897 H 268.502 -1.66081 -5.40771 0
M  V30 2898 H 267.059 -2.27766 -6.10709 0
M  V30 2899 N 270.492 0.636531 -1.44174 0
M  V30 2900 C 271.44 1.76995 -1.50915 0
M  V30 2901 C 272.434 1.65053 -0.381295 0
M  V30 2902 O 273.64 1.71197 -0.55601 0
M  V30 2903 H 270.015 0.584247 -0.473455 0
M  V30 2904 H 271.986 1.68432 -2.4632 0
M  V30 2905 C 270.735 3.15314 -1.46534 0
M  V30 2906 H 270.058 3.25149 -2.32633 0
M  V30 2907 H 271.498 3.9453 -1.55312 0
M  V30 2908 C 269.957 3.3639 -0.185305 0
M  V30 2909 O 270.487 3.94699 0.746688 0
M  V30 2910 N 268.693 2.9046 -0.0901606 0
M  V30 2911 H 268.24 2.43193 -0.849416 0
M  V30 2912 H 268.198 3.04937 0.765553 0
M  V30 2913 N 271.97 1.30982 0.876444 0
M  V30 2914 C 273.21 1.21589 1.64303 0
M  V30 2915 C 273.574 -0.223962 1.90689 0
M  V30 2916 O 274.775 -0.44128 2.65153 0
M  V30 2917 C 273.046 2.03007 2.94148 0
M  V30 2918 S 274.605 2.10405 3.85065 0
M  V30 2919 H 271.423 0.433161 0.563819 0
M  V30 2920 H 274.025 1.65565 1.03964 0
M  V30 2921 H 272.729 3.06719 2.72675 0
M  V30 2922 H 272.26 1.59725 3.59515 0
M  V30 2923 H 274.275 1.23765 4.80517 0
M  V30 2924 N 273.449 -1.08991 1.13837 0
M  V30 2925 C 274.677 -1.85011 0.926202 0
M  V30 2926 C 275.092 -1.8135 -0.525127 0
M  V30 2927 O 274.449 -1.21287 -1.36366 0
M  V30 2928 C 274.5 -3.32802 1.41155 0
M  V30 2929 O 274.221 -3.36444 2.80601 0
M  V30 2930 C 275.722 -4.25649 1.23847 0
M  V30 2931 H 272.942 -0.584249 0.32999 0
M  V30 2932 H 275.486 -1.37688 1.51202 0
M  V30 2933 H 273.641 -3.77536 0.868631 0
M  V30 2934 H 274.055 -4.28657 3.02248 0
M  V30 2935 H 275.529 -5.27485 1.62675 0
M  V30 2936 H 276.006 -4.38828 0.18065 0
M  V30 2937 H 276.612 -3.86735 1.76964 0
M  V30 2938 N 274.927 -0.932562 -1.27047 0
M  V30 2939 C 275.857 -0.452902 -2.29066 0
M  V30 2940 C 276.838 0.489338 -1.62909 0
M  V30 2941 O 278.023 0.393046 -1.90181 0
M  V30 2942 C 275.153 0.290698 -3.46081 0
M  V30 2943 C 274.107 -0.564168 -4.24265 0
M  V30 2944 C 273.433 0.308886 -5.33807 0
M  V30 2945 C 274.733 -1.83112 -4.89149 0
M  V30 2946 H 276.427 -1.30552 -2.69437 0
M  V30 2947 H 273.973 -0.629201 -1.29526 0
M  V30 2948 H 275.926 0.637233 -4.16554 0
M  V30 2949 H 274.65 1.17738 -3.0464 0
M  V30 2950 H 273.309 -0.893477 -3.55545 0
M  V30 2951 H 272.957 1.19467 -4.88607 0
M  V30 2952 H 272.657 -0.259633 -5.87026 0
M  V30 2953 H 274.181 0.650884 -6.07121 0
M  V30 2954 H 275.595 -1.55236 -5.51883 0
M  V30 2955 H 273.992 -2.34353 -5.52448 0
M  V30 2956 H 275.062 -2.54772 -4.12576 0
M  V30 2957 N 276.405 1.4127 -0.698611 0
M  V30 2958 C 277.651 2.01478 -0.231207 0
M  V30 2959 C 277.984 1.55215 1.16713 0
M  V30 2960 O 277.259 0.764672 1.78838 0
M  V30 2961 C 277.542 3.58912 -0.292281 0
M  V30 2962 C 277.395 4.15293 -1.72778 0
M  V30 2963 C 278.714 4.38736 0.346194 0
M  V30 2964 H 275.833 0.732025 -0.0854878 0
M  V30 2965 H 278.475 1.67977 -0.887906 0
M  V30 2966 H 276.625 3.87582 0.26686 0
M  V30 2967 H 278.297 3.97486 -2.341 0
M  V30 2968 H 276.54 3.7022 -2.26096 0
M  V30 2969 H 277.211 5.24452 -1.72202 0
M  V30 2970 H 279.687 4.15897 -0.130035 0
M  V30 2971 H 278.563 5.48221 0.272932 0
M  V30 2972 H 278.824 4.18425 1.42734 0
M  V30 2973 N 277.883 0.443576 1.51229 0
M  V30 2974 C 279.16 -0.181038 1.9476 0
M  V30 2975 C 279.54 -1.59523 1.38259 0
M  V30 2976 O 278.888 -2.2122 0.572198 0
M  V30 2977 C 279.098 -0.152422 3.48667 0
M  V30 2978 C 280.446 -0.354923 4.23114 0
M  V30 2979 O 281.47 -0.230257 3.55455 0
M  V30 2980 O 280.329 -0.603674 5.43156 0
M  V30 2981 H 277.423 -0.1266 0.817252 0
M  V30 2982 H 279.969 0.502004 1.62105 0
M  V30 2983 H 278.741 0.836022 3.82265 0
M  V30 2984 H 278.364 -0.878107 3.87782 0
M  V30 2985 N 279.361 -1.56624 0.175154 0
M  V30 2986 C 280.294 -2.14 -0.792412 0
M  V30 2987 C 281.272 -1.07114 -1.22333 0
M  V30 2988 O 282.456 -1.35112 -1.31442 0
M  V30 2989 C 279.583 -2.68268 -2.0676 0
M  V30 2990 C 278.629 -3.87562 -1.7804 0
M  V30 2991 S 279.462 -5.27074 -0.946222 0
M  V30 2992 C 280.618 -5.8475 -2.23199 0
M  V30 2993 H 280.851 -2.95736 -0.304588 0
M  V30 2994 H 278.384 -1.54349 -0.0395705 0
M  V30 2995 H 280.342 -3.00182 -2.80002 0
M  V30 2996 H 279.003 -1.86612 -2.52656 0
M  V30 2997 H 278.196 -4.23874 -2.72666 0
M  V30 2998 H 277.798 -3.56555 -1.12891 0
M  V30 2999 H 280.09 -5.97898 -3.18629 0
M  V30 3000 H 281.033 -6.81756 -1.91349 0
M  V30 3001 H 281.441 -5.13198 -2.35134 0
M  V30 3002 N 280.839 0.0985539 -1.57292 0
M  V30 3003 C 281.786 1.11981 -2.01814 0
M  V30 3004 C 282.756 1.39999 -0.89384 0
M  V30 3005 O 283.941 1.5152 -1.15958 0
M  V30 3006 C 281.081 2.43577 -2.44467 0
M  V30 3007 C 280.194 2.2232 -3.70402 0
M  V30 3008 C 279.329 3.4729 -4.01949 0
M  V30 3009 C 278.368 3.2128 -5.21005 0
M  V30 3010 N 277.505 4.38507 -5.48321 0
M  V30 3011 H 282.345 0.733149 -2.88841 0
M  V30 3012 H 279.882 0.350482 -1.42864 0
M  V30 3013 H 281.84 3.20373 -2.6724 0
M  V30 3014 H 280.47 2.80097 -1.60455 0
M  V30 3015 H 279.522 1.36343 -3.55126 0
M  V30 3016 H 280.834 1.99089 -4.57345 0
M  V30 3017 H 279.988 4.32495 -4.25479 0
M  V30 3018 H 278.727 3.73572 -3.13521 0
M  V30 3019 H 277.732 2.34468 -4.97298 0
M  V30 3020 H 278.957 2.96348 -6.11028 0
M  V30 3021 H 276.903 4.64871 -4.62851 0
M  V30 3022 H 276.82 4.18455 -6.29628 0
M  V30 3023 H 278.088 5.24787 -5.76385 0
M  V30 3024 N 282.317 1.53212 0.369288 0
M  V30 3025 C 283.566 1.68436 1.10961 0
M  V30 3026 C 283.879 0.440738 1.9057 0
M  V30 3027 O 285.085 0.473446 2.6734 0
M  V30 3028 C 283.541 2.97744 2.0218 0
M  V30 3029 C 283.149 4.29355 1.279 0
M  V30 3030 C 284.893 3.22334 2.76226 0
M  V30 3031 C 282.8 5.49755 2.17999 0
M  V30 3032 H 281.73 0.627568 0.41794 0
M  V30 3033 H 284.381 1.79713 0.370884 0
M  V30 3034 H 282.763 2.8026 2.79768 0
M  V30 3035 H 283.937 4.57458 0.554007 0
M  V30 3036 H 282.252 4.11179 0.657311 0
M  V30 3037 H 284.849 4.09471 3.43857 0
M  V30 3038 H 285.192 2.38238 3.41392 0
M  V30 3039 H 285.725 3.40475 2.05723 0
M  V30 3040 H 282.464 6.36318 1.57417 0
M  V30 3041 H 281.984 5.25937 2.88359 0
M  V30 3042 H 283.663 5.84401 2.77641 0
M  V30 3043 N 283.795 -0.628877 1.44509 0
M  V30 3044 C 284.705 -1.7694 1.54044 0
M  V30 3045 C 285.721 -1.68705 0.425987 0
M  V30 3046 O 286.897 -1.89442 0.683656 0
M  V30 3047 C 283.962 -3.13332 1.48405 0
M  V30 3048 C 283.023 -3.33181 2.70719 0
M  V30 3049 C 282.256 -4.63067 2.6534 0
M  V30 3050 O 282.479 -5.44017 1.71469 0
M  V30 3051 O 281.413 -4.85167 3.56226 0
M  V30 3052 H 285.239 -1.71848 2.50403 0
M  V30 3053 H 282.824 -0.790378 1.26781 0
M  V30 3054 H 284.706 -3.94634 1.47791 0
M  V30 3055 H 283.381 -3.1896 0.551898 0
M  V30 3056 H 282.288 -2.51549 2.769 0
M  V30 3057 H 283.621 -3.32416 3.62988 0
M  V30 3058 N 285.273 -1.31445 -0.869486 0
M  V30 3059 C 286.52 -1.21158 -1.62256 0
M  V30 3060 C 286.848 0.230155 -1.93133 0
M  V30 3061 O 286.103 1.17906 -1.56194 0
M  V30 3062 C 286.402 -2.00145 -2.96102 0
M  V30 3063 C 286.068 -3.4964 -2.84715 0
M  V30 3064 C 284.73 -3.90403 -2.81317 0
M  V30 3065 C 287.082 -4.44769 -2.71716 0
M  V30 3066 C 284.41 -5.24561 -2.62778 0
M  V30 3067 C 286.762 -5.79054 -2.54714 0
M  V30 3068 C 285.426 -6.19037 -2.49699 0
M  V30 3069 H 284.696 -0.443348 -0.593737 0
M  V30 3070 H 287.343 -1.62715 -1.00976 0
M  V30 3071 H 285.648 -1.5127 -3.6142 0
M  V30 3072 H 287.345 -1.89566 -3.53363 0
M  V30 3073 H 283.935 -3.17256 -2.88178 0
M  V30 3074 H 288.119 -4.14208 -2.73397 0
M  V30 3075 H 283.375 -5.54613 -2.57321 0
M  V30 3076 H 287.549 -6.52393 -2.43632 0
M  V30 3077 H 285.176 -7.22935 -2.35093 0
M  V30 3078 N 286.751 1.08385 -1.14413 0
M  V30 3079 C 287.999 1.80419 -0.910679 0
M  V30 3080 C 288.32 1.86658 0.564243 0
M  V30 3081 O 287.59 1.35985 1.41014 0
M  V30 3082 H 286.17 0.668204 -0.333934 0
M  V30 3083 H 288.832 1.31037 -1.44275 0
M  V30 3084 H 287.928 2.83238 -1.31082 0
M  V30 3085 N 288.23 0.939286 1.26551 0
M  V30 3086 C 289.476 0.586715 1.94128 0
M  V30 3087 C 289.809 -0.8717 1.73537 0
M  V30 3088 O 289.084 -1.62339 1.07127 0
M  V30 3089 C 289.367 0.927497 3.4795 0
M  V30 3090 C 289.22 2.44052 3.77834 0
M  V30 3091 C 290.539 0.441569 4.37879 0
M  V30 3092 H 287.658 0.21463 0.705055 0
M  V30 3093 H 290.3 1.17316 1.49455 0
M  V30 3094 H 288.45 0.428431 3.8613 0
M  V30 3095 H 290.122 3.01216 3.4938 0
M  V30 3096 H 288.365 2.8848 3.23978 0
M  V30 3097 H 289.036 2.62947 4.85348 0
M  V30 3098 H 291.512 0.869448 4.06915 0
M  V30 3099 H 290.388 0.708856 5.44304 0
M  V30 3100 H 290.649 -0.658467 4.37169 0
M  V30 3101 N 289.708 -1.40897 0.706093 0
M  V30 3102 C 290.985 -1.94868 0.169099 0
M  V30 3103 C 291.365 -1.64485 -1.32318 0
M  V30 3104 O 290.713 -0.95744 -2.07474 0
M  V30 3105 C 290.923 -3.45798 0.471654 0
M  V30 3106 C 292.271 -4.22663 0.405127 0
M  V30 3107 O 293.295 -3.53865 0.407168 0
M  V30 3108 O 292.154 -5.45216 0.374383 0
M  V30 3109 H 289.248 -0.82673 0.0211352 0
M  V30 3110 H 291.794 -1.50558 0.782976 0
M  V30 3111 H 290.566 -3.61235 1.50416 0
M  V30 3112 H 290.189 -3.97225 -0.172666 0
M  V30 3113 N 291.186 -0.45159 -1.50991 0
M  V30 3114 C 292.432 0.110237 -2.025 0
M  V30 3115 C 292.765 1.41109 -1.33424 0
M  V30 3116 O 292.04 1.89135 -0.453659 0
M  V30 3117 C 292.323 0.314271 -3.58726 0
M  V30 3118 C 292.176 -1.00623 -4.38401 0
M  V30 3119 C 293.495 1.07767 -4.26702 0
M  V30 3120 H 290.614 0.0385897 -0.735989 0
M  V30 3121 H 293.256 -0.593374 -1.80497 0
M  V30 3122 H 291.406 0.913601 -3.77605 0
M  V30 3123 H 293.078 -1.64064 -4.31139 0
M  V30 3124 H 291.321 -1.6075 -4.02917 0
M  V30 3125 H 291.992 -0.817341 -5.45915 0
M  V30 3126 H 294.468 0.56986 -4.12179 0
M  V30 3127 H 293.344 1.18921 -5.35863 0
M  V30 3128 H 293.605 2.10939 -3.88532 0
M  V30 3129 N 292.664 1.56529 -0.183458 0
M  V30 3130 C 293.892 2.01623 0.464285 0
M  V30 3131 C 294.307 1.06366 1.55986 0
M  V30 3132 O 293.664 0.0665398 1.82379 0
M  V30 3133 C 293.715 3.46475 1.03139 0
M  V30 3134 O 293.436 4.38095 -0.0204675 0
M  V30 3135 C 294.937 4.0703 1.75617 0
M  V30 3136 H 292.157 0.660596 0.117704 0
M  V30 3137 H 294.701 2.02451 -0.288751 0
M  V30 3138 H 292.856 3.46383 1.73486 0
M  V30 3139 H 293.27 5.22973 0.399952 0
M  V30 3140 H 294.744 5.10271 2.10542 0
M  V30 3141 H 295.221 3.49819 2.65563 0
M  V30 3142 H 295.827 4.1086 1.09882 0
M  V30 3143 N 294.142 -0.090211 1.57342 0
M  V30 3144 C 295.37 -0.806224 1.90546 0
M  V30 3145 C 295.785 -1.72041 0.777644 0
M  V30 3146 O 295.142 -1.80778 -0.250103 0
M  V30 3147 C 295.193 -1.61546 3.23396 0
M  V30 3148 O 294.914 -0.738043 4.31839 0
M  V30 3149 C 296.415 -2.4341 3.70495 0
M  V30 3150 H 293.635 -0.230256 0.630257 0
M  V30 3151 H 296.179 -0.0659843 2.04394 0
M  V30 3152 H 294.334 -2.30816 3.11131 0
M  V30 3153 H 294.748 -1.29901 5.08159 0
M  V30 3154 H 296.222 -2.95676 4.66133 0
M  V30 3155 H 296.699 -3.22098 2.98579 0
M  V30 3156 H 297.305 -1.79331 3.85643 0
M  V30 3157 N 295.62 -1.53406 -0.361157 0
M  V30 3158 C 296.567 -1.80156 -1.44265 0
M  V30 3159 C 297.537 -0.646183 -1.53015 0
M  V30 3160 O 298.722 -0.888818 -1.68833 0
M  V30 3161 C 295.862 -2.00116 -2.81154 0
M  V30 3162 C 294.975 -3.27833 -2.81335 0
M  V30 3163 C 294.11 -3.37957 -4.09828 0
M  V30 3164 C 293.149 -4.59689 -4.04168 0
M  V30 3165 N 292.286 -4.66942 -5.24318 0
M  V30 3166 H 297.126 -2.72438 -1.20754 0
M  V30 3167 H 294.663 -1.34954 -0.585296 0
M  V30 3168 H 296.621 -2.09677 -3.60682 0
M  V30 3169 H 295.251 -1.11167 -3.03054 0
M  V30 3170 H 294.303 -3.27204 -1.94014 0
M  V30 3171 H 295.615 -4.17442 -2.73027 0
M  V30 3172 H 294.769 -3.46853 -4.97773 0
M  V30 3173 H 293.508 -2.46372 -4.20894 0
M  V30 3174 H 292.513 -4.50889 -3.14609 0
M  V30 3175 H 293.738 -5.5262 -3.947 0
M  V30 3176 H 291.684 -3.7826 -5.35962 0
M  V30 3177 H 291.601 -5.50462 -5.18197 0
M  V30 3178 H 292.869 -4.80127 -6.14084 0
M  V30 3179 N 297.098 0.621204 -1.44841 0
M  V30 3180 C 298.008 1.7612 -1.5498 0
M  V30 3181 C 299.024 1.68477 -0.434927 0
M  V30 3182 O 300.2 1.89076 -0.693693 0
M  V30 3183 C 297.265 3.1254 -1.50065 0
M  V30 3184 C 296.326 3.31741 -2.72482 0
M  V30 3185 C 295.559 4.61653 -2.67792 0
M  V30 3186 O 295.782 5.431 -1.74352 0
M  V30 3187 O 294.716 4.83271 -3.58794 0
M  V30 3188 H 298.542 1.70518 -2.51311 0
M  V30 3189 H 296.127 0.783643 -1.27198 0
M  V30 3190 H 298.009 3.93844 -1.49882 0
M  V30 3191 H 296.684 3.18663 -0.568806 0
M  V30 3192 H 295.591 2.50077 -2.7823 0
M  V30 3193 H 296.924 3.30486 -3.64746 0
M  V30 3194 N 298.576 1.31904 0.862503 0
M  V30 3195 C 299.825 1.21373 1.61094 0
M  V30 3196 C 300.138 -0.22504 1.94301 0
M  V30 3197 O 301.344 -0.452121 2.67709 0
M  V30 3198 C 299.8 2.12525 2.9045 0
M  V30 3199 C 299.408 3.61441 2.64697 0
M  V30 3200 C 301.152 2.10813 3.68454 0
M  V30 3201 C 299.059 4.44578 3.90006 0
M  V30 3202 H 297.989 0.450705 0.604468 0
M  V30 3203 H 300.64 1.56811 0.953027 0
M  V30 3204 H 299.022 1.69994 3.57656 0
M  V30 3205 H 300.196 4.12264 2.05851 0
M  V30 3206 H 298.511 3.65205 2.00036 0
M  V30 3207 H 301.108 2.70167 4.61426 0
M  V30 3208 H 301.451 1.09713 4.01583 0
M  V30 3209 H 301.984 2.51583 3.08141 0
M  V30 3210 H 298.723 5.46461 3.62023 0
M  V30 3211 H 298.243 3.98508 4.48276 0
M  V30 3212 H 299.922 4.57176 4.5782 0
M  V30 3213 N 300.054 -1.07777 1.14986 0
M  V30 3214 C 301.3 -1.80557 0.923422 0
M  V30 3215 C 301.633 -1.86298 -0.548337 0
M  V30 3216 O 300.908 -1.34354 -1.40639 0
M  V30 3217 C 301.191 -3.25839 1.53299 0
M  V30 3218 C 301.044 -3.28269 3.07505 0
M  V30 3219 C 302.363 -4.22991 1.21518 0
M  V30 3220 H 299.482 -0.655493 0.336894 0
M  V30 3221 H 302.124 -1.26144 1.42083 0
M  V30 3222 H 300.274 -3.72306 1.10999 0
M  V30 3223 H 301.946 -2.90079 3.58681 0
M  V30 3224 H 300.189 -2.67355 3.4162 0
M  V30 3225 H 300.86 -4.30691 3.45266 0
M  V30 3226 H 303.336 -3.84894 1.581 0
M  V30 3227 H 302.212 -5.22945 1.66793 0
M  V30 3228 H 302.473 -4.41904 0.131505 0
M  V30 3229 N 301.532 -0.945985 -1.26051 0
M  V30 3230 C 302.462 -0.477172 -2.28572 0
M  V30 3231 C 303.443 0.472032 -1.63419 0
M  V30 3232 O 304.628 0.372853 -1.90587 0
M  V30 3233 C 301.758 0.253975 -3.4637 0
M  V30 3234 C 300.712 -0.609135 -4.23643 0
M  V30 3235 C 300.038 0.252252 -5.34105 0
M  V30 3236 C 301.338 -1.8829 -4.8718 0
M  V30 3237 H 303.032 -1.33402 -2.68038 0
M  V30 3238 H 300.578 -0.642904 -1.28852 0
M  V30 3239 H 302.531 0.593016 -4.17207 0
M  V30 3240 H 301.255 1.145 -3.05871 0
M  V30 3241 H 299.914 -0.931138 -3.54578 0
M  V30 3242 H 299.562 1.14278 -4.89846 0
M  V30 3243 H 299.262 -0.32188 -5.86718 0
M  V30 3244 H 300.786 0.586454 -6.07777 0
M  V30 3245 H 302.2 -1.61081 -5.50205 0
M  V30 3246 H 300.597 -2.40199 -5.49931 0
M  V30 3247 H 301.667 -2.59134 -4.09851 0
M  V30 3248 N 303.011 1.40521 -0.713556 0
M  V30 3249 C 303.974 2.29098 -0.0684347 0
M  V30 3250 C 304.974 1.45268 0.689472 0
M  V30 3251 O 306.164 1.66205 0.521677 0
M  V30 3252 C 303.296 3.28446 0.913024 0
M  V30 3253 H 304.489 2.87645 -0.84855 0
M  V30 3254 H 302.042 1.48809 -0.47809 0
M  V30 3255 H 302.777 2.74913 1.72027 0
M  V30 3256 H 302.562 3.90327 0.372472 0
M  V30 3257 H 304.052 3.94777 1.36165 0
M  V30 3258 N 304.489 0.459591 1.5075 0
M  V30 3259 C 305.766 -0.160371 1.94941 0
M  V30 3260 C 306.146 -1.58048 1.39943 0
M  V30 3261 O 305.494 -2.206 0.595629 0
M  V30 3262 C 305.704 -0.115432 3.48809 0
M  V30 3263 C 307.052 -0.310026 4.23467 0
M  V30 3264 O 308.076 -0.192543 3.55679 0
M  V30 3265 O 306.935 -0.546031 5.43765 0
M  V30 3266 H 304.029 -0.117925 0.818549 0
M  V30 3267 H 306.575 0.519169 1.61563 0
M  V30 3268 H 305.347 0.87652 3.81357 0
M  V30 3269 H 304.97 -0.836928 3.88692 0
M  V30 3270 N 305.967 -1.56429 0.191757 0
M  V30 3271 C 307.213 -1.97777 -0.448554 0
M  V30 3272 C 307.546 -1.07847 -1.61501 0
M  V30 3273 O 306.821 -0.129774 -1.94067 0
M  V30 3274 C 307.104 -3.48362 -0.911906 0
M  V30 3275 C 306.957 -4.4907 0.256136 0
M  V30 3276 C 308.276 -4.02561 -1.77857 0
M  V30 3277 H 305.395 -0.719071 -0.161572 0
M  V30 3278 H 308.037 -1.87896 0.282007 0
M  V30 3279 H 306.187 -3.56914 -1.53442 0
M  V30 3280 H 307.859 -4.5256 0.893733 0
M  V30 3281 H 306.102 -4.24181 0.908436 0
M  V30 3282 H 306.773 -5.51889 -0.11053 0
M  V30 3283 H 309.249 -3.96767 -1.25359 0
M  V30 3284 H 308.125 -5.08301 -2.07174 0
M  V30 3285 H 308.386 -3.47616 -2.73158 0
M  V30 3286 N 307.445 0.0818655 -1.57387 0
M  V30 3287 C 308.694 0.781681 -1.85937 0
M  V30 3288 C 309.007 1.79246 -0.782957 0
M  V30 3289 O 310.213 2.54112 -0.955987 0
M  V30 3290 C 308.669 1.44109 -3.29789 0
M  V30 3291 C 308.277 0.469396 -4.45534 0
M  V30 3292 C 310.021 2.12386 -3.67549 0
M  V30 3293 C 307.928 1.13415 -5.80423 0
M  V30 3294 H 306.858 0.295682 -0.693605 0
M  V30 3295 H 309.509 0.0348051 -1.83467 0
M  V30 3296 H 307.891 2.23588 -3.2684 0
M  V30 3297 H 309.065 -0.294856 -4.59856 0
M  V30 3298 H 307.38 -0.108383 -4.16259 0
M  V30 3299 H 309.977 2.62878 -4.65617 0
M  V30 3300 H 310.32 2.91877 -2.96839 0
M  V30 3301 H 310.853 1.39751 -3.72444 0
M  V30 3302 H 307.592 0.379771 -6.54399 0
M  V30 3303 H 307.112 1.8695 -5.69921 0
M  V30 3304 H 308.791 1.65686 -6.25426 0
M  V30 3305 N 308.923 1.53595 0.353017 0
M  V30 3306 C 310.2 1.61002 1.11075 0
M  V30 3307 C 310.58 0.425356 2.0677 0
M  V30 3308 O 309.928 -0.583267 2.2093 0
M  V30 3309 C 310.138 2.96631 1.83877 0
M  V30 3310 C 311.486 3.51653 2.37961 0
M  V30 3311 O 312.51 2.98743 1.93987 0
M  V30 3312 O 311.369 4.44177 3.18386 0
M  V30 3313 H 308.463 0.650825 0.510251 0
M  V30 3314 H 311.009 1.6594 0.35527 0
M  V30 3315 H 309.781 3.74293 1.14108 0
M  V30 3316 H 309.404 2.95242 2.66304 0
M  V30 3317 N 310.401 -0.613514 1.45168 0
M  V30 3318 C 311.349 -1.74572 1.53712 0
M  V30 3319 C 312.343 -1.64426 0.407505 0
M  V30 3320 O 313.549 -1.70291 0.583176 0
M  V30 3321 H 309.924 -0.576641 0.48269 0
M  V30 3322 H 311.895 -1.64492 2.48968 0
M  V30 3323 C 310.644 -3.12943 1.51532 0
M  V30 3324 H 309.967 -3.21407 2.37776 0
M  V30 3325 H 311.407 -3.9201 1.61569 0
M  V30 3326 C 309.866 -3.36053 0.238798 0
M  V30 3327 O 310.396 -3.95837 -0.6838 0
M  V30 3328 N 308.602 -2.9028 0.136359 0
M  V30 3329 H 308.149 -2.41811 0.887999 0
M  V30 3330 H 308.107 -3.06116 -0.716944 0
M  V30 3331 N 311.879 -1.3236 -0.855495 0
M  V30 3332 C 313.156 -1.13491 -1.59309 0
M  V30 3333 C 313.536 0.30503 -2.08885 0
M  V30 3334 O 312.884 1.30151 -1.87811 0
M  V30 3335 C 313.094 -2.16176 -2.73987 0
M  V30 3336 C 314.442 -2.49463 -3.43589 0
M  V30 3337 O 315.466 -2.14715 -2.84211 0
M  V30 3338 O 314.325 -3.09027 -4.50738 0
M  V30 3339 H 311.419 -0.437887 -0.701559 0
M  V30 3340 H 313.965 -1.43887 -0.899696 0
M  V30 3341 H 312.737 -3.1297 -2.34873 0
M  V30 3342 H 312.36 -1.86769 -3.51003 0
M  V30 3343 N 313.357 1.07166 -1.15556 0
M  V30 3344 C 314.582 1.84053 -0.955988 0
M  V30 3345 C 315.007 1.81586 0.490739 0
M  V30 3346 O 314.365 1.21018 1.34997 0
M  V30 3347 C 314.413 3.28957 -1.47714 0
M  V30 3348 O 313.517 4.06795 -0.677593 0
M  V30 3349 H 312.858 0.569842 -0.340847 0
M  V30 3350 H 315.388 1.35178 -1.53584 0
M  V30 3351 H 315.398 3.79788 -1.4908 0
M  V30 3352 H 314.073 3.30068 -2.53037 0
M  V30 3353 H 312.65 3.6561 -0.733721 0
M  V30 3354 N 314.835 0.952656 1.25548 0
M  V30 3355 C 316.081 0.616826 1.93822 0
M  V30 3356 C 316.436 -0.836684 1.73255 0
M  V30 3357 O 315.729 -1.59218 1.06584 0
M  V30 3358 C 315.923 0.908818 3.45652 0
M  V30 3359 C 315.752 2.38916 3.80984 0
M  V30 3360 C 314.522 3.04637 4.03143 0
M  V30 3361 C 316.72 3.36838 3.88645 0
M  V30 3362 N 314.702 4.42565 4.25453 0
M  V30 3363 C 316.073 4.60065 4.1562 0
M  V30 3364 C 318.128 3.31704 3.71318 0
M  V30 3365 C 316.831 5.78795 4.2707 0
M  V30 3366 C 318.857 4.4977 3.84006 0
M  V30 3367 C 318.219 5.71783 4.11392 0
M  V30 3368 H 314.318 0.27629 0.731565 0
M  V30 3369 H 316.902 1.22443 1.5138 0
M  V30 3370 H 315.073 0.330166 3.86994 0
M  V30 3371 H 316.805 0.533093 4.01174 0
M  V30 3372 H 313.56 2.55215 3.98952 0
M  V30 3373 H 313.984 5.1399 4.40617 0
M  V30 3374 H 318.626 2.3842 3.49164 0
M  V30 3375 H 316.344 6.72521 4.48041 0
M  V30 3376 H 319.93 4.47342 3.71989 0
M  V30 3377 H 318.81 6.61617 4.2099 0
M  V30 3378 N 316.313 -1.40141 0.720998 0
M  V30 3379 C 317.729 -1.54632 0.395113 0
M  V30 3380 C 317.929 -1.69115 -1.09555 0
M  V30 3381 O 316.985 -1.68377 -1.88163 0
M  V30 3382 C 318.298 -2.77177 1.1659 0
M  V30 3383 C 319.846 -2.91 1.15274 0
M  V30 3384 C 320.321 -4.16465 1.90579 0
M  V30 3385 N 321.812 -4.23476 1.87675 0
M  V30 3386 C 322.547 -5.19475 2.42762 0
M  V30 3387 N 322.043 -6.21348 3.06428 0
M  V30 3388 N 323.836 -5.11592 2.32874 0
M  V30 3389 H 315.987 -1.28986 1.68749 0
M  V30 3390 H 318.25 -0.62412 0.713567 0
M  V30 3391 H 317.956 -2.72771 2.22011 0
M  V30 3392 H 317.83 -3.69442 0.76108 0
M  V30 3393 H 320.217 -2.94907 0.106702 0
M  V30 3394 H 320.298 -1.99838 1.59682 0
M  V30 3395 H 319.942 -4.1332 2.95176 0
M  V30 3396 H 319.872 -5.06646 1.43587 0
M  V30 3397 H 322.363 -3.50497 1.41281 0
M  V30 3398 H 322.676 -6.91034 3.45965 0
M  V30 3399 H 321.021 -6.21777 3.10514 0
M  V30 3400 H 324.212 -4.30936 1.82789 0
M  V30 3401 H 324.385 -5.86233 2.76106 0
M  V30 3402 N 317.792 -0.46758 -1.50504 0
M  V30 3403 C 318.722 0.318381 -2.31319 0
M  V30 3404 C 319.703 0.993564 -1.38066 0
M  V30 3405 O 320.888 0.991411 -1.66987 0
M  V30 3406 C 318.018 1.40275 -3.17711 0
M  V30 3407 C 316.972 0.849373 -4.19487 0
M  V30 3408 C 316.298 2.03177 -4.94594 0
M  V30 3409 C 317.598 -0.136942 -5.2212 0
M  V30 3410 H 319.292 -0.356106 -2.97275 0
M  V30 3411 H 316.838 -0.172703 -1.42961 0
M  V30 3412 H 318.791 1.96004 -3.73042 0
M  V30 3413 H 317.515 2.10596 -2.49634 0
M  V30 3414 H 316.174 0.314076 -3.65252 0
M  V30 3415 H 315.822 2.72187 -4.22993 0
M  V30 3416 H 315.522 1.66774 -5.63436 0
M  V30 3417 H 317.046 2.59403 -5.52759 0
M  V30 3418 H 318.46 0.331056 -5.72343 0
M  V30 3419 H 316.857 -0.41507 -5.98663 0
M  V30 3420 H 317.927 -1.06398 -4.73083 0
M  V30 3421 N 319.27 1.56325 -0.20005 0
M  V30 3422 C 320.516 1.98772 0.431408 0
M  V30 3423 C 320.871 1.0849 1.58895 0
M  V30 3424 O 320.164 0.130331 1.91156 0
M  V30 3425 C 320.358 3.4495 0.935103 0
M  V30 3426 C 320.187 4.49371 -0.172096 0
M  V30 3427 C 318.957 5.0134 -0.631377 0
M  V30 3428 C 321.155 5.04822 -0.982806 0
M  V30 3429 N 319.137 5.89433 -1.71588 0
M  V30 3430 C 320.508 5.89632 -1.91661 0
M  V30 3431 C 322.563 4.87242 -1.02467 0
M  V30 3432 C 321.266 6.58741 -2.88881 0
M  V30 3433 C 323.292 5.57094 -1.98494 0
M  V30 3434 C 322.654 6.41655 -2.90617 0
M  V30 3435 H 318.753 0.771922 0.125144 0
M  V30 3436 H 321.337 1.92266 -0.306883 0
M  V30 3437 H 319.508 3.51946 1.64282 0
M  V30 3438 H 321.24 3.74354 1.53758 0
M  V30 3439 H 317.995 4.73071 -0.223827 0
M  V30 3440 H 318.419 6.38182 -2.25948 0
M  V30 3441 H 323.061 4.21538 -0.326408 0
M  V30 3442 H 320.779 7.23641 -3.5968 0
M  V30 3443 H 324.365 5.45466 -2.0238 0
M  V30 3444 H 323.245 6.94755 -3.63711 0
M  V30 3445 N 320.748 -0.0735177 1.57428 0
M  V30 3446 C 322.159 -0.625551 1.75908 0
M  V30 3447 C 322.51 -1.78 0.825261 0
M  V30 3448 O 321.635 -2.16398 0.00893964 0
M  V30 3449 C 322.23 -1.14155 3.18989 0
M  V30 3450 C 320.789 -1.63946 3.38819 0
M  V30 3451 C 319.936 -0.558151 2.71625 0
M  V30 3452 H 322.887 0.152647 1.57964 0
M  V30 3453 H 322.908 -2.0104 3.23053 0
M  V30 3454 H 322.42 -0.301116 3.8693 0
M  V30 3455 H 320.521 -2.50321 2.7599 0
M  V30 3456 H 320.634 -1.71759 4.47253 0
M  V30 3457 H 318.998 -1.00278 2.34129 0
M  V30 3458 H 319.781 0.272071 3.4222 0
M  V30 3459 N 322.226 -1.5378 -0.344866 0
M  V30 3460 C 323.451 -1.75211 -1.10977 0
M  V30 3461 C 323.876 -0.48936 -1.81623 0
M  V30 3462 O 323.234 0.557925 -1.72502 0
M  V30 3463 C 323.282 -2.93147 -2.09993 0
M  V30 3464 O 322.386 -2.63203 -3.17487 0
M  V30 3465 H 321.727 -0.581241 -0.321021 0
M  V30 3466 H 324.257 -2.00738 -0.395661 0
M  V30 3467 H 324.267 -3.19898 -2.53237 0
M  V30 3468 H 322.942 -3.84731 -1.5797 0
M  V30 3469 H 321.519 -2.47336 -2.79069 0
M  V30 3470 N 323.704 0.605807 -1.45491 0
M  V30 3471 C 324.952 1.36207 -1.49305 0
M  V30 3472 C 325.273 1.94519 -0.136863 0
M  V30 3473 O 324.543 1.77261 0.833983 0
M  V30 3474 H 323.123 0.50565 -0.549843 0
M  V30 3475 H 325.785 0.711239 -1.81459 0
M  V30 3476 H 324.881 2.18058 -2.23287 0
M  V30 3477 N 325.182 1.32811 0.848464 0
M  V30 3478 C 326.459 1.14334 1.58704 0
M  V30 3479 C 326.839 -0.293948 2.09043 0
M  V30 3480 O 326.187 -1.29153 1.88499 0
M  V30 3481 C 326.397 2.17626 2.72837 0
M  V30 3482 C 327.745 2.51282 3.42261 0
M  V30 3483 O 328.769 2.16219 2.83068 0
M  V30 3484 O 327.628 3.11413 4.49093 0
M  V30 3485 H 324.722 0.441601 0.699226 0
M  V30 3486 H 327.268 1.44362 0.892053 0
M  V30 3487 H 326.04 3.14211 2.3321 0
M  V30 3488 H 325.663 1.88628 3.50008 0
M  V30 3489 N 326.66 -1.06551 1.16123 0
M  V30 3490 C 328.076 -1.3142 0.905585 0
M  V30 3491 C 328.276 -1.96571 -0.442964 0
M  V30 3492 O 327.332 -2.23068 -1.18308 0
M  V30 3493 C 328.645 -2.19741 2.05267 0
M  V30 3494 C 330.193 -2.33165 2.08813 0
M  V30 3495 C 330.668 -3.24838 3.22868 0
M  V30 3496 N 332.159 -3.32421 3.22568 0
M  V30 3497 C 332.894 -4.0344 4.0746 0
M  V30 3498 N 332.39 -4.77003 5.02434 0
M  V30 3499 N 334.183 -3.99464 3.95456 0
M  V30 3500 H 326.334 -0.626548 2.02949 0
M  V30 3501 H 328.597 -0.338777 0.8854 0
M  V30 3502 H 328.303 -1.79142 3.02657 0
M  V30 3503 H 328.177 -3.20313 1.99198 0
M  V30 3504 H 330.564 -2.73013 1.12018 0
M  V30 3505 H 330.645 -1.3227 2.18948 0
M  V30 3506 H 330.289 -2.85708 4.19921 0
M  V30 3507 H 330.219 -4.25707 3.0997 0
M  V30 3508 H 332.71 -2.79994 2.53795 0
M  V30 3509 H 333.023 -5.28712 5.63634 0
M  V30 3510 H 331.368 -4.75992 5.06415 0
M  V30 3511 H 334.559 -3.4111 3.20564 0
M  V30 3512 H 334.732 -4.54544 4.61837 0
M  V30 3513 N 328.138 -0.959301 -1.25041 0
M  V30 3514 C 329.363 -0.633507 -1.97488 0
M  V30 3515 C 329.788 0.788555 -1.70773 0
M  V30 3516 O 329.146 1.53394 -0.966431 0
M  V30 3517 C 329.194 -0.904057 -3.49083 0
M  V30 3518 O 328.298 0.0147939 -4.12397 0
M  V30 3519 H 327.639 -0.240368 -0.618966 0
M  V30 3520 H 330.169 -1.28717 -1.59038 0
M  V30 3521 H 330.179 -0.832203 -3.99423 0
M  V30 3522 H 328.854 -1.94048 -3.67856 0
M  V30 3523 H 327.431 -0.109664 -3.72739 0
M  V30 3524 N 329.616 1.39756 -0.72842 0
M  V30 3525 C 330.548 2.29157 -0.0446202 0
M  V30 3526 C 331.561 1.46484 0.710367 0
M  V30 3527 O 332.75 1.69632 0.55562 0
M  V30 3528 C 329.85 3.24987 0.961071 0
M  V30 3529 C 329.023 4.36572 0.268967 0
M  V30 3530 C 328.082 5.12756 1.18184 0
M  V30 3531 O 327.108 5.6534 0.661794 0
M  V30 3532 N 328.31 5.23331 2.51206 0
M  V30 3533 H 331.075 2.88482 -0.812295 0
M  V30 3534 H 328.636 1.51265 -0.577098 0
M  V30 3535 H 330.628 3.72827 1.57423 0
M  V30 3536 H 329.198 2.66739 1.63 0
M  V30 3537 H 328.418 3.90694 -0.524574 0
M  V30 3538 H 329.706 5.08363 -0.210934 0
M  V30 3539 H 329.104 4.82116 2.9594 0
M  V30 3540 H 327.661 5.74634 3.07634 0
M  V30 3541 N 331.094 0.475555 1.50254 0
M  V30 3542 C 332.026 -0.352649 2.26471 0
M  V30 3543 C 333.039 -0.953165 1.3198 0
M  V30 3544 O 334.228 -0.840815 1.57457 0
M  V30 3545 C 331.328 -1.50902 3.0345 0
M  V30 3546 C 330.501 -1.02047 4.25329 0
M  V30 3547 C 329.56 -2.05142 4.84565 0
M  V30 3548 O 328.586 -1.63023 5.45355 0
M  V30 3549 N 329.788 -3.37987 4.71959 0
M  V30 3550 H 332.553 0.300767 2.98187 0
M  V30 3551 H 330.114 0.306598 1.5897 0
M  V30 3552 H 332.106 -2.19572 3.39956 0
M  V30 3553 H 330.676 -2.06705 2.34504 0
M  V30 3554 H 329.896 -0.159507 3.93877 0
M  V30 3555 H 331.184 -0.672061 5.04342 0
M  V30 3556 H 330.582 -3.74913 4.23623 0
M  V30 3557 H 329.139 -4.02443 5.12721 0
M  V30 3558 N 332.573 -1.56217 0.208337 0
M  V30 3559 C 333.52 -2.19699 -0.707192 0
M  V30 3560 C 334.49 -1.14836 -1.20008 0
M  V30 3561 O 335.675 -1.4314 -1.26157 0
M  V30 3562 C 332.815 -2.87061 -1.91546 0
M  V30 3563 C 331.928 -4.06483 -1.46271 0
M  V30 3564 C 331.063 -4.61665 -2.62752 0
M  V30 3565 C 330.102 -5.73417 -2.14147 0
M  V30 3566 N 329.239 -6.22948 -3.23853 0
M  V30 3567 H 334.079 -2.97575 -0.159111 0
M  V30 3568 H 331.616 -1.46948 -0.0667874 0
M  V30 3569 H 333.574 -3.24294 -2.62468 0
M  V30 3570 H 332.204 -2.11725 -2.43664 0
M  V30 3571 H 331.256 -3.74825 -0.648886 0
M  V30 3572 H 332.568 -4.87271 -1.06622 0
M  V30 3573 H 331.722 -5.01272 -3.41776 0
M  V30 3574 H 330.461 -3.80013 -3.05682 0
M  V30 3575 H 329.466 -5.33326 -1.33581 0
M  V30 3576 H 330.691 -6.56897 -1.72232 0
M  V30 3577 H 328.637 -5.44213 -3.6629 0
M  V30 3578 H 328.554 -6.98823 -2.88414 0
M  V30 3579 H 329.822 -6.6721 -4.03052 0
M  V30 3580 N 334.051 0.0651679 -1.57465 0
M  V30 3581 C 335.328 0.79644 -1.78651 0
M  V30 3582 C 335.708 1.95454 -0.797566 0
M  V30 3583 O 335.056 2.27882 0.167946 0
M  V30 3584 C 335.266 1.26322 -3.25337 0
M  V30 3585 C 336.614 1.6939 -3.89348 0
M  V30 3586 O 337.638 1.35872 -3.29268 0
M  V30 3587 O 336.497 2.31471 -4.95059 0
M  V30 3588 H 333.591 0.382157 -0.733407 0
M  V30 3589 H 336.137 0.0447311 -1.69641 0
M  V30 3590 H 334.909 0.434859 -3.88876 0
M  V30 3591 H 334.532 2.07604 -3.39096 0
M  V30 3592 N 335.529 1.53961 0.336706 0
M  V30 3593 C 336.476 1.82428 1.41381 0
M  V30 3594 C 337.446 0.670444 1.51968 0
M  V30 3595 O 338.631 0.915565 1.67398 0
M  V30 3596 C 335.771 2.04564 2.77934 0
M  V30 3597 C 334.884 3.32267 2.76084 0
M  V30 3598 C 334.019 3.44434 4.04399 0
M  V30 3599 C 333.058 4.66061 3.96804 0
M  V30 3600 N 332.195 4.75224 5.16823 0
M  V30 3601 H 337.035 2.74324 1.16405 0
M  V30 3602 H 334.572 1.35869 0.563752 0
M  V30 3603 H 336.53 2.15388 3.57301 0
M  V30 3604 H 335.16 1.15974 3.01247 0
M  V30 3605 H 334.212 3.3025 1.88784 0
M  V30 3606 H 335.524 4.21733 2.66351 0
M  V30 3607 H 334.678 3.54728 4.92192 0
M  V30 3608 H 333.417 2.53037 4.16921 0
M  V30 3609 H 332.422 4.55838 3.07396 0
M  V30 3610 H 333.647 5.58829 3.85858 0
M  V30 3611 H 331.593 3.86739 5.29876 0
M  V30 3612 H 331.51 5.58636 5.09374 0
M  V30 3613 H 332.778 4.89835 6.06367 0
M  V30 3614 N 337.007 -0.598083 1.45811 0
M  V30 3615 C 337.939 -1.72231 1.51225 0
M  V30 3616 C 338.952 -1.57757 0.402059 0
M  V30 3617 O 340.141 -1.65464 0.669624 0
M  V30 3618 C 337.241 -3.10331 1.3619 0
M  V30 3619 C 336.414 -3.50955 2.61054 0
M  V30 3620 C 335.473 -4.68055 2.40439 0
M  V30 3621 O 334.499 -4.74691 3.14097 0
M  V30 3622 N 335.701 -5.61941 1.45612 0
M  V30 3623 H 338.466 -1.68046 2.48154 0
M  V30 3624 H 336.027 -0.783637 1.41671 0
M  V30 3625 H 338.019 -3.86439 1.20195 0
M  V30 3626 H 336.589 -3.0897 0.475015 0
M  V30 3627 H 335.809 -2.64711 2.92099 0
M  V30 3628 H 337.097 -3.74858 3.44034 0
M  V30 3629 H 336.495 -5.59301 0.848431 0
M  V30 3630 H 335.052 -6.37542 1.35585 0
M  V30 3631 N 338.485 -1.33259 -0.841409 0
M  V30 3632 C 339.71 -1.2775 -1.63385 0
M  V30 3633 C 340.135 0.149188 -1.87507 0
M  V30 3634 O 339.493 1.10498 -1.43736 0
M  V30 3635 C 339.541 -2.05571 -2.96265 0
M  V30 3636 O 338.645 -1.41257 -3.87453 0
M  V30 3637 H 337.986 -0.439627 -0.497618 0
M  V30 3638 H 340.516 -1.75782 -1.04699 0
M  V30 3639 H 340.526 -2.16241 -3.45982 0
M  V30 3640 H 339.201 -3.09309 -2.7803 0
M  V30 3641 H 337.778 -1.39217 -3.45938 0
M  V30 3642 N 339.963 1.05934 -1.16686 0
M  V30 3643 C 341.193 1.82226 -0.973515 0
M  V30 3644 C 341.601 1.8297 0.481532 0
M  V30 3645 O 340.944 1.25009 1.34604 0
M  V30 3646 C 341.006 3.29897 -1.42858 0
M  V30 3647 C 340.67 3.52849 -2.90425 0
M  V30 3648 C 341.667 3.45595 -3.88407 0
M  V30 3649 C 339.352 3.80053 -3.28428 0
M  V30 3650 C 341.346 3.65217 -5.22394 0
M  V30 3651 C 339.033 3.99325 -4.62583 0
M  V30 3652 C 340.031 3.91905 -5.59374 0
M  V30 3653 O 339.719 4.10647 -6.91104 0
M  V30 3654 H 339.451 0.581314 -0.345036 0
M  V30 3655 H 342.005 1.3453 -1.55212 0
M  V30 3656 H 340.235 3.78472 -0.793477 0
M  V30 3657 H 341.924 3.87692 -1.20207 0
M  V30 3658 H 342.69 3.24564 -3.60393 0
M  V30 3659 H 338.569 3.84936 -2.53664 0
M  V30 3660 H 342.113 3.59341 -5.9793 0
M  V30 3661 H 338.01 4.19846 -4.90306 0
M  V30 3662 H 338.778 4.27915 -6.97733 0
M  V30 3663 N 341.441 0.965919 1.2453 0
M  V30 3664 C 342.857 0.67216 1.44756 0
M  V30 3665 C 343.057 -0.766609 1.86347 0
M  V30 3666 O 342.113 -1.5407 2.00047 0
M  V30 3667 C 343.426 1.65473 2.51076 0
M  V30 3668 C 344.974 1.66716 2.64905 0
M  V30 3669 C 345.449 2.63766 3.74421 0
M  V30 3670 N 346.94 2.62198 3.81846 0
M  V30 3671 C 347.675 3.33966 4.66106 0
M  V30 3672 N 347.171 4.15245 5.54566 0
M  V30 3673 N 348.964 3.22799 4.60171 0
M  V30 3674 H 341.115 1.89553 0.958293 0
M  V30 3675 H 343.378 0.815979 0.482579 0
M  V30 3676 H 343.084 2.68296 2.27399 0
M  V30 3677 H 342.958 1.4261 3.49202 0
M  V30 3678 H 345.345 0.646057 2.87941 0
M  V30 3679 H 345.426 1.93642 1.67142 0
M  V30 3680 H 345.07 3.6601 3.52135 0
M  V30 3681 H 345 2.34121 4.71694 0
M  V30 3682 H 347.491 2.032 3.18619 0
M  V30 3683 H 347.804 4.66898 6.15814 0
M  V30 3684 H 346.149 4.1934 5.54237 0
M  V30 3685 H 349.34 2.58764 3.90075 0
M  V30 3686 H 349.513 3.78994 5.25612 0
M  V30 3687 N 342.919 -1.39368 0.735821 0
M  V30 3688 C 344.196 -1.94465 0.210395 0
M  V30 3689 C 344.576 -1.67254 -1.28799 0
M  V30 3690 O 343.924 -1.00123 -2.05396 0
M  V30 3691 C 344.134 -3.4472 0.544897 0
M  V30 3692 C 345.482 -4.21708 0.494689 0
M  V30 3693 O 346.506 -3.52922 0.482136 0
M  V30 3694 O 345.365 -5.44299 0.489947 0
M  V30 3695 H 342.459 -0.826096 0.0386666 0
M  V30 3696 H 345.005 -1.48863 0.814735 0
M  V30 3697 H 343.777 -3.57963 1.58045 0
M  V30 3698 H 343.4 -3.97502 -0.08837 0
M  V30 3699 N 344.397 -0.483516 -1.5 0
M  V30 3700 C 345.327 0.293829 -2.31644 0
M  V30 3701 C 346.308 0.978864 -1.39112 0
M  V30 3702 O 347.493 0.973644 -1.68029 0
M  V30 3703 C 344.623 1.36897 -3.19181 0
M  V30 3704 C 343.577 0.804833 -4.20365 0
M  V30 3705 C 342.903 1.9792 -4.96721 0
M  V30 3706 C 344.203 -0.192313 -5.21946 0
M  V30 3707 H 345.897 -0.387616 -2.9688 0
M  V30 3708 H 343.443 -0.187856 -1.42769 0
M  V30 3709 H 345.396 1.92037 -3.751 0
M  V30 3710 H 344.12 2.07936 -2.51853 0
M  V30 3711 H 342.779 0.275319 -3.65565 0
M  V30 3712 H 342.427 2.67686 -4.25856 0
M  V30 3713 H 342.127 1.60789 -5.65173 0
M  V30 3714 H 343.651 2.53526 -5.55479 0
M  V30 3715 H 345.065 0.270333 -5.72662 0
M  V30 3716 H 343.462 -0.478543 -5.98189 0
M  V30 3717 H 344.532 -1.11409 -4.71928 0
M  V30 3718 N 345.875 1.56104 -0.216619 0
M  V30 3719 C 346.822 2.2007 0.695531 0
M  V30 3720 C 347.792 1.15471 1.19397 0
M  V30 3721 O 348.977 1.43807 1.25396 0
M  V30 3722 C 346.117 2.88073 1.90021 0
M  V30 3723 C 345.23 4.07253 1.44113 0
M  V30 3724 C 344.365 4.63052 2.603 0
M  V30 3725 C 343.404 5.74545 2.11103 0
M  V30 3726 N 342.541 6.24656 3.20545 0
M  V30 3727 H 347.381 2.97655 0.143327 0
M  V30 3728 H 344.918 1.46982 0.0589934 0
M  V30 3729 H 346.876 3.25681 2.60745 0
M  V30 3730 H 345.506 2.13015 2.42538 0
M  V30 3731 H 344.558 3.75164 0.628999 0
M  V30 3732 H 345.87 4.8783 1.04036 0
M  V30 3733 H 345.024 5.03078 3.39113 0
M  V30 3734 H 343.763 3.81628 3.03663 0
M  V30 3735 H 342.768 5.34027 1.3075 0
M  V30 3736 H 343.993 6.57801 1.68746 0
M  V30 3737 H 341.939 5.46148 3.63399 0
M  V30 3738 H 341.856 7.00343 2.84704 0
M  V30 3739 H 343.124 6.69338 3.99508 0
M  V30 3740 N 347.353 -0.0568162 1.57498 0
M  V30 3741 C 348.263 -1.08346 2.08083 0
M  V30 3742 C 349.279 -1.41439 1.01346 0
M  V30 3743 O 350.455 -1.51316 1.32912 0
M  V30 3744 C 347.52 -2.37352 2.52715 0
M  V30 3745 C 346.581 -2.11093 3.73816 0
M  V30 3746 C 345.814 -3.33949 4.1631 0
M  V30 3747 O 346.037 -4.43622 3.58547 0
M  V30 3748 O 344.971 -3.21279 5.08983 0
M  V30 3749 H 348.797 -0.683667 2.95905 0
M  V30 3750 H 346.382 -0.271965 1.46904 0
M  V30 3751 H 348.264 -3.13246 2.81877 0
M  V30 3752 H 346.939 -2.76681 1.68016 0
M  V30 3753 H 345.846 -1.32856 3.49714 0
M  V30 3754 H 347.179 -1.76637 4.59413 0
M  V30 3755 N 348.832 -1.54138 -0.328536 0
M  V30 3756 C 350.078 -1.7236 -1.06865 0
M  V30 3757 C 350.411 -0.493231 -1.87832 0
M  V30 3758 O 349.686 0.5098 -1.877 0
M  V30 3759 C 349.969 -2.99621 -1.99747 0
M  V30 3760 C 349.822 -4.32899 -1.22143 0
M  V30 3761 C 351.141 -3.22615 -2.99345 0
M  V30 3762 H 348.26 -0.627151 -0.387105 0
M  V30 3763 H 350.902 -1.86827 -0.345767 0
M  V30 3764 H 349.052 -2.87418 -2.61387 0
M  V30 3765 H 350.724 -4.56978 -0.630017 0
M  V30 3766 H 348.967 -4.30628 -0.523628 0
M  V30 3767 H 349.638 -5.18154 -1.90318 0
M  V30 3768 H 352.114 -3.34248 -2.47826 0
M  V30 3769 H 350.99 -4.13027 -3.61524 0
M  V30 3770 H 351.251 -2.3961 -3.71536 0
M  V30 3771 N 350.31 0.590341 -1.46126 0
M  V30 3772 C 351.538 1.37504 -1.54597 0
M  V30 3773 C 351.953 1.87897 -0.184447 0
M  V30 3774 O 351.31 1.63192 0.816984 0
M  V30 3775 C 351.361 2.56779 -2.54454 0
M  V30 3776 O 351.082 2.08476 -3.85317 0
M  V30 3777 C 352.583 3.49427 -2.72792 0
M  V30 3778 H 349.803 0.420325 -0.523037 0
M  V30 3779 H 352.347 0.718383 -1.91467 0
M  V30 3780 H 350.502 3.1845 -2.20609 0
M  V30 3781 H 350.916 2.86097 -4.396 0
M  V30 3782 H 352.39 4.29619 -3.466 0
M  V30 3783 H 352.867 4.00876 -1.79429 0
M  V30 3784 H 353.473 2.93598 -3.07702 0
M  V30 3785 N 351.788 1.33704 0.83433 0
M  V30 3786 C 353.199 1.22813 1.4062 0
M  V30 3787 C 353.55 -0.151107 1.95617 0
M  V30 3788 O 352.675 -1.05092 1.89168 0
M  V30 3789 C 353.27 2.22355 2.55624 0
M  V30 3790 C 351.829 2.1529 3.08751 0
M  V30 3791 C 350.976 2.09589 1.8157 0
M  V30 3792 H 353.927 1.45236 0.639702 0
M  V30 3793 H 353.948 1.83391 3.33389 0
M  V30 3794 H 353.46 3.22728 2.15566 0
M  V30 3795 H 351.561 1.18235 3.53343 0
M  V30 3796 H 351.674 3.06038 3.68616 0
M  V30 3797 H 350.038 1.55134 2.02004 0
M  V30 3798 H 350.821 3.11777 1.43701 0
M  V30 3799 N 353.266 -1.05314 1.17247 0
M  V30 3800 C 354.176 -2.16538 0.90268 0
M  V30 3801 C 355.192 -1.73523 -0.128707 0
M  V30 3802 O 356.368 -2.01337 0.0502701 0
M  V30 3803 C 353.433 -3.44167 0.418356 0
M  V30 3804 C 352.494 -4.01635 1.51618 0
M  V30 3805 C 351.727 -5.23171 1.05487 0
M  V30 3806 O 351.95 -5.70327 -0.0914715 0
M  V30 3807 O 350.884 -5.72848 1.8474 0
M  V30 3808 H 354.71 -2.42145 1.83302 0
M  V30 3809 H 352.295 -1.15037 0.953246 0
M  V30 3810 H 354.177 -4.21112 0.155726 0
M  V30 3811 H 352.852 -3.20063 -0.48385 0
M  V30 3812 H 351.759 -3.26135 1.83268 0
M  V30 3813 H 353.092 -4.30053 2.39405 0
M  V30 3814 N 354.744 -0.972509 -1.24016 0
M  V30 3815 C 355.992 -0.635776 -1.91839 0
M  V30 3816 C 356.313 0.832312 -1.76345 0
M  V30 3817 O 355.583 1.5946 -1.13795 0
M  V30 3818 H 354.163 -0.232157 -0.710009 0
M  V30 3819 H 356.825 -1.23462 -1.50809 0
M  V30 3820 H 355.921 -0.880545 -2.99421 0
M  V30 3821 N 356.222 1.38976 -0.743202 0
M  V30 3822 C 357.152 2.33171 -0.123873 0
M  V30 3823 C 358.133 1.54336 0.71516 0
M  V30 3824 O 359.318 1.82696 0.658467 0
M  V30 3825 C 356.448 3.38474 0.777978 0
M  V30 3826 C 355.402 4.27979 0.0424758 0
M  V30 3827 C 354.728 5.2405 1.06189 0
M  V30 3828 C 356.028 5.10155 -1.1198 0
M  V30 3829 H 357.722 2.85213 -0.910709 0
M  V30 3830 H 355.268 1.37133 -0.439388 0
M  V30 3831 H 357.221 4.03328 1.22084 0
M  V30 3832 H 355.945 2.84891 1.59702 0
M  V30 3833 H 354.604 3.64616 -0.380853 0
M  V30 3834 H 354.252 4.66758 1.87472 0
M  V30 3835 H 353.952 5.84785 0.574485 0
M  V30 3836 H 355.476 5.9178 1.50428 0
M  V30 3837 H 356.89 5.68307 -0.75499 0
M  V30 3838 H 355.287 5.80073 -1.53738 0
M  V30 3839 H 356.357 4.44504 -1.93764 0
M  V30 3840 N 357.7 0.491464 1.49741 0
M  V30 3841 C 358.632 -0.328609 2.26832 0
M  V30 3842 C 359.645 -0.939113 1.32983 0
M  V30 3843 O 360.834 -0.824067 1.58339 0
M  V30 3844 C 357.934 -1.47675 3.05033 0
M  V30 3845 C 357.107 -0.975305 4.26388 0
M  V30 3846 C 356.166 -1.99991 4.86714 0
M  V30 3847 O 355.192 -1.57229 5.47054 0
M  V30 3848 N 356.394 -3.32962 4.75517 0
M  V30 3849 H 359.159 0.332377 2.97851 0
M  V30 3850 H 356.72 0.323441 1.58636 0
M  V30 3851 H 358.712 -2.15954 3.42266 0
M  V30 3852 H 357.282 -2.04206 2.36683 0
M  V30 3853 H 356.502 -0.117723 3.94024 0
M  V30 3854 H 357.79 -0.618531 5.05026 0
M  V30 3855 H 357.188 -3.70399 4.27576 0
M  V30 3856 H 355.745 -3.96982 5.16961 0
M  V30 3857 N 359.178 -1.55987 0.224894 0
M  V30 3858 C 360.111 -2.16413 -0.723929 0
M  V30 3859 C 361.089 -1.10952 -1.18863 0
M  V30 3860 O 362.273 -1.39225 -1.27077 0
M  V30 3861 C 359.4 -2.74711 -1.98121 0
M  V30 3862 C 358.446 -3.9303 -1.6562 0
M  V30 3863 S 359.279 -5.29817 -0.778058 0
M  V30 3864 C 360.435 -5.91555 -2.04483 0
M  V30 3865 H 360.668 -2.96555 -0.210347 0
M  V30 3866 H 358.201 -1.54397 0.00955457 0
M  V30 3867 H 360.159 -3.08938 -2.70311 0
M  V30 3868 H 358.82 -1.94555 -2.46591 0
M  V30 3869 H 358.013 -4.32334 -2.59043 0
M  V30 3870 H 357.615 -3.59966 -1.01491 0
M  V30 3871 H 359.907 -6.07732 -2.99446 0
M  V30 3872 H 360.85 -6.87498 -1.69563 0
M  V30 3873 H 361.258 -5.20419 -2.18688 0
M  V30 3874 N 360.656 0.0484629 -1.57525 0
M  V30 3875 C 361.902 0.744226 -1.88651 0
M  V30 3876 C 362.235 1.76029 -0.820212 0
M  V30 3877 O 361.51 1.93782 0.166985 0
M  V30 3878 C 361.793 1.43128 -3.30434 0
M  V30 3879 C 361.646 0.43005 -4.47739 0
M  V30 3880 C 362.965 2.37031 -3.70816 0
M  V30 3881 H 360.084 0.269089 -0.68612 0
M  V30 3882 H 362.726 0.00713532 -1.89999 0
M  V30 3883 H 360.876 2.05956 -3.29415 0
M  V30 3884 H 362.548 -0.194816 -4.60888 0
M  V30 3885 H 360.791 -0.252522 -4.33064 0
M  V30 3886 H 361.462 0.948874 -5.43783 0
M  V30 3887 H 363.938 1.84263 -3.73077 0
M  V30 3888 H 362.814 2.82094 -4.70865 0
M  V30 3889 H 363.075 3.22864 -3.02012 0
M  V30 3890 N 362.134 1.5431 0.320358 0
M  V30 3891 C 363.081 1.83918 1.39438 0
M  V30 3892 C 364.051 0.686525 1.51248 0
M  V30 3893 O 365.236 0.933269 1.66417 0
M  V30 3894 C 362.376 2.075 2.75749 0
M  V30 3895 C 361.489 3.35177 2.72544 0
M  V30 3896 C 360.624 3.48704 4.00723 0
M  V30 3897 C 359.663 4.70244 3.91838 0
M  V30 3898 N 358.8 4.80679 5.11754 0
M  V30 3899 H 363.64 2.75544 1.13489 0
M  V30 3900 H 361.177 1.36459 0.549309 0
M  V30 3901 H 363.135 2.19166 3.54996 0
M  V30 3902 H 361.765 1.19163 3 0
M  V30 3903 H 360.817 3.32233 1.85271 0
M  V30 3904 H 362.129 4.24534 2.61863 0
M  V30 3905 H 361.283 3.59928 4.88402 0
M  V30 3906 H 360.022 2.57445 4.14214 0
M  V30 3907 H 359.027 4.59072 3.02544 0
M  V30 3908 H 360.252 5.6289 3.7991 0
M  V30 3909 H 358.198 3.92337 5.25745 0
M  V30 3910 H 358.115 5.64007 5.0342 0
M  V30 3911 H 359.383 4.96239 6.01138 0
M  V30 3912 N 363.613 -0.582584 1.46437 0
M  V30 3913 C 364.56 -1.69164 1.5701 0
M  V30 3914 C 365.53 -1.60847 0.414403 0
M  V30 3915 O 366.715 -1.80058 0.631171 0
M  V30 3916 C 363.855 -3.075 1.56646 0
M  V30 3917 C 362.968 -3.2644 2.82951 0
M  V30 3918 C 362.103 -4.55026 2.7409 0
M  V30 3919 C 361.142 -4.6731 3.95333 0
M  V30 3920 N 360.279 -5.87221 3.84858 0
M  V30 3921 H 365.119 -1.59464 2.51744 0
M  V30 3922 H 362.656 -0.777186 1.24893 0
M  V30 3923 H 364.614 -3.8757 1.5442 0
M  V30 3924 H 363.244 -3.16096 0.654439 0
M  V30 3925 H 362.296 -2.39974 2.95155 0
M  V30 3926 H 363.608 -3.31385 3.72808 0
M  V30 3927 H 362.762 -5.43324 2.6997 0
M  V30 3928 H 361.501 -4.52519 1.81873 0
M  V30 3929 H 360.506 -3.77429 3.99784 0
M  V30 3930 H 361.731 -4.71595 4.88646 0
M  V30 3931 H 359.677 -5.85712 2.95427 0
M  V30 3932 H 359.594 -5.93435 4.6837 0
M  V30 3933 H 360.862 -6.7795 3.84713 0
M  V30 3934 N 365.091 -1.34144 -0.827227 0
M  V30 3935 C 366.039 -1.25364 -1.95925 0
M  V30 3936 C 367.033 -0.152608 -1.68711 0
M  V30 3937 O 368.239 -0.317311 -1.77181 0
M  V30 3938 H 364.614 -0.389342 -0.643364 0
M  V30 3939 H 366.585 -2.21045 -2.00454 0
M  V30 3940 C 365.334 -1.02158 -3.32354 0
M  V30 3941 H 364.657 -1.86111 -3.5384 0
M  V30 3942 H 366.097 -1.00048 -4.12027 0
M  V30 3943 C 364.556 0.275244 -3.35774 0
M  V30 3944 O 365.086 1.27806 -3.80826 0
M  V30 3945 N 363.292 0.306853 -2.88975 0
M  V30 3946 H 362.839 -0.509777 -2.52506 0
M  V30 3947 H 362.797 1.17432 -2.91646 0
M  V30 3948 N 366.569 1.04691 -1.17803 0
M  V30 3949 C 367.816 1.77782 -0.969532 0
M  V30 3950 C 368.144 1.87926 0.501401 0
M  V30 3951 O 367.399 1.37918 1.38842 0
M  V30 3952 C 367.698 3.21467 -1.56186 0
M  V30 3953 C 367.364 3.3137 -3.05786 0
M  V30 3954 C 366.026 3.3378 -3.46619 0
M  V30 3955 C 368.378 3.31976 -4.01797 0
M  V30 3956 C 365.706 3.34431 -4.82051 0
M  V30 3957 C 368.058 3.34167 -5.37136 0
M  V30 3958 C 366.722 3.34866 -5.77426 0
M  V30 3959 H 365.992 0.650549 -0.354777 0
M  V30 3960 H 368.639 1.23006 -1.46772 0
M  V30 3961 H 366.944 3.79203 -0.985515 0
M  V30 3962 H 368.641 3.76652 -1.37602 0
M  V30 3963 H 365.231 3.3021 -2.73238 0
M  V30 3964 H 369.415 3.29311 -3.71306 0
M  V30 3965 H 364.671 3.33285 -5.12573 0
M  V30 3966 H 368.845 3.33585 -6.11305 0
M  V30 3967 H 366.472 3.35124 -6.82346 0
M  V30 3968 N 368.047 0.979072 1.23499 0
M  V30 3969 C 368.957 0.526431 2.28617 0
M  V30 3970 C 369.973 -0.418126 1.68901 0
M  V30 3971 O 371.149 -0.288372 1.99325 0
M  V30 3972 C 368.214 -0.165235 3.46306 0
M  V30 3973 C 367.275 0.82056 4.21385 0
M  V30 3974 C 366.508 0.161807 5.33455 0
M  V30 3975 O 366.731 -1.04742 5.60701 0
M  V30 3976 O 365.665 0.859708 5.95729 0
M  V30 3977 H 369.491 1.4006 2.69475 0
M  V30 3978 H 367.076 0.746643 1.29405 0
M  V30 3979 H 368.958 -0.553287 4.17752 0
M  V30 3980 H 367.633 -1.01419 3.07402 0
M  V30 3981 H 366.54 1.25929 3.52268 0
M  V30 3982 H 367.873 1.63828 4.64135 0
M  V30 3983 N 369.525 -1.3858 0.750561 0
M  V30 3984 C 370.771 -2.0095 0.31477 0
M  V30 3985 C 371.126 -1.58509 -1.09053 0
M  V30 3986 O 370.419 -0.8112 -1.7358 0
M  V30 3987 C 370.613 -3.55455 0.372373 0
M  V30 3988 C 370.442 -4.12898 1.78173 0
M  V30 3989 C 369.212 -4.44797 2.39757 0
M  V30 3990 C 371.41 -4.35366 2.7379 0
M  V30 3991 N 369.392 -4.87831 3.72685 0
M  V30 3992 C 370.763 -4.80775 3.91478 0
M  V30 3993 C 372.818 -4.1746 2.71351 0
M  V30 3994 C 371.521 -5.10155 5.07084 0
M  V30 3995 C 373.547 -4.47963 3.86113 0
M  V30 3996 C 372.909 -4.93593 5.02539 0
M  V30 3997 H 369.008 -0.765083 0.161776 0
M  V30 3998 H 371.592 -1.68246 0.979867 0
M  V30 3999 H 369.763 -3.87512 -0.26244 0
M  V30 4000 H 371.495 -4.04614 -0.0834479 0
M  V30 4001 H 368.25 -4.33135 1.91548 0
M  V30 4002 H 368.674 -5.13685 4.40972 0
M  V30 4003 H 373.316 -3.81372 1.82524 0
M  V30 4004 H 371.034 -5.45141 5.96529 0
M  V30 4005 H 374.62 -4.35717 3.85542 0
M  V30 4006 H 373.5 -5.16746 5.89867 0
M  V30 4007 N 371.003 -0.499398 -1.49478 0
M  V30 4008 C 372.249 0.0457576 -2.02748 0
M  V30 4009 C 372.582 1.36793 -1.37846 0
M  V30 4010 O 371.857 1.87596 -0.513601 0
M  V30 4011 C 372.14 0.199986 -3.59544 0
M  V30 4012 C 371.993 -1.1452 -4.34977 0
M  V30 4013 C 373.312 0.94137 -4.29914 0
M  V30 4014 H 370.431 0.0151552 -0.736844 0
M  V30 4015 H 373.073 -0.650498 -1.78518 0
M  V30 4016 H 371.223 0.793007 -3.8032 0
M  V30 4017 H 372.895 -1.77697 -4.25701 0
M  V30 4018 H 371.138 -1.73488 -3.97598 0
M  V30 4019 H 371.809 -0.990607 -5.43039 0
M  V30 4020 H 374.285 0.43844 -4.13784 0
M  V30 4021 H 373.161 1.01812 -5.39375 0
M  V30 4022 H 373.422 1.98471 -3.95046 0
M  V30 4023 N 372.481 1.55866 -0.233164 0
M  V30 4024 C 373.444 2.1953 0.658715 0
M  V30 4025 C 374.444 1.16053 1.11303 0
M  V30 4026 O 375.634 1.41218 1.01996 0
M  V30 4027 C 372.766 2.82791 1.90373 0
M  V30 4028 H 373.959 2.99721 0.10347 0
M  V30 4029 H 371.512 1.56291 0.0164245 0
M  V30 4030 H 372.247 2.06501 2.50056 0
M  V30 4031 H 372.032 3.58578 1.58632 0
M  V30 4032 H 373.522 3.31556 2.53891 0
M  V30 4033 N 373.959 -0.0401083 1.57549 0
M  V30 4034 C 374.869 -1.06133 2.0922 0
M  V30 4035 C 375.885 -1.40356 1.0284 0
M  V30 4036 O 377.061 -1.49897 1.34509 0
M  V30 4037 C 374.126 -2.34658 2.55218 0
M  V30 4038 C 373.187 -2.07117 3.76033 0
M  V30 4039 C 372.42 -3.29514 4.19829 0
M  V30 4040 O 372.643 -4.39794 3.63232 0
M  V30 4041 O 371.577 -3.15863 5.12362 0
M  V30 4042 H 375.403 -0.652244 2.96613 0
M  V30 4043 H 372.988 -0.256368 1.47184 0
M  V30 4044 H 374.87 -3.10239 2.85184 0
M  V30 4045 H 373.545 -2.74883 1.70941 0
M  V30 4046 H 372.452 -1.29139 3.51104 0
M  V30 4047 H 373.785 -1.71754 4.61261 0
M  V30 4048 N 375.437 -1.54477 -0.31217 0
M  V30 4049 C 376.853 -1.45442 -0.657185 0
M  V30 4050 C 377.053 -0.63653 -1.91182 0
M  V30 4051 O 376.109 -0.139815 -2.52113 0
M  V30 4052 C 377.422 -2.89287 -0.82058 0
M  V30 4053 C 378.97 -2.9926 -0.917188 0
M  V30 4054 C 379.445 -4.44279 -1.11267 0
M  V30 4055 N 380.936 -4.4794 -1.17914 0
M  V30 4056 C 381.671 -5.57318 -1.34848 0
M  V30 4057 N 381.167 -6.76642 -1.48752 0
M  V30 4058 N 382.96 -5.44986 -1.37647 0
M  V30 4059 H 375.111 -2.06129 0.512313 0
M  V30 4060 H 377.374 -0.933088 0.167485 0
M  V30 4061 H 377.08 -3.51687 0.0302604 0
M  V30 4062 H 376.954 -3.36061 -1.71298 0
M  V30 4063 H 379.341 -2.36981 -1.75852 0
M  V30 4064 H 379.422 -2.558 -0.00101257 0
M  V30 4065 H 379.066 -5.07149 -0.27614 0
M  V30 4066 H 378.996 -4.85359 -2.04289 0
M  V30 4067 H 381.487 -3.61969 -1.08567 0
M  V30 4068 H 381.8 -7.55758 -1.61397 0
M  V30 4069 H 380.145 -6.79529 -1.45828 0
M  V30 4070 H 383.336 -4.50715 -1.26388 0
M  V30 4071 H 383.509 -6.3028 -1.50501 0
M  V30 4072 N 376.915 0.57481 -1.46744 0
M  V30 4073 C 378.161 1.3347 -1.52688 0
M  V30 4074 C 378.494 1.93353 -0.181229 0
M  V30 4075 O 377.769 1.76912 0.808237 0
M  V30 4076 C 378.052 2.45811 -2.63152 0
M  V30 4077 C 377.905 1.90912 -4.07275 0
M  V30 4078 C 379.224 3.47822 -2.69644 0
M  V30 4079 H 376.343 0.483935 -0.555856 0
M  V30 4080 H 378.985 0.644968 -1.78718 0
M  V30 4081 H 377.135 3.04646 -2.41088 0
M  V30 4082 H 378.807 1.36473 -4.4065 0
M  V30 4083 H 377.05 1.21691 -4.16382 0
M  V30 4084 H 377.721 2.72042 -4.80309 0
M  V30 4085 H 380.197 2.9888 -2.895 0
M  V30 4086 H 379.073 4.23876 -3.48742 0
M  V30 4087 H 379.334 4.05555 -1.76005 0
M  V30 4088 N 378.394 1.34581 0.820102 0
M  V30 4089 C 379.304 1.28471 1.96297 0
M  V30 4090 C 380.32 0.191902 1.72939 0
M  V30 4091 O 381.496 0.418879 1.96996 0
M  V30 4092 C 378.561 1.04281 3.30645 0
M  V30 4093 C 377.622 2.22745 3.66992 0
M  V30 4094 C 376.855 1.997 4.9493 0
M  V30 4095 O 377.078 0.956656 5.6232 0
M  V30 4096 O 376.012 2.86723 5.2922 0
M  V30 4097 H 379.838 2.24624 2.04396 0
M  V30 4098 H 377.423 1.14816 0.955913 0
M  V30 4099 H 379.305 0.925841 4.11104 0
M  V30 4100 H 377.98 0.111697 3.23507 0
M  V30 4101 H 376.887 2.40003 2.86966 0
M  V30 4102 H 378.22 3.14257 3.78819 0
M  V30 4103 N 379.872 -1.04064 1.18357 0
M  V30 4104 C 380.802 -2.14001 0.934113 0
M  V30 4105 C 381.783 -1.69616 -0.128186 0
M  V30 4106 O 382.968 -1.94185 0.0244093 0
M  V30 4107 C 380.098 -3.44253 0.459066 0
M  V30 4108 C 379.052 -4.02261 1.46185 0
M  V30 4109 C 378.378 -5.27992 0.844322 0
M  V30 4110 C 379.678 -4.38432 2.83856 0
M  V30 4111 H 381.372 -2.35127 1.85352 0
M  V30 4112 H 378.918 -1.12998 0.892604 0
M  V30 4113 H 380.871 -4.20522 0.271907 0
M  V30 4114 H 379.595 -3.22813 -0.495912 0
M  V30 4115 H 378.254 -3.28074 1.63595 0
M  V30 4116 H 377.902 -5.02862 -0.117845 0
M  V30 4117 H 377.602 -5.67765 1.51384 0
M  V30 4118 H 379.126 -6.06938 0.667693 0
M  V30 4119 H 380.54 -5.05688 2.70098 0
M  V30 4120 H 378.937 -4.89254 3.47491 0
M  V30 4121 H 380.007 -3.4826 3.37406 0
M  V30 4122 N 381.35 -0.985608 -1.22978 0
M  V30 4123 C 382.28 -0.549649 -2.26939 0
M  V30 4124 C 383.261 0.419803 -1.64838 0
M  V30 4125 O 384.446 0.31203 -1.91677 0
M  V30 4126 C 381.576 0.143652 -3.47003 0
M  V30 4127 C 380.53 -0.743606 -4.21491 0
M  V30 4128 C 379.856 0.0822027 -5.34637 0
M  V30 4129 C 381.156 -2.03694 -4.80943 0
M  V30 4130 H 382.85 -1.41862 -2.63658 0
M  V30 4131 H 380.396 -0.683571 -1.26741 0
M  V30 4132 H 382.349 0.459985 -4.18882 0
M  V30 4133 H 381.073 1.04711 -3.09359 0
M  V30 4134 H 379.732 -1.04347 -3.51436 0
M  V30 4135 H 379.38 0.986359 -4.93234 0
M  V30 4136 H 379.08 -0.508377 -5.85397 0
M  V30 4137 H 380.604 0.392797 -6.09335 0
M  V30 4138 H 382.018 -1.78504 -5.44802 0
M  V30 4139 H 380.415 -2.57573 -5.42011 0
M  V30 4140 H 381.485 -2.72042 -4.01399 0
M  V30 4141 N 382.828 1.3818 -0.7579 0
M  V30 4142 C 383.758 2.33027 -0.148597 0
M  V30 4143 C 384.739 1.55085 0.69875 0
M  V30 4144 O 385.924 1.83384 0.639053 0
M  V30 4145 C 383.054 3.3928 0.742034 0
M  V30 4146 C 382.008 4.28 -0.00291946 0
M  V30 4147 C 381.334 5.25146 1.00625 0
M  V30 4148 C 382.634 5.08938 -1.17385 0
M  V30 4149 H 384.328 2.84231 -0.940909 0
M  V30 4150 H 381.874 1.36659 -0.453908 0
M  V30 4151 H 383.827 4.046 1.17799 0
M  V30 4152 H 382.551 2.86569 1.56671 0
M  V30 4153 H 381.21 3.64192 -0.419504 0
M  V30 4154 H 380.858 4.68721 1.8251 0
M  V30 4155 H 380.558 5.85361 0.512428 0
M  V30 4156 H 382.082 5.93342 1.44143 0
M  V30 4157 H 383.496 5.67474 -0.815224 0
M  V30 4158 H 381.893 5.7841 -1.59882 0
M  V30 4159 H 382.963 4.42424 -1.98468 0
M  V30 4160 N 384.306 0.507319 1.49211 0
M  V30 4161 C 385.253 -0.267728 2.29242 0
M  V30 4162 C 386.223 -0.954609 1.35928 0
M  V30 4163 O 387.408 -0.960046 1.64887 0
M  V30 4164 C 384.548 -1.32243 3.18756 0
M  V30 4165 C 383.661 -0.64669 4.27132 0
M  V30 4166 C 382.796 -1.68238 5.03855 0
M  V30 4167 C 381.835 -0.98885 6.0406 0
M  V30 4168 N 380.972 -1.96903 6.73924 0
M  V30 4169 H 385.812 0.420968 2.95012 0
M  V30 4170 H 383.349 0.219443 1.45454 0
M  V30 4171 H 385.307 -1.94599 3.69036 0
M  V30 4172 H 383.937 -1.97981 2.54958 0
M  V30 4173 H 382.989 0.0902926 3.80293 0
M  V30 4174 H 384.301 -0.101058 4.98698 0
M  V30 4175 H 383.455 -2.38081 5.58034 0
M  V30 4176 H 382.194 -2.26187 4.32077 0
M  V30 4177 H 381.199 -0.276222 5.49106 0
M  V30 4178 H 382.424 -0.415767 6.77826 0
M  V30 4179 H 380.37 -2.53803 6.04913 0
M  V30 4180 H 380.287 -1.47423 7.41487 0
M  V30 4181 H 381.555 -2.66015 7.32705 0
M  V30 4182 N 385.784 -1.5574 0.241426 0
M  V30 4183 C 387.009 -2.0366 -0.392111 0
M  V30 4184 C 387.434 -1.11969 -1.51144 0
M  V30 4185 O 386.792 -0.111594 -1.80956 0
M  V30 4186 C 386.84 -3.49638 -0.882371 0
M  V30 4187 O 385.944 -3.6108 -1.99235 0
M  V30 4188 H 385.285 -0.658379 -0.0862122 0
M  V30 4189 H 387.815 -2.01302 0.365881 0
M  V30 4190 H 387.825 -3.90351 -1.18702 0
M  V30 4191 H 386.5 -4.15852 -0.0632361 0
M  V30 4192 H 385.077 -3.32262 -1.69282 0
M  V30 4193 N 387.262 0.0317525 -1.57568 0
M  V30 4194 C 388.172 1.05021 -2.0978 0
M  V30 4195 C 389.188 1.39809 -1.03583 0
M  V30 4196 O 390.364 1.49182 -1.35302 0
M  V30 4197 C 387.429 2.33301 -2.56459 0
M  V30 4198 C 386.49 2.0512 -3.77127 0
M  V30 4199 C 385.723 3.27283 -4.2157 0
M  V30 4200 O 385.946 4.37861 -3.65559 0
M  V30 4201 O 384.88 3.13141 -5.14029 0
M  V30 4202 H 388.706 0.636505 -2.96955 0
M  V30 4203 H 386.291 0.248559 -1.47318 0
M  V30 4204 H 388.173 3.08722 -2.86825 0
M  V30 4205 H 386.848 2.73973 -1.72397 0
M  V30 4206 H 385.755 1.27276 -3.51784 0
M  V30 4207 H 387.088 1.69305 -4.62165 0
M  V30 4208 N 388.74 1.54641 0.303973 0
M  V30 4209 C 389.965 1.78092 1.06292 0
M  V30 4210 C 390.39 0.537342 1.80262 0
M  V30 4211 O 389.748 -0.511993 1.7392 0
M  V30 4212 C 389.796 2.98612 2.02147 0
M  V30 4213 O 388.9 2.71528 3.10397 0
M  V30 4214 H 388.241 0.589548 0.305497 0
M  V30 4215 H 390.771 2.01716 0.3423 0
M  V30 4216 H 390.781 3.265 2.44667 0
M  V30 4217 H 389.456 3.88785 1.47714 0
M  V30 4218 H 388.033 2.54648 2.72413 0
M  V30 4219 N 390.218 -0.567019 1.47046 0
M  V30 4220 C 391.15 -1.68985 1.54844 0
M  V30 4221 C 392.163 -1.56869 0.435431 0
M  V30 4222 O 393.352 -1.64006 0.70457 0
M  V30 4223 C 390.452 -3.07373 1.42742 0
M  V30 4224 C 389.625 -3.45339 2.6844 0
M  V30 4225 C 388.684 -4.62849 2.50314 0
M  V30 4226 O 387.71 -4.67922 3.24095 0
M  V30 4227 N 388.912 -5.58726 1.57499 0
M  V30 4228 H 391.677 -1.62745 2.51663 0
M  V30 4229 H 389.238 -0.753411 1.43302 0
M  V30 4230 H 391.23 -3.83803 1.28365 0
M  V30 4231 H 389.8 -3.07893 0.540445 0
M  V30 4232 H 389.02 -2.58455 2.97648 0
M  V30 4233 H 390.308 -3.67476 3.51907 0
M  V30 4234 H 389.706 -5.57376 0.966876 0
M  V30 4235 H 388.263 -6.34523 1.49078 0
M  V30 4236 N 391.696 -1.35014 -0.812953 0
M  V30 4237 C 392.936 -1.29289 -1.58315 0
M  V30 4238 C 393.3 0.132727 -1.91541 0
M  V30 4239 O 394.501 0.314269 -2.66957 0
M  V30 4240 C 392.772 -2.1681 -2.84127 0
M  V30 4241 S 394.331 -2.28538 -3.74588 0
M  V30 4242 H 391.149 -0.459569 -0.542511 0
M  V30 4243 H 393.751 -1.70336 -0.959467 0
M  V30 4244 H 392.455 -3.19379 -2.57731 0
M  V30 4245 H 391.986 -1.76697 -3.51485 0
M  V30 4246 H 394.001 -1.4655 -4.74065 0
M  V30 4247 N 393.175 1.03435 -1.18907 0
M  V30 4248 C 394.591 1.28973 -0.940111 0
M  V30 4249 C 394.791 1.97676 0.390691 0
M  V30 4250 O 393.847 2.26127 1.12352 0
M  V30 4251 C 395.16 2.14221 -2.11021 0
M  V30 4252 C 396.708 2.27547 -2.14922 0
M  V30 4253 C 397.183 3.16164 -3.31367 0
M  V30 4254 N 398.674 3.23752 -3.31269 0
M  V30 4255 C 399.409 3.92495 -4.18014 0
M  V30 4256 N 398.905 4.63515 -5.14904 0
M  V30 4257 N 400.698 3.88838 -4.05908 0
M  V30 4258 H 392.849 0.57252 -2.04538 0
M  V30 4259 H 395.112 0.315184 -0.894071 0
M  V30 4260 H 394.818 1.71054 -3.073 0
M  V30 4261 H 394.692 3.14919 -2.0762 0
M  V30 4262 H 397.079 2.69947 -1.19217 0
M  V30 4263 H 397.16 1.26418 -2.22378 0
M  V30 4264 H 396.804 2.74474 -4.27348 0
M  V30 4265 H 396.734 4.17339 -3.21148 0
M  V30 4266 H 399.225 2.73167 -2.61129 0
M  V30 4267 H 399.538 5.13583 -5.77453 0
M  V30 4268 H 397.883 4.62398 -5.18857 0
M  V30 4269 H 401.074 3.32491 -3.29495 0
M  V30 4270 H 401.247 4.4214 -4.73726 0
M  V30 4271 N 394.653 0.992116 1.22453 0
M  V30 4272 C 395.899 0.668523 1.91464 0
M  V30 4273 C 396.232 -0.797313 1.77078 0
M  V30 4274 O 395.507 -1.5765 1.13916 0
M  V30 4275 C 395.79 1.07424 3.43703 0
M  V30 4276 C 395.643 2.59857 3.67143 0
M  V30 4277 C 396.962 0.626891 4.35612 0
M  V30 4278 H 394.081 0.244341 0.695318 0
M  V30 4279 H 396.723 1.2355 1.44345 0
M  V30 4280 H 394.873 0.591816 3.83966 0
M  V30 4281 H 396.545 3.15764 3.3629 0
M  V30 4282 H 394.788 3.01961 3.11451 0
M  V30 4283 H 395.459 2.83296 4.73759 0
M  V30 4284 H 397.935 1.04125 4.02861 0
M  V30 4285 H 396.811 0.939076 5.40807 0
M  V30 4286 H 397.072 -0.472457 4.39568 0
M  V30 4287 N 396.131 -1.37776 0.765217 0
M  V30 4288 C 397.377 -2.00145 0.327072 0
M  V30 4289 C 397.71 -1.60607 -1.09175 0
M  V30 4290 O 396.985 -0.849127 -1.74986 0
M  V30 4291 C 397.268 -3.57109 0.46319 0
M  V30 4292 C 397.121 -4.06576 1.92395 0
M  V30 4293 C 398.44 -4.39888 -0.136473 0
M  V30 4294 H 395.559 -0.727113 0.120316 0
M  V30 4295 H 398.201 -1.63549 0.967039 0
M  V30 4296 H 396.351 -3.88414 -0.0816358 0
M  V30 4297 H 398.023 -3.85864 2.52798 0
M  V30 4298 H 396.266 -3.59011 2.43503 0
M  V30 4299 H 396.937 -5.15639 1.97028 0
M  V30 4300 H 399.413 -4.14803 0.328317 0
M  V30 4301 H 398.289 -5.48899 -0.0110582 0
M  V30 4302 H 398.55 -4.24758 -1.22608 0
M  V30 4303 N 397.609 -0.515225 -1.4894 0
M  V30 4304 C 398.855 0.0242508 -2.02785 0
M  V30 4305 C 399.188 1.35323 -1.39289 0
M  V30 4306 O 398.463 1.87041 -0.533469 0
M  V30 4307 C 398.746 0.16184 -3.59736 0
M  V30 4308 C 398.599 -1.19127 -4.33738 0
M  V30 4309 C 399.918 0.895719 -4.30888 0
M  V30 4310 H 397.037 0.00733914 -0.736963 0
M  V30 4311 H 399.679 -0.669395 -1.77818 0
M  V30 4312 H 397.829 0.752624 -3.8114 0
M  V30 4313 H 399.501 -1.82202 -4.23792 0
M  V30 4314 H 397.744 -1.77695 -3.95736 0
M  V30 4315 H 398.415 -1.04815 -5.41957 0
M  V30 4316 H 400.891 0.394528 -4.14225 0
M  V30 4317 H 399.767 0.960859 -5.40425 0
M  V30 4318 H 400.028 1.9427 -3.97129 0
M  V30 4319 N 399.087 1.5561 -0.249682 0
M  V30 4320 C 400.017 2.24477 0.642826 0
M  V30 4321 C 400.998 1.22601 1.17911 0
M  V30 4322 O 402.183 1.5126 1.21795 0
M  V30 4323 C 399.313 2.94638 1.83863 0
M  V30 4324 C 398.267 4.03227 1.435 0
M  V30 4325 C 397.593 4.60828 2.71186 0
M  V30 4326 C 398.893 5.18796 0.604002 0
M  V30 4327 H 400.587 2.99321 0.0685625 0
M  V30 4328 H 398.133 1.43965 0.0315363 0
M  V30 4329 H 400.086 3.41517 2.46868 0
M  V30 4330 H 398.81 2.17287 2.43832 0
M  V30 4331 H 397.469 3.57121 0.828275 0
M  V30 4332 H 397.117 3.80174 3.29358 0
M  V30 4333 H 396.817 5.34132 2.44901 0
M  V30 4334 H 398.341 5.10442 3.35084 0
M  V30 4335 H 399.755 5.61883 1.13842 0
M  V30 4336 H 398.152 5.98506 0.437097 0
M  V30 4337 H 399.222 4.83384 -0.383147 0
M  V30 4338 N 400.565 -0.0233959 1.57583 0
M  V30 4339 C 401.498 -1.05549 2.02323 0
M  V30 4340 C 402.476 -1.34843 0.908626 0
M  V30 4341 O 403.66 -1.47404 1.17491 0
M  V30 4342 C 400.787 -2.38885 2.40108 0
M  V30 4343 C 399.833 -2.2541 3.62067 0
M  V30 4344 S 400.666 -1.60217 5.1097 0
M  V30 4345 C 401.822 -2.95032 5.52003 0
M  V30 4346 H 402.055 -0.674435 2.89549 0
M  V30 4347 H 399.588 -0.23355 1.52623 0
M  V30 4348 H 401.546 -3.15562 2.62547 0
M  V30 4349 H 400.207 -2.74137 1.53323 0
M  V30 4350 H 399.4 -3.23854 3.86179 0
M  V30 4351 H 399.002 -1.56876 3.39508 0
M  V30 4352 H 401.294 -3.91357 5.53033 0
M  V30 4353 H 402.237 -2.75646 6.52246 0
M  V30 4354 H 402.645 -2.97865 4.79517 0
M  V30 4355 N 402.043 -1.548 -0.295768 0
M  V30 4356 C 403.291 -1.73985 -1.02828 0
M  V30 4357 C 403.612 -0.531406 -1.87619 0
M  V30 4358 O 402.882 0.454221 -1.90561 0
M  V30 4359 H 401.462 -0.641556 -0.382642 0
M  V30 4360 H 404.124 -1.92163 -0.325489 0
M  V30 4361 H 403.22 -2.63129 -1.67838 0
M  V30 4362 N 403.521 0.559213 -1.47345 0
M  V30 4363 C 404.746 1.34676 -1.57725 0
M  V30 4364 C 405.171 1.86723 -0.227164 0
M  V30 4365 O 404.529 1.6286 0.796642 0
M  V30 4366 C 404.577 2.49399 -2.60447 0
M  V30 4367 O 403.681 3.51567 -2.15578 0
M  V30 4368 H 403.022 0.400115 -0.52991 0
M  V30 4369 H 405.552 0.676009 -1.93109 0
M  V30 4370 H 405.562 2.95996 -2.80803 0
M  V30 4371 H 404.237 2.10873 -3.58477 0
M  V30 4372 H 402.814 3.11289 -2.05313 0
M  V30 4373 N 404.999 1.35443 0.805782 0
M  V30 4374 C 406.227 1.31878 1.59423 0
M  V30 4375 C 406.642 -0.103562 1.88516 0
M  V30 4376 O 405.999 -1.05575 1.48863 0
M  V30 4377 C 406.05 2.12426 2.92502 0
M  V30 4378 O 405.771 3.49115 2.6467 0
M  V30 4379 C 407.272 2.16455 3.86862 0
M  V30 4380 H 404.492 0.453002 0.495005 0
M  V30 4381 H 407.036 1.78309 1.00131 0
M  V30 4382 H 405.191 1.69593 3.48306 0
M  V30 4383 H 405.605 3.90957 3.49647 0
M  V30 4384 H 407.079 2.77204 4.77349 0
M  V30 4385 H 407.556 1.16352 4.23508 0
M  V30 4386 H 408.162 2.59453 3.36993 0
M  V30 4387 N 406.477 -1.02803 1.19454 0
M  V30 4388 C 407.702 -1.80378 1.02364 0
M  V30 4389 C 408.127 -1.83282 -0.423007 0
M  V30 4390 O 407.485 -1.25945 -1.30413 0
M  V30 4391 C 407.533 -3.23248 1.59821 0
M  V30 4392 O 406.637 -4.04 0.828105 0
M  V30 4393 H 405.978 -0.556799 0.361761 0
M  V30 4394 H 408.508 -1.29385 1.58495 0
M  V30 4395 H 408.518 -3.73994 1.63073 0
M  V30 4396 H 407.193 -3.2045 2.65113 0
M  V30 4397 H 405.77 -3.62635 0.86891 0
M  V30 4398 N 407.956 -0.998596 -1.21925 0
M  V30 4399 C 409.233 -0.593401 -1.86382 0
M  V30 4400 C 409.613 0.92916 -1.89552 0
M  V30 4401 O 408.961 1.81347 -1.39017 0
M  V30 4402 C 409.171 -1.22039 -3.26967 0
M  V30 4403 C 410.519 -1.32449 -4.03413 0
M  V30 4404 O 411.543 -1.17522 -3.36254 0
M  V30 4405 O 410.402 -1.56395 -5.23644 0
M  V30 4406 H 407.496 -0.202385 -0.801854 0
M  V30 4407 H 410.042 -1.09484 -1.29659 0
M  V30 4408 H 408.814 -2.26158 -3.19325 0
M  V30 4409 H 408.437 -0.704906 -3.91301 0
M  V30 4410 N 409.434 1.37368 -0.772513 0
M  V30 4411 C 410.364 2.32856 -0.173304 0
M  V30 4412 C 411.345 1.55818 0.682262 0
M  V30 4413 O 412.53 1.84052 0.619566 0
M  V30 4414 C 409.66 3.40048 0.706007 0
M  V30 4415 C 408.614 4.27973 -0.0483144 0
M  V30 4416 C 407.94 5.26184 0.950491 0
M  V30 4417 C 409.24 5.07665 -1.22776 0
M  V30 4418 H 410.934 2.83217 -0.971002 0
M  V30 4419 H 408.48 1.3617 -0.468377 0
M  V30 4420 H 410.433 4.05827 1.13501 0
M  V30 4421 H 409.157 2.88214 1.53623 0
M  V30 4422 H 407.816 3.63726 -0.458107 0
M  V30 4423 H 407.464 4.7063 1.77529 0
M  V30 4424 H 407.164 5.85872 0.450314 0
M  V30 4425 H 408.688 5.94838 1.37842 0
M  V30 4426 H 410.102 5.66578 -0.875366 0
M  V30 4427 H 408.499 5.76681 -1.66007 0
M  V30 4428 H 409.569 4.40294 -2.03149 0
M  V30 4429 N 410.912 0.523116 1.48665 0
M  V30 4430 C 412.16 -0.0134497 2.02096 0
M  V30 4431 C 412.481 -1.35418 1.40311 0
M  V30 4432 O 411.751 -1.87543 0.566074 0
M  V30 4433 H 410.331 -0.00795915 0.746958 0
M  V30 4434 H 412.993 0.685388 1.82451 0
M  V30 4435 H 412.089 -0.126849 3.11842 0
M  V30 4436 N 412.39 -1.55475 0.257931 0
M  V30 4437 C 413.34 -2.18506 -0.651094 0
M  V30 4438 C 414.324 -1.14431 -1.13112 0
M  V30 4439 O 415.516 -1.40305 -1.07905 0
M  V30 4440 C 412.645 -2.89653 -1.84272 0
M  V30 4441 C 411.731 -4.00996 -1.38068 0
M  V30 4442 N 412.122 -5.01816 -0.633609 0
M  V30 4443 C 410.42 -4.13753 -1.66506 0
M  V30 4444 C 411.121 -5.80371 -0.392922 0
M  V30 4445 N 410.097 -5.3505 -0.960359 0
M  V30 4446 H 413.899 -2.93811 -0.0722883 0
M  V30 4447 H 411.413 -1.62286 0.0607256 0
M  V30 4448 H 413.41 -3.33245 -2.50506 0
M  V30 4449 H 412.07 -2.15854 -2.42564 0
M  V30 4450 H 413.081 -5.17128 -0.282626 0
M  V30 4451 H 409.758 -3.51133 -2.25858 0
M  V30 4452 H 411.148 -6.7159 0.204235 0
M  V30 4453 N 413.868 0.0150385 -1.57593 0
M  V30 4454 C 415.108 0.70768 -1.91758 0
M  V30 4455 C 415.472 1.71764 -0.857974 0
M  V30 4456 O 416.673 2.45956 -1.0844 0
M  V30 4457 C 414.944 1.34736 -3.3103 0
M  V30 4458 S 416.503 2.06721 -3.87056 0
M  V30 4459 H 413.321 0.234119 -0.671349 0
M  V30 4460 H 415.923 -0.0380373 -1.95463 0
M  V30 4461 H 414.627 0.59926 -4.06001 0
M  V30 4462 H 414.158 2.13133 -3.30663 0
M  V30 4463 H 416.173 3.34047 -3.66915 0
M  V30 4464 N 415.346 1.54954 0.287554 0
M  V30 4465 C 416.256 1.8991 1.37736 0
M  V30 4466 C 417.272 0.794701 1.54792 0
M  V30 4467 O 418.448 1.09243 1.69198 0
M  V30 4468 C 415.513 2.15108 2.71899 0
M  V30 4469 C 414.574 3.38752 2.63715 0
M  V30 4470 C 413.807 3.62739 3.91479 0
M  V30 4471 O 414.03 2.89492 4.91478 0
M  V30 4472 O 412.964 4.56267 3.92561 0
M  V30 4473 H 416.79 2.82652 1.11092 0
M  V30 4474 H 414.375 1.41315 0.484807 0
M  V30 4475 H 416.257 2.32806 3.51254 0
M  V30 4476 H 414.932 1.25551 2.9836 0
M  V30 4477 H 413.839 3.26405 1.82786 0
M  V30 4478 H 415.172 4.28483 2.42205 0
M  V30 4479 N 416.824 -0.551391 1.4764 0
M  V30 4480 C 417.771 -1.65796 1.60563 0
M  V30 4481 C 418.741 -1.59932 0.448428 0
M  V30 4482 O 419.926 -1.78679 0.669222 0
M  V30 4483 C 417.066 -3.04108 1.63133 0
M  V30 4484 C 416.179 -3.20365 2.89811 0
M  V30 4485 C 415.314 -4.49109 2.8368 0
M  V30 4486 C 414.353 -4.58819 4.05156 0
M  V30 4487 N 413.49 -5.78926 3.97227 0
M  V30 4488 H 418.33 -1.54088 2.5507 0
M  V30 4489 H 415.867 -0.75052 1.26513 0
M  V30 4490 H 417.825 -3.84207 1.62606 0
M  V30 4491 H 416.455 -3.14637 0.721341 0
M  V30 4492 H 415.507 -2.33659 3.00179 0
M  V30 4493 H 416.819 -3.23402 3.79753 0
M  V30 4494 H 415.973 -5.37475 2.81434 0
M  V30 4495 H 414.712 -4.4856 1.91431 0
M  V30 4496 H 413.717 -3.68864 4.077 0
M  V30 4497 H 414.942 -4.61124 4.98539 0
M  V30 4498 H 412.888 -5.79314 3.07785 0
M  V30 4499 H 412.805 -5.83367 4.80853 0
M  V30 4500 H 414.073 -6.69637 3.99007 0
M  V30 4501 N 418.302 -1.35869 -0.798587 0
M  V30 4502 C 419.551 -1.28921 -1.5512 0
M  V30 4503 C 419.864 0.13208 -1.95154 0
M  V30 4504 O 421.07 0.323879 -2.69561 0
M  V30 4505 C 419.526 -2.26141 -2.79979 0
M  V30 4506 C 419.134 -3.73658 -2.47151 0
M  V30 4507 C 420.878 -2.28152 -3.57976 0
M  V30 4508 C 418.785 -4.62679 -3.6835 0
M  V30 4509 H 417.715 -0.479031 -0.582276 0
M  V30 4510 H 420.366 -1.61179 -0.877125 0
M  V30 4511 H 418.748 -1.86865 -3.49138 0
M  V30 4512 H 419.922 -4.21616 -1.85947 0
M  V30 4513 H 418.237 -3.74333 -1.82383 0
M  V30 4514 H 420.834 -2.91875 -4.4801 0
M  V30 4515 H 421.177 -1.28748 -3.95891 0
M  V30 4516 H 421.71 -2.65998 -2.95787 0
M  V30 4517 H 418.449 -5.63111 -3.35538 0
M  V30 4518 H 417.969 -4.19442 -4.28752 0
M  V30 4519 H 419.648 -4.78498 -4.35487 0
M  V30 4520 N 419.78 1.02168 -1.19998 0
M  V30 4521 C 420.727 2.10601 -0.944228 0
M  V30 4522 C 421.697 1.65639 0.123664 0
M  V30 4523 O 422.882 1.9079 -0.0199941 0
M  V30 4524 C 420.022 3.41504 -0.496865 0
M  V30 4525 C 419.135 3.99973 -1.63234 0
M  V30 4526 C 418.27 5.18915 -1.13579 0
M  V30 4527 C 417.309 5.69456 -2.24468 0
M  V30 4528 N 416.446 6.79665 -1.76068 0
M  V30 4529 H 421.286 2.31814 -1.8726 0
M  V30 4530 H 418.823 1.13686 -0.933483 0
M  V30 4531 H 420.781 4.16626 -0.218843 0
M  V30 4532 H 419.411 3.2038 0.394508 0
M  V30 4533 H 418.463 3.21997 -2.0254 0
M  V30 4534 H 419.775 4.33492 -2.46752 0
M  V30 4535 H 418.929 6.01222 -0.813429 0
M  V30 4536 H 417.668 4.8695 -0.270434 0
M  V30 4537 H 416.673 4.85757 -2.57526 0
M  V30 4538 H 417.898 6.03459 -3.11472 0
M  V30 4539 H 415.844 6.49538 -0.918516 0
M  V30 4540 H 415.761 7.12349 -2.5317 0
M  V30 4541 H 417.029 7.65549 -1.46817 0
M  V30 4542 N 421.258 1.00505 1.21394 0
M  V30 4543 C 422.205 0.565496 2.23765 0
M  V30 4544 C 423.175 -0.408466 1.60999 0
M  V30 4545 O 424.36 -0.310503 1.88257 0
M  V30 4546 C 421.5 -0.101667 3.4495 0
M  V30 4547 C 420.613 0.915479 4.22188 0
M  V30 4548 C 419.748 0.220574 5.30742 0
M  V30 4549 C 418.787 1.22527 5.99711 0
M  V30 4550 N 417.924 0.557831 6.9988 0
M  V30 4551 H 422.764 1.44314 2.60725 0
M  V30 4552 H 420.301 0.722643 1.28126 0
M  V30 4553 H 422.259 -0.505504 4.14126 0
M  V30 4554 H 420.889 -0.94303 3.08718 0
M  V30 4555 H 419.941 1.43756 3.52191 0
M  V30 4556 H 421.253 1.68005 4.69655 0
M  V30 4557 H 420.407 -0.239368 6.06228 0
M  V30 4558 H 419.146 -0.576401 4.84282 0
M  V30 4559 H 418.151 1.69571 5.22997 0
M  V30 4560 H 419.376 2.02332 6.48258 0
M  V30 4561 H 417.322 -0.219486 6.55633 0
M  V30 4562 H 417.239 1.26065 7.45415 0
M  V30 4563 H 418.507 0.121095 7.79406 0
M  V30 4564 N 422.737 -1.36956 0.779787 0
M  V30 4565 C 423.7 -2.2851 0.177662 0
M  V30 4566 C 424.7 -1.48393 -0.619377 0
M  V30 4567 O 425.89 -1.68505 -0.441785 0
M  V30 4568 C 423.022 -3.32428 -0.755279 0
M  V30 4569 H 424.215 -2.83269 0.984823 0
M  V30 4570 H 421.768 -1.46358 0.548544 0
M  V30 4571 H 422.503 -2.82808 -1.58714 0
M  V30 4572 H 422.288 -3.91659 -0.185817 0
M  V30 4573 H 423.778 -4.00824 -1.17174 0
M  V30 4574 N 424.215 -0.530993 -1.48385 0
M  V30 4575 C 425.455 0.000718982 -2.044 0
M  V30 4576 C 425.819 1.31485 -1.39913 0
M  V30 4577 O 427.02 1.93265 -1.86821 0
M  V30 4578 C 425.291 0.119177 -3.57201 0
M  V30 4579 S 426.85 0.600806 -4.34667 0
M  V30 4580 H 423.668 -0.0125473 -0.710889 0
M  V30 4581 H 426.27 -0.711783 -1.82082 0
M  V30 4582 H 424.974 -0.842061 -4.01668 0
M  V30 4583 H 424.505 0.856026 -3.83974 0
M  V30 4584 H 426.52 1.86514 -4.59812 0
M  V30 4585 N 425.693 1.55336 -0.266172 0
M  V30 4586 C 426.941 1.99003 0.35246 0
M  V30 4587 C 427.262 1.15591 1.57047 0
M  V30 4588 O 426.532 0.243268 1.94384 0
M  V30 4589 H 425.112 0.735025 0.133217 0
M  V30 4590 H 427.774 1.91367 -0.369434 0
M  V30 4591 H 426.87 3.05289 0.648453 0
M  V30 4592 N 427.171 -0.0066808 1.57599 0
M  V30 4593 C 428.119 -1.01851 2.09115 0
M  V30 4594 C 429.113 -1.36021 1.00969 0
M  V30 4595 O 430.319 -1.34663 1.19439 0
M  V30 4596 H 426.694 -0.346083 0.667631 0
M  V30 4597 H 428.665 -0.558394 2.93129 0
M  V30 4598 C 427.414 -2.30374 2.60429 0
M  V30 4599 H 426.737 -2.04947 3.43273 0
M  V30 4600 H 428.177 -2.99466 3.00161 0
M  V30 4601 C 426.636 -3.00893 1.51542 0
M  V30 4602 O 427.166 -3.91614 0.894484 0
M  V30 4603 N 425.372 -2.62603 1.2445 0
M  V30 4604 H 424.919 -1.88911 1.75129 0
M  V30 4605 H 424.877 -3.10101 0.518137 0
M  V30 4606 N 428.649 -1.55105 -0.279332 0
M  V30 4607 C 429.896 -1.75412 -1.01177 0
M  V30 4608 C 430.224 -0.551728 -1.86511 0
M  V30 4609 O 429.479 0.465919 -1.90073 0
M  V30 4610 C 429.778 -3.0086 -1.92919 0
M  V30 4611 C 429.444 -4.33689 -1.23387 0
M  V30 4612 C 428.106 -4.69792 -1.04159 0
M  V30 4613 C 430.458 -5.15941 -0.738562 0
M  V30 4614 C 427.786 -5.85707 -0.341166 0
M  V30 4615 C 430.138 -6.32579 -0.0517636 0
M  V30 4616 C 428.802 -6.67326 0.152292 0
M  V30 4617 H 428.072 -0.641879 -0.370233 0
M  V30 4618 H 430.719 -1.89373 -0.284627 0
M  V30 4619 H 429.024 -2.81773 -2.72234 0
M  V30 4620 H 430.721 -3.13768 -2.49701 0
M  V30 4621 H 427.311 -4.05309 -1.39364 0
M  V30 4622 H 431.495 -4.8853 -0.874764 0
M  V30 4623 H 426.751 -6.11157 -0.172287 0
M  V30 4624 H 430.925 -6.9557 0.339828 0
M  V30 4625 H 428.552 -7.56998 0.697014 0
M  V30 4626 N 430.127 0.543554 -1.4793 0
M  V30 4627 C 431.375 1.29752 -1.54948 0
M  V30 4628 C 431.696 1.93764 -0.219242 0
M  V30 4629 O 430.966 1.80639 0.75805 0
M  V30 4630 H 429.546 0.481874 -0.570795 0
M  V30 4631 H 432.208 0.633636 -1.84312 0
M  V30 4632 H 431.304 2.08392 -2.32334 0
M  V30 4633 N 431.605 1.3629 0.791371 0
M  V30 4634 C 432.854 1.29742 1.54434 0
M  V30 4635 C 433.167 -0.121729 1.95221 0
M  V30 4636 O 434.373 -0.309579 2.69729 0
M  V30 4637 C 432.829 2.27623 2.78776 0
M  V30 4638 C 432.437 3.74963 2.45166 0
M  V30 4639 C 434.181 2.30047 3.56761 0
M  V30 4640 C 432.088 4.64626 3.65891 0
M  V30 4641 H 431.018 0.482113 0.579727 0
M  V30 4642 H 433.669 1.61642 0.868565 0
M  V30 4643 H 432.051 1.88714 3.48142 0
M  V30 4644 H 433.225 4.22596 1.83709 0
M  V30 4645 H 431.54 3.75295 1.80396 0
M  V30 4646 H 434.137 2.94247 4.46456 0
M  V30 4647 H 434.48 1.30846 3.95203 0
M  V30 4648 H 435.013 2.67563 2.94372 0
M  V30 4649 H 431.752 5.64883 3.32547 0
M  V30 4650 H 431.272 4.2171 4.26521 0
M  V30 4651 H 432.951 4.80801 4.32943 0
M  V30 4652 N 433.083 -1.0153 1.20538 0
M  V30 4653 C 434.494 -1.56598 1.01657 0
M  V30 4654 C 434.845 -1.91505 -0.426668 0
M  V30 4655 O 433.97 -1.72375 -1.30827 0
M  V30 4656 C 434.565 -2.84542 1.83905 0
M  V30 4657 C 433.124 -3.36133 1.69386 0
M  V30 4658 C 432.271 -2.09427 1.81757 0
M  V30 4659 H 435.222 -0.838974 1.34711 0
M  V30 4660 H 435.243 -3.56004 1.34319 0
M  V30 4661 H 434.755 -2.59105 2.8894 0
M  V30 4662 H 432.856 -3.66528 0.669933 0
M  V30 4663 H 432.969 -4.08248 2.50739 0
M  V30 4664 H 431.333 -2.21941 1.24957 0
M  V30 4665 H 432.116 -1.86414 2.88279 0
M  V30 4666 N 434.561 -1.01147 -1.20859 0
M  V30 4667 C 435.801 -0.706331 -1.91808 0
M  V30 4668 C 436.165 0.749736 -1.76757 0
M  V30 4669 O 437.366 1.16716 -2.42138 0
M  V30 4670 C 435.637 -1.12371 -3.39275 0
M  V30 4671 S 437.196 -0.939764 -4.28619 0
M  V30 4672 H 434.014 -0.257665 -0.662669 0
M  V30 4673 H 436.616 -1.29766 -1.46223 0
M  V30 4674 H 435.32 -2.17943 -3.47749 0
M  V30 4675 H 434.851 -0.524952 -3.89882 0
M  V30 4676 H 436.866 0.159556 -4.95943 0
M  V30 4677 N 436.039 1.36541 -0.78704 0
M  V30 4678 C 436.949 2.3387 -0.184896 0
M  V30 4679 C 437.965 1.60927 0.661697 0
M  V30 4680 O 439.141 1.92927 0.57804 0
M  V30 4681 C 436.206 3.40122 0.672145 0
M  V30 4682 C 435.267 4.28867 -0.19267 0
M  V30 4683 C 434.5 5.30045 0.623561 0
M  V30 4684 O 434.723 5.39232 1.8597 0
M  V30 4685 O 433.657 6.01895 0.0247068 0
M  V30 4686 H 437.483 2.87126 -0.989562 0
M  V30 4687 H 435.068 1.38969 -0.548455 0
M  V30 4688 H 436.95 4.05093 1.16094 0
M  V30 4689 H 435.625 2.89169 1.45474 0
M  V30 4690 H 434.532 3.66945 -0.728166 0
M  V30 4691 H 435.865 4.83165 -0.938722 0
M  V30 4692 N 437.518 0.538854 1.48102 0
M  V30 4693 C 438.448 -0.207654 2.32575 0
M  V30 4694 C 439.429 -0.926559 1.4265 0
M  V30 4695 O 440.614 -0.91061 1.71527 0
M  V30 4696 C 437.744 -1.24957 3.24042 0
M  V30 4697 C 436.698 -0.648263 4.23062 0
M  V30 4698 C 436.024 -1.79348 5.03725 0
M  V30 4699 C 437.324 0.385897 5.20872 0
M  V30 4700 H 439.018 0.497534 2.95237 0
M  V30 4701 H 436.564 0.240715 1.41974 0
M  V30 4702 H 438.517 -1.77983 3.81969 0
M  V30 4703 H 437.241 -1.98446 2.59397 0
M  V30 4704 H 435.9 -0.139452 3.66335 0
M  V30 4705 H 435.548 -2.51696 4.35498 0
M  V30 4706 H 435.248 -1.39702 5.70751 0
M  V30 4707 H 436.772 -2.32735 5.64506 0
M  V30 4708 H 438.186 -0.057607 5.73271 0
M  V30 4709 H 436.583 0.700227 5.96001 0
M  V30 4710 H 437.653 1.28848 4.67468 0
M  V30 4711 N 438.996 -1.55193 0.274407 0
M  V30 4712 C 440.412 -1.59401 -0.0797543 0
M  V30 4713 C 440.612 -1.29162 -1.54659 0
M  V30 4714 O 439.668 -1.05215 -2.29534 0
M  V30 4715 C 440.981 -2.99257 0.294238 0
M  V30 4716 C 442.529 -3.12072 0.240796 0
M  V30 4717 C 443.004 -4.54194 0.589218 0
M  V30 4718 N 444.495 -4.60033 0.540744 0
M  V30 4719 C 445.23 -5.68027 0.783147 0
M  V30 4720 N 444.726 -6.8417 1.09013 0
M  V30 4721 N 446.519 -5.57572 0.711993 0
M  V30 4722 H 438.67 -1.73113 1.23067 0
M  V30 4723 H 440.933 -0.807197 0.497129 0
M  V30 4724 H 440.639 -3.26217 1.31435 0
M  V30 4725 H 440.513 -3.75427 -0.365281 0
M  V30 4726 H 442.9 -2.84877 -0.770024 0
M  V30 4727 H 442.981 -2.38117 0.934563 0
M  V30 4728 H 442.625 -4.82115 1.59772 0
M  V30 4729 H 442.555 -5.26448 -0.126331 0
M  V30 4730 H 445.046 -3.76599 0.313327 0
M  V30 4731 H 445.359 -7.6243 1.26178 0
M  V30 4732 H 443.704 -6.85787 1.12789 0
M  V30 4733 H 446.895 -4.65714 0.472014 0
M  V30 4734 H 447.068 -6.41659 0.90429 0
M  V30 4735 N 440.474 -0.00167713 -1.576 0
M  V30 4736 C 441.72 0.683832 -1.90923 0
M  V30 4737 C 442.053 1.7333 -0.875799 0
M  V30 4738 O 441.328 1.94215 0.10525 0
M  V30 4739 C 441.611 1.32543 -3.3482 0
M  V30 4740 C 441.464 0.287387 -4.48881 0
M  V30 4741 C 442.783 2.25114 -3.78169 0
M  V30 4742 H 439.902 0.247125 -0.694333 0
M  V30 4743 H 442.544 -0.0533149 -1.89925 0
M  V30 4744 H 440.694 1.95372 -3.35801 0
M  V30 4745 H 442.366 -0.341346 -4.60035 0
M  V30 4746 H 440.609 -0.39017 -4.32042 0
M  V30 4747 H 441.28 0.775393 -5.46527 0
M  V30 4748 H 443.756 1.723 -3.7875 0
M  V30 4749 H 442.632 2.66971 -4.79602 0
M  V30 4750 H 442.893 3.13092 -3.12131 0
M  V30 4751 N 441.952 1.55251 0.271103 0
M  V30 4752 C 443.18 1.79974 1.02064 0
M  V30 4753 C 443.595 0.574003 1.79863 0
M  V30 4754 O 442.952 -0.456962 1.76686 0
M  V30 4755 C 443.003 3.02603 1.97772 0
M  V30 4756 O 442.724 4.20443 1.23124 0
M  V30 4757 C 444.225 3.39944 2.84522 0
M  V30 4758 H 441.445 0.599489 0.301419 0
M  V30 4759 H 443.989 2.02268 0.301313 0
M  V30 4760 H 442.144 2.8243 2.65165 0
M  V30 4761 H 442.558 4.89783 1.87651 0
M  V30 4762 H 444.032 4.28915 3.47471 0
M  V30 4763 H 444.509 2.59432 3.54389 0
M  V30 4764 H 445.115 3.62383 2.22618 0
M  V30 4765 N 443.43 -0.535701 1.48216 0
M  V30 4766 C 444.655 -1.32149 1.59848 0
M  V30 4767 C 445.08 -1.86338 0.256842 0
M  V30 4768 O 444.438 -1.64107 -0.770632 0
M  V30 4769 C 444.486 -2.45224 2.64381 0
M  V30 4770 O 443.59 -3.48093 2.21144 0
M  V30 4771 H 442.931 -0.391634 0.536208 0
M  V30 4772 H 445.461 -0.645202 1.94161 0
M  V30 4773 H 445.471 -2.91491 2.85476 0
M  V30 4774 H 444.146 -2.05143 3.61786 0
M  V30 4775 H 442.723 -3.07984 2.10239 0
M  V30 4776 N 444.908 -1.36708 -0.784132 0
M  V30 4777 C 445.871 -1.31307 -1.87859 0
M  V30 4778 C 446.871 -0.219654 -1.59293 0
M  V30 4779 O 448.061 -0.47476 -1.67606 0
M  V30 4780 C 445.193 -1.03679 -3.24751 0
M  V30 4781 H 446.386 -2.28647 -1.94064 0
M  V30 4782 H 443.939 -1.21558 -0.98252 0
M  V30 4783 H 444.674 -0.0681936 -3.24228 0
M  V30 4784 H 444.459 -1.82811 -3.46876 0
M  V30 4785 H 445.949 -1.02518 -4.04821 0
M  V30 4786 N 446.386 1.0089 -1.21074 0
M  V30 4787 C 447.336 2.0799 -0.934034 0
M  V30 4788 C 448.32 1.60529 0.10919 0
M  V30 4789 O 449.512 1.76722 -0.0992198 0
M  V30 4790 C 446.641 3.39693 -0.496334 0
M  V30 4791 C 445.727 3.93833 -1.57341 0
M  V30 4792 N 446.118 4.21388 -2.7976 0
M  V30 4793 C 444.416 4.22067 -1.44137 0
M  V30 4794 C 445.117 4.65156 -3.49292 0
M  V30 4795 N 444.093 4.67895 -2.76722 0
M  V30 4796 H 447.895 2.27213 -1.86417 0
M  V30 4797 H 445.409 1.18927 -1.10589 0
M  V30 4798 H 447.406 4.15962 -0.279471 0
M  V30 4799 H 446.066 3.21879 0.427084 0
M  V30 4800 H 447.077 4.10061 -3.1634 0
M  V30 4801 H 443.754 4.1341 -0.582947 0
M  V30 4802 H 445.144 4.95231 -4.54088 0
M  V30 4803 N 447.864 1.01787 1.20321 0
M  V30 4804 C 448.811 0.589197 2.23153 0
M  V30 4805 C 449.781 -0.391367 1.61423 0
M  V30 4806 O 450.966 -0.290518 1.88575 0
M  V30 4807 C 448.106 -0.0650747 3.45039 0
M  V30 4808 C 447.219 0.960207 4.21194 0
M  V30 4809 C 446.354 0.276854 5.30478 0
M  V30 4810 C 445.393 1.2888 5.98378 0
M  V30 4811 N 444.53 0.632031 6.99249 0
M  V30 4812 H 449.37 1.47071 2.59179 0
M  V30 4813 H 446.907 0.736192 1.27352 0
M  V30 4814 H 448.865 -0.461552 4.14639 0
M  V30 4815 H 447.495 -0.910233 3.09701 0
M  V30 4816 H 446.547 1.47484 3.50646 0
M  V30 4817 H 447.859 1.72977 4.67847 0
M  V30 4818 H 447.013 -0.175056 6.06447 0
M  V30 4819 H 445.752 -0.525004 4.84866 0
M  V30 4820 H 444.757 1.75109 5.21169 0
M  V30 4821 H 445.982 2.09196 6.46076 0
M  V30 4822 H 443.928 -0.149935 6.55829 0
M  V30 4823 H 443.845 1.33964 7.44036 0
M  V30 4824 H 445.113 0.203755 7.79234 0
M  V30 4825 N 449.342 -1.36122 0.79427 0
M  V30 4826 C 450.59 -1.98718 0.368177 0
M  V30 4827 C 450.911 -1.63345 -1.06506 0
M  V30 4828 O 450.181 -0.909825 -1.73491 0
M  V30 4829 H 448.761 -0.735038 0.133146 0
M  V30 4830 H 451.423 -1.66239 1.01739 0
M  V30 4831 H 450.519 -3.08633 0.463923 0
M  V30 4832 N 450.82 -0.546701 -1.47814 0
M  V30 4833 C 452.231 -0.110564 -1.86372 0
M  V30 4834 C 452.582 1.31678 -1.45449 0
M  V30 4835 O 451.707 1.98889 -0.852758 0
M  V30 4836 C 452.302 -0.193873 -3.38245 0
M  V30 4837 C 450.861 0.187164 -3.75934 0
M  V30 4838 C 450.008 -0.546166 -2.71868 0
M  V30 4839 H 452.959 -0.757022 -1.39481 0
M  V30 4840 H 452.98 0.590218 -3.75895 0
M  V30 4841 H 452.492 -1.23282 -3.67999 0
M  V30 4842 H 450.593 1.22762 -3.51796 0
M  V30 4843 H 450.706 -0.164083 -4.78819 0
M  V30 4844 H 449.07 0.00953904 -2.54698 0
M  V30 4845 H 449.853 -1.58606 -3.04465 0
M  V30 4846 N 452.299 1.55045 -0.282633 0
M  V30 4847 C 453.576 1.9179 0.384166 0
M  V30 4848 C 453.956 1.20778 1.73136 0
M  V30 4849 O 453.304 0.33719 2.25998 0
M  V30 4850 C 453.514 3.45149 0.517014 0
M  V30 4851 C 454.862 4.17064 0.796427 0
M  V30 4852 O 455.886 3.51084 0.601535 0
M  V30 4853 O 454.745 5.33837 1.16962 0
M  V30 4854 H 451.839 0.799483 0.211558 0
M  V30 4855 H 454.385 1.66474 -0.32934 0
M  V30 4856 H 453.157 3.88922 -0.430772 0
M  V30 4857 H 452.78 3.76443 1.2797 0
M  V30 4858 N 453.777 0.010035 1.57597 0
M  V30 4859 C 454.687 -0.994226 2.12491 0
M  V30 4860 C 455.703 -1.37013 1.07254 0
M  V30 4861 O 456.879 -1.45542 1.3921 0
M  V30 4862 C 453.944 -2.2642 2.62555 0
M  V30 4863 C 453.005 -1.95049 3.82432 0
M  V30 4864 C 452.238 -3.15991 4.30099 0
M  V30 4865 O 452.461 -4.28015 3.7704 0
M  V30 4866 O 451.395 -2.99403 5.22151 0
M  V30 4867 H 455.221 -0.557549 2.98538 0
M  V30 4868 H 452.806 -0.209413 1.47925 0
M  V30 4869 H 454.688 -3.01009 2.9491 0
M  V30 4870 H 453.363 -2.69306 1.796 0
M  V30 4871 H 452.27 -1.17904 3.55034 0
M  V30 4872 H 453.603 -1.56992 4.66491 0
M  V30 4873 N 455.255 -1.55392 -0.262866 0
M  V30 4874 C 456.483 -1.80513 -1.01108 0
M  V30 4875 C 456.898 -0.583533 -1.79556 0
M  V30 4876 O 456.255 0.447585 -1.76926 0
M  V30 4877 C 456.306 -3.03648 -1.96164 0
M  V30 4878 O 456.027 -4.2109 -1.20893 0
M  V30 4879 C 457.528 -3.41448 -2.82715 0
M  V30 4880 H 454.748 -0.601079 -0.298236 0
M  V30 4881 H 457.292 -2.02425 -0.290582 0
M  V30 4882 H 455.447 -2.83832 -2.63663 0
M  V30 4883 H 455.861 -4.90771 -1.85051 0
M  V30 4884 H 457.335 -4.30751 -3.45192 0
M  V30 4885 H 457.812 -2.61308 -3.53008 0
M  V30 4886 H 458.418 -3.63559 -2.20693 0
M  V30 4887 N 456.733 0.527833 -1.48498 0
M  V30 4888 C 457.663 1.64136 -1.66077 0
M  V30 4889 C 458.644 1.62286 -0.509625 0
M  V30 4890 O 459.829 1.79449 -0.742413 0
M  V30 4891 C 456.959 3.02717 -1.70234 0
M  V30 4892 C 455.913 3.19426 -2.8487 0
M  V30 4893 C 455.239 4.5909 -2.74118 0
M  V30 4894 C 456.539 3.01993 -4.26142 0
M  V30 4895 H 458.233 1.4968 -2.593 0
M  V30 4896 H 455.779 0.718654 -1.24785 0
M  V30 4897 H 457.732 3.80491 -1.8112 0
M  V30 4898 H 456.456 3.18201 -0.735911 0
M  V30 4899 H 455.115 2.4407 -2.73542 0
M  V30 4900 H 454.763 4.71413 -1.7544 0
M  V30 4901 H 454.463 4.71214 -3.51042 0
M  V30 4902 H 455.987 5.3896 -2.86974 0
M  V30 4903 H 457.401 3.69558 -4.38292 0
M  V30 4904 H 455.798 3.2561 -5.04082 0
M  V30 4905 H 456.868 1.98396 -4.42456 0
M  V30 4906 N 458.211 1.37122 0.776871 0
M  V30 4907 C 459.627 1.1781 1.07671 0
M  V30 4908 C 459.827 0.0107454 2.01497 0
M  V30 4909 O 458.883 -0.650756 2.4397 0
M  V30 4910 C 460.196 2.49451 1.67913 0
M  V30 4911 C 461.744 2.55927 1.80195 0
M  V30 4912 C 462.219 3.87686 2.43851 0
M  V30 4913 N 463.71 3.891 2.51307 0
M  V30 4914 C 464.445 4.87797 3.014 0
M  V30 4915 N 463.941 5.96888 3.51705 0
M  V30 4916 N 465.734 4.75205 3.00227 0
M  V30 4917 H 457.885 2.11843 0.153778 0
M  V30 4918 H 460.148 0.938927 0.130844 0
M  V30 4919 H 459.854 3.35207 1.06439 0
M  V30 4920 H 459.728 2.66169 2.67271 0
M  V30 4921 H 462.115 1.70582 2.40803 0
M  V30 4922 H 462.196 2.43097 0.796069 0
M  V30 4923 H 461.84 4.73444 1.83884 0
M  V30 4924 H 461.77 3.97817 3.45035 0
M  V30 4925 H 464.261 3.10293 2.157 0
M  V30 4926 H 464.574 6.68155 3.88316 0
M  V30 4927 H 462.919 6.0054 3.49824 0
M  V30 4928 H 466.11 3.89103 2.60224 0
M  V30 4929 H 466.283 5.52279 3.38957 0
M  V30 4930 N 459.689 -1.00246 1.21608 0
M  V30 4931 C 460.938 -1.73476 1.02902 0
M  V30 4932 C 461.251 -1.90643 -0.437561 0
M  V30 4933 O 462.457 -2.61105 -0.74407 0
M  V30 4934 C 460.913 -3.12079 1.79261 0
M  V30 4935 C 460.521 -3.02877 3.30106 0
M  V30 4936 C 462.265 -3.89421 1.68972 0
M  V30 4937 C 460.172 -4.36575 3.98944 0
M  V30 4938 H 459.102 -0.650408 0.381425 0
M  V30 4939 H 461.753 -1.11985 1.45367 0
M  V30 4940 H 460.135 -3.74196 1.2959 0
M  V30 4941 H 461.309 -2.49983 3.87098 0
M  V30 4942 H 459.624 -2.39022 3.40965 0
M  V30 4943 H 462.221 -4.88362 2.17731 0
M  V30 4944 H 462.564 -4.1122 0.648397 0
M  V30 4945 H 463.097 -3.33963 2.16133 0
M  V30 4946 H 459.836 -4.19978 5.03288 0
M  V30 4947 H 459.356 -4.8942 3.4674 0
M  V30 4948 H 461.035 -5.05364 4.04 0
M  V30 4949 N 461.167 -1.02423 -1.1978 0
M  V30 4950 C 462.114 -0.601023 -2.22837 0
M  V30 4951 C 463.084 0.382801 -1.61629 0
M  V30 4952 O 464.269 0.280514 -1.88727 0
M  V30 4953 C 461.409 0.0467755 -3.45068 0
M  V30 4954 C 460.522 -0.98253 -4.20678 0
M  V30 4955 C 459.657 -0.304982 -5.30324 0
M  V30 4956 C 458.696 -1.32052 -5.97686 0
M  V30 4957 N 457.833 -0.669105 -6.98904 0
M  V30 4958 H 462.673 -1.48444 -2.58396 0
M  V30 4959 H 460.21 -0.742936 -1.2696 0
M  V30 4960 H 462.168 0.439556 -4.14878 0
M  V30 4961 H 460.798 0.893796 -3.10179 0
M  V30 4962 H 459.85 -1.49341 -3.49859 0
M  V30 4963 H 461.162 -1.75455 -4.66923 0
M  V30 4964 H 460.316 0.142893 -6.06532 0
M  V30 4965 H 459.055 0.499283 -4.85138 0
M  V30 4966 H 458.06 -1.7787 -5.20233 0
M  V30 4967 H 459.285 -2.1262 -6.44957 0
M  V30 4968 H 457.231 0.115152 -6.55899 0
M  V30 4969 H 457.148 -1.37908 -7.43315 0
M  V30 4970 H 458.416 -0.245076 -7.79115 0
M  V30 4971 N 462.645 1.35699 -0.801477 0
M  V30 4972 C 463.608 2.28199 -0.213994 0
M  V30 4973 C 464.608 1.49359 0.595691 0
M  V30 4974 O 465.798 1.69186 0.414921 0
M  V30 4975 C 462.93 3.33587 0.702297 0
M  V30 4976 H 464.123 2.81666 -1.02976 0
M  V30 4977 H 461.676 1.45467 -0.571759 0
M  V30 4978 H 462.411 2.85297 1.54195 0
M  V30 4979 H 462.196 3.91906 0.123484 0
M  V30 4980 H 463.686 4.02638 1.10783 0
M  V30 4981 N 464.123 0.554532 1.47522 0
M  V30 4982 C 465.033 -0.197865 2.33764 0
M  V30 4983 C 466.049 -0.914576 1.48025 0
M  V30 4984 O 467.225 -0.884067 1.80959 0
M  V30 4985 C 464.29 -1.21628 3.24665 0
M  V30 4986 C 463.351 -0.507283 4.26292 0
M  V30 4987 C 462.584 -1.47718 5.1285 0
M  V30 4988 O 462.807 -2.7118 5.01814 0
M  V30 4989 O 461.741 -1.00313 5.93482 0
M  V30 4990 H 465.567 0.50949 2.99396 0
M  V30 4991 H 463.152 0.315176 1.46038 0
M  V30 4992 H 465.034 -1.80421 3.80823 0
M  V30 4993 H 463.709 -1.9056 2.61665 0
M  V30 4994 H 462.616 0.121778 3.73902 0
M  V30 4995 H 463.949 0.140544 4.91999 0
M  V30 4996 N 465.601 -1.54893 0.290851 0
M  V30 4997 C 466.831 -2.04047 -0.323818 0
M  V30 4998 C 467.239 -1.16809 -1.48837 0
M  V30 4999 O 466.582 -0.184145 -1.82775 0
M  V30 5000 C 466.644 -3.49248 -0.852395 0
M  V30 5001 C 466.308 -4.56623 0.185557 0
M  V30 5002 C 467.305 -5.09985 1.01053 0
M  V30 5003 C 464.99 -5.01252 0.324332 0
M  V30 5004 C 466.984 -6.06507 1.96031 0
M  V30 5005 C 464.671 -5.97596 1.27757 0
M  V30 5006 C 465.669 -6.50107 2.09405 0
M  V30 5007 O 465.357 -7.44565 3.03114 0
M  V30 5008 H 465.089 -0.671735 -0.0758129 0
M  V30 5009 H 467.643 -2.00947 0.425393 0
M  V30 5010 H 465.873 -3.49639 -1.65195 0
M  V30 5011 H 467.562 -3.81654 -1.38185 0
M  V30 5012 H 468.328 -4.76307 0.914129 0
M  V30 5013 H 464.207 -4.60015 -0.301213 0
M  V30 5014 H 467.751 -6.47418 2.598 0
M  V30 5015 H 463.648 -6.30691 1.37473 0
M  V30 5016 H 464.416 -7.62334 2.97976 0
M  V30 5017 N 467.08 -0.0183926 -1.57589 0
M  V30 5018 C 467.99 0.982943 -2.13015 0
M  V30 5019 C 469.006 1.36443 -1.07979 0
M  V30 5020 O 470.182 1.44802 -1.3998 0
M  V30 5021 C 467.247 2.25024 -2.63752 0
M  V30 5022 C 466.308 1.93018 -3.83461 0
M  V30 5023 C 465.541 3.13706 -4.31769 0
M  V30 5024 O 465.764 4.2601 -3.79305 0
M  V30 5025 O 464.698 2.96629 -5.23732 0
M  V30 5026 H 468.524 0.541709 -2.9883 0
M  V30 5027 H 466.109 0.201565 -1.48034 0
M  V30 5028 H 467.991 2.99441 -2.96502 0
M  V30 5029 H 466.666 2.68349 -1.81026 0
M  V30 5030 H 465.573 1.16019 -3.55655 0
M  V30 5031 H 466.906 1.54516 -4.67317 0
M  V30 5032 N 468.558 1.5553 0.254621 0
M  V30 5033 C 469.806 1.7665 0.981793 0
M  V30 5034 C 470.127 0.580963 1.86145 0
M  V30 5035 O 469.397 -0.403537 1.91699 0
M  V30 5036 H 467.977 0.651475 0.365498 0
M  V30 5037 H 470.639 1.92958 0.274426 0
M  V30 5038 H 469.735 2.67486 1.60802 0
M  V30 5039 N 470.036 -0.519951 1.48776 0
M  V30 5040 C 471.313 -1.28123 1.47797 0
M  V30 5041 C 471.693 -2.10196 0.195157 0
M  V30 5042 O 471.041 -2.13167 -0.822925 0
M  V30 5043 C 471.251 -2.15413 2.74587 0
M  V30 5044 C 472.599 -2.75225 3.23321 0
M  V30 5045 O 473.623 -2.25694 2.75574 0
M  V30 5046 O 472.482 -3.65346 4.06429 0
M  V30 5047 H 469.576 -0.578793 0.590701 0
M  V30 5048 H 472.122 -0.535779 1.6102 0
M  V30 5049 H 470.894 -1.54617 3.59457 0
M  V30 5050 H 470.517 -2.97186 2.64132 0
M  V30 5051 N 471.514 -1.37532 -0.769588 0
M  V30 5052 C 472.762 -1.32597 -1.5252 0
M  V30 5053 C 473.083 0.0884294 -1.94799 0
M  V30 5054 O 472.353 1.03289 -1.66458 0
M  V30 5055 H 470.933 -0.487846 -0.565699 0
M  V30 5056 H 473.595 -1.72044 -0.915806 0
M  V30 5057 H 472.691 -1.96643 -2.42359 0
M  V30 5058 N 472.992 0.995999 -1.22138 0
M  V30 5059 C 474.241 1.72928 -1.03821 0
M  V30 5060 C 474.554 1.90872 0.427444 0
M  V30 5061 O 475.76 2.61496 0.730212 0
M  V30 5062 C 474.216 3.11124 -1.80913 0
M  V30 5063 C 473.824 3.01122 -3.31707 0
M  V30 5064 C 475.568 3.8852 -1.71035 0
M  V30 5065 C 473.475 4.34453 -4.01253 0
M  V30 5066 H 472.405 0.648376 -0.384869 0
M  V30 5067 H 475.056 1.11213 -1.45959 0
M  V30 5068 H 473.438 3.73503 -1.31573 0
M  V30 5069 H 474.612 2.47926 -3.88419 0
M  V30 5070 H 472.927 2.3721 -3.42228 0
M  V30 5071 H 475.524 4.872 -2.20318 0
M  V30 5072 H 475.867 4.1087 -0.670196 0
M  V30 5073 H 476.4 3.32812 -2.17902 0
M  V30 5074 H 473.139 4.17303 -5.05508 0
M  V30 5075 H 472.659 4.87574 -3.49331 0
M  V30 5076 H 474.338 5.03215 -4.06674 0
M  V30 5077 N 474.47 1.03057 1.19235 0
M  V30 5078 C 475.881 0.757449 1.70645 0
M  V30 5079 C 476.232 -0.722735 1.82403 0
M  V30 5080 O 475.357 -1.56325 1.49638 0
M  V30 5081 C 475.952 1.36833 3.09939 0
M  V30 5082 C 474.511 1.14375 3.58602 0
M  V30 5083 C 473.658 1.46533 2.35422 0
M  V30 5084 H 476.609 1.19828 1.04052 0
M  V30 5085 H 476.63 0.766184 3.72706 0
M  V30 5086 H 476.142 2.44562 3.01349 0
M  V30 5087 H 474.243 0.0847542 3.72504 0
M  V30 5088 H 474.356 1.83366 4.42622 0
M  V30 5089 H 472.72 0.884712 2.38841 0
M  V30 5090 H 473.503 2.55349 2.2946 0
M  V30 5091 N 475.948 -1.35272 0.808662 0
M  V30 5092 C 477.176 -2.02946 0.402537 0
M  V30 5093 C 477.591 -1.60937 -0.987147 0
M  V30 5094 O 476.948 -0.807917 -1.63643 0
M  V30 5095 C 476.999 -3.58317 0.47868 0
M  V30 5096 O 476.72 -3.98799 1.81358 0
M  V30 5097 C 478.221 -4.43251 0.0656281 0
M  V30 5098 H 475.441 -0.650831 0.163279 0
M  V30 5099 H 477.985 -1.72849 1.09286 0
M  V30 5100 H 476.14 -3.87055 -0.163415 0
M  V30 5101 H 476.554 -4.93451 1.77781 0
M  V30 5102 H 478.028 -5.51738 0.170017 0
M  V30 5103 H 478.505 -4.27913 -0.989278 0
M  V30 5104 H 479.111 -4.19813 0.68096 0
M  V30 5105 N 477.426 -0.562348 -1.47226 0
M  V30 5106 C 478.672 -0.0402761 -2.0276 0
M  V30 5107 C 479.005 1.30823 -1.43523 0
M  V30 5108 O 478.28 1.85249 -0.592705 0
M  V30 5109 C 478.563 0.047311 -3.60069 0
M  V30 5110 C 478.416 -1.32865 -4.29729 0
M  V30 5111 C 479.735 0.758182 -4.3352 0
M  V30 5112 H 476.854 -0.0161105 -0.736824 0
M  V30 5113 H 479.496 -0.725628 -1.75598 0
M  V30 5114 H 477.646 0.630986 -3.83342 0
M  V30 5115 H 479.318 -1.95593 -4.17781 0
M  V30 5116 H 477.561 -1.90195 -3.89882 0
M  V30 5117 H 478.232 -1.22004 -5.38349 0
M  V30 5118 H 480.708 0.262546 -4.15271 0
M  V30 5119 H 479.584 0.78844 -5.43208 0
M  V30 5120 H 479.845 1.81537 -4.03109 0
M  V30 5121 N 478.904 1.54736 -0.299062 0
M  V30 5122 C 480.151 2.00101 0.310784 0
M  V30 5123 C 480.479 1.18746 1.54045 0
M  V30 5124 O 479.734 0.251198 1.94081 0
M  V30 5125 C 480.033 3.50199 0.713835 0
M  V30 5126 C 479.699 4.48997 -0.413873 0
M  V30 5127 C 478.361 4.7573 -0.723462 0
M  V30 5128 C 480.713 5.07839 -1.17257 0
M  V30 5129 C 478.041 5.5857 -1.79491 0
M  V30 5130 C 480.393 5.91844 -2.23392 0
M  V30 5131 C 479.057 6.16889 -2.54959 0
M  V30 5132 H 478.327 0.732221 0.113724 0
M  V30 5133 H 480.974 1.86888 -0.417756 0
M  V30 5134 H 479.279 3.61012 1.52243 0
M  V30 5135 H 480.976 3.82723 1.19684 0
M  V30 5136 H 477.566 4.28292 -0.162476 0
M  V30 5137 H 481.75 4.87188 -0.946651 0
M  V30 5138 H 477.006 5.76213 -2.04423 0
M  V30 5139 H 481.18 6.36465 -2.8264 0
M  V30 5140 H 478.807 6.80869 -3.38114 0
M  V30 5141 N 480.382 0.0267497 1.57577 0
M  V30 5142 C 481.628 -0.653371 1.91987 0
M  V30 5143 C 481.961 -1.71915 0.903263 0
M  V30 5144 O 481.236 -1.94358 -0.0743387 0
M  V30 5145 C 481.519 -1.272 3.36886 0
M  V30 5146 C 481.372 -0.215938 4.49281 0
M  V30 5147 C 482.691 -2.19069 3.81703 0
M  V30 5148 H 479.81 -0.236047 0.698177 0
M  V30 5149 H 482.452 0.0835236 1.89816 0
M  V30 5150 H 480.602 -1.90005 3.38866 0
M  V30 5151 H 482.274 0.41449 4.59434 0
M  V30 5152 H 480.517 0.458855 4.31366 0
M  V30 5153 H 481.188 -0.688347 5.47691 0
M  V30 5154 H 483.664 -1.66253 3.81444 0
M  V30 5155 H 482.54 -2.59307 4.83788 0
M  V30 5156 H 482.801 -3.08087 3.17072 0
M  V30 5157 N 481.861 -1.55662 -0.24637 0
M  V30 5158 C 482.824 -1.89558 -1.28842 0
M  V30 5159 C 483.824 -0.772082 -1.41052 0
M  V30 5160 O 485.014 -1.04007 -1.39743 0
M  V30 5161 C 482.146 -2.12449 -2.66605 0
M  V30 5162 H 483.339 -2.82735 -1.00004 0
M  V30 5163 H 480.892 -1.48562 -0.485684 0
M  V30 5164 H 481.627 -1.21742 -3.00582 0
M  V30 5165 H 481.412 -2.94273 -2.59125 0
M  V30 5166 H 482.902 -2.39854 -3.41847 0
M  V30 5167 N 483.339 0.512053 -1.4905 0
M  V30 5168 C 484.585 1.26874 -1.58212 0
M  V30 5169 C 484.918 1.9241 -0.263073 0
M  V30 5170 O 484.193 1.80181 0.732476 0
M  V30 5171 C 484.476 2.34428 -2.73341 0
M  V30 5172 C 484.329 1.73466 -4.15006 0
M  V30 5173 C 485.648 3.36073 -2.84154 0
M  V30 5174 H 482.767 0.459924 -0.575881 0
M  V30 5175 H 485.409 0.568587 -1.81293 0
M  V30 5176 H 483.559 2.94146 -2.53792 0
M  V30 5177 H 485.231 1.17661 -4.46042 0
M  V30 5178 H 483.474 1.03921 -4.21168 0
M  V30 5179 H 484.145 2.51426 -4.91415 0
M  V30 5180 H 486.621 2.86332 -3.01916 0
M  V30 5181 H 485.497 4.08703 -3.66406 0
M  V30 5182 H 485.758 3.97725 -1.93048 0
M  V30 5183 N 484.817 1.37938 0.762283 0
M  V30 5184 C 485.78 1.34279 1.85747 0
M  V30 5185 C 486.78 0.244969 1.58923 0
M  V30 5186 O 487.97 0.501365 1.66829 0
M  V30 5187 C 485.102 1.08833 3.23061 0
M  V30 5188 H 486.295 2.31705 1.90401 0
M  V30 5189 H 483.848 1.23105 0.963057 0
M  V30 5190 H 484.583 0.119767 3.24079 0
M  V30 5191 H 484.368 1.88306 3.43923 0
M  V30 5192 H 485.858 1.08946 4.03138 0
M  V30 5193 N 486.295 -0.989507 1.22664 0
M  V30 5194 C 487.543 -1.72612 1.05117 0
M  V30 5195 C 487.864 -1.90552 -0.414131 0
M  V30 5196 O 487.134 -1.4676 -1.29762 0
M  V30 5197 H 485.714 -0.639555 0.385977 0
M  V30 5198 H 488.376 -1.19158 1.54232 0
M  V30 5199 H 487.472 -2.71926 1.53175 0
M  V30 5200 N 487.773 -1.03688 -1.18687 0
M  V30 5201 C 489.189 -0.755413 -1.4059 0
M  V30 5202 C 489.389 0.656659 -1.905 0
M  V30 5203 O 488.445 1.42144 -2.08689 0
M  V30 5204 C 489.758 -1.7983 -2.41001 0
M  V30 5205 C 491.306 -1.81877 -2.54735 0
M  V30 5206 C 491.781 -2.85148 -3.58406 0
M  V30 5207 N 493.272 -2.84015 -3.6591 0
M  V30 5208 C 494.007 -3.60573 -4.45841 0
M  V30 5209 N 493.503 -4.46871 -5.29413 0
M  V30 5210 N 495.296 -3.49079 -4.40568 0
M  V30 5211 H 487.447 -1.94818 -0.846148 0
M  V30 5212 H 489.71 -0.842727 -0.434184 0
M  V30 5213 H 489.416 -2.81097 -2.1137 0
M  V30 5214 H 489.29 -1.62727 -3.40294 0
M  V30 5215 H 491.677 -0.812836 -2.83685 0
M  V30 5216 H 491.758 -2.03057 -1.55568 0
M  V30 5217 H 491.402 -3.85918 -3.30197 0
M  V30 5218 H 491.332 -2.61224 -4.57241 0
M  V30 5219 H 493.823 -2.21431 -3.0623 0
M  V30 5220 H 494.136 -5.02007 -5.87545 0
M  V30 5221 H 492.481 -4.5094 -5.28846 0
M  V30 5222 H 495.672 -2.81066 -3.74325 0
M  V30 5223 H 495.845 -4.08994 -5.02621 0
M  V30 5224 N 489.251 1.34841 -0.815825 0
M  V30 5225 C 490.476 2.03261 -0.41226 0
M  V30 5226 C 490.901 1.61055 0.971751 0
M  V30 5227 O 490.259 0.7917 1.63101 0
M  V30 5228 C 490.307 3.56914 -0.514289 0
M  V30 5229 O 489.411 4.09728 0.468675 0
M  V30 5230 H 488.752 0.641664 -0.170771 0
M  V30 5231 H 491.282 1.72241 -1.10427 0
M  V30 5232 H 491.292 4.06156 -0.387457 0
M  V30 5233 H 489.967 3.86982 -1.52375 0
M  V30 5234 H 488.544 3.71681 0.301316 0
M  V30 5235 N 490.729 0.570148 1.46925 0
M  V30 5236 C 491.677 -0.183181 2.31878 0
M  V30 5237 C 492.671 -0.896721 1.43719 0
M  V30 5238 O 493.877 -0.816536 1.60414 0
M  V30 5239 H 490.252 -0.077944 0.74795 0
M  V30 5240 H 492.223 0.552312 2.93244 0
M  V30 5241 C 490.972 -1.19172 3.2664 0
M  V30 5242 H 490.295 -0.652088 3.94446 0
M  V30 5243 H 491.735 -1.68946 3.88887 0
M  V30 5244 C 490.194 -2.24627 2.51086 0
M  V30 5245 O 490.724 -3.31773 2.26472 0
M  V30 5246 N 488.93 -1.98898 2.11867 0
M  V30 5247 H 488.477 -1.11777 2.32086 0
M  V30 5248 H 488.435 -2.6967 1.61634 0
M  V30 5249 N 492.207 -1.54576 0.307264 0
M  V30 5250 C 493.455 -1.99867 -0.299574 0
M  V30 5251 C 493.776 -1.19714 -1.53927 0
M  V30 5252 O 493.046 -0.29472 -1.9367 0
M  V30 5253 H 491.626 -0.738299 -0.113683 0
M  V30 5254 H 494.288 -1.9032 0.420042 0
M  V30 5255 H 493.384 -3.06901 -0.567283 0
M  V30 5256 N 493.685 -0.035106 -1.57561 0
M  V30 5257 C 494.615 0.942993 -2.13612 0
M  V30 5258 C 495.596 1.33531 -1.05373 0
M  V30 5259 O 496.781 1.41287 -1.33235 0
M  V30 5260 C 493.911 2.22332 -2.66807 0
M  V30 5261 C 492.865 1.97156 -3.79886 0
M  V30 5262 C 492.191 3.31506 -4.19533 0
M  V30 5263 C 493.491 1.30596 -5.05709 0
M  V30 5264 H 495.185 0.476179 -2.95589 0
M  V30 5265 H 492.731 0.227602 -1.4219 0
M  V30 5266 H 494.684 2.91142 -3.04654 0
M  V30 5267 H 493.408 2.7119 -1.81999 0
M  V30 5268 H 492.067 1.30763 -3.42486 0
M  V30 5269 H 491.715 3.78134 -3.31698 0
M  V30 5270 H 491.415 3.15465 -4.95738 0
M  V30 5271 H 492.939 4.01574 -4.59968 0
M  V30 5272 H 494.353 1.89416 -5.41105 0
M  V30 5273 H 492.75 1.24934 -5.86951 0
M  V30 5274 H 493.82 0.279742 -4.84092 0
M  V30 5275 N 495.163 1.55791 0.238111 0
M  V30 5276 C 496.411 1.77681 0.963001 0
M  V30 5277 C 496.732 0.600674 1.85518 0
M  V30 5278 O 496.002 -0.383182 1.92116 0
M  V30 5279 H 494.582 0.655315 0.358568 0
M  V30 5280 H 497.244 1.93239 0.253945 0
M  V30 5281 H 496.34 2.69177 1.57956 0
M  V30 5282 N 496.642 -0.504142 1.49319 0
M  V30 5283 C 498.053 -1.08572 1.51885 0
M  V30 5284 C 498.404 -1.93842 0.303255 0
M  V30 5285 O 497.529 -2.0828 -0.58724 0
M  V30 5286 C 498.124 -1.97574 2.75227 0
M  V30 5287 C 496.683 -2.509 2.80581 0
M  V30 5288 C 495.83 -1.28447 2.45757 0
M  V30 5289 H 498.781 -0.288194 1.56061 0
M  V30 5290 H 498.802 -2.82219 2.55211 0
M  V30 5291 H 498.314 -1.35486 3.63683 0
M  V30 5292 H 496.415 -3.16636 1.96398 0
M  V30 5293 H 496.528 -2.88268 3.82673 0
M  V30 5294 H 494.892 -1.60868 1.97468 0
M  V30 5295 H 495.675 -0.68072 3.36483 0
M  V30 5296 N 498.12 -1.38341 -0.754957 0
M  V30 5297 C 499.366 -1.34672 -1.51628 0
M  V30 5298 C 499.699 0.0636036 -1.94096 0
M  V30 5299 O 498.974 1.0245 -1.6533 0
M  V30 5300 C 499.257 -2.30116 -2.76981 0
M  V30 5301 C 499.11 -3.80003 -2.4066 0
M  V30 5302 C 500.429 -2.23715 -3.78998 0
M  V30 5303 H 497.548 -0.490517 -0.550056 0
M  V30 5304 H 500.19 -1.69178 -0.864807 0
M  V30 5305 H 498.34 -2.00821 -3.3257 0
M  V30 5306 H 500.012 -4.19966 -1.90856 0
M  V30 5307 H 498.255 -3.97751 -1.73137 0
M  V30 5308 H 498.926 -4.42244 -3.30339 0
M  V30 5309 H 501.402 -2.49574 -3.32945 0
M  V30 5310 H 500.278 -2.9261 -4.64403 0
M  V30 5311 H 500.539 -1.23554 -4.24484 0
M  V30 5312 N 499.598 0.982988 -1.23187 0
M  V30 5313 C 500.531 2.07302 -0.953993 0
M  V30 5314 C 501.509 1.62249 0.106753 0
M  V30 5315 O 502.693 1.88481 -0.0269525 0
M  V30 5316 C 499.82 3.35873 -0.436716 0
M  V30 5317 C 498.866 3.99862 -1.48367 0
M  V30 5318 S 499.699 4.39443 -3.06023 0
M  V30 5319 C 500.855 5.7117 -2.55959 0
M  V30 5320 H 501.088 2.30554 -1.87702 0
M  V30 5321 H 498.621 1.11883 -1.06403 0
M  V30 5322 H 500.579 4.10244 -0.144872 0
M  V30 5323 H 499.24 3.10634 0.465351 0
M  V30 5324 H 498.433 4.92471 -1.07182 0
M  V30 5325 H 498.035 3.31857 -1.72473 0
M  V30 5326 H 500.327 6.47977 -1.97818 0
M  V30 5327 H 501.27 6.17194 -3.47098 0
M  V30 5328 H 501.678 5.29046 -1.96902 0
M  V30 5329 N 501.076 1.04316 1.18135 0
M  V30 5330 C 502.301 0.768047 1.92655 0
M  V30 5331 C 502.726 -0.66904 1.758 0
M  V30 5332 O 502.084 -1.46372 1.06981 0
M  V30 5333 C 502.132 1.14239 3.42026 0
M  V30 5334 O 501.236 0.269333 4.1152 0
M  V30 5335 H 500.577 0.282436 0.600937 0
M  V30 5336 H 503.107 1.39367 1.49793 0
M  V30 5337 H 503.117 1.10538 3.92741 0
M  V30 5338 H 501.792 2.18928 3.53615 0
M  V30 5339 H 500.369 0.366175 3.71098 0
M  V30 5340 N 502.554 -1.34406 0.822964 0
M  V30 5341 C 503.802 -1.97892 0.410245 0
M  V30 5342 C 504.123 -1.65567 -1.03017 0
M  V30 5343 O 503.393 -0.94642 -1.71522 0
M  V30 5344 H 501.973 -0.732049 0.148707 0
M  V30 5345 H 504.635 -1.64043 1.05242 0
M  V30 5346 H 503.731 -3.07579 0.529284 0
M  V30 5347 N 504.032 -0.577932 -1.46621 0
M  V30 5348 C 504.98 0.170882 -2.31971 0
M  V30 5349 C 505.974 0.889086 -1.44193 0
M  V30 5350 O 507.18 0.808017 -1.60845 0
M  V30 5351 H 503.555 0.0739763 -0.748353 0
M  V30 5352 H 505.526 -0.567856 -2.92947 0
M  V30 5353 C 504.275 1.17438 -3.27267 0
M  V30 5354 H 503.598 0.63116 -3.94787 0
M  V30 5355 H 505.038 1.66882 -3.89778 0
M  V30 5356 C 503.497 2.23292 -2.52274 0
M  V30 5357 O 504.027 3.30567 -2.28229 0
M  V30 5358 N 502.233 1.97772 -2.12919 0
M  V30 5359 H 501.78 1.10545 -2.32675 0
M  V30 5360 H 501.738 2.68809 -1.63062 0
M  V30 5361 N 505.51 1.54411 -0.315457 0
M  V30 5362 C 506.738 2.04833 0.291738 0
M  V30 5363 C 507.153 1.19203 1.46411 0
M  V30 5364 O 506.51 0.220867 1.81159 0
M  V30 5365 C 506.561 3.53969 0.73404 0
M  V30 5366 O 506.282 4.36346 -0.391682 0
M  V30 5367 C 507.783 4.2045 1.40489 0
M  V30 5368 H 505.003 0.668195 0.0612947 0
M  V30 5369 H 507.547 1.99276 -0.45929 0
M  V30 5370 H 505.702 3.5984 1.43506 0
M  V30 5371 H 506.116 5.24481 -0.0447088 0
M  V30 5372 H 507.59 5.26278 1.66539 0
M  V30 5373 H 508.067 3.71067 2.3496 0
M  V30 5374 H 508.673 4.18694 0.746662 0
M  V30 5375 N 506.988 0.0434614 1.5754 0
M  V30 5376 C 507.951 -0.918696 2.09982 0
M  V30 5377 C 508.951 -1.24488 1.01781 0
M  V30 5378 O 510.141 -1.18284 1.27885 0
M  V30 5379 C 507.273 -2.23093 2.57764 0
M  V30 5380 H 508.466 -0.464229 2.96285 0
M  V30 5381 H 506.019 -0.204818 1.54952 0
M  V30 5382 H 506.754 -2.73137 1.74832 0
M  V30 5383 H 506.539 -2.00724 3.36827 0
M  V30 5384 H 508.029 -2.92028 2.98512 0
M  V30 5385 N 508.466 -1.55915 -0.229846 0
M  V30 5386 C 509.696 -1.82352 -0.971152 0
M  V30 5387 C 510.104 -0.619231 -1.7878 0
M  V30 5388 O 509.447 0.421597 -1.78797 0
M  V30 5389 C 509.509 -3.02399 -1.9441 0
M  V30 5390 C 509.173 -4.37739 -1.31277 0
M  V30 5391 C 510.17 -5.15074 -0.706757 0
M  V30 5392 C 507.855 -4.84454 -1.32702 0
M  V30 5393 C 509.849 -6.37281 -0.123413 0
M  V30 5394 C 507.536 -6.06605 -0.739831 0
M  V30 5395 C 508.534 -6.82858 -0.139071 0
M  V30 5396 O 508.222 -8.027 0.439007 0
M  V30 5397 H 507.954 -0.61035 -0.290601 0
M  V30 5398 H 510.508 -2.03839 -0.252746 0
M  V30 5399 H 508.738 -2.76709 -2.70128 0
M  V30 5400 H 510.427 -3.15779 -2.55026 0
M  V30 5401 H 511.193 -4.80093 -0.688131 0
M  V30 5402 H 507.072 -4.25081 -1.78402 0
M  V30 5403 H 510.616 -6.96741 0.346124 0
M  V30 5404 H 506.513 -6.4106 -0.755841 0
M  V30 5405 H 507.281 -8.17824 0.332521 0
M  V30 5406 N 509.944 0.496216 -1.49584 0
M  V30 5407 C 511.355 1.07765 -1.52459 0
M  V30 5408 C 511.706 1.93679 -0.31353 0
M  V30 5409 O 510.831 2.08588 0.576186 0
M  V30 5410 C 511.426 1.96111 -2.76271 0
M  V30 5411 C 509.985 2.49409 -2.81908 0
M  V30 5412 C 509.132 1.27142 -2.46435 0
M  V30 5413 H 512.083 0.279914 -1.56212 0
M  V30 5414 H 512.104 2.80862 -2.56704 0
M  V30 5415 H 511.616 1.33555 -3.64396 0
M  V30 5416 H 509.717 3.1559 -1.98074 0
M  V30 5417 H 509.83 2.86234 -3.84196 0
M  V30 5418 H 508.194 1.59818 -1.98319 0
M  V30 5419 H 508.977 0.662866 -3.3684 0
M  V30 5420 N 511.423 1.38739 0.74761 0
M  V30 5421 C 512.669 1.35475 1.50912 0
M  V30 5422 C 513.002 -0.0533093 1.94127 0
M  V30 5423 O 512.277 -1.01572 1.65871 0
M  V30 5424 C 512.56 2.31582 2.75757 0
M  V30 5425 C 512.413 3.81274 2.38642 0
M  V30 5426 C 513.732 2.25722 3.77806 0
M  V30 5427 H 510.851 0.493427 0.547447 0
M  V30 5428 H 513.493 1.69634 0.855823 0
M  V30 5429 H 511.643 2.02582 3.31501 0
M  V30 5430 H 513.315 4.20972 1.88626 0
M  V30 5431 H 511.558 3.98664 1.71025 0
M  V30 5432 H 512.229 4.4399 3.27989 0
M  V30 5433 H 514.705 2.51336 3.31616 0
M  V30 5434 H 513.581 2.95069 4.62845 0
M  V30 5435 H 513.842 1.25803 4.23823 0
M  V30 5436 N 512.901 -0.976442 1.23707 0
M  V30 5437 C 514.15 -1.71254 1.06559 0
M  V30 5438 C 514.463 -1.91528 -0.397024 0
M  V30 5439 O 515.669 -2.62625 -0.688518 0
M  V30 5440 C 514.125 -3.08207 1.8584 0
M  V30 5441 C 513.733 -2.95806 3.36456 0
M  V30 5442 C 515.477 -3.85749 1.77194 0
M  V30 5443 C 513.384 -4.28015 4.08114 0
M  V30 5444 H 512.314 -0.642171 0.395136 0
M  V30 5445 H 514.965 -1.08877 1.4771 0
M  V30 5446 H 513.347 -3.71363 1.37498 0
M  V30 5447 H 514.521 -2.41716 3.92314 0
M  V30 5448 H 512.836 -2.31736 3.45959 0
M  V30 5449 H 515.433 -4.83633 2.28041 0
M  V30 5450 H 515.776 -4.09752 0.735477 0
M  V30 5451 H 516.309 -3.29303 2.23169 0
M  V30 5452 H 513.048 -4.09208 5.12083 0
M  V30 5453 H 512.568 -4.81955 3.57043 0
M  V30 5454 H 514.247 -4.96681 4.14629 0
M  V30 5455 N 514.379 -1.04941 -1.1758 0
M  V30 5456 C 515.604 -0.778253 -1.92245 0
M  V30 5457 C 516.029 0.659707 -1.76152 0
M  V30 5458 O 515.387 1.45803 -1.07755 0
M  V30 5459 C 515.435 -1.16051 -3.41416 0
M  V30 5460 O 514.539 -0.291153 -4.11371 0
M  V30 5461 H 513.88 -0.285619 -0.599431 0
M  V30 5462 H 516.41 -1.40159 -1.49052 0
M  V30 5463 H 516.42 -1.12619 -3.92149 0
M  V30 5464 H 515.095 -2.208 -3.52449 0
M  V30 5465 H 513.672 -0.385851 -3.70898 0
M  V30 5466 N 515.857 1.33968 -0.830081 0
M  V30 5467 C 517.097 1.99879 -0.427521 0
M  V30 5468 C 517.461 1.64355 0.992546 0
M  V30 5469 O 518.662 2.23164 1.49837 0
M  V30 5470 C 516.933 3.51771 -0.631815 0
M  V30 5471 S 518.492 4.37608 -0.323168 0
M  V30 5472 H 515.31 0.692485 -0.161202 0
M  V30 5473 H 517.912 1.63129 -1.07745 0
M  V30 5474 H 516.616 3.75113 -1.66488 0
M  V30 5475 H 516.147 3.93386 0.0325936 0
M  V30 5476 H 518.162 4.88683 0.860432 0
M  V30 5477 N 517.335 0.585699 1.46312 0
M  V30 5478 C 518.746 0.159938 1.86014 0
M  V30 5479 C 519.097 -1.27775 1.48889 0
M  V30 5480 O 518.222 -1.96559 0.90519 0
M  V30 5481 C 518.817 0.283485 3.37612 0
M  V30 5482 C 517.376 -0.0874256 3.76298 0
M  V30 5483 C 516.523 0.618055 2.70325 0
M  V30 5484 H 519.474 0.793737 1.37425 0
M  V30 5485 H 519.495 -0.490348 3.77327 0
M  V30 5486 H 519.007 1.32995 3.64601 0
M  V30 5487 H 517.108 -1.13391 3.54927 0
M  V30 5488 H 517.221 0.290975 4.78216 0
M  V30 5489 H 515.585 0.057993 2.54634 0
M  V30 5490 H 516.368 1.66623 3.00153 0
M  V30 5491 N 518.813 -1.54241 0.323641 0
M  V30 5492 C 520.224 -1.85975 -0.164405 0
M  V30 5493 C 520.575 -1.24529 -1.51615 0
M  V30 5494 O 519.7 -0.551351 -2.09258 0
M  V30 5495 C 520.295 -3.37424 -0.305091 0
M  V30 5496 C 518.854 -3.69107 -0.737358 0
M  V30 5497 C 518.001 -2.76942 0.140884 0
M  V30 5498 H 520.952 -1.49088 0.543922 0
M  V30 5499 H 520.973 -3.63147 -1.13598 0
M  V30 5500 H 520.485 -3.82116 0.678876 0
M  V30 5501 H 518.586 -3.29947 -1.73107 0
M  V30 5502 H 518.699 -4.76035 -0.541053 0
M  V30 5503 H 517.063 -2.51795 -0.383572 0
M  V30 5504 H 517.846 -3.24461 1.12162 0
M  V30 5505 N 520.291 -0.0518155 -1.57515 0
M  V30 5506 C 521.221 0.920283 -2.146 0
M  V30 5507 C 522.202 1.32406 -1.06783 0
M  V30 5508 O 523.387 1.39866 -1.34726 0
M  V30 5509 C 520.517 2.1949 -2.6915 0
M  V30 5510 C 519.471 1.93116 -3.81956 0
M  V30 5511 C 518.797 3.27037 -4.23026 0
M  V30 5512 C 520.097 1.25225 -5.07066 0
M  V30 5513 H 521.791 0.444801 -2.96077 0
M  V30 5514 H 519.337 0.212508 -1.42423 0
M  V30 5515 H 521.29 2.87894 -3.07725 0
M  V30 5516 H 520.014 2.69244 -1.84865 0
M  V30 5517 H 518.673 1.27123 -3.43854 0
M  V30 5518 H 518.321 3.74595 -3.3569 0
M  V30 5519 H 518.021 3.10189 -4.99056 0
M  V30 5520 H 519.545 3.96673 -4.64202 0
M  V30 5521 H 520.959 1.83666 -5.43083 0
M  V30 5522 H 519.356 1.18702 -5.88243 0
M  V30 5523 H 520.426 0.228382 -4.84362 0
M  V30 5524 N 521.769 1.56035 0.221574 0
M  V30 5525 C 522.997 1.8313 0.962864 0
M  V30 5526 C 523.412 0.630934 1.77946 0
M  V30 5527 O 522.769 -0.400519 1.78051 0
M  V30 5528 C 522.82 3.08742 1.88045 0
M  V30 5529 O 522.541 4.24147 1.09686 0
M  V30 5530 C 524.042 3.48824 2.73563 0
M  V30 5531 H 521.262 0.608775 0.282194 0
M  V30 5532 H 523.806 2.03124 0.23681 0
M  V30 5533 H 521.961 2.90723 2.56045 0
M  V30 5534 H 522.375 4.95505 1.71974 0
M  V30 5535 H 523.849 4.39752 3.3365 0
M  V30 5536 H 524.326 2.70575 3.45956 0
M  V30 5537 H 524.932 3.69282 2.10976 0
M  V30 5538 N 523.247 -0.488276 1.49845 0
M  V30 5539 C 524.658 -1.06955 1.53028 0
M  V30 5540 C 525.009 -1.9351 0.323797 0
M  V30 5541 O 524.134 -2.08891 -0.565116 0
M  V30 5542 C 524.729 -1.94643 2.77307 0
M  V30 5543 C 523.288 -2.4791 2.83227 0
M  V30 5544 C 522.435 -1.25833 2.47106 0
M  V30 5545 H 525.386 -0.271626 1.56358 0
M  V30 5546 H 525.407 -2.79496 2.5819 0
M  V30 5547 H 524.919 -1.31621 3.65099 0
M  V30 5548 H 523.02 -3.14535 1.99745 0
M  V30 5549 H 523.133 -2.84193 3.85709 0
M  V30 5550 H 521.497 -1.58764 1.99163 0
M  V30 5551 H 522.28 -0.644993 3.37186 0
M  V30 5552 N 524.725 -1.39134 -0.740242 0
M  V30 5553 C 526.002 -1.26584 -1.49117 0
M  V30 5554 C 526.382 0.126902 -2.10718 0
M  V30 5555 O 525.73 1.13765 -1.98166 0
M  V30 5556 C 525.94 -2.38619 -2.54681 0
M  V30 5557 C 527.288 -2.77685 -3.21211 0
M  V30 5558 O 528.312 -2.38029 -2.64991 0
M  V30 5559 O 527.171 -3.46115 -4.22926 0
M  V30 5560 H 524.265 -0.495769 -0.661923 0
M  V30 5561 H 526.811 -1.50995 -0.774514 0
M  V30 5562 H 525.583 -3.3175 -2.07504 0
M  V30 5563 H 525.206 -2.15845 -3.33911 0
M  V30 5564 N 526.204 0.969867 -1.24223 0
M  V30 5565 C 527.45 1.71582 -1.09231 0
M  V30 5566 C 527.805 1.88898 0.365432 0
M  V30 5567 O 527.098 1.43781 1.2664 0
M  V30 5568 C 527.292 3.10883 -1.76314 0
M  V30 5569 C 527.121 3.07155 -3.2846 0
M  V30 5570 C 525.891 3.11757 -3.97663 0
M  V30 5571 C 528.089 2.895 -4.25082 0
M  V30 5572 N 526.071 2.98025 -5.36707 0
M  V30 5573 C 527.442 2.84041 -5.51109 0
M  V30 5574 C 529.497 2.74064 -4.15684 0
M  V30 5575 C 528.2 2.64725 -6.68815 0
M  V30 5576 C 530.226 2.56115 -5.33066 0
M  V30 5577 C 529.588 2.51363 -6.58024 0
M  V30 5578 H 525.687 0.636496 -0.454309 0
M  V30 5579 H 528.271 1.15004 -1.57106 0
M  V30 5580 H 526.442 3.65657 -1.30955 0
M  V30 5581 H 528.174 3.74171 -1.54201 0
M  V30 5582 H 524.929 3.20352 -3.48814 0
M  V30 5583 H 525.353 2.94405 -6.09635 0
M  V30 5584 H 529.995 2.76521 -3.19837 0
M  V30 5585 H 527.713 2.61011 -7.64787 0
M  V30 5586 H 531.299 2.45119 -5.27644 0
M  V30 5587 H 530.179 2.37651 -7.47323 0
M  V30 5588 N 527.682 1.05563 1.17022 0
M  V30 5589 C 528.93 0.76642 1.87004 0
M  V30 5590 C 529.251 -0.708854 1.8166 0
M  V30 5591 O 528.521 -1.51242 1.2451 0
M  V30 5592 H 527.101 0.280516 0.692329 0
M  V30 5593 H 529.763 1.33557 1.41945 0
M  V30 5594 H 528.859 1.08472 2.92644 0
M  V30 5595 N 529.16 -1.33526 0.837174 0
M  V30 5596 C 530.406 -1.9813 0.432704 0
M  V30 5597 C 530.739 -1.66168 -1.00508 0
M  V30 5598 O 530.014 -0.94069 -1.70239 0
M  V30 5599 C 530.297 -3.54151 0.651834 0
M  V30 5600 C 530.15 -3.95806 2.13676 0
M  V30 5601 C 531.469 -4.39993 0.0968937 0
M  V30 5602 H 528.588 -0.719713 0.15869 0
M  V30 5603 H 531.23 -1.58193 1.05237 0
M  V30 5604 H 529.38 -3.88301 0.124369 0
M  V30 5605 H 531.052 -3.71921 2.72896 0
M  V30 5606 H 529.295 -3.45599 2.62191 0
M  V30 5607 H 529.966 -5.0447 2.24084 0
M  V30 5608 H 532.442 -4.12479 0.547733 0
M  V30 5609 H 531.318 -5.48186 0.279917 0
M  V30 5610 H 531.579 -4.3066 -0.9992 0
M  V30 5611 N 530.638 -0.59345 -1.46 0
M  V30 5612 C 531.57 0.171569 -2.28557 0
M  V30 5613 C 532.583 0.845273 -1.39137 0
M  V30 5614 O 533.772 0.713033 -1.6364 0
M  V30 5615 C 530.872 1.26311 -3.14482 0
M  V30 5616 C 530.045 0.679258 -4.32094 0
M  V30 5617 C 529.104 1.65987 -4.99334 0
M  V30 5618 O 528.13 1.19171 -5.56585 0
M  V30 5619 N 529.332 2.99414 -4.97324 0
M  V30 5620 H 532.097 -0.536771 -2.94854 0
M  V30 5621 H 529.658 -0.431954 -1.56031 0
M  V30 5622 H 531.65 1.91863 -3.5633 0
M  V30 5623 H 530.22 1.87416 -2.50188 0
M  V30 5624 H 529.44 -0.153992 -3.93899 0
M  V30 5625 H 530.728 0.26916 -5.08088 0
M  V30 5626 H 530.126 3.40064 -4.52076 0
M  V30 5627 H 528.683 3.60426 -5.4308 0
M  V30 5628 N 532.116 1.54067 -0.331816 0
M  V30 5629 C 533.393 1.92915 0.322955 0
M  V30 5630 C 533.773 1.26225 1.69205 0
M  V30 5631 O 533.121 0.408919 2.24811 0
M  V30 5632 C 533.331 3.46619 0.406946 0
M  V30 5633 C 534.679 4.19386 0.663339 0
M  V30 5634 O 535.703 3.5282 0.489536 0
M  V30 5635 O 534.562 5.37288 0.999193 0
M  V30 5636 H 531.656 0.805808 0.186016 0
M  V30 5637 H 534.202 1.65342 -0.382135 0
M  V30 5638 H 532.974 3.87354 -0.554287 0
M  V30 5639 H 532.597 3.80324 1.15929 0
M  V30 5640 N 533.594 0.0601682 1.57485 0
M  V30 5641 C 534.84 -0.612501 1.93329 0
M  V30 5642 C 535.173 -1.6996 0.939526 0
M  V30 5643 O 534.448 -1.94472 -0.0330957 0
M  V30 5644 C 534.731 -1.20025 3.39508 0
M  V30 5645 C 534.584 -0.12059 4.49638 0
M  V30 5646 C 535.903 -2.10923 3.86264 0
M  V30 5647 H 533.022 -0.221185 0.703027 0
M  V30 5648 H 535.664 0.123768 1.89596 0
M  V30 5649 H 533.814 -1.82774 3.42821 0
M  V30 5650 H 535.486 0.51185 4.58452 0
M  V30 5651 H 533.729 0.550251 4.30296 0
M  V30 5652 H 534.4 -0.572019 5.49028 0
M  V30 5653 H 536.876 -1.58124 3.84884 0
M  V30 5654 H 535.752 -2.48987 4.8918 0
M  V30 5655 H 536.013 -3.01292 3.23536 0
M  V30 5656 N 535.072 -1.5615 -0.213296 0
M  V30 5657 C 536.318 -1.80718 -0.933402 0
M  V30 5658 C 536.673 -0.634441 -1.81639 0
M  V30 5659 O 535.966 0.371182 -1.8797 0
M  V30 5660 C 536.16 -3.08772 -1.79985 0
M  V30 5661 C 535.989 -4.38389 -1.00224 0
M  V30 5662 C 534.759 -5.00513 -0.693885 0
M  V30 5663 C 536.957 -5.13013 -0.363598 0
M  V30 5664 N 534.939 -6.13774 0.124266 0
M  V30 5665 C 536.31 -6.19186 0.31757 0
M  V30 5666 C 538.365 -4.97126 -0.277468 0
M  V30 5667 C 537.068 -7.11197 1.07664 0
M  V30 5668 C 539.094 -5.89544 0.468155 0
M  V30 5669 C 538.456 -6.95149 1.13784 0
M  V30 5670 H 534.555 -0.712833 -0.321549 0
M  V30 5671 H 537.139 -1.93633 -0.203588 0
M  V30 5672 H 535.31 -2.97126 -2.50142 0
M  V30 5673 H 537.042 -3.21499 -2.45806 0
M  V30 5674 H 533.797 -4.62619 -1.01391 0
M  V30 5675 H 534.221 -6.74981 0.522418 0
M  V30 5676 H 538.863 -4.15526 -0.78087 0
M  V30 5677 H 536.581 -7.92273 1.59153 0
M  V30 5678 H 540.167 -5.79327 0.535911 0
M  V30 5679 H 539.047 -7.65428 1.70557 0
M  V30 5680 N 536.55 0.480323 -1.50102 0
M  V30 5681 C 537.775 1.26126 -1.64642 0
M  V30 5682 C 538.2 1.85257 -0.325823 0
M  V30 5683 O 537.558 1.66854 0.709194 0
M  V30 5684 C 537.606 2.35243 -2.73301 0
M  V30 5685 O 536.71 3.39646 -2.33911 0
M  V30 5686 H 536.051 0.371463 -0.550374 0
M  V30 5687 H 538.581 0.572696 -1.96421 0
M  V30 5688 H 538.591 2.80695 -2.96098 0
M  V30 5689 H 537.266 1.91574 -3.6915 0
M  V30 5690 H 535.843 2.99969 -2.21525 0
M  V30 5691 N 538.028 1.39524 0.732853 0
M  V30 5692 C 539.253 1.40329 1.52717 0
M  V30 5693 C 539.678 0.000286574 1.881 0
M  V30 5694 O 539.036 -0.987262 1.52062 0
M  V30 5695 C 539.084 2.28464 2.78992 0
M  V30 5696 O 538.188 1.716 3.75003 0
M  V30 5697 H 537.529 0.47778 0.461109 0
M  V30 5698 H 540.059 1.83546 0.903996 0
M  V30 5699 H 540.069 2.43051 3.27705 0
M  V30 5700 H 538.744 3.30425 2.52572 0
M  V30 5701 H 537.321 1.66267 3.33781 0
M  V30 5702 N 539.506 -0.963266 1.24736 0
M  V30 5703 C 540.436 -2.07628 1.06832 0
M  V30 5704 C 541.417 -1.70088 -0.0200566 0
M  V30 5705 O 542.602 -1.93636 0.147854 0
M  V30 5706 C 539.732 -3.40636 0.677069 0
M  V30 5707 C 538.686 -3.9215 1.71471 0
M  V30 5708 C 538.012 -5.21553 1.1784 0
M  V30 5709 C 539.312 -4.19493 3.11164 0
M  V30 5710 H 541.006 -2.22864 1.9993 0
M  V30 5711 H 538.552 -1.07093 0.96266 0
M  V30 5712 H 540.505 -4.17941 0.538792 0
M  V30 5713 H 539.229 -3.25313 -0.289612 0
M  V30 5714 H 537.888 -3.17005 1.84128 0
M  V30 5715 H 537.536 -5.02593 0.202195 0
M  V30 5716 H 537.236 -5.56988 1.87185 0
M  V30 5717 H 538.76 -6.01463 1.05233 0
M  V30 5718 H 540.174 -4.87487 3.01711 0
M  V30 5719 H 538.571 -4.66165 3.77902 0
M  V30 5720 H 539.641 -3.26097 3.58871 0
M  V30 5721 N 540.985 -1.06182 -1.16461 0
M  V30 5722 C 542.401 -0.785065 -1.38956 0
M  V30 5723 C 542.601 0.616103 -1.9185 0
M  V30 5724 O 541.657 1.37686 -2.11657 0
M  V30 5725 C 542.97 -1.84902 -2.37132 0
M  V30 5726 C 544.518 -1.8724 -2.50819 0
M  V30 5727 C 544.993 -2.92686 -3.52277 0
M  V30 5728 N 546.484 -2.91712 -3.59803 0
M  V30 5729 C 547.219 -3.69949 -4.38093 0
M  V30 5730 N 546.715 -4.58 -5.19815 0
M  V30 5731 N 548.508 -3.58346 -4.33064 0
M  V30 5732 H 540.659 -1.96569 -0.804634 0
M  V30 5733 H 542.922 -0.851747 -0.416211 0
M  V30 5734 H 542.628 -2.85518 -2.0536 0
M  V30 5735 H 542.502 -1.69908 -3.36766 0
M  V30 5736 H 544.889 -0.872827 -2.81897 0
M  V30 5737 H 544.97 -2.06311 -1.51226 0
M  V30 5738 H 544.614 -3.92835 -3.21937 0
M  V30 5739 H 544.544 -2.70864 -4.51598 0
M  V30 5740 H 547.035 -2.27876 -3.01464 0
M  V30 5741 H 547.348 -5.14357 -5.76764 0
M  V30 5742 H 545.693 -4.62056 -5.19162 0
M  V30 5743 H 548.884 -2.88943 -3.68279 0
M  V30 5744 H 549.057 -4.19563 -4.93833 0
M  V30 5745 N 542.463 1.3308 -0.844243 0
M  V30 5746 C 543.393 2.3161 -0.296493 0
M  V30 5747 C 544.374 1.59215 0.598707 0
M  V30 5748 O 545.559 1.87077 0.521134 0
M  V30 5749 C 542.689 3.43313 0.524762 0
M  V30 5750 C 541.643 4.27115 -0.275106 0
M  V30 5751 C 540.969 5.30483 0.670236 0
M  V30 5752 C 542.269 5.00443 -1.49514 0
M  V30 5753 H 543.963 2.77672 -1.11976 0
M  V30 5754 H 541.509 1.33496 -0.539899 0
M  V30 5755 H 543.462 4.11273 0.918298 0
M  V30 5756 H 542.186 2.95952 1.3813 0
M  V30 5757 H 540.845 3.60787 -0.650267 0
M  V30 5758 H 540.493 4.79379 1.52332 0
M  V30 5759 H 540.193 5.87435 0.139123 0
M  V30 5760 H 541.717 6.01308 1.06117 0
M  V30 5761 H 543.131 5.61141 -1.17447 0
M  V30 5762 H 541.528 5.67071 -1.96343 0
M  V30 5763 H 542.598 4.28906 -2.26202 0
M  V30 5764 N 543.941 0.601185 1.45683 0
M  V30 5765 C 545.352 0.179659 1.85834 0
M  V30 5766 C 545.703 -1.26189 1.50236 0
M  V30 5767 O 544.828 -1.95587 0.925987 0
M  V30 5768 C 545.423 0.319277 3.37292 0
M  V30 5769 C 543.982 -0.0475092 3.7637 0
M  V30 5770 C 543.129 0.646692 2.69654 0
M  V30 5771 H 546.08 0.808268 1.36575 0
M  V30 5772 H 546.101 -0.4503 3.77826 0
M  V30 5773 H 545.613 1.36855 3.6317 0
M  V30 5774 H 543.714 -1.0962 3.5611 0
M  V30 5775 H 543.827 0.34168 4.7788 0
M  V30 5776 H 542.191 0.0849971 2.54558 0
M  V30 5777 H 542.974 1.69797 2.98369 0
M  V30 5778 N 545.419 -1.53889 0.339982 0
M  V30 5779 C 546.644 -2.05741 -0.261798 0
M  V30 5780 C 547.069 -1.21354 -1.43718 0
M  V30 5781 O 546.427 -0.22645 -1.7988 0
M  V30 5782 C 546.475 -3.54542 -0.658228 0
M  V30 5783 O 545.579 -3.7302 -1.75869 0
M  V30 5784 H 544.92 -0.662529 -0.0441672 0
M  V30 5785 H 547.45 -1.98568 0.493161 0
M  V30 5786 H 547.46 -3.9711 -0.936368 0
M  V30 5787 H 546.135 -4.15412 0.201358 0
M  V30 5788 H 544.712 -3.42355 -1.47809 0
M  V30 5789 N 546.897 -0.0685191 -1.57451 0
M  V30 5790 C 548.145 0.60016 -1.92983 0
M  V30 5791 C 548.466 1.70348 -0.949028 0
M  V30 5792 O 547.736 1.959 0.00335647 0
M  V30 5793 H 546.316 0.224682 -0.712409 0
M  V30 5794 H 548.978 -0.125605 -1.94495 0
M  V30 5795 H 548.074 1.02759 -2.94698 0
M  V30 5796 N 548.375 1.56261 0.205012 0
M  V30 5797 C 549.305 1.96779 1.257 0
M  V30 5798 C 550.286 0.838309 1.48008 0
M  V30 5799 O 551.471 1.10189 1.59913 0
M  V30 5800 C 548.601 2.29876 2.60335 0
M  V30 5801 C 547.555 3.45469 2.52656 0
M  V30 5802 C 546.881 3.64215 3.91473 0
M  V30 5803 C 548.181 4.79954 2.06014 0
M  V30 5804 H 549.875 2.84904 0.920338 0
M  V30 5805 H 547.421 1.37072 0.441277 0
M  V30 5806 H 549.374 2.56814 3.34102 0
M  V30 5807 H 548.098 1.38622 2.95722 0
M  V30 5808 H 546.757 3.18605 1.81345 0
M  V30 5809 H 546.405 2.70309 4.24196 0
M  V30 5810 H 546.105 4.41973 3.87213 0
M  V30 5811 H 547.629 3.93519 4.66878 0
M  V30 5812 H 549.043 5.05989 2.69533 0
M  V30 5813 H 547.44 5.61111 2.12777 0
M  V30 5814 H 548.51 4.74201 1.01297 0
M  V30 5815 N 549.853 -0.472356 1.50355 0
M  V30 5816 C 551.101 -1.22211 1.60962 0
M  V30 5817 C 551.422 -1.92497 0.311439 0
M  V30 5818 O 550.692 -1.8405 -0.671002 0
M  V30 5819 H 549.272 -0.454092 0.593135 0
M  V30 5820 H 551.934 -0.544977 1.87126 0
M  V30 5821 H 551.03 -1.9707 2.42012 0
M  V30 5822 N 551.331 -1.39911 -0.725443 0
M  V30 5823 C 552.571 -1.39096 -1.49772 0
M  V30 5824 C 552.935 0.0106452 -1.91997 0
M  V30 5825 O 554.136 0.143859 -2.68415 0
M  V30 5826 C 552.407 -2.34441 -2.69764 0
M  V30 5827 S 553.966 -2.51898 -3.59295 0
M  V30 5828 H 550.784 -0.49314 -0.512186 0
M  V30 5829 H 553.386 -1.76093 -0.849197 0
M  V30 5830 H 552.09 -3.35123 -2.36898 0
M  V30 5831 H 551.621 -1.98692 -3.39537 0
M  V30 5832 H 553.636 -1.76402 -4.63785 0
M  V30 5833 N 552.809 0.956637 -1.25245 0
M  V30 5834 C 554.034 1.74104 -1.12706 0
M  V30 5835 C 554.459 1.85436 0.315429 0
M  V30 5836 O 553.817 1.33334 1.22848 0
M  V30 5837 C 553.865 3.1338 -1.78396 0
M  V30 5838 O 552.969 3.98485 -1.06224 0
M  V30 5839 H 552.31 0.53476 -0.393609 0
M  V30 5840 H 554.84 1.19924 -1.65769 0
M  V30 5841 H 554.85 3.6385 -1.846 0
M  V30 5842 H 553.525 3.04448 -2.83345 0
M  V30 5843 H 552.102 3.56952 -1.07886 0
M  V30 5844 N 554.287 1.06798 1.15896 0
M  V30 5845 C 555.515 0.808694 1.90441 0
M  V30 5846 C 555.93 -0.637506 1.77711 0
M  V30 5847 O 555.287 -1.43684 1.12522 0
M  V30 5848 C 555.338 1.20068 3.40978 0
M  V30 5849 O 555.059 2.59013 3.53333 0
M  V30 5850 C 556.56 0.96987 4.3256 0
M  V30 5851 H 553.78 0.292809 0.603742 0
M  V30 5852 H 556.324 1.42296 1.46874 0
M  V30 5853 H 554.479 0.630842 3.82229 0
M  V30 5854 H 554.893 2.7485 4.46719 0
M  V30 5855 H 556.367 1.29371 5.36626 0
M  V30 5856 H 556.844 -0.0941209 4.39099 0
M  V30 5857 H 557.45 1.52433 3.97044 0
M  V30 5858 N 555.766 -1.3263 0.851289 0
M  V30 5859 C 557.012 -1.9766 0.453694 0
M  V30 5860 C 557.345 -1.67225 -0.987396 0
M  V30 5861 O 556.62 -0.958693 -1.69232 0
M  V30 5862 C 556.903 -3.5344 0.68936 0
M  V30 5863 C 556.756 -3.93517 2.17862 0
M  V30 5864 C 558.075 -4.39866 0.143555 0
M  V30 5865 H 555.194 -0.717989 0.166314 0
M  V30 5866 H 557.836 -1.57068 1.06909 0
M  V30 5867 H 555.986 -3.88147 0.165546 0
M  V30 5868 H 557.658 -3.69006 2.76826 0
M  V30 5869 H 555.901 -3.42798 2.65841 0
M  V30 5870 H 556.572 -5.02065 2.29422 0
M  V30 5871 H 559.048 -4.11875 0.591451 0
M  V30 5872 H 557.924 -5.47858 0.338043 0
M  V30 5873 H 558.185 -4.31696 -0.953466 0
M  V30 5874 N 557.244 -0.608902 -1.45362 0
M  V30 5875 C 558.174 0.0964526 -2.33301 0
M  V30 5876 C 559.155 0.857444 -1.46908 0
M  V30 5877 O 560.34 0.827735 -1.75676 0
M  V30 5878 C 557.47 1.09354 -3.29635 0
M  V30 5879 C 556.424 0.445676 -4.25673 0
M  V30 5880 C 555.75 1.5511 -5.11708 0
M  V30 5881 C 557.05 -0.633972 -5.18438 0
M  V30 5882 H 558.744 -0.637829 -2.92527 0
M  V30 5883 H 556.29 -0.308178 -1.40664 0
M  V30 5884 H 558.243 1.59556 -3.90025 0
M  V30 5885 H 556.967 1.85843 -2.6857 0
M  V30 5886 H 555.626 -0.0354897 -3.66583 0
M  V30 5887 H 555.274 2.30631 -4.4701 0
M  V30 5888 H 554.974 1.12311 -5.76767 0
M  V30 5889 H 556.498 2.05537 -5.74967 0
M  V30 5890 H 557.912 -0.215974 -5.72893 0
M  V30 5891 H 556.309 -0.983789 -5.91981 0
M  V30 5892 H 557.379 -1.51005 -4.60788 0
M  V30 5893 N 558.722 1.53707 -0.348139 0
M  V30 5894 C 559.947 2.05877 0.250883 0
M  V30 5895 C 560.372 1.22115 1.43072 0
M  V30 5896 O 559.73 0.235986 1.79758 0
M  V30 5897 C 559.778 3.54886 0.639416 0
M  V30 5898 O 558.882 3.73948 1.73888 0
M  V30 5899 H 558.223 0.662754 0.040653 0
M  V30 5900 H 560.753 1.98303 -0.503685 0
M  V30 5901 H 560.763 3.97601 0.915295 0
M  V30 5902 H 559.438 4.153 -0.223386 0
M  V30 5903 H 558.015 3.43134 1.45991 0
M  V30 5904 N 560.2 0.0768682 1.57412 0
M  V30 5905 C 561.611 -0.455037 1.8107 0
M  V30 5906 C 561.962 -1.69323 0.991162 0
M  V30 5907 O 561.087 -2.15328 0.215156 0
M  V30 5908 C 561.682 -0.832316 3.28417 0
M  V30 5909 C 560.241 -1.30906 3.52903 0
M  V30 5910 C 559.388 -0.296714 2.75708 0
M  V30 5911 H 562.339 0.302514 1.5579 0
M  V30 5912 H 562.36 -1.69333 3.40744 0
M  V30 5913 H 561.872 0.0690532 3.88039 0
M  V30 5914 H 559.973 -2.22875 2.98592 0
M  V30 5915 H 560.086 -1.28348 4.61588 0
M  V30 5916 H 558.45 -0.775059 2.42621 0
M  V30 5917 H 559.233 0.597015 3.38069 0
M  V30 5918 N 561.678 -1.56367 -0.196722 0
M  V30 5919 C 562.588 -1.97617 -1.2643 0
M  V30 5920 C 563.604 -0.883598 -1.49895 0
M  V30 5921 O 564.78 -1.18921 -1.62541 0
M  V30 5922 C 561.845 -2.30595 -2.58895 0
M  V30 5923 C 560.906 -3.53551 -2.43516 0
M  V30 5924 C 560.139 -3.84946 -3.69665 0
M  V30 5925 O 560.362 -3.17655 -4.73763 0
M  V30 5926 O 559.296 -4.78379 -3.65291 0
M  V30 5927 H 563.122 -2.88648 -0.944233 0
M  V30 5928 H 560.707 -1.43901 -0.401592 0
M  V30 5929 H 562.589 -2.52889 -3.37083 0
M  V30 5930 H 561.264 -1.42732 -2.90533 0
M  V30 5931 H 560.171 -3.36507 -1.63445 0
M  V30 5932 H 561.504 -4.41875 -2.16812 0
M  V30 5933 N 563.156 0.464375 -1.50603 0
M  V30 5934 C 564.404 1.21356 -1.61608 0
M  V30 5935 C 564.725 1.92329 -0.321643 0
M  V30 5936 O 563.995 1.84403 0.661232 0
M  V30 5937 H 562.575 0.45094 -0.595535 0
M  V30 5938 H 565.237 0.535046 -1.87412 0
M  V30 5939 H 564.333 1.95783 -2.43054 0
M  V30 5940 N 564.634 1.40294 0.718013 0
M  V30 5941 C 565.859 1.41941 1.5122 0
M  V30 5942 C 566.284 0.0202371 1.88089 0
M  V30 5943 O 565.642 -0.971078 1.53101 0
M  V30 5944 C 565.69 2.3141 2.76554 0
M  V30 5945 O 564.794 1.75567 3.73162 0
M  V30 5946 H 564.135 0.482644 0.456016 0
M  V30 5947 H 566.665 1.84494 0.884478 0
M  V30 5948 H 566.675 2.46513 3.25108 0
M  V30 5949 H 565.35 3.33085 2.49053 0
M  V30 5950 H 563.927 1.69798 3.31999 0
M  V30 5951 N 566.112 -0.949982 1.2575 0
M  V30 5952 C 567.075 -2.02894 1.06615 0
M  V30 5953 C 568.075 -1.60791 0.0173905 0
M  V30 5954 O 569.265 -1.72249 0.260003 0
M  V30 5955 C 566.397 -3.35219 0.619751 0
M  V30 5956 H 567.59 -2.21302 2.02399 0
M  V30 5957 H 565.143 -1.12772 1.08223 0
M  V30 5958 H 565.878 -3.22508 -0.340486 0
M  V30 5959 H 565.663 -3.67129 1.37692 0
M  V30 5960 H 567.153 -4.14505 0.507443 0
M  V30 5961 N 567.59 -1.07411 -1.15328 0
M  V30 5962 C 568.522 -0.652924 -2.19703 0
M  V30 5963 C 569.535 0.294869 -1.60107 0
M  V30 5964 O 570.724 0.0840932 -1.78302 0
M  V30 5965 C 567.824 0.061434 -3.38844 0
M  V30 5966 C 566.997 -0.902696 -4.27984 0
M  V30 5967 C 566.056 -0.225521 -5.25717 0
M  V30 5968 O 565.082 -0.86676 -5.62562 0
M  V30 5969 N 566.284 1.02858 -5.71315 0
M  V30 5970 H 569.049 -1.55081 -2.56457 0
M  V30 5971 H 566.61 -0.958883 -1.30449 0
M  V30 5972 H 568.602 0.525145 -4.01278 0
M  V30 5973 H 567.172 0.861269 -3.00501 0
M  V30 5974 H 566.392 -1.54551 -3.6264 0
M  V30 5975 H 567.68 -1.55636 -4.84412 0
M  V30 5976 H 567.078 1.56948 -5.43492 0
M  V30 5977 H 565.635 1.43596 -6.35786 0
M  V30 5978 N 569.068 1.32177 -0.85831 0
M  V30 5979 C 570.315 1.97125 -0.463484 0
M  V30 5980 C 570.643 1.67907 0.981705 0
M  V30 5981 O 569.898 0.961717 1.70439 0
M  V30 5982 C 570.197 3.51372 -0.653658 0
M  V30 5983 C 569.863 4.00584 -2.06987 0
M  V30 5984 C 568.525 4.13733 -2.4572 0
M  V30 5985 C 570.877 4.26624 -2.99402 0
M  V30 5986 C 568.205 4.50268 -3.76132 0
M  V30 5987 C 570.557 4.64618 -4.29316 0
M  V30 5988 C 569.221 4.75975 -4.67979 0
M  V30 5989 H 568.491 0.72133 -0.169601 0
M  V30 5990 H 571.138 1.57517 -1.08907 0
M  V30 5991 H 569.443 3.91761 0.0551328 0
M  V30 5992 H 571.14 3.99655 -0.328163 0
M  V30 5993 H 567.73 3.90837 -1.75911 0
M  V30 5994 H 571.914 4.1597 -2.70708 0
M  V30 5995 H 567.17 4.57256 -4.05865 0
M  V30 5996 H 571.344 4.83722 -5.00985 0
M  V30 5997 H 568.971 5.04041 -5.69076 0
M  V30 5998 N 570.547 0.616602 1.45037 0
M  V30 5999 C 571.51 -0.0871112 2.29034 0
M  V30 6000 C 572.51 -0.786414 1.40258 0
M  V30 6001 O 573.7 -0.633207 1.62284 0
M  V30 6002 C 570.832 -1.13369 3.21497 0
M  V30 6003 H 572.025 0.651497 2.92738 0
M  V30 6004 H 569.578 0.376058 1.51709 0
M  V30 6005 H 570.313 -1.90277 2.62612 0
M  V30 6006 H 570.098 -0.636358 3.86902 0
M  V30 6007 H 571.588 -1.62627 3.84633 0
M  V30 6008 N 572.025 -1.5352 0.356285 0
M  V30 6009 C 572.988 -2.24071 -0.482182 0
M  V30 6010 C 573.988 -1.24531 -1.01729 0
M  V30 6011 O 575.178 -1.48876 -0.904513 0
M  V30 6012 C 572.31 -2.97025 -1.67299 0
M  V30 6013 H 573.503 -2.99596 0.135031 0
M  V30 6014 H 571.056 -1.55928 0.107825 0
M  V30 6015 H 571.791 -2.25719 -2.32855 0
M  V30 6016 H 571.576 -3.7005 -1.29636 0
M  V30 6017 H 573.066 -3.50683 -2.26741 0
M  V30 6018 N 573.503 -0.0852151 -1.57369 0
M  V30 6019 C 574.435 0.907099 -2.10486 0
M  V30 6020 C 575.448 1.25259 -1.03991 0
M  V30 6021 O 576.637 1.20743 -1.31467 0
M  V30 6022 C 573.737 2.21908 -2.56145 0
M  V30 6023 C 572.91 2.05042 -3.86363 0
M  V30 6024 C 571.969 3.19664 -4.17973 0
M  V30 6025 O 570.995 2.94062 -4.87356 0
M  V30 6026 N 572.197 4.45151 -3.72587 0
M  V30 6027 H 574.962 0.453505 -2.96249 0
M  V30 6028 H 572.523 0.100157 -1.6159 0
M  V30 6029 H 574.515 2.97519 -2.74343 0
M  V30 6030 H 573.085 2.58723 -1.75446 0
M  V30 6031 H 572.305 1.13819 -3.77411 0
M  V30 6032 H 573.593 1.91039 -4.71574 0
M  V30 6033 H 572.991 4.68834 -3.16561 0
M  V30 6034 H 571.548 5.17744 -3.9596 0
M  V30 6035 N 574.981 1.5647 0.188427 0
M  V30 6036 C 576.23 1.80207 0.905995 0
M  V30 6037 C 576.543 0.659579 1.84144 0
M  V30 6038 O 577.749 0.781431 2.60011 0
M  V30 6039 C 576.205 3.19255 1.66145 0
M  V30 6040 C 575.813 4.41324 0.770504 0
M  V30 6041 C 577.557 3.52298 2.36826 0
M  V30 6042 C 575.464 5.71394 1.52521 0
M  V30 6043 H 574.394 0.671953 0.342045 0
M  V30 6044 H 577.045 1.82808 0.159164 0
M  V30 6045 H 575.427 3.10922 2.45242 0
M  V30 6046 H 576.601 4.60797 0.0177261 0
M  V30 6047 H 574.916 4.16035 0.174199 0
M  V30 6048 H 577.513 4.46715 2.93854 0
M  V30 6049 H 577.856 2.76359 3.11338 0
M  V30 6050 H 578.389 3.62108 1.6469 0
M  V30 6051 H 575.128 6.50316 0.82275 0
M  V30 6052 H 574.648 5.55928 2.25175 0
M  V30 6053 H 576.327 6.12747 2.07725 0
M  V30 6054 N 576.459 -0.456382 1.50847 0
M  V30 6055 C 577.706 -1.20736 1.62571 0
M  V30 6056 C 578.034 -1.9163 0.332904 0
M  V30 6057 O 577.289 -1.8343 -0.682058 0
M  V30 6058 C 577.588 -2.26336 2.76599 0
M  V30 6059 C 577.254 -1.7259 4.16562 0
M  V30 6060 C 575.916 -1.57654 4.54641 0
M  V30 6061 C 578.268 -1.32877 5.03977 0
M  V30 6062 C 575.596 -1.0145 5.77862 0
M  V30 6063 C 577.948 -0.7811 6.27759 0
M  V30 6064 C 576.612 -0.618488 6.64628 0
M  V30 6065 H 575.882 -0.441803 0.594888 0
M  V30 6066 H 578.529 -0.501169 1.84826 0
M  V30 6067 H 576.834 -3.0292 2.48489 0
M  V30 6068 H 578.531 -2.84227 2.82871 0
M  V30 6069 H 575.121 -1.85187 3.86528 0
M  V30 6070 H 579.305 -1.43245 4.75179 0
M  V30 6071 H 574.561 -0.876109 6.0509 0
M  V30 6072 H 578.735 -0.464783 6.94847 0
M  V30 6073 H 576.362 -0.180838 7.59985 0
M  V30 6074 N 577.937 -1.40673 -0.710563 0
M  V30 6075 C 579.185 -1.38947 -1.46759 0
M  V30 6076 C 579.506 0.00572879 -1.94999 0
M  V30 6077 O 578.776 0.961358 -1.70689 0
M  V30 6078 H 577.356 -0.5114 -0.544499 0
M  V30 6079 H 580.018 -1.75773 -0.842012 0
M  V30 6080 H 579.114 -2.06745 -2.33801 0
M  V30 6081 N 579.415 0.9433 -1.26252 0
M  V30 6082 C 580.345 2.05902 -1.10122 0
M  V30 6083 C 581.326 1.70099 -0.00700552 0
M  V30 6084 O 582.511 1.93377 -0.178641 0
M  V30 6085 C 579.641 3.39516 -0.731175 0
M  V30 6086 C 578.595 3.89372 -1.77688 0
M  V30 6087 C 577.921 5.19613 -1.26122 0
M  V30 6088 C 579.221 4.14489 -3.17799 0
M  V30 6089 H 580.915 2.19655 -2.03451 0
M  V30 6090 H 578.461 1.05548 -0.979576 0
M  V30 6091 H 580.414 4.17031 -0.605215 0
M  V30 6092 H 579.138 3.25733 0.23782 0
M  V30 6093 H 577.797 3.14036 -1.89148 0
M  V30 6094 H 577.445 5.02208 -0.282128 0
M  V30 6095 H 577.145 5.53939 -1.96023 0
M  V30 6096 H 578.669 5.99713 -1.14789 0
M  V30 6097 H 580.083 4.82625 -3.09428 0
M  V30 6098 H 578.48 4.60094 -3.85271 0
M  V30 6099 H 579.55 3.20347 -3.64014 0
M  V30 6100 N 580.893 1.08022 1.14757 0
M  V30 6101 C 582.118 0.82895 1.90114 0
M  V30 6102 C 582.543 -0.612772 1.77839 0
M  V30 6103 O 581.901 -1.42895 1.11583 0
M  V30 6104 C 581.949 1.25062 3.38219 0
M  V30 6105 O 581.053 0.400119 4.10454 0
M  V30 6106 H 580.394 0.301412 0.591648 0
M  V30 6107 H 582.924 1.44062 1.45284 0
M  V30 6108 H 582.934 1.22977 3.89025 0
M  V30 6109 H 581.609 2.30067 3.46471 0
M  V30 6110 H 580.186 0.484052 3.69745 0
M  V30 6111 N 582.371 -1.3172 0.865308 0
M  V30 6112 C 583.319 -2.30569 0.306674 0
M  V30 6113 C 584.313 -1.59317 -0.575724 0
M  V30 6114 O 585.519 -1.73961 -0.462343 0
M  V30 6115 H 581.894 -0.747681 0.0804834 0
M  V30 6116 H 583.865 -2.75165 1.15441 0
M  V30 6117 C 582.614 -3.44358 -0.480952 0
M  V30 6118 H 581.937 -3.99354 0.18876 0
M  V30 6119 H 583.377 -4.15652 -0.837241 0
M  V30 6120 C 581.836 -2.92574 -1.67039 0
M  V30 6121 O 582.366 -2.90954 -2.76964 0
M  V30 6122 N 580.572 -2.48835 -1.50097 0
M  V30 6123 H 580.119 -2.50353 -0.606738 0
M  V30 6124 H 580.077 -2.14543 -2.29823 0
M  V30 6125 N 583.85 -0.624285 -1.44708 0
M  V30 6126 C 584.8 0.106466 -2.27751 0
M  V30 6127 C 585.784 0.822703 -1.38277 0
M  V30 6128 O 586.976 0.709939 -1.62138 0
M  V30 6129 C 584.105 1.092 -3.25469 0
M  V30 6130 C 583.191 0.375737 -4.22432 0
M  V30 6131 N 583.582 -0.591881 -5.02325 0
M  V30 6132 C 581.88 0.621093 -4.41654 0
M  V30 6133 C 582.581 -1.01443 -5.72786 0
M  V30 6134 N 581.557 -0.354651 -5.42442 0
M  V30 6135 H 585.359 -0.636464 -2.86926 0
M  V30 6136 H 582.873 -0.44925 -1.56062 0
M  V30 6137 H 584.87 1.63006 -3.83712 0
M  V30 6138 H 583.529 1.8353 -2.67856 0
M  V30 6139 H 584.541 -0.969389 -5.08747 0
M  V30 6140 H 581.218 1.34779 -3.95147 0
M  V30 6141 H 582.608 -1.81345 -6.46965 0
M  V30 6142 N 585.328 1.53329 -0.364422 0
M  V30 6143 C 586.258 2.28627 0.474543 0
M  V30 6144 C 587.239 1.31009 1.08492 0
M  V30 6145 O 588.424 1.59878 1.10239 0
M  V30 6146 C 585.554 3.07465 1.61501 0
M  V30 6147 C 584.508 4.1276 1.13194 0
M  V30 6148 C 583.834 4.79674 2.36255 0
M  V30 6149 C 585.134 5.21847 0.217507 0
M  V30 6150 H 586.828 2.99005 -0.153656 0
M  V30 6151 H 584.374 1.43803 -0.0753406 0
M  V30 6152 H 586.327 3.58889 2.20855 0
M  V30 6153 H 585.051 2.34775 2.27042 0
M  V30 6154 H 583.71 3.62281 0.56109 0
M  V30 6155 H 583.358 4.03557 3.00251 0
M  V30 6156 H 583.058 5.50827 2.04606 0
M  V30 6157 H 584.582 5.33892 2.96297 0
M  V30 6158 H 585.996 5.6878 0.718493 0
M  V30 6159 H 584.393 6.00099 -0.00806408 0
M  V30 6160 H 585.463 4.7921 -0.740653 0
M  V30 6161 N 586.806 0.0935595 1.57322 0
M  V30 6162 C 588.052 -0.571355 1.94585 0
M  V30 6163 C 588.385 -1.67929 0.975366 0
M  V30 6164 O 587.66 -1.94498 0.00816206 0
M  V30 6165 C 587.943 -1.12797 3.41978 0
M  V30 6166 C 587.796 -0.0251881 4.49793 0
M  V30 6167 C 589.115 -2.02682 3.90651 0
M  V30 6168 H 586.234 -0.206223 0.70756 0
M  V30 6169 H 588.876 0.163956 1.89291 0
M  V30 6170 H 587.026 -1.75461 3.4662 0
M  V30 6171 H 588.698 0.608979 4.57263 0
M  V30 6172 H 586.941 0.641399 4.29032 0
M  V30 6173 H 587.612 -0.455433 5.50118 0
M  V30 6174 H 590.088 -1.49925 3.88152 0
M  V30 6175 H 588.964 -2.38555 4.94351 0
M  V30 6176 H 589.225 -2.94362 3.29854 0
M  V30 6177 N 588.284 -1.56567 -0.180126 0
M  V30 6178 C 589.53 -1.82658 -0.894859 0
M  V30 6179 C 589.885 -0.672826 -1.80252 0
M  V30 6180 O 589.178 0.331227 -1.88715 0
M  V30 6181 C 589.372 -3.1252 -1.73395 0
M  V30 6182 C 589.201 -4.40417 -0.909028 0
M  V30 6183 C 587.971 -5.01872 -0.587562 0
M  V30 6184 C 590.169 -5.13669 -0.254698 0
M  V30 6185 N 588.151 -6.13373 0.254428 0
M  V30 6186 C 589.522 -6.18373 0.448837 0
M  V30 6187 C 591.577 -4.97603 -0.171958 0
M  V30 6188 C 590.28 -7.08753 1.22725 0
M  V30 6189 C 592.306 -5.88418 0.593101 0
M  V30 6190 C 591.668 -6.92579 1.28503 0
M  V30 6191 H 587.767 -0.719493 -0.306356 0
M  V30 6192 H 590.351 -1.94021 -0.16247 0
M  V30 6193 H 588.522 -3.02365 -2.43783 0
M  V30 6194 H 590.254 -3.2664 -2.38931 0
M  V30 6195 H 587.009 -4.64666 -0.915557 0
M  V30 6196 H 587.433 -6.73721 0.665474 0
M  V30 6197 H 592.075 -4.17089 -0.692555 0
M  V30 6198 H 589.793 -7.88718 1.75923 0
M  V30 6199 H 593.379 -5.78059 0.658674 0
M  V30 6200 H 592.259 -7.61638 1.86754 0
M  V30 6201 N 589.762 0.448376 -1.51087 0
M  V30 6202 C 590.987 1.22605 -1.6728 0
M  V30 6203 C 591.412 1.84524 -0.365045 0
M  V30 6204 O 590.77 1.6832 0.673642 0
M  V30 6205 C 590.818 2.29393 -2.78229 0
M  V30 6206 O 589.922 3.34608 -2.41063 0
M  V30 6207 H 589.263 0.359705 -0.558129 0
M  V30 6208 H 591.793 0.530903 -1.97592 0
M  V30 6209 H 591.803 2.74352 -3.01986 0
M  V30 6210 H 590.478 1.83701 -3.73131 0
M  V30 6211 H 589.055 2.95202 -2.27838 0
M  V30 6212 N 591.24 1.41047 0.703093 0
M  V30 6213 C 592.187 1.42302 1.81711 0
M  V30 6214 C 593.157 0.278336 1.63751 0
M  V30 6215 O 594.342 0.478266 1.84709 0
M  V30 6216 C 591.482 1.30362 3.19531 0
M  V30 6217 C 590.595 2.54638 3.48975 0
M  V30 6218 C 589.73 2.35047 4.76368 0
M  V30 6219 C 588.769 3.54837 4.98756 0
M  V30 6220 N 587.906 3.34363 6.1737 0
M  V30 6221 H 592.746 2.37516 1.79973 0
M  V30 6222 H 590.283 1.1795 0.878983 0
M  V30 6223 H 592.241 1.21443 3.99134 0
M  V30 6224 H 590.871 0.387602 3.20464 0
M  V30 6225 H 589.923 2.74037 2.63833 0
M  V30 6226 H 591.235 3.43766 3.61423 0
M  V30 6227 H 590.389 2.23552 5.64012 0
M  V30 6228 H 589.128 1.43363 4.66153 0
M  V30 6229 H 588.133 3.66795 4.09563 0
M  V30 6230 H 589.358 4.47464 5.10835 0
M  V30 6231 H 587.304 2.45373 6.08382 0
M  V30 6232 H 587.221 4.17063 6.30551 0
M  V30 6233 H 588.489 3.26626 7.07768 0
M  V30 6234 N 592.718 -0.936591 1.26751 0
M  V30 6235 C 593.648 -2.05315 1.11212 0
M  V30 6236 C 594.629 -1.70092 0.0160262 0
M  V30 6237 O 595.814 -1.93279 0.188894 0
M  V30 6238 C 592.944 -3.39123 0.749171 0
M  V30 6239 C 591.898 -3.88425 1.79751 0
M  V30 6240 C 591.224 -5.18936 1.28876 0
M  V30 6241 C 592.524 -4.12798 3.19992 0
M  V30 6242 H 594.218 -2.18573 2.04613 0
M  V30 6243 H 591.764 -1.05027 0.985159 0
M  V30 6244 H 593.717 -4.16704 0.627323 0
M  V30 6245 H 592.441 -3.25855 -0.220543 0
M  V30 6246 H 591.1 -3.13028 1.90811 0
M  V30 6247 H 590.748 -5.02051 0.308757 0
M  V30 6248 H 590.448 -5.52892 1.98958 0
M  V30 6249 H 591.972 -5.99096 1.17967 0
M  V30 6250 H 593.386 -4.80977 3.11983 0
M  V30 6251 H 591.783 -4.58044 3.87705 0
M  V30 6252 H 592.853 -3.18412 3.65707 0
M  V30 6253 N 594.196 -1.08629 -1.14182 0
M  V30 6254 C 595.612 -0.814363 -1.3726 0
M  V30 6255 C 595.812 0.575271 -1.93114 0
M  V30 6256 O 594.868 1.33165 -2.1453 0
M  V30 6257 C 596.181 -1.8989 -2.33157 0
M  V30 6258 C 597.729 -1.92518 -2.46791 0
M  V30 6259 C 598.204 -3.00092 -3.45989 0
M  V30 6260 N 599.695 -2.99279 -3.53534 0
M  V30 6261 C 600.43 -3.79158 -4.30147 0
M  V30 6262 N 599.926 -4.68923 -5.09983 0
M  V30 6263 N 601.719 -3.67451 -4.25366 0
M  V30 6264 H 593.87 -1.98232 -0.762758 0
M  V30 6265 H 596.133 -0.860383 -0.398051 0
M  V30 6266 H 595.839 -2.89809 -1.99257 0
M  V30 6267 H 595.713 -1.77013 -3.33086 0
M  V30 6268 H 598.1 -0.932425 -2.79982 0
M  V30 6269 H 598.181 -2.09473 -1.46816 0
M  V30 6270 H 597.825 -3.99575 -3.13532 0
M  V30 6271 H 597.755 -2.80382 -4.45751 0
M  V30 6272 H 600.246 -2.3422 -2.96563 0
M  V30 6273 H 600.559 -5.26475 -5.65724 0
M  V30 6274 H 598.904 -4.72964 -5.09244 0
M  V30 6275 H 602.095 -2.9669 -3.62067 0
M  V30 6276 H 602.268 -4.29944 -4.84822 0
M  V30 6277 N 595.674 1.31259 -0.872281 0
M  V30 6278 C 596.637 2.26744 -0.334656 0
M  V30 6279 C 597.637 1.52307 0.515681 0
M  V30 6280 O 598.827 1.71148 0.324656 0
M  V30 6281 C 595.959 3.36841 0.524482 0
M  V30 6282 H 597.152 2.75812 -1.17762 0
M  V30 6283 H 594.705 1.42232 -0.648064 0
M  V30 6284 H 595.44 2.93069 1.38855 0
M  V30 6285 H 595.225 3.92009 -0.0844299 0
M  V30 6286 H 596.715 4.07944 0.892838 0
M  V30 6287 N 597.152 0.631951 1.44375 0
M  V30 6288 C 598.377 0.142146 2.06912 0
M  V30 6289 C 598.802 -1.17456 1.4692 0
M  V30 6290 O 598.16 -1.72074 0.570975 0
M  V30 6291 C 598.208 0.0417952 3.60576 0
M  V30 6292 O 597.312 -1.00194 4.00044 0
M  V30 6293 H 596.653 0.0851491 0.658518 0
M  V30 6294 H 599.183 0.868863 1.85235 0
M  V30 6295 H 599.193 -0.148517 4.0773 0
M  V30 6296 H 597.868 1.0031 4.03622 0
M  V30 6297 H 596.445 -0.786131 3.64519 0
M  V30 6298 N 598.631 -1.53133 0.372548 0
M  V30 6299 C 599.88 -2.00539 -0.216115 0
M  V30 6300 C 600.193 -1.26374 -1.49295 0
M  V30 6301 O 601.399 -1.64404 -2.16064 0
M  V30 6302 C 599.855 -3.57253 -0.435678 0
M  V30 6303 C 599.463 -4.40302 0.82693 0
M  V30 6304 C 601.207 -4.12995 -0.981618 0
M  V30 6305 C 599.114 -5.88583 0.576567 0
M  V30 6306 H 598.044 -0.749246 -0.084536 0
M  V30 6307 H 600.695 -1.76771 0.492364 0
M  V30 6308 H 599.077 -3.77202 -1.20559 0
M  V30 6309 H 600.251 -4.32124 1.60017 0
M  V30 6310 H 598.566 -3.95699 1.29659 0
M  V30 6311 H 601.163 -5.21418 -1.18436 0
M  V30 6312 H 601.506 -3.68027 -1.94581 0
M  V30 6313 H 602.039 -3.96871 -0.271696 0
M  V30 6314 H 598.778 -6.37841 1.51128 0
M  V30 6315 H 598.298 -5.99592 -0.158047 0
M  V30 6316 H 599.977 -6.46676 0.204722 0
M  V30 6317 N 600.109 -0.101901 -1.5727 0
M  V30 6318 C 601.039 0.851544 -2.17419 0
M  V30 6319 C 602.02 1.28942 -1.10941 0
M  V30 6320 O 603.205 1.35509 -1.39107 0
M  V30 6321 C 600.335 2.10816 -2.75996 0
M  V30 6322 C 599.289 1.80867 -3.87906 0
M  V30 6323 C 598.615 3.13413 -4.33216 0
M  V30 6324 C 599.915 1.0903 -5.10793 0
M  V30 6325 H 601.609 0.350381 -2.97343 0
M  V30 6326 H 599.155 0.16709 -1.43027 0
M  V30 6327 H 601.108 2.77959 -3.16729 0
M  V30 6328 H 599.832 2.63227 -1.93337 0
M  V30 6329 H 598.491 1.16119 -3.47724 0
M  V30 6330 H 598.139 3.63725 -3.47438 0
M  V30 6331 H 597.839 2.94155 -5.08671 0
M  V30 6332 H 599.363 3.81704 -4.76586 0
M  V30 6333 H 600.777 1.66295 -5.48652 0
M  V30 6334 H 599.174 0.99927 -5.91722 0
M  V30 6335 H 600.244 0.0741704 -4.84843 0
M  V30 6336 N 601.587 1.56661 0.17182 0
M  V30 6337 C 602.535 1.97289 1.23207 0
M  V30 6338 C 603.529 0.861566 1.45854 0
M  V30 6339 O 604.735 1.04668 1.4644 0
M  V30 6340 H 601.11 0.627681 0.41415 0
M  V30 6341 H 603.081 2.85662 0.862542 0
M  V30 6342 C 601.83 2.34849 2.564 0
M  V30 6343 H 601.153 3.19903 2.39797 0
M  V30 6344 H 602.593 2.67121 3.29276 0
M  V30 6345 C 601.052 1.19172 3.15119 0
M  V30 6346 O 601.582 0.479113 3.98833 0
M  V30 6347 N 599.788 0.962415 2.74201 0
M  V30 6348 H 599.335 1.54365 2.06226 0
M  V30 6349 H 599.293 0.190272 3.13824 0
M  V30 6350 N 603.065 -0.440357 1.51323 0
M  V30 6351 C 604.293 -1.21255 1.67645 0
M  V30 6352 C 604.708 -1.85088 0.37252 0
M  V30 6353 O 604.065 -1.70582 -0.648683 0
M  V30 6354 C 604.116 -2.29881 2.78993 0
M  V30 6355 O 603.837 -1.68659 4.04334 0
M  V30 6356 C 605.338 -3.20214 3.06558 0
M  V30 6357 H 602.558 -0.36558 0.562666 0
M  V30 6358 H 605.102 -0.52214 1.97722 0
M  V30 6359 H 603.257 -2.94643 2.51524 0
M  V30 6360 H 603.671 -2.40426 4.6615 0
M  V30 6361 H 605.145 -3.92575 3.88058 0
M  V30 6362 H 605.622 -3.80794 2.18844 0
M  V30 6363 H 606.228 -2.61156 3.35675 0
M  V30 6364 N 604.543 -1.41418 -0.695603 0
M  V30 6365 C 605.789 -1.41983 -1.45645 0
M  V30 6366 C 606.144 -0.0282216 -1.92379 0
M  V30 6367 O 605.437 0.945916 -1.66622 0
M  V30 6368 C 605.631 -2.36112 -2.68302 0
M  V30 6369 C 605.46 -3.84288 -2.33566 0
M  V30 6370 C 604.23 -4.52971 -2.23932 0
M  V30 6371 C 606.428 -4.75264 -1.96543 0
M  V30 6372 N 604.41 -5.86276 -1.82081 0
M  V30 6373 C 605.781 -5.97517 -1.6545 0
M  V30 6374 C 607.836 -4.62911 -1.83352 0
M  V30 6375 C 606.539 -7.08793 -1.22492 0
M  V30 6376 C 608.565 -5.74149 -1.41799 0
M  V30 6377 C 607.927 -6.95501 -1.11617 0
M  V30 6378 H 604.026 -0.574771 -0.530247 0
M  V30 6379 H 606.61 -1.77289 -0.804788 0
M  V30 6380 H 604.781 -2.02902 -3.31188 0
M  V30 6381 H 606.513 -2.27397 -3.34773 0
M  V30 6382 H 603.268 -4.06909 -2.42327 0
M  V30 6383 H 603.692 -6.56926 -1.63638 0
M  V30 6384 H 608.334 -3.69588 -2.05341 0
M  V30 6385 H 606.052 -8.01982 -0.992482 0
M  V30 6386 H 609.638 -5.66595 -1.32143 0
M  V30 6387 H 608.518 -7.80114 -0.799493 0
M  V30 6388 N 606.021 0.929856 -1.27246 0
M  V30 6389 C 607.27 1.67182 -1.12842 0
M  V30 6390 C 607.583 1.9287 0.325666 0
M  V30 6391 O 608.789 2.64999 0.590572 0
M  V30 6392 C 607.245 3.01097 -1.97151 0
M  V30 6393 C 606.853 2.83115 -3.47203 0
M  V30 6394 C 608.597 3.78907 -1.91389 0
M  V30 6395 C 606.504 4.12573 -4.23719 0
M  V30 6396 H 605.434 0.627064 -0.418697 0
M  V30 6397 H 608.085 1.0332 -1.51649 0
M  V30 6398 H 606.467 3.66004 -1.51186 0
M  V30 6399 H 607.641 2.26989 -4.01015 0
M  V30 6400 H 605.956 2.18736 -3.54321 0
M  V30 6401 H 608.553 4.74837 -2.45834 0
M  V30 6402 H 608.896 4.0674 -0.887047 0
M  V30 6403 H 609.429 3.20794 -2.35237 0
M  V30 6404 H 606.168 3.8992 -5.26918 0
M  V30 6405 H 605.688 4.68371 -3.74685 0
M  V30 6406 H 607.367 4.8095 -4.32777 0
M  V30 6407 N 607.499 1.09233 1.13605 0
M  V30 6408 C 608.724 0.849067 1.89224 0
M  V30 6409 C 609.149 -0.593875 1.78479 0
M  V30 6410 O 608.507 -1.41703 1.13092 0
M  V30 6411 C 608.555 1.28642 3.36873 0
M  V30 6412 O 607.659 0.44363 4.10007 0
M  V30 6413 H 607 0.30767 0.588417 0
M  V30 6414 H 609.53 1.45595 1.43748 0
M  V30 6415 H 609.54 1.27096 3.87699 0
M  V30 6416 H 608.215 2.33729 3.44011 0
M  V30 6417 H 606.792 0.523241 3.69211 0
M  V30 6418 N 608.977 -1.30795 0.87923 0
M  V30 6419 C 609.907 -2.30742 0.357796 0
M  V30 6420 C 610.888 -1.60747 -0.556283 0
M  V30 6421 O 612.073 -1.88393 -0.47135 0
M  V30 6422 C 609.203 -3.44583 -0.433555 0
M  V30 6423 C 608.157 -4.26235 0.388251 0
M  V30 6424 C 607.483 -5.32073 -0.529352 0
M  V30 6425 C 608.783 -4.96303 1.62729 0
M  V30 6426 H 610.477 -2.74605 1.19299 0
M  V30 6427 H 608.023 -1.32017 0.575104 0
M  V30 6428 H 609.976 -4.13563 -0.808934 0
M  V30 6429 H 608.7 -2.99511 -1.30234 0
M  V30 6430 H 607.359 -3.58936 0.745695 0
M  V30 6431 H 607.007 -4.83249 -1.39569 0
M  V30 6432 H 606.707 -5.87598 0.0166741 0
M  V30 6433 H 608.231 -6.0391 -0.901373 0
M  V30 6434 H 609.645 -5.5783 1.32283 0
M  V30 6435 H 608.042 -5.61666 2.11309 0
M  V30 6436 H 609.112 -4.22758 2.37494 0
M  V30 6437 N 610.455 -0.639598 -1.44038 0
M  V30 6438 C 611.402 0.0602458 -2.30721 0
M  V30 6439 C 612.372 0.828352 -1.43971 0
M  V30 6440 O 613.557 0.807693 -1.72861 0
M  V30 6441 C 610.697 1.03008 -3.29368 0
M  V30 6442 C 609.81 0.259502 -4.3122 0
M  V30 6443 C 608.945 1.22191 -5.16955 0
M  V30 6444 C 607.984 0.440978 -6.10509 0
M  V30 6445 N 607.121 1.35428 -6.88915 0
M  V30 6446 H 611.961 -0.684867 -2.90023 0
M  V30 6447 H 609.498 -0.349509 -1.42888 0
M  V30 6448 H 611.456 1.60583 -3.85057 0
M  V30 6449 H 610.086 1.74222 -2.71747 0
M  V30 6450 H 609.138 -0.432317 -3.77935 0
M  V30 6451 H 610.45 -0.348347 -4.97582 0
M  V30 6452 H 609.604 1.86873 -5.77203 0
M  V30 6453 H 608.343 1.86367 -4.50687 0
M  V30 6454 H 607.348 -0.219279 -5.49363 0
M  V30 6455 H 608.573 -0.196192 -6.78817 0
M  V30 6456 H 606.519 1.9831 -6.25307 0
M  V30 6457 H 606.436 0.800657 -7.51748 0
M  V30 6458 H 607.704 1.98967 -7.53679 0
M  V30 6459 N 611.933 1.52934 -0.380664 0
M  V30 6460 C 612.865 2.23822 0.493581 0
M  V30 6461 C 613.878 1.25761 1.03383 0
M  V30 6462 O 615.067 1.5189 0.937633 0
M  V30 6463 C 612.167 2.9342 1.69582 0
M  V30 6464 C 611.34 4.18115 1.28445 0
M  V30 6465 C 610.399 4.70788 2.35042 0
M  V30 6466 O 609.425 5.34093 1.96807 0
M  V30 6467 N 610.627 4.49899 3.66839 0
M  V30 6468 H 613.392 2.99484 -0.11371 0
M  V30 6469 H 610.953 1.60577 -0.206587 0
M  V30 6470 H 612.945 3.2556 2.40401 0
M  V30 6471 H 611.515 2.21119 2.20965 0
M  V30 6472 H 610.735 3.92109 0.405503 0
M  V30 6473 H 612.023 4.99152 0.986132 0
M  V30 6474 H 611.421 3.99349 4.0067 0
M  V30 6475 H 609.978 4.86551 4.33718 0
M  V30 6476 N 613.412 0.11024 1.57214 0
M  V30 6477 C 614.375 -0.828808 2.1369 0
M  V30 6478 C 615.375 -1.20059 1.06969 0
M  V30 6479 O 616.565 -1.12754 1.32786 0
M  V30 6480 C 613.697 -2.11959 2.66994 0
M  V30 6481 H 614.89 -0.338146 2.97988 0
M  V30 6482 H 612.443 -0.138913 1.55681 0
M  V30 6483 H 613.178 -2.65476 1.8626 0
M  V30 6484 H 612.963 -1.86258 3.45037 0
M  V30 6485 H 614.453 -2.79105 3.10629 0
M  V30 6486 N 614.89 -1.56749 -0.16351 0
M  V30 6487 C 616.167 -1.73321 -0.906599 0
M  V30 6488 C 616.547 -0.673779 -2.00059 0
M  V30 6489 O 615.895 0.310121 -2.26386 0
M  V30 6490 C 616.105 -3.168 -1.46419 0
M  V30 6491 C 617.453 -3.77993 -1.93407 0
M  V30 6492 O 618.477 -3.20127 -1.56196 0
M  V30 6493 O 617.336 -4.79615 -2.61976 0
M  V30 6494 H 614.43 -0.708073 -0.427272 0
M  V30 6495 H 616.976 -1.69029 -0.150727 0
M  V30 6496 H 615.748 -3.85396 -0.677189 0
M  V30 6497 H 615.371 -3.2545 -2.28403 0
M  V30 6498 N 616.368 0.432326 -1.51554 0
M  V30 6499 C 617.315 1.52512 -1.7323 0
M  V30 6500 C 618.285 1.55863 -0.5741 0
M  V30 6501 O 619.47 1.72796 -0.809093 0
M  V30 6502 C 616.61 2.90183 -1.86783 0
M  V30 6503 C 615.723 2.96322 -3.14352 0
M  V30 6504 C 614.858 4.25147 -3.18471 0
M  V30 6505 C 613.897 4.25172 -4.40335 0
M  V30 6506 N 613.034 5.45529 -4.41975 0
M  V30 6507 H 617.874 1.33332 -2.66508 0
M  V30 6508 H 615.411 0.647613 -1.32077 0
M  V30 6509 H 617.369 3.70071 -1.92623 0
M  V30 6510 H 615.999 3.0791 -0.969087 0
M  V30 6511 H 615.051 2.09066 -3.17798 0
M  V30 6512 H 616.363 2.92203 -4.04251 0
M  V30 6513 H 615.517 5.13411 -3.23255 0
M  V30 6514 H 614.256 4.31929 -2.2647 0
M  V30 6515 H 613.261 3.353 -4.35723 0
M  V30 6516 H 614.486 4.20049 -5.33606 0
M  V30 6517 H 612.432 5.53024 -3.52847 0
M  V30 6518 H 612.349 5.43311 -5.25689 0
M  V30 6519 H 613.617 6.35812 -4.50958 0
M  V30 6520 N 617.846 1.41785 0.688094 0
M  V30 6521 C 618.793 1.44221 1.80191 0
M  V30 6522 C 619.763 0.295688 1.63447 0
M  V30 6523 O 620.948 0.49783 1.84191 0
M  V30 6524 C 618.088 1.33743 3.1813 0
M  V30 6525 C 617.201 2.58325 3.46254 0
M  V30 6526 C 616.336 2.40086 4.73848 0
M  V30 6527 C 615.375 3.60107 4.94964 0
M  V30 6528 N 614.512 3.40892 6.13789 0
M  V30 6529 H 619.352 2.39411 1.77444 0
M  V30 6530 H 616.889 1.18876 0.866423 0
M  V30 6531 H 618.847 1.25669 3.97823 0
M  V30 6532 H 617.477 0.42157 3.20035 0
M  V30 6533 H 616.529 2.7682 2.60912 0
M  V30 6534 H 617.841 3.4758 3.57756 0
M  V30 6535 H 616.995 2.29522 5.61609 0
M  V30 6536 H 615.734 1.483 4.64606 0
M  V30 6537 H 614.739 3.71118 4.05649 0
M  V30 6538 H 615.964 4.52857 5.06061 0
M  V30 6539 H 613.91 2.51812 6.05745 0
M  V30 6540 H 613.827 4.23727 6.26092 0
M  V30 6541 H 615.095 3.34114 7.04264 0
M  V30 6542 N 619.324 -0.923095 1.27737 0
M  V30 6543 C 620.573 -1.66581 1.13727 0
M  V30 6544 C 620.886 -1.9304 -0.315433 0
M  V30 6545 O 622.092 -2.65309 -0.57651 0
M  V30 6546 C 620.548 -3.00047 1.98745 0
M  V30 6547 C 620.156 -2.8127 3.48699 0
M  V30 6548 C 621.9 -3.77887 1.93395 0
M  V30 6549 C 619.807 -4.1032 4.25901 0
M  V30 6550 H 618.737 -0.624834 0.422017 0
M  V30 6551 H 621.388 -1.02514 1.52194 0
M  V30 6552 H 619.77 -3.65197 1.53125 0
M  V30 6553 H 620.944 -2.24859 4.02213 0
M  V30 6554 H 619.259 -2.16854 3.55476 0
M  V30 6555 H 621.856 -4.73526 2.48348 0
M  V30 6556 H 622.199 -4.06264 0.908605 0
M  V30 6557 H 622.732 -3.19541 2.36935 0
M  V30 6558 H 619.471 -3.8712 5.28978 0
M  V30 6559 H 618.991 -4.66377 3.77163 0
M  V30 6560 H 620.67 -4.78648 4.35321 0
M  V30 6561 N 620.802 -1.09834 -1.13024 0
M  V30 6562 C 622.218 -0.828875 -1.36388 0
M  V30 6563 C 622.418 0.554756 -1.93713 0
M  V30 6564 O 621.474 1.30882 -2.15931 0
M  V30 6565 C 622.787 -1.92352 -2.3113 0
M  V30 6566 C 624.335 -1.95124 -2.44735 0
M  V30 6567 C 624.81 -3.03745 -3.42787 0
M  V30 6568 N 626.301 -3.03012 -3.5034 0
M  V30 6569 C 627.036 -3.83699 -4.26101 0
M  V30 6570 N 626.532 -4.74306 -5.04981 0
M  V30 6571 N 628.325 -3.71942 -4.21445 0
M  V30 6572 H 620.476 -1.99029 -0.74169 0
M  V30 6573 H 622.739 -0.864557 -0.388903 0
M  V30 6574 H 622.445 -2.91906 -1.96172 0
M  V30 6575 H 622.319 -1.80536 -3.3119 0
M  V30 6576 H 624.706 -0.962069 -2.78977 0
M  V30 6577 H 624.787 -2.11018 -1.44586 0
M  V30 6578 H 624.431 -4.02878 -3.09276 0
M  V30 6579 H 624.361 -2.85094 -4.42752 0
M  V30 6580 H 626.852 -2.37352 -2.94062 0
M  V30 6581 H 627.165 -5.32446 -5.60108 0
M  V30 6582 H 625.51 -4.78339 -5.04199 0
M  V30 6583 H 628.701 -3.00513 -3.589 0
M  V30 6584 H 628.874 -4.35062 -4.80235 0
M  V30 6585 N 622.28 1.30327 -0.886154 0
M  V30 6586 C 623.19 2.31854 -0.357866 0
M  V30 6587 C 624.206 1.65392 0.540502 0
M  V30 6588 O 625.382 1.96683 0.433339 0
M  V30 6589 C 622.447 3.44171 0.417999 0
M  V30 6590 C 621.508 4.26257 -0.510263 0
M  V30 6591 C 620.741 5.3321 0.228669 0
M  V30 6592 O 620.964 5.51542 1.45458 0
M  V30 6593 O 619.898 6.0042 -0.421832 0
M  V30 6594 H 623.724 2.78995 -1.19982 0
M  V30 6595 H 621.309 1.34518 -0.650028 0
M  V30 6596 H 623.191 4.12588 0.857251 0
M  V30 6597 H 621.866 2.99164 1.23623 0
M  V30 6598 H 620.773 3.60533 -0.99835 0
M  V30 6599 H 622.106 4.74871 -1.29454 0
M  V30 6600 N 623.758 0.647228 1.43697 0
M  V30 6601 C 624.998 0.16171 2.03759 0
M  V30 6602 C 625.362 -1.19951 1.49919 0
M  V30 6603 O 626.563 -1.77808 2.01588 0
M  V30 6604 C 624.834 0.16505 3.57019 0
M  V30 6605 S 626.393 -0.253497 4.38067 0
M  V30 6606 H 623.211 0.0689985 0.707644 0
M  V30 6607 H 625.813 0.854224 1.7585 0
M  V30 6608 H 624.517 1.15858 3.93707 0
M  V30 6609 H 624.048 -0.548194 3.89562 0
M  V30 6610 H 626.063 -1.49385 4.73179 0
M  V30 6611 N 625.236 -1.5273 0.388769 0
M  V30 6612 C 626.184 -2.27975 -0.461527 0
M  V30 6613 C 627.178 -1.31854 -1.06352 0
M  V30 6614 O 628.384 -1.49394 -1.00406 0
M  V30 6615 H 624.759 -0.733088 -0.16759 0
M  V30 6616 H 626.73 -2.97765 0.194579 0
M  V30 6617 C 625.479 -3.09881 -1.577 0
M  V30 6618 H 624.802 -3.83701 -1.12309 0
M  V30 6619 H 626.242 -3.6567 -2.14619 0
M  V30 6620 C 624.701 -2.22159 -2.53272 0
M  V30 6621 O 625.231 -1.84802 -3.56667 0
M  V30 6622 N 623.437 -1.8633 -2.23001 0
M  V30 6623 H 622.984 -2.16909 -1.38954 0
M  V30 6624 H 622.942 -1.27927 -2.87197 0
M  V30 6625 N 626.714 -0.118576 -1.57153 0
M  V30 6626 C 627.644 0.828436 -2.1831 0
M  V30 6627 C 628.625 1.27758 -1.12303 0
M  V30 6628 O 629.81 1.34026 -1.40537 0
M  V30 6629 C 626.94 2.07876 -2.78217 0
M  V30 6630 C 625.894 1.76742 -3.89803 0
M  V30 6631 C 625.22 3.08801 -4.36516 0
M  V30 6632 C 626.52 1.03606 -5.11921 0
M  V30 6633 H 628.214 0.318824 -2.97698 0
M  V30 6634 H 625.76 0.151911 -1.43196 0
M  V30 6635 H 627.713 2.74584 -3.19659 0
M  V30 6636 H 626.437 2.61161 -1.96118 0
M  V30 6637 H 625.096 1.12424 -3.48936 0
M  V30 6638 H 624.744 3.6002 -3.51276 0
M  V30 6639 H 624.444 2.88743 -5.11763 0
M  V30 6640 H 625.968 3.76627 -4.80608 0
M  V30 6641 H 627.382 1.60467 -5.50385 0
M  V30 6642 H 625.779 0.936454 -5.92748 0
M  V30 6643 H 626.849 0.0227421 -4.84895 0
M  V30 6644 O 628.231 1.61487 0.0208228 0
M  V30 6645 H 628.922 1.82811 0.640289 0
M  V30 END ATOM
M  V30 BEGIN BOND
M  V30 END BOND
M  V30 END CTAB
M  END
$$$$
