drugbank_target|P22352 Glutathione peroxidase 3 (DB00143; DB03310)
 OpenBabel12092119403D

  0  0  0     0  0            999 V3000
M  V30 BEGIN CTAB
M  V30 COUNTS 3587 3632 0 0 0
M  V30 BEGIN ATOM
M  V30 1 H -0.908 1.98254 -0.117106 0
M  V30 2 N 0 1.576 0 0
M  V30 3 C 0.933 2.03868 1.02534 0
M  V30 4 C 1.911 0.928543 1.3348 0
M  V30 5 O 3.095 1.19667 1.45644 0
M  V30 6 C 0.222 2.43627 2.35294 0
M  V30 7 C -0.732 3.65373 2.2001 0
M  V30 8 S 0.101 5.13292 1.52614 0
M  V30 9 C 1.257 5.56322 2.86805 0
M  V30 10 H 1.49 2.90518 0.631377 0
M  V30 11 H -0.977 1.52953 0.210867 0
M  V30 12 H 0.981 2.67203 3.11629 0
M  V30 13 H -0.358 1.57376 2.7183 0
M  V30 14 H -1.165 3.90944 3.18086 0
M  V30 15 H -1.563 3.418 1.51819 0
M  V30 16 H 0.729 5.58782 3.83104 0
M  V30 17 H 1.672 6.56266 2.65933 0
M  V30 18 H 2.08 4.83886 2.90714 0
M  V30 19 N 1.4781 -0.272755 1.55222 0
M  V30 20 C 2.4411 -1.32041 1.87344 0
M  V30 21 C 3.4411 -1.42342 0.74803 0
M  V30 22 O 4.6311 -1.41488 1.0162 0
M  V30 23 C 1.7631 -2.70173 2.07893 0
M  V30 24 H 2.9561 -1.04789 2.80997 0
M  V30 25 H 0.5091 -0.51083 1.47717 0
M  V30 26 H 1.2441 -3.02605 1.16622 0
M  V30 27 H 1.0291 -2.64082 2.89833 0
M  V30 28 H 2.5191 -3.45869 2.34017 0
M  V30 29 N 2.9562 -1.48159 -0.537278 0
M  V30 30 C 4.3722 -1.34118 -0.865129 0
M  V30 31 C 4.5722 -0.346678 -1.98495 0
M  V30 32 O 3.6282 0.234715 -2.51407 0
M  V30 33 C 4.9412 -2.73963 -1.23954 0
M  V30 34 C 6.4892 -2.82397 -1.34984 0
M  V30 35 C 6.9642 -4.22928 -1.75772 0
M  V30 36 N 8.4552 -4.25566 -1.82887 0
M  V30 37 C 9.1902 -5.31235 -2.15817 0
M  V30 38 N 8.6862 -6.47189 -2.47222 0
M  V30 39 N 10.4792 -5.18624 -2.16761 0
M  V30 40 H 2.6302 -2.1144 0.201715 0
M  V30 41 H 4.8932 -0.947598 0.0275949 0
M  V30 42 H 4.5992 -3.48264 -0.490381 0
M  V30 43 H 4.4732 -3.0702 -2.19132 0
M  V30 44 H 6.8602 -2.08356 -2.08978 0
M  V30 45 H 6.9412 -2.5297 -0.379448 0
M  V30 46 H 6.5852 -4.97482 -1.02341 0
M  V30 47 H 6.5152 -4.49794 -2.73848 0
M  V30 48 H 9.0062 -3.41924 -1.60924 0
M  V30 49 H 9.3192 -7.23564 -2.71433 0
M  V30 50 H 7.6642 -6.50476 -2.44757 0
M  V30 51 H 10.8552 -4.27056 -1.91679 0
M  V30 52 H 11.0282 -6.01078 -2.42093 0
M  V30 53 N 4.4343 0.785586 -1.36625 0
M  V30 54 C 5.3643 1.91259 -1.33949 0
M  V30 55 C 6.3453 1.68795 -0.210325 0
M  V30 56 O 7.5303 1.89854 -0.408561 0
M  V30 57 C 4.6603 3.28339 -1.13186 0
M  V30 58 C 3.6143 3.65335 -2.22967 0
M  V30 59 C 2.9403 5.00806 -1.87342 0
M  V30 60 C 4.2403 3.7352 -3.65075 0
M  V30 61 H 5.9343 1.93755 -2.28253 0
M  V30 62 H 3.4803 0.930788 -1.09874 0
M  V30 63 H 5.4333 4.06804 -1.09948 0
M  V30 64 H 4.1573 3.2624 -0.153332 0
M  V30 65 H 2.8163 2.89169 -2.25337 0
M  V30 66 H 2.4643 4.95233 -0.880545 0
M  V30 67 H 2.1643 5.26529 -2.60846 0
M  V30 68 H 3.6883 5.81687 -1.85667 0
M  V30 69 H 5.1023 4.42168 -3.64911 0
M  V30 70 H 3.4993 4.10731 -4.37516 0
M  V30 71 H 4.5693 2.74527 -3.99703 0
M  V30 72 N 5.9124 1.20967 1.01018 0
M  V30 73 C 6.8424 0.988272 2.11555 0
M  V30 74 C 7.8234 -0.0849778 1.69888 0
M  V30 75 O 9.0084 0.0738202 1.9406 0
M  V30 76 C 6.1384 0.546528 3.42973 0
M  V30 77 C 5.0924 1.56375 3.9841 0
M  V30 78 C 4.4184 0.97842 5.25672 0
M  V30 79 C 5.7184 2.94922 4.31066 0
M  V30 80 H 7.4124 1.91276 2.30334 0
M  V30 81 H 4.9584 0.921073 1.1069 0
M  V30 82 H 6.9114 0.378839 4.19694 0
M  V30 83 H 5.6354 -0.413598 3.23971 0
M  V30 84 H 4.2944 1.71891 3.23804 0
M  V30 85 H 3.9424 0.0101688 5.02999 0
M  V30 86 H 3.6424 1.65784 5.63728 0
M  V30 87 H 5.1664 0.821939 6.05043 0
M  V30 88 H 6.5804 2.8288 4.9865 0
M  V30 89 H 4.9774 3.5983 4.80253 0
M  V30 90 H 6.0474 3.4616 3.39561 0
M  V30 91 N 7.3905 -1.2043 1.01659 0
M  V30 92 C 8.3225 -2.22626 0.544988 0
M  V30 93 C 9.3355 -1.58479 -0.372609 0
M  V30 94 O 10.5245 -1.77679 -0.170958 0
M  V30 95 C 7.6245 -3.38141 -0.22663 0
M  V30 96 C 6.7975 -4.31877 0.692876 0
M  V30 97 C 5.8565 -5.26191 -0.0311616 0
M  V30 98 O 4.8825 -5.6612 0.591343 0
M  V30 99 N 6.0845 -5.65618 -1.30601 0
M  V30 100 H 8.8495 -2.63716 1.42388 0
M  V30 101 H 6.4105 -1.34971 0.894116 0
M  V30 102 H 8.4025 -3.98239 -0.72024 0
M  V30 103 H 6.9725 -2.95943 -1.00681 0
M  V30 104 H 6.1925 -3.69746 1.36679 0
M  V30 105 H 7.4805 -4.91426 1.31824 0
M  V30 106 H 6.8785 -5.3519 -1.83269 0
M  V30 107 H 5.4355 -6.28025 -1.74435 0
M  V30 108 N 8.8686 -0.792821 -1.36206 0
M  V30 109 C 9.8316 -0.199459 -2.2833 0
M  V30 110 C 10.8316 0.605189 -1.48977 0
M  V30 111 O 12.0216 0.425685 -1.68919 0
M  V30 112 C 9.1536 0.723523 -3.33134 0
M  V30 113 H 10.3466 -1.01181 -2.82316 0
M  V30 114 H 7.8996 -0.562485 -1.45828 0
M  V30 115 H 8.6346 1.56008 -2.84309 0
M  V30 116 H 8.4196 0.148436 -3.91819 0
M  V30 117 H 9.9096 1.13344 -4.01924 0
M  V30 118 N 10.3467 1.47872 -0.545128 0
M  V30 119 C 11.5717 2.07391 -0.0190611 0
M  V30 120 C 11.9967 1.39688 1.25971 0
M  V30 121 O 11.3547 0.467816 1.7516 0
M  V30 122 C 11.4027 3.60188 0.172335 0
M  V30 123 O 10.5067 3.9339 1.23766 0
M  V30 124 H 9.8477 0.662411 -0.0459059 0
M  V30 125 H 12.3777 1.90066 -0.757365 0
M  V30 126 H 12.3877 4.06129 0.390305 0
M  V30 127 H 11.0627 4.08865 -0.761725 0
M  V30 128 H 9.6397 3.5921 1.00114 0
M  V30 129 N 11.8248 0.280983 1.55075 0
M  V30 130 C 13.0648 -0.335234 2.01632 0
M  V30 131 C 13.4288 -1.5261 1.16508 0
M  V30 132 O 14.6298 -2.21235 1.52672 0
M  V30 133 C 12.9008 -0.702172 3.50434 0
M  V30 134 S 14.4598 -1.30409 4.18974 0
M  V30 135 H 11.2778 -0.103967 0.703358 0
M  V30 136 H 13.8798 0.404187 1.91276 0
M  V30 137 H 12.5838 0.17333 4.10034 0
M  V30 138 H 12.1148 -1.4729 3.64786 0
M  V30 139 H 14.1298 -2.59253 4.23087 0
M  V30 140 N 13.3029 -1.57598 0.00835791 0
M  V30 141 C 14.2329 -2.1198 -0.979113 0
M  V30 142 C 15.2139 -1.03091 -1.35301 0
M  V30 143 O 16.3989 -1.30818 -1.43528 0
M  V30 144 C 13.5289 -2.62995 -2.26828 0
M  V30 145 C 12.4829 -3.76485 -2.03576 0
M  V30 146 C 11.8089 -4.13846 -3.38579 0
M  V30 147 C 13.1089 -5.0342 -1.39161 0
M  V30 148 H 14.8029 -2.94738 -0.526281 0
M  V30 149 H 12.3489 -1.41783 -0.251704 0
M  V30 150 H 14.3019 -2.99669 -2.96271 0
M  V30 151 H 13.0259 -1.7737 -2.7424 0
M  V30 152 H 11.6849 -3.40217 -1.36557 0
M  V30 153 H 11.3329 -3.25232 -3.83709 0
M  V30 154 H 11.0329 -4.90312 -3.23834 0
M  V30 155 H 12.5569 -4.53086 -4.09323 0
M  V30 156 H 13.9709 -5.37812 -1.98573 0
M  V30 157 H 12.3679 -5.84746 -1.34878 0
M  V30 158 H 13.4379 -4.83548 -0.361868 0
M  V30 159 N 14.781 0.264519 -1.55364 0
M  V30 160 C 15.711 1.33121 -1.91836 0
M  V30 161 C 16.692 1.51101 -0.781192 0
M  V30 162 O 17.877 1.64003 -1.04003 0
M  V30 163 C 15.007 2.68921 -2.19769 0
M  V30 164 C 13.961 2.65661 -3.35571 0
M  V30 165 C 13.287 4.05093 -3.49004 0
M  V30 166 C 14.587 2.24187 -4.71739 0
M  V30 167 H 16.281 1.02844 -2.81182 0
M  V30 168 H 13.827 0.493286 -1.35287 0
M  V30 169 H 15.78 3.43663 -2.43872 0
M  V30 170 H 14.504 3.00799 -1.27231 0
M  V30 171 H 13.163 1.93377 -3.1145 0
M  V30 172 H 12.811 4.34206 -2.53917 0
M  V30 173 H 12.511 4.03804 -4.26868 0
M  V30 174 H 14.035 4.81561 -3.75408 0
M  V30 175 H 15.449 2.88654 -4.9533 0
M  V30 176 H 13.846 2.34044 -5.52579 0
M  V30 177 H 14.916 1.19327 -4.69988 0
M  V30 178 N 16.2591 1.48442 0.529413 0
M  V30 179 C 17.4841 1.60406 1.31471 0
M  V30 180 C 17.9091 0.264738 1.86228 0
M  V30 181 O 17.2671 -0.763668 1.64432 0
M  V30 182 C 17.3151 2.65419 2.44101 0
M  V30 183 O 16.4191 2.22618 3.47153 0
M  V30 184 H 15.7601 0.537863 0.389357 0
M  V30 185 H 18.2901 1.94432 0.636965 0
M  V30 186 H 18.3001 2.86709 2.90279 0
M  V30 187 H 16.9751 3.62652 2.03608 0
M  V30 188 H 15.5521 2.11543 3.0709 0
M  V30 189 N 17.7372 -0.778329 1.37039 0
M  V30 190 C 18.6672 -1.90546 1.34962 0
M  V30 191 C 19.6482 -1.68681 0.219274 0
M  V30 192 O 20.8332 -1.89634 0.418624 0
M  V30 193 C 17.9632 -3.27734 1.14925 0
M  V30 194 C 16.9172 -3.64147 2.24902 0
M  V30 195 C 16.2432 -4.99806 1.89996 0
M  V30 196 C 17.5432 -3.71579 3.67051 0
M  V30 197 H 19.2372 -1.92541 2.29277 0
M  V30 198 H 16.7832 -0.924948 1.10366 0
M  V30 199 H 18.7362 -4.06215 1.12104 0
M  V30 200 H 17.4602 -3.26154 0.170631 0
M  V30 201 H 16.1192 -2.8797 2.26868 0
M  V30 202 H 15.7672 -4.94759 0.906796 0
M  V30 203 H 15.4672 -5.25139 2.63634 0
M  V30 204 H 16.9912 -5.80694 1.88749 0
M  V30 205 H 18.4052 -4.40227 3.67251 0
M  V30 206 H 16.8022 -4.08405 4.39688 0
M  V30 207 H 17.8722 -2.72404 4.01154 0
M  V30 208 N 19.2153 -1.21501 -1.00376 0
M  V30 209 C 20.1453 -0.999478 -2.11028 0
M  V30 210 C 21.1263 0.0759671 -1.6993 0
M  V30 211 O 22.3113 -0.0841106 -1.94018 0
M  V30 212 C 19.4413 -0.564709 -3.42678 0
M  V30 213 C 18.3953 -1.58486 -3.97576 0
M  V30 214 C 17.7213 -1.00628 -5.25146 0
M  V30 215 C 19.0213 -2.97204 -4.29496 0
M  V30 216 H 20.7153 -1.92495 -2.29317 0
M  V30 217 H 18.2613 -0.92693 -1.102 0
M  V30 218 H 20.2143 -0.401091 -4.19487 0
M  V30 219 H 18.9383 0.396411 -3.24185 0
M  V30 220 H 17.5973 -1.73606 -3.22888 0
M  V30 221 H 17.2453 -0.0368439 -5.02987 0
M  V30 222 H 16.9453 -1.68771 -5.62841 0
M  V30 223 H 18.4693 -0.854015 -6.04598 0
M  V30 224 H 19.8833 -2.8552 -4.97143 0
M  V30 225 H 18.2803 -3.62372 -4.78338 0
M  V30 226 H 19.3503 -3.47956 -3.3772 0
M  V30 227 N 20.6934 1.19889 -1.02296 0
M  V30 228 C 21.6234 2.25141 -0.619174 0
M  V30 229 C 22.6044 1.66051 0.368915 0
M  V30 230 O 23.7894 1.92546 0.252941 0
M  V30 231 C 20.9194 3.4728 0.0368783 0
M  V30 232 C 19.8734 4.19005 -0.872865 0
M  V30 233 C 19.1994 5.34637 -0.0822402 0
M  V30 234 C 20.4994 4.74452 -2.18387 0
M  V30 235 H 22.1934 2.59171 -1.49903 0
M  V30 236 H 19.7394 1.24579 -0.722222 0
M  V30 237 H 21.6924 4.20098 0.330958 0
M  V30 238 H 20.4164 3.12433 0.95149 0
M  V30 239 H 19.0754 3.48061 -1.15105 0
M  V30 240 H 18.7234 4.96034 0.83422 0
M  V30 241 H 18.4234 5.83557 -0.688149 0
M  V30 242 H 19.9474 6.10255 0.205238 0
M  V30 243 H 21.3614 5.39055 -1.95172 0
M  V30 244 H 19.7584 5.33834 -2.74119 0
M  V30 245 H 20.8284 3.92844 -2.84257 0
M  V30 246 N 22.1715 0.800033 1.35784 0
M  V30 247 C 23.1345 0.211565 2.28221 0
M  V30 248 C 24.1345 -0.59728 1.49296 0
M  V30 249 O 25.3245 -0.416721 1.69142 0
M  V30 250 C 22.4565 -0.705846 3.33513 0
M  V30 251 H 23.6495 1.02677 2.81776 0
M  V30 252 H 21.2025 0.570211 1.45528 0
M  V30 253 H 21.9375 -1.54498 2.85133 0
M  V30 254 H 21.7225 -0.127655 3.91892 0
M  V30 255 H 23.2125 -1.11211 4.02519 0
M  V30 256 N 23.6496 -1.47581 0.552962 0
M  V30 257 C 24.8976 -2.02082 0.0272703 0
M  V30 258 C 25.2186 -1.4301 -1.32563 0
M  V30 259 O 24.4886 -0.603745 -1.86365 0
M  V30 260 H 23.0686 -0.746966 0.00709182 0
M  V30 261 H 25.7306 -1.81033 0.722008 0
M  V30 262 H 24.8266 -3.12034 -0.0639951 0
M  V30 263 N 25.1277 -0.289203 -1.54924 0
M  V30 264 C 26.3747 0.323519 -1.99899 0
M  V30 265 C 26.7027 1.54797 -1.17762 0
M  V30 266 O 25.9577 1.94237 -0.238835 0
M  V30 267 C 26.2567 0.736119 -3.49737 0
M  V30 268 C 25.9227 -0.385276 -4.49251 0
M  V30 269 C 24.5847 -0.693156 -4.76181 0
M  V30 270 C 26.9367 -1.14021 -5.08575 0
M  V30 271 C 24.2647 -1.7593 -5.59701 0
M  V30 272 C 26.6167 -2.19619 -5.93254 0
M  V30 273 C 25.2807 -2.51026 -6.185 0
M  V30 274 H 24.5507 0.118384 -0.731482 0
M  V30 275 H 27.1977 -0.405847 -1.8715 0
M  V30 276 H 25.5027 1.54539 -3.60035 0
M  V30 277 H 27.1997 1.22118 -3.81953 0
M  V30 278 H 23.7897 -0.135202 -4.28387 0
M  V30 279 H 27.9737 -0.915611 -4.87781 0
M  V30 280 H 23.2297 -2.0075 -5.77503 0
M  V30 281 H 27.4037 -2.78581 -6.38252 0
M  V30 282 H 25.0307 -3.33772 -6.83008 0
M  V30 283 N 26.6058 1.57591 -0.0167156 0
M  V30 284 C 27.8518 1.91567 0.665582 0
M  V30 285 C 28.1848 0.892298 1.72487 0
M  V30 286 O 27.4598 -0.0867127 1.94307 0
M  V30 287 C 27.7428 3.36069 1.29342 0
M  V30 288 C 27.5958 4.49135 0.244541 0
M  V30 289 C 28.9148 3.803 2.21495 0
M  V30 290 H 26.0338 0.69666 0.240488 0
M  V30 291 H 28.6758 1.89866 -0.0714356 0
M  V30 292 H 26.8258 3.3765 1.92158 0
M  V30 293 H 28.4978 4.59689 -0.385228 0
M  V30 294 H 26.7408 4.3165 -0.431379 0
M  V30 295 H 27.4118 5.47242 0.723207 0
M  V30 296 H 29.8878 3.80377 1.68678 0
M  V30 297 H 28.7638 4.82127 2.62382 0
M  V30 298 H 29.0248 3.15104 3.101 0
M  V30 299 N 28.0839 -0.256276 1.55502 0
M  V30 300 C 29.3089 -1.00766 1.81276 0
M  V30 301 C 29.7339 -1.78524 0.59252 0
M  V30 302 O 29.0919 -1.75413 -0.45827 0
M  V30 303 C 29.1399 -1.92869 3.04687 0
M  V30 304 O 28.2439 -3.019 2.80945 0
M  V30 305 H 27.5849 -0.287224 0.598664 0
M  V30 306 H 30.1149 -0.280109 2.02674 0
M  V30 307 H 30.1249 -2.34511 3.33869 0
M  V30 308 H 28.7999 -1.35689 3.93143 0
M  V30 309 H 27.3769 -2.64454 2.62904 0
M  V30 310 N 29.562 -1.4872 -0.521534 0
M  V30 311 C 30.494 -1.59968 -1.64143 0
M  V30 312 C 31.507 -0.483463 -1.55456 0
M  V30 313 O 32.696 -0.75467 -1.61762 0
M  V30 314 C 29.796 -1.52127 -3.02838 0
M  V30 315 C 28.969 -2.78932 -3.36921 0
M  V30 316 C 28.028 -2.64428 -4.54933 0
M  V30 317 O 27.054 -3.38331 -4.57735 0
M  V30 318 N 28.256 -1.74606 -5.53618 0
M  V30 319 H 31.021 -2.56548 -1.54929 0
M  V30 320 H 28.582 -1.45551 -0.708988 0
M  V30 321 H 30.574 -1.40106 -3.79674 0
M  V30 322 H 29.144 -0.634868 -3.06085 0
M  V30 323 H 28.364 -3.05455 -2.4918 0
M  V30 324 H 29.652 -3.63041 -3.56481 0
M  V30 325 H 29.05 -1.13782 -5.54139 0
M  V30 326 H 27.607 -1.6852 -6.29638 0
M  V30 327 N 31.0401 0.771051 -1.3745 0
M  V30 328 C 32.2651 1.56529 -1.36065 0
M  V30 329 C 32.6901 1.88029 0.0515859 0
M  V30 330 O 32.0481 1.49282 1.02882 0
M  V30 331 C 32.0961 2.85187 -2.20683 0
M  V30 332 O 31.2001 3.79593 -1.61193 0
M  V30 333 H 30.5411 0.47411 -0.464883 0
M  V30 334 H 33.0711 0.954269 -1.80983 0
M  V30 335 H 33.0811 3.34283 -2.33921 0
M  V30 336 H 31.7561 2.61588 -3.23334 0
M  V30 337 H 30.3331 3.38239 -1.56999 0
M  V30 338 N 32.5182 1.22032 0.997298 0
M  V30 339 C 33.9342 0.979326 1.26021 0
M  V30 340 C 34.1342 -0.32972 1.98784 0
M  V30 341 O 33.1902 -1.05345 2.29475 0
M  V30 342 C 34.5032 2.17509 2.07631 0
M  V30 343 C 36.0512 2.21817 2.2083 0
M  V30 344 C 36.5262 3.40933 3.05825 0
M  V30 345 N 38.0172 3.41067 3.13412 0
M  V30 346 C 38.7522 4.29885 3.79455 0
M  V30 347 N 38.2482 5.28914 4.47462 0
M  V30 348 N 40.0412 4.17673 3.76173 0
M  V30 349 H 32.1922 2.06202 0.509352 0
M  V30 350 H 34.4552 0.90334 0.287541 0
M  V30 351 H 34.1612 3.12415 1.61524 0
M  V30 352 H 34.0352 2.17206 3.08385 0
M  V30 353 H 36.4222 1.27462 2.66153 0
M  V30 354 H 36.5032 2.2616 1.1952 0
M  V30 355 H 36.1472 4.35586 2.61203 0
M  V30 356 H 36.0772 3.33829 4.07266 0
M  V30 357 H 38.5682 2.69406 2.65007 0
M  V30 358 H 38.8812 5.92973 4.95583 0
M  V30 359 H 37.2262 5.32831 4.46224 0
M  V30 360 H 40.4172 3.39564 3.22202 0
M  V30 361 H 40.5902 4.87098 4.27363 0
M  V30 362 N 33.9963 -1.19345 1.0293 0
M  V30 363 C 35.2443 -1.88665 0.724574 0
M  V30 364 C 35.5653 -1.80036 -0.749144 0
M  V30 365 O 34.8353 -1.2111 -1.53978 0
M  V30 366 H 33.4153 -0.698406 0.265025 0
M  V30 367 H 36.0773 -1.44885 1.30362 0
M  V30 368 H 35.1733 -2.94987 1.01926 0
M  V30 369 N 35.4744 -0.807222 -1.35358 0
M  V30 370 C 36.4064 -0.175717 -2.28525 0
M  V30 371 C 37.4194 0.625354 -1.5031 0
M  V30 372 O 38.6084 0.457611 -1.72535 0
M  V30 373 C 35.7084 0.773471 -3.29956 0
M  V30 374 C 34.8814 0.0186296 -4.37396 0
M  V30 375 C 33.9404 0.886395 -5.18681 0
M  V30 376 O 32.9664 0.337106 -5.68201 0
M  V30 377 N 34.1684 2.20839 -5.36852 0
M  V30 378 H 36.9334 -0.976091 -2.83359 0
M  V30 379 H 34.4944 -0.662737 -1.47714 0
M  V30 380 H 36.4864 1.35824 -3.81227 0
M  V30 381 H 35.0564 1.47465 -2.75632 0
M  V30 382 H 34.2764 -0.747349 -3.87051 0
M  V30 383 H 35.5644 -0.501577 -5.06322 0
M  V30 384 H 34.9624 2.67858 -4.98265 0
M  V30 385 H 33.5194 2.74237 -5.91301 0
M  V30 386 N 36.9525 1.47285 -0.560781 0
M  V30 387 C 37.8625 2.33846 0.187954 0
M  V30 388 C 38.8785 1.48412 0.908293 0
M  V30 389 O 40.0545 1.81332 0.876388 0
M  V30 390 C 37.1195 3.25178 1.2025 0
M  V30 391 C 36.1805 4.26504 0.489208 0
M  V30 392 C 35.4135 5.13472 1.45542 0
M  V30 393 O 35.6365 5.02959 2.6905 0
M  V30 394 O 34.5705 5.93902 0.977963 0
M  V30 395 H 38.3965 2.99177 -0.522177 0
M  V30 396 H 35.9815 1.45903 -0.321364 0
M  V30 397 H 37.8635 3.81584 1.78805 0
M  V30 398 H 36.5385 2.6247 1.89449 0
M  V30 399 H 35.4455 3.73847 -0.137627 0
M  V30 400 H 36.7785 4.91935 -0.161399 0
M  V30 401 N 38.4306 0.297415 1.54768 0
M  V30 402 C 39.3776 -0.580276 2.23386 0
M  V30 403 C 40.3476 -1.13238 1.21517 0
M  V30 404 O 41.5326 -1.17757 1.50126 0
M  V30 405 C 38.6726 -1.74801 2.97555 0
M  V30 406 C 37.7856 -1.22764 4.1419 0
M  V30 407 C 36.9206 -2.35895 4.75949 0
M  V30 408 C 35.9596 -1.80974 5.84735 0
M  V30 409 N 35.0966 -2.87664 6.40464 0
M  V30 410 H 39.9366 0.0114833 2.97998 0
M  V30 411 H 37.4736 0.0174361 1.4709 0
M  V30 412 H 39.4316 -2.43475 3.38786 0
M  V30 413 H 38.0616 -2.31145 2.25326 0
M  V30 414 H 37.1136 -0.433271 3.77924 0
M  V30 415 H 38.4256 -0.785551 4.92575 0
M  V30 416 H 37.5796 -3.12523 5.20014 0
M  V30 417 H 36.3186 -2.83429 3.96887 0
M  V30 418 H 35.3236 -1.02834 5.40097 0
M  V30 419 H 36.5486 -1.34348 6.65678 0
M  V30 420 H 34.4946 -3.34538 5.64287 0
M  V30 421 H 34.4116 -2.4794 7.14186 0
M  V30 422 H 35.6796 -3.642 6.89187 0
M  V30 423 N 39.9087 -1.5758 0.0250728 0
M  V30 424 C 41.1337 -1.96337 -0.668317 0
M  V30 425 C 41.5587 -0.901314 -1.651 0
M  V30 426 O 40.9167 0.138187 -1.80773 0
M  V30 427 C 40.9647 -3.34191 -1.35457 0
M  V30 428 O 40.0687 -3.30269 -2.46974 0
M  V30 429 H 39.4097 -0.640281 -0.175887 0
M  V30 430 H 41.9397 -2.0442 0.0857224 0
M  V30 431 H 41.9497 -3.70331 -1.71228 0
M  V30 432 H 40.6247 -4.11036 -0.634218 0
M  V30 433 H 39.2017 -3.05841 -2.13344 0
M  V30 434 N 41.3868 0.248026 -1.55636 0
M  V30 435 C 42.3338 1.30707 -1.90222 0
M  V30 436 C 43.3038 1.47881 -0.756332 0
M  V30 437 O 44.4888 1.61883 -1.00988 0
M  V30 438 C 41.6288 2.65769 -2.20138 0
M  V30 439 C 40.7418 2.56612 -3.47526 0
M  V30 440 C 39.8768 3.8402 -3.67017 0
M  V30 441 C 38.9158 3.69476 -4.8801 0
M  V30 442 N 38.0528 4.88774 -5.04029 0
M  V30 443 H 42.8928 1.00512 -2.80538 0
M  V30 444 H 40.4298 0.485055 -1.38873 0
M  V30 445 H 42.3878 3.44386 -2.35487 0
M  V30 446 H 41.0178 2.94115 -1.33027 0
M  V30 447 H 40.0698 1.69571 -3.40514 0
M  V30 448 H 41.3818 2.41774 -4.36287 0
M  V30 449 H 40.5358 4.7108 -3.8232 0
M  V30 450 H 39.2748 4.01754 -2.76487 0
M  V30 451 H 38.2798 2.80799 -4.72686 0
M  V30 452 H 39.5048 3.53238 -5.8 0
M  V30 453 H 37.4508 5.0687 -4.16435 0
M  V30 454 H 37.3678 4.76562 -5.86877 0
M  V30 455 H 38.6358 5.77335 -5.23741 0
M  V30 456 N 42.8649 1.48995 0.513639 0
M  V30 457 C 43.7979 1.59319 1.63379 0
M  V30 458 C 44.7759 0.442816 1.56454 0
M  V30 459 O 45.9599 0.656655 1.76693 0
M  V30 460 C 43.0869 1.5364 3.01848 0
M  V30 461 C 42.1329 2.7372 3.27078 0
M  V30 462 S 42.9659 4.35528 3.1157 0
M  V30 463 C 44.1219 4.32473 4.52458 0
M  V30 464 H 44.3549 2.54079 1.54374 0
M  V30 465 H 41.8879 1.3773 0.697849 0
M  V30 466 H 43.8459 1.51049 3.81699 0
M  V30 467 H 42.5069 0.601898 3.08279 0
M  V30 468 H 41.6999 2.6593 4.28132 0
M  V30 469 H 41.3019 2.73657 2.54927 0
M  V30 470 H 43.5939 4.03414 5.44301 0
M  V30 471 H 44.5369 5.33762 4.65299 0
M  V30 472 H 44.9449 3.62718 4.32546 0
M  V30 473 N 44.343 -0.763751 1.37857 0
M  V30 474 C 45.62 -1.51244 1.24035 0
M  V30 475 C 46 -2.10472 -0.162649 0
M  V30 476 O 45.348 -1.96206 -1.17112 0
M  V30 477 C 45.558 -2.58694 2.34261 0
M  V30 478 C 46.906 -3.25878 2.72193 0
M  V30 479 O 47.93 -2.68993 2.33497 0
M  V30 480 O 46.789 -4.2874 3.38887 0
M  V30 481 H 43.883 -0.670243 0.484462 0
M  V30 482 H 46.429 -0.800031 1.49658 0
M  V30 483 H 45.201 -2.13105 3.2818 0
M  V30 484 H 44.824 -3.37527 2.10146 0
M  V30 485 N 45.8211 -1.22559 -0.990812 0
M  V30 486 C 47.0611 -1.06302 -1.74583 0
M  V30 487 C 47.4251 0.394737 -1.87898 0
M  V30 488 O 48.6261 0.678214 -2.60103 0
M  V30 489 C 46.8971 -1.75699 -3.11231 0
M  V30 490 S 48.4561 -1.74882 -4.02445 0
M  V30 491 H 45.2741 -0.380639 -0.600529 0
M  V30 492 H 47.8761 -1.55532 -1.18449 0
M  V30 493 H 46.5801 -2.80923 -2.99183 0
M  V30 494 H 46.1111 -1.26708 -3.72436 0
M  V30 495 H 48.1261 -0.799997 -4.89709 0
M  V30 496 N 47.2992 1.18797 -1.03562 0
M  V30 497 C 48.2492 2.20161 -0.592724 0
M  V30 498 C 49.2332 1.56772 0.362133 0
M  V30 499 O 50.4252 1.76062 0.182009 0
M  V30 500 C 47.5542 3.43266 0.0481024 0
M  V30 501 C 46.6402 4.13786 -0.9296 0
M  V30 502 N 47.0312 4.60388 -2.09467 0
M  V30 503 C 45.3292 4.39572 -0.754499 0
M  V30 504 C 46.0302 5.14619 -2.71187 0
M  V30 505 N 45.0062 5.05826 -1.991 0
M  V30 506 H 48.8082 2.53877 -1.48066 0
M  V30 507 H 46.3222 1.34946 -0.903514 0
M  V30 508 H 48.3192 4.15136 0.383058 0
M  V30 509 H 46.9792 3.11048 0.931636 0
M  V30 510 H 47.9902 4.54999 -2.47379 0
M  V30 511 H 44.6672 4.17425 0.0793713 0
M  V30 512 H 46.0572 5.60917 -3.69895 0
M  V30 513 N 48.7773 0.814389 1.34928 0
M  V30 514 C 50.0253 0.397636 1.9815 0
M  V30 515 C 50.3463 -1.04069 1.64908 0
M  V30 516 O 49.6163 -1.72121 0.93548 0
M  V30 517 H 48.1963 0.144043 0.732981 0
M  V30 518 H 50.8583 1.04195 1.6471 0
M  V30 519 H 49.9543 0.509688 3.0791 0
M  V30 520 N 50.2554 -1.46986 0.568584 0
M  V30 521 C 51.5034 -2.02041 0.0487022 0
M  V30 522 C 51.8244 -1.44408 -1.31039 0
M  V30 523 O 51.0944 -0.623477 -1.85714 0
M  V30 524 H 49.6744 -0.746849 0.015014 0
M  V30 525 H 52.3364 -1.80257 0.741168 0
M  V30 526 H 51.4324 -3.12085 -0.0308961 0
M  V30 527 N 51.7335 -0.305618 -1.54608 0
M  V30 528 C 52.9825 0.303098 -1.9941 0
M  V30 529 C 53.2955 1.54648 -1.19764 0
M  V30 530 O 54.5015 2.23007 -1.54855 0
M  V30 531 C 52.9575 0.590588 -3.55021 0
M  V30 532 C 52.5655 -0.634719 -4.43481 0
M  V30 533 C 54.3095 1.16025 -4.08336 0
M  V30 534 C 52.2165 -0.320126 -5.90533 0
M  V30 535 H 51.1465 0.117031 -0.744862 0
M  V30 536 H 53.7975 -0.415045 -1.78745 0
M  V30 537 H 52.1795 1.36845 -3.71604 0
M  V30 538 H 53.3535 -1.41079 -4.38672 0
M  V30 539 H 51.6685 -1.12333 -4.00962 0
M  V30 540 H 54.2655 1.40994 -5.15776 0
M  V30 541 H 54.6085 2.10397 -3.5922 0
M  V30 542 H 55.1415 0.443985 -3.95315 0
M  V30 543 H 51.8805 -1.23254 -6.43808 0
M  V30 544 H 51.4005 0.418579 -5.98338 0
M  V30 545 H 53.0795 0.0766241 -6.46955 0
M  V30 546 N 53.2116 1.57565 -0.0334293 0
M  V30 547 C 54.4366 1.96689 0.657895 0
M  V30 548 C 54.8616 0.910057 1.64619 0
M  V30 549 O 54.2196 -0.128598 1.80843 0
M  V30 550 C 54.2676 3.34905 1.33683 0
M  V30 551 O 53.3716 3.31574 2.45219 0
M  V30 552 H 52.7126 0.641205 0.172489 0
M  V30 553 H 55.2426 2.04372 -0.0965621 0
M  V30 554 H 55.2526 3.71234 1.69262 0
M  V30 555 H 53.9276 4.11366 0.612411 0
M  V30 556 H 52.5046 3.06968 2.11719 0
M  V30 557 N 54.6897 -0.239769 1.55765 0
M  V30 558 C 55.9377 -0.964892 1.77579 0
M  V30 559 C 56.2587 -1.85582 0.598699 0
M  V30 560 O 55.5287 -1.92075 -0.385226 0
M  V30 561 H 54.1087 -0.359265 0.654933 0
M  V30 562 H 56.7707 -0.256001 1.93211 0
M  V30 563 H 55.8667 -1.58243 2.69009 0
M  V30 564 N 56.1678 -1.49265 -0.50573 0
M  V30 565 C 57.3958 -1.62215 -1.28429 0
M  V30 566 C 57.8108 -0.291697 -1.86533 0
M  V30 567 O 57.1678 0.722233 -1.67601 0
M  V30 568 C 57.2188 -2.68735 -2.41793 0
M  V30 569 O 56.9398 -3.96619 -1.86078 0
M  V30 570 C 58.4408 -2.92346 -3.3324 0
M  V30 571 H 55.6608 -0.546239 -0.389697 0
M  V30 572 H 58.2048 -1.95265 -0.607609 0
M  V30 573 H 56.3598 -2.38476 -3.053 0
M  V30 574 H 56.7738 -4.55256 -2.60465 0
M  V30 575 H 58.2478 -3.70623 -4.09075 0
M  V30 576 H 58.7248 -2.02081 -3.89948 0
M  V30 577 H 59.3308 -3.24003 -2.75503 0
M  V30 578 N 57.6459 0.756429 -1.3826 0
M  V30 579 C 58.8949 1.51082 -1.3363 0
M  V30 580 C 59.2079 1.95467 0.0720068 0
M  V30 581 O 60.4139 2.7043 0.240834 0
M  V30 582 C 58.8699 2.72893 -2.34644 0
M  V30 583 C 58.4779 2.35544 -3.81081 0
M  V30 584 C 60.2219 3.50791 -2.39052 0
M  V30 585 C 58.1289 3.53948 -4.73787 0
M  V30 586 H 57.0589 0.56727 -0.49671 0
M  V30 587 H 59.7099 0.827147 -1.638 0
M  V30 588 H 58.0919 3.43227 -1.97513 0
M  V30 589 H 59.2659 1.72894 -4.27135 0
M  V30 590 H 57.5809 1.70786 -3.79764 0
M  V30 591 H 60.1779 4.38823 -3.05513 0
M  V30 592 H 60.5209 3.91745 -1.40861 0
M  V30 593 H 61.0539 2.87467 -2.74968 0
M  V30 594 H 57.7929 3.18064 -5.73163 0
M  V30 595 H 57.3129 4.15651 -4.32428 0
M  V30 596 H 58.9919 4.20566 -4.91663 0
M  V30 597 N 59.124 1.23083 0.984299 0
M  V30 598 C 60.354 1.08556 1.75781 0
M  V30 599 C 60.762 -0.366171 1.85623 0
M  V30 600 O 60.105 -1.26524 1.33182 0
M  V30 601 C 60.167 1.63208 3.20318 0
M  V30 602 C 59.831 3.11922 3.33997 0
M  V30 603 C 60.828 4.09259 3.2063 0
M  V30 604 C 58.513 3.51552 3.58771 0
M  V30 605 C 60.507 5.4421 3.31835 0
M  V30 606 C 58.194 4.86649 3.69616 0
M  V30 607 C 59.192 5.82787 3.56157 0
M  V30 608 O 58.88 7.15431 3.66626 0
M  V30 609 H 58.612 0.380713 0.5586 0
M  V30 610 H 61.166 1.63321 1.2456 0
M  V30 611 H 59.396 1.0286 3.72769 0
M  V30 612 H 61.085 1.44216 3.79416 0
M  V30 613 H 61.851 3.79984 3.01392 0
M  V30 614 H 57.73 2.77239 3.6832 0
M  V30 615 H 61.274 6.1923 3.21247 0
M  V30 616 H 57.171 5.15601 3.88363 0
M  V30 617 H 57.939 7.23127 3.83445 0
M  V30 618 N 60.6021 -1.18246 1.0419 0
M  V30 619 C 61.5121 -2.25574 0.644476 0
M  V30 620 C 62.5281 -1.70845 -0.329826 0
M  V30 621 O 63.7041 -2.00554 -0.184443 0
M  V30 622 C 60.7691 -3.46697 0.014877 0
M  V30 623 C 59.8301 -4.16554 1.03834 0
M  V30 624 C 59.0631 -5.31894 0.438692 0
M  V30 625 O 59.2861 -5.65385 -0.754752 0
M  V30 626 O 58.2201 -5.90459 1.168 0
M  V30 627 H 62.0461 -2.61836 1.53869 0
M  V30 628 H 59.6311 -1.25352 0.812854 0
M  V30 629 H 61.5131 -4.20062 -0.335538 0
M  V30 630 H 60.1881 -3.12255 -0.853138 0
M  V30 631 H 59.0951 -3.45251 1.44057 0
M  V30 632 H 60.4281 -4.54998 1.87716 0
M  V30 633 N 62.0802 -0.821533 -1.34494 0
M  V30 634 C 63.3102 -0.421272 -2.02259 0
M  V30 635 C 63.7182 0.977047 -1.6202 0
M  V30 636 O 63.0612 1.64348 -0.820703 0
M  V30 637 C 63.1232 -0.44231 -3.56769 0
M  V30 638 C 62.7872 -1.79372 -4.20327 0
M  V30 639 C 63.7842 -2.75435 -4.40944 0
M  V30 640 C 61.4692 -2.08182 -4.57127 0
M  V30 641 C 63.4632 -3.98482 -4.97484 0
M  V30 642 C 61.1502 -3.31489 -5.13379 0
M  V30 643 C 62.1482 -4.26457 -5.33501 0
M  V30 644 O 61.8362 -5.47585 -5.88562 0
M  V30 645 H 61.5682 -0.167473 -0.654927 0
M  V30 646 H 64.1222 -1.11073 -1.72777 0
M  V30 647 H 62.3522 0.303836 -3.85505 0
M  V30 648 H 64.0412 -0.0622925 -4.05852 0
M  V30 649 H 64.8072 -2.54473 -4.12878 0
M  V30 650 H 60.6862 -1.35066 -4.4077 0
M  V30 651 H 64.2302 -4.72618 -5.13106 0
M  V30 652 H 60.1272 -3.52316 -5.40873 0
M  V30 653 H 60.8952 -5.49086 -6.06998 0
M  V30 654 N 63.5583 1.46682 -0.576371 0
M  V30 655 C 64.8063 2.02013 -0.0594163 0
M  V30 656 C 65.1273 1.45101 1.30271 0
M  V30 657 O 64.3973 0.633317 1.8538 0
M  V30 658 H 62.9773 0.746759 -0.0189745 0
M  V30 659 H 65.6393 1.79862 -0.750717 0
M  V30 660 H 64.7353 3.12097 0.014345 0
M  V30 661 N 65.0364 0.313813 1.54444 0
M  V30 662 C 65.9994 -0.54379 2.22656 0
M  V30 663 C 66.9994 -1.05124 1.21678 0
M  V30 664 O 68.1894 -0.945225 1.46325 0
M  V30 665 C 65.3214 -1.75427 2.92298 0
M  V30 666 H 66.5144 0.0523599 2.99854 0
M  V30 667 H 64.0674 0.0647834 1.56166 0
M  V30 668 H 64.8024 -2.38991 2.19211 0
M  V30 669 H 64.5874 -1.39791 3.66334 0
M  V30 670 H 66.0774 -2.36325 3.44297 0
M  V30 671 N 66.5145 -1.57545 0.0417849 0
M  V30 672 C 67.4445 -2.14009 -0.933929 0
M  V30 673 C 68.4255 -1.05938 -1.33083 0
M  V30 674 O 69.6105 -1.33833 -1.40721 0
M  V30 675 C 66.7405 -2.67747 -2.21199 0
M  V30 676 C 65.6945 -3.80718 -1.95544 0
M  V30 677 C 65.0205 -4.20935 -3.29724 0
M  V30 678 C 66.3205 -5.06258 -1.28452 0
M  V30 679 H 68.0145 -2.95788 -0.463645 0
M  V30 680 H 65.5605 -1.42285 -0.221573 0
M  V30 681 H 67.5135 -3.05886 -2.89848 0
M  V30 682 H 66.2375 -1.83147 -2.70416 0
M  V30 683 H 64.8965 -3.43037 -1.2931 0
M  V30 684 H 64.5445 -3.33298 -3.76724 0
M  V30 685 H 64.2445 -4.9707 -3.13361 0
M  V30 686 H 65.7685 -4.61666 -3.9962 0
M  V30 687 H 67.1825 -5.41903 -1.8712 0
M  V30 688 H 65.5795 -5.87475 -1.22445 0
M  V30 689 H 66.6495 -4.84207 -0.259219 0
M  V30 690 N 67.9926 0.231505 -1.5589 0
M  V30 691 C 69.2206 0.974505 -1.82513 0
M  V30 692 C 69.6356 1.78344 -0.619591 0
M  V30 693 O 68.9926 1.77792 0.411848 0
M  V30 694 C 69.0436 1.90007 -3.07538 0
M  V30 695 O 68.7646 1.12385 -4.2344 0
M  V30 696 C 70.2656 2.75779 -3.47075 0
M  V30 697 H 67.4856 0.286065 -0.606966 0
M  V30 698 H 70.0296 0.249739 -2.02969 0
M  V30 699 H 68.1846 2.57891 -2.89086 0
M  V30 700 H 68.5986 1.75125 -4.944 0
M  V30 701 H 70.0726 3.36443 -4.37619 0
M  V30 702 H 70.5496 3.47672 -2.68367 0
M  V30 703 H 71.1556 2.13323 -3.67931 0
M  V30 704 N 69.4707 1.49531 0.497807 0
M  V30 705 C 70.7197 1.58426 1.24837 0
M  V30 706 C 71.0327 0.277643 1.93619 0
M  V30 707 O 72.2387 0.24517 2.70391 0
M  V30 708 C 70.6947 2.79538 2.26686 0
M  V30 709 C 70.3027 4.16971 1.63828 0
M  V30 710 C 72.0467 2.97764 3.0255 0
M  V30 711 C 69.9537 5.29301 2.63807 0
M  V30 712 H 68.8837 0.58989 0.469623 0
M  V30 713 H 71.5347 1.75923 0.521857 0
M  V30 714 H 69.9167 2.55542 3.02514 0
M  V30 715 H 71.0907 4.51116 0.939711 0
M  V30 716 H 69.4057 4.04129 1.00342 0
M  V30 717 H 72.0027 3.78856 3.77323 0
M  V30 718 H 72.3457 2.08448 3.60354 0
M  V30 719 H 72.8787 3.21815 2.33838 0
M  V30 720 H 69.6177 6.20687 2.10779 0
M  V30 721 H 69.1377 4.99606 3.31894 0
M  V30 722 H 70.8167 5.58768 3.2617 0
M  V30 723 N 70.9488 -0.749086 1.3866 0
M  V30 724 C 72.2258 -1.4992 1.25632 0
M  V30 725 C 72.6058 -2.10633 -0.140317 0
M  V30 726 O 71.9538 -1.97437 -1.15025 0
M  V30 727 C 72.1638 -2.56195 2.36992 0
M  V30 728 C 73.5118 -3.22972 2.75634 0
M  V30 729 O 74.5358 -2.66502 2.36337 0
M  V30 730 O 73.3948 -4.25122 3.43415 0
M  V30 731 H 70.4888 -0.665067 0.491544 0
M  V30 732 H 73.0348 -0.784113 1.50498 0
M  V30 733 H 71.8068 -2.09612 3.30422 0
M  V30 734 H 71.4298 -3.35279 2.13714 0
M  V30 735 N 72.4269 -1.23603 -0.977757 0
M  V30 736 C 73.6749 -1.06759 -1.71601 0
M  V30 737 C 73.9959 0.395929 -1.90938 0
M  V30 738 O 73.2659 1.28356 -1.47992 0
M  V30 739 H 71.8459 -0.392062 -0.635843 0
M  V30 740 H 74.5079 -1.55362 -1.1768 0
M  V30 741 H 73.6039 -1.55763 -2.70452 0
M  V30 742 N 73.905 1.17692 -1.04816 0
M  V30 743 C 74.815 2.25229 -0.65643 0
M  V30 744 C 75.831 1.71018 0.320761 0
M  V30 745 O 77.007 2.00649 0.173805 0
M  V30 746 C 74.072 3.46684 -0.0332629 0
M  V30 747 C 73.133 4.15997 -1.06042 0
M  V30 748 C 72.366 5.31654 -0.466893 0
M  V30 749 O 72.589 5.65777 0.724758 0
M  V30 750 O 71.523 5.89831 -1.1993 0
M  V30 751 H 75.349 2.61016 -1.55255 0
M  V30 752 H 72.934 1.24919 -0.81949 0
M  V30 753 H 74.816 4.20234 0.313256 0
M  V30 754 H 73.491 3.12703 0.836566 0
M  V30 755 H 72.398 3.44482 -1.45886 0
M  V30 756 H 73.731 4.53996 -1.90127 0
M  V30 757 N 75.3831 0.828654 1.34056 0
M  V30 758 C 76.2931 0.256725 2.33191 0
M  V30 759 C 77.3091 -0.611898 1.62886 0
M  V30 760 O 78.4851 -0.51844 1.94613 0
M  V30 761 C 75.5501 -0.567238 3.42028 0
M  V30 762 C 74.6111 0.324458 4.28072 0
M  V30 763 C 73.8441 -0.460274 5.31712 0
M  V30 764 O 74.0671 -1.693 5.44696 0
M  V30 765 O 73.0011 0.160391 6.01686 0
M  V30 766 H 76.8271 1.07739 2.83947 0
M  V30 767 H 74.4121 0.59093 1.37217 0
M  V30 768 H 76.2941 -1.03582 4.08471 0
M  V30 769 H 74.9691 -1.36513 2.93506 0
M  V30 770 H 73.8761 0.840659 3.64532 0
M  V30 771 H 75.2091 1.08685 4.8005 0
M  V30 772 N 76.8612 -1.46375 0.584142 0
M  V30 773 C 78.0912 -2.06461 0.0758195 0
M  V30 774 C 78.4992 -1.43322 -1.23512 0
M  V30 775 O 77.8422 -0.533216 -1.75791 0
M  V30 776 C 77.9042 -3.59131 -0.162773 0
M  V30 777 C 77.5682 -4.4447 1.06279 0
M  V30 778 C 78.5652 -4.80918 1.97519 0
M  V30 779 C 76.2502 -4.85584 1.28504 0
M  V30 780 C 78.2442 -5.57309 3.09331 0
M  V30 781 C 75.9312 -5.61734 2.4062 0
M  V30 782 C 76.9292 -5.9751 3.30863 0
M  V30 783 O 76.6172 -6.72121 4.41032 0
M  V30 784 H 76.3492 -0.673745 0.0551725 0
M  V30 785 H 78.9032 -1.88969 0.804984 0
M  V30 786 H 77.1332 -3.74936 -0.946565 0
M  V30 787 H 78.8222 -4.0114 -0.619782 0
M  V30 788 H 79.5882 -4.49732 1.81565 0
M  V30 789 H 75.4672 -4.57187 0.591702 0
M  V30 790 H 79.0112 -5.85152 3.79793 0
M  V30 791 H 74.9082 -5.92334 2.56537 0
M  V30 792 H 75.6762 -6.90547 4.39417 0
M  V30 793 N 78.3393 -0.321999 -1.54275 0
M  V30 794 C 79.5883 0.281931 -1.9972 0
M  V30 795 C 79.9013 1.53369 -1.21397 0
M  V30 796 O 81.1073 2.21352 -1.57211 0
M  V30 797 C 79.5633 0.5529 -3.55628 0
M  V30 798 C 79.1713 -0.681721 -4.42783 0
M  V30 799 C 80.9153 1.11687 -4.09544 0
M  V30 800 C 78.8223 -0.382742 -5.9016 0
M  V30 801 H 77.7523 0.109124 -0.746062 0
M  V30 802 H 80.4033 -0.43398 -1.78294 0
M  V30 803 H 78.7853 1.32896 -3.73035 0
M  V30 804 H 79.9593 -1.45723 -4.37151 0
M  V30 805 H 78.2743 -1.1658 -3.99748 0
M  V30 806 H 80.8713 1.35515 -5.17242 0
M  V30 807 H 81.2143 2.06575 -3.61431 0
M  V30 808 H 81.7473 0.402032 -3.95763 0
M  V30 809 H 78.4863 -1.30076 -6.42464 0
M  V30 810 H 78.0063 0.355094 -5.98748 0
M  V30 811 H 79.6853 0.00800157 -6.47 0
M  V30 812 N 79.8174 1.5752 -0.0501392 0
M  V30 813 C 81.2284 1.80271 0.485705 0
M  V30 814 C 81.5794 0.96228 1.70981 0
M  V30 815 O 80.7044 0.178578 2.15662 0
M  V30 816 C 81.2994 3.26957 0.887938 0
M  V30 817 C 79.8584 3.5063 1.36877 0
M  V30 818 C 79.0054 2.75165 0.343468 0
M  V30 819 H 81.9564 1.56281 -0.276028 0
M  V30 820 H 81.9774 3.37821 1.75093 0
M  V30 821 H 81.4894 3.881 -0.0031809 0
M  V30 822 H 79.5904 2.94766 2.27911 0
M  V30 823 H 79.7034 4.59343 1.36164 0
M  V30 824 H 78.0674 2.4127 0.816128 0
M  V30 825 H 78.8504 3.39034 -0.539548 0
M  V30 826 N 81.2955 -0.223234 1.56011 0
M  V30 827 C 82.5425 -0.947875 1.78946 0
M  V30 828 C 82.8705 -1.844 0.618608 0
M  V30 829 O 82.1255 -1.91629 -0.397093 0
M  V30 830 C 82.4245 -1.81948 3.0762 0
M  V30 831 C 82.0905 -1.07672 4.37856 0
M  V30 832 C 80.7525 -0.871544 4.73242 0
M  V30 833 C 83.1045 -0.552081 5.18268 0
M  V30 834 C 80.4325 -0.129791 5.86556 0
M  V30 835 C 82.7845 0.17632 6.32354 0
M  V30 836 C 81.4485 0.39277 6.66343 0
M  V30 837 H 80.7185 -0.346852 0.654809 0
M  V30 838 H 83.3655 -0.216171 1.90276 0
M  V30 839 H 81.6705 -2.61899 2.91404 0
M  V30 840 H 83.3675 -2.38227 3.22566 0
M  V30 841 H 79.9575 -1.24662 4.1007 0
M  V30 842 H 84.1415 -0.698076 4.91366 0
M  V30 843 H 79.3975 0.048153 6.11381 0
M  V30 844 H 83.5715 0.590367 6.93893 0
M  V30 845 H 81.1985 0.969466 7.53993 0
M  V30 846 N 82.7736 -1.49793 -0.48987 0
M  V30 847 C 83.7206 -1.67281 -1.59014 0
M  V30 848 C 84.6906 -0.514177 -1.57941 0
M  V30 849 O 85.8756 -0.742533 -1.75759 0
M  V30 850 C 83.0156 -1.75569 -2.97102 0
M  V30 851 C 82.1286 -3.0281 -3.08107 0
M  V30 852 C 81.2636 -3.02008 -4.36995 0
M  V30 853 C 80.3026 -4.23782 -4.41673 0
M  V30 854 N 79.4396 -4.20826 -5.62005 0
M  V30 855 H 84.2796 -2.61224 -1.43409 0
M  V30 856 H 81.8166 -1.29508 -0.697565 0
M  V30 857 H 83.7746 -1.78354 -3.77155 0
M  V30 858 H 82.4046 -0.850827 -3.11385 0
M  V30 859 H 81.4566 -3.09584 -2.21047 0
M  V30 860 H 82.7686 -3.92801 -3.07423 0
M  V30 861 H 81.9226 -3.03418 -5.25378 0
M  V30 862 H 80.6616 -2.09815 -4.4026 0
M  V30 863 H 79.6666 -4.22604 -3.5169 0
M  V30 864 H 80.8916 -5.17181 -4.40115 0
M  V30 865 H 78.8376 -3.31476 -5.66091 0
M  V30 866 H 78.7546 -5.04564 -5.62984 0
M  V30 867 H 80.0226 -4.26355 -6.52565 0
M  V30 868 N 84.2517 0.741722 -1.39055 0
M  V30 869 C 85.1837 1.8657 -1.33133 0
M  V30 870 C 86.1967 1.61001 -0.241329 0
M  V30 871 O 87.3857 1.7136 -0.499784 0
M  V30 872 C 84.4857 3.22457 -1.04283 0
M  V30 873 C 83.6587 3.75435 -2.24427 0
M  V30 874 C 82.7177 4.89867 -1.92138 0
M  V30 875 O 81.7437 5.03879 -2.64754 0
M  V30 876 N 82.9457 5.73738 -0.88347 0
M  V30 877 H 85.7107 1.92156 -2.29991 0
M  V30 878 H 83.2717 0.922172 -1.3307 0
M  V30 879 H 85.2637 3.9657 -0.807128 0
M  V30 880 H 83.8337 3.12181 -0.161807 0
M  V30 881 H 83.0537 2.92751 -2.6399 0
M  V30 882 H 84.3417 4.07563 -3.04581 0
M  V30 883 H 83.7397 5.64999 -0.281517 0
M  V30 884 H 82.2967 6.47947 -0.707662 0
M  V30 885 N 85.7298 1.2412 0.971189 0
M  V30 886 C 86.9598 1.10415 1.7462 0
M  V30 887 C 87.3678 -0.346462 1.86001 0
M  V30 888 O 86.7108 -1.25104 1.34517 0
M  V30 889 C 86.7728 1.66596 3.18568 0
M  V30 890 C 86.4368 3.15446 3.3067 0
M  V30 891 C 87.4338 4.12636 3.16271 0
M  V30 892 C 85.1188 3.55337 3.55022 0
M  V30 893 C 87.1128 5.47699 3.26044 0
M  V30 894 C 84.7998 4.90542 3.64434 0
M  V30 895 C 85.7978 5.86532 3.49956 0
M  V30 896 O 85.4858 7.19279 3.59017 0
M  V30 897 H 85.2178 0.386616 0.55453 0
M  V30 898 H 87.7718 1.64633 1.22821 0
M  V30 899 H 86.0018 1.06808 3.71657 0
M  V30 900 H 87.6908 1.48232 3.77865 0
M  V30 901 H 88.4568 3.8316 2.97344 0
M  V30 902 H 84.3358 2.8113 3.65359 0
M  V30 903 H 87.8798 6.22603 3.14661 0
M  V30 904 H 83.7768 5.19691 3.82873 0
M  V30 905 H 84.5448 7.27153 3.75754 0
M  V30 906 N 87.2079 -1.17134 1.05439 0
M  V30 907 C 88.1709 -2.19439 0.661764 0
M  V30 908 C 89.1709 -1.58199 -0.288042 0
M  V30 909 O 90.3609 -1.74053 -0.0715803 0
M  V30 910 C 87.4929 -3.40889 -0.0276209 0
M  V30 911 H 88.6859 -2.55688 1.56728 0
M  V30 912 H 86.2389 -1.31259 0.848567 0
M  V30 913 H 86.9739 -3.10187 -0.94629 0
M  V30 914 H 86.7589 -3.86586 0.655238 0
M  V30 915 H 88.2489 -4.16603 -0.288342 0
M  V30 916 N 88.686 -0.835752 -1.33615 0
M  V30 917 C 89.934 -0.429109 -1.97492 0
M  V30 918 C 90.255 1.01433 -1.66543 0
M  V30 919 O 89.525 1.70611 -0.962744 0
M  V30 920 H 88.105 -0.155686 -0.730596 0
M  V30 921 H 90.767 -1.06802 -1.63031 0
M  V30 922 H 89.863 -0.55861 -3.0706 0
M  V30 923 N 90.1641 1.46063 -0.591896 0
M  V30 924 C 91.1111 2.30399 0.136069 0
M  V30 925 C 92.0811 1.41169 0.875238 0
M  V30 926 O 93.2661 1.70112 0.86409 0
M  V30 927 C 90.4061 3.25804 1.13781 0
M  V30 928 C 89.5191 4.30134 0.401137 0
M  V30 929 C 88.6541 5.12659 1.39121 0
M  V30 930 C 87.6931 6.0873 0.641462 0
M  V30 931 N 86.8301 6.8409 1.58004 0
M  V30 932 H 91.6701 2.92118 -0.589144 0
M  V30 933 H 89.2071 1.43959 -0.302342 0
M  V30 934 H 91.1651 3.79569 1.73156 0
M  V30 935 H 89.7951 2.65872 1.83062 0
M  V30 936 H 88.8471 3.79152 -0.307826 0
M  V30 937 H 90.1591 4.98458 -0.184565 0
M  V30 938 H 89.3131 5.70747 2.05749 0
M  V30 939 H 88.0521 4.44316 2.01084 0
M  V30 940 H 87.0571 5.49786 -0.0385419 0
M  V30 941 H 88.2821 6.79095 0.0270945 0
M  V30 942 H 86.2281 6.18449 2.18761 0
M  V30 943 H 86.1451 7.48709 1.04738 0
M  V30 944 H 87.4131 7.4673 2.23639 0
M  V30 945 N 91.6422 0.330177 1.54103 0
M  V30 946 C 92.8722 -0.271784 2.04805 0
M  V30 947 C 93.2802 -1.45816 1.20559 0
M  V30 948 O 92.6232 -1.82247 0.2306 0
M  V30 949 C 92.6852 -0.763238 3.51305 0
M  V30 950 C 92.3492 0.301705 4.56003 0
M  V30 951 C 93.3462 1.13999 5.07248 0
M  V30 952 C 91.0312 0.451793 5.00264 0
M  V30 953 C 93.0252 2.11402 6.01322 0
M  V30 954 C 90.7122 1.42924 5.94151 0
M  V30 955 C 91.7102 2.25882 6.44567 0
M  V30 956 O 91.3982 3.21965 7.3661 0
M  V30 957 H 91.1302 -0.058693 0.673447 0
M  V30 958 H 93.6842 0.476395 1.99799 0
M  V30 959 H 91.9142 -1.56244 3.5373 0
M  V30 960 H 93.6032 -1.28427 3.85047 0
M  V30 961 H 94.3692 1.03505 4.73827 0
M  V30 962 H 90.2482 -0.184044 4.60632 0
M  V30 963 H 93.7922 2.76192 6.40596 0
M  V30 964 H 89.6892 1.53479 6.26988 0
M  V30 965 H 90.4572 3.17281 7.54503 0
M  V30 966 N 93.1203 -1.57491 0.0584922 0
M  V30 967 C 94.3663 -1.93264 -0.614558 0
M  V30 968 C 94.6993 -0.937717 -1.7006 0
M  V30 969 O 93.9743 0.0351652 -1.94468 0
M  V30 970 C 94.2573 -3.3938 -1.20386 0
M  V30 971 C 94.1103 -4.49625 -0.125375 0
M  V30 972 C 95.4293 -3.86039 -2.11334 0
M  V30 973 H 92.5483 -0.702791 -0.221933 0
M  V30 974 H 95.1903 -1.8961 0.12175 0
M  V30 975 H 93.3403 -3.42626 -1.83139 0
M  V30 976 H 95.0123 -4.58506 0.506971 0
M  V30 977 H 93.2553 -4.30354 0.545672 0
M  V30 978 H 93.9263 -5.48967 -0.577861 0
M  V30 979 H 96.4023 -3.84716 -1.58534 0
M  V30 980 H 95.2783 -4.88914 -2.49507 0
M  V30 981 H 95.5393 -3.23215 -3.01636 0
M  V30 982 N 94.5984 0.214957 -1.56127 0
M  V30 983 C 95.5284 1.2695 -1.95974 0
M  V30 984 C 96.5094 1.48539 -0.828868 0
M  V30 985 O 97.6944 1.60611 -1.09168 0
M  V30 986 C 94.8244 2.61794 -2.28214 0
M  V30 987 C 93.7784 2.54851 -3.43853 0
M  V30 988 C 93.1044 3.93785 -3.61715 0
M  V30 989 C 94.4044 2.09065 -4.78632 0
M  V30 990 H 96.0984 0.93846 -2.84312 0
M  V30 991 H 93.6444 0.449996 -1.36788 0
M  V30 992 H 95.5974 3.35731 -2.54682 0
M  V30 993 H 94.3214 2.96599 -1.36736 0
M  V30 994 H 92.9804 1.8337 -3.17444 0
M  V30 995 H 92.6284 4.25908 -2.67602 0
M  V30 996 H 92.3284 3.90019 -4.39498 0
M  V30 997 H 93.8524 4.69374 -3.90539 0
M  V30 998 H 95.2664 2.7275 -5.04262 0
M  V30 999 H 93.6634 2.16346 -5.59745 0
M  V30 1000 H 94.7334 1.04315 -4.73547 0
M  V30 1001 N 96.0765 1.50051 0.48192 0
M  V30 1002 C 97.3235 1.60498 1.23477 0
M  V30 1003 C 97.6515 0.300331 1.92167 0
M  V30 1004 O 96.9065 -0.713094 1.82246 0
M  V30 1005 C 97.2055 2.72717 2.30998 0
M  V30 1006 C 96.8715 4.13572 1.79636 0
M  V30 1007 C 95.5335 4.519 1.65348 0
M  V30 1008 C 97.8855 5.01649 1.41412 0
M  V30 1009 C 95.2135 5.76057 1.11244 0
M  V30 1010 C 97.5655 6.26343 0.887538 0
M  V30 1011 C 96.2295 6.63483 0.731207 0
M  V30 1012 H 95.4995 0.587303 0.451836 0
M  V30 1013 H 98.1465 1.83948 0.532468 0
M  V30 1014 H 96.4515 2.43312 3.07094 0
M  V30 1015 H 98.1485 2.78006 2.88988 0
M  V30 1016 H 94.7385 3.83329 1.91721 0
M  V30 1017 H 98.9225 4.72679 1.51289 0
M  V30 1018 H 94.1785 6.03516 0.978686 0
M  V30 1019 H 98.3525 6.93958 0.582654 0
M  V30 1020 H 95.9795 7.59568 0.309806 0
M  V30 1021 N 97.5546 -0.734337 1.39446 0
M  V30 1022 C 98.8006 -1.49613 1.36908 0
M  V30 1023 C 99.1336 -1.94169 -0.0347829 0
M  V30 1024 O 98.4086 -1.66833 -0.999847 0
M  V30 1025 C 98.6916 -2.73534 2.34203 0
M  V30 1026 C 98.5446 -2.34993 3.83534 0
M  V30 1027 C 99.8636 -3.75635 2.29317 0
M  V30 1028 H 96.9826 -0.542714 0.498629 0
M  V30 1029 H 99.6246 -0.839597 1.70443 0
M  V30 1030 H 97.7746 -3.29553 2.05736 0
M  V30 1031 H 99.4466 -1.84601 4.22753 0
M  V30 1032 H 97.6896 -1.67213 4.00278 0
M  V30 1033 H 98.3606 -3.23738 4.47099 0
M  V30 1034 H 100.837 -3.29203 2.54489 0
M  V30 1035 H 99.7126 -4.60008 2.99472 0
M  V30 1036 H 99.9736 -4.22603 1.29842 0
M  V30 1037 N 99.0327 -1.24633 -0.964593 0
M  V30 1038 C 99.9807 -1.03917 -2.08096 0
M  V30 1039 C 100.975 0.0268581 -1.69379 0
M  V30 1040 O 102.181 -0.127952 -1.79545 0
M  V30 1041 H 98.5557 -0.319044 -0.680966 0
M  V30 1042 H 100.527 -1.98581 -2.22729 0
M  V30 1043 C 99.2757 -0.663983 -3.41301 0
M  V30 1044 H 98.5987 -1.47605 -3.71555 0
M  V30 1045 H 100.039 -0.558663 -4.20303 0
M  V30 1046 C 98.4977 0.629169 -3.30973 0
M  V30 1047 O 99.0277 1.67404 -3.65156 0
M  V30 1048 N 97.2337 0.611057 -2.84103 0
M  V30 1049 H 96.7807 -0.239593 -2.56483 0
M  V30 1050 H 96.7387 1.47647 -2.77575 0
M  V30 1051 N 100.511 1.16574 -1.06058 0
M  V30 1052 C 101.757 1.87324 -0.777022 0
M  V30 1053 C 102.09 1.81351 0.694645 0
M  V30 1054 O 101.365 1.22753 1.50871 0
M  V30 1055 C 101.648 3.36991 -1.26922 0
M  V30 1056 C 101.501 3.51667 -2.80447 0
M  V30 1057 C 102.82 4.3131 -0.87521 0
M  V30 1058 H 99.9388 0.680191 -0.28374 0
M  V30 1059 H 102.581 1.37036 -1.3161 0
M  V30 1060 H 100.731 3.79949 -0.81063 0
M  V30 1061 H 102.403 3.17664 -3.34495 0
M  V30 1062 H 100.646 2.93656 -3.19294 0
M  V30 1063 H 101.317 4.56766 -3.0995 0
M  V30 1064 H 103.793 3.9624 -1.27014 0
M  V30 1065 H 102.669 5.34545 -1.2471 0
M  V30 1066 H 102.93 4.41552 0.220071 0
M  V30 1067 N 101.989 0.842826 1.3317 0
M  V30 1068 C 102.952 0.284065 2.27433 0
M  V30 1069 C 103.952 -0.54948 1.5112 0
M  V30 1070 O 105.142 -0.362699 1.70382 0
M  V30 1071 C 102.274 -0.599384 3.35589 0
M  V30 1072 H 103.467 1.11589 2.78366 0
M  V30 1073 H 101.02 0.616221 1.4364 0
M  V30 1074 H 101.755 -1.45349 2.89904 0
M  V30 1075 H 101.54 -0.00291266 3.921 0
M  V30 1076 H 103.03 -0.983488 4.05854 0
M  V30 1077 N 103.467 -1.45747 0.599634 0
M  V30 1078 C 104.692 -2.07178 0.0960198 0
M  V30 1079 C 105.117 -1.44268 -1.207 0
M  V30 1080 O 104.475 -0.532503 -1.73303 0
M  V30 1081 C 104.523 -3.60579 -0.0385348 0
M  V30 1082 O 103.627 -3.97713 -1.0908 0
M  V30 1083 H 102.968 -0.660251 0.0704593 0
M  V30 1084 H 105.498 -1.87124 0.827385 0
M  V30 1085 H 105.508 -4.07298 -0.239304 0
M  V30 1086 H 104.183 -4.05756 0.912947 0
M  V30 1087 H 102.76 -3.62678 -0.867135 0
M  V30 1088 N 104.945 -0.338344 -1.53925 0
M  V30 1089 C 106.175 0.260919 -2.04946 0
M  V30 1090 C 106.583 1.45174 -1.2133 0
M  V30 1091 O 105.926 1.82122 -0.240262 0
M  V30 1092 C 105.988 0.744596 -3.51704 0
M  V30 1093 C 105.652 -0.325883 -4.55837 0
M  V30 1094 C 106.649 -1.16687 -5.06636 0
M  V30 1095 C 104.334 -0.478317 -5.00017 0
M  V30 1096 C 106.328 -2.14588 -6.00192 0
M  V30 1097 C 104.015 -1.46073 -5.93385 0
M  V30 1098 C 105.013 -2.29297 -6.4336 0
M  V30 1099 O 104.701 -3.25867 -7.34892 0
M  V30 1100 H 104.433 0.0551207 -0.673749 0
M  V30 1101 H 106.987 -0.486984 -1.99544 0
M  V30 1102 H 105.217 1.54366 -3.54553 0
M  V30 1103 H 106.906 1.26383 -3.85723 0
M  V30 1104 H 107.672 -1.06016 -4.73271 0
M  V30 1105 H 103.551 0.159613 -4.60724 0
M  V30 1106 H 107.095 -2.79585 -6.39123 0
M  V30 1107 H 102.992 -1.56802 -6.26166 0
M  V30 1108 H 103.76 -3.21278 -7.5281 0
M  V30 1109 N 106.423 1.57458 -0.0668435 0
M  V30 1110 C 107.663 1.95175 0.607116 0
M  V30 1111 C 108.027 0.946039 1.67075 0
M  V30 1112 O 109.228 1.2107 2.39991 0
M  V30 1113 C 107.499 3.37582 1.17358 0
M  V30 1114 Se 109.058 3.97271 1.86336 0
M  V30 1115 H 105.876 0.682604 0.19893 0
M  V30 1116 H 108.478 1.95002 -0.139519 0
M  V30 1117 H 107.182 4.08566 0.387553 0
M  V30 1118 H 106.713 3.41288 1.95669 0
M  V30 1119 H 108.728 3.83772 3.14537 0
M  V30 1120 N 107.901 -0.206675 1.56239 0
M  V30 1121 C 109.149 -0.927007 1.79586 0
M  V30 1122 C 109.47 -1.8427 0.637929 0
M  V30 1123 O 108.74 -1.92849 -0.344398 0
M  V30 1124 H 107.32 -0.345292 0.662407 0
M  V30 1125 H 109.982 -0.21496 1.93711 0
M  V30 1126 H 109.078 -1.52501 2.72305 0
M  V30 1127 N 109.379 -1.50304 -0.473955 0
M  V30 1128 C 110.309 -1.71886 -1.58042 0
M  V30 1129 C 111.29 -0.567799 -1.60344 0
M  V30 1130 O 112.475 -0.806623 -1.76656 0
M  V30 1131 C 109.605 -1.81036 -2.96384 0
M  V30 1132 C 108.559 -2.962 -3.08949 0
M  V30 1133 C 107.885 -2.9049 -4.48909 0
M  V30 1134 C 109.185 -4.36752 -2.86434 0
M  V30 1135 H 110.879 -2.64527 -1.40234 0
M  V30 1136 H 108.425 -1.27295 -0.673201 0
M  V30 1137 H 110.378 -1.94719 -3.73714 0
M  V30 1138 H 109.102 -0.850147 -3.15341 0
M  V30 1139 H 107.761 -2.82164 -2.3405 0
M  V30 1140 H 107.409 -1.92321 -4.64781 0
M  V30 1141 H 107.109 -3.67802 -4.58253 0
M  V30 1142 H 108.633 -3.06218 -5.28264 0
M  V30 1143 H 110.047 -4.5133 -3.53517 0
M  V30 1144 H 108.444 -5.15493 -3.07225 0
M  V30 1145 H 109.514 -4.49321 -1.82316 0
M  V30 1146 N 110.857 0.726932 -1.39834 0
M  V30 1147 C 112.085 1.51613 -1.40787 0
M  V30 1148 C 112.5 1.88799 -0.00451505 0
M  V30 1149 O 111.857 1.54662 0.968809 0
M  V30 1150 C 111.908 2.79863 -2.28821 0
M  V30 1151 O 111.629 2.44253 -3.63692 0
M  V30 1152 C 113.13 3.73837 -2.38245 0
M  V30 1153 H 110.35 0.468264 -0.480593 0
M  V30 1154 H 112.894 0.897607 -1.83748 0
M  V30 1155 H 111.049 3.38027 -1.89252 0
M  V30 1156 H 111.463 3.26695 -4.1033 0
M  V30 1157 H 112.937 4.60699 -3.04073 0
M  V30 1158 H 113.414 4.16153 -1.40403 0
M  V30 1159 H 114.02 3.21589 -2.78317 0
M  V30 1160 N 112.336 1.25143 0.95797 0
M  V30 1161 C 113.584 1.09476 1.69881 0
M  V30 1162 C 113.905 -0.365502 1.91544 0
M  V30 1163 O 113.175 -1.25985 1.50015 0
M  V30 1164 H 111.755 0.402128 0.629525 0
M  V30 1165 H 114.417 1.57214 1.15194 0
M  V30 1166 H 113.513 1.60046 2.6794 0
M  V30 1167 N 113.814 -1.1601 1.06675 0
M  V30 1168 C 114.746 -2.20115 0.638921 0
M  V30 1169 C 115.759 -1.59916 -0.305057 0
M  V30 1170 O 116.948 -1.78245 -0.0954446 0
M  V30 1171 C 114.048 -3.38798 -0.0830083 0
M  V30 1172 C 113.221 -4.2855 0.875426 0
M  V30 1173 C 112.28 -5.25849 0.192042 0
M  V30 1174 O 111.306 -5.63102 0.830921 0
M  V30 1175 N 112.508 -5.70648 -1.06493 0
M  V30 1176 H 115.273 -2.57439 1.53444 0
M  V30 1177 H 112.834 -1.31057 0.950557 0
M  V30 1178 H 114.826 -4.00936 -0.550685 0
M  V30 1179 H 113.396 -2.99947 -0.880386 0
M  V30 1180 H 112.616 -3.63617 1.52238 0
M  V30 1181 H 113.904 -4.85393 1.52548 0
M  V30 1182 H 113.302 -5.42482 -1.60405 0
M  V30 1183 H 111.859 -6.34859 -1.47641 0
M  V30 1184 N 115.292 -0.849877 -1.32721 0
M  V30 1185 C 116.522 -0.46408 -2.0132 0
M  V30 1186 C 116.93 0.94246 -1.64056 0
M  V30 1187 O 116.273 1.6257 -0.855379 0
M  V30 1188 C 116.335 -0.517887 -3.5575 0
M  V30 1189 C 115.999 -1.88248 -4.16427 0
M  V30 1190 C 116.996 -2.84726 -4.35002 0
M  V30 1191 C 114.681 -2.17832 -4.52609 0
M  V30 1192 C 116.675 -4.08945 -4.8892 0
M  V30 1193 C 114.362 -3.42304 -5.06232 0
M  V30 1194 C 115.36 -4.37677 -5.24335 0
M  V30 1195 O 115.048 -5.59946 -5.76815 0
M  V30 1196 H 114.78 -0.181327 -0.651227 0
M  V30 1197 H 117.334 -1.14713 -1.70382 0
M  V30 1198 H 115.564 0.221997 -3.86062 0
M  V30 1199 H 117.253 -0.148366 -4.05629 0
M  V30 1200 H 118.019 -2.63174 -4.07388 0
M  V30 1201 H 113.898 -1.44385 -4.37806 0
M  V30 1202 H 117.442 -4.83396 -5.02966 0
M  V30 1203 H 113.339 -3.63709 -5.33278 0
M  V30 1204 H 114.107 -5.61838 -5.95214 0
M  V30 1205 N 116.77 1.45427 -0.607355 0
M  V30 1206 C 118.019 2.01452 -0.100036 0
M  V30 1207 C 118.332 1.48159 1.27704 0
M  V30 1208 O 119.538 1.96159 1.87707 0
M  V30 1209 C 117.994 3.59672 -0.128158 0
M  V30 1210 C 117.602 4.21962 -1.50507 0
M  V30 1211 C 119.346 4.23262 0.323932 0
M  V30 1212 C 117.253 5.72333 -1.48959 0
M  V30 1213 H 116.183 0.75325 -0.0336299 0
M  V30 1214 H 118.834 1.66901 -0.76265 0
M  V30 1215 H 117.216 3.91411 0.601105 0
M  V30 1216 H 118.39 4.01796 -2.25602 0
M  V30 1217 H 116.705 3.70565 -1.89923 0
M  V30 1218 H 119.302 5.33522 0.354691 0
M  V30 1219 H 119.645 3.93921 1.34656 0
M  V30 1220 H 120.178 3.96239 -0.352056 0
M  V30 1221 H 116.917 6.06373 -2.48981 0
M  V30 1222 H 116.437 5.94691 -0.781214 0
M  V30 1223 H 118.116 6.35525 -1.21313 0
M  V30 1224 N 118.248 0.346503 1.53744 0
M  V30 1225 C 119.158 -0.517293 2.28826 0
M  V30 1226 C 120.174 -1.10935 1.3405 0
M  V30 1227 O 121.35 -1.1244 1.6709 0
M  V30 1228 C 118.415 -1.65098 3.04866 0
M  V30 1229 C 117.476 -1.0884 4.15274 0
M  V30 1230 C 116.709 -2.16806 4.87679 0
M  V30 1231 O 116.932 -3.3758 4.59778 0
M  V30 1232 O 115.866 -1.80934 5.74061 0
M  V30 1233 H 119.692 0.0931396 3.03557 0
M  V30 1234 H 117.277 0.111458 1.48984 0
M  V30 1235 H 119.159 -2.31053 3.5241 0
M  V30 1236 H 117.834 -2.24717 2.32989 0
M  V30 1237 H 116.741 -0.3933 3.72027 0
M  V30 1238 H 118.074 -0.537036 4.89261 0
M  V30 1239 N 119.726 -1.57421 0.075193 0
M  V30 1240 C 120.656 -2.15942 -0.888324 0
M  V30 1241 C 121.637 -1.08737 -1.30806 0
M  V30 1242 O 122.822 -1.36787 -1.37851 0
M  V30 1243 C 119.952 -2.72379 -2.1547 0
M  V30 1244 C 118.906 -3.8478 -1.87425 0
M  V30 1245 C 118.232 -4.27834 -3.20721 0
M  V30 1246 C 119.532 -5.08869 -1.17684 0
M  V30 1247 H 121.226 -2.96705 -0.400799 0
M  V30 1248 H 118.772 -1.42723 -0.191342 0
M  V30 1249 H 120.725 -3.11965 -2.83295 0
M  V30 1250 H 119.449 -1.88841 -2.6647 0
M  V30 1251 H 118.108 -3.45703 -1.22004 0
M  V30 1252 H 117.756 -3.41214 -3.6957 0
M  V30 1253 H 117.456 -5.03605 -3.02746 0
M  V30 1254 H 118.98 -4.70039 -3.89738 0
M  V30 1255 H 120.394 -5.4575 -1.75584 0
M  V30 1256 H 118.791 -5.8994 -1.09956 0
M  V30 1257 H 119.861 -4.84648 -0.156453 0
M  V30 1258 N 121.204 0.198386 -1.56346 0
M  V30 1259 C 122.152 1.26538 -1.95169 0
M  V30 1260 C 123.146 1.47295 -0.836685 0
M  V30 1261 O 124.352 1.48195 -1.02167 0
M  V30 1262 H 120.727 0.424744 -0.620561 0
M  V30 1263 H 122.698 0.910904 -2.84157 0
M  V30 1264 C 121.447 2.6035 -2.30463 0
M  V30 1265 H 120.77 2.45192 -3.15786 0
M  V30 1266 H 122.21 3.33762 -2.61494 0
M  V30 1267 C 120.669 3.17096 -1.13806 0
M  V30 1268 O 121.199 3.99588 -0.41135 0
M  V30 1269 N 119.405 2.75795 -0.915736 0
M  V30 1270 H 118.952 2.08816 -1.50843 0
M  V30 1271 H 118.91 3.14101 -0.136979 0
M  V30 1272 N 122.682 1.50554 0.465978 0
M  V30 1273 C 123.645 1.69233 1.54574 0
M  V30 1274 C 124.645 0.562901 1.50626 0
M  V30 1275 O 125.835 0.830016 1.53155 0
M  V30 1276 C 122.967 1.7223 2.94193 0
M  V30 1277 H 124.16 2.65571 1.39327 0
M  V30 1278 H 121.713 1.40111 0.692711 0
M  V30 1279 H 122.448 0.77603 3.14878 0
M  V30 1280 H 122.233 2.54285 2.98466 0
M  V30 1281 H 123.723 1.88618 3.72576 0
M  V30 1282 N 124.16 -0.719506 1.40217 0
M  V30 1283 C 125.09 -1.8465 1.42922 0
M  V30 1284 C 126.071 -1.67599 0.29062 0
M  V30 1285 O 127.256 -1.87688 0.498677 0
M  V30 1286 C 124.386 -3.22565 1.28722 0
M  V30 1287 C 123.34 -3.54281 2.40144 0
M  V30 1288 C 122.666 -4.91298 2.11023 0
M  V30 1289 C 123.966 -3.55676 3.82481 0
M  V30 1290 H 125.66 -1.82644 2.37237 0
M  V30 1291 H 123.206 -0.877305 1.1419 0
M  V30 1292 H 125.159 -4.01095 1.29232 0
M  V30 1293 H 123.883 -3.25137 0.308811 0
M  V30 1294 H 122.542 -2.78088 2.38877 0
M  V30 1295 H 122.19 -4.90468 1.11582 0
M  V30 1296 H 121.89 -5.13485 2.8567 0
M  V30 1297 H 123.414 -5.72166 2.13209 0
M  V30 1298 H 124.828 -4.24254 3.85592 0
M  V30 1299 H 123.225 -3.89388 4.56614 0
M  V30 1300 H 124.295 -2.55144 4.12346 0
M  V30 1301 N 125.638 -1.25649 -0.95132 0
M  V30 1302 C 126.57 -1.02112 -2.05197 0
M  V30 1303 C 127.583 0.0150571 -1.62793 0
M  V30 1304 O 128.772 -0.223874 -1.77091 0
M  V30 1305 C 125.872 -0.522361 -3.3485 0
M  V30 1306 C 125.045 -1.62546 -4.06076 0
M  V30 1307 C 124.104 -1.12649 -5.14001 0
M  V30 1308 O 123.13 -1.82156 -5.39266 0
M  V30 1309 N 124.332 0.03047 -5.80492 0
M  V30 1310 H 127.097 -1.96885 -2.25957 0
M  V30 1311 H 124.658 -1.16899 -1.1201 0
M  V30 1312 H 126.65 -0.172961 -4.0433 0
M  V30 1313 H 125.22 0.33151 -3.10837 0
M  V30 1314 H 124.44 -2.14628 -3.30649 0
M  V30 1315 H 125.728 -2.36644 -4.50419 0
M  V30 1316 H 125.126 0.611169 -5.62389 0
M  V30 1317 H 123.683 0.320875 -6.5101 0
M  V30 1318 N 127.117 1.15442 -1.07289 0
M  V30 1319 C 128.027 2.23786 -0.704057 0
M  V30 1320 C 129.043 1.7166 0.284413 0
M  V30 1321 O 130.219 2.00972 0.131205 0
M  V30 1322 C 127.284 3.46535 -0.106792 0
M  V30 1323 C 126.345 4.13654 -1.14842 0
M  V30 1324 C 125.578 5.30544 -0.57956 0
M  V30 1325 O 125.801 5.67187 0.604585 0
M  V30 1326 O 124.735 5.87154 -1.32414 0
M  V30 1327 H 128.561 2.57664 -1.60757 0
M  V30 1328 H 126.146 1.23152 -0.845803 0
M  V30 1329 H 128.028 4.20804 0.224048 0
M  V30 1330 H 126.703 3.14407 0.770049 0
M  V30 1331 H 125.61 3.4131 -1.5316 0
M  V30 1332 H 126.943 4.49861 -1.99714 0
M  V30 1333 N 128.595 0.856903 1.32268 0
M  V30 1334 C 129.505 0.306131 2.32594 0
M  V30 1335 C 130.521 -0.577209 1.64147 0
M  V30 1336 O 131.697 -0.477043 1.95669 0
M  V30 1337 C 128.762 -0.494561 3.43154 0
M  V30 1338 C 127.823 0.415186 4.27288 0
M  V30 1339 C 127.056 -0.347387 5.32568 0
M  V30 1340 O 127.279 -1.57708 5.48165 0
M  V30 1341 O 126.213 0.287982 6.01211 0
M  V30 1342 H 130.039 1.13737 2.81598 0
M  V30 1343 H 127.624 0.619902 1.35932 0
M  V30 1344 H 129.506 -0.948944 4.10576 0
M  V30 1345 H 128.181 -1.30257 2.96336 0
M  V30 1346 H 127.088 0.917793 3.62667 0
M  V30 1347 H 128.421 1.18844 4.77637 0
M  V30 1348 N 130.073 -1.45103 0.615059 0
M  V30 1349 C 131.003 -2.33339 -0.0865619 0
M  V30 1350 C 131.984 -1.4727 -0.851209 0
M  V30 1351 O 133.169 -1.76026 -0.820281 0
M  V30 1352 C 130.299 -3.30095 -1.07956 0
M  V30 1353 C 129.253 -4.25858 -0.427628 0
M  V30 1354 C 128.579 -5.12361 -1.5294 0
M  V30 1355 C 129.879 -5.18165 0.655944 0
M  V30 1356 H 131.573 -2.92254 0.650224 0
M  V30 1357 H 129.119 -1.40532 0.314138 0
M  V30 1358 H 131.072 -3.90698 -1.57901 0
M  V30 1359 H 129.796 -2.69355 -1.84703 0
M  V30 1360 H 128.455 -3.66564 0.0510292 0
M  V30 1361 H 128.103 -4.47984 -2.28734 0
M  V30 1362 H 127.803 -5.77238 -1.09865 0
M  V30 1363 H 129.327 -5.75833 -2.03098 0
M  V30 1364 H 130.741 -5.72796 0.240257 0
M  V30 1365 H 129.138 -5.91559 1.00888 0
M  V30 1366 H 130.208 -4.60144 1.52957 0
M  V30 1367 N 131.551 -0.354651 -1.53558 0
M  V30 1368 C 132.514 0.484566 -2.24019 0
M  V30 1369 C 133.514 1.01861 -1.24422 0
M  V30 1370 O 134.704 0.906097 -1.4878 0
M  V30 1371 C 131.836 1.67615 -2.96847 0
M  V30 1372 H 133.029 -0.131843 -2.9961 0
M  V30 1373 H 130.582 -0.106165 -1.55939 0
M  V30 1374 H 131.317 2.33095 -2.25471 0
M  V30 1375 H 131.102 1.30029 -3.69912 0
M  V30 1376 H 132.592 2.27114 -3.50441 0
M  V30 1377 N 133.029 1.57378 -0.0835403 0
M  V30 1378 C 134.44 1.81261 0.447358 0
M  V30 1379 C 134.791 0.998331 1.68902 0
M  V30 1380 O 133.916 0.224282 2.15235 0
M  V30 1381 C 134.511 3.28767 0.818386 0
M  V30 1382 C 133.07 3.53455 1.29409 0
M  V30 1383 C 132.217 2.75831 0.285024 0
M  V30 1384 H 135.168 1.5566 -0.309115 0
M  V30 1385 H 135.189 3.41459 1.67887 0
M  V30 1386 H 134.701 3.88006 -0.0855019 0
M  V30 1387 H 132.802 2.99534 2.21608 0
M  V30 1388 H 132.915 4.62128 1.2639 0
M  V30 1389 H 131.279 2.42947 0.764767 0
M  V30 1390 H 132.062 3.37813 -0.611341 0
M  V30 1391 N 134.507 -0.190092 1.56449 0
M  V30 1392 C 135.754 -0.909705 1.80916 0
M  V30 1393 C 136.082 -1.83047 0.657583 0
M  V30 1394 O 135.337 -1.92428 -0.356356 0
M  V30 1395 C 135.636 -1.75382 3.1141 0
M  V30 1396 C 135.302 -0.983606 4.40041 0
M  V30 1397 C 133.964 -0.770967 4.74984 0
M  V30 1398 C 136.316 -0.442024 5.19322 0
M  V30 1399 C 133.644 -0.0053448 5.867 0
M  V30 1400 C 135.996 0.310412 6.31838 0
M  V30 1401 C 134.66 0.534023 6.6536 0
M  V30 1402 H 133.93 -0.332885 0.662019 0
M  V30 1403 H 136.577 -0.175762 1.90692 0
M  V30 1404 H 134.882 -2.55659 2.96893 0
M  V30 1405 H 136.579 -2.31331 3.27547 0
M  V30 1406 H 133.169 -1.15936 4.12622 0
M  V30 1407 H 137.353 -0.593693 4.92736 0
M  V30 1408 H 132.609 0.177825 6.11141 0
M  V30 1409 H 136.783 0.737419 6.92485 0
M  V30 1410 H 134.41 1.12918 7.51767 0
M  V30 1411 N 135.985 -1.50799 -0.457987 0
M  V30 1412 C 137.233 -1.62121 -1.2067 0
M  V30 1413 C 137.554 -0.329793 -1.92191 0
M  V30 1414 O 136.824 0.653409 -1.84682 0
M  V30 1415 H 135.404 -0.597441 -0.448411 0
M  V30 1416 H 138.066 -1.87637 -0.527096 0
M  V30 1417 H 137.162 -2.43882 -1.94751 0
M  V30 1418 N 137.463 0.71206 -1.40597 0
M  V30 1419 C 138.393 1.83889 -1.43899 0
M  V30 1420 C 139.374 1.67442 -0.299504 0
M  V30 1421 O 140.559 1.87421 -0.508624 0
M  V30 1422 C 137.689 3.21877 -1.30431 0
M  V30 1423 C 136.643 3.53002 -2.42019 0
M  V30 1424 C 135.969 4.90172 -2.13626 0
M  V30 1425 C 137.269 3.53643 -3.84362 0
M  V30 1426 H 138.963 1.81383 -2.38203 0
M  V30 1427 H 136.509 0.871237 -1.14654 0
M  V30 1428 H 138.462 4.00404 -1.31357 0
M  V30 1429 H 137.186 3.24968 -0.326049 0
M  V30 1430 H 135.845 2.76818 -2.40349 0
M  V30 1431 H 135.493 4.89869 -1.14182 0
M  V30 1432 H 135.193 5.11962 -2.88389 0
M  V30 1433 H 136.717 5.71028 -2.1624 0
M  V30 1434 H 138.131 4.22203 -3.87837 0
M  V30 1435 H 136.528 3.86961 -4.58673 0
M  V30 1436 H 137.598 2.52954 -4.13693 0
M  V30 1437 N 138.941 1.26152 0.944643 0
M  V30 1438 C 140.187 1.11657 1.69294 0
M  V30 1439 C 140.52 -0.339926 1.91202 0
M  V30 1440 O 139.795 -1.24994 1.49019 0
M  V30 1441 C 140.078 1.88236 3.06984 0
M  V30 1442 C 139.931 3.41772 2.92424 0
M  V30 1443 C 141.25 1.67343 4.07043 0
M  V30 1444 H 138.369 0.407004 0.614424 0
M  V30 1445 H 141.011 1.55106 1.09737 0
M  V30 1446 H 139.161 1.51308 3.57824 0
M  V30 1447 H 140.833 3.88433 2.48832 0
M  V30 1448 H 139.076 3.68974 2.28124 0
M  V30 1449 H 139.747 3.90579 3.90067 0
M  V30 1450 H 142.223 1.99509 3.65151 0
M  V30 1451 H 141.099 2.23346 5.01406 0
M  V30 1452 H 141.36 0.617158 4.37771 0
M  V30 1453 N 140.419 -1.14872 1.07899 0
M  V30 1454 C 141.668 -1.85135 0.800499 0
M  V30 1455 C 141.981 -1.83547 -0.676014 0
M  V30 1456 O 143.187 -2.49548 -1.06948 0
M  V30 1457 C 141.643 -3.3231 1.38197 0
M  V30 1458 C 141.251 -3.42329 2.8899 0
M  V30 1459 C 142.995 -4.0772 1.18174 0
M  V30 1460 C 140.902 -4.83684 3.403 0
M  V30 1461 H 139.832 -0.693563 0.29578 0
M  V30 1462 H 142.483 -1.29532 1.29976 0
M  V30 1463 H 140.865 -3.87618 0.810431 0
M  V30 1464 H 142.039 -2.97097 3.52236 0
M  V30 1465 H 140.354 -2.80369 3.07867 0
M  V30 1466 H 142.951 -5.12049 1.5398 0
M  V30 1467 H 143.294 -4.16124 0.12117 0
M  V30 1468 H 143.827 -3.58696 1.71994 0
M  V30 1469 H 140.566 -4.80465 4.45907 0
M  V30 1470 H 140.086 -5.29474 2.81811 0
M  V30 1471 H 141.765 -5.52558 3.36584 0
M  V30 1472 N 141.898 -0.863906 -1.31812 0
M  V30 1473 C 142.828 -0.330843 -2.31144 0
M  V30 1474 C 143.809 0.575005 -1.60087 0
M  V30 1475 O 144.994 0.493304 -1.8783 0
M  V30 1476 C 142.124 0.47374 -3.44054 0
M  V30 1477 C 141.078 -0.338481 -4.26659 0
M  V30 1478 C 140.404 0.591412 -5.31419 0
M  V30 1479 C 141.704 -1.56926 -4.98168 0
M  V30 1480 H 143.398 -1.16086 -2.75979 0
M  V30 1481 H 140.944 -0.559657 -1.32679 0
M  V30 1482 H 142.897 0.857143 -4.12591 0
M  V30 1483 H 141.621 1.33721 -2.9797 0
M  V30 1484 H 140.28 -0.703754 -3.59782 0
M  V30 1485 H 139.928 1.45199 -4.81587 0
M  V30 1486 H 139.628 0.0519022 -5.87577 0
M  V30 1487 H 141.152 0.97179 -6.02817 0
M  V30 1488 H 142.566 -1.25764 -5.59336 0
M  V30 1489 H 140.963 -2.04739 -5.64094 0
M  V30 1490 H 142.033 -2.32544 -4.25501 0
M  V30 1491 N 143.376 1.44774 -0.622745 0
M  V30 1492 C 144.624 2.01721 -0.123655 0
M  V30 1493 C 144.945 1.49172 1.25589 0
M  V30 1494 O 144.215 0.691974 1.83272 0
M  V30 1495 H 142.795 0.745777 -0.0427225 0
M  V30 1496 H 145.457 1.77382 -0.807559 0
M  V30 1497 H 144.553 3.11984 -0.0849534 0
M  V30 1498 N 144.854 0.36279 1.53368 0
M  V30 1499 C 146.101 -0.227776 2.01215 0
M  V30 1500 C 146.429 -1.49003 1.25014 0
M  V30 1501 O 145.684 -1.92876 0.331236 0
M  V30 1502 C 145.983 -0.568417 3.52851 0
M  V30 1503 C 145.649 0.59918 4.46901 0
M  V30 1504 C 144.311 0.919559 4.72332 0
M  V30 1505 C 146.663 1.38156 5.02556 0
M  V30 1506 C 143.991 2.02434 5.5067 0
M  V30 1507 C 146.343 2.47674 5.821 0
M  V30 1508 C 145.007 2.8025 6.05819 0
M  V30 1509 H 144.277 -0.083349 0.736297 0
M  V30 1510 H 146.924 0.494677 1.85001 0
M  V30 1511 H 145.229 -1.37185 3.66998 0
M  V30 1512 H 146.926 -1.03756 3.87344 0
M  V30 1513 H 143.516 0.339437 4.27254 0
M  V30 1514 H 147.7 1.14729 4.82857 0
M  V30 1515 H 142.956 2.28075 5.67267 0
M  V30 1516 H 147.13 3.08716 6.24234 0
M  V30 1517 H 144.757 3.65979 6.66306 0
M  V30 1518 N 146.332 -1.57332 0.0918853 0
M  V30 1519 C 147.743 -1.81496 -0.437739 0
M  V30 1520 C 148.094 -1.00727 -1.6837 0
M  V30 1521 O 147.219 -0.235694 -2.15113 0
M  V30 1522 C 147.814 -3.29197 -0.800939 0
M  V30 1523 C 146.373 -3.54136 -1.27532 0
M  V30 1524 C 145.52 -2.75979 -0.270392 0
M  V30 1525 H 148.471 -1.55494 0.317366 0
M  V30 1526 H 148.492 -3.42344 -1.66074 0
M  V30 1527 H 148.004 -3.87955 0.106078 0
M  V30 1528 H 146.105 -3.00705 -2.20016 0
M  V30 1529 H 146.218 -4.62792 -1.23938 0
M  V30 1530 H 144.582 -2.43349 -0.751872 0
M  V30 1531 H 145.365 -3.37484 0.629248 0
M  V30 1532 N 147.81 0.181792 -1.56548 0
M  V30 1533 C 149.05 0.906711 -1.83189 0
M  V30 1534 C 149.414 1.79882 -0.671312 0
M  V30 1535 O 150.615 2.56054 -0.81792 0
M  V30 1536 C 148.886 1.69023 -3.14906 0
M  V30 1537 S 150.445 2.46535 -3.62996 0
M  V30 1538 H 147.263 0.303877 -0.642791 0
M  V30 1539 H 149.865 0.169107 -1.94767 0
M  V30 1540 H 148.569 1.02571 -3.97376 0
M  V30 1541 H 148.1 2.46941 -3.06241 0
M  V30 1542 H 150.115 3.71014 -3.29489 0
M  V30 1543 N 149.288 1.51039 0.449983 0
M  V30 1544 C 150.236 1.71995 1.5659 0
M  V30 1545 C 151.23 0.586029 1.5894 0
M  V30 1546 O 152.436 0.76709 1.62837 0
M  V30 1547 H 148.811 0.543233 0.520001 0
M  V30 1548 H 150.782 2.65562 1.36085 0
M  V30 1549 C 149.531 1.8506 2.9436 0
M  V30 1550 H 148.854 2.71712 2.93279 0
M  V30 1551 H 150.294 2.0374 3.71842 0
M  V30 1552 C 148.753 0.607277 3.31382 0
M  V30 1553 O 149.283 -0.243903 4.00959 0
M  V30 1554 N 147.489 0.455073 2.87015 0
M  V30 1555 H 147.036 1.14879 2.30566 0
M  V30 1556 H 146.994 -0.375611 3.12148 0
M  V30 1557 N 150.766 -0.704594 1.40972 0
M  V30 1558 C 151.698 -1.82974 1.38033 0
M  V30 1559 C 152.711 -1.60305 0.283931 0
M  V30 1560 O 153.9 -1.69975 0.545042 0
M  V30 1561 C 151 -3.19578 1.12795 0
M  V30 1562 C 150.173 -3.69352 2.34302 0
M  V30 1563 C 149.232 -4.84601 2.05058 0
M  V30 1564 O 148.258 -4.96682 2.7802 0
M  V30 1565 N 149.46 -5.71194 1.03528 0
M  V30 1566 H 152.225 -1.85991 2.35005 0
M  V30 1567 H 149.786 -0.886567 1.35468 0
M  V30 1568 H 151.778 -3.9429 0.911987 0
M  V30 1569 H 150.348 -3.11642 0.24452 0
M  V30 1570 H 149.568 -2.85649 2.71659 0
M  V30 1571 H 150.856 -3.99345 3.1528 0
M  V30 1572 H 150.254 -5.64054 0.431217 0
M  V30 1573 H 148.811 -6.45843 0.879205 0
M  V30 1574 N 152.244 -1.26651 -0.937939 0
M  V30 1575 C 153.491 -1.12387 -1.6845 0
M  V30 1576 C 153.819 0.332208 -1.91642 0
M  V30 1577 O 153.074 1.2602 -1.49725 0
M  V30 1578 C 153.373 -1.84168 -3.06295 0
M  V30 1579 C 153.039 -3.34056 -3.02849 0
M  V30 1580 C 151.701 -3.74942 -3.01616 0
M  V30 1581 C 154.053 -4.29741 -2.9491 0
M  V30 1582 C 151.381 -5.09894 -2.90215 0
M  V30 1583 C 153.733 -5.64738 -2.8505 0
M  V30 1584 C 152.397 -6.0493 -2.82162 0
M  V30 1585 H 151.667 -0.411252 -0.616403 0
M  V30 1586 H 154.314 -1.57134 -1.09459 0
M  V30 1587 H 152.619 -1.319 -3.6893 0
M  V30 1588 H 154.316 -1.70569 -3.62915 0
M  V30 1589 H 150.906 -3.01534 -3.0459 0
M  V30 1590 H 155.09 -3.99133 -2.94969 0
M  V30 1591 H 150.346 -5.40194 -2.86358 0
M  V30 1592 H 154.52 -6.38561 -2.77872 0
M  V30 1593 H 152.147 -7.09457 -2.73084 0
M  V30 1594 N 153.722 1.14298 -1.08507 0
M  V30 1595 C 154.97 1.84993 -0.813763 0
M  V30 1596 C 155.291 1.83405 0.662393 0
M  V30 1597 O 154.561 1.28319 1.48024 0
M  V30 1598 H 153.141 0.684966 -0.298045 0
M  V30 1599 H 155.803 1.385 -1.37126 0
M  V30 1600 H 154.899 2.89788 -1.15884 0
M  V30 1601 N 155.201 0.870884 1.31352 0
M  V30 1602 C 156.148 0.325425 2.28494 0
M  V30 1603 C 157.118 -0.576615 1.5577 0
M  V30 1604 O 158.303 -0.508059 1.83911 0
M  V30 1605 C 155.443 -0.466283 3.41935 0
M  V30 1606 C 154.556 0.463378 4.29508 0
M  V30 1607 C 153.691 -0.342544 5.30094 0
M  V30 1608 C 152.73 0.583486 6.09313 0
M  V30 1609 N 151.867 -0.186244 7.01853 0
M  V30 1610 H 156.707 1.15901 2.74538 0
M  V30 1611 H 154.244 0.58294 1.35056 0
M  V30 1612 H 156.202 -0.941085 4.06447 0
M  V30 1613 H 154.832 -1.26456 2.97 0
M  V30 1614 H 153.884 1.05663 3.65431 0
M  V30 1615 H 155.196 1.1734 4.84802 0
M  V30 1616 H 154.35 -0.879816 6.00287 0
M  V30 1617 H 153.089 -1.08585 4.75458 0
M  V30 1618 H 152.094 1.13251 5.3801 0
M  V30 1619 H 153.319 1.32566 6.66035 0
M  V30 1620 H 151.265 -0.912348 6.49625 0
M  V30 1621 H 151.182 0.464422 7.54572 0
M  V30 1622 H 152.45 -0.704716 7.76308 0
M  V30 1623 N 156.679 -1.44442 0.630414 0
M  V30 1624 C 157.611 -2.2892 -0.113347 0
M  V30 1625 C 158.624 -1.41243 -0.80959 0
M  V30 1626 O 159.813 -1.65402 -0.671156 0
M  V30 1627 C 156.913 -3.17594 -1.18266 0
M  V30 1628 C 156.086 -4.33682 -0.569073 0
M  V30 1629 C 155.145 -5.03397 -1.53226 0
M  V30 1630 O 154.171 -5.59438 -1.04967 0
M  V30 1631 N 155.373 -5.04783 -2.86661 0
M  V30 1632 H 158.138 -2.93392 0.611636 0
M  V30 1633 H 155.699 -1.54881 0.471523 0
M  V30 1634 H 157.691 -3.61097 -1.82732 0
M  V30 1635 H 156.261 -2.54876 -1.80988 0
M  V30 1636 H 155.481 -3.9338 0.254187 0
M  V30 1637 H 156.769 -5.08608 -0.139767 0
M  V30 1638 H 156.167 -4.60584 -3.28449 0
M  V30 1639 H 154.724 -5.52077 -3.46489 0
M  V30 1640 N 158.157 -0.370918 -1.53173 0
M  V30 1641 C 159.067 0.480823 -2.2962 0
M  V30 1642 C 160.083 1.08789 -1.35798 0
M  V30 1643 O 161.259 1.09768 -1.68858 0
M  V30 1644 C 158.324 1.60227 -3.07454 0
M  V30 1645 C 157.385 1.0222 -4.16953 0
M  V30 1646 C 156.618 2.0902 -4.91066 0
M  V30 1647 O 156.841 3.30222 -4.65091 0
M  V30 1648 O 155.775 1.71778 -5.76867 0
M  V30 1649 H 159.601 -0.141421 -3.03371 0
M  V30 1650 H 157.186 -0.135146 -1.48787 0
M  V30 1651 H 159.068 2.25417 -3.56041 0
M  V30 1652 H 157.743 2.20982 -2.36535 0
M  V30 1653 H 156.65 0.334064 -3.72605 0
M  V30 1654 H 157.983 0.459131 -4.90054 0
M  V30 1655 N 159.635 1.57281 -0.100228 0
M  V30 1656 C 161.046 1.81725 0.428107 0
M  V30 1657 C 161.397 1.01619 1.67833 0
M  V30 1658 O 160.522 0.247098 2.14985 0
M  V30 1659 C 161.117 3.29617 0.78347 0
M  V30 1660 C 159.676 3.54808 1.25653 0
M  V30 1661 C 158.823 2.76118 0.255752 0
M  V30 1662 H 161.774 1.55324 -0.325608 0
M  V30 1663 H 161.795 3.4322 1.64256 0
M  V30 1664 H 161.307 3.87893 -0.12665 0
M  V30 1665 H 159.408 3.01868 2.18418 0
M  V30 1666 H 159.521 4.63443 1.21482 0
M  V30 1667 H 157.885 2.43745 0.738956 0
M  V30 1668 H 158.668 3.37145 -0.647136 0
M  V30 1669 N 161.113 -0.173488 1.56642 0
M  V30 1670 C 162.361 -0.888706 1.81512 0
M  V30 1671 C 162.682 -1.82875 0.676872 0
M  V30 1672 O 161.952 -1.93536 -0.303414 0
M  V30 1673 H 160.532 -0.331164 0.669582 0
M  V30 1674 H 163.194 -0.173823 1.94123 0
M  V30 1675 H 162.29 -1.46691 2.75478 0
M  V30 1676 N 162.591 -1.51276 -0.441967 0
M  V30 1677 C 163.501 -1.75092 -1.56141 0
M  V30 1678 C 164.517 -0.634963 -1.62001 0
M  V30 1679 O 165.693 -0.916686 -1.79329 0
M  V30 1680 C 162.758 -1.86666 -2.92158 0
M  V30 1681 C 161.819 -3.10506 -2.96453 0
M  V30 1682 C 161.052 -3.21519 -4.25982 0
M  V30 1683 O 161.275 -2.38586 -5.18105 0
M  V30 1684 O 160.209 -4.14465 -4.36466 0
M  V30 1685 H 164.035 -2.70044 -1.38961 0
M  V30 1686 H 161.62 -1.35722 -0.624499 0
M  V30 1687 H 163.502 -1.96292 -3.72891 0
M  V30 1688 H 162.177 -0.949014 -3.09476 0
M  V30 1689 H 161.084 -3.06363 -2.14692 0
M  V30 1690 H 162.417 -4.01945 -2.84079 0
M  V30 1691 N 164.069 0.697108 -1.41344 0
M  V30 1692 C 165.017 1.83237 -1.43272 0
M  V30 1693 C 166.011 1.66522 -0.310947 0
M  V30 1694 O 167.217 1.73402 -0.482899 0
M  V30 1695 H 163.592 0.603802 -0.448249 0
M  V30 1696 H 165.563 1.78727 -2.38954 0
M  V30 1697 C 164.312 3.21245 -1.33029 0
M  V30 1698 H 163.635 3.34723 -2.18633 0
M  V30 1699 H 165.075 4.00763 -1.38439 0
M  V30 1700 C 163.534 3.36873 -0.0424635 0
M  V30 1701 O 164.064 3.91177 0.913421 0
M  V30 1702 N 162.27 2.90581 0.0331145 0
M  V30 1703 H 161.817 2.46577 -0.745506 0
M  V30 1704 H 161.775 3.01416 0.894199 0
M  V30 1705 N 165.547 1.27147 0.931209 0
M  V30 1706 C 166.772 1.16191 1.71797 0
M  V30 1707 C 167.197 -0.278004 1.86034 0
M  V30 1708 O 166.555 -1.20137 1.35782 0
M  V30 1709 C 166.603 1.84673 3.09723 0
M  V30 1710 O 165.707 1.14231 3.96264 0
M  V30 1711 H 165.048 0.404303 0.526721 0
M  V30 1712 H 167.578 1.68152 1.1656 0
M  V30 1713 H 167.588 1.91893 3.60057 0
M  V30 1714 H 166.263 2.89421 2.98677 0
M  V30 1715 H 164.84 1.15056 3.54706 0
M  V30 1716 N 167.025 -1.13721 1.09112 0
M  V30 1717 C 167.935 -2.22638 0.73957 0
M  V30 1718 C 168.951 -1.72091 -0.257068 0
M  V30 1719 O 170.127 -2.01155 -0.0992154 0
M  V30 1720 C 167.192 -3.46322 0.16191 0
M  V30 1721 C 166.253 -4.11775 1.21408 0
M  V30 1722 C 165.486 -5.29555 0.663891 0
M  V30 1723 O 165.709 -5.68077 -0.514274 0
M  V30 1724 O 164.643 -5.84973 1.41738 0
M  V30 1725 H 168.469 -2.55074 1.64836 0
M  V30 1726 H 166.054 -1.21791 0.865289 0
M  V30 1727 H 167.936 -4.21107 -0.157073 0
M  V30 1728 H 166.611 -3.15593 -0.719932 0
M  V30 1729 H 165.518 -3.3883 1.58571 0
M  V30 1730 H 166.851 -4.46627 2.06845 0
M  V30 1731 N 168.503 -0.877838 -1.30888 0
M  V30 1732 C 169.752 -0.488793 -1.95688 0
M  V30 1733 C 170.065 0.965485 -1.70111 0
M  V30 1734 O 171.271 1.46104 -2.28836 0
M  V30 1735 C 169.727 -0.823201 -3.50359 0
M  V30 1736 C 169.335 -2.29477 -3.84765 0
M  V30 1737 C 171.079 -0.503009 -4.21509 0
M  V30 1738 C 168.986 -2.57118 -5.32583 0
M  V30 1739 H 167.916 -0.179062 -0.732429 0
M  V30 1740 H 170.567 -1.07183 -1.48943 0
M  V30 1741 H 168.949 -0.169331 -3.95638 0
M  V30 1742 H 170.123 -2.99236 -3.5042 0
M  V30 1743 H 168.438 -2.58178 -3.267 0
M  V30 1744 H 171.035 -0.68665 -5.30273 0
M  V30 1745 H 171.378 0.557109 -4.12555 0
M  V30 1746 H 171.911 -1.11376 -3.8189 0
M  V30 1747 H 168.65 -3.61843 -5.4658 0
M  V30 1748 H 168.17 -1.91961 -5.68253 0
M  V30 1749 H 169.849 -2.42251 -5.99936 0
M  V30 1750 N 169.982 1.44106 -0.638065 0
M  V30 1751 C 170.912 2.33448 0.0494287 0
M  V30 1752 C 171.893 1.48606 0.827672 0
M  V30 1753 O 173.078 1.77308 0.792173 0
M  V30 1754 C 170.208 3.31771 1.02691 0
M  V30 1755 C 169.162 4.26485 0.359823 0
M  V30 1756 C 168.488 5.14729 1.44769 0
M  V30 1757 C 169.788 5.17056 -0.738296 0
M  V30 1758 H 171.482 2.91183 -0.696636 0
M  V30 1759 H 169.028 1.40014 -0.336456 0
M  V30 1760 H 170.981 3.93161 1.51666 0
M  V30 1761 H 169.705 2.7226 1.80395 0
M  V30 1762 H 168.364 3.66437 -0.10934 0
M  V30 1763 H 168.012 4.51566 2.21578 0
M  V30 1764 H 167.712 5.78913 1.00668 0
M  V30 1765 H 169.236 5.78991 1.93911 0
M  V30 1766 H 170.65 5.72342 -0.331354 0
M  V30 1767 H 169.047 5.89879 -1.10286 0
M  V30 1768 H 170.117 4.57652 -1.60258 0
M  V30 1769 N 171.46 0.379036 1.52974 0
M  V30 1770 C 172.871 -0.0972525 1.86447 0
M  V30 1771 C 173.222 -1.47027 1.29914 0
M  V30 1772 O 172.347 -2.07135 0.626433 0
M  V30 1773 C 172.942 -0.183248 3.38304 0
M  V30 1774 C 171.501 -0.603812 3.71525 0
M  V30 1775 C 170.648 0.240632 2.76254 0
M  V30 1776 H 173.599 0.597316 1.4703 0
M  V30 1777 H 173.62 -1.00432 3.67006 0
M  V30 1778 H 173.132 0.816191 3.79421 0
M  V30 1779 H 171.233 -1.61099 3.35973 0
M  V30 1780 H 171.346 -0.369086 4.77676 0
M  V30 1781 H 169.71 -0.292548 2.53014 0
M  V30 1782 H 170.493 1.23786 3.20206 0
M  V30 1783 N 172.938 -1.57226 0.108567 0
M  V30 1784 C 174.166 -1.99179 -0.559954 0
M  V30 1785 C 174.581 -0.988022 -1.60884 0
M  V30 1786 O 173.938 0.0205512 -1.82488 0
M  V30 1787 C 173.989 -3.41159 -1.19552 0
M  V30 1788 O 173.71 -4.37694 -0.188577 0
M  V30 1789 C 175.211 -3.98188 -1.94837 0
M  V30 1790 H 172.431 -0.654228 -0.149088 0
M  V30 1791 H 174.975 -2.03598 0.19183 0
M  V30 1792 H 173.13 -3.37711 -1.89815 0
M  V30 1793 H 173.544 -5.20469 -0.649014 0
M  V30 1794 H 175.018 -4.99644 -2.34648 0
M  V30 1795 H 175.495 -3.3675 -2.81951 0
M  V30 1796 H 176.101 -4.0515 -1.2936 0
M  V30 1797 N 174.416 0.165178 -1.56732 0
M  V30 1798 C 175.346 1.20651 -1.99914 0
M  V30 1799 C 176.327 1.45827 -0.875705 0
M  V30 1800 O 177.512 1.57057 -1.14223 0
M  V30 1801 C 174.642 2.54401 -2.36427 0
M  V30 1802 C 173.596 2.43782 -3.51787 0
M  V30 1803 C 172.922 3.82078 -3.7406 0
M  V30 1804 C 174.222 1.93732 -4.85041 0
M  V30 1805 H 175.916 0.847534 -2.87154 0
M  V30 1806 H 173.462 0.40625 -1.38151 0
M  V30 1807 H 175.415 3.27458 -2.65234 0
M  V30 1808 H 174.139 2.92098 -1.46103 0
M  V30 1809 H 172.798 1.73178 -3.23117 0
M  V30 1810 H 172.446 4.17179 -2.81017 0
M  V30 1811 H 172.146 3.7584 -4.51684 0
M  V30 1812 H 173.67 4.56712 -4.05274 0
M  V30 1813 H 175.084 2.56569 -5.12684 0
M  V30 1814 H 173.481 1.98428 -5.66345 0
M  V30 1815 H 174.551 0.891962 -4.76626 0
M  V30 1816 N 175.894 1.51508 0.433938 0
M  V30 1817 C 176.841 1.73068 1.52696 0
M  V30 1818 C 177.811 0.572441 1.55924 0
M  V30 1819 O 178.996 0.807253 1.72882 0
M  V30 1820 C 176.136 1.86474 2.90381 0
M  V30 1821 C 175.249 3.14037 2.96656 0
M  V30 1822 C 174.384 3.18019 4.25485 0
M  V30 1823 C 173.423 4.39882 4.2564 0
M  V30 1824 N 172.56 4.41394 5.45999 0
M  V30 1825 H 177.4 2.66366 1.33615 0
M  V30 1826 H 174.937 1.32008 0.649018 0
M  V30 1827 H 176.895 1.92229 3.70275 0
M  V30 1828 H 175.525 0.965809 3.08013 0
M  V30 1829 H 174.577 3.17575 2.09404 0
M  V30 1830 H 175.889 4.0394 2.92633 0
M  V30 1831 H 175.043 3.22708 5.13755 0
M  V30 1832 H 173.782 2.2601 4.3217 0
M  V30 1833 H 172.787 4.35366 3.35763 0
M  V30 1834 H 174.012 5.33159 4.20617 0
M  V30 1835 H 171.958 3.52258 5.53399 0
M  V30 1836 H 171.875 5.25111 5.4387 0
M  V30 1837 H 173.143 4.50281 6.36292 0
M  V30 1838 N 177.372 -0.689602 1.41712 0
M  V30 1839 C 178.602 -1.47613 1.44548 0
M  V30 1840 C 179.01 -1.89132 0.0509034 0
M  V30 1841 O 178.353 -1.57741 -0.94146 0
M  V30 1842 C 178.415 -2.76596 2.2964 0
M  V30 1843 C 178.079 -2.57245 3.77722 0
M  V30 1844 C 179.076 -2.22804 4.69739 0
M  V30 1845 C 176.761 -2.727 4.2183 0
M  V30 1846 C 178.755 -2.04064 6.03851 0
M  V30 1847 C 176.442 -2.53576 5.56006 0
M  V30 1848 C 177.44 -2.1931 6.46832 0
M  V30 1849 O 177.128 -2.00359 7.78532 0
M  V30 1850 H 176.86 -0.461227 0.494212 0
M  V30 1851 H 179.414 -0.856045 1.86711 0
M  V30 1852 H 177.644 -3.41033 1.82301 0
M  V30 1853 H 179.333 -3.38424 2.24107 0
M  V30 1854 H 180.099 -2.10473 4.36951 0
M  V30 1855 H 175.978 -2.98353 3.51435 0
M  V30 1856 H 179.522 -1.77241 6.74708 0
M  V30 1857 H 175.419 -2.65499 5.88371 0
M  V30 1858 H 176.187 -2.15075 7.89737 0
M  V30 1859 N 178.85 -1.27639 -0.924453 0
M  V30 1860 C 180.096 -1.14336 -1.67497 0
M  V30 1861 C 180.429 0.309465 -1.91718 0
M  V30 1862 O 179.704 1.22608 -1.50989 0
M  V30 1863 C 179.987 -1.93096 -3.0395 0
M  V30 1864 C 179.84 -3.46381 -2.8695 0
M  V30 1865 C 181.159 -1.73798 -4.0433 0
M  V30 1866 H 178.278 -0.416728 -0.607871 0
M  V30 1867 H 180.92 -1.56832 -1.07256 0
M  V30 1868 H 179.07 -1.56982 -3.55372 0
M  V30 1869 H 180.742 -3.92343 -2.42621 0
M  V30 1870 H 178.985 -3.72557 -2.22225 0
M  V30 1871 H 179.656 -3.96735 -3.83804 0
M  V30 1872 H 182.132 -2.05293 -3.61931 0
M  V30 1873 H 181.008 -2.31294 -4.97789 0
M  V30 1874 H 181.269 -0.686725 -4.36734 0
M  V30 1875 N 180.328 1.1314 -1.09713 0
M  V30 1876 C 181.744 1.36477 -0.827423 0
M  V30 1877 C 181.944 1.93654 0.556817 0
M  V30 1878 O 181 2.15791 1.31112 0
M  V30 1879 C 182.313 2.31334 -1.92106 0
M  V30 1880 C 183.861 2.44943 -1.94864 0
M  V30 1881 C 184.336 3.4311 -3.0338 0
M  V30 1882 N 185.827 3.50662 -3.02639 0
M  V30 1883 C 186.562 4.2651 -3.83246 0
M  V30 1884 N 186.058 5.05485 -4.73768 0
M  V30 1885 N 187.851 4.2184 -3.71493 0
M  V30 1886 H 180.002 0.743807 -1.9895 0
M  V30 1887 H 182.265 0.389823 -0.864143 0
M  V30 1888 H 181.971 1.96483 -2.91698 0
M  V30 1889 H 181.845 3.31381 -1.80184 0
M  V30 1890 H 184.232 2.79079 -0.959099 0
M  V30 1891 H 184.313 1.4481 -2.10864 0
M  V30 1892 H 183.957 3.09704 -4.02549 0
M  V30 1893 H 183.887 4.43055 -2.84622 0
M  V30 1894 H 186.378 2.94315 -2.37039 0
M  V30 1895 H 186.691 5.60675 -5.3185 0
M  V30 1896 H 185.036 5.04708 -4.77802 0
M  V30 1897 H 188.227 3.5922 -3.00131 0
M  V30 1898 H 188.4 4.80697 -4.3455 0
M  V30 1899 N 181.806 0.884767 1.30421 0
M  V30 1900 C 183.217 0.553656 1.78302 0
M  V30 1901 C 183.568 -0.930153 1.7275 0
M  V30 1902 O 182.693 -1.72681 1.30423 0
M  V30 1903 C 183.288 0.998234 3.2376 0
M  V30 1904 C 181.847 0.71854 3.69478 0
M  V30 1905 C 180.994 1.18132 2.50879 0
M  V30 1906 H 183.945 1.06901 1.17294 0
M  V30 1907 H 183.966 0.327118 3.79091 0
M  V30 1908 H 183.478 2.0782 3.27769 0
M  V30 1909 H 181.579 -0.349444 3.70958 0
M  V30 1910 H 181.692 1.30595 4.60958 0
M  V30 1911 H 180.056 0.600669 2.47516 0
M  V30 1912 H 180.839 2.26902 2.57624 0
M  V30 1913 N 183.284 -1.43765 0.645699 0
M  V30 1914 C 184.532 -2.01499 0.155731 0
M  V30 1915 C 184.853 -1.51151 -1.232 0
M  V30 1916 O 184.123 -0.721044 -1.82148 0
M  V30 1917 H 182.703 -0.745003 0.0545817 0
M  V30 1918 H 185.365 -1.76075 0.835677 0
M  V30 1919 H 184.461 -3.1181 0.134577 0
M  V30 1920 N 184.763 -0.387143 -1.52771 0
M  V30 1921 C 186.011 0.195349 -2.01154 0
M  V30 1922 C 186.332 1.475 -1.27549 0
M  V30 1923 O 185.602 1.91878 -0.394924 0
M  V30 1924 H 184.182 0.075178 -0.743207 0
M  V30 1925 H 186.844 -0.518337 -1.87881 0
M  V30 1926 H 185.94 0.407096 -3.09434 0
M  V30 1927 N 186.241 1.57166 -0.116904 0
M  V30 1928 C 187.489 1.94737 0.540533 0
M  V30 1929 C 187.81 1.00096 1.67349 0
M  V30 1930 O 187.08 0.0568854 1.95817 0
M  V30 1931 H 185.66 0.718981 0.202669 0
M  V30 1932 H 188.322 1.94017 -0.185353 0
M  V30 1933 H 187.418 2.97719 0.936483 0
M  V30 1934 N 187.719 -0.156864 1.56817 0
M  V30 1935 C 188.966 -0.871125 1.82805 0
M  V30 1936 C 189.294 -1.81611 0.696262 0
M  V30 1937 O 188.549 -1.93141 -0.315459 0
M  V30 1938 C 188.848 -1.68737 3.1506 0
M  V30 1939 C 188.514 -0.890045 4.42028 0
M  V30 1940 C 187.176 -0.670042 4.76512 0
M  V30 1941 C 189.528 -0.331769 5.20143 0
M  V30 1942 C 186.856 0.119104 5.86579 0
M  V30 1943 C 189.208 0.444365 6.31037 0
M  V30 1944 C 187.872 0.675035 6.64078 0
M  V30 1945 H 187.142 -0.318767 0.668931 0
M  V30 1946 H 189.789 -0.135274 1.91022 0
M  V30 1947 H 188.094 -2.49304 3.0225 0
M  V30 1948 H 189.791 -2.24331 3.3238 0
M  V30 1949 H 186.381 -1.07157 4.14988 0
M  V30 1950 H 190.565 -0.489043 4.93885 0
M  V30 1951 H 185.821 0.307417 6.10627 0
M  V30 1952 H 189.995 0.884139 6.90765 0
M  V30 1953 H 187.622 1.28839 7.49203 0
M  V30 1954 N 189.197 -1.51736 -0.425897 0
M  V30 1955 C 190.443 -1.65214 -1.1761 0
M  V30 1956 C 190.776 -0.372778 -1.90589 0
M  V30 1957 O 190.051 0.628139 -1.84078 0
M  V30 1958 C 190.334 -2.86312 -2.18398 0
M  V30 1959 C 190.187 -4.24254 -1.49426 0
M  V30 1960 C 191.506 -3.02925 -3.19256 0
M  V30 1961 H 188.625 -0.601263 -0.426206 0
M  V30 1962 H 191.267 -1.8425 -0.463882 0
M  V30 1963 H 189.417 -2.70213 -2.79137 0
M  V30 1964 H 191.089 -4.52046 -0.919362 0
M  V30 1965 H 189.332 -4.26426 -0.796432 0
M  V30 1966 H 190.003 -5.05001 -2.22885 0
M  V30 1967 H 192.479 -3.1781 -2.68581 0
M  V30 1968 H 191.355 -3.89199 -3.8706 0
M  V30 1969 H 191.616 -2.15497 -3.86023 0
M  V30 1970 N 190.675 0.682077 -1.42076 0
M  V30 1971 C 192.086 1.26246 -1.37546 0
M  V30 1972 C 192.437 1.96092 -0.0651481 0
M  V30 1973 O 191.562 1.99587 0.836297 0
M  V30 1974 C 192.157 2.29594 -2.49143 0
M  V30 1975 C 190.716 2.83175 -2.47969 0
M  V30 1976 C 189.863 1.57395 -2.28303 0
M  V30 1977 H 192.814 0.475937 -1.51395 0
M  V30 1978 H 192.835 3.11175 -2.18976 0
M  V30 1979 H 192.347 1.78729 -3.44496 0
M  V30 1980 H 190.448 3.3818 -1.56413 0
M  V30 1981 H 190.561 3.32687 -3.44755 0
M  V30 1982 H 188.925 1.83699 -1.76428 0
M  V30 1983 H 189.708 1.08507 -3.25701 0
M  V30 1984 N 192.153 1.28127 0.917671 0
M  V30 1985 C 193.101 1.11569 2.04096 0
M  V30 1986 C 194.095 0.0360242 1.69362 0
M  V30 1987 O 195.301 0.194501 1.78946 0
M  V30 1988 H 191.676 0.344097 0.668656 0
M  V30 1989 H 193.647 2.06711 2.15205 0
M  V30 1990 C 192.396 0.790197 3.38602 0
M  V30 1991 H 191.719 1.61293 3.6582 0
M  V30 1992 H 193.159 0.714271 4.1794 0
M  V30 1993 C 191.618 -0.505897 3.3308 0
M  V30 1994 O 192.148 -1.53736 3.71117 0
M  V30 1995 N 190.354 -0.505193 2.86175 0
M  V30 1996 H 189.901 0.334621 2.55417 0
M  V30 1997 H 189.859 -1.37243 2.82863 0
M  V30 1998 N 193.631 -1.12557 1.10312 0
M  V30 1999 C 194.878 -1.84038 0.844759 0
M  V30 2000 C 195.206 -1.84026 -0.629668 0
M  V30 2001 O 194.461 -1.28026 -1.48013 0
M  V30 2002 C 194.76 -3.31462 1.33669 0
M  V30 2003 C 194.426 -3.51647 2.82232 0
M  V30 2004 C 193.088 -3.56864 3.22802 0
M  V30 2005 C 195.44 -3.58867 3.77974 0
M  V30 2006 C 192.768 -3.66844 4.57867 0
M  V30 2007 C 195.12 -3.70375 5.1284 0
M  V30 2008 C 193.784 -3.73848 5.52986 0
M  V30 2009 H 193.054 -0.673444 0.309119 0
M  V30 2010 H 195.701 -1.32824 1.37949 0
M  V30 2011 H 194.006 -3.85091 0.721949 0
M  V30 2012 H 195.703 -3.85236 1.11329 0
M  V30 2013 H 192.293 -3.48249 2.49842 0
M  V30 2014 H 196.477 -3.54107 3.47738 0
M  V30 2015 H 191.733 -3.67804 4.88396 0
M  V30 2016 H 195.907 -3.74904 5.86873 0
M  V30 2017 H 193.534 -3.81333 6.57639 0
M  V30 2018 N 195.109 -0.891671 -1.2995 0
M  V30 2019 C 196.041 -0.320695 -2.26945 0
M  V30 2020 C 197.054 0.528497 -1.53983 0
M  V30 2021 O 198.243 0.346959 -1.75096 0
M  V30 2022 C 195.343 0.562066 -3.34207 0
M  V30 2023 C 194.516 -0.259576 -4.36629 0
M  V30 2024 C 193.575 0.554739 -5.23268 0
M  V30 2025 O 192.601 -0.0249311 -5.69195 0
M  V30 2026 N 193.803 1.8625 -5.4981 0
M  V30 2027 H 196.568 -1.15432 -2.76578 0
M  V30 2028 H 194.129 -0.755336 -1.432 0
M  V30 2029 H 196.121 1.11304 -3.89093 0
M  V30 2030 H 194.691 1.29637 -2.84452 0
M  V30 2031 H 193.911 -0.991986 -3.81514 0
M  V30 2032 H 195.199 -0.822564 -5.02107 0
M  V30 2033 H 194.597 2.35628 -5.14292 0
M  V30 2034 H 193.154 2.36078 -6.07545 0
M  V30 2035 N 196.587 1.43421 -0.653314 0
M  V30 2036 C 197.517 2.33487 0.0246656 0
M  V30 2037 C 198.498 1.49475 0.811863 0
M  V30 2038 O 199.683 1.78139 0.773322 0
M  V30 2039 C 196.813 3.32841 0.99166 0
M  V30 2040 C 195.767 4.26842 0.314568 0
M  V30 2041 C 195.093 5.16236 1.39302 0
M  V30 2042 C 196.393 5.16243 -0.793095 0
M  V30 2043 H 198.087 2.90427 -0.727481 0
M  V30 2044 H 195.633 1.39649 -0.351287 0
M  V30 2045 H 197.586 3.94747 1.47487 0
M  V30 2046 H 196.31 2.74158 1.77497 0
M  V30 2047 H 194.969 3.663 -0.148199 0
M  V30 2048 H 194.617 4.53891 2.16776 0
M  V30 2049 H 194.317 5.79948 0.945223 0
M  V30 2050 H 195.841 5.81015 1.87759 0
M  V30 2051 H 197.255 5.71958 -0.392039 0
M  V30 2052 H 195.652 5.88676 -1.16536 0
M  V30 2053 H 196.722 4.55927 -1.65103 0
M  V30 2054 N 198.065 0.39524 1.52563 0
M  V30 2055 C 199.312 -0.185044 2.01653 0
M  V30 2056 C 199.64 -1.46317 1.28146 0
M  V30 2057 O 198.895 -1.9213 0.372074 0
M  V30 2058 C 199.194 -0.493444 3.53977 0
M  V30 2059 C 198.86 0.69384 4.4553 0
M  V30 2060 C 197.522 1.01954 4.70275 0
M  V30 2061 C 199.874 1.48785 4.99512 0
M  V30 2062 C 197.202 2.14069 5.46252 0
M  V30 2063 C 199.554 2.59965 5.76716 0
M  V30 2064 C 198.218 2.93037 5.99738 0
M  V30 2065 H 197.488 -0.0677123 0.7379 0
M  V30 2066 H 200.135 0.533807 1.8391 0
M  V30 2067 H 198.44 -1.29369 3.69825 0
M  V30 2068 H 200.137 -0.955163 3.89458 0
M  V30 2069 H 196.727 0.429987 4.26438 0
M  V30 2070 H 200.911 1.24946 4.80315 0
M  V30 2071 H 196.167 2.40056 5.62302 0
M  V30 2072 H 200.341 3.21887 6.17545 0
M  V30 2073 H 197.968 3.8003 6.58393 0
M  V30 2074 N 199.544 -1.57102 0.125237 0
M  V30 2075 C 200.454 -2.19191 -0.8362 0
M  V30 2076 C 201.47 -1.16985 -1.28805 0
M  V30 2077 O 202.646 -1.49479 -1.34974 0
M  V30 2078 C 199.711 -2.78407 -2.06617 0
M  V30 2079 C 198.772 -3.9567 -1.66565 0
M  V30 2080 C 198.005 -4.52052 -2.83698 0
M  V30 2081 O 198.228 -4.07326 -3.99302 0
M  V30 2082 O 197.162 -5.42645 -2.60423 0
M  V30 2083 H 200.988 -3.01816 -0.337776 0
M  V30 2084 H 198.573 -1.4906 -0.100695 0
M  V30 2085 H 200.455 -3.16129 -2.7864 0
M  V30 2086 H 199.13 -1.9881 -2.55453 0
M  V30 2087 H 198.037 -3.62705 -0.916296 0
M  V30 2088 H 199.37 -4.76722 -1.22464 0
M  V30 2089 N 201.022 0.148545 -1.56898 0
M  V30 2090 C 201.969 1.18345 -1.98149 0
M  V30 2091 C 202.939 1.42772 -0.848848 0
M  V30 2092 O 204.124 1.55132 -1.11079 0
M  V30 2093 C 201.264 2.51231 -2.36594 0
M  V30 2094 C 200.377 2.33991 -3.63142 0
M  V30 2095 C 199.512 3.59902 -3.90697 0
M  V30 2096 C 198.551 3.37692 -5.1052 0
M  V30 2097 N 197.688 4.5573 -5.34092 0
M  V30 2098 H 202.528 0.82467 -2.86362 0
M  V30 2099 H 200.065 0.395756 -1.41676 0
M  V30 2100 H 202.023 3.28713 -2.56912 0
M  V30 2101 H 200.653 2.85059 -1.51463 0
M  V30 2102 H 199.705 1.47572 -3.50609 0
M  V30 2103 H 201.017 2.13539 -4.5078 0
M  V30 2104 H 200.171 4.45813 -4.11505 0
M  V30 2105 H 198.91 3.83357 -3.01477 0
M  V30 2106 H 197.915 2.5017 -4.89587 0
M  V30 2107 H 199.14 3.15637 -6.0129 0
M  V30 2108 H 197.086 4.79361 -4.47827 0
M  V30 2109 H 197.003 4.38274 -6.15996 0
M  V30 2110 H 198.271 5.42858 -5.59397 0
M  V30 2111 N 202.5 1.5196 0.417844 0
M  V30 2112 C 203.748 1.65263 1.16329 0
M  V30 2113 C 204.069 0.380634 1.91249 0
M  V30 2114 O 203.339 -0.604214 1.86349 0
M  V30 2115 H 201.919 0.60912 0.432414 0
M  V30 2116 H 204.581 1.88969 0.477162 0
M  V30 2117 H 203.677 2.4896 1.88217 0
M  V30 2118 N 203.978 -0.674533 1.42435 0
M  V30 2119 C 205.255 -1.4305 1.33402 0
M  V30 2120 C 205.635 -2.11081 -0.0284674 0
M  V30 2121 O 204.983 -2.03257 -1.04397 0
M  V30 2122 C 205.193 -2.43272 2.50239 0
M  V30 2123 C 206.541 -3.07907 2.92367 0
M  V30 2124 O 207.565 -2.53599 2.50132 0
M  V30 2125 O 206.424 -4.0632 3.65467 0
M  V30 2126 H 203.518 -0.638076 0.526106 0
M  V30 2127 H 206.064 -0.703235 1.54443 0
M  V30 2128 H 204.836 -1.91803 3.41068 0
M  V30 2129 H 204.459 -3.23479 2.31186 0
M  V30 2130 N 205.456 -1.28612 -0.910864 0
M  V30 2131 C 206.702 -1.16106 -1.66274 0
M  V30 2132 C 207.035 0.289113 -1.92036 0
M  V30 2133 O 206.31 1.21 -1.52281 0
M  V30 2134 C 206.593 -1.96309 -3.01885 0
M  V30 2135 C 206.446 -3.49405 -2.8326 0
M  V30 2136 C 207.765 -1.78076 -4.02463 0
M  V30 2137 H 204.884 -0.423152 -0.603417 0
M  V30 2138 H 207.526 -1.57961 -1.05586 0
M  V30 2139 H 205.676 -1.60742 -3.53687 0
M  V30 2140 H 207.348 -3.94894 -2.38446 0
M  V30 2141 H 205.591 -3.74893 -2.18261 0
M  V30 2142 H 206.262 -4.00784 -3.79574 0
M  V30 2143 H 208.738 -2.0912 -3.59733 0
M  V30 2144 H 207.614 -2.36561 -4.95308 0
M  V30 2145 H 207.875 -0.733008 -4.35981 0
M  V30 2146 N 206.934 1.1197 -1.10907 0
M  V30 2147 C 207.882 2.19927 -0.757303 0
M  V30 2148 C 208.876 1.67564 0.248747 0
M  V30 2149 O 210.082 1.79672 0.108605 0
M  V30 2150 H 206.457 0.716925 -0.226987 0
M  V30 2151 H 208.428 2.46847 -1.67658 0
M  V30 2152 C 207.177 3.47061 -0.210671 0
M  V30 2153 H 206.5 3.87703 -0.976049 0
M  V30 2154 H 207.94 4.24 -0.0026584 0
M  V30 2155 C 206.399 3.19864 1.05777 0
M  V30 2156 O 206.929 3.40049 2.13845 0
M  V30 2157 N 205.135 2.73636 0.978349 0
M  V30 2158 H 204.682 2.5741 0.0988246 0
M  V30 2159 H 204.64 2.55815 1.82773 0
M  V30 2160 N 208.412 0.89855 1.29475 0
M  V30 2161 C 209.66 0.522847 1.9522 0
M  V30 2162 C 209.981 -0.93371 1.71192 0
M  V30 2163 O 209.251 -1.65823 1.04305 0
M  V30 2164 H 207.831 0.190366 0.722336 0
M  V30 2165 H 210.493 1.14459 1.5775 0
M  V30 2166 H 209.589 0.704476 3.04045 0
M  V30 2167 N 209.89 -1.43072 0.660911 0
M  V30 2168 C 210.8 -2.34585 -0.0264163 0
M  V30 2169 C 211.816 -1.54316 -0.803898 0
M  V30 2170 O 212.992 -1.86939 -0.749391 0
M  V30 2171 C 210.057 -3.32689 -0.975639 0
M  V30 2172 C 209.118 -4.2886 -0.194236 0
M  V30 2173 C 208.351 -5.22278 -1.09825 0
M  V30 2174 O 208.574 -5.20299 -2.33763 0
M  V30 2175 O 207.508 -5.99228 -0.566513 0
M  V30 2176 H 211.334 -2.94869 0.727034 0
M  V30 2177 H 208.919 -1.43342 0.42111 0
M  V30 2178 H 210.801 -3.92995 -1.52094 0
M  V30 2179 H 209.476 -2.74898 -1.70918 0
M  V30 2180 H 208.383 -3.72011 0.394835 0
M  V30 2181 H 209.716 -4.89655 0.499899 0
M  V30 2182 N 211.368 -0.403325 -1.52352 0
M  V30 2183 C 212.315 0.425011 -2.26853 0
M  V30 2184 C 213.285 1.04598 -1.29029 0
M  V30 2185 O 214.47 1.07135 -1.57882 0
M  V30 2186 C 211.61 1.53888 -3.08889 0
M  V30 2187 C 210.723 0.939396 -4.21663 0
M  V30 2188 C 209.858 2.02547 -4.91068 0
M  V30 2189 C 208.897 1.40263 -5.95813 0
M  V30 2190 N 208.034 2.4286 -6.58759 0
M  V30 2191 H 212.874 -0.21674 -2.97211 0
M  V30 2192 H 210.411 -0.118722 -1.4662 0
M  V30 2193 H 212.369 2.19558 -3.54753 0
M  V30 2194 H 210.999 2.15074 -2.40714 0
M  V30 2195 H 210.051 0.171898 -3.80011 0
M  V30 2196 H 211.363 0.44436 -4.96817 0
M  V30 2197 H 210.517 2.75958 -5.40308 0
M  V30 2198 H 209.256 2.55415 -4.15469 0
M  V30 2199 H 208.261 0.653833 -5.45898 0
M  V30 2200 H 209.486 0.881719 -6.73352 0
M  V30 2201 H 207.432 2.94871 -5.85992 0
M  V30 2202 H 207.349 1.98152 -7.2957 0
M  V30 2203 H 208.617 3.15858 -7.12639 0
M  V30 2204 N 212.846 1.57033 -0.133567 0
M  V30 2205 C 213.756 2.19632 0.824564 0
M  V30 2206 C 214.772 1.17666 1.28182 0
M  V30 2207 O 215.948 1.50193 1.3418 0
M  V30 2208 C 213.013 2.79499 2.05137 0
M  V30 2209 C 212.074 3.96548 1.64464 0
M  V30 2210 C 211.307 4.5355 2.81297 0
M  V30 2211 O 211.53 4.09438 3.97136 0
M  V30 2212 O 210.464 5.44018 2.57542 0
M  V30 2213 H 214.29 3.01991 0.321766 0
M  V30 2214 H 211.875 1.49112 0.0927889 0
M  V30 2215 H 213.757 3.17602 2.7696 0
M  V30 2216 H 212.432 2.00162 2.54395 0
M  V30 2217 H 211.339 3.63186 0.897048 0
M  V30 2218 H 212.672 4.77364 1.19934 0
M  V30 2219 N 214.325 -0.140222 1.56975 0
M  V30 2220 C 215.257 -1.19818 1.95388 0
M  V30 2221 C 216.27 -1.38816 0.850525 0
M  V30 2222 O 217.459 -1.38267 1.12891 0
M  V30 2223 C 214.559 -2.56189 2.21857 0
M  V30 2224 C 213.732 -2.58077 3.5315 0
M  V30 2225 C 212.791 -3.76037 3.6808 0
M  V30 2226 O 211.817 -3.60598 4.40406 0
M  V30 2227 N 213.019 -4.93763 3.05251 0
M  V30 2228 H 215.784 -0.871609 2.86746 0
M  V30 2229 H 213.345 -0.32972 1.58507 0
M  V30 2230 H 215.337 -3.33623 2.2908 0
M  V30 2231 H 213.907 -2.81111 1.36731 0
M  V30 2232 H 213.127 -1.6651 3.57307 0
M  V30 2233 H 214.415 -2.56377 4.39486 0
M  V30 2234 H 213.813 -5.09209 2.46419 0
M  V30 2235 H 212.37 -5.68949 3.18026 0
M  V30 2236 N 215.803 -1.52179 -0.40978 0
M  V30 2237 C 216.75 -1.75475 -1.49924 0
M  V30 2238 C 217.72 -0.597175 -1.54994 0
M  V30 2239 O 218.905 -0.834655 -1.71575 0
M  V30 2240 C 216.045 -1.9107 -2.87378 0
M  V30 2241 C 215.158 -3.18717 -2.91622 0
M  V30 2242 C 214.293 -3.24747 -4.20372 0
M  V30 2243 C 213.332 -4.46598 -4.18588 0
M  V30 2244 N 212.469 -4.50025 -5.38908 0
M  V30 2245 H 217.309 -2.68458 -1.29361 0
M  V30 2246 H 214.846 -1.33024 -0.627934 0
M  V30 2247 H 216.804 -1.98096 -3.6717 0
M  V30 2248 H 215.434 -1.01469 -3.06437 0
M  V30 2249 H 214.486 -3.20866 -2.04326 0
M  V30 2250 H 215.798 -4.08544 -2.86169 0
M  V30 2251 H 214.952 -3.30841 -5.08556 0
M  V30 2252 H 213.691 -2.32857 -4.28519 0
M  V30 2253 H 212.696 -4.40652 -3.28794 0
M  V30 2254 H 213.921 -5.39783 -4.12081 0
M  V30 2255 H 211.867 -3.61017 -5.47725 0
M  V30 2256 H 211.784 -5.33697 -5.35447 0
M  V30 2257 H 213.052 -4.60347 -6.29048 0
M  V30 2258 N 217.281 0.66697 -1.42791 0
M  V30 2259 C 218.528 1.42699 -1.43678 0
M  V30 2260 C 218.856 1.94419 -0.0560425 0
M  V30 2261 O 218.111 1.7182 0.936831 0
M  V30 2262 C 218.41 2.6349 -2.4147 0
M  V30 2263 C 218.076 2.30267 -3.8767 0
M  V30 2264 C 216.738 2.20918 -4.27491 0
M  V30 2265 C 219.09 2.03435 -4.79858 0
M  V30 2266 C 216.418 1.82873 -5.57471 0
M  V30 2267 C 218.77 1.66892 -6.10188 0
M  V30 2268 C 217.434 1.56058 -6.49001 0
M  V30 2269 H 216.704 0.522171 -0.525755 0
M  V30 2270 H 219.351 0.759785 -1.75783 0
M  V30 2271 H 217.656 3.35279 -2.0272 0
M  V30 2272 H 219.353 3.21684 -2.39417 0
M  V30 2273 H 215.943 2.38449 -3.56146 0
M  V30 2274 H 220.127 2.09586 -4.49875 0
M  V30 2275 H 215.383 1.7306 -5.86396 0
M  V30 2276 H 219.557 1.45157 -6.81104 0
M  V30 2277 H 217.184 1.26348 -7.49627 0
M  V30 2278 N 218.759 1.29093 0.90403 0
M  V30 2279 C 219.989 1.19516 1.68522 0
M  V30 2280 C 220.397 -0.24738 1.87576 0
M  V30 2281 O 219.74 -1.17798 1.40959 0
M  V30 2282 C 219.802 1.83249 3.0929 0
M  V30 2283 C 219.466 3.32531 3.13484 0
M  V30 2284 C 220.463 4.28821 2.93953 0
M  V30 2285 C 218.148 3.73656 3.35688 0
M  V30 2286 C 220.142 5.64212 2.96553 0
M  V30 2287 C 217.829 5.0917 3.37919 0
M  V30 2288 C 218.827 6.04258 3.18373 0
M  V30 2289 O 218.515 7.37298 3.20385 0
M  V30 2290 H 218.247 0.415467 0.533257 0
M  V30 2291 H 220.801 1.70912 1.13922 0
M  V30 2292 H 219.031 1.26358 3.65473 0
M  V30 2293 H 220.72 1.68054 3.69476 0
M  V30 2294 H 221.486 3.98382 2.76616 0
M  V30 2295 H 217.365 3.00101 3.49943 0
M  V30 2296 H 220.909 6.38407 2.81216 0
M  V30 2297 H 216.806 5.39256 3.54787 0
M  V30 2298 H 217.574 7.46048 3.36681 0
M  V30 2299 N 220.237 -1.11381 1.11499 0
M  V30 2300 C 221.465 -1.86934 0.88675 0
M  V30 2301 C 221.88 -1.80195 -0.563476 0
M  V30 2302 O 221.237 -1.18367 -1.38908 0
M  V30 2303 C 221.288 -3.35722 1.34064 0
M  V30 2304 O 221.009 -3.4232 2.73401 0
M  V30 2305 C 222.51 -4.2818 1.14791 0
M  V30 2306 H 219.73 -0.591117 0.317523 0
M  V30 2307 H 222.274 -1.40865 1.48248 0
M  V30 2308 H 220.429 -3.79294 0.788355 0
M  V30 2309 H 220.843 -4.34971 2.93087 0
M  V30 2310 H 222.317 -5.30817 1.5145 0
M  V30 2311 H 222.794 -4.39113 0.0875279 0
M  V30 2312 H 223.4 -3.90402 1.68721 0
M  V30 2313 N 221.715 -0.905404 -1.28997 0
M  V30 2314 C 222.962 -0.534248 -1.95325 0
M  V30 2315 C 223.29 0.920535 -1.71337 0
M  V30 2316 O 222.545 1.66861 -1.02254 0
M  V30 2317 C 222.844 -0.779906 -3.48787 0
M  V30 2318 C 222.51 -2.21293 -3.92861 0
M  V30 2319 C 221.172 -2.60475 -4.04606 0
M  V30 2320 C 223.524 -3.14587 -4.15553 0
M  V30 2321 C 220.852 -3.9212 -4.36416 0
M  V30 2322 C 223.204 -4.45787 -4.48839 0
M  V30 2323 C 221.868 -4.84834 -4.58794 0
M  V30 2324 H 221.138 -0.195495 -0.714747 0
M  V30 2325 H 223.785 -1.14514 -1.53488 0
M  V30 2326 H 222.09 -0.0861365 -3.91705 0
M  V30 2327 H 223.787 -0.472029 -3.98212 0
M  V30 2328 H 220.377 -1.89887 -3.84241 0
M  V30 2329 H 224.561 -2.85528 -4.0594 0
M  V30 2330 H 219.817 -4.22086 -4.42327 0
M  V30 2331 H 223.991 -5.18098 -4.65346 0
M  V30 2332 H 221.618 -5.86877 -4.83197 0
M  V30 2333 N 223.193 1.4272 -0.668489 0
M  V30 2334 C 224.123 2.335 -0.000100175 0
M  V30 2335 C 225.104 1.50328 0.795964 0
M  V30 2336 O 226.289 1.78949 0.754385 0
M  V30 2337 C 223.419 3.33874 0.956302 0
M  V30 2338 C 222.373 4.27152 0.269278 0
M  V30 2339 C 221.699 5.17684 1.33818 0
M  V30 2340 C 222.999 5.15373 -0.847805 0
M  V30 2341 H 224.693 2.89639 -0.758244 0
M  V30 2342 H 222.239 1.39269 -0.366079 0
M  V30 2343 H 224.192 3.9629 1.43292 0
M  V30 2344 H 222.916 2.76025 1.74579 0
M  V30 2345 H 221.575 3.66123 -0.187042 0
M  V30 2346 H 221.223 4.56165 2.1195 0
M  V30 2347 H 220.923 5.80918 0.883659 0
M  V30 2348 H 222.447 5.82974 1.81586 0
M  V30 2349 H 223.861 5.7151 -0.452681 0
M  V30 2350 H 222.258 5.87407 -1.22773 0
M  V30 2351 H 223.328 4.5415 -1.69929 0
M  V30 2352 N 224.671 0.411399 1.52136 0
M  V30 2353 C 225.618 -0.412975 2.27075 0
M  V30 2354 C 226.588 -1.03912 1.29582 0
M  V30 2355 O 227.773 -1.06296 1.58448 0
M  V30 2356 C 224.913 -1.52247 3.09701 0
M  V30 2357 C 224.026 -0.917021 4.22155 0
M  V30 2358 C 223.161 -1.9994 4.92135 0
M  V30 2359 C 222.2 -1.37101 5.96548 0
M  V30 2360 N 221.337 -2.39364 6.60038 0
M  V30 2361 H 226.177 0.232499 2.97092 0
M  V30 2362 H 223.714 0.126496 1.46555 0
M  V30 2363 H 225.672 -2.17674 3.55913 0
M  V30 2364 H 224.302 -2.13794 2.41851 0
M  V30 2365 H 223.354 -0.151742 3.80097 0
M  V30 2366 H 224.666 -0.418006 4.97045 0
M  V30 2367 H 223.82 -2.73088 5.41763 0
M  V30 2368 H 222.559 -2.53208 4.16818 0
M  V30 2369 H 221.564 -0.624873 5.46237 0
M  V30 2370 H 222.789 -0.845998 6.7381 0
M  V30 2371 H 220.735 -2.91759 5.87548 0
M  V30 2372 H 220.652 -1.9428 7.3061 0
M  V30 2373 H 221.92 -3.12074 7.14304 0
M  V30 2374 N 226.149 -1.5696 0.141893 0
M  V30 2375 C 227.097 -2.17784 -0.816874 0
M  V30 2376 C 228.091 -1.1334 -1.25899 0
M  V30 2377 O 229.297 -1.316 -1.22806 0
M  V30 2378 H 225.672 -0.697278 -0.281615 0
M  V30 2379 H 227.643 -2.97087 -0.279621 0
M  V30 2380 C 226.392 -2.80983 -2.04802 0
M  V30 2381 H 225.715 -3.61062 -1.7168 0
M  V30 2382 H 227.155 -3.2705 -2.69841 0
M  V30 2383 C 225.614 -1.79228 -2.8527 0
M  V30 2384 O 226.144 -1.25962 -3.8144 0
M  V30 2385 N 224.35 -1.48647 -2.49704 0
M  V30 2386 H 223.897 -1.92155 -1.71564 0
M  V30 2387 H 223.855 -0.808115 -3.03837 0
M  V30 2388 N 227.627 0.131896 -1.57047 0
M  V30 2389 C 228.852 0.860418 -1.8871 0
M  V30 2390 C 229.277 1.73251 -0.73251 0
M  V30 2391 O 228.635 1.785 0.317429 0
M  V30 2392 C 228.683 1.68047 -3.19049 0
M  V30 2393 O 227.787 2.7862 -3.04047 0
M  V30 2394 H 227.128 0.238743 -0.619595 0
M  V30 2395 H 229.658 0.118169 -2.04258 0
M  V30 2396 H 229.668 2.07238 -3.51449 0
M  V30 2397 H 228.343 1.04018 -4.02682 0
M  V30 2398 H 226.92 2.42726 -2.83088 0
M  V30 2399 N 229.106 1.52395 0.401703 0
M  V30 2400 C 230.346 1.68498 1.15705 0
M  V30 2401 C 230.71 0.409748 1.87577 0
M  V30 2402 O 231.911 0.446983 2.65058 0
M  V30 2403 C 230.182 2.87789 2.11924 0
M  V30 2404 S 231.741 3.24415 2.95466 0
M  V30 2405 H 228.559 0.593267 0.391862 0
M  V30 2406 H 231.161 1.90408 0.443282 0
M  V30 2407 H 229.865 3.7884 1.57824 0
M  V30 2408 H 229.396 2.68175 2.87829 0
M  V30 2409 H 231.411 2.73614 4.13944 0
M  V30 2410 N 230.584 -0.659388 1.43143 0
M  V30 2411 C 231.995 -1.24041 1.39537 0
M  V30 2412 C 232.346 -1.95963 0.0963364 0
M  V30 2413 O 231.471 -2.00892 -0.804438 0
M  V30 2414 C 232.066 -2.25601 2.52764 0
M  V30 2415 C 230.625 -2.79195 2.52443 0
M  V30 2416 C 229.772 -1.53743 2.30778 0
M  V30 2417 H 232.723 -0.451792 1.52133 0
M  V30 2418 H 232.744 -3.07651 2.23899 0
M  V30 2419 H 232.256 -1.73226 3.47296 0
M  V30 2420 H 230.357 -3.35649 1.61773 0
M  V30 2421 H 230.47 -3.2716 3.50004 0
M  V30 2422 H 228.834 -1.80869 1.79328 0
M  V30 2423 H 229.617 -1.03312 3.27386 0
M  V30 2424 N 232.062 -1.29571 -0.897171 0
M  V30 2425 C 233.473 -1.15964 -1.46319 0
M  V30 2426 C 233.824 0.244267 -1.94674 0
M  V30 2427 O 232.949 1.13998 -1.83939 0
M  V30 2428 C 233.544 -2.09906 -2.65942 0
M  V30 2429 C 232.103 -2.00314 -3.18671 0
M  V30 2430 C 231.25 -2.00687 -1.91363 0
M  V30 2431 H 234.201 -1.42019 -0.708268 0
M  V30 2432 H 234.222 -1.67276 -3.41759 0
M  V30 2433 H 233.734 -3.12075 -2.30718 0
M  V30 2434 H 231.835 -1.01242 -3.58582 0
M  V30 2435 H 231.948 -2.88102 -3.82798 0
M  V30 2436 H 230.312 -1.45319 -2.09175 0
M  V30 2437 H 231.095 -3.04566 -1.58413 0
M  V30 2438 N 233.54 1.10788 -1.12088 0
M  V30 2439 C 234.768 1.86461 -0.896651 0
M  V30 2440 C 235.183 1.80492 0.553912 0
M  V30 2441 O 234.54 1.19102 1.38278 0
M  V30 2442 C 234.591 3.35006 -1.35843 0
M  V30 2443 O 234.312 3.40866 -2.75213 0
M  V30 2444 C 235.813 4.27565 -1.1706 0
M  V30 2445 H 233.033 0.589425 -0.320654 0
M  V30 2446 H 235.577 1.40076 -1.48993 0
M  V30 2447 H 233.732 3.7887 -0.808458 0
M  V30 2448 H 234.146 4.33411 -2.9539 0
M  V30 2449 H 235.62 5.30007 -1.54263 0
M  V30 2450 H 236.097 4.3906 -0.110814 0
M  V30 2451 H 236.703 3.89501 -1.70789 0
M  V30 2452 N 235.018 0.912232 1.28515 0
M  V30 2453 C 236.243 0.559774 1.99703 0
M  V30 2454 C 236.668 -0.851393 1.67729 0
M  V30 2455 O 236.026 -1.56875 0.908834 0
M  V30 2456 C 236.074 0.773874 3.52198 0
M  V30 2457 O 235.178 -0.167842 4.12058 0
M  V30 2458 H 234.519 0.21723 0.627461 0
M  V30 2459 H 237.049 1.22725 1.63706 0
M  V30 2460 H 237.059 0.683386 4.02236 0
M  V30 2461 H 235.734 1.80261 3.74805 0
M  V30 2462 H 234.311 -0.0287509 3.72889 0
M  V30 2463 N 236.496 -1.42363 0.676048 0
M  V30 2464 C 237.406 -2.346 -0.00153389 0
M  V30 2465 C 238.422 -1.5516 -0.787485 0
M  V30 2466 O 239.598 -1.87723 -0.729521 0
M  V30 2467 C 236.663 -3.33705 -0.940298 0
M  V30 2468 C 235.724 -4.29042 -0.148739 0
M  V30 2469 C 234.957 -5.23413 -1.04279 0
M  V30 2470 O 235.18 -5.22749 -2.28232 0
M  V30 2471 O 234.114 -5.99795 -0.502925 0
M  V30 2472 H 237.94 -2.94082 0.758268 0
M  V30 2473 H 235.525 -1.42888 0.436289 0
M  V30 2474 H 237.407 -3.94586 -1.47917 0
M  V30 2475 H 236.082 -2.76695 -1.67993 0
M  V30 2476 H 234.989 -3.71571 0.43427 0
M  V30 2477 H 236.322 -4.89097 0.551805 0
M  V30 2478 N 237.974 -0.419461 -1.51915 0
M  V30 2479 C 238.904 0.391813 -2.30189 0
M  V30 2480 C 239.885 1.03699 -1.34836 0
M  V30 2481 O 241.07 1.04403 -1.63748 0
M  V30 2482 C 238.2 1.50312 -3.13087 0
M  V30 2483 C 237.154 0.9824 -4.16573 0
M  V30 2484 C 236.48 2.18809 -4.8788 0
M  V30 2485 C 237.78 0.0292356 -5.22292 0
M  V30 2486 H 239.474 -0.26135 -2.98257 0
M  V30 2487 H 237.02 -0.127134 -1.43438 0
M  V30 2488 H 238.973 2.07773 -3.66617 0
M  V30 2489 H 237.697 2.18431 -2.42807 0
M  V30 2490 H 236.356 0.430119 -3.64068 0
M  V30 2491 H 236.004 2.85507 -4.14119 0
M  V30 2492 H 235.704 1.84615 -5.57845 0
M  V30 2493 H 237.228 2.76858 -5.44226 0
M  V30 2494 H 238.642 0.512976 -5.71 0
M  V30 2495 H 237.039 -0.2244 -5.9968 0
M  V30 2496 H 238.109 -0.912931 -4.76228 0
M  V30 2497 N 239.452 1.56882 -0.150215 0
M  V30 2498 C 240.382 2.19935 0.784284 0
M  V30 2499 C 241.363 1.14854 1.25469 0
M  V30 2500 O 242.548 1.43209 1.31168 0
M  V30 2501 C 239.678 2.82349 2.02229 0
M  V30 2502 C 238.632 3.93285 1.68853 0
M  V30 2503 C 237.958 4.42649 2.99944 0
M  V30 2504 C 239.258 5.13904 0.932714 0
M  V30 2505 H 240.952 2.9828 0.258781 0
M  V30 2506 H 238.498 1.43473 0.123029 0
M  V30 2507 H 240.451 3.25126 2.68088 0
M  V30 2508 H 239.175 2.0134 2.57157 0
M  V30 2509 H 237.834 3.5113 1.05371 0
M  V30 2510 H 237.482 3.58458 3.52869 0
M  V30 2511 H 237.182 5.17476 2.78374 0
M  V30 2512 H 238.706 4.88099 3.66868 0
M  V30 2513 H 240.12 5.53506 1.49345 0
M  V30 2514 H 238.517 5.94515 0.81684 0
M  V30 2515 H 239.587 4.84842 -0.0749568 0
M  V30 2516 N 240.93 -0.123565 1.57115 0
M  V30 2517 C 242.178 -0.83051 1.84247 0
M  V30 2518 C 242.499 -1.80629 0.73471 0
M  V30 2519 O 241.769 -1.94403 -0.241688 0
M  V30 2520 H 240.349 -0.309694 0.679778 0
M  V30 2521 H 243.011 -0.111976 1.94578 0
M  V30 2522 H 242.107 -1.37852 2.80006 0
M  V30 2523 N 242.408 -1.52605 -0.393616 0
M  V30 2524 C 243.636 -1.71294 -1.16043 0
M  V30 2525 C 244.051 -0.429259 -1.83855 0
M  V30 2526 O 243.408 0.595921 -1.72496 0
M  V30 2527 C 243.459 -2.8593 -2.21193 0
M  V30 2528 O 243.18 -4.09329 -1.56146 0
M  V30 2529 C 244.681 -3.16259 -3.10636 0
M  V30 2530 H 241.901 -0.573641 -0.348104 0
M  V30 2531 H 244.445 -1.99234 -0.461092 0
M  V30 2532 H 242.6 -2.60465 -2.86769 0
M  V30 2533 H 243.014 -4.73323 -2.25978 0
M  V30 2534 H 244.488 -3.99946 -3.80456 0
M  V30 2535 H 244.965 -2.3045 -3.73884 0
M  V30 2536 H 245.571 -3.43547 -2.50711 0
M  V30 2537 N 243.887 0.651787 -1.4349 0
M  V30 2538 C 245.112 1.44434 -1.48841 0
M  V30 2539 C 245.537 1.8779 -0.107955 0
M  V30 2540 O 244.895 1.57464 0.898602 0
M  V30 2541 C 244.943 2.65458 -2.44059 0
M  V30 2542 O 244.047 3.64566 -1.92784 0
M  V30 2543 H 243.388 0.433005 -0.503391 0
M  V30 2544 H 245.918 0.797451 -1.88419 0
M  V30 2545 H 245.928 3.13255 -2.6141 0
M  V30 2546 H 244.603 2.33244 -3.4434 0
M  V30 2547 H 243.18 3.23716 -1.851 0
M  V30 2548 N 245.365 1.30045 0.890287 0
M  V30 2549 C 246.642 1.09227 1.62262 0
M  V30 2550 C 247.022 -0.360305 2.08002 0
M  V30 2551 O 246.37 -1.35084 1.84295 0
M  V30 2552 C 246.58 2.08835 2.79623 0
M  V30 2553 C 247.928 2.40266 3.50082 0
M  V30 2554 O 248.952 2.07104 2.89804 0
M  V30 2555 O 247.811 2.96967 4.58773 0
M  V30 2556 H 244.905 0.419132 0.712922 0
M  V30 2557 H 247.451 1.41451 0.937529 0
M  V30 2558 H 246.223 3.06633 2.43089 0
M  V30 2559 H 245.846 1.77397 3.55832 0
M  V30 2560 N 246.843 -1.10192 1.12674 0
M  V30 2561 C 248.259 -1.34235 0.863317 0
M  V30 2562 C 248.459 -1.95062 -0.505277 0
M  V30 2563 O 247.515 -2.19192 -1.25345 0
M  V30 2564 C 248.828 -2.2616 1.98172 0
M  V30 2565 C 250.376 -2.3969 2.0129 0
M  V30 2566 C 250.851 -3.34946 3.1237 0
M  V30 2567 N 252.342 -3.42515 3.11829 0
M  V30 2568 C 253.077 -4.16199 3.94419 0
M  V30 2569 N 252.573 -4.92747 4.87004 0
M  V30 2570 N 254.366 -4.11843 3.82547 0
M  V30 2571 H 246.517 -0.690798 2.00853 0
M  V30 2572 H 248.78 -0.366774 0.874174 0
M  V30 2573 H 248.486 -1.8868 2.96804 0
M  V30 2574 H 248.36 -3.26488 1.88906 0
M  V30 2575 H 250.747 -2.76438 1.03276 0
M  V30 2576 H 250.828 -1.39169 2.14629 0
M  V30 2577 H 250.472 -2.98923 4.10619 0
M  V30 2578 H 250.402 -4.35353 2.96269 0
M  V30 2579 H 252.893 -2.87926 2.44759 0
M  V30 2580 H 253.206 -5.46376 5.46528 0
M  V30 2581 H 251.551 -4.91862 4.91016 0
M  V30 2582 H 254.742 -3.51136 3.0955 0
M  V30 2583 H 254.915 -4.69007 4.47142 0
M  V30 2584 N 248.321 -0.919034 -1.28029 0
M  V30 2585 C 249.251 -0.428581 -2.29533 0
M  V30 2586 C 250.232 0.50659 -1.62381 0
M  V30 2587 O 251.417 0.413195 -1.89753 0
M  V30 2588 C 248.547 0.327388 -3.45753 0
M  V30 2589 C 247.501 -0.519137 -4.2484 0
M  V30 2590 C 246.827 0.365486 -5.33449 0
M  V30 2591 C 248.127 -1.77914 -4.91064 0
M  V30 2592 H 249.821 -1.27687 -2.70807 0
M  V30 2593 H 247.367 -0.615428 -1.30186 0
M  V30 2594 H 249.32 0.681378 -4.15855 0
M  V30 2595 H 248.044 1.20963 -3.03374 0
M  V30 2596 H 246.703 -0.855717 -3.56473 0
M  V30 2597 H 246.351 1.24642 -4.87312 0
M  V30 2598 H 246.051 -0.197356 -5.87268 0
M  V30 2599 H 247.575 0.715241 -6.06396 0
M  V30 2600 H 248.989 -1.49374 -5.53498 0
M  V30 2601 H 247.386 -2.2848 -5.54903 0
M  V30 2602 H 248.456 -2.50382 -4.15255 0
M  V30 2603 N 249.799 1.42003 -0.683588 0
M  V30 2604 C 251.046 2.01413 -0.209514 0
M  V30 2605 C 251.374 1.54088 1.1869 0
M  V30 2606 O 250.629 0.737591 1.81268 0
M  V30 2607 C 250.928 3.56827 -0.202357 0
M  V30 2608 C 250.594 4.23617 -1.54464 0
M  V30 2609 C 249.256 4.41577 -1.91215 0
M  V30 2610 C 251.608 4.61178 -2.42826 0
M  V30 2611 C 248.936 4.9437 -3.15935 0
M  V30 2612 C 251.288 5.15355 -3.66867 0
M  V30 2613 C 249.952 5.31528 -4.03776 0
M  V30 2614 H 249.222 0.737023 -0.0766668 0
M  V30 2615 H 251.869 1.70067 -0.880312 0
M  V30 2616 H 250.174 3.87892 0.551969 0
M  V30 2617 H 251.871 4.00588 0.181793 0
M  V30 2618 H 248.461 4.10004 -1.24877 0
M  V30 2619 H 252.645 4.46968 -2.15717 0
M  V30 2620 H 247.901 5.05076 -3.44541 0
M  V30 2621 H 252.075 5.43402 -4.35531 0
M  V30 2622 H 249.702 5.72199 -5.00492 0
M  V30 2623 N 251.277 0.427512 1.51691 0
M  V30 2624 C 252.523 -0.134744 2.02953 0
M  V30 2625 C 252.878 -1.41235 1.30654 0
M  V30 2626 O 252.171 -1.87168 0.409713 0
M  V30 2627 C 252.365 -0.418249 3.54944 0
M  V30 2628 C 252.194 0.830327 4.41968 0
M  V30 2629 C 250.964 1.36097 4.86627 0
M  V30 2630 C 253.162 1.7137 4.84909 0
M  V30 2631 N 251.144 2.56311 5.57833 0
M  V30 2632 C 252.515 2.76195 5.55082 0
M  V30 2633 C 254.57 1.72928 4.66905 0
M  V30 2634 C 253.273 3.82512 6.09161 0
M  V30 2635 C 255.299 2.78175 5.21894 0
M  V30 2636 C 254.661 3.8172 5.92004 0
M  V30 2637 H 250.76 -0.0103958 0.781931 0
M  V30 2638 H 253.344 0.585981 1.85673 0
M  V30 2639 H 251.515 -1.10801 3.7226 0
M  V30 2640 H 253.247 -0.970999 3.92879 0
M  V30 2641 H 250.002 0.916311 4.64651 0
M  V30 2642 H 250.426 3.17242 5.98069 0
M  V30 2643 H 255.068 0.942081 4.12171 0
M  V30 2644 H 252.786 4.62077 6.62956 0
M  V30 2645 H 256.372 2.8031 5.09821 0
M  V30 2646 H 255.252 4.61821 6.33791 0
M  V30 2647 N 252.755 -1.56801 0.158532 0
M  V30 2648 C 253.665 -2.20916 -0.789518 0
M  V30 2649 C 254.681 -1.1969 -1.26294 0
M  V30 2650 O 255.857 -1.52308 -1.31773 0
M  V30 2651 C 252.922 -2.82727 -2.00665 0
M  V30 2652 C 251.983 -3.99114 -1.58134 0
M  V30 2653 C 251.216 -4.57968 -2.74045 0
M  V30 2654 O 251.439 -4.15704 -3.90572 0
M  V30 2655 O 250.373 -5.48047 -2.48855 0
M  V30 2656 H 254.199 -3.02464 -0.273681 0
M  V30 2657 H 251.784 -1.4924 -0.0690548 0
M  V30 2658 H 253.666 -3.21968 -2.71872 0
M  V30 2659 H 252.341 -2.04184 -2.51179 0
M  V30 2660 H 251.248 -3.64567 -0.839155 0
M  V30 2661 H 252.581 -4.79212 -1.12325 0
M  V30 2662 N 254.233 0.115231 -1.57178 0
M  V30 2663 C 255.644 0.67197 -1.74188 0
M  V30 2664 C 255.995 1.80125 -0.777777 0
M  V30 2665 O 255.12 2.16346 0.0484376 0
M  V30 2666 C 255.715 1.22573 -3.1585 0
M  V30 2667 C 254.274 1.72872 -3.34353 0
M  V30 2668 C 253.421 0.629972 -2.70049 0
M  V30 2669 H 256.372 -0.110712 -1.58313 0
M  V30 2670 H 256.393 2.09535 -3.17609 0
M  V30 2671 H 255.905 0.403598 -3.85996 0
M  V30 2672 H 254.006 2.5755 -2.69256 0
M  V30 2673 H 254.119 1.83557 -4.42542 0
M  V30 2674 H 252.483 1.0645 -2.31388 0
M  V30 2675 H 253.266 -0.181241 -3.42821 0
M  V30 2676 N 255.711 1.52812 0.385517 0
M  V30 2677 C 256.644 1.72592 1.49289 0
M  V30 2678 C 257.622 0.573819 1.52138 0
M  V30 2679 O 258.806 0.80404 1.70492 0
M  V30 2680 C 255.933 1.78669 2.87741 0
M  V30 2681 C 254.979 3.00455 3.02703 0
M  V30 2682 S 255.812 4.60366 2.73538 0
M  V30 2683 C 256.968 4.69263 4.14177 0
M  V30 2684 H 257.201 2.66248 1.32285 0
M  V30 2685 H 254.734 1.43148 0.578611 0
M  V30 2686 H 256.692 1.82855 3.67524 0
M  V30 2687 H 255.353 0.861 3.02069 0
M  V30 2688 H 254.546 3.01258 4.04054 0
M  V30 2689 H 254.148 2.94278 2.30817 0
M  V30 2690 H 256.44 4.48092 5.08153 0
M  V30 2691 H 257.383 5.71276 4.18388 0
M  V30 2692 H 257.791 3.98072 4.00249 0
M  V30 2693 N 257.189 -0.644168 1.43834 0
M  V30 2694 C 258.136 -1.75671 1.49694 0
M  V30 2695 C 259.106 -1.6246 0.345809 0
M  V30 2696 O 260.291 -1.82573 0.554234 0
M  V30 2697 C 257.431 -3.13867 1.43463 0
M  V30 2698 C 256.544 -3.38147 2.6885 0
M  V30 2699 C 255.679 -4.66241 2.54544 0
M  V30 2700 C 254.718 -4.83657 3.75157 0
M  V30 2701 N 253.855 -6.03016 3.59605 0
M  V30 2702 H 258.695 -1.69998 2.44754 0
M  V30 2703 H 256.232 -0.829458 1.21484 0
M  V30 2704 H 258.19 -3.9377 1.37843 0
M  V30 2705 H 256.82 -3.18588 0.519783 0
M  V30 2706 H 255.872 -2.52276 2.84712 0
M  V30 2707 H 257.184 -3.46899 3.58417 0
M  V30 2708 H 256.338 -5.54285 2.46683 0
M  V30 2709 H 255.077 -4.59826 1.62516 0
M  V30 2710 H 254.082 -3.94046 3.83416 0
M  V30 2711 H 255.307 -4.91896 4.68204 0
M  V30 2712 H 253.253 -5.97715 2.7032 0
M  V30 2713 H 253.17 -6.12766 4.42779 0
M  V30 2714 H 254.438 -6.93657 3.55613 0
M  V30 2715 N 258.668 -1.30515 -0.883378 0
M  V30 2716 C 259.914 -1.19607 -1.63774 0
M  V30 2717 C 260.247 0.248314 -1.92606 0
M  V30 2718 O 259.522 1.17742 -1.54813 0
M  V30 2719 C 259.805 -2.02669 -2.97653 0
M  V30 2720 C 259.658 -3.55335 -2.75784 0
M  V30 2721 C 260.977 -1.86573 -3.98596 0
M  V30 2722 H 258.096 -0.435856 -0.594305 0
M  V30 2723 H 260.738 -1.60165 -1.02212 0
M  V30 2724 H 258.888 -1.68208 -3.50197 0
M  V30 2725 H 260.56 -3.99863 -2.30016 0
M  V30 2726 H 258.803 -3.79438 -2.1026 0
M  V30 2727 H 259.474 -4.08745 -3.70988 0
M  V30 2728 H 261.95 -2.16703 -3.55217 0
M  V30 2729 H 260.826 -2.47014 -4.90179 0
M  V30 2730 H 261.087 -0.825321 -4.34328 0
M  V30 2731 N 260.146 1.09593 -1.13257 0
M  V30 2732 C 261.096 2.14345 -0.777179 0
M  V30 2733 C 262.08 1.59277 0.227966 0
M  V30 2734 O 263.272 1.76971 0.0321413 0
M  V30 2735 C 260.401 3.42439 -0.242991 0
M  V30 2736 C 259.487 4.04419 -1.27694 0
M  V30 2737 N 259.878 4.40979 -2.47732 0
M  V30 2738 C 258.176 4.31596 -1.12432 0
M  V30 2739 C 258.877 4.89784 -3.13826 0
M  V30 2740 N 257.853 4.87133 -2.41252 0
M  V30 2741 H 261.655 2.40415 -1.69049 0
M  V30 2742 H 259.169 1.26803 -1.01463 0
M  V30 2743 H 261.166 4.16889 0.0298496 0
M  V30 2744 H 259.826 3.17824 0.66467 0
M  V30 2745 H 260.837 4.32396 -2.85051 0
M  V30 2746 H 257.514 4.16595 -0.274684 0
M  V30 2747 H 258.904 5.2755 -4.16102 0
M  V30 2748 N 261.624 0.925811 1.2754 0
M  V30 2749 C 262.901 0.483726 1.89524 0
M  V30 2750 C 263.281 -1.03809 1.83812 0
M  V30 2751 O 262.629 -1.89143 1.28207 0
M  V30 2752 C 262.839 1.02769 3.33526 0
M  V30 2753 C 264.187 1.08703 4.10449 0
M  V30 2754 O 265.211 0.977175 3.42534 0
M  V30 2755 O 264.07 1.25599 5.31871 0
M  V30 2756 H 261.164 0.15529 0.812289 0
M  V30 2757 H 263.71 1.01738 1.35822 0
M  V30 2758 H 262.482 2.07155 3.31967 0
M  V30 2759 H 262.105 0.475567 3.94746 0
M  V30 2760 N 263.102 -1.41638 0.69111 0
M  V30 2761 C 264.351 -2.00526 0.217318 0
M  V30 2762 C 264.664 -1.55353 -1.18848 0
M  V30 2763 O 265.87 -2.06769 -1.75951 0
M  V30 2764 C 264.326 -3.58313 0.337639 0
M  V30 2765 C 263.934 -4.12469 1.74852 0
M  V30 2766 C 265.678 -4.24431 -0.0766066 0
M  V30 2767 C 263.585 -5.62675 1.82074 0
M  V30 2768 H 262.515 -0.750008 0.0774893 0
M  V30 2769 H 265.166 -1.6217 0.858661 0
M  V30 2770 H 263.548 -3.9425 -0.371879 0
M  V30 2771 H 264.722 -3.8796 2.48644 0
M  V30 2772 H 263.037 -3.58861 2.11205 0
M  V30 2773 H 265.634 -5.34683 -0.0430284 0
M  V30 2774 H 265.977 -4.01101 -1.1146 0
M  V30 2775 H 266.51 -3.93512 0.582476 0
M  V30 2776 H 263.249 -5.90826 2.83911 0
M  V30 2777 H 262.769 -5.89124 1.12661 0
M  V30 2778 H 264.448 -6.27371 1.58159 0
M  V30 2779 N 264.58 -0.43555 -1.51462 0
M  V30 2780 C 265.996 -0.0877501 -1.59359 0
M  V30 2781 C 266.196 1.4027 -1.4466 0
M  V30 2782 O 265.252 2.17243 -1.28693 0
M  V30 2783 C 266.565 -0.606264 -2.94525 0
M  V30 2784 C 268.113 -0.566548 -3.0783 0
M  V30 2785 C 268.588 -1.06201 -4.45517 0
M  V30 2786 N 270.079 -1.01992 -4.51832 0
M  V30 2787 C 270.814 -1.37417 -5.5669 0
M  V30 2788 N 270.31 -1.80119 -6.68976 0
M  V30 2789 N 272.103 -1.29245 -5.47039 0
M  V30 2790 H 264.254 -1.40533 -1.59261 0
M  V30 2791 H 266.517 -0.578992 -0.750648 0
M  V30 2792 H 266.223 -1.64901 -3.10645 0
M  V30 2793 H 266.097 -0.0302097 -3.77188 0
M  V30 2794 H 268.484 0.467208 -2.91378 0
M  V30 2795 H 268.565 -1.17898 -2.2701 0
M  V30 2796 H 268.209 -2.09422 -4.62715 0
M  V30 2797 H 268.139 -0.426127 -5.24873 0
M  V30 2798 H 270.63 -0.706308 -3.71241 0
M  V30 2799 H 270.943 -2.05392 -7.45006 0
M  V30 2800 H 269.288 -1.84044 -6.70189 0
M  V30 2801 H 272.479 -0.957522 -4.58202 0
M  V30 2802 H 272.652 -1.57182 -6.28648 0
M  V30 2803 N 266.058 1.56714 -0.166846 0
M  V30 2804 C 267.304 1.97813 0.473473 0
M  V30 2805 C 267.659 1.05095 1.61161 0
M  V30 2806 O 266.952 0.0897541 1.9139 0
M  V30 2807 C 267.146 3.42889 1.00806 0
M  V30 2808 C 266.975 4.49635 -0.0767392 0
M  V30 2809 C 265.745 5.02566 -0.524894 0
M  V30 2810 C 267.943 5.06793 -0.875504 0
M  V30 2811 N 265.925 5.9294 -1.59047 0
M  V30 2812 C 267.296 5.93565 -1.79111 0
M  V30 2813 C 269.351 4.89306 -0.921083 0
M  V30 2814 C 268.054 6.64721 -2.74843 0
M  V30 2815 C 270.08 5.61179 -1.86633 0
M  V30 2816 C 269.442 6.47675 -2.76942 0
M  V30 2817 H 265.541 0.769093 0.141489 0
M  V30 2818 H 268.125 1.92874 -0.266031 0
M  V30 2819 H 266.296 3.48382 1.7171 0
M  V30 2820 H 268.028 3.71008 1.61664 0
M  V30 2821 H 264.783 4.73439 -0.123432 0
M  V30 2822 H 265.207 6.42831 -2.12361 0
M  V30 2823 H 269.849 4.22136 -0.23692 0
M  V30 2824 H 267.567 7.31107 -3.44249 0
M  V30 2825 H 271.153 5.49636 -1.90764 0
M  V30 2826 H 270.033 7.02313 -3.48893 0
M  V30 2827 N 267.536 -0.106894 1.57237 0
M  V30 2828 C 268.484 -1.14944 2.02215 0
M  V30 2829 C 269.478 -1.42167 0.92114 0
M  V30 2830 O 270.684 -1.41987 1.10634 0
M  V30 2831 H 267.059 -0.387841 0.64427 0
M  V30 2832 H 269.03 -0.743683 2.88984 0
M  V30 2833 C 267.779 -2.4647 2.4525 0
M  V30 2834 H 267.102 -2.26363 3.29545 0
M  V30 2835 H 268.542 -3.17948 2.80508 0
M  V30 2836 C 267.001 -3.09921 1.321 0
M  V30 2837 O 267.531 -3.9651 0.643622 0
M  V30 2838 N 265.737 -2.69986 1.07497 0
M  V30 2839 H 265.284 -1.99667 1.62761 0
M  V30 2840 H 265.242 -3.12769 0.319876 0
M  V30 2841 N 269.014 -1.53014 -0.377408 0
M  V30 2842 C 270.261 -1.68623 -1.12128 0
M  V30 2843 C 270.589 -0.431997 -1.89642 0
M  V30 2844 O 269.844 0.585855 -1.86725 0
M  V30 2845 C 270.143 -2.87982 -2.11663 0
M  V30 2846 C 269.809 -4.24964 -1.50719 0
M  V30 2847 C 268.471 -4.62217 -1.33825 0
M  V30 2848 C 270.823 -5.10199 -1.06519 0
M  V30 2849 C 268.151 -5.82352 -0.712963 0
M  V30 2850 C 270.503 -6.30969 -0.453955 0
M  V30 2851 C 269.167 -6.66944 -0.272411 0
M  V30 2852 H 268.437 -0.617034 -0.410305 0
M  V30 2853 H 271.084 -1.8718 -0.404484 0
M  V30 2854 H 269.389 -2.63889 -2.89603 0
M  V30 2855 H 271.086 -2.97253 -2.6915 0
M  V30 2856 H 267.676 -3.95626 -1.64858 0
M  V30 2857 H 271.86 -4.81978 -1.18368 0
M  V30 2858 H 267.116 -6.08824 -0.560611 0
M  V30 2859 H 271.29 -6.96324 -0.103217 0
M  V30 2860 H 268.917 -7.59898 0.214181 0
M  V30 2861 N 270.492 0.636531 -1.44174 0
M  V30 2862 C 271.402 1.77754 -1.53103 0
M  V30 2863 C 272.418 1.68928 -0.417034 0
M  V30 2864 O 273.594 1.89801 -0.6736 0
M  V30 2865 C 270.659 3.14115 -1.46741 0
M  V30 2866 C 269.72 3.34612 -2.68948 0
M  V30 2867 C 268.953 4.64467 -2.6288 0
M  V30 2868 O 269.176 5.44919 -1.68581 0
M  V30 2869 O 268.11 4.87049 -3.53648 0
M  V30 2870 H 271.936 1.73174 -2.49489 0
M  V30 2871 H 269.521 0.79709 -1.2636 0
M  V30 2872 H 271.403 3.95412 -1.45696 0
M  V30 2873 H 270.078 3.19249 -0.534975 0
M  V30 2874 H 268.985 2.53014 -2.75562 0
M  V30 2875 H 270.318 3.34336 -3.61221 0
M  V30 2876 N 271.97 1.30982 0.876444 0
M  V30 2877 C 272.917 1.18085 1.98304 0
M  V30 2878 C 273.887 0.0682263 1.6596 0
M  V30 2879 O 275.072 0.239937 1.89285 0
M  V30 2880 C 272.212 0.887475 3.33493 0
M  V30 2881 C 271.325 2.08281 3.78475 0
M  V30 2882 C 270.46 1.72678 5.0235 0
M  V30 2883 C 269.499 2.88657 5.39762 0
M  V30 2884 N 268.636 2.53292 6.54819 0
M  V30 2885 H 273.476 2.1275 2.08666 0
M  V30 2886 H 271.013 1.05839 1.02159 0
M  V30 2887 H 272.971 0.697961 4.1132 0
M  V30 2888 H 271.601 -0.022315 3.22792 0
M  V30 2889 H 270.653 2.3833 2.96484 0
M  V30 2890 H 271.965 2.95108 4.02135 0
M  V30 2891 H 271.119 1.50151 5.87826 0
M  V30 2892 H 269.858 0.830327 4.8058 0
M  V30 2893 H 268.863 3.1184 4.52809 0
M  V30 2894 H 270.088 3.79002 5.63502 0
M  V30 2895 H 268.034 1.66163 6.34607 0
M  V30 2896 H 267.951 3.3365 6.7839 0
M  V30 2897 H 269.219 2.34143 7.43503 0
M  V30 2898 N 273.449 -1.08991 1.13837 0
M  V30 2899 C 274.696 -1.81258 0.902882 0
M  V30 2900 C 275.024 -1.85936 -0.570803 0
M  V30 2901 O 274.279 -1.3267 -1.43865 0
M  V30 2902 C 274.578 -3.27042 1.44147 0
M  V30 2903 C 274.244 -3.4249 2.93276 0
M  V30 2904 C 272.906 -3.46414 3.33992 0
M  V30 2905 C 275.258 -3.4666 3.892 0
M  V30 2906 C 272.586 -3.52091 4.69307 0
M  V30 2907 C 274.938 -3.53872 5.24364 0
M  V30 2908 C 273.602 -3.56066 5.646 0
M  V30 2909 H 272.872 -0.663268 0.330388 0
M  V30 2910 H 275.519 -1.28368 1.42105 0
M  V30 2911 H 273.824 -3.82599 0.844097 0
M  V30 2912 H 275.521 -3.81499 1.23528 0
M  V30 2913 H 272.111 -3.40124 2.60794 0
M  V30 2914 H 276.295 -3.42865 3.58828 0
M  V30 2915 H 271.551 -3.52079 4.9985 0
M  V30 2916 H 275.725 -3.56043 5.98503 0
M  V30 2917 H 273.352 -3.60218 6.69438 0
M  V30 2918 N 274.927 -0.932562 -1.27047 0
M  V30 2919 C 275.857 -0.452902 -2.29066 0
M  V30 2920 C 276.838 0.489338 -1.62909 0
M  V30 2921 O 278.023 0.393046 -1.90181 0
M  V30 2922 C 275.153 0.290698 -3.46081 0
M  V30 2923 C 274.107 -0.564168 -4.24265 0
M  V30 2924 C 273.433 0.308886 -5.33807 0
M  V30 2925 C 274.733 -1.83112 -4.89149 0
M  V30 2926 H 276.427 -1.30552 -2.69437 0
M  V30 2927 H 273.973 -0.629201 -1.29526 0
M  V30 2928 H 275.926 0.637233 -4.16554 0
M  V30 2929 H 274.65 1.17738 -3.0464 0
M  V30 2930 H 273.309 -0.893477 -3.55545 0
M  V30 2931 H 272.957 1.19467 -4.88607 0
M  V30 2932 H 272.657 -0.259633 -5.87026 0
M  V30 2933 H 274.181 0.650884 -6.07121 0
M  V30 2934 H 275.595 -1.55236 -5.51883 0
M  V30 2935 H 273.992 -2.34353 -5.52448 0
M  V30 2936 H 275.062 -2.54772 -4.12576 0
M  V30 2937 N 276.405 1.4127 -0.698611 0
M  V30 2938 C 277.651 2.01478 -0.231207 0
M  V30 2939 C 277.984 1.55215 1.16713 0
M  V30 2940 O 277.259 0.764672 1.78838 0
M  V30 2941 C 277.542 3.58912 -0.292281 0
M  V30 2942 C 277.395 4.15293 -1.72778 0
M  V30 2943 C 278.714 4.38736 0.346194 0
M  V30 2944 H 275.833 0.732025 -0.0854878 0
M  V30 2945 H 278.475 1.67977 -0.887906 0
M  V30 2946 H 276.625 3.87582 0.26686 0
M  V30 2947 H 278.297 3.97486 -2.341 0
M  V30 2948 H 276.54 3.7022 -2.26096 0
M  V30 2949 H 277.211 5.24452 -1.72202 0
M  V30 2950 H 279.687 4.15897 -0.130035 0
M  V30 2951 H 278.563 5.48221 0.272932 0
M  V30 2952 H 278.824 4.18425 1.42734 0
M  V30 2953 N 277.883 0.443576 1.51229 0
M  V30 2954 C 279.131 -0.120557 2.0174 0
M  V30 2955 C 279.452 -1.42665 1.32935 0
M  V30 2956 O 278.722 -1.9028 0.465866 0
M  V30 2957 H 277.302 -0.0475426 0.745486 0
M  V30 2958 H 279.964 0.587711 1.85828 0
M  V30 2959 H 279.06 -0.291972 3.10731 0
M  V30 2960 N 279.361 -1.56624 0.175154 0
M  V30 2961 C 280.772 -1.83561 -0.340916 0
M  V30 2962 C 281.123 -1.09511 -1.62794 0
M  V30 2963 O 280.248 -0.349389 -2.13561 0
M  V30 2964 C 280.843 -3.32979 -0.625313 0
M  V30 2965 C 279.402 -3.60399 -1.08581 0
M  V30 2966 C 278.549 -2.77024 -0.123722 0
M  V30 2967 H 281.5 -1.53593 0.399344 0
M  V30 2968 H 281.521 -3.50666 -1.47694 0
M  V30 2969 H 281.033 -3.86847 0.311575 0
M  V30 2970 H 279.134 -3.11945 -2.03767 0
M  V30 2971 H 279.247 -4.68711 -0.992317 0
M  V30 2972 H 277.611 -2.46993 -0.621821 0
M  V30 2973 H 278.394 -3.33674 0.807256 0
M  V30 2974 N 280.839 0.0985539 -1.57292 0
M  V30 2975 C 282.116 0.834155 -1.76921 0
M  V30 2976 C 282.496 1.97101 -0.755928 0
M  V30 2977 O 281.844 2.27474 0.216245 0
M  V30 2978 C 282.054 1.33194 -3.22584 0
M  V30 2979 C 283.402 1.77611 -3.85668 0
M  V30 2980 O 284.426 1.42825 -3.26312 0
M  V30 2981 O 283.285 2.4192 -4.90038 0
M  V30 2982 H 280.379 0.397628 -0.725135 0
M  V30 2983 H 282.925 0.0807044 -1.69508 0
M  V30 2984 H 281.697 0.517248 -3.87866 0
M  V30 2985 H 281.32 2.1475 -3.34616 0
M  V30 2986 N 282.317 1.53212 0.369288 0
M  V30 2987 C 283.565 1.68881 1.11012 0
M  V30 2988 C 283.886 0.441285 1.89941 0
M  V30 2989 O 283.156 -0.544623 1.88177 0
M  V30 2990 H 281.736 0.622569 0.412816 0
M  V30 2991 H 284.398 1.90391 0.416802 0
M  V30 2992 H 283.494 2.54822 1.80201 0
M  V30 2993 N 283.795 -0.628877 1.44509 0
M  V30 2994 C 285.044 -1.38437 1.4669 0
M  V30 2995 C 285.357 -1.95322 0.104272 0
M  V30 2996 O 286.563 -2.715 0.00362163 0
M  V30 2997 C 285.019 -2.50659 2.5826 0
M  V30 2998 C 284.627 -2.00277 4.0074 0
M  V30 2999 C 286.371 -3.27844 2.69664 0
M  V30 3000 C 284.278 -3.09854 5.0373 0
M  V30 3001 H 283.208 -0.520245 0.545766 0
M  V30 3002 H 285.859 -0.676313 1.70582 0
M  V30 3003 H 284.241 -3.2405 2.27612 0
M  V30 3004 H 285.415 -1.33736 4.40966 0
M  V30 3005 H 283.73 -1.35901 3.93599 0
M  V30 3006 H 286.327 -4.09534 3.43781 0
M  V30 3007 H 286.67 -3.77471 1.75559 0
M  V30 3008 H 287.203 -2.61543 2.99733 0
M  V30 3009 H 283.942 -2.65168 5.99472 0
M  V30 3010 H 283.462 -3.7503 4.68095 0
M  V30 3011 H 285.141 -3.74592 5.27532 0
M  V30 3012 N 285.273 -1.31445 -0.869486 0
M  V30 3013 C 286.684 -1.19042 -1.43826 0
M  V30 3014 C 287.035 0.202919 -1.95148 0
M  V30 3015 O 286.16 1.10071 -1.86315 0
M  V30 3016 C 286.755 -2.15499 -2.6143 0
M  V30 3017 C 285.314 -2.07028 -3.14351 0
M  V30 3018 C 284.461 -2.04701 -1.87063 0
M  V30 3019 H 287.412 -1.43489 -0.677984 0
M  V30 3020 H 287.433 -1.74488 -3.38134 0
M  V30 3021 H 286.945 -3.16899 -2.24046 0
M  V30 3022 H 285.046 -1.08825 -3.56354 0
M  V30 3023 H 285.159 -2.96157 -3.766 0
M  V30 3024 H 283.523 -1.49724 -2.06046 0
M  V30 3025 H 284.306 -3.07857 -1.51917 0
M  V30 3026 N 286.751 1.08385 -1.14413 0
M  V30 3027 C 288 1.80153 -0.907076 0
M  V30 3028 C 288.313 1.87176 0.567851 0
M  V30 3029 O 289.519 2.55359 0.922172 0
M  V30 3030 C 287.975 3.23687 -1.57336 0
M  V30 3031 C 287.583 3.24897 -3.08457 0
M  V30 3032 C 289.327 4.00136 -1.41744 0
M  V30 3033 C 287.234 4.6302 -3.67921 0
M  V30 3034 H 286.164 0.675139 -0.335714 0
M  V30 3035 H 288.815 1.21733 -1.37307 0
M  V30 3036 H 287.197 3.82234 -1.03505 0
M  V30 3037 H 288.371 2.76055 -3.68958 0
M  V30 3038 H 286.686 2.61943 -3.2369 0
M  V30 3039 H 289.283 5.02201 -1.83572 0
M  V30 3040 H 289.626 4.14709 -0.363576 0
M  V30 3041 H 290.159 3.48058 -1.92614 0
M  V30 3042 H 286.898 4.5365 -4.73161 0
M  V30 3043 H 286.418 5.12143 -3.12201 0
M  V30 3044 H 288.097 5.31994 -3.68227 0
M  V30 3045 N 288.23 0.939286 1.26551 0
M  V30 3046 C 289.163 0.391702 2.24813 0
M  V30 3047 C 290.141 -0.518421 1.54114 0
M  V30 3048 O 291.325 -0.456299 1.82894 0
M  V30 3049 C 288.452 -0.437382 3.35864 0
M  V30 3050 C 287.498 0.410946 4.24516 0
M  V30 3051 S 288.331 1.83372 5.03125 0
M  V30 3052 C 289.487 1.01264 6.17654 0
M  V30 3053 H 289.72 1.22448 2.70913 0
M  V30 3054 H 287.253 0.742269 1.35387 0
M  V30 3055 H 289.211 -0.909837 4.0029 0
M  V30 3056 H 287.872 -1.24482 2.8838 0
M  V30 3057 H 287.065 -0.224191 5.03501 0
M  V30 3058 H 286.667 0.818014 3.64945 0
M  V30 3059 H 288.959 0.254023 6.77024 0
M  V30 3060 H 289.902 1.77589 6.85469 0
M  V30 3061 H 290.31 0.549532 5.61819 0
M  V30 3062 N 289.708 -1.40897 0.706093 0
M  V30 3063 C 291.124 -1.55042 0.37869 0
M  V30 3064 C 291.324 -1.67944 -1.11342 0
M  V30 3065 O 290.38 -1.66372 -1.89938 0
M  V30 3066 C 291.693 -2.78398 1.13643 0
M  V30 3067 C 293.241 -2.92206 1.12181 0
M  V30 3068 C 293.716 -4.18463 1.86152 0
M  V30 3069 N 295.207 -4.25443 1.83173 0
M  V30 3070 C 295.942 -5.2202 2.37239 0
M  V30 3071 N 295.438 -6.24563 2.99821 0
M  V30 3072 N 297.231 -5.14033 2.27435 0
M  V30 3073 H 289.382 -1.30769 1.67372 0
M  V30 3074 H 291.645 -0.631653 0.706907 0
M  V30 3075 H 291.351 -2.7511 2.19106 0
M  V30 3076 H 291.225 -3.70228 0.721853 0
M  V30 3077 H 293.612 -2.95004 0.0754171 0
M  V30 3078 H 293.693 -2.01521 1.57554 0
M  V30 3079 H 293.337 -4.16427 2.90776 0
M  V30 3080 H 293.267 -5.08141 1.38206 0
M  V30 3081 H 295.758 -3.51976 1.37556 0
M  V30 3082 H 296.071 -6.94665 3.38616 0
M  V30 3083 H 294.416 -6.25035 3.03902 0
M  V30 3084 H 297.607 -4.3285 1.78208 0
M  V30 3085 H 297.78 -5.89129 2.69873 0
M  V30 3086 N 291.186 -0.45159 -1.50991 0
M  V30 3087 C 292.432 0.102439 -2.03142 0
M  V30 3088 C 292.787 1.39138 -1.32884 0
M  V30 3089 O 292.08 1.86493 -0.439438 0
M  V30 3090 C 292.274 0.361728 -3.55565 0
M  V30 3091 C 292.103 -0.900535 -4.40591 0
M  V30 3092 C 290.873 -1.43821 -4.844 0
M  V30 3093 C 293.071 -1.79063 -4.82121 0
M  V30 3094 N 291.053 -2.65153 -5.53685 0
M  V30 3095 C 292.424 -2.84991 -5.50618 0
M  V30 3096 C 294.479 -1.80334 -4.64095 0
M  V30 3097 C 293.182 -3.92155 -6.02998 0
M  V30 3098 C 295.208 -2.86442 -5.17402 0
M  V30 3099 C 294.57 -3.9109 -5.85857 0
M  V30 3100 H 290.669 -0.00204537 -0.781997 0
M  V30 3101 H 293.253 -0.615446 -1.84717 0
M  V30 3102 H 291.424 1.04865 -3.73976 0
M  V30 3103 H 293.156 0.908372 -3.94374 0
M  V30 3104 H 289.911 -0.990117 -4.63135 0
M  V30 3105 H 290.335 -3.26717 -5.92946 0
M  V30 3106 H 294.977 -1.00753 -4.1062 0
M  V30 3107 H 292.695 -4.72565 -6.55521 0
M  V30 3108 H 296.281 -2.88386 -5.05297 0
M  V30 3109 H 295.161 -4.71845 -6.26364 0
M  V30 3110 N 292.664 1.56529 -0.183458 0
M  V30 3111 C 293.614 2.1515 0.754605 0
M  V30 3112 C 294.598 1.08904 1.18443 0
M  V30 3113 O 295.79 1.34997 1.14476 0
M  V30 3114 C 292.919 2.80531 1.97881 0
M  V30 3115 C 292.005 3.93952 1.57043 0
M  V30 3116 N 292.396 4.98221 0.87231 0
M  V30 3117 C 290.694 4.05338 1.86057 0
M  V30 3118 C 291.395 5.77836 0.669377 0
M  V30 3119 N 290.371 5.29858 1.21454 0
M  V30 3120 H 294.173 2.93132 0.212387 0
M  V30 3121 H 291.687 1.62391 0.0167725 0
M  V30 3122 H 293.684 3.20914 2.6612 0
M  V30 3123 H 292.344 2.04035 2.52586 0
M  V30 3124 H 293.355 5.15191 0.529033 0
M  V30 3125 H 290.032 3.39957 2.42354 0
M  V30 3126 H 291.422 6.71799 0.116422 0
M  V30 3127 N 294.142 -0.090211 1.57342 0
M  V30 3128 C 295.092 -1.11557 1.98844 0
M  V30 3129 C 296.076 -1.35503 0.867624 0
M  V30 3130 O 297.268 -1.36113 1.13148 0
M  V30 3131 C 294.397 -2.43446 2.42051 0
M  V30 3132 C 293.483 -2.22853 3.60828 0
M  V30 3133 N 293.874 -1.72141 4.75606 0
M  V30 3134 C 292.172 -2.53401 3.67021 0
M  V30 3135 C 292.873 -1.65932 5.57531 0
M  V30 3136 N 291.849 -2.11323 5.00843 0
M  V30 3137 H 295.651 -0.716499 2.85032 0
M  V30 3138 H 293.165 -0.297567 1.59651 0
M  V30 3139 H 295.162 -3.17644 2.70014 0
M  V30 3140 H 293.822 -2.84087 1.57241 0
M  V30 3141 H 294.833 -1.41268 4.98261 0
M  V30 3142 H 291.51 -2.97532 2.92884 0
M  V30 3143 H 292.9 -1.27733 6.59647 0
M  V30 3144 N 295.62 -1.53406 -0.361157 0
M  V30 3145 C 297.036 -1.43277 -0.703124 0
M  V30 3146 C 297.236 -0.575384 -1.9311 0
M  V30 3147 O 296.292 -0.0595362 -2.5243 0
M  V30 3148 C 297.605 -2.8653 -0.9122 0
M  V30 3149 C 299.153 -2.96191 -1.01193 0
M  V30 3150 C 299.628 -4.40514 -1.25345 0
M  V30 3151 N 301.119 -4.43962 -1.32105 0
M  V30 3152 C 301.854 -5.52746 -1.5251 0
M  V30 3153 N 301.35 -6.71567 -1.70203 0
M  V30 3154 N 303.143 -5.40331 -1.54916 0
M  V30 3155 H 295.294 -2.07654 0.446475 0
M  V30 3156 H 297.557 -0.937944 0.137715 0
M  V30 3157 H 297.263 -3.51605 -0.0816414 0
M  V30 3158 H 297.137 -3.30441 -1.81903 0
M  V30 3159 H 299.524 -2.31266 -1.83303 0
M  V30 3160 H 299.605 -2.55667 -0.0823929 0
M  V30 3161 H 299.249 -5.06014 -0.437346 0
M  V30 3162 H 299.179 -4.78614 -2.19627 0
M  V30 3163 H 301.67 -3.58332 -1.20028 0
M  V30 3164 H 301.983 -7.50241 -1.85359 0
M  V30 3165 H 300.328 -6.74545 -1.67373 0
M  V30 3166 H 303.519 -4.46465 -1.40663 0
M  V30 3167 H 303.692 -6.25173 -1.70477 0
M  V30 3168 N 297.098 0.621204 -1.44841 0
M  V30 3169 C 298.326 1.40752 -1.51646 0
M  V30 3170 C 298.741 1.88246 -0.144549 0
M  V30 3171 O 298.098 1.61422 0.851416 0
M  V30 3172 C 298.149 2.62119 -2.4895 0
M  V30 3173 O 297.87 2.16602 -3.80808 0
M  V30 3174 C 299.371 3.55135 -2.65319 0
M  V30 3175 H 296.591 0.431325 -0.514004 0
M  V30 3176 H 299.135 0.758835 -1.899 0
M  V30 3177 H 297.29 3.23058 -2.13805 0
M  V30 3178 H 297.704 2.95358 -4.33433 0
M  V30 3179 H 299.178 4.36874 -3.37409 0
M  V30 3180 H 299.655 4.04592 -1.70886 0
M  V30 3181 H 300.261 3.00058 -3.01405 0
M  V30 3182 N 298.576 1.31904 0.862503 0
M  V30 3183 C 299.804 1.24998 1.64873 0
M  V30 3184 C 300.219 -0.183425 1.87907 0
M  V30 3185 O 299.576 -1.11794 1.44251 0
M  V30 3186 C 299.627 1.99829 3.01248 0
M  V30 3187 O 299.348 3.37575 2.79239 0
M  V30 3188 C 300.849 1.99852 3.95694 0
M  V30 3189 H 298.069 0.431599 0.513773 0
M  V30 3190 H 300.613 1.73901 1.07604 0
M  V30 3191 H 298.768 1.54668 3.55185 0
M  V30 3192 H 299.182 3.75776 3.65914 0
M  V30 3193 H 300.656 2.56709 4.88676 0
M  V30 3194 H 301.133 0.982852 4.28062 0
M  V30 3195 H 301.739 2.44926 3.47694 0
M  V30 3196 N 300.054 -1.07777 1.14986 0
M  V30 3197 C 301.3 -1.80557 0.923422 0
M  V30 3198 C 301.633 -1.86298 -0.548337 0
M  V30 3199 O 300.908 -1.34354 -1.40639 0
M  V30 3200 C 301.191 -3.25839 1.53299 0
M  V30 3201 C 301.044 -3.28269 3.07505 0
M  V30 3202 C 302.363 -4.22991 1.21518 0
M  V30 3203 H 299.482 -0.655493 0.336894 0
M  V30 3204 H 302.124 -1.26144 1.42083 0
M  V30 3205 H 300.274 -3.72306 1.10999 0
M  V30 3206 H 301.946 -2.90079 3.58681 0
M  V30 3207 H 300.189 -2.67355 3.4162 0
M  V30 3208 H 300.86 -4.30691 3.45266 0
M  V30 3209 H 303.336 -3.84894 1.581 0
M  V30 3210 H 302.212 -5.22945 1.66793 0
M  V30 3211 H 302.473 -4.41904 0.131505 0
M  V30 3212 N 301.532 -0.945985 -1.26051 0
M  V30 3213 C 302.757 -0.612525 -1.98149 0
M  V30 3214 C 303.182 0.806623 -1.69927 0
M  V30 3215 O 302.54 1.54411 -0.950108 0
M  V30 3216 C 302.588 -0.866981 -3.50023 0
M  V30 3217 O 301.692 0.0585333 -4.12358 0
M  V30 3218 H 301.033 -0.23379 -0.621481 0
M  V30 3219 H 303.563 -1.27023 -1.60395 0
M  V30 3220 H 303.573 -0.789792 -4.00283 0
M  V30 3221 H 302.248 -1.90135 -3.69894 0
M  V30 3222 H 300.825 -0.0701241 -3.72834 0
M  V30 3223 N 303.011 1.40521 -0.713556 0
M  V30 3224 C 303.959 2.32549 -0.0485227 0
M  V30 3225 C 304.953 1.51931 0.74922 0
M  V30 3226 O 306.159 1.67745 0.652816 0
M  V30 3227 H 302.534 0.751994 0.00311138 0
M  V30 3228 H 304.505 2.86291 -0.841443 0
M  V30 3229 C 303.254 3.36879 0.860687 0
M  V30 3230 H 302.577 3.98978 0.256246 0
M  V30 3231 H 304.017 4.03772 1.294 0
M  V30 3232 C 302.476 2.72197 1.9852 0
M  V30 3233 O 303.006 2.5837 3.07584 0
M  V30 3234 N 301.212 2.30612 1.76823 0
M  V30 3235 H 300.759 2.42059 0.881217 0
M  V30 3236 H 300.717 1.87672 2.52243 0
M  V30 3237 N 304.489 0.459591 1.5075 0
M  V30 3238 C 305.735 -0.0994966 2.02556 0
M  V30 3239 C 306.068 -1.40399 1.3417 0
M  V30 3240 O 305.343 -1.88892 0.463683 0
M  V30 3241 C 305.626 -0.295242 3.58888 0
M  V30 3242 C 305.479 1.02947 4.37861 0
M  V30 3243 C 306.798 -1.05502 4.27267 0
M  V30 3244 H 303.917 -0.034686 0.736183 0
M  V30 3245 H 306.559 0.602938 1.8018 0
M  V30 3246 H 304.709 -0.893563 3.78084 0
M  V30 3247 H 306.381 1.66348 4.30263 0
M  V30 3248 H 304.624 1.62885 4.02058 0
M  V30 3249 H 305.295 0.846281 5.45474 0
M  V30 3250 H 307.771 -0.547993 4.12476 0
M  V30 3251 H 306.647 -1.16077 5.36486 0
M  V30 3252 H 306.908 -2.08875 3.89645 0
M  V30 3253 N 305.967 -1.56429 0.191757 0
M  V30 3254 C 306.914 -2.18936 -0.730454 0
M  V30 3255 C 307.884 -1.13557 -1.21219 0
M  V30 3256 O 309.069 -1.41794 -1.27668 0
M  V30 3257 C 306.209 -2.85013 -1.9458 0
M  V30 3258 C 305.322 -4.04909 -1.50574 0
M  V30 3259 C 304.457 -4.58853 -2.67634 0
M  V30 3260 C 303.496 -5.71114 -2.20217 0
M  V30 3261 N 302.633 -6.19478 -3.30442 0
M  V30 3262 H 307.473 -2.97389 -0.190664 0
M  V30 3263 H 305.01 -1.46869 -0.0823694 0
M  V30 3264 H 306.968 -3.21492 -2.65893 0
M  V30 3265 H 305.598 -2.09129 -2.45896 0
M  V30 3266 H 304.65 -3.74115 -0.688605 0
M  V30 3267 H 305.962 -4.86113 -1.11784 0
M  V30 3268 H 305.116 -4.97619 -3.47074 0
M  V30 3269 H 303.855 -3.76749 -3.09696 0
M  V30 3270 H 302.86 -5.31879 -1.3923 0
M  V30 3271 H 304.085 -6.55033 -1.79189 0
M  V30 3272 H 302.031 -5.40297 -3.72041 0
M  V30 3273 H 301.948 -6.95725 -2.9581 0
M  V30 3274 H 303.216 -6.62898 -4.10106 0
M  V30 3275 N 307.445 0.0818655 -1.57387 0
M  V30 3276 C 308.378 1.12986 -1.98266 0
M  V30 3277 C 309.356 1.38123 -0.857954 0
M  V30 3278 O 310.54 1.51663 -1.1194 0
M  V30 3279 C 307.667 2.47632 -2.31076 0
M  V30 3280 C 306.713 2.38693 -3.53452 0
M  V30 3281 S 307.546 1.79071 -5.04672 0
M  V30 3282 C 308.702 3.15316 -5.40673 0
M  V30 3283 H 308.935 0.781435 -2.86846 0
M  V30 3284 H 306.468 0.290034 -1.51651 0
M  V30 3285 H 308.426 3.25089 -2.50654 0
M  V30 3286 H 307.087 2.79638 -1.43043 0
M  V30 3287 H 306.28 3.37964 -3.73893 0
M  V30 3288 H 305.882 1.69369 -3.33452 0
M  V30 3289 H 308.174 4.11613 -5.38127 0
M  V30 3290 H 309.117 2.99664 -6.41566 0
M  V30 3291 H 309.525 3.15457 -4.68132 0
M  V30 3292 N 308.923 1.53595 0.353017 0
M  V30 3293 C 310.2 1.61002 1.11075 0
M  V30 3294 C 310.58 0.425356 2.0677 0
M  V30 3295 O 309.928 -0.583267 2.2093 0
M  V30 3296 C 310.138 2.96631 1.83877 0
M  V30 3297 C 311.486 3.51653 2.37961 0
M  V30 3298 O 312.51 2.98743 1.93987 0
M  V30 3299 O 311.369 4.44177 3.18386 0
M  V30 3300 H 308.463 0.650825 0.510251 0
M  V30 3301 H 311.009 1.6594 0.35527 0
M  V30 3302 H 309.781 3.74293 1.14108 0
M  V30 3303 H 309.404 2.95242 2.66304 0
M  V30 3304 N 310.401 -0.613514 1.45168 0
M  V30 3305 C 311.65 -1.36874 1.4815 0
M  V30 3306 C 311.963 -1.952 0.124982 0
M  V30 3307 O 313.169 -2.71481 0.0324176 0
M  V30 3308 C 311.625 -2.47905 2.60904 0
M  V30 3309 C 311.233 -1.96016 4.02842 0
M  V30 3310 C 312.977 -3.24965 2.73126 0
M  V30 3311 C 310.884 -3.04494 5.06988 0
M  V30 3312 H 309.814 -0.514428 0.551253 0
M  V30 3313 H 312.465 -0.658182 1.7129 0
M  V30 3314 H 310.847 -3.21618 2.31037 0
M  V30 3315 H 312.021 -1.29051 4.4236 0
M  V30 3316 H 310.336 -1.31719 3.95018 0
M  V30 3317 H 312.933 -4.05865 3.48106 0
M  V30 3318 H 313.276 -3.75588 1.79553 0
M  V30 3319 H 313.809 -2.5835 3.0249 0
M  V30 3320 H 310.548 -2.58795 6.0225 0
M  V30 3321 H 310.068 -3.70044 4.72046 0
M  V30 3322 H 311.747 -3.68976 5.31475 0
M  V30 3323 N 311.879 -1.3236 -0.855495 0
M  V30 3324 C 312.809 -1.23833 -1.97958 0
M  V30 3325 C 313.79 -0.122361 -1.69659 0
M  V30 3326 O 314.975 -0.30939 -1.9172 0
M  V30 3327 C 312.105 -0.959772 -3.33775 0
M  V30 3328 C 311.059 -2.03689 -3.76424 0
M  V30 3329 C 310.385 -1.61075 -5.09862 0
M  V30 3330 C 311.685 -3.4518 -3.9198 0
M  V30 3331 H 313.379 -2.1788 -2.0535 0
M  V30 3332 H 310.925 -1.04891 -0.986605 0
M  V30 3333 H 312.878 -0.886678 -4.11966 0
M  V30 3334 H 311.602 0.0163404 -3.26596 0
M  V30 3335 H 310.261 -2.10012 -3.00484 0
M  V30 3336 H 309.909 -0.622107 -4.99138 0
M  V30 3337 H 309.609 -2.33143 -5.39368 0
M  V30 3338 H 311.133 -1.55201 -5.90546 0
M  V30 3339 H 312.547 -3.4145 -4.60526 0
M  V30 3340 H 310.944 -4.1559 -4.32903 0
M  V30 3341 H 312.014 -3.84903 -2.94919 0
M  V30 3342 N 313.357 1.07166 -1.15556 0
M  V30 3343 C 314.582 1.84053 -0.955988 0
M  V30 3344 C 315.007 1.81586 0.490739 0
M  V30 3345 O 314.365 1.21018 1.34997 0
M  V30 3346 C 314.413 3.28957 -1.47714 0
M  V30 3347 O 313.517 4.06795 -0.677593 0
M  V30 3348 H 312.858 0.569842 -0.340847 0
M  V30 3349 H 315.388 1.35178 -1.53584 0
M  V30 3350 H 315.398 3.79788 -1.4908 0
M  V30 3351 H 314.073 3.30068 -2.53037 0
M  V30 3352 H 312.65 3.6561 -0.733721 0
M  V30 3353 N 314.835 0.952656 1.25548 0
M  V30 3354 C 316.065 0.622592 1.96996 0
M  V30 3355 C 316.473 -0.809112 1.71026 0
M  V30 3356 O 315.816 -1.55258 0.981861 0
M  V30 3357 C 315.878 0.798946 3.5051 0
M  V30 3358 C 315.542 2.20744 4.00151 0
M  V30 3359 C 316.539 3.18394 4.11001 0
M  V30 3360 C 314.224 2.5311 4.33867 0
M  V30 3361 C 316.218 4.46504 4.54877 0
M  V30 3362 C 313.905 3.8145 4.7743 0
M  V30 3363 C 314.903 4.77959 4.87897 0
M  V30 3364 O 314.591 6.04012 5.30494 0
M  V30 3365 H 314.323 0.232503 0.634758 0
M  V30 3366 H 316.877 1.2789 1.60728 0
M  V30 3367 H 315.107 0.0854903 3.86605 0
M  V30 3368 H 316.796 0.47023 4.03167 0
M  V30 3369 H 317.562 2.94715 3.85186 0
M  V30 3370 H 313.441 1.78719 4.24948 0
M  V30 3371 H 316.985 5.21835 4.62962 0
M  V30 3372 H 312.882 4.04936 5.0269 0
M  V30 3373 H 313.65 6.0736 5.48685 0
M  V30 3374 N 316.313 -1.40141 0.720998 0
M  V30 3375 C 317.246 -2.2819 0.020916 0
M  V30 3376 C 318.224 -1.43633 -0.762129 0
M  V30 3377 O 319.408 -1.7304 -0.747633 0
M  V30 3378 C 316.535 -3.24281 -0.977715 0
M  V30 3379 C 315.581 -4.25548 -0.284836 0
M  V30 3380 S 316.414 -5.26247 0.991169 0
M  V30 3381 C 317.57 -6.259 -0.0052214 0
M  V30 3382 H 317.803 -2.87218 0.767649 0
M  V30 3383 H 315.336 -1.45656 0.512233 0
M  V30 3384 H 317.294 -3.80167 -1.54865 0
M  V30 3385 H 315.955 -2.643 -1.69719 0
M  V30 3386 H 315.148 -4.93154 -1.03996 0
M  V30 3387 H 314.75 -3.73389 0.213684 0
M  V30 3388 H 317.042 -6.72143 -0.850279 0
M  V30 3389 H 317.985 -7.05224 0.637599 0
M  V30 3390 H 318.393 -5.63277 -0.371366 0
M  V30 3391 N 317.792 -0.46758 -1.50504 0
M  V30 3392 C 319.208 -0.121533 -1.59137 0
M  V30 3393 C 319.408 1.3717 -1.47603 0
M  V30 3394 O 318.464 2.14464 -1.33272 0
M  V30 3395 C 319.777 -0.6686 -2.93173 0
M  V30 3396 C 321.325 -0.631716 -3.06559 0
M  V30 3397 C 321.8 -1.15627 -4.43164 0
M  V30 3398 N 323.291 -1.11553 -4.49567 0
M  V30 3399 C 324.026 -1.49195 -5.5365 0
M  V30 3400 N 323.522 -1.94269 -6.65005 0
M  V30 3401 N 325.315 -1.4082 -5.44175 0
M  V30 3402 H 317.466 -1.4388 -1.56245 0
M  V30 3403 H 319.729 -0.594784 -0.738198 0
M  V30 3404 H 319.435 -1.71453 -3.07078 0
M  V30 3405 H 319.309 -0.11021 -3.77039 0
M  V30 3406 H 321.696 0.405297 -2.92304 0
M  V30 3407 H 321.777 -1.22687 -2.24458 0
M  V30 3408 H 321.421 -2.1919 -4.58168 0
M  V30 3409 H 321.351 -0.537365 -5.23851 0
M  V30 3410 H 323.842 -0.784895 -3.69659 0
M  V30 3411 H 324.155 -2.21148 -7.40482 0
M  V30 3412 H 322.5 -1.98219 -6.66134 0
M  V30 3413 H 325.691 -1.0545 -4.56068 0
M  V30 3414 H 325.864 -1.70481 -6.25172 0
M  V30 3415 N 319.27 1.56325 -0.20005 0
M  V30 3416 C 320.686 1.58839 0.155716 0
M  V30 3417 C 320.886 1.21636 1.60645 0
M  V30 3418 O 319.942 0.941437 2.34293 0
M  V30 3419 C 321.255 3.0032 -0.151124 0
M  V30 3420 C 322.803 3.12866 -0.0916284 0
M  V30 3421 C 323.278 4.56488 -0.371845 0
M  V30 3422 N 324.769 4.62089 -0.320641 0
M  V30 3423 C 325.504 5.71116 -0.511243 0
M  V30 3424 N 325 6.88592 -0.762461 0
M  V30 3425 N 326.793 5.60335 -0.445157 0
M  V30 3426 H 318.944 1.78788 -1.14668 0
M  V30 3427 H 321.207 0.829996 -0.458051 0
M  V30 3428 H 320.913 3.32117 -1.15721 0
M  V30 3429 H 320.787 3.73257 0.543986 0
M  V30 3430 H 323.174 2.80878 0.905065 0
M  V30 3431 H 323.255 2.42304 -0.81989 0
M  V30 3432 H 322.899 4.89189 -1.36588 0
M  V30 3433 H 322.829 5.25246 0.377362 0
M  V30 3434 H 325.32 3.77665 -0.13329 0
M  V30 3435 H 325.633 7.67581 -0.896576 0
M  V30 3436 H 323.978 6.90387 -0.799412 0
M  V30 3437 H 327.169 4.67436 -0.249278 0
M  V30 3438 H 327.342 6.45243 -0.597116 0
M  V30 3439 N 320.748 -0.0735177 1.57428 0
M  V30 3440 C 321.68 -1.11423 2.00294 0
M  V30 3441 C 322.693 -1.35084 0.908637 0
M  V30 3442 O 323.882 -1.33355 1.18654 0
M  V30 3443 C 320.982 -2.46548 2.32523 0
M  V30 3444 C 320.155 -2.42867 3.63778 0
M  V30 3445 C 319.214 -3.60087 3.83697 0
M  V30 3446 O 318.24 -3.41595 4.55304 0
M  V30 3447 N 319.442 -4.80372 3.25919 0
M  V30 3448 H 322.207 -0.749206 2.90184 0
M  V30 3449 H 319.768 -0.262195 1.59763 0
M  V30 3450 H 321.76 -3.23607 2.43024 0
M  V30 3451 H 320.33 -2.75059 1.48531 0
M  V30 3452 H 319.55 -1.51206 3.64047 0
M  V30 3453 H 320.838 -2.37506 4.49965 0
M  V30 3454 H 320.236 -4.983 2.67795 0
M  V30 3455 H 318.793 -5.54948 3.41871 0
M  V30 3456 N 322.226 -1.5378 -0.344866 0
M  V30 3457 C 323.189 -1.80981 -1.40637 0
M  V30 3458 C 324.189 -0.680816 -1.45676 0
M  V30 3459 O 325.379 -0.949095 -1.46075 0
M  V30 3460 C 322.511 -1.95063 -2.79577 0
M  V30 3461 H 323.704 -2.75803 -1.17783 0
M  V30 3462 H 321.257 -1.45173 -0.579181 0
M  V30 3463 H 321.992 -1.02379 -3.07716 0
M  V30 3464 H 321.777 -2.77198 -2.77315 0
M  V30 3465 H 323.267 -2.17629 -3.56409 0
M  V30 3466 N 323.704 0.605807 -1.45491 0
M  V30 3467 C 324.667 1.69836 -1.5391 0
M  V30 3468 C 325.667 1.55261 -0.418424 0
M  V30 3469 O 326.857 1.60296 -0.681965 0
M  V30 3470 C 323.989 3.09117 -1.43734 0
M  V30 3471 H 325.182 1.63738 -2.51257 0
M  V30 3472 H 322.735 0.821689 -1.32959 0
M  V30 3473 H 323.47 3.20791 -0.475788 0
M  V30 3474 H 323.255 3.21104 -2.25021 0
M  V30 3475 H 324.745 3.88696 -1.52661 0
M  V30 3476 N 325.182 1.32811 0.848464 0
M  V30 3477 C 326.112 1.24882 1.97299 0
M  V30 3478 C 327.093 0.131357 1.69592 0
M  V30 3479 O 328.278 0.319553 1.91553 0
M  V30 3480 C 325.408 0.97746 3.33261 0
M  V30 3481 C 324.362 2.05682 3.75338 0
M  V30 3482 C 323.688 1.63777 5.09 0
M  V30 3483 C 324.988 3.47254 3.90144 0
M  V30 3484 H 326.682 2.18966 2.04191 0
M  V30 3485 H 324.228 1.05413 0.981029 0
M  V30 3486 H 326.181 0.908513 4.1149 0
M  V30 3487 H 324.905 0.000980011 3.266 0
M  V30 3488 H 323.564 2.11603 2.99366 0
M  V30 3489 H 323.212 0.648569 4.98801 0
M  V30 3490 H 322.912 2.36 5.38124 0
M  V30 3491 H 324.436 1.5833 5.89715 0
M  V30 3492 H 325.85 3.43888 4.58709 0
M  V30 3493 H 324.247 4.1788 4.30693 0
M  V30 3494 H 325.317 3.86462 2.92874 0
M  V30 3495 N 326.66 -1.06551 1.16123 0
M  V30 3496 C 327.908 -1.78947 0.939267 0
M  V30 3497 C 328.229 -1.87532 -0.534476 0
M  V30 3498 O 327.499 -1.38211 -1.38833 0
M  V30 3499 H 326.079 -0.662807 0.344523 0
M  V30 3500 H 328.741 -1.28725 1.46342 0
M  V30 3501 H 327.837 -2.81117 1.35572 0
M  V30 3502 N 328.138 -0.959301 -1.25041 0
M  V30 3503 C 329.384 -0.617525 -1.9317 0
M  V30 3504 C 329.717 0.843981 -1.74902 0
M  V30 3505 O 328.992 1.60615 -1.09696 0
M  V30 3506 C 329.275 -0.982736 -3.46431 0
M  V30 3507 C 329.128 -2.50032 -3.73904 0
M  V30 3508 C 330.447 -0.511176 -4.37121 0
M  V30 3509 H 327.566 -0.22582 -0.701552 0
M  V30 3510 H 330.208 -1.19679 -1.4757 0
M  V30 3511 H 328.358 -0.489806 -3.854 0
M  V30 3512 H 330.03 -3.06737 -3.44544 0
M  V30 3513 H 328.273 -2.93598 -3.19348 0
M  V30 3514 H 328.944 -2.70635 -4.81103 0
M  V30 3515 H 331.42 -0.934075 -4.0548 0
M  V30 3516 H 330.296 -0.795361 -5.43107 0
M  V30 3517 H 330.557 0.588834 -4.38161 0
M  V30 3518 N 329.616 1.39756 -0.72842 0
M  V30 3519 C 330.563 2.30647 -0.0841519 0
M  V30 3520 C 331.533 1.48869 0.7367 0
M  V30 3521 O 332.718 1.77574 0.698015 0
M  V30 3522 C 329.858 3.35165 0.822091 0
M  V30 3523 C 328.971 4.31999 -0.0106663 0
M  V30 3524 C 328.106 5.23585 0.896241 0
M  V30 3525 C 327.145 6.12072 0.0583381 0
M  V30 3526 N 326.282 6.96035 0.920818 0
M  V30 3527 H 331.122 2.85173 -0.864891 0
M  V30 3528 H 328.659 1.40422 -0.438179 0
M  V30 3529 H 330.617 3.94345 1.36189 0
M  V30 3530 H 329.247 2.8211 1.56888 0
M  V30 3531 H 328.299 3.74492 -0.66781 0
M  V30 3532 H 329.611 4.9443 -0.658825 0
M  V30 3533 H 328.765 5.87759 1.50412 0
M  V30 3534 H 327.504 4.61459 1.57819 0
M  V30 3535 H 326.509 5.46916 -0.562389 0
M  V30 3536 H 327.734 6.76261 -0.6203 0
M  V30 3537 H 325.68 6.36485 1.58818 0
M  V30 3538 H 325.597 7.55284 0.32899 0
M  V30 3539 H 326.865 7.64646 1.51447 0
M  V30 3540 N 331.094 0.475555 1.50254 0
M  V30 3541 C 332.51 0.12997 1.5907 0
M  V30 3542 C 332.71 -1.36385 1.48328 0
M  V30 3543 O 331.766 -2.13754 1.34407 0
M  V30 3544 C 333.079 0.684139 2.92814 0
M  V30 3545 C 334.627 0.647965 3.0622 0
M  V30 3546 C 335.102 1.17975 4.42545 0
M  V30 3547 N 336.593 1.13936 4.48969 0
M  V30 3548 C 337.328 1.52129 5.52851 0
M  V30 3549 N 336.824 1.97793 6.63965 0
M  V30 3550 N 338.617 1.43704 5.4342 0
M  V30 3551 H 330.768 1.44706 1.55479 0
M  V30 3552 H 333.031 0.598691 0.735033 0
M  V30 3553 H 332.737 1.73079 3.06164 0
M  V30 3554 H 332.611 0.130204 3.76975 0
M  V30 3555 H 334.998 -0.38979 2.92514 0
M  V30 3556 H 335.079 1.23876 2.23805 0
M  V30 3557 H 334.723 2.21616 4.57 0
M  V30 3558 H 334.653 0.565138 5.23559 0
M  V30 3559 H 337.144 0.804488 3.69238 0
M  V30 3560 H 337.457 2.25072 7.39299 0
M  V30 3561 H 335.802 2.01749 6.65073 0
M  V30 3562 H 338.993 1.07867 4.55502 0
M  V30 3563 H 339.166 1.73794 6.24259 0
M  V30 3564 N 332.573 -1.56217 0.208337 0
M  V30 3565 C 333.52 -2.19699 -0.707192 0
M  V30 3566 C 334.49 -1.14836 -1.20008 0
M  V30 3567 O 335.675 -1.4314 -1.26157 0
M  V30 3568 C 332.815 -2.87061 -1.91546 0
M  V30 3569 C 331.928 -4.06483 -1.46271 0
M  V30 3570 C 331.063 -4.61665 -2.62752 0
M  V30 3571 C 330.102 -5.73417 -2.14147 0
M  V30 3572 N 329.239 -6.22948 -3.23853 0
M  V30 3573 H 334.079 -2.97575 -0.159111 0
M  V30 3574 H 331.616 -1.46948 -0.0667874 0
M  V30 3575 H 333.574 -3.24294 -2.62468 0
M  V30 3576 H 332.204 -2.11725 -2.43664 0
M  V30 3577 H 331.256 -3.74825 -0.648886 0
M  V30 3578 H 332.568 -4.87271 -1.06622 0
M  V30 3579 H 331.722 -5.01272 -3.41776 0
M  V30 3580 H 330.461 -3.80013 -3.05682 0
M  V30 3581 H 329.466 -5.33326 -1.33581 0
M  V30 3582 H 330.691 -6.56897 -1.72232 0
M  V30 3583 H 328.637 -5.44213 -3.6629 0
M  V30 3584 H 328.554 -6.98823 -2.88414 0
M  V30 3585 H 329.822 -6.6721 -4.03052 0
M  V30 3586 O 334.09 -0.071647 -1.61341 0
M  V30 3587 H 334.781 0.534597 -1.86177 0
M  V30 END ATOM
M  V30 BEGIN BOND
M  V30 END BOND
M  V30 END CTAB
M  END
$$$$
