drugbank_target|P22301 Interleukin-10 (DB05744; DB05771)
 OpenBabel12092120223D

  0  0  0     0  0            999 V3000
M  V30 BEGIN CTAB
M  V30 COUNTS 2879 2903 0 0 0
M  V30 BEGIN ATOM
M  V30 1 H -0.908 1.98254 -0.117106 0
M  V30 2 N 0 1.576 0 0
M  V30 3 C 0.933 2.03868 1.02534 0
M  V30 4 C 1.911 0.928543 1.3348 0
M  V30 5 O 3.095 1.19667 1.45644 0
M  V30 6 C 0.222 2.43627 2.35294 0
M  V30 7 C -0.732 3.65373 2.2001 0
M  V30 8 S 0.101 5.13292 1.52614 0
M  V30 9 C 1.257 5.56322 2.86805 0
M  V30 10 H 1.49 2.90518 0.631377 0
M  V30 11 H -0.977 1.52953 0.210867 0
M  V30 12 H 0.981 2.67203 3.11629 0
M  V30 13 H -0.358 1.57376 2.7183 0
M  V30 14 H -1.165 3.90944 3.18086 0
M  V30 15 H -1.563 3.418 1.51819 0
M  V30 16 H 0.729 5.58782 3.83104 0
M  V30 17 H 1.672 6.56266 2.65933 0
M  V30 18 H 2.08 4.83886 2.90714 0
M  V30 19 N 1.4781 -0.272755 1.55222 0
M  V30 20 C 2.4281 -1.33946 1.84506 0
M  V30 21 C 3.4121 -1.44682 0.70399 0
M  V30 22 O 4.6041 -1.48358 0.965338 0
M  V30 23 C 1.7331 -2.69968 2.12067 0
M  V30 24 C 0.8191 -2.63341 3.32434 0
M  V30 25 N 1.2101 -2.26335 4.52334 0
M  V30 26 C -0.4919 -2.94402 3.35028 0
M  V30 27 C 0.2091 -2.29705 5.34425 0
M  V30 28 N -0.8149 -2.68188 4.72838 0
M  V30 29 H 2.9871 -1.04343 2.74754 0
M  V30 30 H 0.5011 -0.481389 1.55101 0
M  V30 31 H 2.4981 -3.46916 2.31202 0
M  V30 32 H 1.1581 -3.00459 1.23103 0
M  V30 33 H 2.1691 -1.98309 4.78429 0
M  V30 34 H -1.1539 -3.29603 2.56257 0
M  V30 35 H 0.2361 -2.03653 6.40293 0
M  V30 36 N 2.9562 -1.48159 -0.537278 0
M  V30 37 C 4.1812 -1.59707 -1.32319 0
M  V30 38 C 4.6062 -0.254859 -1.86365 0
M  V30 39 O 3.9642 0.772378 -1.64024 0
M  V30 40 C 4.0122 -2.6412 -2.45505 0
M  V30 41 O 3.1162 -2.20774 -3.48328 0
M  V30 42 H 2.4572 -0.535791 -0.392204 0
M  V30 43 H 4.9872 -1.94092 -0.647268 0
M  V30 44 H 4.9972 -2.85166 -2.91795 0
M  V30 45 H 3.6722 -3.61567 -2.05528 0
M  V30 46 H 2.2492 -2.09911 -3.08207 0
M  V30 47 N 4.4343 0.785586 -1.36625 0
M  V30 48 C 5.6593 1.57963 -1.34397 0
M  V30 49 C 6.0843 1.87964 0.071526 0
M  V30 50 O 5.4423 1.48182 1.0446 0
M  V30 51 C 5.4903 2.87511 -2.17646 0
M  V30 52 O 4.5943 3.81281 -1.57158 0
M  V30 53 H 3.9353 0.479014 -0.459828 0
M  V30 54 H 6.4653 0.973411 -1.79961 0
M  V30 55 H 6.4753 3.36745 -2.30362 0
M  V30 56 H 5.1503 2.65002 -3.20541 0
M  V30 57 H 3.7273 3.39885 -1.53403 0
M  V30 58 N 5.9124 1.20967 1.01018 0
M  V30 59 C 6.8754 0.965918 2.07853 0
M  V30 60 C 7.8754 -0.0610545 1.60684 0
M  V30 61 O 9.0654 0.175681 1.73312 0
M  V30 62 C 6.1974 0.455513 3.37843 0
M  V30 63 H 7.3904 1.91365 2.3091 0
M  V30 64 H 4.9434 1.02594 1.17916 0
M  V30 65 H 5.6784 -0.497381 3.20463 0
M  V30 66 H 5.4634 1.19622 3.73407 0
M  V30 67 H 6.9534 0.304667 4.16487 0
M  V30 68 N 7.3905 -1.2043 1.01659 0
M  V30 69 C 8.3205 -2.25466 0.607226 0
M  V30 70 C 9.3015 -1.65853 -0.377716 0
M  V30 71 O 10.4865 -1.92409 -0.263149 0
M  V30 72 C 7.6165 -3.47256 -0.0552949 0
M  V30 73 C 6.5705 -4.19462 0.850632 0
M  V30 74 C 5.8965 -5.34673 0.0538859 0
M  V30 75 C 7.1965 -4.75603 2.15868 0
M  V30 76 H 8.8905 -2.59962 1.48526 0
M  V30 77 H 6.4365 -1.2496 0.715605 0
M  V30 78 H 8.3895 -4.19917 -0.353233 0
M  V30 79 H 7.1135 -3.11924 -0.968045 0
M  V30 80 H 5.7725 -3.48667 1.13257 0
M  V30 81 H 5.4205 -4.95585 -0.860514 0
M  V30 82 H 5.1205 -5.83913 0.657192 0
M  V30 83 H 6.6445 -6.10138 -0.237598 0
M  V30 84 H 8.0585 -5.40083 1.92311 0
M  V30 85 H 6.4555 -5.3528 2.71284 0
M  V30 86 H 7.5255 -3.94346 2.82169 0
M  V30 87 N 8.8686 -0.792821 -1.36206 0
M  V30 88 C 9.7986 -0.207853 -2.32573 0
M  V30 89 C 10.7796 0.659055 -1.56813 0
M  V30 90 O 11.9646 0.592176 -1.84951 0
M  V30 91 C 9.0946 0.655449 -3.41059 0
M  V30 92 C 8.0486 -0.111842 -4.27854 0
M  V30 93 C 7.3746 0.872274 -5.27537 0
M  V30 94 C 8.6746 -1.30299 -5.05786 0
M  V30 95 H 10.3686 -1.01294 -2.81744 0
M  V30 96 H 7.9146 -0.48854 -1.3546 0
M  V30 97 H 9.8676 1.07464 -4.07467 0
M  V30 98 H 8.5916 1.49328 -2.90463 0
M  V30 99 H 7.2506 -0.512053 -3.63006 0
M  V30 100 H 6.8986 1.70523 -4.73214 0
M  V30 101 H 6.5986 0.363291 -5.86476 0
M  V30 102 H 8.1226 1.28996 -5.96818 0
M  V30 103 H 9.5366 -0.959379 -5.65216 0
M  V30 104 H 7.9336 -1.7455 -5.74154 0
M  V30 105 H 9.0036 -2.09663 -4.37229 0
M  V30 106 N 10.3467 1.47872 -0.545128 0
M  V30 107 C 11.5867 2.04391 -0.0187854 0
M  V30 108 C 11.9507 1.41162 1.30144 0
M  V30 109 O 13.1517 1.88656 1.91474 0
M  V30 110 C 11.4227 3.57299 0.0850867 0
M  V30 111 S 12.9817 4.35221 0.559302 0
M  V30 112 H 9.7997 0.710737 -0.0193301 0
M  V30 113 H 12.4017 1.81395 -0.729125 0
M  V30 114 H 11.1057 4.00847 -0.880351 0
M  V30 115 H 10.6367 3.84773 0.819348 0
M  V30 116 H 12.6517 4.61571 1.82118 0
M  V30 117 N 11.8248 0.280983 1.55075 0
M  V30 118 C 13.0648 -0.335234 2.01632 0
M  V30 119 C 13.4288 -1.5261 1.16508 0
M  V30 120 O 14.6298 -2.21235 1.52672 0
M  V30 121 C 12.9008 -0.702172 3.50434 0
M  V30 122 S 14.4598 -1.30409 4.18974 0
M  V30 123 H 11.2778 -0.103967 0.703358 0
M  V30 124 H 13.8798 0.404187 1.91276 0
M  V30 125 H 12.5838 0.17333 4.10034 0
M  V30 126 H 12.1148 -1.4729 3.64786 0
M  V30 127 H 14.1298 -2.59253 4.23087 0
M  V30 128 N 13.3029 -1.57598 0.00835791 0
M  V30 129 C 14.2329 -2.1198 -0.979113 0
M  V30 130 C 15.2139 -1.03091 -1.35301 0
M  V30 131 O 16.3989 -1.30818 -1.43528 0
M  V30 132 C 13.5289 -2.62995 -2.26828 0
M  V30 133 C 12.4829 -3.76485 -2.03576 0
M  V30 134 C 11.8089 -4.13846 -3.38579 0
M  V30 135 C 13.1089 -5.0342 -1.39161 0
M  V30 136 H 14.8029 -2.94738 -0.526281 0
M  V30 137 H 12.3489 -1.41783 -0.251704 0
M  V30 138 H 14.3019 -2.99669 -2.96271 0
M  V30 139 H 13.0259 -1.7737 -2.7424 0
M  V30 140 H 11.6849 -3.40217 -1.36557 0
M  V30 141 H 11.3329 -3.25232 -3.83709 0
M  V30 142 H 11.0329 -4.90312 -3.23834 0
M  V30 143 H 12.5569 -4.53086 -4.09323 0
M  V30 144 H 13.9709 -5.37812 -1.98573 0
M  V30 145 H 12.3679 -5.84746 -1.34878 0
M  V30 146 H 13.4379 -4.83548 -0.361868 0
M  V30 147 N 14.781 0.264519 -1.55364 0
M  V30 148 C 16.027 0.99646 -1.76631 0
M  V30 149 C 16.36 1.85632 -0.570478 0
M  V30 150 O 15.635 1.89647 0.43175 0
M  V30 151 C 15.918 1.87187 -3.07625 0
M  V30 152 C 15.771 1.04138 -4.37579 0
M  V30 153 C 17.09 2.85749 -3.34717 0
M  V30 154 H 14.209 0.360841 -0.642622 0
M  V30 155 H 16.851 0.268218 -1.88097 0
M  V30 156 H 15.001 2.49279 -2.9798 0
M  V30 157 H 16.673 0.440517 -4.59192 0
M  V30 158 H 14.916 0.345115 -4.32425 0
M  V30 159 H 15.587 1.68729 -5.2558 0
M  V30 160 H 18.063 2.33793 -3.4421 0
M  V30 161 H 16.939 3.44136 -4.27623 0
M  V30 162 H 17.2 3.61311 -2.54768 0
M  V30 163 N 16.2591 1.48442 0.529413 0
M  V30 164 C 17.1891 1.65902 1.64313 0
M  V30 165 C 18.1701 0.507897 1.6234 0
M  V30 166 O 19.3551 0.740503 1.79528 0
M  V30 167 C 16.4851 1.69911 3.02898 0
M  V30 168 C 15.4391 2.8453 3.19729 0
M  V30 169 C 14.7651 2.73629 4.59381 0
M  V30 170 C 16.0651 4.25821 3.02447 0
M  V30 171 H 17.7591 2.5914 1.49955 0
M  V30 172 H 15.3051 1.24709 0.719982 0
M  V30 173 H 17.2581 1.80715 3.80684 0
M  V30 174 H 15.9821 0.732524 3.18279 0
M  V30 175 H 14.6411 2.73283 2.44361 0
M  V30 176 H 14.2891 1.74938 4.71599 0
M  V30 177 H 13.9891 3.50541 4.71588 0
M  V30 178 H 15.5131 2.86401 5.39265 0
M  V30 179 H 16.9271 4.37898 3.70024 0
M  V30 180 H 15.3241 5.03735 3.26146 0
M  V30 181 H 16.3941 4.42244 1.98867 0
M  V30 182 N 17.7372 -0.778329 1.37039 0
M  V30 183 C 18.6672 -1.90546 1.34962 0
M  V30 184 C 19.6482 -1.68681 0.219274 0
M  V30 185 O 20.8332 -1.89634 0.418624 0
M  V30 186 C 17.9632 -3.27734 1.14925 0
M  V30 187 C 16.9172 -3.64147 2.24902 0
M  V30 188 C 16.2432 -4.99806 1.89996 0
M  V30 189 C 17.5432 -3.71579 3.67051 0
M  V30 190 H 19.2372 -1.92541 2.29277 0
M  V30 191 H 16.7832 -0.924948 1.10366 0
M  V30 192 H 18.7362 -4.06215 1.12104 0
M  V30 193 H 17.4602 -3.26154 0.170631 0
M  V30 194 H 16.1192 -2.8797 2.26868 0
M  V30 195 H 15.7672 -4.94759 0.906796 0
M  V30 196 H 15.4672 -5.25139 2.63634 0
M  V30 197 H 16.9912 -5.80694 1.88749 0
M  V30 198 H 18.4052 -4.40227 3.67251 0
M  V30 199 H 16.8022 -4.08405 4.39688 0
M  V30 200 H 17.8722 -2.72404 4.01154 0
M  V30 201 N 19.2153 -1.21501 -1.00376 0
M  V30 202 C 20.4433 -1.059 -1.77744 0
M  V30 203 C 20.8583 0.391125 -1.84704 0
M  V30 204 O 20.2153 1.27133 -1.30933 0
M  V30 205 C 20.2663 -1.65111 -3.21591 0
M  V30 206 O 19.9873 -3.0445 -3.15027 0
M  V30 207 C 21.4883 -1.54637 -4.15454 0
M  V30 208 H 18.7083 -0.371825 -0.558558 0
M  V30 209 H 21.2523 -1.60865 -1.26264 0
M  V30 210 H 19.4073 -1.14235 -3.70175 0
M  V30 211 H 19.8213 -3.3278 -4.0541 0
M  V30 212 H 21.2953 -2.00808 -5.14179 0
M  V30 213 H 21.7723 -0.501022 -4.36333 0
M  V30 214 H 22.3783 -2.04767 -3.72761 0
M  V30 215 N 20.6934 1.19889 -1.02296 0
M  V30 216 C 21.9414 1.89046 -0.714558 0
M  V30 217 C 22.2624 1.79636 0.758681 0
M  V30 218 O 21.5324 1.20292 1.54618 0
M  V30 219 H 20.1124 0.699802 -0.261317 0
M  V30 220 H 22.7744 1.45574 -1.29592 0
M  V30 221 H 21.8704 2.95524 -1.0036 0
M  V30 222 N 22.1715 0.800033 1.35784 0
M  V30 223 C 23.4175 0.377901 1.99248 0
M  V30 224 C 23.7505 -1.05052 1.63333 0
M  V30 225 O 23.0255 -1.72768 0.893385 0
M  V30 226 C 23.3085 0.553922 3.55814 0
M  V30 227 C 23.1615 2.0268 4.01548 0
M  V30 228 C 24.4805 -0.0244802 4.40093 0
M  V30 229 H 21.5995 0.138782 0.723815 0
M  V30 230 H 24.2415 1.00835 1.61035 0
M  V30 231 H 22.3915 0.0172398 3.88496 0
M  V30 232 H 24.0635 2.62536 3.79305 0
M  V30 233 H 22.3065 2.5256 3.52698 0
M  V30 234 H 22.9775 2.10087 5.10458 0
M  V30 235 H 25.4535 0.433775 4.13833 0
M  V30 236 H 24.3295 0.128637 5.48749 0
M  V30 237 H 24.5905 -1.11758 4.27741 0
M  V30 238 N 23.6496 -1.47581 0.552962 0
M  V30 239 C 25.0656 -1.5818 0.212424 0
M  V30 240 C 25.2656 -1.55213 -1.28496 0
M  V30 241 O 24.3216 -1.45329 -2.06484 0
M  V30 242 C 25.6346 -2.88865 0.835318 0
M  V30 243 C 27.1826 -3.0244 0.806156 0
M  V30 244 C 27.6576 -4.35819 1.40804 0
M  V30 245 N 29.1486 -4.42444 1.37103 0
M  V30 246 C 29.8836 -5.44202 1.80641 0
M  V30 247 N 29.3796 -6.52795 2.32015 0
M  V30 248 N 31.1726 -5.35222 1.71738 0
M  V30 249 H 23.3236 -1.47753 1.52587 0
M  V30 250 H 25.5866 -0.702941 0.636064 0
M  V30 251 H 25.2926 -2.9676 1.88749 0
M  V30 252 H 25.1666 -3.7579 0.325848 0
M  V30 253 H 27.5536 -2.94144 -0.237317 0
M  V30 254 H 27.6346 -2.17068 1.35334 0
M  V30 255 H 27.2786 -4.44871 2.45056 0
M  V30 256 H 27.2086 -5.19916 0.836338 0
M  V30 257 H 29.6996 -3.6456 0.995202 0
M  V30 258 H 30.0126 -7.26609 2.63171 0
M  V30 259 H 28.3576 -6.53696 2.36023 0
M  V30 260 H 31.5486 -4.49284 1.31382 0
M  V30 261 H 31.7216 -6.14389 2.05987 0
M  V30 262 N 25.1277 -0.289203 -1.54924 0
M  V30 263 C 26.0907 0.579144 -2.21762 0
M  V30 264 C 27.0907 1.07047 -1.1999 0
M  V30 265 O 28.2807 0.968384 -1.44803 0
M  V30 266 C 25.4127 1.80055 -2.8947 0
M  V30 267 H 26.6057 -0.00464908 -2.999 0
M  V30 268 H 24.1587 -0.0399306 -1.56249 0
M  V30 269 H 24.8937 2.42449 -2.15381 0
M  V30 270 H 24.6787 1.45602 -3.64064 0
M  V30 271 H 26.1687 2.41773 -3.40493 0
M  V30 272 N 26.6058 1.57591 -0.0167156 0
M  V30 273 C 27.8308 1.9598 0.67872 0
M  V30 274 C 28.2558 0.892546 1.65575 0
M  V30 275 O 27.6138 -0.147772 1.80697 0
M  V30 276 C 27.6618 3.33468 1.37227 0
M  V30 277 O 26.7658 3.28954 2.48722 0
M  V30 278 H 26.1068 0.639339 0.17928 0
M  V30 279 H 28.6368 2.04463 -0.0748802 0
M  V30 280 H 28.6468 3.69417 1.7319 0
M  V30 281 H 27.3218 4.10694 0.656007 0
M  V30 282 H 25.8988 3.04705 2.14963 0
M  V30 283 N 28.0839 -0.256276 1.55502 0
M  V30 284 C 29.4949 -0.826068 1.67431 0
M  V30 285 C 29.8459 -1.86396 0.612446 0
M  V30 286 O 28.9709 -2.15031 -0.243025 0
M  V30 287 C 29.5659 -1.50512 3.03532 0
M  V30 288 C 28.1249 -2.02273 3.17431 0
M  V30 289 C 27.2719 -0.870548 2.63281 0
M  V30 290 H 30.2229 -0.0322728 1.58667 0
M  V30 291 H 30.2439 -2.37279 2.97454 0
M  V30 292 H 29.7559 -0.749484 3.80794 0
M  V30 293 H 27.8569 -2.80746 2.44974 0
M  V30 294 H 27.9699 -2.22655 4.24219 0
M  V30 295 H 26.3339 -1.26851 2.20864 0
M  V30 296 H 27.1169 -0.128149 3.43061 0
M  V30 297 N 29.562 -1.4872 -0.521534 0
M  V30 298 C 30.81 -1.56857 -1.27437 0
M  V30 299 C 31.131 -0.247982 -1.93417 0
M  V30 300 O 30.401 0.731151 -1.81744 0
M  V30 301 H 28.981 -0.577885 -0.473347 0
M  V30 302 H 31.643 -1.85233 -0.606205 0
M  V30 303 H 30.739 -2.35402 -2.0492 0
M  V30 304 N 31.0401 0.771051 -1.3745 0
M  V30 305 C 31.9721 1.89352 -1.29146 0
M  V30 306 C 32.9851 1.61477 -0.207124 0
M  V30 307 O 34.1741 1.72382 -0.463324 0
M  V30 308 C 31.2741 3.24596 -0.974195 0
M  V30 309 C 30.4471 3.80111 -2.16413 0
M  V30 310 C 29.5061 4.93832 -1.81703 0
M  V30 311 O 28.5321 5.09382 -2.54006 0
M  V30 312 N 29.7341 5.75483 -0.761573 0
M  V30 313 H 32.4991 1.96991 -2.25864 0
M  V30 314 H 30.0601 0.950191 -1.31084 0
M  V30 315 H 32.0521 3.98193 -0.722828 0
M  V30 316 H 30.6221 3.12454 -0.0955527 0
M  V30 317 H 29.8421 2.98284 -2.57721 0
M  V30 318 H 31.1301 4.13932 -2.95867 0
M  V30 319 H 30.5281 5.65469 -0.161609 0
M  V30 320 H 29.0851 6.49302 -0.570064 0
M  V30 321 N 32.5182 1.22032 0.997298 0
M  V30 322 C 33.7662 1.04016 1.73278 0
M  V30 323 C 34.0872 -0.426255 1.90284 0
M  V30 324 O 33.3572 -1.30694 1.45931 0
M  V30 325 H 31.9372 0.381897 0.642 0
M  V30 326 H 34.5992 1.5347 1.20137 0
M  V30 327 H 33.6952 1.51441 2.72896 0
M  V30 328 N 33.9963 -1.19345 1.0293 0
M  V30 329 C 35.2243 -1.92997 0.745644 0
M  V30 330 C 35.6393 -1.75519 -0.695589 0
M  V30 331 O 34.9963 -1.07737 -1.47306 0
M  V30 332 C 35.0473 -3.44741 1.08792 0
M  V30 333 O 34.7683 -3.61658 2.47256 0
M  V30 334 C 36.2693 -4.35515 0.827129 0
M  V30 335 H 33.4893 -0.613042 0.272801 0
M  V30 336 H 36.0333 -1.51473 1.3739 0
M  V30 337 H 34.1883 -3.84097 0.504832 0
M  V30 338 H 34.6023 -4.55514 2.60015 0
M  V30 339 H 36.0763 -5.40589 1.11658 0
M  V30 340 H 36.5533 -4.38552 -0.238436 0
M  V30 341 H 37.1593 -4.01841 1.39297 0
M  V30 342 N 35.4744 -0.807222 -1.35358 0
M  V30 343 C 36.4064 -0.175717 -2.28525 0
M  V30 344 C 37.4194 0.625354 -1.5031 0
M  V30 345 O 38.6084 0.457611 -1.72535 0
M  V30 346 C 35.7084 0.773471 -3.29956 0
M  V30 347 C 34.8814 0.0186296 -4.37396 0
M  V30 348 C 33.9404 0.886395 -5.18681 0
M  V30 349 O 32.9664 0.337106 -5.68201 0
M  V30 350 N 34.1684 2.20839 -5.36852 0
M  V30 351 H 36.9334 -0.976091 -2.83359 0
M  V30 352 H 34.4944 -0.662737 -1.47714 0
M  V30 353 H 36.4864 1.35824 -3.81227 0
M  V30 354 H 35.0564 1.47465 -2.75632 0
M  V30 355 H 34.2764 -0.747349 -3.87051 0
M  V30 356 H 35.5644 -0.501577 -5.06322 0
M  V30 357 H 34.9624 2.67858 -4.98265 0
M  V30 358 H 33.5194 2.74237 -5.91301 0
M  V30 359 N 36.9525 1.47285 -0.560781 0
M  V30 360 C 38.1775 2.07359 -0.0410566 0
M  V30 361 C 38.6025 1.41017 1.24483 0
M  V30 362 O 37.9605 0.486368 1.74654 0
M  V30 363 C 38.0085 3.6035 0.134123 0
M  V30 364 O 37.1125 3.94681 1.19587 0
M  V30 365 H 36.4535 0.661887 -0.0529291 0
M  V30 366 H 38.9835 1.89252 -0.777482 0
M  V30 367 H 38.9935 4.0652 0.347207 0
M  V30 368 H 37.6685 4.08034 -0.805047 0
M  V30 369 H 36.2455 3.60251 0.962987 0
M  V30 370 N 38.4306 0.297415 1.54768 0
M  V30 371 C 39.3406 -0.58983 2.27064 0
M  V30 372 C 40.3566 -1.15144 1.30453 0
M  V30 373 O 41.5326 -1.17699 1.63428 0
M  V30 374 C 38.5976 -1.74714 2.9946 0
M  V30 375 C 37.6586 -1.21997 4.11601 0
M  V30 376 C 36.8916 -2.32212 4.80535 0
M  V30 377 O 37.1146 -3.52036 4.48806 0
M  V30 378 O 36.0486 -1.99106 5.68014 0
M  V30 379 H 39.8746 -0.00348199 3.037 0
M  V30 380 H 37.4596 0.0640035 1.49263 0
M  V30 381 H 39.3416 -2.42147 3.44881 0
M  V30 382 H 38.0166 -2.32016 2.25722 0
M  V30 383 H 36.9236 -0.511458 3.70587 0
M  V30 384 H 38.2566 -0.692419 4.87305 0
M  V30 385 N 39.9087 -1.5758 0.0250728 0
M  V30 386 C 40.8567 -2.11125 -0.97617 0
M  V30 387 C 41.8507 -1.03689 -1.33959 0
M  V30 388 O 43.0567 -1.22128 -1.3223 0
M  V30 389 H 39.4317 -0.674468 -0.332561 0
M  V30 390 H 41.4027 -2.94194 -0.499223 0
M  V30 391 C 40.1517 -2.65017 -2.2508 0
M  V30 392 H 39.4747 -3.47333 -1.9799 0
M  V30 393 H 40.9147 -3.06133 -2.93357 0
M  V30 394 C 39.3737 -1.57574 -2.97779 0
M  V30 395 O 39.9037 -0.973203 -3.89733 0
M  V30 396 N 38.1097 -1.29716 -2.60043 0
M  V30 397 H 37.6567 -1.789 -1.85345 0
M  V30 398 H 37.6147 -0.58051 -3.08994 0
M  V30 399 N 41.3868 0.248026 -1.55636 0
M  V30 400 C 42.6118 0.998028 -1.81808 0
M  V30 401 C 43.0368 1.78207 -0.601979 0
M  V30 402 O 42.3948 1.75653 0.448961 0
M  V30 403 C 42.4428 1.9125 -3.05705 0
M  V30 404 O 41.5468 3.00406 -2.82542 0
M  V30 405 H 40.8878 0.284045 -0.600179 0
M  V30 406 H 43.4178 0.269357 -2.02819 0
M  V30 407 H 43.4278 2.32737 -3.35108 0
M  V30 408 H 42.1028 1.33602 -3.93857 0
M  V30 409 H 40.6798 2.63056 -2.64303 0
M  V30 410 N 42.8649 1.48995 0.513639 0
M  V30 411 C 44.1049 1.59452 1.27885 0
M  V30 412 C 44.4689 0.269479 1.90099 0
M  V30 413 O 45.6699 0.249139 2.67643 0
M  V30 414 C 43.9409 2.71277 2.32688 0
M  V30 415 S 45.4999 3.01604 3.18717 0
M  V30 416 H 42.3179 0.562565 0.434789 0
M  V30 417 H 44.9199 1.86595 0.583301 0
M  V30 418 H 43.6239 3.66089 1.8549 0
M  V30 419 H 43.1549 2.46086 3.06929 0
M  V30 420 H 45.1699 2.42155 4.331 0
M  V30 421 N 44.343 -0.763751 1.37857 0
M  V30 422 C 45.571 -1.55293 1.36718 0
M  V30 423 C 45.986 -1.88745 -0.0455434 0
M  V30 424 O 45.343 -1.52039 -1.00947 0
M  V30 425 C 45.394 -2.85831 2.2132 0
M  V30 426 O 45.115 -2.5381 3.57089 0
M  V30 427 C 46.616 -3.80023 2.28249 0
M  V30 428 H 43.836 -0.480841 0.468009 0
M  V30 429 H 46.38 -0.946009 1.81303 0
M  V30 430 H 44.535 -3.42926 1.80223 0
M  V30 431 H 44.949 -3.37459 4.01524 0
M  V30 432 H 46.423 -4.68599 2.91752 0
M  V30 433 H 46.9 -4.1973 1.2932 0
M  V30 434 H 47.506 -3.28855 2.69693 0
M  V30 435 N 45.8211 -1.22559 -0.990812 0
M  V30 436 C 46.7711 -0.964807 -2.0658 0
M  V30 437 C 47.7551 0.0853472 -1.60673 0
M  V30 438 O 48.9471 -0.125443 -1.76555 0
M  V30 439 C 46.0761 -0.546707 -3.38919 0
M  V30 440 C 45.1621 -1.6317 -3.91454 0
M  V30 441 N 45.5531 -2.85985 -4.17189 0
M  V30 442 C 43.8511 -1.50387 -4.19881 0
M  V30 443 C 44.5521 -3.56159 -4.59919 0
M  V30 444 N 43.5281 -2.83637 -4.63736 0
M  V30 445 H 47.3301 -1.89769 -2.24421 0
M  V30 446 H 44.8441 -1.12343 -1.17273 0
M  V30 447 H 46.8411 -0.34119 -4.15502 0
M  V30 448 H 45.5011 0.379254 -3.22478 0
M  V30 449 H 46.5121 -3.22392 -4.05319 0
M  V30 450 H 43.1891 -0.644254 -4.12499 0
M  V30 451 H 44.5791 -4.6139 -4.88435 0
M  V30 452 N 47.2992 1.18797 -1.03562 0
M  V30 453 C 48.5462 1.8865 -0.736023 0
M  V30 454 C 48.8742 1.80041 0.735889 0
M  V30 455 O 48.1292 1.19179 1.55225 0
M  V30 456 C 48.4282 3.38692 -1.14117 0
M  V30 457 C 48.0942 3.67504 -2.6125 0
M  V30 458 C 46.7562 3.75078 -3.01447 0
M  V30 459 C 49.1082 3.80293 -3.56408 0
M  V30 460 C 46.4362 3.92915 -4.35701 0
M  V30 461 C 48.7882 3.99645 -4.90374 0
M  V30 462 C 47.4522 4.05453 -5.30249 0
M  V30 463 H 46.7222 0.690321 -0.26933 0
M  V30 464 H 49.3692 1.40641 -1.29971 0
M  V30 465 H 47.6742 3.88645 -0.496202 0
M  V30 466 H 49.3712 3.91072 -0.886789 0
M  V30 467 H 45.9612 3.62223 -2.29113 0
M  V30 468 H 50.1452 3.73779 -3.26501 0
M  V30 469 H 45.4012 3.95653 -4.66121 0
M  V30 470 H 49.5752 4.08482 -5.64017 0
M  V30 471 H 47.2022 4.19027 -6.34288 0
M  V30 472 N 48.7773 0.814389 1.34928 0
M  V30 473 C 50.1883 0.458364 1.80986 0
M  V30 474 C 50.5393 -1.02042 1.67577 0
M  V30 475 O 49.6643 -1.79352 1.21086 0
M  V30 476 C 50.2593 0.825212 3.28597 0
M  V30 477 C 48.8183 0.521677 3.72767 0
M  V30 478 C 47.9653 1.04668 2.56788 0
M  V30 479 H 50.9163 1.00533 1.22795 0
M  V30 480 H 50.9373 0.12571 3.80292 0
M  V30 481 H 50.4493 1.90154 3.38324 0
M  V30 482 H 48.5503 -0.545589 3.68584 0
M  V30 483 H 48.6633 1.05977 4.67232 0
M  V30 484 H 47.0273 0.468622 2.50352 0
M  V30 485 H 47.8103 2.12927 2.6929 0
M  V30 486 N 50.2554 -1.46986 0.568584 0
M  V30 487 C 51.5034 -2.02041 0.0487022 0
M  V30 488 C 51.8244 -1.44408 -1.31039 0
M  V30 489 O 51.0944 -0.623477 -1.85714 0
M  V30 490 H 49.6744 -0.746849 0.015014 0
M  V30 491 H 52.3364 -1.80257 0.741168 0
M  V30 492 H 51.4324 -3.12085 -0.0308961 0
M  V30 493 N 51.7335 -0.305618 -1.54608 0
M  V30 494 C 52.6815 0.584119 -2.25146 0
M  V30 495 C 53.6755 1.13326 -1.25911 0
M  V30 496 O 54.8815 1.08337 -1.43747 0
M  V30 497 H 51.2565 0.206983 -0.722954 0
M  V30 498 H 53.2275 -0.033291 -2.98381 0
M  V30 499 C 51.9765 1.74225 -3.009 0
M  V30 500 H 51.2995 1.32892 -3.77067 0
M  V30 501 H 52.7395 2.34077 -3.53531 0
M  V30 502 C 51.1985 2.64914 -2.0814 0
M  V30 503 O 51.7285 3.66137 -1.65246 0
M  V30 504 N 49.9345 2.3275 -1.74 0
M  V30 505 H 49.4815 1.50479 -2.09078 0
M  V30 506 H 49.4395 2.93694 -1.12211 0
M  V30 507 N 53.2116 1.57565 -0.0334293 0
M  V30 508 C 54.1416 2.13511 0.945265 0
M  V30 509 C 55.1226 1.05231 1.33643 0
M  V30 510 O 56.3076 1.33084 1.41429 0
M  V30 511 C 53.4376 2.6657 2.22616 0
M  V30 512 C 52.3916 3.79676 1.97561 0
M  V30 513 C 51.7176 4.1918 3.31952 0
M  V30 514 C 53.0176 5.0557 1.31135 0
M  V30 515 H 54.7116 2.95538 0.479325 0
M  V30 516 H 52.2576 1.42166 0.229115 0
M  V30 517 H 54.2106 3.04344 2.91466 0
M  V30 518 H 52.9346 1.8171 2.71384 0
M  V30 519 H 51.5936 3.42347 1.31127 0
M  V30 520 H 51.2416 3.31296 3.78487 0
M  V30 521 H 50.9416 4.95402 3.15992 0
M  V30 522 H 52.4656 4.59541 4.02063 0
M  V30 523 H 53.8796 5.40903 1.89992 0
M  V30 524 H 52.2766 5.86818 1.25559 0
M  V30 525 H 53.3466 4.84062 0.284894 0
M  V30 526 N 54.6897 -0.239769 1.55765 0
M  V30 527 C 56.1007 -0.808263 1.68297 0
M  V30 528 C 56.4517 -1.85736 0.632181 0
M  V30 529 O 55.5767 -2.15277 -0.220204 0
M  V30 530 C 56.1717 -1.47284 3.05111 0
M  V30 531 C 54.7307 -1.98895 3.19559 0
M  V30 532 C 53.8777 -0.842575 2.64189 0
M  V30 533 H 56.8287 -0.0154422 1.58692 0
M  V30 534 H 56.8497 -2.34111 2.99954 0
M  V30 535 H 56.3617 -0.709053 3.81568 0
M  V30 536 H 54.4627 -2.78132 2.47938 0
M  V30 537 H 54.5757 -2.18143 4.26556 0
M  V30 538 H 52.9397 -1.24501 2.22197 0
M  V30 539 H 53.7227 -0.0917552 3.43177 0
M  V30 540 N 56.1678 -1.49265 -0.50573 0
M  V30 541 C 57.1158 -1.66065 -1.62866 0
M  V30 542 C 58.1098 -0.526636 -1.61006 0
M  V30 543 O 59.3158 -0.706126 -1.65571 0
M  V30 544 H 55.6908 -0.52356 -0.539805 0
M  V30 545 H 57.6618 -2.60329 -1.45848 0
M  V30 546 C 56.4108 -1.74008 -3.01026 0
M  V30 547 H 55.7338 -2.6064 -3.03161 0
M  V30 548 H 57.1738 -1.89798 -3.79147 0
M  V30 549 C 55.6328 -0.483868 -3.33407 0
M  V30 550 O 56.1628 0.392548 -3.99777 0
M  V30 551 N 54.3688 -0.348236 -2.88506 0
M  V30 552 H 53.9158 -1.06242 -2.34671 0
M  V30 553 H 53.8738 0.491204 -3.10539 0
M  V30 554 N 57.6459 0.756429 -1.3826 0
M  V30 555 C 58.5789 1.87802 -1.29637 0
M  V30 556 C 59.5569 1.61667 -0.173939 0
M  V30 557 O 60.7409 1.85208 -0.350775 0
M  V30 558 C 57.8679 3.23354 -1.00797 0
M  V30 559 C 56.9139 3.68379 -2.14939 0
M  V30 560 S 57.7469 3.8025 -3.77054 0
M  V30 561 C 58.9029 5.18626 -3.50396 0
M  V30 562 H 59.1359 1.94829 -2.24564 0
M  V30 563 H 56.6689 0.919117 -1.24063 0
M  V30 564 H 58.6269 4.01637 -0.848413 0
M  V30 565 H 57.2879 3.14008 -0.0759369 0
M  V30 566 H 56.4809 4.66693 -1.90299 0
M  V30 567 H 56.0829 2.97242 -2.26988 0
M  V30 568 H 58.3749 6.04289 -3.06334 0
M  V30 569 H 59.3179 5.48286 -4.48094 0
M  V30 570 H 59.7259 4.87289 -2.84973 0
M  V30 571 N 59.124 1.23083 0.984299 0
M  V30 572 C 60.054 1.03292 2.09411 0
M  V30 573 C 61.035 -0.048923 1.7003 0
M  V30 574 O 62.22 0.114967 1.93859 0
M  V30 575 C 59.35 0.619155 3.41736 0
M  V30 576 C 58.304 1.64791 3.95004 0
M  V30 577 C 57.63 1.0897 5.23478 0
M  V30 578 C 58.93 3.03999 4.24714 0
M  V30 579 H 60.624 1.96119 2.26225 0
M  V30 580 H 58.17 0.944344 1.08711 0
M  V30 581 H 60.123 0.467777 4.18796 0
M  V30 582 H 58.847 -0.344786 3.24775 0
M  V30 583 H 57.506 1.78721 3.20085 0
M  V30 584 H 57.154 0.11686 5.02864 0
M  V30 585 H 56.854 1.77704 5.60085 0
M  V30 586 H 58.378 0.950093 6.03163 0
M  V30 587 H 59.792 2.93393 4.92538 0
M  V30 588 H 58.189 3.69936 4.72512 0
M  V30 589 H 59.259 3.53285 3.32142 0
M  V30 590 N 60.6021 -1.18246 1.0419 0
M  V30 591 C 62.0181 -1.40269 0.761366 0
M  V30 592 C 62.2181 -1.90777 -0.648578 0
M  V30 593 O 61.2741 -2.0929 -1.41258 0
M  V30 594 C 62.5871 -2.40237 1.8085 0
M  V30 595 C 64.1351 -2.53961 1.82955 0
M  V30 596 C 64.6101 -3.57194 2.86664 0
M  V30 597 N 66.1011 -3.64702 2.85563 0
M  V30 598 C 66.8361 -4.44309 3.6246 0
M  V30 599 N 66.3321 -5.27514 4.49111 0
M  V30 600 N 68.1251 -4.39084 3.50944 0
M  V30 601 H 60.2761 -0.837882 1.95175 0
M  V30 602 H 62.5391 -0.430608 0.84456 0
M  V30 603 H 62.2451 -2.10176 2.81991 0
M  V30 604 H 62.1191 -3.39601 1.64168 0
M  V30 605 H 64.5061 -2.83338 0.824855 0
M  V30 606 H 64.5871 -1.54706 2.03715 0
M  V30 607 H 64.2311 -3.28558 3.87314 0
M  V30 608 H 64.1611 -4.5613 2.6316 0
M  V30 609 H 66.6521 -3.05289 2.22727 0
M  V30 610 H 66.9651 -5.85411 5.04493 0
M  V30 611 H 65.3101 -5.2693 4.53178 0
M  V30 612 H 68.5011 -3.7313 2.82651 0
M  V30 613 H 68.6741 -5.00883 4.11121 0
M  V30 614 N 62.0802 -0.821533 -1.34494 0
M  V30 615 C 63.3572 -0.33159 -1.92769 0
M  V30 616 C 63.7372 1.18088 -1.74981 0
M  V30 617 O 63.0852 1.98733 -1.12772 0
M  V30 618 C 63.2952 -0.759398 -3.40638 0
M  V30 619 C 64.6432 -0.757433 -4.1779 0
M  V30 620 O 65.6672 -0.70189 -3.49216 0
M  V30 621 O 64.5262 -0.829361 -5.4017 0
M  V30 622 H 61.6202 -0.0902502 -0.822061 0
M  V30 623 H 64.1662 -0.906231 -1.43477 0
M  V30 624 H 62.9382 -1.8012 -3.47379 0
M  V30 625 H 62.5612 -0.160378 -3.97276 0
M  V30 626 N 63.5583 1.46682 -0.576371 0
M  V30 627 C 64.4883 2.33028 0.148397 0
M  V30 628 C 65.4693 1.44961 0.889956 0
M  V30 629 O 66.6543 1.73789 0.866662 0
M  V30 630 C 63.7843 3.27117 1.1667 0
M  V30 631 C 62.7383 4.24575 0.540386 0
M  V30 632 C 62.0643 5.08126 1.6647 0
M  V30 633 C 63.3643 5.19722 -0.518331 0
M  V30 634 H 65.0583 2.93875 -0.572509 0
M  V30 635 H 62.6043 1.41315 -0.276768 0
M  V30 636 H 64.5573 3.86374 1.68204 0
M  V30 637 H 63.2813 2.64364 1.9178 0
M  V30 638 H 61.9403 3.66571 0.0461769 0
M  V30 639 H 61.5883 4.41762 2.40531 0
M  V30 640 H 61.2883 5.74122 1.25131 0
M  V30 641 H 62.8123 5.70246 2.18293 0
M  V30 642 H 64.2263 5.73232 -0.0883058 0
M  V30 643 H 62.6233 5.94026 -0.851679 0
M  V30 644 H 63.6933 4.64037 -1.40703 0
M  V30 645 N 65.0364 0.313813 1.54444 0
M  V30 646 C 66.4524 -0.0391619 1.59552 0
M  V30 647 C 66.6524 -1.51322 1.33056 0
M  V30 648 O 65.7084 -2.26782 1.11022 0
M  V30 649 C 67.0214 0.370302 2.98411 0
M  V30 650 C 68.5694 0.320139 3.11358 0
M  V30 651 C 69.0444 0.704617 4.52547 0
M  V30 652 N 70.5354 0.657645 4.58508 0
M  V30 653 C 71.2704 0.927453 5.6585 0
M  V30 654 N 70.7664 1.26389 6.81174 0
M  V30 655 N 72.5594 0.853662 5.5558 0
M  V30 656 H 64.7104 1.27433 1.69925 0
M  V30 657 H 66.9734 0.517511 0.794284 0
M  V30 658 H 66.6794 1.39694 3.22767 0
M  V30 659 H 66.5534 -0.269619 3.76235 0
M  V30 660 H 68.9404 -0.697275 2.86744 0
M  V30 661 H 69.0214 0.99486 2.35661 0
M  V30 662 H 68.6654 1.7199 4.77893 0
M  V30 663 H 68.5954 0.00768843 5.26599 0
M  V30 664 H 71.0864 0.409067 3.75679 0
M  V30 665 H 71.3994 1.4554 7.58972 0
M  V30 666 H 69.7444 1.30206 6.82694 0
M  V30 667 H 72.9354 0.590383 4.64362 0
M  V30 668 H 73.1084 1.0673 6.3915 0
M  V30 669 N 66.5145 -1.57545 0.0417849 0
M  V30 670 C 67.7915 -1.83642 -0.673433 0
M  V30 671 C 68.1715 -0.928298 -1.89594 0
M  V30 672 O 67.5195 0.0129955 -2.28496 0
M  V30 673 C 67.7295 -3.33155 -1.03964 0
M  V30 674 C 69.0775 -3.99941 -1.42592 0
M  V30 675 O 70.1015 -3.37725 -1.13226 0
M  V30 676 O 68.9605 -5.09619 -1.9736 0
M  V30 677 H 66.0545 -0.757638 -0.331533 0
M  V30 678 H 68.6005 -1.69554 0.070433 0
M  V30 679 H 67.3725 -3.9093 -0.170098 0
M  V30 680 H 66.9955 -3.52396 -1.84126 0
M  V30 681 N 67.9926 0.231505 -1.5589 0
M  V30 682 C 68.9556 1.27028 -1.90779 0
M  V30 683 C 69.9556 1.40308 -0.785507 0
M  V30 684 O 71.1456 1.38744 -1.05336 0
M  V30 685 C 68.2776 2.64566 -2.14983 0
M  V30 686 H 69.4706 0.973017 -2.83677 0
M  V30 687 H 67.0236 0.471486 -1.49019 0
M  V30 688 H 67.7586 2.99406 -1.24604 0
M  V30 689 H 67.5436 2.56305 -2.96732 0
M  V30 690 H 69.0336 3.39543 -2.43105 0
M  V30 691 N 69.4707 1.49531 0.497807 0
M  V30 692 C 70.7177 1.59179 1.25173 0
M  V30 693 C 71.0457 0.279932 1.92475 0
M  V30 694 O 70.3007 -0.732383 1.81479 0
M  V30 695 C 70.5997 2.70252 2.33878 0
M  V30 696 C 70.2657 4.11644 1.84012 0
M  V30 697 C 68.9277 4.50121 1.70132 0
M  V30 698 C 71.2797 5.00121 1.46725 0
M  V30 699 C 68.6077 5.74845 1.17348 0
M  V30 700 C 70.9597 6.25366 0.95392 0
M  V30 701 C 69.6237 6.6267 0.801538 0
M  V30 702 H 68.8937 0.582478 0.45804 0
M  V30 703 H 71.5407 1.83373 0.551948 0
M  V30 704 H 69.8457 2.40041 3.09657 0
M  V30 705 H 71.5427 2.74925 2.9192 0
M  V30 706 H 68.1327 3.81274 1.95775 0
M  V30 707 H 72.3167 4.71048 1.56294 0
M  V30 708 H 67.5727 6.02444 1.04264 0
M  V30 709 H 71.7467 6.93301 0.656225 0
M  V30 710 H 69.3737 7.59197 0.390351 0
M  V30 711 N 70.9488 -0.749086 1.3866 0
M  V30 712 C 72.1738 -1.54344 1.38538 0
M  V30 713 C 72.5988 -1.88088 -0.0216655 0
M  V30 714 O 71.9568 -1.50899 -1.00494 0
M  V30 715 C 72.0048 -2.8164 2.25192 0
M  V30 716 O 71.1088 -3.7698 1.67212 0
M  V30 717 H 70.4498 -0.466654 0.472367 0
M  V30 718 H 72.9798 -0.925355 1.82478 0
M  V30 719 H 72.9898 -3.30519 2.3921 0
M  V30 720 H 71.6648 -2.56411 3.27454 0
M  V30 721 H 70.2418 -3.35699 1.6236 0
M  V30 722 N 72.4269 -1.23603 -0.977757 0
M  V30 723 C 73.8429 -0.999251 -1.24447 0
M  V30 724 C 74.0429 0.298053 -1.99283 0
M  V30 725 O 73.0989 1.01681 -2.31122 0
M  V30 726 C 74.4119 -2.20784 -2.04144 0
M  V30 727 C 75.9599 -2.25303 -2.17273 0
M  V30 728 C 76.4349 -3.45755 -3.00362 0
M  V30 729 N 77.9259 -3.4601 -3.07947 0
M  V30 730 C 78.6609 -4.35868 -3.72568 0
M  V30 731 N 78.1569 -5.35966 -4.38991 0
M  V30 732 N 79.9499 -4.23605 -3.6948 0
M  V30 733 H 72.1009 -2.06986 -0.476483 0
M  V30 734 H 74.3639 -0.907801 -0.273134 0
M  V30 735 H 74.0699 -3.14945 -1.56533 0
M  V30 736 H 73.9439 -2.22085 -3.04891 0
M  V30 737 H 76.3309 -1.3168 -2.64092 0
M  V30 738 H 76.4119 -2.28033 -1.15907 0
M  V30 739 H 76.0559 -4.39687 -2.5424 0
M  V30 740 H 75.9859 -3.40266 -4.01904 0
M  V30 741 H 78.4769 -2.73588 -2.60688 0
M  V30 742 H 78.7899 -6.00783 -4.86086 0
M  V30 743 H 77.1349 -5.39863 -4.37691 0
M  V30 744 H 80.3259 -3.44647 -3.16759 0
M  V30 745 H 80.4989 -4.93836 -4.1956 0
M  V30 746 N 73.905 1.17692 -1.04816 0
M  V30 747 C 75.151 1.88137 -0.75711 0
M  V30 748 C 75.484 1.80604 0.713841 0
M  V30 749 O 74.759 1.21146 1.52164 0
M  V30 750 C 75.042 3.38318 -1.2334 0
M  V30 751 C 74.895 3.54622 -2.76701 0
M  V30 752 C 76.214 4.32214 -0.829415 0
M  V30 753 H 73.333 0.683163 -0.27651 0
M  V30 754 H 75.975 1.38424 -1.30149 0
M  V30 755 H 74.125 3.80787 -0.770286 0
M  V30 756 H 75.797 3.21194 -3.31107 0
M  V30 757 H 74.04 2.97026 -3.16161 0
M  V30 758 H 74.711 4.60028 -3.05088 0
M  V30 759 H 77.187 3.97565 -1.22805 0
M  V30 760 H 76.063 5.35838 -1.19033 0
M  V30 761 H 76.324 4.41294 0.266891 0
M  V30 762 N 75.3831 0.828654 1.34056 0
M  V30 763 C 76.3301 0.252567 2.29414 0
M  V30 764 C 77.3001 -0.62588 1.53857 0
M  V30 765 O 78.4851 -0.566312 1.82202 0
M  V30 766 C 75.6251 -0.574831 3.40279 0
M  V30 767 C 74.7381 0.326499 4.30764 0
M  V30 768 C 73.8731 -0.511016 5.28736 0
M  V30 769 C 72.9121 0.389342 6.1086 0
M  V30 770 N 72.0491 -0.409439 7.00905 0
M  V30 771 H 76.8891 1.07108 2.78086 0
M  V30 772 H 74.4261 0.539677 1.36843 0
M  V30 773 H 76.3841 -1.06992 4.03248 0
M  V30 774 H 75.0141 -1.35841 2.92826 0
M  V30 775 H 74.0661 0.939837 3.68607 0
M  V30 776 H 75.3781 1.01857 4.88289 0
M  V30 777 H 74.5321 -1.07035 5.97184 0
M  V30 778 H 73.2711 -1.23657 4.71763 0
M  V30 779 H 72.2761 0.960769 5.4134 0
M  V30 780 H 73.5011 1.1131 6.69916 0
M  V30 781 H 71.4471 -1.11856 6.46393 0
M  V30 782 H 71.3641 0.224126 7.55668 0
M  V30 783 H 72.6321 -0.951336 7.73673 0
M  V30 784 N 76.8612 -1.46375 0.584142 0
M  V30 785 C 78.0892 -2.06761 0.0759296 0
M  V30 786 C 78.5042 -1.43266 -1.22965 0
M  V30 787 O 77.8612 -0.538458 -1.74376 0
M  V30 788 C 77.9122 -3.61375 -0.0950384 0
M  V30 789 O 77.6332 -4.22495 1.15887 0
M  V30 790 C 79.1342 -4.38693 -0.637434 0
M  V30 791 H 76.3542 -0.668479 0.0581075 0
M  V30 792 H 78.8982 -1.8798 0.805218 0
M  V30 793 H 77.0532 -3.79578 -0.774554 0
M  V30 794 H 77.4672 -5.15385 0.973598 0
M  V30 795 H 78.9412 -5.47464 -0.706237 0
M  V30 796 H 79.4182 -4.06836 -1.65472 0
M  V30 797 H 80.0242 -4.25299 0.00725967 0
M  V30 798 N 78.3393 -0.321999 -1.54275 0
M  V30 799 C 79.5863 0.281044 -2.0054 0
M  V30 800 C 79.9143 1.52265 -1.21019 0
M  V30 801 O 79.1693 1.93687 -0.279982 0
M  V30 802 C 79.4683 0.661769 -3.5122 0
M  V30 803 C 79.1343 -0.480482 -4.48333 0
M  V30 804 C 77.7963 -0.794005 -4.74604 0
M  V30 805 C 80.1483 -1.24783 -5.06042 0
M  V30 806 C 77.4763 -1.87763 -5.55844 0
M  V30 807 C 79.8283 -2.32153 -5.88462 0
M  V30 808 C 78.4923 -2.64089 -6.13036 0
M  V30 809 H 77.7623 0.102841 -0.733829 0
M  V30 810 H 80.4093 -0.445453 -1.86247 0
M  V30 811 H 78.7143 1.46867 -3.63232 0
M  V30 812 H 80.4113 1.13989 -3.84457 0
M  V30 813 H 77.0013 -0.226039 -4.28004 0
M  V30 814 H 81.1853 -1.01887 -4.85729 0
M  V30 815 H 76.4413 -2.12954 -5.73115 0
M  V30 816 H 80.6153 -2.92057 -6.32199 0
M  V30 817 H 78.2423 -3.48185 -6.75775 0
M  V30 818 N 79.8174 1.5752 -0.0501392 0
M  V30 819 C 81.0644 1.9265 0.623874 0
M  V30 820 C 81.3924 0.928411 1.70912 0
M  V30 821 O 80.6474 -0.0594525 1.9561 0
M  V30 822 C 80.9464 3.34467 1.25963 0
M  V30 823 C 80.6124 4.49883 0.302689 0
M  V30 824 C 79.2744 4.81184 0.0393636 0
M  V30 825 C 81.6264 5.20002 -0.353205 0
M  V30 826 C 78.9544 5.79951 -0.887308 0
M  V30 827 C 81.3064 6.1976 -1.26806 0
M  V30 828 C 79.9704 6.49491 -1.54007 0
M  V30 829 H 79.2404 0.704957 0.228292 0
M  V30 830 H 81.8874 1.91146 -0.116398 0
M  V30 831 H 80.1924 3.32333 2.07514 0
M  V30 832 H 81.8894 3.58928 1.78806 0
M  V30 833 H 78.4794 4.25457 0.518109 0
M  V30 834 H 82.6634 4.96033 -0.162854 0
M  V30 835 H 77.9194 6.01322 -1.10553 0
M  V30 836 H 82.0934 6.73205 -1.78236 0
M  V30 837 H 79.7204 7.25837 -2.25976 0
M  V30 838 N 81.2955 -0.223234 1.56011 0
M  V30 839 C 82.2275 -1.30006 1.88762 0
M  V30 840 C 83.2405 -1.43129 0.775746 0
M  V30 841 O 84.4295 -1.44057 1.05403 0
M  V30 842 C 81.5295 -2.67589 2.07965 0
M  V30 843 C 80.7025 -2.76434 3.38973 0
M  V30 844 C 79.7615 -3.95019 3.47629 0
M  V30 845 O 78.7875 -3.83436 4.20672 0
M  V30 846 N 79.9895 -5.09249 2.78649 0
M  V30 847 H 82.7545 -1.02238 2.81722 0
M  V30 848 H 80.3155 -0.413278 1.56536 0
M  V30 849 H 82.3075 -3.45297 2.11073 0
M  V30 850 H 80.8775 -2.87964 1.21638 0
M  V30 851 H 80.0975 -1.85216 3.47978 0
M  V30 852 H 81.3855 -2.79313 4.25278 0
M  V30 853 H 80.7835 -5.21556 2.19081 0
M  V30 854 H 79.3405 -5.85007 2.8742 0
M  V30 855 N 82.7736 -1.49793 -0.48987 0
M  V30 856 C 83.7066 -1.61898 -1.60823 0
M  V30 857 C 84.6846 -0.467651 -1.5573 0
M  V30 858 O 85.8686 -0.684682 -1.75626 0
M  V30 859 C 82.9956 -1.58422 -2.99366 0
M  V30 860 C 82.0416 -2.78889 -3.22682 0
M  V30 861 S 82.8746 -4.40429 -3.04602 0
M  V30 862 C 84.0306 -4.39617 -4.4552 0
M  V30 863 H 84.2636 -2.56502 -1.50312 0
M  V30 864 H 81.7966 -1.38822 -0.675849 0
M  V30 865 H 83.7546 -1.57103 -3.79248 0
M  V30 866 H 82.4156 -0.650866 -3.07283 0
M  V30 867 H 81.6086 -2.72708 -4.23847 0
M  V30 868 H 81.2106 -2.77678 -2.50541 0
M  V30 869 H 83.5026 -4.12022 -5.37814 0
M  V30 870 H 84.4456 -5.41097 -4.56749 0
M  V30 871 H 84.8536 -3.69554 -4.2672 0
M  V30 872 N 84.2517 0.741722 -1.39055 0
M  V30 873 C 85.1987 1.85566 -1.37237 0
M  V30 874 C 86.1687 1.64457 -0.233072 0
M  V30 875 O 87.3537 1.85957 -0.427147 0
M  V30 876 C 84.4937 3.23004 -1.215 0
M  V30 877 C 83.6067 3.55864 -2.44918 0
M  V30 878 C 82.7417 4.82669 -2.21821 0
M  V30 879 C 81.7807 5.08351 -3.40948 0
M  V30 880 N 80.9177 6.26356 -3.17211 0
M  V30 881 H 85.7577 1.86455 -2.32462 0
M  V30 882 H 83.2947 0.911176 -1.15482 0
M  V30 883 H 85.2527 4.02331 -1.10389 0
M  V30 884 H 83.8827 3.21411 -0.29908 0
M  V30 885 H 82.9347 2.7129 -2.66657 0
M  V30 886 H 84.2467 3.70765 -3.33668 0
M  V30 887 H 83.4007 5.69962 -2.07914 0
M  V30 888 H 82.1397 4.69929 -1.30454 0
M  V30 889 H 81.1447 4.19522 -3.55361 0
M  V30 890 H 82.3697 5.22981 -4.33207 0
M  V30 891 H 80.3157 6.14917 -2.28502 0
M  V30 892 H 80.2327 6.41813 -3.99515 0
M  V30 893 H 81.5007 7.16506 -3.06984 0
M  V30 894 N 85.7298 1.2412 0.971189 0
M  V30 895 C 87.0068 0.986867 1.6888 0
M  V30 896 C 87.3868 -0.491857 2.0529 0
M  V30 897 O 86.7348 -1.46531 1.75331 0
M  V30 898 C 86.9448 1.9063 2.92338 0
M  V30 899 C 88.2928 2.17515 3.64654 0
M  V30 900 O 89.3168 1.88254 3.02388 0
M  V30 901 O 88.1758 2.6719 4.7673 0
M  V30 902 H 85.2698 0.372944 0.738134 0
M  V30 903 H 87.8158 1.35203 1.02559 0
M  V30 904 H 86.5878 2.90552 2.62097 0
M  V30 905 H 86.2108 1.54408 3.66393 0
M  V30 906 N 87.2079 -1.17134 1.05439 0
M  V30 907 C 88.1399 -2.2078 0.615539 0
M  V30 908 C 89.1529 -1.59584 -0.322001 0
M  V30 909 O 90.3419 -1.78133 -0.114344 0
M  V30 910 C 87.4419 -3.38691 -0.118938 0
M  V30 911 C 86.6149 -4.29454 0.829924 0
M  V30 912 C 85.6739 -5.26024 0.136258 0
M  V30 913 O 84.6999 -5.63952 0.77115 0
M  V30 914 N 85.9019 -5.69487 -1.1254 0
M  V30 915 H 88.6669 -2.59052 1.50705 0
M  V30 916 H 86.2279 -1.32058 0.936603 0
M  V30 917 H 88.2199 -4.00329 -0.593179 0
M  V30 918 H 86.7899 -2.98996 -0.91215 0
M  V30 919 H 86.0099 -3.65211 1.48373 0
M  V30 920 H 87.2979 -4.86984 1.47392 0
M  V30 921 H 86.6959 -5.4075 -1.6615 0
M  V30 922 H 85.2529 -6.33257 -1.54366 0
M  V30 923 N 88.686 -0.835752 -1.33615 0
M  V30 924 C 89.616 -0.281739 -2.31794 0
M  V30 925 C 90.597 0.608833 -1.58831 0
M  V30 926 O 91.782 0.533035 -1.86741 0
M  V30 927 C 88.912 0.546612 -3.42971 0
M  V30 928 C 87.866 -0.247904 -4.27281 0
M  V30 929 C 87.192 0.704001 -5.30045 0
M  V30 930 C 88.492 -1.46324 -5.01385 0
M  V30 931 H 90.186 -1.10206 -2.78379 0
M  V30 932 H 87.732 -0.531388 -1.33837 0
M  V30 933 H 89.685 0.944467 -4.1068 0
M  V30 934 H 88.409 1.40011 -2.95067 0
M  V30 935 H 87.068 -0.627281 -3.61194 0
M  V30 936 H 86.716 1.55381 -4.78399 0
M  V30 937 H 86.416 0.176524 -5.87335 0
M  V30 938 H 87.94 1.09944 -6.0062 0
M  V30 939 H 89.354 -1.13871 -5.61877 0
M  V30 940 H 87.751 -1.92728 -5.6831 0
M  V30 941 H 88.821 -2.23467 -4.30338 0
M  V30 942 N 90.1641 1.46063 -0.591896 0
M  V30 943 C 91.4411 1.95595 -0.0137119 0
M  V30 944 C 91.8211 1.5345 1.4497 0
M  V30 945 O 91.1691 0.789543 2.14426 0
M  V30 946 C 91.3791 3.48453 -0.195373 0
M  V30 947 C 92.7271 4.24546 -0.0679765 0
M  V30 948 O 93.7511 3.55982 -0.124681 0
M  V30 949 O 92.6101 5.46467 0.0600579 0
M  V30 950 H 89.7041 0.825795 0.0446279 0
M  V30 951 H 92.2501 1.56303 -0.660859 0
M  V30 952 H 91.0221 3.72045 -1.21235 0
M  V30 953 H 90.6451 3.94597 0.487775 0
M  V30 954 N 91.6422 0.330177 1.54103 0
M  V30 955 C 92.5902 -0.548226 2.26047 0
M  V30 956 C 93.5842 -1.11309 1.27698 0
M  V30 957 O 94.7902 -1.06036 1.45452 0
M  V30 958 H 91.1652 -0.195456 0.726155 0
M  V30 959 H 93.1362 0.0807567 2.98291 0
M  V30 960 C 91.8852 -1.69415 3.03634 0
M  V30 961 H 91.2082 -1.26876 3.79134 0
M  V30 962 H 92.6482 -2.28423 3.5721 0
M  V30 963 C 91.1072 -2.61569 2.12328 0
M  V30 964 O 91.6372 -3.63462 1.7105 0
M  V30 965 N 89.8432 -2.29952 1.77681 0
M  V30 966 H 89.3902 -1.47134 2.11446 0
M  V30 967 H 89.3482 -2.91871 1.16869 0
M  V30 968 N 93.1203 -1.57491 0.0584922 0
M  V30 969 C 94.0503 -2.14988 -0.911178 0
M  V30 970 C 95.0313 -1.07343 -1.31952 0
M  V30 971 O 96.2163 -1.35318 -1.39294 0
M  V30 972 C 93.3463 -2.70078 -2.18347 0
M  V30 973 C 92.3003 -3.82771 -1.91495 0
M  V30 974 C 91.6263 -4.24408 -3.25241 0
M  V30 975 C 92.9263 -5.07592 -1.23075 0
M  V30 976 H 94.6203 -2.96263 -0.432246 0
M  V30 977 H 92.1663 -1.42512 -0.206469 0
M  V30 978 H 94.1193 -3.08943 -2.86587 0
M  V30 979 H 92.8433 -1.86005 -2.68458 0
M  V30 980 H 91.5023 -3.44389 -1.25664 0
M  V30 981 H 91.1503 -3.37275 -3.73168 0
M  V30 982 H 90.8503 -5.00366 -3.08071 0
M  V30 983 H 92.3743 -4.65879 -3.94701 0
M  V30 984 H 93.7883 -5.43857 -1.81362 0
M  V30 985 H 92.1853 -5.88741 -1.16207 0
M  V30 986 H 93.2553 -4.84454 -0.207847 0
M  V30 987 N 94.5984 0.214957 -1.56127 0
M  V30 988 C 95.5284 1.2695 -1.95974 0
M  V30 989 C 96.5094 1.48539 -0.828868 0
M  V30 990 O 97.6944 1.60611 -1.09168 0
M  V30 991 C 94.8244 2.61794 -2.28214 0
M  V30 992 C 93.7784 2.54851 -3.43853 0
M  V30 993 C 93.1044 3.93785 -3.61715 0
M  V30 994 C 94.4044 2.09065 -4.78632 0
M  V30 995 H 96.0984 0.93846 -2.84312 0
M  V30 996 H 93.6444 0.449996 -1.36788 0
M  V30 997 H 95.5974 3.35731 -2.54682 0
M  V30 998 H 94.3214 2.96599 -1.36736 0
M  V30 999 H 92.9804 1.8337 -3.17444 0
M  V30 1000 H 92.6284 4.25908 -2.67602 0
M  V30 1001 H 92.3284 3.90019 -4.39498 0
M  V30 1002 H 93.8524 4.69374 -3.90539 0
M  V30 1003 H 95.2664 2.7275 -5.04262 0
M  V30 1004 H 93.6634 2.16346 -5.59745 0
M  V30 1005 H 94.7334 1.04315 -4.73547 0
M  V30 1006 N 96.0765 1.50051 0.48192 0
M  V30 1007 C 97.0065 1.71046 1.58951 0
M  V30 1008 C 97.9875 0.559288 1.60642 0
M  V30 1009 O 99.1725 0.797243 1.77081 0
M  V30 1010 C 96.3025 1.79462 2.97339 0
M  V30 1011 C 95.2565 2.94558 3.10515 0
M  V30 1012 C 94.5825 2.88105 4.50444 0
M  V30 1013 C 95.8825 4.35227 2.88747 0
M  V30 1014 H 97.5765 2.6378 1.41635 0
M  V30 1015 H 95.1225 1.26936 0.679942 0
M  V30 1016 H 97.0755 1.92734 3.74742 0
M  V30 1017 H 95.7995 0.833412 3.15788 0
M  V30 1018 H 94.4585 2.80918 2.35543 0
M  V30 1019 H 94.1065 1.89853 4.65795 0
M  V30 1020 H 93.8065 3.65366 4.60197 0
M  V30 1021 H 95.3305 3.03412 5.29881 0
M  V30 1022 H 96.7445 4.49449 3.55905 0
M  V30 1023 H 95.1415 5.13856 3.09955 0
M  V30 1024 H 96.2115 4.48347 1.84696 0
M  V30 1025 N 97.5546 -0.734337 1.39446 0
M  V30 1026 C 98.5016 -1.84835 1.38219 0
M  V30 1027 C 99.4716 -1.64331 0.24179 0
M  V30 1028 O 100.657 -1.85728 0.437002 0
M  V30 1029 C 97.7966 -3.22355 1.23212 0
M  V30 1030 C 96.9096 -3.5456 2.46801 0
M  V30 1031 C 96.0446 -4.81485 2.24377 0
M  V30 1032 C 95.0836 -5.06536 3.43639 0
M  V30 1033 N 94.2206 -6.24665 3.20528 0
M  V30 1034 H 99.0606 -1.85219 2.33448 0
M  V30 1035 H 96.5976 -0.905039 1.15963 0
M  V30 1036 H 98.5556 -4.0174 1.12522 0
M  V30 1037 H 97.1856 -3.21248 0.316121 0
M  V30 1038 H 96.2376 -2.69872 2.68092 0
M  V30 1039 H 97.5496 -3.6899 3.3563 0
M  V30 1040 H 96.7036 -5.68852 2.10933 0
M  V30 1041 H 95.4426 -4.6923 1.32944 0
M  V30 1042 H 94.4476 -4.17632 3.5758 0
M  V30 1043 H 95.6726 -5.20676 4.35974 0
M  V30 1044 H 93.6186 -6.13696 2.3176 0
M  V30 1045 H 93.5356 -6.39685 4.02913 0
M  V30 1046 H 94.8036 -7.14868 3.10779 0
M  V30 1047 N 99.0327 -1.24633 -0.964593 0
M  V30 1048 C 99.9427 -1.05859 -2.09359 0
M  V30 1049 C 100.959 0.00148855 -1.74 0
M  V30 1050 O 102.135 -0.197346 -2.00431 0
M  V30 1051 C 99.1997 -0.668879 -3.40187 0
M  V30 1052 C 98.2607 -1.80578 -3.89474 0
M  V30 1053 C 97.4937 -1.43457 -5.14058 0
M  V30 1054 O 97.7167 -0.325775 -5.69469 0
M  V30 1055 O 96.6507 -2.2613 -5.57807 0
M  V30 1056 H 100.477 -2.00516 -2.28094 0
M  V30 1057 H 98.0617 -1.03481 -1.0776 0
M  V30 1058 H 99.9437 -0.463211 -4.18846 0
M  V30 1059 H 98.6187 0.248536 -3.22744 0
M  V30 1060 H 97.5257 -2.06623 -3.11862 0
M  V30 1061 H 98.8587 -2.70208 -4.11398 0
M  V30 1062 N 100.511 1.16574 -1.06058 0
M  V30 1063 C 101.736 1.91493 -0.796562 0
M  V30 1064 C 102.161 1.76773 0.642868 0
M  V30 1065 O 101.519 1.09142 1.44768 0
M  V30 1066 C 101.567 3.40293 -1.19303 0
M  V30 1067 O 100.671 4.11074 -0.330394 0
M  V30 1068 H 100.012 0.596678 -0.291326 0
M  V30 1069 H 102.542 1.47708 -1.41575 0
M  V30 1070 H 102.552 3.91057 -1.16356 0
M  V30 1071 H 101.227 3.50326 -2.24153 0
M  V30 1072 H 99.8038 3.70513 -0.421225 0
M  V30 1073 N 101.989 0.842826 1.3317 0
M  V30 1074 C 102.919 0.294028 2.31641 0
M  V30 1075 C 103.9 -0.600401 1.59151 0
M  V30 1076 O 105.085 -0.523124 1.87022 0
M  V30 1077 C 102.215 -0.528416 3.43257 0
M  V30 1078 C 101.169 0.27056 4.27144 0
M  V30 1079 C 100.495 -0.675881 5.30411 0
M  V30 1080 C 101.795 1.48981 5.00602 0
M  V30 1081 H 103.489 1.11681 2.77791 0
M  V30 1082 H 101.035 0.538478 1.33553 0
M  V30 1083 H 102.988 -0.922674 4.11175 0
M  V30 1084 H 101.712 -1.38445 2.95805 0
M  V30 1085 H 100.371 0.646427 3.60856 0
M  V30 1086 H 100.019 -1.52842 4.79216 0
M  V30 1087 H 99.7189 -0.145374 5.8742 0
M  V30 1088 H 101.243 -1.06757 6.01195 0
M  V30 1089 H 102.657 1.16849 5.61266 0
M  V30 1090 H 101.054 1.95739 5.6728 0
M  V30 1091 H 102.124 2.25746 4.29147 0
M  V30 1092 N 103.467 -1.45747 0.599634 0
M  V30 1093 C 104.397 -2.33235 -0.111306 0
M  V30 1094 C 105.378 -1.46359 -0.866781 0
M  V30 1095 O 106.563 -1.75146 -0.838904 0
M  V30 1096 C 103.693 -3.28932 -1.11451 0
M  V30 1097 C 102.647 -4.25381 -0.472772 0
M  V30 1098 C 101.973 -5.1071 -1.58365 0
M  V30 1099 C 103.273 -5.18831 0.600948 0
M  V30 1100 H 104.967 -2.92927 0.61919 0
M  V30 1101 H 102.513 -1.40857 0.299215 0
M  V30 1102 H 104.466 -3.89002 -1.62036 0
M  V30 1103 H 103.19 -2.67381 -1.8755 0
M  V30 1104 H 101.849 -3.66598 0.0121472 0
M  V30 1105 H 101.497 -4.45533 -2.33473 0
M  V30 1106 H 101.197 -5.7604 -1.15982 0
M  V30 1107 H 102.721 -5.73647 -2.09194 0
M  V30 1108 H 104.135 -5.73019 0.179491 0
M  V30 1109 H 102.532 -5.92595 0.946076 0
M  V30 1110 H 103.602 -4.6174 1.48068 0
M  V30 1111 N 104.945 -0.338344 -1.53925 0
M  V30 1112 C 105.855 0.529421 -2.28548 0
M  V30 1113 C 106.871 1.11645 -1.3346 0
M  V30 1114 O 108.047 1.13325 -1.66492 0
M  V30 1115 C 105.112 1.66713 -3.03987 0
M  V30 1116 C 104.173 1.11041 -4.14691 0
M  V30 1117 C 103.406 2.19389 -4.86522 0
M  V30 1118 O 103.629 3.40013 -4.57982 0
M  V30 1119 O 102.563 1.83976 -5.73094 0
M  V30 1120 H 106.389 -0.0770399 -3.03602 0
M  V30 1121 H 103.974 -0.103555 -1.49041 0
M  V30 1122 H 105.856 2.32918 -3.5118 0
M  V30 1123 H 104.531 2.25949 -2.31794 0
M  V30 1124 H 103.438 0.413024 -3.71813 0
M  V30 1125 H 104.771 0.562975 -4.8897 0
M  V30 1126 N 106.423 1.57458 -0.0668435 0
M  V30 1127 C 107.7 1.8469 0.644132 0
M  V30 1128 C 108.08 0.958343 1.88093 0
M  V30 1129 O 107.428 0.0233579 2.28488 0
M  V30 1130 C 107.638 3.34767 0.986509 0
M  V30 1131 C 108.986 4.02159 1.36212 0
M  V30 1132 O 110.01 3.39484 1.07839 0
M  V30 1133 O 108.869 5.12694 1.89227 0
M  V30 1134 H 105.963 0.762816 0.319437 0
M  V30 1135 H 108.509 1.6942 -0.0973986 0
M  V30 1136 H 107.281 3.91151 0.107883 0
M  V30 1137 H 106.904 3.55281 1.78497 0
M  V30 1138 N 107.901 -0.206675 1.56239 0
M  V30 1139 C 109.148 -0.928842 1.79941 0
M  V30 1140 C 109.476 -1.83734 0.638131 0
M  V30 1141 O 108.731 -1.92039 -0.376746 0
M  V30 1142 C 109.03 -1.78675 3.09532 0
M  V30 1143 C 108.696 -1.03022 4.38973 0
M  V30 1144 C 107.358 -0.821302 4.74139 0
M  V30 1145 C 109.71 -0.497081 5.18824 0
M  V30 1146 C 107.038 -0.0675719 5.86661 0
M  V30 1147 C 109.39 0.24338 6.32132 0
M  V30 1148 C 108.054 0.463422 6.65889 0
M  V30 1149 H 107.324 -0.339887 0.658451 0
M  V30 1150 H 109.971 -0.195977 1.90495 0
M  V30 1151 H 108.276 -2.58794 2.94165 0
M  V30 1152 H 109.973 -2.34792 3.25075 0
M  V30 1153 H 106.563 -1.20306 4.11369 0
M  V30 1154 H 110.747 -0.645921 4.92079 0
M  V30 1155 H 106.003 0.112995 6.11296 0
M  V30 1156 H 110.177 0.66393 6.93228 0
M  V30 1157 H 107.804 1.04938 7.52922 0
M  V30 1158 N 109.379 -1.50304 -0.473955 0
M  V30 1159 C 110.326 -1.68959 -1.57231 0
M  V30 1160 C 111.296 -0.530899 -1.57387 0
M  V30 1161 O 112.481 -0.761133 -1.74961 0
M  V30 1162 C 109.621 -1.7871 -2.95223 0
M  V30 1163 C 108.734 -3.06061 -3.04878 0
M  V30 1164 C 107.869 -3.06626 -4.33767 0
M  V30 1165 C 106.908 -4.28443 -4.37154 0
M  V30 1166 N 106.045 -4.26763 -5.5751 0
M  V30 1167 H 110.885 -2.6273 -1.40631 0
M  V30 1168 H 108.422 -1.30241 -0.683789 0
M  V30 1169 H 110.38 -1.82344 -3.75242 0
M  V30 1170 H 109.01 -0.883806 -3.10465 0
M  V30 1171 H 108.062 -3.11911 -2.17751 0
M  V30 1172 H 109.374 -3.96039 -3.0324 0
M  V30 1173 H 108.528 -3.08973 -5.22131 0
M  V30 1174 H 107.267 -2.14473 -4.3801 0
M  V30 1175 H 106.272 -4.2631 -3.47188 0
M  V30 1176 H 107.497 -5.2182 -4.34605 0
M  V30 1177 H 105.443 -3.37462 -5.62544 0
M  V30 1178 H 105.36 -5.10507 -5.57601 0
M  V30 1179 H 106.628 -4.33253 -6.48006 0
M  V30 1180 N 110.857 0.726932 -1.39834 0
M  V30 1181 C 112.105 1.4837 -1.37225 0
M  V30 1182 C 112.426 1.94979 0.0284857 0
M  V30 1183 O 111.696 1.69555 0.981213 0
M  V30 1184 H 110.276 0.55043 -0.505011 0
M  V30 1185 H 112.938 0.862468 -1.74778 0
M  V30 1186 H 112.034 2.36198 -2.04003 0
M  V30 1187 N 112.336 1.25143 0.95797 0
M  V30 1188 C 113.566 1.12261 1.73439 0
M  V30 1189 C 113.974 -0.326715 1.86358 0
M  V30 1190 O 113.317 -1.2367 1.35836 0
M  V30 1191 C 113.379 1.69966 3.16784 0
M  V30 1192 C 113.043 3.18936 3.27305 0
M  V30 1193 C 114.04 4.15968 3.11877 0
M  V30 1194 C 111.725 3.59083 3.51234 0
M  V30 1195 C 113.719 5.51126 3.20217 0
M  V30 1196 C 111.406 4.9438 3.5921 0
M  V30 1197 C 112.404 5.90211 3.43716 0
M  V30 1198 O 112.092 7.23046 3.51368 0
M  V30 1199 H 111.824 0.392476 0.550399 0
M  V30 1200 H 114.378 1.65927 1.21068 0
M  V30 1201 H 112.608 1.10744 3.70503 0
M  V30 1202 H 114.297 1.52232 3.76272 0
M  V30 1203 H 115.063 3.86292 2.93264 0
M  V30 1204 H 110.942 2.84989 3.62356 0
M  V30 1205 H 114.486 6.25905 3.0804 0
M  V30 1206 H 110.383 5.23723 3.77339 0
M  V30 1207 H 111.151 7.31097 3.6802 0
M  V30 1208 N 113.814 -1.1601 1.06675 0
M  V30 1209 C 114.744 -2.22688 0.702307 0
M  V30 1210 C 115.725 -1.67306 -0.307032 0
M  V30 1211 O 116.91 -1.93352 -0.181305 0
M  V30 1212 C 114.04 -3.47178 0.092038 0
M  V30 1213 C 112.994 -4.15477 1.02777 0
M  V30 1214 C 112.32 -5.33963 0.28061 0
M  V30 1215 C 113.62 -4.66019 2.35846 0
M  V30 1216 H 115.314 -2.53429 1.59419 0
M  V30 1217 H 112.86 -1.21813 0.767961 0
M  V30 1218 H 114.813 -4.21037 -0.174814 0
M  V30 1219 H 113.537 -3.15749 -0.834877 0
M  V30 1220 H 112.196 -3.43549 1.27944 0
M  V30 1221 H 111.844 -4.98788 -0.649545 0
M  V30 1222 H 111.544 -5.806 0.904258 0
M  V30 1223 H 113.068 -6.10596 0.021396 0
M  V30 1224 H 114.482 -5.3144 2.15045 0
M  V30 1225 H 112.879 -5.23293 2.93743 0
M  V30 1226 H 113.949 -3.82023 2.98641 0
M  V30 1227 N 115.292 -0.849877 -1.32721 0
M  V30 1228 C 116.54 -0.450032 -1.97026 0
M  V30 1229 C 116.861 0.996604 -1.67609 0
M  V30 1230 O 116.131 1.6958 -0.980786 0
M  V30 1231 H 114.711 -0.163426 -0.728904 0
M  V30 1232 H 117.373 -1.08526 -1.6189 0
M  V30 1233 H 116.469 -0.591146 -3.0645 0
M  V30 1234 N 116.77 1.45427 -0.607355 0
M  V30 1235 C 118.01 2.04128 -0.105458 0
M  V30 1236 C 118.374 1.46555 1.24039 0
M  V30 1237 O 119.575 1.96608 1.833 0
M  V30 1238 C 117.846 3.57338 -0.0665324 0
M  V30 1239 S 119.405 4.37201 0.374207 0
M  V30 1240 H 116.223 0.709278 -0.0494575 0
M  V30 1241 H 118.825 1.78139 -0.805404 0
M  V30 1242 H 117.529 3.96752 -1.04957 0
M  V30 1243 H 117.06 3.87902 0.655415 0
M  V30 1244 H 119.075 4.6888 1.62377 0
M  V30 1245 N 118.248 0.346503 1.53744 0
M  V30 1246 C 119.18 -0.543316 2.22667 0
M  V30 1247 C 120.193 -1.06159 1.23427 0
M  V30 1248 O 121.382 -0.971235 1.49764 0
M  V30 1249 C 118.482 -1.76076 2.89569 0
M  V30 1250 C 117.655 -1.37727 4.15151 0
M  V30 1251 C 116.714 -2.45471 4.65436 0
M  V30 1252 O 115.74 -2.08655 5.29577 0
M  V30 1253 N 116.942 -3.7677 4.41616 0
M  V30 1254 H 119.707 0.0469703 2.99663 0
M  V30 1255 H 117.268 0.170766 1.60997 0
M  V30 1256 H 119.26 -2.47593 3.20125 0
M  V30 1257 H 117.83 -2.25835 2.16142 0
M  V30 1258 H 117.05 -0.492746 3.91108 0
M  V30 1259 H 118.338 -1.09708 4.96832 0
M  V30 1260 H 117.736 -4.09467 3.90325 0
M  V30 1261 H 116.293 -4.44448 4.7677 0
M  V30 1262 N 119.726 -1.57421 0.075193 0
M  V30 1263 C 120.689 -2.11791 -0.876203 0
M  V30 1264 C 121.689 -1.04268 -1.22412 0
M  V30 1265 O 122.879 -1.30242 -1.15684 0
M  V30 1266 C 120.011 -2.62207 -2.17854 0
M  V30 1267 H 121.204 -2.9716 -0.40444 0
M  V30 1268 H 118.757 -1.55333 -0.173557 0
M  V30 1269 H 119.492 -1.803 -2.6956 0
M  V30 1270 H 119.277 -3.40802 -1.93897 0
M  V30 1271 H 120.767 -3.04335 -2.85955 0
M  V30 1272 N 121.204 0.198386 -1.56346 0
M  V30 1273 C 122.134 1.24865 -1.9731 0
M  V30 1274 C 123.115 1.47651 -0.844576 0
M  V30 1275 O 124.3 1.59444 -1.10866 0
M  V30 1276 C 121.43 2.59358 -2.30977 0
M  V30 1277 C 120.384 2.5119 -3.46537 0
M  V30 1278 C 119.71 3.89926 -3.65871 0
M  V30 1279 C 121.01 2.03977 -4.80823 0
M  V30 1280 H 122.704 0.908252 -2.85291 0
M  V30 1281 H 120.25 0.435462 -1.37258 0
M  V30 1282 H 122.203 3.33011 -2.58228 0
M  V30 1283 H 120.927 2.95132 -1.39874 0
M  V30 1284 H 119.586 1.79993 -3.19371 0
M  V30 1285 H 119.234 4.23046 -2.72105 0
M  V30 1286 H 118.934 3.85336 -4.4361 0
M  V30 1287 H 120.458 4.65205 -3.95495 0
M  V30 1288 H 121.872 2.67386 -5.07127 0
M  V30 1289 H 120.269 2.10397 -5.62008 0
M  V30 1290 H 121.339 0.992861 -4.74626 0
M  V30 1291 N 122.682 1.50554 0.465978 0
M  V30 1292 C 123.907 1.65838 1.24549 0
M  V30 1293 C 124.332 0.343486 1.84937 0
M  V30 1294 O 123.69 -0.69324 1.67523 0
M  V30 1295 C 123.738 2.75533 2.32624 0
M  V30 1296 O 122.842 2.37142 3.37398 0
M  V30 1297 H 122.183 0.553893 0.366194 0
M  V30 1298 H 124.713 1.96959 0.553927 0
M  V30 1299 H 124.723 2.98763 2.77857 0
M  V30 1300 H 123.398 3.70962 1.88043 0
M  V30 1301 H 121.975 2.24377 2.97841 0
M  V30 1302 N 124.16 -0.719506 1.40217 0
M  V30 1303 C 125.07 -1.86378 1.42479 0
M  V30 1304 C 126.086 -1.71073 0.317834 0
M  V30 1305 O 127.262 -1.93406 0.561794 0
M  V30 1306 C 124.327 -3.22136 1.28178 0
M  V30 1307 C 123.388 -3.49723 2.48982 0
M  V30 1308 C 122.621 -4.79004 2.35353 0
M  V30 1309 O 122.844 -5.53821 1.36524 0
M  V30 1310 O 121.778 -5.06839 3.2465 0
M  V30 1311 H 125.604 -1.87425 2.38968 0
M  V30 1312 H 123.189 -0.869405 1.21498 0
M  V30 1313 H 125.071 -4.03234 1.22395 0
M  V30 1314 H 123.746 -3.21825 0.347934 0
M  V30 1315 H 122.653 -2.6865 2.60342 0
M  V30 1316 H 123.986 -3.54828 3.41113 0
M  V30 1317 N 125.638 -1.25649 -0.95132 0
M  V30 1318 C 126.571 -1.00644 -2.04807 0
M  V30 1319 C 127.549 0.0654271 -1.62468 0
M  V30 1320 O 128.733 -0.074911 -1.88351 0
M  V30 1321 C 125.86 -0.522052 -3.34653 0
M  V30 1322 C 124.906 -1.58495 -3.95957 0
M  V30 1323 S 125.739 -3.17108 -4.31512 0
M  V30 1324 C 126.895 -2.70412 -5.64471 0
M  V30 1325 H 127.128 -1.93508 -2.25703 0
M  V30 1326 H 124.661 -1.09216 -1.09139 0
M  V30 1327 H 126.619 -0.24923 -4.09743 0
M  V30 1328 H 125.28 0.386146 -3.11717 0
M  V30 1329 H 124.473 -1.1968 -4.89584 0
M  V30 1330 H 124.075 -1.80862 -3.2736 0
M  V30 1331 H 126.367 -2.14245 -6.42733 0
M  V30 1332 H 127.31 -3.62693 -6.08161 0
M  V30 1333 H 127.718 -2.10302 -5.23864 0
M  V30 1334 N 127.117 1.15442 -1.07289 0
M  V30 1335 C 128.366 1.85557 -0.790669 0
M  V30 1336 C 128.679 1.83186 0.685739 0
M  V30 1337 O 129.885 2.48977 1.0827 0
M  V30 1338 C 128.341 3.33038 -1.36433 0
M  V30 1339 C 127.949 3.43856 -2.8717 0
M  V30 1340 C 129.693 4.0834 -1.1601 0
M  V30 1341 C 127.6 4.85482 -3.3773 0
M  V30 1342 H 126.53 0.695122 -0.292098 0
M  V30 1343 H 129.181 1.30219 -1.29287 0
M  V30 1344 H 127.563 3.88043 -0.789864 0
M  V30 1345 H 128.737 2.98961 -3.50655 0
M  V30 1346 H 127.052 2.81998 -3.06376 0
M  V30 1347 H 129.649 5.12859 -1.51262 0
M  V30 1348 H 129.992 4.16182 -0.0991007 0
M  V30 1349 H 130.525 3.59603 -1.70089 0
M  V30 1350 H 127.264 4.82823 -4.43353 0
M  V30 1351 H 126.784 5.30961 -2.78999 0
M  V30 1352 H 128.463 5.54335 -3.33648 0
M  V30 1353 N 128.595 0.856903 1.32268 0
M  V30 1354 C 129.527 0.260412 2.27716 0
M  V30 1355 C 130.54 -0.569137 1.52528 0
M  V30 1356 O 131.729 -0.39326 1.74114 0
M  V30 1357 C 128.829 -0.650477 3.32599 0
M  V30 1358 C 128.002 0.14372 4.37164 0
M  V30 1359 C 127.061 -0.69328 5.21613 0
M  V30 1360 O 126.087 -0.12599 5.69061 0
M  V30 1361 N 127.289 -2.00761 5.44679 0
M  V30 1362 H 130.054 1.08059 2.79541 0
M  V30 1363 H 127.615 0.717103 1.45152 0
M  V30 1364 H 129.607 -1.21581 3.86005 0
M  V30 1365 H 128.177 -1.37133 2.80915 0
M  V30 1366 H 127.397 0.890486 3.8401 0
M  V30 1367 H 128.685 0.68915 5.04111 0
M  V30 1368 H 128.083 -2.49181 5.07863 0
M  V30 1369 H 126.64 -2.52103 6.01072 0
M  V30 1370 N 130.073 -1.45103 0.615059 0
M  V30 1371 C 131.32 -2.02183 0.113179 0
M  V30 1372 C 131.648 -1.48249 -1.25906 0
M  V30 1373 O 130.903 -0.650265 -1.84581 0
M  V30 1374 C 131.202 -3.57386 0.0318797 0
M  V30 1375 C 130.868 -4.30505 1.34077 0
M  V30 1376 C 129.53 -4.50197 1.69929 0
M  V30 1377 C 131.882 -4.72238 2.20546 0
M  V30 1378 C 129.21 -5.08881 2.91988 0
M  V30 1379 C 131.562 -5.32272 3.41861 0
M  V30 1380 C 130.226 -5.50187 3.77956 0
M  V30 1381 H 129.496 -0.739842 0.0414151 0
M  V30 1382 H 132.143 -1.74073 0.798168 0
M  V30 1383 H 130.448 -3.84817 -0.736409 0
M  V30 1384 H 132.145 -3.99264 -0.372712 0
M  V30 1385 H 128.735 -4.15496 1.05173 0
M  V30 1386 H 132.919 -4.56751 1.94146 0
M  V30 1387 H 128.175 -5.20939 3.2005 0
M  V30 1388 H 132.349 -5.63563 4.09109 0
M  V30 1389 H 129.976 -5.95427 4.72622 0
M  V30 1390 N 131.551 -0.354651 -1.53558 0
M  V30 1391 C 132.781 0.239167 -2.05211 0
M  V30 1392 C 133.189 1.43879 -1.22863 0
M  V30 1393 O 132.532 1.81857 -0.259565 0
M  V30 1394 C 132.594 0.707251 -3.52474 0
M  V30 1395 C 132.258 -0.374212 -4.55465 0
M  V30 1396 C 133.255 -1.22054 -5.0537 0
M  V30 1397 C 130.94 -0.531323 -4.99482 0
M  V30 1398 C 132.934 -2.20942 -5.97882 0
M  V30 1399 C 130.621 -1.52358 -5.91802 0
M  V30 1400 C 131.619 -2.36108 -6.40892 0
M  V30 1401 O 131.307 -3.33643 -7.31394 0
M  V30 1402 H 131.039 0.0479716 -0.674296 0
M  V30 1403 H 133.593 -0.508121 -1.99016 0
M  V30 1404 H 131.823 1.50596 -3.56171 0
M  V30 1405 H 133.512 1.22285 -3.87042 0
M  V30 1406 H 134.278 -1.1103 -4.7212 0
M  V30 1407 H 130.157 0.110738 -4.60867 0
M  V30 1408 H 133.701 -2.86348 -6.36121 0
M  V30 1409 H 129.598 -1.63434 -6.24467 0
M  V30 1410 H 130.366 -3.29244 -7.4936 0
M  V30 1411 N 133.029 1.57378 -0.0835403 0
M  V30 1412 C 133.959 2.1641 0.87686 0
M  V30 1413 C 134.94 1.09429 1.30228 0
M  V30 1414 O 136.125 1.37516 1.37124 0
M  V30 1415 C 133.255 2.73517 2.14022 0
M  V30 1416 C 132.209 3.85769 1.85381 0
M  V30 1417 C 131.535 4.29529 3.18448 0
M  V30 1418 C 132.835 5.09486 1.14984 0
M  V30 1419 H 134.529 2.96914 0.385059 0
M  V30 1420 H 132.075 1.42823 0.18377 0
M  V30 1421 H 134.028 3.13463 2.81636 0
M  V30 1422 H 132.752 1.90252 2.65465 0
M  V30 1423 H 131.411 3.46345 1.20169 0
M  V30 1424 H 131.059 3.43169 3.67755 0
M  V30 1425 H 130.759 5.05204 3.00071 0
M  V30 1426 H 132.283 4.72099 3.8724 0
M  V30 1427 H 133.697 5.46674 1.72687 0
M  V30 1428 H 132.094 5.90515 1.06826 0
M  V30 1429 H 133.164 4.84724 0.130749 0
M  V30 1430 N 134.507 -0.190092 1.56449 0
M  V30 1431 C 135.417 -1.25591 1.98152 0
M  V30 1432 C 136.433 -1.49519 0.889944 0
M  V30 1433 O 137.609 -1.62036 1.19609 0
M  V30 1434 C 134.674 -2.57916 2.3169 0
M  V30 1435 C 133.735 -2.42015 3.5458 0
M  V30 1436 C 132.968 -3.6803 3.8651 0
M  V30 1437 O 133.191 -4.72413 3.1966 0
M  V30 1438 O 132.125 -3.6326 4.79923 0
M  V30 1439 H 135.951 -0.931988 2.89046 0
M  V30 1440 H 133.536 -0.395488 1.4407 0
M  V30 1441 H 135.418 -3.36008 2.54316 0
M  V30 1442 H 134.093 -2.89925 1.43963 0
M  V30 1443 H 133 -1.62017 3.37196 0
M  V30 1444 H 134.333 -2.14937 4.4279 0
M  V30 1445 N 135.985 -1.50799 -0.457987 0
M  V30 1446 C 136.895 -1.73426 -1.57989 0
M  V30 1447 C 137.911 -0.617745 -1.62665 0
M  V30 1448 O 139.087 -0.897614 -1.80291 0
M  V30 1449 C 136.152 -1.83557 -2.94122 0
M  V30 1450 C 135.213 -3.07345 -2.99729 0
M  V30 1451 C 134.446 -3.16983 -4.29368 0
M  V30 1452 O 134.669 -2.33077 -5.20607 0
M  V30 1453 O 133.603 -4.09812 -4.40837 0
M  V30 1454 H 137.429 -2.68555 -1.41817 0
M  V30 1455 H 135.014 -1.35052 -0.638859 0
M  V30 1456 H 136.896 -1.92326 -3.74952 0
M  V30 1457 H 135.571 -0.916137 -3.10465 0
M  V30 1458 H 134.478 -3.04068 -2.1793 0
M  V30 1459 H 135.811 -3.9891 -2.88326 0
M  V30 1460 N 137.463 0.71206 -1.40597 0
M  V30 1461 C 138.709 1.47416 -1.39271 0
M  V30 1462 C 139.042 1.942 0.00388791 0
M  V30 1463 O 138.317 1.68403 0.973179 0
M  V30 1464 C 138.6 2.69774 -2.38525 0
M  V30 1465 C 138.453 2.28861 -3.87224 0
M  V30 1466 C 139.772 3.71939 -2.35264 0
M  V30 1467 H 136.891 0.534713 -0.5072 0
M  V30 1468 H 139.533 0.812375 -1.71757 0
M  V30 1469 H 137.683 3.26238 -2.10953 0
M  V30 1470 H 139.355 1.77852 -4.25636 0
M  V30 1471 H 137.598 1.60824 -4.02887 0
M  V30 1472 H 138.269 3.16584 -4.52193 0
M  V30 1473 H 140.745 3.25113 -2.59694 0
M  V30 1474 H 139.621 4.55186 -3.06753 0
M  V30 1475 H 139.882 4.20484 -1.36549 0
M  V30 1476 N 138.941 1.26152 0.944643 0
M  V30 1477 C 139.874 1.01729 2.04271 0
M  V30 1478 C 140.852 -0.0568101 1.62501 0
M  V30 1479 O 142.036 0.0848987 1.88309 0
M  V30 1480 C 139.163 0.539792 3.34371 0
M  V30 1481 C 138.209 1.60593 3.9511 0
M  V30 1482 S 139.042 3.19392 4.29825 0
M  V30 1483 C 140.198 2.73402 5.63029 0
M  V30 1484 H 140.431 1.94703 2.24673 0
M  V30 1485 H 137.964 1.09793 1.08558 0
M  V30 1486 H 139.922 0.270956 4.09605 0
M  V30 1487 H 138.583 -0.369609 3.11918 0
M  V30 1488 H 137.776 1.22275 4.88943 0
M  V30 1489 H 137.378 1.82596 3.26397 0
M  V30 1490 H 139.67 2.1765 6.41588 0
M  V30 1491 H 140.613 3.65913 6.06229 0
M  V30 1492 H 141.021 2.13077 5.22741 0
M  V30 1493 N 140.419 -1.14872 1.07899 0
M  V30 1494 C 141.83 -1.67367 0.827363 0
M  V30 1495 C 142.181 -1.85236 -0.646693 0
M  V30 1496 O 141.306 -1.55974 -1.50004 0
M  V30 1497 C 141.901 -3.04016 1.49532 0
M  V30 1498 C 140.46 -3.53566 1.29106 0
M  V30 1499 C 139.607 -2.29161 1.56143 0
M  V30 1500 H 142.558 -0.990083 1.24028 0
M  V30 1501 H 142.579 -3.69219 0.919643 0
M  V30 1502 H 142.091 -2.90978 2.56814 0
M  V30 1503 H 140.192 -3.71835 0.238713 0
M  V30 1504 H 140.305 -4.34661 2.01511 0
M  V30 1505 H 138.669 -2.34978 0.982717 0
M  V30 1506 H 139.452 -2.18705 2.64619 0
M  V30 1507 N 141.898 -0.863906 -1.31812 0
M  V30 1508 C 142.83 -0.272485 -2.27575 0
M  V30 1509 C 143.843 0.56104 -1.52827 0
M  V30 1510 O 145.032 0.384021 -1.7432 0
M  V30 1511 C 142.132 0.63283 -3.32939 0
M  V30 1512 C 141.305 -0.166902 -4.37081 0
M  V30 1513 C 140.364 0.665608 -5.21973 0
M  V30 1514 O 139.39 0.0958091 -5.69119 0
M  V30 1515 N 140.592 1.9787 -5.45736 0
M  V30 1516 H 143.357 -1.0954 -2.78964 0
M  V30 1517 H 140.918 -0.724791 -1.4477 0
M  V30 1518 H 142.91 1.19532 -3.86645 0
M  V30 1519 H 141.48 1.35642 -2.81638 0
M  V30 1520 H 140.7 -0.910838 -3.83533 0
M  V30 1521 H 141.988 -0.715874 -5.03739 0
M  V30 1522 H 141.386 2.46484 -5.09178 0
M  V30 1523 H 139.943 2.48911 -6.024 0
M  V30 1524 N 143.376 1.44774 -0.622745 0
M  V30 1525 C 144.339 2.29069 0.0774015 0
M  V30 1526 C 145.339 1.4059 0.780461 0
M  V30 1527 O 146.529 1.62551 0.626322 0
M  V30 1528 C 143.661 3.21974 1.12006 0
M  V30 1529 H 144.854 2.92459 -0.663901 0
M  V30 1530 H 142.407 1.51548 -0.382486 0
M  V30 1531 H 143.142 2.63417 1.89162 0
M  V30 1532 H 142.927 3.87168 0.619951 0
M  V30 1533 H 144.417 3.85318 1.60995 0
M  V30 1534 N 144.854 0.36279 1.53368 0
M  V30 1535 C 145.764 -0.492994 2.29362 0
M  V30 1536 C 146.78 -1.09507 1.35219 0
M  V30 1537 O 147.956 -1.10662 1.68273 0
M  V30 1538 C 145.021 -1.61855 3.066 0
M  V30 1539 C 144.082 -1.04429 4.16405 0
M  V30 1540 C 143.315 -2.11621 4.89951 0
M  V30 1541 O 143.538 -3.32684 4.63333 0
M  V30 1542 O 142.472 -1.74835 5.75948 0
M  V30 1543 H 146.298 0.125331 3.03441 0
M  V30 1544 H 143.883 0.127253 1.48857 0
M  V30 1545 H 145.765 -2.27302 3.54841 0
M  V30 1546 H 144.44 -2.22233 2.3536 0
M  V30 1547 H 143.347 -0.353819 3.72423 0
M  V30 1548 H 144.68 -0.485113 4.89804 0
M  V30 1549 N 146.332 -1.57332 0.0918853 0
M  V30 1550 C 147.28 -2.15075 -0.885747 0
M  V30 1551 C 148.274 -1.09277 -1.29441 0
M  V30 1552 O 149.48 -1.27627 -1.26931 0
M  V30 1553 H 145.855 -0.687966 -0.303656 0
M  V30 1554 H 147.826 -2.96047 -0.373995 0
M  V30 1555 C 146.575 -2.74325 -2.13638 0
M  V30 1556 H 145.898 -3.55418 -1.8308 0
M  V30 1557 H 147.338 -3.183 -2.80109 0
M  V30 1558 C 145.797 -1.70062 -2.90827 0
M  V30 1559 O 146.327 -1.13763 -3.85254 0
M  V30 1560 N 144.533 -1.40628 -2.54307 0
M  V30 1561 H 144.08 -1.866 -1.7759 0
M  V30 1562 H 144.038 -0.711043 -3.06254 0
M  V30 1563 N 147.81 0.181792 -1.56548 0
M  V30 1564 C 148.742 1.24956 -1.92142 0
M  V30 1565 C 149.755 1.41022 -0.813422 0
M  V30 1566 O 150.944 1.41212 -1.09186 0
M  V30 1567 C 148.044 2.61981 -2.14987 0
M  V30 1568 C 147.217 2.6735 -3.46183 0
M  V30 1569 C 146.276 3.85664 -3.5798 0
M  V30 1570 O 145.302 3.72148 -4.30691 0
M  V30 1571 N 146.504 5.01683 -2.92053 0
M  V30 1572 H 149.269 0.947329 -2.84334 0
M  V30 1573 H 146.83 0.371629 -1.57577 0
M  V30 1574 H 148.822 3.3958 -2.20154 0
M  V30 1575 H 147.392 2.84637 -1.2923 0
M  V30 1576 H 146.612 1.75925 -3.52766 0
M  V30 1577 H 147.9 2.67939 -4.32534 0
M  V30 1578 H 147.298 5.15564 -2.32832 0
M  V30 1579 H 145.855 5.77181 -3.0283 0
M  V30 1580 N 149.288 1.51039 0.449983 0
M  V30 1581 C 150.565 1.53612 1.21089 0
M  V30 1582 C 150.945 0.292997 2.09057 0
M  V30 1583 O 150.293 -0.72259 2.16774 0
M  V30 1584 C 150.503 2.84337 2.0237 0
M  V30 1585 C 151.851 3.35807 2.59843 0
M  V30 1586 O 152.875 2.85802 2.12593 0
M  V30 1587 O 151.734 4.23029 3.45989 0
M  V30 1588 H 148.828 0.617057 0.550608 0
M  V30 1589 H 151.374 1.63344 0.460082 0
M  V30 1590 H 150.146 3.66278 1.37681 0
M  V30 1591 H 149.769 2.77708 2.84542 0
M  V30 1592 N 150.766 -0.704594 1.40972 0
M  V30 1593 C 152.177 -1.28418 1.3552 0
M  V30 1594 C 152.528 -1.96171 0.0339434 0
M  V30 1595 O 151.653 -1.98231 -0.867944 0
M  V30 1596 C 152.248 -2.33528 2.45459 0
M  V30 1597 C 150.807 -2.87085 2.43433 0
M  V30 1598 C 149.954 -1.61007 2.2577 0
M  V30 1599 H 152.905 -0.499963 1.50619 0
M  V30 1600 H 152.926 -3.14619 2.13998 0
M  V30 1601 H 152.438 -1.84187 3.41609 0
M  V30 1602 H 150.539 -3.40626 1.51013 0
M  V30 1603 H 150.652 -3.3813 3.39419 0
M  V30 1604 H 149.016 -1.86482 1.73483 0
M  V30 1605 H 149.799 -1.13675 3.23933 0
M  V30 1606 N 152.244 -1.26651 -0.937939 0
M  V30 1607 C 153.521 -1.0313 -1.66204 0
M  V30 1608 C 153.901 0.437256 -2.06522 0
M  V30 1609 O 153.249 1.41831 -1.79154 0
M  V30 1610 C 153.459 -1.98314 -2.87181 0
M  V30 1611 C 154.807 -2.27107 -3.58758 0
M  V30 1612 O 155.831 -1.96205 -2.97291 0
M  V30 1613 O 154.69 -2.79736 -4.69479 0
M  V30 1614 H 151.784 -0.392384 -0.727986 0
M  V30 1615 H 154.33 -1.37874 -0.989382 0
M  V30 1616 H 153.102 -2.97399 -2.54302 0
M  V30 1617 H 152.725 -1.64068 -3.6217 0
M  V30 1618 N 153.722 1.14298 -1.08507 0
M  V30 1619 C 154.971 1.84708 -0.810305 0
M  V30 1620 C 155.284 1.83903 0.666271 0
M  V30 1621 O 156.49 2.50112 1.05624 0
M  V30 1622 C 154.946 3.31572 -1.39957 0
M  V30 1623 C 154.554 3.40791 -2.90801 0
M  V30 1624 C 156.298 4.07087 -1.20334 0
M  V30 1625 C 154.205 4.81872 -3.4286 0
M  V30 1626 H 153.135 0.691985 -0.299454 0
M  V30 1627 H 155.786 1.28841 -1.30661 0
M  V30 1628 H 154.168 3.87183 -0.830976 0
M  V30 1629 H 155.342 2.95225 -3.53806 0
M  V30 1630 H 153.657 2.78732 -3.0935 0
M  V30 1631 H 156.254 5.11225 -1.56693 0
M  V30 1632 H 156.597 4.16054 -0.143237 0
M  V30 1633 H 157.13 3.57779 -1.73893 0
M  V30 1634 H 153.869 4.78094 -4.48449 0
M  V30 1635 H 153.389 5.27972 -2.84615 0
M  V30 1636 H 155.068 5.50765 -3.39509 0
M  V30 1637 N 155.201 0.870884 1.31352 0
M  V30 1638 C 156.148 0.325425 2.28494 0
M  V30 1639 C 157.118 -0.576615 1.5577 0
M  V30 1640 O 158.303 -0.508059 1.83911 0
M  V30 1641 C 155.443 -0.466283 3.41935 0
M  V30 1642 C 154.556 0.463378 4.29508 0
M  V30 1643 C 153.691 -0.342544 5.30094 0
M  V30 1644 C 152.73 0.583486 6.09313 0
M  V30 1645 N 151.867 -0.186244 7.01853 0
M  V30 1646 H 156.707 1.15901 2.74538 0
M  V30 1647 H 154.244 0.58294 1.35056 0
M  V30 1648 H 156.202 -0.941085 4.06447 0
M  V30 1649 H 154.832 -1.26456 2.97 0
M  V30 1650 H 153.884 1.05663 3.65431 0
M  V30 1651 H 155.196 1.1734 4.84802 0
M  V30 1652 H 154.35 -0.879816 6.00287 0
M  V30 1653 H 153.089 -1.08585 4.75458 0
M  V30 1654 H 152.094 1.13251 5.3801 0
M  V30 1655 H 153.319 1.32566 6.66035 0
M  V30 1656 H 151.265 -0.912348 6.49625 0
M  V30 1657 H 151.182 0.464422 7.54572 0
M  V30 1658 H 152.45 -0.704716 7.76308 0
M  V30 1659 N 156.679 -1.44442 0.630414 0
M  V30 1660 C 157.642 -2.29107 -0.0652523 0
M  V30 1661 C 158.642 -1.41002 -0.772995 0
M  V30 1662 O 159.832 -1.62881 -0.617692 0
M  V30 1663 C 156.964 -3.22564 -1.10296 0
M  V30 1664 H 158.157 -2.92103 0.679401 0
M  V30 1665 H 155.71 -1.51343 0.390517 0
M  V30 1666 H 156.445 -2.64416 -1.87762 0
M  V30 1667 H 156.23 -3.87491 -0.59941 0
M  V30 1668 H 157.72 -3.86167 -1.5895 0
M  V30 1669 N 158.157 -0.370918 -1.53173 0
M  V30 1670 C 159.107 0.489588 -2.22681 0
M  V30 1671 C 160.091 1.04442 -1.22395 0
M  V30 1672 O 161.283 0.973578 -1.47819 0
M  V30 1673 C 158.412 1.626 -3.02351 0
M  V30 1674 C 157.498 1.08379 -4.10018 0
M  V30 1675 N 157.889 0.265004 -5.05105 0
M  V30 1676 C 156.187 1.35809 -4.2482 0
M  V30 1677 C 156.888 -0.0324755 -5.81691 0
M  V30 1678 N 155.864 0.566581 -5.40639 0
M  V30 1679 H 159.666 -0.142729 -2.93553 0
M  V30 1680 H 157.18 -0.179221 -1.61408 0
M  V30 1681 H 159.177 2.2547 -3.50669 0
M  V30 1682 H 157.837 2.26132 -2.33011 0
M  V30 1683 H 158.848 -0.0962352 -5.17811 0
M  V30 1684 H 155.525 1.9958 -3.66707 0
M  V30 1685 H 156.915 -0.69473 -6.68299 0
M  V30 1686 N 159.635 1.57281 -0.100228 0
M  V30 1687 C 160.881 1.94826 0.563101 0
M  V30 1688 C 161.214 0.982475 1.67514 0
M  V30 1689 O 160.489 0.0164069 1.94493 0
M  V30 1690 C 160.772 3.42453 1.11346 0
M  V30 1691 C 160.625 4.498 0.00612081 0
M  V30 1692 C 161.944 3.91506 2.01024 0
M  V30 1693 H 159.063 0.708428 0.203221 0
M  V30 1694 H 161.705 1.8922 -0.171979 0
M  V30 1695 H 159.855 3.47361 1.7399 0
M  V30 1696 H 161.527 4.57 -0.628357 0
M  V30 1697 H 159.77 4.28756 -0.659581 0
M  V30 1698 H 160.441 5.50306 0.432109 0
M  V30 1699 H 162.917 3.88784 1.48278 0
M  V30 1700 H 161.793 4.95358 2.36457 0
M  V30 1701 H 162.054 3.31099 2.92961 0
M  V30 1702 N 161.113 -0.173488 1.56642 0
M  V30 1703 C 162.061 -1.23417 1.97157 0
M  V30 1704 C 163.055 -1.45946 0.860013 0
M  V30 1705 O 164.261 -1.46551 1.04512 0
M  V30 1706 H 160.636 -0.414818 0.62724 0
M  V30 1707 H 162.607 -0.865582 2.8557 0
M  V30 1708 C 161.356 -2.5665 2.34576 0
M  V30 1709 H 160.679 -2.40137 3.19647 0
M  V30 1710 H 162.119 -3.2956 2.6677 0
M  V30 1711 C 160.578 -3.15245 1.18836 0
M  V30 1712 O 161.108 -3.98883 0.474869 0
M  V30 1713 N 159.314 -2.74303 0.959497 0
M  V30 1714 H 158.861 -2.0639 1.54146 0
M  V30 1715 H 158.819 -3.13844 0.186932 0
M  V30 1716 N 162.591 -1.51276 -0.441967 0
M  V30 1717 C 163.816 -1.67799 -1.21895 0
M  V30 1718 C 164.241 -0.372864 -1.84367 0
M  V30 1719 O 163.599 0.666501 -1.68604 0
M  V30 1720 C 163.647 -2.79199 -2.28211 0
M  V30 1721 O 162.751 -2.42479 -3.33583 0
M  V30 1722 H 162.092 -0.559649 -0.357336 0
M  V30 1723 H 164.622 -1.97815 -0.522522 0
M  V30 1724 H 164.632 -3.03146 -2.73069 0
M  V30 1725 H 163.307 -3.73906 -1.82118 0
M  V30 1726 H 161.884 -2.29087 -2.94234 0
M  V30 1727 N 164.069 0.697108 -1.41344 0
M  V30 1728 C 164.999 1.82353 -1.45841 0
M  V30 1729 C 165.98 1.67115 -0.317247 0
M  V30 1730 O 167.165 1.86871 -0.528474 0
M  V30 1731 C 164.295 3.20476 -1.33838 0
M  V30 1732 C 163.249 3.50415 -2.4575 0
M  V30 1733 C 162.575 4.87878 -2.18813 0
M  V30 1734 C 163.875 3.49546 -3.88091 0
M  V30 1735 H 165.569 1.78846 -2.40113 0
M  V30 1736 H 163.115 0.859028 -1.15571 0
M  V30 1737 H 165.068 3.98988 -1.35596 0
M  V30 1738 H 163.792 3.24604 -0.360498 0
M  V30 1739 H 162.451 2.74253 -2.43271 0
M  V30 1740 H 162.099 4.8863 -1.19371 0
M  V30 1741 H 161.799 5.08875 -2.93803 0
M  V30 1742 H 163.323 5.68702 -2.22284 0
M  V30 1743 H 164.737 4.18066 -3.92293 0
M  V30 1744 H 163.134 3.82075 -4.62751 0
M  V30 1745 H 164.204 2.48552 -4.16353 0
M  V30 1746 N 165.547 1.27147 0.931209 0
M  V30 1747 C 166.795 1.13055 1.6752 0
M  V30 1748 C 167.116 -0.324791 1.92276 0
M  V30 1749 O 166.386 -1.22775 1.52654 0
M  V30 1750 H 164.966 0.415391 0.620854 0
M  V30 1751 H 167.628 1.59623 1.11833 0
M  V30 1752 H 166.724 1.65694 2.64485 0
M  V30 1753 N 167.025 -1.13721 1.09112 0
M  V30 1754 C 167.935 -2.22638 0.73957 0
M  V30 1755 C 168.951 -1.72091 -0.257068 0
M  V30 1756 O 170.127 -2.01155 -0.0992154 0
M  V30 1757 C 167.192 -3.46322 0.16191 0
M  V30 1758 C 166.253 -4.11775 1.21408 0
M  V30 1759 C 165.486 -5.29555 0.663891 0
M  V30 1760 O 165.709 -5.68077 -0.514274 0
M  V30 1761 O 164.643 -5.84973 1.41738 0
M  V30 1762 H 168.469 -2.55074 1.64836 0
M  V30 1763 H 166.054 -1.21791 0.865289 0
M  V30 1764 H 167.936 -4.21107 -0.157073 0
M  V30 1765 H 166.611 -3.15593 -0.719932 0
M  V30 1766 H 165.518 -3.3883 1.58571 0
M  V30 1767 H 166.851 -4.46627 2.06845 0
M  V30 1768 N 168.503 -0.877838 -1.30888 0
M  V30 1769 C 169.451 -0.328662 -2.30266 0
M  V30 1770 C 170.445 0.560496 -1.59859 0
M  V30 1771 O 171.651 0.445722 -1.74394 0
M  V30 1772 H 168.026 -0.0876142 -0.746879 0
M  V30 1773 H 169.997 -1.18061 -2.74051 0
M  V30 1774 C 168.746 0.448071 -3.44801 0
M  V30 1775 H 168.069 -0.226859 -3.99156 0
M  V30 1776 H 169.509 0.797541 -4.16432 0
M  V30 1777 C 167.968 1.64239 -2.94155 0
M  V30 1778 O 168.498 2.74175 -2.93583 0
M  V30 1779 N 166.704 1.47716 -2.50256 0
M  V30 1780 H 166.251 0.582821 -2.5092 0
M  V30 1781 H 166.209 2.27765 -2.16727 0
M  V30 1782 N 169.982 1.44106 -0.638065 0
M  V30 1783 C 170.912 2.33448 0.0494287 0
M  V30 1784 C 171.893 1.48606 0.827672 0
M  V30 1785 O 173.078 1.77308 0.792173 0
M  V30 1786 C 170.208 3.31771 1.02691 0
M  V30 1787 C 169.162 4.26485 0.359823 0
M  V30 1788 C 168.488 5.14729 1.44769 0
M  V30 1789 C 169.788 5.17056 -0.738296 0
M  V30 1790 H 171.482 2.91183 -0.696636 0
M  V30 1791 H 169.028 1.40014 -0.336456 0
M  V30 1792 H 170.981 3.93161 1.51666 0
M  V30 1793 H 169.705 2.7226 1.80395 0
M  V30 1794 H 168.364 3.66437 -0.10934 0
M  V30 1795 H 168.012 4.51566 2.21578 0
M  V30 1796 H 167.712 5.78913 1.00668 0
M  V30 1797 H 169.236 5.78991 1.93911 0
M  V30 1798 H 170.65 5.72342 -0.331354 0
M  V30 1799 H 169.047 5.89879 -1.10286 0
M  V30 1800 H 170.117 4.57652 -1.60258 0
M  V30 1801 N 171.46 0.379036 1.52974 0
M  V30 1802 C 172.407 -0.461048 2.26148 0
M  V30 1803 C 173.377 -1.06637 1.27349 0
M  V30 1804 O 174.562 -1.09633 1.56157 0
M  V30 1805 C 171.702 -1.58782 3.06402 0
M  V30 1806 C 170.815 -1.00636 4.20115 0
M  V30 1807 C 169.95 -2.10334 4.87784 0
M  V30 1808 C 168.989 -1.49724 5.93506 0
M  V30 1809 N 168.126 -2.5331 6.54812 0
M  V30 1810 H 172.966 0.169429 2.97518 0
M  V30 1811 H 170.503 0.0953806 1.4679 0
M  V30 1812 H 172.461 -2.25174 3.51215 0
M  V30 1813 H 171.091 -2.18876 2.37261 0
M  V30 1814 H 170.143 -0.232332 3.7969 0
M  V30 1815 H 171.455 -0.523343 4.96047 0
M  V30 1816 H 170.609 -2.84519 5.35849 0
M  V30 1817 H 169.348 -2.61992 4.11353 0
M  V30 1818 H 168.353 -0.740598 5.44789 0
M  V30 1819 H 169.578 -0.988732 6.71864 0
M  V30 1820 H 167.524 -3.04156 5.81227 0
M  V30 1821 H 167.441 -2.09734 7.26325 0
M  V30 1822 H 168.709 -3.27155 7.07524 0
M  V30 1823 N 172.938 -1.57226 0.108567 0
M  V30 1824 C 174.166 -1.99179 -0.559954 0
M  V30 1825 C 174.581 -0.988022 -1.60884 0
M  V30 1826 O 173.938 0.0205512 -1.82488 0
M  V30 1827 C 173.989 -3.41159 -1.19552 0
M  V30 1828 O 173.71 -4.37694 -0.188577 0
M  V30 1829 C 175.211 -3.98188 -1.94837 0
M  V30 1830 H 172.431 -0.654228 -0.149088 0
M  V30 1831 H 174.975 -2.03598 0.19183 0
M  V30 1832 H 173.13 -3.37711 -1.89815 0
M  V30 1833 H 173.544 -5.20469 -0.649014 0
M  V30 1834 H 175.018 -4.99644 -2.34648 0
M  V30 1835 H 175.495 -3.3675 -2.81951 0
M  V30 1836 H 176.101 -4.0515 -1.2936 0
M  V30 1837 N 174.416 0.165178 -1.56732 0
M  V30 1838 C 175.346 1.20651 -1.99914 0
M  V30 1839 C 176.327 1.45827 -0.875705 0
M  V30 1840 O 177.512 1.57057 -1.14223 0
M  V30 1841 C 174.642 2.54401 -2.36427 0
M  V30 1842 C 173.596 2.43782 -3.51787 0
M  V30 1843 C 172.922 3.82078 -3.7406 0
M  V30 1844 C 174.222 1.93732 -4.85041 0
M  V30 1845 H 175.916 0.847534 -2.87154 0
M  V30 1846 H 173.462 0.40625 -1.38151 0
M  V30 1847 H 175.415 3.27458 -2.65234 0
M  V30 1848 H 174.139 2.92098 -1.46103 0
M  V30 1849 H 172.798 1.73178 -3.23117 0
M  V30 1850 H 172.446 4.17179 -2.81017 0
M  V30 1851 H 172.146 3.7584 -4.51684 0
M  V30 1852 H 173.67 4.56712 -4.05274 0
M  V30 1853 H 175.084 2.56569 -5.12684 0
M  V30 1854 H 173.481 1.98428 -5.66345 0
M  V30 1855 H 174.551 0.891962 -4.76626 0
M  V30 1856 N 175.894 1.51508 0.433938 0
M  V30 1857 C 177.31 1.39759 0.770682 0
M  V30 1858 C 177.51 0.482594 1.95636 0
M  V30 1859 O 176.566 -0.0609691 2.52426 0
M  V30 1860 C 177.879 2.81851 1.04787 0
M  V30 1861 C 179.427 2.91025 1.1521 0
M  V30 1862 C 179.902 4.34032 1.46219 0
M  V30 1863 N 181.393 4.37154 1.53136 0
M  V30 1864 C 182.128 5.4484 1.78709 0
M  V30 1865 N 181.624 6.62682 2.02051 0
M  V30 1866 N 183.417 5.32324 1.80519 0
M  V30 1867 H 175.568 2.09548 -0.346892 0
M  V30 1868 H 177.831 0.943446 -0.0928074 0
M  V30 1869 H 177.537 3.50815 0.249304 0
M  V30 1870 H 177.411 3.21386 1.97461 0
M  V30 1871 H 179.798 2.22257 1.94128 0
M  V30 1872 H 179.879 2.54983 0.204281 0
M  V30 1873 H 179.523 5.03351 0.678274 0
M  V30 1874 H 179.453 4.6759 2.42212 0
M  V30 1875 H 181.944 3.52197 1.36987 0
M  V30 1876 H 182.257 7.40543 2.20943 0
M  V30 1877 H 180.602 6.65791 1.99366 0
M  V30 1878 H 183.793 4.39246 1.61805 0
M  V30 1879 H 183.966 6.16328 2.00111 0
M  V30 1880 N 177.372 -0.689602 1.41712 0
M  V30 1881 C 178.302 -1.81577 1.46806 0
M  V30 1882 C 179.283 -1.66945 0.326105 0
M  V30 1883 O 180.468 -1.86588 0.538377 0
M  V30 1884 C 177.598 -3.19762 1.35535 0
M  V30 1885 C 176.552 -3.49107 2.47605 0
M  V30 1886 C 175.878 -4.86711 2.21397 0
M  V30 1887 C 177.178 -3.47483 3.89939 0
M  V30 1888 H 178.872 -1.7757 2.41058 0
M  V30 1889 H 176.418 -0.852887 1.16025 0
M  V30 1890 H 178.371 -3.98263 1.3771 0
M  V30 1891 H 177.095 -3.24409 0.377708 0
M  V30 1892 H 175.754 -2.72959 2.44722 0
M  V30 1893 H 175.402 -4.8799 1.21961 0
M  V30 1894 H 175.102 -5.0731 2.96497 0
M  V30 1895 H 176.626 -5.67515 2.25297 0
M  V30 1896 H 178.04 -4.1598 3.94505 0
M  V30 1897 H 176.437 -3.79615 4.64771 0
M  V30 1898 H 177.507 -2.46341 4.17665 0
M  V30 1899 N 178.85 -1.27639 -0.924453 0
M  V30 1900 C 180.266 -1.05113 -1.20097 0
M  V30 1901 C 180.466 0.213262 -2.00368 0
M  V30 1902 O 179.522 0.91787 -2.35226 0
M  V30 1903 C 180.835 -2.29244 -1.94596 0
M  V30 1904 C 182.383 -2.34315 -2.07522 0
M  V30 1905 C 182.858 -3.58183 -2.85427 0
M  V30 1906 N 184.349 -3.5876 -2.92994 0
M  V30 1907 C 185.084 -4.51277 -3.53746 0
M  V30 1908 N 184.58 -5.54102 -4.15863 0
M  V30 1909 N 186.373 -4.38894 -3.51181 0
M  V30 1910 H 178.524 -2.08821 -0.388264 0
M  V30 1911 H 180.787 -0.918568 -0.234385 0
M  V30 1912 H 180.493 -3.21301 -1.43034 0
M  V30 1913 H 180.367 -2.34816 -2.95197 0
M  V30 1914 H 182.754 -1.42762 -2.58269 0
M  V30 1915 H 182.835 -2.32744 -1.06131 0
M  V30 1916 H 182.479 -4.50074 -2.35363 0
M  V30 1917 H 182.409 -3.57006 -3.8711 0
M  V30 1918 H 184.9 -2.84398 -2.4885 0
M  V30 1919 H 185.213 -6.20859 -4.60168 0
M  V30 1920 H 183.558 -5.57941 -4.144 0
M  V30 1921 H 186.749 -3.57772 -3.01856 0
M  V30 1922 H 186.922 -5.11186 -3.98237 0
M  V30 1923 N 180.328 1.1314 -1.09713 0
M  V30 1924 C 181.258 2.20748 -0.761102 0
M  V30 1925 C 182.239 1.68061 0.262566 0
M  V30 1926 O 183.424 1.93765 0.129977 0
M  V30 1927 C 180.554 3.46812 -0.184054 0
M  V30 1928 C 179.508 4.12606 -1.13757 0
M  V30 1929 C 178.834 5.33031 -0.422083 0
M  V30 1930 C 180.134 4.59603 -2.48118 0
M  V30 1931 H 181.828 2.49113 -1.66082 0
M  V30 1932 H 179.374 1.19734 -0.799987 0
M  V30 1933 H 181.327 4.21353 0.0631215 0
M  V30 1934 H 180.051 3.17851 0.750868 0
M  V30 1935 H 178.71 3.40036 -1.37007 0
M  V30 1936 H 178.358 5.00335 0.517072 0
M  V30 1937 H 178.058 5.77999 -1.05788 0
M  V30 1938 H 179.582 6.10325 -0.183277 0
M  V30 1939 H 180.996 5.25552 -2.29059 0
M  V30 1940 H 179.393 5.15321 -3.07514 0
M  V30 1941 H 180.463 3.73971 -3.08665 0
M  V30 1942 N 181.806 0.884767 1.30421 0
M  V30 1943 C 183.222 0.57874 1.48737 0
M  V30 1944 C 183.422 -0.883567 1.81095 0
M  V30 1945 O 182.478 -1.6648 1.89844 0
M  V30 1946 C 183.791 1.49171 2.61091 0
M  V30 1947 C 185.339 1.49532 2.74971 0
M  V30 1948 C 185.814 2.39421 3.90438 0
M  V30 1949 N 187.305 2.37383 3.97748 0
M  V30 1950 C 188.04 3.03647 4.86401 0
M  V30 1951 N 187.536 3.79136 5.79852 0
M  V30 1952 N 189.329 2.9288 4.79768 0
M  V30 1953 H 181.48 1.83075 1.0769 0
M  V30 1954 H 183.743 0.783637 0.533495 0
M  V30 1955 H 183.449 2.53291 2.44001 0
M  V30 1956 H 183.323 1.20113 3.57565 0
M  V30 1957 H 185.71 0.46163 2.91467 0
M  V30 1958 H 185.791 1.8262 1.79119 0
M  V30 1959 H 185.435 3.42874 3.74699 0
M  V30 1960 H 185.365 2.03649 4.85628 0
M  V30 1961 H 187.856 1.82525 3.30897 0
M  V30 1962 H 188.169 4.26789 6.4426 0
M  V30 1963 H 186.514 3.83243 5.79784 0
M  V30 1964 H 189.705 2.33433 4.05742 0
M  V30 1965 H 189.878 3.448 5.4865 0
M  V30 1966 N 183.284 -1.43765 0.645699 0
M  V30 1967 C 184.7 -1.56509 0.312591 0
M  V30 1968 C 184.9 -1.6307 -1.18365 0
M  V30 1969 O 183.956 -1.58167 -1.96824 0
M  V30 1970 C 185.269 -2.82968 1.01733 0
M  V30 1971 C 186.817 -2.96701 0.996865 0
M  V30 1972 C 187.292 -4.25982 1.68236 0
M  V30 1973 N 188.783 -4.32829 1.64964 0
M  V30 1974 C 189.518 -5.31613 2.14885 0
M  V30 1975 N 189.014 -6.36718 2.73061 0
M  V30 1976 N 190.807 -5.23217 2.05428 0
M  V30 1977 H 182.958 -1.3775 1.61675 0
M  V30 1978 H 185.221 -0.661067 0.679481 0
M  V30 1979 H 184.927 -2.84156 2.0724 0
M  V30 1980 H 184.801 -3.72957 0.564177 0
M  V30 1981 H 187.188 -2.95058 -0.0497719 0
M  V30 1982 H 187.269 -2.08022 1.48865 0
M  V30 1983 H 186.913 -4.28386 2.72852 0
M  V30 1984 H 186.843 -5.13545 1.16529 0
M  V30 1985 H 189.334 -3.57493 1.22503 0
M  V30 1986 H 189.647 -7.08401 3.08848 0
M  V30 1987 H 187.992 -6.37362 2.77118 0
M  V30 1988 H 191.183 -4.40019 1.59689 0
M  V30 1989 H 191.356 -6.00045 2.44643 0
M  V30 1990 N 184.763 -0.387143 -1.52771 0
M  V30 1991 C 186.003 0.195537 -2.03463 0
M  V30 1992 C 186.367 1.44222 -1.26744 0
M  V30 1993 O 187.568 2.10192 -1.67549 0
M  V30 1994 C 185.839 0.459097 -3.54439 0
M  V30 1995 S 187.398 1.01237 -4.26962 0
M  V30 1996 H 184.216 0.0552675 -0.708849 0
M  V30 1997 H 186.818 -0.534992 -1.88037 0
M  V30 1998 H 185.522 -0.455382 -4.07866 0
M  V30 1999 H 185.053 1.21811 -3.74066 0
M  V30 2000 H 187.068 2.29492 -4.39941 0
M  V30 2001 N 186.241 1.57166 -0.116904 0
M  V30 2002 C 187.191 2.11756 0.845178 0
M  V30 2003 C 188.175 1.03783 1.22955 0
M  V30 2004 O 189.367 1.3002 1.20099 0
M  V30 2005 C 186.496 2.71886 2.09602 0
M  V30 2006 C 185.582 3.86937 1.7361 0
M  V30 2007 N 185.973 4.94073 1.08284 0
M  V30 2008 C 184.271 3.97082 2.03082 0
M  V30 2009 C 184.972 5.74477 0.913855 0
M  V30 2010 N 183.948 5.2423 1.43818 0
M  V30 2011 H 187.75 2.91967 0.336523 0
M  V30 2012 H 185.264 1.62174 0.0856332 0
M  V30 2013 H 187.261 3.09338 2.79492 0
M  V30 2014 H 185.921 1.93138 2.61013 0
M  V30 2015 H 186.932 5.12483 0.747067 0
M  V30 2016 H 183.609 3.29372 2.56554 0
M  V30 2017 H 184.999 6.70701 0.40125 0
M  V30 2018 N 187.719 -0.156864 1.56817 0
M  V30 2019 C 189.135 -0.50916 1.5126 0
M  V30 2020 C 189.335 -1.83897 0.823658 0
M  V30 2021 O 188.391 -2.49469 0.390055 0
M  V30 2022 C 189.704 -0.52857 2.96018 0
M  V30 2023 C 191.252 -0.614771 3.06903 0
M  V30 2024 C 191.727 -0.664938 4.53147 0
M  V30 2025 N 193.218 -0.727433 4.57452 0
M  V30 2026 C 193.953 -0.787067 5.67973 0
M  V30 2027 N 193.449 -0.806649 6.88088 0
M  V30 2028 N 195.242 -0.827195 5.5598 0
M  V30 2029 H 187.393 0.714935 2.00006 0
M  V30 2030 H 189.656 0.259526 0.911784 0
M  V30 2031 H 189.362 0.380154 3.49639 0
M  V30 2032 H 189.236 -1.36998 3.51442 0
M  V30 2033 H 191.623 -1.51392 2.53307 0
M  V30 2034 H 191.704 0.253597 2.5454 0
M  V30 2035 H 191.348 0.230011 5.07379 0
M  V30 2036 H 191.278 -1.54966 5.03282 0
M  V30 2037 H 193.769 -0.719998 3.70978 0
M  V30 2038 H 194.082 -0.853727 7.6807 0
M  V30 2039 H 192.427 -0.774687 6.90669 0
M  V30 2040 H 195.618 -0.808998 4.61056 0
M  V30 2041 H 195.791 -0.870206 6.4213 0
M  V30 2042 N 189.197 -1.51736 -0.425897 0
M  V30 2043 C 190.444 -1.6497 -1.17436 0
M  V30 2044 C 190.772 -0.371445 -1.9092 0
M  V30 2045 O 190.027 0.644963 -1.84767 0
M  V30 2046 C 190.326 -2.81103 -2.20717 0
M  V30 2047 C 189.992 -4.19954 -1.64162 0
M  V30 2048 C 188.654 -4.57725 -1.48462 0
M  V30 2049 C 191.006 -5.06552 -1.22696 0
M  V30 2050 C 188.334 -5.79789 -0.897873 0
M  V30 2051 C 190.686 -6.29205 -0.654464 0
M  V30 2052 C 189.35 -6.6574 -0.484456 0
M  V30 2053 H 188.62 -0.603668 -0.429727 0
M  V30 2054 H 191.267 -1.85798 -0.463829 0
M  V30 2055 H 189.572 -2.54542 -2.97852 0
M  V30 2056 H 191.269 -2.8854 -2.78471 0
M  V30 2057 H 187.859 -3.90181 -1.77361 0
M  V30 2058 H 192.043 -4.77968 -1.33642 0
M  V30 2059 H 187.299 -6.06733 -0.75402 0
M  V30 2060 H 191.473 -6.95643 -0.324694 0
M  V30 2061 H 189.1 -7.60195 -0.0276833 0
M  V30 2062 N 190.675 0.682077 -1.42076 0
M  V30 2063 C 191.605 1.80796 -1.47767 0
M  V30 2064 C 192.586 1.6677 -0.334954 0
M  V30 2065 O 193.771 1.863 -0.548264 0
M  V30 2066 C 190.901 3.19038 -1.37229 0
M  V30 2067 C 189.855 3.47789 -2.49453 0
M  V30 2068 C 189.181 4.8553 -2.23975 0
M  V30 2069 C 190.481 3.45411 -3.91776 0
M  V30 2070 H 192.175 1.7629 -2.41997 0
M  V30 2071 H 189.721 0.846721 -1.16476 0
M  V30 2072 H 191.674 3.97528 -1.39821 0
M  V30 2073 H 190.398 3.24204 -0.394907 0
M  V30 2074 H 189.057 2.71657 -2.46166 0
M  V30 2075 H 188.705 4.87337 -1.24547 0
M  V30 2076 H 188.405 5.0573 -2.99184 0
M  V30 2077 H 189.929 5.66312 -2.28304 0
M  V30 2078 H 191.343 4.13882 -3.96705 0
M  V30 2079 H 189.74 3.77145 -4.66778 0
M  V30 2080 H 190.81 2.44122 -4.18966 0
M  V30 2081 N 192.153 1.28127 0.917671 0
M  V30 2082 C 193.564 1.13622 1.48145 0
M  V30 2083 C 193.915 -0.275207 1.9426 0
M  V30 2084 O 193.04 -1.1691 1.82102 0
M  V30 2085 C 193.635 2.05648 2.69248 0
M  V30 2086 C 192.194 1.95219 3.21818 0
M  V30 2087 C 191.341 1.97618 1.94532 0
M  V30 2088 H 194.292 1.40874 0.730772 0
M  V30 2089 H 194.313 1.61818 3.44377 0
M  V30 2090 H 193.825 3.08365 2.35653 0
M  V30 2091 H 191.926 0.955244 3.60147 0
M  V30 2092 H 192.039 2.81976 3.87333 0
M  V30 2093 H 190.403 1.41973 2.11461 0
M  V30 2094 H 191.186 3.02007 1.63238 0
M  V30 2095 N 193.631 -1.12557 1.10312 0
M  V30 2096 C 194.871 -1.8568 0.854543 0
M  V30 2097 C 195.235 -1.82091 -0.608843 0
M  V30 2098 O 196.436 -2.50544 -0.973717 0
M  V30 2099 C 194.707 -3.2942 1.38626 0
M  V30 2100 S 196.266 -4.19931 1.27293 0
M  V30 2101 H 193.084 -0.640427 0.308827 0
M  V30 2102 H 195.686 -1.35599 1.40831 0
M  V30 2103 H 194.39 -3.2959 2.44537 0
M  V30 2104 H 193.921 -3.84566 0.82902 0
M  V30 2105 H 195.936 -4.95668 0.229776 0
M  V30 2106 N 195.109 -0.891671 -1.2995 0
M  V30 2107 C 196.019 -0.367691 -2.31701 0
M  V30 2108 C 197.035 0.533486 -1.6562 0
M  V30 2109 O 198.211 0.424997 -1.96865 0
M  V30 2110 C 195.276 0.403406 -3.44345 0
M  V30 2111 C 194.337 -0.528328 -4.26037 0
M  V30 2112 C 193.57 0.206063 -5.33302 0
M  V30 2113 O 193.793 1.43119 -5.52153 0
M  V30 2114 O 192.727 -0.447281 -6.00236 0
M  V30 2115 H 196.553 -1.21163 -2.78484 0
M  V30 2116 H 194.138 -0.655725 -1.34241 0
M  V30 2117 H 196.02 0.839753 -4.12948 0
M  V30 2118 H 194.695 1.22354 -2.99685 0
M  V30 2119 H 193.602 -1.01362 -3.60106 0
M  V30 2120 H 194.935 -1.31465 -4.74318 0
M  V30 2121 N 196.587 1.43421 -0.653314 0
M  V30 2122 C 197.535 2.32546 0.0501531 0
M  V30 2123 C 198.529 1.48617 0.812985 0
M  V30 2124 O 199.735 1.64825 0.723375 0
M  V30 2125 H 196.11 0.751185 0.0350032 0
M  V30 2126 H 198.081 2.89602 -0.719261 0
M  V30 2127 C 196.83 3.32925 1.00279 0
M  V30 2128 H 196.153 3.97532 0.425236 0
M  V30 2129 H 197.593 3.9792 1.46409 0
M  V30 2130 C 196.052 2.63532 2.09886 0
M  V30 2131 O 196.582 2.45092 3.18265 0
M  V30 2132 N 194.788 2.22905 1.86445 0
M  V30 2133 H 194.335 2.38103 0.98309 0
M  V30 2134 H 194.293 1.76805 2.59976 0
M  V30 2135 N 198.065 0.39524 1.52563 0
M  V30 2136 C 199.012 -0.437036 2.26624 0
M  V30 2137 C 199.982 -1.05281 1.28472 0
M  V30 2138 O 201.167 -1.07971 1.57311 0
M  V30 2139 C 198.307 -1.55524 3.08069 0
M  V30 2140 C 197.42 -0.961745 4.21158 0
M  V30 2141 C 196.555 -2.05149 4.89987 0
M  V30 2142 C 195.594 -1.4342 5.95061 0
M  V30 2143 N 194.731 -2.46351 6.57462 0
M  V30 2144 H 199.571 0.200976 2.97322 0
M  V30 2145 H 197.108 0.110944 1.46681 0
M  V30 2146 H 199.066 -2.21437 3.53584 0
M  V30 2147 H 197.696 -2.16348 2.3957 0
M  V30 2148 H 196.748 -0.192048 3.79915 0
M  V30 2149 H 198.06 -0.470701 4.96574 0
M  V30 2150 H 197.214 -2.78819 5.38837 0
M  V30 2151 H 195.953 -2.57615 4.14109 0
M  V30 2152 H 194.958 -0.682774 5.45544 0
M  V30 2153 H 196.183 -0.917416 6.72875 0
M  V30 2154 H 194.129 -2.97975 5.8442 0
M  V30 2155 H 194.046 -2.02019 7.28508 0
M  V30 2156 H 195.314 -3.19633 7.10954 0
M  V30 2157 N 199.544 -1.57102 0.125237 0
M  V30 2158 C 200.769 -2.0019 -0.542101 0
M  V30 2159 C 201.194 -1.00449 -1.59034 0
M  V30 2160 O 200.552 0.0229423 -1.81285 0
M  V30 2161 C 200.6 -3.42129 -1.13929 0
M  V30 2162 O 199.704 -3.45307 -2.2547 0
M  V30 2163 H 199.045 -0.650171 -0.134812 0
M  V30 2164 H 201.575 -2.03461 0.215553 0
M  V30 2165 H 201.585 -3.80471 -1.4733 0
M  V30 2166 H 200.26 -4.14237 -0.371531 0
M  V30 2167 H 198.837 -3.1879 -1.93462 0
M  V30 2168 N 201.022 0.148545 -1.56898 0
M  V30 2169 C 201.969 1.18345 -1.98149 0
M  V30 2170 C 202.939 1.42772 -0.848848 0
M  V30 2171 O 204.124 1.55132 -1.11079 0
M  V30 2172 C 201.264 2.51231 -2.36594 0
M  V30 2173 C 200.377 2.33991 -3.63142 0
M  V30 2174 C 199.512 3.59902 -3.90697 0
M  V30 2175 C 198.551 3.37692 -5.1052 0
M  V30 2176 N 197.688 4.5573 -5.34092 0
M  V30 2177 H 202.528 0.82467 -2.86362 0
M  V30 2178 H 200.065 0.395756 -1.41676 0
M  V30 2179 H 202.023 3.28713 -2.56912 0
M  V30 2180 H 200.653 2.85059 -1.51463 0
M  V30 2181 H 199.705 1.47572 -3.50609 0
M  V30 2182 H 201.017 2.13539 -4.5078 0
M  V30 2183 H 200.171 4.45813 -4.11505 0
M  V30 2184 H 198.91 3.83357 -3.01477 0
M  V30 2185 H 197.915 2.5017 -4.89587 0
M  V30 2186 H 199.14 3.15637 -6.0129 0
M  V30 2187 H 197.086 4.79361 -4.47827 0
M  V30 2188 H 197.003 4.38274 -6.15996 0
M  V30 2189 H 198.271 5.42858 -5.59397 0
M  V30 2190 N 202.5 1.5196 0.417844 0
M  V30 2191 C 203.463 1.74065 1.49111 0
M  V30 2192 C 204.463 0.610537 1.48758 0
M  V30 2193 O 205.653 0.87832 1.50437 0
M  V30 2194 C 202.785 1.81502 2.88565 0
M  V30 2195 H 203.978 2.69869 1.30807 0
M  V30 2196 H 201.531 1.42244 0.647785 0
M  V30 2197 H 202.266 0.875813 3.1225 0
M  V30 2198 H 202.051 2.63651 2.90225 0
M  V30 2199 H 203.541 2.00376 3.66387 0
M  V30 2200 N 203.978 -0.674533 1.42435 0
M  V30 2201 C 205.224 -1.43671 1.43131 0
M  V30 2202 C 205.557 -1.94142 0.0476021 0
M  V30 2203 O 204.832 -1.70924 -0.928188 0
M  V30 2204 C 205.115 -2.63355 2.45594 0
M  V30 2205 C 204.968 -2.18514 3.93156 0
M  V30 2206 C 206.287 -3.65571 2.45043 0
M  V30 2207 H 203.406 -0.521077 0.521198 0
M  V30 2208 H 206.048 -0.766551 1.7385 0
M  V30 2209 H 204.198 -3.2053 2.19528 0
M  V30 2210 H 205.87 -1.66504 4.30202 0
M  V30 2211 H 204.113 -1.50086 4.07009 0
M  V30 2212 H 204.784 -3.04484 4.60428 0
M  V30 2213 H 207.26 -3.18113 2.68223 0
M  V30 2214 H 206.136 -4.46893 3.18713 0
M  V30 2215 H 206.397 -4.16716 1.47649 0
M  V30 2216 N 205.456 -1.28612 -0.910864 0
M  V30 2217 C 206.366 -1.14643 -2.0468 0
M  V30 2218 C 207.382 -0.0723121 -1.7385 0
M  V30 2219 O 208.558 -0.282178 -1.99413 0
M  V30 2220 C 205.623 -0.812561 -3.37044 0
M  V30 2221 C 204.684 -1.96935 -3.81465 0
M  V30 2222 C 203.917 -1.65131 -5.07511 0
M  V30 2223 O 204.14 -0.567013 -5.67575 0
M  V30 2224 O 203.074 -2.49585 -5.47714 0
M  V30 2225 H 206.9 -2.1001 -2.19384 0
M  V30 2226 H 204.485 -1.07958 -1.03274 0
M  V30 2227 H 206.367 -0.640441 -4.16505 0
M  V30 2228 H 205.042 0.111426 -3.23508 0
M  V30 2229 H 203.949 -2.19664 -3.02818 0
M  V30 2230 H 205.282 -2.87414 -3.99567 0
M  V30 2231 N 206.934 1.1197 -1.10907 0
M  V30 2232 C 207.866 2.17592 -0.720175 0
M  V30 2233 C 208.879 1.60938 0.245495 0
M  V30 2234 O 210.068 1.78476 0.0292245 0
M  V30 2235 C 207.168 3.38873 -0.0427917 0
M  V30 2236 C 206.341 4.25006 -1.03388 0
M  V30 2237 C 205.4 5.24774 -0.387075 0
M  V30 2238 O 204.426 5.59631 -1.03934 0
M  V30 2239 N 205.628 5.74208 0.852407 0
M  V30 2240 H 208.393 2.51567 -1.62893 0
M  V30 2241 H 205.954 1.27439 -0.998543 0
M  V30 2242 H 207.946 4.02703 0.401501 0
M  V30 2243 H 206.516 3.03007 0.768456 0
M  V30 2244 H 205.736 3.57716 -1.65629 0
M  V30 2245 H 207.024 4.79397 -1.70458 0
M  V30 2246 H 206.422 5.48062 1.40161 0
M  V30 2247 H 204.979 6.39901 1.23977 0
M  V30 2248 N 208.412 0.89855 1.29475 0
M  V30 2249 C 209.658 0.524658 1.95896 0
M  V30 2250 C 209.991 -0.926468 1.70676 0
M  V30 2251 O 209.266 -1.65665 1.01908 0
M  V30 2252 C 209.549 0.81633 3.50725 0
M  V30 2253 C 209.402 2.31907 3.85408 0
M  V30 2254 C 210.721 0.302038 4.39062 0
M  V30 2255 H 207.84 0.19209 0.711527 0
M  V30 2256 H 210.482 1.12502 1.53112 0
M  V30 2257 H 208.632 0.305369 3.87298 0
M  V30 2258 H 210.304 2.89949 3.58786 0
M  V30 2259 H 208.547 2.78027 3.32992 0
M  V30 2260 H 209.218 2.47373 4.93468 0
M  V30 2261 H 211.694 0.739551 4.09475 0
M  V30 2262 H 210.57 0.535331 5.46283 0
M  V30 2263 H 210.831 -0.797216 4.34853 0
M  V30 2264 N 209.89 -1.43072 0.660911 0
M  V30 2265 C 210.837 -2.30785 -0.0259884 0
M  V30 2266 C 211.807 -1.45184 -0.806888 0
M  V30 2267 O 212.992 -1.74041 -0.781943 0
M  V30 2268 C 210.132 -3.30861 -0.981067 0
M  V30 2269 C 209.245 -4.31558 -0.195458 0
M  V30 2270 C 208.38 -5.18712 -1.14503 0
M  V30 2271 C 207.419 -6.11097 -0.350299 0
M  V30 2272 N 206.556 -6.90849 -1.25186 0
M  V30 2273 H 211.396 -2.88975 0.727846 0
M  V30 2274 H 208.933 -1.42353 0.370682 0
M  V30 2275 H 210.891 -3.87399 -1.54849 0
M  V30 2276 H 209.521 -2.74304 -1.70169 0
M  V30 2277 H 208.573 -3.77252 0.488374 0
M  V30 2278 H 209.885 -4.9701 0.422176 0
M  V30 2279 H 209.039 -5.79914 -1.78284 0
M  V30 2280 H 207.778 -4.53404 -1.79656 0
M  V30 2281 H 206.783 -5.48976 0.300808 0
M  V30 2282 H 208.008 -6.7845 0.296941 0
M  V30 2283 H 205.954 -6.28182 -1.89005 0
M  V30 2284 H 205.871 -7.52854 -0.688971 0
M  V30 2285 H 207.139 -7.5655 -1.87757 0
M  V30 2286 N 211.368 -0.403325 -1.52352 0
M  V30 2287 C 212.316 0.439752 -2.28405 0
M  V30 2288 C 213.31 1.05089 -1.32863 0
M  V30 2289 O 214.516 0.989759 -1.50345 0
M  V30 2290 H 210.891 0.160587 -0.734653 0
M  V30 2291 H 212.862 -0.222983 -2.97566 0
M  V30 2292 C 211.611 1.54736 -3.11371 0
M  V30 2293 H 210.934 1.08643 -3.84755 0
M  V30 2294 H 212.374 2.1112 -3.67701 0
M  V30 2295 C 210.833 2.51141 -2.24566 0
M  V30 2296 O 211.363 3.54887 -1.88196 0
M  V30 2297 N 209.569 2.21213 -1.8845 0
M  V30 2298 H 209.116 1.36878 -2.18225 0
M  V30 2299 H 209.074 2.85963 -1.30662 0
M  V30 2300 N 212.846 1.57033 -0.133567 0
M  V30 2301 C 213.809 2.14897 0.796995 0
M  V30 2302 C 214.809 1.0874 1.18458 0
M  V30 2303 O 215.999 1.34446 1.1077 0
M  V30 2304 C 213.131 2.70112 2.07973 0
M  V30 2305 H 214.324 2.98457 0.293873 0
M  V30 2306 H 211.877 1.55871 0.115787 0
M  V30 2307 H 212.612 1.9018 2.62682 0
M  V30 2308 H 212.397 3.47764 1.81115 0
M  V30 2309 H 213.887 3.14738 2.74462 0
M  V30 2310 N 214.325 -0.140222 1.56975 0
M  V30 2311 C 215.572 -0.851687 1.83719 0
M  V30 2312 C 215.9 -1.80862 0.715485 0
M  V30 2313 O 215.155 -1.93464 -0.294956 0
M  V30 2314 C 215.454 -1.65386 3.16832 0
M  V30 2315 C 215.12 -0.843112 4.42947 0
M  V30 2316 C 213.782 -0.619464 4.77196 0
M  V30 2317 C 216.134 -0.276582 5.20466 0
M  V30 2318 C 213.462 0.181312 5.8642 0
M  V30 2319 C 215.814 0.51127 6.30531 0
M  V30 2320 C 214.478 0.745432 6.63325 0
M  V30 2321 H 213.748 -0.311654 0.672274 0
M  V30 2322 H 216.395 -0.115006 1.91154 0
M  V30 2323 H 214.7 -2.46084 3.04877 0
M  V30 2324 H 216.397 -2.20793 3.34741 0
M  V30 2325 H 212.987 -1.0275 4.16101 0
M  V30 2326 H 217.171 -0.436632 4.94376 0
M  V30 2327 H 212.427 0.372165 6.10266 0
M  V30 2328 H 216.601 0.957354 6.89788 0
M  V30 2329 H 214.228 1.36778 7.47794 0
M  V30 2330 N 215.803 -1.52179 -0.40978 0
M  V30 2331 C 216.751 -1.76086 -1.51975 0
M  V30 2332 C 217.745 -0.627964 -1.57331 0
M  V30 2333 O 218.951 -0.809993 -1.60745 0
M  V30 2334 H 215.326 -0.556829 -0.505416 0
M  V30 2335 H 217.297 -2.69077 -1.28996 0
M  V30 2336 C 216.046 -1.92799 -2.8935 0
M  V30 2337 H 215.369 -2.79392 -2.85972 0
M  V30 2338 H 216.809 -2.13527 -3.66309 0
M  V30 2339 C 215.268 -0.694923 -3.29655 0
M  V30 2340 O 215.798 0.13751 -4.01465 0
M  V30 2341 N 214.004 -0.53101 -2.85707 0
M  V30 2342 H 213.551 -1.20952 -2.27439 0
M  V30 2343 H 213.509 0.292718 -3.13034 0
M  V30 2344 N 217.281 0.66697 -1.42791 0
M  V30 2345 C 218.228 1.7803 -1.4688 0
M  V30 2346 C 219.198 1.6299 -0.319919 0
M  V30 2347 O 220.383 1.83432 -0.525118 0
M  V30 2348 C 217.523 3.1611 -1.38451 0
M  V30 2349 C 216.636 3.42381 -2.63437 0
M  V30 2350 C 215.771 4.70232 -2.47094 0
M  V30 2351 C 214.81 4.89564 -3.67415 0
M  V30 2352 N 213.947 6.08661 -3.49966 0
M  V30 2353 H 218.787 1.7387 -2.42019 0
M  V30 2354 H 216.324 0.84868 -1.20149 0
M  V30 2355 H 218.282 3.95914 -1.31561 0
M  V30 2356 H 216.912 3.19374 -0.469033 0
M  V30 2357 H 215.964 2.56774 -2.80662 0
M  V30 2358 H 217.276 3.52557 -3.52853 0
M  V30 2359 H 216.43 5.5814 -2.37834 0
M  V30 2360 H 215.169 4.62353 -1.5518 0
M  V30 2361 H 214.174 4.00096 -3.77099 0
M  V30 2362 H 215.399 4.99282 -4.6032 0
M  V30 2363 H 213.345 6.0194 -2.60776 0
M  V30 2364 H 213.262 6.19733 -4.32975 0
M  V30 2365 H 214.53 6.99226 -3.44532 0
M  V30 2366 N 218.759 1.29093 0.90403 0
M  V30 2367 C 219.689 1.16401 2.02418 0
M  V30 2368 C 220.67 0.0593085 1.69997 0
M  V30 2369 O 221.855 0.238021 1.92736 0
M  V30 2370 C 218.985 0.835233 3.37107 0
M  V30 2371 C 217.939 1.89578 3.83724 0
M  V30 2372 C 217.265 1.42041 5.15489 0
M  V30 2373 C 218.565 3.30394 4.04521 0
M  V30 2374 H 220.259 2.10109 2.13295 0
M  V30 2375 H 217.805 1.01157 1.02486 0
M  V30 2376 H 219.758 0.733169 4.14973 0
M  V30 2377 H 218.482 -0.137543 3.2631 0
M  V30 2378 H 217.141 1.98715 3.08071 0
M  V30 2379 H 216.789 0.436426 5.01103 0
M  V30 2380 H 216.489 2.12964 5.4765 0
M  V30 2381 H 218.013 1.33176 5.959 0
M  V30 2382 H 219.427 3.24123 4.72882 0
M  V30 2383 H 217.824 3.99237 4.48029 0
M  V30 2384 H 218.894 3.73692 3.09002 0
M  V30 2385 N 220.237 -1.11381 1.11499 0
M  V30 2386 C 221.169 -2.17207 0.731704 0
M  V30 2387 C 222.182 -1.61066 -0.236957 0
M  V30 2388 O 223.371 -1.78489 -0.0197591 0
M  V30 2389 C 220.471 -3.38846 0.0607624 0
M  V30 2390 C 219.644 -4.24451 1.0564 0
M  V30 2391 C 218.703 -5.24562 0.4149 0
M  V30 2392 O 217.729 -5.59071 1.069 0
M  V30 2393 N 218.931 -5.74651 -0.821943 0
M  V30 2394 H 221.696 -2.50699 1.64225 0
M  V30 2395 H 219.257 -1.26908 1.00529 0
M  V30 2396 H 221.249 -4.02911 -0.380139 0
M  V30 2397 H 219.819 -3.03411 -0.752376 0
M  V30 2398 H 219.039 -3.56833 1.67524 0
M  V30 2399 H 220.327 -4.78486 1.72998 0
M  V30 2400 H 219.725 -5.48797 -1.37252 0
M  V30 2401 H 218.282 -6.40549 -1.20582 0
M  V30 2402 N 221.715 -0.905404 -1.28997 0
M  V30 2403 C 222.625 -0.392246 -2.31298 0
M  V30 2404 C 223.641 0.515889 -1.66176 0
M  V30 2405 O 224.817 0.404093 -1.97304 0
M  V30 2406 C 221.882 0.36686 -3.44754 0
M  V30 2407 C 220.943 -0.573485 -4.25452 0
M  V30 2408 C 220.176 0.149488 -5.33491 0
M  V30 2409 O 220.399 1.37255 -5.5364 0
M  V30 2410 O 219.333 -0.510919 -5.99728 0
M  V30 2411 H 223.159 -1.2411 -2.77183 0
M  V30 2412 H 220.744 -0.669926 -1.33538 0
M  V30 2413 H 222.626 0.795907 -4.13816 0
M  V30 2414 H 221.301 1.19169 -3.00966 0
M  V30 2415 H 220.208 -1.05176 -3.59011 0
M  V30 2416 H 221.541 -1.36489 -4.72897 0
M  V30 2417 N 223.193 1.4272 -0.668489 0
M  V30 2418 C 224.14 2.30796 0.0137489 0
M  V30 2419 C 225.11 1.4561 0.799177 0
M  V30 2420 O 226.295 1.74453 0.772702 0
M  V30 2421 C 223.435 3.31377 0.963507 0
M  V30 2422 C 222.548 4.31655 0.172569 0
M  V30 2423 C 221.683 5.19312 1.1175 0
M  V30 2424 C 220.722 6.11274 0.317886 0
M  V30 2425 N 219.859 6.91504 1.2152 0
M  V30 2426 H 224.699 2.88585 -0.743161 0
M  V30 2427 H 222.236 1.42154 -0.378226 0
M  V30 2428 H 224.194 3.88214 1.52792 0
M  V30 2429 H 222.824 2.75202 1.68712 0
M  V30 2430 H 221.876 3.76988 -0.508374 0
M  V30 2431 H 223.188 4.96779 -0.448527 0
M  V30 2432 H 222.342 5.80851 1.75206 0
M  V30 2433 H 221.081 4.5435 1.77249 0
M  V30 2434 H 220.086 5.48809 -0.329918 0
M  V30 2435 H 221.311 6.78283 -0.332917 0
M  V30 2436 H 219.257 6.29176 1.85671 0
M  V30 2437 H 219.174 7.53209 0.649036 0
M  V30 2438 H 220.442 7.57535 1.83742 0
M  V30 2439 N 224.671 0.411399 1.52136 0
M  V30 2440 C 225.919 -0.163322 2.01439 0
M  V30 2441 C 226.24 -1.45453 1.29879 0
M  V30 2442 O 225.51 -1.91225 0.4254 0
M  V30 2443 H 224.09 -0.0633447 0.744309 0
M  V30 2444 H 226.752 0.548161 1.87033 0
M  V30 2445 H 225.848 -0.357817 3.10042 0
M  V30 2446 N 226.149 -1.5696 0.141893 0
M  V30 2447 C 227.398 -1.95135 -0.510427 0
M  V30 2448 C 227.711 -1.02896 -1.66348 0
M  V30 2449 O 228.917 -1.30629 -2.38009 0
M  V30 2450 C 227.373 -3.46876 -0.959427 0
M  V30 2451 C 226.981 -4.47691 0.166419 0
M  V30 2452 C 228.725 -3.93927 -1.58183 0
M  V30 2453 C 226.632 -5.90636 -0.300565 0
M  V30 2454 H 225.562 -0.728494 -0.194454 0
M  V30 2455 H 228.213 -1.8211 0.22542 0
M  V30 2456 H 226.595 -3.55215 -1.75038 0
M  V30 2457 H 227.769 -4.51043 0.94325 0
M  V30 2458 H 226.084 -4.10527 0.696905 0
M  V30 2459 H 228.681 -4.98158 -1.94275 0
M  V30 2460 H 229.024 -3.3519 -2.46888 0
M  V30 2461 H 229.557 -3.88484 -0.855863 0
M  V30 2462 H 226.296 -6.5318 0.550989 0
M  V30 2463 H 225.816 -5.90655 -1.04338 0
M  V30 2464 H 227.495 -6.42588 -0.754265 0
M  V30 2465 N 227.627 0.131896 -1.57047 0
M  V30 2466 C 228.857 0.855219 -1.88068 0
M  V30 2467 C 229.265 1.74557 -0.729817 0
M  V30 2468 O 228.608 1.81083 0.308962 0
M  V30 2469 C 228.67 1.75119 -3.13964 0
M  V30 2470 C 228.334 1.03646 -4.45091 0
M  V30 2471 C 229.331 0.383276 -5.18485 0
M  V30 2472 C 227.016 1.02148 -4.91804 0
M  V30 2473 C 229.01 -0.275347 -6.36805 0
M  V30 2474 C 226.697 0.359047 -6.10044 0
M  V30 2475 C 227.695 -0.288222 -6.82392 0
M  V30 2476 O 227.383 -0.94011 -7.98384 0
M  V30 2477 H 227.115 0.251864 -0.627328 0
M  V30 2478 H 229.669 0.124782 -2.05021 0
M  V30 2479 H 227.899 2.52295 -2.9306 0
M  V30 2480 H 229.588 2.3478 -3.31109 0
M  V30 2481 H 230.354 0.386562 -4.83457 0
M  V30 2482 H 226.233 1.5147 -4.35405 0
M  V30 2483 H 229.777 -0.781148 -6.93213 0
M  V30 2484 H 225.674 0.35348 -6.44531 0
M  V30 2485 H 226.442 -0.84329 -8.14144 0
M  V30 2486 N 229.106 1.52395 0.401703 0
M  V30 2487 C 230.053 1.76268 1.48991 0
M  V30 2488 C 231.023 0.605386 1.54675 0
M  V30 2489 O 232.208 0.843742 1.7113 0
M  V30 2490 C 229.348 1.92592 2.86361 0
M  V30 2491 C 228.461 3.20259 2.89928 0
M  V30 2492 C 227.596 3.26972 4.18644 0
M  V30 2493 C 226.635 4.48812 4.16214 0
M  V30 2494 N 225.772 4.52877 5.36514 0
M  V30 2495 H 230.612 2.6914 1.27935 0
M  V30 2496 H 228.149 1.33355 0.620871 0
M  V30 2497 H 230.107 2.0004 3.66115 0
M  V30 2498 H 228.737 1.03093 3.05895 0
M  V30 2499 H 227.789 3.21945 2.02621 0
M  V30 2500 H 229.101 4.10056 2.83999 0
M  V30 2501 H 228.255 3.33533 5.06794 0
M  V30 2502 H 226.994 2.35126 4.27278 0
M  V30 2503 H 225.999 4.4239 3.26453 0
M  V30 2504 H 227.224 5.41961 4.09213 0
M  V30 2505 H 225.17 3.63917 5.45802 0
M  V30 2506 H 225.087 5.36529 5.32609 0
M  V30 2507 H 226.355 4.63676 6.26597 0
M  V30 2508 N 230.584 -0.659388 1.43143 0
M  V30 2509 C 231.547 -1.75432 1.47501 0
M  V30 2510 C 232.547 -1.56707 0.360512 0
M  V30 2511 O 233.737 -1.62717 0.622002 0
M  V30 2512 C 230.869 -3.14239 1.32162 0
M  V30 2513 H 232.062 -1.7295 2.45006 0
M  V30 2514 H 229.615 -0.870469 1.29817 0
M  V30 2515 H 230.35 -3.22336 0.356401 0
M  V30 2516 H 230.135 -3.29235 2.12948 0
M  V30 2517 H 231.625 -3.94094 1.3813 0
M  V30 2518 N 232.062 -1.29571 -0.897171 0
M  V30 2519 C 232.995 -1.0924 -2.00354 0
M  V30 2520 C 233.973 -0.00354011 -1.626 0
M  V30 2521 O 235.157 -0.15473 -1.87864 0
M  V30 2522 C 232.284 -0.66352 -3.32137 0
M  V30 2523 C 231.33 -1.75146 -3.88878 0
M  V30 2524 S 232.163 -3.35124 -4.17674 0
M  V30 2525 C 233.319 -2.9411 -5.52494 0
M  V30 2526 H 233.552 -2.02907 -2.17292 0
M  V30 2527 H 231.085 -1.13746 -1.04408 0
M  V30 2528 H 233.043 -0.422791 -4.08317 0
M  V30 2529 H 231.704 0.253588 -3.13075 0
M  V30 2530 H 230.897 -1.40337 -4.84068 0
M  V30 2531 H 230.499 -1.94584 -3.19395 0
M  V30 2532 H 232.791 -2.41312 -6.33068 0
M  V30 2533 H 233.734 -3.88161 -5.9223 0
M  V30 2534 H 234.142 -2.32332 -5.14473 0
M  V30 2535 N 233.54 1.10788 -1.12088 0
M  V30 2536 C 234.765 1.87002 -0.896949 0
M  V30 2537 C 235.19 1.79933 0.548261 0
M  V30 2538 O 234.548 1.16662 1.38779 0
M  V30 2539 C 234.596 3.3349 -1.37174 0
M  V30 2540 O 233.7 4.08745 -0.547831 0
M  V30 2541 H 233.041 0.580397 -0.322545 0
M  V30 2542 H 235.571 1.39996 -1.49206 0
M  V30 2543 H 235.581 3.84339 -1.36922 0
M  V30 2544 H 234.256 3.37951 -2.42408 0
M  V30 2545 H 232.833 3.6776 -0.617034 0
M  V30 2546 N 235.018 0.912232 1.28515 0
M  V30 2547 C 235.928 0.404506 2.31086 0
M  V30 2548 C 236.944 -0.50707 1.66448 0
M  V30 2549 O 238.12 -0.393624 1.97516 0
M  V30 2550 C 235.185 -0.348572 3.44943 0
M  V30 2551 C 234.246 0.59604 4.25142 0
M  V30 2552 C 233.479 -0.121194 5.33562 0
M  V30 2553 O 233.702 -1.34317 5.5436 0
M  V30 2554 O 232.636 0.542716 5.99448 0
M  V30 2555 H 236.462 1.25579 2.76521 0
M  V30 2556 H 234.047 0.676998 1.33181 0
M  V30 2557 H 235.929 -0.77395 4.14232 0
M  V30 2558 H 234.604 -1.17571 3.01594 0
M  V30 2559 H 233.511 1.07079 3.58448 0
M  V30 2560 H 234.844 1.38995 4.72167 0
M  V30 2561 N 236.496 -1.42363 0.676048 0
M  V30 2562 C 237.743 -2.01522 0.19883 0
M  V30 2563 C 238.071 -1.53456 -1.19505 0
M  V30 2564 O 237.326 -0.727967 -1.81657 0
M  V30 2565 C 237.625 -3.56929 0.183431 0
M  V30 2566 C 237.291 -4.24431 1.52215 0
M  V30 2567 C 235.953 -4.42585 1.8887 0
M  V30 2568 C 238.305 -4.62459 2.40377 0
M  V30 2569 C 235.633 -4.96039 3.13309 0
M  V30 2570 C 237.985 -5.17294 3.64129 0
M  V30 2571 C 236.649 -5.33661 4.00951 0
M  V30 2572 H 235.919 -0.737419 0.0727571 0
M  V30 2573 H 238.566 -1.70531 0.871281 0
M  V30 2574 H 236.871 -3.87594 -0.572532 0
M  V30 2575 H 238.568 -4.00486 -0.203035 0
M  V30 2576 H 235.158 -4.10661 1.22701 0
M  V30 2577 H 239.342 -4.48105 2.13343 0
M  V30 2578 H 234.598 -5.06896 3.41857 0
M  V30 2579 H 238.772 -5.45704 4.32644 0
M  V30 2580 H 236.399 -5.74845 4.9745 0
M  V30 2581 N 237.974 -0.419461 -1.51915 0
M  V30 2582 C 239.251 0.211999 -1.94448 0
M  V30 2583 C 239.631 1.61703 -1.35703 0
M  V30 2584 O 238.979 2.22102 -0.536931 0
M  V30 2585 C 239.189 0.207872 -3.4838 0
M  V30 2586 C 240.537 0.422192 -4.22496 0
M  V30 2587 O 241.561 0.286778 -3.55044 0
M  V30 2588 O 240.42 0.690009 -5.42126 0
M  V30 2589 H 237.514 0.139586 -0.815135 0
M  V30 2590 H 240.06 -0.476151 -1.62883 0
M  V30 2591 H 238.832 -0.775102 -3.83546 0
M  V30 2592 H 238.455 0.939688 -3.86336 0
M  V30 2593 N 239.452 1.56882 -0.150215 0
M  V30 2594 C 240.701 1.95403 0.500071 0
M  V30 2595 C 241.014 1.03777 1.658 0
M  V30 2596 O 242.22 1.31889 2.37313 0
M  V30 2597 C 240.676 3.4738 0.941018 0
M  V30 2598 C 240.284 4.47596 -0.190158 0
M  V30 2599 C 242.028 3.9476 1.56091 0
M  V30 2600 C 239.935 5.90787 0.269237 0
M  V30 2601 H 238.865 0.729515 0.190588 0
M  V30 2602 H 241.516 1.81988 -0.235074 0
M  V30 2603 H 239.898 3.56138 1.73152 0
M  V30 2604 H 241.072 4.50536 -0.967157 0
M  V30 2605 H 239.387 4.10151 -0.718666 0
M  V30 2606 H 241.984 4.99181 1.9163 0
M  V30 2607 H 242.327 3.36494 2.45107 0
M  V30 2608 H 242.86 3.88932 0.835249 0
M  V30 2609 H 239.599 6.52879 -0.585621 0
M  V30 2610 H 239.119 5.912 1.01204 0
M  V30 2611 H 240.798 6.42979 0.720176 0
M  V30 2612 N 240.93 -0.123565 1.57115 0
M  V30 2613 C 242.177 -0.832153 1.84612 0
M  V30 2614 C 242.505 -1.80093 0.734627 0
M  V30 2615 O 241.76 -1.93766 -0.27442 0
M  V30 2616 C 242.059 -1.62016 3.18568 0
M  V30 2617 C 241.725 -0.796084 4.43817 0
M  V30 2618 C 240.387 -0.568816 4.77826 0
M  V30 2619 C 242.739 -0.221364 5.2073 0
M  V30 2620 C 240.067 0.243499 5.86194 0
M  V30 2621 C 242.419 0.578117 6.29953 0
M  V30 2622 C 241.083 0.815744 6.62497 0
M  V30 2623 H 240.353 -0.304507 0.675542 0
M  V30 2624 H 243 -0.0947248 1.91266 0
M  V30 2625 H 241.305 -2.42837 3.0747 0
M  V30 2626 H 243.002 -2.17231 3.37064 0
M  V30 2627 H 239.592 -0.983307 4.17168 0
M  V30 2628 H 243.776 -0.384173 4.94811 0
M  V30 2629 H 239.032 0.436871 6.09837 0
M  V30 2630 H 243.206 1.03046 6.88734 0
M  V30 2631 H 240.833 1.44701 7.46301 0
M  V30 2632 N 242.408 -1.52605 -0.393616 0
M  V30 2633 C 243.657 -1.66649 -1.13627 0
M  V30 2634 C 243.97 -0.410364 -1.91247 0
M  V30 2635 O 245.176 -0.430854 -2.68059 0
M  V30 2636 C 243.632 -2.9449 -2.06891 0
M  V30 2637 C 243.24 -4.27266 -1.34714 0
M  V30 2638 C 244.984 -3.17899 -2.81319 0
M  V30 2639 C 242.891 -5.46217 -2.26717 0
M  V30 2640 H 241.821 -0.62084 -0.427871 0
M  V30 2641 H 244.472 -1.791 -0.399428 0
M  V30 2642 H 242.854 -2.75774 -2.84191 0
M  V30 2643 H 244.028 -4.56518 -0.626714 0
M  V30 2644 H 242.343 -4.10081 -0.722643 0
M  V30 2645 H 244.94 -4.03949 -3.50328 0
M  V30 2646 H 245.283 -2.32777 -3.45139 0
M  V30 2647 H 245.816 -3.37159 -2.11113 0
M  V30 2648 H 242.555 -6.33733 -1.67521 0
M  V30 2649 H 242.075 -5.21283 -2.96689 0
M  V30 2650 H 243.754 -5.7991 -2.86903 0
M  V30 2651 N 243.887 0.651787 -1.4349 0
M  V30 2652 C 244.835 1.78586 -1.49029 0
M  V30 2653 C 245.829 1.65448 -0.363767 0
M  V30 2654 O 247.035 1.71777 -0.537821 0
M  V30 2655 H 243.41 0.589236 -0.467231 0
M  V30 2656 H 245.381 1.71035 -2.44519 0
M  V30 2657 C 244.13 3.16851 -1.43181 0
M  V30 2658 H 243.453 3.27598 -2.29171 0
M  V30 2659 H 244.893 3.96156 -1.51118 0
M  V30 2660 C 243.352 3.36568 -0.149616 0
M  V30 2661 O 243.882 3.93885 0.788509 0
M  V30 2662 N 242.088 2.90539 -0.0593484 0
M  V30 2663 H 241.635 2.4408 -0.823575 0
M  V30 2664 H 241.593 3.04108 0.797853 0
M  V30 2665 N 245.365 1.30045 0.890287 0
M  V30 2666 C 246.595 1.21296 1.67245 0
M  V30 2667 C 247.003 -0.227471 1.87828 0
M  V30 2668 O 246.346 -1.16296 1.422 0
M  V30 2669 C 246.408 1.86519 3.07329 0
M  V30 2670 C 246.072 3.35837 3.09939 0
M  V30 2671 C 247.069 4.31915 2.89389 0
M  V30 2672 C 244.754 3.77196 3.31706 0
M  V30 2673 C 246.748 5.67325 2.90552 0
M  V30 2674 C 244.435 5.12725 3.32499 0
M  V30 2675 C 245.433 6.076 3.11947 0
M  V30 2676 O 245.121 7.40655 3.12547 0
M  V30 2677 H 244.853 0.4211 0.528821 0
M  V30 2678 H 247.407 1.72111 1.12103 0
M  V30 2679 H 245.637 1.30228 3.64112 0
M  V30 2680 H 247.326 1.71963 3.67673 0
M  V30 2681 H 248.092 4.01294 2.72375 0
M  V30 2682 H 243.971 3.03796 3.4674 0
M  V30 2683 H 247.515 6.41354 2.74429 0
M  V30 2684 H 243.412 5.42988 3.49047 0
M  V30 2685 H 244.18 7.49577 3.28749 0
M  V30 2686 N 246.843 -1.10192 1.12674 0
M  V30 2687 C 248.092 -1.81573 0.8783 0
M  V30 2688 C 248.405 -1.86249 -0.597557 0
M  V30 2689 O 249.611 -2.5386 -0.962681 0
M  V30 2690 C 248.067 -3.26149 1.52167 0
M  V30 2691 C 247.675 -3.29763 3.03249 0
M  V30 2692 C 249.419 -4.0234 1.3536 0
M  V30 2693 C 247.326 -4.68815 3.60508 0
M  V30 2694 H 246.256 -0.680394 0.324931 0
M  V30 2695 H 248.907 -1.23902 1.35353 0
M  V30 2696 H 247.289 -3.83832 0.974104 0
M  V30 2697 H 248.463 -2.8189 3.6452 0
M  V30 2698 H 246.778 -2.67059 3.19481 0
M  V30 2699 H 249.375 -5.05058 1.75559 0
M  V30 2700 H 249.718 -4.15235 0.297554 0
M  V30 2701 H 250.251 -3.51079 1.87052 0
M  V30 2702 H 246.99 -4.61121 4.65884 0
M  V30 2703 H 246.51 -5.17045 3.04014 0
M  V30 2704 H 248.189 -5.37785 3.59717 0
M  V30 2705 N 248.321 -0.919034 -1.28029 0
M  V30 2706 C 249.231 -0.416756 -2.30869 0
M  V30 2707 C 250.247 0.498235 -1.66714 0
M  V30 2708 O 251.423 0.383144 -1.97722 0
M  V30 2709 C 248.488 0.330274 -3.45123 0
M  V30 2710 C 247.549 -0.618578 -4.2482 0
M  V30 2711 C 246.782 0.0928959 -5.33619 0
M  V30 2712 O 247.005 1.31375 -5.55065 0
M  V30 2713 O 245.939 -0.574499 -5.99152 0
M  V30 2714 H 249.765 -1.27043 -2.75851 0
M  V30 2715 H 247.35 -0.684052 -1.3282 0
M  V30 2716 H 249.232 0.751972 -4.14636 0
M  V30 2717 H 247.907 1.1597 -3.02213 0
M  V30 2718 H 246.814 -1.08978 -3.57875 0
M  V30 2719 H 248.147 -1.41497 -4.71423 0
M  V30 2720 N 249.799 1.42003 -0.683588 0
M  V30 2721 C 250.762 2.29191 -0.0198243 0
M  V30 2722 C 251.762 1.43773 0.72013 0
M  V30 2723 O 252.952 1.65061 0.556815 0
M  V30 2724 C 250.084 3.26435 0.982487 0
M  V30 2725 H 251.277 2.8938 -0.787345 0
M  V30 2726 H 248.83 1.49789 -0.446418 0
M  V30 2727 H 249.565 2.71203 1.77819 0
M  V30 2728 H 249.35 3.89449 0.455182 0
M  V30 2729 H 250.84 3.918 1.44508 0
M  V30 2730 N 251.277 0.427512 1.51691 0
M  V30 2731 C 252.507 -0.140986 2.06118 0
M  V30 2732 C 252.915 -1.37854 1.29588 0
M  V30 2733 O 252.258 -1.80411 0.346036 0
M  V30 2734 C 252.32 -0.538276 3.55447 0
M  V30 2735 C 251.984 0.591095 4.53161 0
M  V30 2736 C 252.981 1.46027 4.98971 0
M  V30 2737 C 250.666 0.769028 4.96378 0
M  V30 2738 C 252.66 2.49216 5.8666 0
M  V30 2739 C 250.347 1.80421 5.83859 0
M  V30 2740 C 251.345 2.66417 6.28897 0
M  V30 2741 O 251.033 3.68159 7.14643 0
M  V30 2742 H 250.765 -0.0157455 0.675817 0
M  V30 2743 H 253.319 0.602495 1.96365 0
M  V30 2744 H 251.549 -1.33432 3.6295 0
M  V30 2745 H 253.238 -1.0368 3.92435 0
M  V30 2746 H 254.004 1.33429 4.66285 0
M  V30 2747 H 249.883 0.109273 4.6087 0
M  V30 2748 H 253.427 3.16372 6.21735 0
M  V30 2749 H 249.324 1.93042 6.15959 0
M  V30 2750 H 250.092 3.64622 7.32798 0
M  V30 2751 N 252.755 -1.56801 0.158532 0
M  V30 2752 C 253.688 -2.13148 -0.815065 0
M  V30 2753 C 254.666 -1.0581 -1.23462 0
M  V30 2754 O 255.85 -1.3371 -1.32868 0
M  V30 2755 C 252.977 -2.6606 -2.09594 0
M  V30 2756 C 252.023 -3.85651 -1.82141 0
M  V30 2757 S 252.856 -5.26041 -1.00207 0
M  V30 2758 C 254.012 -5.8235 -2.29389 0
M  V30 2759 H 254.245 -2.95396 -0.335937 0
M  V30 2760 H 251.778 -1.54299 -0.0559391 0
M  V30 2761 H 253.736 -2.97195 -2.8317 0
M  V30 2762 H 252.397 -1.83921 -2.54621 0
M  V30 2763 H 251.59 -4.20958 -2.77147 0
M  V30 2764 H 251.192 -3.55338 -1.16667 0
M  V30 2765 H 253.484 -5.94485 -3.24952 0
M  V30 2766 H 254.427 -6.79688 -1.9857 0
M  V30 2767 H 254.835 -5.10675 -2.40564 0
M  V30 2768 N 254.233 0.115231 -1.57178 0
M  V30 2769 C 255.461 0.836437 -1.89239 0
M  V30 2770 C 255.876 1.73256 -0.750175 0
M  V30 2771 O 255.233 1.80357 0.278832 0
M  V30 2772 C 255.284 1.66671 -3.20785 0
M  V30 2773 O 255.005 0.806652 -4.3061 0
M  V30 2774 C 256.506 2.49274 -3.66575 0
M  V30 2775 H 253.726 0.240253 -0.626514 0
M  V30 2776 H 256.27 0.0984932 -2.04263 0
M  V30 2777 H 254.425 2.35737 -3.0742 0
M  V30 2778 H 254.839 1.37969 -5.06028 0
M  V30 2779 H 256.313 3.03055 -4.6137 0
M  V30 2780 H 256.79 3.26807 -2.93417 0
M  V30 2781 H 257.396 1.85443 -3.82741 0
M  V30 2782 N 255.711 1.52812 0.385517 0
M  V30 2783 C 256.644 1.72592 1.49289 0
M  V30 2784 C 257.622 0.573819 1.52138 0
M  V30 2785 O 258.806 0.80404 1.70492 0
M  V30 2786 C 255.933 1.78669 2.87741 0
M  V30 2787 C 254.979 3.00455 3.02703 0
M  V30 2788 S 255.812 4.60366 2.73538 0
M  V30 2789 C 256.968 4.69263 4.14177 0
M  V30 2790 H 257.201 2.66248 1.32285 0
M  V30 2791 H 254.734 1.43148 0.578611 0
M  V30 2792 H 256.692 1.82855 3.67524 0
M  V30 2793 H 255.353 0.861 3.02069 0
M  V30 2794 H 254.546 3.01258 4.04054 0
M  V30 2795 H 254.148 2.94278 2.30817 0
M  V30 2796 H 256.44 4.48092 5.08153 0
M  V30 2797 H 257.383 5.71276 4.18388 0
M  V30 2798 H 257.791 3.98072 4.00249 0
M  V30 2799 N 257.189 -0.644168 1.43834 0
M  V30 2800 C 258.136 -1.75671 1.49694 0
M  V30 2801 C 259.106 -1.6246 0.345809 0
M  V30 2802 O 260.291 -1.82573 0.554234 0
M  V30 2803 C 257.431 -3.13867 1.43463 0
M  V30 2804 C 256.544 -3.38147 2.6885 0
M  V30 2805 C 255.679 -4.66241 2.54544 0
M  V30 2806 C 254.718 -4.83657 3.75157 0
M  V30 2807 N 253.855 -6.03016 3.59605 0
M  V30 2808 H 258.695 -1.69998 2.44754 0
M  V30 2809 H 256.232 -0.829458 1.21484 0
M  V30 2810 H 258.19 -3.9377 1.37843 0
M  V30 2811 H 256.82 -3.18588 0.519783 0
M  V30 2812 H 255.872 -2.52276 2.84712 0
M  V30 2813 H 257.184 -3.46899 3.58417 0
M  V30 2814 H 256.338 -5.54285 2.46683 0
M  V30 2815 H 255.077 -4.59826 1.62516 0
M  V30 2816 H 254.082 -3.94046 3.83416 0
M  V30 2817 H 255.307 -4.91896 4.68204 0
M  V30 2818 H 253.253 -5.97715 2.7032 0
M  V30 2819 H 253.17 -6.12766 4.42779 0
M  V30 2820 H 254.438 -6.93657 3.55613 0
M  V30 2821 N 258.668 -1.30515 -0.883378 0
M  V30 2822 C 259.917 -1.18795 -1.63005 0
M  V30 2823 C 260.23 0.255923 -1.93919 0
M  V30 2824 O 261.436 0.494654 -2.66956 0
M  V30 2825 C 259.892 -2.07878 -2.93794 0
M  V30 2826 C 259.5 -3.57184 -2.70414 0
M  V30 2827 C 261.244 -2.04924 -3.71761 0
M  V30 2828 C 259.151 -4.38317 -3.97029 0
M  V30 2829 H 258.081 -0.441031 -0.611562 0
M  V30 2830 H 260.732 -1.55275 -0.977854 0
M  V30 2831 H 259.114 -1.64283 -3.60315 0
M  V30 2832 H 260.288 -4.08937 -2.12384 0
M  V30 2833 H 258.603 -3.61976 -2.0582 0
M  V30 2834 H 261.2 -2.62792 -4.65665 0
M  V30 2835 H 261.543 -1.0331 -4.03277 0
M  V30 2836 H 262.076 -2.46649 -3.12104 0
M  V30 2837 H 258.815 -5.40632 -3.70671 0
M  V30 2838 H 258.335 -3.91326 -4.54559 0
M  V30 2839 H 260.014 -4.49834 -4.65036 0
M  V30 2840 N 260.146 1.09593 -1.13257 0
M  V30 2841 C 261.562 1.33775 -0.870423 0
M  V30 2842 C 261.762 1.95327 0.494926 0
M  V30 2843 O 260.818 2.19853 1.2418 0
M  V30 2844 C 262.131 2.25106 -1.99369 0
M  V30 2845 C 263.679 2.3862 -2.02558 0
M  V30 2846 C 264.154 3.33285 -3.14142 0
M  V30 2847 N 265.645 3.40857 -3.13641 0
M  V30 2848 C 266.38 4.14101 -3.96621 0
M  V30 2849 N 265.876 4.90157 -4.8961 0
M  V30 2850 N 267.669 4.09808 -3.84726 0
M  V30 2851 H 259.82 0.680136 -2.01216 0
M  V30 2852 H 262.083 0.362133 -0.876107 0
M  V30 2853 H 261.789 1.87103 -2.97801 0
M  V30 2854 H 261.663 3.25481 -1.90635 0
M  V30 2855 H 264.05 2.75887 -1.0474 0
M  V30 2856 H 264.131 1.38028 -2.15364 0
M  V30 2857 H 263.775 2.96741 -4.12198 0
M  V30 2858 H 263.705 4.33776 -2.98574 0
M  V30 2859 H 266.196 2.86624 -2.46282 0
M  V30 2860 H 266.509 5.4347 -5.49418 0
M  V30 2861 H 264.854 4.89251 -4.93617 0
M  V30 2862 H 268.045 3.4949 -3.11408 0
M  V30 2863 H 268.218 4.66629 -4.49623 0
M  V30 2864 N 261.624 0.925811 1.2754 0
M  V30 2865 C 262.572 0.413897 2.28888 0
M  V30 2866 C 263.566 -0.500779 1.61829 0
M  V30 2867 O 264.772 -0.38069 1.75928 0
M  V30 2868 H 261.147 0.115274 0.743112 0
M  V30 2869 H 263.118 1.28151 2.69481 0
M  V30 2870 C 261.867 -0.319792 3.46226 0
M  V30 2871 H 261.19 0.374846 3.98039 0
M  V30 2872 H 262.63 -0.642435 4.19105 0
M  V30 2873 C 261.089 -1.53209 3.00048 0
M  V30 2874 O 261.619 -2.6309 3.03557 0
M  V30 2875 N 259.825 -1.38326 2.55566 0
M  V30 2876 H 259.372 -0.489292 2.5291 0
M  V30 2877 H 259.33 -2.19564 2.25031 0
M  V30 2878 O 263.141 -1.38545 0.829904 0
M  V30 2879 H 263.832 -1.89212 0.414565 0
M  V30 END ATOM
M  V30 BEGIN BOND
M  V30 END BOND
M  V30 END CTAB
M  END
$$$$
