drugbank_target|P22392 Nucleoside diphosphate kinase B (DB04315)
 OpenBabel12092120293D

  0  0  0     0  0            999 V3000
M  V30 BEGIN CTAB
M  V30 COUNTS 2446 2474 0 0 0
M  V30 BEGIN ATOM
M  V30 1 H -0.908 1.98254 -0.117106 0
M  V30 2 N 0 1.576 0 0
M  V30 3 C 0.933 2.03868 1.02534 0
M  V30 4 C 1.911 0.928543 1.3348 0
M  V30 5 O 3.095 1.19667 1.45644 0
M  V30 6 C 0.222 2.43627 2.35294 0
M  V30 7 C -0.732 3.65373 2.2001 0
M  V30 8 S 0.101 5.13292 1.52614 0
M  V30 9 C 1.257 5.56322 2.86805 0
M  V30 10 H 1.49 2.90518 0.631377 0
M  V30 11 H -0.977 1.52953 0.210867 0
M  V30 12 H 0.981 2.67203 3.11629 0
M  V30 13 H -0.358 1.57376 2.7183 0
M  V30 14 H -1.165 3.90944 3.18086 0
M  V30 15 H -1.563 3.418 1.51819 0
M  V30 16 H 0.729 5.58782 3.83104 0
M  V30 17 H 1.672 6.56266 2.65933 0
M  V30 18 H 2.08 4.83886 2.90714 0
M  V30 19 N 1.4781 -0.272755 1.55222 0
M  V30 20 C 2.4411 -1.32041 1.87344 0
M  V30 21 C 3.4411 -1.42342 0.74803 0
M  V30 22 O 4.6311 -1.41488 1.0162 0
M  V30 23 C 1.7631 -2.70173 2.07893 0
M  V30 24 H 2.9561 -1.04789 2.80997 0
M  V30 25 H 0.5091 -0.51083 1.47717 0
M  V30 26 H 1.2441 -3.02605 1.16622 0
M  V30 27 H 1.0291 -2.64082 2.89833 0
M  V30 28 H 2.5191 -3.45869 2.34017 0
M  V30 29 N 2.9562 -1.48159 -0.537278 0
M  V30 30 C 3.9042 -1.62573 -1.66352 0
M  V30 31 C 4.8982 -0.492366 -1.62087 0
M  V30 32 O 6.1042 -0.670847 -1.67032 0
M  V30 33 H 2.4792 -0.511992 -0.550789 0
M  V30 34 H 4.4502 -2.57176 -1.51337 0
M  V30 35 C 3.1992 -1.67583 -3.04649 0
M  V30 36 H 2.5222 -2.54151 -3.08622 0
M  V30 37 H 3.9622 -1.81713 -3.83088 0
M  V30 38 C 2.4212 -0.413039 -3.34358 0
M  V30 39 O 2.9512 0.477259 -3.98855 0
M  V30 40 N 1.1572 -0.286961 -2.8918 0
M  V30 41 H 0.7042 -1.01241 -2.36871 0
M  V30 42 H 0.6622 0.556963 -3.09427 0
M  V30 43 N 4.4343 0.785586 -1.36625 0
M  V30 44 C 5.3643 1.91259 -1.33949 0
M  V30 45 C 6.3453 1.68795 -0.210325 0
M  V30 46 O 7.5303 1.89854 -0.408561 0
M  V30 47 C 4.6603 3.28339 -1.13186 0
M  V30 48 C 3.6143 3.65335 -2.22967 0
M  V30 49 C 2.9403 5.00806 -1.87342 0
M  V30 50 C 4.2403 3.7352 -3.65075 0
M  V30 51 H 5.9343 1.93755 -2.28253 0
M  V30 52 H 3.4803 0.930788 -1.09874 0
M  V30 53 H 5.4333 4.06804 -1.09948 0
M  V30 54 H 4.1573 3.2624 -0.153332 0
M  V30 55 H 2.8163 2.89169 -2.25337 0
M  V30 56 H 2.4643 4.95233 -0.880545 0
M  V30 57 H 2.1643 5.26529 -2.60846 0
M  V30 58 H 3.6883 5.81687 -1.85667 0
M  V30 59 H 5.1023 4.42168 -3.64911 0
M  V30 60 H 3.4993 4.10731 -4.37516 0
M  V30 61 H 4.5693 2.74527 -3.99703 0
M  V30 62 N 5.9124 1.20967 1.01018 0
M  V30 63 C 6.8224 0.980157 2.13143 0
M  V30 64 C 7.8384 -0.0660665 1.73875 0
M  V30 65 O 9.0144 0.122821 2.01025 0
M  V30 66 C 6.0794 0.54216 3.42435 0
M  V30 67 C 5.1404 1.65999 3.95908 0
M  V30 68 C 4.3734 1.2428 5.19028 0
M  V30 69 O 4.5964 0.114196 5.70286 0
M  V30 70 O 3.5304 2.05271 5.65816 0
M  V30 71 H 7.3564 1.91913 2.35379 0
M  V30 72 H 4.9414 0.994099 1.11526 0
M  V30 73 H 6.8234 0.30744 4.20277 0
M  V30 74 H 5.4984 -0.36815 3.216 0
M  V30 75 H 4.4054 1.94906 3.19316 0
M  V30 76 H 5.7384 2.54753 4.21143 0
M  V30 77 N 7.3905 -1.2043 1.01659 0
M  V30 78 C 8.8065 -1.41852 0.731442 0
M  V30 79 C 9.0065 -1.89358 -0.688898 0
M  V30 80 O 8.0625 -2.06247 -1.45666 0
M  V30 81 C 9.3755 -2.44019 1.75714 0
M  V30 82 C 10.9235 -2.57785 1.77527 0
M  V30 83 C 11.3985 -3.63194 2.79023 0
M  V30 84 N 12.8895 -3.70678 2.77763 0
M  V30 85 C 13.6245 -4.51897 3.52954 0
M  V30 86 N 13.1205 -5.36921 4.37821 0
M  V30 87 N 14.9135 -4.4643 3.41551 0
M  V30 88 H 7.0645 -0.879093 1.93354 0
M  V30 89 H 9.3275 -0.448425 0.835236 0
M  V30 90 H 9.0335 -2.1611 2.77469 0
M  V30 91 H 8.9075 -3.43007 1.56927 0
M  V30 92 H 11.2945 -2.85023 0.764569 0
M  V30 93 H 11.3755 -1.58992 2.00387 0
M  V30 94 H 11.0195 -3.36699 3.80258 0
M  V30 95 H 10.9495 -4.61609 2.53425 0
M  V30 96 H 13.4405 -3.09944 2.16201 0
M  V30 97 H 13.7535 -5.95981 4.91962 0
M  V30 98 H 12.0985 -5.36424 4.41899 0
M  V30 99 H 15.2895 -3.79042 2.74672 0
M  V30 100 H 15.4625 -5.09491 4.00404 0
M  V30 101 N 8.8686 -0.792821 -1.36206 0
M  V30 102 C 10.0966 -0.378825 -2.03402 0
M  V30 103 C 10.5116 1.00586 -1.59774 0
M  V30 104 O 9.8686 1.64574 -0.788764 0
M  V30 105 C 9.9196 -0.43683 -3.58851 0
M  V30 106 O 9.6406 -1.76691 -4.00889 0
M  V30 107 C 11.1416 -0.0138943 -4.43298 0
M  V30 108 H 8.3616 -0.155673 -0.652692 0
M  V30 109 H 10.9056 -1.07261 -1.74113 0
M  V30 110 H 9.0606 0.208575 -3.86838 0
M  V30 111 H 9.4746 -1.72011 -4.95492 0
M  V30 112 H 10.9486 -0.105615 -5.51899 0
M  V30 113 H 11.4256 1.03915 -4.2673 0
M  V30 114 H 12.0316 -0.63192 -4.20579 0
M  V30 115 N 10.3467 1.47872 -0.545128 0
M  V30 116 C 11.5937 2.02493 -0.0165858 0
M  V30 117 C 11.9217 1.42073 1.32836 0
M  V30 118 O 11.1767 0.561459 1.87473 0
M  V30 119 C 11.4757 3.57131 0.13867 0
M  V30 120 C 11.1417 4.36411 -1.13384 0
M  V30 121 C 9.8037 4.57792 -1.48256 0
M  V30 122 C 12.1557 4.82223 -1.97764 0
M  V30 123 C 9.4837 5.22233 -2.67376 0
M  V30 124 C 11.8357 5.47977 -3.16076 0
M  V30 125 C 10.4997 5.67593 -3.51275 0
M  V30 126 H 9.7697 0.740975 -0.00606918 0
M  V30 127 H 12.4167 1.77683 -0.714207 0
M  V30 128 H 10.7217 3.80865 0.919172 0
M  V30 129 H 12.4187 3.97031 0.562782 0
M  V30 130 H 9.0087 4.2004 -0.852297 0
M  V30 131 H 13.1927 4.65493 -1.72132 0
M  V30 132 H 8.4487 5.35616 -2.94831 0
M  V30 133 H 12.6227 5.8244 -3.81755 0
M  V30 134 H 10.2497 6.17298 -4.43675 0
M  V30 135 N 11.8248 0.280983 1.55075 0
M  V30 136 C 13.0738 -0.334784 1.98902 0
M  V30 137 C 13.3868 -1.56534 1.17288 0
M  V30 138 O 14.5928 -2.25443 1.51287 0
M  V30 139 C 13.0488 -0.646994 3.54037 0
M  V30 140 C 12.6568 0.564085 4.44435 0
M  V30 141 C 14.4008 -1.22506 4.06439 0
M  V30 142 C 12.3078 0.226137 5.90967 0
M  V30 143 H 11.2378 -0.128866 0.742906 0
M  V30 144 H 13.8888 0.386556 1.79382 0
M  V30 145 H 12.2708 -1.42739 3.6938 0
M  V30 146 H 13.4448 1.34082 4.40861 0
M  V30 147 H 11.7598 1.0594 4.02698 0
M  V30 148 H 14.3568 -1.49182 5.13468 0
M  V30 149 H 14.6998 -2.16085 3.55827 0
M  V30 150 H 15.2328 -0.50682 3.94558 0
M  V30 151 H 11.9718 1.12996 6.45687 0
M  V30 152 H 11.4918 -0.513717 5.97596 0
M  V30 153 H 13.1708 -0.179539 6.46751 0
M  V30 154 N 13.3029 -1.57598 0.00835791 0
M  V30 155 C 14.2659 -2.07884 -0.965242 0
M  V30 156 C 15.2659 -0.989825 -1.26725 0
M  V30 157 O 16.4559 -1.25218 -1.21104 0
M  V30 158 C 13.5879 -2.52731 -2.28779 0
M  V30 159 H 14.7809 -2.95178 -0.530112 0
M  V30 160 H 12.3339 -1.54458 -0.239283 0
M  V30 161 H 13.0689 -1.68705 -2.76964 0
M  V30 162 H 12.8539 -3.32272 -2.08177 0
M  V30 163 H 14.3439 -2.91933 -2.98605 0
M  V30 164 N 14.781 0.264519 -1.55364 0
M  V30 165 C 16.03 0.992812 -1.75574 0
M  V30 166 C 16.343 1.87142 -0.568979 0
M  V30 167 O 17.549 2.63513 -0.653682 0
M  V30 168 C 16.005 1.81519 -3.10771 0
M  V30 169 C 15.613 0.984839 -4.37041 0
M  V30 170 C 17.357 2.53727 -3.40327 0
M  V30 171 C 15.264 1.80209 -5.63275 0
M  V30 172 H 14.194 0.374412 -0.65447 0
M  V30 173 H 16.845 0.248138 -1.81815 0
M  V30 174 H 15.227 2.60115 -2.98591 0
M  V30 175 H 16.401 0.242455 -4.60162 0
M  V30 176 H 14.716 0.37691 -4.14691 0
M  V30 177 H 17.313 3.15292 -4.3185 0
M  V30 178 H 17.656 3.24447 -2.60845 0
M  V30 179 H 18.189 1.82156 -3.53644 0
M  V30 180 H 14.928 1.13896 -6.45529 0
M  V30 181 H 14.448 2.52022 -5.44284 0
M  V30 182 H 16.127 2.37364 -6.01887 0
M  V30 183 N 16.2591 1.48442 0.529413 0
M  V30 184 C 17.2061 1.63007 1.63394 0
M  V30 185 C 18.1761 0.47212 1.59249 0
M  V30 186 O 19.3611 0.695673 1.77666 0
M  V30 187 C 16.5011 1.6763 3.01653 0
M  V30 188 C 15.6141 2.94535 3.16027 0
M  V30 189 C 14.7491 2.90316 4.44849 0
M  V30 190 C 13.7881 4.11923 4.52754 0
M  V30 191 N 12.9251 4.05777 5.72965 0
M  V30 192 H 17.7651 2.5733 1.50285 0
M  V30 193 H 15.3021 1.27613 0.731656 0
M  V30 194 H 17.2601 1.68292 3.81751 0
M  V30 195 H 15.8901 0.76797 3.13532 0
M  V30 196 H 14.9421 3.03615 2.29177 0
M  V30 197 H 16.2541 3.84512 3.17729 0
M  V30 198 H 15.4081 2.89382 5.33238 0
M  V30 199 H 14.1471 1.98068 4.45668 0
M  V30 200 H 13.1521 4.13131 3.62771 0
M  V30 201 H 14.3771 5.0533 4.53672 0
M  V30 202 H 12.3231 3.16351 5.74681 0
M  V30 203 H 12.2401 4.8946 5.76164 0
M  V30 204 H 13.5081 4.08904 6.6364 0
M  V30 205 N 17.7372 -0.778329 1.37039 0
M  V30 206 C 19.1482 -1.35421 1.28523 0
M  V30 207 C 19.4992 -1.96075 -0.0700901 0
M  V30 208 O 18.6242 -1.93352 -0.971801 0
M  V30 209 C 19.2192 -2.46211 2.32735 0
M  V30 210 C 17.7782 -2.99585 2.27873 0
M  V30 211 C 16.9252 -1.72748 2.16918 0
M  V30 212 H 19.8762 -0.5791 1.47757 0
M  V30 213 H 19.8972 -3.2552 1.9702 0
M  V30 214 H 19.4092 -2.02036 3.31365 0
M  V30 215 H 17.5102 -3.48152 1.32745 0
M  V30 216 H 17.6232 -3.55646 3.21018 0
M  V30 217 H 15.9872 -1.95416 1.63354 0
M  V30 218 H 16.7702 -1.30686 3.17452 0
M  V30 219 N 19.2153 -1.21501 -1.00376 0
M  V30 220 C 20.4923 -0.941745 -1.71437 0
M  V30 221 C 20.8723 0.546114 -2.03914 0
M  V30 222 O 20.2203 1.51128 -1.71384 0
M  V30 223 C 20.4303 -1.82812 -2.97289 0
M  V30 224 C 21.7783 -2.07771 -3.70292 0
M  V30 225 O 22.8023 -1.80171 -3.07273 0
M  V30 226 O 21.6613 -2.54456 -4.83647 0
M  V30 227 H 18.7553 -0.353243 -0.747762 0
M  V30 228 H 21.3013 -1.32436 -1.06108 0
M  V30 229 H 20.0733 -2.83501 -2.69709 0
M  V30 230 H 19.6963 -1.4464 -3.70358 0
M  V30 231 N 20.6934 1.19889 -1.02296 0
M  V30 232 C 21.9414 1.89046 -0.714558 0
M  V30 233 C 22.2624 1.79636 0.758681 0
M  V30 234 O 21.5324 1.20292 1.54618 0
M  V30 235 H 20.1124 0.699802 -0.261317 0
M  V30 236 H 22.7744 1.45574 -1.29592 0
M  V30 237 H 21.8704 2.95524 -1.0036 0
M  V30 238 N 22.1715 0.800033 1.35784 0
M  V30 239 C 23.4175 0.377901 1.99248 0
M  V30 240 C 23.7505 -1.05052 1.63333 0
M  V30 241 O 23.0255 -1.72768 0.893385 0
M  V30 242 C 23.3085 0.553922 3.55814 0
M  V30 243 C 23.1615 2.0268 4.01548 0
M  V30 244 C 24.4805 -0.0244802 4.40093 0
M  V30 245 H 21.5995 0.138782 0.723815 0
M  V30 246 H 24.2415 1.00835 1.61035 0
M  V30 247 H 22.3915 0.0172398 3.88496 0
M  V30 248 H 24.0635 2.62536 3.79305 0
M  V30 249 H 22.3065 2.5256 3.52698 0
M  V30 250 H 22.9775 2.10087 5.10458 0
M  V30 251 H 25.4535 0.433775 4.13833 0
M  V30 252 H 24.3295 0.128637 5.48749 0
M  V30 253 H 24.5905 -1.11758 4.27741 0
M  V30 254 N 23.6496 -1.47581 0.552962 0
M  V30 255 C 24.5816 -2.27997 -0.234533 0
M  V30 256 C 25.5946 -1.36753 -0.883321 0
M  V30 257 O 26.7836 -1.61612 -0.757889 0
M  V30 258 C 23.8836 -3.10879 -1.34935 0
M  V30 259 C 23.0566 -4.30056 -0.798158 0
M  V30 260 C 22.1156 -4.94567 -1.79694 0
M  V30 261 O 21.1416 -5.53087 -1.34474 0
M  V30 262 N 22.3436 -4.88878 -3.13015 0
M  V30 263 H 25.1086 -2.96222 0.455255 0
M  V30 264 H 22.6696 -1.57163 0.388761 0
M  V30 265 H 24.6616 -3.50903 -2.01616 0
M  V30 266 H 23.2316 -2.44924 -1.94244 0
M  V30 267 H 22.4516 -3.94174 0.0453079 0
M  V30 268 H 23.7396 -5.07152 -0.409173 0
M  V30 269 H 23.1376 -4.42526 -3.52402 0
M  V30 270 H 21.6946 -5.32934 -3.75266 0
M  V30 271 N 25.1277 -0.289203 -1.54924 0
M  V30 272 C 26.5437 0.0645403 -1.59469 0
M  V30 273 C 26.7437 1.53419 -1.30632 0
M  V30 274 O 25.7997 2.2852 -1.074 0
M  V30 275 C 27.1127 -0.32278 -2.98963 0
M  V30 276 C 28.6607 -0.270564 -3.11828 0
M  V30 277 C 29.1357 -0.632532 -4.53611 0
M  V30 278 N 30.6267 -0.584617 -4.59496 0
M  V30 279 C 31.3617 -0.837314 -5.67254 0
M  V30 280 N 30.8577 -1.15536 -6.83098 0
M  V30 281 N 32.6507 -0.765166 -5.56868 0
M  V30 282 H 24.8017 -1.24714 -1.71931 0
M  V30 283 H 27.0647 -0.504809 -0.802416 0
M  V30 284 H 26.7707 -1.34541 -3.24948 0
M  V30 285 H 26.6447 0.32944 -3.75759 0
M  V30 286 H 29.0317 0.742805 -2.85598 0
M  V30 287 H 29.1127 -0.957242 -2.37214 0
M  V30 288 H 28.7567 -1.64365 -4.80569 0
M  V30 289 H 28.6867 0.07609 -5.26545 0
M  V30 290 H 31.1777 -0.349248 -3.76283 0
M  V30 291 H 31.4907 -1.33447 -7.61191 0
M  V30 292 H 29.8357 -1.19328 -6.84679 0
M  V30 293 H 33.0267 -0.516432 -4.65243 0
M  V30 294 H 33.1997 -0.965477 -6.40767 0
M  V30 295 N 26.6058 1.57591 -0.0167156 0
M  V30 296 C 27.8538 1.90906 0.663285 0
M  V30 297 C 28.1748 0.892509 1.73376 0
M  V30 298 O 27.4448 -0.0677623 1.95783 0
M  V30 299 H 26.0248 0.704637 0.247983 0
M  V30 300 H 28.6868 1.94803 -0.0615909 0
M  V30 301 H 27.7828 2.9116 1.12393 0
M  V30 302 N 28.0839 -0.256276 1.55502 0
M  V30 303 C 29.0139 -1.32102 1.92539 0
M  V30 304 C 29.9949 -1.50684 0.789194 0
M  V30 305 O 31.1799 -1.63449 1.04872 0
M  V30 306 C 28.3099 -2.67752 2.21192 0
M  V30 307 C 27.2639 -2.63878 3.36975 0
M  V30 308 C 26.5899 -4.03236 3.51147 0
M  V30 309 C 27.8899 -2.21682 4.72921 0
M  V30 310 H 29.5839 -1.01351 2.81724 0
M  V30 311 H 27.1299 -0.486105 1.35547 0
M  V30 312 H 29.0829 -3.42365 2.45691 0
M  V30 313 H 27.8069 -3.0012 1.28824 0
M  V30 314 H 26.4659 -1.91722 3.12471 0
M  V30 315 H 26.1139 -4.32854 2.56216 0
M  V30 316 H 25.8139 -4.01535 4.29003 0
M  V30 317 H 27.3379 -4.79563 3.77957 0
M  V30 318 H 28.7519 -2.86023 4.96854 0
M  V30 319 H 27.1489 -2.3111 5.53812 0
M  V30 320 H 28.2189 -1.16833 4.70615 0
M  V30 321 N 29.562 -1.4872 -0.521534 0
M  V30 322 C 30.808 -1.574 -1.27879 0
M  V30 323 C 31.141 -0.250817 -1.92573 0
M  V30 324 O 30.416 0.743934 -1.79711 0
M  V30 325 C 30.699 -2.71843 -2.36164 0
M  V30 326 C 30.552 -4.13893 -1.76105 0
M  V30 327 C 31.871 -2.82008 -3.37875 0
M  V30 328 H 28.99 -0.572941 -0.463581 0
M  V30 329 H 31.632 -1.80927 -0.580119 0
M  V30 330 H 29.782 -2.51914 -2.95756 0
M  V30 331 H 31.454 -4.45284 -1.20499 0
M  V30 332 H 29.697 -4.20498 -1.06601 0
M  V30 333 H 30.368 -4.89804 -2.5455 0
M  V30 334 H 32.844 -3.00086 -2.88249 0
M  V30 335 H 31.72 -3.63796 -4.11028 0
M  V30 336 H 31.981 -1.90511 -3.98946 0
M  V30 337 N 31.0401 0.771051 -1.3745 0
M  V30 338 C 32.2881 1.52661 -1.32435 0
M  V30 339 C 32.6091 1.9479 0.0905024 0
M  V30 340 O 31.8791 1.66348 1.03466 0
M  V30 341 H 30.4591 0.566218 -0.487244 0
M  V30 342 H 33.1211 0.917636 -1.71946 0
M  V30 343 H 32.2171 2.42568 -1.96385 0
M  V30 344 N 32.5182 1.22032 0.997298 0
M  V30 345 C 33.4282 1.00271 2.12092 0
M  V30 346 C 34.4442 -0.047621 1.73935 0
M  V30 347 O 35.6202 0.144136 2.00884 0
M  V30 348 C 32.6852 0.578449 3.4184 0
M  V30 349 C 31.7462 1.70189 3.94125 0
M  V30 350 C 30.9792 1.29778 5.17681 0
M  V30 351 O 31.2022 0.174676 5.70132 0
M  V30 352 O 30.1362 2.11261 5.63607 0
M  V30 353 H 33.9622 1.94398 2.3333 0
M  V30 354 H 31.5472 1.00587 1.10465 0
M  V30 355 H 33.4292 0.351998 4.19927 0
M  V30 356 H 32.1042 -0.334019 3.21972 0
M  V30 357 H 31.0112 1.98282 3.1723 0
M  V30 358 H 32.3442 2.59206 4.18417 0
M  V30 359 N 33.9963 -1.19345 1.0293 0
M  V30 360 C 35.2453 -1.88363 0.721256 0
M  V30 361 C 35.5583 -1.80514 -0.753254 0
M  V30 362 O 36.7643 -2.44788 -1.17436 0
M  V30 363 C 35.2203 -3.37872 1.23978 0
M  V30 364 C 34.8283 -3.54278 2.74211 0
M  V30 365 C 36.5723 -4.12365 1.00775 0
M  V30 366 C 34.4793 -4.97682 3.19479 0
M  V30 367 H 33.4093 -0.705484 0.266098 0
M  V30 368 H 36.0603 -1.34928 1.24365 0
M  V30 369 H 34.4423 -3.90707 0.6453 0
M  V30 370 H 35.6163 -3.11769 3.39318 0
M  V30 371 H 33.9313 -2.93174 2.95699 0
M  V30 372 H 36.5283 -5.18119 1.32123 0
M  V30 373 H 36.8713 -4.16263 -0.0554308 0
M  V30 374 H 37.4043 -3.65668 1.56625 0
M  V30 375 H 34.1433 -4.98945 4.25128 0
M  V30 376 H 33.6633 -5.4095 2.591 0
M  V30 377 H 35.3423 -5.66337 3.12845 0
M  V30 378 N 35.4744 -0.807222 -1.35358 0
M  V30 379 C 36.7234 -0.384376 -1.98004 0
M  V30 380 C 37.0364 1.0543 -1.64754 0
M  V30 381 O 38.2424 1.58029 -2.20769 0
M  V30 382 C 36.6984 -0.636326 -3.5423 0
M  V30 383 C 36.3064 -2.08759 -3.96388 0
M  V30 384 C 38.0504 -0.278869 -4.23583 0
M  V30 385 C 35.9574 -2.28525 -5.45463 0
M  V30 386 H 34.8874 -0.139986 -0.740891 0
M  V30 387 H 37.5384 -0.991369 -1.54415 0
M  V30 388 H 35.9204 0.0406256 -3.95979 0
M  V30 389 H 37.0944 -2.8024 -3.6579 0
M  V30 390 H 35.4094 -2.40497 -3.39926 0
M  V30 391 H 38.0064 -0.404599 -5.33167 0
M  V30 392 H 38.3494 0.775012 -4.09022 0
M  V30 393 H 38.8824 -0.909764 -3.87257 0
M  V30 394 H 35.6214 -3.32361 -5.64992 0
M  V30 395 H 35.1414 -1.61569 -5.77629 0
M  V30 396 H 36.8204 -2.10109 -6.11934 0
M  V30 397 N 36.9525 1.47285 -0.560781 0
M  V30 398 C 37.8995 2.30058 0.18491 0
M  V30 399 C 38.8695 1.39281 0.904986 0
M  V30 400 O 40.0545 1.68241 0.899979 0
M  V30 401 C 37.1945 3.23317 1.20666 0
M  V30 402 C 36.3075 4.29186 0.492285 0
M  V30 403 C 35.4425 5.09592 1.49964 0
M  V30 404 C 34.4815 6.07232 0.770439 0
M  V30 405 N 33.6185 6.80584 1.72479 0
M  V30 406 H 38.4585 2.93302 -0.527048 0
M  V30 407 H 35.9955 1.44568 -0.271738 0
M  V30 408 H 37.9535 3.75811 1.81168 0
M  V30 409 H 36.5835 2.61929 1.88661 0
M  V30 410 H 35.6355 3.7972 -0.227333 0
M  V30 411 H 36.9475 4.98738 -0.0787929 0
M  V30 412 H 36.1015 5.66254 2.17809 0
M  V30 413 H 34.8405 4.3995 2.10464 0
M  V30 414 H 33.8455 5.49745 0.0780846 0
M  V30 415 H 35.0705 6.78884 0.171134 0
M  V30 416 H 33.0165 6.1367 2.3183 0
M  V30 417 H 32.9335 7.46319 1.20596 0
M  V30 418 H 34.2015 7.41818 2.39428 0
M  V30 419 N 38.4306 0.297415 1.54768 0
M  V30 420 C 39.8466 -0.0560823 1.59501 0
M  V30 421 C 40.0466 -1.52725 1.31444 0
M  V30 422 O 39.1026 -2.27947 1.08611 0
M  V30 423 C 40.4156 0.338631 2.98787 0
M  V30 424 C 41.9636 0.287097 3.11681 0
M  V30 425 C 42.4386 0.656579 4.53269 0
M  V30 426 N 43.9296 0.608977 4.59179 0
M  V30 427 C 44.6646 0.867385 5.66802 0
M  V30 428 N 44.1606 1.19157 6.82476 0
M  V30 429 N 45.9536 0.794687 5.56454 0
M  V30 430 H 38.1046 1.25624 1.71267 0
M  V30 431 H 40.3676 0.509057 0.799728 0
M  V30 432 H 40.0736 1.36263 3.2423 0
M  V30 433 H 39.9476 -0.309508 3.75928 0
M  V30 434 H 42.3346 -0.727649 2.85988 0
M  V30 435 H 42.4156 0.969809 2.36703 0
M  V30 436 H 42.0596 1.66912 4.7969 0
M  V30 437 H 41.9896 -0.0481649 5.26578 0
M  V30 438 H 44.4806 0.369198 3.76092 0
M  V30 439 H 44.7936 1.37482 7.60473 0
M  V30 440 H 43.1386 1.22958 6.84037 0
M  V30 441 H 46.3296 0.541098 4.64962 0
M  V30 442 H 46.5026 0.999445 6.40246 0
M  V30 443 N 39.9087 -1.5758 0.0250728 0
M  V30 444 C 41.1557 -1.91633 -0.654444 0
M  V30 445 C 41.4837 -0.901103 -1.72367 0
M  V30 446 O 40.7387 0.0905647 -1.9549 0
M  V30 447 C 41.0377 -3.32421 -1.31268 0
M  V30 448 C 40.7037 -4.49344 -0.374223 0
M  V30 449 C 39.3657 -4.8106 -0.115911 0
M  V30 450 C 41.7177 -5.20498 0.270432 0
M  V30 451 C 39.0457 -5.8129 0.79493 0
M  V30 452 C 41.3977 -6.21699 1.1693 0
M  V30 453 C 40.0617 -6.51859 1.43655 0
M  V30 454 H 39.3317 -0.701236 -0.239478 0
M  V30 455 H 41.9787 -1.91307 0.0859734 0
M  V30 456 H 40.2837 -3.28989 -2.12775 0
M  V30 457 H 41.9807 -3.56038 -1.84494 0
M  V30 458 H 38.5707 -4.24579 -0.58573 0
M  V30 459 H 42.7547 -4.96229 0.0839194 0
M  V30 460 H 38.0107 -6.03005 1.00973 0
M  V30 461 H 42.1847 -6.75955 1.67504 0
M  V30 462 H 39.8117 -7.2934 2.144 0
M  V30 463 N 41.3868 0.248026 -1.55636 0
M  V30 464 C 42.2968 1.32859 -1.93354 0
M  V30 465 C 43.3128 1.52719 -0.833838 0
M  V30 466 O 44.4888 1.66363 -1.13513 0
M  V30 467 C 41.5538 2.66337 -2.21958 0
M  V30 468 C 40.6148 2.55008 -3.45354 0
M  V30 469 C 39.8478 3.82121 -3.72584 0
M  V30 470 O 40.0708 4.83951 -3.01907 0
M  V30 471 O 39.0048 3.80822 -4.6611 0
M  V30 472 H 42.8308 1.03862 -2.85388 0
M  V30 473 H 40.4158 0.448686 -1.42503 0
M  V30 474 H 42.2978 3.45216 -2.4167 0
M  V30 475 H 40.9728 2.95068 -1.33103 0
M  V30 476 H 39.8798 1.7442 -3.30951 0
M  V30 477 H 41.2128 2.31222 -4.34508 0
M  V30 478 N 42.8649 1.48995 0.513639 0
M  V30 479 C 43.7969 1.60836 1.63293 0
M  V30 480 C 44.8099 0.491701 1.55197 0
M  V30 481 O 45.9989 0.763238 1.6136 0
M  V30 482 C 43.0989 1.53731 3.02027 0
M  V30 483 C 42.2719 2.80715 3.35437 0
M  V30 484 C 41.3309 2.66837 4.53525 0
M  V30 485 O 40.3569 3.40753 4.55934 0
M  V30 486 N 41.5589 1.77539 5.52684 0
M  V30 487 H 44.3239 2.57366 1.53566 0
M  V30 488 H 41.8849 1.45925 0.701259 0
M  V30 489 H 43.8769 1.42118 3.78926 0
M  V30 490 H 42.4469 0.651092 3.05744 0
M  V30 491 H 41.6669 3.06772 2.47557 0
M  V30 492 H 42.9549 3.64927 3.54551 0
M  V30 493 H 42.3529 1.16719 5.53528 0
M  V30 494 H 40.9099 1.71856 6.28736 0
M  V30 495 N 44.343 -0.763751 1.37857 0
M  V30 496 C 45.29 -1.87726 1.34267 0
M  V30 497 C 46.26 -1.64807 0.206879 0
M  V30 498 O 47.445 -1.86613 0.397508 0
M  V30 499 C 44.585 -3.24896 1.16346 0
M  V30 500 C 43.698 -3.59716 2.39225 0
M  V30 501 C 42.833 -4.86137 2.14114 0
M  V30 502 C 41.872 -5.13711 3.32817 0
M  V30 503 N 41.009 -6.31323 3.07206 0
M  V30 504 H 45.849 -1.90129 2.29466 0
M  V30 505 H 43.386 -0.929433 1.14017 0
M  V30 506 H 45.344 -4.04036 1.03975 0
M  V30 507 H 43.974 -3.21847 0.247909 0
M  V30 508 H 43.026 -2.75498 2.62307 0
M  V30 509 H 44.338 -3.76027 3.27728 0
M  V30 510 H 43.492 -5.73198 1.9882 0
M  V30 511 H 42.231 -4.71945 1.22961 0
M  V30 512 H 41.236 -4.25123 3.48641 0
M  V30 513 H 42.461 -5.29807 4.24832 0
M  V30 514 H 40.407 -6.18474 2.1869 0
M  V30 515 H 40.324 -6.48087 3.89254 0
M  V30 516 H 41.592 -7.213 2.95546 0
M  V30 517 N 45.8211 -1.22559 -0.990812 0
M  V30 518 C 47.0691 -1.04933 -1.72724 0
M  V30 519 C 47.3901 0.416158 -1.90508 0
M  V30 520 O 46.6601 1.29918 -1.46622 0
M  V30 521 H 45.2401 -0.385296 -0.639965 0
M  V30 522 H 47.9021 -1.54105 -1.19322 0
M  V30 523 H 46.9981 -1.52886 -2.72089 0
M  V30 524 N 47.2992 1.18797 -1.03562 0
M  V30 525 C 48.5462 1.8865 -0.736023 0
M  V30 526 C 48.8742 1.80041 0.735889 0
M  V30 527 O 48.1292 1.19179 1.55225 0
M  V30 528 C 48.4282 3.38692 -1.14117 0
M  V30 529 C 48.0942 3.67504 -2.6125 0
M  V30 530 C 46.7562 3.75078 -3.01447 0
M  V30 531 C 49.1082 3.80293 -3.56408 0
M  V30 532 C 46.4362 3.92915 -4.35701 0
M  V30 533 C 48.7882 3.99645 -4.90374 0
M  V30 534 C 47.4522 4.05453 -5.30249 0
M  V30 535 H 46.7222 0.690321 -0.26933 0
M  V30 536 H 49.3692 1.40641 -1.29971 0
M  V30 537 H 47.6742 3.88645 -0.496202 0
M  V30 538 H 49.3712 3.91072 -0.886789 0
M  V30 539 H 45.9612 3.62223 -2.29113 0
M  V30 540 H 50.1452 3.73779 -3.26501 0
M  V30 541 H 45.4012 3.95653 -4.66121 0
M  V30 542 H 49.5752 4.08482 -5.64017 0
M  V30 543 H 47.2022 4.19027 -6.34288 0
M  V30 544 N 48.7773 0.814389 1.34928 0
M  V30 545 C 50.1933 0.499084 1.51596 0
M  V30 546 C 50.3933 -0.978319 1.76157 0
M  V30 547 O 49.4493 -1.76309 1.80752 0
M  V30 548 C 50.7623 1.35121 2.68631 0
M  V30 549 C 52.3103 1.34746 2.82511 0
M  V30 550 C 52.7853 2.18388 4.0258 0
M  V30 551 N 54.2763 2.15966 4.09772 0
M  V30 552 C 55.0113 2.77437 5.01813 0
M  V30 553 N 54.5073 3.47866 5.99134 0
M  V30 554 N 56.3003 2.67037 4.94619 0
M  V30 555 H 48.4513 1.7711 1.17243 0
M  V30 556 H 50.7143 0.754256 0.574284 0
M  V30 557 H 50.4203 2.40001 2.57085 0
M  V30 558 H 50.2943 1.00991 3.63429 0
M  V30 559 H 52.6813 0.30648 2.93504 0
M  V30 560 H 52.7623 1.72869 1.88547 0
M  V30 561 H 52.4063 3.2253 3.92347 0
M  V30 562 H 52.3363 1.77621 4.9574 0
M  V30 563 H 54.8273 1.64729 3.40107 0
M  V30 564 H 55.1403 3.92038 6.65977 0
M  V30 565 H 53.4853 3.51972 5.99284 0
M  V30 566 H 56.6763 2.11597 4.17546 0
M  V30 567 H 56.8493 3.15232 5.66156 0
M  V30 568 N 50.2554 -1.46986 0.568584 0
M  V30 569 C 51.1854 -2.32946 -0.160753 0
M  V30 570 C 52.1664 -1.44487 -0.897631 0
M  V30 571 O 53.3514 -1.73327 -0.875867 0
M  V30 572 C 50.4814 -3.26494 -1.18403 0
M  V30 573 C 49.4354 -4.24282 -0.562895 0
M  V30 574 C 48.7614 -5.07236 -1.69163 0
M  V30 575 C 50.0614 -5.19989 0.490761 0
M  V30 576 H 51.7554 -2.94175 0.556916 0
M  V30 577 H 49.3014 -1.4146 0.26927 0
M  V30 578 H 51.2544 -3.85477 -1.70251 0
M  V30 579 H 49.9784 -2.63343 -1.93179 0
M  V30 580 H 48.6374 -3.66541 -0.0656164 0
M  V30 581 H 48.2854 -4.4048 -2.42871 0
M  V30 582 H 47.9854 -5.7345 -1.28174 0
M  V30 583 H 49.5094 -5.6908 -2.21314 0
M  V30 584 H 50.9234 -5.73271 0.0579047 0
M  V30 585 H 49.3204 -5.94469 0.820165 0
M  V30 586 H 50.3904 -4.64777 1.3824 0
M  V30 587 N 51.7335 -0.305618 -1.54608 0
M  V30 588 C 52.9795 0.302746 -2.00528 0
M  V30 589 C 53.3125 1.53184 -1.19367 0
M  V30 590 O 52.5875 1.92598 -0.271321 0
M  V30 591 C 52.8705 0.654756 -3.54097 0
M  V30 592 C 52.7235 -0.583793 -4.45995 0
M  V30 593 C 54.0425 1.47947 -4.14487 0
M  V30 594 H 51.1615 0.108564 -0.72896 0
M  V30 595 H 53.8035 -0.418634 -1.85331 0
M  V30 596 H 51.9535 1.26935 -3.67178 0
M  V30 597 H 53.6255 -1.22224 -4.44814 0
M  V30 598 H 51.8685 -1.21615 -4.16404 0
M  V30 599 H 52.5395 -0.293287 -5.5122 0
M  V30 600 H 55.0155 0.96013 -4.04871 0
M  V30 601 H 53.8915 1.69454 -5.22088 0
M  V30 602 H 54.1525 2.47011 -3.66658 0
M  V30 603 N 53.2116 1.57565 -0.0334293 0
M  V30 604 C 54.1746 2.09393 0.932048 0
M  V30 605 C 55.1746 1.00986 1.25134 0
M  V30 606 O 56.3646 1.27129 1.19096 0
M  V30 607 C 53.4966 2.56338 2.2473 0
M  V30 608 H 54.6896 2.95984 0.483085 0
M  V30 609 H 52.2426 1.54819 0.21468 0
M  V30 610 H 52.9776 1.7309 2.74245 0
M  V30 611 H 52.7626 3.35542 2.02865 0
M  V30 612 H 54.2526 2.96646 2.93923 0
M  V30 613 N 54.6897 -0.239769 1.55765 0
M  V30 614 C 55.6227 -1.32356 1.85895 0
M  V30 615 C 56.6007 -1.46053 0.714662 0
M  V30 616 O 57.7847 -1.62154 0.961157 0
M  V30 617 C 54.9117 -2.6962 2.04994 0
M  V30 618 C 53.9577 -2.73036 3.27648 0
M  V30 619 S 54.7907 -2.28929 4.84099 0
M  V30 620 C 55.9467 -3.68103 5.06212 0
M  V30 621 H 56.1797 -1.06601 2.77531 0
M  V30 622 H 53.7127 -0.441112 1.47965 0
M  V30 623 H 55.6707 -3.48653 2.16682 0
M  V30 624 H 54.3317 -2.92609 1.14188 0
M  V30 625 H 53.5247 -3.7386 3.38 0
M  V30 626 H 53.1267 -2.02052 3.14723 0
M  V30 627 H 55.4187 -4.63656 4.93993 0
M  V30 628 H 56.3617 -3.6268 6.08168 0
M  V30 629 H 56.7697 -3.60947 4.34025 0
M  V30 630 N 56.1678 -1.49265 -0.50573 0
M  V30 631 C 57.1148 -1.65585 -1.6078 0
M  V30 632 C 58.0848 -0.497396 -1.58478 0
M  V30 633 O 59.2698 -0.72385 -1.76536 0
M  V30 634 C 56.4098 -1.72408 -2.98948 0
M  V30 635 C 55.5228 -2.99525 -3.11301 0
M  V30 636 C 54.6578 -2.97356 -4.40174 0
M  V30 637 C 53.6968 -4.19074 -4.46143 0
M  V30 638 N 52.8338 -4.14841 -5.66437 0
M  V30 639 H 57.6738 -2.59688 -1.46172 0
M  V30 640 H 55.2108 -1.28761 -0.711261 0
M  V30 641 H 57.1688 -1.74344 -3.79025 0
M  V30 642 H 55.7988 -0.817753 -3.1227 0
M  V30 643 H 54.8508 -3.07222 -2.24318 0
M  V30 644 H 56.1628 -3.89518 -3.11572 0
M  V30 645 H 55.3168 -2.97829 -5.28567 0
M  V30 646 H 54.0558 -2.05133 -4.42461 0
M  V30 647 H 53.0608 -4.1885 -3.56153 0
M  V30 648 H 54.2858 -5.12483 -4.45575 0
M  V30 649 H 52.2318 -3.25453 -5.69575 0
M  V30 650 H 52.1488 -4.98564 -5.68304 0
M  V30 651 H 53.4168 -4.1941 -6.57051 0
M  V30 652 N 57.6459 0.756429 -1.3826 0
M  V30 653 C 58.8929 1.51547 -1.34312 0
M  V30 654 C 59.2209 1.94382 0.0677144 0
M  V30 655 O 58.4759 1.65514 1.04421 0
M  V30 656 C 58.7749 2.78313 -2.24224 0
M  V30 657 C 58.4409 2.54455 -3.72241 0
M  V30 658 C 57.1029 2.47657 -4.12576 0
M  V30 659 C 59.4549 2.3354 -4.65949 0
M  V30 660 C 56.7829 2.17956 -5.44713 0
M  V30 661 C 59.1349 2.05359 -5.9834 0
M  V30 662 C 57.7989 1.97016 -6.37762 0
M  V30 663 H 57.0689 0.55455 -0.491482 0
M  V30 664 H 59.7159 0.870039 -1.70595 0
M  V30 665 H 58.0209 3.47492 -1.80987 0
M  V30 666 H 59.7179 3.36259 -2.18474 0
M  V30 667 H 56.3079 2.60616 -3.40261 0
M  V30 668 H 60.4919 2.37772 -4.35635 0
M  V30 669 H 55.7479 2.10003 -5.74203 0
M  V30 670 H 59.9219 1.88179 -6.70494 0
M  V30 671 H 57.5489 1.73766 -7.40074 0
M  V30 672 N 59.124 1.23083 0.984299 0
M  V30 673 C 60.054 1.03292 2.09411 0
M  V30 674 C 61.035 -0.048923 1.7003 0
M  V30 675 O 62.22 0.114967 1.93859 0
M  V30 676 C 59.35 0.619155 3.41736 0
M  V30 677 C 58.304 1.64791 3.95004 0
M  V30 678 C 57.63 1.0897 5.23478 0
M  V30 679 C 58.93 3.03999 4.24714 0
M  V30 680 H 60.624 1.96119 2.26225 0
M  V30 681 H 58.17 0.944344 1.08711 0
M  V30 682 H 60.123 0.467777 4.18796 0
M  V30 683 H 58.847 -0.344786 3.24775 0
M  V30 684 H 57.506 1.78721 3.20085 0
M  V30 685 H 57.154 0.11686 5.02864 0
M  V30 686 H 56.854 1.77704 5.60085 0
M  V30 687 H 58.378 0.950093 6.03163 0
M  V30 688 H 59.792 2.93393 4.92538 0
M  V30 689 H 58.189 3.69936 4.72512 0
M  V30 690 H 59.259 3.53285 3.32142 0
M  V30 691 N 60.6021 -1.18246 1.0419 0
M  V30 692 C 62.0181 -1.40269 0.761366 0
M  V30 693 C 62.2181 -1.90777 -0.648578 0
M  V30 694 O 61.2741 -2.0929 -1.41258 0
M  V30 695 C 62.5871 -2.40237 1.8085 0
M  V30 696 C 64.1351 -2.53961 1.82955 0
M  V30 697 C 64.6101 -3.57194 2.86664 0
M  V30 698 N 66.1011 -3.64702 2.85563 0
M  V30 699 C 66.8361 -4.44309 3.6246 0
M  V30 700 N 66.3321 -5.27514 4.49111 0
M  V30 701 N 68.1251 -4.39084 3.50944 0
M  V30 702 H 60.2761 -0.837882 1.95175 0
M  V30 703 H 62.5391 -0.430608 0.84456 0
M  V30 704 H 62.2451 -2.10176 2.81991 0
M  V30 705 H 62.1191 -3.39601 1.64168 0
M  V30 706 H 64.5061 -2.83338 0.824855 0
M  V30 707 H 64.5871 -1.54706 2.03715 0
M  V30 708 H 64.2311 -3.28558 3.87314 0
M  V30 709 H 64.1611 -4.5613 2.6316 0
M  V30 710 H 66.6521 -3.05289 2.22727 0
M  V30 711 H 66.9651 -5.85411 5.04493 0
M  V30 712 H 65.3101 -5.2693 4.53178 0
M  V30 713 H 68.5011 -3.7313 2.82651 0
M  V30 714 H 68.6741 -5.00883 4.11121 0
M  V30 715 N 62.0802 -0.821533 -1.34494 0
M  V30 716 C 63.0432 -0.247847 -2.27856 0
M  V30 717 C 64.0432 0.573453 -1.50227 0
M  V30 718 O 65.2332 0.389759 -1.69784 0
M  V30 719 C 62.3652 0.652698 -3.34593 0
M  V30 720 H 63.5582 -1.07146 -2.80107 0
M  V30 721 H 61.1112 -0.593291 -1.44602 0
M  V30 722 H 61.8462 1.49943 -2.87555 0
M  V30 723 H 61.6312 0.065292 -3.92046 0
M  V30 724 H 63.1212 1.04793 -4.04238 0
M  V30 725 N 63.5583 1.46682 -0.576371 0
M  V30 726 C 64.7833 2.07304 -0.0630475 0
M  V30 727 C 65.2083 1.42329 1.2298 0
M  V30 728 O 64.5663 0.504865 1.74129 0
M  V30 729 C 64.6143 3.60472 0.095895 0
M  V30 730 O 63.7183 3.95927 1.15394 0
M  V30 731 H 63.0593 0.661288 -0.0599463 0
M  V30 732 H 65.5893 1.88417 -0.797511 0
M  V30 733 H 65.5993 4.06865 0.304071 0
M  V30 734 H 64.2743 4.07157 -0.84828 0
M  V30 735 H 62.8513 3.61252 0.924724 0
M  V30 736 N 65.0364 0.313813 1.54444 0
M  V30 737 C 65.9464 -0.565714 2.27677 0
M  V30 738 C 66.9624 -1.13754 1.31666 0
M  V30 739 O 68.1384 -1.15959 1.64668 0
M  V30 740 C 65.2034 -1.71528 3.01296 0
M  V30 741 C 64.2644 -1.17624 4.12872 0
M  V30 742 C 63.4974 -2.27102 4.8297 0
M  V30 743 O 63.7204 -3.47256 4.52514 0
M  V30 744 O 62.6544 -1.9307 5.70094 0
M  V30 745 H 66.4804 0.0287296 3.03686 0
M  V30 746 H 64.0654 0.0798312 1.49187 0
M  V30 747 H 65.9474 -2.38476 3.4743 0
M  V30 748 H 64.6224 -2.29608 2.2817 0
M  V30 749 H 63.5294 -0.472124 3.71109 0
M  V30 750 H 64.8624 -0.640695 4.88012 0
M  V30 751 N 66.5145 -1.57545 0.0417849 0
M  V30 752 C 67.4245 -2.14451 -0.951213 0
M  V30 753 C 68.4405 -1.09992 -1.34825 0
M  V30 754 O 69.6165 -1.42114 -1.42708 0
M  V30 755 C 66.6815 -2.67063 -2.21084 0
M  V30 756 C 65.7425 -3.86284 -1.87304 0
M  V30 757 C 64.9755 -4.36378 -3.07261 0
M  V30 758 O 65.1985 -3.85587 -4.20332 0
M  V30 759 O 64.1325 -5.28077 -2.88822 0
M  V30 760 H 67.9585 -2.99601 -0.497287 0
M  V30 761 H 65.5435 -1.48317 -0.179567 0
M  V30 762 H 67.4255 -3.00914 -2.95006 0
M  V30 763 H 66.1005 -1.84989 -2.65633 0
M  V30 764 H 65.0075 -3.57338 -1.10727 0
M  V30 765 H 66.3405 -4.6956 -1.47562 0
M  V30 766 N 67.9926 0.231505 -1.5589 0
M  V30 767 C 68.9426 1.29007 -1.87993 0
M  V30 768 C 69.9266 1.42764 -0.742102 0
M  V30 769 O 71.1186 1.45747 -1.00433 0
M  V30 770 C 68.2476 2.6425 -2.1915 0
M  V30 771 C 67.3336 2.54435 -3.39299 0
M  V30 772 N 67.7246 2.14262 -4.58176 0
M  V30 773 C 66.0226 2.85416 -3.42715 0
M  V30 774 C 66.7236 2.15455 -5.40328 0
M  V30 775 N 65.6996 2.55558 -4.79783 0
M  V30 776 H 69.5016 0.970213 -2.77424 0
M  V30 777 H 67.0156 0.440097 -1.56323 0
M  V30 778 H 69.0126 3.40665 -2.40319 0
M  V30 779 H 67.6726 2.9709 -1.31025 0
M  V30 780 H 68.6836 1.85554 -4.83518 0
M  V30 781 H 65.3606 3.22693 -2.64906 0
M  V30 782 H 66.7506 1.86605 -6.45467 0
M  V30 783 N 69.4707 1.49531 0.497807 0
M  V30 784 C 70.4007 1.6935 1.60757 0
M  V30 785 C 71.3817 0.542218 1.61227 0
M  V30 786 O 72.5667 0.778417 1.77917 0
M  V30 787 C 69.6967 1.76298 2.99226 0
M  V30 788 C 68.6507 2.91248 3.13622 0
M  V30 789 C 67.9767 2.83312 4.53474 0
M  V30 790 C 69.2767 4.3214 2.93346 0
M  V30 791 H 70.9707 2.62263 1.44425 0
M  V30 792 H 68.5167 1.26208 0.693367 0
M  V30 793 H 70.4697 1.88749 3.76765 0
M  V30 794 H 69.1937 0.799871 3.16654 0
M  V30 795 H 67.8527 2.78404 2.38509 0
M  V30 796 H 67.5007 1.84902 4.67782 0
M  V30 797 H 67.2007 3.60465 4.64046 0
M  V30 798 H 68.7247 2.97775 5.33069 0
M  V30 799 H 70.1387 4.45649 3.60652 0
M  V30 800 H 68.5357 5.1054 3.15387 0
M  V30 801 H 69.6057 4.46363 1.89441 0
M  V30 802 N 70.9488 -0.749086 1.3866 0
M  V30 803 C 71.8958 -1.86291 1.36251 0
M  V30 804 C 72.8658 -1.64578 0.224347 0
M  V30 805 O 74.0508 -1.86181 0.417279 0
M  V30 806 C 71.1908 -3.23644 1.19786 0
M  V30 807 C 70.3038 -3.57158 2.43027 0
M  V30 808 C 69.4388 -4.83838 2.19258 0
M  V30 809 C 68.4778 -5.10152 3.38247 0
M  V30 810 N 67.6148 -6.28029 3.13884 0
M  V30 811 H 72.4548 -1.87685 2.3147 0
M  V30 812 H 69.9918 -0.917287 1.14997 0
M  V30 813 H 71.9498 -4.0291 1.08254 0
M  V30 814 H 70.5798 -3.21566 0.282031 0
M  V30 815 H 69.6318 -2.72701 2.65214 0
M  V30 816 H 70.9438 -3.7253 3.31697 0
M  V30 817 H 70.0978 -5.71057 2.04888 0
M  V30 818 H 68.8368 -4.70614 1.2796 0
M  V30 819 H 67.8418 -4.21401 3.53131 0
M  V30 820 H 69.0668 -5.25271 4.30427 0
M  V30 821 H 67.0128 -6.1612 2.25238 0
M  V30 822 H 66.9298 -6.43922 3.96106 0
M  V30 823 H 68.1978 -7.18124 3.03179 0
M  V30 824 N 72.4269 -1.23603 -0.977757 0
M  V30 825 C 73.3589 -0.977369 -2.07317 0
M  V30 826 C 74.3719 0.0495845 -1.62724 0
M  V30 827 O 75.5609 -0.186261 -1.77526 0
M  V30 828 C 72.6609 -0.451216 -3.35883 0
M  V30 829 C 71.8339 -1.53896 -4.09432 0
M  V30 830 C 70.8929 -1.01721 -5.16274 0
M  V30 831 O 69.9189 -1.70676 -5.43009 0
M  V30 832 N 71.1209 0.153594 -5.80297 0
M  V30 833 H 73.8859 -1.92047 -2.30082 0
M  V30 834 H 71.4469 -1.14497 -1.14465 0
M  V30 835 H 73.4389 -0.0871574 -4.04606 0
M  V30 836 H 72.0089 0.397368 -3.10064 0
M  V30 837 H 71.2289 -2.07566 -3.35127 0
M  V30 838 H 72.5169 -2.27037 -4.55337 0
M  V30 839 H 71.9149 0.730323 -5.60966 0
M  V30 840 H 70.4719 0.458892 -6.50183 0
M  V30 841 N 73.905 1.17692 -1.04816 0
M  V30 842 C 74.855 2.1952 -0.616042 0
M  V30 843 C 75.839 1.57147 0.345485 0
M  V30 844 O 77.031 1.76245 0.163325 0
M  V30 845 C 74.16 3.43298 0.0116917 0
M  V30 846 C 73.246 4.12777 -0.973435 0
M  V30 847 N 73.637 4.5814 -2.14339 0
M  V30 848 C 71.935 4.38747 -0.80108 0
M  V30 849 C 72.636 5.11713 -2.7663 0
M  V30 850 N 71.612 5.03686 -2.04453 0
M  V30 851 H 75.414 2.52293 -1.5075 0
M  V30 852 H 72.928 1.3398 -0.917776 0
M  V30 853 H 74.925 4.15519 0.339006 0
M  V30 854 H 73.585 3.12018 0.898593 0
M  V30 855 H 74.596 4.52349 -2.52191 0
M  V30 856 H 71.273 4.17485 0.0350934 0
M  V30 857 H 72.663 5.56962 -3.75823 0
M  V30 858 N 75.3831 0.828654 1.34056 0
M  V30 859 C 76.6131 0.431993 2.02033 0
M  V30 860 C 77.0211 -0.96844 1.62536 0
M  V30 861 O 76.3641 -1.6391 0.829408 0
M  V30 862 C 76.4261 0.461224 3.56529 0
M  V30 863 C 76.0901 1.81599 4.1937 0
M  V30 864 C 77.0871 2.7777 4.39477 0
M  V30 865 C 74.7721 2.10604 4.56017 0
M  V30 866 C 76.7661 4.01115 4.95364 0
M  V30 867 C 74.4531 3.34207 5.11614 0
M  V30 868 C 75.4511 4.2928 5.31232 0
M  V30 869 O 75.1391 5.50699 5.8565 0
M  V30 870 H 74.8711 0.170943 0.654029 0
M  V30 871 H 77.4251 1.11988 1.72185 0
M  V30 872 H 75.6551 -0.283388 3.8566 0
M  V30 873 H 77.3441 0.0838149 4.05813 0
M  V30 874 H 78.1101 2.56659 4.11523 0
M  V30 875 H 73.9891 1.37402 4.40047 0
M  V30 876 H 77.5331 4.75333 5.10592 0
M  V30 877 H 73.4301 3.55179 5.38997 0
M  V30 878 H 74.1981 5.52298 6.04077 0
M  V30 879 N 76.8612 -1.46375 0.584142 0
M  V30 880 C 78.1102 -2.01585 0.0679741 0
M  V30 881 C 78.4232 -1.46109 -1.30045 0
M  V30 882 O 79.6292 -1.93148 -1.90804 0
M  V30 883 C 78.0852 -3.5983 0.0709207 0
M  V30 884 C 77.6932 -4.24303 1.43775 0
M  V30 885 C 79.4372 -4.22693 -0.391228 0
M  V30 886 C 77.3442 -5.74631 1.39834 0
M  V30 887 H 76.2742 -0.753689 0.0216421 0
M  V30 888 H 78.9252 -1.68093 0.736001 0
M  V30 889 H 77.3072 -3.90405 -0.663299 0
M  V30 890 H 78.4812 -4.05335 2.19181 0
M  V30 891 H 76.7962 -3.73539 1.84004 0
M  V30 892 H 79.3932 -5.3289 -0.439524 0
M  V30 893 H 79.7362 -3.91728 -1.40906 0
M  V30 894 H 80.2692 -3.96749 0.288974 0
M  V30 895 H 77.0082 -6.10258 2.39303 0
M  V30 896 H 76.5282 -5.95858 0.686505 0
M  V30 897 H 78.2072 -6.37375 1.11187 0
M  V30 898 N 78.3393 -0.321999 -1.54275 0
M  V30 899 C 79.6163 0.335232 -1.92706 0
M  V30 900 C 79.9963 1.70006 -1.25145 0
M  V30 901 O 79.3443 2.25067 -0.394596 0
M  V30 902 C 79.5543 0.429008 -3.46353 0
M  V30 903 C 80.9023 0.690029 -4.18956 0
M  V30 904 O 81.9263 0.511992 -3.52501 0
M  V30 905 O 80.7853 1.03338 -5.36641 0
M  V30 906 H 77.8793 0.191143 -0.804608 0
M  V30 907 H 80.4253 -0.3716 -1.65581 0
M  V30 908 H 79.1973 -0.529611 -3.87699 0
M  V30 909 H 78.8203 1.18348 -3.79578 0
M  V30 910 N 79.8174 1.5752 -0.0501392 0
M  V30 911 C 80.7474 2.14502 0.922566 0
M  V30 912 C 81.7284 1.06642 1.3252 0
M  V30 913 O 82.9134 1.34577 1.4001 0
M  V30 914 C 80.0434 2.68916 2.19776 0
M  V30 915 C 78.9974 3.8175 1.93523 0
M  V30 916 C 78.3234 4.22677 3.27487 0
M  V30 917 C 79.6234 5.06932 1.25765 0
M  V30 918 H 81.3174 2.9603 0.447952 0
M  V30 919 H 78.8634 1.42401 0.214024 0
M  V30 920 H 80.8164 3.07419 2.88222 0
M  V30 921 H 79.5404 1.84578 2.69441 0
M  V30 922 H 78.1994 3.43718 1.27489 0
M  V30 923 H 77.8474 3.35291 3.74952 0
M  V30 924 H 77.5474 4.98725 3.1072 0
M  V30 925 H 79.0714 4.63779 3.97166 0
M  V30 926 H 80.4854 5.42888 1.84244 0
M  V30 927 H 78.8824 5.88116 1.19328 0
M  V30 928 H 79.9524 4.84337 0.233536 0
M  V30 929 N 81.2955 -0.223234 1.56011 0
M  V30 930 C 82.2425 -1.27664 1.92277 0
M  V30 931 C 83.2125 -1.46659 0.779763 0
M  V30 932 O 84.3975 -1.60256 1.03551 0
M  V30 933 C 81.5375 -2.62234 2.24338 0
M  V30 934 C 80.6505 -2.51051 3.51564 0
M  V30 935 C 79.7855 -3.78133 3.7308 0
M  V30 936 C 78.8245 -3.61665 4.93827 0
M  V30 937 N 77.9615 -4.80693 5.11741 0
M  V30 938 H 82.8015 -0.960358 2.82101 0
M  V30 939 H 80.3385 -0.462901 1.39627 0
M  V30 940 H 82.2965 -3.40596 2.40936 0
M  V30 941 H 80.9265 -2.91961 1.3769 0
M  V30 942 H 79.9785 -1.64132 3.43169 0
M  V30 943 H 81.2905 -2.34803 4.40079 0
M  V30 944 H 80.4445 -4.64938 3.89766 0
M  V30 945 H 79.1835 -3.97304 2.82844 0
M  V30 946 H 78.1885 -2.73244 4.77093 0
M  V30 947 H 79.4135 -3.43966 5.85546 0
M  V30 948 H 77.3595 -5.00181 4.24446 0
M  V30 949 H 77.2765 -4.67165 5.94384 0
M  V30 950 H 78.5445 -5.6893 5.3286 0
M  V30 951 N 82.7736 -1.49793 -0.48987 0
M  V30 952 C 84.0506 -1.50348 -1.25119 0
M  V30 953 C 84.4306 -0.237466 -2.0976 0
M  V30 954 O 83.7786 0.77981 -2.14782 0
M  V30 955 C 83.9886 -2.78872 -2.09837 0
M  V30 956 C 85.3366 -3.288 -2.68655 0
M  V30 957 O 86.3606 -2.80065 -2.20096 0
M  V30 958 O 85.2196 -4.13707 -3.57083 0
M  V30 959 H 82.3136 -0.602242 -0.566775 0
M  V30 960 H 84.8596 -1.62067 -0.503229 0
M  V30 961 H 83.6316 -3.62499 -1.47343 0
M  V30 962 H 83.2546 -2.70066 -2.91805 0
M  V30 963 N 84.2517 0.741722 -1.39055 0
M  V30 964 C 85.6677 1.04638 -1.20512 0
M  V30 965 C 85.8677 2.01405 -0.0620218 0
M  V30 966 O 84.9237 2.45547 0.588457 0
M  V30 967 C 86.2367 1.6151 -2.53643 0
M  V30 968 C 87.7847 1.73623 -2.6043 0
M  V30 969 C 88.2597 2.33906 -3.93767 0
M  V30 970 N 89.7507 2.41323 -3.9537 0
M  V30 971 C 90.4857 2.88888 -4.95309 0
M  V30 972 N 89.9817 3.36401 -6.05645 0
M  V30 973 N 91.7747 2.88037 -4.82692 0
M  V30 974 H 83.9257 0.0998155 -2.12165 0
M  V30 975 H 86.1887 0.106907 -0.941953 0
M  V30 976 H 85.8947 0.978739 -3.37807 0
M  V30 977 H 85.7687 2.60411 -2.72885 0
M  V30 978 H 88.1557 2.36384 -1.76655 0
M  V30 979 H 88.2367 0.733945 -2.45045 0
M  V30 980 H 87.8807 1.71776 -4.7797 0
M  V30 981 H 87.8107 3.34799 -4.06469 0
M  V30 982 H 90.3017 2.07734 -3.15682 0
M  V30 983 H 90.6147 3.71186 -6.77821 0
M  V30 984 H 88.9597 3.34427 -6.09248 0
M  V30 985 H 92.1507 2.50237 -3.95599 0
M  V30 986 H 92.3237 3.24792 -5.60726 0
M  V30 987 N 85.7298 1.2412 0.971189 0
M  V30 988 C 87.1408 1.07236 1.52831 0
M  V30 989 C 87.4918 -0.357352 1.92918 0
M  V30 990 O 86.6168 -1.24528 1.76979 0
M  V30 991 C 87.2118 1.94043 2.77728 0
M  V30 992 C 85.7708 1.81394 3.29808 0
M  V30 993 C 84.9178 1.89189 2.02738 0
M  V30 994 H 87.8688 1.37648 0.789864 0
M  V30 995 H 87.8898 1.47066 3.5093 0
M  V30 996 H 87.4018 2.98093 2.4852 0
M  V30 997 H 85.5028 0.801634 3.63874 0
M  V30 998 H 85.6158 2.65294 3.98944 0
M  V30 999 H 83.9798 1.32877 2.17292 0
M  V30 1000 H 84.7628 2.94812 1.759 0
M  V30 1001 N 87.2079 -1.17134 1.05439 0
M  V30 1002 C 88.4549 -1.87456 0.765942 0
M  V30 1003 C 88.7829 -1.81189 -0.707153 0
M  V30 1004 O 88.0379 -1.21633 -1.5331 0
M  V30 1005 C 88.3369 -3.36833 1.19491 0
M  V30 1006 C 88.0029 -3.63301 2.67063 0
M  V30 1007 C 86.6649 -3.70234 3.07376 0
M  V30 1008 C 89.0169 -3.74575 3.62413 0
M  V30 1009 C 86.3449 -3.85933 4.41896 0
M  V30 1010 C 88.6969 -3.91793 4.9667 0
M  V30 1011 C 87.3609 -3.96966 5.36633 0
M  V30 1012 H 86.6309 -0.685948 0.280278 0
M  V30 1013 H 89.2779 -1.38556 1.32192 0
M  V30 1014 H 87.5829 -3.87807 0.557969 0
M  V30 1015 H 89.2799 -3.89611 0.948893 0
M  V30 1016 H 85.8699 -3.58532 2.34846 0
M  V30 1017 H 90.0539 -3.68537 3.32406 0
M  V30 1018 H 85.3099 -3.88187 4.72357 0
M  V30 1019 H 89.4839 -3.99458 5.70444 0
M  V30 1020 H 87.1109 -4.08883 6.40874 0
M  V30 1021 N 88.686 -0.835752 -1.33615 0
M  V30 1022 C 89.933 -0.429959 -1.97883 0
M  V30 1023 C 90.261 1.01006 -1.66217 0
M  V30 1024 O 89.516 1.72047 -0.93265 0
M  V30 1025 C 89.815 -0.593925 -3.52431 0
M  V30 1026 C 89.481 -2.00158 -4.04039 0
M  V30 1027 C 88.143 -2.38662 -4.17844 0
M  V30 1028 C 90.495 -2.92117 -4.31644 0
M  V30 1029 C 87.823 -3.68435 -4.56588 0
M  V30 1030 C 90.175 -4.21368 -4.71838 0
M  V30 1031 C 88.839 -4.59833 -4.83849 0
M  V30 1032 H 88.109 -0.157333 -0.724104 0
M  V30 1033 H 90.756 -1.06217 -1.59343 0
M  V30 1034 H 89.061 0.121619 -3.91611 0
M  V30 1035 H 90.758 -0.260282 -4.00154 0
M  V30 1036 H 87.348 -1.69252 -3.93766 0
M  V30 1037 H 91.532 -2.63608 -4.20505 0
M  V30 1038 H 86.788 -3.98046 -4.64079 0
M  V30 1039 H 90.962 -4.92703 -4.92155 0
M  V30 1040 H 88.589 -5.60438 -5.13627 0
M  V30 1041 N 90.1641 1.46063 -0.591896 0
M  V30 1042 C 91.5751 1.85944 -0.167822 0
M  V30 1043 C 91.9261 1.49429 1.27143 0
M  V30 1044 O 91.0511 0.913515 1.96173 0
M  V30 1045 C 91.6461 3.37489 -0.297794 0
M  V30 1046 C 90.2051 3.76332 0.0714732 0
M  V30 1047 C 89.3521 2.7006 -0.629509 0
M  V30 1048 H 92.3031 1.37087 -0.799555 0
M  V30 1049 H 92.3241 3.77532 0.474349 0
M  V30 1050 H 91.8361 3.64034 -1.3454 0
M  V30 1051 H 89.9371 3.55405 1.11886 0
M  V30 1052 H 90.0501 4.78088 -0.311245 0
M  V30 1053 H 88.4141 2.54607 -0.0687867 0
M  V30 1054 H 89.1971 2.99444 -1.67894 0
M  V30 1055 N 91.6422 0.330177 1.54103 0
M  V30 1056 C 92.8902 -0.269871 2.0029 0
M  V30 1057 C 93.2112 -1.52133 1.21986 0
M  V30 1058 O 92.4812 -1.93212 0.323438 0
M  V30 1059 H 91.0612 -0.10271 0.739905 0
M  V30 1060 H 93.7232 0.448249 1.89675 0
M  V30 1061 H 92.8192 -0.52166 3.07709 0
M  V30 1062 N 93.1203 -1.57491 0.0584922 0
M  V30 1063 C 94.0503 -2.14988 -0.911178 0
M  V30 1064 C 95.0313 -1.07343 -1.31952 0
M  V30 1065 O 96.2163 -1.35318 -1.39294 0
M  V30 1066 C 93.3463 -2.70078 -2.18347 0
M  V30 1067 C 92.3003 -3.82771 -1.91495 0
M  V30 1068 C 91.6263 -4.24408 -3.25241 0
M  V30 1069 C 92.9263 -5.07592 -1.23075 0
M  V30 1070 H 94.6203 -2.96263 -0.432246 0
M  V30 1071 H 92.1663 -1.42512 -0.206469 0
M  V30 1072 H 94.1193 -3.08943 -2.86587 0
M  V30 1073 H 92.8433 -1.86005 -2.68458 0
M  V30 1074 H 91.5023 -3.44389 -1.25664 0
M  V30 1075 H 91.1503 -3.37275 -3.73168 0
M  V30 1076 H 90.8503 -5.00366 -3.08071 0
M  V30 1077 H 92.3743 -4.65879 -3.94701 0
M  V30 1078 H 93.7883 -5.43857 -1.81362 0
M  V30 1079 H 92.1853 -5.88741 -1.16207 0
M  V30 1080 H 93.2553 -4.84454 -0.207847 0
M  V30 1081 N 94.5984 0.214957 -1.56127 0
M  V30 1082 C 95.8444 0.939762 -1.79712 0
M  V30 1083 C 96.1774 1.83723 -0.629247 0
M  V30 1084 O 95.4524 1.90925 0.371197 0
M  V30 1085 C 95.7354 1.77306 -3.13424 0
M  V30 1086 C 95.5884 0.90164 -4.40671 0
M  V30 1087 C 96.9074 2.74956 -3.43638 0
M  V30 1088 H 94.0264 0.340214 -0.653776 0
M  V30 1089 H 96.6684 0.20824 -1.88855 0
M  V30 1090 H 94.8184 2.39673 -3.0576 0
M  V30 1091 H 96.4904 0.294206 -4.60361 0
M  V30 1092 H 94.7334 0.207368 -4.33304 0
M  V30 1093 H 95.4044 1.51923 -5.30682 0
M  V30 1094 H 97.8804 2.22724 -3.51473 0
M  V30 1095 H 96.7564 3.30358 -4.38355 0
M  V30 1096 H 97.0174 3.53023 -2.66134 0
M  V30 1097 N 96.0765 1.50051 0.48192 0
M  V30 1098 C 97.0235 1.68122 1.58125 0
M  V30 1099 C 97.9935 0.522545 1.57666 0
M  V30 1100 O 99.1785 0.751844 1.75362 0
M  V30 1101 C 96.3185 1.77142 2.96167 0
M  V30 1102 C 95.4315 3.0444 3.06497 0
M  V30 1103 C 94.5665 3.04321 4.35387 0
M  V30 1104 C 93.6055 4.26118 4.3942 0
M  V30 1105 N 92.7425 4.238 5.59766 0
M  V30 1106 H 97.5825 2.6198 1.42022 0
M  V30 1107 H 95.1195 1.29877 0.690687 0
M  V30 1108 H 97.0775 1.80352 3.76203 0
M  V30 1109 H 95.7075 0.867329 3.1093 0
M  V30 1110 H 94.7595 3.10752 2.19402 0
M  V30 1111 H 96.0715 3.94426 3.05336 0
M  V30 1112 H 95.2255 3.062 5.23762 0
M  V30 1113 H 93.9645 2.12147 4.39141 0
M  V30 1114 H 92.9695 4.24463 3.49444 0
M  V30 1115 H 94.1945 5.19507 4.37366 0
M  V30 1116 H 92.1405 3.34474 5.64326 0
M  V30 1117 H 92.0575 5.07542 5.60301 0
M  V30 1118 H 93.3255 4.2981 6.50295 0
M  V30 1119 N 97.5546 -0.734337 1.39446 0
M  V30 1120 C 98.7846 -1.52137 1.39778 0
M  V30 1121 C 99.1926 -1.89198 -0.00929312 0
M  V30 1122 O 98.5356 -1.54666 -0.991168 0
M  V30 1123 C 98.5976 -2.83762 2.20724 0
M  V30 1124 C 98.2616 -2.69131 3.69347 0
M  V30 1125 C 99.2586 -2.37635 4.62413 0
M  V30 1126 C 96.9436 -2.85982 4.1294 0
M  V30 1127 C 98.9376 -2.23172 5.97054 0
M  V30 1128 C 96.6246 -2.71137 5.47657 0
M  V30 1129 C 97.6226 -2.39777 6.39528 0
M  V30 1130 O 97.3106 -2.25026 7.71763 0
M  V30 1131 H 97.0426 -0.476717 0.479288 0
M  V30 1132 H 99.5966 -0.915012 1.83893 0
M  V30 1133 H 97.8266 -3.4666 1.71359 0
M  V30 1134 H 99.5156 -3.45383 2.13226 0
M  V30 1135 H 100.282 -2.24267 4.30034 0
M  V30 1136 H 96.1606 -3.09383 3.41765 0
M  V30 1137 H 99.7046 -1.98617 6.68728 0
M  V30 1138 H 95.6016 -2.84083 5.79626 0
M  V30 1139 H 96.3696 -2.40091 7.82495 0
M  V30 1140 N 99.0327 -1.24633 -0.964593 0
M  V30 1141 C 99.9657 -0.984662 -2.05863 0
M  V30 1142 C 100.944 0.0826554 -1.6239 0
M  V30 1143 O 102.128 -0.0549296 -1.8842 0
M  V30 1144 C 99.2547 -0.486529 -3.35187 0
M  V30 1145 C 98.3007 -1.54286 -3.97615 0
M  V30 1146 S 99.1337 -3.12513 -4.34851 0
M  V30 1147 C 100.29 -2.6441 -5.67308 0
M  V30 1148 H 100.523 -1.91104 -2.27743 0
M  V30 1149 H 98.0557 -1.08052 -1.10291 0
M  V30 1150 H 100.014 -0.205757 -4.09984 0
M  V30 1151 H 98.6747 0.419186 -3.1129 0
M  V30 1152 H 97.8677 -1.14481 -4.90826 0
M  V30 1153 H 97.4697 -1.7738 -3.2926 0
M  V30 1154 H 99.7617 -2.07416 -6.44969 0
M  V30 1155 H 100.705 -3.56222 -6.11973 0
M  V30 1156 H 101.113 -2.04734 -5.26065 0
M  V30 1157 N 100.511 1.16574 -1.06058 0
M  V30 1158 C 101.459 2.22941 -0.663343 0
M  V30 1159 C 102.453 1.66358 0.319593 0
M  V30 1160 O 103.659 1.7905 0.184713 0
M  V30 1161 H 100.034 0.725907 -0.196376 0
M  V30 1162 H 102.005 2.53736 -1.57037 0
M  V30 1163 C 100.754 3.47642 -0.0632808 0
M  V30 1164 H 100.077 3.91493 -0.810733 0
M  V30 1165 H 101.517 4.2363 0.177177 0
M  V30 1166 C 99.9758 3.1509 1.19248 0
M  V30 1167 O 100.506 3.30673 2.28075 0
M  V30 1168 N 98.7118 2.6924 1.09353 0
M  V30 1169 H 98.2588 2.5676 0.207912 0
M  V30 1170 H 98.2168 2.47833 1.93458 0
M  V30 1171 N 101.989 0.842826 1.3317 0
M  V30 1172 C 103.214 0.453129 2.02389 0
M  V30 1173 C 103.639 -0.939105 1.6298 0
M  V30 1174 O 102.997 -1.61472 0.8244 0
M  V30 1175 C 103.045 0.586094 3.55805 0
M  V30 1176 O 102.149 -0.386029 4.10589 0
M  V30 1177 H 101.49 0.183664 0.638094 0
M  V30 1178 H 104.02 1.13875 1.69981 0
M  V30 1179 H 104.03 0.469209 4.05293 0
M  V30 1180 H 102.705 1.6014 3.83833 0
M  V30 1181 H 101.282 -0.226371 3.72212 0
M  V30 1182 N 103.467 -1.45747 0.599634 0
M  V30 1183 C 104.715 -2.01893 0.0915472 0
M  V30 1184 C 105.036 -1.47155 -1.27946 0
M  V30 1185 O 104.306 -0.66273 -1.84349 0
M  V30 1186 H 102.886 -0.746363 0.0308524 0
M  V30 1187 H 105.548 -1.78645 0.779237 0
M  V30 1188 H 104.644 -3.1208 0.0353086 0
M  V30 1189 N 104.945 -0.338344 -1.53925 0
M  V30 1190 C 106.356 0.146651 -1.86123 0
M  V30 1191 C 106.707 1.5042 -1.2597 0
M  V30 1192 O 105.832 2.08723 -0.571294 0
M  V30 1193 C 106.427 0.272879 -3.37699 0
M  V30 1194 C 104.986 0.702103 -3.69794 0
M  V30 1195 C 104.133 -0.167304 -2.76795 0
M  V30 1196 H 107.084 -0.558123 -1.48562 0
M  V30 1197 H 107.105 1.10128 -3.64214 0
M  V30 1198 H 106.617 -0.715307 -3.81451 0
M  V30 1199 H 104.718 1.6995 -3.31584 0
M  V30 1200 H 104.831 0.495604 -4.7653 0
M  V30 1201 H 103.195 0.359527 -2.5215 0
M  V30 1202 H 103.978 -1.15253 -3.23375 0
M  V30 1203 N 106.423 1.57458 -0.0668435 0
M  V30 1204 C 107.669 1.93587 0.6043 0
M  V30 1205 C 108.002 0.946722 1.69561 0
M  V30 1206 O 107.277 -0.0248516 1.94484 0
M  V30 1207 C 107.56 3.40014 1.18585 0
M  V30 1208 C 107.413 4.49685 0.101529 0
M  V30 1209 C 108.732 3.87154 2.09284 0
M  V30 1210 H 105.851 0.703958 0.218202 0
M  V30 1211 H 108.493 1.89542 -0.131804 0
M  V30 1212 H 106.643 3.43592 1.81319 0
M  V30 1213 H 108.315 4.5823 -0.531279 0
M  V30 1214 H 106.558 4.30059 -0.568487 0
M  V30 1215 H 107.229 5.49266 0.54874 0
M  V30 1216 H 109.705 3.85551 1.56491 0
M  V30 1217 H 108.581 4.90231 2.46911 0
M  V30 1218 H 108.842 3.2481 2.99918 0
M  V30 1219 N 107.901 -0.206675 1.56239 0
M  V30 1220 C 109.147 -0.930218 1.80208 0
M  V30 1221 C 109.48 -1.83387 0.638981 0
M  V30 1222 O 108.755 -1.91119 -0.361066 0
M  V30 1223 C 109.038 -1.75641 3.1436 0
M  V30 1224 C 108.891 -0.878257 4.41142 0
M  V30 1225 C 110.21 -2.73129 3.45092 0
M  V30 1226 H 107.329 -0.336742 0.655571 0
M  V30 1227 H 109.971 -0.198222 1.88963 0
M  V30 1228 H 108.121 -2.38048 3.07027 0
M  V30 1229 H 109.793 -0.269787 4.6051 0
M  V30 1230 H 108.036 -0.184385 4.33408 0
M  V30 1231 H 108.707 -1.49106 5.3148 0
M  V30 1232 H 111.183 -2.20856 3.52649 0
M  V30 1233 H 110.059 -3.28028 4.40101 0
M  V30 1234 H 110.32 -3.51606 2.68003 0
M  V30 1235 N 109.379 -1.50304 -0.473955 0
M  V30 1236 C 110.342 -1.6841 -1.55469 0
M  V30 1237 C 111.342 -0.554905 -1.50922 0
M  V30 1238 O 112.532 -0.821882 -1.53593 0
M  V30 1239 C 109.664 -1.70667 -2.95102 0
M  V30 1240 H 110.857 -2.64828 -1.40733 0
M  V30 1241 H 108.41 -1.39742 -0.700132 0
M  V30 1242 H 109.145 -0.75932 -3.15285 0
M  V30 1243 H 108.93 -2.52698 -2.9981 0
M  V30 1244 H 110.42 -1.8664 -3.73571 0
M  V30 1245 N 110.857 0.726932 -1.39834 0
M  V30 1246 C 111.79 1.8501 -1.33592 0
M  V30 1247 C 112.768 1.61262 -0.208191 0
M  V30 1248 O 113.952 1.84422 -0.389981 0
M  V30 1249 C 111.079 3.21143 -1.07633 0
M  V30 1250 C 110.125 3.63737 -2.22705 0
M  V30 1251 S 110.958 3.72167 -3.85035 0
M  V30 1252 C 112.114 5.11077 -3.61318 0
M  V30 1253 H 112.347 1.90022 -2.28646 0
M  V30 1254 H 109.88 0.892595 -1.25985 0
M  V30 1255 H 111.838 3.99747 -0.933415 0
M  V30 1256 H 110.499 3.13776 -0.142526 0
M  V30 1257 H 109.692 4.62551 -2.00155 0
M  V30 1258 H 109.294 2.9236 -2.33242 0
M  V30 1259 H 111.586 5.97656 -3.19083 0
M  V30 1260 H 112.529 5.38658 -4.59623 0
M  V30 1261 H 112.937 4.81135 -2.95245 0
M  V30 1262 N 112.336 1.25143 0.95797 0
M  V30 1263 C 113.582 1.09855 1.70469 0
M  V30 1264 C 113.915 -0.360187 1.90831 0
M  V30 1265 O 113.19 -1.26568 1.47685 0
M  V30 1266 C 113.473 1.8497 3.08963 0
M  V30 1267 C 113.326 3.38652 2.96032 0
M  V30 1268 C 114.645 1.63016 4.08795 0
M  V30 1269 H 111.764 0.400465 0.618706 0
M  V30 1270 H 114.406 1.53933 1.11376 0
M  V30 1271 H 112.556 1.47505 3.59409 0
M  V30 1272 H 114.228 3.85772 2.52938 0
M  V30 1273 H 112.471 3.66534 2.32025 0
M  V30 1274 H 113.142 3.8642 3.94187 0
M  V30 1275 H 115.618 1.95625 3.67247 0
M  V30 1276 H 114.494 2.18015 5.03747 0
M  V30 1277 H 114.755 0.570692 4.38401 0
M  V30 1278 N 113.814 -1.1601 1.06675 0
M  V30 1279 C 115.06 -1.87145 0.796766 0
M  V30 1280 C 115.415 -1.8037 -0.669658 0
M  V30 1281 O 114.708 -1.21116 -1.48463 0
M  V30 1282 C 114.902 -3.35547 1.23057 0
M  V30 1283 C 114.731 -3.56769 2.73762 0
M  V30 1284 C 113.501 -3.72635 3.41279 0
M  V30 1285 C 115.699 -3.55166 3.7197 0
M  V30 1286 N 113.681 -3.81845 4.80695 0
M  V30 1287 C 115.052 -3.70406 4.97191 0
M  V30 1288 C 117.107 -3.384 3.65226 0
M  V30 1289 C 115.81 -3.70615 6.16471 0
M  V30 1290 C 117.836 -3.39904 4.83962 0
M  V30 1291 C 117.198 -3.55667 6.08013 0
M  V30 1292 H 113.297 -0.702267 0.344014 0
M  V30 1293 H 115.881 -1.39165 1.36166 0
M  V30 1294 H 114.052 -3.82159 0.693456 0
M  V30 1295 H 115.784 -3.94363 0.908844 0
M  V30 1296 H 112.539 -3.73121 2.91681 0
M  V30 1297 H 112.963 -3.90209 5.53232 0
M  V30 1298 H 117.605 -3.25138 2.70269 0
M  V30 1299 H 115.323 -3.82658 7.11757 0
M  V30 1300 H 118.909 -3.28169 4.80413 0
M  V30 1301 H 117.789 -3.56755 6.98352 0
M  V30 1302 N 115.292 -0.849877 -1.32721 0
M  V30 1303 C 116.202 -0.293791 -2.32753 0
M  V30 1304 C 117.218 0.585906 -1.63839 0
M  V30 1305 O 118.394 0.487413 -1.95413 0
M  V30 1306 C 115.459 0.512752 -3.42887 0
M  V30 1307 C 114.52 -0.39252 -4.27502 0
M  V30 1308 C 113.753 0.375625 -5.32377 0
M  V30 1309 O 113.976 1.60613 -5.4732 0
M  V30 1310 O 112.91 -0.256094 -6.01355 0
M  V30 1311 H 116.736 -1.12242 -2.82197 0
M  V30 1312 H 114.321 -0.612685 -1.36259 0
M  V30 1313 H 116.203 0.970704 -4.10067 0
M  V30 1314 H 114.878 1.31826 -2.95641 0
M  V30 1315 H 113.785 -0.898547 -3.63149 0
M  V30 1316 H 115.118 -1.16309 -4.7826 0
M  V30 1317 N 116.77 1.45427 -0.607355 0
M  V30 1318 C 118.018 2.01841 -0.102253 0
M  V30 1319 C 118.339 1.47832 1.27164 0
M  V30 1320 O 117.609 0.672497 1.83995 0
M  V30 1321 H 116.189 0.746188 -0.0348101 0
M  V30 1322 H 118.851 1.78229 -0.7887 0
M  V30 1323 H 117.947 3.12057 -0.0518585 0
M  V30 1324 N 118.248 0.346503 1.53744 0
M  V30 1325 C 119.178 -0.501193 2.28058 0
M  V30 1326 C 120.159 -1.10014 1.29734 0
M  V30 1327 O 121.344 -1.12097 1.58581 0
M  V30 1328 C 118.474 -1.65078 3.05559 0
M  V30 1329 C 117.428 -1.18003 4.11411 0
M  V30 1330 C 116.754 -2.41837 4.76884 0
M  V30 1331 C 118.054 -0.278394 5.21558 0
M  V30 1332 H 119.748 0.11875 2.99164 0
M  V30 1333 H 117.294 0.0585531 1.43881 0
M  V30 1334 H 119.247 -2.25028 3.56287 0
M  V30 1335 H 117.971 -2.29767 2.32109 0
M  V30 1336 H 116.63 -0.603331 3.61601 0
M  V30 1337 H 116.278 -3.0494 4.00026 0
M  V30 1338 H 115.978 -2.1102 5.48402 0
M  V30 1339 H 117.502 -3.02508 5.30397 0
M  V30 1340 H 118.916 -0.784823 5.67903 0
M  V30 1341 H 117.313 -0.0619707 6.00068 0
M  V30 1342 H 118.383 0.684677 4.80042 0
M  V30 1343 N 119.726 -1.57421 0.075193 0
M  V30 1344 C 120.674 -2.14124 -0.908508 0
M  V30 1345 C 121.668 -1.07898 -1.30592 0
M  V30 1346 O 122.874 -1.26273 -1.28277 0
M  V30 1347 H 119.249 -0.684707 -0.310935 0
M  V30 1348 H 121.22 -2.95634 -0.405374 0
M  V30 1349 C 119.969 -2.72044 -2.16535 0
M  V30 1350 H 119.292 -3.53456 -1.86839 0
M  V30 1351 H 120.732 -3.15311 -2.83469 0
M  V30 1352 C 119.191 -1.66968 -2.92615 0
M  V30 1353 O 119.721 -1.0967 -3.86439 0
M  V30 1354 N 117.927 -1.37923 -2.55784 0
M  V30 1355 H 117.474 -1.84706 -1.79559 0
M  V30 1356 H 117.432 -0.67852 -3.06991 0
M  V30 1357 N 121.204 0.198386 -1.56346 0
M  V30 1358 C 122.45 0.920648 -1.80698 0
M  V30 1359 C 122.783 1.83045 -0.648697 0
M  V30 1360 O 122.058 1.91308 0.350925 0
M  V30 1361 C 122.341 1.73971 -3.15287 0
M  V30 1362 C 122.194 0.85485 -4.41602 0
M  V30 1363 C 123.513 2.71296 -3.46535 0
M  V30 1364 H 120.632 0.333261 -0.657348 0
M  V30 1365 H 123.274 0.188198 -1.89066 0
M  V30 1366 H 121.424 2.36416 -3.08285 0
M  V30 1367 H 123.096 0.245362 -4.60647 0
M  V30 1368 H 121.339 0.161398 -4.335 0
M  V30 1369 H 122.01 1.46286 -5.32264 0
M  V30 1370 H 124.486 2.18983 -3.53816 0
M  V30 1371 H 123.362 3.2569 -4.41834 0
M  V30 1372 H 123.623 3.5018 -2.69864 0
M  V30 1373 N 122.682 1.50554 0.465978 0
M  V30 1374 C 123.928 1.62038 1.21949 0
M  V30 1375 C 124.261 0.322116 1.9151 0
M  V30 1376 O 123.536 -0.676723 1.82348 0
M  V30 1377 C 123.819 2.80421 2.25912 0
M  V30 1378 C 123.672 4.20144 1.60622 0
M  V30 1379 C 124.991 2.94354 3.27176 0
M  V30 1380 H 122.11 0.589752 0.441998 0
M  V30 1381 H 124.752 1.82956 0.51257 0
M  V30 1382 H 122.902 2.62717 2.86203 0
M  V30 1383 H 124.574 4.49449 1.03889 0
M  V30 1384 H 122.817 4.24165 0.909211 0
M  V30 1385 H 123.488 4.98914 2.36196 0
M  V30 1386 H 125.964 3.10578 2.76913 0
M  V30 1387 H 124.84 3.788 3.97242 0
M  V30 1388 H 125.101 2.05186 3.916 0
M  V30 1389 N 124.16 -0.719506 1.40217 0
M  V30 1390 C 125.107 -1.83359 1.40172 0
M  V30 1391 C 126.077 -1.64065 0.259206 0
M  V30 1392 O 127.262 -1.85254 0.456677 0
M  V30 1393 C 124.402 -3.2103 1.26624 0
M  V30 1394 C 123.515 -3.51923 2.50548 0
M  V30 1395 C 122.65 -4.79079 2.29471 0
M  V30 1396 C 121.689 -5.02863 3.48992 0
M  V30 1397 N 120.826 -6.2123 3.27135 0
M  V30 1398 H 125.666 -1.82733 2.35399 0
M  V30 1399 H 123.203 -0.892688 1.16917 0
M  V30 1400 H 125.161 -4.00524 1.16776 0
M  V30 1401 H 123.791 -3.20895 0.350176 0
M  V30 1402 H 122.843 -2.67014 2.70939 0
M  V30 1403 H 124.155 -3.6541 3.39525 0
M  V30 1404 H 123.309 -5.66582 2.16955 0
M  V30 1405 H 122.048 -4.67794 1.37913 0
M  V30 1406 H 121.053 -4.13816 3.6199 0
M  V30 1407 H 122.278 -5.16023 4.41472 0
M  V30 1408 H 120.224 -6.11204 2.38256 0
M  V30 1409 H 120.141 -6.35375 4.09675 0
M  V30 1410 H 121.409 -7.11532 3.18344 0
M  V30 1411 N 125.638 -1.25649 -0.95132 0
M  V30 1412 C 126.866 -1.13343 -1.73092 0
M  V30 1413 C 127.281 0.312434 -1.86197 0
M  V30 1414 O 126.638 1.21465 -1.36207 0
M  V30 1415 C 126.689 -1.78602 -3.14299 0
M  V30 1416 O 126.41 -3.17537 -3.01831 0
M  V30 1417 C 127.911 -1.72119 -4.08522 0
M  V30 1418 H 125.131 -0.395181 -0.542285 0
M  V30 1419 H 127.675 -1.66076 -1.19328 0
M  V30 1420 H 125.83 -1.29832 -3.64996 0
M  V30 1421 H 126.244 -3.49676 -3.90931 0
M  V30 1422 H 127.718 -2.22435 -5.052 0
M  V30 1423 H 128.195 -0.685635 -4.33815 0
M  V30 1424 H 128.801 -2.20393 -3.63741 0
M  V30 1425 N 127.117 1.15442 -1.07289 0
M  V30 1426 C 128.365 1.85845 -0.794096 0
M  V30 1427 C 128.686 1.82692 0.681809 0
M  V30 1428 O 127.956 1.26741 1.49377 0
M  V30 1429 H 126.536 0.688089 -0.290763 0
M  V30 1430 H 129.198 1.39947 -1.3565 0
M  V30 1431 H 128.294 2.91001 -1.12804 0
M  V30 1432 N 128.595 0.856903 1.32268 0
M  V30 1433 C 130.011 0.547061 1.49931 0
M  V30 1434 C 130.211 -0.921781 1.7918 0
M  V30 1435 O 129.267 -1.70469 1.8627 0
M  V30 1436 C 130.58 1.43599 2.64196 0
M  V30 1437 C 132.128 1.43665 2.78081 0
M  V30 1438 C 132.603 2.31085 3.95428 0
M  V30 1439 N 134.094 2.28893 4.02694 0
M  V30 1440 C 134.829 2.93262 4.92732 0
M  V30 1441 N 134.325 3.66751 5.87763 0
M  V30 1442 N 136.118 2.82638 4.85873 0
M  V30 1443 H 128.269 1.8075 1.11549 0
M  V30 1444 H 130.532 0.772144 0.549997 0
M  V30 1445 H 130.238 2.48058 2.49319 0
M  V30 1446 H 130.112 1.12502 3.60032 0
M  V30 1447 H 132.499 0.399701 2.92381 0
M  V30 1448 H 132.58 1.7878 1.82952 0
M  V30 1449 H 132.224 3.34849 3.81888 0
M  V30 1450 H 132.154 1.93302 4.89839 0
M  V30 1451 H 134.645 1.75466 3.34694 0
M  V30 1452 H 134.958 4.13027 6.53168 0
M  V30 1453 H 133.303 3.70859 5.87783 0
M  V30 1454 H 136.494 2.24774 4.10602 0
M  V30 1455 H 136.667 3.33084 5.55841 0
M  V30 1456 N 130.073 -1.45103 0.615059 0
M  V30 1457 C 131.319 -2.02483 0.113347 0
M  V30 1458 C 131.652 -1.48146 -1.25564 0
M  V30 1459 O 130.927 -0.659104 -1.82992 0
M  V30 1460 C 131.21 -3.60005 0.0825278 0
M  V30 1461 C 131.063 -4.2466 1.48271 0
M  V30 1462 C 132.382 -4.35972 -0.601401 0
M  V30 1463 H 129.501 -0.735764 0.0426632 0
M  V30 1464 H 132.143 -1.72868 0.788461 0
M  V30 1465 H 130.293 -3.85367 -0.492378 0
M  V30 1466 H 131.965 -4.10458 2.10527 0
M  V30 1467 H 130.208 -3.82772 2.04127 0
M  V30 1468 H 130.879 -5.336 1.41332 0
M  V30 1469 H 133.355 -4.15947 -0.112666 0
M  V30 1470 H 132.231 -5.45697 -0.592097 0
M  V30 1471 H 132.492 -4.09391 -1.66887 0
M  V30 1472 N 131.551 -0.354651 -1.53558 0
M  V30 1473 C 132.484 0.540273 -2.21712 0
M  V30 1474 C 133.462 1.09161 -1.2051 0
M  V30 1475 O 134.646 1.14979 -1.49372 0
M  V30 1476 C 131.773 1.74435 -2.90328 0
M  V30 1477 C 130.819 1.32146 -4.05512 0
M  V30 1478 S 131.652 0.331924 -5.3447 0
M  V30 1479 C 132.808 1.54258 -6.06593 0
M  V30 1480 H 133.041 -0.0385776 -2.97275 0
M  V30 1481 H 130.574 -0.138736 -1.53775 0
M  V30 1482 H 132.532 2.43507 -3.30476 0
M  V30 1483 H 131.193 2.29444 -2.1451 0
M  V30 1484 H 130.386 2.21952 -4.52497 0
M  V30 1485 H 129.988 0.710091 -3.67197 0
M  V30 1486 H 132.28 2.47534 -6.30661 0
M  V30 1487 H 133.223 1.11431 -6.99277 0
M  V30 1488 H 133.631 1.74367 -5.36895 0
M  V30 1489 N 133.029 1.57378 -0.0835403 0
M  V30 1490 C 133.959 2.1641 0.87686 0
M  V30 1491 C 134.94 1.09429 1.30228 0
M  V30 1492 O 136.125 1.37516 1.37124 0
M  V30 1493 C 133.255 2.73517 2.14022 0
M  V30 1494 C 132.209 3.85769 1.85381 0
M  V30 1495 C 131.535 4.29529 3.18448 0
M  V30 1496 C 132.835 5.09486 1.14984 0
M  V30 1497 H 134.529 2.96914 0.385059 0
M  V30 1498 H 132.075 1.42823 0.18377 0
M  V30 1499 H 134.028 3.13463 2.81636 0
M  V30 1500 H 132.752 1.90252 2.65465 0
M  V30 1501 H 131.411 3.46345 1.20169 0
M  V30 1502 H 131.059 3.43169 3.67755 0
M  V30 1503 H 130.759 5.05204 3.00071 0
M  V30 1504 H 132.283 4.72099 3.8724 0
M  V30 1505 H 133.697 5.46674 1.72687 0
M  V30 1506 H 132.094 5.90515 1.06826 0
M  V30 1507 H 133.164 4.84724 0.130749 0
M  V30 1508 N 134.507 -0.190092 1.56449 0
M  V30 1509 C 135.755 -0.907908 1.80559 0
M  V30 1510 C 136.076 -1.83583 0.657438 0
M  V30 1511 O 135.346 -1.93203 -0.323924 0
M  V30 1512 H 133.926 -0.338247 0.666032 0
M  V30 1513 H 136.588 -0.194403 1.93928 0
M  V30 1514 H 135.684 -1.49604 2.73907 0
M  V30 1515 N 135.985 -1.50799 -0.457987 0
M  V30 1516 C 136.895 -1.73426 -1.57989 0
M  V30 1517 C 137.911 -0.617745 -1.62665 0
M  V30 1518 O 139.087 -0.897614 -1.80291 0
M  V30 1519 C 136.152 -1.83557 -2.94122 0
M  V30 1520 C 135.213 -3.07345 -2.99729 0
M  V30 1521 C 134.446 -3.16983 -4.29368 0
M  V30 1522 O 134.669 -2.33077 -5.20607 0
M  V30 1523 O 133.603 -4.09812 -4.40837 0
M  V30 1524 H 137.429 -2.68555 -1.41817 0
M  V30 1525 H 135.014 -1.35052 -0.638859 0
M  V30 1526 H 136.896 -1.92326 -3.74952 0
M  V30 1527 H 135.571 -0.916137 -3.10465 0
M  V30 1528 H 134.478 -3.04068 -2.1793 0
M  V30 1529 H 135.811 -3.9891 -2.88326 0
M  V30 1530 N 137.463 0.71206 -1.40597 0
M  V30 1531 C 138.691 1.50111 -1.42388 0
M  V30 1532 C 139.106 1.88784 -0.0245395 0
M  V30 1533 O 138.463 1.55681 0.952351 0
M  V30 1534 C 138.514 2.7742 -2.31776 0
M  V30 1535 O 138.235 2.40382 -3.66262 0
M  V30 1536 C 139.736 3.7129 -2.42196 0
M  V30 1537 H 136.956 0.46314 -0.485533 0
M  V30 1538 H 139.5 0.878068 -1.8469 0
M  V30 1539 H 137.655 3.36001 -1.92827 0
M  V30 1540 H 138.069 3.22324 -4.13772 0
M  V30 1541 H 139.543 4.57448 -3.08943 0
M  V30 1542 H 140.02 4.14641 -1.44809 0
M  V30 1543 H 140.626 3.18619 -2.81712 0
M  V30 1544 N 138.941 1.26152 0.944643 0
M  V30 1545 C 139.889 1.07215 2.06417 0
M  V30 1546 C 140.883 9.2007e-05 1.694 0
M  V30 1547 O 142.089 0.1565 1.79318 0
M  V30 1548 H 138.464 0.329837 0.675805 0
M  V30 1549 H 140.435 2.02099 2.19541 0
M  V30 1550 C 139.184 0.718197 3.40202 0
M  V30 1551 H 138.507 1.53497 3.69159 0
M  V30 1552 H 139.947 0.625459 4.19361 0
M  V30 1553 C 138.406 -0.576435 3.31932 0
M  V30 1554 O 138.936 -1.61574 3.67773 0
M  V30 1555 N 137.142 -0.565781 2.85039 0
M  V30 1556 H 136.689 0.280367 2.5607 0
M  V30 1557 H 136.647 -1.43213 2.79888 0
M  V30 1558 N 140.419 -1.14872 1.07899 0
M  V30 1559 C 141.83 -1.67367 0.827363 0
M  V30 1560 C 142.181 -1.85236 -0.646693 0
M  V30 1561 O 141.306 -1.55974 -1.50004 0
M  V30 1562 C 141.901 -3.04016 1.49532 0
M  V30 1563 C 140.46 -3.53566 1.29106 0
M  V30 1564 C 139.607 -2.29161 1.56143 0
M  V30 1565 H 142.558 -0.990083 1.24028 0
M  V30 1566 H 142.579 -3.69219 0.919643 0
M  V30 1567 H 142.091 -2.90978 2.56814 0
M  V30 1568 H 140.192 -3.71835 0.238713 0
M  V30 1569 H 140.305 -4.34661 2.01511 0
M  V30 1570 H 138.669 -2.34978 0.982717 0
M  V30 1571 H 139.452 -2.18705 2.64619 0
M  V30 1572 N 141.898 -0.863906 -1.31812 0
M  V30 1573 C 142.861 -0.320212 -2.26952 0
M  V30 1574 C 143.861 0.525369 -1.51975 0
M  V30 1575 O 145.051 0.335547 -1.70938 0
M  V30 1576 C 142.183 0.545919 -3.365 0
M  V30 1577 H 143.376 -1.16004 -2.76556 0
M  V30 1578 H 140.929 -0.638995 -1.42641 0
M  V30 1579 H 141.664 1.40718 -2.92179 0
M  V30 1580 H 141.449 -0.0594674 -3.92055 0
M  V30 1581 H 142.939 0.918796 -4.07367 0
M  V30 1582 N 143.376 1.44774 -0.622745 0
M  V30 1583 C 144.653 1.95522 -0.0551974 0
M  V30 1584 C 145.033 1.5649 1.41683 0
M  V30 1585 O 144.381 0.834848 2.12703 0
M  V30 1586 C 144.591 3.4796 -0.269242 0
M  V30 1587 C 145.939 4.24306 -0.158014 0
M  V30 1588 O 146.963 3.55637 -0.200162 0
M  V30 1589 O 145.822 5.46471 -0.0558693 0
M  V30 1590 H 142.916 0.826556 0.0271015 0
M  V30 1591 H 145.462 1.54866 -0.693864 0
M  V30 1592 H 144.234 3.6939 -1.29099 0
M  V30 1593 H 143.857 3.95543 0.403966 0
M  V30 1594 N 144.854 0.36279 1.53368 0
M  V30 1595 C 146.079 -0.231226 2.06107 0
M  V30 1596 C 146.504 -1.419 1.23474 0
M  V30 1597 O 145.862 -1.79524 0.253128 0
M  V30 1598 C 145.91 -0.605523 3.5548 0
M  V30 1599 O 145.014 -1.70312 3.7559 0
M  V30 1600 H 144.355 -0.034327 0.663112 0
M  V30 1601 H 146.885 0.522584 1.97814 0
M  V30 1602 H 146.895 -0.877314 3.98456 0
M  V30 1603 H 145.57 0.263004 4.15068 0
M  V30 1604 H 144.147 -1.4271 3.44512 0
M  V30 1605 N 146.332 -1.57332 0.0918853 0
M  V30 1606 C 147.279 -2.13847 -0.868211 0
M  V30 1607 C 148.249 -1.05618 -1.28196 0
M  V30 1608 O 149.434 -1.33387 -1.36427 0
M  V30 1609 C 146.574 -2.72062 -2.12312 0
M  V30 1610 C 145.687 -3.94514 -1.7602 0
M  V30 1611 C 144.822 -4.40903 -2.96273 0
M  V30 1612 C 143.861 -5.55953 -2.56092 0
M  V30 1613 N 142.998 -5.97209 -3.69169 0
M  V30 1614 H 147.838 -2.95575 -0.379406 0
M  V30 1615 H 145.375 -1.46048 -0.175606 0
M  V30 1616 H 147.333 -3.03931 -2.858 0
M  V30 1617 H 145.963 -1.93068 -2.58698 0
M  V30 1618 H 145.015 -3.68979 -0.925135 0
M  V30 1619 H 146.327 -4.7802 -1.42472 0
M  V30 1620 H 145.481 -4.74539 -3.78018 0
M  V30 1621 H 144.22 -3.56291 -3.33029 0
M  V30 1622 H 143.225 -5.21948 -1.72773 0
M  V30 1623 H 144.45 -6.42311 -2.20484 0
M  V30 1624 H 142.396 -5.15543 -4.05649 0
M  V30 1625 H 142.313 -6.75504 -3.39456 0
M  V30 1626 H 143.581 -6.35475 -4.51434 0
M  V30 1627 N 147.81 0.181792 -1.56548 0
M  V30 1628 C 149.221 0.745244 -1.71181 0
M  V30 1629 C 149.572 1.83262 -0.70068 0
M  V30 1630 O 148.697 2.15946 0.140154 0
M  V30 1631 C 149.292 1.35859 -3.10367 0
M  V30 1632 C 147.851 1.86898 -3.2672 0
M  V30 1633 C 146.998 0.743942 -2.67134 0
M  V30 1634 H 149.949 -0.0434661 -1.5864 0
M  V30 1635 H 149.97 2.22817 -3.08436 0
M  V30 1636 H 149.482 0.566948 -3.83937 0
M  V30 1637 H 147.583 2.68738 -2.5809 0
M  V30 1638 H 147.696 2.02162 -4.34359 0
M  V30 1639 H 146.06 1.16169 -2.26665 0
M  V30 1640 H 146.843 -0.035676 -3.43281 0
M  V30 1641 N 149.288 1.51039 0.449983 0
M  V30 1642 C 150.536 1.62759 1.19808 0
M  V30 1643 C 150.857 0.339981 1.92013 0
M  V30 1644 O 150.127 -0.643606 1.85026 0
M  V30 1645 H 148.707 0.599811 0.445237 0
M  V30 1646 H 151.369 1.87914 0.517138 0
M  V30 1647 H 150.465 2.44911 1.93455 0
M  V30 1648 N 150.766 -0.704594 1.40972 0
M  V30 1649 C 151.994 -1.49354 1.43182 0
M  V30 1650 C 152.409 -1.88768 0.0345508 0
M  V30 1651 O 151.766 -1.56184 -0.944081 0
M  V30 1652 C 151.817 -2.76187 2.33244 0
M  V30 1653 O 151.538 -2.38436 3.67532 0
M  V30 1654 C 153.039 -3.7 2.44162 0
M  V30 1655 H 150.259 -0.460559 0.487982 0
M  V30 1656 H 152.803 -0.868261 1.85153 0
M  V30 1657 H 150.958 -3.34974 1.94606 0
M  V30 1658 H 151.372 -3.20126 4.15475 0
M  V30 1659 H 152.846 -4.55803 3.11364 0
M  V30 1660 H 153.323 -4.13867 1.47006 0
M  V30 1661 H 153.929 -3.17121 2.83398 0
M  V30 1662 N 152.244 -1.26651 -0.937939 0
M  V30 1663 C 153.493 -1.11775 -1.67897 0
M  V30 1664 C 153.806 0.33794 -1.92659 0
M  V30 1665 O 155.012 0.607434 -2.64618 0
M  V30 1666 C 153.468 -1.9523 -3.02346 0
M  V30 1667 C 153.076 -3.45393 -2.8532 0
M  V30 1668 C 154.82 -1.88972 -3.80118 0
M  V30 1669 C 152.727 -4.21083 -4.15263 0
M  V30 1670 H 151.657 -0.414696 -0.629717 0
M  V30 1671 H 154.308 -1.50988 -1.04283 0
M  V30 1672 H 152.69 -1.48853 -3.66959 0
M  V30 1673 H 153.864 -3.99561 -2.29537 0
M  V30 1674 H 152.179 -3.52921 -2.20988 0
M  V30 1675 H 154.776 -2.42805 -4.76392 0
M  V30 1676 H 155.119 -0.86113 -4.07296 0
M  V30 1677 H 155.652 -2.33189 -3.22285 0
M  V30 1678 H 152.391 -5.24425 -3.93267 0
M  V30 1679 H 151.911 -3.71695 -4.70747 0
M  V30 1680 H 153.59 -4.29706 -4.83696 0
M  V30 1681 N 153.722 1.14298 -1.08507 0
M  V30 1682 C 155.138 1.37347 -0.812901 0
M  V30 1683 C 155.338 1.93052 0.577325 0
M  V30 1684 O 154.394 2.14389 1.33393 0
M  V30 1685 C 155.707 2.33359 -1.89642 0
M  V30 1686 C 157.255 2.46996 -1.92255 0
M  V30 1687 C 157.73 3.46309 -2.99724 0
M  V30 1688 N 159.221 3.53853 -2.98902 0
M  V30 1689 C 159.956 4.3055 -3.787 0
M  V30 1690 N 159.452 5.10482 -4.6838 0
M  V30 1691 N 161.245 4.25757 -3.66998 0
M  V30 1692 H 153.396 0.764867 -1.9815 0
M  V30 1693 H 155.659 0.398966 -0.859959 0
M  V30 1694 H 155.365 1.99565 -2.89597 0
M  V30 1695 H 155.239 3.33274 -1.76659 0
M  V30 1696 H 157.626 2.80081 -0.929445 0
M  V30 1697 H 157.707 1.47039 -2.09316 0
M  V30 1698 H 157.351 3.13957 -3.99241 0
M  V30 1699 H 157.281 4.46049 -2.79907 0
M  V30 1700 H 159.772 2.96812 -2.33904 0
M  V30 1701 H 160.085 5.66284 -5.25873 0
M  V30 1702 H 158.43 5.09747 -4.72422 0
M  V30 1703 H 161.621 3.62383 -2.96304 0
M  V30 1704 H 161.794 4.85279 -4.29427 0
M  V30 1705 N 155.201 0.870884 1.31352 0
M  V30 1706 C 156.449 0.48132 1.96285 0
M  V30 1707 C 156.77 -0.969813 1.69173 0
M  V30 1708 O 156.04 -1.67998 1.00764 0
M  V30 1709 H 154.62 0.175002 0.726212 0
M  V30 1710 H 157.282 1.11087 1.60143 0
M  V30 1711 H 156.378 0.639825 3.05471 0
M  V30 1712 N 156.679 -1.44442 0.630414 0
M  V30 1713 C 157.956 -1.9549 0.0655657 0
M  V30 1714 C 158.336 -1.5724 -1.40851 0
M  V30 1715 O 157.684 -0.846116 -2.12257 0
M  V30 1716 C 157.894 -3.47812 0.287691 0
M  V30 1717 C 159.242 -4.24216 0.180513 0
M  V30 1718 O 160.266 -3.55526 0.219019 0
M  V30 1719 O 159.125 -5.46434 0.0848493 0
M  V30 1720 H 156.219 -0.826688 -0.0227177 0
M  V30 1721 H 158.765 -1.54496 0.702068 0
M  V30 1722 H 157.537 -3.687 1.31056 0
M  V30 1723 H 157.16 -3.95751 -0.382984 0
M  V30 1724 N 158.157 -0.370918 -1.53173 0
M  V30 1725 C 159.404 0.217102 -2.01333 0
M  V30 1726 C 159.732 1.48338 -1.25802 0
M  V30 1727 O 158.987 1.92698 -0.34146 0
M  V30 1728 C 159.286 0.549696 -3.53147 0
M  V30 1729 C 158.952 -0.622872 -4.46577 0
M  V30 1730 C 157.614 -0.944595 -4.71838 0
M  V30 1731 C 159.966 -1.40819 -5.01816 0
M  V30 1732 C 157.294 -2.05351 -5.49589 0
M  V30 1733 C 159.646 -2.50757 -5.80778 0
M  V30 1734 C 158.31 -2.83458 -6.04324 0
M  V30 1735 H 157.58 0.0794431 -0.736729 0
M  V30 1736 H 160.227 -0.504481 -1.84736 0
M  V30 1737 H 158.532 1.35237 -3.6772 0
M  V30 1738 H 160.229 1.017 -3.87889 0
M  V30 1739 H 156.819 -0.36209 -4.27068 0
M  V30 1740 H 161.003 -1.17289 -4.82242 0
M  V30 1741 H 156.259 -2.3108 -5.6605 0
M  V30 1742 H 160.433 -3.12022 -6.22588 0
M  V30 1743 H 158.06 -3.69508 -6.64355 0
M  V30 1744 N 159.635 1.57281 -0.100228 0
M  V30 1745 C 160.875 1.96419 0.56558 0
M  V30 1746 C 161.239 0.981265 1.65031 0
M  V30 1747 O 162.44 1.26133 2.37369 0
M  V30 1748 C 160.711 3.39996 1.10171 0
M  V30 1749 S 162.27 4.01134 1.77867 0
M  V30 1750 H 159.088 0.68667 0.184406 0
M  V30 1751 H 161.69 1.94662 -0.180851 0
M  V30 1752 H 160.394 4.09296 0.300803 0
M  V30 1753 H 159.925 3.45361 1.88385 0
M  V30 1754 H 161.94 3.90358 3.06326 0
M  V30 1755 N 161.113 -0.173488 1.56642 0
M  V30 1756 C 162.362 -0.888758 1.81063 0
M  V30 1757 C 162.675 -1.83506 0.67712 0
M  V30 1758 O 163.881 -2.59254 0.806206 0
M  V30 1759 C 162.337 -1.63091 3.20826 0
M  V30 1760 C 161.945 -0.728357 4.4204 0
M  V30 1761 C 163.689 -2.33454 3.54541 0
M  V30 1762 C 161.596 -1.47062 5.72823 0
M  V30 1763 H 160.526 -0.335618 0.675186 0
M  V30 1764 H 163.177 -0.141712 1.82952 0
M  V30 1765 H 161.559 -2.42263 3.13248 0
M  V30 1766 H 162.733 0.0262449 4.60793 0
M  V30 1767 H 161.048 -0.134492 4.16183 0
M  V30 1768 H 163.645 -2.89578 4.49498 0
M  V30 1769 H 163.988 -3.08687 2.79317 0
M  V30 1770 H 164.521 -1.61227 3.63663 0
M  V30 1771 H 161.26 -0.760658 6.51072 0
M  V30 1772 H 160.78 -2.1986 5.58052 0
M  V30 1773 H 162.459 -2.01868 6.14702 0
M  V30 1774 N 162.591 -1.51276 -0.441967 0
M  V30 1775 C 163.523 -1.68444 -1.55433 0
M  V30 1776 C 164.536 -0.565187 -1.52674 0
M  V30 1777 O 165.725 -0.839356 -1.57534 0
M  V30 1778 C 162.825 -1.67966 -2.94348 0
M  V30 1779 C 161.998 -2.964 -3.21661 0
M  V30 1780 C 161.057 -2.88171 -4.40277 0
M  V30 1781 O 160.083 -3.62119 -4.39157 0
M  V30 1782 N 161.285 -2.03706 -5.43584 0
M  V30 1783 H 164.05 -2.644 -1.41112 0
M  V30 1784 H 161.611 -1.49104 -0.630838 0
M  V30 1785 H 163.603 -1.60035 -3.71713 0
M  V30 1786 H 162.173 -0.796225 -3.0229 0
M  V30 1787 H 161.393 -3.18234 -2.32638 0
M  V30 1788 H 162.681 -3.81427 -3.36736 0
M  V30 1789 H 162.079 -1.42995 -5.47329 0
M  V30 1790 H 160.636 -2.01658 -6.1982 0
M  V30 1791 N 164.069 0.697108 -1.41344 0
M  V30 1792 C 165.315 1.4593 -1.40827 0
M  V30 1793 C 165.648 1.94193 -0.0167098 0
M  V30 1794 O 164.923 1.69425 0.955263 0
M  V30 1795 C 165.206 2.67229 -2.41373 0
M  V30 1796 C 165.059 2.24741 -3.8963 0
M  V30 1797 C 166.378 3.69423 -2.39196 0
M  V30 1798 H 163.497 0.529303 -0.512842 0
M  V30 1799 H 166.139 0.794112 -1.72609 0
M  V30 1800 H 164.289 3.23982 -2.14401 0
M  V30 1801 H 165.961 1.73327 -4.27499 0
M  V30 1802 H 164.204 1.56542 -4.0457 0
M  V30 1803 H 164.875 3.1177 -4.55525 0
M  V30 1804 H 167.351 3.2234 -2.63128 0
M  V30 1805 H 166.227 4.51907 -3.11563 0
M  V30 1806 H 166.488 4.19012 -1.41001 0
M  V30 1807 N 165.547 1.27147 0.931209 0
M  V30 1808 C 166.795 1.13055 1.6752 0
M  V30 1809 C 167.116 -0.324791 1.92276 0
M  V30 1810 O 166.386 -1.22775 1.52654 0
M  V30 1811 H 164.966 0.415391 0.620854 0
M  V30 1812 H 167.628 1.59623 1.11833 0
M  V30 1813 H 166.724 1.65694 2.64485 0
M  V30 1814 N 167.025 -1.13721 1.09112 0
M  V30 1815 C 168.441 -1.36914 0.820174 0
M  V30 1816 C 168.641 -1.93356 -0.567079 0
M  V30 1817 O 167.697 -2.15093 -1.32255 0
M  V30 1818 C 169.01 -2.3235 1.90877 0
M  V30 1819 C 170.558 -2.45973 1.93562 0
M  V30 1820 C 171.033 -3.44714 3.01556 0
M  V30 1821 N 172.524 -3.52263 3.00775 0
M  V30 1822 C 173.259 -4.28536 3.80978 0
M  V30 1823 N 172.755 -5.07991 4.71081 0
M  V30 1824 N 174.548 -4.23804 3.69251 0
M  V30 1825 H 166.699 -0.754348 1.98553 0
M  V30 1826 H 168.962 -0.3944 0.862063 0
M  V30 1827 H 168.668 -1.98027 2.90651 0
M  V30 1828 H 168.542 -3.32332 1.78424 0
M  V30 1829 H 170.929 -2.79584 0.944286 0
M  V30 1830 H 171.01 -1.45926 2.10093 0
M  V30 1831 H 170.654 -3.11835 4.00901 0
M  V30 1832 H 170.584 -4.44558 2.82269 0
M  V30 1833 H 173.075 -2.95567 2.35475 0
M  V30 1834 H 173.388 -5.63487 5.28869 0
M  V30 1835 H 171.733 -5.07235 4.75119 0
M  V30 1836 H 174.924 -3.60806 2.98222 0
M  V30 1837 H 175.097 -4.82995 4.31995 0
M  V30 1838 N 168.503 -0.877838 -1.30888 0
M  V30 1839 C 169.451 -0.328662 -2.30266 0
M  V30 1840 C 170.445 0.560496 -1.59859 0
M  V30 1841 O 171.651 0.445722 -1.74394 0
M  V30 1842 H 168.026 -0.0876142 -0.746879 0
M  V30 1843 H 169.997 -1.18061 -2.74051 0
M  V30 1844 C 168.746 0.448071 -3.44801 0
M  V30 1845 H 168.069 -0.226859 -3.99156 0
M  V30 1846 H 169.509 0.797541 -4.16432 0
M  V30 1847 C 167.968 1.64239 -2.94155 0
M  V30 1848 O 168.498 2.74175 -2.93583 0
M  V30 1849 N 166.704 1.47716 -2.50256 0
M  V30 1850 H 166.251 0.582821 -2.5092 0
M  V30 1851 H 166.209 2.27765 -2.16727 0
M  V30 1852 N 169.982 1.44106 -0.638065 0
M  V30 1853 C 171.231 2.01194 -0.142744 0
M  V30 1854 C 171.544 1.50835 1.24532 0
M  V30 1855 O 172.75 2.00096 1.83504 0
M  V30 1856 C 171.206 3.59319 -0.20442 0
M  V30 1857 C 170.814 4.18674 -1.59423 0
M  V30 1858 C 172.558 4.23854 0.234079 0
M  V30 1859 C 170.465 5.69045 -1.61065 0
M  V30 1860 H 169.395 0.752367 -0.0495998 0
M  V30 1861 H 172.046 1.65246 -0.797881 0
M  V30 1862 H 170.428 3.92598 0.517946 0
M  V30 1863 H 171.602 3.96921 -2.34074 0
M  V30 1864 H 169.917 3.66453 -1.97741 0
M  V30 1865 H 172.514 5.34155 0.241443 0
M  V30 1866 H 172.857 3.96688 1.2627 0
M  V30 1867 H 173.39 3.95403 -0.436025 0
M  V30 1868 H 170.129 6.00956 -2.61787 0
M  V30 1869 H 169.649 5.929 -0.90718 0
M  V30 1870 H 171.328 6.32809 -1.34766 0
M  V30 1871 N 171.46 0.379036 1.52974 0
M  V30 1872 C 172.709 -0.207612 2.00629 0
M  V30 1873 C 173.022 -1.48758 1.27006 0
M  V30 1874 O 174.228 -2.15365 1.65318 0
M  V30 1875 C 172.684 -0.42053 3.57435 0
M  V30 1876 C 172.292 0.845587 4.39948 0
M  V30 1877 C 174.036 -0.964102 4.13407 0
M  V30 1878 C 171.943 0.601513 5.88333 0
M  V30 1879 H 170.873 -0.0813591 0.749598 0
M  V30 1880 H 173.524 0.499853 1.76561 0
M  V30 1881 H 171.906 -1.18959 3.7771 0
M  V30 1882 H 173.08 1.61848 4.31442 0
M  V30 1883 H 171.395 1.31336 3.95145 0
M  V30 1884 H 173.992 -1.16225 5.21916 0
M  V30 1885 H 174.335 -1.93019 3.68849 0
M  V30 1886 H 174.868 -0.25487 3.96983 0
M  V30 1887 H 171.607 1.53831 6.37194 0
M  V30 1888 H 171.127 -0.132628 5.99653 0
M  V30 1889 H 172.806 0.232134 6.46583 0
M  V30 1890 N 172.938 -1.57226 0.108567 0
M  V30 1891 C 173.888 -2.11305 -0.856396 0
M  V30 1892 C 174.872 -1.03129 -1.23504 0
M  V30 1893 O 176.064 -1.29381 -1.20787 0
M  V30 1894 C 173.193 -2.70771 -2.11041 0
M  V30 1895 C 172.279 -3.86011 -1.7566 0
M  V30 1896 N 172.67 -4.93492 -1.10902 0
M  V30 1897 C 170.968 -3.95999 -2.05185 0
M  V30 1898 C 171.669 -5.73984 -0.944308 0
M  V30 1899 N 170.645 -5.2346 -1.46596 0
M  V30 1900 H 174.447 -2.91784 -0.352002 0
M  V30 1901 H 171.961 -1.62126 -0.0942324 0
M  V30 1902 H 173.958 -3.07851 -2.81128 0
M  V30 1903 H 172.618 -1.91751 -2.62034 0
M  V30 1904 H 173.629 -5.1208 -0.774235 0
M  V30 1905 H 170.306 -3.28007 -2.58298 0
M  V30 1906 H 171.696 -6.70479 -0.436813 0
M  V30 1907 N 174.416 0.165178 -1.56732 0
M  V30 1908 C 175.664 0.879068 -1.8198 0
M  V30 1909 C 175.985 1.82514 -0.686561 0
M  V30 1910 O 175.255 1.93694 0.293146 0
M  V30 1911 H 173.835 0.327608 -0.671329 0
M  V30 1912 H 176.497 0.163526 -1.94213 0
M  V30 1913 H 175.593 1.45228 -2.76252 0
M  V30 1914 N 175.894 1.51508 0.433938 0
M  V30 1915 C 177.119 1.68443 1.21003 0
M  V30 1916 C 177.544 0.382636 1.84167 0
M  V30 1917 O 176.902 -0.65755 1.68956 0
M  V30 1918 C 176.95 2.80405 2.26727 0
M  V30 1919 O 176.054 2.44245 3.32292 0
M  V30 1920 H 175.395 0.561536 0.354363 0
M  V30 1921 H 177.925 1.9809 0.512024 0
M  V30 1922 H 177.935 3.0459 2.71457 0
M  V30 1923 H 176.61 3.74867 1.80132 0
M  V30 1924 H 175.187 2.30644 2.93015 0
M  V30 1925 N 177.372 -0.689602 1.41712 0
M  V30 1926 C 178.649 -1.44457 1.31877 0
M  V30 1927 C 179.029 -2.11039 -0.0508537 0
M  V30 1928 O 178.377 -2.02138 -1.06547 0
M  V30 1929 C 178.587 -2.45913 2.47645 0
M  V30 1930 C 179.935 -3.10991 2.89084 0
M  V30 1931 O 180.959 -2.56238 2.47428 0
M  V30 1932 O 179.818 -4.10174 3.61137 0
M  V30 1933 H 176.912 -0.64362 0.519309 0
M  V30 1934 H 179.458 -0.719576 1.53689 0
M  V30 1935 H 178.23 -1.95409 3.39015 0
M  V30 1936 H 177.853 -3.25913 2.27742 0
M  V30 1937 N 178.85 -1.27639 -0.924453 0
M  V30 1938 C 180.075 -1.17101 -1.71179 0
M  V30 1939 C 180.5 0.268134 -1.86179 0
M  V30 1940 O 179.858 1.19415 -1.36418 0
M  V30 1941 C 179.906 -1.86313 -3.08739 0
M  V30 1942 O 179.01 -1.16331 -3.95652 0
M  V30 1943 H 178.351 -0.407091 -0.524569 0
M  V30 1944 H 180.881 -1.68767 -1.15666 0
M  V30 1945 H 180.891 -1.938 -3.59034 0
M  V30 1946 H 179.566 -2.91001 -2.97138 0
M  V30 1947 H 178.143 -1.16935 -3.54091 0
M  V30 1948 N 180.328 1.1314 -1.09713 0
M  V30 1949 C 181.574 1.84757 -0.836224 0
M  V30 1950 C 181.907 1.8347 0.636598 0
M  V30 1951 O 181.182 1.27491 1.46889 0
M  V30 1952 C 181.465 3.32782 -1.37578 0
M  V30 1953 C 181.318 3.42567 -2.91493 0
M  V30 1954 C 182.637 4.28307 -1.01198 0
M  V30 1955 H 179.756 0.67082 -0.305236 0
M  V30 1956 H 182.398 1.3278 -1.35903 0
M  V30 1957 H 180.548 3.77177 -0.931097 0
M  V30 1958 H 182.22 3.06862 -3.44432 0
M  V30 1959 H 180.463 2.83349 -3.28475 0
M  V30 1960 H 181.134 4.46674 -3.24324 0
M  V30 1961 H 183.61 3.91999 -1.39556 0
M  V30 1962 H 182.486 5.30307 -1.41653 0
M  V30 1963 H 182.747 4.42029 0.0794833 0
M  V30 1964 N 181.806 0.884767 1.30421 0
M  V30 1965 C 182.753 0.349642 2.28136 0
M  V30 1966 C 183.723 -0.560061 1.56373 0
M  V30 1967 O 184.908 -0.488524 1.8444 0
M  V30 1968 C 182.048 -0.42999 3.42411 0
M  V30 1969 C 181.161 0.508907 4.28992 0
M  V30 1970 C 180.296 -0.286301 5.30428 0
M  V30 1971 C 179.335 0.648079 6.08659 0
M  V30 1972 N 178.472 -0.111792 7.02011 0
M  V30 1973 H 183.312 1.18807 2.73293 0
M  V30 1974 H 180.849 0.597231 1.3443 0
M  V30 1975 H 182.807 -0.897923 4.07423 0
M  V30 1976 H 181.437 -1.23299 2.98324 0
M  V30 1977 H 180.489 1.09533 3.64289 0
M  V30 1978 H 181.801 1.22475 4.8353 0
M  V30 1979 H 180.955 -0.816098 6.01186 0
M  V30 1980 H 179.694 -1.03536 4.76583 0
M  V30 1981 H 178.699 1.18951 5.36778 0
M  V30 1982 H 179.924 1.39623 6.64592 0
M  V30 1983 H 177.87 -0.843395 6.50556 0
M  V30 1984 H 177.787 0.544429 7.54037 0
M  V30 1985 H 179.055 -0.622339 7.77012 0
M  V30 1986 N 183.284 -1.43765 0.645699 0
M  V30 1987 C 184.509 -2.06767 0.161883 0
M  V30 1988 C 184.934 -1.48034 -1.16049 0
M  V30 1989 O 184.292 -0.587369 -1.71522 0
M  V30 1990 C 184.34 -3.60519 0.0762003 0
M  V30 1991 O 183.444 -4.00982 -0.963721 0
M  V30 1992 H 182.785 -0.657675 0.091429 0
M  V30 1993 H 185.315 -1.84397 0.886499 0
M  V30 1994 H 185.325 -4.07853 -0.109604 0
M  V30 1995 H 184 -4.02646 1.04157 0
M  V30 1996 H 182.577 -3.65253 -0.751312 0
M  V30 1997 N 184.763 -0.387143 -1.52771 0
M  V30 1998 C 185.726 0.436939 -2.24997 0
M  V30 1999 C 186.726 0.991991 -1.26555 0
M  V30 2000 O 187.916 0.874335 -1.50669 0
M  V30 2001 C 185.048 1.61281 -3.00335 0
M  V30 2002 H 186.241 -0.195365 -2.99263 0
M  V30 2003 H 183.794 -0.139218 -1.55679 0
M  V30 2004 H 184.529 2.2826 -2.30364 0
M  V30 2005 H 184.314 1.22154 -3.72587 0
M  V30 2006 H 185.804 2.19629 -3.5518 0
M  V30 2007 N 186.241 1.57166 -0.116904 0
M  V30 2008 C 187.151 2.18745 0.847812 0
M  V30 2009 C 188.167 1.163 1.29423 0
M  V30 2010 O 189.343 1.48761 1.35765 0
M  V30 2011 C 186.408 2.77307 2.0809 0
M  V30 2012 C 185.469 3.94781 1.68661 0
M  V30 2013 C 184.702 4.50541 2.86091 0
M  V30 2014 O 184.925 4.05202 4.01456 0
M  V30 2015 O 183.859 5.41256 2.63298 0
M  V30 2016 H 187.685 3.01632 0.353778 0
M  V30 2017 H 185.27 1.49005 0.108599 0
M  V30 2018 H 187.152 3.14647 2.80313 0
M  V30 2019 H 185.827 1.97452 2.56504 0
M  V30 2020 H 184.734 3.62214 0.935518 0
M  V30 2021 H 186.067 4.76065 1.24991 0
M  V30 2022 N 187.719 -0.156864 1.56817 0
M  V30 2023 C 188.666 -1.19394 1.97519 0
M  V30 2024 C 189.636 -1.4322 0.841265 0
M  V30 2025 O 190.821 -1.55719 1.10255 0
M  V30 2026 C 187.961 -2.52483 2.35258 0
M  V30 2027 C 187.074 -2.35914 3.61896 0
M  V30 2028 C 186.209 -3.61969 3.88782 0
M  V30 2029 C 185.248 -3.40395 5.08722 0
M  V30 2030 N 184.385 -4.58556 5.31668 0
M  V30 2031 H 189.225 -0.839845 2.85921 0
M  V30 2032 H 186.762 -0.403264 1.41464 0
M  V30 2033 H 188.72 -3.30071 2.55165 0
M  V30 2034 H 187.35 -2.85859 1.49949 0
M  V30 2035 H 186.402 -1.49429 3.49821 0
M  V30 2036 H 187.714 -2.15926 4.49641 0
M  V30 2037 H 186.868 -4.47989 4.09135 0
M  V30 2038 H 185.607 -3.84951 2.9944 0
M  V30 2039 H 184.612 -2.52763 4.88253 0
M  V30 2040 H 185.837 -3.18822 5.99608 0
M  V30 2041 H 183.783 -4.81729 4.45279 0
M  V30 2042 H 183.7 -4.41535 6.13664 0
M  V30 2043 H 184.968 -5.45817 5.5651 0
M  V30 2044 N 189.197 -1.51736 -0.425897 0
M  V30 2045 C 190.107 -1.76738 -1.54275 0
M  V30 2046 C 191.123 -0.65211 -1.61318 0
M  V30 2047 O 192.299 -0.935654 -1.78346 0
M  V30 2048 C 189.364 -1.89755 -2.90162 0
M  V30 2049 C 188.425 -3.13633 -2.93143 0
M  V30 2050 C 187.658 -3.2602 -4.22548 0
M  V30 2051 O 187.881 -2.44067 -5.15546 0
M  V30 2052 O 186.815 -4.19071 -4.32046 0
M  V30 2053 H 190.641 -2.71502 -1.36089 0
M  V30 2054 H 188.226 -1.36376 -0.610069 0
M  V30 2055 H 190.108 -2.00236 -3.70788 0
M  V30 2056 H 188.783 -0.981785 -3.08452 0
M  V30 2057 H 187.69 -3.08622 -2.11431 0
M  V30 2058 H 189.023 -4.04936 -2.798 0
M  V30 2059 N 190.675 0.682077 -1.42076 0
M  V30 2060 C 191.924 1.43786 -1.41451 0
M  V30 2061 C 192.237 1.95574 -0.0317074 0
M  V30 2062 O 193.443 2.71326 0.0971462 0
M  V30 2063 C 191.899 2.60071 -2.48779 0
M  V30 2064 C 191.507 2.15013 -3.93031 0
M  V30 2065 C 193.251 3.37626 -2.57311 0
M  V30 2066 C 191.158 3.28336 -4.91883 0
M  V30 2067 H 190.088 0.540143 -0.526082 0
M  V30 2068 H 192.739 0.739157 -1.67955 0
M  V30 2069 H 191.121 3.32275 -2.15429 0
M  V30 2070 H 192.295 1.5001 -4.35699 0
M  V30 2071 H 190.61 1.50416 -3.88284 0
M  V30 2072 H 193.207 4.22012 -3.28345 0
M  V30 2073 H 193.55 3.83727 -1.61429 0
M  V30 2074 H 194.083 2.72488 -2.89819 0
M  V30 2075 H 190.822 2.87234 -5.89217 0
M  V30 2076 H 190.342 3.92145 -4.53853 0
M  V30 2077 H 192.021 3.93913 -5.13265 0
M  V30 2078 N 192.153 1.28127 0.917671 0
M  V30 2079 C 193.378 1.18007 1.70555 0
M  V30 2080 C 193.803 -0.258257 1.86319 0
M  V30 2081 O 193.161 -1.1869 1.37049 0
M  V30 2082 C 193.209 1.87948 3.07746 0
M  V30 2083 O 192.313 1.18427 3.9503 0
M  V30 2084 H 191.654 0.409867 0.522403 0
M  V30 2085 H 194.184 1.69379 1.1477 0
M  V30 2086 H 194.194 1.95701 3.58001 0
M  V30 2087 H 192.869 2.92573 2.95591 0
M  V30 2088 H 191.446 1.18811 3.53466 0
M  V30 2089 N 193.631 -1.12557 1.10312 0
M  V30 2090 C 194.561 -2.20341 0.772798 0
M  V30 2091 C 195.542 -1.68198 -0.25365 0
M  V30 2092 O 196.727 -1.93831 -0.119699 0
M  V30 2093 C 193.857 -3.46709 0.202443 0
M  V30 2094 C 192.811 -4.11996 1.15943 0
M  V30 2095 C 192.137 -5.328 0.450345 0
M  V30 2096 C 193.437 -4.5828 2.50552 0
M  V30 2097 H 195.131 -2.48229 1.674 0
M  V30 2098 H 192.677 -1.19308 0.806326 0
M  V30 2099 H 194.63 -4.2138 -0.0407752 0
M  V30 2100 H 193.354 -3.18245 -0.734001 0
M  V30 2101 H 192.013 -3.39305 1.38808 0
M  V30 2102 H 191.661 -5.00602 -0.490531 0
M  V30 2103 H 191.361 -5.7743 1.08851 0
M  V30 2104 H 192.885 -6.10219 0.215642 0
M  V30 2105 H 194.299 -5.2433 2.31843 0
M  V30 2106 H 192.696 -5.13683 3.10242 0
M  V30 2107 H 193.766 -3.72329 3.10643 0
M  V30 2108 N 195.109 -0.891671 -1.2995 0
M  V30 2109 C 196.355 -0.523649 -1.96544 0
M  V30 2110 C 196.71 0.918394 -1.69066 0
M  V30 2111 O 196.003 1.64122 -0.988659 0
M  V30 2112 C 196.197 -0.742868 -3.49594 0
M  V30 2113 C 196.026 -2.20467 -3.9195 0
M  V30 2114 C 194.796 -2.85055 -4.17219 0
M  V30 2115 C 196.994 -3.17912 -4.04273 0
M  V30 2116 N 194.976 -4.21762 -4.46083 0
M  V30 2117 C 196.347 -4.39712 -4.37097 0
M  V30 2118 C 198.402 -3.1361 -3.86721 0
M  V30 2119 C 197.105 -5.5776 -4.54199 0
M  V30 2120 C 199.131 -4.30936 -4.05028 0
M  V30 2121 C 198.493 -5.51504 -4.38204 0
M  V30 2122 H 194.592 -0.241072 -0.743914 0
M  V30 2123 H 197.176 -1.15081 -1.5705 0
M  V30 2124 H 195.347 -0.14515 -3.88129 0
M  V30 2125 H 197.079 -0.341081 -4.0326 0
M  V30 2126 H 193.834 -2.35889 -4.10674 0
M  V30 2127 H 194.258 -4.92382 -4.64638 0
M  V30 2128 H 198.9 -2.21489 -3.60142 0
M  V30 2129 H 196.618 -6.50379 -4.79618 0
M  V30 2130 H 200.204 -4.29085 -3.92909 0
M  V30 2131 H 199.084 -6.40778 -4.52077 0
M  V30 2132 N 196.587 1.43421 -0.653314 0
M  V30 2133 C 197.834 2.01812 -0.166745 0
M  V30 2134 C 198.162 1.51535 1.21931 0
M  V30 2135 O 197.417 0.698975 1.82792 0
M  V30 2136 C 197.716 3.57176 -0.126623 0
M  V30 2137 C 197.382 4.26798 -1.45444 0
M  V30 2138 C 196.044 4.45534 -1.81805 0
M  V30 2139 C 198.396 4.66225 -2.32989 0
M  V30 2140 C 195.724 5.00961 -3.05377 0
M  V30 2141 C 198.076 5.23021 -3.55853 0
M  V30 2142 C 196.74 5.39973 -3.9241 0
M  V30 2143 H 196.01 0.738484 -0.0610162 0
M  V30 2144 H 198.657 1.71896 -0.84404 0
M  V30 2145 H 196.962 3.86634 0.634123 0
M  V30 2146 H 198.659 4.00112 0.266723 0
M  V30 2147 H 195.249 4.12561 -1.16153 0
M  V30 2148 H 199.433 4.51443 -2.06187 0
M  V30 2149 H 194.689 5.12271 -3.3375 0
M  V30 2150 H 198.863 5.52518 -4.23907 0
M  V30 2151 H 196.49 5.82687 -4.88242 0
M  V30 2152 N 198.065 0.39524 1.52563 0
M  V30 2153 C 199.012 -0.437036 2.26624 0
M  V30 2154 C 199.982 -1.05281 1.28472 0
M  V30 2155 O 201.167 -1.07971 1.57311 0
M  V30 2156 C 198.307 -1.55524 3.08069 0
M  V30 2157 C 197.42 -0.961745 4.21158 0
M  V30 2158 C 196.555 -2.05149 4.89987 0
M  V30 2159 C 195.594 -1.4342 5.95061 0
M  V30 2160 N 194.731 -2.46351 6.57462 0
M  V30 2161 H 199.571 0.200976 2.97322 0
M  V30 2162 H 197.108 0.110944 1.46681 0
M  V30 2163 H 199.066 -2.21437 3.53584 0
M  V30 2164 H 197.696 -2.16348 2.3957 0
M  V30 2165 H 196.748 -0.192048 3.79915 0
M  V30 2166 H 198.06 -0.470701 4.96574 0
M  V30 2167 H 197.214 -2.78819 5.38837 0
M  V30 2168 H 195.953 -2.57615 4.14109 0
M  V30 2169 H 194.958 -0.682774 5.45544 0
M  V30 2170 H 196.183 -0.917416 6.72875 0
M  V30 2171 H 194.129 -2.97975 5.8442 0
M  V30 2172 H 194.046 -2.02019 7.28508 0
M  V30 2173 H 195.314 -3.19633 7.10954 0
M  V30 2174 N 199.544 -1.57102 0.125237 0
M  V30 2175 C 200.955 -1.82384 -0.399142 0
M  V30 2176 C 201.306 -1.04276 -1.66195 0
M  V30 2177 O 200.431 -0.281269 -2.14564 0
M  V30 2178 C 201.026 -3.30821 -0.730932 0
M  V30 2179 C 199.585 -3.56762 -1.19992 0
M  V30 2180 C 198.732 -2.7649 -0.211792 0
M  V30 2181 H 201.683 -1.54786 0.350277 0
M  V30 2182 H 201.704 -3.4579 -1.58775 0
M  V30 2183 H 201.216 -3.87643 0.188345 0
M  V30 2184 H 199.317 -3.05305 -2.13588 0
M  V30 2185 H 199.43 -4.65317 -1.14093 0
M  V30 2186 H 197.794 -2.4489 -0.700085 0
M  V30 2187 H 198.577 -3.36073 0.700691 0
M  V30 2188 N 201.022 0.148545 -1.56898 0
M  V30 2189 C 201.932 1.20293 -2.01412 0
M  V30 2190 C 202.948 1.47107 -0.929273 0
M  V30 2191 O 204.124 1.58807 -1.23863 0
M  V30 2192 C 201.189 2.51682 -2.38447 0
M  V30 2193 C 200.25 2.32529 -3.60872 0
M  V30 2194 C 199.483 3.57653 -3.96132 0
M  V30 2195 O 199.706 4.63771 -3.32073 0
M  V30 2196 O 198.64 3.50408 -4.89385 0
M  V30 2197 H 202.466 0.855025 -2.91416 0
M  V30 2198 H 200.051 0.357151 -1.45068 0
M  V30 2199 H 201.933 3.29147 -2.63135 0
M  V30 2200 H 200.608 2.86006 -1.51599 0
M  V30 2201 H 199.515 1.53019 -3.41373 0
M  V30 2202 H 200.848 2.03121 -4.48333 0
M  V30 2203 N 202.5 1.5196 0.417844 0
M  V30 2204 C 203.41 1.77554 1.53336 0
M  V30 2205 C 204.426 0.660655 1.6097 0
M  V30 2206 O 205.602 0.945099 1.77848 0
M  V30 2207 C 202.667 1.91291 2.89152 0
M  V30 2208 C 201.728 3.15183 2.91475 0
M  V30 2209 C 200.961 3.28256 4.20813 0
M  V30 2210 O 201.184 2.46798 5.14244 0
M  V30 2211 O 200.118 4.21356 4.29817 0
M  V30 2212 H 203.944 2.7222 1.34647 0
M  V30 2213 H 201.529 1.36698 0.602828 0
M  V30 2214 H 203.411 2.02199 3.69721 0
M  V30 2215 H 202.086 0.998129 3.07927 0
M  V30 2216 H 200.993 3.09739 2.09791 0
M  V30 2217 H 202.326 4.06414 2.77648 0
M  V30 2218 N 203.978 -0.674533 1.42435 0
M  V30 2219 C 204.908 -1.80009 1.48724 0
M  V30 2220 C 205.889 -1.6659 0.343793 0
M  V30 2221 O 207.074 -1.86007 0.558137 0
M  V30 2222 C 204.204 -3.18306 1.38919 0
M  V30 2223 C 203.158 -3.46461 2.51294 0
M  V30 2224 C 202.484 -4.84335 2.26547 0
M  V30 2225 C 203.784 -3.43328 3.93603 0
M  V30 2226 H 205.478 -1.75004 2.42928 0
M  V30 2227 H 203.024 -0.840533 1.16923 0
M  V30 2228 H 204.977 -3.9678 1.41927 0
M  V30 2229 H 203.701 -3.2399 0.412094 0
M  V30 2230 H 202.36 -2.70348 2.47604 0
M  V30 2231 H 202.008 -4.86669 1.2713 0
M  V30 2232 H 201.708 -5.04136 3.01861 0
M  V30 2233 H 203.232 -5.65094 2.31304 0
M  V30 2234 H 204.646 -4.11772 3.98894 0
M  V30 2235 H 203.043 -3.74664 4.68771 0
M  V30 2236 H 204.113 -2.41897 4.20255 0
M  V30 2237 N 205.456 -1.28612 -0.910864 0
M  V30 2238 C 206.702 -1.16106 -1.66274 0
M  V30 2239 C 207.035 0.289113 -1.92036 0
M  V30 2240 O 206.31 1.21 -1.52281 0
M  V30 2241 C 206.593 -1.96309 -3.01885 0
M  V30 2242 C 206.446 -3.49405 -2.8326 0
M  V30 2243 C 207.765 -1.78076 -4.02463 0
M  V30 2244 H 204.884 -0.423152 -0.603417 0
M  V30 2245 H 207.526 -1.57961 -1.05586 0
M  V30 2246 H 205.676 -1.60742 -3.53687 0
M  V30 2247 H 207.348 -3.94894 -2.38446 0
M  V30 2248 H 205.591 -3.74893 -2.18261 0
M  V30 2249 H 206.262 -4.00784 -3.79574 0
M  V30 2250 H 208.738 -2.0912 -3.59733 0
M  V30 2251 H 207.614 -2.36561 -4.95308 0
M  V30 2252 H 207.875 -0.733008 -4.35981 0
M  V30 2253 N 206.934 1.1197 -1.10907 0
M  V30 2254 C 208.211 1.79959 -0.766432 0
M  V30 2255 C 208.591 1.97466 0.746363 0
M  V30 2256 O 207.939 1.55491 1.67436 0
M  V30 2257 C 208.149 3.14009 -1.52314 0
M  V30 2258 C 209.497 3.89134 -1.69883 0
M  V30 2259 O 210.521 3.2368 -1.48692 0
M  V30 2260 O 209.38 5.06572 -2.05054 0
M  V30 2261 H 206.474 0.779208 -0.277062 0
M  V30 2262 H 209.02 1.18762 -1.21217 0
M  V30 2263 H 207.792 2.96587 -2.55249 0
M  V30 2264 H 207.415 3.82915 -1.07059 0
M  V30 2265 N 208.412 0.89855 1.29475 0
M  V30 2266 C 209.642 0.538479 1.99459 0
M  V30 2267 C 210.05 -0.880922 1.67441 0
M  V30 2268 O 209.393 -1.59283 0.915127 0
M  V30 2269 C 209.455 0.649564 3.53583 0
M  V30 2270 C 209.119 2.03573 4.09154 0
M  V30 2271 C 210.116 3.00675 4.24135 0
M  V30 2272 C 207.801 2.3448 4.44212 0
M  V30 2273 C 209.795 4.26809 4.73405 0
M  V30 2274 C 207.482 3.60857 4.93179 0
M  V30 2275 C 208.48 4.56836 5.0773 0
M  V30 2276 O 208.168 5.80969 5.55635 0
M  V30 2277 H 207.9 0.205372 0.644048 0
M  V30 2278 H 210.454 1.20958 1.66007 0
M  V30 2279 H 208.684 -0.0785592 3.8662 0
M  V30 2280 H 210.373 0.29881 4.04799 0
M  V30 2281 H 211.139 2.78112 3.97339 0
M  V30 2282 H 207.018 1.60534 4.32145 0
M  V30 2283 H 210.562 5.0173 4.84678 0
M  V30 2284 H 206.459 3.83251 5.19412 0
M  V30 2285 H 207.227 5.83542 5.73952 0
M  V30 2286 N 209.89 -1.43072 0.660911 0
M  V30 2287 C 210.837 -2.30785 -0.0259884 0
M  V30 2288 C 211.807 -1.45184 -0.806888 0
M  V30 2289 O 212.992 -1.74041 -0.781943 0
M  V30 2290 C 210.132 -3.30861 -0.981067 0
M  V30 2291 C 209.245 -4.31558 -0.195458 0
M  V30 2292 C 208.38 -5.18712 -1.14503 0
M  V30 2293 C 207.419 -6.11097 -0.350299 0
M  V30 2294 N 206.556 -6.90849 -1.25186 0
M  V30 2295 H 211.396 -2.88975 0.727846 0
M  V30 2296 H 208.933 -1.42353 0.370682 0
M  V30 2297 H 210.891 -3.87399 -1.54849 0
M  V30 2298 H 209.521 -2.74304 -1.70169 0
M  V30 2299 H 208.573 -3.77252 0.488374 0
M  V30 2300 H 209.885 -4.9701 0.422176 0
M  V30 2301 H 209.039 -5.79914 -1.78284 0
M  V30 2302 H 207.778 -4.53404 -1.79656 0
M  V30 2303 H 206.783 -5.48976 0.300808 0
M  V30 2304 H 208.008 -6.7845 0.296941 0
M  V30 2305 H 205.954 -6.28182 -1.89005 0
M  V30 2306 H 205.871 -7.52854 -0.688971 0
M  V30 2307 H 207.139 -7.5655 -1.87757 0
M  V30 2308 N 211.368 -0.403325 -1.52352 0
M  V30 2309 C 212.593 0.176499 -2.06648 0
M  V30 2310 C 213.018 1.38577 -1.27193 0
M  V30 2311 O 212.376 1.7879 -0.300637 0
M  V30 2312 C 212.424 0.511061 -3.5696 0
M  V30 2313 O 211.528 1.60294 -3.79973 0
M  V30 2314 H 210.869 0.0167337 -0.663789 0
M  V30 2315 H 213.399 -0.574848 -1.96359 0
M  V30 2316 H 213.409 0.771362 -4.00642 0
M  V30 2317 H 212.084 -0.37296 -4.14224 0
M  V30 2318 H 210.661 1.33526 -3.48174 0
M  V30 2319 N 212.846 1.57033 -0.133567 0
M  V30 2320 C 214.086 1.97575 0.523789 0
M  V30 2321 C 214.45 1.01605 1.62912 0
M  V30 2322 O 215.651 1.3114 2.3464 0
M  V30 2323 C 213.922 3.42256 1.02935 0
M  V30 2324 S 215.481 4.04817 1.69319 0
M  V30 2325 H 212.299 0.690427 0.169799 0
M  V30 2326 H 214.901 1.94234 -0.222101 0
M  V30 2327 H 213.605 4.09842 0.213917 0
M  V30 2328 H 213.136 3.4928 1.81017 0
M  V30 2329 H 215.151 3.96767 2.97977 0
M  V30 2330 N 214.325 -0.140222 1.56975 0
M  V30 2331 C 215.288 -1.15689 1.97861 0
M  V30 2332 C 216.288 -1.3549 0.865974 0
M  V30 2333 O 217.478 -1.32367 1.13246 0
M  V30 2334 C 214.61 -2.51582 2.30042 0
M  V30 2335 H 215.803 -0.805971 2.88867 0
M  V30 2336 H 213.356 -0.383801 1.51515 0
M  V30 2337 H 214.091 -2.91632 1.41849 0
M  V30 2338 H 213.876 -2.38569 3.11171 0
M  V30 2339 H 215.366 -3.24792 2.62488 0
M  V30 2340 N 215.803 -1.52179 -0.40978 0
M  V30 2341 C 216.753 -1.71857 -1.49831 0
M  V30 2342 C 217.737 -0.572469 -1.50372 0
M  V30 2343 O 218.929 -0.829509 -1.56359 0
M  V30 2344 C 216.058 -1.87206 -2.87765 0
M  V30 2345 C 215.144 -3.07685 -2.91875 0
M  V30 2346 N 215.535 -4.30403 -2.65683 0
M  V30 2347 C 213.833 -3.07505 -3.23043 0
M  V30 2348 C 214.534 -5.11868 -2.76344 0
M  V30 2349 N 213.51 -4.47101 -3.09195 0
M  V30 2350 H 217.312 -2.64381 -1.28375 0
M  V30 2351 H 214.826 -1.50203 -0.617479 0
M  V30 2352 H 216.823 -1.99419 -3.66111 0
M  V30 2353 H 215.483 -0.958814 -3.10221 0
M  V30 2354 H 216.494 -4.58887 -2.4009 0
M  V30 2355 H 213.171 -2.25915 -3.51096 0
M  V30 2356 H 214.561 -6.19634 -2.59814 0
M  V30 2357 N 217.281 0.66697 -1.42791 0
M  V30 2358 C 218.558 1.4234 -1.34159 0
M  V30 2359 C 218.938 2.11093 0.0172729 0
M  V30 2360 O 218.286 2.03808 1.03318 0
M  V30 2361 C 218.496 2.41942 -2.51526 0
M  V30 2362 C 219.844 3.06353 -2.93995 0
M  V30 2363 O 220.868 2.52269 -2.51473 0
M  V30 2364 O 219.727 4.04376 -3.67617 0
M  V30 2365 H 216.821 0.635277 -0.529483 0
M  V30 2366 H 219.367 0.695034 -1.54814 0
M  V30 2367 H 218.139 1.89991 -3.42081 0
M  V30 2368 H 217.762 3.22249 -2.32898 0
M  V30 2369 N 218.759 1.29093 0.90403 0
M  V30 2370 C 220.005 1.17996 1.65676 0
M  V30 2371 C 220.36 -0.266816 1.90541 0
M  V30 2372 O 219.653 -1.19 1.50165 0
M  V30 2373 C 219.847 1.92224 3.01305 0
M  V30 2374 C 219.676 3.43972 2.89678 0
M  V30 2375 C 218.446 4.1332 2.90679 0
M  V30 2376 C 220.644 4.39546 2.67028 0
M  V30 2377 N 218.626 5.51463 2.69743 0
M  V30 2378 C 219.997 5.65119 2.5503 0
M  V30 2379 C 222.052 4.29359 2.52101 0
M  V30 2380 C 220.755 6.81663 2.29626 0
M  V30 2381 C 222.781 5.4565 2.28079 0
M  V30 2382 C 222.143 6.70193 2.16843 0
M  V30 2383 H 218.242 0.486759 0.612037 0
M  V30 2384 H 220.826 1.62868 1.06688 0
M  V30 2385 H 218.997 1.49773 3.58361 0
M  V30 2386 H 220.729 1.73429 3.65656 0
M  V30 2387 H 217.484 3.64984 3.01801 0
M  V30 2388 H 217.908 6.24105 2.6234 0
M  V30 2389 H 222.55 3.33769 2.59534 0
M  V30 2390 H 220.268 7.77313 2.20932 0
M  V30 2391 H 223.854 5.39664 2.1738 0
M  V30 2392 H 222.734 7.58659 1.98511 0
M  V30 2393 N 220.237 -1.11381 1.11499 0
M  V30 2394 C 221.483 -1.83403 0.865512 0
M  V30 2395 C 221.816 -1.84459 -0.607329 0
M  V30 2396 O 221.091 -1.29811 -1.44842 0
M  V30 2397 C 221.374 -3.30552 1.42855 0
M  V30 2398 C 221.227 -3.37886 2.96906 0
M  V30 2399 C 222.546 -4.26643 1.08 0
M  V30 2400 H 219.665 -0.665879 0.31587 0
M  V30 2401 H 222.307 -1.30601 1.37998 0
M  V30 2402 H 220.457 -3.75648 0.990985 0
M  V30 2403 H 222.129 -3.01343 3.49271 0
M  V30 2404 H 220.372 -2.78088 3.32941 0
M  V30 2405 H 221.043 -4.41458 3.31389 0
M  V30 2406 H 223.519 -3.89729 1.45775 0
M  V30 2407 H 222.395 -5.27986 1.50072 0
M  V30 2408 H 222.656 -4.42099 -0.00915037 0
M  V30 2409 N 221.715 -0.905404 -1.28997 0
M  V30 2410 C 222.945 -0.549049 -1.99171 0
M  V30 2411 C 223.353 0.87203 -1.67906 0
M  V30 2412 O 222.696 1.58796 -0.923561 0
M  V30 2413 C 222.758 -0.668306 -3.53234 0
M  V30 2414 C 222.422 -2.0574 -4.08069 0
M  V30 2415 C 223.419 -3.0292 -4.22534 0
M  V30 2416 C 221.104 -2.36833 -4.42962 0
M  V30 2417 C 223.098 -4.29314 -4.71135 0
M  V30 2418 C 220.785 -3.63467 -4.91258 0
M  V30 2419 C 221.783 -4.59522 -5.053 0
M  V30 2420 O 221.471 -5.83907 -5.52546 0
M  V30 2421 H 221.203 -0.208784 -0.64295 0
M  V30 2422 H 223.757 -1.21836 -1.65363 0
M  V30 2423 H 221.987 0.0580547 -3.86656 0
M  V30 2424 H 223.676 -0.320273 -4.04634 0
M  V30 2425 H 224.442 -2.80216 -3.95859 0
M  V30 2426 H 220.321 -1.62824 -4.31288 0
M  V30 2427 H 223.865 -5.04293 -4.8201 0
M  V30 2428 H 219.762 -3.86 -5.17372 0
M  V30 2429 H 220.53 -5.86578 -5.70849 0
M  V30 2430 N 223.193 1.4272 -0.668489 0
M  V30 2431 C 224.103 2.34596 0.0139753 0
M  V30 2432 C 225.119 1.5474 0.795703 0
M  V30 2433 O 226.295 1.87334 0.739466 0
M  V30 2434 C 223.36 3.33202 0.957982 0
M  V30 2435 C 222.421 4.28957 0.17149 0
M  V30 2436 C 221.654 5.22853 1.07053 0
M  V30 2437 O 221.877 5.21531 2.31001 0
M  V30 2438 O 220.811 5.9952 0.534727 0
M  V30 2439 H 224.637 2.9448 -0.742661 0
M  V30 2440 H 222.222 1.43117 -0.428705 0
M  V30 2441 H 224.104 3.93796 1.50008 0
M  V30 2442 H 222.779 2.758 1.69458 0
M  V30 2443 H 221.686 3.71796 -0.414558 0
M  V30 2444 H 223.019 4.89383 -0.52586 0
M  V30 2445 O 224.71 0.553536 1.51718 0
M  V30 2446 H 225.401 0.050045 1.93635 0
M  V30 END ATOM
M  V30 BEGIN BOND
M  V30 END BOND
M  V30 END CTAB
M  END
$$$$
