drugbank_target|P22340 Sucrose porin (DB02772)
 OpenBabel12092120253D

  0  0  0     0  0            999 V3000
M  V30 BEGIN CTAB
M  V30 COUNTS 7633 7716 0 0 0
M  V30 BEGIN ATOM
M  V30 1 H -0.908 1.98254 -0.117106 0
M  V30 2 N 0 1.576 0 0
M  V30 3 C 0.933 2.03868 1.02534 0
M  V30 4 C 1.911 0.928543 1.3348 0
M  V30 5 O 3.095 1.19667 1.45644 0
M  V30 6 C 0.222 2.43627 2.35294 0
M  V30 7 C -0.732 3.65373 2.2001 0
M  V30 8 S 0.101 5.13292 1.52614 0
M  V30 9 C 1.257 5.56322 2.86805 0
M  V30 10 H 1.49 2.90518 0.631377 0
M  V30 11 H -0.977 1.52953 0.210867 0
M  V30 12 H 0.981 2.67203 3.11629 0
M  V30 13 H -0.358 1.57376 2.7183 0
M  V30 14 H -1.165 3.90944 3.18086 0
M  V30 15 H -1.563 3.418 1.51819 0
M  V30 16 H 0.729 5.58782 3.83104 0
M  V30 17 H 1.672 6.56266 2.65933 0
M  V30 18 H 2.08 4.83886 2.90714 0
M  V30 19 N 1.4781 -0.272755 1.55222 0
M  V30 20 C 2.7081 -1.02107 1.79604 0
M  V30 21 C 3.1161 -1.80419 0.569693 0
M  V30 22 O 2.4591 -1.77566 -0.470743 0
M  V30 23 C 2.5211 -2.02675 2.96922 0
M  V30 24 C 2.1851 -1.43299 4.33952 0
M  V30 25 C 3.1821 -0.84853 5.12929 0
M  V30 26 C 0.8671 -1.46012 4.8061 0
M  V30 27 C 2.8611 -0.299109 6.36698 0
M  V30 28 C 0.5481 -0.906833 6.04334 0
M  V30 29 C 1.5461 -0.32733 6.82215 0
M  V30 30 O 1.2341 0.217479 8.03606 0
M  V30 31 H 0.9661 -0.307322 0.602104 0
M  V30 32 H 3.5201 -0.308862 2.03065 0
M  V30 33 H 1.7501 -2.77656 2.69155 0
M  V30 34 H 3.4391 -2.63637 3.08626 0
M  V30 35 H 4.2051 -0.820265 4.78013 0
M  V30 36 H 0.0841 -1.90056 4.2 0
M  V30 37 H 3.6281 0.153852 6.9743 0
M  V30 38 H -0.4749 -0.932339 6.38731 0
M  V30 39 H 0.2931 0.106863 8.1843 0
M  V30 40 N 2.9562 -1.48159 -0.537278 0
M  V30 41 C 4.3722 -1.34118 -0.865129 0
M  V30 42 C 4.5722 -0.346678 -1.98495 0
M  V30 43 O 3.6282 0.234715 -2.51407 0
M  V30 44 C 4.9412 -2.73963 -1.23954 0
M  V30 45 C 6.4892 -2.82397 -1.34984 0
M  V30 46 C 6.9642 -4.22928 -1.75772 0
M  V30 47 N 8.4552 -4.25566 -1.82887 0
M  V30 48 C 9.1902 -5.31235 -2.15817 0
M  V30 49 N 8.6862 -6.47189 -2.47222 0
M  V30 50 N 10.4792 -5.18624 -2.16761 0
M  V30 51 H 2.6302 -2.1144 0.201715 0
M  V30 52 H 4.8932 -0.947598 0.0275949 0
M  V30 53 H 4.5992 -3.48264 -0.490381 0
M  V30 54 H 4.4732 -3.0702 -2.19132 0
M  V30 55 H 6.8602 -2.08356 -2.08978 0
M  V30 56 H 6.9412 -2.5297 -0.379448 0
M  V30 57 H 6.5852 -4.97482 -1.02341 0
M  V30 58 H 6.5152 -4.49794 -2.73848 0
M  V30 59 H 9.0062 -3.41924 -1.60924 0
M  V30 60 H 9.3192 -7.23564 -2.71433 0
M  V30 61 H 7.6642 -6.50476 -2.44757 0
M  V30 62 H 10.8552 -4.27056 -1.91679 0
M  V30 63 H 11.0282 -6.01078 -2.42093 0
M  V30 64 N 4.4343 0.785586 -1.36625 0
M  V30 65 C 5.3813 1.89838 -1.31264 0
M  V30 66 C 6.3513 1.65115 -0.180633 0
M  V30 67 O 7.5363 1.87222 -0.36777 0
M  V30 68 C 4.6763 3.26706 -1.11163 0
M  V30 69 C 3.7893 3.63476 -2.33472 0
M  V30 70 C 2.9243 4.89481 -2.06353 0
M  V30 71 C 1.9633 5.18941 -3.24602 0
M  V30 72 N 1.1003 6.36131 -2.97123 0
M  V30 73 H 5.9403 1.93756 -2.26413 0
M  V30 74 H 3.4773 0.947454 -1.12524 0
M  V30 75 H 5.4353 4.05639 -0.975337 0
M  V30 76 H 4.0653 3.222 -0.196674 0
M  V30 77 H 3.1173 2.79636 -2.57891 0
M  V30 78 H 4.4293 3.81193 -3.21704 0
M  V30 79 H 3.5833 5.76288 -1.89675 0
M  V30 80 H 2.3223 4.73841 -1.15437 0
M  V30 81 H 1.3273 4.30615 -3.41834 0
M  V30 82 H 2.5523 5.36498 -4.16349 0
M  V30 83 H 0.4983 6.21875 -2.08823 0
M  V30 84 H 0.4153 6.54198 -3.78894 0
M  V30 85 H 1.6833 7.2591 -2.84033 0
M  V30 86 N 5.9124 1.20967 1.01018 0
M  V30 87 C 7.1374 1.0503 1.78839 0
M  V30 88 C 7.5624 -0.395752 1.8389 0
M  V30 89 O 6.9204 -1.28529 1.27867 0
M  V30 90 C 6.9684 1.64602 3.2084 0
M  V30 91 O 6.0724 0.887988 4.02726 0
M  V30 92 H 5.4134 0.369987 0.551367 0
M  V30 93 H 7.9434 1.60399 1.27018 0
M  V30 94 H 7.9534 1.68607 3.71532 0
M  V30 95 H 6.6284 2.69841 3.16479 0
M  V30 96 H 5.2054 0.922648 3.61305 0
M  V30 97 N 7.3905 -1.2043 1.01659 0
M  V30 98 C 8.6185 -1.93777 0.725132 0
M  V30 99 C 9.0335 -1.74772 -0.714166 0
M  V30 100 O 8.3905 -1.06169 -1.4844 0
M  V30 101 C 8.4415 -3.45876 1.05129 0
M  V30 102 O 8.1625 -3.6426 2.43406 0
M  V30 103 C 9.6635 -4.36368 0.780891 0
M  V30 104 H 6.8835 -0.615901 0.266284 0
M  V30 105 H 9.4275 -1.52922 1.35776 0
M  V30 106 H 7.5825 -3.8461 0.464065 0
M  V30 107 H 7.9965 -4.58246 2.55169 0
M  V30 108 H 9.4705 -5.41743 1.05918 0
M  V30 109 H 9.9475 -4.38275 -0.284937 0
M  V30 110 H 10.5535 -4.03296 1.35027 0
M  V30 111 N 8.8686 -0.792821 -1.36206 0
M  V30 112 C 9.7986 -0.207853 -2.32573 0
M  V30 113 C 10.7796 0.659055 -1.56813 0
M  V30 114 O 11.9646 0.592176 -1.84951 0
M  V30 115 C 9.0946 0.655449 -3.41059 0
M  V30 116 C 8.0486 -0.111842 -4.27854 0
M  V30 117 C 7.3746 0.872274 -5.27537 0
M  V30 118 C 8.6746 -1.30299 -5.05786 0
M  V30 119 H 10.3686 -1.01294 -2.81744 0
M  V30 120 H 7.9146 -0.48854 -1.3546 0
M  V30 121 H 9.8676 1.07464 -4.07467 0
M  V30 122 H 8.5916 1.49328 -2.90463 0
M  V30 123 H 7.2506 -0.512053 -3.63006 0
M  V30 124 H 6.8986 1.70523 -4.73214 0
M  V30 125 H 6.5986 0.363291 -5.86476 0
M  V30 126 H 8.1226 1.28996 -5.96818 0
M  V30 127 H 9.5366 -0.959379 -5.65216 0
M  V30 128 H 7.9336 -1.7455 -5.74154 0
M  V30 129 H 9.0036 -2.09663 -4.37229 0
M  V30 130 N 10.3467 1.47872 -0.545128 0
M  V30 131 C 11.3097 2.28337 0.198717 0
M  V30 132 C 12.3097 1.36255 0.853888 0
M  V30 133 O 13.4997 1.59003 0.711606 0
M  V30 134 C 10.6317 3.15585 1.28915 0
M  V30 135 H 11.8247 2.95567 -0.507941 0
M  V30 136 H 9.3777 1.53362 -0.301616 0
M  V30 137 H 10.1127 2.53019 2.02859 0
M  V30 138 H 9.8977 3.83337 0.824309 0
M  V30 139 H 11.3877 3.76243 1.81194 0
M  V30 140 N 11.8248 0.280983 1.55075 0
M  V30 141 C 12.7578 -0.645439 2.18882 0
M  V30 142 C 13.7358 -1.14786 1.15165 0
M  V30 143 O 14.9198 -1.21975 1.43716 0
M  V30 144 C 12.0468 -1.88088 2.81674 0
M  V30 145 C 11.0928 -1.51343 3.98745 0
M  V30 146 S 11.9258 -0.586548 5.32278 0
M  V30 147 C 13.0818 -1.83024 5.98543 0
M  V30 148 H 13.3148 -0.1033 2.9712 0
M  V30 149 H 10.8478 0.0652099 1.54262 0
M  V30 150 H 12.8058 -2.58997 3.18482 0
M  V30 151 H 11.4668 -2.39417 2.03318 0
M  V30 152 H 10.6598 -2.43289 4.41392 0
M  V30 153 H 10.2618 -0.884477 3.63391 0
M  V30 154 H 12.5538 -2.77342 6.18133 0
M  V30 155 H 13.4968 -1.44668 6.93164 0
M  V30 156 H 13.9048 -1.99785 5.27964 0
M  V30 157 N 13.3029 -1.57598 0.00835791 0
M  V30 158 C 14.2329 -2.1198 -0.979113 0
M  V30 159 C 15.2139 -1.03091 -1.35301 0
M  V30 160 O 16.3989 -1.30818 -1.43528 0
M  V30 161 C 13.5289 -2.62995 -2.26828 0
M  V30 162 C 12.4829 -3.76485 -2.03576 0
M  V30 163 C 11.8089 -4.13846 -3.38579 0
M  V30 164 C 13.1089 -5.0342 -1.39161 0
M  V30 165 H 14.8029 -2.94738 -0.526281 0
M  V30 166 H 12.3489 -1.41783 -0.251704 0
M  V30 167 H 14.3019 -2.99669 -2.96271 0
M  V30 168 H 13.0259 -1.7737 -2.7424 0
M  V30 169 H 11.6849 -3.40217 -1.36557 0
M  V30 170 H 11.3329 -3.25232 -3.83709 0
M  V30 171 H 11.0329 -4.90312 -3.23834 0
M  V30 172 H 12.5569 -4.53086 -4.09323 0
M  V30 173 H 13.9709 -5.37812 -1.98573 0
M  V30 174 H 12.3679 -5.84746 -1.34878 0
M  V30 175 H 13.4379 -4.83548 -0.361868 0
M  V30 176 N 14.781 0.264519 -1.55364 0
M  V30 177 C 16.03 0.992812 -1.75574 0
M  V30 178 C 16.343 1.87142 -0.568979 0
M  V30 179 O 17.549 2.63513 -0.653682 0
M  V30 180 C 16.005 1.81519 -3.10771 0
M  V30 181 C 15.613 0.984839 -4.37041 0
M  V30 182 C 17.357 2.53727 -3.40327 0
M  V30 183 C 15.264 1.80209 -5.63275 0
M  V30 184 H 14.194 0.374412 -0.65447 0
M  V30 185 H 16.845 0.248138 -1.81815 0
M  V30 186 H 15.227 2.60115 -2.98591 0
M  V30 187 H 16.401 0.242455 -4.60162 0
M  V30 188 H 14.716 0.37691 -4.14691 0
M  V30 189 H 17.313 3.15292 -4.3185 0
M  V30 190 H 17.656 3.24447 -2.60845 0
M  V30 191 H 18.189 1.82156 -3.53644 0
M  V30 192 H 14.928 1.13896 -6.45529 0
M  V30 193 H 14.448 2.52022 -5.44284 0
M  V30 194 H 16.127 2.37364 -6.01887 0
M  V30 195 N 16.2591 1.48442 0.529413 0
M  V30 196 C 17.2221 1.62524 1.61612 0
M  V30 197 C 18.2221 0.498509 1.52877 0
M  V30 198 O 19.4121 0.76431 1.56537 0
M  V30 199 C 16.5441 1.59597 3.01233 0
M  V30 200 H 17.7371 2.59423 1.50465 0
M  V30 201 H 15.2901 1.37047 0.751514 0
M  V30 202 H 16.0251 0.641781 3.17886 0
M  V30 203 H 15.8101 2.41397 3.08982 0
M  V30 204 H 17.3001 1.72646 3.80241 0
M  V30 205 N 17.7372 -0.778329 1.37039 0
M  V30 206 C 18.6672 -1.90546 1.34962 0
M  V30 207 C 19.6482 -1.68681 0.219274 0
M  V30 208 O 20.8332 -1.89634 0.418624 0
M  V30 209 C 17.9632 -3.27734 1.14925 0
M  V30 210 C 16.9172 -3.64147 2.24902 0
M  V30 211 C 16.2432 -4.99806 1.89996 0
M  V30 212 C 17.5432 -3.71579 3.67051 0
M  V30 213 H 19.2372 -1.92541 2.29277 0
M  V30 214 H 16.7832 -0.924948 1.10366 0
M  V30 215 H 18.7362 -4.06215 1.12104 0
M  V30 216 H 17.4602 -3.26154 0.170631 0
M  V30 217 H 16.1192 -2.8797 2.26868 0
M  V30 218 H 15.7672 -4.94759 0.906796 0
M  V30 219 H 15.4672 -5.25139 2.63634 0
M  V30 220 H 16.9912 -5.80694 1.88749 0
M  V30 221 H 18.4052 -4.40227 3.67251 0
M  V30 222 H 16.8022 -4.08405 4.39688 0
M  V30 223 H 17.8722 -2.72404 4.01154 0
M  V30 224 N 19.2153 -1.21501 -1.00376 0
M  V30 225 C 20.1453 -0.999478 -2.11028 0
M  V30 226 C 21.1263 0.0759671 -1.6993 0
M  V30 227 O 22.3113 -0.0841106 -1.94018 0
M  V30 228 C 19.4413 -0.564709 -3.42678 0
M  V30 229 C 18.3953 -1.58486 -3.97576 0
M  V30 230 C 17.7213 -1.00628 -5.25146 0
M  V30 231 C 19.0213 -2.97204 -4.29496 0
M  V30 232 H 20.7153 -1.92495 -2.29317 0
M  V30 233 H 18.2613 -0.92693 -1.102 0
M  V30 234 H 20.2143 -0.401091 -4.19487 0
M  V30 235 H 18.9383 0.396411 -3.24185 0
M  V30 236 H 17.5973 -1.73606 -3.22888 0
M  V30 237 H 17.2453 -0.0368439 -5.02987 0
M  V30 238 H 16.9453 -1.68771 -5.62841 0
M  V30 239 H 18.4693 -0.854015 -6.04598 0
M  V30 240 H 19.8833 -2.8552 -4.97143 0
M  V30 241 H 18.2803 -3.62372 -4.78338 0
M  V30 242 H 19.3503 -3.47956 -3.3772 0
M  V30 243 N 20.6934 1.19889 -1.02296 0
M  V30 244 C 21.9214 1.9339 -0.735399 0
M  V30 245 C 22.3364 1.75148 0.704887 0
M  V30 246 O 21.6934 1.06954 1.47875 0
M  V30 247 C 21.7444 3.45313 -1.06962 0
M  V30 248 O 21.4654 3.62964 -2.45334 0
M  V30 249 C 22.9664 4.35948 -0.804021 0
M  V30 250 H 20.1864 0.61448 -0.269546 0
M  V30 251 H 22.7304 1.522 -1.36585 0
M  V30 252 H 20.8854 3.84359 -0.484455 0
M  V30 253 H 21.2994 4.56886 -2.57595 0
M  V30 254 H 22.7734 5.41174 -1.0879 0
M  V30 255 H 23.2504 4.3842 0.261691 0
M  V30 256 H 23.8564 4.02574 -1.37164 0
M  V30 257 N 22.1715 0.800033 1.35784 0
M  V30 258 C 23.3965 0.388511 2.03729 0
M  V30 259 C 23.8215 -0.990481 1.5991 0
M  V30 260 O 23.1795 -1.64013 0.772612 0
M  V30 261 C 23.2275 0.4726 3.5749 0
M  V30 262 O 22.3315 -0.51646 4.09153 0
M  V30 263 H 21.6725 0.163271 0.643614 0
M  V30 264 H 24.2025 1.0841 1.73518 0
M  V30 265 H 24.2125 0.34003 4.06581 0
M  V30 266 H 22.8875 1.47848 3.88734 0
M  V30 267 H 21.4645 -0.344673 3.71304 0
M  V30 268 N 23.6496 -1.47581 0.552962 0
M  V30 269 C 24.6126 -2.28439 -0.186605 0
M  V30 270 C 25.6126 -1.36706 -0.84665 0
M  V30 271 O 26.8026 -1.59378 -0.703164 0
M  V30 272 C 23.9346 -3.16264 -1.2724 0
M  V30 273 H 25.1276 -2.95294 0.523609 0
M  V30 274 H 22.6806 -1.532 0.309745 0
M  V30 275 H 23.4156 -2.54091 -2.01514 0
M  V30 276 H 23.2006 -3.83769 -0.803968 0
M  V30 277 H 24.6906 -3.77198 -1.79196 0
M  V30 278 N 25.1277 -0.289203 -1.54924 0
M  V30 279 C 26.0907 0.579144 -2.21762 0
M  V30 280 C 27.0907 1.07047 -1.1999 0
M  V30 281 O 28.2807 0.968384 -1.44803 0
M  V30 282 C 25.4127 1.80055 -2.8947 0
M  V30 283 H 26.6057 -0.00464908 -2.999 0
M  V30 284 H 24.1587 -0.0399306 -1.56249 0
M  V30 285 H 24.8937 2.42449 -2.15381 0
M  V30 286 H 24.6787 1.45602 -3.64064 0
M  V30 287 H 26.1687 2.41773 -3.40493 0
M  V30 288 N 26.6058 1.57591 -0.0167156 0
M  V30 289 C 27.8308 1.9598 0.67872 0
M  V30 290 C 28.2558 0.892546 1.65575 0
M  V30 291 O 27.6138 -0.147772 1.80697 0
M  V30 292 C 27.6618 3.33468 1.37227 0
M  V30 293 O 26.7658 3.28954 2.48722 0
M  V30 294 H 26.1068 0.639339 0.17928 0
M  V30 295 H 28.6368 2.04463 -0.0748802 0
M  V30 296 H 28.6468 3.69417 1.7319 0
M  V30 297 H 27.3218 4.10694 0.656007 0
M  V30 298 H 25.8988 3.04705 2.14963 0
M  V30 299 N 28.0839 -0.256276 1.55502 0
M  V30 300 C 29.0469 -1.30047 1.88734 0
M  V30 301 C 30.0469 -1.4154 0.763086 0
M  V30 302 O 31.2369 -1.40403 1.03115 0
M  V30 303 C 28.3689 -2.67953 2.10747 0
M  V30 304 H 29.5619 -1.01802 2.82093 0
M  V30 305 H 27.1149 -0.495134 1.4825 0
M  V30 306 H 27.8499 -3.01351 1.19825 0
M  V30 307 H 27.6349 -2.60993 2.92617 0
M  V30 308 H 29.1249 -3.43368 2.37673 0
M  V30 309 N 29.562 -1.4872 -0.521534 0
M  V30 310 C 30.512 -1.60269 -1.62166 0
M  V30 311 C 31.496 -0.45935 -1.54204 0
M  V30 312 O 32.688 -0.711241 -1.62081 0
M  V30 313 C 29.817 -1.65344 -3.00859 0
M  V30 314 C 28.903 -2.85187 -3.13894 0
M  V30 315 N 29.294 -4.09509 -2.96877 0
M  V30 316 C 27.592 -2.82695 -3.44963 0
M  V30 317 C 28.293 -4.89959 -3.13552 0
M  V30 318 N 27.269 -4.22934 -3.41508 0
M  V30 319 H 31.071 -2.5413 -1.47632 0
M  V30 320 H 28.585 -1.45209 -0.727194 0
M  V30 321 H 30.582 -1.71713 -3.79895 0
M  V30 322 H 29.242 -0.726058 -3.16478 0
M  V30 323 H 30.253 -4.39814 -2.73467 0
M  V30 324 H 26.93 -1.99249 -3.66887 0
M  V30 325 H 28.32 -5.98654 -3.05061 0
M  V30 326 N 31.0401 0.771051 -1.3745 0
M  V30 327 C 32.0031 1.86598 -1.33093 0
M  V30 328 C 33.0031 1.59076 -0.234845 0
M  V30 329 O 34.1931 1.67145 -0.490732 0
M  V30 330 C 31.3251 3.23747 -1.06773 0
M  V30 331 H 32.5181 1.91873 -2.30488 0
M  V30 332 H 30.0711 0.970876 -1.2249 0
M  V30 333 H 30.8061 3.24148 -0.099129 0
M  V30 334 H 30.5911 3.45115 -1.86112 0
M  V30 335 H 32.0811 4.03824 -1.06377 0
M  V30 336 N 32.5182 1.22032 0.997298 0
M  V30 337 C 33.4502 0.944263 2.08845 0
M  V30 338 C 34.4632 -0.0754663 1.62625 0
M  V30 339 O 35.6522 0.157994 1.77799 0
M  V30 340 C 32.7522 0.397723 3.36558 0
M  V30 341 C 31.9252 1.47362 4.11829 0
M  V30 342 C 30.9842 0.934951 5.17827 0
M  V30 343 O 30.0102 1.62016 5.45655 0
M  V30 344 N 31.2122 -0.245895 5.79979 0
M  V30 345 H 33.9772 1.88363 2.33109 0
M  V30 346 H 31.5382 1.12661 1.16272 0
M  V30 347 H 33.5302 0.0227771 4.04694 0
M  V30 348 H 32.1002 -0.446646 3.09393 0
M  V30 349 H 31.3202 2.02208 3.38386 0
M  V30 350 H 32.6082 2.19764 4.58891 0
M  V30 351 H 32.0062 -0.819475 5.59733 0
M  V30 352 H 30.5632 -0.562272 6.4937 0
M  V30 353 N 33.9963 -1.19345 1.0293 0
M  V30 354 C 35.2243 -1.92997 0.745644 0
M  V30 355 C 35.6393 -1.75519 -0.695589 0
M  V30 356 O 34.9963 -1.07737 -1.47306 0
M  V30 357 C 35.0473 -3.44741 1.08792 0
M  V30 358 O 34.7683 -3.61658 2.47256 0
M  V30 359 C 36.2693 -4.35515 0.827129 0
M  V30 360 H 33.4893 -0.613042 0.272801 0
M  V30 361 H 36.0333 -1.51473 1.3739 0
M  V30 362 H 34.1883 -3.84097 0.504832 0
M  V30 363 H 34.6023 -4.55514 2.60015 0
M  V30 364 H 36.0763 -5.40589 1.11658 0
M  V30 365 H 36.5533 -4.38552 -0.238436 0
M  V30 366 H 37.1593 -4.01841 1.39297 0
M  V30 367 N 35.4744 -0.807222 -1.35358 0
M  V30 368 C 36.7514 -0.311126 -1.9311 0
M  V30 369 C 37.1314 1.19937 -1.73719 0
M  V30 370 O 36.4794 1.99918 -1.10657 0
M  V30 371 C 36.6894 -0.723226 -3.41424 0
M  V30 372 C 38.0374 -0.713078 -4.18569 0
M  V30 373 O 39.0614 -0.664811 -3.49941 0
M  V30 374 O 37.9204 -0.772022 -5.41019 0
M  V30 375 H 35.0144 -0.081526 -0.822972 0
M  V30 376 H 37.5604 -0.890962 -1.4443 0
M  V30 377 H 36.3324 -1.76426 -3.4927 0
M  V30 378 H 35.9554 -0.118232 -3.97424 0
M  V30 379 N 36.9525 1.47285 -0.560781 0
M  V30 380 C 38.2015 2.01668 -0.035895 0
M  V30 381 C 38.5145 1.44021 1.32353 0
M  V30 382 O 39.7205 1.90088 1.93853 0
M  V30 383 C 38.1765 3.59897 -0.0136659 0
M  V30 384 C 37.7845 4.26536 -1.37006 0
M  V30 385 C 39.5285 4.22017 0.458425 0
M  V30 386 C 37.4355 5.76782 -1.30675 0
M  V30 387 H 36.3655 0.753938 -0.00964879 0
M  V30 388 H 39.0165 1.69243 -0.709166 0
M  V30 389 H 37.3985 3.89301 0.725325 0
M  V30 390 H 38.5725 4.0877 -2.12705 0
M  V30 391 H 36.8875 3.76419 -1.78038 0
M  V30 392 H 39.4845 5.32124 0.524247 0
M  V30 393 H 39.8275 3.89437 1.4712 0
M  V30 394 H 40.3605 3.97159 -0.225818 0
M  V30 395 H 37.0995 6.13988 -2.29564 0
M  V30 396 H 36.6195 5.96875 -0.591622 0
M  V30 397 H 38.2985 6.39063 -1.01033 0
M  V30 398 N 38.4306 0.297415 1.54768 0
M  V30 399 C 39.6556 -0.318435 2.04941 0
M  V30 400 C 40.0806 -1.4701 1.17345 0
M  V30 401 O 39.4386 -1.80436 0.176758 0
M  V30 402 C 39.4866 -0.755749 3.52592 0
M  V30 403 O 38.5906 -1.86088 3.68028 0
M  V30 404 H 37.9316 -0.062421 0.661059 0
M  V30 405 H 40.4616 0.438215 1.99852 0
M  V30 406 H 40.4716 -1.04552 3.94376 0
M  V30 407 H 39.1466 0.0867233 4.1581 0
M  V30 408 H 37.7236 -1.57193 3.38149 0
M  V30 409 N 39.9087 -1.5758 0.0250728 0
M  V30 410 C 41.1367 -1.9593 -0.664747 0
M  V30 411 C 41.5517 -0.901352 -1.65895 0
M  V30 412 O 40.9087 0.117255 -1.82123 0
M  V30 413 C 40.9597 -3.34342 -1.37468 0
M  V30 414 O 40.6807 -4.36079 -0.420324 0
M  V30 415 C 42.1817 -3.873 -2.1567 0
M  V30 416 H 39.4017 -0.645405 -0.183557 0
M  V30 417 H 41.9457 -2.04329 0.0836372 0
M  V30 418 H 40.1007 -3.27175 -2.0745 0
M  V30 419 H 40.5147 -5.16297 -0.923991 0
M  V30 420 H 41.9887 -4.86504 -2.60803 0
M  V30 421 H 42.4657 -3.21331 -2.99405 0
M  V30 422 H 43.0717 -3.97723 -1.50654 0
M  V30 423 N 41.3868 0.248026 -1.55636 0
M  V30 424 C 42.6358 0.974134 -1.76617 0
M  V30 425 C 42.9488 1.86528 -0.588796 0
M  V30 426 O 44.1548 2.62805 -0.681594 0
M  V30 427 C 42.6108 1.78213 -3.12679 0
M  V30 428 C 42.2188 0.93843 -4.38061 0
M  V30 429 C 43.9628 2.50104 -3.42999 0
M  V30 430 C 41.8698 1.74225 -5.65155 0
M  V30 431 H 40.7998 0.36745 -0.658405 0
M  V30 432 H 43.4508 0.22884 -1.82067 0
M  V30 433 H 41.8328 2.56933 -3.01333 0
M  V30 434 H 43.0068 0.193635 -4.60393 0
M  V30 435 H 41.3218 0.332905 -4.15067 0
M  V30 436 H 43.9188 3.10694 -4.3517 0
M  V30 437 H 44.2618 3.21662 -2.64271 0
M  V30 438 H 44.7948 1.78395 -3.55556 0
M  V30 439 H 41.5338 1.07043 -6.46701 0
M  V30 440 H 41.0538 2.46235 -5.46926 0
M  V30 441 H 42.7328 2.30967 -6.0437 0
M  V30 442 N 42.8649 1.48995 0.513639 0
M  V30 443 C 43.7749 1.67443 1.64317 0
M  V30 444 C 44.7909 0.556947 1.64846 0
M  V30 445 O 45.9669 0.830082 1.83498 0
M  V30 446 C 43.0319 1.72515 3.00732 0
M  V30 447 C 42.0929 2.96009 3.1093 0
M  V30 448 C 41.3259 3.00829 4.40837 0
M  V30 449 O 41.5489 2.13594 5.28898 0
M  V30 450 O 40.4829 3.93168 4.55744 0
M  V30 451 H 44.3089 2.63106 1.51687 0
M  V30 452 H 41.8939 1.32588 0.688543 0
M  V30 453 H 43.7759 1.78277 3.81831 0
M  V30 454 H 42.4509 0.800278 3.13651 0
M  V30 455 H 41.3579 2.9577 2.29065 0
M  V30 456 H 42.6909 3.87934 3.02933 0
M  V30 457 N 44.343 -0.763751 1.37857 0
M  V30 458 C 45.306 -1.85889 1.34081 0
M  V30 459 C 46.306 -1.58949 0.243277 0
M  V30 460 O 47.496 -1.66882 0.499589 0
M  V30 461 C 44.628 -3.23176 1.08489 0
M  V30 462 H 45.821 -1.90648 2.31502 0
M  V30 463 H 43.374 -0.964367 1.23003 0
M  V30 464 H 44.109 -3.24091 0.116318 0
M  V30 465 H 43.894 -3.44124 1.8794 0
M  V30 466 H 45.384 -4.03254 1.08517 0
M  V30 467 N 45.8211 -1.22559 -0.990812 0
M  V30 468 C 47.2371 -0.985996 -1.255 0
M  V30 469 C 47.4371 0.319173 -1.98956 0
M  V30 470 O 46.4931 1.04127 -2.3003 0
M  V30 471 C 47.8061 -2.18607 -2.06474 0
M  V30 472 C 49.3541 -2.22985 -2.19651 0
M  V30 473 C 49.8291 -3.4255 -3.04012 0
M  V30 474 N 51.3201 -3.42725 -3.11599 0
M  V30 475 C 52.0551 -4.31892 -3.7717 0
M  V30 476 N 51.5511 -5.31279 -4.44651 0
M  V30 477 N 53.3441 -4.19662 -3.73952 0
M  V30 478 H 45.4951 -2.06469 -0.49841 0
M  V30 479 H 47.7581 -0.904853 -0.282747 0
M  V30 480 H 47.4641 -3.13267 -1.59865 0
M  V30 481 H 47.3381 -2.18838 -3.07229 0
M  V30 482 H 49.7251 -1.28871 -2.65474 0
M  V30 483 H 49.8061 -2.26791 -1.18319 0
M  V30 484 H 49.4501 -4.36965 -2.58889 0
M  V30 485 H 49.3801 -3.35984 -4.0549 0
M  V30 486 H 51.8711 -2.70807 -2.63575 0
M  V30 487 H 52.1841 -5.95593 -4.92431 0
M  V30 488 H 50.5291 -5.3519 -4.43392 0
M  V30 489 H 53.7201 -3.41268 -3.20396 0
M  V30 490 H 53.8931 -4.89358 -4.24774 0
M  V30 491 N 47.2992 1.18797 -1.03562 0
M  V30 492 C 48.2292 2.24472 -0.643019 0
M  V30 493 C 49.2102 1.66433 0.351283 0
M  V30 494 O 50.3952 1.92803 0.232505 0
M  V30 495 C 47.5252 3.473 4.24935e-05 0
M  V30 496 C 46.4792 4.18055 -0.917257 0
M  V30 497 C 45.8052 5.34519 -0.138941 0
M  V30 498 C 47.1052 4.72109 -2.23407 0
M  V30 499 H 48.7992 2.57566 -1.52643 0
M  V30 500 H 46.3452 1.23806 -0.735394 0
M  V30 501 H 48.2982 4.20426 0.286383 0
M  V30 502 H 47.0222 3.13424 0.918299 0
M  V30 503 H 45.6812 3.46821 -1.1879 0
M  V30 504 H 45.3292 4.96891 0.781562 0
M  V30 505 H 45.0292 5.82794 -0.750005 0
M  V30 506 H 46.5532 6.10438 0.1405 0
M  V30 507 H 47.9672 5.36955 -2.00879 0
M  V30 508 H 46.3642 5.30897 -2.79765 0
M  V30 509 H 47.4342 3.89807 -2.88407 0
M  V30 510 N 48.7773 0.814389 1.34928 0
M  V30 511 C 49.7253 0.218424 2.31572 0
M  V30 512 C 50.7193 -0.636128 1.57002 0
M  V30 513 O 51.9253 -0.52842 1.72069 0
M  V30 514 H 48.3003 0.0518799 0.750208 0
M  V30 515 H 50.2713 1.04852 2.79372 0
M  V30 516 C 49.0203 -0.61207 3.4227 0
M  V30 517 H 48.3433 0.0361578 3.99784 0
M  V30 518 H 49.7833 -0.995317 4.12152 0
M  V30 519 C 48.2423 -1.78087 2.85984 0
M  V30 520 O 48.7723 -2.8787 2.80168 0
M  V30 521 N 46.9783 -1.59488 2.42924 0
M  V30 522 H 46.5253 -0.701874 2.47854 0
M  V30 523 H 46.4833 -2.37846 2.05613 0
M  V30 524 N 50.2554 -1.46986 0.568584 0
M  V30 525 C 51.2184 -2.28624 -0.162366 0
M  V30 526 C 52.2184 -1.37596 -0.832103 0
M  V30 527 O 53.4084 -1.60115 -0.68622 0
M  V30 528 C 50.5404 -3.17596 -1.23878 0
M  V30 529 H 51.7334 -2.94722 0.554899 0
M  V30 530 H 49.2864 -1.52863 0.325976 0
M  V30 531 H 50.0214 -2.56214 -1.98808 0
M  V30 532 H 49.8064 -3.846 -0.763219 0
M  V30 533 H 51.2964 -3.79078 -1.75185 0
M  V30 534 N 51.7335 -0.305618 -1.54608 0
M  V30 535 C 52.6635 0.561482 -2.26649 0
M  V30 536 C 53.6445 1.13415 -1.26772 0
M  V30 537 O 54.8295 1.16262 -1.55553 0
M  V30 538 C 51.9595 1.73122 -3.01075 0
M  V30 539 C 50.9135 1.2887 -4.08138 0
M  V30 540 C 50.2395 2.54396 -4.70305 0
M  V30 541 C 51.5395 0.416578 -5.20636 0
M  V30 542 H 53.2335 -0.0393902 -2.99374 0
M  V30 543 H 50.7795 -0.020385 -1.43986 0
M  V30 544 H 52.7325 2.34396 -3.50195 0
M  V30 545 H 51.4565 2.3584 -2.25936 0
M  V30 546 H 50.1155 0.698991 -3.59875 0
M  V30 547 H 49.7635 3.15439 -3.918 0
M  V30 548 H 49.4635 2.25486 -5.42614 0
M  V30 549 H 50.9875 3.16464 -5.2219 0
M  V30 550 H 52.4015 0.935116 -5.65622 0
M  V30 551 H 50.7985 0.221046 -5.99693 0
M  V30 552 H 51.8685 -0.557162 -4.81688 0
M  V30 553 N 53.2116 1.57565 -0.0334293 0
M  V30 554 C 54.1216 2.13943 0.962572 0
M  V30 555 C 55.1376 1.09276 1.35406 0
M  V30 556 O 56.3136 1.41355 1.4346 0
M  V30 557 C 53.3786 2.65887 2.22497 0
M  V30 558 C 52.4396 3.85286 1.8935 0
M  V30 559 C 51.6726 4.34743 3.09571 0
M  V30 560 O 51.8956 3.83352 4.22371 0
M  V30 561 O 50.8296 5.26538 2.91618 0
M  V30 562 H 54.6556 2.99333 0.513169 0
M  V30 563 H 52.2406 1.4822 0.18743 0
M  V30 564 H 54.1226 2.99346 2.96598 0
M  V30 565 H 52.7976 1.83578 2.6661 0
M  V30 566 H 51.7046 3.56746 1.1262 0
M  V30 567 H 53.0376 4.68771 1.5005 0
M  V30 568 N 54.6897 -0.239769 1.55765 0
M  V30 569 C 55.6367 -1.29696 1.90913 0
M  V30 570 C 56.6067 -1.47478 0.764164 0
M  V30 571 O 57.7917 -1.61345 1.01845 0
M  V30 572 C 54.9317 -2.64598 2.21544 0
M  V30 573 C 54.0447 -2.54765 3.48882 0
M  V30 574 C 53.1797 -3.82069 3.69049 0
M  V30 575 C 52.2187 -3.66883 4.89963 0
M  V30 576 N 51.3557 -4.86094 5.06614 0
M  V30 577 H 56.1957 -0.990224 2.81067 0
M  V30 578 H 53.7327 -0.477684 1.39128 0
M  V30 579 H 55.6907 -3.43132 2.3731 0
M  V30 580 H 54.3207 -2.93405 1.34585 0
M  V30 581 H 53.3727 -1.67763 3.41409 0
M  V30 582 H 54.6847 -2.39457 4.37563 0
M  V30 583 H 53.8387 -4.69046 3.84812 0
M  V30 584 H 52.5777 -4.00282 2.78614 0
M  V30 585 H 51.5827 -2.78289 4.74168 0
M  V30 586 H 52.8077 -3.50157 5.81865 0
M  V30 587 H 50.7537 -5.04655 4.19117 0
M  V30 588 H 50.6707 -4.73443 5.89396 0
M  V30 589 H 51.9387 -5.74549 5.26795 0
M  V30 590 N 56.1678 -1.49265 -0.50573 0
M  V30 591 C 57.5838 -1.35923 -0.836486 0
M  V30 592 C 57.7838 -0.388704 -1.97715 0
M  V30 593 O 56.8398 0.181336 -2.51848 0
M  V30 594 C 58.1528 -2.76531 -1.18115 0
M  V30 595 C 59.7008 -2.85197 -1.28964 0
M  V30 596 C 60.1758 -4.26561 -1.66761 0
M  V30 597 N 61.6668 -4.2935 -1.73819 0
M  V30 598 C 62.4018 -5.35693 -2.045 0
M  V30 599 N 61.8978 -6.52287 -2.33438 0
M  V30 600 N 63.6908 -5.23105 -2.05711 0
M  V30 601 H 55.8418 -2.10965 0.246519 0
M  V30 602 H 58.1048 -0.9468 0.0476887 0
M  V30 603 H 57.8108 -3.49226 -0.416398 0
M  V30 604 H 57.6848 -3.11599 -2.1257 0
M  V30 605 H 60.0718 -2.12742 -2.04511 0
M  V30 606 H 60.1528 -2.53718 -0.325704 0
M  V30 607 H 59.7968 -4.99541 -0.917656 0
M  V30 608 H 59.7268 -4.55502 -2.64246 0
M  V30 609 H 62.2178 -3.4526 -1.53635 0
M  V30 610 H 62.5308 -7.29158 -2.56024 0
M  V30 611 H 60.8758 -6.55521 -2.30905 0
M  V30 612 H 64.0668 -4.31026 -1.82577 0
M  V30 613 H 64.2398 -6.06078 -2.29289 0
M  V30 614 N 57.6459 0.756429 -1.3826 0
M  V30 615 C 58.5759 1.88374 -1.37976 0
M  V30 616 C 59.5569 1.68311 -0.246082 0
M  V30 617 O 60.7419 1.88944 -0.44874 0
M  V30 618 C 57.8719 3.25864 -1.20125 0
M  V30 619 C 56.8259 3.60523 -2.30666 0
M  V30 620 C 56.1519 4.9672 -1.97923 0
M  V30 621 C 57.4519 3.65692 -3.72916 0
M  V30 622 H 59.1459 1.88869 -2.32312 0
M  V30 623 H 56.6919 0.907272 -1.11824 0
M  V30 624 H 58.6449 4.0438 -1.18552 0
M  V30 625 H 57.3689 3.25841 -0.222498 0
M  V30 626 H 56.0279 2.84324 -2.3142 0
M  V30 627 H 55.6759 4.93253 -0.985393 0
M  V30 628 H 55.3759 5.20878 -2.71955 0
M  V30 629 H 56.8999 5.77618 -1.97964 0
M  V30 630 H 58.3139 4.34328 -3.74208 0
M  V30 631 H 56.7109 4.01358 -4.4613 0
M  V30 632 H 57.7809 2.65987 -4.05436 0
M  V30 633 N 59.124 1.23083 0.984299 0
M  V30 634 C 60.056 0.96636 2.07832 0
M  V30 635 C 61.069 -0.0582135 1.62696 0
M  V30 636 O 62.258 0.176843 1.77622 0
M  V30 637 C 59.358 0.433397 3.36117 0
M  V30 638 C 58.531 1.51722 4.10243 0
M  V30 639 C 57.59 0.989821 5.16807 0
M  V30 640 O 56.616 1.67794 5.43906 0
M  V30 641 N 57.818 -0.184367 5.80207 0
M  V30 642 H 60.583 1.90824 2.31098 0
M  V30 643 H 58.144 1.13888 1.1507 0
M  V30 644 H 60.136 0.065699 4.04647 0
M  V30 645 H 58.706 -0.413806 3.09849 0
M  V30 646 H 57.926 2.05786 3.36223 0
M  V30 647 H 59.214 2.24619 4.56534 0
M  V30 648 H 58.612 -0.760062 5.60571 0
M  V30 649 H 57.169 -0.493366 6.4993 0
M  V30 650 N 60.6021 -1.18246 1.0419 0
M  V30 651 C 61.5121 -2.25574 0.644476 0
M  V30 652 C 62.5281 -1.70845 -0.329826 0
M  V30 653 O 63.7041 -2.00554 -0.184443 0
M  V30 654 C 60.7691 -3.46697 0.014877 0
M  V30 655 C 59.8301 -4.16554 1.03834 0
M  V30 656 C 59.0631 -5.31894 0.438692 0
M  V30 657 O 59.2861 -5.65385 -0.754752 0
M  V30 658 O 58.2201 -5.90459 1.168 0
M  V30 659 H 62.0461 -2.61836 1.53869 0
M  V30 660 H 59.6311 -1.25352 0.812854 0
M  V30 661 H 61.5131 -4.20062 -0.335538 0
M  V30 662 H 60.1881 -3.12255 -0.853138 0
M  V30 663 H 59.0951 -3.45251 1.44057 0
M  V30 664 H 60.4281 -4.54998 1.87716 0
M  V30 665 N 62.0802 -0.821533 -1.34494 0
M  V30 666 C 63.0432 -0.247847 -2.27856 0
M  V30 667 C 64.0432 0.573453 -1.50227 0
M  V30 668 O 65.2332 0.389759 -1.69784 0
M  V30 669 C 62.3652 0.652698 -3.34593 0
M  V30 670 H 63.5582 -1.07146 -2.80107 0
M  V30 671 H 61.1112 -0.593291 -1.44602 0
M  V30 672 H 61.8462 1.49943 -2.87555 0
M  V30 673 H 61.6312 0.065292 -3.92046 0
M  V30 674 H 63.1212 1.04793 -4.04238 0
M  V30 675 N 63.5583 1.46682 -0.576371 0
M  V30 676 C 64.4683 2.34032 0.163141 0
M  V30 677 C 65.4843 1.49367 0.892501 0
M  V30 678 O 66.6603 1.82252 0.857106 0
M  V30 679 C 63.7253 3.26435 1.16795 0
M  V30 680 C 62.7863 4.26998 0.443944 0
M  V30 681 C 62.0193 5.14986 1.40088 0
M  V30 682 O 62.2423 5.05785 2.637 0
M  V30 683 O 61.1763 5.94906 0.914917 0
M  V30 684 H 65.0023 2.98607 -0.55388 0
M  V30 685 H 62.5873 1.45554 -0.336821 0
M  V30 686 H 64.4693 3.83459 1.74748 0
M  V30 687 H 63.1443 2.64465 1.86655 0
M  V30 688 H 62.0513 3.7368 -0.177271 0
M  V30 689 H 63.3843 4.91736 -0.213566 0
M  V30 690 N 65.0364 0.313813 1.54444 0
M  V30 691 C 65.9844 -0.572171 2.25453 0
M  V30 692 C 66.9784 -1.12657 1.2651 0
M  V30 693 O 68.1844 -1.07573 1.44319 0
M  V30 694 H 64.5594 -0.203146 0.724041 0
M  V30 695 H 66.5304 0.0491145 2.9836 0
M  V30 696 C 65.2794 -1.72626 3.0182 0
M  V30 697 H 64.6024 -1.30891 3.77767 0
M  V30 698 H 66.0424 -2.32199 3.54767 0
M  V30 699 C 64.5014 -2.63806 2.09542 0
M  V30 700 O 65.0314 -3.65256 1.67185 0
M  V30 701 N 63.2374 -2.31824 1.75232 0
M  V30 702 H 62.7844 -1.49368 2.09873 0
M  V30 703 H 62.7424 -2.93095 1.13767 0
M  V30 704 N 66.5145 -1.57545 0.0417849 0
M  V30 705 C 67.9305 -1.56467 -0.314704 0
M  V30 706 C 68.1305 -1.04859 -1.72066 0
M  V30 707 O 67.1865 -0.700983 -2.42575 0
M  V30 708 C 68.4995 -3.00317 -0.15174 0
M  V30 709 C 70.0475 -3.12201 -0.223553 0
M  V30 710 C 70.5225 -4.57913 -0.0892295 0
M  V30 711 N 72.0135 -4.6297 -0.145808 0
M  V30 712 C 72.7485 -5.73362 -0.0658459 0
M  V30 713 N 72.2445 -6.92769 0.0659282 0
M  V30 714 N 74.0375 -5.6197 -0.12075 0
M  V30 715 H 66.1885 -1.89416 0.961014 0
M  V30 716 H 68.4515 -0.871862 0.372237 0
M  V30 717 H 68.1575 -3.42073 0.817254 0
M  V30 718 H 68.0315 -3.65892 -0.916692 0
M  V30 719 H 70.4185 -2.70349 -1.18301 0
M  V30 720 H 70.4995 -2.49323 0.571994 0
M  V30 721 H 70.1435 -5.00448 0.866867 0
M  V30 722 H 70.0735 -5.18786 -0.903802 0
M  V30 723 H 72.5645 -3.7709 -0.247286 0
M  V30 724 H 72.8775 -7.72707 0.119905 0
M  V30 725 H 71.2225 -6.94927 0.100885 0
M  V30 726 H 74.4135 -4.67572 -0.222187 0
M  V30 727 H 74.5865 -6.47977 -0.0549735 0
M  V30 728 N 67.9926 0.231505 -1.5589 0
M  V30 729 C 68.9556 1.27028 -1.90779 0
M  V30 730 C 69.9556 1.40308 -0.785507 0
M  V30 731 O 71.1456 1.38744 -1.05336 0
M  V30 732 C 68.2776 2.64566 -2.14983 0
M  V30 733 H 69.4706 0.973017 -2.83677 0
M  V30 734 H 67.0236 0.471486 -1.49019 0
M  V30 735 H 67.7586 2.99406 -1.24604 0
M  V30 736 H 67.5436 2.56305 -2.96732 0
M  V30 737 H 69.0336 3.39543 -2.43105 0
M  V30 738 N 69.4707 1.49531 0.497807 0
M  V30 739 C 70.4027 1.62559 1.61578 0
M  V30 740 C 71.4157 0.508134 1.54667 0
M  V30 741 O 72.6047 0.780309 1.60541 0
M  V30 742 C 69.7047 1.56925 3.00379 0
M  V30 743 C 68.8777 2.84257 3.3244 0
M  V30 744 C 67.9367 2.71632 4.50669 0
M  V30 745 O 66.9627 3.4557 4.52294 0
M  V30 746 N 68.1647 1.83391 5.5077 0
M  V30 747 H 70.9297 2.58981 1.50828 0
M  V30 748 H 68.4907 1.4666 0.685743 0
M  V30 749 H 70.4827 1.46129 3.77397 0
M  V30 750 H 69.0527 0.683483 3.05037 0
M  V30 751 H 68.2727 3.09381 2.44289 0
M  V30 752 H 69.5607 3.68666 3.5066 0
M  V30 753 H 68.9587 1.22583 5.52259 0
M  V30 754 H 67.5157 1.78515 6.26878 0
M  V30 755 N 70.9488 -0.749086 1.3866 0
M  V30 756 C 72.1768 -1.53834 1.38358 0
M  V30 757 C 72.5918 -1.88783 -0.0255219 0
M  V30 758 O 71.9488 -1.53101 -0.993292 0
M  V30 759 C 71.9998 -2.83468 2.2434 0
M  V30 760 O 71.7208 -2.50008 3.5976 0
M  V30 761 C 73.2218 -3.7758 2.32267 0
M  V30 762 H 70.4418 -0.47585 0.473083 0
M  V30 763 H 72.9858 -0.926726 1.82297 0
M  V30 764 H 71.1408 -3.40995 1.83851 0
M  V30 765 H 71.5548 -3.33182 4.05081 0
M  V30 766 H 73.0288 -4.65478 2.96706 0
M  V30 767 H 73.5058 -4.18334 1.33765 0
M  V30 768 H 74.1118 -3.25976 2.73166 0
M  V30 769 N 72.4269 -1.23603 -0.977757 0
M  V30 770 C 73.3899 -1.02069 -2.05218 0
M  V30 771 C 74.3899 0.0184305 -1.60789 0
M  V30 772 O 75.5799 -0.221569 -1.72785 0
M  V30 773 C 72.7119 -0.544926 -3.36517 0
M  V30 774 H 73.9049 -1.9742 -2.25755 0
M  V30 775 H 71.4579 -1.05684 -1.15155 0
M  V30 776 H 72.1929 0.412241 -3.21669 0
M  V30 777 H 71.9779 -1.2948 -3.70105 0
M  V30 778 H 73.4679 -0.414985 -4.15533 0
M  V30 779 N 73.905 1.17692 -1.04816 0
M  V30 780 C 74.815 2.25229 -0.65643 0
M  V30 781 C 75.831 1.71018 0.320761 0
M  V30 782 O 77.007 2.00649 0.173805 0
M  V30 783 C 74.072 3.46684 -0.0332629 0
M  V30 784 C 73.133 4.15997 -1.06042 0
M  V30 785 C 72.366 5.31654 -0.466893 0
M  V30 786 O 72.589 5.65777 0.724758 0
M  V30 787 O 71.523 5.89831 -1.1993 0
M  V30 788 H 75.349 2.61016 -1.55255 0
M  V30 789 H 72.934 1.24919 -0.81949 0
M  V30 790 H 74.816 4.20234 0.313256 0
M  V30 791 H 73.491 3.12703 0.836566 0
M  V30 792 H 72.398 3.44482 -1.45886 0
M  V30 793 H 73.731 4.53996 -1.90127 0
M  V30 794 N 75.3831 0.828654 1.34056 0
M  V30 795 C 76.3311 0.242973 2.31327 0
M  V30 796 C 77.3251 -0.61944 1.57668 0
M  V30 797 O 78.5311 -0.51014 1.7262 0
M  V30 798 H 74.9061 0.059834 0.749616 0
M  V30 799 H 76.8771 1.07809 2.78244 0
M  V30 800 C 75.6261 -0.575733 3.429 0
M  V30 801 H 74.9491 0.0785582 3.99723 0
M  V30 802 H 76.3891 -0.951547 4.13185 0
M  V30 803 C 74.8481 -1.75044 2.87856 0
M  V30 804 O 75.3781 -2.84882 2.83205 0
M  V30 805 N 73.5841 -1.56903 2.44602 0
M  V30 806 H 73.1311 -0.675547 2.48584 0
M  V30 807 H 73.0891 -2.35652 2.08124 0
M  V30 808 N 76.8612 -1.46375 0.584142 0
M  V30 809 C 78.2772 -1.57694 0.245929 0
M  V30 810 C 78.4772 -1.57903 -1.25175 0
M  V30 811 O 77.5332 -1.49676 -2.03355 0
M  V30 812 C 78.8462 -2.87028 0.896402 0
M  V30 813 C 80.3942 -3.00662 0.870127 0
M  V30 814 C 80.8692 -4.32734 1.50017 0
M  V30 815 N 82.3602 -4.39436 1.46458 0
M  V30 816 C 83.0952 -5.40248 1.92144 0
M  V30 817 N 82.5912 -6.47726 2.4581 0
M  V30 818 N 84.3842 -5.31459 1.83052 0
M  V30 819 H 76.5352 -1.44483 1.55687 0
M  V30 820 H 78.7982 -0.689291 0.650831 0
M  V30 821 H 78.5042 -2.9269 1.95002 0
M  V30 822 H 78.3782 -3.75014 0.405486 0
M  V30 823 H 80.7652 -2.94581 -0.174871 0
M  V30 824 H 80.8462 -2.14148 1.39908 0
M  V30 825 H 80.4902 -4.39573 2.54437 0
M  V30 826 H 80.4202 -5.18025 0.946432 0
M  V30 827 H 82.9112 -3.62367 1.07231 0
M  V30 828 H 83.2242 -7.20863 2.78525 0
M  V30 829 H 81.5692 -6.48542 2.49836 0
M  V30 830 H 84.7602 -4.46396 1.40883 0
M  V30 831 H 84.9332 -6.09881 2.18973 0
M  V30 832 N 78.3393 -0.321999 -1.54275 0
M  V30 833 C 79.3023 0.531975 -2.22941 0
M  V30 834 C 80.3023 1.04478 -1.22234 0
M  V30 835 O 81.4923 0.937452 -1.46825 0
M  V30 836 C 78.6243 1.73874 -2.93224 0
M  V30 837 H 79.8173 -0.0682612 -2.99822 0
M  V30 838 H 77.3703 -0.0730644 -1.56129 0
M  V30 839 H 78.1053 2.37825 -2.20476 0
M  V30 840 H 77.8903 1.37847 -3.6707 0
M  V30 841 H 79.3803 2.34496 -3.45545 0
M  V30 842 N 79.8174 1.5752 -0.0501392 0
M  V30 843 C 81.0654 1.9227 0.622642 0
M  V30 844 C 81.3864 0.929083 1.71444 0
M  V30 845 O 80.6564 -0.0262186 1.95882 0
M  V30 846 H 79.2364 0.709739 0.232981 0
M  V30 847 H 81.8984 1.94628 -0.102898 0
M  V30 848 H 80.9944 2.93479 1.06191 0
M  V30 849 N 81.2955 -0.223234 1.56011 0
M  V30 850 C 82.2585 -1.26014 1.9145 0
M  V30 851 C 83.2585 -1.3989 0.792937 0
M  V30 852 O 84.4485 -1.38184 1.0607 0
M  V30 853 C 81.5805 -2.63422 2.16383 0
M  V30 854 H 82.7735 -0.95796 2.84189 0
M  V30 855 H 80.3265 -0.463576 1.49267 0
M  V30 856 H 81.0615 -2.98741 1.2619 0
M  V30 857 H 80.8465 -2.54728 2.98088 0
M  V30 858 H 82.3365 -3.38249 2.44903 0
M  V30 859 N 82.7736 -1.49793 -0.48987 0
M  V30 860 C 83.7366 -1.66752 -1.57246 0
M  V30 861 C 84.7366 -0.538867 -1.51502 0
M  V30 862 O 85.9266 -0.805545 -1.54456 0
M  V30 863 C 83.0586 -1.67528 -2.96896 0
M  V30 864 H 84.2516 -2.63321 -1.43534 0
M  V30 865 H 81.8046 -1.38992 -0.714914 0
M  V30 866 H 82.5396 -0.725837 -3.16073 0
M  V30 867 H 82.3246 -2.49504 -3.02473 0
M  V30 868 H 83.8146 -1.82667 -3.7553 0
M  V30 869 N 84.2517 0.741722 -1.39055 0
M  V30 870 C 85.1617 1.88621 -1.39496 0
M  V30 871 C 86.1777 1.71557 -0.290578 0
M  V30 872 O 87.3537 1.94275 -0.530954 0
M  V30 873 C 84.4187 3.24134 -1.23037 0
M  V30 874 C 83.4797 3.5364 -2.43387 0
M  V30 875 C 82.7127 4.82687 -2.27703 0
M  V30 876 O 82.9357 5.55922 -1.27696 0
M  V30 877 O 81.8697 5.1194 -3.16545 0
M  V30 878 H 85.6957 1.91203 -2.35956 0
M  V30 879 H 83.2807 0.888625 -1.20099 0
M  V30 880 H 85.1627 4.0513 -1.15964 0
M  V30 881 H 83.8377 3.22337 -0.296691 0
M  V30 882 H 82.7447 2.72758 -2.56035 0
M  V30 883 H 84.0777 3.60209 -3.35425 0
M  V30 884 N 85.7298 1.2412 0.971189 0
M  V30 885 C 86.6768 1.0305 2.06517 0
M  V30 886 C 87.6468 -0.0550666 1.66009 0
M  V30 887 O 88.8318 0.0988688 1.90544 0
M  V30 888 C 85.9718 0.637653 3.39158 0
M  V30 889 C 85.0848 1.79633 3.92882 0
M  V30 890 C 84.2198 1.34939 5.13775 0
M  V30 891 C 83.2588 2.47823 5.59687 0
M  V30 892 N 82.3958 2.04022 6.71803 0
M  V30 893 H 87.2358 1.96685 2.23873 0
M  V30 894 H 84.7728 0.979694 1.09729 0
M  V30 895 H 86.7308 0.390931 4.15364 0
M  V30 896 H 85.3608 -0.261693 3.21737 0
M  V30 897 H 84.4128 2.15681 3.13346 0
M  V30 898 H 85.7248 2.64466 4.22918 0
M  V30 899 H 84.8788 1.06134 5.97345 0
M  V30 900 H 83.6178 0.471557 4.85415 0
M  V30 901 H 82.6228 2.77392 4.74693 0
M  V30 902 H 83.8478 3.36158 5.90063 0
M  V30 903 H 81.7938 1.18632 6.45184 0
M  V30 904 H 81.7108 2.82409 7.01271 0
M  V30 905 H 82.9788 1.78347 7.58823 0
M  V30 906 N 87.2079 -1.17134 1.05439 0
M  V30 907 C 88.1549 -2.21235 0.657539 0
M  V30 908 C 89.1249 -1.62551 -0.341543 0
M  V30 909 O 90.3099 -1.89379 -0.232393 0
M  V30 910 C 87.4499 -3.45076 0.0410575 0
M  V30 911 C 86.5629 -4.18042 1.08927 0
M  V30 912 C 85.6979 -5.29376 0.439848 0
M  V30 913 C 84.7369 -5.94132 1.4722 0
M  V30 914 N 83.8739 -6.96975 0.846756 0
M  V30 915 H 88.7139 -2.54534 1.54972 0
M  V30 916 H 86.2509 -1.25028 0.775006 0
M  V30 917 H 88.2089 -4.15862 -0.33383 0
M  V30 918 H 86.8389 -3.12353 -0.814568 0
M  V30 919 H 85.8909 -3.45945 1.58196 0
M  V30 920 H 87.2029 -4.62306 1.87282 0
M  V30 921 H 86.3569 -6.06699 0.0115125 0
M  V30 922 H 85.0959 -4.86251 -0.375656 0
M  V30 923 H 84.1009 -5.15538 1.91052 0
M  V30 924 H 85.3259 -6.39337 2.28965 0
M  V30 925 H 83.2719 -6.5598 0.0518075 0
M  V30 926 H 83.1889 -7.39565 1.5678 0
M  V30 927 H 84.4569 -7.78239 0.443277 0
M  V30 928 N 88.686 -0.835752 -1.33615 0
M  V30 929 C 89.932 -0.430596 -1.98176 0
M  V30 930 C 90.265 1.00684 -1.66061 0
M  V30 931 O 89.54 1.70339 -0.938877 0
M  V30 932 C 89.823 -0.648065 -3.5422 0
M  V30 933 C 89.676 -2.13255 -3.96033 0
M  V30 934 C 90.995 -0.0922113 -4.40003 0
M  V30 935 H 88.114 -0.157924 -0.719881 0
M  V30 936 H 90.756 -1.05069 -1.58305 0
M  V30 937 H 88.906 -0.120237 -3.88314 0
M  V30 938 H 90.578 -2.725 -3.72211 0
M  V30 939 H 88.821 -2.61823 -3.45878 0
M  V30 940 H 89.492 -2.23547 -5.04708 0
M  V30 941 H 91.968 -0.543343 -4.12537 0
M  V30 942 H 90.844 -0.274083 -5.48215 0
M  V30 943 H 91.105 1.00378 -4.30554 0
M  V30 944 N 90.1641 1.46063 -0.591896 0
M  V30 945 C 91.0961 2.28539 0.174001 0
M  V30 946 C 92.1091 1.39047 0.846753 0
M  V30 947 O 93.2981 1.63564 0.714774 0
M  V30 948 C 90.3981 3.14347 1.26645 0
M  V30 949 C 89.5711 4.32021 0.683856 0
M  V30 950 C 88.6301 4.99157 1.66518 0
M  V30 951 O 87.6561 5.56458 1.19763 0
M  V30 952 N 88.8581 4.97005 2.99943 0
M  V30 953 H 91.6231 2.94911 -0.533633 0
M  V30 954 H 89.1841 1.56077 -0.430294 0
M  V30 955 H 91.1761 3.56125 1.92242 0
M  V30 956 H 89.7461 2.49988 1.87682 0
M  V30 957 H 88.9661 3.93915 -0.1498 0
M  V30 958 H 90.2541 5.08059 0.274567 0
M  V30 959 H 89.6521 4.51714 3.40545 0
M  V30 960 H 88.2091 5.42696 3.61004 0
M  V30 961 N 91.6422 0.330177 1.54103 0
M  V30 962 C 92.5742 -0.566902 2.22079 0
M  V30 963 C 93.5872 -1.07462 1.22294 0
M  V30 964 O 94.7762 -0.987065 1.48726 0
M  V30 965 C 91.8762 -1.79138 2.87685 0
M  V30 966 C 91.0492 -1.42123 4.13666 0
M  V30 967 C 90.1082 -2.50394 4.62806 0
M  V30 968 O 89.1342 -2.14261 5.27334 0
M  V30 969 N 90.3362 -3.81433 4.37595 0
M  V30 970 H 93.1012 0.0151844 2.99696 0
M  V30 971 H 90.6622 0.153681 1.61169 0
M  V30 972 H 92.6542 -2.50975 3.1748 0
M  V30 973 H 91.2242 -2.28115 2.13734 0
M  V30 974 H 90.4442 -0.534201 3.90564 0
M  V30 975 H 91.7322 -1.14971 4.9564 0
M  V30 976 H 91.1302 -4.13584 3.8596 0
M  V30 977 H 89.6872 -4.4948 4.72029 0
M  V30 978 N 93.1203 -1.57491 0.0584922 0
M  V30 979 C 94.0503 -2.14988 -0.911178 0
M  V30 980 C 95.0313 -1.07343 -1.31952 0
M  V30 981 O 96.2163 -1.35318 -1.39294 0
M  V30 982 C 93.3463 -2.70078 -2.18347 0
M  V30 983 C 92.3003 -3.82771 -1.91495 0
M  V30 984 C 91.6263 -4.24408 -3.25241 0
M  V30 985 C 92.9263 -5.07592 -1.23075 0
M  V30 986 H 94.6203 -2.96263 -0.432246 0
M  V30 987 H 92.1663 -1.42512 -0.206469 0
M  V30 988 H 94.1193 -3.08943 -2.86587 0
M  V30 989 H 92.8433 -1.86005 -2.68458 0
M  V30 990 H 91.5023 -3.44389 -1.25664 0
M  V30 991 H 91.1503 -3.37275 -3.73168 0
M  V30 992 H 90.8503 -5.00366 -3.08071 0
M  V30 993 H 92.3743 -4.65879 -3.94701 0
M  V30 994 H 93.7883 -5.43857 -1.81362 0
M  V30 995 H 92.1853 -5.88741 -1.16207 0
M  V30 996 H 93.2553 -4.84454 -0.207847 0
M  V30 997 N 94.5984 0.214957 -1.56127 0
M  V30 998 C 95.8264 0.955092 -1.83536 0
M  V30 999 C 96.2414 1.77677 -0.638472 0
M  V30 1000 O 95.5984 1.78219 0.392968 0
M  V30 1001 C 95.6494 1.86734 -3.09536 0
M  V30 1002 O 95.3704 1.07887 -4.24608 0
M  V30 1003 C 96.8714 2.72082 -3.4998 0
M  V30 1004 H 94.0914 0.279611 -0.609966 0
M  V30 1005 H 96.6354 0.228197 -2.03223 0
M  V30 1006 H 94.7904 2.5481 -2.91806 0
M  V30 1007 H 95.2044 1.69872 -4.9623 0
M  V30 1008 H 96.6784 3.31782 -4.41163 0
M  V30 1009 H 97.1554 3.44806 -2.7204 0
M  V30 1010 H 97.7614 2.09409 -3.70173 0
M  V30 1011 N 96.0765 1.50051 0.48192 0
M  V30 1012 C 97.0395 1.67584 1.5636 0
M  V30 1013 C 98.0395 0.546894 1.51214 0
M  V30 1014 O 99.2295 0.813725 1.54026 0
M  V30 1015 C 96.3615 1.691 2.96003 0
M  V30 1016 H 97.5545 2.64078 1.42136 0
M  V30 1017 H 95.1075 1.39369 0.707533 0
M  V30 1018 H 95.8425 0.742589 3.15684 0
M  V30 1019 H 95.6275 2.51105 3.01146 0
M  V30 1020 H 97.1175 1.84656 3.74556 0
M  V30 1021 N 97.5546 -0.734337 1.39446 0
M  V30 1022 C 98.4866 -1.85861 1.34121 0
M  V30 1023 C 99.4996 -1.60871 0.249864 0
M  V30 1024 O 100.689 -1.71093 0.508865 0
M  V30 1025 C 97.7886 -3.21899 1.05991 0
M  V30 1026 C 96.9616 -3.74239 2.26415 0
M  V30 1027 C 96.0206 -4.88841 1.94733 0
M  V30 1028 O 95.0466 -5.02468 2.67422 0
M  V30 1029 N 96.2486 -5.73261 0.913884 0
M  V30 1030 H 99.0136 -1.90934 2.31007 0
M  V30 1031 H 96.5746 -0.915102 1.33557 0
M  V30 1032 H 98.5666 -3.96136 0.828147 0
M  V30 1033 H 97.1366 -3.12091 0.178361 0
M  V30 1034 H 96.3566 -2.91347 2.65539 0
M  V30 1035 H 97.6446 -4.05942 3.06738 0
M  V30 1036 H 97.0426 -5.64842 0.311476 0
M  V30 1037 H 95.5996 -6.47563 0.742015 0
M  V30 1038 N 99.0327 -1.24633 -0.964593 0
M  V30 1039 C 99.9647 -0.999302 -2.06268 0
M  V30 1040 C 100.978 0.0323226 -1.62768 0
M  V30 1041 O 102.167 -0.205079 -1.77318 0
M  V30 1042 C 99.2667 -0.486816 -3.35385 0
M  V30 1043 C 98.4397 -1.5823 -4.07777 0
M  V30 1044 C 97.4987 -1.07191 -5.15166 0
M  V30 1045 O 96.5247 -1.76426 -5.41168 0
M  V30 1046 N 97.7267 0.0920373 -5.80427 0
M  V30 1047 H 100.492 -1.94477 -2.28033 0
M  V30 1048 H 98.0527 -1.15704 -1.13244 0
M  V30 1049 H 100.045 -0.130066 -4.04491 0
M  V30 1050 H 98.6147 0.364459 -3.10468 0
M  V30 1051 H 97.8347 -2.11109 -3.32906 0
M  V30 1052 H 99.1227 -2.31854 -4.52903 0
M  V30 1053 H 98.5207 0.670784 -5.61709 0
M  V30 1054 H 97.0777 0.389905 -6.50633 0
M  V30 1055 N 100.511 1.16574 -1.06058 0
M  V30 1056 C 101.443 2.2045 -0.627239 0
M  V30 1057 C 102.456 1.59752 0.313534 0
M  V30 1058 O 103.645 1.78192 0.104896 0
M  V30 1059 C 100.745 3.3875 0.100974 0
M  V30 1060 C 99.9178 4.29008 -0.852687 0
M  V30 1061 C 98.9768 5.25944 -0.164152 0
M  V30 1062 O 98.0028 5.63535 -0.801047 0
M  V30 1063 N 99.2048 5.70075 1.09518 0
M  V30 1064 H 101.97 2.58249 -1.52077 0
M  V30 1065 H 99.5308 1.3156 -0.943594 0
M  V30 1066 H 101.523 4.00638 0.57194 0
M  V30 1067 H 100.093 2.99476 0.89628 0
M  V30 1068 H 99.3128 3.64419 -1.50308 0
M  V30 1069 H 100.601 4.86195 -1.49972 0
M  V30 1070 H 99.9988 5.41624 1.6328 0
M  V30 1071 H 98.5558 6.34067 1.51006 0
M  V30 1072 N 101.989 0.842826 1.3317 0
M  V30 1073 C 102.936 0.276885 2.29133 0
M  V30 1074 C 103.906 -0.609527 1.54512 0
M  V30 1075 O 105.091 -0.546955 1.82792 0
M  V30 1076 C 102.231 -0.538707 3.40869 0
M  V30 1077 C 101.344 0.372169 4.30394 0
M  V30 1078 C 100.479 -0.454908 5.29249 0
M  V30 1079 C 99.5179 0.45411 6.10413 0
M  V30 1080 N 98.6549 -0.335075 7.013 0
M  V30 1081 H 103.495 1.10052 2.76934 0
M  V30 1082 H 101.032 0.554161 1.36262 0
M  V30 1083 H 102.99 -1.02709 4.0436 0
M  V30 1084 H 101.62 -1.32727 2.9425 0
M  V30 1085 H 100.672 0.97888 3.6759 0
M  V30 1086 H 101.984 1.0703 4.87182 0
M  V30 1087 H 101.138 -1.00695 5.98285 0
M  V30 1088 H 99.8769 -1.18646 4.73048 0
M  V30 1089 H 98.8819 1.01813 5.40291 0
M  V30 1090 H 100.107 1.18409 6.68697 0
M  V30 1091 H 98.0529 -1.04994 6.47543 0
M  V30 1092 H 97.9699 0.304262 7.55387 0
M  V30 1093 H 99.2379 -0.869224 7.74638 0
M  V30 1094 N 103.467 -1.45747 0.599634 0
M  V30 1095 C 104.415 -2.322 -0.136426 0
M  V30 1096 C 105.409 -1.45497 -0.867583 0
M  V30 1097 O 106.615 -1.62027 -0.78405 0
M  V30 1098 H 102.99 -0.749368 -0.0628588 0
M  V30 1099 H 104.961 -2.92072 0.611281 0
M  V30 1100 C 103.71 -3.28974 -1.12567 0
M  V30 1101 H 103.033 -3.9568 -0.572484 0
M  V30 1102 H 104.473 -3.92212 -1.61077 0
M  V30 1103 C 102.932 -2.55561 -2.19523 0
M  V30 1104 O 103.462 -2.33111 -3.27143 0
M  V30 1105 N 101.668 -2.15832 -1.94589 0
M  V30 1106 H 101.215 -2.3429 -1.07078 0
M  V30 1107 H 101.173 -1.67034 -2.66359 0
M  V30 1108 N 104.945 -0.338344 -1.53925 0
M  V30 1109 C 105.877 0.555117 -2.22376 0
M  V30 1110 C 106.89 1.06812 -1.22862 0
M  V30 1111 O 108.079 0.979163 -1.49247 0
M  V30 1112 C 105.179 1.77609 -2.88631 0
M  V30 1113 C 104.352 1.39927 -4.14414 0
M  V30 1114 C 103.411 2.47936 -4.64127 0
M  V30 1115 O 102.437 2.11461 -5.28463 0
M  V30 1116 N 103.639 3.79107 -4.39612 0
M  V30 1117 H 106.404 -0.0310778 -2.99684 0
M  V30 1118 H 103.965 -0.162226 -1.61085 0
M  V30 1119 H 105.957 2.49287 -3.18807 0
M  V30 1120 H 104.527 2.26978 -2.14941 0
M  V30 1121 H 103.747 0.513481 -3.90841 0
M  V30 1122 H 105.035 1.12341 -4.96243 0
M  V30 1123 H 104.433 4.11531 -3.88148 0
M  V30 1124 H 102.99 4.4697 -4.74406 0
M  V30 1125 N 106.423 1.57458 -0.0668435 0
M  V30 1126 C 107.371 2.13639 0.919851 0
M  V30 1127 C 108.365 1.07204 1.31163 0
M  V30 1128 O 109.571 1.25591 1.28945 0
M  V30 1129 H 105.946 0.683048 0.314562 0
M  V30 1130 H 107.917 2.95415 0.421047 0
M  V30 1131 C 106.666 2.70892 2.17975 0
M  V30 1132 H 105.989 3.5246 1.88711 0
M  V30 1133 H 107.429 3.13803 2.85138 0
M  V30 1134 C 105.888 1.65414 2.93496 0
M  V30 1135 O 106.418 1.07619 3.87015 0
M  V30 1136 N 104.624 1.36564 2.56512 0
M  V30 1137 H 104.171 1.83751 1.80536 0
M  V30 1138 H 104.129 0.66223 3.07347 0
M  V30 1139 N 107.901 -0.206675 1.56239 0
M  V30 1140 C 109.126 -0.949474 1.8439 0
M  V30 1141 C 109.551 -1.76549 0.649016 0
M  V30 1142 O 108.909 -1.76782 -0.402231 0
M  V30 1143 C 108.957 -1.83078 3.10668 0
M  V30 1144 O 108.061 -2.9281 2.90407 0
M  V30 1145 H 107.402 -0.268033 0.607499 0
M  V30 1146 H 109.932 -0.215488 2.03462 0
M  V30 1147 H 109.942 -2.2377 3.41161 0
M  V30 1148 H 108.617 -1.23112 3.97261 0
M  V30 1149 H 107.194 -2.55956 2.71184 0
M  V30 1150 N 109.379 -1.50304 -0.473955 0
M  V30 1151 C 110.607 -1.64902 -1.24959 0
M  V30 1152 C 111.022 -0.331198 -1.85872 0
M  V30 1153 O 110.379 0.68652 -1.69095 0
M  V30 1154 C 110.43 -2.73803 -2.36038 0
M  V30 1155 O 110.151 -4.00477 -1.77624 0
M  V30 1156 C 111.652 -2.99349 -3.26964 0
M  V30 1157 H 108.872 -0.554383 -0.378022 0
M  V30 1158 H 111.416 -1.9651 -0.566054 0
M  V30 1159 H 109.571 -2.44898 -3.00173 0
M  V30 1160 H 109.985 -4.60678 -2.5075 0
M  V30 1161 H 111.459 -3.79217 -4.01121 0
M  V30 1162 H 111.936 -2.10307 -3.85574 0
M  V30 1163 H 112.542 -3.29774 -2.68569 0
M  V30 1164 N 110.857 0.726932 -1.39834 0
M  V30 1165 C 111.789 1.85147 -1.35104 0
M  V30 1166 C 112.802 1.60736 -0.258392 0
M  V30 1167 O 113.991 1.70821 -0.517931 0
M  V30 1168 C 111.091 3.21332 -1.07697 0
M  V30 1169 C 110.264 3.73033 -2.28396 0
M  V30 1170 C 109.323 4.87802 -1.97322 0
M  V30 1171 O 108.349 5.01043 -2.70083 0
M  V30 1172 N 109.551 5.72768 -0.944273 0
M  V30 1173 H 112.316 1.89706 -2.32017 0
M  V30 1174 H 109.877 0.908006 -1.3404 0
M  V30 1175 H 111.869 3.95691 -0.849144 0
M  V30 1176 H 110.439 3.11992 -0.194909 0
M  V30 1177 H 109.659 2.89934 -2.6708 0
M  V30 1178 H 110.947 4.0431 -3.08887 0
M  V30 1179 H 110.345 5.64669 -0.341427 0
M  V30 1180 H 108.902 6.4716 -0.776346 0
M  V30 1181 N 112.336 1.25143 0.95797 0
M  V30 1182 C 113.246 1.06968 2.08794 0
M  V30 1183 C 114.262 0.00773911 1.73998 0
M  V30 1184 O 115.438 0.207972 2.00323 0
M  V30 1185 C 112.503 0.68691 3.39827 0
M  V30 1186 C 111.564 1.82641 3.88511 0
M  V30 1187 C 110.797 1.46181 5.1329 0
M  V30 1188 O 111.02 0.355971 5.69288 0
M  V30 1189 O 109.954 2.29085 5.566 0
M  V30 1190 H 113.78 2.01723 2.27027 0
M  V30 1191 H 111.365 1.04051 1.07209 0
M  V30 1192 H 113.247 0.485417 4.18595 0
M  V30 1193 H 111.922 -0.231417 3.22872 0
M  V30 1194 H 110.829 2.08274 3.10762 0
M  V30 1195 H 112.162 2.72386 4.09959 0
M  V30 1196 N 113.814 -1.1601 1.06675 0
M  V30 1197 C 115.06 -1.86909 0.786945 0
M  V30 1198 C 115.393 -1.81717 -0.685018 0
M  V30 1199 O 114.668 -1.23551 -1.50218 0
M  V30 1200 C 114.951 -3.36313 1.28707 0
M  V30 1201 C 114.804 -3.50175 2.82308 0
M  V30 1202 C 116.123 -4.3084 0.898071 0
M  V30 1203 H 113.242 -0.678677 0.287343 0
M  V30 1204 H 115.884 -1.36336 1.32334 0
M  V30 1205 H 114.034 -3.79513 0.830768 0
M  V30 1206 H 115.706 -3.15886 3.36175 0
M  V30 1207 H 113.949 -2.91959 3.20847 0
M  V30 1208 H 114.62 -4.55116 3.12368 0
M  V30 1209 H 117.096 -3.95561 1.29114 0
M  V30 1210 H 115.972 -5.33876 1.27543 0
M  V30 1211 H 116.233 -4.41662 -0.196651 0
M  V30 1212 N 115.292 -0.849877 -1.32721 0
M  V30 1213 C 116.255 -0.296122 -2.27279 0
M  V30 1214 C 117.255 0.541458 -1.5141 0
M  V30 1215 O 118.445 0.353658 -1.70572 0
M  V30 1216 C 115.577 0.581579 -3.35902 0
M  V30 1217 H 116.77 -1.13064 -2.77771 0
M  V30 1218 H 114.323 -0.62383 -1.43311 0
M  V30 1219 H 115.058 1.43809 -2.9067 0
M  V30 1220 H 114.843 -0.0178814 -3.92096 0
M  V30 1221 H 116.333 0.961951 -4.0637 0
M  V30 1222 N 116.77 1.45427 -0.607355 0
M  V30 1223 C 117.702 2.2871 0.149752 0
M  V30 1224 C 118.715 1.39937 0.831958 0
M  V30 1225 O 119.904 1.64313 0.697385 0
M  V30 1226 C 117.004 3.15673 1.23304 0
M  V30 1227 C 116.177 4.32722 0.637996 0
M  V30 1228 C 115.236 5.00895 1.61215 0
M  V30 1229 O 114.262 5.57697 1.13854 0
M  V30 1230 N 115.464 5.00159 2.94655 0
M  V30 1231 H 118.229 2.94328 -0.564882 0
M  V30 1232 H 115.79 1.55612 -0.446823 0
M  V30 1233 H 117.782 3.58144 1.88454 0
M  V30 1234 H 116.352 2.51965 1.8502 0
M  V30 1235 H 115.572 3.93734 -0.191572 0
M  V30 1236 H 116.86 5.08321 0.220665 0
M  V30 1237 H 116.258 4.553 3.35735 0
M  V30 1238 H 114.815 5.46495 3.55228 0
M  V30 1239 N 118.248 0.346503 1.53744 0
M  V30 1240 C 119.664 -0.00530975 1.59599 0
M  V30 1241 C 119.864 -1.48465 1.36236 0
M  V30 1242 O 118.92 -2.24376 1.15808 0
M  V30 1243 C 120.233 0.433516 2.97559 0
M  V30 1244 C 121.781 0.386111 3.10609 0
M  V30 1245 C 122.256 0.800451 4.50951 0
M  V30 1246 N 123.747 0.754753 4.5701 0
M  V30 1247 C 124.482 1.04727 5.63755 0
M  V30 1248 N 123.978 1.4081 6.7834 0
M  V30 1249 N 125.771 0.971316 5.53644 0
M  V30 1250 H 117.922 1.31009 1.67184 0
M  V30 1251 H 120.185 0.534242 0.783128 0
M  V30 1252 H 119.891 1.46509 3.19731 0
M  V30 1253 H 119.765 -0.189753 3.76722 0
M  V30 1254 H 122.152 -0.636295 2.88158 0
M  V30 1255 H 122.233 1.04462 2.33498 0
M  V30 1256 H 121.877 1.82088 4.74137 0
M  V30 1257 H 121.807 0.119386 5.26465 0
M  V30 1258 H 124.298 0.488662 3.74727 0
M  V30 1259 H 124.611 1.61607 7.55714 0
M  V30 1260 H 122.956 1.44657 6.79779 0
M  V30 1261 H 126.147 0.688748 4.63005 0
M  V30 1262 H 126.32 1.20263 6.36742 0
M  V30 1263 N 119.726 -1.57421 0.075193 0
M  V30 1264 C 120.954 -1.97946 -0.602076 0
M  V30 1265 C 121.369 -0.953674 -1.62943 0
M  V30 1266 O 120.726 0.0592551 -1.82404 0
M  V30 1267 C 120.777 -3.38546 -1.26762 0
M  V30 1268 O 120.498 -4.37195 -0.281376 0
M  V30 1269 C 121.999 -3.93966 -2.03239 0
M  V30 1270 H 119.219 -0.650918 -0.162931 0
M  V30 1271 H 121.763 -2.03959 0.148601 0
M  V30 1272 H 119.918 -3.33609 -1.96936 0
M  V30 1273 H 120.332 -5.18975 -0.759267 0
M  V30 1274 H 121.806 -4.94555 -2.45193 0
M  V30 1275 H 122.283 -3.30693 -2.8903 0
M  V30 1276 H 122.889 -4.02315 -1.37924 0
M  V30 1277 N 121.204 0.198386 -1.56346 0
M  V30 1278 C 122.167 1.22952 -1.93431 0
M  V30 1279 C 123.167 1.38611 -0.815092 0
M  V30 1280 O 124.357 1.36479 -1.08255 0
M  V30 1281 C 121.489 2.59946 -2.20546 0
M  V30 1282 H 122.682 0.912626 -2.85677 0
M  V30 1283 H 120.235 0.43977 -1.49986 0
M  V30 1284 H 120.97 2.96696 -1.30927 0
M  V30 1285 H 120.755 2.49953 -3.02102 0
M  V30 1286 H 122.245 3.3431 -2.50253 0
M  V30 1287 N 122.682 1.50554 0.465978 0
M  V30 1288 C 124.098 1.38093 0.800154 0
M  V30 1289 C 124.298 0.440988 1.96615 0
M  V30 1290 O 123.354 -0.114499 2.5224 0
M  V30 1291 C 124.667 2.79565 1.10742 0
M  V30 1292 C 126.215 2.88516 1.21357 0
M  V30 1293 C 126.69 4.30833 1.55393 0
M  V30 1294 N 128.181 4.33807 1.62375 0
M  V30 1295 C 128.916 5.40927 1.90225 0
M  V30 1296 N 128.412 6.58247 2.16062 0
M  V30 1297 N 130.205 5.28376 1.9177 0
M  V30 1298 H 122.356 2.10237 -0.302366 0
M  V30 1299 H 124.619 0.945203 -0.0727746 0
M  V30 1300 H 124.325 3.50208 0.323661 0
M  V30 1301 H 124.199 3.17125 2.04234 0
M  V30 1302 H 126.586 2.1809 1.98799 0
M  V30 1303 H 126.667 2.54492 0.258321 0
M  V30 1304 H 126.311 5.01799 0.784889 0
M  V30 1305 H 126.241 4.62347 2.52076 0
M  V30 1306 H 128.732 3.49212 1.44427 0
M  V30 1307 H 129.045 7.3569 2.36601 0
M  V30 1308 H 127.39 6.61413 2.13444 0
M  V30 1309 H 130.581 4.35715 1.71085 0
M  V30 1310 H 130.754 6.11944 2.13139 0
M  V30 1311 N 124.16 -0.719506 1.40217 0
M  V30 1312 C 125.09 -1.8465 1.42922 0
M  V30 1313 C 126.071 -1.67599 0.29062 0
M  V30 1314 O 127.256 -1.87688 0.498677 0
M  V30 1315 C 124.386 -3.22565 1.28722 0
M  V30 1316 C 123.34 -3.54281 2.40144 0
M  V30 1317 C 122.666 -4.91298 2.11023 0
M  V30 1318 C 123.966 -3.55676 3.82481 0
M  V30 1319 H 125.66 -1.82644 2.37237 0
M  V30 1320 H 123.206 -0.877305 1.1419 0
M  V30 1321 H 125.159 -4.01095 1.29232 0
M  V30 1322 H 123.883 -3.25137 0.308811 0
M  V30 1323 H 122.542 -2.78088 2.38877 0
M  V30 1324 H 122.19 -4.90468 1.11582 0
M  V30 1325 H 121.89 -5.13485 2.8567 0
M  V30 1326 H 123.414 -5.72166 2.13209 0
M  V30 1327 H 124.828 -4.24254 3.85592 0
M  V30 1328 H 123.225 -3.89388 4.56614 0
M  V30 1329 H 124.295 -2.55144 4.12346 0
M  V30 1330 N 125.638 -1.25649 -0.95132 0
M  V30 1331 C 126.548 -1.08073 -2.08224 0
M  V30 1332 C 127.564 -0.0169666 -1.73992 0
M  V30 1333 O 128.74 -0.218593 -2.0021 0
M  V30 1334 C 125.805 -0.704922 -3.39458 0
M  V30 1335 C 124.866 -1.84699 -3.87537 0
M  V30 1336 C 124.099 -1.48902 -5.12508 0
M  V30 1337 O 124.322 -0.386156 -5.69091 0
M  V30 1338 O 123.256 -2.32033 -5.55378 0
M  V30 1339 H 127.082 -2.02924 -2.25954 0
M  V30 1340 H 124.667 -1.04618 -1.06656 0
M  V30 1341 H 126.549 -0.507609 -4.18332 0
M  V30 1342 H 125.224 0.214291 -3.2299 0
M  V30 1343 H 124.131 -2.09919 -3.09653 0
M  V30 1344 H 125.464 -2.74557 -4.08509 0
M  V30 1345 N 127.117 1.15442 -1.07289 0
M  V30 1346 C 128.064 2.20161 -0.692653 0
M  V30 1347 C 129.034 1.63073 0.31564 0
M  V30 1348 O 130.219 1.89725 0.202235 0
M  V30 1349 C 127.359 3.44967 -0.0959509 0
M  V30 1350 C 126.472 4.16256 -1.15564 0
M  V30 1351 C 125.607 5.28609 -0.524011 0
M  V30 1352 C 124.646 5.91715 -1.56653 0
M  V30 1353 N 123.783 6.9554 -0.957531 0
M  V30 1354 H 128.623 2.52037 -1.59002 0
M  V30 1355 H 126.16 1.2378 -0.794798 0
M  V30 1356 H 128.118 4.16341 0.267628 0
M  V30 1357 H 126.748 3.1361 0.764772 0
M  V30 1358 H 125.8 3.43385 -1.6368 0
M  V30 1359 H 127.112 4.59268 -1.94613 0
M  V30 1360 H 126.266 6.06604 -0.108032 0
M  V30 1361 H 125.005 4.86787 0.29825 0
M  V30 1362 H 124.01 5.12433 -1.9923 0
M  V30 1363 H 125.235 6.35614 -2.39107 0
M  V30 1364 H 123.181 6.55814 -0.156162 0
M  V30 1365 H 123.098 7.36977 -1.68526 0
M  V30 1366 H 124.366 7.77435 -0.567032 0
M  V30 1367 N 128.595 0.856903 1.32268 0
M  V30 1368 C 129.542 0.301172 2.28827 0
M  V30 1369 C 130.512 -0.593104 1.5515 0
M  V30 1370 O 131.697 -0.527537 1.83362 0
M  V30 1371 C 128.837 -0.502523 3.41422 0
M  V30 1372 C 127.95 0.417797 4.29975 0
M  V30 1373 C 127.085 -0.398749 5.29701 0
M  V30 1374 C 126.124 0.518827 6.09897 0
M  V30 1375 N 125.261 -0.260674 7.01616 0
M  V30 1376 H 130.101 1.12983 2.75751 0
M  V30 1377 H 127.638 0.568582 1.35667 0
M  V30 1378 H 129.596 -0.984141 4.05426 0
M  V30 1379 H 128.226 -1.29599 2.95642 0
M  V30 1380 H 127.278 1.01781 3.66531 0
M  V30 1381 H 128.59 1.12191 4.86019 0
M  V30 1382 H 127.744 -0.943435 5.9932 0
M  V30 1383 H 126.483 -1.13622 4.7428 0
M  V30 1384 H 125.488 1.07538 5.39181 0
M  V30 1385 H 126.713 1.25495 6.67404 0
M  V30 1386 H 124.659 -0.981198 6.4862 0
M  V30 1387 H 124.576 0.384364 7.55022 0
M  V30 1388 H 125.844 -0.787014 7.75517 0
M  V30 1389 N 130.073 -1.45103 0.615059 0
M  V30 1390 C 131.036 -2.29025 -0.0895485 0
M  V30 1391 C 132.036 -1.40174 -0.787906 0
M  V30 1392 O 133.226 -1.62217 -0.634933 0
M  V30 1393 C 130.358 -3.21376 -1.13711 0
M  V30 1394 H 131.551 -2.92807 0.648382 0
M  V30 1395 H 129.104 -1.51749 0.374444 0
M  V30 1396 H 129.839 -2.6241 -1.90556 0
M  V30 1397 H 129.624 -3.86834 -0.640475 0
M  V30 1398 H 131.114 -3.84459 -1.63036 0
M  V30 1399 N 131.551 -0.354651 -1.53558 0
M  V30 1400 C 132.828 0.294281 -1.93374 0
M  V30 1401 C 133.208 1.67313 -1.28723 0
M  V30 1402 O 132.556 2.24179 -0.442247 0
M  V30 1403 C 132.766 0.355445 -3.47185 0
M  V30 1404 C 134.114 0.601007 -4.20325 0
M  V30 1405 O 135.138 0.437106 -3.53508 0
M  V30 1406 O 133.997 0.919322 -5.38712 0
M  V30 1407 H 131.091 0.174033 -0.808481 0
M  V30 1408 H 133.637 -0.406638 -1.64756 0
M  V30 1409 H 132.409 -0.611729 -3.86489 0
M  V30 1410 H 132.032 1.1027 -3.82003 0
M  V30 1411 N 133.029 1.57378 -0.0835403 0
M  V30 1412 C 134.306 1.85363 0.624507 0
M  V30 1413 C 134.686 0.978239 1.87066 0
M  V30 1414 O 134.034 0.0475908 2.2845 0
M  V30 1415 C 134.244 3.35795 0.950947 0
M  V30 1416 C 135.592 4.03581 1.31939 0
M  V30 1417 O 136.616 3.40609 1.04232 0
M  V30 1418 O 135.475 5.14672 1.83779 0
M  V30 1419 H 132.569 0.766162 0.311329 0
M  V30 1420 H 135.115 1.69307 -0.115362 0
M  V30 1421 H 133.887 3.91244 0.0663899 0
M  V30 1422 H 133.51 3.57154 1.74719 0
M  V30 1423 N 134.507 -0.190092 1.56449 0
M  V30 1424 C 135.454 -1.23557 1.94942 0
M  V30 1425 C 136.424 -1.44972 0.810696 0
M  V30 1426 O 137.609 -1.58023 1.06927 0
M  V30 1427 C 134.749 -2.57416 2.2985 0
M  V30 1428 C 133.862 -2.43537 3.5681 0
M  V30 1429 C 132.997 -3.70134 3.81017 0
M  V30 1430 C 132.036 -3.51109 5.01387 0
M  V30 1431 N 131.173 -4.6973 5.21822 0
M  V30 1432 H 136.013 -0.900304 2.84075 0
M  V30 1433 H 133.55 -0.43318 1.40577 0
M  V30 1434 H 135.508 -3.35409 2.48106 0
M  V30 1435 H 134.138 -2.88975 1.43852 0
M  V30 1436 H 133.19 -1.56816 3.46573 0
M  V30 1437 H 134.502 -2.25415 4.4496 0
M  V30 1438 H 133.656 -4.56566 3.9954 0
M  V30 1439 H 132.395 -3.91215 2.91207 0
M  V30 1440 H 131.4 -2.63063 4.82782 0
M  V30 1441 H 132.625 -3.31468 5.9271 0
M  V30 1442 H 130.571 -4.91065 4.34961 0
M  V30 1443 H 130.488 -4.54452 6.0416 0
M  V30 1444 H 131.756 -5.57499 5.44808 0
M  V30 1445 N 135.985 -1.50799 -0.457987 0
M  V30 1446 C 137.21 -1.66496 -1.23668 0
M  V30 1447 C 137.635 -0.353288 -1.84752 0
M  V30 1448 O 136.993 0.684346 -1.67888 0
M  V30 1449 C 137.041 -2.76763 -2.3116 0
M  V30 1450 O 136.145 -2.38928 -3.36136 0
M  V30 1451 H 135.486 -0.555828 -0.363252 0
M  V30 1452 H 138.016 -1.9725 -0.543474 0
M  V30 1453 H 138.026 -3.00232 -2.76269 0
M  V30 1454 H 136.701 -3.71954 -1.86073 0
M  V30 1455 H 135.278 -2.25953 -2.96647 0
M  V30 1456 N 137.463 0.71206 -1.40597 0
M  V30 1457 C 138.711 1.46907 -1.38791 0
M  V30 1458 C 139.032 1.94998 0.00780391 0
M  V30 1459 O 138.302 1.70587 0.963174 0
M  V30 1460 H 136.882 0.545043 -0.51082 0
M  V30 1461 H 139.544 0.843882 -1.75683 0
M  V30 1462 H 138.64 2.34021 -2.06496 0
M  V30 1463 N 138.941 1.26152 0.944643 0
M  V30 1464 C 140.188 1.11492 1.69044 0
M  V30 1465 C 140.516 -0.342366 1.91463 0
M  V30 1466 O 139.771 -1.26812 1.49054 0
M  V30 1467 C 140.07 1.82541 3.07268 0
M  V30 1468 C 139.736 3.32445 3.04616 0
M  V30 1469 C 138.398 3.73337 3.036 0
M  V30 1470 C 140.75 4.28171 2.97185 0
M  V30 1471 C 138.078 5.08348 2.92915 0
M  V30 1472 C 140.43 5.63218 2.88041 0
M  V30 1473 C 139.094 6.03426 2.85366 0
M  V30 1474 H 138.364 0.407977 0.618576 0
M  V30 1475 H 141.011 1.56551 1.10291 0
M  V30 1476 H 139.316 1.29941 3.69625 0
M  V30 1477 H 141.013 1.68642 3.63815 0
M  V30 1478 H 137.603 2.99915 3.06185 0
M  V30 1479 H 141.787 3.97563 2.97081 0
M  V30 1480 H 137.043 5.38667 2.89219 0
M  V30 1481 H 141.217 6.37078 2.81254 0
M  V30 1482 H 138.844 7.07999 2.76842 0
M  V30 1483 N 140.419 -1.14872 1.07899 0
M  V30 1484 C 141.329 -2.2341 0.715915 0
M  V30 1485 C 142.345 -1.71808 -0.275306 0
M  V30 1486 O 143.521 -2.01039 -0.120545 0
M  V30 1487 C 140.586 -3.46474 0.125168 0
M  V30 1488 C 139.647 -4.13039 1.17034 0
M  V30 1489 C 138.88 -5.30229 0.607688 0
M  V30 1490 O 139.103 -5.675 -0.574497 0
M  V30 1491 O 138.037 -5.86444 1.35526 0
M  V30 1492 H 141.863 -2.56808 1.62121 0
M  V30 1493 H 139.448 -1.22702 0.852322 0
M  V30 1494 H 141.33 -4.20917 -0.201729 0
M  V30 1495 H 140.005 -3.14811 -0.753364 0
M  V30 1496 H 138.912 -3.40493 1.54968 0
M  V30 1497 H 140.245 -4.48796 2.02097 0
M  V30 1498 N 141.898 -0.863906 -1.31812 0
M  V30 1499 C 143.145 -0.471836 -1.96926 0
M  V30 1500 C 143.473 0.974578 -1.68322 0
M  V30 1501 O 142.728 1.7003 -0.968933 0
M  V30 1502 C 143.027 -0.668547 -3.51091 0
M  V30 1503 C 142.693 -2.08683 -3.99703 0
M  V30 1504 C 141.355 -2.47471 -4.12688 0
M  V30 1505 C 143.707 -3.01207 -4.25351 0
M  V30 1506 C 141.035 -3.78037 -4.4867 0
M  V30 1507 C 143.387 -4.31282 -4.62794 0
M  V30 1508 C 142.051 -4.69992 -4.73987 0
M  V30 1509 H 141.321 -0.172657 -0.720604 0
M  V30 1510 H 143.968 -1.09573 -1.57054 0
M  V30 1511 H 142.273 0.0385252 -3.91781 0
M  V30 1512 H 143.97 -0.345102 -3.99512 0
M  V30 1513 H 140.56 -1.77566 -3.90087 0
M  V30 1514 H 144.744 -2.72469 -4.14819 0
M  V30 1515 H 140 -4.078 -4.55532 0
M  V30 1516 H 144.174 -5.03031 -4.81594 0
M  V30 1517 H 141.801 -5.71207 -5.01624 0
M  V30 1518 N 143.376 1.44774 -0.622745 0
M  V30 1519 C 144.326 2.2774 0.108889 0
M  V30 1520 C 145.31 1.38189 0.824175 0
M  V30 1521 O 146.502 1.62063 0.711664 0
M  V30 1522 C 143.631 3.25353 1.09546 0
M  V30 1523 C 142.717 4.22392 0.380232 0
M  V30 1524 N 143.108 5.02388 -0.586535 0
M  V30 1525 C 141.406 4.41588 0.625792 0
M  V30 1526 C 142.107 5.72894 -1.00834 0
M  V30 1527 N 141.083 5.42479 -0.348878 0
M  V30 1528 H 144.885 2.86993 -0.63341 0
M  V30 1529 H 142.399 1.5611 -0.447589 0
M  V30 1530 H 144.396 3.83538 1.63414 0
M  V30 1531 H 143.056 2.6766 1.83815 0
M  V30 1532 H 144.067 5.0885 -0.963975 0
M  V30 1533 H 140.744 3.95003 1.352 0
M  V30 1534 H 142.134 6.47158 -1.80656 0
M  V30 1535 N 144.854 0.36279 1.53368 0
M  V30 1536 C 146.102 -0.227326 2.00817 0
M  V30 1537 C 146.423 -1.49511 1.25186 0
M  V30 1538 O 145.693 -1.92482 0.364348 0
M  V30 1539 H 144.273 -0.0869923 0.741917 0
M  V30 1540 H 146.935 0.488381 1.88682 0
M  V30 1541 H 146.031 -0.456273 3.08747 0
M  V30 1542 N 146.332 -1.57332 0.0918853 0
M  V30 1543 C 147.562 -1.98286 -0.580205 0
M  V30 1544 C 147.97 -0.969713 -1.6246 0
M  V30 1545 O 147.313 0.0493501 -1.83634 0
M  V30 1546 C 147.375 -3.35603 -1.28882 0
M  V30 1547 C 147.039 -4.55285 -0.395559 0
M  V30 1548 C 148.036 -5.18687 0.355002 0
M  V30 1549 C 145.721 -5.01314 -0.314556 0
M  V30 1550 C 147.715 -6.26484 1.17458 0
M  V30 1551 C 145.402 -6.08979 0.508677 0
M  V30 1552 C 146.4 -6.71429 1.2519 0
M  V30 1553 O 146.088 -7.77018 2.06151 0
M  V30 1554 H 145.82 -0.656678 -0.160466 0
M  V30 1555 H 148.374 -2.04721 0.16688 0
M  V30 1556 H 146.604 -3.25842 -2.08241 0
M  V30 1557 H 148.293 -3.61026 -1.85512 0
M  V30 1558 H 149.059 -4.84058 0.302134 0
M  V30 1559 H 144.938 -4.5247 -0.882697 0
M  V30 1560 H 148.482 -6.75159 1.75518 0
M  V30 1561 H 144.379 -6.4304 0.563037 0
M  V30 1562 H 145.147 -7.93991 1.98799 0
M  V30 1563 N 147.81 0.181792 -1.56548 0
M  V30 1564 C 148.773 1.20894 -1.94724 0
M  V30 1565 C 149.773 1.37738 -0.829747 0
M  V30 1566 O 150.963 1.35323 -1.09697 0
M  V30 1567 C 148.095 2.57593 -2.23291 0
M  V30 1568 H 149.288 0.882275 -2.86629 0
M  V30 1569 H 146.841 0.423838 -1.50444 0
M  V30 1570 H 147.576 2.95291 -1.34067 0
M  V30 1571 H 147.361 2.46735 -3.04736 0
M  V30 1572 H 148.851 3.31637 -2.53785 0
M  V30 1573 N 149.288 1.51039 0.449983 0
M  V30 1574 C 150.704 1.38934 0.785462 0
M  V30 1575 C 150.904 0.461817 1.96136 0
M  V30 1576 O 149.96 -0.0877389 2.52348 0
M  V30 1577 C 151.273 2.80724 1.0777 0
M  V30 1578 C 152.821 2.89787 1.1829 0
M  V30 1579 C 153.296 4.32457 1.50815 0
M  V30 1580 N 154.787 4.35505 1.57764 0
M  V30 1581 C 155.522 5.42914 1.84477 0
M  V30 1582 N 155.018 6.60502 2.09068 0
M  V30 1583 N 156.811 5.3038 1.86155 0
M  V30 1584 H 148.962 2.09904 -0.324647 0
M  V30 1585 H 151.225 0.944378 -0.0827957 0
M  V30 1586 H 150.931 3.50531 0.286498 0
M  V30 1587 H 150.805 3.19273 2.00859 0
M  V30 1588 H 153.192 2.20186 1.96474 0
M  V30 1589 H 153.273 2.54752 0.231314 0
M  V30 1590 H 152.917 5.02603 0.731622 0
M  V30 1591 H 152.847 4.64995 2.47158 0
M  V30 1592 H 155.338 3.50724 1.40715 0
M  V30 1593 H 155.651 7.38158 2.28785 0
M  V30 1594 H 153.996 6.63639 2.06416 0
M  V30 1595 H 157.187 4.37505 1.66454 0
M  V30 1596 H 157.36 6.1417 2.06637 0
M  V30 1597 N 150.766 -0.704594 1.40972 0
M  V30 1598 C 151.991 -1.49858 1.43378 0
M  V30 1599 C 152.416 -1.88061 0.038184 0
M  V30 1600 O 151.774 -1.5402 -0.956425 0
M  V30 1601 C 151.822 -2.74333 2.34038 0
M  V30 1602 O 150.926 -3.7147 1.7912 0
M  V30 1603 H 150.267 -0.45139 0.486974 0
M  V30 1604 H 152.797 -0.866832 1.8533 0
M  V30 1605 H 152.807 -3.22741 2.49604 0
M  V30 1606 H 151.482 -2.45863 3.35446 0
M  V30 1607 H 150.059 -3.30363 1.72958 0
M  V30 1608 N 152.244 -1.26651 -0.937939 0
M  V30 1609 C 153.492 -1.12165 -1.68118 0
M  V30 1610 C 153.813 0.334983 -1.92101 0
M  V30 1611 O 153.083 1.23583 -1.52 0
M  V30 1612 H 151.663 -0.412093 -0.623048 0
M  V30 1613 H 154.325 -1.59027 -1.12678 0
M  V30 1614 H 153.421 -1.64289 -2.6536 0
M  V30 1615 N 153.722 1.14298 -1.08507 0
M  V30 1616 C 154.968 1.85633 -0.816581 0
M  V30 1617 C 155.301 1.82784 0.656021 0
M  V30 1618 O 154.576 1.25926 1.48233 0
M  V30 1619 C 154.859 3.34223 -1.34041 0
M  V30 1620 C 154.712 3.45639 -2.87843 0
M  V30 1621 C 156.031 4.29356 -0.9665 0
M  V30 1622 H 153.15 0.67402 -0.298104 0
M  V30 1623 H 155.792 1.34214 -1.34487 0
M  V30 1624 H 153.942 3.78144 -0.89104 0
M  V30 1625 H 155.614 3.10498 -3.41158 0
M  V30 1626 H 153.857 2.86817 -3.25451 0
M  V30 1627 H 154.528 4.50089 -3.19569 0
M  V30 1628 H 157.004 3.93457 -1.35391 0
M  V30 1629 H 155.88 5.3178 -1.3602 0
M  V30 1630 H 156.141 4.41919 0.126362 0
M  V30 1631 N 155.201 0.870884 1.31352 0
M  V30 1632 C 156.45 0.478408 1.95944 0
M  V30 1633 C 156.763 -0.974493 1.69597 0
M  V30 1634 O 157.969 -1.47316 2.28058 0
M  V30 1635 C 156.425 0.804609 3.50791 0
M  V30 1636 C 156.033 2.27433 3.85977 0
M  V30 1637 C 157.777 0.480648 4.2177 0
M  V30 1638 C 155.684 2.5429 5.33939 0
M  V30 1639 H 154.614 0.175175 0.733369 0
M  V30 1640 H 157.265 1.06391 1.4951 0
M  V30 1641 H 155.647 0.148347 3.95722 0
M  V30 1642 H 156.821 2.97373 3.52002 0
M  V30 1643 H 155.136 2.56442 3.28065 0
M  V30 1644 H 157.733 0.658519 5.30629 0
M  V30 1645 H 158.076 -0.578979 4.12254 0
M  V30 1646 H 158.609 1.09349 3.82476 0
M  V30 1647 H 155.348 3.58939 5.48491 0
M  V30 1648 H 154.868 1.88945 5.69263 0
M  V30 1649 H 156.547 2.39066 6.01212 0
M  V30 1650 N 156.679 -1.44442 0.630414 0
M  V30 1651 C 157.612 -2.27862 -0.124247 0
M  V30 1652 C 158.59 -1.38495 -0.851931 0
M  V30 1653 O 159.774 -1.67935 -0.856166 0
M  V30 1654 C 156.901 -3.17407 -1.18197 0
M  V30 1655 C 155.947 -4.22875 -0.554892 0
M  V30 1656 S 156.78 -5.31485 0.654489 0
M  V30 1657 C 157.936 -6.246 -0.40326 0
M  V30 1658 H 158.169 -2.91519 0.583435 0
M  V30 1659 H 155.702 -1.48618 0.418565 0
M  V30 1660 H 157.66 -3.69549 -1.78728 0
M  V30 1661 H 156.321 -2.52971 -1.86184 0
M  V30 1662 H 155.514 -4.85542 -1.35148 0
M  V30 1663 H 155.116 -3.73992 -0.0242105 0
M  V30 1664 H 157.408 -6.65375 -1.27602 0
M  V30 1665 H 158.351 -7.07851 0.187813 0
M  V30 1666 H 158.759 -5.59775 -0.728837 0
M  V30 1667 N 158.157 -0.370918 -1.53173 0
M  V30 1668 C 159.105 0.488101 -2.27421 0
M  V30 1669 C 160.099 1.07884 -1.30604 0
M  V30 1670 O 161.305 1.02143 -1.48212 0
M  V30 1671 H 157.68 0.176134 -0.731082 0
M  V30 1672 H 159.651 -0.159815 -2.97972 0
M  V30 1673 C 158.4 1.61306 -3.08019 0
M  V30 1674 H 157.723 1.1678 -3.82364 0
M  V30 1675 H 159.163 2.18872 -3.63141 0
M  V30 1676 C 157.622 2.55848 -2.19188 0
M  V30 1677 O 158.152 3.58799 -1.80626 0
M  V30 1678 N 156.358 2.2516 -1.83715 0
M  V30 1679 H 155.905 1.41476 -2.15273 0
M  V30 1680 H 155.863 2.8867 -1.24567 0
M  V30 1681 N 159.635 1.57281 -0.100228 0
M  V30 1682 C 160.912 1.86014 0.604812 0
M  V30 1683 C 161.292 0.998025 1.86018 0
M  V30 1684 O 160.64 0.0718184 2.28387 0
M  V30 1685 C 160.85 3.36784 0.915278 0
M  V30 1686 C 162.198 4.04957 1.27651 0
M  V30 1687 O 163.222 3.41695 1.00613 0
M  V30 1688 O 162.081 5.16593 1.7831 0
M  V30 1689 H 159.175 0.76942 0.303185 0
M  V30 1690 H 161.721 1.69176 -0.133313 0
M  V30 1691 H 160.493 3.91292 0.0248896 0
M  V30 1692 H 160.116 3.58987 1.70921 0
M  V30 1693 N 161.113 -0.173488 1.56642 0
M  V30 1694 C 162.338 -0.910149 1.86363 0
M  V30 1695 C 162.763 -1.75132 0.686318 0
M  V30 1696 O 162.121 -1.77595 -0.364643 0
M  V30 1697 C 162.169 -1.76447 3.14482 0
M  V30 1698 O 161.273 -2.86584 2.96553 0
M  V30 1699 H 160.614 -0.255086 0.613047 0
M  V30 1700 H 163.144 -0.172283 2.03873 0
M  V30 1701 H 163.154 -2.16483 3.45831 0
M  V30 1702 H 161.829 -1.14658 3.99783 0
M  V30 1703 H 160.406 -2.50146 2.76553 0
M  V30 1704 N 162.591 -1.51276 -0.441967 0
M  V30 1705 C 163.839 -1.63392 -1.18943 0
M  V30 1706 C 164.16 -0.350159 -1.9183 0
M  V30 1707 O 163.43 0.633784 -1.85364 0
M  V30 1708 H 162.01 -0.602164 -0.442049 0
M  V30 1709 H 164.672 -1.88186 -0.507165 0
M  V30 1710 H 163.768 -2.45934 -1.92154 0
M  V30 1711 N 164.069 0.697108 -1.41344 0
M  V30 1712 C 165.032 1.79281 -1.42797 0
M  V30 1713 C 166.032 1.57607 -0.318837 0
M  V30 1714 O 167.222 1.64309 -0.578642 0
M  V30 1715 C 164.354 3.17632 -1.23785 0
M  V30 1716 H 165.547 1.79385 -2.40335 0
M  V30 1717 H 163.1 0.904582 -1.27464 0
M  V30 1718 H 163.835 3.23167 -0.270814 0
M  V30 1719 H 163.62 3.34765 -2.04144 0
M  V30 1720 H 165.11 3.97617 -1.27633 0
M  V30 1721 N 165.547 1.27147 0.931209 0
M  V30 1722 C 166.772 1.16191 1.71797 0
M  V30 1723 C 167.197 -0.278004 1.86034 0
M  V30 1724 O 166.555 -1.20137 1.35782 0
M  V30 1725 C 166.603 1.84673 3.09723 0
M  V30 1726 O 165.707 1.14231 3.96264 0
M  V30 1727 H 165.048 0.404303 0.526721 0
M  V30 1728 H 167.578 1.68152 1.1656 0
M  V30 1729 H 167.588 1.91893 3.60057 0
M  V30 1730 H 166.263 2.89421 2.98677 0
M  V30 1731 H 164.84 1.15056 3.54706 0
M  V30 1732 N 167.025 -1.13721 1.09112 0
M  V30 1733 C 168.253 -1.88773 0.846899 0
M  V30 1734 C 168.668 -1.7896 -0.601572 0
M  V30 1735 O 168.025 -1.15394 -1.41388 0
M  V30 1736 C 168.076 -3.3849 1.26913 0
M  V30 1737 O 167.797 -3.48043 2.66079 0
M  V30 1738 C 169.298 -4.30518 1.05682 0
M  V30 1739 H 166.518 -0.59772 0.304914 0
M  V30 1740 H 169.062 -1.43977 1.45227 0
M  V30 1741 H 167.217 -3.80881 0.707723 0
M  V30 1742 H 167.631 -4.4109 2.83795 0
M  V30 1743 H 169.105 -5.3391 1.40156 0
M  V30 1744 H 169.582 -4.392 -0.00563416 0
M  V30 1745 H 170.188 -3.93893 1.60402 0
M  V30 1746 N 168.503 -0.877838 -1.30888 0
M  V30 1747 C 169.45 -0.337538 -2.28318 0
M  V30 1748 C 170.42 0.568346 -1.56074 0
M  V30 1749 O 171.605 0.498298 -1.84178 0
M  V30 1750 C 168.745 0.448142 -3.42178 0
M  V30 1751 C 167.858 -0.48615 -4.29256 0
M  V30 1752 C 166.993 0.314427 -5.30269 0
M  V30 1753 C 166.032 -0.615791 -6.08995 0
M  V30 1754 N 165.169 0.14902 -7.01942 0
M  V30 1755 H 170.009 -1.17356 -2.73919 0
M  V30 1756 H 167.546 -0.590094 -1.34745 0
M  V30 1757 H 169.504 0.919517 -4.06941 0
M  V30 1758 H 168.134 1.24879 -2.97666 0
M  V30 1759 H 167.186 -1.076 -3.64865 0
M  V30 1760 H 168.498 -1.19909 -4.84173 0
M  V30 1761 H 167.652 0.847969 -6.00745 0
M  V30 1762 H 166.391 1.06062 -4.76027 0
M  V30 1763 H 165.396 -1.16102 -5.37401 0
M  V30 1764 H 166.621 -1.36097 -6.65323 0
M  V30 1765 H 164.567 0.877884 -6.50099 0
M  V30 1766 H 164.484 -0.504433 -7.54315 0
M  V30 1767 H 165.752 0.663537 -7.76671 0
M  V30 1768 N 169.982 1.44106 -0.638065 0
M  V30 1769 C 171.207 2.0685 -0.150916 0
M  V30 1770 C 171.632 1.47417 1.16833 0
M  V30 1771 O 170.99 0.578264 1.71831 0
M  V30 1772 C 171.038 3.60555 -0.05708 0
M  V30 1773 O 170.142 4.00465 0.984972 0
M  V30 1774 H 169.483 0.658151 -0.0879399 0
M  V30 1775 H 172.013 1.84865 -0.876707 0
M  V30 1776 H 172.023 4.07789 0.131232 0
M  V30 1777 H 170.698 4.03193 -1.02021 0
M  V30 1778 H 169.275 3.64849 0.770672 0
M  V30 1779 N 171.46 0.379036 1.52974 0
M  V30 1780 C 172.708 -0.206014 2.01047 0
M  V30 1781 C 173.029 -1.48175 1.26765 0
M  V30 1782 O 172.299 -1.92085 0.384743 0
M  V30 1783 H 170.879 -0.0791184 0.742798 0
M  V30 1784 H 173.541 0.508366 1.88153 0
M  V30 1785 H 172.637 -0.423501 3.09213 0
M  V30 1786 N 172.938 -1.57226 0.108567 0
M  V30 1787 C 173.901 -2.13602 -0.831082 0
M  V30 1788 C 174.901 -1.06841 -1.20173 0
M  V30 1789 O 176.091 -1.32666 -1.12895 0
M  V30 1790 C 173.223 -2.66769 -2.12243 0
M  V30 1791 H 174.416 -2.97951 -0.341317 0
M  V30 1792 H 171.969 -1.55667 -0.14057 0
M  V30 1793 H 172.704 -1.85977 -2.65675 0
M  V30 1794 H 172.489 -3.44839 -1.86625 0
M  V30 1795 H 173.979 -3.10332 -2.79435 0
M  V30 1796 N 174.416 0.165178 -1.56732 0
M  V30 1797 C 175.646 0.894919 -1.86212 0
M  V30 1798 C 176.054 1.76066 -0.692627 0
M  V30 1799 O 175.397 1.80387 0.347303 0
M  V30 1800 C 175.459 1.8174 -3.10179 0
M  V30 1801 C 175.123 1.13064 -4.42793 0
M  V30 1802 C 176.12 0.493169 -5.17556 0
M  V30 1803 C 173.805 1.12556 -4.89527 0
M  V30 1804 C 175.799 -0.140209 -6.37246 0
M  V30 1805 C 173.486 0.488366 -6.09145 0
M  V30 1806 C 174.484 -0.143411 -6.82849 0
M  V30 1807 O 174.172 -0.77055 -8.00199 0
M  V30 1808 H 173.904 0.265114 -0.621844 0
M  V30 1809 H 176.458 0.168242 -2.0471 0
M  V30 1810 H 174.688 2.58455 -2.87642 0
M  V30 1811 H 176.377 2.4175 -3.26055 0
M  V30 1812 H 177.143 0.489023 -4.82528 0
M  V30 1813 H 173.022 1.60672 -4.32094 0
M  V30 1814 H 176.566 -0.633932 -6.94714 0
M  V30 1815 H 172.463 0.490116 -6.43637 0
M  V30 1816 H 173.231 -0.670408 -8.1575 0
M  V30 1817 N 175.894 1.51508 0.433938 0
M  V30 1818 C 177.143 1.63578 1.18005 0
M  V30 1819 C 177.456 0.359514 1.92268 0
M  V30 1820 O 178.662 0.359632 2.69108 0
M  V30 1821 C 177.118 2.88901 2.14626 0
M  V30 1822 C 176.726 4.23544 1.45995 0
M  V30 1823 C 178.47 3.10328 2.89649 0
M  V30 1824 C 176.377 5.40014 2.4112 0
M  V30 1825 H 175.307 0.609277 0.444182 0
M  V30 1826 H 177.958 1.77978 0.446773 0
M  V30 1827 H 176.34 2.68142 2.91403 0
M  V30 1828 H 177.514 4.54696 0.747532 0
M  V30 1829 H 175.829 4.08021 0.831115 0
M  V30 1830 H 178.426 3.94518 3.60915 0
M  V30 1831 H 178.769 2.23544 3.51189 0
M  V30 1832 H 179.302 3.31443 2.19978 0
M  V30 1833 H 176.041 6.29068 1.84264 0
M  V30 1834 H 175.561 5.13233 3.10406 0
M  V30 1835 H 177.24 5.72099 3.02177 0
M  V30 1836 N 177.372 -0.689602 1.41712 0
M  V30 1837 C 178.6 -1.47827 1.44758 0
M  V30 1838 C 179.015 -1.88721 0.0545703 0
M  V30 1839 O 178.372 -1.57176 -0.927463 0
M  V30 1840 C 178.423 -2.73698 2.3616 0
M  V30 1841 O 178.144 -2.34524 3.7004 0
M  V30 1842 C 179.645 -3.67389 2.48072 0
M  V30 1843 H 176.865 -0.455357 0.49284 0
M  V30 1844 H 179.409 -0.848574 1.86063 0
M  V30 1845 H 177.564 -3.32891 1.98148 0
M  V30 1846 H 177.978 -3.15701 4.18847 0
M  V30 1847 H 179.452 -4.52475 3.16181 0
M  V30 1848 H 179.929 -4.12284 1.51388 0
M  V30 1849 H 180.535 -3.14097 2.86746 0
M  V30 1850 N 178.85 -1.27639 -0.924453 0
M  V30 1851 C 180.261 -1.12834 -1.48746 0
M  V30 1852 C 180.612 0.285505 -1.94112 0
M  V30 1853 O 179.737 1.17874 -1.81479 0
M  V30 1854 C 180.332 -2.04217 -2.70334 0
M  V30 1855 C 178.891 -1.93509 -3.22848 0
M  V30 1856 C 178.038 -1.96583 -1.95577 0
M  V30 1857 H 180.989 -1.40484 -0.738233 0
M  V30 1858 H 181.01 -1.59989 -3.4523 0
M  V30 1859 H 180.522 -3.07111 -2.37285 0
M  V30 1860 H 178.623 -0.936131 -3.60649 0
M  V30 1861 H 178.736 -2.79917 -3.88823 0
M  V30 1862 H 177.1 -1.4085 -2.12211 0
M  V30 1863 H 177.883 -3.01137 -1.64837 0
M  V30 1864 N 180.328 1.1314 -1.09713 0
M  V30 1865 C 181.291 2.16831 -0.742751 0
M  V30 1866 C 182.291 1.59159 0.229129 0
M  V30 1867 O 183.481 1.74199 0.00693237 0
M  V30 1868 C 180.613 3.40756 -0.0989168 0
M  V30 1869 H 181.806 2.49695 -1.66109 0
M  V30 1870 H 179.359 1.2802 -0.896699 0
M  V30 1871 H 180.094 3.13485 0.830514 0
M  V30 1872 H 179.879 3.83888 -0.798265 0
M  V30 1873 H 181.369 4.17386 0.133524 0
M  V30 1874 N 181.806 0.884767 1.30421 0
M  V30 1875 C 183.054 0.502112 1.95763 0
M  V30 1876 C 183.375 -0.951815 1.70192 0
M  V30 1877 O 182.645 -1.6692 1.0254 0
M  V30 1878 H 181.225 0.182694 0.724315 0
M  V30 1879 H 183.887 1.1278 1.58955 0
M  V30 1880 H 182.983 0.672188 3.04775 0
M  V30 1881 N 183.284 -1.43765 0.645699 0
M  V30 1882 C 184.194 -2.34544 -0.0512957 0
M  V30 1883 C 185.21 -1.53455 -0.82022 0
M  V30 1884 O 186.386 -1.86133 -0.769176 0
M  V30 1885 C 183.451 -3.31636 -1.01087 0
M  V30 1886 C 182.512 -4.2863 -0.239712 0
M  V30 1887 C 181.745 -5.21084 -1.15358 0
M  V30 1888 O 181.968 -5.1779 -2.39269 0
M  V30 1889 O 180.902 -5.98593 -0.630038 0
M  V30 1890 H 184.728 -2.95624 0.695718 0
M  V30 1891 H 182.313 -1.43781 0.405882 0
M  V30 1892 H 184.195 -3.9136 -1.56254 0
M  V30 1893 H 182.87 -2.73069 -1.73824 0
M  V30 1894 H 181.777 -3.72408 0.355356 0
M  V30 1895 H 183.11 -4.90157 0.447936 0
M  V30 1896 N 184.763 -0.387143 -1.52771 0
M  V30 1897 C 185.991 0.195869 -2.05971 0
M  V30 1898 C 186.406 1.40691 -1.25903 0
M  V30 1899 O 185.763 1.79931 -0.305134 0
M  V30 1900 C 185.814 0.56812 -3.57008 0
M  V30 1901 O 185.535 -0.594803 -4.34043 0
M  V30 1902 C 187.036 1.20723 -4.26545 0
M  V30 1903 H 184.256 0.0300578 -0.670326 0
M  V30 1904 H 186.8 -0.551749 -1.96916 0
M  V30 1905 H 184.955 1.26564 -3.66143 0
M  V30 1906 H 185.369 -0.289322 -5.23701 0
M  V30 1907 H 186.843 1.41807 -5.33474 0
M  V30 1908 H 187.32 2.17395 -3.81623 0
M  V30 1909 H 187.926 0.550535 -4.21722 0
M  V30 1910 N 186.241 1.57166 -0.116904 0
M  V30 1911 C 187.489 1.94737 0.540533 0
M  V30 1912 C 187.81 1.00096 1.67349 0
M  V30 1913 O 187.08 0.0568854 1.95817 0
M  V30 1914 H 185.66 0.718981 0.202669 0
M  V30 1915 H 188.322 1.94017 -0.185353 0
M  V30 1916 H 187.418 2.97719 0.936483 0
M  V30 1917 N 187.719 -0.156864 1.56817 0
M  V30 1918 C 188.967 -0.869404 1.82444 0
M  V30 1919 C 189.288 -1.82147 0.69623 0
M  V30 1920 O 188.558 -1.93847 -0.28287 0
M  V30 1921 H 187.138 -0.324043 0.673056 0
M  V30 1922 H 189.8 -0.153224 1.94297 0
M  V30 1923 H 188.896 -1.43761 2.77019 0
M  V30 1924 N 189.197 -1.51736 -0.425897 0
M  V30 1925 C 190.16 -1.73271 -1.50032 0
M  V30 1926 C 191.16 -0.602639 -1.4908 0
M  V30 1927 O 192.35 -0.87033 -1.509 0
M  V30 1928 C 189.482 -1.79969 -2.89523 0
M  V30 1929 H 190.675 -2.69172 -1.32237 0
M  V30 1930 H 188.228 -1.41899 -0.65532 0
M  V30 1931 H 188.963 -0.859241 -3.1271 0
M  V30 1932 H 188.748 -2.62109 -2.91619 0
M  V30 1933 H 190.238 -1.9843 -3.67444 0
M  V30 1934 N 190.675 0.682077 -1.42076 0
M  V30 1935 C 191.924 1.43786 -1.41451 0
M  V30 1936 C 192.237 1.95574 -0.0317074 0
M  V30 1937 O 193.443 2.71326 0.0971462 0
M  V30 1938 C 191.899 2.60071 -2.48779 0
M  V30 1939 C 191.507 2.15013 -3.93031 0
M  V30 1940 C 193.251 3.37626 -2.57311 0
M  V30 1941 C 191.158 3.28336 -4.91883 0
M  V30 1942 H 190.088 0.540143 -0.526082 0
M  V30 1943 H 192.739 0.739157 -1.67955 0
M  V30 1944 H 191.121 3.32275 -2.15429 0
M  V30 1945 H 192.295 1.5001 -4.35699 0
M  V30 1946 H 190.61 1.50416 -3.88284 0
M  V30 1947 H 193.207 4.22012 -3.28345 0
M  V30 1948 H 193.55 3.83727 -1.61429 0
M  V30 1949 H 194.083 2.72488 -2.89819 0
M  V30 1950 H 190.822 2.87234 -5.89217 0
M  V30 1951 H 190.342 3.92145 -4.53853 0
M  V30 1952 H 192.021 3.93913 -5.13265 0
M  V30 1953 N 192.153 1.28127 0.917671 0
M  V30 1954 C 193.401 1.14825 1.66312 0
M  V30 1955 C 193.722 -0.304379 1.9261 0
M  V30 1956 O 192.992 -1.21149 1.53947 0
M  V30 1957 H 191.572 0.421953 0.616413 0
M  V30 1958 H 194.234 1.608 1.10134 0
M  V30 1959 H 193.33 1.68489 2.62712 0
M  V30 1960 N 193.631 -1.12557 1.10312 0
M  V30 1961 C 195.047 -1.36036 0.834649 0
M  V30 1962 C 195.247 -1.93946 -0.546539 0
M  V30 1963 O 194.303 -2.16484 -1.29966 0
M  V30 1964 C 195.616 -2.30312 1.9333 0
M  V30 1965 C 197.164 -2.43906 1.9616 0
M  V30 1966 C 197.639 -3.41496 3.05195 0
M  V30 1967 N 199.13 -3.49053 3.04494 0
M  V30 1968 C 199.865 -4.24471 3.85502 0
M  V30 1969 N 199.361 -5.02966 4.76442 0
M  V30 1970 N 201.154 -4.19864 3.73725 0
M  V30 1971 H 193.305 -0.733246 1.99342 0
M  V30 1972 H 195.568 -0.385234 0.866198 0
M  V30 1973 H 195.274 -1.94933 2.92735 0
M  V30 1974 H 195.148 -3.30421 1.81939 0
M  V30 1975 H 197.535 -2.78567 0.973886 0
M  V30 1976 H 197.616 -1.4369 2.11629 0
M  V30 1977 H 197.26 -3.07565 4.04186 0
M  V30 1978 H 197.19 -4.41539 2.86968 0
M  V30 1979 H 199.681 -2.93053 2.38596 0
M  V30 1980 H 199.994 -5.57846 5.34815 0
M  V30 1981 H 198.339 -5.02167 4.80472 0
M  V30 1982 H 201.53 -3.57623 3.02032 0
M  V30 1983 H 201.703 -4.78386 4.37093 0
M  V30 1984 N 195.109 -0.891671 -1.2995 0
M  V30 1985 C 196.039 -0.379797 -2.30391 0
M  V30 1986 C 197.02 0.540919 -1.6127 0
M  V30 1987 O 198.205 0.453352 -1.88834 0
M  V30 1988 C 195.335 0.400654 -3.44981 0
M  V30 1989 C 194.289 -0.428905 -4.25846 0
M  V30 1990 C 193.615 0.478557 -5.32554 0
M  V30 1991 C 194.915 -1.67458 -4.94727 0
M  V30 1992 H 196.609 -1.21914 -2.73454 0
M  V30 1993 H 194.155 -0.587675 -1.31462 0
M  V30 1994 H 196.108 0.769434 -4.14316 0
M  V30 1995 H 194.832 1.27371 -3.0074 0
M  V30 1996 H 193.491 -0.779911 -3.58208 0
M  V30 1997 H 193.139 1.34951 -4.84559 0
M  V30 1998 H 192.839 -0.0727433 -5.87555 0
M  V30 1999 H 194.363 0.843705 -6.04743 0
M  V30 2000 H 195.777 -1.376 -5.56542 0
M  V30 2001 H 194.174 -2.16659 -5.59624 0
M  V30 2002 H 195.244 -2.41518 -4.20473 0
M  V30 2003 N 196.587 1.43421 -0.653314 0
M  V30 2004 C 197.835 2.01414 -0.166415 0
M  V30 2005 C 198.156 1.51803 1.22397 0
M  V30 2006 O 197.426 0.730693 1.81763 0
M  V30 2007 H 196.006 0.744703 -0.0585319 0
M  V30 2008 H 198.668 1.75629 -0.845003 0
M  V30 2009 H 197.764 3.11734 -0.151111 0
M  V30 2010 N 198.065 0.39524 1.52563 0
M  V30 2011 C 199.013 -0.451859 2.28169 0
M  V30 2012 C 200.007 -1.05792 1.32304 0
M  V30 2013 O 201.213 -0.997718 1.49818 0
M  V30 2014 H 197.588 -0.164481 0.733792 0
M  V30 2015 H 199.559 0.207199 2.9768 0
M  V30 2016 C 198.308 -1.56385 3.10546 0
M  V30 2017 H 197.631 -1.10682 3.84174 0
M  V30 2018 H 199.071 -2.13067 3.66577 0
M  V30 2019 C 197.53 -2.52328 2.23231 0
M  V30 2020 O 198.06 -3.5588 1.86312 0
M  V30 2021 N 196.266 -2.22209 1.87274 0
M  V30 2022 H 195.813 -1.38033 2.17496 0
M  V30 2023 H 195.771 -2.86652 1.29143 0
M  V30 2024 N 199.544 -1.57102 0.125237 0
M  V30 2025 C 200.476 -2.12726 -0.853237 0
M  V30 2026 C 201.489 -1.07145 -1.22571 0
M  V30 2027 O 202.678 -1.34497 -1.17358 0
M  V30 2028 C 199.778 -2.61709 -2.15317 0
M  V30 2029 C 198.951 -3.91456 -1.95143 0
M  V30 2030 C 198.01 -4.25973 -3.08923 0
M  V30 2031 O 197.036 -4.94682 -2.81564 0
M  V30 2032 N 198.238 -3.83795 -4.35524 0
M  V30 2033 H 201.003 -2.97307 -0.377964 0
M  V30 2034 H 198.564 -1.61792 -0.0590011 0
M  V30 2035 H 200.556 -2.81826 -2.90441 0
M  V30 2036 H 199.126 -1.81974 -2.54174 0
M  V30 2037 H 198.346 -3.80185 -1.04177 0
M  V30 2038 H 199.634 -4.76283 -1.78976 0
M  V30 2039 H 199.032 -3.2839 -4.60626 0
M  V30 2040 H 197.589 -4.09008 -5.07499 0
M  V30 2041 N 201.022 0.148545 -1.56898 0
M  V30 2042 C 201.985 1.16736 -1.97244 0
M  V30 2043 C 202.985 1.35947 -0.858777 0
M  V30 2044 O 204.175 1.32966 -1.12542 0
M  V30 2045 C 201.307 2.52798 -2.28705 0
M  V30 2046 H 202.5 0.821279 -2.88435 0
M  V30 2047 H 200.053 0.391831 -1.51309 0
M  V30 2048 H 200.788 2.92381 -1.403 0
M  V30 2049 H 200.573 2.40216 -3.09901 0
M  V30 2050 H 202.063 3.26179 -2.60762 0
M  V30 2051 N 202.5 1.5196 0.417844 0
M  V30 2052 C 203.777 1.56146 1.17803 0
M  V30 2053 C 204.157 0.337275 2.08388 0
M  V30 2054 O 203.505 -0.676447 2.18258 0
M  V30 2055 C 203.715 2.88566 1.96293 0
M  V30 2056 C 205.063 3.41244 2.52662 0
M  V30 2057 O 206.087 2.90247 2.06483 0
M  V30 2058 O 204.946 4.30273 3.36938 0
M  V30 2059 H 202.04 0.628598 0.537395 0
M  V30 2060 H 204.586 1.64283 0.425331 0
M  V30 2061 H 203.358 3.69116 1.2988 0
M  V30 2062 H 202.981 2.83681 2.78587 0
M  V30 2063 N 203.978 -0.674533 1.42435 0
M  V30 2064 C 205.206 -1.46283 1.46317 0
M  V30 2065 C 205.621 -1.88653 0.0745836 0
M  V30 2066 O 204.978 -1.58151 -0.91074 0
M  V30 2067 C 205.029 -2.71178 2.3905 0
M  V30 2068 O 204.75 -2.30586 3.72507 0
M  V30 2069 C 206.251 -3.64738 2.51955 0
M  V30 2070 H 203.471 -0.450104 0.497642 0
M  V30 2071 H 206.015 -0.828792 1.86953 0
M  V30 2072 H 204.17 -3.3077 2.01667 0
M  V30 2073 H 204.584 -3.11241 4.22172 0
M  V30 2074 H 206.058 -4.49096 3.20962 0
M  V30 2075 H 206.535 -4.10656 1.55752 0
M  V30 2076 H 207.141 -3.11038 2.90061 0
M  V30 2077 N 205.456 -1.28612 -0.910864 0
M  V30 2078 C 206.686 -1.1862 -1.69153 0
M  V30 2079 C 207.094 0.257324 -1.87442 0
M  V30 2080 O 206.437 1.18543 -1.40332 0
M  V30 2081 C 206.499 -1.81606 -3.10257 0
M  V30 2082 C 206.163 -3.30864 -3.15243 0
M  V30 2083 C 207.16 -4.27256 -2.96223 0
M  V30 2084 C 204.845 -3.71871 -3.37664 0
M  V30 2085 C 206.839 -5.62631 -2.99541 0
M  V30 2086 C 204.526 -5.07371 -3.40614 0
M  V30 2087 C 205.524 -6.02561 -3.21573 0
M  V30 2088 O 205.212 -7.35589 -3.2429 0
M  V30 2089 H 204.944 -0.412633 -0.535453 0
M  V30 2090 H 207.498 -1.70306 -1.14827 0
M  V30 2091 H 205.728 -1.24418 -3.66138 0
M  V30 2092 H 207.417 -1.66092 -3.70362 0
M  V30 2093 H 208.183 -3.9691 -2.78725 0
M  V30 2094 H 204.062 -2.98241 -3.5153 0
M  V30 2095 H 207.606 -6.36907 -2.84597 0
M  V30 2096 H 203.503 -5.37366 -3.57642 0
M  V30 2097 H 204.271 -7.44252 -3.40633 0
M  V30 2098 N 206.934 1.1197 -1.10907 0
M  V30 2099 C 208.18 1.8386 -0.855773 0
M  V30 2100 C 208.513 1.84134 0.617103 0
M  V30 2101 O 207.788 1.29041 1.45529 0
M  V30 2102 C 208.071 3.31305 -1.411 0
M  V30 2103 C 207.924 3.39456 -2.9511 0
M  V30 2104 C 209.243 4.2721 -1.05736 0
M  V30 2105 H 206.362 0.667545 -0.312334 0
M  V30 2106 H 209.004 1.31331 -1.37303 0
M  V30 2107 H 207.154 3.76169 -0.97105 0
M  V30 2108 H 208.826 3.03191 -3.47668 0
M  V30 2109 H 207.069 2.79849 -3.31462 0
M  V30 2110 H 207.74 4.43209 -3.29044 0
M  V30 2111 H 210.216 3.90497 -1.43706 0
M  V30 2112 H 209.092 5.28775 -1.47269 0
M  V30 2113 H 209.353 4.42088 0.0325958 0
M  V30 2114 N 208.412 0.89855 1.29475 0
M  V30 2115 C 209.322 0.379974 2.31502 0
M  V30 2116 C 210.338 -0.524695 1.659 0
M  V30 2117 O 211.514 -0.414551 1.97087 0
M  V30 2118 C 208.579 -0.385138 3.44554 0
M  V30 2119 C 207.64 0.550914 4.2575 0
M  V30 2120 C 206.873 -0.177778 5.33404 0
M  V30 2121 O 207.096 -1.40189 5.52904 0
M  V30 2122 O 206.03 0.479106 5.9999 0
M  V30 2123 H 209.856 1.22639 2.77837 0
M  V30 2124 H 207.441 0.662834 1.33891 0
M  V30 2125 H 209.323 -0.817841 4.13388 0
M  V30 2126 H 207.998 -1.20763 3.0033 0
M  V30 2127 H 206.905 1.03271 3.59564 0
M  V30 2128 H 208.238 1.33979 4.73614 0
M  V30 2129 N 209.89 -1.43072 0.660911 0
M  V30 2130 C 210.823 -2.28074 -0.0758862 0
M  V30 2131 C 211.801 -1.40271 -0.822362 0
M  V30 2132 O 212.985 -1.69713 -0.820352 0
M  V30 2133 C 210.112 -3.19843 -1.11437 0
M  V30 2134 C 209.158 -4.23957 -0.465069 0
M  V30 2135 S 209.991 -5.29978 0.767078 0
M  V30 2136 C 211.147 -6.25314 -0.270682 0
M  V30 2137 H 211.38 -2.90216 0.645139 0
M  V30 2138 H 208.913 -1.47697 0.449995 0
M  V30 2139 H 210.871 -3.73257 -1.70849 0
M  V30 2140 H 209.532 -2.56863 -1.80776 0
M  V30 2141 H 208.725 -4.88299 -1.24819 0
M  V30 2142 H 208.327 -3.73959 0.0551242 0
M  V30 2143 H 210.619 -6.67932 -1.13459 0
M  V30 2144 H 211.562 -7.07293 0.337916 0
M  V30 2145 H 211.97 -5.61195 -0.609937 0
M  V30 2146 N 211.368 -0.403325 -1.52352 0
M  V30 2147 C 212.316 0.439752 -2.28405 0
M  V30 2148 C 213.31 1.05089 -1.32863 0
M  V30 2149 O 214.516 0.989759 -1.50345 0
M  V30 2150 H 210.891 0.160587 -0.734653 0
M  V30 2151 H 212.862 -0.222983 -2.97566 0
M  V30 2152 C 211.611 1.54736 -3.11371 0
M  V30 2153 H 210.934 1.08643 -3.84755 0
M  V30 2154 H 212.374 2.1112 -3.67701 0
M  V30 2155 C 210.833 2.51141 -2.24566 0
M  V30 2156 O 211.363 3.54887 -1.88196 0
M  V30 2157 N 209.569 2.21213 -1.8845 0
M  V30 2158 H 209.116 1.36878 -2.18225 0
M  V30 2159 H 209.074 2.85963 -1.30662 0
M  V30 2160 N 212.846 1.57033 -0.133567 0
M  V30 2161 C 213.776 2.1909 0.807567 0
M  V30 2162 C 214.757 1.13517 1.26681 0
M  V30 2163 O 215.942 1.41809 1.32679 0
M  V30 2164 C 213.072 2.80188 2.05212 0
M  V30 2165 C 212.026 3.91471 1.73015 0
M  V30 2166 C 211.352 4.39443 3.04622 0
M  V30 2167 C 212.652 5.12886 0.987168 0
M  V30 2168 H 214.346 2.97988 0.290403 0
M  V30 2169 H 211.892 1.43335 0.138239 0
M  V30 2170 H 213.845 3.22264 2.71521 0
M  V30 2171 H 212.569 1.98601 2.59278 0
M  V30 2172 H 211.228 3.49993 1.0909 0
M  V30 2173 H 210.876 3.54695 3.56651 0
M  V30 2174 H 210.576 5.14495 2.83847 0
M  V30 2175 H 212.1 4.8418 3.72024 0
M  V30 2176 H 213.514 5.51891 1.55208 0
M  V30 2177 H 211.911 5.93615 0.87985 0
M  V30 2178 H 212.981 4.84894 -0.0235286 0
M  V30 2179 N 214.325 -0.140222 1.56975 0
M  V30 2180 C 215.235 -1.19223 2.02047 0
M  V30 2181 C 216.251 -1.46612 0.937062 0
M  V30 2182 O 217.427 -1.58148 1.24704 0
M  V30 2183 C 214.492 -2.50414 2.39778 0
M  V30 2184 C 213.553 -2.30612 3.621 0
M  V30 2185 C 212.786 -3.55547 3.98023 0
M  V30 2186 O 213.009 -4.62004 3.34528 0
M  V30 2187 O 211.943 -3.47808 4.91237 0
M  V30 2188 H 215.769 -0.839559 2.91865 0
M  V30 2189 H 213.354 -0.349453 1.45256 0
M  V30 2190 H 215.236 -3.27747 2.64877 0
M  V30 2191 H 213.911 -2.85198 1.53114 0
M  V30 2192 H 212.818 -1.51207 3.4218 0
M  V30 2193 H 214.151 -2.00741 4.49404 0
M  V30 2194 N 215.803 -1.52179 -0.40978 0
M  V30 2195 C 216.753 -1.71857 -1.49831 0
M  V30 2196 C 217.737 -0.572469 -1.50372 0
M  V30 2197 O 218.929 -0.829509 -1.56359 0
M  V30 2198 C 216.058 -1.87206 -2.87765 0
M  V30 2199 C 215.144 -3.07685 -2.91875 0
M  V30 2200 N 215.535 -4.30403 -2.65683 0
M  V30 2201 C 213.833 -3.07505 -3.23043 0
M  V30 2202 C 214.534 -5.11868 -2.76344 0
M  V30 2203 N 213.51 -4.47101 -3.09195 0
M  V30 2204 H 217.312 -2.64381 -1.28375 0
M  V30 2205 H 214.826 -1.50203 -0.617479 0
M  V30 2206 H 216.823 -1.99419 -3.66111 0
M  V30 2207 H 215.483 -0.958814 -3.10221 0
M  V30 2208 H 216.494 -4.58887 -2.4009 0
M  V30 2209 H 213.171 -2.25915 -3.51096 0
M  V30 2210 H 214.561 -6.19634 -2.59814 0
M  V30 2211 N 217.281 0.66697 -1.42791 0
M  V30 2212 C 218.228 1.7803 -1.4688 0
M  V30 2213 C 219.198 1.6299 -0.319919 0
M  V30 2214 O 220.383 1.83432 -0.525118 0
M  V30 2215 C 217.523 3.1611 -1.38451 0
M  V30 2216 C 216.636 3.42381 -2.63437 0
M  V30 2217 C 215.771 4.70232 -2.47094 0
M  V30 2218 C 214.81 4.89564 -3.67415 0
M  V30 2219 N 213.947 6.08661 -3.49966 0
M  V30 2220 H 218.787 1.7387 -2.42019 0
M  V30 2221 H 216.324 0.84868 -1.20149 0
M  V30 2222 H 218.282 3.95914 -1.31561 0
M  V30 2223 H 216.912 3.19374 -0.469033 0
M  V30 2224 H 215.964 2.56774 -2.80662 0
M  V30 2225 H 217.276 3.52557 -3.52853 0
M  V30 2226 H 216.43 5.5814 -2.37834 0
M  V30 2227 H 215.169 4.62353 -1.5518 0
M  V30 2228 H 214.174 4.00096 -3.77099 0
M  V30 2229 H 215.399 4.99282 -4.6032 0
M  V30 2230 H 213.345 6.0194 -2.60776 0
M  V30 2231 H 213.262 6.19733 -4.32975 0
M  V30 2232 H 214.53 6.99226 -3.44532 0
M  V30 2233 N 218.759 1.29093 0.90403 0
M  V30 2234 C 219.691 1.09658 2.01266 0
M  V30 2235 C 220.704 0.0453729 1.62737 0
M  V30 2236 O 221.893 0.289446 1.76138 0
M  V30 2237 C 218.993 0.646278 3.32681 0
M  V30 2238 C 218.166 1.77505 3.99763 0
M  V30 2239 C 217.225 1.31649 5.09465 0
M  V30 2240 O 216.251 2.02045 5.32134 0
M  V30 2241 N 217.453 0.184997 5.80205 0
M  V30 2242 H 220.218 2.05135 2.18494 0
M  V30 2243 H 217.779 1.20975 1.07594 0
M  V30 2244 H 219.771 0.322906 4.0341 0
M  V30 2245 H 218.341 -0.215916 3.11853 0
M  V30 2246 H 217.561 2.26752 3.22455 0
M  V30 2247 H 218.849 2.53198 4.41325 0
M  V30 2248 H 218.247 -0.402021 5.6427 0
M  V30 2249 H 216.804 -0.0790358 6.51752 0
M  V30 2250 N 220.237 -1.11381 1.11499 0
M  V30 2251 C 221.465 -1.86934 0.88675 0
M  V30 2252 C 221.88 -1.80195 -0.563476 0
M  V30 2253 O 221.237 -1.18367 -1.38908 0
M  V30 2254 C 221.288 -3.35722 1.34064 0
M  V30 2255 O 221.009 -3.4232 2.73401 0
M  V30 2256 C 222.51 -4.2818 1.14791 0
M  V30 2257 H 219.73 -0.591117 0.317523 0
M  V30 2258 H 222.274 -1.40865 1.48248 0
M  V30 2259 H 220.429 -3.79294 0.788355 0
M  V30 2260 H 220.843 -4.34971 2.93087 0
M  V30 2261 H 222.317 -5.30817 1.5145 0
M  V30 2262 H 222.794 -4.39113 0.0875279 0
M  V30 2263 H 223.4 -3.90402 1.68721 0
M  V30 2264 N 221.715 -0.905404 -1.28997 0
M  V30 2265 C 222.645 -0.404212 -2.29975 0
M  V30 2266 C 223.626 0.523784 -1.61835 0
M  V30 2267 O 224.811 0.433298 -1.89304 0
M  V30 2268 C 221.941 0.364042 -3.45387 0
M  V30 2269 C 220.895 -0.474048 -4.25367 0
M  V30 2270 C 220.221 0.422045 -5.33032 0
M  V30 2271 C 221.521 -1.72696 -4.92923 0
M  V30 2272 H 223.215 -1.24807 -2.72146 0
M  V30 2273 H 220.761 -0.601585 -1.30832 0
M  V30 2274 H 222.714 0.725447 -4.15109 0
M  V30 2275 H 221.438 1.24174 -3.02074 0
M  V30 2276 H 220.097 -0.81786 -3.57361 0
M  V30 2277 H 219.745 1.29804 -4.85963 0
M  V30 2278 H 219.445 -0.135057 -5.87445 0
M  V30 2279 H 220.969 0.779517 -6.05604 0
M  V30 2280 H 222.383 -1.43495 -5.55051 0
M  V30 2281 H 220.78 -2.22582 -5.57295 0
M  V30 2282 H 221.85 -2.45964 -4.17887 0
M  V30 2283 N 223.193 1.4272 -0.668489 0
M  V30 2284 C 224.47 1.95248 -0.117373 0
M  V30 2285 C 224.85 1.60919 1.36632 0
M  V30 2286 O 224.198 0.902095 2.09939 0
M  V30 2287 C 224.408 3.46927 -0.379806 0
M  V30 2288 C 225.756 4.23588 -0.292923 0
M  V30 2289 O 226.78 3.5482 -0.313204 0
M  V30 2290 O 225.639 5.46017 -0.229697 0
M  V30 2291 H 222.733 0.827 0.00079152 0
M  V30 2292 H 225.279 1.52581 -0.742783 0
M  V30 2293 H 224.051 3.65096 -1.40786 0
M  V30 2294 H 223.674 3.96627 0.277923 0
M  V30 2295 N 224.671 0.411399 1.52136 0
M  V30 2296 C 225.619 -0.427633 2.28635 0
M  V30 2297 C 226.613 -1.04383 1.33419 0
M  V30 2298 O 227.819 -0.981772 1.50868 0
M  V30 2299 H 224.194 -0.156689 0.735495 0
M  V30 2300 H 226.165 0.238761 2.97443 0
M  V30 2301 C 224.914 -1.53082 3.12188 0
M  V30 2302 H 224.237 -1.06601 3.85326 0
M  V30 2303 H 225.677 -2.09167 3.68816 0
M  V30 2304 C 224.136 -2.49946 2.25895 0
M  V30 2305 O 224.666 -3.53884 1.90076 0
M  V30 2306 N 222.872 -2.2021 1.8962 0
M  V30 2307 H 222.419 -1.35719 2.18948 0
M  V30 2308 H 222.377 -2.85266 1.32176 0
M  V30 2309 N 226.149 -1.5696 0.141893 0
M  V30 2310 C 227.397 -1.95573 -0.509484 0
M  V30 2311 C 227.718 -1.02746 -1.65736 0
M  V30 2312 O 226.988 -0.0880311 -1.95702 0
M  V30 2313 H 225.568 -0.722115 -0.191205 0
M  V30 2314 H 228.23 -1.93697 0.216196 0
M  V30 2315 H 227.326 -2.99171 -0.889 0
M  V30 2316 N 227.627 0.131896 -1.57047 0
M  V30 2317 C 228.59 1.14638 -1.98471 0
M  V30 2318 C 229.59 1.35029 -0.873148 0
M  V30 2319 O 230.78 1.31764 -1.13946 0
M  V30 2320 C 227.912 2.50358 -2.31373 0
M  V30 2321 H 229.105 0.79064 -2.8929 0
M  V30 2322 H 226.658 0.375761 -1.51716 0
M  V30 2323 H 227.393 2.90876 -1.43393 0
M  V30 2324 H 227.178 2.36915 -3.12432 0
M  V30 2325 H 228.668 3.23395 -2.64207 0
M  V30 2326 N 229.106 1.52395 0.401703 0
M  V30 2327 C 230.334 1.70676 1.16949 0
M  V30 2328 C 230.749 0.419503 1.8408 0
M  V30 2329 O 230.106 -0.605061 1.72178 0
M  V30 2330 C 230.157 2.84753 2.22706 0
M  V30 2331 O 229.878 4.08495 1.58314 0
M  V30 2332 C 231.379 3.14608 3.12309 0
M  V30 2333 H 228.599 0.571787 0.351142 0
M  V30 2334 H 231.143 1.98987 0.471652 0
M  V30 2335 H 229.298 2.58941 2.88147 0
M  V30 2336 H 229.712 4.72117 2.28485 0
M  V30 2337 H 231.186 3.97923 3.82572 0
M  V30 2338 H 231.663 2.28464 3.75101 0
M  V30 2339 H 232.269 3.42212 2.52529 0
M  V30 2340 N 230.584 -0.659388 1.43143 0
M  V30 2341 C 231.812 -1.44723 1.47861 0
M  V30 2342 C 232.227 -1.88563 0.0945886 0
M  V30 2343 O 231.584 -1.59108 -0.893915 0
M  V30 2344 C 231.635 -2.68627 2.41913 0
M  V30 2345 O 231.356 -2.26623 3.74932 0
M  V30 2346 C 232.857 -3.62045 2.55809 0
M  V30 2347 H 230.077 -0.444801 0.502387 0
M  V30 2348 H 232.621 -0.808916 1.87821 0
M  V30 2349 H 230.776 -3.28613 2.05164 0
M  V30 2350 H 231.19 -3.06745 4.2545 0
M  V30 2351 H 232.664 -4.45666 3.25708 0
M  V30 2352 H 233.141 -4.08981 1.60099 0
M  V30 2353 H 233.747 -3.07944 2.93344 0
M  V30 2354 N 232.062 -1.29571 -0.897171 0
M  V30 2355 C 233.478 -1.07637 -1.17841 0
M  V30 2356 C 233.678 0.170713 -2.00776 0
M  V30 2357 O 232.734 0.867768 -2.3712 0
M  V30 2358 C 234.047 -2.3332 -1.8969 0
M  V30 2359 C 235.595 -2.38664 -2.02505 0
M  V30 2360 C 236.07 -3.64157 -2.77765 0
M  V30 2361 N 237.561 -3.64894 -2.85318 0
M  V30 2362 C 238.296 -4.58679 -3.44094 0
M  V30 2363 N 237.792 -5.62799 -4.04017 0
M  V30 2364 N 239.585 -4.46245 -3.41793 0
M  V30 2365 H 231.736 -2.09598 -0.343883 0
M  V30 2366 H 233.999 -0.923333 -0.214848 0
M  V30 2367 H 233.705 -3.24262 -1.36187 0
M  V30 2368 H 233.579 -2.41025 -2.9015 0
M  V30 2369 H 235.966 -1.48208 -2.55183 0
M  V30 2370 H 236.047 -2.34943 -1.01171 0
M  V30 2371 H 235.691 -4.54965 -2.25763 0
M  V30 2372 H 235.621 -3.65137 -3.7945 0
M  V30 2373 H 238.112 -2.89613 -2.42761 0
M  V30 2374 H 238.425 -6.3048 -4.46895 0
M  V30 2375 H 236.77 -5.66605 -4.02472 0
M  V30 2376 H 239.961 -3.64094 -2.94199 0
M  V30 2377 H 240.134 -5.19518 -3.87304 0
M  V30 2378 N 233.54 1.10788 -1.12088 0
M  V30 2379 C 234.787 1.82671 -0.873931 0
M  V30 2380 C 235.115 1.85004 0.600311 0
M  V30 2381 O 234.37 1.30365 1.45957 0
M  V30 2382 C 234.669 3.29294 -1.38926 0
M  V30 2383 C 234.335 3.47113 -2.87791 0
M  V30 2384 C 232.997 3.51684 -3.28439 0
M  V30 2385 C 235.349 3.52808 -3.83635 0
M  V30 2386 C 232.677 3.59513 -4.63646 0
M  V30 2387 C 235.029 3.62169 -5.18668 0
M  V30 2388 C 233.693 3.65003 -5.58864 0
M  V30 2389 H 232.963 0.668441 -0.319794 0
M  V30 2390 H 235.61 1.30613 -1.40045 0
M  V30 2391 H 233.915 3.83894 -0.783122 0
M  V30 2392 H 235.612 3.83416 -1.17443 0
M  V30 2393 H 232.202 3.4423 -2.5535 0
M  V30 2394 H 236.386 3.4853 -3.53328 0
M  V30 2395 H 231.642 3.59987 -4.94185 0
M  V30 2396 H 235.816 3.6552 -5.92763 0
M  V30 2397 H 233.443 3.70822 -6.63623 0
M  V30 2398 N 235.018 0.912232 1.28515 0
M  V30 2399 C 235.965 0.397954 2.27343 0
M  V30 2400 C 236.935 -0.526766 1.57526 0
M  V30 2401 O 238.12 -0.449292 1.85435 0
M  V30 2402 C 235.26 -0.357263 3.43246 0
M  V30 2403 C 234.373 0.599788 4.27816 0
M  V30 2404 C 233.508 -0.173725 5.30916 0
M  V30 2405 C 232.547 0.777039 6.07148 0
M  V30 2406 N 231.684 0.0371398 7.0209 0
M  V30 2407 H 236.524 1.24577 2.70711 0
M  V30 2408 H 234.061 0.625612 1.33133 0
M  V30 2409 H 236.019 -0.8113 4.09236 0
M  V30 2410 H 234.649 -1.16943 3.00872 0
M  V30 2411 H 233.701 1.17235 3.61884 0
M  V30 2412 H 235.013 1.32704 4.80823 0
M  V30 2413 H 234.167 -0.688394 6.02782 0
M  V30 2414 H 232.906 -0.934041 4.78672 0
M  V30 2415 H 231.911 1.3031 5.34134 0
M  V30 2416 H 233.136 1.53689 6.61481 0
M  V30 2417 H 231.082 -0.705213 6.52198 0
M  V30 2418 H 230.999 0.704249 7.52713 0
M  V30 2419 H 232.267 -0.457383 7.78157 0
M  V30 2420 N 236.496 -1.42363 0.676048 0
M  V30 2421 C 237.742 -2.0182 0.199125 0
M  V30 2422 C 238.075 -1.53339 -1.19168 0
M  V30 2423 O 237.35 -0.736124 -1.80032 0
M  V30 2424 C 237.633 -3.59331 0.235144 0
M  V30 2425 C 237.486 -4.17989 1.66149 0
M  V30 2426 C 238.805 -4.3813 -0.41595 0
M  V30 2427 H 235.924 -0.733293 0.0738311 0
M  V30 2428 H 238.566 -1.69368 0.86107 0
M  V30 2429 H 236.716 -3.87109 -0.328487 0
M  V30 2430 H 238.388 -4.0116 2.27747 0
M  V30 2431 H 236.631 -3.7377 2.20178 0
M  V30 2432 H 237.302 -5.27126 1.63837 0
M  V30 2433 H 239.778 -4.16051 0.0638529 0
M  V30 2434 H 238.654 -5.47717 -0.360115 0
M  V30 2435 H 238.915 -4.16101 -1.49373 0
M  V30 2436 N 237.974 -0.419461 -1.51915 0
M  V30 2437 C 238.907 0.445751 -2.23804 0
M  V30 2438 C 239.885 1.03951 -1.25031 0
M  V30 2439 O 241.069 1.08541 -1.54114 0
M  V30 2440 C 238.196 1.61964 -2.97465 0
M  V30 2441 C 237.242 1.14828 -4.10751 0
M  V30 2442 S 238.075 0.104938 -5.35397 0
M  V30 2443 C 239.231 1.28391 -6.1259 0
M  V30 2444 H 239.464 -0.164627 -2.96844 0
M  V30 2445 H 236.997 -0.203833 -1.53049 0
M  V30 2446 H 238.955 2.29271 -3.40507 0
M  V30 2447 H 237.616 2.20139 -2.24048 0
M  V30 2448 H 236.809 2.02561 -4.61503 0
M  V30 2449 H 236.411 0.553712 -3.69878 0
M  V30 2450 H 238.703 2.20563 -6.40592 0
M  V30 2451 H 239.646 0.816724 -7.03374 0
M  V30 2452 H 240.054 1.51439 -5.43807 0
M  V30 2453 N 239.452 1.56882 -0.150215 0
M  V30 2454 C 240.698 1.96518 0.500834 0
M  V30 2455 C 241.031 1.03527 1.64304 0
M  V30 2456 O 240.306 0.0782751 1.94342 0
M  V30 2457 C 240.589 3.45822 1.00395 0
M  V30 2458 C 240.442 4.49591 -0.136983 0
M  V30 2459 C 241.761 3.97704 1.88467 0
M  V30 2460 H 238.88 0.714535 0.18058 0
M  V30 2461 H 241.522 1.88577 -0.232091 0
M  V30 2462 H 239.672 3.5272 1.62851 0
M  V30 2463 H 241.344 4.5477 -0.77343 0
M  V30 2464 H 239.587 4.26441 -0.795652 0
M  V30 2465 H 240.258 5.51402 0.256815 0
M  V30 2466 H 242.734 3.93304 1.35834 0
M  V30 2467 H 241.61 5.0263 2.20578 0
M  V30 2468 H 241.871 3.40252 2.82279 0
M  V30 2469 N 240.93 -0.123565 1.57115 0
M  V30 2470 C 241.893 -1.13583 1.99076 0
M  V30 2471 C 242.893 -1.34564 0.880296 0
M  V30 2472 O 244.083 -1.31158 1.14644 0
M  V30 2473 C 241.215 -2.49128 2.32698 0
M  V30 2474 H 242.408 -0.775287 2.89706 0
M  V30 2475 H 239.961 -0.36771 1.51913 0
M  V30 2476 H 240.696 -2.90111 1.44934 0
M  V30 2477 H 240.481 -2.35255 3.13684 0
M  V30 2478 H 241.971 -3.2199 2.65918 0
M  V30 2479 N 242.408 -1.52605 -0.393616 0
M  V30 2480 C 243.685 -1.58001 -1.15304 0
M  V30 2481 C 244.065 -0.370385 -2.07825 0
M  V30 2482 O 243.413 0.641638 -2.19306 0
M  V30 2483 C 243.623 -2.91652 -1.91677 0
M  V30 2484 C 244.971 -3.4522 -2.47201 0
M  V30 2485 O 245.995 -2.93495 -2.01839 0
M  V30 2486 O 244.854 -4.35579 -3.3005 0
M  V30 2487 H 241.948 -0.637068 -0.527327 0
M  V30 2488 H 244.494 -1.64939 -0.399141 0
M  V30 2489 H 243.266 -3.71136 -1.23992 0
M  V30 2490 H 242.889 -2.88077 -2.74039 0
M  V30 2491 N 243.887 0.651787 -1.4349 0
M  V30 2492 C 245.135 1.40888 -1.44897 0
M  V30 2493 C 245.456 1.94856 -0.0749086 0
M  V30 2494 O 244.726 1.74518 0.889956 0
M  V30 2495 H 243.306 0.522887 -0.533478 0
M  V30 2496 H 245.968 0.768609 -1.79104 0
M  V30 2497 H 245.064 2.25052 -2.16236 0
M  V30 2498 N 245.365 1.30045 0.890287 0
M  V30 2499 C 246.297 1.11786 2.00091 0
M  V30 2500 C 247.31 0.0626307 1.62679 0
M  V30 2501 O 248.499 0.308112 1.75821 0
M  V30 2502 C 245.599 0.681527 3.31977 0
M  V30 2503 C 244.772 1.81735 3.97858 0
M  V30 2504 C 243.831 1.37045 5.08041 0
M  V30 2505 O 242.857 2.07677 5.29961 0
M  V30 2506 N 244.059 0.246525 5.79976 0
M  V30 2507 H 246.824 2.07441 2.16306 0
M  V30 2508 H 244.385 1.2211 1.06305 0
M  V30 2509 H 246.377 0.365675 4.03045 0
M  V30 2510 H 244.947 -0.182828 3.12065 0
M  V30 2511 H 244.167 2.30159 3.20032 0
M  V30 2512 H 245.455 2.57865 4.38615 0
M  V30 2513 H 244.853 -0.34215 5.64664 0
M  V30 2514 H 243.41 -0.00990438 6.51799 0
M  V30 2515 N 246.843 -1.10192 1.12674 0
M  V30 2516 C 248.071 -1.85983 0.906527 0
M  V30 2517 C 248.486 -1.80783 -0.544333 0
M  V30 2518 O 247.843 -1.19834 -1.37645 0
M  V30 2519 C 247.894 -3.34281 1.37618 0
M  V30 2520 O 247.615 -3.39401 2.77017 0
M  V30 2521 C 249.116 -4.26938 1.19325 0
M  V30 2522 H 246.336 -0.587716 0.323775 0
M  V30 2523 H 248.88 -1.39284 1.49734 0
M  V30 2524 H 247.035 -3.78436 0.828539 0
M  V30 2525 H 247.449 -4.31838 2.97684 0
M  V30 2526 H 248.923 -5.29181 1.57071 0
M  V30 2527 H 249.4 -4.38995 0.134097 0
M  V30 2528 H 250.006 -3.8859 1.72852 0
M  V30 2529 N 248.321 -0.919034 -1.28029 0
M  V30 2530 C 249.546 -0.570357 -1.99403 0
M  V30 2531 C 249.971 0.842486 -1.68178 0
M  V30 2532 O 249.329 1.56391 -0.917141 0
M  V30 2533 C 249.377 -0.792541 -3.51783 0
M  V30 2534 O 248.481 0.145988 -4.12142 0
M  V30 2535 H 247.822 -0.220555 -0.6263 0
M  V30 2536 H 250.352 -1.23592 -1.63053 0
M  V30 2537 H 250.362 -0.704708 -4.01868 0
M  V30 2538 H 249.037 -1.82247 -3.73844 0
M  V30 2539 H 247.614 0.00897528 -3.72899 0
M  V30 2540 N 249.799 1.42003 -0.683588 0
M  V30 2541 C 251.029 2.05448 -0.217866 0
M  V30 2542 C 251.437 1.51491 1.13346 0
M  V30 2543 O 250.78 0.653048 1.717 0
M  V30 2544 C 250.842 3.59399 -0.0850118 0
M  V30 2545 C 250.506 4.36093 -1.36645 0
M  V30 2546 C 251.503 4.66169 -2.30179 0
M  V30 2547 C 249.188 4.75578 -1.61649 0
M  V30 2548 C 251.182 5.34676 -3.46988 0
M  V30 2549 C 248.869 5.43824 -2.78745 0
M  V30 2550 C 249.867 5.73299 -3.71238 0
M  V30 2551 O 249.555 6.40142 -4.86285 0
M  V30 2552 H 249.287 0.668344 -0.101454 0
M  V30 2553 H 251.841 1.82974 -0.933248 0
M  V30 2554 H 250.071 3.80566 0.686031 0
M  V30 2555 H 251.76 4.04457 0.341973 0
M  V30 2556 H 252.526 4.36156 -2.12115 0
M  V30 2557 H 248.405 4.52025 -0.905243 0
M  V30 2558 H 251.949 5.57599 -4.19201 0
M  V30 2559 H 247.846 5.73254 -2.96732 0
M  V30 2560 H 248.614 6.58636 -4.85944 0
M  V30 2561 N 251.277 0.427512 1.51691 0
M  V30 2562 C 252.225 -0.403359 2.29076 0
M  V30 2563 C 253.219 -1.02962 1.34518 0
M  V30 2564 O 254.425 -0.965715 1.51901 0
M  V30 2565 H 250.8 -0.148879 0.737115 0
M  V30 2566 H 252.771 0.270295 2.97173 0
M  V30 2567 C 251.52 -1.49763 3.13794 0
M  V30 2568 H 250.843 -1.02508 3.86435 0
M  V30 2569 H 252.283 -2.05244 3.71014 0
M  V30 2570 C 250.742 -2.47536 2.28533 0
M  V30 2571 O 251.272 -3.51848 1.93819 0
M  V30 2572 N 249.478 -2.18187 1.91945 0
M  V30 2573 H 249.025 -1.33389 2.20375 0
M  V30 2574 H 248.983 -2.83848 1.35195 0
M  V30 2575 N 252.755 -1.56801 0.158532 0
M  V30 2576 C 254.032 -1.88131 -0.535357 0
M  V30 2577 C 254.412 -1.06638 -1.82186 0
M  V30 2578 O 253.76 -0.156533 -2.27963 0
M  V30 2579 C 253.97 -3.39949 -0.789653 0
M  V30 2580 C 255.318 -4.09416 -1.12533 0
M  V30 2581 O 256.342 -3.45194 -0.878622 0
M  V30 2582 O 255.201 -5.22855 -1.59014 0
M  V30 2583 H 252.295 -0.780143 -0.27442 0
M  V30 2584 H 254.841 -1.68564 0.19601 0
M  V30 2585 H 253.613 -3.91115 0.120353 0
M  V30 2586 H 253.236 -3.65084 -1.57479 0
M  V30 2587 N 254.233 0.115231 -1.57178 0
M  V30 2588 C 255.479 0.818565 -1.86202 0
M  V30 2589 C 255.834 1.77316 -0.746785 0
M  V30 2590 O 255.127 1.89923 0.25291 0
M  V30 2591 C 255.321 1.60324 -3.19423 0
M  V30 2592 C 255.15 0.726138 -4.43799 0
M  V30 2593 C 253.92 0.379535 -5.03873 0
M  V30 2594 C 256.118 0.0420774 -5.14283 0
M  V30 2595 N 254.1 -0.507841 -6.11796 0
M  V30 2596 C 255.471 -0.704152 -6.15988 0
M  V30 2597 C 257.526 -0.0339486 -4.97888 0
M  V30 2598 C 256.229 -1.51927 -7.03072 0
M  V30 2599 C 258.255 -0.835906 -5.85463 0
M  V30 2600 C 257.617 -1.57031 -6.86673 0
M  V30 2601 H 253.716 0.276343 -0.731545 0
M  V30 2602 H 256.3 0.0821032 -1.94527 0
M  V30 2603 H 254.471 2.31072 -3.12186 0
M  V30 2604 H 256.203 2.2522 -3.36241 0
M  V30 2605 H 252.958 0.722634 -4.68054 0
M  V30 2606 H 253.382 -0.94349 -6.70393 0
M  V30 2607 H 258.024 0.519496 -4.19596 0
M  V30 2608 H 255.742 -2.08386 -7.80769 0
M  V30 2609 H 259.328 -0.89714 -5.74841 0
M  V30 2610 H 258.208 -2.18088 -7.53264 0
M  V30 2611 N 255.711 1.52812 0.385517 0
M  V30 2612 C 256.939 1.71907 1.15133 0
M  V30 2613 C 257.354 0.439004 1.83625 0
M  V30 2614 O 256.711 -0.586765 1.7281 0
M  V30 2615 C 256.762 2.87099 2.19673 0
M  V30 2616 O 256.483 4.10151 1.53973 0
M  V30 2617 C 257.984 3.17902 3.08955 0
M  V30 2618 H 255.204 0.575479 0.345057 0
M  V30 2619 H 257.748 1.99476 0.45052 0
M  V30 2620 H 255.903 2.61982 2.85384 0
M  V30 2621 H 256.317 4.74514 2.23465 0
M  V30 2622 H 257.791 4.01959 3.7833 0
M  V30 2623 H 258.268 2.3243 3.72657 0
M  V30 2624 H 258.874 3.44871 2.48885 0
M  V30 2625 N 257.189 -0.644168 1.43834 0
M  V30 2626 C 258.152 -1.73857 1.49353 0
M  V30 2627 C 259.152 -1.56315 0.377112 0
M  V30 2628 O 260.342 -1.62048 0.639226 0
M  V30 2629 C 257.474 -3.12819 1.35488 0
M  V30 2630 H 258.667 -1.70342 2.46827 0
M  V30 2631 H 256.22 -0.856652 1.30733 0
M  V30 2632 H 256.955 -3.2194 0.390569 0
M  V30 2633 H 256.74 -3.26958 2.16428 0
M  V30 2634 H 258.23 -3.92606 1.42302 0
M  V30 2635 N 258.668 -1.30515 -0.883378 0
M  V30 2636 C 259.893 -1.22487 -1.67367 0
M  V30 2637 C 260.318 0.208767 -1.86938 0
M  V30 2638 O 259.676 1.15015 -1.40148 0
M  V30 2639 C 259.724 -1.96041 -3.02655 0
M  V30 2640 O 258.828 -1.28859 -3.91751 0
M  V30 2641 H 258.169 -0.423573 -0.511353 0
M  V30 2642 H 260.699 -1.72362 -1.10239 0
M  V30 2643 H 260.709 -2.05124 -3.52687 0
M  V30 2644 H 259.384 -3.00307 -2.8773 0
M  V30 2645 H 257.961 -1.28141 -3.50192 0
M  V30 2646 N 260.146 1.09593 -1.13257 0
M  V30 2647 C 261.374 1.855 -0.916378 0
M  V30 2648 C 261.789 1.81069 0.534738 0
M  V30 2649 O 261.146 1.20562 1.37007 0
M  V30 2650 C 261.197 3.33546 -1.39388 0
M  V30 2651 O 260.918 3.37927 -2.78813 0
M  V30 2652 C 262.419 4.26299 -1.21588 0
M  V30 2653 H 259.639 0.585991 -0.326887 0
M  V30 2654 H 262.183 1.38488 -1.5047 0
M  V30 2655 H 260.338 3.77992 -0.848597 0
M  V30 2656 H 260.752 4.30254 -2.9997 0
M  V30 2657 H 262.226 5.28341 -1.59876 0
M  V30 2658 H 262.703 4.38918 -0.157376 0
M  V30 2659 H 263.309 3.87668 -1.7491 0
M  V30 2660 N 261.624 0.925811 1.2754 0
M  V30 2661 C 262.849 0.580924 1.99098 0
M  V30 2662 C 263.274 -0.833555 1.68622 0
M  V30 2663 O 262.632 -1.55903 0.925422 0
M  V30 2664 C 262.68 0.811186 3.51358 0
M  V30 2665 O 261.784 -0.124129 4.12213 0
M  V30 2666 H 261.125 0.223873 0.625122 0
M  V30 2667 H 263.655 1.24455 1.62395 0
M  V30 2668 H 263.665 0.72601 4.01489 0
M  V30 2669 H 262.34 1.84227 3.72872 0
M  V30 2670 H 260.917 0.0108006 3.72898 0
M  V30 2671 N 263.102 -1.41638 0.69111 0
M  V30 2672 C 264.379 -1.95036 0.148421 0
M  V30 2673 C 264.759 -1.63072 -1.34055 0
M  V30 2674 O 264.107 -0.93538 -2.08478 0
M  V30 2675 C 264.317 -3.46279 0.434951 0
M  V30 2676 C 265.665 -4.23069 0.360275 0
M  V30 2677 O 266.689 -3.54277 0.369613 0
M  V30 2678 O 265.548 -5.45583 0.316534 0
M  V30 2679 H 262.642 -0.826908 0.0123654 0
M  V30 2680 H 265.188 -1.5138 0.766963 0
M  V30 2681 H 263.96 -3.6281 1.46576 0
M  V30 2682 H 263.583 -3.97019 -0.214787 0
M  V30 2683 N 264.58 -0.43555 -1.51462 0
M  V30 2684 C 265.51 0.367376 -2.30592 0
M  V30 2685 C 266.491 1.02263 -1.35928 0
M  V30 2686 O 267.676 1.02661 -1.64847 0
M  V30 2687 C 264.806 1.46983 -3.14664 0
M  V30 2688 C 263.76 0.938161 -4.17591 0
M  V30 2689 C 263.086 2.13622 -4.90173 0
M  V30 2690 C 264.386 -0.0261621 -5.22293 0
M  V30 2691 H 266.08 -0.292969 -2.97963 0
M  V30 2692 H 263.626 -0.14234 -1.43295 0
M  V30 2693 H 265.579 2.03873 -3.688 0
M  V30 2694 H 264.303 2.15843 -2.4511 0
M  V30 2695 H 262.962 0.391481 -3.64504 0
M  V30 2696 H 262.61 2.81098 -4.17124 0
M  V30 2697 H 262.31 1.78688 -5.59772 0
M  V30 2698 H 263.834 2.7107 -5.47132 0
M  V30 2699 H 265.248 0.452384 -5.71512 0
M  V30 2700 H 263.645 -0.287992 -5.99409 0
M  V30 2701 H 264.715 -0.963391 -4.75233 0
M  V30 2702 N 266.058 1.56714 -0.166846 0
M  V30 2703 C 267.006 2.19056 0.782123 0
M  V30 2704 C 268 1.15328 1.24079 0
M  V30 2705 O 269.206 1.33537 1.20697 0
M  V30 2706 H 265.581 0.70167 0.270486 0
M  V30 2707 H 267.552 2.97494 0.232322 0
M  V30 2708 C 266.301 2.84206 2.00306 0
M  V30 2709 H 265.624 3.63748 1.65914 0
M  V30 2710 H 267.064 3.31302 2.64604 0
M  V30 2711 C 265.523 1.83744 2.82382 0
M  V30 2712 O 266.053 1.32014 3.79388 0
M  V30 2713 N 264.259 1.52601 2.47308 0
M  V30 2714 H 263.806 1.9486 1.68485 0
M  V30 2715 H 263.764 0.856351 3.02513 0
M  V30 2716 N 267.536 -0.106894 1.57237 0
M  V30 2717 C 268.782 -0.81373 1.85759 0
M  V30 2718 C 269.115 -1.78952 0.754315 0
M  V30 2719 O 268.39 -1.93029 -0.23879 0
M  V30 2720 C 268.673 -1.55293 3.24894 0
M  V30 2721 C 268.526 -0.595929 4.45835 0
M  V30 2722 C 269.845 -2.5063 3.61763 0
M  V30 2723 H 266.964 -0.294369 0.67566 0
M  V30 2724 H 269.606 -0.0776472 1.89841 0
M  V30 2725 H 267.756 -2.1804 3.21544 0
M  V30 2726 H 269.428 0.0236262 4.61294 0
M  V30 2727 H 267.671 0.0916191 4.33703 0
M  V30 2728 H 268.342 -1.15004 5.39887 0
M  V30 2729 H 270.818 -1.97982 3.65981 0
M  V30 2730 H 269.694 -2.99376 4.60071 0
M  V30 2731 H 269.955 -3.3385 2.89821 0
M  V30 2732 N 269.014 -1.53014 -0.377408 0
M  V30 2733 C 270.43 -1.42523 -0.718281 0
M  V30 2734 C 270.63 -0.55487 -1.9371 0
M  V30 2735 O 269.686 -0.0327593 -2.52479 0
M  V30 2736 C 270.999 -2.85546 -0.942539 0
M  V30 2737 C 272.547 -2.95101 -1.04329 0
M  V30 2738 C 273.022 -4.3916 -1.3001 0
M  V30 2739 N 274.513 -4.42536 -1.36806 0
M  V30 2740 C 275.248 -5.51097 -1.58364 0
M  V30 2741 N 274.744 -6.69724 -1.77317 0
M  V30 2742 N 276.537 -5.38657 -1.60638 0
M  V30 2743 H 268.688 -2.08116 0.424426 0
M  V30 2744 H 270.951 -0.939352 0.127759 0
M  V30 2745 H 270.657 -3.51499 -0.118929 0
M  V30 2746 H 270.531 -3.28493 -1.85397 0
M  V30 2747 H 272.918 -2.29309 -1.85745 0
M  V30 2748 H 272.999 -2.55566 -0.109505 0
M  V30 2749 H 272.643 -5.05521 -0.490991 0
M  V30 2750 H 272.573 -4.76258 -2.24691 0
M  V30 2751 H 275.064 -3.57039 -1.23821 0
M  V30 2752 H 275.377 -7.48233 -1.93306 0
M  V30 2753 H 273.722 -6.72732 -1.74518 0
M  V30 2754 H 276.913 -4.44948 -1.45391 0
M  V30 2755 H 277.086 -6.2333 -1.77098 0
M  V30 2756 N 270.492 0.636531 -1.44174 0
M  V30 2757 C 271.424 1.7618 -1.46606 0
M  V30 2758 C 272.437 1.58768 -0.360091 0
M  V30 2759 O 273.626 1.67181 -0.625518 0
M  V30 2760 C 270.726 3.13833 -1.27915 0
M  V30 2761 C 269.899 3.57753 -2.51658 0
M  V30 2762 C 268.958 4.74265 -2.27945 0
M  V30 2763 O 267.984 4.82852 -3.01401 0
M  V30 2764 N 269.186 5.65604 -1.30662 0
M  V30 2765 H 271.951 1.74567 -2.43612 0
M  V30 2766 H 269.512 0.820924 -1.39544 0
M  V30 2767 H 271.504 3.8949 -1.09907 0
M  V30 2768 H 270.074 3.10121 -0.39293 0
M  V30 2769 H 269.294 2.72362 -2.84978 0
M  V30 2770 H 270.582 3.83847 -3.33974 0
M  V30 2771 H 269.98 5.61354 -0.699844 0
M  V30 2772 H 268.537 6.40913 -1.18634 0
M  V30 2773 N 271.97 1.30982 0.876444 0
M  V30 2774 C 272.933 1.18054 1.96459 0
M  V30 2775 C 273.933 0.109399 1.60427 0
M  V30 2776 O 275.123 0.358173 1.70478 0
M  V30 2777 C 272.255 0.810616 3.31122 0
M  V30 2778 H 273.448 2.14735 2.09354 0
M  V30 2779 H 271.001 1.145 1.06392 0
M  V30 2780 H 271.736 -0.155322 3.23928 0
M  V30 2781 H 271.521 1.58481 3.58645 0
M  V30 2782 H 273.011 0.743876 4.10921 0
M  V30 2783 N 273.449 -1.08991 1.13837 0
M  V30 2784 C 274.696 -1.81258 0.902882 0
M  V30 2785 C 275.024 -1.85936 -0.570803 0
M  V30 2786 O 274.279 -1.3267 -1.43865 0
M  V30 2787 C 274.578 -3.27042 1.44147 0
M  V30 2788 C 274.244 -3.4249 2.93276 0
M  V30 2789 C 272.906 -3.46414 3.33992 0
M  V30 2790 C 275.258 -3.4666 3.892 0
M  V30 2791 C 272.586 -3.52091 4.69307 0
M  V30 2792 C 274.938 -3.53872 5.24364 0
M  V30 2793 C 273.602 -3.56066 5.646 0
M  V30 2794 H 272.872 -0.663268 0.330388 0
M  V30 2795 H 275.519 -1.28368 1.42105 0
M  V30 2796 H 273.824 -3.82599 0.844097 0
M  V30 2797 H 275.521 -3.81499 1.23528 0
M  V30 2798 H 272.111 -3.40124 2.60794 0
M  V30 2799 H 276.295 -3.42865 3.58828 0
M  V30 2800 H 271.551 -3.52079 4.9985 0
M  V30 2801 H 275.725 -3.56043 5.98503 0
M  V30 2802 H 273.352 -3.60218 6.69438 0
M  V30 2803 N 274.927 -0.932562 -1.27047 0
M  V30 2804 C 276.173 -0.576412 -1.94436 0
M  V30 2805 C 276.506 0.880891 -1.73072 0
M  V30 2806 O 275.781 1.62905 -1.06264 0
M  V30 2807 C 276.064 -0.909031 -3.48437 0
M  V30 2808 C 275.917 -2.42044 -3.79123 0
M  V30 2809 C 277.236 -0.418341 -4.38107 0
M  V30 2810 H 274.355 -0.210888 -0.706184 0
M  V30 2811 H 276.997 -1.16522 -1.50075 0
M  V30 2812 H 275.147 -0.407947 -3.86352 0
M  V30 2813 H 276.819 -2.99359 -3.50973 0
M  V30 2814 H 275.062 -2.86758 -3.25503 0
M  V30 2815 H 275.733 -2.6037 -4.86736 0
M  V30 2816 H 278.209 -0.847856 -4.0737 0
M  V30 2817 H 277.085 -0.679981 -5.44672 0
M  V30 2818 H 277.346 0.681642 -4.36814 0
M  V30 2819 N 276.405 1.4127 -0.698611 0
M  V30 2820 C 277.315 2.34573 -0.0357891 0
M  V30 2821 C 278.331 1.56393 0.762701 0
M  V30 2822 O 279.507 1.8886 0.699564 0
M  V30 2823 C 276.572 3.35159 0.887089 0
M  V30 2824 C 275.633 4.29225 0.0804634 0
M  V30 2825 C 274.866 5.25006 0.959387 0
M  V30 2826 O 275.089 5.26314 2.19886 0
M  V30 2827 O 274.023 6.00519 0.407439 0
M  V30 2828 H 277.849 2.92838 -0.804957 0
M  V30 2829 H 275.434 1.42175 -0.458966 0
M  V30 2830 H 277.316 3.9689 1.41621 0
M  V30 2831 H 275.991 2.79333 1.6357 0
M  V30 2832 H 274.898 3.70833 -0.493328 0
M  V30 2833 H 276.231 4.88157 -0.629547 0
M  V30 2834 N 277.883 0.443576 1.51229 0
M  V30 2835 C 278.813 -0.355142 2.30783 0
M  V30 2836 C 279.794 -1.0154 1.36468 0
M  V30 2837 O 280.979 -1.01785 1.65389 0
M  V30 2838 C 278.109 -1.45312 3.15439 0
M  V30 2839 C 277.063 -0.916002 4.18083 0
M  V30 2840 C 276.389 -2.1102 4.91299 0
M  V30 2841 C 277.689 0.0538602 5.22272 0
M  V30 2842 H 279.383 0.308767 2.97804 0
M  V30 2843 H 276.929 0.149937 1.43217 0
M  V30 2844 H 278.882 -2.01914 3.69876 0
M  V30 2845 H 277.606 -2.14541 2.46252 0
M  V30 2846 H 276.265 -0.372145 3.64706 0
M  V30 2847 H 275.913 -2.78882 4.18609 0
M  V30 2848 H 275.613 -1.75717 5.60712 0
M  V30 2849 H 277.137 -2.68164 5.48562 0
M  V30 2850 H 278.551 -0.422069 5.71744 0
M  V30 2851 H 276.948 0.319776 5.99247 0
M  V30 2852 H 278.018 0.98858 4.74716 0
M  V30 2853 N 279.361 -1.56624 0.175154 0
M  V30 2854 C 280.609 -1.96609 -0.467885 0
M  V30 2855 C 280.93 -1.06238 -1.63519 0
M  V30 2856 O 280.2 -0.129523 -1.95471 0
M  V30 2857 H 278.78 -0.726008 -0.175845 0
M  V30 2858 H 281.442 -1.93195 0.257234 0
M  V30 2859 H 280.538 -3.00989 -0.825342 0
M  V30 2860 N 280.839 0.0985539 -1.57292 0
M  V30 2861 C 281.787 1.1387 -2.02821 0
M  V30 2862 C 282.781 1.41676 -0.928666 0
M  V30 2863 O 283.987 1.41398 -1.11385 0
M  V30 2864 H 280.362 0.384419 -0.646317 0
M  V30 2865 H 282.333 0.728347 -2.89375 0
M  V30 2866 C 281.082 2.45166 -2.46554 0
M  V30 2867 H 280.405 2.24613 -3.3074 0
M  V30 2868 H 281.845 3.16456 -2.8219 0
M  V30 2869 C 280.304 3.09216 -1.33742 0
M  V30 2870 O 280.834 3.96163 -0.66464 0
M  V30 2871 N 279.04 2.69413 -1.08928 0
M  V30 2872 H 278.587 1.98801 -1.63817 0
M  V30 2873 H 278.545 3.12594 -0.336458 0
M  V30 2874 N 282.317 1.53212 0.369288 0
M  V30 2875 C 283.247 1.82365 1.45826 0
M  V30 2876 C 284.228 0.676907 1.56051 0
M  V30 2877 O 285.413 0.926401 1.70679 0
M  V30 2878 C 282.543 2.01023 2.83208 0
M  V30 2879 C 281.497 3.1678 2.8781 0
M  V30 2880 C 280.823 3.20724 4.27832 0
M  V30 2881 C 282.123 4.55447 2.55667 0
M  V30 2882 H 283.817 2.73559 1.21678 0
M  V30 2883 H 281.363 1.3163 0.583911 0
M  V30 2884 H 283.316 2.20001 3.59413 0
M  V30 2885 H 282.04 1.06536 3.08736 0
M  V30 2886 H 280.699 2.97616 2.14056 0
M  V30 2887 H 280.347 2.23882 4.50429 0
M  V30 2888 H 280.047 3.98496 4.31827 0
M  V30 2889 H 281.571 3.41881 5.05915 0
M  V30 2890 H 282.985 4.74611 3.21586 0
M  V30 2891 H 281.382 5.35432 2.70984 0
M  V30 2892 H 282.452 4.60812 1.5093 0
M  V30 2893 N 283.795 -0.628877 1.44509 0
M  V30 2894 C 285.206 -1.21054 1.42137 0
M  V30 2895 C 285.557 -1.95715 0.137881 0
M  V30 2896 O 284.682 -2.02554 -0.761645 0
M  V30 2897 C 285.277 -2.20189 2.57493 0
M  V30 2898 C 283.836 -2.73777 2.58308 0
M  V30 2899 C 282.983 -1.48813 2.33987 0
M  V30 2900 H 285.934 -0.41942 1.53057 0
M  V30 2901 H 285.955 -3.02833 2.30375 0
M  V30 2902 H 285.467 -1.6582 3.50892 0
M  V30 2903 H 283.568 -3.32142 1.68856 0
M  V30 2904 H 283.681 -3.19662 3.56865 0
M  V30 2905 H 282.045 -1.77024 1.83124 0
M  V30 2906 H 282.828 -0.963442 3.29504 0
M  V30 2907 N 285.273 -1.31445 -0.869486 0
M  V30 2908 C 286.501 -1.24122 -1.65534 0
M  V30 2909 C 286.916 0.193387 -1.87807 0
M  V30 2910 O 286.273 1.12557 -1.43656 0
M  V30 2911 C 286.324 -1.98229 -3.02304 0
M  V30 2912 O 286.045 -3.3609 -2.81026 0
M  V30 2913 C 287.546 -1.97751 -3.96749 0
M  V30 2914 H 284.766 -0.428868 -0.516055 0
M  V30 2915 H 287.31 -1.73328 -1.08525 0
M  V30 2916 H 285.465 -1.52782 -3.56001 0
M  V30 2917 H 285.879 -3.7383 -3.67902 0
M  V30 2918 H 287.353 -2.54114 -4.90031 0
M  V30 2919 H 287.83 -0.960137 -4.28577 0
M  V30 2920 H 288.436 -2.43079 -3.48988 0
M  V30 2921 N 286.751 1.08385 -1.14413 0
M  V30 2922 C 287.998 1.80776 -0.912482 0
M  V30 2923 C 288.326 1.86236 0.560934 0
M  V30 2924 O 287.581 1.33431 1.43159 0
M  V30 2925 C 287.88 3.26273 -1.45879 0
M  V30 2926 C 287.546 3.4093 -2.95089 0
M  V30 2927 C 286.208 3.44638 -3.35824 0
M  V30 2928 C 288.56 3.44591 -3.91033 0
M  V30 2929 C 285.888 3.49597 -4.71167 0
M  V30 2930 C 288.24 3.51086 -5.26233 0
M  V30 2931 C 286.904 3.53067 -5.6648 0
M  V30 2932 H 286.174 0.661507 -0.333901 0
M  V30 2933 H 288.821 1.27613 -1.42784 0
M  V30 2934 H 287.126 3.82146 -0.864376 0
M  V30 2935 H 288.823 3.80839 -1.2555 0
M  V30 2936 H 285.413 3.38736 -2.62594 0
M  V30 2937 H 289.597 3.40957 -3.60641 0
M  V30 2938 H 284.853 3.49424 -5.0171 0
M  V30 2939 H 289.027 3.52864 -6.00383 0
M  V30 2940 H 286.654 3.56662 -6.71339 0
M  V30 2941 N 288.23 0.939286 1.26551 0
M  V30 2942 C 289.193 0.451987 2.24699 0
M  V30 2943 C 290.193 -0.435869 1.5478 0
M  V30 2944 O 291.383 -0.235314 1.72603 0
M  V30 2945 C 288.515 -0.348801 3.39111 0
M  V30 2946 H 289.708 1.3193 2.69322 0
M  V30 2947 H 287.261 0.721072 1.38673 0
M  V30 2948 H 287.996 -1.23444 2.99887 0
M  V30 2949 H 287.781 0.287945 3.91041 0
M  V30 2950 H 289.271 -0.679726 4.12031 0
M  V30 2951 N 289.708 -1.40897 0.706093 0
M  V30 2952 C 290.956 -2.00657 0.241054 0
M  V30 2953 C 291.277 -1.56241 -1.16678 0
M  V30 2954 O 290.547 -0.79765 -1.78926 0
M  V30 2955 H 289.127 -0.742018 0.0861308 0
M  V30 2956 H 291.789 -1.72372 0.909604 0
M  V30 2957 H 290.885 -3.10958 0.266705 0
M  V30 2958 N 291.186 -0.45159 -1.50991 0
M  V30 2959 C 292.597 0.00818571 -1.86698 0
M  V30 2960 C 292.948 1.40661 -1.3678 0
M  V30 2961 O 292.073 2.0391 -0.724546 0
M  V30 2962 C 292.668 0.0216303 -3.38793 0
M  V30 2963 C 291.227 0.425865 -3.73983 0
M  V30 2964 C 290.374 -0.372163 -2.74791 0
M  V30 2965 H 293.325 -0.666785 -1.44013 0
M  V30 2966 H 293.346 0.828078 -3.7138 0
M  V30 2967 H 292.858 -0.996288 -3.75094 0
M  V30 2968 H 290.959 1.44886 -3.43277 0
M  V30 2969 H 291.072 0.140761 -4.78893 0
M  V30 2970 H 289.436 0.171498 -2.54122 0
M  V30 2971 H 290.219 -1.38922 -3.13935 0
M  V30 2972 N 292.664 1.56529 -0.183458 0
M  V30 2973 C 293.911 1.97244 0.458357 0
M  V30 2974 C 294.239 1.06992 1.62428 0
M  V30 2975 O 293.494 0.106542 1.9541 0
M  V30 2976 C 293.793 3.43939 0.971637 0
M  V30 2977 C 293.459 4.5083 -0.0796784 0
M  V30 2978 C 292.121 4.79786 -0.368584 0
M  V30 2979 C 294.473 5.15138 -0.792638 0
M  V30 2980 C 291.801 5.70345 -1.37563 0
M  V30 2981 C 294.153 6.06784 -1.78875 0
M  V30 2982 C 292.817 6.34102 -2.08497 0
M  V30 2983 H 292.087 0.721768 0.167725 0
M  V30 2984 H 294.734 1.89472 -0.277976 0
M  V30 2985 H 293.039 3.48724 1.78602 0
M  V30 2986 H 294.736 3.72791 1.47744 0
M  V30 2987 H 291.326 4.28317 0.155668 0
M  V30 2988 H 295.51 4.92868 -0.582659 0
M  V30 2989 H 290.766 5.89789 -1.61118 0
M  V30 2990 H 294.94 6.55677 -2.3465 0
M  V30 2991 H 292.567 7.04074 -2.86678 0
M  V30 2992 N 294.142 -0.090211 1.57342 0
M  V30 2993 C 295.089 -1.10909 2.02405 0
M  V30 2994 C 296.059 -1.39523 0.901252 0
M  V30 2995 O 297.244 -1.50903 1.1676 0
M  V30 2996 C 294.384 -2.42277 2.45755 0
M  V30 2997 C 293.497 -2.20352 3.71576 0
M  V30 2998 C 292.632 -3.45154 4.03785 0
M  V30 2999 C 291.671 -3.18512 5.22701 0
M  V30 3000 N 290.808 -4.35593 5.50639 0
M  V30 3001 H 295.648 -0.71782 2.89225 0
M  V30 3002 H 293.185 -0.342901 1.43048 0
M  V30 3003 H 295.143 -3.18951 2.68935 0
M  V30 3004 H 293.773 -2.79242 1.61938 0
M  V30 3005 H 292.825 -1.34458 3.55844 0
M  V30 3006 H 294.137 -1.96661 4.58395 0
M  V30 3007 H 293.291 -4.30233 4.27767 0
M  V30 3008 H 292.03 -3.71904 3.15498 0
M  V30 3009 H 291.035 -2.31827 4.98534 0
M  V30 3010 H 292.26 -2.93103 6.12591 0
M  V30 3011 H 290.206 -4.6241 4.6531 0
M  V30 3012 H 290.123 -4.1511 6.31838 0
M  V30 3013 H 291.391 -5.21723 5.7916 0
M  V30 3014 N 295.62 -1.53406 -0.361157 0
M  V30 3015 C 296.868 -1.69467 -1.10115 0
M  V30 3016 C 297.189 -0.451352 -1.89705 0
M  V30 3017 O 296.459 0.534636 -1.88463 0
M  V30 3018 H 295.039 -0.624749 -0.409508 0
M  V30 3019 H 297.701 -1.90609 -0.406699 0
M  V30 3020 H 296.797 -2.55774 -1.78847 0
M  V30 3021 N 297.098 0.621204 -1.44841 0
M  V30 3022 C 298.323 1.41244 -1.51871 0
M  V30 3023 C 298.748 1.87519 -0.147764 0
M  V30 3024 O 298.106 1.59334 0.865 0
M  V30 3025 C 298.154 2.60221 -2.49634 0
M  V30 3026 O 297.258 3.60395 -2.00473 0
M  V30 3027 H 296.599 0.42223 -0.512463 0
M  V30 3028 H 299.129 0.757305 -1.90069 0
M  V30 3029 H 299.139 3.0764 -2.67996 0
M  V30 3030 H 297.814 2.25887 -3.4921 0
M  V30 3031 H 296.391 3.19717 -1.91925 0
M  V30 3032 N 298.576 1.31904 0.862503 0
M  V30 3033 C 299.804 1.24998 1.64873 0
M  V30 3034 C 300.219 -0.183425 1.87907 0
M  V30 3035 O 299.576 -1.11794 1.44251 0
M  V30 3036 C 299.627 1.99829 3.01248 0
M  V30 3037 O 299.348 3.37575 2.79239 0
M  V30 3038 C 300.849 1.99852 3.95694 0
M  V30 3039 H 298.069 0.431599 0.513773 0
M  V30 3040 H 300.613 1.73901 1.07604 0
M  V30 3041 H 298.768 1.54668 3.55185 0
M  V30 3042 H 299.182 3.75776 3.65914 0
M  V30 3043 H 300.656 2.56709 4.88676 0
M  V30 3044 H 301.133 0.982852 4.28062 0
M  V30 3045 H 301.739 2.44926 3.47694 0
M  V30 3046 N 300.054 -1.07777 1.14986 0
M  V30 3047 C 300.984 -2.16865 0.865557 0
M  V30 3048 C 301.965 -1.69123 -0.182083 0
M  V30 3049 O 303.15 -1.94164 -0.0373815 0
M  V30 3050 C 300.28 -3.45539 0.349313 0
M  V30 3051 C 299.234 -4.06708 1.33313 0
M  V30 3052 C 298.56 -5.30411 0.675918 0
M  V30 3053 C 299.86 -4.47241 2.69764 0
M  V30 3054 H 301.554 -2.40905 1.77778 0
M  V30 3055 H 299.1 -1.15781 0.856203 0
M  V30 3056 H 301.053 -4.21174 0.137983 0
M  V30 3057 H 299.777 -3.21072 -0.598362 0
M  V30 3058 H 298.436 -3.33112 1.53075 0
M  V30 3059 H 298.084 -5.02232 -0.277767 0
M  V30 3060 H 297.784 -5.72293 1.33244 0
M  V30 3061 H 299.308 -6.08755 0.474262 0
M  V30 3062 H 300.722 -5.14025 2.53873 0
M  V30 3063 H 299.119 -5.00062 3.3175 0
M  V30 3064 H 300.189 -3.58818 3.26156 0
M  V30 3065 N 301.532 -0.945985 -1.26051 0
M  V30 3066 C 302.778 -0.606539 -1.94146 0
M  V30 3067 C 303.133 0.84586 -1.72809 0
M  V30 3068 O 302.426 1.59781 -1.05738 0
M  V30 3069 C 302.62 -0.890475 -3.46129 0
M  V30 3070 C 302.449 -2.36892 -3.82246 0
M  V30 3071 C 301.219 -3.02494 -4.04753 0
M  V30 3072 C 303.417 -3.34772 -3.90425 0
M  V30 3073 N 301.399 -4.40302 -4.27794 0
M  V30 3074 C 302.77 -4.57855 -4.18054 0
M  V30 3075 C 304.825 -3.2973 -3.73072 0
M  V30 3076 C 303.528 -5.76522 -4.30134 0
M  V30 3077 C 305.554 -4.47727 -3.86386 0
M  V30 3078 C 304.916 -5.69593 -4.14419 0
M  V30 3079 H 301.015 -0.272407 -0.73302 0
M  V30 3080 H 303.599 -1.21638 -1.52027 0
M  V30 3081 H 301.77 -0.309638 -3.87164 0
M  V30 3082 H 303.502 -0.51181 -4.01451 0
M  V30 3083 H 300.257 -2.53095 -4.003 0
M  V30 3084 H 300.681 -5.11646 -4.43337 0
M  V30 3085 H 305.323 -2.36565 -3.50424 0
M  V30 3086 H 303.041 -6.70136 -4.51601 0
M  V30 3087 H 306.627 -4.45363 -3.74356 0
M  V30 3088 H 305.507 -6.59375 -4.24493 0
M  V30 3089 N 303.011 1.40521 -0.713556 0
M  V30 3090 C 303.974 2.29098 -0.0684347 0
M  V30 3091 C 304.974 1.45268 0.689472 0
M  V30 3092 O 306.164 1.66205 0.521677 0
M  V30 3093 C 303.296 3.28446 0.913024 0
M  V30 3094 H 304.489 2.87645 -0.84855 0
M  V30 3095 H 302.042 1.48809 -0.47809 0
M  V30 3096 H 302.777 2.74913 1.72027 0
M  V30 3097 H 302.562 3.90327 0.372472 0
M  V30 3098 H 304.052 3.94777 1.36165 0
M  V30 3099 N 304.489 0.459591 1.5075 0
M  V30 3100 C 305.737 -0.0991532 2.01857 0
M  V30 3101 C 306.058 -1.41247 1.34441 0
M  V30 3102 O 305.328 -1.89775 0.486022 0
M  V30 3103 H 303.908 -0.039633 0.745948 0
M  V30 3104 H 306.57 0.607387 1.85194 0
M  V30 3105 H 305.666 -0.258998 3.11023 0
M  V30 3106 N 305.967 -1.56429 0.191757 0
M  V30 3107 C 306.914 -2.18936 -0.730454 0
M  V30 3108 C 307.884 -1.13557 -1.21219 0
M  V30 3109 O 309.069 -1.41794 -1.27668 0
M  V30 3110 C 306.209 -2.85013 -1.9458 0
M  V30 3111 C 305.322 -4.04909 -1.50574 0
M  V30 3112 C 304.457 -4.58853 -2.67634 0
M  V30 3113 C 303.496 -5.71114 -2.20217 0
M  V30 3114 N 302.633 -6.19478 -3.30442 0
M  V30 3115 H 307.473 -2.97389 -0.190664 0
M  V30 3116 H 305.01 -1.46869 -0.0823694 0
M  V30 3117 H 306.968 -3.21492 -2.65893 0
M  V30 3118 H 305.598 -2.09129 -2.45896 0
M  V30 3119 H 304.65 -3.74115 -0.688605 0
M  V30 3120 H 305.962 -4.86113 -1.11784 0
M  V30 3121 H 305.116 -4.97619 -3.47074 0
M  V30 3122 H 303.855 -3.76749 -3.09696 0
M  V30 3123 H 302.86 -5.31879 -1.3923 0
M  V30 3124 H 304.085 -6.55033 -1.79189 0
M  V30 3125 H 302.031 -5.40297 -3.72041 0
M  V30 3126 H 301.948 -6.95725 -2.9581 0
M  V30 3127 H 303.216 -6.62898 -4.10106 0
M  V30 3128 N 307.445 0.0818655 -1.57387 0
M  V30 3129 C 308.861 0.436412 -1.53517 0
M  V30 3130 C 309.061 1.79758 -0.910459 0
M  V30 3131 O 308.117 2.47324 -0.508636 0
M  V30 3132 C 309.43 0.386734 -2.98203 0
M  V30 3133 C 310.978 0.467644 -3.09487 0
M  V30 3134 C 311.453 0.447978 -4.55804 0
M  V30 3135 N 312.944 0.508348 -4.60402 0
M  V30 3136 C 313.679 0.515184 -5.71081 0
M  V30 3137 N 313.175 0.477435 -6.91153 0
M  V30 3138 N 314.968 0.560988 -5.59294 0
M  V30 3139 H 307.119 -0.809546 -1.96367 0
M  V30 3140 H 309.382 -0.302733 -0.898363 0
M  V30 3141 H 309.088 -0.546539 -3.47427 0
M  V30 3142 H 308.962 1.20075 -3.57578 0
M  V30 3143 H 311.349 1.39134 -2.60242 0
M  V30 3144 H 311.43 -0.374753 -2.5304 0
M  V30 3145 H 311.074 -0.471826 -5.05704 0
M  V30 3146 H 311.004 1.30777 -5.10103 0
M  V30 3147 H 313.495 0.54218 -3.7399 0
M  V30 3148 H 313.808 0.486299 -7.71268 0
M  V30 3149 H 312.153 0.444278 -6.93579 0
M  V30 3150 H 315.344 0.5881 -4.64391 0
M  V30 3151 H 315.517 0.562846 -6.45551 0
M  V30 3152 N 308.923 1.53595 0.353017 0
M  V30 3153 C 310.17 1.70385 1.09431 0
M  V30 3154 C 310.498 0.462113 1.88931 0
M  V30 3155 O 309.753 -0.556074 1.87633 0
M  V30 3156 C 310.052 2.91313 2.07054 0
M  V30 3157 C 309.718 4.27308 1.43939 0
M  V30 3158 C 308.38 4.64287 1.26454 0
M  V30 3159 C 310.732 5.11829 0.983883 0
M  V30 3160 C 308.06 5.83412 0.620226 0
M  V30 3161 C 310.412 6.31611 0.353516 0
M  V30 3162 C 309.076 6.67293 0.166272 0
M  V30 3163 H 308.346 0.623484 0.400436 0
M  V30 3164 H 310.993 1.87799 0.374655 0
M  V30 3165 H 309.298 2.68463 2.85368 0
M  V30 3166 H 310.995 3.01497 2.64387 0
M  V30 3167 H 307.585 3.98198 1.58543 0
M  V30 3168 H 311.769 4.838 1.10685 0
M  V30 3169 H 307.025 6.09639 0.463681 0
M  V30 3170 H 311.199 6.964 -0.00757555 0
M  V30 3171 H 308.826 7.59461 -0.335047 0
M  V30 3172 N 310.401 -0.613514 1.45168 0
M  V30 3173 C 311.678 -1.37263 1.39349 0
M  V30 3174 C 312.058 -2.11012 0.0610848 0
M  V30 3175 O 311.406 -2.07502 -0.956825 0
M  V30 3176 C 311.616 -2.3244 2.60332 0
M  V30 3177 C 312.964 -2.9523 3.05163 0
M  V30 3178 O 313.988 -2.42762 2.60663 0
M  V30 3179 O 312.847 -3.90454 3.82372 0
M  V30 3180 H 309.941 -0.615188 0.552696 0
M  V30 3181 H 312.487 -0.637097 1.57287 0
M  V30 3182 H 311.259 -1.77164 3.48896 0
M  V30 3183 H 310.882 -3.13383 2.44698 0
M  V30 3184 N 311.879 -1.3236 -0.855495 0
M  V30 3185 C 313.295 -1.11332 -1.14356 0
M  V30 3186 C 313.495 0.106751 -2.01217 0
M  V30 3187 O 312.551 0.791891 -2.39761 0
M  V30 3188 C 313.864 -2.39237 -1.82171 0
M  V30 3189 C 315.412 -2.44986 -1.9481 0
M  V30 3190 C 315.887 -3.7281 -2.66039 0
M  V30 3191 N 317.378 -3.73787 -2.73565 0
M  V30 3192 C 318.113 -4.69394 -3.29327 0
M  V30 3193 N 317.609 -5.75367 -3.85907 0
M  V30 3194 N 319.402 -4.56893 -3.27423 0
M  V30 3195 H 311.553 -2.10586 -0.277027 0
M  V30 3196 H 313.816 -0.929701 -0.185364 0
M  V30 3197 H 313.522 -3.28431 -1.25802 0
M  V30 3198 H 313.396 -2.50134 -2.82335 0
M  V30 3199 H 315.783 -1.56252 -2.50338 0
M  V30 3200 H 315.864 -2.38043 -0.936448 0
M  V30 3201 H 315.508 -4.61918 -2.11174 0
M  V30 3202 H 315.438 -3.77024 -3.67642 0
M  V30 3203 H 317.929 -2.97189 -2.33424 0
M  V30 3204 H 318.242 -6.44378 -4.26611 0
M  V30 3205 H 316.587 -5.79123 -3.84242 0
M  V30 3206 H 319.778 -3.73269 -2.82467 0
M  V30 3207 H 319.951 -5.31577 -3.7058 0
M  V30 3208 N 313.357 1.07166 -1.15556 0
M  V30 3209 C 314.634 1.76546 -0.842069 0
M  V30 3210 C 315.014 2.00453 0.661939 0
M  V30 3211 O 314.362 1.62452 1.60691 0
M  V30 3212 C 314.572 3.07266 -1.65495 0
M  V30 3213 C 315.92 3.81578 -1.86234 0
M  V30 3214 O 316.944 3.17083 -1.62287 0
M  V30 3215 O 315.803 4.97419 -2.26355 0
M  V30 3216 H 312.897 0.766756 -0.309862 0
M  V30 3217 H 315.443 1.13514 -1.26145 0
M  V30 3218 H 314.215 2.85494 -2.67598 0
M  V30 3219 H 313.838 3.7803 -1.23203 0
M  V30 3220 N 314.835 0.952656 1.25548 0
M  V30 3221 C 315.783 0.462354 2.27958 0
M  V30 3222 C 316.777 -0.46634 1.62855 0
M  V30 3223 O 317.983 -0.343287 1.76696 0
M  V30 3224 H 314.358 0.13101 0.7405 0
M  V30 3225 H 316.329 1.33839 2.66702 0
M  V30 3226 C 315.078 -0.24628 3.46827 0
M  V30 3227 H 314.401 0.459192 3.97154 0
M  V30 3228 H 315.841 -0.553393 4.20373 0
M  V30 3229 C 314.3 -1.4681 3.0323 0
M  V30 3230 O 314.83 -2.56591 3.09069 0
M  V30 3231 N 313.036 -1.32874 2.58443 0
M  V30 3232 H 312.583 -0.435536 2.53891 0
M  V30 3233 H 312.541 -2.14742 2.29637 0
M  V30 3234 N 316.313 -1.40141 0.720998 0
M  V30 3235 C 317.56 -2.00787 0.262842 0
M  V30 3236 C 317.888 -1.5718 -1.14563 0
M  V30 3237 O 317.143 -0.785391 -1.79249 0
M  V30 3238 C 317.442 -3.56165 0.296892 0
M  V30 3239 C 317.108 -4.19373 1.65641 0
M  V30 3240 C 315.77 -4.36352 2.02855 0
M  V30 3241 C 318.122 -4.54578 2.54968 0
M  V30 3242 C 315.45 -4.8582 3.28931 0
M  V30 3243 C 317.802 -5.05447 3.80402 0
M  V30 3244 C 316.466 -5.20635 4.17726 0
M  V30 3245 H 315.736 -0.734731 0.0961807 0
M  V30 3246 H 318.383 -1.67673 0.925093 0
M  V30 3247 H 316.688 -3.8922 -0.448932 0
M  V30 3248 H 318.385 -4.00929 -0.0755208 0
M  V30 3249 H 314.975 -4.06549 1.35704 0
M  V30 3250 H 319.159 -4.41091 2.27491 0
M  V30 3251 H 314.415 -4.95764 3.57811 0
M  V30 3252 H 318.589 -5.31663 4.49786 0
M  V30 3253 H 316.216 -5.58728 5.15487 0
M  V30 3254 N 317.792 -0.46758 -1.50504 0
M  V30 3255 C 319.069 0.15003 -1.95024 0
M  V30 3256 C 319.449 1.57304 -1.40779 0
M  V30 3257 O 318.797 2.20281 -0.607319 0
M  V30 3258 C 319.007 0.0969324 -3.48865 0
M  V30 3259 C 320.355 0.287565 -4.23625 0
M  V30 3260 O 321.379 0.173678 -3.55776 0
M  V30 3261 O 320.238 0.517186 -5.44047 0
M  V30 3262 H 317.332 0.113582 -0.819163 0
M  V30 3263 H 319.878 -0.52773 -1.61286 0
M  V30 3264 H 318.65 -0.896732 -3.80886 0
M  V30 3265 H 318.273 0.816303 -3.8913 0
M  V30 3266 N 319.27 1.56325 -0.20005 0
M  V30 3267 C 320.519 1.96895 0.437652 0
M  V30 3268 C 320.832 1.08999 1.62415 0
M  V30 3269 O 322.038 1.39372 2.32997 0
M  V30 3270 C 320.494 3.50198 0.830025 0
M  V30 3271 C 320.102 4.46765 -0.332461 0
M  V30 3272 C 321.846 3.99526 1.43453 0
M  V30 3273 C 319.753 5.91344 0.0811468 0
M  V30 3274 H 318.683 0.735209 0.167282 0
M  V30 3275 H 321.334 1.81148 -0.292853 0
M  V30 3276 H 319.716 3.61467 1.61734 0
M  V30 3277 H 320.89 4.47231 -1.11 0
M  V30 3278 H 319.205 4.07657 -0.848789 0
M  V30 3279 H 321.802 5.05025 1.75652 0
M  V30 3280 H 322.145 3.44122 2.34277 0
M  V30 3281 H 322.678 3.91393 0.71109 0
M  V30 3282 H 319.417 6.50685 -0.793033 0
M  V30 3283 H 318.937 5.94121 0.823445 0
M  V30 3284 H 320.616 6.44945 0.515252 0
M  V30 3285 N 320.748 -0.0735177 1.57428 0
M  V30 3286 C 321.698 -1.09442 2.00016 0
M  V30 3287 C 322.682 -1.34575 0.881947 0
M  V30 3288 O 323.874 -1.34905 1.14585 0
M  V30 3289 C 321.003 -2.40865 2.4462 0
M  V30 3290 C 320.089 -2.19014 3.63172 0
M  V30 3291 N 320.48 -1.67087 4.77405 0
M  V30 3292 C 318.778 -2.49494 3.69688 0
M  V30 3293 C 319.479 -1.6001 5.5926 0
M  V30 3294 N 318.455 -2.05999 5.03056 0
M  V30 3295 H 322.257 -0.686227 2.85776 0
M  V30 3296 H 319.771 -0.280617 1.59957 0
M  V30 3297 H 321.768 -3.14763 2.73368 0
M  V30 3298 H 320.428 -2.82403 1.60246 0
M  V30 3299 H 321.439 -1.35975 4.99731 0
M  V30 3300 H 318.116 -2.94409 2.96023 0
M  V30 3301 H 319.506 -1.2073 6.60964 0
M  V30 3302 N 322.226 -1.5378 -0.344866 0
M  V30 3303 C 323.472 -1.72158 -1.0832 0
M  V30 3304 C 323.827 -0.478218 -1.86362 0
M  V30 3305 O 323.12 0.529152 -1.84148 0
M  V30 3306 C 323.314 -2.92407 -2.05506 0
M  V30 3307 C 323.143 -4.28318 -1.37017 0
M  V30 3308 C 321.913 -4.92832 -1.11558 0
M  V30 3309 C 324.111 -5.08086 -0.797071 0
M  V30 3310 N 322.093 -6.12619 -0.396358 0
M  V30 3311 C 323.464 -6.1965 -0.208336 0
M  V30 3312 C 325.519 -4.92986 -0.697787 0
M  V30 3313 C 324.222 -7.17763 0.470023 0
M  V30 3314 C 326.248 -5.91391 -0.033171 0
M  V30 3315 C 325.61 -7.02292 0.544599 0
M  V30 3316 H 321.709 -0.683017 -0.380805 0
M  V30 3317 H 324.293 -1.91211 -0.366961 0
M  V30 3318 H 322.464 -2.74857 -2.74423 0
M  V30 3319 H 324.196 -2.9951 -2.72169 0
M  V30 3320 H 320.951 -4.52362 -1.40234 0
M  V30 3321 H 321.375 -6.7698 -0.0515119 0
M  V30 3322 H 326.017 -4.07414 -1.13022 0
M  V30 3323 H 323.735 -8.0291 0.914351 0
M  V30 3324 H 327.321 -5.81784 0.0430009 0
M  V30 3325 H 326.201 -7.77129 1.05073 0
M  V30 3326 N 323.704 0.605807 -1.45491 0
M  V30 3327 C 324.953 1.36086 -1.48874 0
M  V30 3328 C 325.266 1.95131 -0.135333 0
M  V30 3329 O 326.472 2.7146 -0.0468144 0
M  V30 3330 C 324.928 2.46518 -2.62215 0
M  V30 3331 C 324.536 1.93877 -4.03876 0
M  V30 3332 C 326.28 3.23512 -2.74846 0
M  V30 3333 C 324.187 3.01801 -5.08596 0
M  V30 3334 H 323.117 0.511497 -0.553974 0
M  V30 3335 H 325.768 0.649089 -1.71636 0
M  V30 3336 H 324.15 3.20388 -2.32739 0
M  V30 3337 H 325.324 1.26704 -4.43038 0
M  V30 3338 H 323.639 1.29622 -3.95711 0
M  V30 3339 H 326.236 4.04013 -3.50253 0
M  V30 3340 H 326.579 3.74631 -1.81542 0
M  V30 3341 H 327.112 2.56742 -3.03856 0
M  V30 3342 H 323.851 2.55597 -6.03614 0
M  V30 3343 H 323.371 3.67535 -4.74002 0
M  V30 3344 H 325.05 3.66152 -5.33424 0
M  V30 3345 N 325.182 1.32811 0.848464 0
M  V30 3346 C 326.459 1.14334 1.58704 0
M  V30 3347 C 326.839 -0.293948 2.09043 0
M  V30 3348 O 326.187 -1.29153 1.88499 0
M  V30 3349 C 326.397 2.17626 2.72837 0
M  V30 3350 C 327.745 2.51282 3.42261 0
M  V30 3351 O 328.769 2.16219 2.83068 0
M  V30 3352 O 327.628 3.11413 4.49093 0
M  V30 3353 H 324.722 0.441601 0.699226 0
M  V30 3354 H 327.268 1.44362 0.892053 0
M  V30 3355 H 326.04 3.14211 2.3321 0
M  V30 3356 H 325.663 1.88628 3.50008 0
M  V30 3357 N 326.66 -1.06551 1.16123 0
M  V30 3358 C 327.885 -1.83544 0.965735 0
M  V30 3359 C 328.31 -1.81843 -0.481102 0
M  V30 3360 O 327.668 -1.21732 -1.34354 0
M  V30 3361 C 327.716 -3.28169 1.49457 0
M  V30 3362 O 326.82 -4.0643 0.699157 0
M  V30 3363 H 326.161 -0.568026 0.343864 0
M  V30 3364 H 328.691 -1.34362 1.54299 0
M  V30 3365 H 328.701 -3.78992 1.51092 0
M  V30 3366 H 327.376 -3.28722 2.54784 0
M  V30 3367 H 325.953 -3.65216 0.7531 0
M  V30 3368 N 328.138 -0.959301 -1.25041 0
M  V30 3369 C 329.415 -0.533805 -1.88175 0
M  V30 3370 C 329.795 0.988994 -1.865 0
M  V30 3371 O 329.143 1.85677 -1.33177 0
M  V30 3372 C 329.353 -1.11575 -3.30684 0
M  V30 3373 C 330.701 -1.19548 -4.07423 0
M  V30 3374 O 331.725 -1.06765 -3.39823 0
M  V30 3375 O 330.584 -1.39656 -5.28354 0
M  V30 3376 H 327.678 -0.176772 -0.807887 0
M  V30 3377 H 330.224 -1.05303 -1.33076 0
M  V30 3378 H 328.996 -2.15884 -3.26358 0
M  V30 3379 H 328.619 -0.580059 -3.93346 0
M  V30 3380 N 329.616 1.39756 -0.72842 0
M  V30 3381 C 330.862 2.00942 -0.273892 0
M  V30 3382 C 331.195 1.57656 1.13394 0
M  V30 3383 O 330.47 0.802434 1.77176 0
M  V30 3384 C 330.753 3.58211 -0.368346 0
M  V30 3385 C 330.606 4.11534 -1.81548 0
M  V30 3386 C 331.925 4.39372 0.253054 0
M  V30 3387 H 329.044 0.730047 -0.100996 0
M  V30 3388 H 331.686 1.66056 -0.923337 0
M  V30 3389 H 329.836 3.88061 0.184588 0
M  V30 3390 H 331.508 3.92431 -2.42478 0
M  V30 3391 H 329.751 3.65341 -2.33898 0
M  V30 3392 H 330.422 5.20682 -1.83288 0
M  V30 3393 H 332.898 4.15527 -0.218224 0
M  V30 3394 H 331.774 5.48677 0.156585 0
M  V30 3395 H 332.035 4.21358 1.33826 0
M  V30 3396 N 331.094 0.475555 1.50254 0
M  V30 3397 C 332.34 -0.0780073 2.0265 0
M  V30 3398 C 332.673 -1.38968 1.35652 0
M  V30 3399 O 331.948 -1.8839 0.483691 0
M  V30 3400 C 332.231 -0.257161 3.59181 0
M  V30 3401 C 332.084 1.07585 4.36744 0
M  V30 3402 C 333.403 -1.00965 4.28362 0
M  V30 3403 H 330.522 -0.0268758 0.73651 0
M  V30 3404 H 333.164 0.622015 1.7953 0
M  V30 3405 H 331.314 -0.853412 3.79011 0
M  V30 3406 H 332.986 1.70902 4.28474 0
M  V30 3407 H 331.229 1.6714 4.00308 0
M  V30 3408 H 331.9 0.904088 5.44546 0
M  V30 3409 H 334.376 -0.504214 4.13034 0
M  V30 3410 H 333.252 -1.10381 5.37687 0
M  V30 3411 H 333.513 -2.04731 3.91839 0
M  V30 3412 N 332.573 -1.56217 0.208337 0
M  V30 3413 C 333.82 -1.97949 -0.42692 0
M  V30 3414 C 334.148 -1.09562 -1.60706 0
M  V30 3415 O 333.403 -0.137616 -1.95216 0
M  V30 3416 C 333.702 -3.45441 -0.916797 0
M  V30 3417 C 333.368 -4.50646 0.151391 0
M  V30 3418 C 332.03 -4.79139 0.444867 0
M  V30 3419 C 334.382 -5.13811 0.874492 0
M  V30 3420 C 331.71 -5.68084 1.46619 0
M  V30 3421 C 334.062 -6.03861 1.88506 0
M  V30 3422 C 332.726 -6.30704 2.18559 0
M  V30 3423 H 331.996 -0.724345 -0.156221 0
M  V30 3424 H 334.643 -1.89006 0.308084 0
M  V30 3425 H 332.948 -3.51521 -1.73032 0
M  V30 3426 H 334.645 -3.75094 -1.41794 0
M  V30 3427 H 331.235 -4.28511 -0.0875068 0
M  V30 3428 H 335.419 -4.91879 0.660996 0
M  V30 3429 H 330.675 -5.87151 1.7048 0
M  V30 3430 H 334.849 -6.51861 2.45051 0
M  V30 3431 H 332.476 -6.99424 2.97843 0
M  V30 3432 N 334.051 0.0651679 -1.57465 0
M  V30 3433 C 334.981 1.07693 -2.07182 0
M  V30 3434 C 335.962 1.39962 -0.966673 0
M  V30 3435 O 337.147 1.49475 -1.2398 0
M  V30 3436 C 334.277 2.3885 -2.52127 0
M  V30 3437 C 333.231 2.20917 -3.66579 0
M  V30 3438 C 332.557 3.57515 -3.97601 0
M  V30 3439 C 333.857 1.62493 -4.9638 0
M  V30 3440 H 335.551 0.663199 -2.91962 0
M  V30 3441 H 333.097 0.317569 -1.40455 0
M  V30 3442 H 335.05 3.09928 -2.85522 0
M  V30 3443 H 333.774 2.82215 -1.64384 0
M  V30 3444 H 332.433 1.52279 -3.33477 0
M  V30 3445 H 332.081 3.98463 -3.06979 0
M  V30 3446 H 331.781 3.46353 -4.74672 0
M  V30 3447 H 333.305 4.30013 -4.33499 0
M  V30 3448 H 334.719 2.23445 -5.27963 0
M  V30 3449 H 333.116 1.62009 -5.77818 0
M  V30 3450 H 334.186 0.587041 -4.81333 0
M  V30 3451 N 335.529 1.53961 0.336706 0
M  V30 3452 C 336.492 1.81724 1.39675 0
M  V30 3453 C 337.492 0.688532 1.45313 0
M  V30 3454 O 338.682 0.956829 1.45569 0
M  V30 3455 C 335.814 1.96543 2.78538 0
M  V30 3456 H 337.007 2.76424 1.16318 0
M  V30 3457 H 334.56 1.45478 0.571474 0
M  V30 3458 H 335.295 1.0401 3.07168 0
M  V30 3459 H 335.08 2.78665 2.75841 0
M  V30 3460 H 336.57 2.19516 3.5525 0
M  V30 3461 N 337.007 -0.598083 1.45811 0
M  V30 3462 C 338.255 -1.35413 1.50026 0
M  V30 3463 C 338.576 -1.94444 0.147177 0
M  V30 3464 O 337.846 -1.77701 -0.824571 0
M  V30 3465 H 336.426 -0.502727 0.552517 0
M  V30 3466 H 339.088 -0.701606 1.81834 0
M  V30 3467 H 338.184 -2.16871 2.2444 0
M  V30 3468 N 338.485 -1.33259 -0.841409 0
M  V30 3469 C 339.713 -1.27605 -1.62864 0
M  V30 3470 C 340.128 0.153507 -1.88175 0
M  V30 3471 O 339.485 1.09485 -1.46011 0
M  V30 3472 C 339.536 -2.04596 -2.98031 0
M  V30 3473 O 339.257 -3.41975 -2.73834 0
M  V30 3474 C 340.758 -2.06122 -3.92465 0
M  V30 3475 H 337.978 -0.439718 -0.506842 0
M  V30 3476 H 340.522 -1.75591 -1.04824 0
M  V30 3477 H 338.677 -1.60299 -3.5268 0
M  V30 3478 H 339.091 -3.81549 -3.59889 0
M  V30 3479 H 340.565 -2.64451 -4.84531 0
M  V30 3480 H 341.042 -1.05083 -4.26444 0
M  V30 3481 H 341.648 -2.50427 -3.43753 0
M  V30 3482 N 339.963 1.05934 -1.16686 0
M  V30 3483 C 341.211 1.78447 -0.948744 0
M  V30 3484 C 341.532 1.87813 0.524523 0
M  V30 3485 O 340.802 1.38945 1.38098 0
M  V30 3486 H 339.382 0.660971 -0.348033 0
M  V30 3487 H 342.044 1.27947 -1.47022 0
M  V30 3488 H 341.14 2.80394 -1.37061 0
M  V30 3489 N 341.441 0.965919 1.2453 0
M  V30 3490 C 342.689 0.625593 1.92174 0
M  V30 3491 C 343.01 -0.841652 1.75901 0
M  V30 3492 O 342.28 -1.60061 1.12948 0
M  V30 3493 H 340.86 0.228388 0.71123 0
M  V30 3494 H 343.522 1.2266 1.51461 0
M  V30 3495 H 342.618 0.864653 2.99884 0
M  V30 3496 N 342.919 -1.39368 0.735821 0
M  V30 3497 C 344.167 -2.00101 0.283562 0
M  V30 3498 C 344.488 -1.5868 -1.13338 0
M  V30 3499 O 343.758 -0.835423 -1.77193 0
M  V30 3500 H 342.338 -0.740024 0.101851 0
M  V30 3501 H 345 -1.70404 0.945962 0
M  V30 3502 H 344.096 -3.10323 0.332604 0
M  V30 3503 N 344.397 -0.483516 -1.5 0
M  V30 3504 C 345.646 0.0689102 -2.01582 0
M  V30 3505 C 345.959 1.39655 -1.36952 0
M  V30 3506 O 347.165 2.03465 -1.79762 0
M  V30 3507 C 345.621 0.173302 -3.59483 0
M  V30 3508 C 345.229 -1.14665 -4.33077 0
M  V30 3509 C 346.973 0.677024 -4.19066 0
M  V30 3510 C 344.88 -1.00537 -5.82792 0
M  V30 3511 H 343.81 0.0295277 -0.753422 0
M  V30 3512 H 346.461 -0.620295 -1.72698 0
M  V30 3513 H 344.843 0.926569 -3.85007 0
M  V30 3514 H 346.017 -1.91184 -4.19268 0
M  V30 3515 H 344.332 -1.58244 -3.85159 0
M  V30 3516 H 346.929 0.799952 -5.28682 0
M  V30 3517 H 347.272 1.67151 -3.81269 0
M  V30 3518 H 347.805 -0.0192083 -3.97795 0
M  V30 3519 H 344.544 -1.9736 -6.25083 0
M  V30 3520 H 344.064 -0.280776 -5.99142 0
M  V30 3521 H 345.743 -0.677 -6.43448 0
M  V30 3522 N 345.875 1.56104 -0.216619 0
M  V30 3523 C 347.105 2.02269 0.420802 0
M  V30 3524 C 347.513 1.09575 1.5424 0
M  V30 3525 O 346.856 0.0967308 1.83445 0
M  V30 3526 C 346.918 3.44784 1.01806 0
M  V30 3527 C 346.582 4.56988 0.0325154 0
M  V30 3528 C 347.579 5.14225 -0.766055 0
M  V30 3529 C 345.264 5.02228 -0.0848092 0
M  V30 3530 C 347.258 6.15169 -1.6687 0
M  V30 3531 C 344.945 6.03011 -0.990994 0
M  V30 3532 C 345.943 6.59357 -1.78149 0
M  V30 3533 O 345.631 7.58179 -2.67245 0
M  V30 3534 H 345.363 0.667353 0.107776 0
M  V30 3535 H 347.917 2.02747 -0.329034 0
M  V30 3536 H 346.147 3.41359 1.81689 0
M  V30 3537 H 347.836 3.74626 1.56237 0
M  V30 3538 H 348.602 4.80126 -0.685836 0
M  V30 3539 H 344.481 4.58054 0.520349 0
M  V30 3540 H 348.025 6.59076 -2.28615 0
M  V30 3541 H 343.922 6.36532 -1.07225 0
M  V30 3542 H 344.69 7.75682 -2.61265 0
M  V30 3543 N 347.353 -0.0568162 1.57498 0
M  V30 3544 C 348.63 -0.786954 1.79071 0
M  V30 3545 C 349.01 -1.95028 0.80792 0
M  V30 3546 O 348.358 -2.27968 -0.155858 0
M  V30 3547 C 348.568 -1.24594 3.26002 0
M  V30 3548 C 349.916 -1.67323 3.90241 0
M  V30 3549 O 350.94 -1.34124 3.29984 0
M  V30 3550 O 349.799 -2.28842 4.9628 0
M  V30 3551 H 346.893 -0.378262 0.735423 0
M  V30 3552 H 349.439 -0.035734 1.69662 0
M  V30 3553 H 348.211 -0.41423 3.89101 0
M  V30 3554 H 347.834 -2.05803 3.40192 0
M  V30 3555 N 348.832 -1.54138 -0.328536 0
M  V30 3556 C 350.078 -1.7236 -1.06865 0
M  V30 3557 C 350.411 -0.493231 -1.87832 0
M  V30 3558 O 349.686 0.5098 -1.877 0
M  V30 3559 C 349.969 -2.99621 -1.99747 0
M  V30 3560 C 349.822 -4.32899 -1.22143 0
M  V30 3561 C 351.141 -3.22615 -2.99345 0
M  V30 3562 H 348.26 -0.627151 -0.387105 0
M  V30 3563 H 350.902 -1.86827 -0.345767 0
M  V30 3564 H 349.052 -2.87418 -2.61387 0
M  V30 3565 H 350.724 -4.56978 -0.630017 0
M  V30 3566 H 348.967 -4.30628 -0.523628 0
M  V30 3567 H 349.638 -5.18154 -1.90318 0
M  V30 3568 H 352.114 -3.34248 -2.47826 0
M  V30 3569 H 350.99 -4.13027 -3.61524 0
M  V30 3570 H 351.251 -2.3961 -3.71536 0
M  V30 3571 N 350.31 0.590341 -1.46126 0
M  V30 3572 C 351.257 1.69994 -1.56111 0
M  V30 3573 C 352.227 1.61065 -0.405867 0
M  V30 3574 O 353.412 1.8039 -0.621613 0
M  V30 3575 C 350.552 3.08326 -1.55013 0
M  V30 3576 C 349.665 3.27936 -2.81215 0
M  V30 3577 C 348.8 4.56473 -2.71673 0
M  V30 3578 C 347.839 4.694 -3.92849 0
M  V30 3579 N 346.976 5.89254 -3.81738 0
M  V30 3580 H 351.816 1.60797 -2.50895 0
M  V30 3581 H 349.353 0.783799 -1.24479 0
M  V30 3582 H 351.311 3.88383 -1.52362 0
M  V30 3583 H 349.941 3.16439 -0.637667 0
M  V30 3584 H 348.993 2.41536 -2.93879 0
M  V30 3585 H 350.305 3.33357 -3.71045 0
M  V30 3586 H 349.459 5.44748 -2.67085 0
M  V30 3587 H 348.198 4.53477 -1.7947 0
M  V30 3588 H 347.203 3.79544 -3.97777 0
M  V30 3589 H 348.428 4.7418 -4.86138 0
M  V30 3590 H 346.374 5.87271 -2.92317 0
M  V30 3591 H 346.291 5.95911 -4.65217 0
M  V30 3592 H 347.559 6.79981 -3.81112 0
M  V30 3593 N 351.788 1.33704 0.83433 0
M  V30 3594 C 353.034 1.26612 1.59188 0
M  V30 3595 C 353.389 -0.165439 1.91687 0
M  V30 3596 O 352.682 -1.10873 1.56262 0
M  V30 3597 C 352.876 2.07926 2.90692 0
M  V30 3598 C 352.705 3.58844 2.71038 0
M  V30 3599 C 351.475 4.28148 2.68361 0
M  V30 3600 C 353.673 4.53082 2.43353 0
M  V30 3601 N 351.655 5.64987 2.40132 0
M  V30 3602 C 353.026 5.77843 2.24716 0
M  V30 3603 C 355.081 4.42119 2.28987 0
M  V30 3604 C 353.784 6.92877 1.9317 0
M  V30 3605 C 355.81 5.56973 1.98835 0
M  V30 3606 C 355.172 6.80745 1.81012 0
M  V30 3607 H 351.271 0.518517 0.585375 0
M  V30 3608 H 353.855 1.68294 0.979044 0
M  V30 3609 H 352.026 1.68558 3.49918 0
M  V30 3610 H 353.758 1.92568 3.55949 0
M  V30 3611 H 350.513 3.80469 2.82029 0
M  V30 3612 H 350.937 6.37133 2.28889 0
M  V30 3613 H 355.579 3.47058 2.41477 0
M  V30 3614 H 353.297 7.87931 1.79418 0
M  V30 3615 H 356.883 5.50428 1.88468 0
M  V30 3616 H 355.763 7.68115 1.58017 0
M  V30 3617 N 353.266 -1.05314 1.17247 0
M  V30 3618 C 354.214 -2.15137 0.884238 0
M  V30 3619 C 355.208 -1.68729 -0.15063 0
M  V30 3620 O 356.414 -1.8 -0.00366673 0
M  V30 3621 H 352.789 -0.702471 0.2684 0
M  V30 3622 H 354.76 -2.36652 1.81764 0
M  V30 3623 C 353.509 -3.45243 0.412659 0
M  V30 3624 H 352.832 -3.81352 1.20043 0
M  V30 3625 H 354.272 -4.23263 0.249858 0
M  V30 3626 C 352.731 -3.25487 -0.86948 0
M  V30 3627 O 353.261 -3.51938 -1.93655 0
M  V30 3628 N 351.467 -2.78875 -0.817147 0
M  V30 3629 H 351.014 -2.57549 0.0514211 0
M  V30 3630 H 350.972 -2.66036 -1.67547 0
M  V30 3631 N 354.744 -0.972509 -1.24016 0
M  V30 3632 C 356.021 -0.553733 -1.87598 0
M  V30 3633 C 356.401 0.969158 -1.87538 0
M  V30 3634 O 355.749 1.84255 -1.35139 0
M  V30 3635 C 355.959 -1.15076 -3.29482 0
M  V30 3636 C 357.307 -1.23862 -4.06132 0
M  V30 3637 O 358.331 -1.10363 -3.38672 0
M  V30 3638 O 357.19 -1.45252 -5.26844 0
M  V30 3639 H 354.284 -0.185331 -0.805966 0
M  V30 3640 H 356.83 -1.06709 -1.31952 0
M  V30 3641 H 355.602 -2.19333 -3.2405 0
M  V30 3642 H 355.225 -0.621746 -3.92709 0
M  V30 3643 N 356.222 1.38976 -0.743202 0
M  V30 3644 C 357.47 1.99948 -0.29417 0
M  V30 3645 C 357.791 1.59279 1.12495 0
M  V30 3646 O 357.061 0.844808 1.76748 0
M  V30 3647 H 355.641 0.739473 -0.105774 0
M  V30 3648 H 358.303 1.699 -0.954986 0
M  V30 3649 H 357.399 3.10142 -0.349056 0
M  V30 3650 N 357.7 0.491464 1.49741 0
M  V30 3651 C 358.63 -0.28154 2.31796 0
M  V30 3652 C 359.611 -0.971473 1.3963 0
M  V30 3653 O 360.796 -0.964719 1.68543 0
M  V30 3654 C 357.926 -1.35203 3.19902 0
M  V30 3655 C 356.88 -0.782529 4.20786 0
M  V30 3656 C 356.206 -1.95283 4.97764 0
M  V30 3657 C 357.506 0.21999 5.21837 0
M  V30 3658 H 359.2 0.403355 2.96671 0
M  V30 3659 H 356.746 0.195425 1.42668 0
M  V30 3660 H 358.699 -1.90045 3.76113 0
M  V30 3661 H 357.423 -2.06598 2.52953 0
M  V30 3662 H 356.082 -0.255928 3.65706 0
M  V30 3663 H 355.73 -2.65423 4.2727 0
M  V30 3664 H 355.43 -1.57789 5.66018 0
M  V30 3665 H 356.954 -2.50577 5.56816 0
M  V30 3666 H 358.368 -0.23996 5.72798 0
M  V30 3667 H 356.765 0.51026 5.97927 0
M  V30 3668 H 357.835 1.13911 4.7133 0
M  V30 3669 N 359.178 -1.55987 0.224894 0
M  V30 3670 C 360.594 -1.59066 -0.130426 0
M  V30 3671 C 360.794 -1.24176 -1.5869 0
M  V30 3672 O 359.85 -0.978592 -2.32766 0
M  V30 3673 C 361.163 -3.00042 0.198883 0
M  V30 3674 C 362.711 -3.1268 0.141391 0
M  V30 3675 C 363.186 -4.55839 0.444422 0
M  V30 3676 N 364.677 -4.6152 0.394115 0
M  V30 3677 C 365.412 -5.70231 0.602038 0
M  V30 3678 N 364.908 -6.87291 0.871914 0
M  V30 3679 N 366.701 -5.59555 0.534245 0
M  V30 3680 H 358.852 -1.76941 1.17497 0
M  V30 3681 H 361.115 -0.822604 0.471197 0
M  V30 3682 H 360.821 -3.30234 1.2099 0
M  V30 3683 H 360.695 -3.74075 -0.484535 0
M  V30 3684 H 363.082 -2.82283 -0.860265 0
M  V30 3685 H 363.163 -2.40969 0.858335 0
M  V30 3686 H 362.807 -4.86954 1.44353 0
M  V30 3687 H 362.737 -5.2578 -0.293752 0
M  V30 3688 H 365.228 -3.77405 0.193356 0
M  V30 3689 H 365.541 -7.66058 1.01858 0
M  V30 3690 H 363.886 -6.89028 0.909145 0
M  V30 3691 H 367.077 -4.6698 0.323612 0
M  V30 3692 H 367.25 -6.44211 0.699693 0
M  V30 3693 N 360.656 0.0484629 -1.57525 0
M  V30 3694 C 361.881 0.759177 -1.93006 0
M  V30 3695 C 362.306 1.69125 -0.823317 0
M  V30 3696 O 361.664 1.79931 0.222364 0
M  V30 3697 C 361.712 1.50899 -3.27509 0
M  V30 3698 O 360.816 2.62112 -3.18388 0
M  V30 3699 H 360.157 0.205564 -0.631379 0
M  V30 3700 H 362.687 0.00972959 -2.04598 0
M  V30 3701 H 362.697 1.88317 -3.6194 0
M  V30 3702 H 361.372 0.825269 -4.0763 0
M  V30 3703 H 359.949 2.27379 -2.95556 0
M  V30 3704 N 362.134 1.5431 0.320358 0
M  V30 3705 C 363.082 1.84647 1.4145 0
M  V30 3706 C 364.076 0.718624 1.53402 0
M  V30 3707 O 365.282 0.902335 1.5575 0
M  V30 3708 H 361.657 0.585349 0.472091 0
M  V30 3709 H 363.628 2.7614 1.13089 0
M  V30 3710 C 362.377 2.09341 2.77617 0
M  V30 3711 H 361.7 2.9559 2.69196 0
M  V30 3712 H 363.14 2.3452 3.53237 0
M  V30 3713 C 361.599 0.885939 3.25043 0
M  V30 3714 O 362.129 0.0967891 4.01583 0
M  V30 3715 N 360.335 0.696682 2.82125 0
M  V30 3716 H 359.882 1.34006 2.2 0
M  V30 3717 H 359.84 -0.109712 3.14209 0
M  V30 3718 N 363.613 -0.582584 1.46437 0
M  V30 3719 C 364.86 -1.34079 1.51753 0
M  V30 3720 C 365.188 -1.93762 0.169299 0
M  V30 3721 O 364.443 -1.76989 -0.835062 0
M  V30 3722 C 364.742 -2.48964 2.56421 0
M  V30 3723 C 364.408 -2.07273 4.00436 0
M  V30 3724 C 363.07 -1.95618 4.39644 0
M  V30 3725 C 365.422 -1.75111 4.90903 0
M  V30 3726 C 362.75 -1.5006 5.67185 0
M  V30 3727 C 365.102 -1.31032 6.18881 0
M  V30 3728 C 363.766 -1.17954 6.56996 0
M  V30 3729 H 363.036 -0.49063 0.555304 0
M  V30 3730 H 365.683 -0.656007 1.79913 0
M  V30 3731 H 363.988 -3.22889 2.21923 0
M  V30 3732 H 365.685 -3.07178 2.57765 0
M  V30 3733 H 362.275 -2.17279 3.69443 0
M  V30 3734 H 366.459 -1.83001 4.61329 0
M  V30 3735 H 361.715 -1.38577 5.95488 0
M  V30 3736 H 365.889 -1.052 6.88408 0
M  V30 3737 H 363.516 -0.824279 7.55718 0
M  V30 3738 N 365.091 -1.34144 -0.827227 0
M  V30 3739 C 366.316 -1.29476 -1.62021 0
M  V30 3740 C 366.741 0.129292 -1.87655 0
M  V30 3741 O 366.099 1.08967 -1.449 0
M  V30 3742 C 366.147 -2.08702 -2.94068 0
M  V30 3743 O 365.251 -1.45359 -3.85933 0
M  V30 3744 H 364.592 -0.444881 -0.492927 0
M  V30 3745 H 367.122 -1.76882 -1.02829 0
M  V30 3746 H 367.132 -2.19898 -3.43669 0
M  V30 3747 H 365.807 -3.12241 -2.74734 0
M  V30 3748 H 364.384 -1.42879 -3.44442 0
M  V30 3749 N 366.569 1.04691 -1.17803 0
M  V30 3750 C 367.499 2.14494 -0.92275 0
M  V30 3751 C 368.48 1.69546 0.137179 0
M  V30 3752 O 369.665 1.94195 -0.0141108 0
M  V30 3753 C 366.795 3.44491 -0.440803 0
M  V30 3754 C 365.749 4.03031 -1.4405 0
M  V30 3755 C 365.075 5.28432 -0.81631 0
M  V30 3756 C 366.375 4.39932 -2.81527 0
M  V30 3757 H 368.069 2.36107 -1.84103 0
M  V30 3758 H 365.615 1.1347 -0.886599 0
M  V30 3759 H 367.568 4.2066 -0.249602 0
M  V30 3760 H 366.292 3.22546 0.513025 0
M  V30 3761 H 364.951 3.28937 -1.61853 0
M  V30 3762 H 364.599 5.02792 0.144511 0
M  V30 3763 H 364.299 5.68559 -1.48371 0
M  V30 3764 H 365.823 6.07284 -0.635496 0
M  V30 3765 H 367.237 5.07113 -2.67412 0
M  V30 3766 H 365.634 4.9109 -3.44892 0
M  V30 3767 H 366.704 3.50045 -3.35554 0
M  V30 3768 N 368.047 0.979072 1.23499 0
M  V30 3769 C 369.277 0.664237 1.95631 0
M  V30 3770 C 369.685 -0.772653 1.72704 0
M  V30 3771 O 369.028 -1.53141 1.01457 0
M  V30 3772 C 369.09 0.873115 3.48736 0
M  V30 3773 C 368.754 2.29182 3.95379 0
M  V30 3774 C 369.751 3.2704 4.04155 0
M  V30 3775 C 367.436 2.62256 4.28401 0
M  V30 3776 C 369.43 4.56052 4.45304 0
M  V30 3777 C 367.117 3.91491 4.69231 0
M  V30 3778 C 368.115 4.88201 4.77649 0
M  V30 3779 O 367.803 6.15129 5.17563 0
M  V30 3780 H 367.535 0.245915 0.629684 0
M  V30 3781 H 370.089 1.3127 1.57979 0
M  V30 3782 H 368.319 0.167476 3.86337 0
M  V30 3783 H 370.008 0.555642 4.02079 0
M  V30 3784 H 370.774 3.02819 3.78848 0
M  V30 3785 H 366.653 1.87692 4.21061 0
M  V30 3786 H 370.197 5.31538 4.51789 0
M  V30 3787 H 366.094 4.15508 4.93987 0
M  V30 3788 H 366.862 6.18862 5.35679 0
M  V30 3789 N 369.525 -1.3858 0.750561 0
M  V30 3790 C 370.773 -1.99789 0.30477 0
M  V30 3791 C 371.094 -1.59874 -1.11649 0
M  V30 3792 O 370.364 -0.85417 -1.76297 0
M  V30 3793 H 368.944 -0.738902 0.109694 0
M  V30 3794 H 371.606 -1.69391 0.963983 0
M  V30 3795 H 370.702 -3.09952 0.365499 0
M  V30 3796 N 371.003 -0.499398 -1.49478 0
M  V30 3797 C 372.419 -0.155261 -1.58843 0
M  V30 3798 C 372.619 1.34008 -1.50479 0
M  V30 3799 O 371.675 2.11589 -1.37791 0
M  V30 3800 C 372.988 -0.730636 -2.91689 0
M  V30 3801 C 374.536 -0.696599 -3.0515 0
M  V30 3802 C 375.011 -1.25001 -4.40612 0
M  V30 3803 N 376.502 -1.21064 -4.47099 0
M  V30 3804 C 377.237 -1.60905 -5.50361 0
M  V30 3805 N 376.733 -2.08331 -6.60735 0
M  V30 3806 N 378.526 -1.52331 -5.41065 0
M  V30 3807 H 370.677 -1.47162 -1.53158 0
M  V30 3808 H 372.94 -0.610309 -0.725415 0
M  V30 3809 H 372.646 -1.77928 -3.03372 0
M  V30 3810 H 372.52 -0.190161 -3.7672 0
M  V30 3811 H 374.907 0.343204 -2.93097 0
M  V30 3812 H 374.988 -1.2742 -2.21806 0
M  V30 3813 H 374.632 -2.28859 -4.53416 0
M  V30 3814 H 374.562 -0.64836 -5.22593 0
M  V30 3815 H 377.053 -0.863128 -3.67911 0
M  V30 3816 H 377.366 -2.36805 -7.35624 0
M  V30 3817 H 375.711 -2.12304 -6.6178 0
M  V30 3818 H 378.902 -1.151 -4.53729 0
M  V30 3819 H 379.075 -1.83704 -6.21415 0
M  V30 3820 N 372.481 1.55866 -0.233164 0
M  V30 3821 C 373.429 2.22176 0.68851 0
M  V30 3822 C 374.423 1.20487 1.19076 0
M  V30 3823 O 375.629 1.38536 1.14925 0
M  V30 3824 H 372.004 0.712511 0.240483 0
M  V30 3825 H 373.975 2.98212 0.105935 0
M  V30 3826 C 372.724 2.92446 1.88071 0
M  V30 3827 H 372.047 3.70458 1.50337 0
M  V30 3828 H 373.487 3.42226 2.50314 0
M  V30 3829 C 371.946 1.95555 2.74335 0
M  V30 3830 O 372.476 1.47986 3.73447 0
M  V30 3831 N 370.682 1.62953 2.40613 0
M  V30 3832 H 370.229 2.01831 1.60069 0
M  V30 3833 H 370.187 0.983886 2.98609 0
M  V30 3834 N 373.959 -0.0401083 1.57549 0
M  V30 3835 C 375.206 -0.733125 1.88763 0
M  V30 3836 C 375.534 -1.75946 0.829058 0
M  V30 3837 O 374.789 -1.94949 -0.171323 0
M  V30 3838 C 375.088 -1.44902 3.26708 0
M  V30 3839 C 374.754 -0.559707 4.47413 0
M  V30 3840 C 373.416 -0.314731 4.8017 0
M  V30 3841 C 375.768 0.0549743 5.21171 0
M  V30 3842 C 373.096 0.553886 5.8408 0
M  V30 3843 C 375.448 0.911229 6.26003 0
M  V30 3844 C 374.112 1.16577 6.57241 0
M  V30 3845 H 373.382 -0.268269 0.690733 0
M  V30 3846 H 376.029 0.00679408 1.91499 0
M  V30 3847 H 374.334 -2.26197 3.1991 0
M  V30 3848 H 376.031 -1.99058 3.48105 0
M  V30 3849 H 372.621 -0.760793 4.21794 0
M  V30 3850 H 376.805 -0.121344 4.96152 0
M  V30 3851 H 372.061 0.759518 6.06664 0
M  V30 3852 H 376.235 1.3941 6.82303 0
M  V30 3853 H 373.862 1.84058 7.37582 0
M  V30 3854 N 375.437 -1.54477 -0.31217 0
M  V30 3855 C 376.685 -1.72884 -1.04668 0
M  V30 3856 C 377.006 -0.511477 -1.88173 0
M  V30 3857 O 376.276 0.474407 -1.90069 0
M  V30 3858 H 374.856 -0.637461 -0.389425 0
M  V30 3859 H 377.518 -1.91807 -0.345852 0
M  V30 3860 H 376.614 -2.61334 -1.70619 0
M  V30 3861 N 376.915 0.57481 -1.46744 0
M  V30 3862 C 378.192 1.3352 -1.4294 0
M  V30 3863 C 378.572 2.10775 -0.117009 0
M  V30 3864 O 377.92 2.09966 0.901474 0
M  V30 3865 C 378.13 2.25456 -2.66403 0
M  V30 3866 C 379.478 2.87035 -3.12883 0
M  V30 3867 O 380.502 2.35766 -2.67007 0
M  V30 3868 O 379.361 3.80179 -3.92589 0
M  V30 3869 H 376.455 0.600318 -0.568812 0
M  V30 3870 H 379.001 0.595171 -1.58921 0
M  V30 3871 H 377.773 1.67851 -3.53471 0
M  V30 3872 H 377.396 3.06785 -2.52921 0
M  V30 3873 N 378.394 1.34581 0.820102 0
M  V30 3874 C 379.643 1.26437 1.57151 0
M  V30 3875 C 379.956 -0.163111 1.94919 0
M  V30 3876 O 381.162 -0.366722 2.69012 0
M  V30 3877 C 379.618 2.21658 2.83541 0
M  V30 3878 C 379.226 3.69679 2.53065 0
M  V30 3879 C 380.97 2.22428 3.61561 0
M  V30 3880 C 378.877 4.56761 3.75664 0
M  V30 3881 H 377.807 0.469707 0.589823 0
M  V30 3882 H 380.458 1.59763 0.902656 0
M  V30 3883 H 378.84 1.81287 3.52067 0
M  V30 3884 H 380.014 4.18605 1.92631 0
M  V30 3885 H 378.329 3.71384 1.88316 0
M  V30 3886 H 380.926 2.8471 4.52597 0
M  V30 3887 H 381.269 1.22434 3.97889 0
M  V30 3888 H 381.802 2.61259 2.99981 0
M  V30 3889 H 378.541 5.57702 3.44454 0
M  V30 3890 H 378.061 4.12568 4.35371 0
M  V30 3891 H 379.74 4.71509 4.43044 0
M  V30 3892 N 379.872 -1.04064 1.18357 0
M  V30 3893 C 381.149 -1.74252 0.888581 0
M  V30 3894 C 381.529 -2.02138 -0.60856 0
M  V30 3895 O 380.877 -1.66656 -1.56327 0
M  V30 3896 C 381.087 -3.0277 1.73584 0
M  V30 3897 C 382.435 -3.76506 1.96286 0
M  V30 3898 O 383.459 -3.12668 1.70637 0
M  V30 3899 O 382.318 -4.91243 2.39464 0
M  V30 3900 H 379.412 -0.758271 0.330082 0
M  V30 3901 H 381.958 -1.1013 1.2911 0
M  V30 3902 H 380.73 -2.78299 2.75073 0
M  V30 3903 H 380.353 -3.74631 1.33183 0
M  V30 3904 N 381.35 -0.985608 -1.22978 0
M  V30 3905 C 382.627 -0.573599 -1.87001 0
M  V30 3906 C 383.007 0.949213 -1.88555 0
M  V30 3907 O 382.355 1.82811 -1.37086 0
M  V30 3908 C 382.565 -1.18564 -3.28243 0
M  V30 3909 C 383.913 -1.28163 -4.04796 0
M  V30 3910 O 384.937 -1.13949 -3.37482 0
M  V30 3911 O 383.796 -1.50832 -5.25273 0
M  V30 3912 H 380.89 -0.193868 -0.803955 0
M  V30 3913 H 383.436 -1.08102 -1.30813 0
M  V30 3914 H 382.208 -2.22758 -3.21706 0
M  V30 3915 H 381.831 -0.663363 -3.92027 0
M  V30 3916 N 382.828 1.3818 -0.7579 0
M  V30 3917 C 384.053 2.04827 -0.325679 0
M  V30 3918 C 384.478 1.56788 1.03919 0
M  V30 3919 O 383.836 0.721811 1.66312 0
M  V30 3920 C 383.884 3.58774 -0.362447 0
M  V30 3921 O 382.988 4.07372 0.642033 0
M  V30 3922 H 382.329 0.64833 -0.143402 0
M  V30 3923 H 384.859 1.7677 -1.03023 0
M  V30 3924 H 384.869 4.07434 -0.214844 0
M  V30 3925 H 383.544 3.93096 -1.35824 0
M  V30 3926 H 382.121 3.70068 0.458688 0
M  V30 3927 N 384.306 0.507319 1.49211 0
M  V30 3928 C 385.531 -0.033725 2.07373 0
M  V30 3929 C 385.956 -1.29485 1.36437 0
M  V30 3930 O 385.314 -1.76294 0.423087 0
M  V30 3931 C 385.362 -0.263945 3.59633 0
M  V30 3932 O 384.466 -1.33737 3.90113 0
M  V30 3933 H 383.807 0.0290331 0.663365 0
M  V30 3934 H 386.337 0.708749 1.91932 0
M  V30 3935 H 386.347 -0.493536 4.05004 0
M  V30 3936 H 385.022 0.657424 4.10671 0
M  V30 3937 H 383.599 -1.09224 3.56545 0
M  V30 3938 N 385.784 -1.5574 0.241426 0
M  V30 3939 C 386.732 -2.22538 -0.676718 0
M  V30 3940 C 387.726 -1.21117 -1.18436 0
M  V30 3941 O 388.932 -1.39144 -1.14188 0
M  V30 3942 H 385.307 -0.713776 -0.236701 0
M  V30 3943 H 387.278 -2.98264 -0.0901187 0
M  V30 3944 C 386.027 -2.93439 -1.86518 0
M  V30 3945 H 385.35 -3.7125 -1.4837 0
M  V30 3946 H 386.79 -3.43549 -2.48495 0
M  V30 3947 C 385.249 -1.97008 -2.73294 0
M  V30 3948 O 385.779 -1.49965 -3.72657 0
M  V30 3949 N 383.985 -1.64227 -2.39745 0
M  V30 3950 H 383.532 -2.02677 -1.58996 0
M  V30 3951 H 383.49 -0.999708 -2.98083 0
M  V30 3952 N 387.262 0.0317525 -1.57568 0
M  V30 3953 C 388.487 0.738664 -1.938 0
M  V30 3954 C 388.912 1.68242 -0.841208 0
M  V30 3955 O 388.27 1.80157 0.203267 0
M  V30 3956 C 388.318 1.47417 -3.29091 0
M  V30 3957 O 387.422 2.5872 -3.2115 0
M  V30 3958 H 386.763 0.198856 -0.633524 0
M  V30 3959 H 389.293 -0.0119713 -2.04596 0
M  V30 3960 H 389.303 1.84468 -3.63917 0
M  V30 3961 H 387.978 0.781988 -4.08482 0
M  V30 3962 H 386.555 2.24231 -2.97951 0
M  V30 3963 N 388.74 1.54641 0.303973 0
M  V30 3964 C 389.986 1.74038 1.04109 0
M  V30 3965 C 390.319 0.523051 1.87024 0
M  V30 3966 O 389.594 -0.479874 1.88487 0
M  V30 3967 C 389.877 3.02761 1.94955 0
M  V30 3968 C 389.73 4.34787 1.1524 0
M  V30 3969 C 391.049 3.27336 2.94175 0
M  V30 3970 H 388.168 0.63323 0.377079 0
M  V30 3971 H 390.81 1.87354 0.316001 0
M  V30 3972 H 388.96 2.9154 2.56782 0
M  V30 3973 H 390.632 4.57922 0.557236 0
M  V30 3974 H 388.875 4.31407 0.455053 0
M  V30 3975 H 389.546 5.21116 1.8205 0
M  V30 3976 H 392.022 3.38148 2.42477 0
M  V30 3977 H 390.898 4.18726 3.54908 0
M  V30 3978 H 391.159 2.45491 3.67677 0
M  V30 3979 N 390.218 -0.567019 1.47046 0
M  V30 3980 C 391.15 -1.68985 1.54844 0
M  V30 3981 C 392.163 -1.56869 0.435431 0
M  V30 3982 O 393.352 -1.64006 0.70457 0
M  V30 3983 C 390.452 -3.07373 1.42742 0
M  V30 3984 C 389.625 -3.45339 2.6844 0
M  V30 3985 C 388.684 -4.62849 2.50314 0
M  V30 3986 O 387.71 -4.67922 3.24095 0
M  V30 3987 N 388.912 -5.58726 1.57499 0
M  V30 3988 H 391.677 -1.62745 2.51663 0
M  V30 3989 H 389.238 -0.753411 1.43302 0
M  V30 3990 H 391.23 -3.83803 1.28365 0
M  V30 3991 H 389.8 -3.07893 0.540445 0
M  V30 3992 H 389.02 -2.58455 2.97648 0
M  V30 3993 H 390.308 -3.67476 3.51907 0
M  V30 3994 H 389.706 -5.57376 0.966876 0
M  V30 3995 H 388.263 -6.34523 1.49078 0
M  V30 3996 N 391.696 -1.35014 -0.812953 0
M  V30 3997 C 392.644 -1.27435 -1.94585 0
M  V30 3998 C 393.638 -0.170494 -1.6854 0
M  V30 3999 O 394.844 -0.336085 -1.76835 0
M  V30 4000 H 391.219 -0.396144 -0.639198 0
M  V30 4001 H 393.19 -2.23158 -1.98098 0
M  V30 4002 C 391.939 -1.05677 -3.31252 0
M  V30 4003 H 391.262 -1.89853 -3.51846 0
M  V30 4004 H 392.702 -1.04413 -4.10943 0
M  V30 4005 C 391.161 0.239615 -3.36047 0
M  V30 4006 O 391.691 1.23759 -3.8216 0
M  V30 4007 N 389.897 0.276186 -2.89285 0
M  V30 4008 H 389.444 -0.53653 -2.51951 0
M  V30 4009 H 389.402 1.14332 -2.92875 0
M  V30 4010 N 393.175 1.03435 -1.18907 0
M  V30 4011 C 394.405 1.8012 -1.01195 0
M  V30 4012 C 394.813 1.8395 0.442613 0
M  V30 4013 O 394.156 1.27836 1.31923 0
M  V30 4014 C 394.218 3.26792 -1.49823 0
M  V30 4015 C 393.882 3.46609 -2.97844 0
M  V30 4016 C 394.879 3.37278 -3.95651 0
M  V30 4017 C 392.564 3.73001 -3.36416 0
M  V30 4018 C 394.558 3.54054 -5.30023 0
M  V30 4019 C 392.245 3.89423 -4.70949 0
M  V30 4020 C 393.243 3.79951 -5.67562 0
M  V30 4021 O 392.931 3.95895 -6.99659 0
M  V30 4022 H 392.663 0.573865 -0.357289 0
M  V30 4023 H 395.217 1.31207 -1.58031 0
M  V30 4024 H 393.447 3.76703 -0.873578 0
M  V30 4025 H 395.136 3.85055 -1.28404 0
M  V30 4026 H 395.902 3.16846 -3.67197 0
M  V30 4027 H 391.781 3.79469 -2.61772 0
M  V30 4028 H 395.325 3.46577 -6.05417 0
M  V30 4029 H 391.222 4.09351 -4.99101 0
M  V30 4030 H 391.99 4.13019 -7.06653 0
M  V30 4031 N 394.653 0.992116 1.22453 0
M  V30 4032 C 395.902 0.662992 1.90492 0
M  V30 4033 C 396.215 -0.808407 1.78113 0
M  V30 4034 O 397.421 -1.24908 2.41061 0
M  V30 4035 C 395.877 1.1353 3.41524 0
M  V30 4036 C 395.485 2.63187 3.62542 0
M  V30 4037 C 397.229 0.880465 4.15269 0
M  V30 4038 C 395.136 3.04024 5.0727 0
M  V30 4039 H 394.066 0.244278 0.713333 0
M  V30 4040 H 396.717 1.20157 1.38688 0
M  V30 4041 H 395.099 0.52485 3.92506 0
M  V30 4042 H 396.273 3.2957 3.22056 0
M  V30 4043 H 394.588 2.86543 3.02129 0
M  V30 4044 H 397.185 1.16128 5.21937 0
M  V30 4045 H 397.528 -0.183408 4.15896 0
M  V30 4046 H 398.061 1.45307 3.70312 0
M  V30 4047 H 394.8 4.09584 5.11782 0
M  V30 4048 H 394.32 2.42343 5.48662 0
M  V30 4049 H 395.999 2.95282 5.75689 0
M  V30 4050 N 396.131 -1.37776 0.765217 0
M  V30 4051 C 397.061 -2.32945 0.160953 0
M  V30 4052 C 398.042 -1.55454 -0.690516 0
M  V30 4053 O 399.227 -1.83721 -0.629318 0
M  V30 4054 C 396.357 -3.39669 -0.724031 0
M  V30 4055 C 395.311 -4.27992 0.0256173 0
M  V30 4056 C 394.637 -5.25673 -0.978383 0
M  V30 4057 C 395.937 -5.08309 1.20082 0
M  V30 4058 H 397.631 -2.83728 0.955969 0
M  V30 4059 H 395.177 -1.36416 0.461149 0
M  V30 4060 H 397.13 -4.05219 -1.15652 0
M  V30 4061 H 395.854 -2.87396 -1.5515 0
M  V30 4062 H 394.513 -3.63964 0.438812 0
M  V30 4063 H 394.161 -4.69682 -1.80022 0
M  V30 4064 H 393.861 -5.85625 -0.481378 0
M  V30 4065 H 395.385 -5.94098 -1.40995 0
M  V30 4066 H 396.799 -5.67034 0.845307 0
M  V30 4067 H 395.196 -5.77554 1.62947 0
M  V30 4068 H 396.266 -4.41365 2.00811 0
M  V30 4069 N 397.609 -0.515225 -1.4894 0
M  V30 4070 C 398.837 0.0206034 -2.0689 0
M  V30 4071 C 399.252 1.29514 -1.37374 0
M  V30 4072 O 398.609 1.76698 -0.456529 0
M  V30 4073 C 398.66 0.26351 -3.60538 0
M  V30 4074 O 398.381 -0.960517 -4.27441 0
M  V30 4075 C 399.882 0.841383 -4.35242 0
M  V30 4076 H 397.102 -0.0268608 -0.670462 0
M  V30 4077 H 399.646 -0.716651 -1.91532 0
M  V30 4078 H 397.801 0.950777 -3.75552 0
M  V30 4079 H 398.215 -0.73212 -5.19365 0
M  V30 4080 H 399.689 0.96085 -5.43573 0
M  V30 4081 H 400.166 1.8427 -3.98674 0
M  V30 4082 H 400.772 0.191143 -4.2487 0
M  V30 4083 N 399.087 1.5561 -0.249682 0
M  V30 4084 C 400.02 2.17537 0.689408 0
M  V30 4085 C 400.998 1.12829 1.17083 0
M  V30 4086 O 402.182 1.41229 1.24846 0
M  V30 4087 C 399.309 2.77828 1.93725 0
M  V30 4088 C 398.355 3.95615 1.59346 0
M  V30 4089 S 399.188 5.30988 0.69367 0
M  V30 4090 C 400.344 5.94734 1.95046 0
M  V30 4091 H 400.577 2.96852 0.163142 0
M  V30 4092 H 398.11 1.54362 -0.0341166 0
M  V30 4093 H 400.068 3.13199 2.65361 0
M  V30 4094 H 398.729 1.98454 2.43465 0
M  V30 4095 H 397.922 4.364 2.52132 0
M  V30 4096 H 397.524 3.61535 0.957512 0
M  V30 4097 H 399.816 6.12419 2.89739 0
M  V30 4098 H 400.759 6.90109 1.58604 0
M  V30 4099 H 401.167 5.23832 2.10381 0
M  V30 4100 N 400.565 -0.0233959 1.57583 0
M  V30 4101 C 401.513 -1.04063 2.08023 0
M  V30 4102 C 402.507 -1.37084 0.995204 0
M  V30 4103 O 403.713 -1.35923 1.18004 0
M  V30 4104 H 400.088 -0.353144 0.663922 0
M  V30 4105 H 402.059 -0.589453 2.9252 0
M  V30 4106 C 400.808 -2.33123 2.57971 0
M  V30 4107 H 400.131 -2.08577 3.4108 0
M  V30 4108 H 401.571 -3.02632 2.96967 0
M  V30 4109 C 400.03 -3.02483 1.48342 0
M  V30 4110 O 400.56 -3.92541 0.852898 0
M  V30 4111 N 398.766 -2.63909 1.21658 0
M  V30 4112 H 398.313 -1.90758 1.73116 0
M  V30 4113 H 398.271 -3.10633 0.485218 0
M  V30 4114 N 402.043 -1.548 -0.295768 0
M  V30 4115 C 402.993 -1.82497 -1.3667 0
M  V30 4116 C 403.977 -0.682434 -1.45711 0
M  V30 4117 O 405.169 -0.943207 -1.49775 0
M  V30 4118 C 402.298 -2.08036 -2.73086 0
M  V30 4119 C 401.384 -3.28488 -2.68247 0
M  V30 4120 N 401.775 -4.48924 -2.33025 0
M  V30 4121 C 400.073 -3.3062 -2.99343 0
M  V30 4122 C 400.774 -5.30956 -2.37613 0
M  V30 4123 N 399.75 -4.68805 -2.75178 0
M  V30 4124 H 403.552 -2.73175 -1.0841 0
M  V30 4125 H 401.066 -1.5437 -0.504361 0
M  V30 4126 H 403.063 -2.26027 -3.5031 0
M  V30 4127 H 401.723 -1.18629 -3.02254 0
M  V30 4128 H 402.734 -4.75432 -2.05389 0
M  V30 4129 H 399.411 -2.51336 -3.33371 0
M  V30 4130 H 400.801 -6.37199 -2.13135 0
M  V30 4131 N 403.521 0.559213 -1.47345 0
M  V30 4132 C 404.768 1.31648 -1.53867 0
M  V30 4133 C 405.096 1.93468 -0.200104 0
M  V30 4134 O 404.351 1.78295 0.806799 0
M  V30 4135 C 404.65 2.44853 -2.6035 0
M  V30 4136 C 404.316 2.00876 -4.03683 0
M  V30 4137 C 402.978 1.88599 -4.42701 0
M  V30 4138 C 405.33 1.67279 -4.93626 0
M  V30 4139 C 402.658 1.41017 -5.69501 0
M  V30 4140 C 405.01 1.21169 -6.20887 0
M  V30 4141 C 403.674 1.07487 -6.58789 0
M  V30 4142 H 402.944 0.481734 -0.56304 0
M  V30 4143 H 405.591 0.627301 -1.80934 0
M  V30 4144 H 403.896 3.19318 -2.27032 0
M  V30 4145 H 405.593 3.03039 -2.62619 0
M  V30 4146 H 402.183 2.11374 -3.72853 0
M  V30 4147 H 406.367 1.75638 -4.64182 0
M  V30 4148 H 401.623 1.29086 -5.97618 0
M  V30 4149 H 405.797 0.942345 -6.89995 0
M  V30 4150 H 403.424 0.703946 -7.56934 0
M  V30 4151 N 404.999 1.35443 0.805782 0
M  V30 4152 C 405.962 1.28301 1.89925 0
M  V30 4153 C 406.962 0.194285 1.59622 0
M  V30 4154 O 408.152 0.448036 1.6834 0
M  V30 4155 C 405.284 0.984997 3.2636 0
M  V30 4156 H 406.477 2.2553 1.97677 0
M  V30 4157 H 404.03 1.19979 1.00173 0
M  V30 4158 H 404.765 0.016603 3.24296 0
M  V30 4159 H 404.55 1.77269 3.4974 0
M  V30 4160 H 406.04 0.960651 4.064 0
M  V30 4161 N 406.477 -1.02803 1.19454 0
M  V30 4162 C 407.725 -1.75869 0.995722 0
M  V30 4163 C 408.046 -1.89138 -0.474543 0
M  V30 4164 O 407.316 -1.42558 -1.34366 0
M  V30 4165 H 405.896 -0.651511 0.365435 0
M  V30 4166 H 408.558 -1.24004 1.50363 0
M  V30 4167 H 407.654 -2.76661 1.44447 0
M  V30 4168 N 407.956 -0.998596 -1.21925 0
M  V30 4169 C 409.367 -0.711939 -1.72593 0
M  V30 4170 C 409.718 0.770842 -1.80423 0
M  V30 4171 O 408.843 1.60237 -1.4544 0
M  V30 4172 C 409.438 -1.28567 -3.13458 0
M  V30 4173 C 407.997 -1.04828 -3.61508 0
M  V30 4174 C 407.144 -1.4024 -2.39224 0
M  V30 4175 H 410.095 -1.17027 -1.07193 0
M  V30 4176 H 410.116 -0.667098 -3.74607 0
M  V30 4177 H 409.628 -2.36486 -3.07727 0
M  V30 4178 H 407.729 0.0140383 -3.72597 0
M  V30 4179 H 407.842 -1.71566 -4.47328 0
M  V30 4180 H 406.206 -0.821077 -2.41103 0
M  V30 4181 H 406.989 -2.49176 -2.36149 0
M  V30 4182 N 409.434 1.37368 -0.772513 0
M  V30 4183 C 410.364 2.32856 -0.173304 0
M  V30 4184 C 411.345 1.55818 0.682262 0
M  V30 4185 O 412.53 1.84052 0.619566 0
M  V30 4186 C 409.66 3.40048 0.706007 0
M  V30 4187 C 408.614 4.27973 -0.0483144 0
M  V30 4188 C 407.94 5.26184 0.950491 0
M  V30 4189 C 409.24 5.07665 -1.22776 0
M  V30 4190 H 410.934 2.83217 -0.971002 0
M  V30 4191 H 408.48 1.3617 -0.468377 0
M  V30 4192 H 410.433 4.05827 1.13501 0
M  V30 4193 H 409.157 2.88214 1.53623 0
M  V30 4194 H 407.816 3.63726 -0.458107 0
M  V30 4195 H 407.464 4.7063 1.77529 0
M  V30 4196 H 407.164 5.85872 0.450314 0
M  V30 4197 H 408.688 5.94838 1.37842 0
M  V30 4198 H 410.102 5.66578 -0.875366 0
M  V30 4199 H 408.499 5.76681 -1.66007 0
M  V30 4200 H 409.569 4.40294 -2.03149 0
M  V30 4201 N 410.912 0.523116 1.48665 0
M  V30 4202 C 411.844 -0.280421 2.27478 0
M  V30 4203 C 412.857 -0.910694 1.34945 0
M  V30 4204 O 414.046 -0.790295 1.60052 0
M  V30 4205 C 411.146 -1.41171 3.08097 0
M  V30 4206 C 410.319 -0.884642 4.28361 0
M  V30 4207 C 409.378 -1.89622 4.90846 0
M  V30 4208 O 408.404 -1.4559 5.50265 0
M  V30 4209 N 409.606 -3.22801 4.82472 0
M  V30 4210 H 412.371 0.395481 2.97079 0
M  V30 4211 H 409.932 0.357018 1.57915 0
M  V30 4212 H 411.924 -2.08645 3.4677 0
M  V30 4213 H 410.494 -1.99139 2.40961 0
M  V30 4214 H 409.714 -0.0341177 3.94185 0
M  V30 4215 H 411.002 -0.511268 5.06225 0
M  V30 4216 H 410.4 -3.61246 4.35336 0
M  V30 4217 H 408.957 -3.85927 5.25265 0
M  V30 4218 N 412.39 -1.55475 0.257931 0
M  V30 4219 C 413.323 -2.179 -0.677862 0
M  V30 4220 C 414.301 -1.13448 -1.16483 0
M  V30 4221 O 415.485 -1.41889 -1.24095 0
M  V30 4222 C 412.612 -2.78851 -1.92249 0
M  V30 4223 C 411.658 -3.96454 -1.57246 0
M  V30 4224 S 412.491 -5.31349 -0.665501 0
M  V30 4225 C 413.647 -5.9576 -1.91889 0
M  V30 4226 H 413.88 -2.96934 -0.147396 0
M  V30 4227 H 411.413 -1.54342 0.0423023 0
M  V30 4228 H 413.371 -3.14602 -2.63697 0
M  V30 4229 H 412.032 -1.99742 -2.42409 0
M  V30 4230 H 411.225 -4.37731 -2.49814 0
M  V30 4231 H 410.827 -3.62038 -0.938325 0
M  V30 4232 H 413.119 -6.13947 -2.86487 0
M  V30 4233 H 414.062 -6.9094 -1.54942 0
M  V30 4234 H 414.47 -5.2494 -2.076 0
M  V30 4235 N 413.868 0.0150385 -1.57593 0
M  V30 4236 C 414.801 1.04475 -2.0288 0
M  V30 4237 C 415.779 1.3436 -0.915764 0
M  V30 4238 O 416.963 1.46779 -1.18271 0
M  V30 4239 C 414.09 2.37608 -2.41371 0
M  V30 4240 C 413.136 2.23487 -3.63257 0
M  V30 4241 S 413.969 1.57505 -5.11813 0
M  V30 4242 C 415.125 2.921 -5.5356 0
M  V30 4243 H 415.358 0.65907 -2.89903 0
M  V30 4244 H 412.891 0.225452 -1.52745 0
M  V30 4245 H 414.849 3.14165 -2.64217 0
M  V30 4246 H 413.51 2.7332 -1.54775 0
M  V30 4247 H 412.703 3.21802 -3.87891 0
M  V30 4248 H 412.305 1.55074 -3.40335 0
M  V30 4249 H 414.597 3.88419 -5.55101 0
M  V30 4250 H 415.54 2.72184 -6.53698 0
M  V30 4251 H 415.948 2.95318 -4.8109 0
M  V30 4252 N 415.346 1.54954 0.287554 0
M  V30 4253 C 416.592 1.75132 1.02257 0
M  V30 4254 C 416.925 0.542858 1.86458 0
M  V30 4255 O 416.2 -0.459856 1.88986 0
M  V30 4256 C 416.483 3.04812 1.91733 0
M  V30 4257 C 416.336 4.35985 1.10622 0
M  V30 4258 C 417.655 3.30438 2.90687 0
M  V30 4259 H 414.774 0.637194 0.370341 0
M  V30 4260 H 417.416 1.87678 0.296111 0
M  V30 4261 H 415.566 2.94247 2.53675 0
M  V30 4262 H 417.238 4.58487 0.508636 0
M  V30 4263 H 415.481 4.31865 0.409271 0
M  V30 4264 H 416.152 5.23017 1.76513 0
M  V30 4265 H 418.628 3.40701 2.38877 0
M  V30 4266 H 417.504 4.22467 3.50447 0
M  V30 4267 H 417.765 2.49377 3.65053 0
M  V30 4268 N 416.824 -0.551391 1.4764 0
M  V30 4269 C 418.049 -1.33837 1.58437 0
M  V30 4270 C 418.474 -1.866 0.237063 0
M  V30 4271 O 417.832 -1.6328 -0.787994 0
M  V30 4272 C 417.88 -2.48014 2.61766 0
M  V30 4273 O 416.984 -3.50419 2.1744 0
M  V30 4274 H 416.325 -0.397299 0.532024 0
M  V30 4275 H 418.855 -0.665759 1.93465 0
M  V30 4276 H 418.865 -2.94503 2.82369 0
M  V30 4277 H 417.54 -2.08969 3.5959 0
M  V30 4278 H 416.117 -3.10196 2.06961 0
M  V30 4279 N 418.302 -1.35869 -0.798587 0
M  V30 4280 C 419.55 -1.29332 -1.55298 0
M  V30 4281 C 419.871 0.129729 -1.94568 0
M  V30 4282 O 419.141 1.06796 -1.6423 0
M  V30 4283 H 417.721 -0.475737 -0.57592 0
M  V30 4284 H 420.383 -1.70062 -0.952093 0
M  V30 4285 H 419.479 -1.91458 -2.46476 0
M  V30 4286 N 419.78 1.02168 -1.19998 0
M  V30 4287 C 420.71 2.12488 -0.96804 0
M  V30 4288 C 421.691 1.69799 0.101185 0
M  V30 4289 O 422.876 1.94121 -0.0552993 0
M  V30 4290 C 420.006 3.43479 -0.513776 0
M  V30 4291 C 418.96 3.99884 -1.52566 0
M  V30 4292 C 418.286 5.26582 -0.928214 0
M  V30 4293 C 419.586 4.33861 -2.90795 0
M  V30 4294 H 421.28 2.32149 -1.89069 0
M  V30 4295 H 418.826 1.11564 -0.910468 0
M  V30 4296 H 420.779 4.20036 -0.338774 0
M  V30 4297 H 419.503 3.23561 0.444493 0
M  V30 4298 H 418.162 3.25429 -1.68794 0
M  V30 4299 H 417.81 5.02986 0.0378289 0
M  V30 4300 H 417.51 5.65284 -1.60397 0
M  V30 4301 H 419.034 6.05799 -0.764167 0
M  V30 4302 H 420.448 5.01327 -2.78109 0
M  V30 4303 H 418.845 4.83664 -3.55231 0
M  V30 4304 H 419.915 3.42848 -3.42904 0
M  V30 4305 N 421.258 1.00505 1.21394 0
M  V30 4306 C 422.674 0.717873 1.42544 0
M  V30 4307 C 422.874 -0.706936 1.88692 0
M  V30 4308 O 421.93 -1.47627 2.04847 0
M  V30 4309 C 423.243 1.73377 2.45684 0
M  V30 4310 C 424.791 1.75059 2.59467 0
M  V30 4311 C 425.266 2.75545 3.6584 0
M  V30 4312 N 426.757 2.74213 3.73311 0
M  V30 4313 C 427.492 3.48626 4.55245 0
M  V30 4314 N 426.988 4.32678 5.41075 0
M  V30 4315 N 428.781 3.37276 4.49668 0
M  V30 4316 H 420.932 1.92506 0.897503 0
M  V30 4317 H 423.195 0.830919 0.456375 0
M  V30 4318 H 422.901 2.75395 2.18748 0
M  V30 4319 H 422.775 1.53647 3.44489 0
M  V30 4320 H 425.162 0.737337 2.8574 0
M  V30 4321 H 425.243 1.98861 1.60897 0
M  V30 4322 H 424.887 3.77028 3.40313 0
M  V30 4323 H 424.817 2.49009 4.64007 0
M  V30 4324 H 427.308 2.13234 3.11993 0
M  V30 4325 H 427.621 4.86253 6.00648 0
M  V30 4326 H 425.966 4.3676 5.40616 0
M  V30 4327 H 429.157 2.71043 3.81646 0
M  V30 4328 H 429.33 3.95524 5.13288 0
M  V30 4329 N 422.737 -1.36956 0.779787 0
M  V30 4330 C 423.7 -2.2851 0.177662 0
M  V30 4331 C 424.7 -1.48393 -0.619377 0
M  V30 4332 O 425.89 -1.68505 -0.441785 0
M  V30 4333 C 423.022 -3.32428 -0.755279 0
M  V30 4334 H 424.215 -2.83269 0.984823 0
M  V30 4335 H 421.768 -1.46358 0.548544 0
M  V30 4336 H 422.503 -2.82808 -1.58714 0
M  V30 4337 H 422.288 -3.91659 -0.185817 0
M  V30 4338 H 423.778 -4.00824 -1.17174 0
M  V30 4339 N 424.215 -0.530993 -1.48385 0
M  V30 4340 C 425.162 0.231223 -2.29639 0
M  V30 4341 C 426.132 0.932864 -1.37429 0
M  V30 4342 O 427.317 0.933692 -1.66394 0
M  V30 4343 C 424.457 1.27155 -3.2082 0
M  V30 4344 C 423.57 0.578655 -4.28107 0
M  V30 4345 C 422.705 1.602 -5.06467 0
M  V30 4346 C 421.744 0.892625 -6.05556 0
M  V30 4347 N 420.881 1.86157 -6.76971 0
M  V30 4348 H 425.721 -0.467848 -2.94305 0
M  V30 4349 H 423.258 -0.242556 -1.45086 0
M  V30 4350 H 425.216 1.88703 -3.72085 0
M  V30 4351 H 423.846 1.939 -2.58075 0
M  V30 4352 H 422.898 -0.150782 -3.80101 0
M  V30 4353 H 424.21 0.0217065 -4.98795 0
M  V30 4354 H 423.364 2.29173 -5.61751 0
M  V30 4355 H 422.103 2.19285 -4.35621 0
M  V30 4356 H 421.108 0.188829 -5.49476 0
M  V30 4357 H 422.333 0.307878 -6.78402 0
M  V30 4358 H 420.279 2.44147 -6.08875 0
M  V30 4359 H 420.196 1.35608 -7.43738 0
M  V30 4360 H 421.464 2.54325 -7.36844 0
M  V30 4361 N 425.693 1.55336 -0.266172 0
M  V30 4362 C 426.97 1.91372 0.404486 0
M  V30 4363 C 427.35 1.18935 1.74407 0
M  V30 4364 O 426.698 0.3132 2.26343 0
M  V30 4365 C 426.908 3.44581 0.553593 0
M  V30 4366 C 428.256 4.16196 0.840618 0
M  V30 4367 O 429.28 3.50426 0.638739 0
M  V30 4368 O 428.139 5.32567 1.22618 0
M  V30 4369 H 425.233 0.797194 0.220025 0
M  V30 4370 H 427.779 1.66813 -0.311664 0
M  V30 4371 H 426.551 3.89357 -0.389498 0
M  V30 4372 H 426.174 3.75065 1.31955 0
M  V30 4373 N 427.171 -0.0066808 1.57599 0
M  V30 4374 C 428.119 -1.01851 2.09115 0
M  V30 4375 C 429.113 -1.36021 1.00969 0
M  V30 4376 O 430.319 -1.34663 1.19439 0
M  V30 4377 H 426.694 -0.346083 0.667631 0
M  V30 4378 H 428.665 -0.558394 2.93129 0
M  V30 4379 C 427.414 -2.30374 2.60429 0
M  V30 4380 H 426.737 -2.04947 3.43273 0
M  V30 4381 H 428.177 -2.99466 3.00161 0
M  V30 4382 C 426.636 -3.00893 1.51542 0
M  V30 4383 O 427.166 -3.91614 0.894484 0
M  V30 4384 N 425.372 -2.62603 1.2445 0
M  V30 4385 H 424.919 -1.88911 1.75129 0
M  V30 4386 H 424.877 -3.10101 0.518137 0
M  V30 4387 N 428.649 -1.55105 -0.279332 0
M  V30 4388 C 429.926 -1.66119 -1.03267 0
M  V30 4389 C 430.306 -0.523525 -2.04505 0
M  V30 4390 O 429.654 0.477194 -2.23462 0
M  V30 4391 C 429.864 -3.05067 -1.69515 0
M  V30 4392 C 431.212 -3.62606 -2.20912 0
M  V30 4393 O 432.236 -3.07659 -1.79512 0
M  V30 4394 O 431.095 -4.58861 -2.96831 0
M  V30 4395 H 428.189 -0.674429 -0.478618 0
M  V30 4396 H 430.735 -1.67446 -0.275694 0
M  V30 4397 H 429.507 -3.79311 -0.9612 0
M  V30 4398 H 429.13 -3.07611 -2.51915 0
M  V30 4399 N 430.127 0.543554 -1.4793 0
M  V30 4400 C 431.037 1.67657 -1.64098 0
M  V30 4401 C 432.053 1.65934 -0.523622 0
M  V30 4402 O 433.229 1.85133 -0.792943 0
M  V30 4403 C 430.294 3.04146 -1.66421 0
M  V30 4404 C 429.355 3.16831 -2.89684 0
M  V30 4405 C 428.588 4.46809 -2.91886 0
M  V30 4406 O 428.811 5.33095 -2.02895 0
M  V30 4407 O 427.745 4.63573 -3.83906 0
M  V30 4408 H 431.571 1.56957 -2.59997 0
M  V30 4409 H 429.156 0.715116 -1.31173 0
M  V30 4410 H 431.038 3.85346 -1.70548 0
M  V30 4411 H 429.713 3.152 -0.736923 0
M  V30 4412 H 428.62 2.34977 -2.91095 0
M  V30 4413 H 429.953 3.10687 -3.81752 0
M  V30 4414 N 431.605 1.3629 0.791371 0
M  V30 4415 C 433.021 1.16661 1.08914 0
M  V30 4416 C 433.221 -0.0106266 2.01497 0
M  V30 4417 O 432.277 -0.676596 2.43266 0
M  V30 4418 C 433.59 2.47656 1.70549 0
M  V30 4419 C 435.138 2.54002 1.82899 0
M  V30 4420 C 435.613 3.85078 2.47949 0
M  V30 4421 N 437.104 3.86413 2.5542 0
M  V30 4422 C 437.839 4.84572 3.06557 0
M  V30 4423 N 437.335 5.93124 3.58016 0
M  V30 4424 N 439.128 4.71994 3.05251 0
M  V30 4425 H 431.279 2.11668 0.176238 0
M  V30 4426 H 433.542 0.937486 0.140796 0
M  V30 4427 H 433.248 3.34059 1.09989 0
M  V30 4428 H 433.122 2.63319 2.70079 0
M  V30 4429 H 435.509 1.68018 2.42598 0
M  V30 4430 H 435.59 2.42239 0.821808 0
M  V30 4431 H 435.234 4.71467 1.88895 0
M  V30 4432 H 435.164 3.94135 3.49235 0
M  V30 4433 H 437.655 3.07988 2.18979 0
M  V30 4434 H 437.968 6.63999 3.95381 0
M  V30 4435 H 436.313 5.96796 3.56173 0
M  V30 4436 H 439.504 3.86321 2.64336 0
M  V30 4437 H 439.677 5.48653 3.44796 0
M  V30 4438 N 433.083 -1.0153 1.20538 0
M  V30 4439 C 434.03 -2.10098 0.955383 0
M  V30 4440 C 435 -1.65702 -0.114878 0
M  V30 4441 O 436.185 -1.90776 0.0301118 0
M  V30 4442 C 433.325 -3.41236 0.514969 0
M  V30 4443 C 432.438 -3.99102 1.65353 0
M  V30 4444 C 431.573 -5.18306 1.16329 0
M  V30 4445 C 430.612 -5.68258 2.27485 0
M  V30 4446 N 429.749 -6.78722 1.7967 0
M  V30 4447 H 434.589 -2.30818 1.88486 0
M  V30 4448 H 432.126 -1.13189 0.939499 0
M  V30 4449 H 434.084 -4.16504 0.240935 0
M  V30 4450 H 432.714 -3.20585 -0.377512 0
M  V30 4451 H 431.766 -3.20918 2.04245 0
M  V30 4452 H 433.078 -4.32177 2.49047 0
M  V30 4453 H 432.232 -6.00782 0.845302 0
M  V30 4454 H 430.971 -4.86799 0.296254 0
M  V30 4455 H 429.976 -4.84385 2.60099 0
M  V30 4456 H 431.201 -6.01798 3.14667 0
M  V30 4457 H 429.147 -6.49042 0.95295 0
M  V30 4458 H 429.064 -7.10996 2.56944 0
M  V30 4459 H 430.332 -7.64759 1.50875 0
M  V30 4460 N 434.561 -1.01147 -1.20859 0
M  V30 4461 C 435.838 -0.613136 -1.85742 0
M  V30 4462 C 436.218 0.909004 -1.90526 0
M  V30 4463 O 435.566 1.79862 -1.40932 0
M  V30 4464 C 435.776 -1.255 -3.25654 0
M  V30 4465 C 437.124 -1.3672 -4.01986 0
M  V30 4466 O 438.148 -1.21082 -3.34989 0
M  V30 4467 O 437.007 -1.6194 -5.21956 0
M  V30 4468 H 434.101 -0.210878 -0.799662 0
M  V30 4469 H 436.647 -1.10853 -1.2849 0
M  V30 4470 H 435.419 -2.29532 -3.16908 0
M  V30 4471 H 435.042 -0.746369 -3.90532 0
M  V30 4472 N 436.039 1.36541 -0.78704 0
M  V30 4473 C 437.264 2.0409 -0.369053 0
M  V30 4474 C 437.689 1.58957 1.00569 0
M  V30 4475 O 437.047 0.756926 1.64743 0
M  V30 4476 C 437.095 3.57924 -0.438466 0
M  V30 4477 O 436.199 4.08642 0.555479 0
M  V30 4478 H 435.54 0.645142 -0.157122 0
M  V30 4479 H 438.07 1.74545 -1.06749 0
M  V30 4480 H 438.08 4.06887 -0.301218 0
M  V30 4481 H 436.755 3.90127 -1.44132 0
M  V30 4482 H 435.332 3.70958 0.380088 0
M  V30 4483 N 437.518 0.538854 1.48102 0
M  V30 4484 C 438.466 -0.232325 2.31437 0
M  V30 4485 C 439.46 -0.927004 1.41785 0
M  V30 4486 O 440.666 -0.850378 1.58646 0
M  V30 4487 H 437.041 -0.0937916 0.746128 0
M  V30 4488 H 439.012 0.489986 2.9435 0
M  V30 4489 C 437.761 -1.26074 3.24038 0
M  V30 4490 H 437.084 -0.735609 3.92974 0
M  V30 4491 H 438.524 -1.77157 3.85216 0
M  V30 4492 C 436.983 -2.29902 2.46265 0
M  V30 4493 O 437.513 -3.36502 2.19384 0
M  V30 4494 N 435.719 -2.03348 2.07601 0
M  V30 4495 H 435.266 -1.16675 2.29662 0
M  V30 4496 H 435.224 -2.73038 1.55877 0
M  V30 4497 N 438.996 -1.55193 0.274407 0
M  V30 4498 C 440.244 -1.99187 -0.341902 0
M  V30 4499 C 440.565 -1.16422 -1.56431 0
M  V30 4500 O 439.835 -0.253573 -1.94252 0
M  V30 4501 H 438.415 -0.735721 -0.129317 0
M  V30 4502 H 441.077 -1.91168 0.379578 0
M  V30 4503 H 440.173 -3.05629 -0.632253 0
M  V30 4504 N 440.474 -0.00167713 -1.576 0
M  V30 4505 C 441.422 1.0074 -2.09652 0
M  V30 4506 C 442.416 1.35483 -1.01689 0
M  V30 4507 O 443.622 1.34028 -1.20152 0
M  V30 4508 H 439.997 0.342537 -0.669457 0
M  V30 4509 H 441.968 0.542841 -2.93421 0
M  V30 4510 C 440.717 2.2899 -2.61647 0
M  V30 4511 H 440.04 2.03124 -3.44355 0
M  V30 4512 H 441.48 2.9787 -3.01744 0
M  V30 4513 C 439.939 3.00085 -1.53136 0
M  V30 4514 O 440.469 3.91135 -0.91524 0
M  V30 4515 N 438.675 2.6194 -1.25841 0
M  V30 4516 H 438.222 1.8798 -1.76129 0
M  V30 4517 H 438.18 3.09822 -0.534576 0
M  V30 4518 N 441.952 1.55251 0.271103 0
M  V30 4519 C 442.882 1.9127 1.33933 0
M  V30 4520 C 443.863 0.77478 1.5143 0
M  V30 4521 O 445.048 1.03307 1.64442 0
M  V30 4522 C 442.178 2.18627 2.69851 0
M  V30 4523 C 441.132 3.34442 2.67081 0
M  V30 4524 C 440.458 3.47284 4.06569 0
M  V30 4525 C 441.758 4.70784 2.26185 0
M  V30 4526 H 443.452 2.80744 1.04035 0
M  V30 4527 H 440.998 1.35077 0.499017 0
M  V30 4528 H 442.951 2.42413 3.44694 0
M  V30 4529 H 441.675 1.25955 3.01335 0
M  V30 4530 H 440.334 3.10627 1.94695 0
M  V30 4531 H 439.982 2.52074 4.35279 0
M  V30 4532 H 439.682 4.25152 4.0561 0
M  V30 4533 H 441.206 3.73363 4.83148 0
M  V30 4534 H 442.62 4.94102 2.90751 0
M  V30 4535 H 441.017 5.51582 2.36384 0
M  V30 4536 H 442.087 4.69478 1.21319 0
M  V30 4537 N 443.43 -0.535701 1.48216 0
M  V30 4538 C 444.393 -1.623 1.61838 0
M  V30 4539 C 445.393 -1.53087 0.492024 0
M  V30 4540 O 446.583 -1.5686 0.757668 0
M  V30 4541 C 443.715 -3.01907 1.58319 0
M  V30 4542 H 444.908 -1.51564 2.58783 0
M  V30 4543 H 442.461 -0.757317 1.36727 0
M  V30 4544 H 443.196 -3.18155 0.628299 0
M  V30 4545 H 442.981 -3.10003 2.40085 0
M  V30 4546 H 444.471 -3.80969 1.71033 0
M  V30 4547 N 444.908 -1.36708 -0.784132 0
M  V30 4548 C 445.855 -1.31466 -1.89698 0
M  V30 4549 C 446.825 -0.18239 -1.65096 0
M  V30 4550 O 448.01 -0.369762 -1.87183 0
M  V30 4551 C 445.15 -1.1151 -3.26588 0
M  V30 4552 C 444.263 -2.33859 -3.63227 0
M  V30 4553 C 443.398 -2.06873 -4.89262 0
M  V30 4554 C 442.437 -3.25154 -5.18595 0
M  V30 4555 N 441.574 -2.978 -6.35814 0
M  V30 4556 H 446.414 -2.26619 -1.93515 0
M  V30 4557 H 443.951 -1.12625 -0.946256 0
M  V30 4558 H 445.909 -0.979653 -4.05535 0
M  V30 4559 H 444.539 -0.200103 -3.22179 0
M  V30 4560 H 443.591 -2.58188 -2.79362 0
M  V30 4561 H 444.903 -3.22109 -3.8085 0
M  V30 4562 H 444.057 -1.90289 -5.76086 0
M  V30 4563 H 442.796 -1.15942 -4.73718 0
M  V30 4564 H 441.801 -3.42292 -4.30251 0
M  V30 4565 H 443.026 -4.1692 -5.36055 0
M  V30 4566 H 440.972 -2.09485 -6.21653 0
M  V30 4567 H 440.889 -3.7959 -6.53794 0
M  V30 4568 H 442.157 -2.84805 -7.25607 0
M  V30 4569 N 446.386 1.0089 -1.21074 0
M  V30 4570 C 447.634 1.74262 -1.02358 0
M  V30 4571 C 447.955 1.89869 0.444393 0
M  V30 4572 O 447.225 1.44677 1.32081 0
M  V30 4573 H 445.805 0.645615 -0.375754 0
M  V30 4574 H 448.467 1.21596 -1.52317 0
M  V30 4575 H 447.563 2.74328 -1.4883 0
M  V30 4576 N 447.864 1.01787 1.20321 0
M  V30 4577 C 449.141 0.622978 1.85414 0
M  V30 4578 C 449.521 -0.898887 1.91006 0
M  V30 4579 O 448.869 -1.79112 1.41884 0
M  V30 4580 C 449.079 1.27226 3.24984 0
M  V30 4581 C 450.427 1.3885 4.01255 0
M  V30 4582 O 451.451 1.22857 3.34342 0
M  V30 4583 O 450.31 1.64705 5.2109 0
M  V30 4584 H 447.404 0.215116 0.798533 0
M  V30 4585 H 449.95 1.11533 1.27901 0
M  V30 4586 H 448.722 2.31209 3.15687 0
M  V30 4587 H 448.345 0.767069 3.90131 0
M  V30 4588 N 449.342 -1.36122 0.79427 0
M  V30 4589 C 450.305 -2.28309 0.201889 0
M  V30 4590 C 451.305 -1.49041 -0.603603 0
M  V30 4591 O 452.495 -1.68964 -0.423888 0
M  V30 4592 C 449.627 -3.3321 -0.719978 0
M  V30 4593 H 450.82 -2.82208 1.01481 0
M  V30 4594 H 448.373 -1.45768 0.564037 0
M  V30 4595 H 449.108 -2.84475 -1.55706 0
M  V30 4596 H 448.893 -3.91835 -0.144266 0
M  V30 4597 H 450.383 -4.02044 -1.12916 0
M  V30 4598 N 450.82 -0.546701 -1.47814 0
M  V30 4599 C 451.783 0.196287 -2.28358 0
M  V30 4600 C 452.783 0.852437 -1.36346 0
M  V30 4601 O 453.973 0.709913 -1.59078 0
M  V30 4602 C 451.105 1.28579 -3.15722 0
M  V30 4603 H 452.298 -0.511086 -2.95513 0
M  V30 4604 H 449.851 -0.303248 -1.5333 0
M  V30 4605 H 450.586 2.0259 -2.53235 0
M  V30 4606 H 450.371 0.820229 -3.83425 0
M  V30 4607 H 451.861 1.80793 -3.76435 0
M  V30 4608 N 452.299 1.55045 -0.282633 0
M  V30 4609 C 453.247 2.24254 0.617478 0
M  V30 4610 C 454.241 1.24215 1.15183 0
M  V30 4611 O 455.447 1.42123 1.10459 0
M  V30 4612 H 451.822 0.719801 0.217693 0
M  V30 4613 H 453.793 2.98398 0.0110076 0
M  V30 4614 C 452.542 2.98281 1.78672 0
M  V30 4615 H 451.865 3.75053 1.38475 0
M  V30 4616 H 453.305 3.50017 2.393 0
M  V30 4617 C 451.764 2.04184 2.67975 0
M  V30 4618 O 452.294 1.59792 3.6855 0
M  V30 4619 N 450.5 1.70526 2.35307 0
M  V30 4620 H 450.047 2.06821 1.53567 0
M  V30 4621 H 450.005 1.07839 2.95327 0
M  V30 4622 N 453.777 0.010035 1.57597 0
M  V30 4623 C 455.005 -0.683413 1.95287 0
M  V30 4624 C 455.42 -1.66747 0.885481 0
M  V30 4625 O 454.777 -1.82003 -0.134629 0
M  V30 4626 C 454.828 -1.40652 3.33015 0
M  V30 4627 O 454.549 -0.461916 4.35658 0
M  V30 4628 C 456.05 -2.19356 3.85225 0
M  V30 4629 H 453.27 -0.189708 0.643624 0
M  V30 4630 H 455.814 0.0641359 2.04399 0
M  V30 4631 H 453.969 -2.10562 3.2518 0
M  V30 4632 H 454.383 -0.973215 5.15392 0
M  V30 4633 H 455.857 -2.65433 4.83993 0
M  V30 4634 H 456.334 -3.02457 3.18459 0
M  V30 4635 H 456.94 -1.54442 3.96267 0
M  V30 4636 N 455.255 -1.55392 -0.262866 0
M  V30 4637 C 456.503 -1.76127 -0.991147 0
M  V30 4638 C 456.824 -0.571083 -1.8645 0
M  V30 4639 O 456.094 0.413698 -1.91482 0
M  V30 4640 H 454.674 -0.649528 -0.368948 0
M  V30 4641 H 457.336 -1.9281 -0.284655 0
M  V30 4642 H 456.432 -2.6663 -1.62219 0
M  V30 4643 N 456.733 0.527833 -1.48498 0
M  V30 4644 C 457.979 1.28545 -1.56857 0
M  V30 4645 C 458.312 1.92678 -0.242651 0
M  V30 4646 O 457.587 1.79394 0.751545 0
M  V30 4647 C 457.87 2.37314 -2.70839 0
M  V30 4648 C 457.723 1.77858 -4.13142 0
M  V30 4649 C 459.042 3.39068 -2.80573 0
M  V30 4650 H 456.161 0.466006 -0.570971 0
M  V30 4651 H 458.803 0.587784 -1.8068 0
M  V30 4652 H 456.953 2.96821 -2.50658 0
M  V30 4653 H 458.625 1.22385 -4.44769 0
M  V30 4654 H 456.868 1.08383 -4.20042 0
M  V30 4655 H 457.539 2.56624 -4.88721 0
M  V30 4656 H 460.015 2.89518 -2.98862 0
M  V30 4657 H 458.891 4.12566 -3.6205 0
M  V30 4658 H 459.152 3.9975 -1.88818 0
M  V30 4659 N 458.211 1.37122 0.776871 0
M  V30 4660 C 459.161 1.28989 1.88005 0
M  V30 4661 C 460.145 0.178765 1.59904 0
M  V30 4662 O 461.337 0.412705 1.72121 0
M  V30 4663 C 458.466 1.09402 3.25402 0
M  V30 4664 C 457.552 2.25036 3.59471 0
M  V30 4665 N 457.943 3.50407 3.64759 0
M  V30 4666 C 456.241 2.17078 3.89607 0
M  V30 4667 C 456.942 4.26628 3.95428 0
M  V30 4668 N 455.918 3.55709 4.11062 0
M  V30 4669 H 459.72 2.2394 1.90337 0
M  V30 4670 H 457.234 1.30021 0.973052 0
M  V30 4671 H 459.231 1.01661 4.04315 0
M  V30 4672 H 457.891 0.153632 3.24336 0
M  V30 4673 H 458.902 3.8438 3.47091 0
M  V30 4674 H 455.579 1.31067 3.96393 0
M  V30 4675 H 456.969 5.35107 4.06338 0
M  V30 4676 N 459.689 -1.00246 1.21608 0
M  V30 4677 C 460.652 -2.07233 0.979133 0
M  V30 4678 C 461.652 -1.6072 -0.0508219 0
M  V30 4679 O 462.842 -1.73196 0.186712 0
M  V30 4680 C 459.974 -3.37546 0.477016 0
M  V30 4681 H 461.167 -2.29687 1.92831 0
M  V30 4682 H 458.72 -1.17261 1.03342 0
M  V30 4683 H 459.455 -3.20773 -0.476966 0
M  V30 4684 H 459.24 -3.72638 1.21997 0
M  V30 4685 H 460.73 -4.16285 0.331181 0
M  V30 4686 N 461.167 -1.02423 -1.1978 0
M  V30 4687 C 462.097 -0.62157 -2.25075 0
M  V30 4688 C 463.078 0.367148 -1.6609 0
M  V30 4689 O 464.263 0.250892 -1.92573 0
M  V30 4690 C 461.393 0.0331826 -3.47284 0
M  V30 4691 C 460.347 -0.877323 -4.18912 0
M  V30 4692 C 459.673 -0.0879296 -5.34628 0
M  V30 4693 C 460.973 -2.18892 -4.74219 0
M  V30 4694 H 462.667 -1.50179 -2.59011 0
M  V30 4695 H 460.213 -0.723547 -1.24502 0
M  V30 4696 H 462.166 0.326488 -4.20133 0
M  V30 4697 H 460.89 0.948164 -3.12534 0
M  V30 4698 H 459.549 -1.15475 -3.47938 0
M  V30 4699 H 459.197 0.828941 -4.96123 0
M  V30 4700 H 458.897 -0.694359 -5.83483 0
M  V30 4701 H 460.421 0.198743 -6.10276 0
M  V30 4702 H 461.835 -1.95746 -5.38847 0
M  V30 4703 H 460.232 -2.74686 -5.33542 0
M  V30 4704 H 461.302 -2.84674 -3.92541 0
M  V30 4705 N 462.645 1.35699 -0.801477 0
M  V30 4706 C 463.575 2.32436 -0.222658 0
M  V30 4707 C 464.556 1.5723 0.649057 0
M  V30 4708 O 465.741 1.85324 0.580387 0
M  V30 4709 C 462.871 3.41469 0.633719 0
M  V30 4710 C 461.825 4.27774 -0.139083 0
M  V30 4711 C 461.151 5.28082 0.838666 0
M  V30 4712 C 462.451 5.04946 -1.33517 0
M  V30 4713 H 464.145 2.81094 -1.03086 0
M  V30 4714 H 461.691 1.35146 -0.497155 0
M  V30 4715 H 463.644 4.08143 1.04868 0
M  V30 4716 H 462.368 2.91408 1.47475 0
M  V30 4717 H 461.027 3.62673 -0.535156 0
M  V30 4718 H 460.675 4.7429 1.67506 0
M  V30 4719 H 460.375 5.86695 0.32594 0
M  V30 4720 H 461.899 5.97628 1.25194 0
M  V30 4721 H 463.313 5.64593 -0.995349 0
M  V30 4722 H 461.71 5.7303 -1.78202 0
M  V30 4723 H 462.78 4.35886 -2.12442 0
M  V30 4724 N 464.123 0.554532 1.47522 0
M  V30 4725 C 465.371 0.0294208 2.02079 0
M  V30 4726 C 465.692 -1.32411 1.43151 0
M  V30 4727 O 464.962 -1.863 0.605728 0
M  V30 4728 H 463.542 0.00788672 0.746958 0
M  V30 4729 H 466.204 0.723934 1.80956 0
M  V30 4730 H 465.3 -0.0606745 3.12041 0
M  V30 4731 N 465.601 -1.54893 0.290851 0
M  V30 4732 C 466.531 -2.26103 -0.583084 0
M  V30 4733 C 467.512 -1.25684 -1.14619 0
M  V30 4734 O 468.697 -1.54436 -1.17741 0
M  V30 4735 C 465.827 -2.99409 -1.75987 0
M  V30 4736 C 464.781 -4.0689 -1.32758 0
M  V30 4737 C 464.107 -4.67856 -2.58872 0
M  V30 4738 C 465.407 -5.20215 -0.46624 0
M  V30 4739 H 467.101 -2.99398 0.0108214 0
M  V30 4740 H 464.647 -1.43998 0.00664468 0
M  V30 4741 H 466.6 -3.47943 -2.37727 0
M  V30 4742 H 465.324 -2.23675 -2.37985 0
M  V30 4743 H 463.983 -3.59191 -0.733299 0
M  V30 4744 H 463.631 -3.88772 -3.19163 0
M  V30 4745 H 463.331 -5.40438 -2.30653 0
M  V30 4746 H 464.855 -5.19147 -3.21433 0
M  V30 4747 H 466.269 -5.64704 -0.989047 0
M  V30 4748 H 464.666 -5.99455 -0.27826 0
M  V30 4749 H 465.736 -4.82198 0.511173 0
M  V30 4750 N 467.08 -0.0183926 -1.57589 0
M  V30 4751 C 468.03 0.975944 -2.06057 0
M  V30 4752 C 469.014 1.29204 -0.958908 0
M  V30 4753 O 470.206 1.27995 -1.22255 0
M  V30 4754 C 467.335 2.26194 -2.58247 0
M  V30 4755 C 466.421 1.97467 -3.75323 0
M  V30 4756 N 466.812 1.38968 -4.86335 0
M  V30 4757 C 465.11 2.27515 -3.83605 0
M  V30 4758 C 465.811 1.27131 -5.67638 0
M  V30 4759 N 464.787 1.76319 -5.14211 0
M  V30 4760 H 468.589 0.518444 -2.89291 0
M  V30 4761 H 466.103 0.18688 -1.61321 0
M  V30 4762 H 468.1 2.98289 -2.91255 0
M  V30 4763 H 466.76 2.7258 -1.76438 0
M  V30 4764 H 467.771 1.06608 -5.06809 0
M  V30 4765 H 464.448 2.76649 -3.12684 0
M  V30 4766 H 465.838 0.819882 -6.66879 0
M  V30 4767 N 468.558 1.5553 0.254621 0
M  V30 4768 C 469.506 1.9048 1.33492 0
M  V30 4769 C 470.5 0.78304 1.50216 0
M  V30 4770 O 471.706 0.967582 1.51782 0
M  V30 4771 H 468.081 0.604846 0.44684 0
M  V30 4772 H 470.052 2.80688 1.01275 0
M  V30 4773 C 468.801 2.20928 2.68489 0
M  V30 4774 H 468.124 3.06742 2.56417 0
M  V30 4775 H 469.564 2.49291 3.42972 0
M  V30 4776 C 468.023 1.023 3.20993 0
M  V30 4777 O 468.553 0.267027 4.00811 0
M  V30 4778 N 466.759 0.815714 2.78917 0
M  V30 4779 H 466.306 1.43217 2.14119 0
M  V30 4780 H 466.264 0.0236532 3.14391 0
M  V30 4781 N 470.036 -0.519951 1.48776 0
M  V30 4782 C 471.313 -1.28123 1.47797 0
M  V30 4783 C 471.693 -2.10196 0.195157 0
M  V30 4784 O 471.041 -2.13167 -0.822925 0
M  V30 4785 C 471.251 -2.15413 2.74587 0
M  V30 4786 C 472.599 -2.75225 3.23321 0
M  V30 4787 O 473.623 -2.25694 2.75574 0
M  V30 4788 O 472.482 -3.65346 4.06429 0
M  V30 4789 H 469.576 -0.578793 0.590701 0
M  V30 4790 H 472.122 -0.535779 1.6102 0
M  V30 4791 H 470.894 -1.54617 3.59457 0
M  V30 4792 H 470.517 -2.97186 2.64132 0
M  V30 4793 N 471.514 -1.37532 -0.769588 0
M  V30 4794 C 472.739 -1.36231 -1.56384 0
M  V30 4795 C 473.164 0.0495849 -1.88035 0
M  V30 4796 O 472.522 1.02723 -1.49391 0
M  V30 4797 C 472.57 -2.20986 -2.84952 0
M  V30 4798 O 471.674 -1.61597 -3.79421 0
M  V30 4799 H 471.015 -0.465387 -0.473615 0
M  V30 4800 H 473.545 -1.81085 -0.952342 0
M  V30 4801 H 473.555 -2.34277 -3.34034 0
M  V30 4802 H 472.23 -3.23612 -2.61243 0
M  V30 4803 H 470.807 -1.57359 -3.38072 0
M  V30 4804 N 472.992 0.995999 -1.22138 0
M  V30 4805 C 474.239 1.7351 -1.04406 0
M  V30 4806 C 474.567 1.89884 0.421244 0
M  V30 4807 O 473.822 1.43683 1.32867 0
M  V30 4808 C 474.121 3.14553 -1.6968 0
M  V30 4809 C 473.787 3.18102 -3.19565 0
M  V30 4810 C 472.449 3.18778 -3.60464 0
M  V30 4811 C 474.801 3.14636 -4.15516 0
M  V30 4812 C 472.129 3.13684 -4.95801 0
M  V30 4813 C 474.481 3.11084 -5.50826 0
M  V30 4814 C 473.145 3.10074 -5.91109 0
M  V30 4815 H 472.415 0.634916 -0.38205 0
M  V30 4816 H 475.062 1.1667 -1.51857 0
M  V30 4817 H 473.367 3.74682 -1.14546 0
M  V30 4818 H 475.064 3.70477 -1.53454 0
M  V30 4819 H 471.654 3.18324 -2.86998 0
M  V30 4820 H 475.838 3.13266 -3.84939 0
M  V30 4821 H 471.094 3.11245 -5.26247 0
M  V30 4822 H 475.268 3.07357 -6.24904 0
M  V30 4823 H 472.895 3.05882 -6.95946 0
M  V30 4824 N 474.47 1.03057 1.19235 0
M  V30 4825 C 475.7 0.746613 1.92638 0
M  V30 4826 C 476.108 -0.698708 1.75826 0
M  V30 4827 O 475.451 -1.487 1.07861 0
M  V30 4828 C 475.513 1.02024 3.44719 0
M  V30 4829 C 475.177 2.45745 3.85303 0
M  V30 4830 C 476.174 3.43887 3.8992 0
M  V30 4831 C 473.859 2.8019 4.16892 0
M  V30 4832 C 475.853 4.74529 4.2556 0
M  V30 4833 C 473.54 4.1104 4.52205 0
M  V30 4834 C 474.538 5.0802 4.56513 0
M  V30 4835 O 474.226 6.36527 4.91008 0
M  V30 4836 H 473.958 0.272401 0.618687 0
M  V30 4837 H 476.512 1.37853 1.52269 0
M  V30 4838 H 474.742 0.331184 3.85279 0
M  V30 4839 H 476.431 0.725677 3.9936 0
M  V30 4840 H 477.197 3.18614 3.65664 0
M  V30 4841 H 473.076 2.05382 4.12722 0
M  V30 4842 H 476.62 5.50222 4.28838 0
M  V30 4843 H 472.517 4.36086 4.7592 0
M  V30 4844 H 473.285 6.41025 5.08949 0
M  V30 4845 N 475.948 -1.35272 0.808662 0
M  V30 4846 C 477.196 -1.98316 0.389233 0
M  V30 4847 C 477.517 -1.64465 -1.04767 0
M  V30 4848 O 476.787 -0.928175 -1.72516 0
M  V30 4849 H 475.367 -0.733585 0.140935 0
M  V30 4850 H 478.029 -1.6515 1.03496 0
M  V30 4851 H 477.125 -3.08123 0.496631 0
M  V30 4852 N 477.426 -0.562348 -1.47226 0
M  V30 4853 C 478.356 0.170627 -2.32876 0
M  V30 4854 C 479.337 0.903748 -1.44106 0
M  V30 4855 O 480.522 0.883206 -1.72954 0
M  V30 4856 C 477.652 1.19786 -3.25989 0
M  V30 4857 C 476.606 0.580875 -4.2404 0
M  V30 4858 C 475.932 1.71311 -5.06514 0
M  V30 4859 C 477.232 -0.468714 -5.20193 0
M  V30 4860 H 478.926 -0.544441 -2.94408 0
M  V30 4861 H 476.472 -0.263271 -1.41573 0
M  V30 4862 H 478.425 1.71884 -3.84752 0
M  V30 4863 H 477.149 1.94294 -2.62521 0
M  V30 4864 H 475.808 0.0811538 -3.6651 0
M  V30 4865 H 475.456 2.44736 -4.39447 0
M  V30 4866 H 475.156 1.30604 -5.72902 0
M  V30 4867 H 476.68 2.23725 -5.68137 0
M  V30 4868 H 478.094 -0.0336028 -5.7329 0
M  V30 4869 H 476.491 -0.794957 -5.94811 0
M  V30 4870 H 477.561 -1.36269 -4.65359 0
M  V30 4871 N 478.904 1.54736 -0.299062 0
M  V30 4872 C 480.32 1.59507 0.0543849 0
M  V30 4873 C 480.52 1.31606 1.52585 0
M  V30 4874 O 479.576 1.08853 2.27832 0
M  V30 4875 C 480.889 2.98751 -0.34181 0
M  V30 4876 C 482.437 3.1165 -0.290414 0
M  V30 4877 C 482.912 4.53199 -0.661402 0
M  V30 4878 N 484.403 4.59114 -0.613863 0
M  V30 4879 C 485.138 5.66709 -0.873417 0
M  V30 4880 N 484.634 6.82349 -1.19884 0
M  V30 4881 N 486.427 5.56369 -0.800608 0
M  V30 4882 H 478.578 1.71133 -1.25806 0
M  V30 4883 H 480.841 0.799186 -0.509908 0
M  V30 4884 H 480.547 3.24085 -1.36608 0
M  V30 4885 H 480.421 3.75961 0.305508 0
M  V30 4886 H 482.808 2.86066 0.724605 0
M  V30 4887 H 482.889 2.366 -0.972327 0
M  V30 4888 H 482.533 4.79513 -1.67422 0
M  V30 4889 H 482.463 5.26583 0.0425612 0
M  V30 4890 H 484.954 3.76053 -0.3732 0
M  V30 4891 H 485.267 7.60326 -1.38291 0
M  V30 4892 H 483.612 6.83906 -1.23685 0
M  V30 4893 H 486.803 4.64904 -0.546045 0
M  V30 4894 H 486.976 6.40139 -1.00626 0
M  V30 4895 N 480.382 0.0267497 1.57577 0
M  V30 4896 C 481.659 -0.690926 1.82991 0
M  V30 4897 C 482.039 -1.90471 0.910164 0
M  V30 4898 O 481.387 -2.28474 -0.0347985 0
M  V30 4899 C 481.597 -1.07139 3.32148 0
M  V30 4900 C 482.945 -1.46402 3.98562 0
M  V30 4901 O 483.969 -1.16443 3.36629 0
M  V30 4902 O 482.828 -2.02214 5.07712 0
M  V30 4903 H 479.922 -0.338747 0.75444 0
M  V30 4904 H 482.468 0.0542506 1.69613 0
M  V30 4905 H 481.24 -0.207394 3.9075 0
M  V30 4906 H 480.863 -1.87481 3.50623 0
M  V30 4907 N 481.861 -1.55662 -0.24637 0
M  V30 4908 C 483.109 -1.77168 -0.972411 0
M  V30 4909 C 483.43 -0.590827 -1.85834 0
M  V30 4910 O 482.7 0.393365 -1.9191 0
M  V30 4911 H 481.28 -0.653405 -0.362038 0
M  V30 4912 H 483.942 -1.93101 -0.264189 0
M  V30 4913 H 483.038 -2.68335 -1.59382 0
M  V30 4914 N 483.339 0.512053 -1.4905 0
M  V30 4915 C 484.564 1.2959 -1.6193 0
M  V30 4916 C 484.989 1.85906 -0.286454 0
M  V30 4917 O 484.347 1.65312 0.744426 0
M  V30 4918 C 484.395 2.40987 -2.68249 0
M  V30 4919 O 483.499 3.44531 -2.26654 0
M  V30 4920 H 482.84 0.383053 -0.542371 0
M  V30 4921 H 485.37 0.614231 -1.95162 0
M  V30 4922 H 485.38 2.86913 -2.90078 0
M  V30 4923 H 484.055 1.99361 -3.65004 0
M  V30 4924 H 482.632 3.046 -2.15112 0
M  V30 4925 N 484.817 1.37938 0.762283 0
M  V30 4926 C 486.042 1.37059 1.55659 0
M  V30 4927 C 486.467 -0.0396123 1.88058 0
M  V30 4928 O 485.825 -1.01929 1.49934 0
M  V30 4929 C 485.873 2.22494 2.83776 0
M  V30 4930 O 484.977 1.63607 3.78559 0
M  V30 4931 H 484.318 0.467892 0.47114 0
M  V30 4932 H 486.848 1.81587 0.942725 0
M  V30 4933 H 486.858 2.36045 3.32786 0
M  V30 4934 H 485.533 3.24993 2.59524 0
M  V30 4935 H 484.11 1.5915 3.37233 0
M  V30 4936 N 486.295 -0.989507 1.22664 0
M  V30 4937 C 487.242 -2.08024 0.999733 0
M  V30 4938 C 488.212 -1.65909 -0.0797047 0
M  V30 4939 O 489.397 -1.90669 0.0705715 0
M  V30 4940 C 486.537 -3.40067 0.587234 0
M  V30 4941 C 485.65 -3.95505 1.73781 0
M  V30 4942 C 484.785 -5.15722 1.27297 0
M  V30 4943 C 483.824 -5.63305 2.39488 0
M  V30 4944 N 482.961 -6.74758 1.94026 0
M  V30 4945 H 487.801 -2.26768 1.9334 0
M  V30 4946 H 485.338 -1.11171 0.963297 0
M  V30 4947 H 487.296 -4.15899 0.329227 0
M  V30 4948 H 485.926 -3.21314 -0.309426 0
M  V30 4949 H 484.978 -3.16513 2.11006 0
M  V30 4950 H 486.29 -4.26797 2.58158 0
M  V30 4951 H 485.444 -5.98854 0.972546 0
M  V30 4952 H 484.183 -4.86061 0.399445 0
M  V30 4953 H 483.188 -4.78759 2.70315 0
M  V30 4954 H 484.413 -5.94988 3.27362 0
M  V30 4955 H 482.359 -6.46874 1.09041 0
M  V30 4956 H 482.276 -7.05386 2.71968 0
M  V30 4957 H 483.544 -7.61387 1.67062 0
M  V30 4958 N 487.773 -1.03688 -1.18687 0
M  V30 4959 C 489.001 -0.757918 -1.92518 0
M  V30 4960 C 489.416 0.684398 -1.75959 0
M  V30 4961 O 488.773 1.46617 -1.08673 0
M  V30 4962 C 488.824 -1.10985 -3.44042 0
M  V30 4963 O 488.545 -2.49554 -3.60076 0
M  V30 4964 C 490.046 -0.854844 -4.3498 0
M  V30 4965 H 487.266 -0.276699 -0.611293 0
M  V30 4966 H 489.81 -1.38352 -1.50595 0
M  V30 4967 H 487.965 -0.529279 -3.83767 0
M  V30 4968 H 488.379 -2.6291 -4.53849 0
M  V30 4969 H 489.853 -1.15098 -5.39867 0
M  V30 4970 H 490.33 0.210507 -4.38695 0
M  V30 4971 H 490.936 -1.41853 -4.00946 0
M  V30 4972 N 489.251 1.34841 -0.815825 0
M  V30 4973 C 490.214 2.27959 -0.238185 0
M  V30 4974 C 491.214 1.49983 0.579816 0
M  V30 4975 O 492.404 1.69617 0.396953 0
M  V30 4976 C 489.536 3.34314 0.666876 0
M  V30 4977 H 490.729 2.80558 -1.05958 0
M  V30 4978 H 488.282 1.44852 -0.587156 0
M  V30 4979 H 489.017 2.86916 1.5116 0
M  V30 4980 H 488.802 3.92014 0.0819106 0
M  V30 4981 H 490.292 4.0379 1.06506 0
M  V30 4982 N 490.729 0.570148 1.46925 0
M  V30 4983 C 491.659 -0.158274 2.32963 0
M  V30 4984 C 492.64 -0.896093 1.44583 0
M  V30 4985 O 493.825 -0.874022 1.7342 0
M  V30 4986 C 490.955 -1.18055 3.26619 0
M  V30 4987 C 489.909 -0.558379 4.24342 0
M  V30 4988 C 489.235 -1.68623 5.07415 0
M  V30 4989 C 490.535 0.496295 5.19937 0
M  V30 4990 H 492.229 0.560046 2.94115 0
M  V30 4991 H 489.775 0.270775 1.41431 0
M  V30 4992 H 491.728 -1.69841 3.85658 0
M  V30 4993 H 490.452 -1.92899 2.63548 0
M  V30 4994 H 489.111 -0.0617157 3.66548 0
M  V30 4995 H 488.759 -2.42402 4.40738 0
M  V30 4996 H 488.459 -1.27564 5.73586 0
M  V30 4997 H 489.983 -2.20709 5.69315 0
M  V30 4998 H 491.397 0.0640052 5.73264 0
M  V30 4999 H 489.794 0.82649 5.94381 0
M  V30 5000 H 490.864 1.38735 4.6463 0
M  V30 5001 N 492.207 -1.54576 0.307264 0
M  V30 5002 C 493.137 -2.26708 -0.55907 0
M  V30 5003 C 494.118 -1.26893 -1.1328 0
M  V30 5004 O 495.303 -1.55677 -1.16097 0
M  V30 5005 C 492.433 -3.01259 -1.72801 0
M  V30 5006 C 491.387 -4.08275 -1.28435 0
M  V30 5007 C 490.713 -4.70575 -2.53895 0
M  V30 5008 C 492.013 -5.2068 -0.411038 0
M  V30 5009 H 493.707 -2.9937 0.042576 0
M  V30 5010 H 491.253 -1.43983 0.0219173 0
M  V30 5011 H 493.206 -3.50444 -2.34023 0
M  V30 5012 H 491.93 -2.26187 -2.356 0
M  V30 5013 H 490.589 -3.59949 -0.695161 0
M  V30 5014 H 490.237 -3.92136 -3.15021 0
M  V30 5015 H 489.937 -5.42854 -2.24908 0
M  V30 5016 H 491.461 -5.22527 -3.15908 0
M  V30 5017 H 492.875 -5.65721 -0.929097 0
M  V30 5018 H 491.272 -5.99716 -0.214664 0
M  V30 5019 H 492.342 -4.81629 0.562287 0
M  V30 5020 N 493.685 -0.035106 -1.57561 0
M  V30 5021 C 494.915 0.651312 -1.96065 0
M  V30 5022 C 495.323 1.6585 -0.910514 0
M  V30 5023 O 494.666 1.83336 0.11552 0
M  V30 5024 C 494.728 1.40897 -3.30739 0
M  V30 5025 C 494.392 0.559436 -4.53563 0
M  V30 5026 C 495.389 -0.16778 -5.19629 0
M  V30 5027 C 493.074 0.495079 -4.99854 0
M  V30 5028 C 495.068 -0.947963 -6.30311 0
M  V30 5029 C 492.755 -0.288804 -6.10417 0
M  V30 5030 C 493.753 -1.00903 -6.75505 0
M  V30 5031 O 493.441 -1.78005 -7.83945 0
M  V30 5032 H 493.173 0.184036 -0.650467 0
M  V30 5033 H 495.727 -0.0929677 -2.05189 0
M  V30 5034 H 493.957 2.19852 -3.18123 0
M  V30 5035 H 495.646 1.98407 -3.54104 0
M  V30 5036 H 496.412 -0.12743 -4.84833 0
M  V30 5037 H 492.291 1.04524 -4.48994 0
M  V30 5038 H 495.835 -1.51064 -6.81047 0
M  V30 5039 H 491.732 -0.33085 -6.44652 0
M  V30 5040 H 492.5 -1.70046 -8.00641 0
M  V30 5041 N 495.163 1.55791 0.238111 0
M  V30 5042 C 496.411 1.77681 0.963001 0
M  V30 5043 C 496.732 0.600674 1.85518 0
M  V30 5044 O 496.002 -0.383182 1.92116 0
M  V30 5045 H 494.582 0.655315 0.358568 0
M  V30 5046 H 497.244 1.93239 0.253945 0
M  V30 5047 H 496.34 2.69177 1.57956 0
M  V30 5048 N 496.642 -0.504142 1.49319 0
M  V30 5049 C 497.592 -1.60284 1.62151 0
M  V30 5050 C 498.576 -1.53657 0.477315 0
M  V30 5051 O 499.768 -1.6124 0.730108 0
M  V30 5052 C 496.897 -2.98909 1.68844 0
M  V30 5053 C 495.983 -3.10544 2.8883 0
M  V30 5054 N 496.374 -2.92078 4.12946 0
M  V30 5055 C 494.672 -3.4164 2.86702 0
M  V30 5056 C 495.373 -3.07812 4.93585 0
M  V30 5057 N 494.349 -3.36549 4.26891 0
M  V30 5058 H 498.151 -1.44656 2.55835 0
M  V30 5059 H 495.665 -0.710198 1.46048 0
M  V30 5060 H 497.662 -3.77865 1.76134 0
M  V30 5061 H 496.322 -3.15609 0.762943 0
M  V30 5062 H 497.333 -2.68316 4.42975 0
M  V30 5063 H 494.01 -3.64537 2.03517 0
M  V30 5064 H 495.4 -2.98054 6.02174 0
M  V30 5065 N 498.12 -1.38341 -0.754957 0
M  V30 5066 C 499.368 -1.34208 -1.51105 0
M  V30 5067 C 499.689 0.0677634 -1.94882 0
M  V30 5068 O 498.959 1.01517 -1.67544 0
M  V30 5069 H 497.539 -0.493819 -0.560493 0
M  V30 5070 H 500.201 -1.73005 -0.897507 0
M  V30 5071 H 499.297 -1.99203 -2.4026 0
M  V30 5072 N 499.598 0.982988 -1.23187 0
M  V30 5073 C 500.528 2.09301 -1.03515 0
M  V30 5074 C 501.509 1.70035 0.0471136 0
M  V30 5075 O 502.694 1.93847 -0.117029 0
M  V30 5076 C 499.824 3.4167 -0.622791 0
M  V30 5077 C 498.778 3.94828 -1.65211 0
M  V30 5078 C 498.104 5.23362 -1.09527 0
M  V30 5079 C 499.404 4.2439 -3.04451 0
M  V30 5080 H 501.098 2.26016 -1.96359 0
M  V30 5081 H 498.644 1.08611 -0.945501 0
M  V30 5082 H 500.597 4.18746 -0.472233 0
M  V30 5083 H 499.321 3.24811 0.341329 0
M  V30 5084 H 497.98 3.19895 -1.79061 0
M  V30 5085 H 497.628 5.02852 -0.122211 0
M  V30 5086 H 497.328 5.59895 -1.783 0
M  V30 5087 H 498.852 6.03062 -0.956511 0
M  V30 5088 H 500.266 4.92225 -2.93917 0
M  V30 5089 H 498.663 4.72118 -3.70438 0
M  V30 5090 H 499.733 3.31765 -3.53638 0
M  V30 5091 N 501.076 1.04316 1.18135 0
M  V30 5092 C 502.324 0.746542 1.87806 0
M  V30 5093 C 502.645 -0.728082 1.80898 0
M  V30 5094 O 501.915 -1.52554 1.22899 0
M  V30 5095 H 500.495 0.273157 0.695265 0
M  V30 5096 H 503.157 1.32044 1.43354 0
M  V30 5097 H 502.253 1.05362 2.93778 0
M  V30 5098 N 502.554 -1.34406 0.822964 0
M  V30 5099 C 503.517 -2.2783 0.250271 0
M  V30 5100 C 504.517 -1.50288 -0.571854 0
M  V30 5101 O 505.707 -1.69825 -0.387952 0
M  V30 5102 C 502.839 -3.34663 -0.649137 0
M  V30 5103 H 504.032 -2.79992 1.07444 0
M  V30 5104 H 501.585 -1.44539 0.594829 0
M  V30 5105 H 502.32 -2.87714 -1.49637 0
M  V30 5106 H 502.105 -3.92052 -0.0611199 0
M  V30 5107 H 503.595 -4.04349 -1.04363 0
M  V30 5108 N 504.032 -0.577932 -1.46621 0
M  V30 5109 C 504.942 0.160651 -2.34049 0
M  V30 5110 C 505.958 0.890911 -1.49462 0
M  V30 5111 O 507.134 0.855166 -1.82343 0
M  V30 5112 C 504.199 1.16447 -3.26559 0
M  V30 5113 C 503.26 0.4394 -4.27045 0
M  V30 5114 C 502.493 1.3954 -5.15135 0
M  V30 5115 O 502.716 2.63162 -5.06065 0
M  V30 5116 O 501.65 0.908585 -5.95003 0
M  V30 5117 H 505.476 -0.557057 -2.98547 0
M  V30 5118 H 503.061 -0.338369 -1.45518 0
M  V30 5119 H 504.943 1.7434 -3.83645 0
M  V30 5120 H 503.618 1.86373 -2.64663 0
M  V30 5121 H 502.525 -0.181247 -3.73661 0
M  V30 5122 H 503.858 -0.218799 -4.91713 0
M  V30 5123 N 505.51 1.54411 -0.315457 0
M  V30 5124 C 506.756 2.00716 0.289972 0
M  V30 5125 C 507.089 1.2034 1.5242 0
M  V30 5126 O 506.364 0.283579 1.92422 0
M  V30 5127 C 506.647 3.54507 0.632196 0
M  V30 5128 C 506.5 4.45615 -0.61218 0
M  V30 5129 C 507.819 4.15421 1.45305 0
M  V30 5130 H 504.938 0.729637 0.10392 0
M  V30 5131 H 507.58 1.8506 -0.430427 0
M  V30 5132 H 505.73 3.67979 1.24595 0
M  V30 5133 H 507.402 4.44026 -1.25053 0
M  V30 5134 H 505.645 4.15621 -1.24264 0
M  V30 5135 H 506.316 5.51022 -0.328379 0
M  V30 5136 H 508.792 4.05474 0.934331 0
M  V30 5137 H 507.668 5.23157 1.66127 0
M  V30 5138 H 507.929 3.68223 2.44671 0
M  V30 5139 N 506.988 0.0434614 1.5754 0
M  V30 5140 C 507.935 -0.93356 2.11077 0
M  V30 5141 C 508.905 -1.31383 1.01626 0
M  V30 5142 O 510.09 -1.40465 1.29129 0
M  V30 5143 C 507.23 -2.20578 2.65404 0
M  V30 5144 C 506.343 -1.88068 3.88914 0
M  V30 5145 C 505.478 -3.09691 4.31584 0
M  V30 5146 C 504.517 -2.73067 5.47815 0
M  V30 5147 N 503.654 -3.87359 5.85574 0
M  V30 5148 H 508.494 -0.470118 2.94268 0
M  V30 5149 H 506.031 -0.220434 1.45439 0
M  V30 5150 H 507.989 -2.95011 2.94999 0
M  V30 5151 H 506.619 -2.64513 1.85021 0
M  V30 5152 H 505.671 -1.03816 3.6596 0
M  V30 5153 H 506.983 -1.57104 4.73413 0
M  V30 5154 H 506.137 -3.92431 4.62691 0
M  V30 5155 H 504.876 -3.43827 3.45882 0
M  V30 5156 H 503.881 -1.88742 5.16388 0
M  V30 5157 H 505.106 -2.40131 6.35227 0
M  V30 5158 H 503.052 -4.21311 5.02825 0
M  V30 5159 H 502.969 -3.60068 6.64746 0
M  V30 5160 H 504.237 -4.70761 6.21292 0
M  V30 5161 N 508.466 -1.55915 -0.229846 0
M  V30 5162 C 509.714 -1.7819 -0.953565 0
M  V30 5163 C 510.035 -0.610504 -1.85197 0
M  V30 5164 O 509.305 0.372988 -1.92316 0
M  V30 5165 H 507.885 -0.657208 -0.355087 0
M  V30 5166 H 510.547 -1.9337 -0.243693 0
M  V30 5167 H 509.643 -2.70011 -1.56527 0
M  V30 5168 N 509.944 0.496216 -1.49584 0
M  V30 5169 C 511.193 1.24668 -1.58558 0
M  V30 5170 C 511.506 1.9359 -0.279703 0
M  V30 5171 O 512.712 2.70365 -0.248048 0
M  V30 5172 C 511.168 2.26388 -2.79779 0
M  V30 5173 C 510.776 1.63384 -4.17145 0
M  V30 5174 C 512.52 3.02233 -2.98086 0
M  V30 5175 C 510.427 2.63243 -5.29582 0
M  V30 5176 H 509.357 0.468995 -0.590389 0
M  V30 5177 H 512.008 0.519985 -1.75978 0
M  V30 5178 H 510.39 3.02241 -2.55863 0
M  V30 5179 H 511.564 0.93491 -4.51216 0
M  V30 5180 H 509.879 0.999121 -4.04236 0
M  V30 5181 H 512.476 3.76919 -3.79257 0
M  V30 5182 H 512.819 3.60132 -2.08831 0
M  V30 5183 H 513.352 2.33495 -3.22063 0
M  V30 5184 H 510.091 2.10119 -6.20911 0
M  V30 5185 H 509.611 3.31363 -4.99959 0
M  V30 5186 H 511.29 3.25575 -5.59115 0
M  V30 5187 N 511.423 1.38739 0.74761 0
M  V30 5188 C 512.671 1.35007 1.50391 0
M  V30 5189 C 512.992 -0.0574274 1.94915 0
M  V30 5190 O 512.262 -1.00628 1.6808 0
M  V30 5191 H 510.842 0.496784 0.557866 0
M  V30 5192 H 513.504 1.73479 0.888319 0
M  V30 5193 H 512.6 2.00474 2.392 0
M  V30 5194 N 512.901 -0.976442 1.23707 0
M  V30 5195 C 514.126 -1.75875 1.09922 0
M  V30 5196 C 514.551 -1.84911 -0.34489 0
M  V30 5197 O 513.909 -1.31363 -1.24954 0
M  V30 5198 C 513.957 -3.16179 1.73388 0
M  V30 5199 O 513.061 -4.00124 0.99871 0
M  V30 5200 H 512.402 -0.540954 0.385052 0
M  V30 5201 H 514.932 -1.22546 1.6384 0
M  V30 5202 H 514.942 -3.66741 1.78788 0
M  V30 5203 H 513.617 -3.08917 2.78466 0
M  V30 5204 H 512.194 -3.58624 1.02193 0
M  V30 5205 N 514.379 -1.04941 -1.1758 0
M  V30 5206 C 515.656 -0.671918 -1.83697 0
M  V30 5207 C 516.036 0.847929 -1.93322 0
M  V30 5208 O 515.384 1.75287 -1.46583 0
M  V30 5209 C 515.594 -1.35797 -3.21497 0
M  V30 5210 C 516.942 -1.4944 -3.97433 0
M  V30 5211 O 517.966 -1.31678 -3.30967 0
M  V30 5212 O 516.825 -1.78463 -5.1654 0
M  V30 5213 H 513.919 -0.236212 -0.792548 0
M  V30 5214 H 516.465 -1.14884 -1.24899 0
M  V30 5215 H 515.237 -2.39498 -3.09446 0
M  V30 5216 H 514.86 -0.870236 -3.8796 0
M  V30 5217 N 515.857 1.33968 -0.830081 0
M  V30 5218 C 517.105 1.97672 -0.420734 0
M  V30 5219 C 517.426 1.66111 1.02138 0
M  V30 5220 O 516.696 0.955503 1.71017 0
M  V30 5221 H 515.276 0.73125 -0.152587 0
M  V30 5222 H 517.938 1.63483 -1.0611 0
M  V30 5223 H 517.034 3.07294 -0.545588 0
M  V30 5224 N 517.335 0.585699 1.46312 0
M  V30 5225 C 518.298 -0.135673 2.28798 0
M  V30 5226 C 519.298 -0.815988 1.38558 0
M  V30 5227 O 520.488 -0.667487 1.60904 0
M  V30 5228 C 517.62 -1.20163 3.1902 0
M  V30 5229 H 518.813 0.589257 2.94054 0
M  V30 5230 H 516.366 0.343794 1.52472 0
M  V30 5231 H 517.101 -1.95804 2.58517 0
M  V30 5232 H 516.886 -0.718282 3.85465 0
M  V30 5233 H 518.376 -1.70749 3.81096 0
M  V30 5234 N 518.813 -1.54241 0.323641 0
M  V30 5235 C 519.743 -2.27289 -0.534993 0
M  V30 5236 C 520.724 -1.28087 -1.11927 0
M  V30 5237 O 521.909 -1.56899 -1.14439 0
M  V30 5238 C 519.039 -3.03075 -1.69596 0
M  V30 5239 C 517.993 -4.09614 -1.24098 0
M  V30 5240 C 517.319 -4.73242 -2.4889 0
M  V30 5241 C 518.619 -5.21087 -0.355789 0
M  V30 5242 H 520.313 -2.99308 0.0743257 0
M  V30 5243 H 517.859 -1.43952 0.0371874 0
M  V30 5244 H 519.812 -3.52907 -2.30293 0
M  V30 5245 H 518.536 -2.28673 -2.33187 0
M  V30 5246 H 517.195 -3.60666 -0.656945 0
M  V30 5247 H 516.843 -3.95455 -3.10845 0
M  V30 5248 H 516.543 -5.45209 -2.19138 0
M  V30 5249 H 518.067 -5.25848 -3.10348 0
M  V30 5250 H 519.481 -5.66675 -0.869042 0
M  V30 5251 H 517.878 -5.9991 -0.151045 0
M  V30 5252 H 518.948 -4.81005 0.613339 0
M  V30 5253 N 520.291 -0.0518155 -1.57515 0
M  V30 5254 C 521.707 0.304735 -1.56664 0
M  V30 5255 C 521.907 1.71395 -1.05953 0
M  V30 5256 O 520.963 2.42123 -0.716414 0
M  V30 5257 C 522.276 0.132614 -3.00407 0
M  V30 5258 C 523.824 0.20367 -3.12337 0
M  V30 5259 C 524.299 0.0600706 -4.57961 0
M  V30 5260 N 525.79 0.116326 -4.63054 0
M  V30 5261 C 526.525 0.0293363 -5.73392 0
M  V30 5262 N 526.021 -0.110038 -6.92713 0
M  V30 5263 N 527.814 0.0849651 -5.62036 0
M  V30 5264 H 519.965 -0.973056 -1.888 0
M  V30 5265 H 522.228 -0.377781 -0.869474 0
M  V30 5266 H 521.934 -0.839019 -3.41546 0
M  V30 5267 H 521.808 0.893376 -3.66468 0
M  V30 5268 H 524.195 1.16578 -2.71097 0
M  V30 5269 H 524.276 -0.587857 -2.48954 0
M  V30 5270 H 523.92 -0.898715 -4.99886 0
M  V30 5271 H 523.85 0.87075 -5.19351 0
M  V30 5272 H 526.341 0.22327 -3.7724 0
M  V30 5273 H 526.654 -0.169104 -7.72615 0
M  V30 5274 H 524.999 -0.145132 -6.94848 0
M  V30 5275 H 528.19 0.192411 -4.67704 0
M  V30 5276 H 528.363 0.0137131 -6.47999 0
M  V30 5277 N 521.769 1.56035 0.221574 0
M  V30 5278 C 523.18 1.69229 0.788567 0
M  V30 5279 C 523.531 0.653814 1.84986 0
M  V30 5280 O 522.656 -0.195065 2.15519 0
M  V30 5281 C 523.251 3.06809 1.43713 0
M  V30 5282 C 521.81 3.21858 1.95152 0
M  V30 5283 C 520.957 2.65155 0.811685 0
M  V30 5284 H 523.908 1.587 -0.00307894 0
M  V30 5285 H 523.929 3.02666 2.30594 0
M  V30 5286 H 523.441 3.82369 0.664475 0
M  V30 5287 H 521.542 2.51167 2.7522 0
M  V30 5288 H 521.655 4.29073 2.1315 0
M  V30 5289 H 520.019 2.23635 1.21899 0
M  V30 5290 H 520.802 3.43261 0.0516987 0
M  V30 5291 N 523.247 -0.488276 1.49845 0
M  V30 5292 C 524.495 -1.23911 1.59657 0
M  V30 5293 C 524.816 -1.92816 0.291005 0
M  V30 5294 O 524.086 -1.83328 -0.690485 0
M  V30 5295 H 522.666 -0.460357 0.588286 0
M  V30 5296 H 525.328 -0.564794 1.86537 0
M  V30 5297 H 524.424 -1.99625 2.39909 0
M  V30 5298 N 524.725 -1.39134 -0.740242 0
M  V30 5299 C 525.688 -1.37217 -1.83587 0
M  V30 5300 C 526.688 -0.270221 -1.58513 0
M  V30 5301 O 527.878 -0.527843 -1.6601 0
M  V30 5302 C 525.01 -1.13959 -3.21288 0
M  V30 5303 H 526.203 -2.34705 -1.86691 0
M  V30 5304 H 523.756 -1.24622 -0.94335 0
M  V30 5305 H 524.491 -0.17131 -3.23847 0
M  V30 5306 H 524.276 -1.93754 -3.40884 0
M  V30 5307 H 525.766 -1.15346 -4.01354 0
M  V30 5308 N 526.204 0.969867 -1.24223 0
M  V30 5309 C 527.481 1.68774 -0.988664 0
M  V30 5310 C 527.861 2.05342 0.489673 0
M  V30 5311 O 527.209 1.75486 1.46345 0
M  V30 5312 C 527.419 2.92135 -1.90941 0
M  V30 5313 C 528.767 3.64422 -2.17903 0
M  V30 5314 O 529.791 3.02188 -1.88576 0
M  V30 5315 O 528.65 4.76446 -2.67697 0
M  V30 5316 H 525.744 0.737736 -0.37373 0
M  V30 5317 H 528.29 1.02415 -1.35312 0
M  V30 5318 H 527.062 2.61788 -2.90831 0
M  V30 5319 H 526.685 3.66228 -1.54798 0
M  V30 5320 N 527.682 1.05563 1.17022 0
M  V30 5321 C 528.91 0.78845 1.91288 0
M  V30 5322 C 529.325 -0.656318 1.77025 0
M  V30 5323 O 528.682 -1.44869 1.10992 0
M  V30 5324 C 528.733 1.16444 3.42232 0
M  V30 5325 O 528.454 2.5525 3.5606 0
M  V30 5326 C 529.955 0.923937 4.33565 0
M  V30 5327 H 527.175 0.286389 0.606813 0
M  V30 5328 H 529.719 1.4073 1.48375 0
M  V30 5329 H 527.874 0.590266 3.82877 0
M  V30 5330 H 528.288 2.70097 4.49609 0
M  V30 5331 H 529.762 1.23672 5.37968 0
M  V30 5332 H 530.239 -0.140688 4.38975 0
M  V30 5333 H 530.845 1.48214 3.98639 0
M  V30 5334 N 529.16 -1.33526 0.837174 0
M  V30 5335 C 530.406 -1.98541 0.44193 0
M  V30 5336 C 530.761 -1.65124 -0.987517 0
M  V30 5337 O 530.054 -0.919948 -1.6807 0
M  V30 5338 C 530.248 -3.52367 0.597675 0
M  V30 5339 C 530.077 -4.00731 2.04071 0
M  V30 5340 C 528.847 -4.28649 2.67559 0
M  V30 5341 C 531.045 -4.17073 3.00923 0
M  V30 5342 N 529.027 -4.63142 4.02955 0
M  V30 5343 C 530.398 -4.54905 4.21261 0
M  V30 5344 C 532.453 -3.99358 2.97351 0
M  V30 5345 C 531.156 -4.76874 5.38501 0
M  V30 5346 C 533.182 -4.22501 4.1382 0
M  V30 5347 C 532.544 -4.60634 5.32912 0
M  V30 5348 H 528.643 -0.753246 0.210105 0
M  V30 5349 H 531.227 -1.61674 1.08488 0
M  V30 5350 H 529.398 -3.88397 -0.0154658 0
M  V30 5351 H 531.13 -4.04326 0.17404 0
M  V30 5352 H 527.885 -4.20077 2.18706 0
M  V30 5353 H 528.309 -4.84601 4.72748 0
M  V30 5354 H 532.951 -3.68993 2.06408 0
M  V30 5355 H 530.669 -5.06101 6.2999 0
M  V30 5356 H 534.255 -4.10316 4.12471 0
M  V30 5357 H 533.135 -4.78187 6.21536 0
M  V30 5358 N 530.638 -0.59345 -1.46 0
M  V30 5359 C 532.054 -0.255965 -1.57534 0
M  V30 5360 C 532.254 1.24167 -1.58697 0
M  V30 5361 O 531.31 2.02398 -1.50968 0
M  V30 5362 C 532.623 -0.91466 -2.86451 0
M  V30 5363 C 534.171 -0.889253 -3.00102 0
M  V30 5364 C 534.646 -1.52769 -4.3177 0
M  V30 5365 N 536.137 -1.49253 -4.38495 0
M  V30 5366 C 536.872 -1.9558 -5.39014 0
M  V30 5367 N 536.368 -2.49929 -6.46148 0
M  V30 5368 N 538.161 -1.86432 -5.30282 0
M  V30 5369 H 530.312 -1.56604 -1.43489 0
M  V30 5370 H 532.575 -0.655207 -0.685133 0
M  V30 5371 H 532.281 -1.96861 -2.91442 0
M  V30 5372 H 532.155 -0.429356 -3.74748 0
M  V30 5373 H 534.542 0.156111 -2.94687 0
M  V30 5374 H 534.623 -1.41268 -2.13253 0
M  V30 5375 H 534.267 -2.57231 -4.37944 0
M  V30 5376 H 534.197 -0.979398 -5.17412 0
M  V30 5377 H 536.688 -1.09536 -3.61677 0
M  V30 5378 H 537.001 -2.83109 -7.19075 0
M  V30 5379 H 535.346 -2.53961 -6.46938 0
M  V30 5380 H 538.537 -1.43722 -4.4549 0
M  V30 5381 H 538.71 -2.22852 -6.08474 0
M  V30 5382 N 532.116 1.54067 -0.331816 0
M  V30 5383 C 533.365 1.99895 0.269209 0
M  V30 5384 C 533.678 1.22371 1.52593 0
M  V30 5385 O 534.884 1.58618 2.20347 0
M  V30 5386 C 533.34 3.55972 0.530244 0
M  V30 5387 C 532.948 4.4234 -0.709901 0
M  V30 5388 C 534.692 4.10247 1.09077 0
M  V30 5389 C 532.599 5.89905 -0.420312 0
M  V30 5390 H 531.529 0.746741 0.104371 0
M  V30 5391 H 534.18 1.78014 -0.445324 0
M  V30 5392 H 532.562 3.73873 1.30518 0
M  V30 5393 H 533.736 4.36215 -1.48504 0
M  V30 5394 H 532.051 3.98997 -1.19123 0
M  V30 5395 H 534.648 5.18095 1.32219 0
M  V30 5396 H 534.991 3.62739 2.0427 0
M  V30 5397 H 535.524 3.96011 0.376824 0
M  V30 5398 H 532.263 6.41623 -1.34164 0
M  V30 5399 H 531.783 5.98962 0.316962 0
M  V30 5400 H 533.462 6.46991 -0.0331956 0
M  V30 5401 N 533.594 0.0601682 1.57485 0
M  V30 5402 C 534.557 -0.896373 2.10945 0
M  V30 5403 C 535.557 -1.23402 1.03095 0
M  V30 5404 O 536.747 -1.16921 1.29132 0
M  V30 5405 C 533.879 -2.20346 2.60116 0
M  V30 5406 H 535.072 -0.432778 2.96761 0
M  V30 5407 H 532.625 -0.188372 1.55161 0
M  V30 5408 H 533.36 -2.71268 1.7772 0
M  V30 5409 H 533.145 -1.9714 3.38937 0
M  V30 5410 H 534.635 -2.88846 3.01592 0
M  V30 5411 N 535.072 -1.5615 -0.213296 0
M  V30 5412 C 536.297 -1.83986 -0.957282 0
M  V30 5413 C 536.722 -0.641526 -1.76822 0
M  V30 5414 O 536.08 0.409722 -1.7661 0
M  V30 5415 C 536.128 -3.09889 -1.84393 0
M  V30 5416 O 535.232 -2.89163 -2.94038 0
M  V30 5417 H 534.573 -0.606357 -0.270605 0
M  V30 5418 H 537.103 -2.03369 -0.224111 0
M  V30 5419 H 537.113 -3.40209 -2.25215 0
M  V30 5420 H 535.788 -3.96735 -1.24795 0
M  V30 5421 H 534.365 -2.70097 -2.57103 0
M  V30 5422 N 536.55 0.480323 -1.50102 0
M  V30 5423 C 537.78 1.25475 -1.64133 0
M  V30 5424 C 538.188 1.8647 -0.320272 0
M  V30 5425 O 537.531 1.69561 0.70673 0
M  V30 5426 C 537.593 2.40996 -2.6676 0
M  V30 5427 C 537.257 2.00711 -4.10565 0
M  V30 5428 C 538.254 1.53492 -4.96725 0
M  V30 5429 C 535.939 2.09714 -4.56427 0
M  V30 5430 C 537.933 1.15806 -6.26792 0
M  V30 5431 C 535.62 1.7164 -5.86501 0
M  V30 5432 C 536.618 1.24763 -6.71508 0
M  V30 5433 O 536.306 0.872122 -7.99155 0
M  V30 5434 H 536.038 0.385983 -0.554971 0
M  V30 5435 H 538.592 0.580848 -1.97016 0
M  V30 5436 H 536.822 3.11528 -2.291 0
M  V30 5437 H 538.511 3.02981 -2.70106 0
M  V30 5438 H 539.277 1.45966 -4.62514 0
M  V30 5439 H 535.156 2.4515 -3.90413 0
M  V30 5440 H 538.7 0.791465 -6.93096 0
M  V30 5441 H 534.597 1.78822 -6.20236 0
M  V30 5442 H 535.365 1.00178 -8.12346 0
M  V30 5443 N 538.028 1.39524 0.732853 0
M  V30 5444 C 539.276 1.36594 1.48951 0
M  V30 5445 C 539.597 -0.0367507 1.94965 0
M  V30 5446 O 538.867 -0.988391 1.69138 0
M  V30 5447 H 537.447 0.502673 0.552566 0
M  V30 5448 H 540.109 1.74411 0.869869 0
M  V30 5449 H 539.205 2.03 2.3706 0
M  V30 5450 N 539.506 -0.963266 1.24736 0
M  V30 5451 C 540.734 -1.74166 1.11686 0
M  V30 5452 C 541.149 -1.8589 -0.330187 0
M  V30 5453 O 540.506 -1.35042 -1.2276 0
M  V30 5454 C 540.557 -3.15989 1.75595 0
M  V30 5455 O 540.278 -3.04847 3.14642 0
M  V30 5456 C 541.779 -4.10145 1.68213 0
M  V30 5457 H 538.999 -0.546031 0.389989 0
M  V30 5458 H 541.543 -1.20907 1.64929 0
M  V30 5459 H 539.698 -3.66219 1.26343 0
M  V30 5460 H 540.112 -3.9425 3.4593 0
M  V30 5461 H 541.586 -5.07299 2.17604 0
M  V30 5462 H 542.063 -4.3445 0.644208 0
M  V30 5463 H 542.669 -3.65827 2.16912 0
M  V30 5464 N 540.985 -1.06182 -1.16461 0
M  V30 5465 C 542.213 -0.798583 -1.90867 0
M  V30 5466 C 542.628 0.646921 -1.77371 0
M  V30 5467 O 541.985 1.44279 -1.11758 0
M  V30 5468 C 542.036 -1.18258 -3.4161 0
M  V30 5469 O 541.757 -2.57135 -3.54701 0
M  V30 5470 C 543.258 -0.946917 -4.33069 0
M  V30 5471 H 540.478 -0.289603 -0.605286 0
M  V30 5472 H 543.022 -1.41515 -1.47627 0
M  V30 5473 H 541.177 -0.610562 -3.82558 0
M  V30 5474 H 541.591 -2.72477 -4.4817 0
M  V30 5475 H 543.065 -1.26523 -5.37304 0
M  V30 5476 H 543.542 0.117406 -4.39043 0
M  V30 5477 H 544.148 -1.50326 -3.97847 0
M  V30 5478 N 542.463 1.3308 -0.844243 0
M  V30 5479 C 543.874 1.7992 -0.498566 0
M  V30 5480 C 544.225 1.69808 0.982834 0
M  V30 5481 O 543.35 1.25051 1.7661 0
M  V30 5482 C 543.945 3.26677 -0.898204 0
M  V30 5483 C 542.504 3.71513 -0.604583 0
M  V30 5484 C 541.651 2.54393 -1.10362 0
M  V30 5485 H 544.602 1.20526 -1.03244 0
M  V30 5486 H 544.623 3.79918 -0.21039 0
M  V30 5487 H 544.135 3.34004 -1.97643 0
M  V30 5488 H 542.236 3.69708 0.46335 0
M  V30 5489 H 542.349 4.64755 -1.16358 0
M  V30 5490 H 540.713 2.49246 -0.524273 0
M  V30 5491 H 541.496 2.6448 -2.18873 0
M  V30 5492 N 543.941 0.601185 1.45683 0
M  V30 5493 C 544.871 -0.108824 2.33246 0
M  V30 5494 C 545.852 -0.865223 1.46451 0
M  V30 5495 O 547.037 -0.83704 1.75235 0
M  V30 5496 C 544.167 -1.11101 3.2905 0
M  V30 5497 C 543.121 -0.468244 4.25431 0
M  V30 5498 C 542.447 -1.57822 5.10878 0
M  V30 5499 C 543.747 0.606469 5.18767 0
M  V30 5500 H 545.441 0.622306 2.92861 0
M  V30 5501 H 542.987 0.300714 1.40825 0
M  V30 5502 H 544.94 -1.61622 3.89174 0
M  V30 5503 H 543.664 -1.87265 2.67581 0
M  V30 5504 H 542.323 0.0160484 3.66596 0
M  V30 5505 H 541.971 -2.32998 4.45781 0
M  V30 5506 H 541.671 -1.15369 5.76163 0
M  V30 5507 H 543.195 -2.08583 5.73869 0
M  V30 5508 H 544.609 0.185589 5.73 0
M  V30 5509 H 543.006 0.952381 5.92494 0
M  V30 5510 H 544.076 1.48559 4.61582 0
M  V30 5511 N 545.419 -1.53889 0.339982 0
M  V30 5512 C 546.644 -2.05741 -0.261798 0
M  V30 5513 C 547.069 -1.21354 -1.43718 0
M  V30 5514 O 546.427 -0.22645 -1.7988 0
M  V30 5515 C 546.475 -3.54542 -0.658228 0
M  V30 5516 O 545.579 -3.7302 -1.75869 0
M  V30 5517 H 544.92 -0.662529 -0.0441672 0
M  V30 5518 H 547.45 -1.98568 0.493161 0
M  V30 5519 H 547.46 -3.9711 -0.936368 0
M  V30 5520 H 546.135 -4.15412 0.201358 0
M  V30 5521 H 544.712 -3.42355 -1.47809 0
M  V30 5522 N 546.897 -0.0685191 -1.57451 0
M  V30 5523 C 547.807 0.914677 -2.16034 0
M  V30 5524 C 548.823 1.32938 -1.12265 0
M  V30 5525 O 549.999 1.40275 -1.44516 0
M  V30 5526 C 547.064 2.16519 -2.70777 0
M  V30 5527 C 546.125 1.80721 -3.89408 0
M  V30 5528 C 545.358 2.9981 -4.41531 0
M  V30 5529 O 545.581 4.13727 -3.92666 0
M  V30 5530 O 544.515 2.79817 -5.32903 0
M  V30 5531 H 548.341 0.446364 -3.00402 0
M  V30 5532 H 545.926 0.154367 -1.486 0
M  V30 5533 H 547.808 2.89856 -3.05878 0
M  V30 5534 H 546.483 2.62454 -1.89471 0
M  V30 5535 H 545.39 1.04646 -3.59166 0
M  V30 5536 H 546.723 1.39571 -4.71997 0
M  V30 5537 N 548.375 1.56261 0.205012 0
M  V30 5538 C 549.323 1.94631 1.27364 0
M  V30 5539 C 550.317 0.830434 1.47649 0
M  V30 5540 O 551.523 1.01538 1.48627 0
M  V30 5541 H 547.898 0.618755 0.427371 0
M  V30 5542 H 549.869 2.83768 0.922941 0
M  V30 5543 C 548.618 2.29358 2.61324 0
M  V30 5544 H 547.941 3.14744 2.46528 0
M  V30 5545 H 549.381 2.60076 3.34868 0
M  V30 5546 C 547.84 1.12461 3.17575 0
M  V30 5547 O 548.37 0.394407 3.99759 0
M  V30 5548 N 546.576 0.904036 2.7618 0
M  V30 5549 H 546.123 1.49956 2.09454 0
M  V30 5550 H 546.081 0.123662 3.14157 0
M  V30 5551 N 549.853 -0.472356 1.50355 0
M  V30 5552 C 551.099 -1.22348 1.62488 0
M  V30 5553 C 551.454 -1.89711 0.320574 0
M  V30 5554 O 550.747 -1.79074 -0.68141 0
M  V30 5555 C 550.941 -2.29257 2.74182 0
M  V30 5556 C 550.77 -1.72383 4.15348 0
M  V30 5557 C 549.54 -1.52411 4.81766 0
M  V30 5558 C 551.738 -1.21949 4.99633 0
M  V30 5559 N 549.72 -0.907669 6.07153 0
M  V30 5560 C 551.091 -0.726191 6.15732 0
M  V30 5561 C 553.146 -1.10792 4.85417 0
M  V30 5562 C 551.849 -0.132322 7.19178 0
M  V30 5563 C 553.875 -0.52799 5.89038 0
M  V30 5564 C 553.237 -0.0450604 7.04386 0
M  V30 5565 H 549.336 -0.436631 0.648751 0
M  V30 5566 H 551.92 -0.525698 1.87469 0
M  V30 5567 H 550.091 -2.96464 2.50926 0
M  V30 5568 H 551.823 -2.9628 2.75681 0
M  V30 5569 H 548.578 -1.776 4.39039 0
M  V30 5570 H 549.002 -0.617897 6.74174 0
M  V30 5571 H 553.644 -1.46722 3.96525 0
M  V30 5572 H 551.362 0.239187 8.07746 0
M  V30 5573 H 554.948 -0.444046 5.80103 0
M  V30 5574 H 553.828 0.396659 7.83196 0
M  V30 5575 N 551.331 -1.39911 -0.725443 0
M  V30 5576 C 552.556 -1.41137 -1.5197 0
M  V30 5577 C 552.981 -0.010262 -1.88097 0
M  V30 5578 O 552.339 0.979184 -1.52583 0
M  V30 5579 C 552.387 -2.2994 -2.77777 0
M  V30 5580 O 551.491 -1.73586 -3.74088 0
M  V30 5581 H 550.832 -0.480219 -0.458569 0
M  V30 5582 H 553.362 -1.84023 -0.894249 0
M  V30 5583 H 553.372 -2.44785 -3.26411 0
M  V30 5584 H 552.047 -3.31759 -2.50816 0
M  V30 5585 H 550.624 -1.68035 -3.32894 0
M  V30 5586 N 552.809 0.956637 -1.25245 0
M  V30 5587 C 554.055 1.70352 -1.10036 0
M  V30 5588 C 554.388 1.90869 0.358156 0
M  V30 5589 O 553.663 1.47819 1.26411 0
M  V30 5590 C 553.946 3.08766 -1.85298 0
M  V30 5591 C 553.799 2.95672 -3.38966 0
M  V30 5592 C 555.118 4.08622 -1.63451 0
M  V30 5593 H 552.237 0.618279 -0.401123 0
M  V30 5594 H 554.879 1.11212 -1.54051 0
M  V30 5595 H 553.029 3.59252 -1.47887 0
M  V30 5596 H 554.701 2.52527 -3.86041 0
M  V30 5597 H 552.944 2.31634 -3.6678 0
M  V30 5598 H 553.615 3.93776 -3.86839 0
M  V30 5599 H 556.091 3.67038 -1.96015 0
M  V30 5600 H 554.967 5.03514 -2.18551 0
M  V30 5601 H 555.228 4.3834 -0.575357 0
M  V30 5602 N 554.287 1.06798 1.15896 0
M  V30 5603 C 555.25 0.687328 2.18651 0
M  V30 5604 C 556.25 -0.269559 1.58524 0
M  V30 5605 O 557.44 -0.0512627 1.74125 0
M  V30 5606 C 554.572 0.0121642 3.40898 0
M  V30 5607 H 555.765 1.59701 2.53842 0
M  V30 5608 H 553.318 0.863828 1.3026 0
M  V30 5609 H 554.053 -0.910025 3.1127 0
M  V30 5610 H 553.838 0.700309 3.85795 0
M  V30 5611 H 555.328 -0.239703 4.16911 0
M  V30 5612 N 555.766 -1.3263 0.851289 0
M  V30 5613 C 557.177 -1.79653 0.5081 0
M  V30 5614 C 557.528 -1.70327 -0.973815 0
M  V30 5615 O 556.653 -1.25986 -1.75944 0
M  V30 5616 C 557.248 -3.26196 0.915515 0
M  V30 5617 C 555.807 -3.71187 0.624277 0
M  V30 5618 C 554.954 -2.53804 1.11709 0
M  V30 5619 H 557.905 -1.19976 1.03882 0
M  V30 5620 H 557.926 -3.79801 0.230535 0
M  V30 5621 H 557.438 -3.32952 1.99411 0
M  V30 5622 H 555.539 -3.69948 -0.443737 0
M  V30 5623 H 555.652 -4.64132 1.18821 0
M  V30 5624 H 554.016 -2.48964 0.537484 0
M  V30 5625 H 554.799 -2.63315 2.20272 0
M  V30 5626 N 557.244 -0.608902 -1.45362 0
M  V30 5627 C 558.207 0.0992563 -2.28985 0
M  V30 5628 C 559.207 0.793841 -1.39838 0
M  V30 5629 O 560.397 0.641804 -1.61946 0
M  V30 5630 C 557.529 1.15073 -3.20891 0
M  V30 5631 H 558.722 -0.635964 -2.93079 0
M  V30 5632 H 556.275 -0.368007 -1.51906 0
M  V30 5633 H 557.01 1.91667 -2.616 0
M  V30 5634 H 556.795 0.656867 -3.86559 0
M  V30 5635 H 558.285 1.64665 -3.83765 0
M  V30 5636 N 558.722 1.53707 -0.348139 0
M  V30 5637 C 559.655 2.21481 0.549667 0
M  V30 5638 C 560.633 1.20046 1.09671 0
M  V30 5639 O 561.817 1.48883 1.15612 0
M  V30 5640 C 558.944 2.89585 1.75664 0
M  V30 5641 C 557.99 4.04948 1.33864 0
M  V30 5642 S 558.823 5.34325 0.354577 0
M  V30 5643 C 559.979 6.05934 1.56828 0
M  V30 5644 H 560.212 2.97289 -0.0259755 0
M  V30 5645 H 557.745 1.53833 -0.132216 0
M  V30 5646 H 559.703 3.29441 2.44906 0
M  V30 5647 H 558.364 2.13535 2.30351 0
M  V30 5648 H 557.557 4.51552 2.23868 0
M  V30 5649 H 557.159 3.66893 0.725651 0
M  V30 5650 H 559.451 6.29606 2.50205 0
M  V30 5651 H 560.394 6.98799 1.14395 0
M  V30 5652 H 560.802 5.36151 1.76642 0
M  V30 5653 N 560.2 0.0768682 1.57412 0
M  V30 5654 C 561.13 -0.886026 2.16037 0
M  V30 5655 C 562.111 -1.30691 1.08876 0
M  V30 5656 O 563.296 -1.37705 1.36934 0
M  V30 5657 C 560.426 -2.1518 2.72608 0
M  V30 5658 C 559.38 -1.87015 3.8498 0
M  V30 5659 C 558.706 -3.20266 4.28175 0
M  V30 5660 C 560.006 -1.17143 5.08994 0
M  V30 5661 H 561.7 -0.397642 2.96748 0
M  V30 5662 H 559.246 -0.189823 1.42743 0
M  V30 5663 H 561.199 -2.82962 3.12266 0
M  V30 5664 H 559.923 -2.66269 1.89125 0
M  V30 5665 H 558.582 -1.21636 3.45833 0
M  V30 5666 H 558.23 -3.69207 3.41607 0
M  V30 5667 H 557.93 -3.0221 5.03927 0
M  V30 5668 H 559.454 -3.89237 4.70454 0
M  V30 5669 H 560.868 -1.75003 5.45937 0
M  V30 5670 H 559.265 -1.09328 5.90057 0
M  V30 5671 H 560.335 -0.151295 4.84664 0
M  V30 5672 N 561.678 -1.56367 -0.196722 0
M  V30 5673 C 562.641 -1.93561 -1.22746 0
M  V30 5674 C 563.641 -0.816566 -1.38524 0
M  V30 5675 O 564.831 -1.084 -1.36363 0
M  V30 5676 C 561.963 -2.20823 -2.59712 0
M  V30 5677 H 563.156 -2.85774 -0.909586 0
M  V30 5678 H 560.709 -1.50032 -0.438174 0
M  V30 5679 H 561.444 -1.31243 -2.96557 0
M  V30 5680 H 561.229 -3.02368 -2.49632 0
M  V30 5681 H 562.719 -2.50608 -3.34044 0
M  V30 5682 N 563.156 0.464375 -1.50603 0
M  V30 5683 C 564.088 1.57916 -1.66118 0
M  V30 5684 C 565.101 1.53497 -0.54246 0
M  V30 5685 O 566.29 1.58763 -0.815877 0
M  V30 5686 C 563.39 2.96809 -1.63577 0
M  V30 5687 C 562.563 3.26026 -2.91592 0
M  V30 5688 C 561.622 4.44506 -2.81604 0
M  V30 5689 O 560.648 4.44484 -3.55559 0
M  V30 5690 N 561.85 5.46549 -1.95614 0
M  V30 5691 H 564.615 1.45022 -2.62276 0
M  V30 5692 H 562.176 0.652903 -1.48151 0
M  V30 5693 H 564.168 3.74048 -1.54499 0
M  V30 5694 H 562.738 3.03438 -0.751262 0
M  V30 5695 H 561.958 2.37337 -3.14746 0
M  V30 5696 H 563.246 3.42361 -3.76386 0
M  V30 5697 H 562.644 5.49391 -1.34854 0
M  V30 5698 H 561.201 6.22746 -1.92435 0
M  V30 5699 N 564.634 1.40294 0.718013 0
M  V30 5700 C 566.05 1.2227 1.02577 0
M  V30 5701 C 566.25 0.0961976 2.0127 0
M  V30 5702 O 565.306 -0.546695 2.46511 0
M  V30 5703 C 566.619 2.56348 1.57182 0
M  V30 5704 C 568.167 2.6334 1.69178 0
M  V30 5705 C 568.642 3.9768 2.27188 0
M  V30 5706 N 570.133 3.99409 2.34578 0
M  V30 5707 C 570.868 5.00141 2.8044 0
M  V30 5708 N 570.364 6.11268 3.26073 0
M  V30 5709 N 572.157 4.87511 2.79802 0
M  V30 5710 H 564.308 2.12304 0.0637899 0
M  V30 5711 H 566.571 0.943632 0.0909036 0
M  V30 5712 H 566.277 3.3942 0.921262 0
M  V30 5713 H 566.151 2.77266 2.55741 0
M  V30 5714 H 568.538 1.80641 2.33351 0
M  V30 5715 H 568.619 2.46255 0.692247 0
M  V30 5716 H 568.263 4.80817 1.63638 0
M  V30 5717 H 568.193 4.12093 3.27852 0
M  V30 5718 H 570.684 3.19162 2.02346 0
M  V30 5719 H 570.997 6.84023 3.59628 0
M  V30 5720 H 569.342 6.14837 3.24038 0
M  V30 5721 H 572.533 3.9979 2.43487 0
M  V30 5722 H 572.706 5.66158 3.15228 0
M  V30 5723 N 566.112 -0.949982 1.2575 0
M  V30 5724 C 567.337 -1.73503 1.13628 0
M  V30 5725 C 567.762 -1.85601 -0.30559 0
M  V30 5726 O 567.12 -1.33984 -1.22139 0
M  V30 5727 C 567.168 -3.1243 1.80055 0
M  V30 5728 O 566.272 -3.97916 1.08336 0
M  V30 5729 H 565.613 -0.532665 0.396439 0
M  V30 5730 H 568.143 -1.19043 1.66403 0
M  V30 5731 H 568.153 -3.62866 1.86527 0
M  V30 5732 H 566.828 -3.02941 2.84956 0
M  V30 5733 H 565.405 -3.56375 1.09777 0
M  V30 5734 N 567.59 -1.07411 -1.15328 0
M  V30 5735 C 568.537 -0.694995 -2.20087 0
M  V30 5736 C 569.507 0.313904 -1.63107 0
M  V30 5737 O 570.692 0.200216 -1.89747 0
M  V30 5738 C 567.832 -0.0996218 -3.44956 0
M  V30 5739 C 566.945 -1.16007 -4.16133 0
M  V30 5740 C 566.08 -0.529636 -5.28553 0
M  V30 5741 C 565.119 -1.57283 -5.91548 0
M  V30 5742 N 564.256 -0.964932 -6.95438 0
M  V30 5743 H 569.096 -1.5927 -2.51867 0
M  V30 5744 H 566.633 -0.796115 -1.23695 0
M  V30 5745 H 568.591 0.263197 -4.16369 0
M  V30 5746 H 567.221 0.761435 -3.13691 0
M  V30 5747 H 566.273 -1.64045 -3.4321 0
M  V30 5748 H 567.585 -1.95101 -4.59061 0
M  V30 5749 H 566.739 -0.114487 -6.06592 0
M  V30 5750 H 565.478 0.29307 -4.86819 0
M  V30 5751 H 564.483 -1.99775 -5.12221 0
M  V30 5752 H 565.708 -2.39783 -6.35359 0
M  V30 5753 H 563.654 -0.16314 -6.55797 0
M  V30 5754 H 563.571 -1.69311 -7.36797 0
M  V30 5755 H 564.839 -0.575305 -7.77374 0
M  V30 5756 N 569.068 1.32177 -0.85831 0
M  V30 5757 C 570.345 1.91781 -0.384624 0
M  V30 5758 C 570.725 1.78171 1.13217 0
M  V30 5759 O 570.073 1.18209 1.95548 0
M  V30 5760 C 570.283 3.38414 -0.853047 0
M  V30 5761 C 571.631 4.15542 -0.872359 0
M  V30 5762 O 572.655 3.47148 -0.797926 0
M  V30 5763 O 571.514 5.37678 -0.978009 0
M  V30 5764 H 568.608 0.819259 -0.112886 0
M  V30 5765 H 571.154 1.40923 -0.945453 0
M  V30 5766 H 569.926 3.4228 -1.89632 0
M  V30 5767 H 569.549 3.96683 -0.269874 0
M  V30 5768 N 570.547 0.616602 1.45037 0
M  V30 5769 C 571.963 0.280994 1.57107 0
M  V30 5770 C 572.163 -1.21627 1.60653 0
M  V30 5771 O 571.219 -1.9997 1.54169 0
M  V30 5772 C 572.532 0.960116 2.8496 0
M  V30 5773 C 574.08 0.936884 2.98649 0
M  V30 5774 C 574.555 1.59619 4.29285 0
M  V30 5775 N 576.046 1.5621 4.36065 0
M  V30 5776 C 576.781 2.04131 5.35834 0
M  V30 5777 N 576.277 2.60177 6.4209 0
M  V30 5778 N 578.07 1.94845 5.27249 0
M  V30 5779 H 570.221 1.58867 1.40979 0
M  V30 5780 H 572.484 0.666024 0.674623 0
M  V30 5781 H 572.19 2.01473 2.88273 0
M  V30 5782 H 572.064 0.488921 3.74018 0
M  V30 5783 H 574.451 -0.109209 2.94898 0
M  V30 5784 H 574.532 1.44643 2.10979 0
M  V30 5785 H 574.176 2.64166 4.33796 0
M  V30 5786 H 574.106 1.06159 5.15789 0
M  V30 5787 H 576.597 1.15276 3.59889 0
M  V30 5788 H 576.91 2.94513 7.1448 0
M  V30 5789 H 575.255 2.64221 6.42816 0
M  V30 5790 H 578.446 1.50792 4.43147 0
M  V30 5791 H 578.619 2.32504 6.04852 0
M  V30 5792 N 572.025 -1.5352 0.356285 0
M  V30 5793 C 573.255 -2.05236 -0.236983 0
M  V30 5794 C 573.663 -1.23016 -1.43749 0
M  V30 5795 O 573.006 -0.2615 -1.81829 0
M  V30 5796 C 573.068 -3.52549 -0.7035 0
M  V30 5797 C 572.732 -4.55425 0.379059 0
M  V30 5798 C 573.729 -5.0524 1.22592 0
M  V30 5799 C 571.414 -4.99425 0.536638 0
M  V30 5800 C 573.408 -5.97647 2.21578 0
M  V30 5801 C 571.095 -5.9164 1.52988 0
M  V30 5802 C 572.093 -6.4064 2.3679 0
M  V30 5803 O 571.781 -7.31039 3.34421 0
M  V30 5804 H 571.513 -0.674346 -0.047254 0
M  V30 5805 H 574.067 -1.98962 0.510238 0
M  V30 5806 H 572.297 -3.56331 -1.50217 0
M  V30 5807 H 573.986 -3.87171 -1.21873 0
M  V30 5808 H 574.752 -4.72002 1.11532 0
M  V30 5809 H 570.631 -4.60879 -0.105834 0
M  V30 5810 H 574.175 -6.35816 2.87025 0
M  V30 5811 H 570.072 -6.24293 1.64099 0
M  V30 5812 H 570.84 -7.49009 3.30041 0
M  V30 5813 N 573.503 -0.0852151 -1.57369 0
M  V30 5814 C 574.466 0.8627 -2.12344 0
M  V30 5815 C 575.466 1.21746 -1.05046 0
M  V30 5816 O 576.656 1.14852 -1.30976 0
M  V30 5817 C 573.788 2.1618 -2.63589 0
M  V30 5818 H 574.981 0.385511 -2.97412 0
M  V30 5819 H 572.534 0.163663 -1.55441 0
M  V30 5820 H 573.269 2.68406 -1.82013 0
M  V30 5821 H 573.054 1.91723 -3.4203 0
M  V30 5822 H 574.544 2.84011 -3.06149 0
M  V30 5823 N 574.981 1.5647 0.188427 0
M  V30 5824 C 576.258 1.71857 0.934058 0
M  V30 5825 C 576.638 0.641867 2.01105 0
M  V30 5826 O 575.986 -0.346098 2.25864 0
M  V30 5827 C 576.196 3.14431 1.5144 0
M  V30 5828 C 577.544 3.74869 1.99396 0
M  V30 5829 O 578.568 3.17601 1.61269 0
M  V30 5830 O 577.427 4.75387 2.69573 0
M  V30 5831 H 574.521 0.701186 0.438483 0
M  V30 5832 H 577.067 1.68768 0.177599 0
M  V30 5833 H 575.839 3.8427 0.738416 0
M  V30 5834 H 575.462 3.21775 2.33552 0
M  V30 5835 N 576.459 -0.456382 1.50847 0
M  V30 5836 C 577.707 -1.20497 1.62249 0
M  V30 5837 C 578.028 -1.92156 0.331839 0
M  V30 5838 O 577.298 -1.84751 -0.651443 0
M  V30 5839 H 575.878 -0.447775 0.597918 0
M  V30 5840 H 578.54 -0.525099 1.87693 0
M  V30 5841 H 577.636 -1.94492 2.44089 0
M  V30 5842 N 577.937 -1.40673 -0.710563 0
M  V30 5843 C 579.214 -1.29718 -1.46398 0
M  V30 5844 C 579.594 0.082177 -2.1094 0
M  V30 5845 O 578.942 1.09536 -2.00534 0
M  V30 5846 C 579.152 -2.43967 -2.49562 0
M  V30 5847 C 580.5 -2.84436 -3.15248 0
M  V30 5848 O 581.524 -2.43597 -2.59883 0
M  V30 5849 O 580.383 -3.55008 -4.1549 0
M  V30 5850 H 577.477 -0.509697 -0.651258 0
M  V30 5851 H 580.023 -1.52603 -0.742312 0
M  V30 5852 H 578.795 -3.36076 -2.0042 0
M  V30 5853 H 578.418 -2.22879 -3.29258 0
M  V30 5854 N 579.415 0.9433 -1.26252 0
M  V30 5855 C 580.64 1.72898 -1.14547 0
M  V30 5856 C 581.065 1.85761 0.295743 0
M  V30 5857 O 580.423 1.3463 1.21427 0
M  V30 5858 C 580.471 3.11471 -1.8171 0
M  V30 5859 O 579.575 3.97336 -1.10445 0
M  V30 5860 H 578.916 0.530555 -0.399259 0
M  V30 5861 H 581.446 1.18159 -1.67032 0
M  V30 5862 H 581.456 3.61872 -1.88449 0
M  V30 5863 H 580.131 3.01425 -2.86558 0
M  V30 5864 H 578.708 3.55788 -1.11666 0
M  V30 5865 N 580.893 1.08022 1.14757 0
M  V30 5866 C 582.123 0.827646 1.89298 0
M  V30 5867 C 582.531 -0.623506 1.78631 0
M  V30 5868 O 581.874 -1.43991 1.14071 0
M  V30 5869 C 581.936 1.16553 3.40082 0
M  V30 5870 C 581.6 2.61866 3.74533 0
M  V30 5871 C 582.597 3.60116 3.74984 0
M  V30 5872 C 580.282 2.97619 4.04633 0
M  V30 5873 C 582.276 4.92151 4.05051 0
M  V30 5874 C 579.963 4.2985 4.34364 0
M  V30 5875 C 580.961 5.26926 4.34555 0
M  V30 5876 O 580.649 6.5678 4.63568 0
M  V30 5877 H 580.381 0.298396 0.606577 0
M  V30 5878 H 582.935 1.44187 1.46285 0
M  V30 5879 H 581.165 0.494296 3.83528 0
M  V30 5880 H 582.854 0.894407 3.95923 0
M  V30 5881 H 583.62 3.33837 3.51821 0
M  V30 5882 H 579.499 2.22702 4.03639 0
M  V30 5883 H 583.043 5.67915 4.05115 0
M  V30 5884 H 578.94 4.55879 4.56995 0
M  V30 5885 H 579.708 6.62035 4.81303 0
M  V30 5886 N 582.371 -1.3172 0.865308 0
M  V30 5887 C 583.303 -2.27545 0.274906 0
M  V30 5888 C 584.316 -1.52887 -0.559413 0
M  V30 5889 O 585.505 -1.74361 -0.382166 0
M  V30 5890 C 582.605 -3.33006 -0.629286 0
M  V30 5891 C 581.778 -4.37063 0.171553 0
M  V30 5892 C 580.837 -5.22044 -0.660052 0
M  V30 5893 O 579.863 -5.69129 -0.0897527 0
M  V30 5894 N 581.065 -5.45946 -1.97289 0
M  V30 5895 H 583.83 -2.78848 1.09836 0
M  V30 5896 H 581.391 -1.44693 0.726331 0
M  V30 5897 H 583.383 -3.86772 -1.19121 0
M  V30 5898 H 581.953 -2.81782 -1.35342 0
M  V30 5899 H 581.173 -3.83436 0.914919 0
M  V30 5900 H 582.461 -5.03662 0.721235 0
M  V30 5901 H 581.859 -5.0944 -2.45942 0
M  V30 5902 H 580.416 -6.02665 -2.4827 0
M  V30 5903 N 583.85 -0.624285 -1.44708 0
M  V30 5904 C 585.096 -0.13473 -2.02953 0
M  V30 5905 C 585.451 1.22724 -1.48178 0
M  V30 5906 O 584.744 1.80109 -0.653542 0
M  V30 5907 C 584.938 -0.0546353 -3.57358 0
M  V30 5908 C 584.767 -1.40729 -4.27113 0
M  V30 5909 C 583.537 -1.99231 -4.64365 0
M  V30 5910 C 585.735 -2.33968 -4.58 0
M  V30 5911 N 583.716 -3.27803 -5.19055 0
M  V30 5912 C 585.088 -3.47149 -5.137 0
M  V30 5913 C 587.143 -2.33132 -4.39948 0
M  V30 5914 C 585.846 -4.59682 -5.53249 0
M  V30 5915 C 587.872 -3.44724 -4.8054 0
M  V30 5916 C 587.234 -4.56629 -5.36348 0
M  V30 5917 H 583.332 -0.0930617 -0.776443 0
M  V30 5918 H 585.917 -0.826286 -1.76297 0
M  V30 5919 H 584.088 0.606183 -3.8364 0
M  V30 5920 H 585.82 0.443116 -4.02267 0
M  V30 5921 H 582.575 -1.52251 -4.4846 0
M  V30 5922 H 582.999 -3.93519 -5.50883 0
M  V30 5923 H 587.641 -1.47868 -3.961 0
M  V30 5924 H 585.359 -5.4566 -5.96054 0
M  V30 5925 H 588.945 -3.45245 -4.68291 0
M  V30 5926 H 587.825 -5.41551 -5.67179 0
M  V30 5927 N 585.328 1.53329 -0.364422 0
M  V30 5928 C 586.291 2.24323 0.470292 0
M  V30 5929 C 587.291 1.25068 1.01067 0
M  V30 5930 O 588.481 1.49354 0.896605 0
M  V30 5931 C 585.613 2.97908 1.65722 0
M  V30 5932 H 586.806 2.9952 -0.150917 0
M  V30 5933 H 584.359 1.55868 -0.116092 0
M  V30 5934 H 585.094 2.2695 2.31655 0
M  V30 5935 H 584.879 3.70732 1.27671 0
M  V30 5936 H 586.369 3.5188 2.24878 0
M  V30 5937 N 586.806 0.0935595 1.57322 0
M  V30 5938 C 588.034 -0.578934 1.98635 0
M  V30 5939 C 588.449 -1.61819 0.972626 0
M  V30 5940 O 587.806 -1.82461 -0.0379638 0
M  V30 5941 C 587.857 -1.22802 3.40003 0
M  V30 5942 O 587.578 -0.230334 4.37494 0
M  V30 5943 C 589.079 -1.98627 3.96311 0
M  V30 5944 H 586.299 -0.155324 0.652775 0
M  V30 5945 H 588.843 0.172393 2.03772 0
M  V30 5946 H 586.998 -1.93029 3.35885 0
M  V30 5947 H 587.412 -0.698649 5.19826 0
M  V30 5948 H 588.886 -2.39405 4.97382 0
M  V30 5949 H 589.363 -2.85151 3.34044 0
M  V30 5950 H 589.969 -1.3322 4.03897 0
M  V30 5951 N 588.284 -1.56567 -0.180126 0
M  V30 5952 C 589.531 -1.81492 -0.898167 0
M  V30 5953 C 589.859 -0.669225 -1.82624 0
M  V30 5954 O 589.114 0.344096 -1.92651 0
M  V30 5955 C 589.413 -3.1252 -1.73395 0
M  V30 5956 C 589.079 -4.40658 -0.955567 0
M  V30 5957 C 587.741 -4.75465 -0.740707 0
M  V30 5958 C 590.093 -5.19593 -0.408948 0
M  V30 5959 C 587.421 -5.86691 0.0320128 0
M  V30 5960 C 589.773 -6.31627 0.350638 0
M  V30 5961 C 588.437 -6.65007 0.576378 0
M  V30 5962 H 587.707 -0.664125 -0.328662 0
M  V30 5963 H 590.354 -1.908 -0.163616 0
M  V30 5964 H 588.659 -2.98515 -2.53763 0
M  V30 5965 H 590.356 -3.29013 -2.29241 0
M  V30 5966 H 586.946 -4.13352 -1.13306 0
M  V30 5967 H 591.13 -4.93104 -0.562307 0
M  V30 5968 H 586.386 -6.11016 0.216735 0
M  V30 5969 H 590.56 -6.92001 0.781497 0
M  V30 5970 H 588.187 -7.51033 1.17703 0
M  V30 5971 N 589.762 0.448376 -1.51087 0
M  V30 5972 C 590.71 1.56407 -1.72161 0
M  V30 5973 C 591.704 1.58878 -0.587721 0
M  V30 5974 O 592.91 1.62755 -0.768822 0
M  V30 5975 H 589.285 0.519423 -0.543786 0
M  V30 5976 H 591.256 1.35803 -2.65707 0
M  V30 5977 C 590.005 2.94163 -1.85373 0
M  V30 5978 H 589.328 2.9299 -2.72024 0
M  V30 5979 H 590.768 3.71625 -2.04135 0
M  V30 5980 C 589.227 3.31317 -0.610803 0
M  V30 5981 O 589.757 4.00985 0.239636 0
M  V30 5982 N 587.963 2.86966 -0.458127 0
M  V30 5983 H 587.51 2.30443 -1.15124 0
M  V30 5984 H 587.468 3.12188 0.372289 0
M  V30 5985 N 591.24 1.41047 0.703093 0
M  V30 5986 C 592.17 1.45067 1.82969 0
M  V30 5987 C 593.151 0.31016 1.67248 0
M  V30 5988 O 594.336 0.520548 1.87093 0
M  V30 5989 C 591.466 1.32478 3.2104 0
M  V30 5990 C 590.42 2.44262 3.51454 0
M  V30 5991 C 589.746 2.16742 4.88801 0
M  V30 5992 C 591.046 3.86606 3.51189 0
M  V30 5993 H 592.74 2.39353 1.79863 0
M  V30 5994 H 590.286 1.15206 0.863919 0
M  V30 5995 H 592.239 1.33904 3.99559 0
M  V30 5996 H 590.963 0.346735 3.24754 0
M  V30 5997 H 589.622 2.42107 2.75282 0
M  V30 5998 H 589.27 1.17299 4.89132 0
M  V30 5999 H 588.97 2.91643 5.10116 0
M  V30 6000 H 590.494 2.19872 5.69639 0
M  V30 6001 H 591.908 3.90517 4.19725 0
M  V30 6002 H 590.305 4.61128 3.84033 0
M  V30 6003 H 591.375 4.15296 2.50315 0
M  V30 6004 N 592.718 -0.936591 1.26751 0
M  V30 6005 C 594.134 -1.21095 1.03963 0
M  V30 6006 C 594.334 -2.00156 -0.232372 0
M  V30 6007 O 593.39 -2.3434 -0.940274 0
M  V30 6008 C 594.703 -1.96775 2.27377 0
M  V30 6009 C 596.251 -2.09749 2.32324 0
M  V30 6010 C 596.726 -2.88832 3.55443 0
M  V30 6011 N 598.217 -2.96404 3.55948 0
M  V30 6012 C 598.952 -3.58036 4.47881 0
M  V30 6013 N 598.448 -4.21132 5.50109 0
M  V30 6014 N 600.241 -3.55353 4.35523 0
M  V30 6015 H 592.392 -0.408173 2.08441 0
M  V30 6016 H 594.655 -0.243139 0.91629 0
M  V30 6017 H 594.361 -1.46094 3.19921 0
M  V30 6018 H 594.235 -2.97424 2.31989 0
M  V30 6019 H 596.622 -2.5962 1.40291 0
M  V30 6020 H 596.703 -1.08347 2.31721 0
M  V30 6021 H 596.347 -2.39647 4.47808 0
M  V30 6022 H 596.277 -3.90499 3.53296 0
M  V30 6023 H 598.768 -2.51552 2.82011 0
M  V30 6024 H 599.081 -4.66071 6.16439 0
M  V30 6025 H 597.426 -4.19705 5.53961 0
M  V30 6026 H 600.617 -3.05256 3.54875 0
M  V30 6027 H 600.79 -4.03097 5.07363 0
M  V30 6028 N 594.196 -1.08629 -1.14182 0
M  V30 6029 C 595.126 -0.740003 -2.21464 0
M  V30 6030 C 596.107 0.278591 -1.67803 0
M  V30 6031 O 597.292 0.148461 -1.93632 0
M  V30 6032 C 594.422 -0.150952 -3.46972 0
M  V30 6033 C 593.376 -1.09815 -4.13672 0
M  V30 6034 C 592.702 -0.3712 -5.3341 0
M  V30 6035 C 594.002 -2.43722 -4.61949 0
M  V30 6036 H 595.696 -1.63697 -2.50686 0
M  V30 6037 H 593.242 -0.788526 -1.20492 0
M  V30 6038 H 595.195 0.103325 -4.21273 0
M  V30 6039 H 593.919 0.781164 -3.1712 0
M  V30 6040 H 592.578 -1.33756 -3.41328 0
M  V30 6041 H 592.226 0.564792 -4.99819 0
M  V30 6042 H 591.926 -1.00267 -5.78982 0
M  V30 6043 H 593.45 -0.12503 -6.10472 0
M  V30 6044 H 594.864 -2.24034 -5.27714 0
M  V30 6045 H 593.261 -3.02582 -5.18232 0
M  V30 6046 H 594.331 -3.05082 -3.76899 0
M  V30 6047 N 595.674 1.31259 -0.872281 0
M  V30 6048 C 596.923 1.95893 -0.480493 0
M  V30 6049 C 597.236 1.697 0.972688 0
M  V30 6050 O 598.442 2.28214 1.47073 0
M  V30 6051 C 596.898 3.50705 -0.808342 0
M  V30 6052 C 596.506 3.85735 -2.27844 0
M  V30 6053 C 598.25 4.21719 -0.485136 0
M  V30 6054 C 596.157 5.33668 -2.54858 0
M  V30 6055 H 595.087 0.733182 -0.175955 0
M  V30 6056 H 597.738 1.49396 -1.0655 0
M  V30 6057 H 596.12 3.95706 -0.152558 0
M  V30 6058 H 597.294 3.51686 -2.97748 0
M  V30 6059 H 595.609 3.27792 -2.56791 0
M  V30 6060 H 598.206 5.30559 -0.664166 0
M  V30 6061 H 598.549 4.12316 0.574592 0
M  V30 6062 H 599.082 3.82359 -1.09756 0
M  V30 6063 H 595.821 5.48109 -3.59523 0
M  V30 6064 H 595.341 5.69061 -1.8955 0
M  V30 6065 H 597.02 6.00958 -2.39706 0
M  V30 6066 N 597.152 0.631951 1.44375 0
M  V30 6067 C 598.084 -0.110911 2.28931 0
M  V30 6068 C 599.097 -0.808086 1.41329 0
M  V30 6069 O 600.286 -0.669396 1.65473 0
M  V30 6070 C 597.386 -1.17928 3.1772 0
M  V30 6071 C 596.559 -0.564458 4.33743 0
M  V30 6072 C 595.618 -1.5269 5.0356 0
M  V30 6073 O 594.644 -1.04372 5.59549 0
M  V30 6074 N 595.846 -2.86123 5.05088 0
M  V30 6075 H 598.611 0.614758 2.93327 0
M  V30 6076 H 596.172 0.473171 1.54831 0
M  V30 6077 H 598.164 -1.82348 3.61291 0
M  V30 6078 H 596.734 -1.80717 2.55069 0
M  V30 6079 H 595.954 0.258373 3.93352 0
M  V30 6080 H 597.242 -0.134355 5.08623 0
M  V30 6081 H 596.64 -3.27959 4.60933 0
M  V30 6082 H 595.197 -3.45901 5.52445 0
M  V30 6083 N 598.631 -1.53133 0.372548 0
M  V30 6084 C 599.594 -2.24569 -0.458389 0
M  V30 6085 C 600.594 -1.25603 -1.00402 0
M  V30 6086 O 601.784 -1.49827 -0.888672 0
M  V30 6087 C 598.916 -2.98783 -1.6414 0
M  V30 6088 H 600.109 -2.99436 0.166799 0
M  V30 6089 H 597.662 -1.55805 0.124357 0
M  V30 6090 H 598.397 -2.28176 -2.30448 0
M  V30 6091 H 598.182 -3.71404 -1.25704 0
M  V30 6092 H 599.672 -3.53068 -2.23008 0
M  V30 6093 N 600.109 -0.101901 -1.5727 0
M  V30 6094 C 601.358 0.559922 -1.93772 0
M  V30 6095 C 601.671 1.68913 -0.98629 0
M  V30 6096 O 602.877 2.41256 -1.24529 0
M  V30 6097 C 601.333 1.04739 -3.44322 0
M  V30 6098 C 600.941 -0.05243 -4.47969 0
M  V30 6099 C 602.685 1.68157 -3.89774 0
M  V30 6100 C 600.592 0.450781 -5.8968 0
M  V30 6101 H 599.522 0.212931 -0.723309 0
M  V30 6102 H 602.173 -0.179001 -1.82625 0
M  V30 6103 H 600.555 1.84021 -3.50645 0
M  V30 6104 H 601.729 -0.828157 -4.53297 0
M  V30 6105 H 600.044 -0.592202 -4.12167 0
M  V30 6106 H 602.641 2.0689 -4.93052 0
M  V30 6107 H 602.984 2.55338 -3.28798 0
M  V30 6108 H 603.517 0.954453 -3.8618 0
M  V30 6109 H 600.256 -0.38458 -6.54371 0
M  V30 6110 H 599.776 1.19336 -5.87809 0
M  V30 6111 H 601.455 0.917555 -6.40461 0
M  V30 6112 N 601.587 1.56661 0.17182 0
M  V30 6113 C 602.535 1.97289 1.23207 0
M  V30 6114 C 603.529 0.861566 1.45854 0
M  V30 6115 O 604.735 1.04668 1.4644 0
M  V30 6116 H 601.11 0.627681 0.41415 0
M  V30 6117 H 603.081 2.85662 0.862542 0
M  V30 6118 C 601.83 2.34849 2.564 0
M  V30 6119 H 601.153 3.19903 2.39797 0
M  V30 6120 H 602.593 2.67121 3.29276 0
M  V30 6121 C 601.052 1.19172 3.15119 0
M  V30 6122 O 601.582 0.479113 3.98833 0
M  V30 6123 N 599.788 0.962415 2.74201 0
M  V30 6124 H 599.335 1.54365 2.06226 0
M  V30 6125 H 599.293 0.190272 3.13824 0
M  V30 6126 N 603.065 -0.440357 1.51323 0
M  V30 6127 C 603.997 -1.55254 1.68609 0
M  V30 6128 C 605.01 -1.52614 0.566812 0
M  V30 6129 O 606.199 -1.57445 0.841032 0
M  V30 6130 C 603.299 -2.94169 1.68279 0
M  V30 6131 C 602.472 -3.21346 2.96742 0
M  V30 6132 C 601.531 -4.3997 2.8864 0
M  V30 6133 O 600.557 -4.38771 3.62586 0
M  V30 6134 N 601.759 -5.43367 2.04285 0
M  V30 6135 H 604.524 -1.40831 2.6455 0
M  V30 6136 H 602.085 -0.629251 1.49171 0
M  V30 6137 H 604.077 -3.71543 1.60431 0
M  V30 6138 H 602.647 -3.02205 0.799441 0
M  V30 6139 H 601.867 -2.32299 3.18482 0
M  V30 6140 H 603.155 -3.3633 3.81785 0
M  V30 6141 H 602.553 -5.47176 1.43578 0
M  V30 6142 H 601.11 -6.19605 2.02318 0
M  V30 6143 N 604.543 -1.41418 -0.695603 0
M  V30 6144 C 605.491 -1.43467 -1.83084 0
M  V30 6145 C 606.485 -0.312719 -1.66489 0
M  V30 6146 O 607.691 -0.484744 -1.7335 0
M  V30 6147 H 604.066 -0.448891 -0.603325 0
M  V30 6148 H 606.037 -2.39144 -1.78473 0
M  V30 6149 C 604.786 -1.3337 -3.21104 0
M  V30 6150 H 604.109 -2.18989 -3.3449 0
M  V30 6151 H 605.549 -1.38865 -4.00615 0
M  V30 6152 C 604.008 -0.0460484 -3.36869 0
M  V30 6153 O 604.538 0.909258 -3.91274 0
M  V30 6154 N 602.744 0.0300222 -2.90584 0
M  V30 6155 H 602.291 -0.748129 -2.46497 0
M  V30 6156 H 602.249 0.890991 -3.01511 0
M  V30 6157 N 606.021 0.929856 -1.27246 0
M  V30 6158 C 607.268 1.67731 -1.13457 0
M  V30 6159 C 607.596 1.9185 0.319998 0
M  V30 6160 O 606.851 1.50524 1.25064 0
M  V30 6161 C 607.15 3.05116 -1.86115 0
M  V30 6162 C 606.816 3.00715 -3.35978 0
M  V30 6163 C 605.478 2.99222 -3.76855 0
M  V30 6164 C 607.83 2.92168 -4.3161 0
M  V30 6165 C 605.158 2.86962 -5.11732 0
M  V30 6166 C 607.51 2.81449 -5.66542 0
M  V30 6167 C 606.174 2.78305 -6.06715 0
M  V30 6168 H 605.444 0.613772 -0.415168 0
M  V30 6169 H 608.091 1.08456 -1.57827 0
M  V30 6170 H 606.396 3.68083 -1.34246 0
M  V30 6171 H 608.093 3.61822 -1.72876 0
M  V30 6172 H 604.683 3.02664 -3.03468 0
M  V30 6173 H 608.867 2.92421 -4.01003 0
M  V30 6174 H 604.123 2.82913 -5.42006 0
M  V30 6175 H 608.297 2.738 -6.40317 0
M  V30 6176 H 605.924 2.68561 -7.11181 0
M  V30 6177 N 607.499 1.09233 1.13605 0
M  V30 6178 C 608.462 0.733553 2.17144 0
M  V30 6179 C 609.462 -0.235873 1.59061 0
M  V30 6180 O 610.652 -0.0143167 1.74194 0
M  V30 6181 C 607.784 0.084471 3.40795 0
M  V30 6182 H 608.977 1.65049 2.50397 0
M  V30 6183 H 606.53 0.891264 1.28399 0
M  V30 6184 H 607.265 -0.843795 3.1313 0
M  V30 6185 H 607.05 0.781985 3.84223 0
M  V30 6186 H 608.54 -0.151216 4.17326 0
M  V30 6187 N 608.977 -1.30795 0.87923 0
M  V30 6188 C 609.907 -2.30742 0.357796 0
M  V30 6189 C 610.888 -1.60747 -0.556283 0
M  V30 6190 O 612.073 -1.88393 -0.47135 0
M  V30 6191 C 609.203 -3.44583 -0.433555 0
M  V30 6192 C 608.157 -4.26235 0.388251 0
M  V30 6193 C 607.483 -5.32073 -0.529352 0
M  V30 6194 C 608.783 -4.96303 1.62729 0
M  V30 6195 H 610.477 -2.74605 1.19299 0
M  V30 6196 H 608.023 -1.32017 0.575104 0
M  V30 6197 H 609.976 -4.13563 -0.808934 0
M  V30 6198 H 608.7 -2.99511 -1.30234 0
M  V30 6199 H 607.359 -3.58936 0.745695 0
M  V30 6200 H 607.007 -4.83249 -1.39569 0
M  V30 6201 H 606.707 -5.87598 0.0166741 0
M  V30 6202 H 608.231 -6.0391 -0.901373 0
M  V30 6203 H 609.645 -5.5783 1.32283 0
M  V30 6204 H 608.042 -5.61666 2.11309 0
M  V30 6205 H 609.112 -4.22758 2.37494 0
M  V30 6206 N 610.455 -0.639598 -1.44038 0
M  V30 6207 C 611.418 0.0506628 -2.29144 0
M  V30 6208 C 612.418 0.764001 -1.41491 0
M  V30 6209 O 613.608 0.607309 -1.63271 0
M  V30 6210 C 610.74 1.0824 -3.2326 0
M  V30 6211 H 611.933 -0.697987 -2.91664 0
M  V30 6212 H 609.486 -0.400146 -1.51091 0
M  V30 6213 H 610.221 1.86075 -2.65606 0
M  V30 6214 H 610.006 0.574725 -3.87865 0
M  V30 6215 H 611.496 1.56487 -3.87171 0
M  V30 6216 N 611.933 1.52934 -0.380664 0
M  V30 6217 C 613.163 2.05587 0.204302 0
M  V30 6218 C 613.571 1.25288 1.41773 0
M  V30 6219 O 612.914 0.290394 1.8139 0
M  V30 6220 C 612.976 3.53624 0.647324 0
M  V30 6221 C 612.64 4.54765 -0.451465 0
M  V30 6222 C 613.637 5.03226 -1.30614 0
M  V30 6223 C 611.322 4.98508 -0.616025 0
M  V30 6224 C 613.316 5.94046 -2.31058 0
M  V30 6225 C 611.003 5.89131 -1.62381 0
M  V30 6226 C 612.001 6.36792 -2.46952 0
M  V30 6227 O 611.689 7.25626 -3.46009 0
M  V30 6228 H 611.421 0.675013 0.0365198 0
M  V30 6229 H 613.975 1.98125 -0.541827 0
M  V30 6230 H 612.205 3.58676 1.44529 0
M  V30 6231 H 613.894 3.89061 1.15698 0
M  V30 6232 H 614.66 4.70167 -1.19027 0
M  V30 6233 H 610.539 4.60989 0.0324987 0
M  V30 6234 H 614.083 6.3117 -2.97104 0
M  V30 6235 H 609.98 6.21603 -1.7401 0
M  V30 6236 H 610.748 7.43664 -3.41916 0
M  V30 6237 N 613.412 0.11024 1.57214 0
M  V30 6238 C 614.322 -0.857077 2.18383 0
M  V30 6239 C 615.338 -1.29915 1.1575 0
M  V30 6240 O 616.514 -1.36394 1.48184 0
M  V30 6241 C 613.579 -2.09264 2.76423 0
M  V30 6242 C 612.64 -1.70333 3.94063 0
M  V30 6243 C 611.873 -2.87999 4.49324 0
M  V30 6244 O 612.096 -4.0317 4.03497 0
M  V30 6245 O 611.03 -2.6559 5.40135 0
M  V30 6246 H 614.856 -0.366561 3.0148 0
M  V30 6247 H 612.441 -0.114914 1.48957 0
M  V30 6248 H 614.323 -2.81644 3.13456 0
M  V30 6249 H 612.998 -2.57339 1.96363 0
M  V30 6250 H 611.905 -0.950864 3.61814 0
M  V30 6251 H 613.238 -1.27007 4.75531 0
M  V30 6252 N 614.89 -1.56749 -0.16351 0
M  V30 6253 C 616.138 -1.82074 -0.87713 0
M  V30 6254 C 616.459 -0.688503 -1.82441 0
M  V30 6255 O 615.729 0.291085 -1.93725 0
M  V30 6256 H 614.309 -0.671677 -0.326893 0
M  V30 6257 H 616.971 -1.9423 -0.161459 0
M  V30 6258 H 616.067 -2.76407 -1.44934 0
M  V30 6259 N 616.368 0.432326 -1.51554 0
M  V30 6260 C 617.593 1.20824 -1.68571 0
M  V30 6261 C 618.018 1.84126 -0.384596 0
M  V30 6262 O 617.376 1.69025 0.655751 0
M  V30 6263 C 617.424 2.26429 -2.80646 0
M  V30 6264 O 616.528 3.32032 -2.44598 0
M  V30 6265 H 615.869 0.353765 -0.561913 0
M  V30 6266 H 618.399 0.509916 -1.98144 0
M  V30 6267 H 618.409 2.71133 -3.04878 0
M  V30 6268 H 617.084 1.79733 -3.75058 0
M  V30 6269 H 615.661 2.92769 -2.30956 0
M  V30 6270 N 617.846 1.41785 0.688094 0
M  V30 6271 C 619.076 1.44705 1.47459 0
M  V30 6272 C 619.484 0.052916 1.89126 0
M  V30 6273 O 618.827 -0.939781 1.57841 0
M  V30 6274 C 618.889 2.29935 2.76352 0
M  V30 6275 C 618.553 3.77996 2.56843 0
M  V30 6276 C 619.55 4.69976 2.22304 0
M  V30 6277 C 617.235 4.2212 2.7225 0
M  V30 6278 C 619.229 6.04068 2.03421 0
M  V30 6279 C 616.916 5.56275 2.52985 0
M  V30 6280 C 617.914 6.47065 2.18621 0
M  V30 6281 O 617.602 7.78744 1.9953 0
M  V30 6282 H 617.334 0.494703 0.460701 0
M  V30 6283 H 619.888 1.86802 0.854057 0
M  V30 6284 H 618.118 1.82664 3.40839 0
M  V30 6285 H 619.807 2.24467 3.38186 0
M  V30 6286 H 620.573 4.37175 2.10008 0
M  V30 6287 H 616.452 3.51752 2.97979 0
M  V30 6288 H 619.996 6.74897 1.76523 0
M  V30 6289 H 615.893 5.88653 2.64873 0
M  V30 6290 H 616.661 7.89966 2.14234 0
M  V30 6291 N 619.324 -0.923095 1.27737 0
M  V30 6292 C 620.256 -2.02871 1.06658 0
M  V30 6293 C 621.269 -1.62786 0.0212095 0
M  V30 6294 O 622.458 -1.76548 0.263267 0
M  V30 6295 C 619.558 -3.33603 0.59682 0
M  V30 6296 C 618.731 -4.02354 1.71551 0
M  V30 6297 C 617.79 -5.11364 1.24071 0
M  V30 6298 O 616.816 -5.35075 1.94123 0
M  V30 6299 N 618.018 -5.80416 0.0988444 0
M  V30 6300 H 620.783 -2.21515 2.01869 0
M  V30 6301 H 618.344 -1.09378 1.19365 0
M  V30 6302 H 620.336 -4.03845 0.262984 0
M  V30 6303 H 618.906 -3.11499 -0.262187 0
M  V30 6304 H 618.126 -3.25786 2.2194 0
M  V30 6305 H 619.414 -4.45035 2.46619 0
M  V30 6306 H 618.812 -5.63611 -0.485743 0
M  V30 6307 H 617.369 -6.51563 -0.17578 0
M  V30 6308 N 620.802 -1.09834 -1.13024 0
M  V30 6309 C 622.032 -0.857657 -1.87957 0
M  V30 6310 C 622.44 0.595008 -1.796 0
M  V30 6311 O 621.783 1.42158 -1.16347 0
M  V30 6312 C 621.845 -1.21949 -3.38185 0
M  V30 6313 C 621.509 -2.67791 -3.7032 0
M  V30 6314 C 622.506 -3.66036 -3.69207 0
M  V30 6315 C 620.191 -3.04019 -3.99847 0
M  V30 6316 C 622.185 -4.98533 -3.9717 0
M  V30 6317 C 619.872 -4.36706 -4.27471 0
M  V30 6318 C 620.87 -5.33772 -4.26118 0
M  V30 6319 O 620.558 -6.64072 -4.53061 0
M  V30 6320 H 620.29 -0.308009 -0.601753 0
M  V30 6321 H 622.844 -1.46496 -1.43973 0
M  V30 6322 H 621.074 -0.555249 -3.82693 0
M  V30 6323 H 622.763 -0.957281 -3.9445 0
M  V30 6324 H 623.529 -3.39392 -3.46465 0
M  V30 6325 H 619.408 -2.29096 -4.00045 0
M  V30 6326 H 622.952 -5.74288 -3.96029 0
M  V30 6327 H 618.849 -4.63091 -4.49685 0
M  V30 6328 H 619.617 -6.69608 -4.7071 0
M  V30 6329 N 622.28 1.30327 -0.886154 0
M  V30 6330 C 623.213 2.26241 -0.298407 0
M  V30 6331 C 624.191 1.51839 0.581704 0
M  V30 6332 O 625.375 1.80851 0.531536 0
M  V30 6333 C 622.502 3.33768 0.575888 0
M  V30 6334 C 621.548 4.25852 -0.235057 0
M  V30 6335 S 622.381 5.10277 -1.62411 0
M  V30 6336 C 623.537 6.21313 -0.756368 0
M  V30 6337 H 623.77 2.75744 -1.11141 0
M  V30 6338 H 621.303 1.38341 -0.685651 0
M  V30 6339 H 623.261 3.96186 1.07458 0
M  V30 6340 H 621.922 2.82986 1.363 0
M  V30 6341 H 621.115 5.02143 0.432198 0
M  V30 6342 H 620.717 3.68015 -0.666409 0
M  V30 6343 H 623.009 6.77495 0.0261451 0
M  V30 6344 H 623.952 6.92226 -1.49093 0
M  V30 6345 H 624.36 5.63611 -0.316749 0
M  V30 6346 N 623.758 0.647228 1.43697 0
M  V30 6347 C 625.035 0.0883758 1.954 0
M  V30 6348 C 625.415 -1.39006 1.58873 0
M  V30 6349 O 624.763 -2.11255 0.87083 0
M  V30 6350 C 624.973 0.328263 3.47453 0
M  V30 6351 C 626.321 0.230009 4.23977 0
M  V30 6352 O 627.345 0.260496 3.55246 0
M  V30 6353 O 626.204 0.148615 5.46298 0
M  V30 6354 H 623.298 -0.0130683 0.826897 0
M  V30 6355 H 625.844 0.72005 1.53666 0
M  V30 6356 H 624.616 1.3535 3.67146 0
M  V30 6357 H 624.239 -0.336772 3.96171 0
M  V30 6358 N 625.236 -1.5273 0.388769 0
M  V30 6359 C 626.166 -2.29353 -0.438111 0
M  V30 6360 C 627.147 -1.32719 -1.06394 0
M  V30 6361 O 628.332 -1.61612 -1.07681 0
M  V30 6362 C 625.462 -3.09995 -1.56589 0
M  V30 6363 C 624.416 -4.14509 -1.06613 0
M  V30 6364 C 623.742 -4.83372 -2.28594 0
M  V30 6365 C 625.042 -5.22127 -0.134459 0
M  V30 6366 H 626.736 -2.98723 0.201206 0
M  V30 6367 H 624.282 -1.43665 0.0982089 0
M  V30 6368 H 626.235 -3.62357 -2.15118 0
M  V30 6369 H 624.959 -2.38357 -2.23279 0
M  V30 6370 H 623.618 -3.63128 -0.503383 0
M  V30 6371 H 623.266 -4.08283 -2.93792 0
M  V30 6372 H 622.966 -5.54012 -1.95817 0
M  V30 6373 H 624.49 -5.38538 -2.87766 0
M  V30 6374 H 625.904 -5.69851 -0.627914 0
M  V30 6375 H 624.301 -6.00011 0.103534 0
M  V30 6376 H 625.371 -4.77971 0.816798 0
M  V30 6377 N 626.714 -0.118576 -1.57153 0
M  V30 6378 C 627.661 0.831789 -2.1529 0
M  V30 6379 C 628.631 1.26385 -1.07778 0
M  V30 6380 O 629.816 1.34144 -1.35684 0
M  V30 6381 C 626.956 2.07664 -2.75626 0
M  V30 6382 C 626.069 1.69298 -3.97444 0
M  V30 6383 C 625.204 2.88747 -4.45868 0
M  V30 6384 C 624.243 2.46619 -5.60219 0
M  V30 6385 N 623.38 3.5898 -6.03389 0
M  V30 6386 H 628.22 0.329183 -2.96176 0
M  V30 6387 H 625.757 0.150792 -1.46325 0
M  V30 6388 H 627.715 2.80601 -3.08738 0
M  V30 6389 H 626.345 2.55384 -1.97431 0
M  V30 6390 H 625.397 0.862374 -3.70496 0
M  V30 6391 H 626.709 1.34338 -4.80369 0
M  V30 6392 H 625.863 3.69909 -4.80887 0
M  V30 6393 H 624.602 3.26933 -3.61892 0
M  V30 6394 H 623.607 1.63889 -5.24805 0
M  V30 6395 H 624.832 2.0955 -6.45961 0
M  V30 6396 H 622.778 3.9684 -5.22354 0
M  V30 6397 H 622.695 3.27942 -6.81168 0
M  V30 6398 H 623.963 4.40583 -6.43045 0
M  V30 6399 N 628.193 1.56834 0.155195 0
M  V30 6400 C 629.604 1.72421 0.716082 0
M  V30 6401 C 629.955 0.731685 1.82046 0
M  V30 6402 O 629.08 -0.103481 2.16152 0
M  V30 6403 C 629.675 3.12629 1.30571 0
M  V30 6404 C 628.234 3.29846 1.81325 0
M  V30 6405 C 627.381 2.68359 0.698494 0
M  V30 6406 H 630.332 1.58544 -0.0703861 0
M  V30 6407 H 630.353 3.12174 2.1755 0
M  V30 6408 H 629.865 3.84844 0.501701 0
M  V30 6409 H 627.966 2.62614 2.64319 0
M  V30 6410 H 628.079 4.37727 1.9476 0
M  V30 6411 H 626.443 2.28604 1.12305 0
M  V30 6412 H 627.226 3.43171 -0.0939366 0
M  V30 6413 N 629.671 -0.424282 1.51781 0
M  V30 6414 C 630.581 -1.54087 1.76902 0
M  V30 6415 C 631.597 -1.61249 0.653826 0
M  V30 6416 O 632.773 -1.78247 0.937552 0
M  V30 6417 C 629.838 -2.8996 1.90063 0
M  V30 6418 C 628.899 -2.92809 3.13945 0
M  V30 6419 C 628.132 -4.22201 3.26469 0
M  V30 6420 O 628.355 -5.15286 2.44616 0
M  V30 6421 O 627.289 -4.31599 4.1953 0
M  V30 6422 H 631.115 -1.358 2.71647 0
M  V30 6423 H 628.7 -0.608618 1.36441 0
M  V30 6424 H 630.582 -3.70575 2.0063 0
M  V30 6425 H 629.257 -3.08347 0.985067 0
M  V30 6426 H 628.164 -2.11102 3.08847 0
M  V30 6427 H 629.497 -2.79369 4.05233 0
M  V30 6428 N 631.149 -1.42148 -0.680565 0
M  V30 6429 C 632.397 -1.42029 -1.43779 0
M  V30 6430 C 632.718 -0.0356347 -1.94967 0
M  V30 6431 O 631.988 0.924936 -1.7269 0
M  V30 6432 H 630.568 -0.522835 -0.533529 0
M  V30 6433 H 633.23 -1.7752 -0.804538 0
M  V30 6434 H 632.326 -2.11658 -2.29363 0
M  V30 6435 N 632.627 0.916307 -1.28225 0
M  V30 6436 C 633.857 1.69654 -1.17902 0
M  V30 6437 C 634.265 1.87331 0.265268 0
M  V30 6438 O 633.608 1.39828 1.19137 0
M  V30 6439 C 633.67 3.11024 -1.80289 0
M  V30 6440 C 633.334 3.16643 -3.29525 0
M  V30 6441 C 634.331 2.98032 -4.25997 0
M  V30 6442 C 632.016 3.39238 -3.70436 0
M  V30 6443 C 634.01 3.01924 -5.61356 0
M  V30 6444 C 631.697 3.42762 -5.05922 0
M  V30 6445 C 632.695 3.24125 -6.01192 0
M  V30 6446 O 632.383 3.27406 -7.34208 0
M  V30 6447 H 632.115 0.537197 -0.41036 0
M  V30 6448 H 634.669 1.15547 -1.69817 0
M  V30 6449 H 632.899 3.66662 -1.22865 0
M  V30 6450 H 634.588 3.71063 -1.6452 0
M  V30 6451 H 635.354 2.80405 -3.95725 0
M  V30 6452 H 631.233 3.52791 -2.96749 0
M  V30 6453 H 634.777 2.87295 -6.35694 0
M  V30 6454 H 630.674 3.59916 -5.35846 0
M  V30 6455 H 631.442 3.43784 -7.42802 0
M  V30 6456 N 634.105 1.10431 1.1244 0
M  V30 6457 C 635.053 0.747974 2.20246 0
M  V30 6458 C 636.047 -0.255848 1.67457 0
M  V30 6459 O 637.253 -0.116221 1.79624 0
M  V30 6460 H 633.628 0.223946 0.71788 0
M  V30 6461 H 635.599 1.6661 2.47556 0
M  V30 6462 C 634.348 0.195957 3.47147 0
M  V30 6463 H 633.671 0.959606 3.88113 0
M  V30 6464 H 635.111 -0.0153154 4.23997 0
M  V30 6465 C 633.57 -1.07132 3.19413 0
M  V30 6466 O 634.1 -2.15284 3.3914 0
M  V30 6467 N 632.306 -0.98994 2.73219 0
M  V30 6468 H 631.853 -0.109736 2.57366 0
M  V30 6469 H 631.811 -1.83856 2.55038 0
M  V30 6470 N 635.583 -1.29855 0.893053 0
M  V30 6471 C 636.86 -1.90694 0.435336 0
M  V30 6472 C 637.24 -1.8111 -1.08454 0
M  V30 6473 O 636.588 -1.23352 -1.92345 0
M  V30 6474 C 636.798 -3.36033 0.942472 0
M  V30 6475 C 638.146 -4.13083 0.982226 0
M  V30 6476 O 639.17 -3.4491 0.889686 0
M  V30 6477 O 638.029 -5.34896 1.12022 0
M  V30 6478 H 635.123 -0.815978 0.134567 0
M  V30 6479 H 637.669 -1.38367 0.982484 0
M  V30 6480 H 636.441 -3.37132 1.9864 0
M  V30 6481 H 636.064 -3.95828 0.374952 0
M  V30 6482 N 637.061 -0.65484 -1.43351 0
M  V30 6483 C 638.477 -0.32255 -1.56307 0
M  V30 6484 C 638.677 1.17324 -1.63821 0
M  V30 6485 O 637.733 1.95813 -1.59417 0
M  V30 6486 C 639.046 -1.03533 -2.82314 0
M  V30 6487 C 640.594 -1.01574 -2.9606 0
M  V30 6488 C 641.069 -1.70945 -4.24902 0
M  V30 6489 N 642.56 -1.67716 -4.3177 0
M  V30 6490 C 643.295 -2.18265 -5.30234 0
M  V30 6491 N 642.791 -2.7711 -6.34966 0
M  V30 6492 N 644.584 -2.08756 -5.21898 0
M  V30 6493 H 636.735 -1.62549 -1.36717 0
M  V30 6494 H 638.998 -0.683676 -0.656727 0
M  V30 6495 H 638.704 -2.09045 -2.8283 0
M  V30 6496 H 638.578 -0.587913 -3.7259 0
M  V30 6497 H 640.965 0.0309834 -2.95084 0
M  V30 6498 H 641.046 -1.50186 -2.07069 0
M  V30 6499 H 640.69 -2.75574 -4.26639 0
M  V30 6500 H 640.62 -1.19797 -5.12793 0
M  V30 6501 H 643.111 -1.24777 -3.56706 0
M  V30 6502 H 643.424 -3.13353 -7.06421 0
M  V30 6503 H 641.769 -2.81171 -6.35585 0
M  V30 6504 H 644.96 -1.62488 -4.38994 0
M  V30 6505 H 645.133 -2.48459 -5.98475 0
M  V30 6506 N 638.539 1.52521 -0.396863 0
M  V30 6507 C 639.471 2.24333 0.469814 0
M  V30 6508 C 640.484 1.2685 1.02043 0
M  V30 6509 O 641.673 1.52876 0.92147 0
M  V30 6510 C 638.773 2.95202 1.66461 0
M  V30 6511 C 637.946 4.19454 1.24003 0
M  V30 6512 C 637.005 4.73255 2.30036 0
M  V30 6513 O 636.031 5.36151 1.91131 0
M  V30 6514 N 637.233 4.53765 3.62047 0
M  V30 6515 H 639.998 2.99347 -0.145468 0
M  V30 6516 H 637.559 1.60348 -0.223606 0
M  V30 6517 H 639.551 3.28092 2.36934 0
M  V30 6518 H 638.121 2.2345 2.18607 0
M  V30 6519 H 637.341 3.92517 0.363892 0
M  V30 6520 H 638.629 5.0017 0.933135 0
M  V30 6521 H 638.027 4.03576 3.96412 0
M  V30 6522 H 636.584 4.91124 4.28533 0
M  V30 6523 N 640.017 0.126909 1.57088 0
M  V30 6524 C 640.98 -0.806097 2.14557 0
M  V30 6525 C 641.98 -1.18918 1.08236 0
M  V30 6526 O 643.17 -1.11339 1.33975 0
M  V30 6527 C 640.302 -2.09116 2.69227 0
M  V30 6528 H 641.495 -0.306522 2.98329 0
M  V30 6529 H 639.048 -0.122393 1.5582 0
M  V30 6530 H 639.783 -2.63486 1.89065 0
M  V30 6531 H 639.568 -1.82588 3.46993 0
M  V30 6532 H 641.058 -2.75794 3.13572 0
M  V30 6533 N 641.495 -1.56914 -0.146875 0
M  V30 6534 C 642.741 -1.83628 -0.860741 0
M  V30 6535 C 643.074 -0.708528 -1.80813 0
M  V30 6536 O 642.349 0.287838 -1.92358 0
M  V30 6537 C 642.632 -3.20836 -1.63511 0
M  V30 6538 C 642.485 -4.44174 -0.709199 0
M  V30 6539 C 643.804 -3.55268 -2.59756 0
M  V30 6540 H 640.923 -0.667949 -0.311468 0
M  V30 6541 H 643.565 -1.89582 -0.125936 0
M  V30 6542 H 641.715 -3.15891 -2.26153 0
M  V30 6543 H 643.387 -4.61205 -0.0937781 0
M  V30 6544 H 641.63 -4.33796 -0.0187856 0
M  V30 6545 H 642.301 -5.36785 -1.28707 0
M  V30 6546 H 644.777 -3.60824 -2.07232 0
M  V30 6547 H 643.653 -4.52303 -3.10987 0
M  V30 6548 H 643.914 -2.81231 -3.41118 0
M  V30 6549 N 642.974 0.416227 -1.52004 0
M  V30 6550 C 643.922 1.5272 -1.7544 0
M  V30 6551 C 644.916 1.57596 -0.621289 0
M  V30 6552 O 646.122 1.61087 -0.803172 0
M  V30 6553 H 642.497 0.507772 -0.554682 0
M  V30 6554 H 644.468 1.30136 -2.68528 0
M  V30 6555 C 643.217 2.90165 -1.91571 0
M  V30 6556 H 642.54 2.87154 -2.78178 0
M  V30 6557 H 643.98 3.67211 -2.11972 0
M  V30 6558 C 642.439 3.29947 -0.680942 0
M  V30 6559 O 642.969 4.01403 0.154527 0
M  V30 6560 N 641.175 2.8593 -0.518894 0
M  V30 6561 H 640.722 2.2795 -1.19986 0
M  V30 6562 H 640.68 3.12907 0.305985 0
M  V30 6563 N 644.452 1.42507 0.673017 0
M  V30 6564 C 645.7 1.42789 1.43023 0
M  V30 6565 C 646.021 0.0459738 1.94946 0
M  V30 6566 O 645.291 -0.915765 1.73178 0
M  V30 6567 H 643.871 0.525657 0.530748 0
M  V30 6568 H 646.533 1.77944 0.795113 0
M  V30 6569 H 645.629 2.12872 2.28237 0
M  V30 6570 N 645.93 -0.909495 1.28709 0
M  V30 6571 C 647.155 -1.69801 1.1909 0
M  V30 6572 C 647.58 -1.86479 -0.246388 0
M  V30 6573 O 646.938 -1.37802 -1.17815 0
M  V30 6574 C 646.986 -3.06543 1.89904 0
M  V30 6575 O 646.09 -3.94268 1.2094 0
M  V30 6576 H 645.431 -0.519783 0.413185 0
M  V30 6577 H 647.961 -1.13689 1.70106 0
M  V30 6578 H 647.971 -3.56748 1.97977 0
M  V30 6579 H 646.646 -2.93722 2.94449 0
M  V30 6580 H 645.223 -3.52702 1.2106 0
M  V30 6581 N 647.408 -1.11026 -1.11852 0
M  V30 6582 C 648.655 -0.85646 -1.83497 0
M  V30 6583 C 648.983 0.617938 -1.84423 0
M  V30 6584 O 648.238 1.47194 -1.28966 0
M  V30 6585 C 648.537 -1.35777 -3.30604 0
M  V30 6586 C 648.203 -2.84465 -3.49843 0
M  V30 6587 C 646.865 -3.25068 -3.54802 0
M  V30 6588 C 649.217 -3.80251 -3.56453 0
M  V30 6589 C 646.545 -4.60194 -3.63921 0
M  V30 6590 C 648.897 -5.15188 -3.67102 0
M  V30 6591 C 647.561 -5.55356 -3.70319 0
M  V30 6592 H 646.831 -0.313401 -0.671462 0
M  V30 6593 H 649.478 -1.38792 -1.31943 0
M  V30 6594 H 647.783 -0.746455 -3.84624 0
M  V30 6595 H 649.48 -1.13779 -3.8452 0
M  V30 6596 H 646.07 -2.52054 -3.46651 0
M  V30 6597 H 650.254 -3.49986 -3.51886 0
M  V30 6598 H 645.51 -4.90728 -3.64686 0
M  V30 6599 H 649.684 -5.89248 -3.71159 0
M  V30 6600 H 647.311 -6.60054 -3.77138 0
M  V30 6601 N 648.886 1.2938 -0.899927 0
M  V30 6602 C 650.116 1.99402 -0.540601 0
M  V30 6603 C 650.524 1.67534 0.87914 0
M  V30 6604 O 649.867 0.916821 1.59186 0
M  V30 6605 C 649.929 3.53514 -0.653326 0
M  V30 6606 C 649.593 4.08937 -2.04009 0
M  V30 6607 C 650.59 4.23815 -3.01126 0
M  V30 6608 C 648.275 4.43962 -2.34953 0
M  V30 6609 C 650.269 4.72951 -4.27313 0
M  V30 6610 C 647.956 4.92795 -3.61382 0
M  V30 6611 C 648.954 5.07244 -4.57376 0
M  V30 6612 O 648.642 5.55017 -5.8156 0
M  V30 6613 H 648.374 0.64383 -0.206057 0
M  V30 6614 H 650.928 1.65878 -1.21134 0
M  V30 6615 H 649.158 3.86628 0.0744449 0
M  V30 6616 H 650.847 4.04767 -0.303118 0
M  V30 6617 H 651.613 3.97043 -2.78535 0
M  V30 6618 H 647.492 4.31974 -1.60994 0
M  V30 6619 H 651.036 4.84144 -5.02245 0
M  V30 6620 H 646.933 5.19004 -3.83804 0
M  V30 6621 H 647.701 5.73331 -5.84153 0
M  V30 6622 N 650.364 0.662433 1.43002 0
M  V30 6623 C 651.311 -0.0235324 2.30788 0
M  V30 6624 C 652.281 -0.805342 1.4527 0
M  V30 6625 O 653.466 -0.78009 1.74124 0
M  V30 6626 C 650.606 -0.977545 3.30965 0
M  V30 6627 C 649.719 -0.190865 4.31578 0
M  V30 6628 C 648.854 -1.13951 5.18834 0
M  V30 6629 C 647.893 -0.343796 6.11134 0
M  V30 6630 N 647.03 -1.2445 6.90982 0
M  V30 6631 H 651.87 0.730921 2.88897 0
M  V30 6632 H 649.407 0.372197 1.42313 0
M  V30 6633 H 651.365 -1.54437 3.87563 0
M  V30 6634 H 649.995 -1.69877 2.74484 0
M  V30 6635 H 649.047 0.492388 3.772 0
M  V30 6636 H 650.359 0.427464 4.96965 0
M  V30 6637 H 649.513 -1.77666 5.80103 0
M  V30 6638 H 648.252 -1.79174 4.53595 0
M  V30 6639 H 647.257 0.30665 5.48944 0
M  V30 6640 H 648.482 0.304161 6.78419 0
M  V30 6641 H 646.428 -1.88336 6.28383 0
M  V30 6642 H 646.345 -0.680959 7.52927 0
M  V30 6643 H 647.613 -1.86952 7.56749 0
M  V30 6644 N 651.842 -1.52309 0.404946 0
M  V30 6645 C 652.772 -2.29805 -0.41376 0
M  V30 6646 C 653.753 -1.3384 -1.0498 0
M  V30 6647 O 654.938 -1.62745 -1.05961 0
M  V30 6648 C 652.068 -3.11639 -1.53292 0
M  V30 6649 C 651.022 -4.15616 -1.02211 0
M  V30 6650 C 650.348 -4.8577 -2.23455 0
M  V30 6651 C 651.648 -5.2224 -0.0790725 0
M  V30 6652 H 653.342 -2.98493 0.232878 0
M  V30 6653 H 650.888 -1.43552 0.113441 0
M  V30 6654 H 652.841 -3.64618 -2.11262 0
M  V30 6655 H 651.565 -2.40712 -2.20738 0
M  V30 6656 H 650.224 -3.63641 -0.46484 0
M  V30 6657 H 649.872 -4.11376 -2.89445 0
M  V30 6658 H 649.572 -5.56058 -1.89929 0
M  V30 6659 H 651.096 -5.4156 -2.82038 0
M  V30 6660 H 652.51 -5.70485 -0.567438 0
M  V30 6661 H 650.907 -5.99867 0.167167 0
M  V30 6662 H 651.977 -4.77078 0.867447 0
M  V30 6663 N 653.32 -0.135238 -1.57019 0
M  V30 6664 C 654.548 0.526066 -2.001 0
M  V30 6665 C 654.963 1.59184 -1.01519 0
M  V30 6666 O 654.32 1.82497 -0.0104258 0
M  V30 6667 C 654.371 1.13744 -3.43139 0
M  V30 6668 O 654.092 0.114259 -4.37951 0
M  V30 6669 C 655.593 1.8805 -4.01438 0
M  V30 6670 H 652.813 0.137962 -0.656664 0
M  V30 6671 H 655.357 -0.226359 -2.03243 0
M  V30 6672 H 653.512 1.84056 -3.40885 0
M  V30 6673 H 653.926 0.56058 -5.21496 0
M  V30 6674 H 655.4 2.26133 -5.03555 0
M  V30 6675 H 655.877 2.76194 -3.41487 0
M  V30 6676 H 656.483 1.22464 -4.07287 0
M  V30 6677 N 654.798 1.5699 0.138552 0
M  V30 6678 C 656.045 1.83809 0.849732 0
M  V30 6679 C 656.373 0.717409 1.80786 0
M  V30 6680 O 655.628 -0.292897 1.93496 0
M  V30 6681 C 655.927 3.17007 1.65049 0
M  V30 6682 C 655.593 4.43037 0.838398 0
M  V30 6683 C 654.255 4.77262 0.614385 0
M  V30 6684 C 656.607 5.20495 0.271044 0
M  V30 6685 C 653.935 5.864 -0.187552 0
M  V30 6686 C 656.287 6.30476 -0.517979 0
M  V30 6687 C 654.951 6.63245 -0.75249 0
M  V30 6688 H 654.221 0.672605 0.310939 0
M  V30 6689 H 656.868 1.91166 0.112971 0
M  V30 6690 H 655.173 3.05138 2.4576 0
M  V30 6691 H 656.87 3.34975 2.20437 0
M  V30 6692 H 653.46 4.16211 1.02307 0
M  V30 6693 H 657.644 4.94422 0.431371 0
M  V30 6694 H 652.9 6.10226 -0.378659 0
M  V30 6695 H 657.074 6.89686 -0.964694 0
M  V30 6696 H 654.701 7.47648 -1.37573 0
M  V30 6697 N 656.276 -0.40816 1.52223 0
M  V30 6698 C 657.239 -1.48 1.7501 0
M  V30 6699 C 658.239 -1.48367 0.619996 0
M  V30 6700 O 659.429 -1.49874 0.887881 0
M  V30 6701 C 656.561 -2.87403 1.83336 0
M  V30 6702 H 657.754 -1.29086 2.70697 0
M  V30 6703 H 655.307 -0.638715 1.42654 0
M  V30 6704 H 656.042 -3.11686 0.895677 0
M  V30 6705 H 655.827 -2.8854 2.65494 0
M  V30 6706 H 657.317 -3.65103 2.02705 0
M  V30 6707 N 657.755 -1.42862 -0.66545 0
M  V30 6708 C 659.166 -1.3901 -1.24632 0
M  V30 6709 C 659.517 -0.0880285 -1.96002 0
M  V30 6710 O 658.642 0.812947 -2.0055 0
M  V30 6711 C 659.237 -2.51806 -2.2667 0
M  V30 6712 C 657.796 -2.51257 -2.80262 0
M  V30 6713 C 656.943 -2.30124 -1.5472 0
M  V30 6714 H 659.894 -1.5194 -0.458237 0
M  V30 6715 H 659.915 -2.22593 -3.08598 0
M  V30 6716 H 659.427 -3.46558 -1.74697 0
M  V30 6717 H 657.528 -1.60349 -3.36332 0
M  V30 6718 H 657.641 -3.48614 -3.28641 0
M  V30 6719 H 656.005 -1.7856 -1.81627 0
M  V30 6720 H 656.788 -3.26945 -1.04699 0
M  V30 6721 N 659.233 0.902656 -1.29189 0
M  V30 6722 C 660.461 1.68639 -1.19869 0
M  V30 6723 C 660.876 1.87254 0.241121 0
M  V30 6724 O 660.233 1.40745 1.16177 0
M  V30 6725 C 660.284 3.07251 -1.90471 0
M  V30 6726 O 660.005 2.89488 -3.28829 0
M  V30 6727 C 661.506 4.01653 -1.8759 0
M  V30 6728 H 658.726 0.526802 -0.415596 0
M  V30 6729 H 661.27 1.12901 -1.7051 0
M  V30 6730 H 659.425 3.59774 -1.43672 0
M  V30 6731 H 659.839 3.77296 -3.64346 0
M  V30 6732 H 661.313 4.96339 -2.4156 0
M  V30 6733 H 661.79 4.30881 -0.850756 0
M  V30 6734 H 662.396 3.55061 -2.34119 0
M  V30 6735 N 660.711 1.11618 1.11262 0
M  V30 6736 C 661.958 0.86618 1.8304 0
M  V30 6737 C 662.286 -0.608149 1.84748 0
M  V30 6738 O 661.541 -1.46508 1.29745 0
M  V30 6739 C 661.84 1.37529 3.2988 0
M  V30 6740 C 661.506 2.86317 3.4833 0
M  V30 6741 C 660.168 3.26945 3.53073 0
M  V30 6742 C 662.52 3.82136 3.54431 0
M  V30 6743 C 659.848 4.62117 3.61475 0
M  V30 6744 C 662.2 5.17128 3.64365 0
M  V30 6745 C 660.864 5.57312 3.67369 0
M  V30 6746 H 660.134 0.316958 0.66979 0
M  V30 6747 H 662.781 1.3949 1.31205 0
M  V30 6748 H 661.086 0.766842 3.84222 0
M  V30 6749 H 662.783 1.15817 3.83911 0
M  V30 6750 H 659.373 2.53889 3.45309 0
M  V30 6751 H 663.557 3.51847 3.50025 0
M  V30 6752 H 658.813 4.92655 3.62079 0
M  V30 6753 H 662.987 5.91208 3.68029 0
M  V30 6754 H 660.614 6.62045 3.73632 0
M  V30 6755 N 662.189 -1.289 0.906776 0
M  V30 6756 C 663.136 -2.2751 0.388313 0
M  V30 6757 C 664.106 -1.57301 -0.533439 0
M  V30 6758 O 665.291 -1.85243 -0.457148 0
M  V30 6759 C 662.431 -3.43091 -0.37181 0
M  V30 6760 C 661.544 -4.28066 0.581647 0
M  V30 6761 C 660.679 -5.30837 -0.19623 0
M  V30 6762 C 659.718 -6.07472 0.751294 0
M  V30 6763 N 658.855 -7.021 0.00737727 0
M  V30 6764 H 663.695 -2.71237 1.23428 0
M  V30 6765 H 661.232 -1.33397 0.619962 0
M  V30 6766 H 663.19 -4.08888 -0.828641 0
M  V30 6767 H 661.82 -3.00374 -1.18218 0
M  V30 6768 H 660.872 -3.62378 1.157 0
M  V30 6769 H 662.184 -4.81382 1.30665 0
M  V30 6770 H 661.338 -6.02485 -0.71394 0
M  V30 6771 H 660.077 -4.78272 -0.954324 0
M  V30 6772 H 659.082 -5.34682 1.28044 0
M  V30 6773 H 660.307 -6.62126 1.50883 0
M  V30 6774 H 658.253 -6.51894 -0.732854 0
M  V30 6775 H 658.17 -7.53004 0.672334 0
M  V30 6776 H 659.438 -7.77956 -0.490365 0
M  V30 6777 N 663.667 -0.670007 -1.42649 0
M  V30 6778 C 664.913 -0.190568 -2.01903 0
M  V30 6779 C 665.246 1.19817 -1.52832 0
M  V30 6780 O 664.521 1.80342 -0.728485 0
M  V30 6781 C 664.804 -0.21991 -3.59428 0
M  V30 6782 C 664.657 -1.64376 -4.18689 0
M  V30 6783 C 665.976 0.434519 -4.3795 0
M  V30 6784 H 663.095 -0.0707219 -0.733599 0
M  V30 6785 H 665.737 -0.853883 -1.69732 0
M  V30 6786 H 663.887 0.344894 -3.86966 0
M  V30 6787 H 665.559 -2.26044 -4.02122 0
M  V30 6788 H 663.802 -2.18591 -3.747 0
M  V30 6789 H 664.473 -1.61601 -5.27815 0
M  V30 6790 H 666.949 -0.0462156 -4.16074 0
M  V30 6791 H 665.825 0.38333 -5.4756 0
M  V30 6792 H 666.086 1.51135 -4.15464 0
M  V30 6793 N 665.145 1.52092 -0.413018 0
M  V30 6794 C 666.393 2.01456 0.161178 0
M  V30 6795 C 666.714 1.30034 1.45314 0
M  V30 6796 O 665.984 0.427435 1.9118 0
M  V30 6797 H 664.564 0.744376 0.0625526 0
M  V30 6798 H 667.226 1.86974 -0.550151 0
M  V30 6799 H 666.322 3.1008 0.354517 0
M  V30 6800 N 666.623 0.143563 1.56945 0
M  V30 6801 C 667.848 -0.518701 2.00809 0
M  V30 6802 C 668.273 -1.5785 1.02298 0
M  V30 6803 O 667.631 -1.813 -0.0017839 0
M  V30 6804 C 667.679 -1.09929 3.43436 0
M  V30 6805 O 666.783 -2.21425 3.47915 0
M  V30 6806 H 666.124 -0.127215 0.6517 0
M  V30 6807 H 668.654 0.239283 2.03196 0
M  V30 6808 H 668.664 -1.4288 3.82164 0
M  V30 6809 H 667.339 -0.323162 4.14643 0
M  V30 6810 H 665.916 -1.89728 3.21026 0
M  V30 6811 N 668.101 -1.57061 -0.130224 0
M  V30 6812 C 669.35 -1.83446 -0.838488 0
M  V30 6813 C 669.663 -0.727468 -1.81569 0
M  V30 6814 O 670.869 -0.877394 -2.56932 0
M  V30 6815 C 669.325 -3.25201 -1.54182 0
M  V30 6816 C 668.933 -4.4388 -0.606178 0
M  V30 6817 C 670.677 -3.60844 -2.23588 0
M  V30 6818 C 668.584 -5.76661 -1.31209 0
M  V30 6819 H 667.514 -0.684185 -0.316871 0
M  V30 6820 H 670.165 -1.83273 -0.0912059 0
M  V30 6821 H 668.547 -3.1981 -2.33533 0
M  V30 6822 H 669.721 -4.60545 0.153308 0
M  V30 6823 H 668.036 -4.16395 -0.0196705 0
M  V30 6824 H 670.633 -4.57313 -2.77072 0
M  V30 6825 H 670.976 -2.87724 -3.00867 0
M  V30 6826 H 671.509 -3.67971 -1.51137 0
M  V30 6827 H 668.248 -6.52922 -0.580823 0
M  V30 6828 H 667.768 -5.63902 -2.04387 0
M  V30 6829 H 669.447 -6.20035 -1.8484 0
M  V30 6830 N 669.579 0.400081 -1.52437 0
M  V30 6831 C 670.827 1.14392 -1.6661 0
M  V30 6832 C 671.148 1.90792 -0.402927 0
M  V30 6833 O 670.418 1.87042 0.582425 0
M  V30 6834 H 668.998 0.425275 -0.614125 0
M  V30 6835 H 671.66 0.455076 -1.89513 0
M  V30 6836 H 670.756 1.85298 -2.51139 0
M  V30 6837 N 671.057 1.43213 0.657864 0
M  V30 6838 C 672.334 1.35063 1.41483 0
M  V30 6839 C 672.714 -0.0038314 2.111 0
M  V30 6840 O 672.062 -1.02018 2.04462 0
M  V30 6841 C 672.272 2.53061 2.40335 0
M  V30 6842 C 673.62 2.9594 3.04474 0
M  V30 6843 O 674.644 2.53074 2.50663 0
M  V30 6844 O 673.503 3.70184 4.02027 0
M  V30 6845 H 670.597 0.533517 0.631893 0
M  V30 6846 H 673.143 1.55253 0.685162 0
M  V30 6847 H 671.915 3.43283 1.87809 0
M  V30 6848 H 671.538 2.34945 3.20759 0
M  V30 6849 N 672.536 -0.895792 1.29666 0
M  V30 6850 C 673.783 -1.64664 1.17864 0
M  V30 6851 C 674.111 -1.92631 -0.26902 0
M  V30 6852 O 673.366 -1.53787 -1.21029 0
M  V30 6853 C 673.665 -3.00075 1.94139 0
M  V30 6854 C 673.331 -2.91702 3.43833 0
M  V30 6855 C 671.993 -2.89126 3.84656 0
M  V30 6856 C 674.345 -2.80622 4.39205 0
M  V30 6857 C 671.673 -2.73293 5.1916 0
M  V30 6858 C 674.025 -2.66329 5.73805 0
M  V30 6859 C 672.689 -2.62121 6.1388 0
M  V30 6860 H 671.959 -0.602549 0.431295 0
M  V30 6861 H 674.606 -1.04234 1.60648 0
M  V30 6862 H 672.911 -3.64394 1.43958 0
M  V30 6863 H 674.608 -3.57111 1.82408 0
M  V30 6864 H 671.198 -2.94511 3.11386 0
M  V30 6865 H 675.382 -2.81686 4.08615 0
M  V30 6866 H 670.638 -2.68443 5.49316 0
M  V30 6867 H 674.812 -2.56727 6.47352 0
M  V30 6868 H 672.439 -2.49611 7.18052 0
M  V30 6869 N 674.014 -1.12206 -1.10668 0
M  V30 6870 C 675.261 -0.875875 -1.82578 0
M  V30 6871 C 675.589 0.598342 -1.85068 0
M  V30 6872 O 674.844 1.45818 -1.3052 0
M  V30 6873 C 675.143 -1.39276 -3.29146 0
M  V30 6874 C 674.809 -2.8816 -3.46806 0
M  V30 6875 C 673.471 -3.28813 -3.51334 0
M  V30 6876 C 675.823 -3.8401 -3.52399 0
M  V30 6877 C 673.151 -4.64028 -3.59019 0
M  V30 6878 C 675.503 -5.19053 -3.61617 0
M  V30 6879 C 674.167 -5.59252 -3.64408 0
M  V30 6880 H 673.437 -0.320505 -0.6681 0
M  V30 6881 H 676.084 -1.40184 -1.30464 0
M  V30 6882 H 674.389 -0.787207 -3.8381 0
M  V30 6883 H 676.086 -1.17851 -3.83291 0
M  V30 6884 H 672.676 -2.55716 -3.43958 0
M  V30 6885 H 676.86 -3.53698 -3.48154 0
M  V30 6886 H 672.116 -4.94568 -3.59461 0
M  V30 6887 H 676.29 -5.93152 -3.64889 0
M  V30 6888 H 673.917 -6.64017 -3.70116 0
M  V30 6889 N 675.492 1.28418 -0.913599 0
M  V30 6890 C 676.717 1.99643 -0.561899 0
M  V30 6891 C 677.142 1.67819 0.849608 0
M  V30 6892 O 676.5 0.910503 1.56779 0
M  V30 6893 C 676.548 3.52116 -0.777622 0
M  V30 6894 O 675.652 4.12076 0.163457 0
M  V30 6895 H 674.993 0.627229 -0.217898 0
M  V30 6896 H 677.523 1.63575 -1.229 0
M  V30 6897 H 677.533 4.02163 -0.687666 0
M  V30 6898 H 676.208 3.74613 -1.8066 0
M  V30 6899 H 674.785 3.72892 0.0247827 0
M  V30 6900 N 676.97 0.677563 1.42291 0
M  V30 6901 C 678.386 0.347376 1.55774 0
M  V30 6902 C 678.586 -1.14703 1.65667 0
M  V30 6903 O 677.642 -1.93252 1.62512 0
M  V30 6904 C 678.955 1.08011 2.80631 0
M  V30 6905 C 680.503 1.06271 2.94407 0
M  V30 6906 C 680.978 1.77683 4.22129 0
M  V30 6907 N 682.469 1.74564 4.29047 0
M  V30 6908 C 683.204 2.26673 5.26694 0
M  V30 6909 N 682.7 2.87176 6.30477 0
M  V30 6910 N 684.493 2.17032 5.18511 0
M  V30 6911 H 676.644 1.64703 1.34114 0
M  V30 6912 H 678.907 0.694038 0.645768 0
M  V30 6913 H 678.613 2.13518 2.79469 0
M  V30 6914 H 678.487 0.647115 3.71608 0
M  V30 6915 H 680.874 0.0159658 2.95096 0
M  V30 6916 H 680.955 1.53461 2.04654 0
M  V30 6917 H 680.599 2.82327 4.22201 0
M  V30 6918 H 680.529 1.2794 5.10822 0
M  V30 6919 H 683.02 1.30436 3.54676 0
M  V30 6920 H 683.333 3.24551 7.01346 0
M  V30 6921 H 681.678 2.91247 6.31031 0
M  V30 6922 H 684.869 1.69451 4.36353 0
M  V30 6923 H 685.042 2.57948 5.94446 0
M  V30 6924 N 678.448 -1.51871 0.421078 0
M  V30 6925 C 679.859 -1.86644 -0.0457991 0
M  V30 6926 C 680.21 -1.33919 -1.43388 0
M  V30 6927 O 679.335 -0.683316 -2.05328 0
M  V30 6928 C 679.93 -3.38681 -0.0898844 0
M  V30 6929 C 678.489 -3.73049 -0.501127 0
M  V30 6930 C 677.636 -2.75485 0.316723 0
M  V30 6931 H 680.587 -1.45327 0.637635 0
M  V30 6932 H 680.608 -3.69636 -0.902734 0
M  V30 6933 H 680.12 -3.77025 0.920513 0
M  V30 6934 H 678.221 -3.40288 -1.51773 0
M  V30 6935 H 678.334 -4.78512 -0.237217 0
M  V30 6936 H 676.698 -2.53725 -0.222663 0
M  V30 6937 H 677.481 -3.16671 1.32569 0
M  V30 6938 N 679.926 -0.151884 -1.56866 0
M  V30 6939 C 680.836 0.798876 -2.20579 0
M  V30 6940 C 681.852 1.268 -1.19154 0
M  V30 6941 O 683.028 1.32418 -1.51748 0
M  V30 6942 C 680.093 2.01861 -2.81874 0
M  V30 6943 C 679.154 1.59825 -3.9844 0
M  V30 6944 C 678.387 2.75984 -4.56802 0
M  V30 6945 O 678.61 3.92331 -4.14044 0
M  V30 6946 O 677.544 2.51175 -5.46987 0
M  V30 6947 H 681.37 0.2865 -3.02346 0
M  V30 6948 H 678.955 0.0753806 -1.4921 0
M  V30 6949 H 680.837 2.73235 -3.20813 0
M  V30 6950 H 679.512 2.52042 -2.03117 0
M  V30 6951 H 678.419 0.854601 -3.64208 0
M  V30 6952 H 679.752 1.14355 -4.78731 0
M  V30 6953 N 681.404 1.57128 0.121893 0
M  V30 6954 C 682.653 1.83888 0.828748 0
M  V30 6955 C 682.966 0.737087 1.81181 0
M  V30 6956 O 684.172 0.891007 2.56463 0
M  V30 6957 C 682.628 3.26014 1.52455 0
M  V30 6958 C 682.236 4.44195 0.58263 0
M  V30 6959 C 683.98 3.62025 2.21671 0
M  V30 6960 C 681.887 5.77349 1.28149 0
M  V30 6961 H 680.817 0.685856 0.313238 0
M  V30 6962 H 683.468 1.83319 0.0814851 0
M  V30 6963 H 681.85 3.21044 2.31834 0
M  V30 6964 H 683.024 4.60457 -0.177729 0
M  V30 6965 H 681.339 4.164 -0.00241228 0
M  V30 6966 H 683.936 4.58776 2.74643 0
M  V30 6967 H 684.279 2.89315 2.99337 0
M  V30 6968 H 684.812 3.68767 1.49184 0
M  V30 6969 H 681.551 6.53221 0.546189 0
M  V30 6970 H 681.071 5.64978 2.01394 0
M  V30 6971 H 682.75 6.21006 1.81549 0
M  V30 6972 N 682.882 -0.391992 1.52647 0
M  V30 6973 C 684.298 -0.731848 1.41831 0
M  V30 6974 C 684.498 -1.9423 0.536361 0
M  V30 6975 O 683.554 -2.52499 0.00866571 0
M  V30 6976 C 684.867 -0.969743 2.84634 0
M  V30 6977 C 686.415 -1.0714 2.94092 0
M  V30 6978 C 686.89 -1.34195 4.37899 0
M  V30 6979 N 688.381 -1.41023 4.41211 0
M  V30 6980 C 689.116 -1.63616 5.49561 0
M  V30 6981 N 688.612 -1.83699 6.68002 0
M  V30 6982 N 690.405 -1.65771 5.371 0
M  V30 6983 H 682.556 0.404547 2.08512 0
M  V30 6984 H 684.819 0.11879 0.940528 0
M  V30 6985 H 684.525 -0.152465 3.51369 0
M  V30 6986 H 684.399 -1.88523 3.26709 0
M  V30 6987 H 686.786 -1.87925 2.27526 0
M  V30 6988 H 686.867 -0.133887 2.55449 0
M  V30 6989 H 686.511 -0.539207 5.0503 0
M  V30 6990 H 686.441 -2.29226 4.74092 0
M  V30 6991 H 688.932 -1.27223 3.55841 0
M  V30 6992 H 689.245 -2.00437 7.46354 0
M  V30 6993 H 687.59 -1.8093 6.71036 0
M  V30 6994 H 690.781 -1.4963 4.43541 0
M  V30 6995 H 690.954 -1.83038 6.21612 0
M  V30 6996 N 684.36 -1.4356 -0.65026 0
M  V30 6997 C 685.607 -1.45333 -1.41012 0
M  V30 6998 C 685.935 -0.0787282 -1.94341 0
M  V30 6999 O 685.19 0.916715 -1.72901 0
M  V30 7000 C 685.489 -2.44528 -2.60654 0
M  V30 7001 C 685.155 -3.90331 -2.25727 0
M  V30 7002 C 683.817 -4.3004 -2.15914 0
M  V30 7003 C 686.169 -4.822 -1.97821 0
M  V30 7004 C 683.497 -5.59568 -1.76354 0
M  V30 7005 C 685.849 -6.12095 -1.59759 0
M  V30 7006 C 684.513 -6.50778 -1.48473 0
M  V30 7007 H 683.783 -0.531813 -0.516 0
M  V30 7008 H 686.43 -1.76657 -0.739219 0
M  V30 7009 H 684.735 -2.06619 -3.3289 0
M  V30 7010 H 686.432 -2.43155 -3.18868 0
M  V30 7011 H 683.022 -3.58905 -2.34276 0
M  V30 7012 H 687.206 -4.5229 -2.04322 0
M  V30 7013 H 682.462 -5.88376 -1.66205 0
M  V30 7014 H 686.636 -6.82751 -1.37198 0
M  V30 7015 H 684.263 -7.5105 -1.17591 0
M  V30 7016 N 685.838 0.888903 -1.30139 0
M  V30 7017 C 687.068 1.67115 -1.21474 0
M  V30 7018 C 687.476 1.87852 0.225472 0
M  V30 7019 O 686.819 1.42324 1.16145 0
M  V30 7020 C 686.881 3.0713 -1.86846 0
M  V30 7021 C 686.545 3.09582 -3.36167 0
M  V30 7022 C 687.542 2.88929 -4.32222 0
M  V30 7023 C 685.227 3.31304 -3.77549 0
M  V30 7024 C 687.221 2.89949 -5.67634 0
M  V30 7025 C 684.908 3.31954 -5.13079 0
M  V30 7026 C 685.906 3.113 -6.07932 0
M  V30 7027 O 685.594 3.11758 -7.40987 0
M  V30 7028 H 685.326 0.528372 -0.421662 0
M  V30 7029 H 687.88 1.11919 -1.7223 0
M  V30 7030 H 686.11 3.63973 -1.30615 0
M  V30 7031 H 687.799 3.6749 -1.72354 0
M  V30 7032 H 688.565 2.71948 -4.01584 0
M  V30 7033 H 684.444 3.46417 -3.04165 0
M  V30 7034 H 687.988 2.73746 -6.41645 0
M  V30 7035 H 683.885 3.48469 -5.43359 0
M  V30 7036 H 684.653 3.27951 -7.49927 0
M  V30 7037 N 687.317 1.12792 1.10072 0
M  V30 7038 C 688.545 0.908506 1.85886 0
M  V30 7039 C 688.96 -0.542408 1.80841 0
M  V30 7040 O 688.317 -1.37517 1.1998 0
M  V30 7041 C 688.368 1.37973 3.34134 0
M  V30 7042 O 688.089 2.77378 3.39106 0
M  V30 7043 C 689.59 1.1978 4.26811 0
M  V30 7044 H 686.81 0.3244 0.587372 0
M  V30 7045 H 689.354 1.49882 1.39125 0
M  V30 7046 H 687.509 0.832566 3.78348 0
M  V30 7047 H 687.923 2.98144 4.31521 0
M  V30 7048 H 689.397 1.57635 5.29014 0
M  V30 7049 H 689.874 0.138768 4.38981 0
M  V30 7050 H 690.48 1.73266 3.88406 0
M  V30 7051 N 688.795 -1.27931 0.920396 0
M  V30 7052 C 690.02 -1.99343 0.572478 0
M  V30 7053 C 690.445 -1.68267 -0.840696 0
M  V30 7054 O 689.803 -0.918805 -1.56294 0
M  V30 7055 C 689.851 -3.51698 0.796284 0
M  V30 7056 O 688.955 -4.12157 -0.141602 0
M  V30 7057 H 688.296 -0.626065 0.221221 0
M  V30 7058 H 690.826 -1.62921 1.23765 0
M  V30 7059 H 690.836 -4.01793 0.708984 0
M  V30 7060 H 689.511 -3.73649 1.82644 0
M  V30 7061 H 688.088 -3.729 -0.005007 0
M  V30 7062 N 690.273 -0.685099 -1.4193 0
M  V30 7063 C 691.519 -0.220688 -2.02199 0
M  V30 7064 C 691.874 1.16329 -1.5325 0
M  V30 7065 O 691.167 1.77175 -0.729345 0
M  V30 7066 C 691.361 -0.206154 -3.56805 0
M  V30 7067 C 691.19 -1.58718 -4.2076 0
M  V30 7068 C 689.96 -2.18747 -4.55497 0
M  V30 7069 C 692.158 -2.53182 -4.47664 0
M  V30 7070 N 690.14 -3.49523 -5.04685 0
M  V30 7071 C 691.511 -3.68625 -4.98514 0
M  V30 7072 C 693.566 -2.51582 -4.29664 0
M  V30 7073 C 692.269 -4.82734 -5.33255 0
M  V30 7074 C 694.295 -3.64795 -4.65487 0
M  V30 7075 C 693.657 -4.78967 -5.16498 0
M  V30 7076 H 689.756 -0.12591 -0.771797 0
M  V30 7077 H 692.34 -0.900316 -1.72634 0
M  V30 7078 H 690.511 0.442923 -3.85866 0
M  V30 7079 H 692.243 0.272103 -4.03784 0
M  V30 7080 H 688.998 -1.71135 -4.41599 0
M  V30 7081 H 689.422 -4.1653 -5.33696 0
M  V30 7082 H 694.064 -1.64535 -3.89472 0
M  V30 7083 H 691.782 -5.7045 -5.72375 0
M  V30 7084 H 695.368 -3.64796 -4.53227 0
M  V30 7085 H 694.248 -5.6512 -5.437 0
M  V30 7086 N 691.751 1.51645 -0.429126 0
M  V30 7087 C 692.684 2.24083 0.431492 0
M  V30 7088 C 693.662 1.25691 1.03153 0
M  V30 7089 O 694.846 1.54802 1.07557 0
M  V30 7090 C 691.973 2.9849 1.60067 0
M  V30 7091 C 691.019 4.11474 1.12211 0
M  V30 7092 S 691.852 5.35453 0.0708449 0
M  V30 7093 C 693.008 6.13395 1.24488 0
M  V30 7094 H 693.241 2.96733 -0.183525 0
M  V30 7095 H 690.774 1.52916 -0.213574 0
M  V30 7096 H 692.732 3.4196 2.27099 0
M  V30 7097 H 691.393 2.25445 2.18708 0
M  V30 7098 H 690.586 4.62784 1.99618 0
M  V30 7099 H 690.188 3.70223 0.530149 0
M  V30 7100 H 692.48 6.41984 2.16479 0
M  V30 7101 H 693.423 7.0388 0.771921 0
M  V30 7102 H 693.831 5.44761 1.47973 0
M  V30 7103 N 693.229 0.160201 1.56784 0
M  V30 7104 C 694.506 -0.533355 1.88188 0
M  V30 7105 C 694.886 -1.82072 1.06831 0
M  V30 7106 O 694.234 -2.27946 0.158959 0
M  V30 7107 C 694.444 -0.786034 3.40033 0
M  V30 7108 C 695.792 -1.12097 4.09536 0
M  V30 7109 O 696.816 -0.874949 3.45287 0
M  V30 7110 O 695.675 -1.58457 5.23023 0
M  V30 7111 H 692.769 -0.273589 0.780434 0
M  V30 7112 H 695.315 0.197803 1.68543 0
M  V30 7113 H 694.087 0.124515 3.91102 0
M  V30 7114 H 693.71 -1.57091 3.65251 0
M  V30 7115 N 694.707 -1.5719 -0.113559 0
M  V30 7116 C 695.953 -1.86289 -0.816583 0
M  V30 7117 C 696.308 -0.748672 -1.77236 0
M  V30 7118 O 695.601 0.250889 -1.8995 0
M  V30 7119 C 695.795 -3.19593 -1.59984 0
M  V30 7120 C 695.624 -4.43876 -0.721414 0
M  V30 7121 C 694.394 -5.03913 -0.374172 0
M  V30 7122 C 696.592 -5.14287 -0.0366045 0
M  V30 7123 N 694.574 -6.11741 0.514352 0
M  V30 7124 C 695.945 -6.15913 0.710706 0
M  V30 7125 C 698 -4.97885 0.039247 0
M  V30 7126 C 696.703 -7.0291 1.52675 0
M  V30 7127 C 698.729 -5.85373 0.842135 0
M  V30 7128 C 698.091 -6.86506 1.57762 0
M  V30 7129 H 694.19 -0.731839 -0.275564 0
M  V30 7130 H 696.774 -1.94535 -0.080033 0
M  V30 7131 H 694.945 -3.12432 -2.30739 0
M  V30 7132 H 696.677 -3.3648 -2.24862 0
M  V30 7133 H 693.432 -4.68131 -0.717653 0
M  V30 7134 H 693.856 -6.70293 0.950623 0
M  V30 7135 H 698.498 -4.19651 -0.51503 0
M  V30 7136 H 696.216 -7.80547 2.09217 0
M  V30 7137 H 699.802 -5.74746 0.903256 0
M  V30 7138 H 698.682 -7.53032 2.1889 0
M  V30 7139 N 696.185 0.383891 -1.52853 0
M  V30 7140 C 697.41 1.154 -1.7233 0
M  V30 7141 C 697.835 1.82809 -0.44298 0
M  V30 7142 O 697.193 1.71026 0.601645 0
M  V30 7143 C 697.241 2.17386 -2.87708 0
M  V30 7144 O 696.345 3.24082 -2.55038 0
M  V30 7145 H 695.686 0.335709 -0.572883 0
M  V30 7146 H 698.216 0.44662 -1.99666 0
M  V30 7147 H 698.226 2.61296 -3.1335 0
M  V30 7148 H 696.901 1.6771 -3.80587 0
M  V30 7149 H 695.478 2.85273 -2.40153 0
M  V30 7150 N 697.663 1.43903 0.642637 0
M  V30 7151 C 698.61 1.49881 1.75512 0
M  V30 7152 C 699.58 0.347538 1.62423 0
M  V30 7153 O 700.765 0.556177 1.82514 0
M  V30 7154 C 697.905 1.43797 3.13714 0
M  V30 7155 C 697.018 2.6921 3.37861 0
M  V30 7156 C 696.153 2.5504 4.6597 0
M  V30 7157 C 695.192 3.75671 4.83257 0
M  V30 7158 N 694.329 3.60247 6.02633 0
M  V30 7159 H 699.169 2.44935 1.69737 0
M  V30 7160 H 696.706 1.21572 0.828165 0
M  V30 7161 H 698.664 1.38262 3.93624 0
M  V30 7162 H 697.294 0.523173 3.18532 0
M  V30 7163 H 696.346 2.8498 2.51973 0
M  V30 7164 H 697.658 3.58786 3.46517 0
M  V30 7165 H 696.812 2.47273 5.54023 0
M  V30 7166 H 695.551 1.63006 4.59653 0
M  V30 7167 H 694.556 3.83836 3.93637 0
M  V30 7168 H 695.781 4.68728 4.91397 0
M  V30 7169 H 693.727 2.70955 5.97427 0
M  V30 7170 H 693.644 4.43431 6.12295 0
M  V30 7171 H 694.912 3.56351 6.93278 0
M  V30 7172 N 699.141 -0.881989 1.30609 0
M  V30 7173 C 700.088 -1.98803 1.17244 0
M  V30 7174 C 701.058 -1.65987 0.0611905 0
M  V30 7175 O 702.243 -1.89385 0.231911 0
M  V30 7176 C 699.383 -3.33867 0.87333 0
M  V30 7177 C 698.496 -3.79354 2.06675 0
M  V30 7178 C 697.631 -5.03078 1.70547 0
M  V30 7179 C 696.67 -5.40981 2.86366 0
M  V30 7180 N 695.807 -6.55886 2.50514 0
M  V30 7181 H 700.647 -2.09566 2.11863 0
M  V30 7182 H 698.184 -1.02607 1.05405 0
M  V30 7183 H 700.142 -4.11612 0.680519 0
M  V30 7184 H 698.772 -3.2278 -0.0359983 0
M  V30 7185 H 697.824 -2.97492 2.37071 0
M  V30 7186 H 699.136 -4.03382 2.93401 0
M  V30 7187 H 698.29 -5.88457 1.47658 0
M  V30 7188 H 697.029 -4.80927 0.809947 0
M  V30 7189 H 696.034 -4.54127 3.09917 0
M  V30 7190 H 697.259 -5.65104 3.76609 0
M  V30 7191 H 695.205 -6.35306 1.63471 0
M  V30 7192 H 695.122 -6.79799 3.30771 0
M  V30 7193 H 696.39 -7.44489 2.30989 0
M  V30 7194 N 700.619 -1.13374 -1.09472 0
M  V30 7195 C 701.549 -0.833268 -2.18126 0
M  V30 7196 C 702.53 0.207169 -1.68834 0
M  V30 7197 O 703.715 0.0662012 -1.94087 0
M  V30 7198 C 700.845 -0.297979 -3.46019 0
M  V30 7199 C 699.799 -1.27261 -4.08642 0
M  V30 7200 C 699.125 -0.597104 -5.31356 0
M  V30 7201 C 700.425 -2.63095 -4.51197 0
M  V30 7202 H 702.119 -1.74182 -2.43518 0
M  V30 7203 H 699.665 -0.838921 -1.17039 0
M  V30 7204 H 701.618 -0.0754444 -4.21332 0
M  V30 7205 H 700.342 0.645959 -3.20148 0
M  V30 7206 H 699.001 -1.48113 -3.35348 0
M  V30 7207 H 698.649 0.352293 -5.01765 0
M  V30 7208 H 698.349 -1.24734 -5.74208 0
M  V30 7209 H 699.873 -0.38384 -6.09392 0
M  V30 7210 H 701.287 -2.46214 -5.17737 0
M  V30 7211 H 699.684 -3.2429 -5.04932 0
M  V30 7212 H 700.754 -3.20793 -3.6362 0
M  V30 7213 N 702.098 1.27442 -0.927168 0
M  V30 7214 C 703.046 2.28844 -0.416333 0
M  V30 7215 C 704.04 1.61882 0.499057 0
M  V30 7216 O 705.246 1.75969 0.378817 0
M  V30 7217 H 701.621 0.742989 -0.116065 0
M  V30 7218 H 703.592 2.69344 -1.28438 0
M  V30 7219 C 702.341 3.4626 0.316107 0
M  V30 7220 H 701.664 3.97999 -0.379082 0
M  V30 7221 H 703.104 4.19173 0.637975 0
M  V30 7222 C 701.563 3.00211 1.5289 0
M  V30 7223 O 702.093 3.03837 2.62766 0
M  V30 7224 N 700.299 2.55713 1.38054 0
M  V30 7225 H 699.846 2.52962 0.4866 0
M  V30 7226 H 699.804 2.25264 2.19325 0
M  V30 7227 N 703.576 0.692616 1.41565 0
M  V30 7228 C 704.524 0.0139952 2.32596 0
M  V30 7229 C 705.518 -0.771691 1.50802 0
M  V30 7230 O 706.724 -0.677646 1.66757 0
M  V30 7231 H 703.099 -0.0142745 0.751865 0
M  V30 7232 H 705.07 0.798851 2.87508 0
M  V30 7233 C 703.819 -0.910602 3.35564 0
M  V30 7234 H 703.142 -0.315446 3.98554 0
M  V30 7235 H 704.582 -1.3538 4.01806 0
M  V30 7236 C 703.041 -2.02539 2.6922 0
M  V30 7237 O 703.571 -3.11386 2.53775 0
M  V30 7238 N 701.777 -1.80227 2.27962 0
M  V30 7239 H 701.324 -0.917054 2.40724 0
M  V30 7240 H 701.282 -2.55001 1.83907 0
M  V30 7241 N 705.054 -1.51416 0.437162 0
M  V30 7242 C 706.284 -2.06204 -0.127859 0
M  V30 7243 C 706.692 -1.30463 -1.37026 0
M  V30 7244 O 706.035 -0.357516 -1.80187 0
M  V30 7245 C 706.097 -3.55783 -0.515632 0
M  V30 7246 C 705.761 -4.52776 0.619937 0
M  V30 7247 C 706.758 -4.98031 1.49201 0
M  V30 7248 C 704.443 -4.95878 0.800618 0
M  V30 7249 C 706.437 -5.85061 2.52947 0
M  V30 7250 C 704.124 -5.82699 1.84135 0
M  V30 7251 C 705.122 -6.27188 2.70416 0
M  V30 7252 O 704.81 -7.12284 3.72702 0
M  V30 7253 H 704.542 -0.675903 -0.011442 0
M  V30 7254 H 707.096 -1.95977 0.614986 0
M  V30 7255 H 705.326 -3.63793 -1.31118 0
M  V30 7256 H 707.015 -3.93087 -1.01179 0
M  V30 7257 H 707.781 -4.65426 1.36395 0
M  V30 7258 H 703.66 -4.60792 0.138617 0
M  V30 7259 H 707.204 -6.19708 3.20325 0
M  V30 7260 H 703.101 -6.14717 1.9696 0
M  V30 7261 H 703.869 -7.30462 3.69281 0
M  V30 7262 N 706.532 -0.168513 -1.56696 0
M  V30 7263 C 707.495 0.748928 -2.16619 0
M  V30 7264 C 708.495 1.16007 -1.11351 0
M  V30 7265 O 709.685 1.07748 -1.3688 0
M  V30 7266 C 706.817 2.01904 -2.74677 0
M  V30 7267 H 708.01 0.227317 -2.99037 0
M  V30 7268 H 705.563 0.0810372 -1.5609 0
M  V30 7269 H 706.298 2.58381 -1.95985 0
M  V30 7270 H 706.083 1.73323 -3.51712 0
M  V30 7271 H 707.573 2.67383 -3.20774 0
M  V30 7272 N 708.01 1.57248 0.105221 0
M  V30 7273 C 709.235 1.90143 0.828264 0
M  V30 7274 C 709.66 0.761811 1.71983 0
M  V30 7275 O 709.018 -0.287086 1.79013 0
M  V30 7276 C 709.066 3.21856 1.62608 0
M  V30 7277 O 708.17 3.08732 2.7342 0
M  V30 7278 H 707.511 0.623558 0.228192 0
M  V30 7279 H 710.041 2.0443 0.0834826 0
M  V30 7280 H 710.051 3.54916 2.01243 0
M  V30 7281 H 708.726 4.0439 0.971687 0
M  V30 7282 H 707.303 2.87167 2.37886 0
M  V30 7283 N 709.488 -0.375779 1.53054 0
M  V30 7284 C 710.765 -1.13453 1.59336 0
M  V30 7285 C 711.145 -2.07379 0.394614 0
M  V30 7286 O 710.493 -2.2004 -0.616 0
M  V30 7287 C 710.703 -1.8826 2.93869 0
M  V30 7288 C 712.051 -2.43155 3.48081 0
M  V30 7289 O 713.075 -1.984 2.95831 0
M  V30 7290 O 711.934 -3.24944 4.39401 0
M  V30 7291 H 709.028 -0.519856 0.643179 0
M  V30 7292 H 711.574 -0.379865 1.65394 0
M  V30 7293 H 710.346 -1.19652 3.72558 0
M  V30 7294 H 709.969 -2.70658 2.91256 0
M  V30 7295 N 710.966 -1.44241 -0.634997 0
M  V30 7296 C 712.243 -1.37296 -1.39317 0
M  V30 7297 C 712.623 -0.0297532 -2.11079 0
M  V30 7298 O 711.971 0.987524 -2.06059 0
M  V30 7299 C 712.181 -2.56853 -2.36279 0
M  V30 7300 C 713.529 -3.00747 -2.99728 0
M  V30 7301 O 714.553 -2.5703 -2.46605 0
M  V30 7302 O 713.412 -3.76533 -3.96087 0
M  V30 7303 H 710.506 -0.543503 -0.623325 0
M  V30 7304 H 713.052 -1.56324 -0.660376 0
M  V30 7305 H 711.824 -3.46228 -1.82324 0
M  V30 7306 H 711.447 -2.40019 -3.16981 0
M  V30 7307 N 712.444 0.87505 -1.31075 0
M  V30 7308 C 713.407 1.96333 -1.18263 0
M  V30 7309 C 714.407 1.60416 -0.111106 0
M  V30 7310 O 715.597 1.7044 -0.359987 0
M  V30 7311 C 712.729 3.31036 -0.81414 0
M  V30 7312 H 713.922 2.09125 -2.14958 0
M  V30 7313 H 711.475 1.06271 -1.14614 0
M  V30 7314 H 712.21 3.23944 0.151875 0
M  V30 7315 H 711.995 3.58476 -1.58862 0
M  V30 7316 H 713.485 4.10842 -0.748249 0
M  V30 7317 N 713.922 1.13953 1.08869 0
M  V30 7318 C 714.852 0.844824 2.17681 0
M  V30 7319 C 715.833 -0.198213 1.68941 0
M  V30 7320 O 717.018 -0.0559073 1.9412 0
M  V30 7321 C 714.148 0.316325 3.45856 0
M  V30 7322 C 713.102 1.29426 4.07962 0
M  V30 7323 C 712.428 0.625275 5.31031 0
M  V30 7324 C 713.728 2.65484 4.49795 0
M  V30 7325 H 715.422 1.75471 2.42591 0
M  V30 7326 H 712.968 0.845116 1.16592 0
M  V30 7327 H 714.921 0.0977876 4.21287 0
M  V30 7328 H 713.645 -0.628972 3.20486 0
M  V30 7329 H 712.304 1.49889 3.34558 0
M  V30 7330 H 711.952 -0.325678 5.01945 0
M  V30 7331 H 711.652 1.27777 5.73539 0
M  V30 7332 H 713.176 0.416152 6.0918 0
M  V30 7333 H 714.59 2.48957 5.16424 0
M  V30 7334 H 712.987 3.26963 5.03205 0
M  V30 7335 H 714.057 3.22717 3.61914 0
M  V30 7336 N 715.4 -1.26948 0.933913 0
M  V30 7337 C 716.648 -1.93704 0.576484 0
M  V30 7338 C 716.969 -1.73702 -0.886145 0
M  V30 7339 O 716.239 -1.08838 -1.62884 0
M  V30 7340 H 714.819 -0.716812 0.210214 0
M  V30 7341 H 717.481 -1.54534 1.18766 0
M  V30 7342 H 716.577 -3.01987 0.788055 0
M  V30 7343 N 716.879 -0.700114 -1.41195 0
M  V30 7344 C 718.104 -0.240704 -2.05998 0
M  V30 7345 C 718.529 1.10313 -1.52357 0
M  V30 7346 O 717.887 1.69154 -0.652424 0
M  V30 7347 C 717.935 -0.213783 -3.59966 0
M  V30 7348 O 717.039 0.809933 -4.04368 0
M  V30 7349 H 716.38 -0.116471 -0.653705 0
M  V30 7350 H 718.91 -0.956251 -1.80878 0
M  V30 7351 H 718.92 -0.0461852 -4.07974 0
M  V30 7352 H 717.595 -1.19454 -3.98376 0
M  V30 7353 H 716.172 0.611319 -3.67855 0
M  V30 7354 N 718.357 1.51182 -0.445186 0
M  V30 7355 C 719.634 1.9478 0.178965 0
M  V30 7356 C 720.014 1.38428 1.59376 0
M  V30 7357 O 719.362 0.574552 2.21159 0
M  V30 7358 C 719.572 3.48683 0.148711 0
M  V30 7359 C 720.92 4.23152 0.35042 0
M  V30 7360 O 721.944 3.55479 0.226474 0
M  V30 7361 O 720.803 5.4322 0.597893 0
M  V30 7362 H 717.897 0.817387 0.12573 0
M  V30 7363 H 720.443 1.62051 -0.503729 0
M  V30 7364 H 719.215 3.82176 -0.84009 0
M  V30 7365 H 718.838 3.87875 0.873979 0
M  V30 7366 N 719.835 0.176821 1.56605 0
M  V30 7367 C 721.083 -0.465793 1.96659 0
M  V30 7368 C 721.404 -1.63406 1.06412 0
M  V30 7369 O 720.674 -1.95457 0.131603 0
M  V30 7370 H 719.254 -0.175072 0.726195 0
M  V30 7371 H 721.916 0.25929 1.93168 0
M  V30 7372 H 721.012 -0.822138 3.01077 0
M  V30 7373 N 721.313 -1.57302 -0.09688 0
M  V30 7374 C 722.56 -1.85997 -0.800699 0
M  V30 7375 C 722.888 -0.765089 -1.7882 0
M  V30 7376 O 722.143 0.241492 -1.94204 0
M  V30 7377 C 722.442 -3.21272 -1.56586 0
M  V30 7378 C 722.108 -4.45104 -0.72064 0
M  V30 7379 C 720.77 -4.78723 -0.487632 0
M  V30 7380 C 723.122 -5.2103 -0.132948 0
M  V30 7381 C 720.45 -5.85697 0.34296 0
M  V30 7382 C 722.802 -6.28881 0.684957 0
M  V30 7383 C 721.466 -6.61017 0.928073 0
M  V30 7384 H 720.736 -0.680613 -0.292997 0
M  V30 7385 H 723.383 -1.91399 -0.0622474 0
M  V30 7386 H 721.688 -3.11547 -2.37583 0
M  V30 7387 H 723.385 -3.40702 -2.11478 0
M  V30 7388 H 719.975 -4.18777 -0.912359 0
M  V30 7389 H 724.159 -4.95392 -0.300132 0
M  V30 7390 H 719.415 -6.09008 0.540317 0
M  V30 7391 H 723.589 -6.86886 1.14721 0
M  V30 7392 H 721.216 -7.43738 1.57348 0
M  V30 7393 N 722.791 0.367657 -1.53252 0
M  V30 7394 C 723.739 1.47061 -1.8021 0
M  V30 7395 C 724.733 1.55539 -0.671112 0
M  V30 7396 O 725.939 1.58451 -0.854014 0
M  V30 7397 H 722.314 0.489868 -0.570555 0
M  V30 7398 H 724.285 1.21527 -2.72532 0
M  V30 7399 C 723.034 2.83924 -2.00706 0
M  V30 7400 H 722.357 2.78158 -2.87172 0
M  V30 7401 H 723.797 3.60281 -2.23547 0
M  V30 7402 C 722.256 3.27613 -0.785568 0
M  V30 7403 O 722.786 4.01691 0.0267459 0
M  V30 7404 N 720.992 2.84134 -0.609597 0
M  V30 7405 H 720.539 2.24017 -1.27178 0
M  V30 7406 H 720.497 3.13723 0.206281 0
M  V30 7407 N 724.269 1.44576 0.627338 0
M  V30 7408 C 725.494 1.51271 1.41887 0
M  V30 7409 C 725.919 0.139814 1.8758 0
M  V30 7410 O 725.277 -0.871746 1.58966 0
M  V30 7411 C 725.325 2.48529 2.61277 0
M  V30 7412 O 724.429 1.98944 3.61241 0
M  V30 7413 H 723.77 0.510668 0.424399 0
M  V30 7414 H 726.3 1.89746 0.765356 0
M  V30 7415 H 726.31 2.66689 3.08773 0
M  V30 7416 H 724.985 3.48249 2.27366 0
M  V30 7417 H 723.562 1.90568 3.20528 0
M  V30 7418 N 725.747 -0.868086 1.31537 0
M  V30 7419 C 726.995 -1.61807 1.21091 0
M  V30 7420 C 727.316 -1.93631 -0.230623 0
M  V30 7421 O 726.586 -1.5846 -1.15183 0
M  V30 7422 H 725.166 -0.599854 0.445178 0
M  V30 7423 H 727.828 -1.03915 1.64887 0
M  V30 7424 H 726.924 -2.56088 1.78396 0
M  V30 7425 N 727.225 -1.14528 -1.08264 0
M  V30 7426 C 728.473 -0.912599 -1.80322 0
M  V30 7427 C 728.794 0.562256 -1.86718 0
M  V30 7428 O 728.064 1.40869 -1.36135 0
M  V30 7429 H 726.644 -0.334645 -0.667849 0
M  V30 7430 H 729.306 -1.44415 -1.30883 0
M  V30 7431 H 728.402 -1.31384 -2.83098 0
M  V30 7432 N 728.703 1.26451 -0.940633 0
M  V30 7433 C 729.613 2.30128 -0.455881 0
M  V30 7434 C 730.629 1.67536 0.469867 0
M  V30 7435 O 731.805 1.98344 0.349529 0
M  V30 7436 C 728.87 3.45634 0.271648 0
M  V30 7437 C 727.931 4.23709 -0.690594 0
M  V30 7438 C 727.164 5.337 0.00231047 0
M  V30 7439 O 727.387 5.57215 1.21935 0
M  V30 7440 O 726.321 5.98091 -0.676111 0
M  V30 7441 H 730.147 2.73655 -1.31707 0
M  V30 7442 H 727.732 1.3164 -0.706497 0
M  V30 7443 H 729.614 4.15853 0.681486 0
M  V30 7444 H 728.289 3.04138 1.10824 0
M  V30 7445 H 727.196 3.55974 -1.15037 0
M  V30 7446 H 728.529 4.68953 -1.49478 0
M  V30 7447 N 730.181 0.707592 1.40822 0
M  V30 7448 C 731.427 0.252828 2.01823 0
M  V30 7449 C 731.782 -1.13876 1.55081 0
M  V30 7450 O 731.075 -1.75993 0.757439 0
M  V30 7451 C 731.269 0.262892 3.56432 0
M  V30 7452 C 731.098 1.65392 4.18181 0
M  V30 7453 C 729.868 2.25966 4.5196 0
M  V30 7454 C 732.066 2.60272 4.4358 0
M  V30 7455 N 730.048 3.57508 4.9906 0
M  V30 7456 C 731.419 3.76509 4.92586 0
M  V30 7457 C 733.474 2.58386 4.25607 0
M  V30 7458 C 732.177 4.91157 5.25507 0
M  V30 7459 C 734.203 3.72155 4.59625 0
M  V30 7460 C 733.565 4.87123 5.08813 0
M  V30 7461 H 729.664 0.138172 0.769696 0
M  V30 7462 H 732.248 0.927667 1.7118 0
M  V30 7463 H 730.419 -0.381479 3.86522 0
M  V30 7464 H 732.151 -0.20783 4.04166 0
M  V30 7465 H 728.906 1.78138 4.38821 0
M  V30 7466 H 729.33 4.24968 5.27002 0
M  V30 7467 H 733.972 1.7071 3.86805 0
M  V30 7468 H 731.69 5.79483 5.63227 0
M  V30 7469 H 735.276 3.71961 4.47366 0
M  V30 7470 H 734.156 5.73698 5.3464 0
M  V30 7471 N 731.66 -1.50943 0.453197 0
M  V30 7472 C 732.885 -2.07116 -0.108463 0
M  V30 7473 C 733.31 -1.31681 -1.3432 0
M  V30 7474 O 732.668 -0.359256 -1.77705 0
M  V30 7475 C 732.716 -3.58447 -0.393424 0
M  V30 7476 O 731.82 -3.85038 -1.47714 0
M  V30 7477 H 731.161 -0.66398 0.0050993 0
M  V30 7478 H 733.691 -1.94362 0.639095 0
M  V30 7479 H 733.701 -4.02961 -0.639222 0
M  V30 7480 H 732.376 -4.12774 0.508946 0
M  V30 7481 H 730.953 -3.52376 -1.22006 0
M  V30 7482 N 733.138 -0.185124 -1.56509 0
M  V30 7483 C 734.385 0.456258 -1.97293 0
M  V30 7484 C 734.713 1.62314 -1.07165 0
M  V30 7485 O 733.968 1.95398 -0.108621 0
M  V30 7486 C 734.267 0.967977 -3.44042 0
M  V30 7487 C 733.933 -0.084476 -4.50821 0
M  V30 7488 C 732.595 -0.373689 -4.79747 0
M  V30 7489 C 734.947 -0.79812 -5.15053 0
M  V30 7490 C 732.275 -1.3817 -5.70198 0
M  V30 7491 C 734.627 -1.79521 -6.06593 0
M  V30 7492 C 733.291 -2.09172 -6.3388 0
M  V30 7493 H 732.561 0.166957 -0.721946 0
M  V30 7494 H 735.208 -0.279992 -1.89442 0
M  V30 7495 H 733.513 1.78231 -3.48914 0
M  V30 7496 H 735.21 1.47347 -3.72948 0
M  V30 7497 H 731.8 0.15111 -4.28334 0
M  V30 7498 H 735.984 -0.587903 -4.92806 0
M  V30 7499 H 731.24 -1.61745 -5.89617 0
M  V30 7500 H 735.414 -2.35347 -6.55427 0
M  V30 7501 H 733.041 -2.87427 -7.03768 0
M  V30 7502 N 734.616 1.57351 0.0885366 0
M  V30 7503 C 735.864 1.86051 0.789262 0
M  V30 7504 C 736.185 0.774763 1.78948 0
M  V30 7505 O 735.455 -0.198324 1.94894 0
M  V30 7506 H 734.035 0.686508 0.294475 0
M  V30 7507 H 736.697 1.94779 0.0686055 0
M  V30 7508 H 735.793 2.83007 1.31581 0
M  V30 7509 N 736.094 -0.359525 1.53444 0
M  V30 7510 C 737.34 -1.10315 1.70172 0
M  V30 7511 C 737.673 -1.88788 0.455287 0
M  V30 7512 O 736.948 -1.86635 -0.547514 0
M  V30 7513 C 737.231 -2.05744 2.95536 0
M  V30 7514 C 737.084 -1.3084 4.3035 0
M  V30 7515 C 738.403 -3.05784 3.16518 0
M  V30 7516 H 735.522 -0.399662 0.619225 0
M  V30 7517 H 738.164 -0.383338 1.86093 0
M  V30 7518 H 736.314 -2.67125 2.82093 0
M  V30 7519 H 737.986 -0.721959 4.55615 0
M  V30 7520 H 736.229 -0.610283 4.29486 0
M  V30 7521 H 736.9 -2.00718 5.14214 0
M  V30 7522 H 739.376 -2.5451 3.29187 0
M  V30 7523 H 738.252 -3.69772 4.05659 0
M  V30 7524 H 738.513 -3.76289 2.32076 0
M  V30 7525 N 737.572 -1.44907 -0.619662 0
M  V30 7526 C 738.504 -1.48652 -1.74457 0
M  V30 7527 C 739.517 -0.378596 -1.58337 0
M  V30 7528 O 740.706 -0.644987 -1.6644 0
M  V30 7529 C 737.806 -1.31568 -3.12319 0
M  V30 7530 C 736.979 -2.55816 -3.54792 0
M  V30 7531 C 736.038 -2.33465 -4.71573 0
M  V30 7532 O 735.064 -3.07015 -4.79302 0
M  V30 7533 N 736.266 -1.37254 -5.6404 0
M  V30 7534 H 739.031 -2.45632 -1.71712 0
M  V30 7535 H 736.592 -1.40492 -0.804582 0
M  V30 7536 H 738.584 -1.14445 -3.88181 0
M  V30 7537 H 737.154 -0.429095 -3.09641 0
M  V30 7538 H 736.374 -2.88137 -2.69018 0
M  V30 7539 H 737.662 -3.38431 -3.79924 0
M  V30 7540 H 737.06 -0.765309 -5.60499 0
M  V30 7541 H 735.617 -1.26106 -6.39485 0
M  V30 7542 N 739.05 0.861098 -1.31996 0
M  V30 7543 C 739.983 1.97266 -1.14724 0
M  V30 7544 C 740.961 1.62528 -0.0483789 0
M  V30 7545 O 742.145 1.87366 -0.206478 0
M  V30 7546 C 739.272 3.30181 -0.754861 0
M  V30 7547 C 738.318 3.839 -1.85804 0
M  V30 7548 S 739.151 4.08274 -3.46515 0
M  V30 7549 C 740.307 5.44174 -3.09235 0
M  V30 7550 H 740.54 2.11614 -2.08822 0
M  V30 7551 H 738.073 1.01232 -1.16582 0
M  V30 7552 H 740.031 4.06996 -0.535232 0
M  V30 7553 H 738.692 3.13655 0.167155 0
M  V30 7554 H 737.885 4.80013 -1.53633 0
M  V30 7555 H 737.487 3.13907 -2.03318 0
M  V30 7556 H 739.779 6.26172 -2.58679 0
M  V30 7557 H 740.722 5.81301 -4.04345 0
M  V30 7558 H 741.13 5.0787 -2.46431 0
M  V30 7559 N 740.528 1.15101 1.07655 0
M  V30 7560 C 741.438 0.858869 2.18313 0
M  V30 7561 C 742.454 -0.163641 1.73229 0
M  V30 7562 O 743.63 0.00969541 2.01398 0
M  V30 7563 C 740.695 0.34893 3.4494 0
M  V30 7564 C 739.756 1.43495 4.04608 0
M  V30 7565 C 738.989 0.949253 5.2519 0
M  V30 7566 O 739.212 -0.20636 5.70027 0
M  V30 7567 O 738.146 1.73161 5.76454 0
M  V30 7568 H 741.972 1.78386 2.45788 0
M  V30 7569 H 739.557 0.929876 1.16934 0
M  V30 7570 H 741.439 0.070851 4.2134 0
M  V30 7571 H 740.114 -0.548237 3.19024 0
M  V30 7572 H 739.021 1.7666 3.29761 0
M  V30 7573 H 740.354 2.30692 4.3479 0
M  V30 7574 N 742.006 -1.2595 0.947325 0
M  V30 7575 C 743.234 -1.97544 0.615127 0
M  V30 7576 C 743.649 -1.70484 -0.811221 0
M  V30 7577 O 743.006 -0.97662 -1.5417 0
M  V30 7578 C 743.057 -3.51236 0.855328 0
M  V30 7579 O 742.778 -3.77359 2.22558 0
M  V30 7580 C 744.279 -4.40066 0.534515 0
M  V30 7581 H 741.499 -0.629888 0.231263 0
M  V30 7582 H 744.043 -1.60308 1.26971 0
M  V30 7583 H 742.198 -3.8661 0.247266 0
M  V30 7584 H 742.612 -4.71857 2.29022 0
M  V30 7585 H 744.086 -5.46838 0.753168 0
M  V30 7586 H 744.563 -4.35982 -0.530701 0
M  V30 7587 H 745.169 -4.10245 1.12158 0
M  V30 7588 N 743.484 -0.715051 -1.40445 0
M  V30 7589 C 744.73 -0.263528 -2.01686 0
M  V30 7590 C 745.085 1.13052 -1.55683 0
M  V30 7591 O 744.378 1.75588 -0.766762 0
M  V30 7592 C 744.572 -0.281791 -3.56287 0
M  V30 7593 C 744.401 -1.67607 -4.17298 0
M  V30 7594 C 743.171 -2.2836 -4.50755 0
M  V30 7595 C 745.369 -2.62621 -4.42193 0
M  V30 7596 N 743.351 -3.6015 -4.97157 0
M  V30 7597 C 744.722 -3.79116 -4.90582 0
M  V30 7598 C 746.777 -2.60639 -4.24231 0
M  V30 7599 C 745.48 -4.93937 -5.22895 0
M  V30 7600 C 747.506 -3.74587 -4.57644 0
M  V30 7601 C 746.868 -4.89815 -5.06222 0
M  V30 7602 H 742.967 -0.142252 -0.768953 0
M  V30 7603 H 745.551 -0.936732 -1.70685 0
M  V30 7604 H 743.722 0.360975 -3.86719 0
M  V30 7605 H 745.454 0.186393 -4.04271 0
M  V30 7606 H 742.209 -1.80463 -4.3787 0
M  V30 7607 H 742.633 -4.27757 -5.24741 0
M  V30 7608 H 747.275 -1.72759 -3.85894 0
M  V30 7609 H 744.993 -5.82462 -5.60146 0
M  V30 7610 H 748.579 -3.74328 -4.45387 0
M  V30 7611 H 747.459 -5.76525 -5.3159 0
M  V30 7612 N 744.962 1.50701 -0.461195 0
M  V30 7613 C 746.209 2.02267 0.0971971 0
M  V30 7614 C 746.537 1.34387 1.40608 0
M  V30 7615 O 745.792 0.455254 1.90331 0
M  V30 7616 C 746.091 3.55788 0.33908 0
M  V30 7617 C 745.757 4.42092 -0.886885 0
M  V30 7618 C 744.419 4.65398 -1.22304 0
M  V30 7619 C 746.771 4.92571 -1.70361 0
M  V30 7620 C 744.099 5.36429 -2.37616 0
M  V30 7621 C 746.451 5.64868 -2.84793 0
M  V30 7622 C 745.115 5.86431 -3.18834 0
M  V30 7623 H 744.385 0.740146 0.0355669 0
M  V30 7624 H 747.032 1.81415 -0.61326 0
M  V30 7625 H 745.337 3.751 1.13168 0
M  V30 7626 H 747.034 3.93243 0.784937 0
M  V30 7627 H 743.624 4.24165 -0.614981 0
M  V30 7628 H 747.808 4.74428 -1.4571 0
M  V30 7629 H 743.064 5.51333 -2.64276 0
M  V30 7630 H 747.238 6.02966 -3.48432 0
M  V30 7631 H 744.865 6.41248 -4.08296 0
M  V30 7632 O 746.479 0.334734 1.57993 0
M  V30 7633 H 747.17 -0.222689 1.92416 0
M  V30 END ATOM
M  V30 BEGIN BOND
M  V30 END BOND
M  V30 END CTAB
M  END
$$$$
