drugbank_target|P22629 Streptavidin (DB01942; DB02674; DB03112; DB03139; DB03353; DB03533; DB03549; DB04464; DB04650; DB07667; DB07880; DB08181; DB08196; DB08216; DB08252)
 OpenBabel12092119573D

  0  0  0     0  0            999 V3000
M  V30 BEGIN CTAB
M  V30 COUNTS 2621 2646 0 0 0
M  V30 BEGIN ATOM
M  V30 1 H -0.908 1.98254 -0.117106 0
M  V30 2 N 0 1.576 0 0
M  V30 3 C 0.933 2.03868 1.02534 0
M  V30 4 C 1.911 0.928543 1.3348 0
M  V30 5 O 3.095 1.19667 1.45644 0
M  V30 6 C 0.222 2.43627 2.35294 0
M  V30 7 C -0.732 3.65373 2.2001 0
M  V30 8 S 0.101 5.13292 1.52614 0
M  V30 9 C 1.257 5.56322 2.86805 0
M  V30 10 H 1.49 2.90518 0.631377 0
M  V30 11 H -0.977 1.52953 0.210867 0
M  V30 12 H 0.981 2.67203 3.11629 0
M  V30 13 H -0.358 1.57376 2.7183 0
M  V30 14 H -1.165 3.90944 3.18086 0
M  V30 15 H -1.563 3.418 1.51819 0
M  V30 16 H 0.729 5.58782 3.83104 0
M  V30 17 H 1.672 6.56266 2.65933 0
M  V30 18 H 2.08 4.83886 2.90714 0
M  V30 19 N 1.4781 -0.272755 1.55222 0
M  V30 20 C 2.8941 -0.619959 1.47067 0
M  V30 21 C 3.0941 -1.895 0.684978 0
M  V30 22 O 2.1501 -2.51675 0.203931 0
M  V30 23 C 3.4631 -0.746693 2.91282 0
M  V30 24 C 5.0111 -0.840731 3.01497 0
M  V30 25 C 5.4861 -0.99924 4.46967 0
M  V30 26 N 6.9771 -1.06476 4.50796 0
M  V30 27 C 7.7121 -1.20621 5.6057 0
M  V30 28 N 7.2081 -1.31483 6.80209 0
M  V30 29 N 9.0011 -1.23733 5.48312 0
M  V30 30 H 1.1521 0.564606 2.04758 0
M  V30 31 H 3.4151 0.191177 0.928523 0
M  V30 32 H 3.1211 0.119753 3.51496 0
M  V30 33 H 2.9951 -1.6269 3.40311 0
M  V30 34 H 5.3821 -1.69764 2.41379 0
M  V30 35 H 5.4631 0.0640874 2.5572 0
M  V30 36 H 5.1071 -0.146984 5.07687 0
M  V30 37 H 5.0371 -1.91871 4.90401 0
M  V30 38 H 7.5281 -0.993196 3.64615 0
M  V30 39 H 7.8411 -1.42111 7.59621 0
M  V30 40 H 6.1861 -1.28487 6.8302 0
M  V30 41 H 9.3771 -1.14877 4.53785 0
M  V30 42 H 9.5501 -1.34412 6.33906 0
M  V30 43 N 2.9562 -1.48159 -0.537278 0
M  V30 44 C 3.9032 -1.62138 -1.64256 0
M  V30 45 C 4.8732 -0.463668 -1.59497 0
M  V30 46 O 6.0582 -0.686241 -1.78032 0
M  V30 47 C 3.1982 -1.66028 -3.02537 0
M  V30 48 C 2.3112 -2.92855 -3.17585 0
M  V30 49 C 1.4462 -2.87952 -4.46382 0
M  V30 50 C 0.4852 -4.09516 -4.54932 0
M  V30 51 N -0.3778 -4.02733 -5.75109 0
M  V30 52 H 4.4622 -2.56529 -1.51647 0
M  V30 53 H 1.9992 -1.27224 -0.738414 0
M  V30 54 H 3.9572 -1.66265 -3.82638 0
M  V30 55 H 2.5872 -0.751331 -3.13934 0
M  V30 56 H 1.6392 -3.02395 -2.30784 0
M  V30 57 H 2.9512 -3.82822 -3.19764 0
M  V30 58 H 2.1052 -2.8655 -5.34765 0
M  V30 59 H 0.8442 -1.95702 -4.46712 0
M  V30 60 H -0.1508 -4.11201 -3.64957 0
M  V30 61 H 1.0742 -5.02917 -4.56346 0
M  V30 62 H -0.9798 -3.13299 -5.76351 0
M  V30 63 H -1.0628 -4.86397 -5.78752 0
M  V30 64 H 0.2052 -4.05379 -6.65799 0
M  V30 65 N 4.4343 0.785586 -1.36625 0
M  V30 66 C 5.6833 1.53883 -1.30396 0
M  V30 67 C 5.9963 1.95271 0.113452 0
M  V30 68 O 7.2023 2.69858 0.298142 0
M  V30 69 C 5.6583 2.77808 -2.28802 0
M  V30 70 C 5.2663 2.43574 -3.75999 0
M  V30 71 C 7.0103 3.55783 -2.31558 0
M  V30 72 C 4.9173 3.63919 -4.66173 0
M  V30 73 H 3.8473 0.577678 -0.484566 0
M  V30 74 H 6.4983 0.861705 -1.62009 0
M  V30 75 H 4.8803 3.47339 -1.90188 0
M  V30 76 H 6.0543 1.81916 -4.23371 0
M  V30 77 H 4.3693 1.78803 -3.76056 0
M  V30 78 H 6.9663 4.45205 -2.96137 0
M  V30 79 H 7.3093 3.94644 -1.3252 0
M  V30 80 H 7.8423 2.93235 -2.68809 0
M  V30 81 H 4.5813 3.3015 -5.66287 0
M  V30 82 H 4.1013 4.2473 -4.23515 0
M  V30 83 H 5.7803 4.30901 -4.82632 0
M  V30 84 N 5.9124 1.20967 1.01018 0
M  V30 85 C 7.1584 1.02526 1.74975 0
M  V30 86 C 7.4914 -0.4408 1.89131 0
M  V30 87 O 6.7664 -1.32718 1.42184 0
M  V30 88 C 7.0494 1.71699 3.1653 0
M  V30 89 C 6.9024 3.25791 3.10129 0
M  V30 90 C 8.2214 1.45531 4.15342 0
M  V30 91 H 5.3404 0.373863 0.635134 0
M  V30 92 H 7.9824 1.49071 1.17805 0
M  V30 93 H 6.1324 1.32128 3.65341 0
M  V30 94 H 7.8044 3.74697 2.69072 0
M  V30 95 H 6.0474 3.56363 2.47362 0
M  V30 96 H 6.7184 3.69353 4.10222 0
M  V30 97 H 9.1944 1.79872 3.75213 0
M  V30 98 H 8.0704 1.96453 5.1254 0
M  V30 99 H 8.3314 0.384237 4.40427 0
M  V30 100 N 7.3905 -1.2043 1.01659 0
M  V30 101 C 8.6365 -1.90079 0.706963 0
M  V30 102 C 8.9695 -1.78648 -0.761474 0
M  V30 103 O 8.2445 -1.17069 -1.55323 0
M  V30 104 C 8.5275 -3.41469 1.14327 0
M  V30 105 C 8.3805 -3.61833 2.67201 0
M  V30 106 C 9.6995 -4.34261 0.714529 0
M  V30 107 H 6.8185 -0.690254 0.2583 0
M  V30 108 H 9.4605 -1.41826 1.26433 0
M  V30 109 H 7.6105 -3.82696 0.669056 0
M  V30 110 H 9.2825 -3.2986 3.22475 0
M  V30 111 H 7.5255 -3.05304 3.08175 0
M  V30 112 H 8.1965 -4.67955 2.92783 0
M  V30 113 H 10.6725 -4.00682 1.12221 0
M  V30 114 H 9.5485 -5.38806 1.04784 0
M  V30 115 H 9.8095 -4.40431 -0.383799 0
M  V30 116 N 8.8686 -0.792821 -1.36206 0
M  V30 117 C 9.8316 -0.199459 -2.2833 0
M  V30 118 C 10.8316 0.605189 -1.48977 0
M  V30 119 O 12.0216 0.425685 -1.68919 0
M  V30 120 C 9.1536 0.723523 -3.33134 0
M  V30 121 H 10.3466 -1.01181 -2.82316 0
M  V30 122 H 7.8996 -0.562485 -1.45828 0
M  V30 123 H 8.6346 1.56008 -2.84309 0
M  V30 124 H 8.4196 0.148436 -3.91819 0
M  V30 125 H 9.9096 1.13344 -4.01924 0
M  V30 126 N 10.3467 1.47872 -0.545128 0
M  V30 127 C 11.3097 2.28337 0.198717 0
M  V30 128 C 12.3097 1.36255 0.853888 0
M  V30 129 O 13.4997 1.59003 0.711606 0
M  V30 130 C 10.6317 3.15585 1.28915 0
M  V30 131 H 11.8247 2.95567 -0.507941 0
M  V30 132 H 9.3777 1.53362 -0.301616 0
M  V30 133 H 10.1127 2.53019 2.02859 0
M  V30 134 H 9.8977 3.83337 0.824309 0
M  V30 135 H 11.3877 3.76243 1.81194 0
M  V30 136 N 11.8248 0.280983 1.55075 0
M  V30 137 C 13.0738 -0.334784 1.98902 0
M  V30 138 C 13.3868 -1.56534 1.17288 0
M  V30 139 O 14.5928 -2.25443 1.51287 0
M  V30 140 C 13.0488 -0.646994 3.54037 0
M  V30 141 C 12.6568 0.564085 4.44435 0
M  V30 142 C 14.4008 -1.22506 4.06439 0
M  V30 143 C 12.3078 0.226137 5.90967 0
M  V30 144 H 11.2378 -0.128866 0.742906 0
M  V30 145 H 13.8888 0.386556 1.79382 0
M  V30 146 H 12.2708 -1.42739 3.6938 0
M  V30 147 H 13.4448 1.34082 4.40861 0
M  V30 148 H 11.7598 1.0594 4.02698 0
M  V30 149 H 14.3568 -1.49182 5.13468 0
M  V30 150 H 14.6998 -2.16085 3.55827 0
M  V30 151 H 15.2328 -0.50682 3.94558 0
M  V30 152 H 11.9718 1.12996 6.45687 0
M  V30 153 H 11.4918 -0.513717 5.97596 0
M  V30 154 H 13.1708 -0.179539 6.46751 0
M  V30 155 N 13.3029 -1.57598 0.00835791 0
M  V30 156 C 14.2659 -2.07884 -0.965242 0
M  V30 157 C 15.2659 -0.989825 -1.26725 0
M  V30 158 O 16.4559 -1.25218 -1.21104 0
M  V30 159 C 13.5879 -2.52731 -2.28779 0
M  V30 160 H 14.7809 -2.95178 -0.530112 0
M  V30 161 H 12.3339 -1.54458 -0.239283 0
M  V30 162 H 13.0689 -1.68705 -2.76964 0
M  V30 163 H 12.8539 -3.32272 -2.08177 0
M  V30 164 H 14.3439 -2.91933 -2.98605 0
M  V30 165 N 14.781 0.264519 -1.55364 0
M  V30 166 C 16.027 0.99646 -1.76631 0
M  V30 167 C 16.36 1.85632 -0.570478 0
M  V30 168 O 15.635 1.89647 0.43175 0
M  V30 169 C 15.918 1.87187 -3.07625 0
M  V30 170 C 15.771 1.04138 -4.37579 0
M  V30 171 C 17.09 2.85749 -3.34717 0
M  V30 172 H 14.209 0.360841 -0.642622 0
M  V30 173 H 16.851 0.268218 -1.88097 0
M  V30 174 H 15.001 2.49279 -2.9798 0
M  V30 175 H 16.673 0.440517 -4.59192 0
M  V30 176 H 14.916 0.345115 -4.32425 0
M  V30 177 H 15.587 1.68729 -5.2558 0
M  V30 178 H 18.063 2.33793 -3.4421 0
M  V30 179 H 16.939 3.44136 -4.27623 0
M  V30 180 H 17.2 3.61311 -2.54768 0
M  V30 181 N 16.2591 1.48442 0.529413 0
M  V30 182 C 17.4841 1.60406 1.31471 0
M  V30 183 C 17.9091 0.264738 1.86228 0
M  V30 184 O 17.2671 -0.763668 1.64432 0
M  V30 185 C 17.3151 2.65419 2.44101 0
M  V30 186 O 16.4191 2.22618 3.47153 0
M  V30 187 H 15.7601 0.537863 0.389357 0
M  V30 188 H 18.2901 1.94432 0.636965 0
M  V30 189 H 18.3001 2.86709 2.90279 0
M  V30 190 H 16.9751 3.62652 2.03608 0
M  V30 191 H 15.5521 2.11543 3.0709 0
M  V30 192 N 17.7372 -0.778329 1.37039 0
M  V30 193 C 18.6672 -1.90546 1.34962 0
M  V30 194 C 19.6482 -1.68681 0.219274 0
M  V30 195 O 20.8332 -1.89634 0.418624 0
M  V30 196 C 17.9632 -3.27734 1.14925 0
M  V30 197 C 16.9172 -3.64147 2.24902 0
M  V30 198 C 16.2432 -4.99806 1.89996 0
M  V30 199 C 17.5432 -3.71579 3.67051 0
M  V30 200 H 19.2372 -1.92541 2.29277 0
M  V30 201 H 16.7832 -0.924948 1.10366 0
M  V30 202 H 18.7362 -4.06215 1.12104 0
M  V30 203 H 17.4602 -3.26154 0.170631 0
M  V30 204 H 16.1192 -2.8797 2.26868 0
M  V30 205 H 15.7672 -4.94759 0.906796 0
M  V30 206 H 15.4672 -5.25139 2.63634 0
M  V30 207 H 16.9912 -5.80694 1.88749 0
M  V30 208 H 18.4052 -4.40227 3.67251 0
M  V30 209 H 16.8022 -4.08405 4.39688 0
M  V30 210 H 17.8722 -2.72404 4.01154 0
M  V30 211 N 19.2153 -1.21501 -1.00376 0
M  V30 212 C 20.4433 -1.059 -1.77744 0
M  V30 213 C 20.8583 0.391125 -1.84704 0
M  V30 214 O 20.2153 1.27133 -1.30933 0
M  V30 215 C 20.2663 -1.65111 -3.21591 0
M  V30 216 O 19.9873 -3.0445 -3.15027 0
M  V30 217 C 21.4883 -1.54637 -4.15454 0
M  V30 218 H 18.7083 -0.371825 -0.558558 0
M  V30 219 H 21.2523 -1.60865 -1.26264 0
M  V30 220 H 19.4073 -1.14235 -3.70175 0
M  V30 221 H 19.8213 -3.3278 -4.0541 0
M  V30 222 H 21.2953 -2.00808 -5.14179 0
M  V30 223 H 21.7723 -0.501022 -4.36333 0
M  V30 224 H 22.3783 -2.04767 -3.72761 0
M  V30 225 N 20.6934 1.19889 -1.02296 0
M  V30 226 C 21.9214 1.9339 -0.735399 0
M  V30 227 C 22.3364 1.75148 0.704887 0
M  V30 228 O 21.6934 1.06954 1.47875 0
M  V30 229 C 21.7444 3.45313 -1.06962 0
M  V30 230 O 21.4654 3.62964 -2.45334 0
M  V30 231 C 22.9664 4.35948 -0.804021 0
M  V30 232 H 20.1864 0.61448 -0.269546 0
M  V30 233 H 22.7304 1.522 -1.36585 0
M  V30 234 H 20.8854 3.84359 -0.484455 0
M  V30 235 H 21.2994 4.56886 -2.57595 0
M  V30 236 H 22.7734 5.41174 -1.0879 0
M  V30 237 H 23.2504 4.3842 0.261691 0
M  V30 238 H 23.8564 4.02574 -1.37164 0
M  V30 239 N 22.1715 0.800033 1.35784 0
M  V30 240 C 23.4175 0.377901 1.99248 0
M  V30 241 C 23.7505 -1.05052 1.63333 0
M  V30 242 O 23.0255 -1.72768 0.893385 0
M  V30 243 C 23.3085 0.553922 3.55814 0
M  V30 244 C 23.1615 2.0268 4.01548 0
M  V30 245 C 24.4805 -0.0244802 4.40093 0
M  V30 246 H 21.5995 0.138782 0.723815 0
M  V30 247 H 24.2415 1.00835 1.61035 0
M  V30 248 H 22.3915 0.0172398 3.88496 0
M  V30 249 H 24.0635 2.62536 3.79305 0
M  V30 250 H 22.3065 2.5256 3.52698 0
M  V30 251 H 22.9775 2.10087 5.10458 0
M  V30 252 H 25.4535 0.433775 4.13833 0
M  V30 253 H 24.3295 0.128637 5.48749 0
M  V30 254 H 24.5905 -1.11758 4.27741 0
M  V30 255 N 23.6496 -1.47581 0.552962 0
M  V30 256 C 24.8746 -2.07378 0.0300593 0
M  V30 257 C 25.2996 -1.40355 -1.25229 0
M  V30 258 O 24.6576 -0.477099 -1.7491 0
M  V30 259 C 24.7056 -3.60274 -0.153231 0
M  V30 260 O 23.8096 -3.94041 -1.21678 0
M  V30 261 H 23.1506 -0.662158 0.0494182 0
M  V30 262 H 25.6806 -1.89662 0.767434 0
M  V30 263 H 25.6906 -4.0633 -0.368761 0
M  V30 264 H 24.3656 -4.08455 0.783397 0
M  V30 265 H 22.9426 -3.59735 -0.982079 0
M  V30 266 N 25.1277 -0.289203 -1.54924 0
M  V30 267 C 26.3767 0.324231 -1.99077 0
M  V30 268 C 26.6897 1.5591 -1.18117 0
M  V30 269 O 27.8957 2.24637 -1.52481 0
M  V30 270 C 26.3517 0.628209 -3.54375 0
M  V30 271 C 25.9597 -0.587647 -4.44129 0
M  V30 272 C 27.7037 1.20349 -4.07083 0
M  V30 273 C 25.6107 -0.257475 -5.90839 0
M  V30 274 H 24.5407 0.124924 -0.743579 0
M  V30 275 H 27.1917 -0.396063 -1.79175 0
M  V30 276 H 25.5737 1.40778 -3.70132 0
M  V30 277 H 26.7477 -1.36418 -4.40144 0
M  V30 278 H 25.0627 -1.08074 -4.0213 0
M  V30 279 H 27.6597 1.46456 -5.14252 0
M  V30 280 H 28.0027 2.14195 -3.56968 0
M  V30 281 H 28.5357 0.485889 -3.94821 0
M  V30 282 H 25.2747 -1.16419 -6.45079 0
M  V30 283 H 24.7947 0.482018 -5.9786 0
M  V30 284 H 26.4737 0.145238 -6.46837 0
M  V30 285 N 26.6058 1.57591 -0.0167156 0
M  V30 286 C 27.8338 1.95575 0.675128 0
M  V30 287 C 28.2488 0.892542 1.6637 0
M  V30 288 O 27.6058 -0.126912 1.82058 0
M  V30 289 C 27.6568 3.33608 1.39239 0
M  V30 290 O 27.3778 4.3585 0.443444 0
M  V30 291 C 28.8788 3.86151 2.17721 0
M  V30 292 H 26.0988 0.644423 0.186978 0
M  V30 293 H 28.6428 2.0437 -0.0728 0
M  V30 294 H 26.7978 3.2607 2.09182 0
M  V30 295 H 27.2118 5.158 0.951358 0
M  V30 296 H 28.6858 4.85114 2.63379 0
M  V30 297 H 29.1628 3.19738 3.01105 0
M  V30 298 H 29.7688 3.96918 1.52761 0
M  V30 299 N 28.0839 -0.256276 1.55502 0
M  V30 300 C 29.0469 -1.30047 1.88734 0
M  V30 301 C 30.0469 -1.4154 0.763086 0
M  V30 302 O 31.2369 -1.40403 1.03115 0
M  V30 303 C 28.3689 -2.67953 2.10747 0
M  V30 304 H 29.5619 -1.01802 2.82093 0
M  V30 305 H 27.1149 -0.495134 1.4825 0
M  V30 306 H 27.8499 -3.01351 1.19825 0
M  V30 307 H 27.6349 -2.60993 2.92617 0
M  V30 308 H 29.1249 -3.43368 2.37673 0
M  V30 309 N 29.562 -1.4872 -0.521534 0
M  V30 310 C 30.787 -1.61101 -1.30618 0
M  V30 311 C 31.212 -0.274611 -1.86085 0
M  V30 312 O 30.57 0.754937 -1.64834 0
M  V30 313 C 30.618 -2.66709 -2.4269 0
M  V30 314 O 29.722 -2.24456 -3.45967 0
M  V30 315 H 29.063 -0.539921 -0.386499 0
M  V30 316 H 31.593 -1.94767 -0.626645 0
M  V30 317 H 31.603 -2.88245 -2.88754 0
M  V30 318 H 30.278 -3.63727 -2.01682 0
M  V30 319 H 28.855 -2.13168 -3.05964 0
M  V30 320 N 31.0401 0.771051 -1.3745 0
M  V30 321 C 32.0031 1.86598 -1.33093 0
M  V30 322 C 33.0031 1.59076 -0.234845 0
M  V30 323 O 34.1931 1.67145 -0.490732 0
M  V30 324 C 31.3251 3.23747 -1.06773 0
M  V30 325 H 32.5181 1.91873 -2.30488 0
M  V30 326 H 30.0711 0.970876 -1.2249 0
M  V30 327 H 30.8061 3.24148 -0.099129 0
M  V30 328 H 30.5911 3.45115 -1.86112 0
M  V30 329 H 32.0811 4.03824 -1.06377 0
M  V30 330 N 32.5182 1.22032 0.997298 0
M  V30 331 C 33.7432 1.06921 1.77715 0
M  V30 332 C 34.1682 -0.376226 1.84299 0
M  V30 333 O 33.5262 -1.27165 1.29223 0
M  V30 334 C 33.5742 1.67996 3.19076 0
M  V30 335 O 32.6782 0.930653 4.01762 0
M  V30 336 H 32.0192 0.375814 0.547412 0
M  V30 337 H 34.5492 1.61737 1.25309 0
M  V30 338 H 34.5592 1.72538 3.69723 0
M  V30 339 H 33.2342 2.73182 3.13599 0
M  V30 340 H 31.8112 0.960917 3.60307 0
M  V30 341 N 33.9963 -1.19345 1.0293 0
M  V30 342 C 34.9593 -2.20793 0.615069 0
M  V30 343 C 35.9593 -1.57553 -0.321533 0
M  V30 344 O 37.1493 -1.73862 -0.108483 0
M  V30 345 C 34.2813 -3.40754 -0.0999222 0
M  V30 346 H 35.4743 -2.58955 1.51269 0
M  V30 347 H 33.0273 -1.3303 0.820534 0
M  V30 348 H 33.7623 -3.0811 -1.01187 0
M  V30 349 H 33.5473 -3.87889 0.57309 0
M  V30 350 H 35.0373 -4.15898 -0.376645 0
M  V30 351 N 35.4744 -0.807222 -1.35358 0
M  V30 352 C 36.7514 -0.311126 -1.9311 0
M  V30 353 C 37.1314 1.19937 -1.73719 0
M  V30 354 O 36.4794 1.99918 -1.10657 0
M  V30 355 C 36.6894 -0.723226 -3.41424 0
M  V30 356 C 38.0374 -0.713078 -4.18569 0
M  V30 357 O 39.0614 -0.664811 -3.49941 0
M  V30 358 O 37.9204 -0.772022 -5.41019 0
M  V30 359 H 35.0144 -0.081526 -0.822972 0
M  V30 360 H 37.5604 -0.890962 -1.4443 0
M  V30 361 H 36.3324 -1.76426 -3.4927 0
M  V30 362 H 35.9554 -0.118232 -3.97424 0
M  V30 363 N 36.9525 1.47285 -0.560781 0
M  V30 364 C 38.3635 1.86258 -0.128343 0
M  V30 365 C 38.7145 1.46699 1.30284 0
M  V30 366 O 37.8395 0.871698 1.98067 0
M  V30 367 C 38.4345 3.38044 -0.22614 0
M  V30 368 C 36.9935 3.76096 0.151283 0
M  V30 369 C 36.1405 2.71335 -0.572084 0
M  V30 370 H 39.0915 1.38752 -0.770297 0
M  V30 371 H 39.1125 3.76441 0.554322 0
M  V30 372 H 38.6245 3.66806 -1.26788 0
M  V30 373 H 36.7255 3.52951 1.19399 0
M  V30 374 H 36.8385 4.78641 -0.209765 0
M  V30 375 H 35.2025 2.54696 -0.0147653 0
M  V30 376 H 35.9855 3.02938 -1.61504 0
M  V30 377 N 38.4306 0.297415 1.54768 0
M  V30 378 C 39.6556 -0.318435 2.04941 0
M  V30 379 C 40.0806 -1.4701 1.17345 0
M  V30 380 O 39.4386 -1.80436 0.176758 0
M  V30 381 C 39.4866 -0.755749 3.52592 0
M  V30 382 O 38.5906 -1.86088 3.68028 0
M  V30 383 H 37.9316 -0.062421 0.661059 0
M  V30 384 H 40.4616 0.438215 1.99852 0
M  V30 385 H 40.4716 -1.04552 3.94376 0
M  V30 386 H 39.1466 0.0867233 4.1581 0
M  V30 387 H 37.7236 -1.57193 3.38149 0
M  V30 388 N 39.9087 -1.5758 0.0250728 0
M  V30 389 C 40.8557 -2.09973 -0.958129 0
M  V30 390 C 41.8257 -1.00085 -1.3256 0
M  V30 391 O 43.0107 -1.27481 -1.41962 0
M  V30 392 C 40.1507 -2.62812 -2.2366 0
M  V30 393 C 39.2637 -3.86693 -1.92594 0
M  V30 394 C 38.3987 -4.27941 -3.14707 0
M  V30 395 C 37.4377 -5.44591 -2.79442 0
M  V30 396 N 36.5747 -5.81014 -3.94167 0
M  V30 397 H 41.4147 -2.937 -0.504428 0
M  V30 398 H 38.9517 -1.45172 -0.237392 0
M  V30 399 H 40.9097 -2.91536 -2.98434 0
M  V30 400 H 39.5397 -1.81922 -2.66654 0
M  V30 401 H 38.5917 -3.64723 -1.0808 0
M  V30 402 H 39.9037 -4.71547 -1.62619 0
M  V30 403 H 39.0577 -4.58079 -3.97804 0
M  V30 404 H 37.7967 -3.41845 -3.4784 0
M  V30 405 H 36.8017 -5.1415 -1.94755 0
M  V30 406 H 38.0267 -6.32382 -2.47528 0
M  V30 407 H 35.9727 -4.97874 -4.2715 0
M  V30 408 H 35.8897 -6.60498 -3.67801 0
M  V30 409 H 37.1577 -6.15756 -4.7798 0
M  V30 410 N 41.3868 0.248026 -1.55636 0
M  V30 411 C 42.6638 0.998988 -1.68165 0
M  V30 412 C 43.0438 2.03409 -0.564621 0
M  V30 413 O 42.3918 2.24378 0.432076 0
M  V30 414 C 42.6018 1.63334 -3.0842 0
M  V30 415 C 43.9498 2.13562 -3.66983 0
M  V30 416 O 44.9738 1.73277 -3.11213 0
M  V30 417 O 43.8328 2.87526 -4.64749 0
M  V30 418 H 40.9268 0.464933 -0.683935 0
M  V30 419 H 43.4728 0.241902 -1.67967 0
M  V30 420 H 42.2448 0.884583 -3.8117 0
M  V30 421 H 41.8678 2.45666 -3.12624 0
M  V30 422 N 42.8649 1.48995 0.513639 0
M  V30 423 C 44.0899 1.61792 1.29762 0
M  V30 424 C 44.5149 0.284475 1.85936 0
M  V30 425 O 43.8729 -0.746185 1.65232 0
M  V30 426 C 43.9209 2.67993 2.41272 0
M  V30 427 O 43.0249 2.26287 3.44772 0
M  V30 428 H 42.3659 0.541963 0.38363 0
M  V30 429 H 44.8959 1.95097 0.616307 0
M  V30 430 H 44.9059 2.89772 2.87221 0
M  V30 431 H 43.5809 3.64791 1.9975 0
M  V30 432 H 42.1579 2.14788 3.04829 0
M  V30 433 N 44.343 -0.763751 1.37857 0
M  V30 434 C 45.29 -1.87726 1.34267 0
M  V30 435 C 46.26 -1.64807 0.206879 0
M  V30 436 O 47.445 -1.86613 0.397508 0
M  V30 437 C 44.585 -3.24896 1.16346 0
M  V30 438 C 43.698 -3.59716 2.39225 0
M  V30 439 C 42.833 -4.86137 2.14114 0
M  V30 440 C 41.872 -5.13711 3.32817 0
M  V30 441 N 41.009 -6.31323 3.07206 0
M  V30 442 H 45.849 -1.90129 2.29466 0
M  V30 443 H 43.386 -0.929433 1.14017 0
M  V30 444 H 45.344 -4.04036 1.03975 0
M  V30 445 H 43.974 -3.21847 0.247909 0
M  V30 446 H 43.026 -2.75498 2.62307 0
M  V30 447 H 44.338 -3.76027 3.27728 0
M  V30 448 H 43.492 -5.73198 1.9882 0
M  V30 449 H 42.231 -4.71945 1.22961 0
M  V30 450 H 41.236 -4.25123 3.48641 0
M  V30 451 H 42.461 -5.29807 4.24832 0
M  V30 452 H 40.407 -6.18474 2.1869 0
M  V30 453 H 40.324 -6.48087 3.89254 0
M  V30 454 H 41.592 -7.213 2.95546 0
M  V30 455 N 45.8211 -1.22559 -0.990812 0
M  V30 456 C 46.7841 -0.998863 -2.0629 0
M  V30 457 C 47.7841 0.0354834 -1.60761 0
M  V30 458 O 48.9741 -0.203231 -1.7301 0
M  V30 459 C 46.1061 -0.509203 -3.37076 0
M  V30 460 H 47.2991 -1.95014 -2.27837 0
M  V30 461 H 44.8521 -1.04456 -1.16269 0
M  V30 462 H 45.5871 0.446335 -3.21214 0
M  V30 463 H 45.3721 -1.25547 -3.71457 0
M  V30 464 H 46.8621 -0.370888 -4.1595 0
M  V30 465 N 47.2992 1.18797 -1.03562 0
M  V30 466 C 48.2312 2.21731 -0.580337 0
M  V30 467 C 49.2442 1.59051 0.347349 0
M  V30 468 O 50.4332 1.77929 0.142669 0
M  V30 469 C 47.5332 3.38459 0.172805 0
M  V30 470 C 46.7062 4.3072 -0.761496 0
M  V30 471 C 45.7652 5.26174 -0.0525547 0
M  V30 472 O 44.7912 5.65108 -0.681333 0
M  V30 473 N 45.9932 5.67624 1.21586 0
M  V30 474 H 48.7582 2.61417 -1.46565 0
M  V30 475 H 46.3192 1.33531 -0.915476 0
M  V30 476 H 48.3112 3.99335 0.656793 0
M  V30 477 H 46.8812 2.97507 0.959602 0
M  V30 478 H 46.1012 3.67525 -1.42544 0
M  V30 479 H 47.3892 4.89267 -1.39626 0
M  V30 480 H 46.7872 5.38038 1.74732 0
M  V30 481 H 45.3442 6.30721 1.64421 0
M  V30 482 N 48.7773 0.814389 1.34928 0
M  V30 483 C 50.0233 0.399013 1.98836 0
M  V30 484 C 50.3563 -1.03314 1.64438 0
M  V30 485 O 49.6313 -1.71811 0.911659 0
M  V30 486 C 49.9143 0.591629 3.55207 0
M  V30 487 C 49.7673 2.06928 3.99376 0
M  V30 488 C 51.0863 0.022199 4.40094 0
M  V30 489 H 48.2053 0.146451 0.722303 0
M  V30 490 H 50.8473 1.02537 1.59957 0
M  V30 491 H 48.9973 0.0584441 3.88456 0
M  V30 492 H 50.6693 2.66544 3.76499 0
M  V30 493 H 48.9123 2.56287 3.49999 0
M  V30 494 H 49.5833 2.1549 5.08201 0
M  V30 495 H 52.0593 0.477643 4.13349 0
M  V30 496 H 50.9353 0.186832 5.48582 0
M  V30 497 H 51.1963 -1.07215 4.28902 0
M  V30 498 N 50.2554 -1.46986 0.568584 0
M  V30 499 C 51.4804 -2.07335 0.0520528 0
M  V30 500 C 51.9054 -1.41675 -1.23733 0
M  V30 501 O 51.2634 -0.495623 -1.74394 0
M  V30 502 C 51.3114 -3.60417 -0.11501 0
M  V30 503 O 50.4154 -3.95309 -1.17492 0
M  V30 504 H 49.7564 -0.661597 0.0564385 0
M  V30 505 H 52.2864 -1.88837 0.787507 0
M  V30 506 H 52.2964 -4.06698 -0.325644 0
M  V30 507 H 50.9714 -4.07601 0.826675 0
M  V30 508 H 49.5484 -3.60757 -0.943869 0
M  V30 509 N 51.7335 -0.305618 -1.54608 0
M  V30 510 C 52.6965 0.555591 -2.22364 0
M  V30 511 C 53.6965 1.05768 -1.21119 0
M  V30 512 O 54.8865 0.952972 -1.45822 0
M  V30 513 C 52.0185 1.76974 -2.91364 0
M  V30 514 H 53.2115 -0.0364572 -2.99878 0
M  V30 515 H 50.7645 -0.0565007 -1.56198 0
M  V30 516 H 51.4995 2.40151 -2.17941 0
M  V30 517 H 51.2845 1.41732 -3.65588 0
M  V30 518 H 52.7745 2.38148 -3.43038 0
M  V30 519 N 53.2116 1.57565 -0.0334293 0
M  V30 520 C 54.1746 2.09393 0.932048 0
M  V30 521 C 55.1746 1.00986 1.25134 0
M  V30 522 O 56.3646 1.27129 1.19096 0
M  V30 523 C 53.4966 2.56338 2.2473 0
M  V30 524 H 54.6896 2.95984 0.483085 0
M  V30 525 H 52.2426 1.54819 0.21468 0
M  V30 526 H 52.9776 1.7309 2.74245 0
M  V30 527 H 52.7626 3.35542 2.02865 0
M  V30 528 H 54.2526 2.96646 2.93923 0
M  V30 529 N 54.6897 -0.239769 1.55765 0
M  V30 530 C 55.5997 -1.31831 1.94056 0
M  V30 531 C 56.6157 -1.52275 0.841925 0
M  V30 532 O 57.7917 -1.65759 1.14394 0
M  V30 533 C 54.8567 -2.65156 2.23368 0
M  V30 534 C 53.9177 -2.53173 3.46701 0
M  V30 535 C 53.1507 -3.8014 3.74606 0
M  V30 536 O 53.3737 -4.82343 3.04469 0
M  V30 537 O 52.3077 -3.78344 4.68123 0
M  V30 538 H 56.1337 -1.02347 2.85935 0
M  V30 539 H 53.7187 -0.441123 1.42739 0
M  V30 540 H 55.6007 -3.43929 2.43497 0
M  V30 541 H 54.2757 -2.94358 1.34666 0
M  V30 542 H 53.1827 -1.72662 3.31871 0
M  V30 543 H 54.5157 -2.28915 4.35728 0
M  V30 544 N 56.1678 -1.49265 -0.50573 0
M  V30 545 C 57.1308 -1.65075 -1.59006 0
M  V30 546 C 58.1308 -0.522768 -1.52065 0
M  V30 547 O 59.3208 -0.789117 -1.55302 0
M  V30 548 C 56.4528 -1.64369 -2.98656 0
M  V30 549 H 57.6458 -2.61784 -1.46319 0
M  V30 550 H 55.1988 -1.38226 -0.729616 0
M  V30 551 H 55.9338 -0.692272 -3.16825 0
M  V30 552 H 55.7188 -2.46282 -3.05103 0
M  V30 553 H 57.2088 -1.78674 -3.77446 0
M  V30 554 N 57.6459 0.756429 -1.3826 0
M  V30 555 C 58.8939 1.51248 -1.34047 0
M  V30 556 C 59.2149 1.94875 0.0698372 0
M  V30 557 O 58.4849 1.67436 1.01696 0
M  V30 558 H 57.0649 0.561018 -0.493222 0
M  V30 559 H 59.7269 0.899347 -1.7291 0
M  V30 560 H 58.8229 2.40472 -1.98947 0
M  V30 561 N 59.124 1.23083 0.984299 0
M  V30 562 C 60.373 1.05466 1.71929 0
M  V30 563 C 60.686 -0.409211 1.91272 0
M  V30 564 O 61.892 -0.705226 2.62181 0
M  V30 565 C 60.348 1.83874 3.09384 0
M  V30 566 C 59.956 3.34566 2.97943 0
M  V30 567 C 61.7 1.74734 3.8687 0
M  V30 568 C 59.607 4.05381 4.30605 0
M  V30 569 H 58.537 0.391039 0.644674 0
M  V30 570 H 61.188 1.47013 1.09815 0
M  V30 571 H 59.57 1.35131 3.72231 0
M  V30 572 H 60.744 3.90767 2.44209 0
M  V30 573 H 59.059 3.44476 2.33934 0
M  V30 574 H 61.656 2.24957 4.85076 0
M  V30 575 H 61.999 0.709372 4.10212 0
M  V30 576 H 62.532 2.21067 3.30717 0
M  V30 577 H 59.271 5.09467 4.1246 0
M  V30 578 H 58.791 3.53967 4.84218 0
M  V30 579 H 60.47 4.11458 4.99311 0
M  V30 580 N 60.6021 -1.18246 1.0419 0
M  V30 581 C 61.8301 -1.92195 0.766072 0
M  V30 582 C 62.2451 -1.76247 -0.676933 0
M  V30 583 O 61.6021 -1.09293 -1.46155 0
M  V30 584 C 61.6531 -3.43568 1.12442 0
M  V30 585 O 61.3741 -3.59015 2.51078 0
M  V30 586 C 62.8751 -4.34613 0.873275 0
M  V30 587 H 60.0951 -0.610114 0.279288 0
M  V30 588 H 62.6391 -1.50007 1.38989 0
M  V30 589 H 60.7941 -3.8354 0.545542 0
M  V30 590 H 61.2081 -4.5273 2.64831 0
M  V30 591 H 62.6821 -5.39374 1.17385 0
M  V30 592 H 63.1591 -4.38781 -0.191909 0
M  V30 593 H 63.7651 -4.00341 1.43551 0
M  V30 594 N 62.0802 -0.821533 -1.34494 0
M  V30 595 C 63.3282 -0.408139 -1.97936 0
M  V30 596 C 63.6492 1.03193 -1.65457 0
M  V30 597 O 62.9192 1.71622 -0.944595 0
M  V30 598 H 61.4992 -0.147928 -0.732206 0
M  V30 599 H 64.1612 -1.05067 -1.64155 0
M  V30 600 H 63.2572 -0.52601 -3.07635 0
M  V30 601 N 63.5583 1.46682 -0.576371 0
M  V30 602 C 64.7863 2.06798 -0.0649635 0
M  V30 603 C 65.2013 1.42612 1.23723 0
M  V30 604 O 64.5583 0.529203 1.74659 0
M  V30 605 C 64.6093 3.6132 0.114202 0
M  V30 606 O 64.3303 4.23104 -1.13644 0
M  V30 607 C 65.8313 4.38349 0.66069 0
M  V30 608 H 63.0513 0.668778 -0.0545616 0
M  V30 609 H 65.5953 1.88404 -0.795237 0
M  V30 610 H 63.7503 3.79162 0.794673 0
M  V30 611 H 64.1643 5.15894 -0.946253 0
M  V30 612 H 65.6383 5.47081 0.73526 0
M  V30 613 H 66.1153 4.05953 1.67627 0
M  V30 614 H 66.7213 4.25297 0.0152951 0
M  V30 615 N 65.0364 0.313813 1.54444 0
M  V30 616 C 66.2824 -0.284918 2.01395 0
M  V30 617 C 66.6374 -1.50537 1.19818 0
M  V30 618 O 65.9304 -1.89692 0.269748 0
M  V30 619 C 66.1244 -0.680386 3.50864 0
M  V30 620 C 65.9534 0.500198 4.4691 0
M  V30 621 C 64.7234 0.996248 4.95382 0
M  V30 622 C 66.9214 1.34928 4.96285 0
M  V30 623 N 64.9034 2.14226 5.75309 0
M  V30 624 C 66.2744 2.3426 5.7404 0
M  V30 625 C 68.3294 1.37818 4.78446 0
M  V30 626 C 67.0324 3.36272 6.35856 0
M  V30 627 C 69.0584 2.38695 5.4109 0
M  V30 628 C 68.4204 3.36755 6.18688 0
M  V30 629 H 64.5194 -0.0683689 0.779006 0
M  V30 630 H 67.1034 0.44664 1.89508 0
M  V30 631 H 65.2744 -1.38109 3.63016 0
M  V30 632 H 67.0064 -1.25975 3.84594 0
M  V30 633 H 63.7614 0.56912 4.70168 0
M  V30 634 H 64.1854 2.72005 6.19953 0
M  V30 635 H 68.8274 0.633747 4.18023 0
M  V30 636 H 66.5454 4.11627 6.95405 0
M  V30 637 H 70.1314 2.41721 5.29209 0
M  V30 638 H 69.0114 4.13535 6.66302 0
M  V30 639 N 66.5145 -1.57545 0.0417849 0
M  V30 640 C 67.7445 -1.96339 -0.642995 0
M  V30 641 C 68.1525 -0.917536 -1.65463 0
M  V30 642 O 67.4955 0.107747 -1.83384 0
M  V30 643 C 67.5575 -3.31333 -1.39494 0
M  V30 644 C 67.2215 -4.53796 -0.540204 0
M  V30 645 C 68.2185 -5.19553 0.189806 0
M  V30 646 C 65.9035 -5.0006 -0.473886 0
M  V30 647 C 67.8975 -6.29904 0.974674 0
M  V30 648 C 65.5845 -6.10289 0.314677 0
M  V30 649 C 66.5825 -6.75072 1.03765 0
M  V30 650 O 66.2705 -7.83183 1.81327 0
M  V30 651 H 66.0025 -0.651241 -0.181277 0
M  V30 652 H 68.5565 -2.05148 0.101665 0
M  V30 653 H 66.7865 -3.19052 -2.18502 0
M  V30 654 H 68.4755 -3.54942 -1.96904 0
M  V30 655 H 69.2415 -4.84774 0.147981 0
M  V30 656 H 65.1205 -4.49433 -1.0262 0
M  V30 657 H 68.6645 -6.80401 1.5395 0
M  V30 658 H 64.5615 -6.44506 0.358174 0
M  V30 659 H 65.3295 -7.99913 1.73438 0
M  V30 660 N 67.9926 0.231505 -1.5589 0
M  V30 661 C 68.9406 1.30649 -1.92441 0
M  V30 662 C 69.9346 1.49037 -0.805254 0
M  V30 663 O 71.1406 1.50329 -0.990007 0
M  V30 664 H 67.5156 0.437812 -0.611412 0
M  V30 665 H 69.4866 0.970973 -2.82161 0
M  V30 666 C 68.2356 2.65179 -2.24889 0
M  V30 667 H 67.5586 2.51835 -3.10514 0
M  V30 668 H 68.9986 3.39234 -2.54355 0
M  V30 669 C 67.4576 3.19439 -1.07054 0
M  V30 670 O 67.9876 4.00371 -0.326499 0
M  V30 671 N 66.1936 2.77675 -0.85703 0
M  V30 672 H 65.7406 2.11969 -1.46379 0
M  V30 673 H 65.6986 3.14321 -0.0703223 0
M  V30 674 N 69.4707 1.49531 0.497807 0
M  V30 675 C 70.4027 1.62559 1.61578 0
M  V30 676 C 71.4157 0.508134 1.54667 0
M  V30 677 O 72.6047 0.780309 1.60541 0
M  V30 678 C 69.7047 1.56925 3.00379 0
M  V30 679 C 68.8777 2.84257 3.3244 0
M  V30 680 C 67.9367 2.71632 4.50669 0
M  V30 681 O 66.9627 3.4557 4.52294 0
M  V30 682 N 68.1647 1.83391 5.5077 0
M  V30 683 H 70.9297 2.58981 1.50828 0
M  V30 684 H 68.4907 1.4666 0.685743 0
M  V30 685 H 70.4827 1.46129 3.77397 0
M  V30 686 H 69.0527 0.683483 3.05037 0
M  V30 687 H 68.2727 3.09381 2.44289 0
M  V30 688 H 69.5607 3.68666 3.5066 0
M  V30 689 H 68.9587 1.22583 5.52259 0
M  V30 690 H 67.5157 1.78515 6.26878 0
M  V30 691 N 70.9488 -0.749086 1.3866 0
M  V30 692 C 71.8788 -1.8764 1.38973 0
M  V30 693 C 72.8598 -1.68178 0.255004 0
M  V30 694 O 74.0448 -1.88704 0.458754 0
M  V30 695 C 71.1748 -3.25222 1.21851 0
M  V30 696 C 70.1288 -3.59295 2.32575 0
M  V30 697 C 69.4548 -4.95663 2.00555 0
M  V30 698 C 70.7548 -3.63709 3.7485 0
M  V30 699 H 72.4488 -1.87635 2.3331 0
M  V30 700 H 69.9948 -0.901329 1.12303 0
M  V30 701 H 71.9478 -4.03746 1.20695 0
M  V30 702 H 70.6718 -3.25719 0.239775 0
M  V30 703 H 69.3308 -2.83093 2.32925 0
M  V30 704 H 68.9788 -4.92724 1.01154 0
M  V30 705 H 68.6788 -5.19429 2.74714 0
M  V30 706 H 70.2028 -5.7656 2.01024 0
M  V30 707 H 71.6168 -4.32338 3.76506 0
M  V30 708 H 70.0138 -3.98986 4.48252 0
M  V30 709 H 71.0838 -2.63834 4.06841 0
M  V30 710 N 72.4269 -1.23603 -0.977757 0
M  V30 711 C 73.6749 -1.06759 -1.71601 0
M  V30 712 C 73.9959 0.395929 -1.90938 0
M  V30 713 O 73.2659 1.28356 -1.47992 0
M  V30 714 H 71.8459 -0.392062 -0.635843 0
M  V30 715 H 74.5079 -1.55362 -1.1768 0
M  V30 716 H 73.6039 -1.55763 -2.70452 0
M  V30 717 N 73.905 1.17692 -1.04816 0
M  V30 718 C 75.13 1.92327 -0.776207 0
M  V30 719 C 75.555 1.76082 0.661581 0
M  V30 720 O 74.913 1.076 1.45917 0
M  V30 721 C 74.961 3.41539 -1.15687 0
M  V30 722 O 74.065 4.11402 -0.286775 0
M  V30 723 H 73.406 0.599735 -0.284981 0
M  V30 724 H 75.936 1.49201 -1.4 0
M  V30 725 H 75.946 3.92269 -1.12202 0
M  V30 726 H 74.621 3.52684 -2.20425 0
M  V30 727 H 73.198 3.70939 -0.381903 0
M  V30 728 N 75.3831 0.828654 1.34056 0
M  V30 729 C 76.6111 0.43262 2.02326 0
M  V30 730 C 77.0261 -0.963147 1.62385 0
M  V30 731 O 76.3831 -1.62425 0.832121 0
M  V30 732 C 76.4341 0.53182 3.57567 0
M  V30 733 O 76.1551 1.87258 3.96063 0
M  V30 734 C 77.6561 0.131422 4.43105 0
M  V30 735 H 74.8761 0.172923 0.648335 0
M  V30 736 H 77.4201 1.1184 1.71208 0
M  V30 737 H 75.5751 -0.105938 3.87255 0
M  V30 738 H 75.9891 1.85087 4.90758 0
M  V30 739 H 77.4631 0.251904 5.51425 0
M  V30 740 H 77.9401 -0.925645 4.29335 0
M  V30 741 H 78.5461 0.743207 4.18756 0
M  V30 742 N 76.8612 -1.46375 0.584142 0
M  V30 743 C 78.1082 -2.02378 0.0702675 0
M  V30 744 C 78.4362 -1.45545 -1.29023 0
M  V30 745 O 77.6912 -0.610967 -1.85918 0
M  V30 746 C 77.9902 -3.57373 -0.0439342 0
M  V30 747 C 77.6562 -4.33252 1.24915 0
M  V30 748 C 76.3182 -4.53701 1.60341 0
M  V30 749 C 78.6702 -4.7681 2.1048 0
M  V30 750 C 75.9982 -5.1496 2.81128 0
M  V30 751 C 78.3502 -5.39404 3.30494 0
M  V30 752 C 77.0142 -5.5808 3.66201 0
M  V30 753 H 76.2842 -0.740554 0.0257127 0
M  V30 754 H 78.9312 -1.75727 0.761065 0
M  V30 755 H 77.2362 -3.83169 -0.817869 0
M  V30 756 H 78.9332 -3.98384 -0.457318 0
M  V30 757 H 75.5232 -4.17633 0.963364 0
M  V30 758 H 79.7072 -4.60766 1.84414 0
M  V30 759 H 74.9632 -5.27611 3.08928 0
M  V30 760 H 79.1372 -5.72114 3.97063 0
M  V30 761 H 76.7642 -6.05318 4.59885 0
M  V30 762 N 78.3393 -0.321999 -1.54275 0
M  V30 763 C 79.5883 0.281931 -1.9972 0
M  V30 764 C 79.9013 1.53369 -1.21397 0
M  V30 765 O 81.1073 2.21352 -1.57211 0
M  V30 766 C 79.5633 0.5529 -3.55628 0
M  V30 767 C 79.1713 -0.681721 -4.42783 0
M  V30 768 C 80.9153 1.11687 -4.09544 0
M  V30 769 C 78.8223 -0.382742 -5.9016 0
M  V30 770 H 77.7523 0.109124 -0.746062 0
M  V30 771 H 80.4033 -0.43398 -1.78294 0
M  V30 772 H 78.7853 1.32896 -3.73035 0
M  V30 773 H 79.9593 -1.45723 -4.37151 0
M  V30 774 H 78.2743 -1.1658 -3.99748 0
M  V30 775 H 80.8713 1.35515 -5.17242 0
M  V30 776 H 81.2143 2.06575 -3.61431 0
M  V30 777 H 81.7473 0.402032 -3.95763 0
M  V30 778 H 78.4863 -1.30076 -6.42464 0
M  V30 779 H 78.0063 0.355094 -5.98748 0
M  V30 780 H 79.6853 0.00800157 -6.47 0
M  V30 781 N 79.8174 1.5752 -0.0501392 0
M  V30 782 C 81.0634 1.92936 0.624798 0
M  V30 783 C 81.3964 0.928685 1.70555 0
M  V30 784 O 80.6714 -0.0454779 1.94447 0
M  V30 785 C 80.9544 3.38737 1.22185 0
M  V30 786 C 80.8074 4.49552 0.149218 0
M  V30 787 C 82.1264 3.84913 2.13378 0
M  V30 788 H 79.2454 0.701604 0.225657 0
M  V30 789 H 81.8874 1.89671 -0.111693 0
M  V30 790 H 80.0374 3.4165 1.84953 0
M  V30 791 H 81.7094 4.58768 -0.482648 0
M  V30 792 H 79.9524 4.30638 -0.522841 0
M  V30 793 H 80.6234 5.48653 0.606966 0
M  V30 794 H 83.0994 3.8387 1.60572 0
M  V30 795 H 81.9754 4.87584 2.52097 0
M  V30 796 H 82.2364 3.21611 3.03346 0
M  V30 797 N 81.2955 -0.223234 1.56011 0
M  V30 798 C 82.5235 -0.964812 1.83027 0
M  V30 799 C 82.9385 -1.78013 0.62904 0
M  V30 800 O 82.2955 -1.78008 -0.402414 0
M  V30 801 C 82.3465 -1.88373 3.08542 0
M  V30 802 O 82.0675 -1.10137 4.2403 0
M  V30 803 C 83.5685 -2.73934 3.48533 0
M  V30 804 H 80.7885 -0.282842 0.608475 0
M  V30 805 H 83.3325 -0.238971 2.03099 0
M  V30 806 H 81.4875 -2.56354 2.9045 0
M  V30 807 H 81.9015 -1.72501 4.95322 0
M  V30 808 H 83.3755 -3.34117 4.39397 0
M  V30 809 H 83.8525 -3.46244 2.70207 0
M  V30 810 H 84.4585 -2.11369 3.69057 0
M  V30 811 N 82.7736 -1.49793 -0.48987 0
M  V30 812 C 83.7366 -1.66752 -1.57246 0
M  V30 813 C 84.7366 -0.538867 -1.51502 0
M  V30 814 O 85.9266 -0.805545 -1.54456 0
M  V30 815 C 83.0586 -1.67528 -2.96896 0
M  V30 816 H 84.2516 -2.63321 -1.43534 0
M  V30 817 H 81.8046 -1.38992 -0.714914 0
M  V30 818 H 82.5396 -0.725837 -3.16073 0
M  V30 819 H 82.3246 -2.49504 -3.02473 0
M  V30 820 H 83.8146 -1.82667 -3.7553 0
M  V30 821 N 84.2517 0.741722 -1.39055 0
M  V30 822 C 85.4997 1.49818 -1.35643 0
M  V30 823 C 85.8207 1.94938 0.0491642 0
M  V30 824 O 85.0907 1.68505 0.999141 0
M  V30 825 H 83.6707 0.555755 -0.499144 0
M  V30 826 H 86.3327 0.880957 -1.73854 0
M  V30 827 H 85.4287 2.38348 -2.01486 0
M  V30 828 N 85.7298 1.2412 0.971189 0
M  V30 829 C 86.6928 1.03156 2.04674 0
M  V30 830 C 87.6928 -0.00990322 1.60797 0
M  V30 831 O 88.8828 0.230729 1.72665 0
M  V30 832 C 86.0148 0.562765 3.36223 0
M  V30 833 H 87.2078 1.98614 2.24705 0
M  V30 834 H 84.7608 1.06293 1.14593 0
M  V30 835 H 85.4958 -0.395176 3.21883 0
M  V30 836 H 85.2808 1.31441 3.69413 0
M  V30 837 H 86.7708 0.437015 4.15307 0
M  V30 838 N 87.2079 -1.17134 1.05439 0
M  V30 839 C 88.4849 -1.83411 0.679699 0
M  V30 840 C 88.8649 -1.9368 -0.839726 0
M  V30 841 O 88.2129 -1.47325 -1.74664 0
M  V30 842 C 88.4229 -3.20918 1.37159 0
M  V30 843 C 89.7709 -3.96796 1.51123 0
M  V30 844 O 90.7949 -3.30406 1.3308 0
M  V30 845 O 89.6539 -5.15778 1.80651 0
M  V30 846 H 86.7479 -0.79154 0.239569 0
M  V30 847 H 89.2939 -1.24411 1.15413 0
M  V30 848 H 88.0659 -3.08428 2.40807 0
M  V30 849 H 87.6889 -3.87587 0.886674 0
M  V30 850 N 88.686 -0.835752 -1.33615 0
M  V30 851 C 89.934 -0.429109 -1.97492 0
M  V30 852 C 90.255 1.01433 -1.66543 0
M  V30 853 O 89.525 1.70611 -0.962744 0
M  V30 854 H 88.105 -0.155686 -0.730596 0
M  V30 855 H 90.767 -1.06802 -1.63031 0
M  V30 856 H 89.863 -0.55861 -3.0706 0
M  V30 857 N 90.1641 1.46063 -0.591896 0
M  V30 858 C 91.1271 2.28854 0.125973 0
M  V30 859 C 92.1271 1.38903 0.810107 0
M  V30 860 O 93.3171 1.61186 0.66066 0
M  V30 861 C 90.4491 3.19526 1.1881 0
M  V30 862 H 91.6421 2.93802 -0.601717 0
M  V30 863 H 89.1951 1.52325 -0.350254 0
M  V30 864 H 89.9301 2.59345 1.94707 0
M  V30 865 H 89.7151 3.85766 0.701936 0
M  V30 866 H 91.2051 3.81817 1.69132 0
M  V30 867 N 91.6422 0.330177 1.54103 0
M  V30 868 C 92.5722 -0.525353 2.27513 0
M  V30 869 C 93.5532 -1.11383 1.2856 0
M  V30 870 O 94.7382 -1.13773 1.57383 0
M  V30 871 C 91.8682 -1.6831 3.03791 0
M  V30 872 C 90.8222 -1.2236 4.10137 0
M  V30 873 C 90.1482 -2.46882 4.74293 0
M  V30 874 C 91.4482 -0.333697 5.21233 0
M  V30 875 H 93.1422 0.087013 2.99274 0
M  V30 876 H 90.6882 0.0432893 1.43935 0
M  V30 877 H 92.6412 -2.28795 3.5388 0
M  V30 878 H 91.3652 -2.32216 2.29659 0
M  V30 879 H 90.0242 -0.64165 3.60941 0
M  V30 880 H 89.6722 -3.09165 3.96769 0
M  V30 881 H 89.3722 -2.16825 5.46133 0
M  V30 882 H 90.8962 -3.08117 5.27159 0
M  V30 883 H 92.3102 -0.845013 5.67038 0
M  V30 884 H 90.7072 -0.125612 5.99969 0
M  V30 885 H 91.7772 0.633724 4.80741 0
M  V30 886 N 93.1203 -1.57491 0.0584922 0
M  V30 887 C 94.3483 -1.97296 -0.623037 0
M  V30 888 C 94.7633 -0.936338 -1.63946 0
M  V30 889 O 94.1203 0.0785981 -1.82331 0
M  V30 890 C 94.1713 -3.37183 -1.30345 0
M  V30 891 O 93.8923 -4.36872 -0.32773 0
M  V30 892 C 95.3933 -3.91788 -2.07406 0
M  V30 893 H 92.6133 -0.649153 -0.169826 0
M  V30 894 H 95.1573 -2.04106 0.12696 0
M  V30 895 H 93.3123 -3.31502 -2.00463 0
M  V30 896 H 93.7263 -5.18141 -0.814269 0
M  V30 897 H 95.2003 -4.91926 -2.50425 0
M  V30 898 H 95.6773 -3.27609 -2.92521 0
M  V30 899 H 96.2833 -4.00829 -1.42184 0
M  V30 900 N 94.5984 0.214957 -1.56127 0
M  V30 901 C 95.8464 0.936518 -1.79091 0
M  V30 902 C 96.1674 1.84606 -0.628148 0
M  V30 903 O 95.4374 1.92664 0.35462 0
M  V30 904 H 94.0174 0.3488 -0.660566 0
M  V30 905 H 96.6794 0.22523 -1.93594 0
M  V30 906 H 95.7754 1.53943 -2.71492 0
M  V30 907 N 96.0765 1.50051 0.48192 0
M  V30 908 C 97.3045 1.64237 1.25832 0
M  V30 909 C 97.7195 0.321336 1.86045 0
M  V30 910 O 97.0765 -0.695478 1.68729 0
M  V30 911 C 97.1275 2.72548 2.37487 0
M  V30 912 O 96.8485 3.99529 1.79745 0
M  V30 913 C 98.3495 2.9761 3.28547 0
M  V30 914 H 95.5695 0.55237 0.380957 0
M  V30 915 H 98.1135 1.96207 0.576467 0
M  V30 916 H 96.2685 2.43303 3.01467 0
M  V30 917 H 96.6825 4.59342 2.5319 0
M  V30 918 H 98.1565 3.77084 4.03127 0
M  V30 919 H 98.6335 2.0826 3.86684 0
M  V30 920 H 99.2395 3.28345 2.70314 0
M  V30 921 N 97.5546 -0.734337 1.39446 0
M  V30 922 C 98.7846 -1.52137 1.39778 0
M  V30 923 C 99.1926 -1.89198 -0.00929312 0
M  V30 924 O 98.5356 -1.54666 -0.991168 0
M  V30 925 C 98.5976 -2.83762 2.20724 0
M  V30 926 C 98.2616 -2.69131 3.69347 0
M  V30 927 C 99.2586 -2.37635 4.62413 0
M  V30 928 C 96.9436 -2.85982 4.1294 0
M  V30 929 C 98.9376 -2.23172 5.97054 0
M  V30 930 C 96.6246 -2.71137 5.47657 0
M  V30 931 C 97.6226 -2.39777 6.39528 0
M  V30 932 O 97.3106 -2.25026 7.71763 0
M  V30 933 H 97.0426 -0.476717 0.479288 0
M  V30 934 H 99.5966 -0.915012 1.83893 0
M  V30 935 H 97.8266 -3.4666 1.71359 0
M  V30 936 H 99.5156 -3.45383 2.13226 0
M  V30 937 H 100.282 -2.24267 4.30034 0
M  V30 938 H 96.1606 -3.09383 3.41765 0
M  V30 939 H 99.7046 -1.98617 6.68728 0
M  V30 940 H 95.6016 -2.84083 5.79626 0
M  V30 941 H 96.3696 -2.40091 7.82495 0
M  V30 942 N 99.0327 -1.24633 -0.964593 0
M  V30 943 C 99.9427 -1.05859 -2.09359 0
M  V30 944 C 100.959 0.00148855 -1.74 0
M  V30 945 O 102.135 -0.197346 -2.00431 0
M  V30 946 C 99.1997 -0.668879 -3.40187 0
M  V30 947 C 98.2607 -1.80578 -3.89474 0
M  V30 948 C 97.4937 -1.43457 -5.14058 0
M  V30 949 O 97.7167 -0.325775 -5.69469 0
M  V30 950 O 96.6507 -2.2613 -5.57807 0
M  V30 951 H 100.477 -2.00516 -2.28094 0
M  V30 952 H 98.0617 -1.03481 -1.0776 0
M  V30 953 H 99.9437 -0.463211 -4.18846 0
M  V30 954 H 98.6187 0.248536 -3.22744 0
M  V30 955 H 97.5257 -2.06623 -3.11862 0
M  V30 956 H 98.8587 -2.70208 -4.11398 0
M  V30 957 N 100.511 1.16574 -1.06058 0
M  V30 958 C 101.736 1.91493 -0.796562 0
M  V30 959 C 102.161 1.76773 0.642868 0
M  V30 960 O 101.519 1.09142 1.44768 0
M  V30 961 C 101.567 3.40293 -1.19303 0
M  V30 962 O 100.671 4.11074 -0.330394 0
M  V30 963 H 100.012 0.596678 -0.291326 0
M  V30 964 H 102.542 1.47708 -1.41575 0
M  V30 965 H 102.552 3.91057 -1.16356 0
M  V30 966 H 101.227 3.50326 -2.24153 0
M  V30 967 H 99.8038 3.70513 -0.421225 0
M  V30 968 N 101.989 0.842826 1.3317 0
M  V30 969 C 102.952 0.284065 2.27433 0
M  V30 970 C 103.952 -0.54948 1.5112 0
M  V30 971 O 105.142 -0.362699 1.70382 0
M  V30 972 C 102.274 -0.599384 3.35589 0
M  V30 973 H 103.467 1.11589 2.78366 0
M  V30 974 H 101.02 0.616221 1.4364 0
M  V30 975 H 101.755 -1.45349 2.89904 0
M  V30 976 H 101.54 -0.00291266 3.921 0
M  V30 977 H 103.03 -0.983488 4.05854 0
M  V30 978 N 103.467 -1.45747 0.599634 0
M  V30 979 C 104.713 -2.02592 0.0918643 0
M  V30 980 C 105.046 -1.46806 -1.27128 0
M  V30 981 O 104.321 -0.639658 -1.83681 0
M  V30 982 C 104.604 -3.60073 0.0443398 0
M  V30 983 C 104.457 -4.26208 1.43759 0
M  V30 984 C 105.776 -4.35309 -0.647608 0
M  V30 985 H 102.895 -0.736175 0.034857 0
M  V30 986 H 105.537 -1.73694 0.770081 0
M  V30 987 H 103.687 -3.84823 -0.533224 0
M  V30 988 H 105.359 -4.12668 2.06162 0
M  V30 989 H 103.602 -3.84916 2.00056 0
M  V30 990 H 104.273 -5.35069 1.35665 0
M  V30 991 H 106.749 -4.15805 -0.156776 0
M  V30 992 H 105.625 -5.45038 -0.649942 0
M  V30 993 H 105.886 -4.07598 -1.71219 0
M  V30 994 N 104.945 -0.338344 -1.53925 0
M  V30 995 C 106.193 0.259245 -2.0043 0
M  V30 996 C 106.514 1.51484 -1.22791 0
M  V30 997 O 105.784 1.93037 -0.33368 0
M  V30 998 H 104.364 0.0987845 -0.740439 0
M  V30 999 H 107.026 -0.458302 -1.89435 0
M  V30 1000 H 106.122 0.505334 -3.07982 0
M  V30 1001 N 106.423 1.57458 -0.0668435 0
M  V30 1002 C 107.371 2.13639 0.919851 0
M  V30 1003 C 108.365 1.07204 1.31163 0
M  V30 1004 O 109.571 1.25591 1.28945 0
M  V30 1005 H 105.946 0.683048 0.314562 0
M  V30 1006 H 107.917 2.95415 0.421047 0
M  V30 1007 C 106.666 2.70892 2.17975 0
M  V30 1008 H 105.989 3.5246 1.88711 0
M  V30 1009 H 107.429 3.13803 2.85138 0
M  V30 1010 C 105.888 1.65414 2.93496 0
M  V30 1011 O 106.418 1.07619 3.87015 0
M  V30 1012 N 104.624 1.36564 2.56512 0
M  V30 1013 H 104.171 1.83751 1.80536 0
M  V30 1014 H 104.129 0.66223 3.07347 0
M  V30 1015 N 107.901 -0.206675 1.56239 0
M  V30 1016 C 108.864 -1.23976 1.92776 0
M  V30 1017 C 109.864 -1.39041 0.807729 0
M  V30 1018 O 111.054 -1.37051 1.0753 0
M  V30 1019 C 108.186 -2.61112 2.19165 0
M  V30 1020 H 109.379 -0.927764 2.85189 0
M  V30 1021 H 106.932 -0.447718 1.4975 0
M  V30 1022 H 107.667 -2.97386 1.29352 0
M  V30 1023 H 107.452 -2.51552 3.00772 0
M  V30 1024 H 108.942 -3.35633 2.48476 0
M  V30 1025 N 109.379 -1.50304 -0.473955 0
M  V30 1026 C 110.289 -1.7174 -1.5982 0
M  V30 1027 C 111.305 -0.600457 -1.63311 0
M  V30 1028 O 112.481 -0.878441 -1.81233 0
M  V30 1029 C 109.546 -1.80427 -2.96052 0
M  V30 1030 C 108.607 -3.04148 -3.02972 0
M  V30 1031 C 107.84 -3.12411 -4.32706 0
M  V30 1032 O 108.063 -2.27542 -5.23049 0
M  V30 1033 O 106.997 -4.05113 -4.45159 0
M  V30 1034 H 110.823 -2.67035 -1.44657 0
M  V30 1035 H 108.408 -1.34366 -0.653148 0
M  V30 1036 H 110.29 -1.88338 -3.7697 0
M  V30 1037 H 108.965 -0.883156 -3.11419 0
M  V30 1038 H 107.872 -3.0174 -2.21142 0
M  V30 1039 H 109.205 -3.95829 -2.92541 0
M  V30 1040 N 110.857 0.726932 -1.39834 0
M  V30 1041 C 112.082 1.52121 -1.40976 0
M  V30 1042 C 112.507 1.88098 -0.00826029 0
M  V30 1043 O 111.865 1.52479 0.980807 0
M  V30 1044 C 111.913 2.78021 -2.29644 0
M  V30 1045 O 111.017 3.74272 -1.73188 0
M  V30 1046 H 110.358 0.45908 -0.479731 0
M  V30 1047 H 112.888 0.896207 -1.83927 0
M  V30 1048 H 112.898 3.26671 -2.44438 0
M  V30 1049 H 111.573 2.51169 -3.31492 0
M  V30 1050 H 110.15 3.33073 -1.6768 0
M  V30 1051 N 112.336 1.25143 0.95797 0
M  V30 1052 C 113.752 1.01892 1.22842 0
M  V30 1053 C 113.952 -0.266311 1.99732 0
M  V30 1054 O 113.008 -0.979913 2.3271 0
M  V30 1055 C 114.321 2.24004 2.00606 0
M  V30 1056 C 115.869 2.28731 2.13662 0
M  V30 1057 C 116.344 3.5049 2.94823 0
M  V30 1058 N 117.835 3.50866 3.02403 0
M  V30 1059 C 118.57 4.4174 3.65586 0
M  V30 1060 N 118.066 5.42882 4.30408 0
M  V30 1061 N 119.859 4.29429 3.62694 0
M  V30 1062 H 112.01 2.07718 0.443493 0
M  V30 1063 H 114.273 0.912031 0.258657 0
M  V30 1064 H 113.979 3.17395 1.51503 0
M  V30 1065 H 113.853 2.26907 3.01319 0
M  V30 1066 H 116.24 1.35865 2.61963 0
M  V30 1067 H 116.321 2.29848 1.12265 0
M  V30 1068 H 115.965 4.43676 2.47213 0
M  V30 1069 H 115.895 3.46617 3.96439 0
M  V30 1070 H 118.386 2.777 2.56302 0
M  V30 1071 H 118.699 6.0844 4.76467 0
M  V30 1072 H 117.044 5.46758 4.29047 0
M  V30 1073 H 120.235 3.49643 3.11236 0
M  V30 1074 H 120.408 5.00448 4.1165 0
M  V30 1075 N 113.814 -1.1601 1.06675 0
M  V30 1076 C 115.044 -1.90251 0.805497 0
M  V30 1077 C 115.452 -1.77891 -0.64431 0
M  V30 1078 O 114.795 -1.12383 -1.45313 0
M  V30 1079 C 114.857 -3.41419 1.12576 0
M  V30 1080 C 114.521 -3.77564 2.57477 0
M  V30 1081 C 115.518 -3.79161 3.55715 0
M  V30 1082 C 113.203 -4.08079 2.92877 0
M  V30 1083 C 115.197 -4.10767 4.8739 0
M  V30 1084 C 112.884 -4.39351 4.24751 0
M  V30 1085 C 113.882 -4.40675 5.21818 0
M  V30 1086 O 113.57 -4.71202 6.51325 0
M  V30 1087 H 113.302 -0.610018 0.291297 0
M  V30 1088 H 115.856 -1.47958 1.4247 0
M  V30 1089 H 114.086 -3.84079 0.449503 0
M  V30 1090 H 115.775 -3.9694 0.84814 0
M  V30 1091 H 116.541 -3.55693 3.29708 0
M  V30 1092 H 112.42 -4.06211 2.17976 0
M  V30 1093 H 115.964 -4.11715 5.63148 0
M  V30 1094 H 111.861 -4.62285 4.50514 0
M  V30 1095 H 112.629 -4.88996 6.56373 0
M  V30 1096 N 115.292 -0.849877 -1.32721 0
M  V30 1097 C 116.538 -0.451591 -1.97708 0
M  V30 1098 C 116.871 0.989175 -1.6712 0
M  V30 1099 O 116.146 1.69334 -0.956891 0
M  V30 1100 C 116.429 -0.685598 -3.53513 0
M  V30 1101 C 116.282 -2.17444 -3.93749 0
M  V30 1102 C 117.601 -0.138874 -4.39881 0
M  V30 1103 H 114.72 -0.16555 -0.718166 0
M  V30 1104 H 117.362 -1.06742 -1.57182 0
M  V30 1105 H 115.512 -0.161416 -3.88165 0
M  V30 1106 H 117.184 -2.76433 -3.693 0
M  V30 1107 H 115.427 -2.65476 -3.43081 0
M  V30 1108 H 116.098 -2.28888 -5.02309 0
M  V30 1109 H 118.574 -0.587068 -4.11938 0
M  V30 1110 H 117.45 -0.332213 -5.47894 0
M  V30 1111 H 117.711 0.95806 -4.31594 0
M  V30 1112 N 116.77 1.45427 -0.607355 0
M  V30 1113 C 117.7 2.3329 0.0989352 0
M  V30 1114 C 118.681 1.46816 0.859007 0
M  V30 1115 O 119.866 1.75588 0.829604 0
M  V30 1116 C 116.996 3.29518 1.09705 0
M  V30 1117 C 115.95 4.25626 0.450206 0
M  V30 1118 C 115.276 5.11542 1.55655 0
M  V30 1119 C 116.576 5.18505 -0.628455 0
M  V30 1120 H 118.27 2.92595 -0.634716 0
M  V30 1121 H 115.816 1.40696 -0.306681 0
M  V30 1122 H 117.769 3.89855 1.59971 0
M  V30 1123 H 116.493 2.68372 1.86129 0
M  V30 1124 H 115.152 3.66586 -0.0315886 0
M  V30 1125 H 114.8 4.46765 2.31107 0
M  V30 1126 H 114.5 5.76647 1.12925 0
M  V30 1127 H 116.024 5.74748 2.06148 0
M  V30 1128 H 117.438 5.72916 -0.209877 0
M  V30 1129 H 115.835 5.92085 -0.977489 0
M  V30 1130 H 116.905 4.60948 -1.50514 0
M  V30 1131 N 118.248 0.346503 1.53744 0
M  V30 1132 C 119.476 -0.25041 2.05379 0
M  V30 1133 C 119.891 -1.43979 1.22129 0
M  V30 1134 O 119.248 -1.80677 0.257321 0
M  V30 1135 C 119.299 -0.662575 3.55376 0
M  V30 1136 O 119.02 0.479515 4.35468 0
M  V30 1137 C 120.521 -1.31989 4.23195 0
M  V30 1138 H 117.741 -0.0478198 0.669294 0
M  V30 1139 H 120.285 0.499346 1.9831 0
M  V30 1140 H 118.44 -1.36227 3.62658 0
M  V30 1141 H 118.854 0.15037 5.24284 0
M  V30 1142 H 120.328 -1.55902 5.29527 0
M  V30 1143 H 120.805 -2.27436 3.75725 0
M  V30 1144 H 121.411 -0.662154 4.20114 0
M  V30 1145 N 119.726 -1.57421 0.075193 0
M  V30 1146 C 120.974 -1.93236 -0.591974 0
M  V30 1147 C 121.295 -0.956241 -1.69944 0
M  V30 1148 O 120.565 -0.00494792 -1.95899 0
M  V30 1149 H 119.145 -0.713355 -0.22166 0
M  V30 1150 H 121.807 -1.9444 0.133848 0
M  V30 1151 H 120.903 -2.95131 -1.01509 0
M  V30 1152 N 121.204 0.198386 -1.56346 0
M  V30 1153 C 122.62 0.549085 -1.49857 0
M  V30 1154 C 122.82 1.86016 -0.774611 0
M  V30 1155 O 121.876 2.50416 -0.323776 0
M  V30 1156 C 123.189 0.606868 -2.94512 0
M  V30 1157 C 124.737 0.695925 -3.05165 0
M  V30 1158 C 125.212 0.784848 -4.51225 0
M  V30 1159 N 126.703 0.848463 -4.55363 0
M  V30 1160 C 127.438 0.937378 -5.65686 0
M  V30 1161 N 126.934 0.9888 -6.85707 0
M  V30 1162 N 128.727 0.974312 -5.53592 0
M  V30 1163 H 120.878 -0.661655 -2.01831 0
M  V30 1164 H 123.141 -0.235261 -0.918344 0
M  V30 1165 H 122.847 -0.28732 -3.50524 0
M  V30 1166 H 122.721 1.46268 -3.47686 0
M  V30 1167 H 125.108 1.58055 -2.49204 0
M  V30 1168 H 125.189 -0.186022 -2.55123 0
M  V30 1169 H 124.833 -0.0954072 -5.0781 0
M  V30 1170 H 124.763 1.68255 -4.98997 0
M  V30 1171 H 127.254 0.818103 -3.68938 0
M  V30 1172 H 127.567 1.05707 -7.65536 0
M  V30 1173 H 125.912 0.957534 -6.88372 0
M  V30 1174 H 129.103 0.930954 -4.58749 0
M  V30 1175 H 129.276 1.04015 -6.39597 0
M  V30 1176 N 122.682 1.50554 0.465978 0
M  V30 1177 C 123.912 1.65323 1.23903 0
M  V30 1178 C 124.32 0.338051 1.86155 0
M  V30 1179 O 123.663 -0.690518 1.70228 0
M  V30 1180 C 123.725 2.69048 2.3844 0
M  V30 1181 C 123.389 4.12462 1.96784 0
M  V30 1182 C 124.386 4.98168 1.48745 0
M  V30 1183 C 122.071 4.58407 2.05349 0
M  V30 1184 C 124.065 6.27868 1.0982 0
M  V30 1185 C 121.752 5.88112 1.66035 0
M  V30 1186 C 122.75 6.72668 1.18349 0
M  V30 1187 O 122.438 7.99951 0.795825 0
M  V30 1188 H 122.17 0.558629 0.38067 0
M  V30 1189 H 124.724 1.97561 0.562022 0
M  V30 1190 H 122.954 2.32062 3.09328 0
M  V30 1191 H 124.643 2.72985 3.0039 0
M  V30 1192 H 125.409 4.63885 1.41546 0
M  V30 1193 H 121.288 3.92735 2.41414 0
M  V30 1194 H 124.832 6.93819 0.725293 0
M  V30 1195 H 120.729 6.21914 1.72895 0
M  V30 1196 H 121.497 8.13265 0.924222 0
M  V30 1197 N 124.16 -0.719506 1.40217 0
M  V30 1198 C 125.437 -1.47221 1.28784 0
M  V30 1199 C 125.817 -2.10883 -0.0956067 0
M  V30 1200 O 125.165 -1.99833 -1.10811 0
M  V30 1201 C 125.375 -2.5111 2.42373 0
M  V30 1202 C 126.723 -3.17053 2.82423 0
M  V30 1203 O 127.747 -2.61429 2.41937 0
M  V30 1204 O 126.606 -4.17742 3.52355 0
M  V30 1205 H 123.7 -0.654491 0.50554 0
M  V30 1206 H 126.246 -0.752014 1.52128 0
M  V30 1207 H 125.018 -2.02556 3.34793 0
M  V30 1208 H 124.641 -3.3067 2.20778 0
M  V30 1209 N 125.638 -1.25649 -0.95132 0
M  V30 1210 C 126.863 -1.13443 -1.73624 0
M  V30 1211 C 127.288 0.307565 -1.85568 0
M  V30 1212 O 126.646 1.22282 -1.33854 0
M  V30 1213 C 126.694 -1.79723 -3.12621 0
M  V30 1214 O 125.798 -1.07912 -3.98031 0
M  V30 1215 H 125.139 -0.395872 -0.533086 0
M  V30 1216 H 127.669 -1.66276 -1.1922 0
M  V30 1217 H 127.679 -1.86141 -3.63064 0
M  V30 1218 H 126.354 -2.84633 -3.03244 0
M  V30 1219 H 124.931 -1.09398 -3.56492 0
M  V30 1220 N 127.117 1.15442 -1.07289 0
M  V30 1221 C 128.08 2.18358 -0.696591 0
M  V30 1222 C 129.08 1.58637 0.262837 0
M  V30 1223 O 130.27 1.74145 0.0438809 0
M  V30 1224 C 127.402 3.4089 -0.0266151 0
M  V30 1225 H 128.595 2.53162 -1.60776 0
M  V30 1226 H 126.148 1.29893 -0.869342 0
M  V30 1227 H 126.883 3.11653 0.896822 0
M  V30 1228 H 126.668 3.85495 -0.716657 0
M  V30 1229 H 128.158 4.17009 0.222028 0
M  V30 1230 N 128.595 0.856903 1.32268 0
M  V30 1231 C 130.006 0.515711 1.79436 0
M  V30 1232 C 130.357 -0.966586 1.70738 0
M  V30 1233 O 129.482 -1.75409 1.26731 0
M  V30 1234 C 130.077 0.929335 3.25805 0
M  V30 1235 C 128.636 0.640006 3.70919 0
M  V30 1236 C 127.783 1.12784 2.53328 0
M  V30 1237 H 130.734 1.04389 1.19535 0
M  V30 1238 H 130.755 0.246633 3.797 0
M  V30 1239 H 130.267 2.00821 3.32103 0
M  V30 1240 H 128.368 -0.428051 3.70133 0
M  V30 1241 H 128.481 1.20788 4.63624 0
M  V30 1242 H 126.845 0.548033 2.48734 0
M  V30 1243 H 127.628 2.21387 2.62379 0
M  V30 1244 N 130.073 -1.45103 0.615059 0
M  V30 1245 C 131.036 -2.29025 -0.0895485 0
M  V30 1246 C 132.036 -1.40174 -0.787906 0
M  V30 1247 O 133.226 -1.62217 -0.634933 0
M  V30 1248 C 130.358 -3.21376 -1.13711 0
M  V30 1249 H 131.551 -2.92807 0.648382 0
M  V30 1250 H 129.104 -1.51749 0.374444 0
M  V30 1251 H 129.839 -2.6241 -1.90556 0
M  V30 1252 H 129.624 -3.86834 -0.640475 0
M  V30 1253 H 131.114 -3.84459 -1.63036 0
M  V30 1254 N 131.551 -0.354651 -1.53558 0
M  V30 1255 C 132.779 0.239515 -2.05509 0
M  V30 1256 C 133.194 1.4333 -1.2289 0
M  V30 1257 O 132.551 1.80538 -0.266899 0
M  V30 1258 C 132.602 0.643719 -3.55723 0
M  V30 1259 O 132.323 -0.502602 -4.35207 0
M  V30 1260 C 133.824 1.29743 -4.23889 0
M  V30 1261 H 131.044 0.0442697 -0.669538 0
M  V30 1262 H 133.588 -0.509856 -1.98042 0
M  V30 1263 H 131.743 1.34302 -3.63376 0
M  V30 1264 H 132.157 -0.178172 -5.24197 0
M  V30 1265 H 133.631 1.53091 -5.30346 0
M  V30 1266 H 134.108 2.25441 -3.76926 0
M  V30 1267 H 134.714 0.639865 -4.20459 0
M  V30 1268 N 133.029 1.57378 -0.0835403 0
M  V30 1269 C 134.306 1.85363 0.624507 0
M  V30 1270 C 134.686 0.978239 1.87066 0
M  V30 1271 O 134.034 0.0475908 2.2845 0
M  V30 1272 C 134.244 3.35795 0.950947 0
M  V30 1273 C 135.592 4.03581 1.31939 0
M  V30 1274 O 136.616 3.40609 1.04232 0
M  V30 1275 O 135.475 5.14672 1.83779 0
M  V30 1276 H 132.569 0.766162 0.311329 0
M  V30 1277 H 135.115 1.69307 -0.115362 0
M  V30 1278 H 133.887 3.91244 0.0663899 0
M  V30 1279 H 133.51 3.57154 1.74719 0
M  V30 1280 N 134.507 -0.190092 1.56449 0
M  V30 1281 C 135.755 -0.907908 1.80559 0
M  V30 1282 C 136.076 -1.83583 0.657438 0
M  V30 1283 O 135.346 -1.93203 -0.323924 0
M  V30 1284 H 133.926 -0.338247 0.666032 0
M  V30 1285 H 136.588 -0.194403 1.93928 0
M  V30 1286 H 135.684 -1.49604 2.73907 0
M  V30 1287 N 135.985 -1.50799 -0.457987 0
M  V30 1288 C 137.21 -1.66496 -1.23668 0
M  V30 1289 C 137.635 -0.353288 -1.84752 0
M  V30 1290 O 136.993 0.684346 -1.67888 0
M  V30 1291 C 137.041 -2.76763 -2.3116 0
M  V30 1292 O 136.145 -2.38928 -3.36136 0
M  V30 1293 H 135.486 -0.555828 -0.363252 0
M  V30 1294 H 138.016 -1.9725 -0.543474 0
M  V30 1295 H 138.026 -3.00232 -2.76269 0
M  V30 1296 H 136.701 -3.71954 -1.86073 0
M  V30 1297 H 135.278 -2.25953 -2.96647 0
M  V30 1298 N 137.463 0.71206 -1.40597 0
M  V30 1299 C 138.711 1.46907 -1.38791 0
M  V30 1300 C 139.032 1.94998 0.00780391 0
M  V30 1301 O 138.302 1.70587 0.963174 0
M  V30 1302 H 136.882 0.545043 -0.51082 0
M  V30 1303 H 139.544 0.843882 -1.75683 0
M  V30 1304 H 138.64 2.34021 -2.06496 0
M  V30 1305 N 138.941 1.26152 0.944643 0
M  V30 1306 C 140.169 1.14259 1.72489 0
M  V30 1307 C 140.584 -0.302555 1.8636 0
M  V30 1308 O 139.941 -1.20741 1.36849 0
M  V30 1309 C 139.992 1.80266 3.13347 0
M  V30 1310 O 139.713 3.19133 3.00143 0
M  V30 1311 C 141.214 1.74283 4.07603 0
M  V30 1312 H 138.434 0.398051 0.540181 0
M  V30 1313 H 140.978 1.66706 1.18446 0
M  V30 1314 H 139.133 1.31766 3.64303 0
M  V30 1315 H 139.547 3.51744 3.89071 0
M  V30 1316 H 141.021 2.25111 5.04013 0
M  V30 1317 H 141.498 0.708631 4.33446 0
M  V30 1318 H 142.104 2.22319 3.62567 0
M  V30 1319 N 140.419 -1.14872 1.07899 0
M  V30 1320 C 141.382 -2.17986 0.708161 0
M  V30 1321 C 142.382 -1.58775 -0.25442 0
M  V30 1322 O 143.572 -1.74166 -0.034645 0
M  V30 1323 C 140.704 -3.40871 0.0446929 0
M  V30 1324 H 141.897 -2.52306 1.62116 0
M  V30 1325 H 139.45 -1.2943 0.876218 0
M  V30 1326 H 140.185 -3.12124 -0.880281 0
M  V30 1327 H 139.97 -3.8511 0.737091 0
M  V30 1328 H 141.46 -4.17121 -0.19991 0
M  V30 1329 N 141.898 -0.863906 -1.31812 0
M  V30 1330 C 142.828 -0.330843 -2.31144 0
M  V30 1331 C 143.809 0.575005 -1.60087 0
M  V30 1332 O 144.994 0.493304 -1.8783 0
M  V30 1333 C 142.124 0.47374 -3.44054 0
M  V30 1334 C 141.078 -0.338481 -4.26659 0
M  V30 1335 C 140.404 0.591412 -5.31419 0
M  V30 1336 C 141.704 -1.56926 -4.98168 0
M  V30 1337 H 143.398 -1.16086 -2.75979 0
M  V30 1338 H 140.944 -0.559657 -1.32679 0
M  V30 1339 H 142.897 0.857143 -4.12591 0
M  V30 1340 H 141.621 1.33721 -2.9797 0
M  V30 1341 H 140.28 -0.703754 -3.59782 0
M  V30 1342 H 139.928 1.45199 -4.81587 0
M  V30 1343 H 139.628 0.0519022 -5.87577 0
M  V30 1344 H 141.152 0.97179 -6.02817 0
M  V30 1345 H 142.566 -1.25764 -5.59336 0
M  V30 1346 H 140.963 -2.04739 -5.64094 0
M  V30 1347 H 142.033 -2.32544 -4.25501 0
M  V30 1348 N 143.376 1.44774 -0.622745 0
M  V30 1349 C 144.624 2.01721 -0.123655 0
M  V30 1350 C 144.945 1.49172 1.25589 0
M  V30 1351 O 144.215 0.691974 1.83272 0
M  V30 1352 H 142.795 0.745777 -0.0427225 0
M  V30 1353 H 145.457 1.77382 -0.807559 0
M  V30 1354 H 144.553 3.11984 -0.0849534 0
M  V30 1355 N 144.854 0.36279 1.53368 0
M  V30 1356 C 146.1 -0.220702 2.02199 0
M  V30 1357 C 146.455 -1.46649 1.24546 0
M  V30 1358 O 145.748 -1.88737 0.32996 0
M  V30 1359 C 145.942 -0.568417 3.52851 0
M  V30 1360 C 145.771 0.642126 4.45092 0
M  V30 1361 C 144.541 1.15335 4.91961 0
M  V30 1362 C 146.739 1.50649 4.91741 0
M  V30 1363 N 144.721 2.3242 5.68202 0
M  V30 1364 C 146.092 2.52404 5.66297 0
M  V30 1365 C 148.147 1.52969 4.73819 0
M  V30 1366 C 146.85 3.56331 6.24836 0
M  V30 1367 C 148.876 2.55789 5.33222 0
M  V30 1368 C 148.238 3.56268 6.07662 0
M  V30 1369 H 144.337 -0.0435508 0.780786 0
M  V30 1370 H 146.921 0.506704 1.87991 0
M  V30 1371 H 145.092 -1.2649 3.67226 0
M  V30 1372 H 146.824 -1.13676 3.88407 0
M  V30 1373 H 143.579 0.718412 4.68119 0
M  V30 1374 H 144.003 2.91591 6.10986 0
M  V30 1375 H 148.645 0.766418 4.15795 0
M  V30 1376 H 146.363 4.33543 6.81958 0
M  V30 1377 H 149.949 2.58435 5.21251 0
M  V30 1378 H 148.829 4.34524 6.52808 0
M  V30 1379 N 146.332 -1.57332 0.0918853 0
M  V30 1380 C 147.56 -1.98574 -0.581048 0
M  V30 1381 C 147.975 -0.970903 -1.61923 0
M  V30 1382 O 147.332 0.0399054 -1.82456 0
M  V30 1383 C 147.383 -3.39872 -1.23164 0
M  V30 1384 O 147.104 -4.37469 -0.234989 0
M  V30 1385 C 148.605 -3.96099 -1.99049 0
M  V30 1386 H 145.825 -0.65261 -0.156018 0
M  V30 1387 H 148.369 -2.0379 0.170225 0
M  V30 1388 H 146.524 -3.35679 -1.93386 0
M  V30 1389 H 146.938 -5.19751 -0.70418 0
M  V30 1390 H 148.412 -4.97127 -2.39934 0
M  V30 1391 H 148.889 -3.3374 -2.85507 0
M  V30 1392 H 149.495 -4.03755 -1.3365 0
M  V30 1393 N 147.81 0.181792 -1.56548 0
M  V30 1394 C 149.056 0.901431 -1.81665 0
M  V30 1395 C 149.389 1.82347 -0.668075 0
M  V30 1396 O 148.664 1.91669 0.330615 0
M  V30 1397 C 148.947 1.70618 -3.17115 0
M  V30 1398 C 148.8 0.807964 -4.42484 0
M  V30 1399 C 150.119 2.67605 -3.49393 0
M  V30 1400 H 147.238 0.32627 -0.660846 0
M  V30 1401 H 149.88 0.168134 -1.89255 0
M  V30 1402 H 148.03 2.33133 -3.10775 0
M  V30 1403 H 149.702 0.19649 -4.60881 0
M  V30 1404 H 147.945 0.115411 -4.33646 0
M  V30 1405 H 148.616 1.40632 -5.33785 0
M  V30 1406 H 151.092 2.15218 -3.56118 0
M  V30 1407 H 149.968 3.20985 -4.45264 0
M  V30 1408 H 150.229 3.47298 -2.73563 0
M  V30 1409 N 149.288 1.51039 0.449983 0
M  V30 1410 C 150.251 1.70863 1.5277 0
M  V30 1411 C 151.251 0.578846 1.5002 0
M  V30 1412 O 152.441 0.846213 1.52266 0
M  V30 1413 C 149.573 1.75341 2.9235 0
M  V30 1414 H 150.766 2.67034 1.36502 0
M  V30 1415 H 148.319 1.40838 0.677812 0
M  V30 1416 H 149.054 0.809383 3.14037 0
M  V30 1417 H 148.839 2.57436 2.95752 0
M  V30 1418 H 150.329 1.92559 3.70555 0
M  V30 1419 N 150.766 -0.704594 1.40972 0
M  V30 1420 C 152.012 -1.46546 1.41053 0
M  V30 1421 C 152.367 -1.92393 0.0159714 0
M  V30 1422 O 151.66 -1.66017 -0.956506 0
M  V30 1423 C 151.854 -2.698 2.34399 0
M  V30 1424 C 151.683 -2.36008 3.82793 0
M  V30 1425 C 150.453 -2.26812 4.51536 0
M  V30 1426 C 152.651 -1.99565 4.74003 0
M  V30 1427 N 150.633 -1.8581 5.85105 0
M  V30 1428 C 152.004 -1.69251 5.96451 0
M  V30 1429 C 154.059 -1.86296 4.61734 0
M  V30 1430 C 152.762 -1.27003 7.07999 0
M  V30 1431 C 154.788 -1.45452 5.73234 0
M  V30 1432 C 154.15 -1.16043 6.94776 0
M  V30 1433 H 150.249 -0.533896 0.571383 0
M  V30 1434 H 152.833 -0.816061 1.76773 0
M  V30 1435 H 151.004 -3.32473 2.00789 0
M  V30 1436 H 152.736 -3.36214 2.25261 0
M  V30 1437 H 149.491 -2.44913 4.05357 0
M  V30 1438 H 149.915 -1.67817 6.55871 0
M  V30 1439 H 154.557 -2.0769 3.68273 0
M  V30 1440 H 152.275 -1.04353 8.01334 0
M  V30 1441 H 155.861 -1.35748 5.65742 0
M  V30 1442 H 154.741 -0.84915 7.79589 0
M  V30 1443 N 152.244 -1.26651 -0.937939 0
M  V30 1444 C 153.191 -1.0849 -2.03712 0
M  V30 1445 C 154.161 0.011033 -1.66096 0
M  V30 1446 O 155.346 -0.149353 -1.90215 0
M  V30 1447 C 152.486 -0.72735 -3.37348 0
M  V30 1448 C 151.599 -1.89986 -3.87981 0
M  V30 1449 C 150.734 -1.48513 -5.10017 0
M  V30 1450 C 149.773 -2.62575 -5.5292 0
M  V30 1451 N 148.91 -2.21762 -6.66158 0
M  V30 1452 H 153.75 -2.02551 -2.18579 0
M  V30 1453 H 151.287 -1.00844 -1.07093 0
M  V30 1454 H 153.245 -0.50092 -4.14182 0
M  V30 1455 H 151.875 0.176298 -3.22318 0
M  V30 1456 H 150.927 -2.23913 -3.07518 0
M  V30 1457 H 152.239 -2.75586 -4.15757 0
M  V30 1458 H 151.393 -1.21934 -5.94321 0
M  V30 1459 H 150.132 -0.60009 -4.83994 0
M  V30 1460 H 149.137 -2.8988 -4.67172 0
M  V30 1461 H 150.362 -3.51685 -5.80943 0
M  V30 1462 H 148.308 -1.35696 -6.41812 0
M  V30 1463 H 148.225 -3.00903 -6.93537 0
M  V30 1464 H 149.493 -1.98403 -7.53828 0
M  V30 1465 N 153.722 1.14298 -1.08507 0
M  V30 1466 C 154.67 2.21483 -0.710483 0
M  V30 1467 C 155.664 1.66998 0.284234 0
M  V30 1468 O 156.87 1.79401 0.146692 0
M  V30 1469 H 153.245 0.721578 -0.211729 0
M  V30 1470 H 155.216 2.50348 -1.62384 0
M  V30 1471 C 153.965 3.4743 -0.137007 0
M  V30 1472 H 153.288 3.89686 -0.893592 0
M  V30 1473 H 154.728 4.2391 0.0872789 0
M  V30 1474 C 153.187 3.17548 1.12538 0
M  V30 1475 O 153.717 3.35437 2.21009 0
M  V30 1476 N 151.923 2.71499 1.03617 0
M  V30 1477 H 151.47 2.57143 0.153403 0
M  V30 1478 H 151.428 2.51881 1.88158 0
M  V30 1479 N 155.201 0.870884 1.31352 0
M  V30 1480 C 156.149 0.316445 2.30437 0
M  V30 1481 C 157.143 -0.568965 1.59559 0
M  V30 1482 O 158.349 -0.454964 1.74155 0
M  V30 1483 H 154.724 0.0836521 0.747333 0
M  V30 1484 H 156.695 1.16606 2.74673 0
M  V30 1485 C 155.444 -0.46635 3.44558 0
M  V30 1486 H 154.767 0.205687 3.99271 0
M  V30 1487 H 156.207 -0.819614 4.16003 0
M  V30 1488 C 154.666 -1.65797 2.9328 0
M  V30 1489 O 155.196 -2.75728 2.92125 0
M  V30 1490 N 153.402 -1.49041 2.4947 0
M  V30 1491 H 152.949 -0.59612 2.50608 0
M  V30 1492 H 152.907 -2.28911 2.15516 0
M  V30 1493 N 156.679 -1.44442 0.630414 0
M  V30 1494 C 157.909 -2.06115 0.141465 0
M  V30 1495 C 158.317 -1.47179 -1.1889 0
M  V30 1496 O 157.66 -0.588873 -1.74006 0
M  V30 1497 C 157.722 -3.59467 -0.0484355 0
M  V30 1498 C 157.386 -4.40864 1.20366 0
M  V30 1499 C 158.383 -4.74391 2.12719 0
M  V30 1500 C 156.068 -4.8125 1.43887 0
M  V30 1501 C 158.062 -5.47186 3.26904 0
M  V30 1502 C 155.749 -5.53795 2.5837 0
M  V30 1503 C 156.747 -5.86682 3.49705 0
M  V30 1504 O 156.435 -6.57749 4.62191 0
M  V30 1505 H 156.167 -0.671648 0.0765792 0
M  V30 1506 H 158.721 -1.86312 0.864695 0
M  V30 1507 H 156.951 -3.77758 -0.826803 0
M  V30 1508 H 158.64 -4.02909 -0.491849 0
M  V30 1509 H 159.406 -4.43728 1.95781 0
M  V30 1510 H 155.285 -4.55073 0.736853 0
M  V30 1511 H 158.829 -5.72773 3.98217 0
M  V30 1512 H 154.726 -5.83872 2.75251 0
M  V30 1513 H 155.494 -6.76217 4.61164 0
M  V30 1514 N 158.157 -0.370918 -1.53173 0
M  V30 1515 C 159.573 -0.0200818 -1.59587 0
M  V30 1516 C 159.773 1.46279 -1.38581 0
M  V30 1517 O 158.829 2.22506 -1.19363 0
M  V30 1518 C 160.142 -0.4808 -2.96831 0
M  V30 1519 C 161.69 -0.435477 -3.09956 0
M  V30 1520 C 162.165 -0.872092 -4.4962 0
M  V30 1521 N 163.656 -0.827364 -4.55751 0
M  V30 1522 C 164.391 -1.13683 -5.62018 0
M  V30 1523 N 163.887 -1.51584 -6.76014 0
M  V30 1524 N 165.68 -1.05927 -5.52029 0
M  V30 1525 H 157.831 -1.33652 -1.65079 0
M  V30 1526 H 160.094 -0.546634 -0.774529 0
M  V30 1527 H 159.8 -1.51577 -3.1736 0
M  V30 1528 H 159.674 0.129796 -3.76977 0
M  V30 1529 H 162.061 0.590371 -2.89134 0
M  V30 1530 H 162.142 -1.08164 -2.31806 0
M  V30 1531 H 161.786 -1.89608 -4.71181 0
M  V30 1532 H 161.716 -0.203127 -5.26208 0
M  V30 1533 H 164.207 -0.548216 -3.73902 0
M  V30 1534 H 164.52 -1.73609 -7.53047 0
M  V30 1535 H 162.865 -1.55454 -6.77391 0
M  V30 1536 H 166.056 -0.762321 -4.61851 0
M  V30 1537 H 166.229 -1.30378 -6.34749 0
M  V30 1538 N 159.635 1.57281 -0.100228 0
M  V30 1539 C 160.583 2.15542 0.874328 0
M  V30 1540 C 161.577 1.09962 1.28859 0
M  V30 1541 O 162.783 1.28298 1.26252 0
M  V30 1542 H 159.158 0.689567 0.300003 0
M  V30 1543 H 161.129 2.96241 0.35829 0
M  V30 1544 C 159.878 2.75454 2.1218 0
M  V30 1545 H 159.201 3.56384 1.81193 0
M  V30 1546 H 160.641 3.19781 2.78417 0
M  V30 1547 C 159.1 1.71602 2.89921 0
M  V30 1548 O 159.63 1.15804 3.84646 0
M  V30 1549 N 157.836 1.41975 2.53558 0
M  V30 1550 H 157.383 1.87539 1.76598 0
M  V30 1551 H 157.341 0.727274 3.05873 0
M  V30 1552 N 161.113 -0.173488 1.56642 0
M  V30 1553 C 162.076 -1.19859 1.95362 0
M  V30 1554 C 163.076 -1.37296 0.83704 0
M  V30 1555 O 164.266 -1.34739 1.10413 0
M  V30 1556 C 161.398 -2.56405 2.24654 0
M  V30 1557 H 162.591 -0.867062 2.87092 0
M  V30 1558 H 160.144 -0.415853 1.50666 0
M  V30 1559 H 160.879 -2.94576 1.35631 0
M  V30 1560 H 160.664 -2.45115 3.06041 0
M  V30 1561 H 162.154 -3.30287 2.5554 0
M  V30 1562 N 162.591 -1.51276 -0.441967 0
M  V30 1563 C 163.541 -1.6864 -1.53442 0
M  V30 1564 C 164.525 -0.540444 -1.51552 0
M  V30 1565 O 165.717 -0.796157 -1.58083 0
M  V30 1566 C 162.846 -1.8106 -2.91672 0
M  V30 1567 C 161.932 -3.01424 -2.98336 0
M  V30 1568 N 162.323 -4.2467 -2.74752 0
M  V30 1569 C 160.621 -3.00584 -3.29493 0
M  V30 1570 C 161.322 -5.05891 -2.87139 0
M  V30 1571 N 160.298 -4.40442 -3.18609 0
M  V30 1572 H 164.1 -2.61598 -1.33954 0
M  V30 1573 H 161.614 -1.4886 -0.6492 0
M  V30 1574 H 163.611 -1.91609 -3.70259 0
M  V30 1575 H 162.271 -0.892795 -3.12185 0
M  V30 1576 H 163.282 -4.53691 -2.49769 0
M  V30 1577 H 159.959 -2.18417 -3.55809 0
M  V30 1578 H 161.349 -6.13983 -2.72899 0
M  V30 1579 N 164.069 0.697108 -1.41344 0
M  V30 1580 C 165.294 1.49096 -1.44171 0
M  V30 1581 C 165.719 1.88038 -0.0481568 0
M  V30 1582 O 165.077 1.54525 0.948243 0
M  V30 1583 C 165.125 2.73088 -2.3549 0
M  V30 1584 O 164.229 3.70514 -1.81088 0
M  V30 1585 H 163.57 0.448801 -0.489361 0
M  V30 1586 H 166.1 0.856992 -1.85787 0
M  V30 1587 H 166.11 3.21413 -2.51312 0
M  V30 1588 H 164.785 2.44081 -3.36745 0
M  V30 1589 H 163.362 3.29441 -1.74708 0
M  V30 1590 N 165.547 1.27147 0.931209 0
M  V30 1591 C 166.51 1.09615 2.01289 0
M  V30 1592 C 167.51 0.0412581 1.60747 0
M  V30 1593 O 168.7 0.285545 1.71844 0
M  V30 1594 C 165.832 0.669447 3.34262 0
M  V30 1595 H 167.025 2.05662 2.18273 0
M  V30 1596 H 164.578 1.09885 1.11153 0
M  V30 1597 H 165.313 -0.292572 3.22978 0
M  V30 1598 H 165.098 1.43127 3.65044 0
M  V30 1599 H 166.588 0.568921 4.13706 0
M  V30 1600 N 167.025 -1.13721 1.09112 0
M  V30 1601 C 168.253 -1.88773 0.846899 0
M  V30 1602 C 168.668 -1.7896 -0.601572 0
M  V30 1603 O 168.025 -1.15394 -1.41388 0
M  V30 1604 C 168.076 -3.3849 1.26913 0
M  V30 1605 O 167.797 -3.48043 2.66079 0
M  V30 1606 C 169.298 -4.30518 1.05682 0
M  V30 1607 H 166.518 -0.59772 0.304914 0
M  V30 1608 H 169.062 -1.43977 1.45227 0
M  V30 1609 H 167.217 -3.80881 0.707723 0
M  V30 1610 H 167.631 -4.4109 2.83795 0
M  V30 1611 H 169.105 -5.3391 1.40156 0
M  V30 1612 H 169.582 -4.392 -0.00563416 0
M  V30 1613 H 170.188 -3.93893 1.60402 0
M  V30 1614 N 168.503 -0.877838 -1.30888 0
M  V30 1615 C 169.731 -0.507414 -2.00581 0
M  V30 1616 C 170.146 0.902216 -1.65848 0
M  V30 1617 O 169.503 1.59225 -0.891831 0
M  V30 1618 C 169.554 -0.664162 -3.55347 0
M  V30 1619 O 169.275 -2.01829 -3.8884 0
M  V30 1620 C 170.776 -0.295787 -4.42312 0
M  V30 1621 H 167.996 -0.196866 -0.641471 0
M  V30 1622 H 170.54 -1.18117 -1.66939 0
M  V30 1623 H 168.695 -0.0378619 -3.87381 0
M  V30 1624 H 169.109 -2.03174 -4.8355 0
M  V30 1625 H 170.583 -0.456388 -5.5011 0
M  V30 1626 H 171.06 0.765663 -4.32475 0
M  V30 1627 H 171.666 -0.898113 -4.15709 0
M  V30 1628 N 169.982 1.44106 -0.638065 0
M  V30 1629 C 171.228 2.02815 -0.15409 0
M  V30 1630 C 171.583 1.49342 1.21304 0
M  V30 1631 O 170.876 0.670699 1.79478 0
M  V30 1632 C 171.07 3.5729 -0.0887327 0
M  V30 1633 C 170.899 4.2575 -1.44799 0
M  V30 1634 C 169.669 4.62443 -2.03653 0
M  V30 1635 C 171.867 4.55746 -2.38327 0
M  V30 1636 N 169.849 5.15903 -3.32741 0
M  V30 1637 C 171.22 5.10364 -3.52036 0
M  V30 1638 C 173.275 4.37703 -2.3732 0
M  V30 1639 C 171.978 5.48837 -4.64941 0
M  V30 1640 C 174.004 4.77229 -3.49294 0
M  V30 1641 C 173.366 5.31966 -4.61726 0
M  V30 1642 H 169.465 0.775519 -0.100466 0
M  V30 1643 H 172.049 1.755 -0.843071 0
M  V30 1644 H 170.22 3.84201 0.569548 0
M  V30 1645 H 171.952 4.02671 0.404711 0
M  V30 1646 H 168.707 4.46987 -1.56523 0
M  V30 1647 H 169.131 5.47102 -3.98758 0
M  V30 1648 H 173.773 3.94671 -1.51641 0
M  V30 1649 H 171.491 5.9082 -5.51323 0
M  V30 1650 H 175.077 4.64976 -3.49698 0
M  V30 1651 H 173.957 5.61986 -5.46939 0
M  V30 1652 N 171.46 0.379036 1.52974 0
M  V30 1653 C 172.685 -0.209353 2.06341 0
M  V30 1654 C 173.11 -1.40583 1.24972 0
M  V30 1655 O 172.468 -1.79246 0.272155 0
M  V30 1656 C 172.516 -0.567786 3.56102 0
M  V30 1657 O 171.62 -1.66318 3.77375 0
M  V30 1658 H 170.961 -0.0272919 0.663439 0
M  V30 1659 H 173.491 0.543536 1.97248 0
M  V30 1660 H 173.501 -0.835003 3.99364 0
M  V30 1661 H 172.176 0.307013 4.14765 0
M  V30 1662 H 170.753 -1.39048 3.46006 0
M  V30 1663 N 172.938 -1.57226 0.108567 0
M  V30 1664 C 174.186 -1.94448 -0.550853 0
M  V30 1665 C 174.507 -0.992074 -1.67878 0
M  V30 1666 O 173.777 -0.0465 -1.95845 0
M  V30 1667 H 172.357 -0.717897 -0.206479 0
M  V30 1668 H 175.019 -1.94112 0.175062 0
M  V30 1669 H 174.115 -2.97218 -0.952259 0
M  V30 1670 N 174.416 0.165178 -1.56732 0
M  V30 1671 C 175.348 1.22911 -1.93457 0
M  V30 1672 C 176.361 1.40152 -0.828333 0
M  V30 1673 O 177.55 1.40046 -1.10677 0
M  V30 1674 C 174.65 2.59686 -2.17753 0
M  V30 1675 C 173.823 2.63663 -3.48999 0
M  V30 1676 C 172.882 3.81845 -3.62051 0
M  V30 1677 O 171.908 3.67559 -4.34613 0
M  V30 1678 N 173.11 4.98557 -2.97357 0
M  V30 1679 H 175.875 0.917118 -2.85323 0
M  V30 1680 H 173.436 0.354895 -1.57962 0
M  V30 1681 H 175.428 3.37225 -2.23743 0
M  V30 1682 H 173.998 2.83251 -1.32242 0
M  V30 1683 H 173.218 1.72173 -3.54612 0
M  V30 1684 H 174.506 2.63336 -4.35352 0
M  V30 1685 H 173.904 5.13065 -2.38287 0
M  V30 1686 H 172.461 5.73936 -3.08934 0
M  V30 1687 N 175.894 1.51508 0.433938 0
M  V30 1688 C 177.124 1.67914 1.20369 0
M  V30 1689 C 177.532 0.377461 1.85397 0
M  V30 1690 O 176.875 -0.654255 1.71654 0
M  V30 1691 C 176.937 2.74045 2.32679 0
M  V30 1692 C 176.601 4.16543 1.87991 0
M  V30 1693 C 177.598 5.01211 1.38145 0
M  V30 1694 C 175.283 4.6266 1.95579 0
M  V30 1695 C 177.277 6.30056 0.964774 0
M  V30 1696 C 174.964 5.91501 1.53523 0
M  V30 1697 C 175.962 6.75027 1.04055 0
M  V30 1698 O 175.65 8.01459 0.625964 0
M  V30 1699 H 175.382 0.566578 0.368735 0
M  V30 1700 H 177.936 1.98709 0.51999 0
M  V30 1701 H 176.166 2.38572 3.04336 0
M  V30 1702 H 177.855 2.79295 2.94532 0
M  V30 1703 H 178.621 4.66783 1.31675 0
M  V30 1704 H 174.5 3.97767 2.33029 0
M  V30 1705 H 178.044 6.95202 0.57796 0
M  V30 1706 H 173.941 6.25442 1.59665 0
M  V30 1707 H 174.709 8.15043 0.751509 0
M  V30 1708 N 177.372 -0.689602 1.41712 0
M  V30 1709 C 178.618 -1.45181 1.41599 0
M  V30 1710 C 178.951 -1.94181 0.0270081 0
M  V30 1711 O 178.226 -1.6993 -0.946265 0
M  V30 1712 C 178.509 -2.65945 2.42787 0
M  V30 1713 C 178.362 -2.22672 3.90816 0
M  V30 1714 C 179.681 -3.68149 2.41151 0
M  V30 1715 H 176.8 -0.526576 0.515642 0
M  V30 1716 H 179.442 -0.784947 1.73028 0
M  V30 1717 H 177.592 -3.2284 2.16116 0
M  V30 1718 H 179.264 -1.71058 4.28412 0
M  V30 1719 H 177.507 -1.54394 4.05395 0
M  V30 1720 H 178.178 -3.0935 4.57172 0
M  V30 1721 H 180.654 -3.2094 2.64834 0
M  V30 1722 H 179.53 -4.50248 3.13955 0
M  V30 1723 H 179.791 -4.18259 1.43221 0
M  V30 1724 N 178.85 -1.27639 -0.924453 0
M  V30 1725 C 180.098 -1.13941 -1.66918 0
M  V30 1726 C 180.419 0.314589 -1.92446 0
M  V30 1727 O 179.689 1.21964 -1.53303 0
M  V30 1728 H 178.269 -0.418678 -0.618642 0
M  V30 1729 H 180.931 -1.60213 -1.10985 0
M  V30 1730 H 180.027 -1.67094 -2.63602 0
M  V30 1731 N 180.328 1.1314 -1.09713 0
M  V30 1732 C 181.576 1.84119 -0.833338 0
M  V30 1733 C 181.897 1.84097 0.642904 0
M  V30 1734 O 181.167 1.29881 1.46655 0
M  V30 1735 H 179.747 0.681766 -0.305293 0
M  V30 1736 H 182.409 1.37038 -1.38588 0
M  V30 1737 H 181.505 2.88543 -1.18951 0
M  V30 1738 N 181.806 0.884767 1.30421 0
M  V30 1739 C 182.769 0.356277 2.26414 0
M  V30 1740 C 183.769 -0.501124 1.52792 0
M  V30 1741 O 184.959 -0.30831 1.7145 0
M  V30 1742 C 182.091 -0.492316 3.37326 0
M  V30 1743 H 183.284 1.20389 2.74675 0
M  V30 1744 H 180.837 0.661607 1.41607 0
M  V30 1745 H 181.572 -1.36052 2.94381 0
M  V30 1746 H 181.357 0.121832 3.91911 0
M  V30 1747 H 182.847 -0.853871 4.08777 0
M  V30 1748 N 183.284 -1.43765 0.645699 0
M  V30 1749 C 184.194 -2.34544 -0.0512957 0
M  V30 1750 C 185.21 -1.53455 -0.82022 0
M  V30 1751 O 186.386 -1.86133 -0.769176 0
M  V30 1752 C 183.451 -3.31636 -1.01087 0
M  V30 1753 C 182.512 -4.2863 -0.239712 0
M  V30 1754 C 181.745 -5.21084 -1.15358 0
M  V30 1755 O 181.968 -5.1779 -2.39269 0
M  V30 1756 O 180.902 -5.98593 -0.630038 0
M  V30 1757 H 184.728 -2.95624 0.695718 0
M  V30 1758 H 182.313 -1.43781 0.405882 0
M  V30 1759 H 184.195 -3.9136 -1.56254 0
M  V30 1760 H 182.87 -2.73069 -1.73824 0
M  V30 1761 H 181.777 -3.72408 0.355356 0
M  V30 1762 H 183.11 -4.90157 0.447936 0
M  V30 1763 N 184.763 -0.387143 -1.52771 0
M  V30 1764 C 185.726 0.436939 -2.24997 0
M  V30 1765 C 186.726 0.991991 -1.26555 0
M  V30 1766 O 187.916 0.874335 -1.50669 0
M  V30 1767 C 185.048 1.61281 -3.00335 0
M  V30 1768 H 186.241 -0.195365 -2.99263 0
M  V30 1769 H 183.794 -0.139218 -1.55679 0
M  V30 1770 H 184.529 2.2826 -2.30364 0
M  V30 1771 H 184.314 1.22154 -3.72587 0
M  V30 1772 H 185.804 2.19629 -3.5518 0
M  V30 1773 N 186.241 1.57166 -0.116904 0
M  V30 1774 C 187.657 1.5779 0.239693 0
M  V30 1775 C 187.857 1.1295 1.66867 0
M  V30 1776 O 186.913 0.81592 2.38954 0
M  V30 1777 C 188.226 3.00699 0.00828202 0
M  V30 1778 C 189.774 3.12912 0.0743438 0
M  V30 1779 C 190.249 4.57817 -0.129348 0
M  V30 1780 N 191.74 4.63139 -0.075247 0
M  V30 1781 C 192.475 5.73023 -0.207788 0
M  V30 1782 N 191.971 6.91665 -0.396382 0
M  V30 1783 N 193.764 5.61906 -0.14751 0
M  V30 1784 H 185.915 1.84615 -1.05029 0
M  V30 1785 H 188.178 0.85311 -0.41341 0
M  V30 1786 H 187.884 3.37784 -0.979531 0
M  V30 1787 H 187.758 3.69848 0.741077 0
M  V30 1788 H 190.145 2.75686 1.05268 0
M  V30 1789 H 190.226 2.4631 -0.690297 0
M  V30 1790 H 189.87 4.95742 -1.10465 0
M  V30 1791 H 189.8 5.22507 0.655253 0
M  V30 1792 H 192.291 3.7784 0.0670898 0
M  V30 1793 H 192.604 7.71255 -0.488437 0
M  V30 1794 H 190.949 6.93654 -0.432329 0
M  V30 1795 H 194.14 4.681 -0.00115036 0
M  V30 1796 H 194.313 6.47501 -0.254247 0
M  V30 1797 N 187.719 -0.156864 1.56817 0
M  V30 1798 C 188.968 -0.869504 1.81996 0
M  V30 1799 C 189.281 -1.82777 0.696545 0
M  V30 1800 O 190.487 -2.58384 0.833658 0
M  V30 1801 C 188.943 -1.59679 3.22538 0
M  V30 1802 C 188.551 -0.681431 4.42787 0
M  V30 1803 C 190.295 -2.2968 3.56997 0
M  V30 1804 C 188.202 -1.40978 5.74351 0
M  V30 1805 H 187.132 -0.328438 0.678708 0
M  V30 1806 H 189.783 -0.1223 1.83092 0
M  V30 1807 H 188.165 -2.38927 3.158 0
M  V30 1808 H 189.339 0.0751166 4.60739 0
M  V30 1809 H 187.654 -0.0903431 4.16302 0
M  V30 1810 H 190.251 -2.84794 4.52544 0
M  V30 1811 H 190.594 -3.05707 2.82576 0
M  V30 1812 H 191.127 -1.57361 3.65352 0
M  V30 1813 H 187.866 -0.691561 6.51842 0
M  V30 1814 H 187.386 -2.13929 5.60352 0
M  V30 1815 H 189.065 -1.95337 6.16808 0
M  V30 1816 N 189.197 -1.51736 -0.425897 0
M  V30 1817 C 190.145 -1.74464 -1.53834 0
M  V30 1818 C 191.139 -0.611241 -1.57988 0
M  V30 1819 O 192.345 -0.792899 -1.61596 0
M  V30 1820 H 188.72 -0.551437 -0.511293 0
M  V30 1821 H 190.691 -2.67694 -1.31843 0
M  V30 1822 C 189.44 -1.8972 -2.91379 0
M  V30 1823 H 188.763 -2.76344 -2.88919 0
M  V30 1824 H 190.203 -2.09629 -3.68553 0
M  V30 1825 C 188.662 -0.65992 -3.30374 0
M  V30 1826 O 189.192 0.180083 -4.01296 0
M  V30 1827 N 187.398 -0.500677 -2.86254 0
M  V30 1828 H 186.945 -1.18532 -2.28709 0
M  V30 1829 H 186.903 0.325903 -3.12706 0
M  V30 1830 N 190.675 0.682077 -1.42076 0
M  V30 1831 C 191.903 1.47057 -1.4554 0
M  V30 1832 C 192.318 1.8869 -0.0645779 0
M  V30 1833 O 191.675 1.57666 0.919115 0
M  V30 1834 C 191.726 2.72442 -2.37609 0
M  V30 1835 O 191.447 2.32559 -3.71279 0
M  V30 1836 C 192.948 3.66069 -2.50017 0
M  V30 1837 H 190.168 0.452737 -0.495248 0
M  V30 1838 H 192.712 0.838695 -1.8651 0
M  V30 1839 H 190.867 3.31835 -1.9991 0
M  V30 1840 H 191.281 3.13475 -4.20516 0
M  V30 1841 H 192.755 4.50792 -3.18576 0
M  V30 1842 H 193.232 4.11476 -1.53572 0
M  V30 1843 H 193.838 3.12572 -2.88407 0
M  V30 1844 N 192.153 1.28127 0.917671 0
M  V30 1845 C 193.085 1.07517 2.02417 0
M  V30 1846 C 194.098 0.0281099 1.62776 0
M  V30 1847 O 195.287 0.270748 1.76435 0
M  V30 1848 C 192.387 0.610957 3.33347 0
M  V30 1849 C 191.56 1.73255 4.01624 0
M  V30 1850 C 190.619 1.26238 5.10833 0
M  V30 1851 O 189.645 1.96389 5.34247 0
M  V30 1852 N 190.847 0.123448 5.80369 0
M  V30 1853 H 193.612 2.02806 2.20658 0
M  V30 1854 H 191.173 1.19827 1.08871 0
M  V30 1855 H 193.165 0.280101 4.0373 0
M  V30 1856 H 191.735 -0.24898 3.11607 0
M  V30 1857 H 190.955 2.23319 3.24842 0
M  V30 1858 H 192.243 2.48503 4.43986 0
M  V30 1859 H 191.641 -0.461847 5.63812 0
M  V30 1860 H 190.198 -0.148158 6.51632 0
M  V30 1861 N 193.631 -1.12557 1.10312 0
M  V30 1862 C 194.877 -1.84515 0.855901 0
M  V30 1863 C 195.232 -1.82409 -0.611936 0
M  V30 1864 O 194.525 -1.25778 -1.44535 0
M  V30 1865 C 194.719 -3.31462 1.33669 0
M  V30 1866 C 194.548 -3.47879 2.84974 0
M  V30 1867 C 193.318 -3.61589 3.52961 0
M  V30 1868 C 195.516 -3.43152 3.83081 0
M  V30 1869 N 193.498 -3.66359 4.926 0
M  V30 1870 C 194.869 -3.54401 5.08724 0
M  V30 1871 C 196.924 -3.2661 3.75807 0
M  V30 1872 C 195.627 -3.50815 6.2795 0
M  V30 1873 C 197.653 -3.24335 4.94531 0
M  V30 1874 C 197.015 -3.36144 6.19021 0
M  V30 1875 H 193.114 -0.690967 0.366182 0
M  V30 1876 H 195.698 -1.34763 1.40524 0
M  V30 1877 H 193.869 -3.7976 0.814686 0
M  V30 1878 H 195.601 -3.91272 1.03385 0
M  V30 1879 H 192.356 -3.63652 3.03404 0
M  V30 1880 H 192.78 -3.72411 5.65366 0
M  V30 1881 H 197.422 -3.16375 2.80476 0
M  V30 1882 H 195.14 -3.5982 7.23571 0
M  V30 1883 H 198.726 -3.12719 4.9061 0
M  V30 1884 H 197.606 -3.34357 7.09348 0
M  V30 1885 N 195.109 -0.891671 -1.2995 0
M  V30 1886 C 196.039 -0.379797 -2.30391 0
M  V30 1887 C 197.02 0.540919 -1.6127 0
M  V30 1888 O 198.205 0.453352 -1.88834 0
M  V30 1889 C 195.335 0.400654 -3.44981 0
M  V30 1890 C 194.289 -0.428905 -4.25846 0
M  V30 1891 C 193.615 0.478557 -5.32554 0
M  V30 1892 C 194.915 -1.67458 -4.94727 0
M  V30 1893 H 196.609 -1.21914 -2.73454 0
M  V30 1894 H 194.155 -0.587675 -1.31462 0
M  V30 1895 H 196.108 0.769434 -4.14316 0
M  V30 1896 H 194.832 1.27371 -3.0074 0
M  V30 1897 H 193.491 -0.779911 -3.58208 0
M  V30 1898 H 193.139 1.34951 -4.84559 0
M  V30 1899 H 192.839 -0.0727433 -5.87555 0
M  V30 1900 H 194.363 0.843705 -6.04743 0
M  V30 1901 H 195.777 -1.376 -5.56542 0
M  V30 1902 H 194.174 -2.16659 -5.59624 0
M  V30 1903 H 195.244 -2.41518 -4.20473 0
M  V30 1904 N 196.587 1.43421 -0.653314 0
M  V30 1905 C 197.517 2.33487 0.0246656 0
M  V30 1906 C 198.498 1.49475 0.811863 0
M  V30 1907 O 199.683 1.78139 0.773322 0
M  V30 1908 C 196.813 3.32841 0.99166 0
M  V30 1909 C 195.767 4.26842 0.314568 0
M  V30 1910 C 195.093 5.16236 1.39302 0
M  V30 1911 C 196.393 5.16243 -0.793095 0
M  V30 1912 H 198.087 2.90427 -0.727481 0
M  V30 1913 H 195.633 1.39649 -0.351287 0
M  V30 1914 H 197.586 3.94747 1.47487 0
M  V30 1915 H 196.31 2.74158 1.77497 0
M  V30 1916 H 194.969 3.663 -0.148199 0
M  V30 1917 H 194.617 4.53891 2.16776 0
M  V30 1918 H 194.317 5.79948 0.945223 0
M  V30 1919 H 195.841 5.81015 1.87759 0
M  V30 1920 H 197.255 5.71958 -0.392039 0
M  V30 1921 H 195.652 5.88676 -1.16536 0
M  V30 1922 H 196.722 4.55927 -1.65103 0
M  V30 1923 N 198.065 0.39524 1.52563 0
M  V30 1924 C 199.293 -0.184943 2.06072 0
M  V30 1925 C 199.708 -1.40021 1.26647 0
M  V30 1926 O 199.065 -1.79767 0.314672 0
M  V30 1927 C 199.116 -0.549179 3.57304 0
M  V30 1928 O 198.837 0.617813 4.33722 0
M  V30 1929 C 200.338 -1.18459 4.2718 0
M  V30 1930 H 197.558 -0.0265025 0.670476 0
M  V30 1931 H 200.102 0.562184 1.96621 0
M  V30 1932 H 198.257 -1.2462 3.66809 0
M  V30 1933 H 198.671 0.317091 5.23541 0
M  V30 1934 H 200.145 -1.38976 5.34219 0
M  V30 1935 H 200.622 -2.15368 3.82771 0
M  V30 1936 H 201.228 -0.528163 4.22008 0
M  V30 1937 N 199.544 -1.57102 0.125237 0
M  V30 1938 C 200.769 -2.0019 -0.542101 0
M  V30 1939 C 201.194 -1.00449 -1.59034 0
M  V30 1940 O 200.552 0.0229423 -1.81285 0
M  V30 1941 C 200.6 -3.42129 -1.13929 0
M  V30 1942 O 199.704 -3.45307 -2.2547 0
M  V30 1943 H 199.045 -0.650171 -0.134812 0
M  V30 1944 H 201.575 -2.03461 0.215553 0
M  V30 1945 H 201.585 -3.80471 -1.4733 0
M  V30 1946 H 200.26 -4.14237 -0.371531 0
M  V30 1947 H 198.837 -3.1879 -1.93462 0
M  V30 1948 N 201.022 0.148545 -1.56898 0
M  V30 1949 C 202.27 0.859717 -1.82902 0
M  V30 1950 C 202.591 1.81775 -0.70588 0
M  V30 1951 O 201.861 1.93994 0.272586 0
M  V30 1952 H 200.441 0.320469 -0.674766 0
M  V30 1953 H 203.103 0.142918 -1.94375 0
M  V30 1954 H 202.199 1.4229 -2.77777 0
M  V30 1955 N 202.5 1.5196 0.417844 0
M  V30 1956 C 203.728 1.69426 1.18753 0
M  V30 1957 C 204.143 0.399955 1.84515 0
M  V30 1958 O 203.5 -0.623288 1.71527 0
M  V30 1959 C 203.551 2.82375 2.25714 0
M  V30 1960 O 203.272 4.06793 1.62638 0
M  V30 1961 C 204.773 3.11277 3.15628 0
M  V30 1962 H 201.993 0.568031 0.357186 0
M  V30 1963 H 204.537 1.98475 0.49273 0
M  V30 1964 H 202.692 2.5587 2.90877 0
M  V30 1965 H 203.106 4.69667 2.3348 0
M  V30 1966 H 204.58 3.93843 3.86771 0
M  V30 1967 H 205.057 2.24473 3.77503 0
M  V30 1968 H 205.663 3.39515 2.56144 0
M  V30 1969 N 203.978 -0.674533 1.42435 0
M  V30 1970 C 205.206 -1.46283 1.46317 0
M  V30 1971 C 205.621 -1.88653 0.0745836 0
M  V30 1972 O 204.978 -1.58151 -0.91074 0
M  V30 1973 C 205.029 -2.71178 2.3905 0
M  V30 1974 O 204.75 -2.30586 3.72507 0
M  V30 1975 C 206.251 -3.64738 2.51955 0
M  V30 1976 H 203.471 -0.450104 0.497642 0
M  V30 1977 H 206.015 -0.828792 1.86953 0
M  V30 1978 H 204.17 -3.3077 2.01667 0
M  V30 1979 H 204.584 -3.11241 4.22172 0
M  V30 1980 H 206.058 -4.49096 3.20962 0
M  V30 1981 H 206.535 -4.10656 1.55752 0
M  V30 1982 H 207.141 -3.11038 2.90061 0
M  V30 1983 N 205.456 -1.28612 -0.910864 0
M  V30 1984 C 206.366 -1.14643 -2.0468 0
M  V30 1985 C 207.382 -0.0723121 -1.7385 0
M  V30 1986 O 208.558 -0.282178 -1.99413 0
M  V30 1987 C 205.623 -0.812561 -3.37044 0
M  V30 1988 C 204.684 -1.96935 -3.81465 0
M  V30 1989 C 203.917 -1.65131 -5.07511 0
M  V30 1990 O 204.14 -0.567013 -5.67575 0
M  V30 1991 O 203.074 -2.49585 -5.47714 0
M  V30 1992 H 206.9 -2.1001 -2.19384 0
M  V30 1993 H 204.485 -1.07958 -1.03274 0
M  V30 1994 H 206.367 -0.640441 -4.16505 0
M  V30 1995 H 205.042 0.111426 -3.23508 0
M  V30 1996 H 203.949 -2.19664 -3.02818 0
M  V30 1997 H 205.282 -2.87414 -3.99567 0
M  V30 1998 N 206.934 1.1197 -1.10907 0
M  V30 1999 C 207.897 2.16031 -0.765707 0
M  V30 2000 C 208.897 1.59393 0.212235 0
M  V30 2001 O 210.087 1.74196 -0.0115441 0
M  V30 2002 C 207.219 3.40632 -0.135053 0
M  V30 2003 H 208.412 2.47919 -1.68748 0
M  V30 2004 H 205.965 1.27061 -0.910226 0
M  V30 2005 H 206.7 3.14348 0.797218 0
M  V30 2006 H 206.485 3.8302 -0.838937 0
M  V30 2007 H 207.975 4.17505 0.0892469 0
M  V30 2008 N 208.412 0.89855 1.29475 0
M  V30 2009 C 209.36 0.365253 2.29714 0
M  V30 2010 C 210.354 -0.534993 1.6073 0
M  V30 2011 O 211.56 -0.417921 1.75081 0
M  V30 2012 H 207.935 0.0994853 0.74539 0
M  V30 2013 H 209.906 1.22406 2.72138 0
M  V30 2014 C 208.655 -0.393159 3.4547 0
M  V30 2015 H 207.978 0.290332 3.98744 0
M  V30 2016 H 209.418 -0.731189 4.17648 0
M  V30 2017 C 207.877 -1.59539 2.9673 0
M  V30 2018 O 208.407 -2.69469 2.97908 0
M  V30 2019 N 206.613 -1.43716 2.52575 0
M  V30 2020 H 206.16 -0.542828 2.51816 0
M  V30 2021 H 206.118 -2.24288 2.20323 0
M  V30 2022 N 209.89 -1.43072 0.660911 0
M  V30 2023 C 210.853 -2.29194 -0.0166406 0
M  V30 2024 C 211.853 -1.42609 -0.742912 0
M  V30 2025 O 213.043 -1.64155 -0.583004 0
M  V30 2026 C 210.175 -3.24831 -1.0343 0
M  V30 2027 H 211.368 -2.90596 0.741208 0
M  V30 2028 H 208.921 -1.5048 0.422532 0
M  V30 2029 H 209.656 -2.68339 -1.82111 0
M  V30 2030 H 209.441 -3.88676 -0.517082 0
M  V30 2031 H 210.931 -3.89451 -1.50723 0
M  V30 2032 N 211.368 -0.403325 -1.52352 0
M  V30 2033 C 212.614 0.167015 -2.02713 0
M  V30 2034 C 212.969 1.43296 -1.28391 0
M  V30 2035 O 212.262 1.87796 -0.379885 0
M  V30 2036 C 212.456 0.474665 -3.54234 0
M  V30 2037 C 212.285 -0.759909 -4.43233 0
M  V30 2038 C 211.055 -1.28338 -4.88731 0
M  V30 2039 C 213.253 -1.63634 -4.87574 0
M  V30 2040 N 211.235 -2.47404 -5.6184 0
M  V30 2041 C 212.606 -2.67329 -5.59406 0
M  V30 2042 C 214.661 -1.65478 -4.69597 0
M  V30 2043 C 213.364 -3.72773 -6.15169 0
M  V30 2044 C 215.39 -2.69837 -5.26253 0
M  V30 2045 C 214.752 -3.72253 -5.98002 0
M  V30 2046 H 210.851 0.0228343 -0.781667 0
M  V30 2047 H 213.435 -0.556368 -1.86581 0
M  V30 2048 H 211.606 1.16709 -3.7045 0
M  V30 2049 H 213.338 1.03338 -3.91284 0
M  V30 2050 H 210.093 -0.842273 -4.6605 0
M  V30 2051 H 210.517 -3.07688 -6.0304 0
M  V30 2052 H 215.159 -0.876389 -4.13617 0
M  V30 2053 H 212.877 -4.51471 -6.70223 0
M  V30 2054 H 216.463 -2.72164 -5.14216 0
M  V30 2055 H 215.343 -4.51679 -6.41058 0
M  V30 2056 N 212.846 1.57033 -0.133567 0
M  V30 2057 C 213.793 2.16074 0.811208 0
M  V30 2058 C 214.763 1.08979 1.2535 0
M  V30 2059 O 215.948 1.36958 1.32843 0
M  V30 2060 C 213.088 2.77595 2.05024 0
M  V30 2061 C 212.201 3.99042 1.65498 0
M  V30 2062 C 211.336 4.48603 2.84479 0
M  V30 2063 C 210.375 5.62547 2.41262 0
M  V30 2064 N 209.512 6.06787 3.53206 0
M  V30 2065 H 214.352 2.96477 0.300906 0
M  V30 2066 H 211.889 1.46462 0.136822 0
M  V30 2067 H 213.847 3.11402 2.77642 0
M  V30 2068 H 212.477 1.99859 2.53488 0
M  V30 2069 H 211.529 3.71302 0.826981 0
M  V30 2070 H 212.841 4.81629 1.29748 0
M  V30 2071 H 211.995 4.84395 3.65303 0
M  V30 2072 H 210.734 3.64995 3.23465 0
M  V30 2073 H 209.739 5.26345 1.58874 0
M  V30 2074 H 210.964 6.47931 2.03377 0
M  V30 2075 H 208.91 5.26117 3.91838 0
M  V30 2076 H 208.827 6.84266 3.21427 0
M  V30 2077 H 210.095 6.4722 4.34427 0
M  V30 2078 N 214.325 -0.140222 1.56975 0
M  V30 2079 C 215.55 -0.870414 1.88251 0
M  V30 2080 C 215.975 -1.73637 0.723312 0
M  V30 2081 O 215.333 -1.78329 -0.32689 0
M  V30 2082 C 215.381 -1.69737 3.18154 0
M  V30 2083 O 214.485 -2.80229 3.02565 0
M  V30 2084 H 213.826 -0.242025 0.61832 0
M  V30 2085 H 216.356 -0.128999 2.04193 0
M  V30 2086 H 216.366 -2.09099 3.50345 0
M  V30 2087 H 215.041 -1.06152 4.02125 0
M  V30 2088 H 213.618 -2.44224 2.81796 0
M  V30 2089 N 215.803 -1.52179 -0.40978 0
M  V30 2090 C 217.031 -1.70054 -1.17853 0
M  V30 2091 C 217.446 -0.409735 -1.843 0
M  V30 2092 O 216.803 0.614183 -1.71855 0
M  V30 2093 C 216.854 -2.83568 -2.24213 0
M  V30 2094 O 216.575 -4.0765 -1.60478 0
M  V30 2095 C 218.076 -3.12947 -3.13973 0
M  V30 2096 H 215.296 -0.569917 -0.354169 0
M  V30 2097 H 217.84 -1.98734 -0.482198 0
M  V30 2098 H 215.995 -2.57409 -2.89516 0
M  V30 2099 H 216.409 -4.70899 -2.30986 0
M  V30 2100 H 217.883 -3.95889 -3.84677 0
M  V30 2101 H 218.36 -2.26472 -3.76307 0
M  V30 2102 H 218.966 -3.40868 -2.5434 0
M  V30 2103 N 217.281 0.66697 -1.42791 0
M  V30 2104 C 218.211 1.79218 -1.49677 0
M  V30 2105 C 219.192 1.66405 -0.352623 0
M  V30 2106 O 220.377 1.85708 -0.567993 0
M  V30 2107 C 217.507 3.17565 -1.40605 0
M  V30 2108 C 216.461 3.45124 -2.53127 0
M  V30 2109 C 215.787 4.83127 -2.29112 0
M  V30 2110 C 217.087 3.41236 -3.95418 0
M  V30 2111 H 218.781 1.73713 -2.43853 0
M  V30 2112 H 216.327 0.83432 -1.17367 0
M  V30 2113 H 218.28 3.96022 -1.44029 0
M  V30 2114 H 217.004 3.23767 -0.429271 0
M  V30 2115 H 215.663 2.69031 -2.49034 0
M  V30 2116 H 215.311 4.85988 -1.29709 0
M  V30 2117 H 215.011 5.02528 -3.04531 0
M  V30 2118 H 216.535 5.63859 -2.34297 0
M  V30 2119 H 217.949 4.09651 -4.01073 0
M  V30 2120 H 216.346 3.72173 -4.70752 0
M  V30 2121 H 217.416 2.39665 -4.21532 0
M  V30 2122 N 218.759 1.29093 0.90403 0
M  V30 2123 C 220.005 1.16986 1.65656 0
M  V30 2124 C 220.338 -0.278925 1.92186 0
M  V30 2125 O 219.613 -1.2019 1.5292 0
M  V30 2126 C 219.896 1.97908 3.0084 0
M  V30 2127 C 219.749 3.50903 2.81403 0
M  V30 2128 C 221.068 1.80208 4.01513 0
M  V30 2129 H 218.187 0.426346 0.601164 0
M  V30 2130 H 220.829 1.58518 1.04747 0
M  V30 2131 H 218.979 1.62616 3.52829 0
M  V30 2132 H 220.651 3.96153 2.36348 0
M  V30 2133 H 218.894 3.76045 2.1627 0
M  V30 2134 H 219.565 4.02791 3.77443 0
M  V30 2135 H 222.041 2.11025 3.58619 0
M  V30 2136 H 220.917 2.39184 4.94047 0
M  V30 2137 H 221.178 0.756119 4.35586 0
M  V30 2138 N 220.237 -1.11381 1.11499 0
M  V30 2139 C 221.485 -1.8277 0.862524 0
M  V30 2140 C 221.806 -1.85097 -0.613534 0
M  V30 2141 O 221.076 -1.32198 -1.4457 0
M  V30 2142 H 219.656 -0.676823 0.316101 0
M  V30 2143 H 222.318 -1.34816 1.4075 0
M  V30 2144 H 221.414 -2.86614 1.23527 0
M  V30 2145 N 221.715 -0.905404 -1.28997 0
M  V30 2146 C 222.665 -0.358713 -2.25161 0
M  V30 2147 C 223.649 0.524449 -1.52113 0
M  V30 2148 O 224.841 0.365534 -1.73184 0
M  V30 2149 C 221.97 0.407609 -3.40872 0
M  V30 2150 C 221.056 -0.490797 -4.21251 0
M  V30 2151 N 221.447 -1.60061 -4.79806 0
M  V30 2152 C 219.745 -0.289636 -4.45059 0
M  V30 2153 C 220.446 -2.15757 -5.40207 0
M  V30 2154 N 219.422 -1.44988 -5.23908 0
M  V30 2155 H 223.224 -1.20642 -2.67998 0
M  V30 2156 H 220.738 -0.757103 -1.43672 0
M  V30 2157 H 222.735 0.816046 -4.08835 0
M  V30 2158 H 221.395 1.25251 -2.9957 0
M  V30 2159 H 222.406 -1.98329 -4.7842 0
M  V30 2160 H 219.083 0.51643 -4.14294 0
M  V30 2161 H 220.473 -3.09069 -5.96595 0
M  V30 2162 N 223.193 1.4272 -0.668489 0
M  V30 2163 C 224.47 1.95248 -0.117373 0
M  V30 2164 C 224.85 1.60919 1.36632 0
M  V30 2165 O 224.198 0.902095 2.09939 0
M  V30 2166 C 224.408 3.46927 -0.379806 0
M  V30 2167 C 225.756 4.23588 -0.292923 0
M  V30 2168 O 226.78 3.5482 -0.313204 0
M  V30 2169 O 225.639 5.46017 -0.229697 0
M  V30 2170 H 222.733 0.827 0.00079152 0
M  V30 2171 H 225.279 1.52581 -0.742783 0
M  V30 2172 H 224.051 3.65096 -1.40786 0
M  V30 2173 H 223.674 3.96627 0.277923 0
M  V30 2174 N 224.671 0.411399 1.52136 0
M  V30 2175 C 225.899 -0.163076 2.06256 0
M  V30 2176 C 226.314 -1.3867 1.28125 0
M  V30 2177 O 225.671 -1.79423 0.333721 0
M  V30 2178 C 225.722 -0.511252 3.57867 0
M  V30 2179 O 225.443 0.66378 4.33042 0
M  V30 2180 C 226.944 -1.13921 4.28412 0
M  V30 2181 H 224.164 -0.0193897 0.67072 0
M  V30 2182 H 226.708 0.583007 1.96013 0
M  V30 2183 H 224.863 -1.20723 3.6811 0
M  V30 2184 H 225.277 0.372601 5.23175 0
M  V30 2185 H 226.751 -1.33302 5.35663 0
M  V30 2186 H 227.228 -2.11296 3.85033 0
M  V30 2187 H 227.834 -0.483373 4.22544 0
M  V30 2188 N 226.149 -1.5696 0.141893 0
M  V30 2189 C 227.396 -1.9596 -0.510492 0
M  V30 2190 C 227.724 -1.02648 -1.65208 0
M  V30 2191 O 226.979 -0.0546947 -1.95624 0
M  V30 2192 C 227.278 -3.41242 -1.06249 0
M  V30 2193 C 226.944 -4.50882 -0.0398791 0
M  V30 2194 C 225.606 -4.80595 0.241247 0
M  V30 2195 C 227.958 -5.17058 0.65578 0
M  V30 2196 C 225.286 -5.73792 1.22393 0
M  V30 2197 C 227.638 -6.11313 1.62724 0
M  V30 2198 C 226.302 -6.39407 1.91612 0
M  V30 2199 H 225.572 -0.717068 -0.186802 0
M  V30 2200 H 228.219 -1.90142 0.227643 0
M  V30 2201 H 226.524 -3.43866 -1.87785 0
M  V30 2202 H 228.221 -3.68742 -1.57576 0
M  V30 2203 H 224.811 -4.27754 -0.269174 0
M  V30 2204 H 228.995 -4.94239 0.451779 0
M  V30 2205 H 224.251 -5.93853 1.45424 0
M  V30 2206 H 228.425 -6.61668 2.17183 0
M  V30 2207 H 226.052 -7.11427 2.6791 0
M  V30 2208 N 227.627 0.131896 -1.57047 0
M  V30 2209 C 228.855 0.856461 -1.88341 0
M  V30 2210 C 229.27 1.74042 -0.731757 0
M  V30 2211 O 228.627 1.80051 0.297945 0
M  V30 2212 C 228.678 1.70064 -3.18999 0
M  V30 2213 O 228.399 0.852278 -4.2973 0
M  V30 2214 C 229.9 2.53148 -3.63911 0
M  V30 2215 H 227.12 0.246885 -0.62393 0
M  V30 2216 H 229.664 0.120152 -2.04147 0
M  V30 2217 H 227.819 2.38984 -3.04902 0
M  V30 2218 H 228.233 1.43329 -5.04537 0
M  V30 2219 H 229.707 3.07931 -4.58129 0
M  V30 2220 H 230.184 3.29901 -2.89935 0
M  V30 2221 H 230.79 1.89492 -3.80753 0
M  V30 2222 N 229.106 1.52395 0.401703 0
M  V30 2223 C 230.053 1.76268 1.48991 0
M  V30 2224 C 231.023 0.605386 1.54675 0
M  V30 2225 O 232.208 0.843742 1.7113 0
M  V30 2226 C 229.348 1.92592 2.86361 0
M  V30 2227 C 228.461 3.20259 2.89928 0
M  V30 2228 C 227.596 3.26972 4.18644 0
M  V30 2229 C 226.635 4.48812 4.16214 0
M  V30 2230 N 225.772 4.52877 5.36514 0
M  V30 2231 H 230.612 2.6914 1.27935 0
M  V30 2232 H 228.149 1.33355 0.620871 0
M  V30 2233 H 230.107 2.0004 3.66115 0
M  V30 2234 H 228.737 1.03093 3.05895 0
M  V30 2235 H 227.789 3.21945 2.02621 0
M  V30 2236 H 229.101 4.10056 2.83999 0
M  V30 2237 H 228.255 3.33533 5.06794 0
M  V30 2238 H 226.994 2.35126 4.27278 0
M  V30 2239 H 225.999 4.4239 3.26453 0
M  V30 2240 H 227.224 5.41961 4.09213 0
M  V30 2241 H 225.17 3.63917 5.45802 0
M  V30 2242 H 225.087 5.36529 5.32609 0
M  V30 2243 H 226.355 4.63676 6.26597 0
M  V30 2244 N 230.584 -0.659388 1.43143 0
M  V30 2245 C 231.83 -1.42145 1.44647 0
M  V30 2246 C 232.163 -1.9408 0.0681907 0
M  V30 2247 O 231.438 -1.71899 -0.910007 0
M  V30 2248 C 231.721 -2.60735 2.48373 0
M  V30 2249 C 231.574 -2.14332 3.95451 0
M  V30 2250 C 232.893 -3.62951 2.48906 0
M  V30 2251 H 230.012 -0.51552 0.526696 0
M  V30 2252 H 232.654 -0.748069 1.74654 0
M  V30 2253 H 230.804 -3.18184 2.22916 0
M  V30 2254 H 232.476 -1.61932 4.31944 0
M  V30 2255 H 230.719 -1.4576 4.08578 0
M  V30 2256 H 231.39 -2.99583 4.63631 0
M  V30 2257 H 233.866 -3.1525 2.71582 0
M  V30 2258 H 232.742 -4.43487 3.23435 0
M  V30 2259 H 233.003 -4.15126 1.52061 0
M  V30 2260 N 232.062 -1.29571 -0.897171 0
M  V30 2261 C 233.009 -1.14916 -2.00158 0
M  V30 2262 C 233.979 -0.0418149 -1.66047 0
M  V30 2263 O 235.164 -0.209793 -1.89643 0
M  V30 2264 C 232.304 -0.834307 -3.34863 0
M  V30 2265 C 231.417 -2.02234 -3.8174 0
M  V30 2266 C 230.552 -1.64664 -5.05034 0
M  V30 2267 C 229.591 -2.80033 -5.44286 0
M  V30 2268 N 228.728 -2.42843 -6.58765 0
M  V30 2269 H 233.568 -2.09403 -2.12025 0
M  V30 2270 H 231.105 -1.042 -1.0383 0
M  V30 2271 H 233.063 -0.632436 -4.12379 0
M  V30 2272 H 231.693 0.0736656 -3.22716 0
M  V30 2273 H 230.745 -2.33583 -3.00238 0
M  V30 2274 H 232.057 -2.88673 -4.06779 0
M  V30 2275 H 231.211 -1.4078 -5.9014 0
M  V30 2276 H 229.95 -0.753766 -4.8184 0
M  V30 2277 H 228.955 -3.04596 -4.57713 0
M  V30 2278 H 230.18 -3.69989 -5.6946 0
M  V30 2279 H 228.126 -1.56046 -6.3717 0
M  V30 2280 H 228.043 -3.22815 -6.83613 0
M  V30 2281 H 229.311 -2.22285 -7.47134 0
M  V30 2282 N 233.54 1.10788 -1.12088 0
M  V30 2283 C 234.951 1.64181 -0.88891 0
M  V30 2284 C 235.302 1.87508 0.577498 0
M  V30 2285 O 234.427 1.61434 1.44112 0
M  V30 2286 C 235.022 2.98257 -1.60712 0
M  V30 2287 C 233.581 3.4853 -1.42139 0
M  V30 2288 C 232.728 2.23208 -1.6454 0
M  V30 2289 H 235.679 0.943368 -1.27618 0
M  V30 2290 H 235.7 3.65552 -1.05604 0
M  V30 2291 H 235.212 2.81246 -2.67436 0
M  V30 2292 H 233.313 3.70692 -0.376552 0
M  V30 2293 H 233.426 4.26882 -2.17505 0
M  V30 2294 H 231.79 2.31169 -1.06925 0
M  V30 2295 H 232.573 2.08733 -2.72554 0
M  V30 2296 N 235.018 0.912232 1.28515 0
M  V30 2297 C 236.243 0.559774 1.99703 0
M  V30 2298 C 236.668 -0.851393 1.67729 0
M  V30 2299 O 236.026 -1.56875 0.908834 0
M  V30 2300 C 236.074 0.773874 3.52198 0
M  V30 2301 O 235.178 -0.167842 4.12058 0
M  V30 2302 H 234.519 0.21723 0.627461 0
M  V30 2303 H 237.049 1.22725 1.63706 0
M  V30 2304 H 237.059 0.683386 4.02236 0
M  V30 2305 H 235.734 1.80261 3.74805 0
M  V30 2306 H 234.311 -0.0287509 3.72889 0
M  V30 2307 N 236.496 -1.42363 0.676048 0
M  V30 2308 C 237.459 -2.29199 0.00766941 0
M  V30 2309 C 238.459 -1.43389 -0.727745 0
M  V30 2310 O 239.649 -1.64764 -0.56556 0
M  V30 2311 C 236.781 -3.2591 -0.999785 0
M  V30 2312 H 237.974 -2.89794 0.771988 0
M  V30 2313 H 235.527 -1.50024 0.438468 0
M  V30 2314 H 236.262 -2.70256 -1.79255 0
M  V30 2315 H 236.047 -3.89202 -0.475829 0
M  V30 2316 H 237.537 -3.91028 -1.46583 0
M  V30 2317 N 237.974 -0.419461 -1.51915 0
M  V30 2318 C 238.937 0.389116 -2.25873 0
M  V30 2319 C 239.937 0.964924 -1.28631 0
M  V30 2320 O 241.127 0.842179 -1.52489 0
M  V30 2321 C 238.259 1.54874 -3.03689 0
M  V30 2322 H 239.452 -0.258799 -2.98781 0
M  V30 2323 H 237.005 -0.172209 -1.55348 0
M  V30 2324 H 237.74 2.23323 -2.35154 0
M  V30 2325 H 237.525 1.14223 -3.75094 0
M  V30 2326 H 239.015 2.12046 -3.59759 0
M  V30 2327 N 239.452 1.56882 -0.150215 0
M  V30 2328 C 240.677 2.01027 0.510184 0
M  V30 2329 C 241.102 1.02966 1.57415 0
M  V30 2330 O 240.46 0.00590158 1.81299 0
M  V30 2331 C 240.508 3.43899 1.08472 0
M  V30 2332 O 239.612 3.4885 2.19948 0
M  V30 2333 H 238.953 0.652233 0.124451 0
M  V30 2334 H 241.483 2.03093 -0.247894 0
M  V30 2335 H 241.493 3.82766 1.41259 0
M  V30 2336 H 240.168 4.14776 0.305582 0
M  V30 2337 H 238.745 3.21827 1.88366 0
M  V30 2338 N 240.93 -0.123565 1.57115 0
M  V30 2339 C 242.179 -0.830704 1.83799 0
M  V30 2340 C 242.492 -1.81259 0.735158 0
M  V30 2341 O 243.698 -2.56558 0.888278 0
M  V30 2342 C 242.154 -1.52802 3.25852 0
M  V30 2343 C 241.762 -0.587356 4.44133 0
M  V30 2344 C 243.506 -2.22056 3.61789 0
M  V30 2345 C 241.413 -1.28764 5.77212 0
M  V30 2346 H 240.343 -0.313967 0.685522 0
M  V30 2347 H 242.994 -0.0834359 1.8331 0
M  V30 2348 H 241.376 -2.32175 3.20797 0
M  V30 2349 H 242.55 0.172829 4.60476 0
M  V30 2350 H 240.865 -0.00201892 4.164 0
M  V30 2351 H 243.462 -2.75131 4.58483 0
M  V30 2352 H 243.805 -2.99644 2.88997 0
M  V30 2353 H 244.338 -1.49576 3.68608 0
M  V30 2354 H 241.077 -0.55314 6.53162 0
M  V30 2355 H 240.597 -2.01995 5.64764 0
M  V30 2356 H 242.276 -1.8221 6.20813 0
M  V30 2357 N 242.408 -1.52605 -0.393616 0
M  V30 2358 C 243.685 -1.58001 -1.15304 0
M  V30 2359 C 244.065 -0.370385 -2.07825 0
M  V30 2360 O 243.413 0.641638 -2.19306 0
M  V30 2361 C 243.623 -2.91652 -1.91677 0
M  V30 2362 C 244.971 -3.4522 -2.47201 0
M  V30 2363 O 245.995 -2.93495 -2.01839 0
M  V30 2364 O 244.854 -4.35579 -3.3005 0
M  V30 2365 H 241.948 -0.637068 -0.527327 0
M  V30 2366 H 244.494 -1.64939 -0.399141 0
M  V30 2367 H 243.266 -3.71136 -1.23992 0
M  V30 2368 H 242.889 -2.88077 -2.74039 0
M  V30 2369 N 243.887 0.651787 -1.4349 0
M  V30 2370 C 244.85 1.74647 -1.48429 0
M  V30 2371 C 245.85 1.56513 -0.368817 0
M  V30 2372 O 247.04 1.62385 -0.630623 0
M  V30 2373 C 244.172 3.13533 -1.33827 0
M  V30 2374 H 245.365 1.71649 -2.4592 0
M  V30 2375 H 242.918 0.863573 -1.30277 0
M  V30 2376 H 243.653 3.22142 -0.37349 0
M  V30 2377 H 243.438 3.28101 -2.14691 0
M  V30 2378 H 244.928 3.93356 -1.40218 0
M  V30 2379 N 245.365 1.30045 0.890287 0
M  V30 2380 C 246.328 1.15963 1.977 0
M  V30 2381 C 247.328 0.0923777 1.60534 0
M  V30 2382 O 248.518 0.340071 1.70848 0
M  V30 2383 C 245.65 0.775451 3.31963 0
M  V30 2384 H 246.843 2.12502 2.11619 0
M  V30 2385 H 244.396 1.13366 1.07601 0
M  V30 2386 H 245.131 -0.189671 3.23745 0
M  V30 2387 H 244.916 1.54668 3.60306 0
M  V30 2388 H 246.406 0.700251 4.11687 0
M  V30 2389 N 246.843 -1.10192 1.12674 0
M  V30 2390 C 247.79 -2.16606 0.796906 0
M  V30 2391 C 248.76 -1.64394 -0.237476 0
M  V30 2392 O 249.945 -1.90474 -0.111484 0
M  V30 2393 C 247.085 -3.44116 0.26043 0
M  V30 2394 C 246.198 -4.10268 1.35293 0
M  V30 2395 C 245.333 -5.25507 0.775621 0
M  V30 2396 C 244.372 -5.83567 1.84706 0
M  V30 2397 N 243.509 -6.90179 1.28829 0
M  V30 2398 H 248.349 -2.44163 1.70846 0
M  V30 2399 H 245.886 -1.19846 0.85295 0
M  V30 2400 H 247.844 -4.17143 -0.0686814 0
M  V30 2401 H 246.474 -3.16901 -0.614274 0
M  V30 2402 H 245.526 -3.35184 1.79877 0
M  V30 2403 H 246.838 -4.4946 2.16303 0
M  V30 2404 H 245.992 -6.05398 0.397327 0
M  V30 2405 H 244.731 -4.87656 -0.0656581 0
M  V30 2406 H 243.736 -5.02344 2.23452 0
M  V30 2407 H 244.961 -6.23482 2.69161 0
M  V30 2408 H 242.907 -6.54322 0.468881 0
M  V30 2409 H 242.824 -7.28097 2.03497 0
M  V30 2410 H 244.092 -7.73844 0.937311 0
M  V30 2411 N 248.321 -0.919034 -1.28029 0
M  V30 2412 C 249.268 -0.410005 -2.27129 0
M  V30 2413 C 250.238 0.518405 -1.57803 0
M  V30 2414 O 251.423 0.439451 -1.8567 0
M  V30 2415 C 248.563 0.339054 -3.4343 0
M  V30 2416 C 247.676 -0.622468 -4.27492 0
M  V30 2417 C 246.811 0.145567 -5.31001 0
M  V30 2418 C 245.85 -0.809226 -6.06727 0
M  V30 2419 N 244.987 -0.0743728 -7.02061 0
M  V30 2420 H 249.827 -1.26011 -2.70047 0
M  V30 2421 H 247.364 -0.632663 -1.328 0
M  V30 2422 H 249.322 0.789586 -4.0966 0
M  V30 2423 H 247.952 1.15346 -3.01488 0
M  V30 2424 H 247.004 -1.19153 -3.61257 0
M  V30 2425 H 248.316 -1.35252 -4.80113 0
M  V30 2426 H 247.47 0.656417 -6.03139 0
M  V30 2427 H 246.209 0.908643 -4.79161 0
M  V30 2428 H 245.214 -1.3314 -5.33436 0
M  V30 2429 H 246.439 -1.57194 -6.60656 0
M  V30 2430 H 244.385 0.670616 -6.52563 0
M  V30 2431 H 244.302 -0.744157 -7.52329 0
M  V30 2432 H 245.57 0.416109 -7.78389 0
M  V30 2433 N 249.799 1.42003 -0.683588 0
M  V30 2434 C 250.762 2.29191 -0.0198243 0
M  V30 2435 C 251.762 1.43773 0.72013 0
M  V30 2436 O 252.952 1.65061 0.556815 0
M  V30 2437 C 250.084 3.26435 0.982487 0
M  V30 2438 H 251.277 2.8938 -0.787345 0
M  V30 2439 H 248.83 1.49789 -0.446418 0
M  V30 2440 H 249.565 2.71203 1.77819 0
M  V30 2441 H 249.35 3.89449 0.455182 0
M  V30 2442 H 250.84 3.918 1.44508 0
M  V30 2443 N 251.277 0.427512 1.51691 0
M  V30 2444 C 252.525 -0.141948 2.01601 0
M  V30 2445 C 252.846 -1.44067 1.31414 0
M  V30 2446 O 252.116 -1.90763 0.445658 0
M  V30 2447 H 250.696 -0.0554468 0.744939 0
M  V30 2448 H 253.358 0.567968 1.86441 0
M  V30 2449 H 252.454 -0.324913 3.10404 0
M  V30 2450 N 252.755 -1.56801 0.158532 0
M  V30 2451 C 254.001 -1.96781 -0.490405 0
M  V30 2452 C 254.334 -1.04397 -1.63753 0
M  V30 2453 O 253.609 -0.0885805 -1.94298 0
M  V30 2454 C 253.892 -3.4635 -0.985594 0
M  V30 2455 C 253.745 -4.49512 0.160824 0
M  V30 2456 C 255.064 -3.98697 -1.86355 0
M  V30 2457 H 252.183 -0.715482 -0.176788 0
M  V30 2458 H 254.825 -1.88451 0.242088 0
M  V30 2459 H 252.975 -3.53579 -1.60978 0
M  V30 2460 H 254.647 -4.54353 0.797537 0
M  V30 2461 H 252.89 -4.26013 0.818256 0
M  V30 2462 H 253.561 -5.51531 -0.227569 0
M  V30 2463 H 256.037 -3.94019 -1.33746 0
M  V30 2464 H 254.913 -5.03792 -2.17909 0
M  V30 2465 H 255.174 -3.41744 -2.8047 0
M  V30 2466 N 254.233 0.115231 -1.57178 0
M  V30 2467 C 255.181 1.16014 -2.01602 0
M  V30 2468 C 256.175 1.42653 -0.913587 0
M  V30 2469 O 257.381 1.42571 -1.09879 0
M  V30 2470 H 253.756 0.391252 -0.642204 0
M  V30 2471 H 255.727 0.758998 -2.88586 0
M  V30 2472 C 254.476 2.47767 -2.4394 0
M  V30 2473 H 253.799 2.28108 -3.28339 0
M  V30 2474 H 255.239 3.19432 -2.78818 0
M  V30 2475 C 253.698 3.10617 -1.30455 0
M  V30 2476 O 254.228 3.96846 -0.622585 0
M  V30 2477 N 252.434 2.70553 -1.06064 0
M  V30 2478 H 251.981 2.00527 -1.61699 0
M  V30 2479 H 251.939 3.12934 -0.303284 0
M  V30 2480 N 255.711 1.52812 0.385517 0
M  V30 2481 C 256.659 1.78482 1.49155 0
M  V30 2482 C 257.653 0.652914 1.56312 0
M  V30 2483 O 258.859 0.835464 1.59436 0
M  V30 2484 H 255.234 0.5648 0.496493 0
M  V30 2485 H 257.205 2.71095 1.24699 0
M  V30 2486 C 255.954 1.97378 2.86247 0
M  V30 2487 H 255.277 2.83907 2.81491 0
M  V30 2488 H 256.717 2.19327 3.62866 0
M  V30 2489 C 255.176 0.74728 3.28508 0
M  V30 2490 O 255.706 -0.0736232 4.01633 0
M  V30 2491 N 253.912 0.576396 2.84826 0
M  V30 2492 H 253.459 1.24555 2.25486 0
M  V30 2493 H 253.417 -0.24288 3.1346 0
M  V30 2494 N 257.189 -0.644168 1.43834 0
M  V30 2495 C 258.437 -1.40117 1.45642 0
M  V30 2496 C 258.758 -1.94814 0.0852413 0
M  V30 2497 O 258.028 -1.74988 -0.880688 0
M  V30 2498 H 256.608 -0.52005 0.536243 0
M  V30 2499 H 259.27 -0.7591 1.7951 0
M  V30 2500 H 258.366 -2.23902 2.17427 0
M  V30 2501 N 258.668 -1.30515 -0.883378 0
M  V30 2502 C 259.616 -1.16941 -2.01066 0
M  V30 2503 C 260.61 -0.0809148 -1.69207 0
M  V30 2504 O 261.816 -0.241877 -1.78367 0
M  V30 2505 H 258.191 -0.361705 -0.659298 0
M  V30 2506 H 260.162 -2.12344 -2.09649 0
M  V30 2507 C 258.911 -0.879694 -3.36388 0
M  V30 2508 H 258.234 -1.70936 -3.61415 0
M  V30 2509 H 259.674 -0.82483 -4.159 0
M  V30 2510 C 258.133 0.417409 -3.34304 0
M  V30 2511 O 258.663 1.43843 -3.75063 0
M  V30 2512 N 256.869 0.429141 -2.87414 0
M  V30 2513 H 256.416 -0.402222 -2.5444 0
M  V30 2514 H 256.374 1.29696 -2.86403 0
M  V30 2515 N 260.146 1.09593 -1.13257 0
M  V30 2516 C 261.557 1.63229 -0.906274 0
M  V30 2517 C 261.908 1.8811 0.557578 0
M  V30 2518 O 261.033 1.62953 1.42391 0
M  V30 2519 C 261.628 2.96535 -1.63867 0
M  V30 2520 C 260.187 3.47003 -1.45828 0
M  V30 2521 C 259.334 2.2145 -1.66898 0
M  V30 2522 H 262.285 0.92978 -1.28611 0
M  V30 2523 H 262.306 3.64411 -1.09476 0
M  V30 2524 H 261.818 2.78394 -2.70404 0
M  V30 2525 H 259.919 3.70272 -0.415848 0
M  V30 2526 H 260.032 4.24551 -2.2202 0
M  V30 2527 H 258.396 2.30022 -1.09371 0
M  V30 2528 H 259.179 2.0583 -2.74752 0
M  V30 2529 N 261.624 0.925811 1.2754 0
M  V30 2530 C 262.554 0.440748 2.29303 0
M  V30 2531 C 263.535 -0.497971 1.62648 0
M  V30 2532 O 264.72 -0.403126 1.8997 0
M  V30 2533 C 261.85 -0.309048 3.45922 0
M  V30 2534 C 260.804 0.54166 4.24559 0
M  V30 2535 C 260.13 -0.337191 5.33636 0
M  V30 2536 C 261.43 1.80516 4.90114 0
M  V30 2537 H 263.124 1.29121 2.70126 0
M  V30 2538 H 260.67 0.622323 1.29858 0
M  V30 2539 H 262.623 -0.659315 4.1621 0
M  V30 2540 H 261.347 -1.19352 3.04011 0
M  V30 2541 H 260.006 0.874609 3.56014 0
M  V30 2542 H 259.654 -1.22056 4.87966 0
M  V30 2543 H 259.354 0.228497 5.87156 0
M  V30 2544 H 260.878 -0.683072 6.06767 0
M  V30 2545 H 262.292 1.52307 5.52698 0
M  V30 2546 H 260.689 2.3142 5.53683 0
M  V30 2547 H 261.759 2.52581 4.13921 0
M  V30 2548 N 263.102 -1.41638 0.69111 0
M  V30 2549 C 264.379 -1.95036 0.148421 0
M  V30 2550 C 264.759 -1.63072 -1.34055 0
M  V30 2551 O 264.107 -0.93538 -2.08478 0
M  V30 2552 C 264.317 -3.46279 0.434951 0
M  V30 2553 C 265.665 -4.23069 0.360275 0
M  V30 2554 O 266.689 -3.54277 0.369613 0
M  V30 2555 O 265.548 -5.45583 0.316534 0
M  V30 2556 H 262.642 -0.826908 0.0123654 0
M  V30 2557 H 265.188 -1.5138 0.766963 0
M  V30 2558 H 263.96 -3.6281 1.46576 0
M  V30 2559 H 263.583 -3.97019 -0.214787 0
M  V30 2560 N 264.58 -0.43555 -1.51462 0
M  V30 2561 C 265.543 0.365137 -2.26273 0
M  V30 2562 C 266.543 0.951227 -1.29647 0
M  V30 2563 O 267.733 0.825958 -1.53374 0
M  V30 2564 C 264.865 1.51645 -3.05314 0
M  V30 2565 H 266.058 -0.290474 -2.9849 0
M  V30 2566 H 263.611 -0.188676 -1.55157 0
M  V30 2567 H 264.346 2.20816 -2.3751 0
M  V30 2568 H 264.131 1.10238 -3.76284 0
M  V30 2569 H 265.621 2.08218 -3.61987 0
M  V30 2570 N 266.058 1.56714 -0.166846 0
M  V30 2571 C 267.304 1.97039 0.479962 0
M  V30 2572 C 267.637 1.05264 1.63197 0
M  V30 2573 O 266.912 0.0988833 1.94248 0
M  V30 2574 C 267.195 3.46867 0.967212 0
M  V30 2575 C 267.048 4.49421 -0.18466 0
M  V30 2576 C 268.367 3.9968 1.84238 0
M  V30 2577 H 265.486 0.71641 0.172992 0
M  V30 2578 H 268.128 1.8832 -0.252079 0
M  V30 2579 H 266.278 3.54428 1.59101 0
M  V30 2580 H 267.95 4.53924 -0.821621 0
M  V30 2581 H 266.193 4.25573 -0.840837 0
M  V30 2582 H 266.864 5.51644 0.198317 0
M  V30 2583 H 269.34 3.94723 1.31655 0
M  V30 2584 H 268.216 5.04941 2.15234 0
M  V30 2585 H 268.477 3.43226 2.78654 0
M  V30 2586 N 267.536 -0.106894 1.57237 0
M  V30 2587 C 268.468 -1.15646 1.97885 0
M  V30 2588 C 269.481 -1.36981 0.879779 0
M  V30 2589 O 270.67 -1.35841 1.15799 0
M  V30 2590 C 267.77 -2.51425 2.27241 0
M  V30 2591 C 266.943 -2.50529 3.58545 0
M  V30 2592 C 266.002 -3.68145 3.75973 0
M  V30 2593 O 265.028 -3.51176 4.47956 0
M  V30 2594 N 266.23 -4.87177 3.15656 0
M  V30 2595 H 268.995 -0.81059 2.8853 0
M  V30 2596 H 266.556 -0.296024 1.59171 0
M  V30 2597 H 268.548 -3.28689 2.36105 0
M  V30 2598 H 267.118 -2.78147 1.42663 0
M  V30 2599 H 266.338 -1.58894 3.60758 0
M  V30 2600 H 267.626 -2.46997 4.44826 0
M  V30 2601 H 267.024 -5.03868 2.57165 0
M  V30 2602 H 265.581 -5.62075 3.30023 0
M  V30 2603 N 269.014 -1.53014 -0.377408 0
M  V30 2604 C 269.946 -1.74884 -1.48149 0
M  V30 2605 C 270.959 -0.629433 -1.5014 0
M  V30 2606 O 272.148 -0.905416 -1.53833 0
M  V30 2607 C 269.248 -1.80299 -2.86959 0
M  V30 2608 C 268.421 -3.09776 -3.08801 0
M  V30 2609 C 267.48 -3.06586 -4.27658 0
M  V30 2610 O 266.506 -3.80419 -4.23403 0
M  V30 2611 N 267.708 -2.26578 -5.34455 0
M  V30 2612 H 270.473 -2.70147 -1.29771 0
M  V30 2613 H 268.034 -1.51646 -0.56703 0
M  V30 2614 H 270.026 -1.75657 -3.64591 0
M  V30 2615 H 268.596 -0.92372 -2.98641 0
M  V30 2616 H 267.816 -3.27815 -2.18931 0
M  V30 2617 H 269.104 -3.95366 -3.20255 0
M  V30 2618 H 268.502 -1.66081 -5.40771 0
M  V30 2619 H 267.059 -2.27766 -6.10709 0
M  V30 2620 O 270.531 0.523369 -1.52784 0
M  V30 2621 H 271.222 1.17844 -1.53728 0
M  V30 END ATOM
M  V30 BEGIN BOND
M  V30 END BOND
M  V30 END CTAB
M  END
$$$$
