drugbank_target|P22626 Heterogeneous nuclear ribonucleoproteins A2/B1 (DB09130; DB11638)
 OpenBabel12092121053D

  0  0  0     0  0            999 V3000
M  V30 BEGIN CTAB
M  V30 COUNTS 15493 16668 0 0 0
M  V30 BEGIN ATOM
M  V30 1 H -1.547 9.37743 -1.21644 0
M  V30 2 O -1.44 8.89599 -0.40059 0
M  V30 3 P 0 8.91 0 0
M  V30 4 O 0.22 10.1746 0.733838 0
M  V30 5 O 0.79 8.73346 -1.23964 0
M  V30 6 O 0.25 7.66872 0.971405 0
M  V30 7 C -0.69 7.42405 2.04668 0
M  V30 8 C 0.04 6.86059 3.24661 0
M  V30 9 O 0.25 5.42934 3.03695 0
M  V30 10 C 1.44 7.41287 3.50796 0
M  V30 11 O 1.83 7.27073 4.86816 0
M  V30 12 C 2.32 6.5273 2.63741 0
M  V30 13 C 1.61 5.1842 2.73198 0
M  V30 14 N 1.66 4.38762 1.4784 0
M  V30 15 H -1.178 8.36899 2.3252 0
M  V30 16 H -1.45 6.70391 1.71179 0
M  V30 17 H -0.582 7.03638 4.13219 0
M  V30 18 H 2.073 4.59931 3.54016 0
M  V30 19 H 2.353 6.88995 1.59871 0
M  V30 20 H 3.344 6.4684 3.0373 0
M  V30 21 H 1.51 8.47002 3.20749 0
M  V30 22 P 3.37998 7.20834 5.23717 0
M  V30 23 O 3.59998 7.79853 6.57286 0
M  V30 24 O 4.16998 7.79239 4.12957 0
M  V30 25 O 3.62998 5.63315 5.29344 0
M  V30 26 C 2.68998 4.80255 6.01876 0
M  V30 27 C 3.41998 3.64202 6.65911 0
M  V30 28 O 3.62998 2.60694 5.64732 0
M  V30 29 C 4.81998 3.93473 7.1943 0
M  V30 30 O 5.20998 3.02071 8.21205 0
M  V30 31 C 5.69998 3.73047 5.97036 0
M  V30 32 C 4.98998 2.58828 5.25741 0
M  V30 33 N 5.03998 2.68068 3.77503 0
M  V30 34 H 2.20098 5.40332 6.79951 0
M  V30 35 H 1.93098 4.41613 5.32378 0
M  V30 36 H 2.79798 3.26331 7.47797 0
M  V30 37 P 6.75996 2.75334 8.47391 0
M  V30 38 O 6.97996 2.44571 9.90142 0
M  V30 39 O 7.54996 3.87688 7.92115 0
M  V30 40 O 7.00996 1.4459 7.59357 0
M  V30 41 C 6.06996 0.347608 7.69215 0
M  V30 42 C 6.79996 -0.96767 7.52806 0
M  V30 43 O 7.00996 -1.21036 6.1011 0
M  V30 44 C 8.19996 -1.04544 8.13308 0
M  V30 45 O 8.58996 -2.38311 8.41922 0
M  V30 46 C 9.07996 -0.491279 7.02284 0
M  V30 47 C 8.36996 -0.996264 5.77469 0
M  V30 48 N 8.41996 -0.0501916 4.62973 0
M  V30 49 H 5.58096 0.374722 8.67691 0
M  V30 50 H 5.31096 0.443485 6.90277 0
M  V30 51 H 6.17796 -1.75537 7.96793 0
M  V30 52 P 10.1399 -2.75334 8.47391 0
M  V30 53 O 10.3599 -3.84166 9.4489 0
M  V30 54 O 10.9299 -1.51964 8.6881 0
M  V30 55 O 10.3899 -3.29363 6.99321 0
M  V30 56 C 9.44994 -4.23956 6.42656 0
M  V30 57 C 10.1799 -5.20775 5.52155 0
M  V30 58 O 10.3899 -4.56534 4.22446 0
M  V30 59 C 11.5799 -5.62629 5.96531 0
M  V30 60 O 11.9699 -6.87667 5.41053 0
M  V30 61 C 12.4599 -4.52537 5.39283 0
M  V30 62 C 11.7499 -4.20027 4.08623 0
M  V30 63 N 11.7999 -2.7613 3.71522 0
M  V30 64 C 11.9499 -2.45612 2.37989 0
M  V30 65 O 12.0399 -3.30919 1.51621 0
M  V30 66 N 11.9899 -1.10684 2.08435 0
M  V30 67 C 11.8999 -0.0690084 2.9792 0
M  V30 68 O 11.9499 1.10553 2.59426 0
M  V30 69 C 11.7499 -0.481522 4.35345 0
M  V30 70 C 11.6399 0.618778 5.36443 0
M  V30 71 C 11.6999 -1.78906 4.67968 0
M  V30 72 H 8.95994 -4.797 7.24003 0
M  V30 73 H 8.69094 -3.69802 5.84429 0
M  V30 74 H 9.55794 -6.10356 5.41441 0
M  V30 75 H 12.2129 -4.78651 3.27911 0
M  V30 76 H 12.4919 -3.64957 6.05871 0
M  V30 77 H 13.4839 -4.8868 5.2125 0
M  V30 78 H 11.6499 -5.66726 7.06352 0
M  V30 79 H 11.5789 -2.07737 5.72367 0
M  V30 80 H 12.6089 0.754375 5.86871 0
M  V30 81 H 10.8719 0.359721 6.10641 0
M  V30 82 H 11.3599 1.55533 4.8581 0
M  V30 83 H 12.0959 -0.862651 1.12037 0
M  V30 84 P 13.5199 -7.20834 5.23717 0
M  V30 85 O 13.7399 -8.66104 5.38572 0
M  V30 86 O 14.3099 -6.33544 6.1349 0
M  V30 87 O 13.7699 -6.7751 3.72168 0
M  V30 88 C 12.8299 -7.20825 2.7076 0
M  V30 89 C 13.5599 -7.45864 1.40599 0
M  V30 90 O 13.7699 -6.17651 0.734225 0
M  V30 91 C 14.9599 -8.05808 1.51899 0
M  V30 92 O 15.3499 -8.74358 0.335205 0
M  V30 93 C 15.8399 -6.83093 1.70294 0
M  V30 94 C 15.1299 -5.79992 0.836974 0
M  V30 95 N 15.1799 -4.41864 1.38293 0
M  V30 96 H 12.3409 -8.13644 3.0377 0
M  V30 97 H 12.0709 -6.42788 2.55485 0
M  V30 98 H 12.9379 -8.12039 0.792769 0
M  V30 99 P 16.8999 -8.91 1.09116e-15 0
M  V30 100 O 17.1199 -10.1726 -0.733694 0
M  V30 101 O 17.6899 -8.73148 1.23936 0
M  V30 102 O 17.1499 -7.66872 -0.971405 0
M  V30 103 C 16.2099 -7.42309 -2.04641 0
M  V30 104 C 16.9399 -6.86059 -3.24661 0
M  V30 105 O 17.1499 -5.42847 -3.03646 0
M  V30 106 C 18.3399 -7.41196 -3.50753 0
M  V30 107 O 18.7299 -7.27073 -4.86816 0
M  V30 108 C 19.2199 -6.5273 -2.63741 0
M  V30 109 C 18.5099 -5.1842 -2.73198 0
M  V30 110 N 18.5599 -4.38762 -1.4784 0
M  V30 111 H 15.7209 -8.36803 -2.32493 0
M  V30 112 H 15.4509 -6.70197 -1.71129 0
M  V30 113 H 16.3179 -7.03551 -4.13168 0
M  V30 114 P 20.2799 -7.20834 -5.23717 0
M  V30 115 O 20.4999 -7.7993 -6.57351 0
M  V30 116 O 21.0699 -7.79328 -4.13004 0
M  V30 117 O 20.5299 -5.63315 -5.29344 0
M  V30 118 C 19.5899 -4.80193 -6.01798 0
M  V30 119 C 20.3199 -3.64202 -6.65911 0
M  V30 120 O 20.5299 -2.60694 -5.64732 0
M  V30 121 C 21.7199 -3.93473 -7.1943 0
M  V30 122 O 22.1099 -3.02071 -8.21205 0
M  V30 123 C 22.5999 -3.73047 -5.97036 0
M  V30 124 C 21.8899 -2.58828 -5.25741 0
M  V30 125 N 21.9399 -2.6801 -3.77422 0
M  V30 126 C 22.0899 -1.50443 -3.07133 0
M  V30 127 O 22.1799 -0.419406 -3.61576 0
M  V30 128 N 22.1299 -1.6403 -1.69677 0
M  V30 129 C 22.0399 -2.81206 -0.986255 0
M  V30 130 O 22.0899 -2.80892 0.249754 0
M  V30 131 C 21.8899 -3.99158 -1.80325 0
M  V30 132 C 21.7799 -5.29309 -1.06921 0
M  V30 133 C 21.8399 -3.89779 -3.1476 0
M  V30 134 H 19.0999 -5.40332 -6.79951 0
M  V30 135 H 18.8309 -4.41549 -5.32301 0
M  V30 136 H 19.6979 -3.26331 -7.47797 0
M  V30 137 H 22.3529 -1.6395 -5.56554 0
M  V30 138 H 22.6319 -4.63439 -5.3432 0
M  V30 139 H 23.6239 -3.44728 -6.25838 0
M  V30 140 H 21.7899 -4.96652 -7.57263 0
M  V30 141 H 21.7189 -4.80159 -3.74441 0
M  V30 142 H 22.7489 -5.81459 -1.09608 0
M  V30 143 H 21.0119 -5.9187 -1.54487 0
M  V30 144 H 21.4999 -5.10095 -0.0220288 0
M  V30 145 H 22.2359 -0.798962 -1.16664 0
M  V30 146 P 23.6599 -2.75334 -8.47391 0
M  V30 147 O 23.8799 -2.44571 -9.90142 0
M  V30 148 O 24.4499 -3.87688 -7.92115 0
M  V30 149 O 23.9099 -1.4459 -7.59357 0
M  V30 150 C 22.9699 -0.347608 -7.69215 0
M  V30 151 C 23.6999 0.96767 -7.52806 0
M  V30 152 O 23.9099 1.21036 -6.1011 0
M  V30 153 C 25.0999 1.04544 -8.13308 0
M  V30 154 O 25.4899 2.38311 -8.41922 0
M  V30 155 C 25.9799 0.491279 -7.02284 0
M  V30 156 C 25.2699 0.996264 -5.77469 0
M  V30 157 N 25.3199 0.0501916 -4.62973 0
M  V30 158 H 22.4809 -0.374722 -8.67691 0
M  V30 159 H 22.2109 -0.443485 -6.90277 0
M  V30 160 H 23.0779 1.75537 -7.96793 0
M  V30 161 P 27.0398 2.75334 -8.47391 0
M  V30 162 O 27.2598 3.84128 -9.44797 0
M  V30 163 O 27.8298 1.51947 -8.68712 0
M  V30 164 O 27.2898 3.29363 -6.99321 0
M  V30 165 C 26.3498 4.24011 -6.4274 0
M  V30 166 C 27.0798 5.20775 -5.52155 0
M  V30 167 O 27.2898 4.56534 -4.22446 0
M  V30 168 C 28.4798 5.62629 -5.96531 0
M  V30 169 O 28.8698 6.87667 -5.41053 0
M  V30 170 C 29.3598 4.52537 -5.39283 0
M  V30 171 C 28.6498 4.20027 -4.08623 0
M  V30 172 N 28.6998 2.76189 -3.71603 0
M  V30 173 H 25.8608 4.797 -7.24003 0
M  V30 174 H 25.5908 3.69856 -5.84513 0
M  V30 175 H 26.4578 6.10356 -5.41441 0
M  V30 176 P 30.4198 7.20834 -5.23717 0
M  V30 177 O 30.6398 8.66104 -5.38572 0
M  V30 178 O 31.2098 6.33544 -6.1349 0
M  V30 179 O 30.6698 6.7751 -3.72168 0
M  V30 180 C 29.7298 7.20825 -2.7076 0
M  V30 181 C 30.4598 7.45864 -1.40599 0
M  V30 182 O 30.6698 6.17651 -0.734225 0
M  V30 183 C 31.8598 8.05808 -1.51899 0
M  V30 184 O 32.2498 8.74358 -0.335205 0
M  V30 185 C 32.7398 6.83093 -1.70294 0
M  V30 186 C 32.0298 5.79992 -0.836974 0
M  V30 187 N 32.0798 4.41864 -1.38293 0
M  V30 188 H 29.2408 8.13644 -3.0377 0
M  V30 189 H 28.9708 6.42788 -2.55485 0
M  V30 190 H 29.8378 8.12039 -0.792769 0
M  V30 191 P 33.7998 8.91 -2.18232e-15 0
M  V30 192 O 34.0198 10.1726 0.733694 0
M  V30 193 O 34.5898 8.73148 -1.23936 0
M  V30 194 O 34.0498 7.66872 0.971405 0
M  V30 195 C 33.1098 7.42309 2.04641 0
M  V30 196 C 33.8398 6.86059 3.24661 0
M  V30 197 O 34.0498 5.42847 3.03646 0
M  V30 198 C 35.2398 7.41196 3.50753 0
M  V30 199 O 35.6298 7.27073 4.86816 0
M  V30 200 C 36.1198 6.5273 2.63741 0
M  V30 201 C 35.4098 5.1842 2.73198 0
M  V30 202 N 35.4598 4.38762 1.4784 0
M  V30 203 H 32.6208 8.36803 2.32493 0
M  V30 204 H 32.3508 6.70197 1.71129 0
M  V30 205 H 33.2178 7.03551 4.13168 0
M  V30 206 P 37.1798 7.20834 5.23717 0
M  V30 207 O 37.3998 7.79853 6.57286 0
M  V30 208 O 37.9698 7.79239 4.12957 0
M  V30 209 O 37.4298 5.63315 5.29344 0
M  V30 210 C 36.4898 4.80255 6.01876 0
M  V30 211 C 37.2198 3.64202 6.65911 0
M  V30 212 O 37.4298 2.60694 5.64732 0
M  V30 213 C 38.6198 3.93473 7.1943 0
M  V30 214 O 39.0098 3.02071 8.21205 0
M  V30 215 C 39.4998 3.73047 5.97036 0
M  V30 216 C 38.7898 2.58828 5.25741 0
M  V30 217 N 38.8398 2.68068 3.77503 0
M  V30 218 C 38.7598 3.79715 2.96723 0
M  V30 219 N 38.8398 3.5377 1.68852 0
M  V30 220 C 38.9798 2.15054 1.63254 0
M  V30 221 C 39.1098 1.28964 0.518571 0
M  V30 222 N 39.2298 -0.0538097 0.918425 0
M  V30 223 C 39.2298 -0.494275 2.22578 0
M  V30 224 N 39.3598 -1.81086 2.40434 0
M  V30 225 N 39.0998 0.313645 3.27502 0
M  V30 226 C 38.9798 1.61829 2.91033 0
M  V30 227 H 36.0008 5.40332 6.79951 0
M  V30 228 H 35.7308 4.41613 5.32378 0
M  V30 229 H 36.5978 3.26331 7.47797 0
M  V30 230 P 40.5598 2.75334 8.47391 0
M  V30 231 O 40.7798 2.44571 9.90142 0
M  V30 232 O 41.3498 3.87688 7.92115 0
M  V30 233 O 40.8098 1.4459 7.59357 0
M  V30 234 C 39.8698 0.347608 7.69215 0
M  V30 235 C 40.5998 -0.96767 7.52806 0
M  V30 236 O 40.8098 -1.21036 6.1011 0
M  V30 237 C 41.9998 -1.04544 8.13308 0
M  V30 238 O 42.3898 -2.38311 8.41922 0
M  V30 239 C 42.8798 -0.491279 7.02284 0
M  V30 240 C 42.1698 -0.996264 5.77469 0
M  V30 241 N 42.2198 -0.0501916 4.62973 0
M  V30 242 H 39.3808 0.374722 8.67691 0
M  V30 243 H 39.1108 0.443485 6.90277 0
M  V30 244 H 39.9778 -1.75537 7.96793 0
M  V30 245 P 43.9397 -2.75334 8.47391 0
M  V30 246 O 44.1597 -3.84128 9.44797 0
M  V30 247 O 44.7297 -1.51947 8.68712 0
M  V30 248 O 44.1897 -3.29363 6.99321 0
M  V30 249 C 43.2497 -4.24011 6.4274 0
M  V30 250 C 43.9797 -5.20775 5.52155 0
M  V30 251 O 44.1897 -4.56534 4.22446 0
M  V30 252 C 45.3797 -5.62629 5.96531 0
M  V30 253 O 45.7697 -6.87667 5.41053 0
M  V30 254 C 46.2597 -4.52537 5.39283 0
M  V30 255 C 45.5497 -4.20027 4.08623 0
M  V30 256 N 45.5997 -2.76189 3.71603 0
M  V30 257 H 42.7607 -4.797 7.24003 0
M  V30 258 H 42.4907 -3.69856 5.84513 0
M  V30 259 H 43.3577 -6.10356 5.41441 0
M  V30 260 P 47.3197 -7.20834 5.23717 0
M  V30 261 O 47.5397 -8.66104 5.38572 0
M  V30 262 O 48.1097 -6.33544 6.1349 0
M  V30 263 O 47.5697 -6.7751 3.72168 0
M  V30 264 C 46.6297 -7.20825 2.7076 0
M  V30 265 C 47.3597 -7.45864 1.40599 0
M  V30 266 O 47.5697 -6.17651 0.734225 0
M  V30 267 C 48.7597 -8.05808 1.51899 0
M  V30 268 O 49.1497 -8.74358 0.335205 0
M  V30 269 C 49.6397 -6.83093 1.70294 0
M  V30 270 C 48.9297 -5.79992 0.836974 0
M  V30 271 N 48.9797 -4.41864 1.38293 0
M  V30 272 C 48.8997 -3.99538 2.69438 0
M  V30 273 N 48.9797 -2.69909 2.84277 0
M  V30 274 C 49.1197 -2.21719 1.5408 0
M  V30 275 C 49.2497 -0.891712 1.06628 0
M  V30 276 N 49.3697 -0.856846 -0.334985 0
M  V30 277 C 49.3697 -1.9641 -1.15789 0
M  V30 278 N 49.4997 -1.72708 -2.46522 0
M  V30 279 N 49.2397 -3.21165 -0.713741 0
M  V30 280 C 49.1197 -3.26797 0.639748 0
M  V30 281 H 46.1407 -8.13644 3.0377 0
M  V30 282 H 45.8707 -6.42788 2.55485 0
M  V30 283 H 46.7377 -8.12039 0.792769 0
M  V30 284 P 50.6997 -8.91 3.27348e-15 0
M  V30 285 O 50.9197 -10.1726 -0.733694 0
M  V30 286 O 51.4897 -8.73148 1.23936 0
M  V30 287 O 50.9497 -7.66872 -0.971405 0
M  V30 288 C 50.0097 -7.42309 -2.04641 0
M  V30 289 C 50.7397 -6.86059 -3.24661 0
M  V30 290 O 50.9497 -5.42847 -3.03646 0
M  V30 291 C 52.1397 -7.41196 -3.50753 0
M  V30 292 O 52.5297 -7.27073 -4.86816 0
M  V30 293 C 53.0197 -6.5273 -2.63741 0
M  V30 294 C 52.3097 -5.1842 -2.73198 0
M  V30 295 N 52.3597 -4.38762 -1.4784 0
M  V30 296 H 49.5207 -8.36803 -2.32493 0
M  V30 297 H 49.2507 -6.70197 -1.71129 0
M  V30 298 H 50.1177 -7.03551 -4.13168 0
M  V30 299 P 54.0797 -7.20834 -5.23717 0
M  V30 300 O 54.2997 -7.79853 -6.57286 0
M  V30 301 O 54.8697 -7.79239 -4.12957 0
M  V30 302 O 54.3297 -5.63315 -5.29344 0
M  V30 303 C 53.3897 -4.80255 -6.01876 0
M  V30 304 C 54.1197 -3.64202 -6.65911 0
M  V30 305 O 54.3297 -2.60694 -5.64732 0
M  V30 306 C 55.5197 -3.93473 -7.1943 0
M  V30 307 O 55.9097 -3.02071 -8.21205 0
M  V30 308 C 56.3997 -3.73047 -5.97036 0
M  V30 309 C 55.6897 -2.58828 -5.25741 0
M  V30 310 N 55.7397 -2.68068 -3.77503 0
M  V30 311 H 52.9007 -5.40332 -6.79951 0
M  V30 312 H 52.6307 -4.41613 -5.32378 0
M  V30 313 H 53.4977 -3.26331 -7.47797 0
M  V30 314 P 57.4597 -2.75334 -8.47391 0
M  V30 315 O 57.6797 -2.44571 -9.90142 0
M  V30 316 O 58.2497 -3.87688 -7.92115 0
M  V30 317 O 57.7097 -1.4459 -7.59357 0
M  V30 318 C 56.7697 -0.347608 -7.69215 0
M  V30 319 C 57.4997 0.96767 -7.52806 0
M  V30 320 O 57.7097 1.21036 -6.1011 0
M  V30 321 C 58.8997 1.04544 -8.13308 0
M  V30 322 O 59.2897 2.38311 -8.41922 0
M  V30 323 C 59.7797 0.491279 -7.02284 0
M  V30 324 C 59.0697 0.996264 -5.77469 0
M  V30 325 N 59.1197 0.0501916 -4.62973 0
M  V30 326 H 56.2807 -0.374722 -8.67691 0
M  V30 327 H 56.0107 -0.443485 -6.90277 0
M  V30 328 H 56.8777 1.75537 -7.96793 0
M  V30 329 P 60.8396 2.75334 -8.47391 0
M  V30 330 O 61.0596 3.84128 -9.44797 0
M  V30 331 O 61.6296 1.51947 -8.68712 0
M  V30 332 O 61.0896 3.29363 -6.99321 0
M  V30 333 C 60.1496 4.24011 -6.4274 0
M  V30 334 C 60.8796 5.20775 -5.52155 0
M  V30 335 O 61.0896 4.56534 -4.22446 0
M  V30 336 C 62.2796 5.62629 -5.96531 0
M  V30 337 O 62.6696 6.87667 -5.41053 0
M  V30 338 C 63.1596 4.52537 -5.39283 0
M  V30 339 C 62.4496 4.20027 -4.08623 0
M  V30 340 N 62.4996 2.76189 -3.71603 0
M  V30 341 H 59.6606 4.797 -7.24003 0
M  V30 342 H 59.3906 3.69856 -5.84513 0
M  V30 343 H 60.2576 6.10356 -5.41441 0
M  V30 344 P 64.2196 7.20834 -5.23717 0
M  V30 345 O 64.4396 8.66104 -5.38572 0
M  V30 346 O 65.0096 6.33544 -6.1349 0
M  V30 347 O 64.4696 6.7751 -3.72168 0
M  V30 348 C 63.5296 7.20825 -2.7076 0
M  V30 349 C 64.2596 7.45864 -1.40599 0
M  V30 350 O 64.4696 6.17651 -0.734225 0
M  V30 351 C 65.6596 8.05808 -1.51899 0
M  V30 352 O 66.0496 8.74358 -0.335205 0
M  V30 353 C 66.5396 6.83093 -1.70294 0
M  V30 354 C 65.8296 5.79992 -0.836974 0
M  V30 355 N 65.8796 4.41864 -1.38293 0
M  V30 356 H 63.0406 8.13644 -3.0377 0
M  V30 357 H 62.7706 6.42788 -2.55485 0
M  V30 358 H 63.6376 8.12039 -0.792769 0
M  V30 359 P 67.5996 8.91 -4.36464e-15 0
M  V30 360 O 67.8196 10.1726 0.733694 0
M  V30 361 O 68.3896 8.73148 -1.23936 0
M  V30 362 O 67.8496 7.66872 0.971405 0
M  V30 363 C 66.9096 7.42309 2.04641 0
M  V30 364 C 67.6396 6.86059 3.24661 0
M  V30 365 O 67.8496 5.42847 3.03646 0
M  V30 366 C 69.0396 7.41196 3.50753 0
M  V30 367 O 69.4296 7.27073 4.86816 0
M  V30 368 C 69.9196 6.5273 2.63741 0
M  V30 369 C 69.2096 5.1842 2.73198 0
M  V30 370 N 69.2596 4.38762 1.4784 0
M  V30 371 C 69.1796 4.81605 0.168631 0
M  V30 372 N 69.2596 3.85454 -0.713363 0
M  V30 373 C 69.3996 2.6994 0.0566958 0
M  V30 374 C 69.5296 1.34815 -0.338502 0
M  V30 375 N 69.6496 0.496304 0.77465 0
M  V30 376 C 69.6496 0.908403 2.09122 0
M  V30 377 N 69.7796 -0.0517805 3.00955 0
M  V30 378 N 69.5196 2.17875 2.46519 0
M  V30 379 C 69.3996 3.01988 1.4033 0
M  V30 380 H 66.4206 8.36803 2.32493 0
M  V30 381 H 66.1506 6.70197 1.71129 0
M  V30 382 H 67.0176 7.03551 4.13168 0
M  V30 383 P 70.9796 7.20834 5.23717 0
M  V30 384 O 71.1996 7.79853 6.57286 0
M  V30 385 O 71.7696 7.79239 4.12957 0
M  V30 386 O 71.2296 5.63315 5.29344 0
M  V30 387 C 70.2896 4.80255 6.01876 0
M  V30 388 C 71.0196 3.64202 6.65911 0
M  V30 389 O 71.2296 2.60694 5.64732 0
M  V30 390 C 72.4196 3.93473 7.1943 0
M  V30 391 O 72.8096 3.02071 8.21205 0
M  V30 392 C 73.2996 3.73047 5.97036 0
M  V30 393 C 72.5896 2.58828 5.25741 0
M  V30 394 N 72.6396 2.68068 3.77503 0
M  V30 395 H 69.8006 5.40332 6.79951 0
M  V30 396 H 69.5306 4.41613 5.32378 0
M  V30 397 H 70.3976 3.26331 7.47797 0
M  V30 398 P 74.3596 2.75334 8.47391 0
M  V30 399 O 74.5796 2.44571 9.90142 0
M  V30 400 O 75.1496 3.87688 7.92115 0
M  V30 401 O 74.6096 1.4459 7.59357 0
M  V30 402 C 73.6696 0.347608 7.69215 0
M  V30 403 C 74.3996 -0.96767 7.52806 0
M  V30 404 O 74.6096 -1.21036 6.1011 0
M  V30 405 C 75.7996 -1.04544 8.13308 0
M  V30 406 O 76.1896 -2.38311 8.41922 0
M  V30 407 C 76.6796 -0.491279 7.02284 0
M  V30 408 C 75.9696 -0.996264 5.77469 0
M  V30 409 N 76.0196 -0.0501916 4.62973 0
M  V30 410 H 73.1806 0.374722 8.67691 0
M  V30 411 H 72.9106 0.443485 6.90277 0
M  V30 412 H 73.7776 -1.75537 7.96793 0
M  V30 413 P 77.7395 -2.75334 8.47391 0
M  V30 414 O 77.9595 -3.84128 9.44797 0
M  V30 415 O 78.5295 -1.51947 8.68712 0
M  V30 416 O 77.9895 -3.29363 6.99321 0
M  V30 417 C 77.0495 -4.24011 6.4274 0
M  V30 418 C 77.7795 -5.20775 5.52155 0
M  V30 419 O 77.9895 -4.56534 4.22446 0
M  V30 420 C 79.1795 -5.62629 5.96531 0
M  V30 421 O 79.5695 -6.87667 5.41053 0
M  V30 422 C 80.0595 -4.52537 5.39283 0
M  V30 423 C 79.3495 -4.20027 4.08623 0
M  V30 424 N 79.3995 -2.76189 3.71603 0
M  V30 425 H 76.5605 -4.797 7.24003 0
M  V30 426 H 76.2905 -3.69856 5.84513 0
M  V30 427 H 77.1575 -6.10356 5.41441 0
M  V30 428 P 81.1195 -7.20834 5.23717 0
M  V30 429 O 81.3395 -8.66104 5.38572 0
M  V30 430 O 81.9095 -6.33544 6.1349 0
M  V30 431 O 81.3695 -6.7751 3.72168 0
M  V30 432 C 80.4295 -7.20825 2.7076 0
M  V30 433 C 81.1595 -7.45864 1.40599 0
M  V30 434 O 81.3695 -6.17651 0.734225 0
M  V30 435 C 82.5595 -8.05808 1.51899 0
M  V30 436 O 82.9495 -8.74358 0.335205 0
M  V30 437 C 83.4395 -6.83093 1.70294 0
M  V30 438 C 82.7295 -5.79992 0.836974 0
M  V30 439 N 82.7795 -4.41864 1.38293 0
M  V30 440 H 79.9405 -8.13644 3.0377 0
M  V30 441 H 79.6705 -6.42788 2.55485 0
M  V30 442 H 80.5375 -8.12039 0.792769 0
M  V30 443 P 84.4995 -8.91 5.4558e-15 0
M  V30 444 O 84.7195 -10.1726 -0.733694 0
M  V30 445 O 85.2895 -8.73148 1.23936 0
M  V30 446 O 84.7495 -7.66872 -0.971405 0
M  V30 447 C 83.8095 -7.42309 -2.04641 0
M  V30 448 C 84.5395 -6.86059 -3.24661 0
M  V30 449 O 84.7495 -5.42847 -3.03646 0
M  V30 450 C 85.9395 -7.41196 -3.50753 0
M  V30 451 O 86.3295 -7.27073 -4.86816 0
M  V30 452 C 86.8195 -6.5273 -2.63741 0
M  V30 453 C 86.1095 -5.1842 -2.73198 0
M  V30 454 N 86.1595 -4.38762 -1.4784 0
M  V30 455 C 86.0795 -4.81605 -0.168631 0
M  V30 456 N 86.1595 -3.85454 0.713363 0
M  V30 457 C 86.2995 -2.6994 -0.0566958 0
M  V30 458 C 86.4295 -1.34815 0.338502 0
M  V30 459 O 86.4495 -0.869548 1.47125 0
M  V30 460 N 86.5495 -0.496304 -0.77465 0
M  V30 461 C 86.5495 -0.908403 -2.09122 0
M  V30 462 N 86.6795 0.0517805 -3.00955 0
M  V30 463 N 86.4195 -2.17875 -2.46519 0
M  V30 464 C 86.2995 -3.01988 -1.4033 0
M  V30 465 H 83.3205 -8.36803 -2.32493 0
M  V30 466 H 83.0505 -6.70197 -1.71129 0
M  V30 467 H 83.9175 -7.03551 -4.13168 0
M  V30 468 H 86.5725 -4.59498 -3.54415 0
M  V30 469 H 86.8515 -6.88898 -1.59848 0
M  V30 470 H 87.8435 -6.46749 -3.03687 0
M  V30 471 H 86.0095 -8.46908 -3.20714 0
M  V30 472 H 85.9605 -5.86405 0.105564 0
M  V30 473 H 86.6425 0.483664 -0.597855 0
M  V30 474 H 86.6795 -0.187865 -4.0116 0
M  V30 475 H 86.7805 1.03585 -2.71726 0
M  V30 476 P 87.8795 -7.20834 -5.23717 0
M  V30 477 O 88.0995 -7.79853 -6.57286 0
M  V30 478 O 88.6695 -7.79239 -4.12957 0
M  V30 479 O 88.1295 -5.63315 -5.29344 0
M  V30 480 C 87.1895 -4.80255 -6.01876 0
M  V30 481 C 87.9195 -3.64202 -6.65911 0
M  V30 482 O 88.1295 -2.60694 -5.64732 0
M  V30 483 C 89.3195 -3.93473 -7.1943 0
M  V30 484 O 89.7095 -3.02071 -8.21205 0
M  V30 485 C 90.1995 -3.73047 -5.97036 0
M  V30 486 C 89.4895 -2.58828 -5.25741 0
M  V30 487 N 89.5395 -2.68068 -3.77503 0
M  V30 488 C 89.4595 -3.79715 -2.96723 0
M  V30 489 N 89.5395 -3.5377 -1.68852 0
M  V30 490 C 89.6795 -2.15054 -1.63254 0
M  V30 491 C 89.8095 -1.28964 -0.518571 0
M  V30 492 O 89.8295 -1.56826 0.679156 0
M  V30 493 N 89.9295 0.0538097 -0.918425 0
M  V30 494 C 89.9295 0.494275 -2.22578 0
M  V30 495 N 90.0595 1.81086 -2.40434 0
M  V30 496 N 89.7995 -0.313645 -3.27502 0
M  V30 497 C 89.6795 -1.61829 -2.91033 0
M  V30 498 H 86.7005 -5.40332 -6.79951 0
M  V30 499 H 86.4305 -4.41613 -5.32378 0
M  V30 500 H 87.2975 -3.26331 -7.47797 0
M  V30 501 H 89.9525 -1.63422 -5.56814 0
M  V30 502 H 90.2315 -4.63374 -5.34244 0
M  V30 503 H 91.2235 -3.44728 -6.25838 0
M  V30 504 H 89.3895 -4.96652 -7.57263 0
M  V30 505 H 89.3405 -4.80617 -3.3614 0
M  V30 506 H 90.0225 0.742702 -0.199384 0
M  V30 507 H 90.0595 2.20598 -3.35588 0
M  V30 508 H 90.1605 2.43518 -1.58945 0
M  V30 509 P 91.2595 -2.75334 -8.47391 0
M  V30 510 O 91.4795 -2.44571 -9.90142 0
M  V30 511 O 92.0495 -3.87688 -7.92115 0
M  V30 512 O 91.5095 -1.4459 -7.59357 0
M  V30 513 C 90.5695 -0.347608 -7.69215 0
M  V30 514 C 91.2995 0.96767 -7.52806 0
M  V30 515 O 91.5095 1.21036 -6.1011 0
M  V30 516 C 92.6995 1.04544 -8.13308 0
M  V30 517 O 93.0895 2.38311 -8.41922 0
M  V30 518 C 93.5795 0.491279 -7.02284 0
M  V30 519 C 92.8695 0.996264 -5.77469 0
M  V30 520 N 92.9195 0.0501916 -4.62973 0
M  V30 521 H 90.0805 -0.374722 -8.67691 0
M  V30 522 H 89.8105 -0.443485 -6.90277 0
M  V30 523 H 90.6775 1.75537 -7.96793 0
M  V30 524 P 94.6394 2.75334 -8.47391 0
M  V30 525 O 94.8594 3.84128 -9.44797 0
M  V30 526 O 95.4294 1.51947 -8.68712 0
M  V30 527 O 94.8894 3.29363 -6.99321 0
M  V30 528 C 93.9494 4.24011 -6.4274 0
M  V30 529 C 94.6794 5.20775 -5.52155 0
M  V30 530 O 94.8894 4.56534 -4.22446 0
M  V30 531 C 96.0794 5.62629 -5.96531 0
M  V30 532 O 96.4694 6.87667 -5.41053 0
M  V30 533 C 96.9594 4.52537 -5.39283 0
M  V30 534 C 96.2494 4.20027 -4.08623 0
M  V30 535 N 96.2994 2.76189 -3.71603 0
M  V30 536 H 93.4604 4.797 -7.24003 0
M  V30 537 H 93.1904 3.69856 -5.84513 0
M  V30 538 H 94.0574 6.10356 -5.41441 0
M  V30 539 P 98.0194 7.20834 -5.23717 0
M  V30 540 O 98.2394 8.66104 -5.38572 0
M  V30 541 O 98.8094 6.33544 -6.1349 0
M  V30 542 O 98.2694 6.7751 -3.72168 0
M  V30 543 C 97.3294 7.20825 -2.7076 0
M  V30 544 C 98.0594 7.45864 -1.40599 0
M  V30 545 O 98.2694 6.17651 -0.734225 0
M  V30 546 C 99.4594 8.05808 -1.51899 0
M  V30 547 O 99.8494 8.74358 -0.335205 0
M  V30 548 C 100.339 6.83093 -1.70294 0
M  V30 549 C 99.6294 5.79992 -0.836974 0
M  V30 550 N 99.6794 4.41864 -1.38293 0
M  V30 551 H 96.8404 8.13644 -3.0377 0
M  V30 552 H 96.5704 6.42788 -2.55485 0
M  V30 553 H 97.4374 8.12039 -0.792769 0
M  V30 554 P 101.399 8.91 -6.54696e-15 0
M  V30 555 O 101.619 10.1726 0.733694 0
M  V30 556 O 102.189 8.73148 -1.23936 0
M  V30 557 O 101.649 7.66872 0.971405 0
M  V30 558 C 100.709 7.42309 2.04641 0
M  V30 559 C 101.439 6.86059 3.24661 0
M  V30 560 O 101.649 5.42847 3.03646 0
M  V30 561 C 102.839 7.41196 3.50753 0
M  V30 562 O 103.229 7.27073 4.86816 0
M  V30 563 C 103.719 6.5273 2.63741 0
M  V30 564 C 103.009 5.1842 2.73198 0
M  V30 565 N 103.059 4.38762 1.4784 0
M  V30 566 H 100.22 8.36803 2.32493 0
M  V30 567 H 99.9504 6.70197 1.71129 0
M  V30 568 H 100.817 7.03551 4.13168 0
M  V30 569 P 104.779 7.20834 5.23717 0
M  V30 570 O 104.999 7.7993 6.57351 0
M  V30 571 O 105.569 7.79328 4.13004 0
M  V30 572 O 105.029 5.63315 5.29344 0
M  V30 573 C 104.089 4.80193 6.01798 0
M  V30 574 C 104.819 3.64202 6.65911 0
M  V30 575 O 105.029 2.60694 5.64732 0
M  V30 576 C 106.219 3.93473 7.1943 0
M  V30 577 O 106.609 3.02071 8.21205 0
M  V30 578 C 107.099 3.73047 5.97036 0
M  V30 579 C 106.389 2.58828 5.25741 0
M  V30 580 N 106.439 2.6801 3.77422 0
M  V30 581 C 106.589 1.50443 3.07133 0
M  V30 582 O 106.679 0.419406 3.61576 0
M  V30 583 N 106.629 1.6403 1.69677 0
M  V30 584 C 106.539 2.81206 0.986255 0
M  V30 585 O 106.589 2.80892 -0.249754 0
M  V30 586 C 106.389 3.99158 1.80325 0
M  V30 587 C 106.279 5.29309 1.06921 0
M  V30 588 C 106.339 3.89779 3.1476 0
M  V30 589 H 103.599 5.40332 6.79951 0
M  V30 590 H 103.33 4.41549 5.32301 0
M  V30 591 H 104.197 3.26331 7.47797 0
M  V30 592 H 106.852 1.6395 5.56554 0
M  V30 593 H 107.131 4.63439 5.3432 0
M  V30 594 H 108.123 3.44728 6.25838 0
M  V30 595 H 106.289 4.96652 7.57263 0
M  V30 596 H 106.218 4.80159 3.74441 0
M  V30 597 H 107.248 5.81459 1.09608 0
M  V30 598 H 105.511 5.9187 1.54487 0
M  V30 599 H 105.999 5.10095 0.0220288 0
M  V30 600 H 106.735 0.798962 1.16664 0
M  V30 601 P 108.159 2.75334 8.47391 0
M  V30 602 O 108.379 2.44595 9.90239 0
M  V30 603 O 108.949 3.87732 7.92204 0
M  V30 604 O 108.409 1.4459 7.59357 0
M  V30 605 C 107.469 0.347563 7.69115 0
M  V30 606 C 108.199 -0.96767 7.52806 0
M  V30 607 O 108.409 -1.21036 6.1011 0
M  V30 608 C 109.599 -1.04544 8.13308 0
M  V30 609 O 109.989 -2.38311 8.41922 0
M  V30 610 C 110.479 -0.491279 7.02284 0
M  V30 611 C 109.769 -0.996264 5.77469 0
M  V30 612 N 109.819 -0.0501808 4.62873 0
M  V30 613 C 109.969 -0.588177 3.36904 0
M  V30 614 O 110.059 -1.78598 3.17173 0
M  V30 615 N 110.009 0.329694 2.33686 0
M  V30 616 C 109.919 1.6953 2.45079 0
M  V30 617 O 109.969 2.41926 1.44899 0
M  V30 618 C 109.769 2.16933 3.80505 0
M  V30 619 C 109.659 3.65373 3.97621 0
M  V30 620 C 109.719 1.30326 4.83752 0
M  V30 621 H 106.979 0.374722 8.67691 0
M  V30 622 H 106.71 0.443421 6.90177 0
M  V30 623 H 107.577 -1.75537 7.96793 0
M  V30 624 H 110.232 -1.94496 5.46629 0
M  V30 625 H 110.511 0.608651 7.04676 0
M  V30 626 H 111.503 -0.889672 7.08939 0
M  V30 627 H 109.669 -0.43308 9.04564 0
M  V30 628 H 109.598 1.68366 5.8516 0
M  V30 629 H 110.628 4.05985 4.30448 0
M  V30 630 H 108.891 3.88028 4.72875 0
M  V30 631 H 109.379 4.11381 3.01609 0
M  V30 632 H 110.115 -0.0393617 1.41345 0
M  V30 633 P 111.539 -2.75334 8.47391 0
M  V30 634 O 111.759 -3.84128 9.44797 0
M  V30 635 O 112.329 -1.51947 8.68712 0
M  V30 636 O 111.789 -3.29363 6.99321 0
M  V30 637 C 110.849 -4.24011 6.4274 0
M  V30 638 C 111.579 -5.20775 5.52155 0
M  V30 639 O 111.789 -4.56534 4.22446 0
M  V30 640 C 112.979 -5.62629 5.96531 0
M  V30 641 O 113.369 -6.87667 5.41053 0
M  V30 642 C 113.859 -4.52537 5.39283 0
M  V30 643 C 113.149 -4.20027 4.08623 0
M  V30 644 N 113.199 -2.76189 3.71603 0
M  V30 645 H 110.36 -4.797 7.24003 0
M  V30 646 H 110.09 -3.69856 5.84513 0
M  V30 647 H 110.957 -6.10356 5.41441 0
M  V30 648 P 114.919 -7.20834 5.23717 0
M  V30 649 O 115.139 -8.66104 5.38572 0
M  V30 650 O 115.709 -6.33544 6.1349 0
M  V30 651 O 115.169 -6.7751 3.72168 0
M  V30 652 C 114.229 -7.20825 2.7076 0
M  V30 653 C 114.959 -7.45864 1.40599 0
M  V30 654 O 115.169 -6.17651 0.734225 0
M  V30 655 C 116.359 -8.05808 1.51899 0
M  V30 656 O 116.749 -8.74358 0.335205 0
M  V30 657 C 117.239 -6.83093 1.70294 0
M  V30 658 C 116.529 -5.79992 0.836974 0
M  V30 659 N 116.579 -4.41864 1.38293 0
M  V30 660 H 113.74 -8.13644 3.0377 0
M  V30 661 H 113.47 -6.42788 2.55485 0
M  V30 662 H 114.337 -8.12039 0.792769 0
M  V30 663 P 118.299 -8.91 7.63812e-15 0
M  V30 664 O 118.519 -10.1726 -0.733694 0
M  V30 665 O 119.089 -8.73148 1.23936 0
M  V30 666 O 118.549 -7.66872 -0.971405 0
M  V30 667 C 117.609 -7.42309 -2.04641 0
M  V30 668 C 118.339 -6.86059 -3.24661 0
M  V30 669 O 118.549 -5.42847 -3.03646 0
M  V30 670 C 119.739 -7.41196 -3.50753 0
M  V30 671 O 120.129 -7.27073 -4.86816 0
M  V30 672 C 120.619 -6.5273 -2.63741 0
M  V30 673 C 119.909 -5.1842 -2.73198 0
M  V30 674 N 119.959 -4.38762 -1.4784 0
M  V30 675 H 117.12 -8.36803 -2.32493 0
M  V30 676 H 116.85 -6.70197 -1.71129 0
M  V30 677 H 117.717 -7.03551 -4.13168 0
M  V30 678 P 121.679 -7.20834 -5.23717 0
M  V30 679 O 121.899 -7.79853 -6.57286 0
M  V30 680 O 122.469 -7.79239 -4.12957 0
M  V30 681 O 121.929 -5.63315 -5.29344 0
M  V30 682 C 120.989 -4.80255 -6.01876 0
M  V30 683 C 121.719 -3.64202 -6.65911 0
M  V30 684 O 121.929 -2.60694 -5.64732 0
M  V30 685 C 123.119 -3.93473 -7.1943 0
M  V30 686 O 123.509 -3.02071 -8.21205 0
M  V30 687 C 123.999 -3.73047 -5.97036 0
M  V30 688 C 123.289 -2.58828 -5.25741 0
M  V30 689 N 123.339 -2.68068 -3.77503 0
M  V30 690 H 120.5 -5.40332 -6.79951 0
M  V30 691 H 120.23 -4.41613 -5.32378 0
M  V30 692 H 121.097 -3.26331 -7.47797 0
M  V30 693 P 125.059 -2.75334 -8.47391 0
M  V30 694 O 125.279 -2.44571 -9.90142 0
M  V30 695 O 125.849 -3.87688 -7.92115 0
M  V30 696 O 125.309 -1.4459 -7.59357 0
M  V30 697 C 124.369 -0.347608 -7.69215 0
M  V30 698 C 125.099 0.96767 -7.52806 0
M  V30 699 O 125.309 1.21036 -6.1011 0
M  V30 700 C 126.499 1.04544 -8.13308 0
M  V30 701 O 126.889 2.38311 -8.41922 0
M  V30 702 C 127.379 0.491279 -7.02284 0
M  V30 703 C 126.669 0.996264 -5.77469 0
M  V30 704 N 126.719 0.0501916 -4.62973 0
M  V30 705 C 126.639 -1.32786 -4.63244 0
M  V30 706 N 126.719 -1.86957 -3.44545 0
M  V30 707 C 126.859 -0.780241 -2.58481 0
M  V30 708 C 126.989 -0.738536 -1.17757 0
M  V30 709 N 127.109 0.58337 -0.711393 0
M  V30 710 C 127.109 1.70816 -1.51017 0
M  V30 711 N 127.239 2.87826 -0.880757 0
M  V30 712 N 126.979 1.67126 -2.8339 0
M  V30 713 C 126.859 0.401421 -3.30572 0
M  V30 714 H 123.88 -0.374722 -8.67691 0
M  V30 715 H 123.61 -0.443485 -6.90277 0
M  V30 716 H 124.477 1.75537 -7.96793 0
M  V30 717 P 128.439 2.75334 -8.47391 0
M  V30 718 O 128.659 3.84128 -9.44797 0
M  V30 719 O 129.229 1.51947 -8.68712 0
M  V30 720 O 128.689 3.29363 -6.99321 0
M  V30 721 C 127.749 4.24011 -6.4274 0
M  V30 722 C 128.479 5.20775 -5.52155 0
M  V30 723 O 128.689 4.56534 -4.22446 0
M  V30 724 C 129.879 5.62629 -5.96531 0
M  V30 725 O 130.269 6.87667 -5.41053 0
M  V30 726 C 130.759 4.52537 -5.39283 0
M  V30 727 C 130.049 4.20027 -4.08623 0
M  V30 728 N 130.099 2.76189 -3.71603 0
M  V30 729 H 127.26 4.797 -7.24003 0
M  V30 730 H 126.99 3.69856 -5.84513 0
M  V30 731 H 127.857 6.10356 -5.41441 0
M  V30 732 P 131.819 7.20834 -5.23717 0
M  V30 733 O 132.039 8.66189 -5.38625 0
M  V30 734 O 132.609 6.33615 -6.1356 0
M  V30 735 O 132.069 6.7751 -3.72168 0
M  V30 736 C 131.129 7.20732 -2.70725 0
M  V30 737 C 131.859 7.45864 -1.40599 0
M  V30 738 O 132.069 6.17651 -0.734225 0
M  V30 739 C 133.259 8.05808 -1.51899 0
M  V30 740 O 133.649 8.74358 -0.335205 0
M  V30 741 C 134.139 6.83093 -1.70294 0
M  V30 742 C 133.429 5.79992 -0.836974 0
M  V30 743 N 133.479 4.41769 -1.38263 0
M  V30 744 C 133.629 3.38591 -0.481702 0
M  V30 745 O 133.719 3.56839 0.718452 0
M  V30 746 N 133.669 2.1206 -1.03569 0
M  V30 747 C 133.579 1.80696 -2.36966 0
M  V30 748 C 133.429 2.94845 -3.23898 0
M  V30 749 C 133.379 4.19803 -2.73435 0
M  V30 750 H 130.639 8.13644 -3.0377 0
M  V30 751 H 130.37 6.42695 -2.55448 0
M  V30 752 H 131.237 8.12039 -0.792769 0
M  V30 753 H 133.892 5.79978 0.160587 0
M  V30 754 H 134.171 6.51379 -2.75643 0
M  V30 755 H 135.163 7.01734 -1.34462 0
M  V30 756 H 133.329 8.73674 -2.38337 0
M  V30 757 H 133.258 5.04492 -3.4095 0
M  V30 758 P 135.199 8.91 -8.72928e-15 0
M  V30 759 O 135.419 10.1736 0.733766 0
M  V30 760 O 135.989 8.73247 -1.2395 0
M  V30 761 O 135.449 7.66872 0.971405 0
M  V30 762 C 134.509 7.42212 2.04614 0
M  V30 763 C 135.239 6.86059 3.24661 0
M  V30 764 O 135.449 5.42847 3.03646 0
M  V30 765 C 136.639 7.41196 3.50753 0
M  V30 766 O 137.029 7.27073 4.86816 0
M  V30 767 C 137.519 6.5273 2.63741 0
M  V30 768 C 136.809 5.1842 2.73198 0
M  V30 769 N 136.859 4.38668 1.47808 0
M  V30 770 C 137.009 3.02239 1.60048 0
M  V30 771 O 137.099 2.46459 2.67869 0
M  V30 772 N 137.049 2.32436 0.408571 0
M  V30 773 C 136.959 2.85471 -0.854993 0
M  V30 774 C 136.809 4.28918 -0.887335 0
M  V30 775 C 136.759 5.00349 0.255399 0
M  V30 776 H 134.019 8.36803 2.32493 0
M  V30 777 H 133.75 6.701 1.71105 0
M  V30 778 H 134.617 7.03551 4.13168 0
M  V30 779 H 137.272 4.59773 3.53894 0
M  V30 780 H 137.551 6.88995 1.59871 0
M  V30 781 H 138.543 6.46749 3.03687 0
M  V30 782 H 136.709 8.46908 3.20714 0
M  V30 783 H 136.638 6.08548 0.206986 0
M  V30 784 P 138.579 7.20834 5.23717 0
M  V30 785 O 138.799 7.79853 6.57286 0
M  V30 786 O 139.369 7.79239 4.12957 0
M  V30 787 O 138.829 5.63315 5.29344 0
M  V30 788 C 137.889 4.80255 6.01876 0
M  V30 789 C 138.619 3.64202 6.65911 0
M  V30 790 O 138.829 2.60694 5.64732 0
M  V30 791 C 140.019 3.93473 7.1943 0
M  V30 792 O 140.409 3.02071 8.21205 0
M  V30 793 C 140.899 3.73047 5.97036 0
M  V30 794 C 140.189 2.58828 5.25741 0
M  V30 795 N 140.239 2.68068 3.77503 0
M  V30 796 H 137.4 5.40332 6.79951 0
M  V30 797 H 137.13 4.41613 5.32378 0
M  V30 798 H 137.997 3.26331 7.47797 0
M  V30 799 P 141.959 2.75334 8.47391 0
M  V30 800 O 142.179 2.44571 9.90142 0
M  V30 801 O 142.749 3.87688 7.92115 0
M  V30 802 O 142.209 1.4459 7.59357 0
M  V30 803 C 141.269 0.347608 7.69215 0
M  V30 804 C 141.999 -0.96767 7.52806 0
M  V30 805 O 142.209 -1.21036 6.1011 0
M  V30 806 C 143.399 -1.04544 8.13308 0
M  V30 807 O 143.789 -2.38311 8.41922 0
M  V30 808 C 144.279 -0.491279 7.02284 0
M  V30 809 C 143.569 -0.996264 5.77469 0
M  V30 810 N 143.619 -0.0501916 4.62973 0
M  V30 811 H 140.78 0.374722 8.67691 0
M  V30 812 H 140.51 0.443485 6.90277 0
M  V30 813 H 141.377 -1.75537 7.96793 0
M  V30 814 P 145.339 -2.75334 8.47391 0
M  V30 815 O 145.559 -3.84204 9.44982 0
M  V30 816 O 146.129 -1.51982 8.68909 0
M  V30 817 O 145.589 -3.29363 6.99321 0
M  V30 818 C 144.649 -4.24066 6.42823 0
M  V30 819 C 145.379 -5.20775 5.52155 0
M  V30 820 O 145.589 -4.56607 4.22514 0
M  V30 821 C 146.779 -5.62697 5.96604 0
M  V30 822 O 147.169 -6.87667 5.41053 0
M  V30 823 C 147.659 -4.52537 5.39283 0
M  V30 824 C 146.949 -4.20027 4.08623 0
M  V30 825 N 146.999 -2.76189 3.71603 0
M  V30 826 H 144.161 -4.79756 7.24086 0
M  V30 827 H 143.889 -3.69963 5.84682 0
M  V30 828 H 144.757 -6.10431 5.41508 0
M  V30 829 H 147.412 -4.78816 3.28024 0
M  V30 830 H 147.692 -3.64957 6.05871 0
M  V30 831 H 148.683 -4.88748 5.21323 0
M  V30 832 H 146.849 -5.66789 7.0643 0
M  V30 833 P 148.719 -7.20834 5.23717 0
M  V30 834 O 148.939 -8.66104 5.38572 0
M  V30 835 O 149.509 -6.33544 6.1349 0
M  V30 836 O 148.969 -6.7751 3.72168 0
M  V30 837 C 148.029 -7.20825 2.7076 0
M  V30 838 C 148.759 -7.45864 1.40599 0
M  V30 839 O 148.969 -6.17651 0.734225 0
M  V30 840 C 150.159 -8.05808 1.51899 0
M  V30 841 O 150.549 -8.74358 0.335205 0
M  V30 842 C 151.039 -6.83093 1.70294 0
M  V30 843 C 150.329 -5.79992 0.836974 0
M  V30 844 N 150.379 -4.41864 1.38293 0
M  V30 845 C 150.299 -3.99538 2.69438 0
M  V30 846 N 150.379 -2.69909 2.84277 0
M  V30 847 C 150.519 -2.21719 1.5408 0
M  V30 848 C 150.649 -0.891712 1.06628 0
M  V30 849 O 150.669 0.161298 1.70137 0
M  V30 850 N 150.769 -0.856846 -0.334985 0
M  V30 851 C 150.769 -1.9641 -1.15789 0
M  V30 852 N 150.899 -1.72708 -2.46522 0
M  V30 853 N 150.639 -3.21165 -0.713741 0
M  V30 854 C 150.519 -3.26797 0.639748 0
M  V30 855 H 147.54 -8.13644 3.0377 0
M  V30 856 H 147.27 -6.42788 2.55485 0
M  V30 857 H 148.137 -8.12039 0.792769 0
M  V30 858 H 150.792 -5.80061 -0.166416 0
M  V30 859 H 151.071 -6.51287 2.75604 0
M  V30 860 H 152.063 -7.01734 1.34462 0
M  V30 861 H 150.229 -8.73674 2.38337 0
M  V30 862 H 150.18 -4.68207 3.53221 0
M  V30 863 H 150.862 0.0398818 -0.767965 0
M  V30 864 H 150.899 -2.50995 -3.13503 0
M  V30 865 H 151 -0.759148 -2.80716 0
M  V30 866 P 152.099 -8.91 9.82044e-15 0
M  V30 867 O 152.319 -10.1726 -0.733694 0
M  V30 868 O 152.889 -8.73148 1.23936 0
M  V30 869 O 152.349 -7.66872 -0.971405 0
M  V30 870 C 151.409 -7.42309 -2.04641 0
M  V30 871 C 152.139 -6.86059 -3.24661 0
M  V30 872 O 152.349 -5.42847 -3.03646 0
M  V30 873 C 153.539 -7.41196 -3.50753 0
M  V30 874 O 153.929 -7.27073 -4.86816 0
M  V30 875 C 154.419 -6.5273 -2.63741 0
M  V30 876 C 153.709 -5.1842 -2.73198 0
M  V30 877 N 153.759 -4.38762 -1.4784 0
M  V30 878 H 150.92 -8.36803 -2.32493 0
M  V30 879 H 150.65 -6.70197 -1.71129 0
M  V30 880 H 151.517 -7.03551 -4.13168 0
M  V30 881 P 155.479 -7.20834 -5.23717 0
M  V30 882 O 155.699 -7.79853 -6.57286 0
M  V30 883 O 156.269 -7.79239 -4.12957 0
M  V30 884 O 155.729 -5.63315 -5.29344 0
M  V30 885 C 154.789 -4.80255 -6.01876 0
M  V30 886 C 155.519 -3.64202 -6.65911 0
M  V30 887 O 155.729 -2.60694 -5.64732 0
M  V30 888 C 156.919 -3.93473 -7.1943 0
M  V30 889 O 157.309 -3.02071 -8.21205 0
M  V30 890 C 157.799 -3.73047 -5.97036 0
M  V30 891 C 157.089 -2.58828 -5.25741 0
M  V30 892 N 157.139 -2.68068 -3.77503 0
M  V30 893 H 154.3 -5.40332 -6.79951 0
M  V30 894 H 154.03 -4.41613 -5.32378 0
M  V30 895 H 154.897 -3.26331 -7.47797 0
M  V30 896 P 158.859 -2.75334 -8.47391 0
M  V30 897 O 159.079 -2.44595 -9.90239 0
M  V30 898 O 159.649 -3.87732 -7.92204 0
M  V30 899 O 159.109 -1.4459 -7.59357 0
M  V30 900 C 158.169 -0.347563 -7.69115 0
M  V30 901 C 158.899 0.96767 -7.52806 0
M  V30 902 O 159.109 1.21036 -6.1011 0
M  V30 903 C 160.299 1.04544 -8.13308 0
M  V30 904 O 160.689 2.38311 -8.41922 0
M  V30 905 C 161.179 0.491279 -7.02284 0
M  V30 906 C 160.469 0.996264 -5.77469 0
M  V30 907 N 160.519 0.0501808 -4.62873 0
M  V30 908 C 160.669 0.588177 -3.36904 0
M  V30 909 O 160.759 1.78598 -3.17173 0
M  V30 910 N 160.709 -0.329694 -2.33686 0
M  V30 911 C 160.619 -1.6953 -2.45079 0
M  V30 912 O 160.669 -2.41926 -1.44899 0
M  V30 913 C 160.469 -2.16933 -3.80505 0
M  V30 914 C 160.359 -3.65373 -3.97621 0
M  V30 915 C 160.419 -1.30326 -4.83752 0
M  V30 916 H 157.679 -0.374722 -8.67691 0
M  V30 917 H 157.41 -0.443421 -6.90177 0
M  V30 918 H 158.277 1.75537 -7.96793 0
M  V30 919 H 160.932 1.94496 -5.46629 0
M  V30 920 H 161.211 -0.608651 -7.04676 0
M  V30 921 H 162.203 0.889672 -7.08939 0
M  V30 922 H 160.369 0.43308 -9.04564 0
M  V30 923 H 160.298 -1.68366 -5.8516 0
M  V30 924 H 161.328 -4.05985 -4.30448 0
M  V30 925 H 159.591 -3.88028 -4.72875 0
M  V30 926 H 160.079 -4.11381 -3.01609 0
M  V30 927 H 160.815 0.0393617 -1.41345 0
M  V30 928 P 162.239 2.75334 -8.47391 0
M  V30 929 O 162.459 3.84128 -9.44797 0
M  V30 930 O 163.029 1.51947 -8.68712 0
M  V30 931 O 162.489 3.29363 -6.99321 0
M  V30 932 C 161.549 4.24011 -6.4274 0
M  V30 933 C 162.279 5.20775 -5.52155 0
M  V30 934 O 162.489 4.56534 -4.22446 0
M  V30 935 C 163.679 5.62629 -5.96531 0
M  V30 936 O 164.069 6.87667 -5.41053 0
M  V30 937 C 164.559 4.52537 -5.39283 0
M  V30 938 C 163.849 4.20027 -4.08623 0
M  V30 939 N 163.899 2.76189 -3.71603 0
M  V30 940 H 161.06 4.797 -7.24003 0
M  V30 941 H 160.79 3.69856 -5.84513 0
M  V30 942 H 161.657 6.10356 -5.41441 0
M  V30 943 P 165.619 7.20834 -5.23717 0
M  V30 944 O 165.839 8.66189 -5.38625 0
M  V30 945 O 166.409 6.33615 -6.1356 0
M  V30 946 O 165.869 6.7751 -3.72168 0
M  V30 947 C 164.929 7.20825 -2.7076 0
M  V30 948 C 165.659 7.45864 -1.40599 0
M  V30 949 O 165.869 6.17651 -0.734225 0
M  V30 950 C 167.059 8.05808 -1.51899 0
M  V30 951 O 167.449 8.74358 -0.335205 0
M  V30 952 C 167.939 6.83093 -1.70294 0
M  V30 953 C 167.229 5.79992 -0.836974 0
M  V30 954 N 167.279 4.41769 -1.38263 0
M  V30 955 C 167.429 3.36514 -0.485617 0
M  V30 956 O 167.519 3.61814 0.724703 0
M  V30 957 N 167.479 2.00746 -1.14492 0
M  V30 958 C 167.379 1.85887 -2.27776 0
M  V30 959 N 167.429 0.600907 -2.69379 0
M  V30 960 C 167.229 2.92182 -3.22265 0
M  V30 961 C 167.179 4.18399 -2.71925 0
M  V30 962 H 164.439 8.1355 -3.03735 0
M  V30 963 H 164.17 6.42695 -2.55448 0
M  V30 964 H 165.037 8.12139 -0.792866 0
M  V30 965 H 167.692 5.80078 0.160615 0
M  V30 966 H 167.971 6.51379 -2.75643 0
M  V30 967 H 168.963 7.01734 -1.34462 0
M  V30 968 H 167.129 8.73674 -2.38337 0
M  V30 969 H 167.057 5.02669 -3.39718 0
M  V30 970 H 167.159 2.73001 -4.29239 0
M  V30 971 H 167.547 -0.162318 -2.01146 0
M  V30 972 H 167.35 0.387742 -3.69773 0
M  V30 973 P 168.999 8.91 -1.09116e-14 0
M  V30 974 O 169.219 10.1726 0.733694 0
M  V30 975 O 169.789 8.73148 -1.23936 0
M  V30 976 O 169.249 7.66872 0.971405 0
M  V30 977 C 168.309 7.42309 2.04641 0
M  V30 978 C 169.039 6.86059 3.24661 0
M  V30 979 O 169.249 5.42847 3.03646 0
M  V30 980 C 170.439 7.41196 3.50753 0
M  V30 981 O 170.829 7.27073 4.86816 0
M  V30 982 C 171.319 6.5273 2.63741 0
M  V30 983 C 170.609 5.1842 2.73198 0
M  V30 984 N 170.659 4.38762 1.4784 0
M  V30 985 H 167.82 8.36803 2.32493 0
M  V30 986 H 167.55 6.70197 1.71129 0
M  V30 987 H 168.417 7.03551 4.13168 0
M  V30 988 P 172.379 7.20834 5.23717 0
M  V30 989 O 172.599 7.79853 6.57286 0
M  V30 990 O 173.169 7.79239 4.12957 0
M  V30 991 O 172.629 5.63315 5.29344 0
M  V30 992 C 171.689 4.80255 6.01876 0
M  V30 993 C 172.419 3.64202 6.65911 0
M  V30 994 O 172.629 2.60694 5.64732 0
M  V30 995 C 173.819 3.93473 7.1943 0
M  V30 996 O 174.209 3.02071 8.21205 0
M  V30 997 C 174.699 3.73047 5.97036 0
M  V30 998 C 173.989 2.58828 5.25741 0
M  V30 999 N 174.039 2.68068 3.77503 0
M  V30 1000 H 171.2 5.40332 6.79951 0
M  V30 1001 H 170.93 4.41613 5.32378 0
M  V30 1002 H 171.797 3.26331 7.47797 0
M  V30 1003 P 175.759 2.75334 8.47391 0
M  V30 1004 O 175.979 2.44619 9.90336 0
M  V30 1005 O 176.549 3.87776 7.92294 0
M  V30 1006 O 176.009 1.4459 7.59357 0
M  V30 1007 C 175.069 0.347653 7.69315 0
M  V30 1008 C 175.799 -0.96767 7.52806 0
M  V30 1009 O 176.009 -1.21055 6.10208 0
M  V30 1010 C 177.199 -1.04557 8.13408 0
M  V30 1011 O 177.589 -2.38311 8.41922 0
M  V30 1012 C 178.079 -0.491279 7.02284 0
M  V30 1013 C 177.369 -0.996264 5.77469 0
M  V30 1014 N 177.419 -0.0501916 4.62973 0
M  V30 1015 H 174.581 0.374765 8.67791 0
M  V30 1016 H 174.309 0.443613 6.90476 0
M  V30 1017 H 175.177 -1.75559 7.96891 0
M  V30 1018 H 177.832 -1.94563 5.46818 0
M  V30 1019 H 178.112 0.608651 7.04676 0
M  V30 1020 H 179.103 -0.889796 7.09039 0
M  V30 1021 H 177.269 -0.433128 9.04664 0
M  V30 1022 P 179.139 -2.75334 8.47391 0
M  V30 1023 O 179.359 -3.84128 9.44797 0
M  V30 1024 O 179.929 -1.51947 8.68712 0
M  V30 1025 O 179.389 -3.29363 6.99321 0
M  V30 1026 C 178.449 -4.24011 6.4274 0
M  V30 1027 C 179.179 -5.20775 5.52155 0
M  V30 1028 O 179.389 -4.56534 4.22446 0
M  V30 1029 C 180.579 -5.62629 5.96531 0
M  V30 1030 O 180.969 -6.87667 5.41053 0
M  V30 1031 C 181.459 -4.52537 5.39283 0
M  V30 1032 C 180.749 -4.20027 4.08623 0
M  V30 1033 N 180.799 -2.76189 3.71603 0
M  V30 1034 C 180.719 -1.64862 4.52822 0
M  V30 1035 N 180.799 -0.512671 3.88633 0
M  V30 1036 C 180.939 -0.888083 2.54977 0
M  V30 1037 C 181.069 -0.094668 1.38677 0
M  V30 1038 N 181.189 -0.890102 0.232633 0
M  V30 1039 C 181.189 -2.26958 0.21772 0
M  V30 1040 N 181.319 -2.84626 -0.97925 0
M  V30 1041 N 181.059 -3.0178 1.31033 0
M  V30 1042 C 180.939 -2.26781 2.43843 0
M  V30 1043 H 177.96 -4.797 7.24003 0
M  V30 1044 H 177.69 -3.69856 5.84513 0
M  V30 1045 H 178.557 -6.10356 5.41441 0
M  V30 1046 P 182.519 -7.20834 5.23717 0
M  V30 1047 O 182.739 -8.66104 5.38572 0
M  V30 1048 O 183.309 -6.33544 6.1349 0
M  V30 1049 O 182.769 -6.7751 3.72168 0
M  V30 1050 C 181.829 -7.20825 2.7076 0
M  V30 1051 C 182.559 -7.45864 1.40599 0
M  V30 1052 O 182.769 -6.17651 0.734225 0
M  V30 1053 C 183.959 -8.05808 1.51899 0
M  V30 1054 O 184.349 -8.74358 0.335205 0
M  V30 1055 C 184.839 -6.83093 1.70294 0
M  V30 1056 C 184.129 -5.79992 0.836974 0
M  V30 1057 N 184.179 -4.41864 1.38293 0
M  V30 1058 H 181.34 -8.13644 3.0377 0
M  V30 1059 H 181.07 -6.42788 2.55485 0
M  V30 1060 H 181.937 -8.12039 0.792769 0
M  V30 1061 P 185.899 -8.91 -8.29613e-14 0
M  V30 1062 O 186.119 -10.1726 -0.733694 0
M  V30 1063 O 186.689 -8.73148 1.23936 0
M  V30 1064 O 186.149 -7.66872 -0.971405 0
M  V30 1065 C 185.209 -7.42309 -2.04641 0
M  V30 1066 C 185.939 -6.86059 -3.24661 0
M  V30 1067 O 186.149 -5.42847 -3.03646 0
M  V30 1068 C 187.339 -7.41196 -3.50753 0
M  V30 1069 O 187.729 -7.27073 -4.86816 0
M  V30 1070 C 188.219 -6.5273 -2.63741 0
M  V30 1071 C 187.509 -5.1842 -2.73198 0
M  V30 1072 N 187.559 -4.38762 -1.4784 0
M  V30 1073 H 184.72 -8.36803 -2.32493 0
M  V30 1074 H 184.45 -6.70197 -1.71129 0
M  V30 1075 H 185.317 -7.03551 -4.13168 0
M  V30 1076 P 189.279 -7.20834 -5.23717 0
M  V30 1077 O 189.499 -7.80006 -6.57415 0
M  V30 1078 O 190.069 -7.79416 -4.13051 0
M  V30 1079 O 189.529 -5.63315 -5.29344 0
M  V30 1080 C 188.589 -4.80318 -6.01954 0
M  V30 1081 C 189.319 -3.64202 -6.65911 0
M  V30 1082 O 189.529 -2.60736 -5.64823 0
M  V30 1083 C 190.719 -3.93521 -7.19518 0
M  V30 1084 O 191.109 -3.02071 -8.21205 0
M  V30 1085 C 191.599 -3.73047 -5.97036 0
M  V30 1086 C 190.889 -2.58828 -5.25741 0
M  V30 1087 N 190.939 -2.68068 -3.77503 0
M  V30 1088 C 190.859 -3.80474 -2.99159 0
M  V30 1089 N 190.929 -3.55622 -1.71925 0
M  V30 1090 C 191.079 -2.1832 -1.65733 0
M  V30 1091 C 191.209 -1.28842 -0.572777 0
M  V30 1092 N 191.219 -1.66875 0.70098 0
M  V30 1093 N 191.329 0.016788 -0.859836 0
M  V30 1094 C 191.319 0.398145 -2.13316 0
M  V30 1095 N 191.199 -0.328224 -3.22333 0
M  V30 1096 C 191.079 -1.62992 -2.90383 0
M  V30 1097 H 188.101 -5.40394 -6.8003 0
M  V30 1098 H 187.829 -4.41741 -5.32532 0
M  V30 1099 H 188.697 -3.26371 -7.47889 0
M  V30 1100 H 191.352 -1.64007 -5.56746 0
M  V30 1101 H 191.632 -4.63439 -5.3432 0
M  V30 1102 H 192.623 -3.44776 -6.25925 0
M  V30 1103 H 190.789 -4.96707 -7.57347 0
M  V30 1104 H 190.748 -4.8089 -3.39924 0
M  V30 1105 H 191.129 -2.66547 0.941919 0
M  V30 1106 H 191.318 -0.965341 1.44766 0
M  V30 1107 H 191.426 1.46427 -2.29697 0
M  V30 1108 P 192.659 -2.75334 -8.47391 0
M  V30 1109 O 192.879 -2.44571 -9.90142 0
M  V30 1110 O 193.449 -3.87688 -7.92115 0
M  V30 1111 O 192.909 -1.4459 -7.59357 0
M  V30 1112 C 191.969 -0.347608 -7.69215 0
M  V30 1113 C 192.699 0.96767 -7.52806 0
M  V30 1114 O 192.909 1.21036 -6.1011 0
M  V30 1115 C 194.099 1.04544 -8.13308 0
M  V30 1116 O 194.489 2.38311 -8.41922 0
M  V30 1117 C 194.979 0.491279 -7.02284 0
M  V30 1118 C 194.269 0.996264 -5.77469 0
M  V30 1119 N 194.319 0.0501916 -4.62973 0
M  V30 1120 H 191.48 -0.374722 -8.67691 0
M  V30 1121 H 191.21 -0.443485 -6.90277 0
M  V30 1122 H 192.077 1.75537 -7.96793 0
M  V30 1123 P 196.039 2.75334 -8.47391 0
M  V30 1124 O 196.259 3.84128 -9.44797 0
M  V30 1125 O 196.829 1.51947 -8.68712 0
M  V30 1126 O 196.289 3.29363 -6.99321 0
M  V30 1127 C 195.349 4.24011 -6.4274 0
M  V30 1128 C 196.079 5.20775 -5.52155 0
M  V30 1129 O 196.289 4.56534 -4.22446 0
M  V30 1130 C 197.479 5.62629 -5.96531 0
M  V30 1131 O 197.869 6.87667 -5.41053 0
M  V30 1132 C 198.359 4.52537 -5.39283 0
M  V30 1133 C 197.649 4.20027 -4.08623 0
M  V30 1134 N 197.699 2.76189 -3.71603 0
M  V30 1135 H 194.86 4.797 -7.24003 0
M  V30 1136 H 194.59 3.69856 -5.84513 0
M  V30 1137 H 195.457 6.10356 -5.41441 0
M  V30 1138 P 199.419 7.20834 -5.23717 0
M  V30 1139 O 199.639 8.66104 -5.38572 0
M  V30 1140 O 200.209 6.33544 -6.1349 0
M  V30 1141 O 199.669 6.7751 -3.72168 0
M  V30 1142 C 198.729 7.20825 -2.7076 0
M  V30 1143 C 199.459 7.45864 -1.40599 0
M  V30 1144 O 199.669 6.17651 -0.734225 0
M  V30 1145 C 200.859 8.05808 -1.51899 0
M  V30 1146 O 201.249 8.74358 -0.335205 0
M  V30 1147 C 201.739 6.83093 -1.70294 0
M  V30 1148 C 201.029 5.79992 -0.836974 0
M  V30 1149 N 201.079 4.41864 -1.38293 0
M  V30 1150 C 200.999 3.99538 -2.69438 0
M  V30 1151 N 201.079 2.69909 -2.84277 0
M  V30 1152 C 201.219 2.21719 -1.5408 0
M  V30 1153 C 201.349 0.891712 -1.06628 0
M  V30 1154 N 201.469 0.856846 0.334985 0
M  V30 1155 C 201.469 1.9641 1.15789 0
M  V30 1156 N 201.599 1.72708 2.46522 0
M  V30 1157 N 201.339 3.21165 0.713741 0
M  V30 1158 C 201.219 3.26797 -0.639748 0
M  V30 1159 H 198.24 8.13644 -3.0377 0
M  V30 1160 H 197.97 6.42788 -2.55485 0
M  V30 1161 H 198.837 8.12039 -0.792769 0
M  V30 1162 P 202.799 8.91 2.40144e-13 0
M  V30 1163 O 203.019 10.1726 0.733694 0
M  V30 1164 O 203.589 8.73148 -1.23936 0
M  V30 1165 O 203.049 7.66872 0.971405 0
M  V30 1166 C 202.109 7.42309 2.04641 0
M  V30 1167 C 202.839 6.86059 3.24661 0
M  V30 1168 O 203.049 5.42847 3.03646 0
M  V30 1169 C 204.239 7.41196 3.50753 0
M  V30 1170 O 204.629 7.27073 4.86816 0
M  V30 1171 C 205.119 6.5273 2.63741 0
M  V30 1172 C 204.409 5.1842 2.73198 0
M  V30 1173 N 204.459 4.38762 1.4784 0
M  V30 1174 H 201.62 8.36803 2.32493 0
M  V30 1175 H 201.35 6.70197 1.71129 0
M  V30 1176 H 202.217 7.03551 4.13168 0
M  V30 1177 P 206.179 7.20834 5.23717 0
M  V30 1178 O 206.399 7.79853 6.57286 0
M  V30 1179 O 206.969 7.79239 4.12957 0
M  V30 1180 O 206.429 5.63315 5.29344 0
M  V30 1181 C 205.489 4.80255 6.01876 0
M  V30 1182 C 206.219 3.64202 6.65911 0
M  V30 1183 O 206.429 2.60694 5.64732 0
M  V30 1184 C 207.619 3.93473 7.1943 0
M  V30 1185 O 208.009 3.02071 8.21205 0
M  V30 1186 C 208.499 3.73047 5.97036 0
M  V30 1187 C 207.789 2.58828 5.25741 0
M  V30 1188 N 207.839 2.68068 3.77503 0
M  V30 1189 C 207.759 3.79715 2.96723 0
M  V30 1190 N 207.839 3.5377 1.68852 0
M  V30 1191 C 207.979 2.15054 1.63254 0
M  V30 1192 C 208.109 1.28964 0.518571 0
M  V30 1193 N 208.229 -0.0538097 0.918425 0
M  V30 1194 C 208.229 -0.494275 2.22578 0
M  V30 1195 N 208.359 -1.81086 2.40434 0
M  V30 1196 N 208.099 0.313645 3.27502 0
M  V30 1197 C 207.979 1.61829 2.91033 0
M  V30 1198 H 205 5.40332 6.79951 0
M  V30 1199 H 204.73 4.41613 5.32378 0
M  V30 1200 H 205.597 3.26331 7.47797 0
M  V30 1201 P 209.559 2.75334 8.47391 0
M  V30 1202 O 209.779 2.44571 9.90142 0
M  V30 1203 O 210.349 3.87688 7.92115 0
M  V30 1204 O 209.809 1.4459 7.59357 0
M  V30 1205 C 208.869 0.347608 7.69215 0
M  V30 1206 C 209.599 -0.96767 7.52806 0
M  V30 1207 O 209.809 -1.21036 6.1011 0
M  V30 1208 C 210.999 -1.04544 8.13308 0
M  V30 1209 O 211.389 -2.38311 8.41922 0
M  V30 1210 C 211.879 -0.491279 7.02284 0
M  V30 1211 C 211.169 -0.996264 5.77469 0
M  V30 1212 N 211.219 -0.0501916 4.62973 0
M  V30 1213 C 211.139 1.32786 4.63244 0
M  V30 1214 N 211.219 1.86957 3.44545 0
M  V30 1215 C 211.359 0.780241 2.58481 0
M  V30 1216 C 211.489 0.738536 1.17757 0
M  V30 1217 O 211.509 1.66794 0.372349 0
M  V30 1218 N 211.609 -0.58337 0.711393 0
M  V30 1219 C 211.609 -1.70816 1.51017 0
M  V30 1220 N 211.739 -2.87826 0.880757 0
M  V30 1221 N 211.479 -1.67126 2.8339 0
M  V30 1222 C 211.359 -0.401421 3.30572 0
M  V30 1223 H 208.38 0.374722 8.67691 0
M  V30 1224 H 208.11 0.443485 6.90277 0
M  V30 1225 H 208.977 -1.75537 7.96793 0
M  V30 1226 H 211.632 -1.95076 5.46529 0
M  V30 1227 H 211.911 0.608565 7.04577 0
M  V30 1228 H 212.903 -0.889672 7.08939 0
M  V30 1229 H 211.069 -0.43308 9.04564 0
M  V30 1230 H 211.02 1.91249 5.54442 0
M  V30 1231 H 211.702 -0.718054 -0.275244 0
M  V30 1232 H 211.739 -3.75721 1.41832 0
M  V30 1233 H 211.84 -2.90436 -0.145468 0
M  V30 1234 P 212.939 -2.75334 8.47391 0
M  V30 1235 O 213.159 -3.84128 9.44797 0
M  V30 1236 O 213.729 -1.51947 8.68712 0
M  V30 1237 O 213.189 -3.29363 6.99321 0
M  V30 1238 C 212.249 -4.24011 6.4274 0
M  V30 1239 C 212.979 -5.20775 5.52155 0
M  V30 1240 O 213.189 -4.56534 4.22446 0
M  V30 1241 C 214.379 -5.62629 5.96531 0
M  V30 1242 O 214.769 -6.87667 5.41053 0
M  V30 1243 C 215.259 -4.52537 5.39283 0
M  V30 1244 C 214.549 -4.20027 4.08623 0
M  V30 1245 N 214.599 -2.76189 3.71603 0
M  V30 1246 H 211.76 -4.797 7.24003 0
M  V30 1247 H 211.49 -3.69856 5.84513 0
M  V30 1248 H 212.357 -6.10356 5.41441 0
M  V30 1249 P 216.319 -7.20834 5.23717 0
M  V30 1250 O 216.539 -8.66104 5.38572 0
M  V30 1251 O 217.109 -6.33544 6.1349 0
M  V30 1252 O 216.569 -6.7751 3.72168 0
M  V30 1253 C 215.629 -7.20825 2.7076 0
M  V30 1254 C 216.359 -7.45864 1.40599 0
M  V30 1255 O 216.569 -6.17651 0.734225 0
M  V30 1256 C 217.759 -8.05808 1.51899 0
M  V30 1257 O 218.149 -8.74358 0.335205 0
M  V30 1258 C 218.639 -6.83093 1.70294 0
M  V30 1259 C 217.929 -5.79992 0.836974 0
M  V30 1260 N 217.979 -4.41864 1.38293 0
M  V30 1261 C 217.899 -3.99538 2.69438 0
M  V30 1262 N 217.979 -2.69909 2.84277 0
M  V30 1263 C 218.119 -2.21719 1.5408 0
M  V30 1264 C 218.249 -0.891712 1.06628 0
M  V30 1265 O 218.269 0.161298 1.70137 0
M  V30 1266 N 218.369 -0.856846 -0.334985 0
M  V30 1267 C 218.369 -1.9641 -1.15789 0
M  V30 1268 N 218.499 -1.72708 -2.46522 0
M  V30 1269 N 218.239 -3.21165 -0.713741 0
M  V30 1270 C 218.119 -3.26797 0.639748 0
M  V30 1271 H 215.14 -8.13644 3.0377 0
M  V30 1272 H 214.87 -6.42788 2.55485 0
M  V30 1273 H 215.737 -8.12039 0.792769 0
M  V30 1274 H 218.392 -5.80061 -0.166416 0
M  V30 1275 H 218.671 -6.51287 2.75604 0
M  V30 1276 H 219.663 -7.01734 1.34462 0
M  V30 1277 H 217.829 -8.73674 2.38337 0
M  V30 1278 H 217.78 -4.68207 3.53221 0
M  V30 1279 H 218.462 0.0398818 -0.767965 0
M  V30 1280 H 218.499 -2.50995 -3.13503 0
M  V30 1281 H 218.6 -0.759148 -2.80716 0
M  V30 1282 P 219.699 -8.91 -3.97326e-13 0
M  V30 1283 O 219.919 -10.1726 -0.733694 0
M  V30 1284 O 220.489 -8.73148 1.23936 0
M  V30 1285 O 219.949 -7.66872 -0.971405 0
M  V30 1286 C 219.009 -7.42309 -2.04641 0
M  V30 1287 C 219.739 -6.86059 -3.24661 0
M  V30 1288 O 219.949 -5.42847 -3.03646 0
M  V30 1289 C 221.139 -7.41196 -3.50753 0
M  V30 1290 O 221.529 -7.27073 -4.86816 0
M  V30 1291 C 222.019 -6.5273 -2.63741 0
M  V30 1292 C 221.309 -5.1842 -2.73198 0
M  V30 1293 N 221.359 -4.38762 -1.4784 0
M  V30 1294 H 218.52 -8.36803 -2.32493 0
M  V30 1295 H 218.25 -6.70197 -1.71129 0
M  V30 1296 H 219.117 -7.03551 -4.13168 0
M  V30 1297 P 223.079 -7.20834 -5.23717 0
M  V30 1298 O 223.299 -7.79853 -6.57286 0
M  V30 1299 O 223.869 -7.79239 -4.12957 0
M  V30 1300 O 223.329 -5.63315 -5.29344 0
M  V30 1301 C 222.389 -4.80255 -6.01876 0
M  V30 1302 C 223.119 -3.64202 -6.65911 0
M  V30 1303 O 223.329 -2.60694 -5.64732 0
M  V30 1304 C 224.519 -3.93473 -7.1943 0
M  V30 1305 O 224.909 -3.02071 -8.21205 0
M  V30 1306 C 225.399 -3.73047 -5.97036 0
M  V30 1307 C 224.689 -2.58828 -5.25741 0
M  V30 1308 N 224.739 -2.68068 -3.77503 0
M  V30 1309 H 221.9 -5.40332 -6.79951 0
M  V30 1310 H 221.63 -4.41613 -5.32378 0
M  V30 1311 H 222.497 -3.26331 -7.47797 0
M  V30 1312 P 226.459 -2.75334 -8.47391 0
M  V30 1313 O 226.679 -2.44595 -9.90239 0
M  V30 1314 O 227.249 -3.87732 -7.92204 0
M  V30 1315 O 226.709 -1.4459 -7.59357 0
M  V30 1316 C 225.769 -0.347563 -7.69115 0
M  V30 1317 C 226.499 0.96767 -7.52806 0
M  V30 1318 O 226.709 1.21036 -6.1011 0
M  V30 1319 C 227.899 1.04544 -8.13308 0
M  V30 1320 O 228.289 2.38311 -8.41922 0
M  V30 1321 C 228.779 0.491279 -7.02284 0
M  V30 1322 C 228.069 0.996264 -5.77469 0
M  V30 1323 N 228.119 0.0501808 -4.62873 0
M  V30 1324 C 228.269 0.588177 -3.36904 0
M  V30 1325 O 228.359 1.78598 -3.17173 0
M  V30 1326 N 228.309 -0.329694 -2.33686 0
M  V30 1327 C 228.219 -1.6953 -2.45079 0
M  V30 1328 O 228.269 -2.41926 -1.44899 0
M  V30 1329 C 228.069 -2.16933 -3.80505 0
M  V30 1330 C 227.959 -3.65373 -3.97621 0
M  V30 1331 C 228.019 -1.30326 -4.83752 0
M  V30 1332 H 225.279 -0.374722 -8.67691 0
M  V30 1333 H 225.01 -0.443421 -6.90177 0
M  V30 1334 H 225.877 1.75537 -7.96793 0
M  V30 1335 H 228.532 1.94496 -5.46629 0
M  V30 1336 H 228.811 -0.608651 -7.04676 0
M  V30 1337 H 229.803 0.889672 -7.08939 0
M  V30 1338 H 227.969 0.43308 -9.04564 0
M  V30 1339 H 227.898 -1.68366 -5.8516 0
M  V30 1340 H 228.928 -4.05985 -4.30448 0
M  V30 1341 H 227.191 -3.88028 -4.72875 0
M  V30 1342 H 227.679 -4.11381 -3.01609 0
M  V30 1343 H 228.415 0.0393617 -1.41345 0
M  V30 1344 P 229.839 2.75334 -8.47391 0
M  V30 1345 O 230.059 3.84128 -9.44797 0
M  V30 1346 O 230.629 1.51947 -8.68712 0
M  V30 1347 O 230.089 3.29363 -6.99321 0
M  V30 1348 C 229.149 4.24011 -6.4274 0
M  V30 1349 C 229.879 5.20775 -5.52155 0
M  V30 1350 O 230.089 4.56534 -4.22446 0
M  V30 1351 C 231.279 5.62629 -5.96531 0
M  V30 1352 O 231.669 6.87667 -5.41053 0
M  V30 1353 C 232.159 4.52537 -5.39283 0
M  V30 1354 C 231.449 4.20027 -4.08623 0
M  V30 1355 N 231.499 2.76189 -3.71603 0
M  V30 1356 H 228.66 4.797 -7.24003 0
M  V30 1357 H 228.39 3.69856 -5.84513 0
M  V30 1358 H 229.257 6.10356 -5.41441 0
M  V30 1359 P 233.219 7.20834 -5.23717 0
M  V30 1360 O 233.439 8.66104 -5.38572 0
M  V30 1361 O 234.009 6.33544 -6.1349 0
M  V30 1362 O 233.469 6.7751 -3.72168 0
M  V30 1363 C 232.529 7.20825 -2.7076 0
M  V30 1364 C 233.259 7.45864 -1.40599 0
M  V30 1365 O 233.469 6.17651 -0.734225 0
M  V30 1366 C 234.659 8.05808 -1.51899 0
M  V30 1367 O 235.049 8.74358 -0.335205 0
M  V30 1368 C 235.539 6.83093 -1.70294 0
M  V30 1369 C 234.829 5.79992 -0.836974 0
M  V30 1370 N 234.879 4.41864 -1.38293 0
M  V30 1371 H 232.04 8.13644 -3.0377 0
M  V30 1372 H 231.77 6.42788 -2.55485 0
M  V30 1373 H 232.637 8.12039 -0.792769 0
M  V30 1374 P 236.599 8.91 5.54508e-13 0
M  V30 1375 O 236.819 10.1726 0.733694 0
M  V30 1376 O 237.389 8.73148 -1.23936 0
M  V30 1377 O 236.849 7.66872 0.971405 0
M  V30 1378 C 235.909 7.42309 2.04641 0
M  V30 1379 C 236.639 6.86059 3.24661 0
M  V30 1380 O 236.849 5.42847 3.03646 0
M  V30 1381 C 238.039 7.41196 3.50753 0
M  V30 1382 O 238.429 7.27073 4.86816 0
M  V30 1383 C 238.919 6.5273 2.63741 0
M  V30 1384 C 238.209 5.1842 2.73198 0
M  V30 1385 N 238.259 4.38762 1.4784 0
M  V30 1386 H 235.42 8.36803 2.32493 0
M  V30 1387 H 235.15 6.70197 1.71129 0
M  V30 1388 H 236.017 7.03551 4.13168 0
M  V30 1389 P 239.979 7.20834 5.23717 0
M  V30 1390 O 240.199 7.80006 6.57415 0
M  V30 1391 O 240.769 7.79416 4.13051 0
M  V30 1392 O 240.229 5.63315 5.29344 0
M  V30 1393 C 239.289 4.80318 6.01954 0
M  V30 1394 C 240.019 3.64202 6.65911 0
M  V30 1395 O 240.229 2.60736 5.64823 0
M  V30 1396 C 241.419 3.93521 7.19518 0
M  V30 1397 O 241.809 3.02071 8.21205 0
M  V30 1398 C 242.299 3.73047 5.97036 0
M  V30 1399 C 241.589 2.58828 5.25741 0
M  V30 1400 N 241.639 2.68068 3.77503 0
M  V30 1401 H 238.801 5.40394 6.8003 0
M  V30 1402 H 238.529 4.41741 5.32532 0
M  V30 1403 H 239.397 3.26371 7.47889 0
M  V30 1404 H 242.052 1.64007 5.56746 0
M  V30 1405 H 242.332 4.63439 5.3432 0
M  V30 1406 H 243.323 3.44776 6.25925 0
M  V30 1407 H 241.489 4.96707 7.57347 0
M  V30 1408 P 243.359 2.75334 8.47391 0
M  V30 1409 O 243.579 2.44619 9.90336 0
M  V30 1410 O 244.149 3.87776 7.92294 0
M  V30 1411 O 243.609 1.4459 7.59357 0
M  V30 1412 C 242.669 0.347653 7.69315 0
M  V30 1413 C 243.399 -0.96767 7.52806 0
M  V30 1414 O 243.609 -1.21055 6.10208 0
M  V30 1415 C 244.799 -1.04557 8.13408 0
M  V30 1416 O 245.189 -2.38311 8.41922 0
M  V30 1417 C 245.679 -0.491279 7.02284 0
M  V30 1418 C 244.969 -0.996264 5.77469 0
M  V30 1419 N 245.019 -0.0501916 4.62973 0
M  V30 1420 C 244.939 1.31969 4.65661 0
M  V30 1421 N 245.009 1.86649 3.48119 0
M  V30 1422 C 245.159 0.792089 2.62406 0
M  V30 1423 C 245.289 0.705684 1.2207 0
M  V30 1424 N 245.299 1.76207 0.413762 0
M  V30 1425 N 245.409 -0.518981 0.685754 0
M  V30 1426 C 245.399 -1.57595 1.49174 0
M  V30 1427 N 245.279 -1.62909 2.80066 0
M  V30 1428 C 245.159 -0.388195 3.3073 0
M  V30 1429 H 242.181 0.374765 8.67791 0
M  V30 1430 H 241.909 0.443613 6.90476 0
M  V30 1431 H 242.777 -1.75559 7.96891 0
M  V30 1432 H 245.432 -1.94563 5.46818 0
M  V30 1433 H 245.712 0.608651 7.04676 0
M  V30 1434 H 246.703 -0.889796 7.09039 0
M  V30 1435 H 244.869 -0.433128 9.04664 0
M  V30 1436 H 244.828 1.89246 5.57664 0
M  V30 1437 H 245.209 2.71005 0.804694 0
M  V30 1438 H 245.398 1.63189 -0.603768 0
M  V30 1439 H 245.506 -2.53475 0.997614 0
M  V30 1440 P 246.739 -2.75334 8.47391 0
M  V30 1441 O 246.959 -3.84128 9.44797 0
M  V30 1442 O 247.529 -1.51947 8.68712 0
M  V30 1443 O 246.989 -3.29363 6.99321 0
M  V30 1444 C 246.049 -4.24011 6.4274 0
M  V30 1445 C 246.779 -5.20775 5.52155 0
M  V30 1446 O 246.989 -4.56534 4.22446 0
M  V30 1447 C 248.179 -5.62629 5.96531 0
M  V30 1448 O 248.569 -6.87667 5.41053 0
M  V30 1449 C 249.059 -4.52537 5.39283 0
M  V30 1450 C 248.349 -4.20027 4.08623 0
M  V30 1451 N 248.399 -2.76189 3.71603 0
M  V30 1452 H 245.56 -4.797 7.24003 0
M  V30 1453 H 245.29 -3.69856 5.84513 0
M  V30 1454 H 246.157 -6.10356 5.41441 0
M  V30 1455 P 250.119 -7.20834 5.23717 0
M  V30 1456 O 250.339 -8.66104 5.38572 0
M  V30 1457 O 250.909 -6.33544 6.1349 0
M  V30 1458 O 250.369 -6.7751 3.72168 0
M  V30 1459 C 249.429 -7.20825 2.7076 0
M  V30 1460 C 250.159 -7.45864 1.40599 0
M  V30 1461 O 250.369 -6.17651 0.734225 0
M  V30 1462 C 251.559 -8.05808 1.51899 0
M  V30 1463 O 251.949 -8.74358 0.335205 0
M  V30 1464 C 252.439 -6.83093 1.70294 0
M  V30 1465 C 251.729 -5.79992 0.836974 0
M  V30 1466 N 251.779 -4.41864 1.38293 0
M  V30 1467 H 248.94 -8.13644 3.0377 0
M  V30 1468 H 248.67 -6.42788 2.55485 0
M  V30 1469 H 249.537 -8.12039 0.792769 0
M  V30 1470 P 253.498 -8.91 -7.1169e-13 0
M  V30 1471 O 253.718 -10.1726 -0.733694 0
M  V30 1472 O 254.288 -8.73148 1.23936 0
M  V30 1473 O 253.748 -7.66872 -0.971405 0
M  V30 1474 C 252.808 -7.42309 -2.04641 0
M  V30 1475 C 253.538 -6.86059 -3.24661 0
M  V30 1476 O 253.748 -5.42847 -3.03646 0
M  V30 1477 C 254.938 -7.41196 -3.50753 0
M  V30 1478 O 255.328 -7.27073 -4.86816 0
M  V30 1479 C 255.818 -6.5273 -2.63741 0
M  V30 1480 C 255.108 -5.1842 -2.73198 0
M  V30 1481 N 255.158 -4.38762 -1.4784 0
M  V30 1482 H 252.319 -8.36803 -2.32493 0
M  V30 1483 H 252.049 -6.70197 -1.71129 0
M  V30 1484 H 252.916 -7.03551 -4.13168 0
M  V30 1485 P 256.878 -7.20834 -5.23717 0
M  V30 1486 O 257.098 -7.80006 -6.57415 0
M  V30 1487 O 257.668 -7.79416 -4.13051 0
M  V30 1488 O 257.128 -5.63315 -5.29344 0
M  V30 1489 C 256.188 -4.80318 -6.01954 0
M  V30 1490 C 256.918 -3.64202 -6.65911 0
M  V30 1491 O 257.128 -2.60736 -5.64823 0
M  V30 1492 C 258.318 -3.93521 -7.19518 0
M  V30 1493 O 258.708 -3.02071 -8.21205 0
M  V30 1494 C 259.198 -3.73047 -5.97036 0
M  V30 1495 C 258.488 -2.58828 -5.25741 0
M  V30 1496 N 258.538 -2.68068 -3.77503 0
M  V30 1497 C 258.458 -3.80474 -2.99159 0
M  V30 1498 N 258.528 -3.55622 -1.71925 0
M  V30 1499 C 258.678 -2.1832 -1.65733 0
M  V30 1500 C 258.808 -1.28842 -0.572777 0
M  V30 1501 N 258.818 -1.66875 0.70098 0
M  V30 1502 N 258.928 0.016788 -0.859836 0
M  V30 1503 C 258.918 0.398145 -2.13316 0
M  V30 1504 N 258.798 -0.328224 -3.22333 0
M  V30 1505 C 258.678 -1.62992 -2.90383 0
M  V30 1506 H 255.7 -5.40394 -6.8003 0
M  V30 1507 H 255.428 -4.41741 -5.32532 0
M  V30 1508 H 256.296 -3.26371 -7.47889 0
M  V30 1509 H 258.951 -1.64007 -5.56746 0
M  V30 1510 H 259.231 -4.63439 -5.3432 0
M  V30 1511 H 260.222 -3.44776 -6.25925 0
M  V30 1512 H 258.388 -4.96707 -7.57347 0
M  V30 1513 H 258.347 -4.8089 -3.39924 0
M  V30 1514 H 258.728 -2.66547 0.941919 0
M  V30 1515 H 258.917 -0.965341 1.44766 0
M  V30 1516 H 259.025 1.46427 -2.29697 0
M  V30 1517 P 260.258 -2.75334 -8.47391 0
M  V30 1518 O 260.478 -2.44619 -9.90336 0
M  V30 1519 O 261.048 -3.87776 -7.92294 0
M  V30 1520 O 260.508 -1.4459 -7.59357 0
M  V30 1521 C 259.568 -0.347653 -7.69315 0
M  V30 1522 C 260.298 0.96767 -7.52806 0
M  V30 1523 O 260.508 1.21055 -6.10208 0
M  V30 1524 C 261.698 1.04557 -8.13408 0
M  V30 1525 O 262.088 2.38311 -8.41922 0
M  V30 1526 C 262.578 0.491279 -7.02284 0
M  V30 1527 C 261.868 0.996264 -5.77469 0
M  V30 1528 N 261.918 0.0501916 -4.62973 0
M  V30 1529 C 261.838 -1.31969 -4.65661 0
M  V30 1530 N 261.908 -1.86649 -3.48119 0
M  V30 1531 C 262.058 -0.792089 -2.62406 0
M  V30 1532 C 262.188 -0.705684 -1.2207 0
M  V30 1533 N 262.198 -1.76207 -0.413762 0
M  V30 1534 N 262.308 0.518981 -0.685754 0
M  V30 1535 C 262.298 1.57595 -1.49174 0
M  V30 1536 N 262.178 1.62909 -2.80066 0
M  V30 1537 C 262.058 0.388195 -3.3073 0
M  V30 1538 H 259.08 -0.374765 -8.67791 0
M  V30 1539 H 258.808 -0.443613 -6.90476 0
M  V30 1540 H 259.676 1.75559 -7.96891 0
M  V30 1541 H 262.331 1.94563 -5.46818 0
M  V30 1542 H 262.611 -0.608651 -7.04676 0
M  V30 1543 H 263.602 0.889796 -7.09039 0
M  V30 1544 H 261.768 0.433128 -9.04664 0
M  V30 1545 H 261.727 -1.89246 -5.57664 0
M  V30 1546 H 262.108 -2.71005 -0.804694 0
M  V30 1547 H 262.297 -1.63189 0.603768 0
M  V30 1548 H 262.405 2.53475 -0.997614 0
M  V30 1549 P 263.638 2.75334 -8.47391 0
M  V30 1550 O 263.858 3.84204 -9.44982 0
M  V30 1551 O 264.428 1.51982 -8.68909 0
M  V30 1552 O 263.888 3.29363 -6.99321 0
M  V30 1553 C 262.948 4.24066 -6.42823 0
M  V30 1554 C 263.678 5.20775 -5.52155 0
M  V30 1555 O 263.888 4.56607 -4.22514 0
M  V30 1556 C 265.078 5.62697 -5.96604 0
M  V30 1557 O 265.468 6.87667 -5.41053 0
M  V30 1558 C 265.958 4.52537 -5.39283 0
M  V30 1559 C 265.248 4.20027 -4.08623 0
M  V30 1560 N 265.298 2.76189 -3.71603 0
M  V30 1561 H 262.46 4.79756 -7.24086 0
M  V30 1562 H 262.188 3.69963 -5.84682 0
M  V30 1563 H 263.056 6.10431 -5.41508 0
M  V30 1564 H 265.711 4.78816 -3.28024 0
M  V30 1565 H 265.991 3.64957 -6.05871 0
M  V30 1566 H 266.982 4.88748 -5.21323 0
M  V30 1567 H 265.148 5.66789 -7.0643 0
M  V30 1568 P 267.018 7.20834 -5.23717 0
M  V30 1569 O 267.238 8.66274 -5.38678 0
M  V30 1570 O 267.808 6.33687 -6.13629 0
M  V30 1571 O 267.268 6.7751 -3.72168 0
M  V30 1572 C 266.328 7.20919 -2.70795 0
M  V30 1573 C 267.058 7.45864 -1.40599 0
M  V30 1574 O 267.268 6.17751 -0.734343 0
M  V30 1575 C 268.458 8.05906 -1.51917 0
M  V30 1576 O 268.848 8.74358 -0.335205 0
M  V30 1577 C 269.338 6.83093 -1.70294 0
M  V30 1578 C 268.628 5.79992 -0.836974 0
M  V30 1579 N 268.678 4.41864 -1.38293 0
M  V30 1580 C 268.598 4.02089 -2.69407 0
M  V30 1581 N 268.668 2.73403 -2.85089 0
M  V30 1582 C 268.818 2.25086 -1.5642 0
M  V30 1583 C 268.948 0.942887 -1.04836 0
M  V30 1584 N 268.958 -0.150999 -1.80369 0
M  V30 1585 N 269.068 0.812565 0.28167 0
M  V30 1586 C 269.058 1.90572 1.03784 0
M  V30 1587 N 268.938 3.167 0.683905 0
M  V30 1588 C 268.818 3.26538 -0.652815 0
M  V30 1589 H 265.84 8.13738 -3.03804 0
M  V30 1590 H 265.568 6.42974 -2.55559 0
M  V30 1591 H 266.436 8.12139 -0.792866 0
M  V30 1592 H 269.091 5.80178 0.160643 0
M  V30 1593 H 269.371 6.51379 -2.75643 0
M  V30 1594 H 270.362 7.01832 -1.3448 0
M  V30 1595 H 268.528 8.73771 -2.38364 0
M  V30 1596 H 268.487 4.7189 -3.52311 0
M  V30 1597 H 268.868 -0.0721434 -2.82608 0
M  V30 1598 H 269.057 -1.0785 -1.36544 0
M  V30 1599 H 269.165 1.73207 2.10241 0
M  V30 1600 P 270.398 8.91 8.68872e-13 0
M  V30 1601 O 270.618 10.1746 0.733838 0
M  V30 1602 O 271.188 8.73346 -1.23964 0
M  V30 1603 O 270.648 7.66872 0.971405 0
M  V30 1604 C 269.708 7.42405 2.04668 0
M  V30 1605 C 270.438 6.86059 3.24661 0
M  V30 1606 O 270.648 5.42934 3.03695 0
M  V30 1607 C 271.838 7.41287 3.50796 0
M  V30 1608 O 272.228 7.27073 4.86816 0
M  V30 1609 C 272.718 6.5273 2.63741 0
M  V30 1610 C 272.008 5.1842 2.73198 0
M  V30 1611 N 272.058 4.38762 1.4784 0
M  V30 1612 C 271.978 4.83651 0.183876 0
M  V30 1613 N 272.048 3.88759 -0.699393 0
M  V30 1614 C 272.198 2.7404 0.0575568 0
M  V30 1615 C 272.328 1.37902 -0.293928 0
M  V30 1616 N 272.338 0.938021 -1.54797 0
M  V30 1617 N 272.448 0.491817 0.70549 0
M  V30 1618 C 272.438 0.931735 1.95979 0
M  V30 1619 N 272.318 2.16017 2.41481 0
M  V30 1620 C 272.198 3.02547 1.39121 0
M  V30 1621 H 269.22 8.36899 2.3252 0
M  V30 1622 H 268.948 6.70391 1.71179 0
M  V30 1623 H 269.816 7.03638 4.13219 0
M  V30 1624 H 272.471 4.59931 3.54016 0
M  V30 1625 H 272.751 6.88995 1.59871 0
M  V30 1626 H 273.742 6.4684 3.0373 0
M  V30 1627 H 271.908 8.47002 3.20749 0
M  V30 1628 H 271.867 5.8885 -0.0765548 0
M  V30 1629 H 272.248 1.60276 -2.32875 0
M  V30 1630 H 272.437 -0.0699355 -1.73859 0
M  V30 1631 H 272.545 0.165507 2.71897 0
M  V30 1632 P 273.778 7.20834 5.23717 0
M  V30 1633 O 273.998 7.79853 6.57286 0
M  V30 1634 O 274.568 7.79239 4.12957 0
M  V30 1635 O 274.028 5.63315 5.29344 0
M  V30 1636 C 273.088 4.80255 6.01876 0
M  V30 1637 C 273.818 3.64202 6.65911 0
M  V30 1638 O 274.028 2.60694 5.64732 0
M  V30 1639 C 275.218 3.93473 7.1943 0
M  V30 1640 O 275.608 3.02071 8.21205 0
M  V30 1641 C 276.098 3.73047 5.97036 0
M  V30 1642 C 275.388 2.58828 5.25741 0
M  V30 1643 N 275.438 2.68068 3.77503 0
M  V30 1644 C 275.358 3.79715 2.96723 0
M  V30 1645 N 275.438 3.5377 1.68852 0
M  V30 1646 C 275.578 2.15054 1.63254 0
M  V30 1647 C 275.708 1.28964 0.518571 0
M  V30 1648 N 275.828 -0.0538097 0.918425 0
M  V30 1649 C 275.828 -0.494275 2.22578 0
M  V30 1650 N 275.958 -1.81086 2.40434 0
M  V30 1651 N 275.698 0.313645 3.27502 0
M  V30 1652 C 275.578 1.61829 2.91033 0
M  V30 1653 H 272.599 5.40332 6.79951 0
M  V30 1654 H 272.329 4.41613 5.32378 0
M  V30 1655 H 273.196 3.26331 7.47797 0
M  V30 1656 P 277.158 2.75334 8.47391 0
M  V30 1657 O 277.378 2.44571 9.90142 0
M  V30 1658 O 277.948 3.87688 7.92115 0
M  V30 1659 O 277.408 1.4459 7.59357 0
M  V30 1660 C 276.468 0.347608 7.69215 0
M  V30 1661 C 277.198 -0.96767 7.52806 0
M  V30 1662 O 277.408 -1.21036 6.1011 0
M  V30 1663 C 278.598 -1.04544 8.13308 0
M  V30 1664 O 278.988 -2.38311 8.41922 0
M  V30 1665 C 279.478 -0.491279 7.02284 0
M  V30 1666 C 278.768 -0.996264 5.77469 0
M  V30 1667 N 278.818 -0.0501916 4.62973 0
M  V30 1668 H 275.979 0.374722 8.67691 0
M  V30 1669 H 275.709 0.443485 6.90277 0
M  V30 1670 H 276.576 -1.75537 7.96793 0
M  V30 1671 P 280.538 -2.75334 8.47391 0
M  V30 1672 O 280.758 -3.84204 9.44982 0
M  V30 1673 O 281.328 -1.51982 8.68909 0
M  V30 1674 O 280.788 -3.29363 6.99321 0
M  V30 1675 C 279.848 -4.24066 6.42823 0
M  V30 1676 C 280.578 -5.20775 5.52155 0
M  V30 1677 O 280.788 -4.56607 4.22514 0
M  V30 1678 C 281.978 -5.62697 5.96604 0
M  V30 1679 O 282.368 -6.87667 5.41053 0
M  V30 1680 C 282.858 -4.52537 5.39283 0
M  V30 1681 C 282.148 -4.20027 4.08623 0
M  V30 1682 N 282.198 -2.76189 3.71603 0
M  V30 1683 H 279.36 -4.79756 7.24086 0
M  V30 1684 H 279.088 -3.69963 5.84682 0
M  V30 1685 H 279.956 -6.10431 5.41508 0
M  V30 1686 H 282.611 -4.78816 3.28024 0
M  V30 1687 H 282.891 -3.64957 6.05871 0
M  V30 1688 H 283.882 -4.88748 5.21323 0
M  V30 1689 H 282.048 -5.66789 7.0643 0
M  V30 1690 P 283.918 -7.20834 5.23717 0
M  V30 1691 O 284.138 -8.66104 5.38572 0
M  V30 1692 O 284.708 -6.33544 6.1349 0
M  V30 1693 O 284.168 -6.7751 3.72168 0
M  V30 1694 C 283.228 -7.20825 2.7076 0
M  V30 1695 C 283.958 -7.45864 1.40599 0
M  V30 1696 O 284.168 -6.17651 0.734225 0
M  V30 1697 C 285.358 -8.05808 1.51899 0
M  V30 1698 O 285.748 -8.74358 0.335205 0
M  V30 1699 C 286.238 -6.83093 1.70294 0
M  V30 1700 C 285.528 -5.79992 0.836974 0
M  V30 1701 N 285.578 -4.41864 1.38293 0
M  V30 1702 H 282.739 -8.13644 3.0377 0
M  V30 1703 H 282.469 -6.42788 2.55485 0
M  V30 1704 H 283.336 -8.12039 0.792769 0
M  V30 1705 P 287.298 -8.91 -1.02605e-12 0
M  V30 1706 O 287.518 -10.1726 -0.733694 0
M  V30 1707 O 288.088 -8.73148 1.23936 0
M  V30 1708 O 287.548 -7.66872 -0.971405 0
M  V30 1709 C 286.608 -7.42309 -2.04641 0
M  V30 1710 C 287.338 -6.86059 -3.24661 0
M  V30 1711 O 287.548 -5.42847 -3.03646 0
M  V30 1712 C 288.738 -7.41196 -3.50753 0
M  V30 1713 O 289.128 -7.27073 -4.86816 0
M  V30 1714 C 289.618 -6.5273 -2.63741 0
M  V30 1715 C 288.908 -5.1842 -2.73198 0
M  V30 1716 N 288.958 -4.38762 -1.4784 0
M  V30 1717 H 286.119 -8.36803 -2.32493 0
M  V30 1718 H 285.849 -6.70197 -1.71129 0
M  V30 1719 H 286.716 -7.03551 -4.13168 0
M  V30 1720 P 290.678 -7.20834 -5.23717 0
M  V30 1721 O 290.898 -7.79853 -6.57286 0
M  V30 1722 O 291.468 -7.79239 -4.12957 0
M  V30 1723 O 290.928 -5.63315 -5.29344 0
M  V30 1724 C 289.988 -4.80255 -6.01876 0
M  V30 1725 C 290.718 -3.64202 -6.65911 0
M  V30 1726 O 290.928 -2.60694 -5.64732 0
M  V30 1727 C 292.118 -3.93473 -7.1943 0
M  V30 1728 O 292.508 -3.02071 -8.21205 0
M  V30 1729 C 292.998 -3.73047 -5.97036 0
M  V30 1730 C 292.288 -2.58828 -5.25741 0
M  V30 1731 N 292.338 -2.68068 -3.77503 0
M  V30 1732 H 289.499 -5.40332 -6.79951 0
M  V30 1733 H 289.229 -4.41613 -5.32378 0
M  V30 1734 H 290.096 -3.26331 -7.47797 0
M  V30 1735 P 294.058 -2.75334 -8.47391 0
M  V30 1736 O 294.278 -2.44571 -9.90142 0
M  V30 1737 O 294.848 -3.87688 -7.92115 0
M  V30 1738 O 294.308 -1.4459 -7.59357 0
M  V30 1739 C 293.368 -0.347608 -7.69215 0
M  V30 1740 C 294.098 0.96767 -7.52806 0
M  V30 1741 O 294.308 1.21036 -6.1011 0
M  V30 1742 C 295.498 1.04544 -8.13308 0
M  V30 1743 O 295.888 2.38311 -8.41922 0
M  V30 1744 C 296.378 0.491279 -7.02284 0
M  V30 1745 C 295.668 0.996264 -5.77469 0
M  V30 1746 N 295.718 0.0501916 -4.62973 0
M  V30 1747 C 295.638 -1.32786 -4.63244 0
M  V30 1748 N 295.718 -1.86957 -3.44545 0
M  V30 1749 C 295.858 -0.780241 -2.58481 0
M  V30 1750 C 295.988 -0.738536 -1.17757 0
M  V30 1751 O 296.008 -1.66794 -0.372349 0
M  V30 1752 N 296.108 0.58337 -0.711393 0
M  V30 1753 C 296.108 1.70816 -1.51017 0
M  V30 1754 N 296.238 2.87826 -0.880757 0
M  V30 1755 N 295.978 1.67126 -2.8339 0
M  V30 1756 C 295.858 0.401421 -3.30572 0
M  V30 1757 H 292.879 -0.374722 -8.67691 0
M  V30 1758 H 292.609 -0.443485 -6.90277 0
M  V30 1759 H 293.476 1.75537 -7.96793 0
M  V30 1760 H 296.131 1.95076 -5.46529 0
M  V30 1761 H 296.41 -0.608565 -7.04577 0
M  V30 1762 H 297.402 0.889672 -7.08939 0
M  V30 1763 H 295.568 0.43308 -9.04564 0
M  V30 1764 H 295.519 -1.91249 -5.54442 0
M  V30 1765 H 296.201 0.718054 0.275244 0
M  V30 1766 H 296.238 3.75721 -1.41832 0
M  V30 1767 H 296.339 2.90436 0.145468 0
M  V30 1768 P 297.438 2.75334 -8.47391 0
M  V30 1769 O 297.658 3.84128 -9.44797 0
M  V30 1770 O 298.228 1.51947 -8.68712 0
M  V30 1771 O 297.688 3.29363 -6.99321 0
M  V30 1772 C 296.748 4.24011 -6.4274 0
M  V30 1773 C 297.478 5.20775 -5.52155 0
M  V30 1774 O 297.688 4.56534 -4.22446 0
M  V30 1775 C 298.878 5.62629 -5.96531 0
M  V30 1776 O 299.268 6.87667 -5.41053 0
M  V30 1777 C 299.758 4.52537 -5.39283 0
M  V30 1778 C 299.048 4.20027 -4.08623 0
M  V30 1779 N 299.098 2.76189 -3.71603 0
M  V30 1780 C 299.018 1.64862 -4.52822 0
M  V30 1781 N 299.098 0.512671 -3.88633 0
M  V30 1782 C 299.238 0.888083 -2.54977 0
M  V30 1783 C 299.368 0.094668 -1.38677 0
M  V30 1784 N 299.488 0.890102 -0.232633 0
M  V30 1785 C 299.488 2.26958 -0.21772 0
M  V30 1786 N 299.618 2.84626 0.97925 0
M  V30 1787 N 299.358 3.0178 -1.31033 0
M  V30 1788 C 299.238 2.26781 -2.43843 0
M  V30 1789 H 296.259 4.797 -7.24003 0
M  V30 1790 H 295.989 3.69856 -5.84513 0
M  V30 1791 H 296.856 6.10356 -5.41441 0
M  V30 1792 P 300.818 7.20834 -5.23717 0
M  V30 1793 O 301.038 8.66104 -5.38572 0
M  V30 1794 O 301.608 6.33544 -6.1349 0
M  V30 1795 O 301.068 6.7751 -3.72168 0
M  V30 1796 C 300.128 7.20825 -2.7076 0
M  V30 1797 C 300.858 7.45864 -1.40599 0
M  V30 1798 O 301.068 6.17651 -0.734225 0
M  V30 1799 C 302.258 8.05808 -1.51899 0
M  V30 1800 O 302.648 8.74358 -0.335205 0
M  V30 1801 C 303.138 6.83093 -1.70294 0
M  V30 1802 C 302.428 5.79992 -0.836974 0
M  V30 1803 N 302.478 4.41864 -1.38293 0
M  V30 1804 H 299.639 8.13644 -3.0377 0
M  V30 1805 H 299.369 6.42788 -2.55485 0
M  V30 1806 H 300.236 8.12039 -0.792769 0
M  V30 1807 P 304.198 8.91 1.18324e-12 0
M  V30 1808 O 304.418 10.1726 0.733694 0
M  V30 1809 O 304.988 8.73148 -1.23936 0
M  V30 1810 O 304.448 7.66872 0.971405 0
M  V30 1811 C 303.508 7.42309 2.04641 0
M  V30 1812 C 304.238 6.86059 3.24661 0
M  V30 1813 O 304.448 5.42847 3.03646 0
M  V30 1814 C 305.638 7.41196 3.50753 0
M  V30 1815 O 306.028 7.27073 4.86816 0
M  V30 1816 C 306.518 6.5273 2.63741 0
M  V30 1817 C 305.808 5.1842 2.73198 0
M  V30 1818 N 305.858 4.38762 1.4784 0
M  V30 1819 H 303.019 8.36803 2.32493 0
M  V30 1820 H 302.749 6.70197 1.71129 0
M  V30 1821 H 303.616 7.03551 4.13168 0
M  V30 1822 P 307.578 7.20834 5.23717 0
M  V30 1823 O 307.798 7.79853 6.57286 0
M  V30 1824 O 308.368 7.79239 4.12957 0
M  V30 1825 O 307.828 5.63315 5.29344 0
M  V30 1826 C 306.888 4.80255 6.01876 0
M  V30 1827 C 307.618 3.64202 6.65911 0
M  V30 1828 O 307.828 2.60694 5.64732 0
M  V30 1829 C 309.018 3.93473 7.1943 0
M  V30 1830 O 309.408 3.02071 8.21205 0
M  V30 1831 C 309.898 3.73047 5.97036 0
M  V30 1832 C 309.188 2.58828 5.25741 0
M  V30 1833 N 309.238 2.68068 3.77503 0
M  V30 1834 H 306.399 5.40332 6.79951 0
M  V30 1835 H 306.129 4.41613 5.32378 0
M  V30 1836 H 306.996 3.26331 7.47797 0
M  V30 1837 P 310.958 2.75334 8.47391 0
M  V30 1838 O 311.178 2.44571 9.90142 0
M  V30 1839 O 311.748 3.87688 7.92115 0
M  V30 1840 O 311.208 1.4459 7.59357 0
M  V30 1841 C 310.268 0.347608 7.69215 0
M  V30 1842 C 310.998 -0.96767 7.52806 0
M  V30 1843 O 311.208 -1.21036 6.1011 0
M  V30 1844 C 312.398 -1.04544 8.13308 0
M  V30 1845 O 312.788 -2.38311 8.41922 0
M  V30 1846 C 313.278 -0.491279 7.02284 0
M  V30 1847 C 312.568 -0.996264 5.77469 0
M  V30 1848 N 312.618 -0.0501916 4.62973 0
M  V30 1849 H 309.779 0.374722 8.67691 0
M  V30 1850 H 309.509 0.443485 6.90277 0
M  V30 1851 H 310.376 -1.75537 7.96793 0
M  V30 1852 P 314.338 -2.75334 8.47391 0
M  V30 1853 O 314.558 -3.84128 9.44797 0
M  V30 1854 O 315.128 -1.51947 8.68712 0
M  V30 1855 O 314.588 -3.29363 6.99321 0
M  V30 1856 C 313.648 -4.24011 6.4274 0
M  V30 1857 C 314.378 -5.20775 5.52155 0
M  V30 1858 O 314.588 -4.56534 4.22446 0
M  V30 1859 C 315.778 -5.62629 5.96531 0
M  V30 1860 O 316.168 -6.87667 5.41053 0
M  V30 1861 C 316.658 -4.52537 5.39283 0
M  V30 1862 C 315.948 -4.20027 4.08623 0
M  V30 1863 N 315.998 -2.76189 3.71603 0
M  V30 1864 H 313.159 -4.797 7.24003 0
M  V30 1865 H 312.889 -3.69856 5.84513 0
M  V30 1866 H 313.756 -6.10356 5.41441 0
M  V30 1867 P 317.718 -7.20834 5.23717 0
M  V30 1868 O 317.938 -8.66104 5.38572 0
M  V30 1869 O 318.508 -6.33544 6.1349 0
M  V30 1870 O 317.968 -6.7751 3.72168 0
M  V30 1871 C 317.028 -7.20825 2.7076 0
M  V30 1872 C 317.758 -7.45864 1.40599 0
M  V30 1873 O 317.968 -6.17651 0.734225 0
M  V30 1874 C 319.158 -8.05808 1.51899 0
M  V30 1875 O 319.548 -8.74358 0.335205 0
M  V30 1876 C 320.038 -6.83093 1.70294 0
M  V30 1877 C 319.328 -5.79992 0.836974 0
M  V30 1878 N 319.378 -4.41864 1.38293 0
M  V30 1879 C 319.298 -3.99538 2.69438 0
M  V30 1880 N 319.378 -2.69909 2.84277 0
M  V30 1881 C 319.518 -2.21719 1.5408 0
M  V30 1882 C 319.648 -0.891712 1.06628 0
M  V30 1883 N 319.768 -0.856846 -0.334985 0
M  V30 1884 C 319.768 -1.9641 -1.15789 0
M  V30 1885 N 319.898 -1.72708 -2.46522 0
M  V30 1886 N 319.638 -3.21165 -0.713741 0
M  V30 1887 C 319.518 -3.26797 0.639748 0
M  V30 1888 H 316.539 -8.13644 3.0377 0
M  V30 1889 H 316.269 -6.42788 2.55485 0
M  V30 1890 H 317.136 -8.12039 0.792769 0
M  V30 1891 P 321.098 -8.91 -1.34042e-12 0
M  V30 1892 O 321.318 -10.1746 -0.733838 0
M  V30 1893 O 321.888 -8.73346 1.23964 0
M  V30 1894 O 321.348 -7.66872 -0.971405 0
M  V30 1895 C 320.408 -7.42405 -2.04668 0
M  V30 1896 C 321.138 -6.86059 -3.24661 0
M  V30 1897 O 321.348 -5.42934 -3.03695 0
M  V30 1898 C 322.538 -7.41287 -3.50796 0
M  V30 1899 O 322.928 -7.27073 -4.86816 0
M  V30 1900 C 323.418 -6.5273 -2.63741 0
M  V30 1901 C 322.708 -5.1842 -2.73198 0
M  V30 1902 N 322.758 -4.38762 -1.4784 0
M  V30 1903 C 322.678 -4.83651 -0.183876 0
M  V30 1904 N 322.748 -3.88759 0.699393 0
M  V30 1905 C 322.898 -2.7404 -0.0575568 0
M  V30 1906 C 323.028 -1.37902 0.293928 0
M  V30 1907 N 323.038 -0.938021 1.54797 0
M  V30 1908 N 323.148 -0.491817 -0.70549 0
M  V30 1909 C 323.138 -0.931735 -1.95979 0
M  V30 1910 N 323.018 -2.16017 -2.41481 0
M  V30 1911 C 322.898 -3.02547 -1.39121 0
M  V30 1912 H 319.92 -8.36899 -2.3252 0
M  V30 1913 H 319.648 -6.70391 -1.71179 0
M  V30 1914 H 320.516 -7.03638 -4.13219 0
M  V30 1915 H 323.171 -4.59931 -3.54016 0
M  V30 1916 H 323.451 -6.88995 -1.59871 0
M  V30 1917 H 324.442 -6.4684 -3.0373 0
M  V30 1918 H 322.608 -8.47002 -3.20749 0
M  V30 1919 H 322.567 -5.8885 0.0765548 0
M  V30 1920 H 322.948 -1.60276 2.32875 0
M  V30 1921 H 323.137 0.0699355 1.73859 0
M  V30 1922 H 323.245 -0.165507 -2.71897 0
M  V30 1923 P 324.478 -7.20834 -5.23717 0
M  V30 1924 O 324.698 -7.79853 -6.57286 0
M  V30 1925 O 325.268 -7.79239 -4.12957 0
M  V30 1926 O 324.728 -5.63315 -5.29344 0
M  V30 1927 C 323.788 -4.80255 -6.01876 0
M  V30 1928 C 324.518 -3.64202 -6.65911 0
M  V30 1929 O 324.728 -2.60694 -5.64732 0
M  V30 1930 C 325.918 -3.93473 -7.1943 0
M  V30 1931 O 326.308 -3.02071 -8.21205 0
M  V30 1932 C 326.798 -3.73047 -5.97036 0
M  V30 1933 C 326.088 -2.58828 -5.25741 0
M  V30 1934 N 326.138 -2.68068 -3.77503 0
M  V30 1935 H 323.299 -5.40332 -6.79951 0
M  V30 1936 H 323.029 -4.41613 -5.32378 0
M  V30 1937 H 323.896 -3.26331 -7.47797 0
M  V30 1938 P 327.858 -2.75334 -8.47391 0
M  V30 1939 O 328.078 -2.44619 -9.90336 0
M  V30 1940 O 328.648 -3.87776 -7.92294 0
M  V30 1941 O 328.108 -1.4459 -7.59357 0
M  V30 1942 C 327.168 -0.347653 -7.69315 0
M  V30 1943 C 327.898 0.96767 -7.52806 0
M  V30 1944 O 328.108 1.21055 -6.10208 0
M  V30 1945 C 329.298 1.04557 -8.13408 0
M  V30 1946 O 329.688 2.38311 -8.41922 0
M  V30 1947 C 330.178 0.491279 -7.02284 0
M  V30 1948 C 329.468 0.996264 -5.77469 0
M  V30 1949 N 329.518 0.0501916 -4.62973 0
M  V30 1950 C 329.438 -1.31969 -4.65661 0
M  V30 1951 N 329.508 -1.86649 -3.48119 0
M  V30 1952 C 329.658 -0.792089 -2.62406 0
M  V30 1953 C 329.788 -0.705684 -1.2207 0
M  V30 1954 N 329.798 -1.76207 -0.413762 0
M  V30 1955 N 329.908 0.518981 -0.685754 0
M  V30 1956 C 329.898 1.57595 -1.49174 0
M  V30 1957 N 329.778 1.62909 -2.80066 0
M  V30 1958 C 329.658 0.388195 -3.3073 0
M  V30 1959 H 326.68 -0.374765 -8.67791 0
M  V30 1960 H 326.408 -0.443613 -6.90476 0
M  V30 1961 H 327.276 1.75559 -7.96891 0
M  V30 1962 H 329.931 1.94563 -5.46818 0
M  V30 1963 H 330.211 -0.608651 -7.04676 0
M  V30 1964 H 331.202 0.889796 -7.09039 0
M  V30 1965 H 329.368 0.433128 -9.04664 0
M  V30 1966 H 329.327 -1.89246 -5.57664 0
M  V30 1967 H 329.708 -2.71005 -0.804694 0
M  V30 1968 H 329.897 -1.63189 0.603768 0
M  V30 1969 H 330.005 2.53475 -0.997614 0
M  V30 1970 P 331.238 2.75334 -8.47391 0
M  V30 1971 O 331.458 3.84128 -9.44797 0
M  V30 1972 O 332.028 1.51947 -8.68712 0
M  V30 1973 O 331.488 3.29363 -6.99321 0
M  V30 1974 C 330.548 4.24011 -6.4274 0
M  V30 1975 C 331.278 5.20775 -5.52155 0
M  V30 1976 O 331.488 4.56534 -4.22446 0
M  V30 1977 C 332.678 5.62629 -5.96531 0
M  V30 1978 O 333.068 6.87667 -5.41053 0
M  V30 1979 C 333.558 4.52537 -5.39283 0
M  V30 1980 C 332.848 4.20027 -4.08623 0
M  V30 1981 N 332.898 2.76189 -3.71603 0
M  V30 1982 C 332.818 1.64862 -4.52822 0
M  V30 1983 N 332.898 0.512671 -3.88633 0
M  V30 1984 C 333.038 0.888083 -2.54977 0
M  V30 1985 C 333.168 0.094668 -1.38677 0
M  V30 1986 N 333.288 0.890102 -0.232633 0
M  V30 1987 C 333.288 2.26958 -0.21772 0
M  V30 1988 N 333.418 2.84626 0.97925 0
M  V30 1989 N 333.158 3.0178 -1.31033 0
M  V30 1990 C 333.038 2.26781 -2.43843 0
M  V30 1991 H 330.059 4.797 -7.24003 0
M  V30 1992 H 329.789 3.69856 -5.84513 0
M  V30 1993 H 330.656 6.10356 -5.41441 0
M  V30 1994 P 334.618 7.20834 -5.23717 0
M  V30 1995 O 334.838 8.66104 -5.38572 0
M  V30 1996 O 335.408 6.33544 -6.1349 0
M  V30 1997 O 334.868 6.7751 -3.72168 0
M  V30 1998 C 333.928 7.20825 -2.7076 0
M  V30 1999 C 334.658 7.45864 -1.40599 0
M  V30 2000 O 334.868 6.17651 -0.734225 0
M  V30 2001 C 336.058 8.05808 -1.51899 0
M  V30 2002 O 336.448 8.74358 -0.335205 0
M  V30 2003 C 336.938 6.83093 -1.70294 0
M  V30 2004 C 336.228 5.79992 -0.836974 0
M  V30 2005 N 336.278 4.41864 -1.38293 0
M  V30 2006 H 333.439 8.13644 -3.0377 0
M  V30 2007 H 333.169 6.42788 -2.55485 0
M  V30 2008 H 334.036 8.12039 -0.792769 0
M  V30 2009 P 337.998 8.91 1.4976e-12 0
M  V30 2010 O 338.218 10.1726 0.733694 0
M  V30 2011 O 338.788 8.73148 -1.23936 0
M  V30 2012 O 338.248 7.66872 0.971405 0
M  V30 2013 C 337.308 7.42309 2.04641 0
M  V30 2014 C 338.038 6.86059 3.24661 0
M  V30 2015 O 338.248 5.42847 3.03646 0
M  V30 2016 C 339.438 7.41196 3.50753 0
M  V30 2017 O 339.828 7.27073 4.86816 0
M  V30 2018 C 340.318 6.5273 2.63741 0
M  V30 2019 C 339.608 5.1842 2.73198 0
M  V30 2020 N 339.658 4.38762 1.4784 0
M  V30 2021 H 336.819 8.36803 2.32493 0
M  V30 2022 H 336.549 6.70197 1.71129 0
M  V30 2023 H 337.416 7.03551 4.13168 0
M  V30 2024 P 341.378 7.20834 5.23717 0
M  V30 2025 O 341.598 7.79853 6.57286 0
M  V30 2026 O 342.168 7.79239 4.12957 0
M  V30 2027 O 341.628 5.63315 5.29344 0
M  V30 2028 C 340.688 4.80255 6.01876 0
M  V30 2029 C 341.418 3.64202 6.65911 0
M  V30 2030 O 341.628 2.60694 5.64732 0
M  V30 2031 C 342.818 3.93473 7.1943 0
M  V30 2032 O 343.208 3.02071 8.21205 0
M  V30 2033 C 343.698 3.73047 5.97036 0
M  V30 2034 C 342.988 2.58828 5.25741 0
M  V30 2035 N 343.038 2.68068 3.77503 0
M  V30 2036 H 340.199 5.40332 6.79951 0
M  V30 2037 H 339.929 4.41613 5.32378 0
M  V30 2038 H 340.796 3.26331 7.47797 0
M  V30 2039 P 344.758 2.75334 8.47391 0
M  V30 2040 O 344.978 2.44571 9.90142 0
M  V30 2041 O 345.548 3.87688 7.92115 0
M  V30 2042 O 345.008 1.4459 7.59357 0
M  V30 2043 C 344.068 0.347608 7.69215 0
M  V30 2044 C 344.798 -0.96767 7.52806 0
M  V30 2045 O 345.008 -1.21036 6.1011 0
M  V30 2046 C 346.198 -1.04544 8.13308 0
M  V30 2047 O 346.588 -2.38311 8.41922 0
M  V30 2048 C 347.078 -0.491279 7.02284 0
M  V30 2049 C 346.368 -0.996264 5.77469 0
M  V30 2050 N 346.418 -0.0501916 4.62973 0
M  V30 2051 C 346.338 1.32786 4.63244 0
M  V30 2052 N 346.418 1.86957 3.44545 0
M  V30 2053 C 346.558 0.780241 2.58481 0
M  V30 2054 C 346.688 0.738536 1.17757 0
M  V30 2055 O 346.708 1.66794 0.372349 0
M  V30 2056 N 346.808 -0.58337 0.711393 0
M  V30 2057 C 346.808 -1.70816 1.51017 0
M  V30 2058 N 346.938 -2.87826 0.880757 0
M  V30 2059 N 346.678 -1.67126 2.8339 0
M  V30 2060 C 346.558 -0.401421 3.30572 0
M  V30 2061 H 343.579 0.374722 8.67691 0
M  V30 2062 H 343.309 0.443485 6.90277 0
M  V30 2063 H 344.176 -1.75537 7.96793 0
M  V30 2064 H 346.831 -1.95076 5.46529 0
M  V30 2065 H 347.11 0.608565 7.04577 0
M  V30 2066 H 348.102 -0.889672 7.08939 0
M  V30 2067 H 346.268 -0.43308 9.04564 0
M  V30 2068 H 346.219 1.91249 5.54442 0
M  V30 2069 H 346.901 -0.718054 -0.275244 0
M  V30 2070 H 346.938 -3.75721 1.41832 0
M  V30 2071 H 347.039 -2.90436 -0.145468 0
M  V30 2072 P 348.138 -2.75334 8.47391 0
M  V30 2073 O 348.358 -3.84128 9.44797 0
M  V30 2074 O 348.928 -1.51947 8.68712 0
M  V30 2075 O 348.388 -3.29363 6.99321 0
M  V30 2076 C 347.448 -4.24011 6.4274 0
M  V30 2077 C 348.178 -5.20775 5.52155 0
M  V30 2078 O 348.388 -4.56534 4.22446 0
M  V30 2079 C 349.578 -5.62629 5.96531 0
M  V30 2080 O 349.968 -6.87667 5.41053 0
M  V30 2081 C 350.458 -4.52537 5.39283 0
M  V30 2082 C 349.748 -4.20027 4.08623 0
M  V30 2083 N 349.798 -2.76189 3.71603 0
M  V30 2084 H 346.959 -4.797 7.24003 0
M  V30 2085 H 346.689 -3.69856 5.84513 0
M  V30 2086 H 347.556 -6.10356 5.41441 0
M  V30 2087 P 351.518 -7.20834 5.23717 0
M  V30 2088 O 351.738 -8.66104 5.38572 0
M  V30 2089 O 352.308 -6.33544 6.1349 0
M  V30 2090 O 351.768 -6.7751 3.72168 0
M  V30 2091 C 350.828 -7.20825 2.7076 0
M  V30 2092 C 351.558 -7.45864 1.40599 0
M  V30 2093 O 351.768 -6.17651 0.734225 0
M  V30 2094 C 352.958 -8.05808 1.51899 0
M  V30 2095 O 353.348 -8.74358 0.335205 0
M  V30 2096 C 353.838 -6.83093 1.70294 0
M  V30 2097 C 353.128 -5.79992 0.836974 0
M  V30 2098 N 353.178 -4.41864 1.38293 0
M  V30 2099 H 350.339 -8.13644 3.0377 0
M  V30 2100 H 350.069 -6.42788 2.55485 0
M  V30 2101 H 350.936 -8.12039 0.792769 0
M  V30 2102 P 354.898 -8.91 -1.65478e-12 0
M  V30 2103 O 355.118 -10.1726 -0.733694 0
M  V30 2104 O 355.688 -8.73148 1.23936 0
M  V30 2105 O 355.148 -7.66872 -0.971405 0
M  V30 2106 C 354.208 -7.42309 -2.04641 0
M  V30 2107 C 354.938 -6.86059 -3.24661 0
M  V30 2108 O 355.148 -5.42847 -3.03646 0
M  V30 2109 C 356.338 -7.41196 -3.50753 0
M  V30 2110 O 356.728 -7.27073 -4.86816 0
M  V30 2111 C 357.218 -6.5273 -2.63741 0
M  V30 2112 C 356.508 -5.1842 -2.73198 0
M  V30 2113 N 356.558 -4.38762 -1.4784 0
M  V30 2114 C 356.478 -4.81605 -0.168631 0
M  V30 2115 N 356.558 -3.85454 0.713363 0
M  V30 2116 C 356.698 -2.6994 -0.0566958 0
M  V30 2117 C 356.828 -1.34815 0.338502 0
M  V30 2118 O 356.848 -0.869548 1.47125 0
M  V30 2119 N 356.948 -0.496304 -0.77465 0
M  V30 2120 C 356.948 -0.908403 -2.09122 0
M  V30 2121 N 357.078 0.0517805 -3.00955 0
M  V30 2122 N 356.818 -2.17875 -2.46519 0
M  V30 2123 C 356.698 -3.01988 -1.4033 0
M  V30 2124 H 353.719 -8.36803 -2.32493 0
M  V30 2125 H 353.449 -6.70197 -1.71129 0
M  V30 2126 H 354.316 -7.03551 -4.13168 0
M  V30 2127 H 356.971 -4.59498 -3.54415 0
M  V30 2128 H 357.25 -6.88898 -1.59848 0
M  V30 2129 H 358.242 -6.46749 -3.03687 0
M  V30 2130 H 356.408 -8.46908 -3.20714 0
M  V30 2131 H 356.359 -5.86405 0.105564 0
M  V30 2132 H 357.041 0.483664 -0.597855 0
M  V30 2133 H 357.078 -0.187865 -4.0116 0
M  V30 2134 H 357.179 1.03585 -2.71726 0
M  V30 2135 P 358.278 -7.20834 -5.23717 0
M  V30 2136 O 358.498 -7.80006 -6.57415 0
M  V30 2137 O 359.068 -7.79416 -4.13051 0
M  V30 2138 O 358.528 -5.63315 -5.29344 0
M  V30 2139 C 357.588 -4.80318 -6.01954 0
M  V30 2140 C 358.318 -3.64202 -6.65911 0
M  V30 2141 O 358.528 -2.60736 -5.64823 0
M  V30 2142 C 359.718 -3.93521 -7.19518 0
M  V30 2143 O 360.108 -3.02071 -8.21205 0
M  V30 2144 C 360.598 -3.73047 -5.97036 0
M  V30 2145 C 359.888 -2.58828 -5.25741 0
M  V30 2146 N 359.938 -2.68068 -3.77503 0
M  V30 2147 C 359.858 -3.80474 -2.99159 0
M  V30 2148 N 359.928 -3.55622 -1.71925 0
M  V30 2149 C 360.078 -2.1832 -1.65733 0
M  V30 2150 C 360.208 -1.28842 -0.572777 0
M  V30 2151 N 360.218 -1.66875 0.70098 0
M  V30 2152 N 360.328 0.016788 -0.859836 0
M  V30 2153 C 360.318 0.398145 -2.13316 0
M  V30 2154 N 360.198 -0.328224 -3.22333 0
M  V30 2155 C 360.078 -1.62992 -2.90383 0
M  V30 2156 H 357.1 -5.40394 -6.8003 0
M  V30 2157 H 356.828 -4.41741 -5.32532 0
M  V30 2158 H 357.696 -3.26371 -7.47889 0
M  V30 2159 H 360.351 -1.64007 -5.56746 0
M  V30 2160 H 360.631 -4.63439 -5.3432 0
M  V30 2161 H 361.622 -3.44776 -6.25925 0
M  V30 2162 H 359.788 -4.96707 -7.57347 0
M  V30 2163 H 359.747 -4.8089 -3.39924 0
M  V30 2164 H 360.128 -2.66547 0.941919 0
M  V30 2165 H 360.317 -0.965341 1.44766 0
M  V30 2166 H 360.425 1.46427 -2.29697 0
M  V30 2167 P 361.658 -2.75334 -8.47391 0
M  V30 2168 O 361.878 -2.44619 -9.90336 0
M  V30 2169 O 362.448 -3.87776 -7.92294 0
M  V30 2170 O 361.908 -1.4459 -7.59357 0
M  V30 2171 C 360.968 -0.347653 -7.69315 0
M  V30 2172 C 361.698 0.96767 -7.52806 0
M  V30 2173 O 361.908 1.21055 -6.10208 0
M  V30 2174 C 363.098 1.04557 -8.13408 0
M  V30 2175 O 363.488 2.38311 -8.41922 0
M  V30 2176 C 363.978 0.491279 -7.02284 0
M  V30 2177 C 363.268 0.996264 -5.77469 0
M  V30 2178 N 363.318 0.0501916 -4.62973 0
M  V30 2179 H 360.48 -0.374765 -8.67791 0
M  V30 2180 H 360.208 -0.443613 -6.90476 0
M  V30 2181 H 361.076 1.75559 -7.96891 0
M  V30 2182 H 363.731 1.94563 -5.46818 0
M  V30 2183 H 364.011 -0.608651 -7.04676 0
M  V30 2184 H 365.002 0.889796 -7.09039 0
M  V30 2185 H 363.168 0.433128 -9.04664 0
M  V30 2186 P 365.038 2.75334 -8.47391 0
M  V30 2187 O 365.258 3.84128 -9.44797 0
M  V30 2188 O 365.828 1.51947 -8.68712 0
M  V30 2189 O 365.288 3.29363 -6.99321 0
M  V30 2190 C 364.348 4.24011 -6.4274 0
M  V30 2191 C 365.078 5.20775 -5.52155 0
M  V30 2192 O 365.288 4.56534 -4.22446 0
M  V30 2193 C 366.478 5.62629 -5.96531 0
M  V30 2194 O 366.868 6.87667 -5.41053 0
M  V30 2195 C 367.358 4.52537 -5.39283 0
M  V30 2196 C 366.648 4.20027 -4.08623 0
M  V30 2197 N 366.698 2.76189 -3.71603 0
M  V30 2198 H 363.859 4.797 -7.24003 0
M  V30 2199 H 363.589 3.69856 -5.84513 0
M  V30 2200 H 364.456 6.10356 -5.41441 0
M  V30 2201 P 368.418 7.20834 -5.23717 0
M  V30 2202 O 368.638 8.66189 -5.38625 0
M  V30 2203 O 369.208 6.33615 -6.1356 0
M  V30 2204 O 368.668 6.7751 -3.72168 0
M  V30 2205 C 367.728 7.20732 -2.70725 0
M  V30 2206 C 368.458 7.45864 -1.40599 0
M  V30 2207 O 368.668 6.17651 -0.734225 0
M  V30 2208 C 369.858 8.05808 -1.51899 0
M  V30 2209 O 370.248 8.74358 -0.335205 0
M  V30 2210 C 370.738 6.83093 -1.70294 0
M  V30 2211 C 370.028 5.79992 -0.836974 0
M  V30 2212 N 370.078 4.41769 -1.38263 0
M  V30 2213 C 370.228 3.38591 -0.481702 0
M  V30 2214 O 370.318 3.56839 0.718452 0
M  V30 2215 N 370.268 2.1206 -1.03569 0
M  V30 2216 C 370.178 1.80696 -2.36966 0
M  V30 2217 O 370.228 0.630473 -2.74862 0
M  V30 2218 C 370.028 2.94845 -3.23898 0
M  V30 2219 C 369.918 2.65253 -4.70362 0
M  V30 2220 C 369.978 4.19803 -2.73435 0
M  V30 2221 H 367.238 8.13644 -3.0377 0
M  V30 2222 H 366.969 6.42695 -2.55448 0
M  V30 2223 H 367.836 8.12039 -0.792769 0
M  V30 2224 H 370.491 5.79978 0.160587 0
M  V30 2225 H 370.77 6.51379 -2.75643 0
M  V30 2226 H 371.762 7.01734 -1.34462 0
M  V30 2227 H 369.928 8.73674 -2.38337 0
M  V30 2228 H 369.857 5.04492 -3.4095 0
M  V30 2229 H 370.887 2.83924 -5.1913 0
M  V30 2230 H 369.15 3.29824 -5.15163 0
M  V30 2231 H 369.638 1.59723 -4.84449 0
M  V30 2232 H 370.374 1.35644 -0.399345 0
M  V30 2233 P 371.798 8.91 1.81197e-12 0
M  V30 2234 O 372.018 10.1726 0.733694 0
M  V30 2235 O 372.588 8.73148 -1.23936 0
M  V30 2236 O 372.048 7.66872 0.971405 0
M  V30 2237 C 371.108 7.42309 2.04641 0
M  V30 2238 C 371.838 6.86059 3.24661 0
M  V30 2239 O 372.048 5.42847 3.03646 0
M  V30 2240 C 373.238 7.41196 3.50753 0
M  V30 2241 O 373.628 7.27073 4.86816 0
M  V30 2242 C 374.118 6.5273 2.63741 0
M  V30 2243 C 373.408 5.1842 2.73198 0
M  V30 2244 N 373.458 4.38762 1.4784 0
M  V30 2245 H 370.619 8.36803 2.32493 0
M  V30 2246 H 370.349 6.70197 1.71129 0
M  V30 2247 H 371.216 7.03551 4.13168 0
M  V30 2248 P 375.178 7.20834 5.23717 0
M  V30 2249 O 375.398 7.79853 6.57286 0
M  V30 2250 O 375.968 7.79239 4.12957 0
M  V30 2251 O 375.428 5.63315 5.29344 0
M  V30 2252 C 374.488 4.80255 6.01876 0
M  V30 2253 C 375.218 3.64202 6.65911 0
M  V30 2254 O 375.428 2.60694 5.64732 0
M  V30 2255 C 376.618 3.93473 7.1943 0
M  V30 2256 O 377.008 3.02071 8.21205 0
M  V30 2257 C 377.498 3.73047 5.97036 0
M  V30 2258 C 376.788 2.58828 5.25741 0
M  V30 2259 N 376.838 2.68068 3.77503 0
M  V30 2260 H 373.999 5.40332 6.79951 0
M  V30 2261 H 373.729 4.41613 5.32378 0
M  V30 2262 H 374.596 3.26331 7.47797 0
M  V30 2263 P 378.558 2.75334 8.47391 0
M  V30 2264 O 378.778 2.44571 9.90142 0
M  V30 2265 O 379.348 3.87688 7.92115 0
M  V30 2266 O 378.808 1.4459 7.59357 0
M  V30 2267 C 377.868 0.347608 7.69215 0
M  V30 2268 C 378.598 -0.96767 7.52806 0
M  V30 2269 O 378.808 -1.21036 6.1011 0
M  V30 2270 C 379.998 -1.04544 8.13308 0
M  V30 2271 O 380.388 -2.38311 8.41922 0
M  V30 2272 C 380.878 -0.491279 7.02284 0
M  V30 2273 C 380.168 -0.996264 5.77469 0
M  V30 2274 N 380.218 -0.0501916 4.62973 0
M  V30 2275 H 377.379 0.374722 8.67691 0
M  V30 2276 H 377.109 0.443485 6.90277 0
M  V30 2277 H 377.976 -1.75537 7.96793 0
M  V30 2278 P 381.938 -2.75334 8.47391 0
M  V30 2279 O 382.158 -3.84128 9.44797 0
M  V30 2280 O 382.728 -1.51947 8.68712 0
M  V30 2281 O 382.188 -3.29363 6.99321 0
M  V30 2282 C 381.248 -4.24011 6.4274 0
M  V30 2283 C 381.978 -5.20775 5.52155 0
M  V30 2284 O 382.188 -4.56534 4.22446 0
M  V30 2285 C 383.378 -5.62629 5.96531 0
M  V30 2286 O 383.768 -6.87667 5.41053 0
M  V30 2287 C 384.258 -4.52537 5.39283 0
M  V30 2288 C 383.548 -4.20027 4.08623 0
M  V30 2289 N 383.598 -2.76189 3.71603 0
M  V30 2290 H 380.759 -4.797 7.24003 0
M  V30 2291 H 380.489 -3.69856 5.84513 0
M  V30 2292 H 381.356 -6.10356 5.41441 0
M  V30 2293 P 385.318 -7.20834 5.23717 0
M  V30 2294 O 385.538 -8.66104 5.38572 0
M  V30 2295 O 386.108 -6.33544 6.1349 0
M  V30 2296 O 385.568 -6.7751 3.72168 0
M  V30 2297 C 384.628 -7.20825 2.7076 0
M  V30 2298 C 385.358 -7.45864 1.40599 0
M  V30 2299 O 385.568 -6.17651 0.734225 0
M  V30 2300 C 386.758 -8.05808 1.51899 0
M  V30 2301 O 387.148 -8.74358 0.335205 0
M  V30 2302 C 387.638 -6.83093 1.70294 0
M  V30 2303 C 386.928 -5.79992 0.836974 0
M  V30 2304 N 386.978 -4.41864 1.38293 0
M  V30 2305 H 384.139 -8.13644 3.0377 0
M  V30 2306 H 383.869 -6.42788 2.55485 0
M  V30 2307 H 384.736 -8.12039 0.792769 0
M  V30 2308 P 388.698 -8.91 -1.96915e-12 0
M  V30 2309 O 388.918 -10.1726 -0.733694 0
M  V30 2310 O 389.488 -8.73148 1.23936 0
M  V30 2311 O 388.948 -7.66872 -0.971405 0
M  V30 2312 C 388.008 -7.42309 -2.04641 0
M  V30 2313 C 388.738 -6.86059 -3.24661 0
M  V30 2314 O 388.948 -5.42847 -3.03646 0
M  V30 2315 C 390.138 -7.41196 -3.50753 0
M  V30 2316 O 390.528 -7.27073 -4.86816 0
M  V30 2317 C 391.018 -6.5273 -2.63741 0
M  V30 2318 C 390.308 -5.1842 -2.73198 0
M  V30 2319 N 390.358 -4.38762 -1.4784 0
M  V30 2320 H 387.519 -8.36803 -2.32493 0
M  V30 2321 H 387.249 -6.70197 -1.71129 0
M  V30 2322 H 388.116 -7.03551 -4.13168 0
M  V30 2323 P 392.078 -7.20834 -5.23717 0
M  V30 2324 O 392.298 -7.79853 -6.57286 0
M  V30 2325 O 392.868 -7.79239 -4.12957 0
M  V30 2326 O 392.328 -5.63315 -5.29344 0
M  V30 2327 C 391.388 -4.80255 -6.01876 0
M  V30 2328 C 392.118 -3.64202 -6.65911 0
M  V30 2329 O 392.328 -2.60694 -5.64732 0
M  V30 2330 C 393.518 -3.93473 -7.1943 0
M  V30 2331 O 393.908 -3.02071 -8.21205 0
M  V30 2332 C 394.398 -3.73047 -5.97036 0
M  V30 2333 C 393.688 -2.58828 -5.25741 0
M  V30 2334 N 393.738 -2.68068 -3.77503 0
M  V30 2335 C 393.658 -3.79715 -2.96723 0
M  V30 2336 N 393.738 -3.5377 -1.68852 0
M  V30 2337 C 393.878 -2.15054 -1.63254 0
M  V30 2338 C 394.008 -1.28964 -0.518571 0
M  V30 2339 O 394.028 -1.56826 0.679156 0
M  V30 2340 N 394.128 0.0538097 -0.918425 0
M  V30 2341 C 394.128 0.494275 -2.22578 0
M  V30 2342 N 394.258 1.81086 -2.40434 0
M  V30 2343 N 393.998 -0.313645 -3.27502 0
M  V30 2344 C 393.878 -1.61829 -2.91033 0
M  V30 2345 H 390.899 -5.40332 -6.79951 0
M  V30 2346 H 390.629 -4.41613 -5.32378 0
M  V30 2347 H 391.496 -3.26331 -7.47797 0
M  V30 2348 H 394.151 -1.63422 -5.56814 0
M  V30 2349 H 394.43 -4.63374 -5.34244 0
M  V30 2350 H 395.422 -3.44728 -6.25838 0
M  V30 2351 H 393.588 -4.96652 -7.57263 0
M  V30 2352 H 393.539 -4.80617 -3.3614 0
M  V30 2353 H 394.221 0.742702 -0.199384 0
M  V30 2354 H 394.258 2.20598 -3.35588 0
M  V30 2355 H 394.359 2.43518 -1.58945 0
M  V30 2356 P 395.458 -2.75334 -8.47391 0
M  V30 2357 O 395.678 -2.44571 -9.90142 0
M  V30 2358 O 396.248 -3.87688 -7.92115 0
M  V30 2359 O 395.708 -1.4459 -7.59357 0
M  V30 2360 C 394.768 -0.347608 -7.69215 0
M  V30 2361 C 395.498 0.96767 -7.52806 0
M  V30 2362 O 395.708 1.21036 -6.1011 0
M  V30 2363 C 396.898 1.04544 -8.13308 0
M  V30 2364 O 397.288 2.38311 -8.41922 0
M  V30 2365 C 397.778 0.491279 -7.02284 0
M  V30 2366 C 397.068 0.996264 -5.77469 0
M  V30 2367 N 397.118 0.0501916 -4.62973 0
M  V30 2368 C 397.038 -1.32786 -4.63244 0
M  V30 2369 N 397.118 -1.86957 -3.44545 0
M  V30 2370 C 397.258 -0.780241 -2.58481 0
M  V30 2371 C 397.388 -0.738536 -1.17757 0
M  V30 2372 O 397.408 -1.66794 -0.372349 0
M  V30 2373 N 397.508 0.58337 -0.711393 0
M  V30 2374 C 397.508 1.70816 -1.51017 0
M  V30 2375 N 397.638 2.87826 -0.880757 0
M  V30 2376 N 397.378 1.67126 -2.8339 0
M  V30 2377 C 397.258 0.401421 -3.30572 0
M  V30 2378 H 394.279 -0.374722 -8.67691 0
M  V30 2379 H 394.009 -0.443485 -6.90277 0
M  V30 2380 H 394.876 1.75537 -7.96793 0
M  V30 2381 H 397.531 1.95076 -5.46529 0
M  V30 2382 H 397.81 -0.608565 -7.04577 0
M  V30 2383 H 398.802 0.889672 -7.08939 0
M  V30 2384 H 396.968 0.43308 -9.04564 0
M  V30 2385 H 396.919 -1.91249 -5.54442 0
M  V30 2386 H 397.601 0.718054 0.275244 0
M  V30 2387 H 397.638 3.75721 -1.41832 0
M  V30 2388 H 397.739 2.90436 0.145468 0
M  V30 2389 P 398.838 2.75334 -8.47391 0
M  V30 2390 O 399.058 3.84128 -9.44797 0
M  V30 2391 O 399.628 1.51947 -8.68712 0
M  V30 2392 O 399.088 3.29363 -6.99321 0
M  V30 2393 C 398.148 4.24011 -6.4274 0
M  V30 2394 C 398.878 5.20775 -5.52155 0
M  V30 2395 O 399.088 4.56534 -4.22446 0
M  V30 2396 C 400.278 5.62629 -5.96531 0
M  V30 2397 O 400.668 6.87667 -5.41053 0
M  V30 2398 C 401.158 4.52537 -5.39283 0
M  V30 2399 C 400.448 4.20027 -4.08623 0
M  V30 2400 N 400.498 2.76189 -3.71603 0
M  V30 2401 H 397.659 4.797 -7.24003 0
M  V30 2402 H 397.389 3.69856 -5.84513 0
M  V30 2403 H 398.256 6.10356 -5.41441 0
M  V30 2404 P 402.218 7.20834 -5.23717 0
M  V30 2405 O 402.438 8.66104 -5.38572 0
M  V30 2406 O 403.008 6.33544 -6.1349 0
M  V30 2407 O 402.468 6.7751 -3.72168 0
M  V30 2408 C 401.528 7.20825 -2.7076 0
M  V30 2409 C 402.258 7.45864 -1.40599 0
M  V30 2410 O 402.468 6.17651 -0.734225 0
M  V30 2411 C 403.658 8.05808 -1.51899 0
M  V30 2412 O 404.048 8.74358 -0.335205 0
M  V30 2413 C 404.538 6.83093 -1.70294 0
M  V30 2414 C 403.828 5.79992 -0.836974 0
M  V30 2415 N 403.878 4.41864 -1.38293 0
M  V30 2416 H 401.039 8.13644 -3.0377 0
M  V30 2417 H 400.769 6.42788 -2.55485 0
M  V30 2418 H 401.636 8.12039 -0.792769 0
M  V30 2419 P 405.598 8.91 2.12633e-12 0
M  V30 2420 O 405.818 10.1726 0.733694 0
M  V30 2421 O 406.388 8.73148 -1.23936 0
M  V30 2422 O 405.848 7.66872 0.971405 0
M  V30 2423 C 404.908 7.42309 2.04641 0
M  V30 2424 C 405.638 6.86059 3.24661 0
M  V30 2425 O 405.848 5.42847 3.03646 0
M  V30 2426 C 407.038 7.41196 3.50753 0
M  V30 2427 O 407.428 7.27073 4.86816 0
M  V30 2428 C 407.918 6.5273 2.63741 0
M  V30 2429 C 407.208 5.1842 2.73198 0
M  V30 2430 N 407.258 4.38762 1.4784 0
M  V30 2431 H 404.419 8.36803 2.32493 0
M  V30 2432 H 404.149 6.70197 1.71129 0
M  V30 2433 H 405.016 7.03551 4.13168 0
M  V30 2434 P 408.978 7.20834 5.23717 0
M  V30 2435 O 409.198 7.79853 6.57286 0
M  V30 2436 O 409.768 7.79239 4.12957 0
M  V30 2437 O 409.228 5.63315 5.29344 0
M  V30 2438 C 408.288 4.80255 6.01876 0
M  V30 2439 C 409.018 3.64202 6.65911 0
M  V30 2440 O 409.228 2.60694 5.64732 0
M  V30 2441 C 410.418 3.93473 7.1943 0
M  V30 2442 O 410.808 3.02071 8.21205 0
M  V30 2443 C 411.298 3.73047 5.97036 0
M  V30 2444 C 410.588 2.58828 5.25741 0
M  V30 2445 N 410.638 2.68068 3.77503 0
M  V30 2446 H 407.799 5.40332 6.79951 0
M  V30 2447 H 407.529 4.41613 5.32378 0
M  V30 2448 H 408.396 3.26331 7.47797 0
M  V30 2449 P 412.358 2.75334 8.47391 0
M  V30 2450 O 412.578 2.44595 9.90239 0
M  V30 2451 O 413.148 3.87732 7.92204 0
M  V30 2452 O 412.608 1.4459 7.59357 0
M  V30 2453 C 411.668 0.347563 7.69115 0
M  V30 2454 C 412.398 -0.96767 7.52806 0
M  V30 2455 O 412.608 -1.21036 6.1011 0
M  V30 2456 C 413.798 -1.04544 8.13308 0
M  V30 2457 O 414.188 -2.38311 8.41922 0
M  V30 2458 C 414.678 -0.491279 7.02284 0
M  V30 2459 C 413.968 -0.996264 5.77469 0
M  V30 2460 N 414.018 -0.0501808 4.62873 0
M  V30 2461 C 414.168 -0.588177 3.36904 0
M  V30 2462 O 414.258 -1.78598 3.17173 0
M  V30 2463 N 414.208 0.329694 2.33686 0
M  V30 2464 C 414.118 1.6953 2.45079 0
M  V30 2465 O 414.168 2.41926 1.44899 0
M  V30 2466 C 413.968 2.16933 3.80505 0
M  V30 2467 C 413.858 3.65373 3.97621 0
M  V30 2468 C 413.918 1.30326 4.83752 0
M  V30 2469 H 411.178 0.374722 8.67691 0
M  V30 2470 H 410.909 0.443421 6.90177 0
M  V30 2471 H 411.776 -1.75537 7.96793 0
M  V30 2472 H 414.431 -1.94496 5.46629 0
M  V30 2473 H 414.71 0.608651 7.04676 0
M  V30 2474 H 415.702 -0.889672 7.08939 0
M  V30 2475 H 413.868 -0.43308 9.04564 0
M  V30 2476 H 413.797 1.68366 5.8516 0
M  V30 2477 H 414.827 4.05985 4.30448 0
M  V30 2478 H 413.09 3.88028 4.72875 0
M  V30 2479 H 413.578 4.11381 3.01609 0
M  V30 2480 H 414.314 -0.0393617 1.41345 0
M  V30 2481 P 415.738 -2.75334 8.47391 0
M  V30 2482 O 415.958 -3.84128 9.44797 0
M  V30 2483 O 416.528 -1.51947 8.68712 0
M  V30 2484 O 415.988 -3.29363 6.99321 0
M  V30 2485 C 415.048 -4.24011 6.4274 0
M  V30 2486 C 415.778 -5.20775 5.52155 0
M  V30 2487 O 415.988 -4.56534 4.22446 0
M  V30 2488 C 417.178 -5.62629 5.96531 0
M  V30 2489 O 417.568 -6.87667 5.41053 0
M  V30 2490 C 418.058 -4.52537 5.39283 0
M  V30 2491 C 417.348 -4.20027 4.08623 0
M  V30 2492 N 417.398 -2.76189 3.71603 0
M  V30 2493 H 414.559 -4.797 7.24003 0
M  V30 2494 H 414.289 -3.69856 5.84513 0
M  V30 2495 H 415.156 -6.10356 5.41441 0
M  V30 2496 P 419.118 -7.20834 5.23717 0
M  V30 2497 O 419.338 -8.66104 5.38572 0
M  V30 2498 O 419.908 -6.33544 6.1349 0
M  V30 2499 O 419.368 -6.7751 3.72168 0
M  V30 2500 C 418.428 -7.20825 2.7076 0
M  V30 2501 C 419.158 -7.45864 1.40599 0
M  V30 2502 O 419.368 -6.17651 0.734225 0
M  V30 2503 C 420.558 -8.05808 1.51899 0
M  V30 2504 O 420.948 -8.74358 0.335205 0
M  V30 2505 C 421.438 -6.83093 1.70294 0
M  V30 2506 C 420.728 -5.79992 0.836974 0
M  V30 2507 N 420.778 -4.41864 1.38293 0
M  V30 2508 H 417.939 -8.13644 3.0377 0
M  V30 2509 H 417.669 -6.42788 2.55485 0
M  V30 2510 H 418.536 -8.12039 0.792769 0
M  V30 2511 P 422.497 -8.91 -2.28351e-12 0
M  V30 2512 O 422.717 -10.1746 -0.733838 0
M  V30 2513 O 423.287 -8.73346 1.23964 0
M  V30 2514 O 422.747 -7.66872 -0.971405 0
M  V30 2515 C 421.807 -7.42405 -2.04668 0
M  V30 2516 C 422.537 -6.86059 -3.24661 0
M  V30 2517 O 422.747 -5.42934 -3.03695 0
M  V30 2518 C 423.937 -7.41287 -3.50796 0
M  V30 2519 O 424.327 -7.27073 -4.86816 0
M  V30 2520 C 424.817 -6.5273 -2.63741 0
M  V30 2521 C 424.107 -5.1842 -2.73198 0
M  V30 2522 N 424.157 -4.38762 -1.4784 0
M  V30 2523 H 421.319 -8.36899 -2.3252 0
M  V30 2524 H 421.047 -6.70391 -1.71179 0
M  V30 2525 H 421.915 -7.03638 -4.13219 0
M  V30 2526 H 424.57 -4.59931 -3.54016 0
M  V30 2527 H 424.85 -6.88995 -1.59871 0
M  V30 2528 H 425.841 -6.4684 -3.0373 0
M  V30 2529 H 424.007 -8.47002 -3.20749 0
M  V30 2530 P 425.877 -7.20834 -5.23717 0
M  V30 2531 O 426.097 -7.80006 -6.57415 0
M  V30 2532 O 426.667 -7.79416 -4.13051 0
M  V30 2533 O 426.127 -5.63315 -5.29344 0
M  V30 2534 C 425.187 -4.80318 -6.01954 0
M  V30 2535 C 425.917 -3.64202 -6.65911 0
M  V30 2536 O 426.127 -2.60736 -5.64823 0
M  V30 2537 C 427.317 -3.93521 -7.19518 0
M  V30 2538 O 427.707 -3.02071 -8.21205 0
M  V30 2539 C 428.197 -3.73047 -5.97036 0
M  V30 2540 C 427.487 -2.58828 -5.25741 0
M  V30 2541 N 427.537 -2.68068 -3.77503 0
M  V30 2542 H 424.699 -5.40394 -6.8003 0
M  V30 2543 H 424.427 -4.41741 -5.32532 0
M  V30 2544 H 425.295 -3.26371 -7.47889 0
M  V30 2545 H 427.95 -1.64007 -5.56746 0
M  V30 2546 H 428.23 -4.63439 -5.3432 0
M  V30 2547 H 429.221 -3.44776 -6.25925 0
M  V30 2548 H 427.387 -4.96707 -7.57347 0
M  V30 2549 P 429.257 -2.75334 -8.47391 0
M  V30 2550 O 429.477 -2.44571 -9.90142 0
M  V30 2551 O 430.047 -3.87688 -7.92115 0
M  V30 2552 O 429.507 -1.4459 -7.59357 0
M  V30 2553 C 428.567 -0.347608 -7.69215 0
M  V30 2554 C 429.297 0.96767 -7.52806 0
M  V30 2555 O 429.507 1.21036 -6.1011 0
M  V30 2556 C 430.697 1.04544 -8.13308 0
M  V30 2557 O 431.087 2.38311 -8.41922 0
M  V30 2558 C 431.577 0.491279 -7.02284 0
M  V30 2559 C 430.867 0.996264 -5.77469 0
M  V30 2560 N 430.917 0.0501916 -4.62973 0
M  V30 2561 H 428.078 -0.374722 -8.67691 0
M  V30 2562 H 427.808 -0.443485 -6.90277 0
M  V30 2563 H 428.675 1.75537 -7.96793 0
M  V30 2564 P 432.637 2.75334 -8.47391 0
M  V30 2565 O 432.857 3.84128 -9.44797 0
M  V30 2566 O 433.427 1.51947 -8.68712 0
M  V30 2567 O 432.887 3.29363 -6.99321 0
M  V30 2568 C 431.947 4.24011 -6.4274 0
M  V30 2569 C 432.677 5.20775 -5.52155 0
M  V30 2570 O 432.887 4.56534 -4.22446 0
M  V30 2571 C 434.077 5.62629 -5.96531 0
M  V30 2572 O 434.467 6.87667 -5.41053 0
M  V30 2573 C 434.957 4.52537 -5.39283 0
M  V30 2574 C 434.247 4.20027 -4.08623 0
M  V30 2575 N 434.297 2.76189 -3.71603 0
M  V30 2576 C 434.217 1.64862 -4.52822 0
M  V30 2577 N 434.297 0.512671 -3.88633 0
M  V30 2578 C 434.437 0.888083 -2.54977 0
M  V30 2579 C 434.567 0.094668 -1.38677 0
M  V30 2580 N 434.687 0.890102 -0.232633 0
M  V30 2581 C 434.687 2.26958 -0.21772 0
M  V30 2582 N 434.817 2.84626 0.97925 0
M  V30 2583 N 434.557 3.0178 -1.31033 0
M  V30 2584 C 434.437 2.26781 -2.43843 0
M  V30 2585 H 431.458 4.797 -7.24003 0
M  V30 2586 H 431.188 3.69856 -5.84513 0
M  V30 2587 H 432.055 6.10356 -5.41441 0
M  V30 2588 P 436.017 7.20834 -5.23717 0
M  V30 2589 O 436.237 8.66104 -5.38572 0
M  V30 2590 O 436.807 6.33544 -6.1349 0
M  V30 2591 O 436.267 6.7751 -3.72168 0
M  V30 2592 C 435.327 7.20825 -2.7076 0
M  V30 2593 C 436.057 7.45864 -1.40599 0
M  V30 2594 O 436.267 6.17651 -0.734225 0
M  V30 2595 C 437.457 8.05808 -1.51899 0
M  V30 2596 O 437.847 8.74358 -0.335205 0
M  V30 2597 C 438.337 6.83093 -1.70294 0
M  V30 2598 C 437.627 5.79992 -0.836974 0
M  V30 2599 N 437.677 4.41864 -1.38293 0
M  V30 2600 H 434.838 8.13644 -3.0377 0
M  V30 2601 H 434.568 6.42788 -2.55485 0
M  V30 2602 H 435.435 8.12039 -0.792769 0
M  V30 2603 P 439.397 8.91 2.44069e-12 0
M  V30 2604 O 439.617 10.1736 0.733766 0
M  V30 2605 O 440.187 8.73247 -1.2395 0
M  V30 2606 O 439.647 7.66872 0.971405 0
M  V30 2607 C 438.707 7.42212 2.04614 0
M  V30 2608 C 439.437 6.86059 3.24661 0
M  V30 2609 O 439.647 5.42847 3.03646 0
M  V30 2610 C 440.837 7.41196 3.50753 0
M  V30 2611 O 441.227 7.27073 4.86816 0
M  V30 2612 C 441.717 6.5273 2.63741 0
M  V30 2613 C 441.007 5.1842 2.73198 0
M  V30 2614 N 441.057 4.38668 1.47808 0
M  V30 2615 C 441.207 3.02239 1.60048 0
M  V30 2616 O 441.297 2.46459 2.67869 0
M  V30 2617 N 441.247 2.32436 0.408571 0
M  V30 2618 C 441.157 2.85471 -0.854993 0
M  V30 2619 C 441.007 4.28918 -0.887335 0
M  V30 2620 C 440.957 5.00349 0.255399 0
M  V30 2621 H 438.217 8.36803 2.32493 0
M  V30 2622 H 437.948 6.701 1.71105 0
M  V30 2623 H 438.815 7.03551 4.13168 0
M  V30 2624 H 441.47 4.59773 3.53894 0
M  V30 2625 H 441.749 6.88995 1.59871 0
M  V30 2626 H 442.741 6.46749 3.03687 0
M  V30 2627 H 440.907 8.46908 3.20714 0
M  V30 2628 H 440.836 6.08548 0.206986 0
M  V30 2629 P 442.777 7.20834 5.23717 0
M  V30 2630 O 442.997 7.79853 6.57286 0
M  V30 2631 O 443.567 7.79239 4.12957 0
M  V30 2632 O 443.027 5.63315 5.29344 0
M  V30 2633 C 442.087 4.80255 6.01876 0
M  V30 2634 C 442.817 3.64202 6.65911 0
M  V30 2635 O 443.027 2.60694 5.64732 0
M  V30 2636 C 444.217 3.93473 7.1943 0
M  V30 2637 O 444.607 3.02071 8.21205 0
M  V30 2638 C 445.097 3.73047 5.97036 0
M  V30 2639 C 444.387 2.58828 5.25741 0
M  V30 2640 N 444.437 2.68068 3.77503 0
M  V30 2641 H 441.598 5.40332 6.79951 0
M  V30 2642 H 441.328 4.41613 5.32378 0
M  V30 2643 H 442.195 3.26331 7.47797 0
M  V30 2644 P 446.157 2.75334 8.47391 0
M  V30 2645 O 446.377 2.44571 9.90142 0
M  V30 2646 O 446.947 3.87688 7.92115 0
M  V30 2647 O 446.407 1.4459 7.59357 0
M  V30 2648 C 445.467 0.347608 7.69215 0
M  V30 2649 C 446.197 -0.96767 7.52806 0
M  V30 2650 O 446.407 -1.21036 6.1011 0
M  V30 2651 C 447.597 -1.04544 8.13308 0
M  V30 2652 O 447.987 -2.38311 8.41922 0
M  V30 2653 C 448.477 -0.491279 7.02284 0
M  V30 2654 C 447.767 -0.996264 5.77469 0
M  V30 2655 N 447.817 -0.0501916 4.62973 0
M  V30 2656 H 444.978 0.374722 8.67691 0
M  V30 2657 H 444.708 0.443485 6.90277 0
M  V30 2658 H 445.575 -1.75537 7.96793 0
M  V30 2659 P 449.537 -2.75334 8.47391 0
M  V30 2660 O 449.757 -3.84128 9.44797 0
M  V30 2661 O 450.327 -1.51947 8.68712 0
M  V30 2662 O 449.787 -3.29363 6.99321 0
M  V30 2663 C 448.847 -4.24011 6.4274 0
M  V30 2664 C 449.577 -5.20775 5.52155 0
M  V30 2665 O 449.787 -4.56534 4.22446 0
M  V30 2666 C 450.977 -5.62629 5.96531 0
M  V30 2667 O 451.367 -6.87667 5.41053 0
M  V30 2668 C 451.857 -4.52537 5.39283 0
M  V30 2669 C 451.147 -4.20027 4.08623 0
M  V30 2670 N 451.197 -2.76189 3.71603 0
M  V30 2671 H 448.358 -4.797 7.24003 0
M  V30 2672 H 448.088 -3.69856 5.84513 0
M  V30 2673 H 448.955 -6.10356 5.41441 0
M  V30 2674 P 452.917 -7.20834 5.23717 0
M  V30 2675 O 453.137 -8.66189 5.38625 0
M  V30 2676 O 453.707 -6.33615 6.1356 0
M  V30 2677 O 453.167 -6.7751 3.72168 0
M  V30 2678 C 452.227 -7.20732 2.70725 0
M  V30 2679 C 452.957 -7.45864 1.40599 0
M  V30 2680 O 453.167 -6.17651 0.734225 0
M  V30 2681 C 454.357 -8.05808 1.51899 0
M  V30 2682 O 454.747 -8.74358 0.335205 0
M  V30 2683 C 455.237 -6.83093 1.70294 0
M  V30 2684 C 454.527 -5.79992 0.836974 0
M  V30 2685 N 454.577 -4.41769 1.38263 0
M  V30 2686 C 454.727 -3.38591 0.481702 0
M  V30 2687 O 454.817 -3.56839 -0.718452 0
M  V30 2688 N 454.767 -2.1206 1.03569 0
M  V30 2689 C 454.677 -1.80696 2.36966 0
M  V30 2690 C 454.527 -2.94845 3.23898 0
M  V30 2691 C 454.477 -4.19803 2.73435 0
M  V30 2692 H 451.737 -8.13644 3.0377 0
M  V30 2693 H 451.468 -6.42695 2.55448 0
M  V30 2694 H 452.335 -8.12039 0.792769 0
M  V30 2695 H 454.99 -5.79978 -0.160587 0
M  V30 2696 H 455.269 -6.51379 2.75643 0
M  V30 2697 H 456.261 -7.01734 1.34462 0
M  V30 2698 H 454.427 -8.73674 2.38337 0
M  V30 2699 H 454.356 -5.04492 3.4095 0
M  V30 2700 P 456.297 -8.91 -2.59788e-12 0
M  V30 2701 O 456.517 -10.1726 -0.733694 0
M  V30 2702 O 457.087 -8.73148 1.23936 0
M  V30 2703 O 456.547 -7.66872 -0.971405 0
M  V30 2704 C 455.607 -7.42309 -2.04641 0
M  V30 2705 C 456.337 -6.86059 -3.24661 0
M  V30 2706 O 456.547 -5.42847 -3.03646 0
M  V30 2707 C 457.737 -7.41196 -3.50753 0
M  V30 2708 O 458.127 -7.27073 -4.86816 0
M  V30 2709 C 458.617 -6.5273 -2.63741 0
M  V30 2710 C 457.907 -5.1842 -2.73198 0
M  V30 2711 N 457.957 -4.38762 -1.4784 0
M  V30 2712 C 457.877 -4.81605 -0.168631 0
M  V30 2713 N 457.957 -3.85454 0.713363 0
M  V30 2714 C 458.097 -2.6994 -0.0566958 0
M  V30 2715 C 458.227 -1.34815 0.338502 0
M  V30 2716 O 458.247 -0.869548 1.47125 0
M  V30 2717 N 458.347 -0.496304 -0.77465 0
M  V30 2718 C 458.347 -0.908403 -2.09122 0
M  V30 2719 N 458.477 0.0517805 -3.00955 0
M  V30 2720 N 458.217 -2.17875 -2.46519 0
M  V30 2721 C 458.097 -3.01988 -1.4033 0
M  V30 2722 H 455.118 -8.36803 -2.32493 0
M  V30 2723 H 454.848 -6.70197 -1.71129 0
M  V30 2724 H 455.715 -7.03551 -4.13168 0
M  V30 2725 H 458.37 -4.59498 -3.54415 0
M  V30 2726 H 458.649 -6.88898 -1.59848 0
M  V30 2727 H 459.641 -6.46749 -3.03687 0
M  V30 2728 H 457.807 -8.46908 -3.20714 0
M  V30 2729 H 457.758 -5.86405 0.105564 0
M  V30 2730 H 458.44 0.483664 -0.597855 0
M  V30 2731 H 458.477 -0.187865 -4.0116 0
M  V30 2732 H 458.578 1.03585 -2.71726 0
M  V30 2733 P 459.677 -7.20834 -5.23717 0
M  V30 2734 O 459.897 -7.79853 -6.57286 0
M  V30 2735 O 460.467 -7.79239 -4.12957 0
M  V30 2736 O 459.927 -5.63315 -5.29344 0
M  V30 2737 C 458.987 -4.80255 -6.01876 0
M  V30 2738 C 459.717 -3.64202 -6.65911 0
M  V30 2739 O 459.927 -2.60694 -5.64732 0
M  V30 2740 C 461.117 -3.93473 -7.1943 0
M  V30 2741 O 461.507 -3.02071 -8.21205 0
M  V30 2742 C 461.997 -3.73047 -5.97036 0
M  V30 2743 C 461.287 -2.58828 -5.25741 0
M  V30 2744 N 461.337 -2.68068 -3.77503 0
M  V30 2745 H 458.498 -5.40332 -6.79951 0
M  V30 2746 H 458.228 -4.41613 -5.32378 0
M  V30 2747 H 459.095 -3.26331 -7.47797 0
M  V30 2748 P 463.057 -2.75334 -8.47391 0
M  V30 2749 O 463.277 -2.44571 -9.90142 0
M  V30 2750 O 463.847 -3.87688 -7.92115 0
M  V30 2751 O 463.307 -1.4459 -7.59357 0
M  V30 2752 C 462.367 -0.347608 -7.69215 0
M  V30 2753 C 463.097 0.96767 -7.52806 0
M  V30 2754 O 463.307 1.21036 -6.1011 0
M  V30 2755 C 464.497 1.04544 -8.13308 0
M  V30 2756 O 464.887 2.38311 -8.41922 0
M  V30 2757 C 465.377 0.491279 -7.02284 0
M  V30 2758 C 464.667 0.996264 -5.77469 0
M  V30 2759 N 464.717 0.0501916 -4.62973 0
M  V30 2760 H 461.878 -0.374722 -8.67691 0
M  V30 2761 H 461.608 -0.443485 -6.90277 0
M  V30 2762 H 462.475 1.75537 -7.96793 0
M  V30 2763 P 466.437 2.75334 -8.47391 0
M  V30 2764 O 466.657 3.84128 -9.44797 0
M  V30 2765 O 467.227 1.51947 -8.68712 0
M  V30 2766 O 466.687 3.29363 -6.99321 0
M  V30 2767 C 465.747 4.24011 -6.4274 0
M  V30 2768 C 466.477 5.20775 -5.52155 0
M  V30 2769 O 466.687 4.56534 -4.22446 0
M  V30 2770 C 467.877 5.62629 -5.96531 0
M  V30 2771 O 468.267 6.87667 -5.41053 0
M  V30 2772 C 468.757 4.52537 -5.39283 0
M  V30 2773 C 468.047 4.20027 -4.08623 0
M  V30 2774 N 468.097 2.76189 -3.71603 0
M  V30 2775 H 465.258 4.797 -7.24003 0
M  V30 2776 H 464.988 3.69856 -5.84513 0
M  V30 2777 H 465.855 6.10356 -5.41441 0
M  V30 2778 P 469.817 7.20834 -5.23717 0
M  V30 2779 O 470.037 8.66189 -5.38625 0
M  V30 2780 O 470.607 6.33615 -6.1356 0
M  V30 2781 O 470.067 6.7751 -3.72168 0
M  V30 2782 C 469.127 7.20732 -2.70725 0
M  V30 2783 C 469.857 7.45864 -1.40599 0
M  V30 2784 O 470.067 6.17651 -0.734225 0
M  V30 2785 C 471.257 8.05808 -1.51899 0
M  V30 2786 O 471.647 8.74358 -0.335205 0
M  V30 2787 C 472.137 6.83093 -1.70294 0
M  V30 2788 C 471.427 5.79992 -0.836974 0
M  V30 2789 N 471.477 4.41769 -1.38263 0
M  V30 2790 C 471.627 3.38591 -0.481702 0
M  V30 2791 O 471.717 3.56839 0.718452 0
M  V30 2792 N 471.667 2.1206 -1.03569 0
M  V30 2793 C 471.577 1.80696 -2.36966 0
M  V30 2794 O 471.627 0.630473 -2.74862 0
M  V30 2795 C 471.427 2.94845 -3.23898 0
M  V30 2796 C 471.317 2.65253 -4.70362 0
M  V30 2797 C 471.377 4.19803 -2.73435 0
M  V30 2798 H 468.637 8.13644 -3.0377 0
M  V30 2799 H 468.368 6.42695 -2.55448 0
M  V30 2800 H 469.235 8.12039 -0.792769 0
M  V30 2801 H 471.89 5.79978 0.160587 0
M  V30 2802 H 472.169 6.51379 -2.75643 0
M  V30 2803 H 473.161 7.01734 -1.34462 0
M  V30 2804 H 471.327 8.73674 -2.38337 0
M  V30 2805 H 471.256 5.04492 -3.4095 0
M  V30 2806 H 472.286 2.83924 -5.1913 0
M  V30 2807 H 470.549 3.29824 -5.15163 0
M  V30 2808 H 471.037 1.59723 -4.84449 0
M  V30 2809 H 471.773 1.35644 -0.399345 0
M  V30 2810 P 473.197 8.91 2.75506e-12 0
M  V30 2811 O 473.417 10.1726 0.733694 0
M  V30 2812 O 473.987 8.73148 -1.23936 0
M  V30 2813 O 473.447 7.66872 0.971405 0
M  V30 2814 C 472.507 7.42309 2.04641 0
M  V30 2815 C 473.237 6.86059 3.24661 0
M  V30 2816 O 473.447 5.42847 3.03646 0
M  V30 2817 C 474.637 7.41196 3.50753 0
M  V30 2818 O 475.027 7.27073 4.86816 0
M  V30 2819 C 475.517 6.5273 2.63741 0
M  V30 2820 C 474.807 5.1842 2.73198 0
M  V30 2821 N 474.857 4.38762 1.4784 0
M  V30 2822 H 472.018 8.36803 2.32493 0
M  V30 2823 H 471.748 6.70197 1.71129 0
M  V30 2824 H 472.615 7.03551 4.13168 0
M  V30 2825 P 476.577 7.20834 5.23717 0
M  V30 2826 O 476.797 7.79853 6.57286 0
M  V30 2827 O 477.367 7.79239 4.12957 0
M  V30 2828 O 476.827 5.63315 5.29344 0
M  V30 2829 C 475.887 4.80255 6.01876 0
M  V30 2830 C 476.617 3.64202 6.65911 0
M  V30 2831 O 476.827 2.60694 5.64732 0
M  V30 2832 C 478.017 3.93473 7.1943 0
M  V30 2833 O 478.407 3.02071 8.21205 0
M  V30 2834 C 478.897 3.73047 5.97036 0
M  V30 2835 C 478.187 2.58828 5.25741 0
M  V30 2836 N 478.237 2.68068 3.77503 0
M  V30 2837 H 475.398 5.40332 6.79951 0
M  V30 2838 H 475.128 4.41613 5.32378 0
M  V30 2839 H 475.995 3.26331 7.47797 0
M  V30 2840 P 479.957 2.75334 8.47391 0
M  V30 2841 O 480.177 2.44571 9.90142 0
M  V30 2842 O 480.747 3.87688 7.92115 0
M  V30 2843 O 480.207 1.4459 7.59357 0
M  V30 2844 C 479.267 0.347608 7.69215 0
M  V30 2845 C 479.997 -0.96767 7.52806 0
M  V30 2846 O 480.207 -1.21036 6.1011 0
M  V30 2847 C 481.397 -1.04544 8.13308 0
M  V30 2848 O 481.787 -2.38311 8.41922 0
M  V30 2849 C 482.277 -0.491279 7.02284 0
M  V30 2850 C 481.567 -0.996264 5.77469 0
M  V30 2851 N 481.617 -0.0501916 4.62973 0
M  V30 2852 H 478.778 0.374722 8.67691 0
M  V30 2853 H 478.508 0.443485 6.90277 0
M  V30 2854 H 479.375 -1.75537 7.96793 0
M  V30 2855 P 483.337 -2.75334 8.47391 0
M  V30 2856 O 483.557 -3.84128 9.44797 0
M  V30 2857 O 484.127 -1.51947 8.68712 0
M  V30 2858 O 483.587 -3.29363 6.99321 0
M  V30 2859 C 482.647 -4.24011 6.4274 0
M  V30 2860 C 483.377 -5.20775 5.52155 0
M  V30 2861 O 483.587 -4.56534 4.22446 0
M  V30 2862 C 484.777 -5.62629 5.96531 0
M  V30 2863 O 485.167 -6.87667 5.41053 0
M  V30 2864 C 485.657 -4.52537 5.39283 0
M  V30 2865 C 484.947 -4.20027 4.08623 0
M  V30 2866 N 484.997 -2.76189 3.71603 0
M  V30 2867 H 482.158 -4.797 7.24003 0
M  V30 2868 H 481.888 -3.69856 5.84513 0
M  V30 2869 H 482.755 -6.10356 5.41441 0
M  V30 2870 P 486.717 -7.20834 5.23717 0
M  V30 2871 O 486.937 -8.66189 5.38625 0
M  V30 2872 O 487.507 -6.33615 6.1356 0
M  V30 2873 O 486.967 -6.7751 3.72168 0
M  V30 2874 C 486.027 -7.20732 2.70725 0
M  V30 2875 C 486.757 -7.45864 1.40599 0
M  V30 2876 O 486.967 -6.17651 0.734225 0
M  V30 2877 C 488.157 -8.05808 1.51899 0
M  V30 2878 O 488.547 -8.74358 0.335205 0
M  V30 2879 C 489.037 -6.83093 1.70294 0
M  V30 2880 C 488.327 -5.79992 0.836974 0
M  V30 2881 N 488.377 -4.41769 1.38263 0
M  V30 2882 C 488.527 -3.38591 0.481702 0
M  V30 2883 O 488.617 -3.56839 -0.718452 0
M  V30 2884 N 488.567 -2.1206 1.03569 0
M  V30 2885 C 488.477 -1.80696 2.36966 0
M  V30 2886 O 488.527 -0.630473 2.74862 0
M  V30 2887 C 488.327 -2.94845 3.23898 0
M  V30 2888 C 488.217 -2.65253 4.70362 0
M  V30 2889 C 488.277 -4.19803 2.73435 0
M  V30 2890 H 485.537 -8.13644 3.0377 0
M  V30 2891 H 485.268 -6.42695 2.55448 0
M  V30 2892 H 486.135 -8.12039 0.792769 0
M  V30 2893 H 488.79 -5.79978 -0.160587 0
M  V30 2894 H 489.069 -6.51379 2.75643 0
M  V30 2895 H 490.061 -7.01734 1.34462 0
M  V30 2896 H 488.227 -8.73674 2.38337 0
M  V30 2897 H 488.156 -5.04492 3.4095 0
M  V30 2898 H 489.186 -2.83924 5.1913 0
M  V30 2899 H 487.449 -3.29824 5.15163 0
M  V30 2900 H 487.937 -1.59723 4.84449 0
M  V30 2901 H 488.673 -1.35644 0.399345 0
M  V30 2902 P 490.097 -8.91 -2.91224e-12 0
M  V30 2903 O 490.317 -10.1726 -0.733694 0
M  V30 2904 O 490.887 -8.73148 1.23936 0
M  V30 2905 O 490.347 -7.66872 -0.971405 0
M  V30 2906 C 489.407 -7.42309 -2.04641 0
M  V30 2907 C 490.137 -6.86059 -3.24661 0
M  V30 2908 O 490.347 -5.42847 -3.03646 0
M  V30 2909 C 491.537 -7.41196 -3.50753 0
M  V30 2910 O 491.927 -7.27073 -4.86816 0
M  V30 2911 C 492.417 -6.5273 -2.63741 0
M  V30 2912 C 491.707 -5.1842 -2.73198 0
M  V30 2913 N 491.757 -4.38762 -1.4784 0
M  V30 2914 H 488.918 -8.36803 -2.32493 0
M  V30 2915 H 488.648 -6.70197 -1.71129 0
M  V30 2916 H 489.515 -7.03551 -4.13168 0
M  V30 2917 P 493.477 -7.20834 -5.23717 0
M  V30 2918 O 493.697 -7.79853 -6.57286 0
M  V30 2919 O 494.267 -7.79239 -4.12957 0
M  V30 2920 O 493.727 -5.63315 -5.29344 0
M  V30 2921 C 492.787 -4.80255 -6.01876 0
M  V30 2922 C 493.517 -3.64202 -6.65911 0
M  V30 2923 O 493.727 -2.60694 -5.64732 0
M  V30 2924 C 494.917 -3.93473 -7.1943 0
M  V30 2925 O 495.307 -3.02071 -8.21205 0
M  V30 2926 C 495.797 -3.73047 -5.97036 0
M  V30 2927 C 495.087 -2.58828 -5.25741 0
M  V30 2928 N 495.137 -2.68068 -3.77503 0
M  V30 2929 C 495.057 -3.79715 -2.96723 0
M  V30 2930 N 495.137 -3.5377 -1.68852 0
M  V30 2931 C 495.277 -2.15054 -1.63254 0
M  V30 2932 C 495.407 -1.28964 -0.518571 0
M  V30 2933 N 495.527 0.0538097 -0.918425 0
M  V30 2934 C 495.527 0.494275 -2.22578 0
M  V30 2935 N 495.657 1.81086 -2.40434 0
M  V30 2936 N 495.397 -0.313645 -3.27502 0
M  V30 2937 C 495.277 -1.61829 -2.91033 0
M  V30 2938 H 492.298 -5.40332 -6.79951 0
M  V30 2939 H 492.028 -4.41613 -5.32378 0
M  V30 2940 H 492.895 -3.26331 -7.47797 0
M  V30 2941 P 496.857 -2.75334 -8.47391 0
M  V30 2942 O 497.077 -2.44571 -9.90142 0
M  V30 2943 O 497.647 -3.87688 -7.92115 0
M  V30 2944 O 497.107 -1.4459 -7.59357 0
M  V30 2945 C 496.167 -0.347608 -7.69215 0
M  V30 2946 C 496.897 0.96767 -7.52806 0
M  V30 2947 O 497.107 1.21036 -6.1011 0
M  V30 2948 C 498.297 1.04544 -8.13308 0
M  V30 2949 O 498.687 2.38311 -8.41922 0
M  V30 2950 C 499.177 0.491279 -7.02284 0
M  V30 2951 C 498.467 0.996264 -5.77469 0
M  V30 2952 N 498.517 0.0501916 -4.62973 0
M  V30 2953 H 495.678 -0.374722 -8.67691 0
M  V30 2954 H 495.408 -0.443485 -6.90277 0
M  V30 2955 H 496.275 1.75537 -7.96793 0
M  V30 2956 P 500.237 2.75334 -8.47391 0
M  V30 2957 O 500.457 3.84128 -9.44797 0
M  V30 2958 O 501.027 1.51947 -8.68712 0
M  V30 2959 O 500.487 3.29363 -6.99321 0
M  V30 2960 C 499.547 4.24011 -6.4274 0
M  V30 2961 C 500.277 5.20775 -5.52155 0
M  V30 2962 O 500.487 4.56534 -4.22446 0
M  V30 2963 C 501.677 5.62629 -5.96531 0
M  V30 2964 O 502.067 6.87667 -5.41053 0
M  V30 2965 C 502.557 4.52537 -5.39283 0
M  V30 2966 C 501.847 4.20027 -4.08623 0
M  V30 2967 N 501.897 2.76189 -3.71603 0
M  V30 2968 H 499.058 4.797 -7.24003 0
M  V30 2969 H 498.788 3.69856 -5.84513 0
M  V30 2970 H 499.655 6.10356 -5.41441 0
M  V30 2971 P 503.617 7.20834 -5.23717 0
M  V30 2972 O 503.837 8.66104 -5.38572 0
M  V30 2973 O 504.407 6.33544 -6.1349 0
M  V30 2974 O 503.867 6.7751 -3.72168 0
M  V30 2975 C 502.927 7.20825 -2.7076 0
M  V30 2976 C 503.657 7.45864 -1.40599 0
M  V30 2977 O 503.867 6.17651 -0.734225 0
M  V30 2978 C 505.057 8.05808 -1.51899 0
M  V30 2979 O 505.447 8.74358 -0.335205 0
M  V30 2980 C 505.937 6.83093 -1.70294 0
M  V30 2981 C 505.227 5.79992 -0.836974 0
M  V30 2982 N 505.277 4.41864 -1.38293 0
M  V30 2983 C 505.197 3.99538 -2.69438 0
M  V30 2984 N 505.277 2.69909 -2.84277 0
M  V30 2985 C 505.417 2.21719 -1.5408 0
M  V30 2986 C 505.547 0.891712 -1.06628 0
M  V30 2987 O 505.567 -0.161298 -1.70137 0
M  V30 2988 N 505.667 0.856846 0.334985 0
M  V30 2989 C 505.667 1.9641 1.15789 0
M  V30 2990 N 505.797 1.72708 2.46522 0
M  V30 2991 N 505.537 3.21165 0.713741 0
M  V30 2992 C 505.417 3.26797 -0.639748 0
M  V30 2993 H 502.438 8.13644 -3.0377 0
M  V30 2994 H 502.168 6.42788 -2.55485 0
M  V30 2995 H 503.035 8.12039 -0.792769 0
M  V30 2996 H 505.69 5.80061 0.166416 0
M  V30 2997 H 505.969 6.51287 -2.75604 0
M  V30 2998 H 506.961 7.01734 -1.34462 0
M  V30 2999 H 505.127 8.73674 -2.38337 0
M  V30 3000 H 505.078 4.68207 -3.53221 0
M  V30 3001 H 505.76 -0.0398818 0.767965 0
M  V30 3002 H 505.797 2.50995 3.13503 0
M  V30 3003 H 505.898 0.759148 2.80716 0
M  V30 3004 P 506.997 8.91 3.06942e-12 0
M  V30 3005 O 507.217 10.1726 0.733694 0
M  V30 3006 O 507.787 8.73148 -1.23936 0
M  V30 3007 O 507.247 7.66872 0.971405 0
M  V30 3008 C 506.307 7.42309 2.04641 0
M  V30 3009 C 507.037 6.86059 3.24661 0
M  V30 3010 O 507.247 5.42847 3.03646 0
M  V30 3011 C 508.437 7.41196 3.50753 0
M  V30 3012 O 508.827 7.27073 4.86816 0
M  V30 3013 C 509.317 6.5273 2.63741 0
M  V30 3014 C 508.607 5.1842 2.73198 0
M  V30 3015 N 508.657 4.38762 1.4784 0
M  V30 3016 H 505.818 8.36803 2.32493 0
M  V30 3017 H 505.548 6.70197 1.71129 0
M  V30 3018 H 506.415 7.03551 4.13168 0
M  V30 3019 P 510.377 7.20834 5.23717 0
M  V30 3020 O 510.597 7.79853 6.57286 0
M  V30 3021 O 511.167 7.79239 4.12957 0
M  V30 3022 O 510.627 5.63315 5.29344 0
M  V30 3023 C 509.687 4.80255 6.01876 0
M  V30 3024 C 510.417 3.64202 6.65911 0
M  V30 3025 O 510.627 2.60694 5.64732 0
M  V30 3026 C 511.817 3.93473 7.1943 0
M  V30 3027 O 512.207 3.02071 8.21205 0
M  V30 3028 C 512.697 3.73047 5.97036 0
M  V30 3029 C 511.987 2.58828 5.25741 0
M  V30 3030 N 512.037 2.68068 3.77503 0
M  V30 3031 H 509.198 5.40332 6.79951 0
M  V30 3032 H 508.928 4.41613 5.32378 0
M  V30 3033 H 509.795 3.26331 7.47797 0
M  V30 3034 P 513.757 2.75334 8.47391 0
M  V30 3035 O 513.977 2.44571 9.90142 0
M  V30 3036 O 514.547 3.87688 7.92115 0
M  V30 3037 O 514.007 1.4459 7.59357 0
M  V30 3038 C 513.067 0.347608 7.69215 0
M  V30 3039 C 513.797 -0.96767 7.52806 0
M  V30 3040 O 514.007 -1.21036 6.1011 0
M  V30 3041 C 515.197 -1.04544 8.13308 0
M  V30 3042 O 515.587 -2.38311 8.41922 0
M  V30 3043 C 516.077 -0.491279 7.02284 0
M  V30 3044 C 515.367 -0.996264 5.77469 0
M  V30 3045 N 515.417 -0.0501916 4.62973 0
M  V30 3046 C 515.337 1.32786 4.63244 0
M  V30 3047 N 515.417 1.86957 3.44545 0
M  V30 3048 C 515.557 0.780241 2.58481 0
M  V30 3049 C 515.687 0.738536 1.17757 0
M  V30 3050 N 515.807 -0.58337 0.711393 0
M  V30 3051 C 515.807 -1.70816 1.51017 0
M  V30 3052 N 515.937 -2.87826 0.880757 0
M  V30 3053 N 515.677 -1.67126 2.8339 0
M  V30 3054 C 515.557 -0.401421 3.30572 0
M  V30 3055 H 512.578 0.374722 8.67691 0
M  V30 3056 H 512.308 0.443485 6.90277 0
M  V30 3057 H 513.175 -1.75537 7.96793 0
M  V30 3058 P 517.137 -2.75334 8.47391 0
M  V30 3059 O 517.357 -3.84128 9.44797 0
M  V30 3060 O 517.927 -1.51947 8.68712 0
M  V30 3061 O 517.387 -3.29363 6.99321 0
M  V30 3062 C 516.447 -4.24011 6.4274 0
M  V30 3063 C 517.177 -5.20775 5.52155 0
M  V30 3064 O 517.387 -4.56534 4.22446 0
M  V30 3065 C 518.577 -5.62629 5.96531 0
M  V30 3066 O 518.967 -6.87667 5.41053 0
M  V30 3067 C 519.457 -4.52537 5.39283 0
M  V30 3068 C 518.747 -4.20027 4.08623 0
M  V30 3069 N 518.797 -2.76189 3.71603 0
M  V30 3070 C 518.717 -1.64862 4.52822 0
M  V30 3071 N 518.797 -0.512671 3.88633 0
M  V30 3072 C 518.937 -0.888083 2.54977 0
M  V30 3073 C 519.067 -0.094668 1.38677 0
M  V30 3074 O 519.087 1.13053 1.28163 0
M  V30 3075 N 519.187 -0.890102 0.232633 0
M  V30 3076 C 519.187 -2.26958 0.21772 0
M  V30 3077 N 519.317 -2.84626 -0.97925 0
M  V30 3078 N 519.057 -3.0178 1.31033 0
M  V30 3079 C 518.937 -2.26781 2.43843 0
M  V30 3080 H 515.958 -4.797 7.24003 0
M  V30 3081 H 515.688 -3.69856 5.84513 0
M  V30 3082 H 516.555 -6.10356 5.41441 0
M  V30 3083 H 519.21 -4.79061 3.27488 0
M  V30 3084 H 519.489 -3.64906 6.05785 0
M  V30 3085 H 520.481 -4.8868 5.2125 0
M  V30 3086 H 518.647 -5.66726 7.06352 0
M  V30 3087 H 518.598 -1.71169 5.60966 0
M  V30 3088 H 519.28 -0.419134 -0.644739 0
M  V30 3089 H 519.317 -3.87332 -1.06098 0
M  V30 3090 H 519.418 -2.26417 -1.82483 0
M  V30 3091 P 520.517 -7.20834 5.23717 0
M  V30 3092 O 520.737 -8.66104 5.38572 0
M  V30 3093 O 521.307 -6.33544 6.1349 0
M  V30 3094 O 520.767 -6.7751 3.72168 0
M  V30 3095 C 519.827 -7.20825 2.7076 0
M  V30 3096 C 520.557 -7.45864 1.40599 0
M  V30 3097 O 520.767 -6.17651 0.734225 0
M  V30 3098 C 521.957 -8.05808 1.51899 0
M  V30 3099 O 522.347 -8.74358 0.335205 0
M  V30 3100 C 522.837 -6.83093 1.70294 0
M  V30 3101 C 522.127 -5.79992 0.836974 0
M  V30 3102 N 522.177 -4.41864 1.38293 0
M  V30 3103 H 519.338 -8.13644 3.0377 0
M  V30 3104 H 519.068 -6.42788 2.55485 0
M  V30 3105 H 519.935 -8.12039 0.792769 0
M  V30 3106 P 523.897 -8.91 -3.22661e-12 0
M  V30 3107 O 524.117 -10.1726 -0.733694 0
M  V30 3108 O 524.687 -8.73148 1.23936 0
M  V30 3109 O 524.147 -7.66872 -0.971405 0
M  V30 3110 C 523.207 -7.42309 -2.04641 0
M  V30 3111 C 523.937 -6.86059 -3.24661 0
M  V30 3112 O 524.147 -5.42847 -3.03646 0
M  V30 3113 C 525.337 -7.41196 -3.50753 0
M  V30 3114 O 525.727 -7.27073 -4.86816 0
M  V30 3115 C 526.217 -6.5273 -2.63741 0
M  V30 3116 C 525.507 -5.1842 -2.73198 0
M  V30 3117 N 525.557 -4.38762 -1.4784 0
M  V30 3118 C 525.477 -4.81605 -0.168631 0
M  V30 3119 N 525.557 -3.85454 0.713363 0
M  V30 3120 C 525.697 -2.6994 -0.0566958 0
M  V30 3121 C 525.827 -1.34815 0.338502 0
M  V30 3122 O 525.847 -0.869548 1.47125 0
M  V30 3123 N 525.947 -0.496304 -0.77465 0
M  V30 3124 C 525.947 -0.908403 -2.09122 0
M  V30 3125 N 526.077 0.0517805 -3.00955 0
M  V30 3126 N 525.817 -2.17875 -2.46519 0
M  V30 3127 C 525.697 -3.01988 -1.4033 0
M  V30 3128 H 522.718 -8.36803 -2.32493 0
M  V30 3129 H 522.448 -6.70197 -1.71129 0
M  V30 3130 H 523.315 -7.03551 -4.13168 0
M  V30 3131 H 525.97 -4.59498 -3.54415 0
M  V30 3132 H 526.249 -6.88898 -1.59848 0
M  V30 3133 H 527.241 -6.46749 -3.03687 0
M  V30 3134 H 525.407 -8.46908 -3.20714 0
M  V30 3135 H 525.358 -5.86405 0.105564 0
M  V30 3136 H 526.04 0.483664 -0.597855 0
M  V30 3137 H 526.077 -0.187865 -4.0116 0
M  V30 3138 H 526.178 1.03585 -2.71726 0
M  V30 3139 P 527.277 -7.20834 -5.23717 0
M  V30 3140 O 527.497 -7.79853 -6.57286 0
M  V30 3141 O 528.067 -7.79239 -4.12957 0
M  V30 3142 O 527.527 -5.63315 -5.29344 0
M  V30 3143 C 526.587 -4.80255 -6.01876 0
M  V30 3144 C 527.317 -3.64202 -6.65911 0
M  V30 3145 O 527.527 -2.60694 -5.64732 0
M  V30 3146 C 528.717 -3.93473 -7.1943 0
M  V30 3147 O 529.107 -3.02071 -8.21205 0
M  V30 3148 C 529.597 -3.73047 -5.97036 0
M  V30 3149 C 528.887 -2.58828 -5.25741 0
M  V30 3150 N 528.937 -2.68068 -3.77503 0
M  V30 3151 H 526.098 -5.40332 -6.79951 0
M  V30 3152 H 525.828 -4.41613 -5.32378 0
M  V30 3153 H 526.695 -3.26331 -7.47797 0
M  V30 3154 P 530.657 -2.75334 -8.47391 0
M  V30 3155 O 530.877 -2.44571 -9.90142 0
M  V30 3156 O 531.447 -3.87688 -7.92115 0
M  V30 3157 O 530.907 -1.4459 -7.59357 0
M  V30 3158 C 529.967 -0.347608 -7.69215 0
M  V30 3159 C 530.697 0.96767 -7.52806 0
M  V30 3160 O 530.907 1.21036 -6.1011 0
M  V30 3161 C 532.097 1.04544 -8.13308 0
M  V30 3162 O 532.487 2.38311 -8.41922 0
M  V30 3163 C 532.977 0.491279 -7.02284 0
M  V30 3164 C 532.267 0.996264 -5.77469 0
M  V30 3165 N 532.317 0.0501916 -4.62973 0
M  V30 3166 H 529.478 -0.374722 -8.67691 0
M  V30 3167 H 529.208 -0.443485 -6.90277 0
M  V30 3168 H 530.075 1.75537 -7.96793 0
M  V30 3169 P 534.037 2.75334 -8.47391 0
M  V30 3170 O 534.257 3.84166 -9.4489 0
M  V30 3171 O 534.827 1.51964 -8.6881 0
M  V30 3172 O 534.287 3.29363 -6.99321 0
M  V30 3173 C 533.347 4.23956 -6.42656 0
M  V30 3174 C 534.077 5.20775 -5.52155 0
M  V30 3175 O 534.287 4.56534 -4.22446 0
M  V30 3176 C 535.477 5.62629 -5.96531 0
M  V30 3177 O 535.867 6.87667 -5.41053 0
M  V30 3178 C 536.357 4.52537 -5.39283 0
M  V30 3179 C 535.647 4.20027 -4.08623 0
M  V30 3180 N 535.697 2.7613 -3.71522 0
M  V30 3181 C 535.847 2.45612 -2.37989 0
M  V30 3182 O 535.937 3.30919 -1.51621 0
M  V30 3183 N 535.887 1.10684 -2.08435 0
M  V30 3184 C 535.797 0.0690084 -2.9792 0
M  V30 3185 O 535.847 -1.10553 -2.59426 0
M  V30 3186 C 535.647 0.481522 -4.35345 0
M  V30 3187 C 535.537 -0.618778 -5.36443 0
M  V30 3188 C 535.597 1.78906 -4.67968 0
M  V30 3189 H 532.857 4.797 -7.24003 0
M  V30 3190 H 532.588 3.69802 -5.84429 0
M  V30 3191 H 533.455 6.10356 -5.41441 0
M  V30 3192 H 536.11 4.78651 -3.27911 0
M  V30 3193 H 536.389 3.64957 -6.05871 0
M  V30 3194 H 537.381 4.8868 -5.2125 0
M  V30 3195 H 535.547 5.66726 -7.06352 0
M  V30 3196 H 535.476 2.07737 -5.72367 0
M  V30 3197 H 536.506 -0.754375 -5.86871 0
M  V30 3198 H 534.769 -0.359721 -6.10641 0
M  V30 3199 H 535.257 -1.55533 -4.8581 0
M  V30 3200 H 535.993 0.862651 -1.12037 0
M  V30 3201 P 537.417 7.20834 -5.23717 0
M  V30 3202 O 537.637 8.66104 -5.38572 0
M  V30 3203 O 538.207 6.33544 -6.1349 0
M  V30 3204 O 537.667 6.7751 -3.72168 0
M  V30 3205 C 536.727 7.20825 -2.7076 0
M  V30 3206 C 537.457 7.45864 -1.40599 0
M  V30 3207 O 537.667 6.17651 -0.734225 0
M  V30 3208 C 538.857 8.05808 -1.51899 0
M  V30 3209 O 539.247 8.74358 -0.335205 0
M  V30 3210 C 539.737 6.83093 -1.70294 0
M  V30 3211 C 539.027 5.79992 -0.836974 0
M  V30 3212 N 539.077 4.41864 -1.38293 0
M  V30 3213 H 536.238 8.13644 -3.0377 0
M  V30 3214 H 535.968 6.42788 -2.55485 0
M  V30 3215 H 536.835 8.12039 -0.792769 0
M  V30 3216 P 540.797 8.91 3.38379e-12 0
M  V30 3217 O 541.017 10.1726 0.733694 0
M  V30 3218 O 541.587 8.73148 -1.23936 0
M  V30 3219 O 541.047 7.66872 0.971405 0
M  V30 3220 C 540.107 7.42309 2.04641 0
M  V30 3221 C 540.837 6.86059 3.24661 0
M  V30 3222 O 541.047 5.42847 3.03646 0
M  V30 3223 C 542.237 7.41196 3.50753 0
M  V30 3224 O 542.627 7.27073 4.86816 0
M  V30 3225 C 543.117 6.5273 2.63741 0
M  V30 3226 C 542.407 5.1842 2.73198 0
M  V30 3227 N 542.457 4.38762 1.4784 0
M  V30 3228 H 539.618 8.36803 2.32493 0
M  V30 3229 H 539.348 6.70197 1.71129 0
M  V30 3230 H 540.215 7.03551 4.13168 0
M  V30 3231 P 544.177 7.20834 5.23717 0
M  V30 3232 O 544.397 7.79853 6.57286 0
M  V30 3233 O 544.967 7.79239 4.12957 0
M  V30 3234 O 544.427 5.63315 5.29344 0
M  V30 3235 C 543.487 4.80255 6.01876 0
M  V30 3236 C 544.217 3.64202 6.65911 0
M  V30 3237 O 544.427 2.60694 5.64732 0
M  V30 3238 C 545.617 3.93473 7.1943 0
M  V30 3239 O 546.007 3.02071 8.21205 0
M  V30 3240 C 546.497 3.73047 5.97036 0
M  V30 3241 C 545.787 2.58828 5.25741 0
M  V30 3242 N 545.837 2.68068 3.77503 0
M  V30 3243 H 542.998 5.40332 6.79951 0
M  V30 3244 H 542.728 4.41613 5.32378 0
M  V30 3245 H 543.595 3.26331 7.47797 0
M  V30 3246 P 547.557 2.75334 8.47391 0
M  V30 3247 O 547.777 2.44619 9.90336 0
M  V30 3248 O 548.347 3.87776 7.92294 0
M  V30 3249 O 547.807 1.4459 7.59357 0
M  V30 3250 C 546.867 0.347653 7.69315 0
M  V30 3251 C 547.597 -0.96767 7.52806 0
M  V30 3252 O 547.807 -1.21055 6.10208 0
M  V30 3253 C 548.997 -1.04557 8.13408 0
M  V30 3254 O 549.387 -2.38311 8.41922 0
M  V30 3255 C 549.877 -0.491279 7.02284 0
M  V30 3256 C 549.167 -0.996264 5.77469 0
M  V30 3257 N 549.217 -0.0501916 4.62973 0
M  V30 3258 H 546.379 0.374765 8.67791 0
M  V30 3259 H 546.107 0.443613 6.90476 0
M  V30 3260 H 546.975 -1.75559 7.96891 0
M  V30 3261 H 549.63 -1.94563 5.46818 0
M  V30 3262 H 549.91 0.608651 7.04676 0
M  V30 3263 H 550.901 -0.889796 7.09039 0
M  V30 3264 H 549.067 -0.433128 9.04664 0
M  V30 3265 P 550.937 -2.75334 8.47391 0
M  V30 3266 O 551.157 -3.84128 9.44797 0
M  V30 3267 O 551.727 -1.51947 8.68712 0
M  V30 3268 O 551.187 -3.29363 6.99321 0
M  V30 3269 C 550.247 -4.24011 6.4274 0
M  V30 3270 C 550.977 -5.20775 5.52155 0
M  V30 3271 O 551.187 -4.56534 4.22446 0
M  V30 3272 C 552.377 -5.62629 5.96531 0
M  V30 3273 O 552.767 -6.87667 5.41053 0
M  V30 3274 C 553.257 -4.52537 5.39283 0
M  V30 3275 C 552.547 -4.20027 4.08623 0
M  V30 3276 N 552.597 -2.76189 3.71603 0
M  V30 3277 H 549.758 -4.797 7.24003 0
M  V30 3278 H 549.488 -3.69856 5.84513 0
M  V30 3279 H 550.355 -6.10356 5.41441 0
M  V30 3280 P 554.317 -7.20834 5.23717 0
M  V30 3281 O 554.537 -8.66104 5.38572 0
M  V30 3282 O 555.107 -6.33544 6.1349 0
M  V30 3283 O 554.567 -6.7751 3.72168 0
M  V30 3284 C 553.627 -7.20825 2.7076 0
M  V30 3285 C 554.357 -7.45864 1.40599 0
M  V30 3286 O 554.567 -6.17651 0.734225 0
M  V30 3287 C 555.757 -8.05808 1.51899 0
M  V30 3288 O 556.147 -8.74358 0.335205 0
M  V30 3289 C 556.637 -6.83093 1.70294 0
M  V30 3290 C 555.927 -5.79992 0.836974 0
M  V30 3291 N 555.977 -4.41864 1.38293 0
M  V30 3292 H 553.138 -8.13644 3.0377 0
M  V30 3293 H 552.868 -6.42788 2.55485 0
M  V30 3294 H 553.735 -8.12039 0.792769 0
M  V30 3295 P 557.697 -8.91 -3.54097e-12 0
M  V30 3296 O 557.917 -10.1726 -0.733694 0
M  V30 3297 O 558.487 -8.73148 1.23936 0
M  V30 3298 O 557.947 -7.66872 -0.971405 0
M  V30 3299 C 557.007 -7.42309 -2.04641 0
M  V30 3300 C 557.737 -6.86059 -3.24661 0
M  V30 3301 O 557.947 -5.42847 -3.03646 0
M  V30 3302 C 559.137 -7.41196 -3.50753 0
M  V30 3303 O 559.527 -7.27073 -4.86816 0
M  V30 3304 C 560.017 -6.5273 -2.63741 0
M  V30 3305 C 559.307 -5.1842 -2.73198 0
M  V30 3306 N 559.357 -4.38762 -1.4784 0
M  V30 3307 H 556.518 -8.36803 -2.32493 0
M  V30 3308 H 556.248 -6.70197 -1.71129 0
M  V30 3309 H 557.115 -7.03551 -4.13168 0
M  V30 3310 P 561.077 -7.20834 -5.23717 0
M  V30 3311 O 561.297 -7.79853 -6.57286 0
M  V30 3312 O 561.867 -7.79239 -4.12957 0
M  V30 3313 O 561.327 -5.63315 -5.29344 0
M  V30 3314 C 560.387 -4.80255 -6.01876 0
M  V30 3315 C 561.117 -3.64202 -6.65911 0
M  V30 3316 O 561.327 -2.60694 -5.64732 0
M  V30 3317 C 562.517 -3.93473 -7.1943 0
M  V30 3318 O 562.907 -3.02071 -8.21205 0
M  V30 3319 C 563.397 -3.73047 -5.97036 0
M  V30 3320 C 562.687 -2.58828 -5.25741 0
M  V30 3321 N 562.737 -2.68068 -3.77503 0
M  V30 3322 H 559.898 -5.40332 -6.79951 0
M  V30 3323 H 559.628 -4.41613 -5.32378 0
M  V30 3324 H 560.495 -3.26331 -7.47797 0
M  V30 3325 P 564.457 -2.75334 -8.47391 0
M  V30 3326 O 564.677 -2.44571 -9.90142 0
M  V30 3327 O 565.247 -3.87688 -7.92115 0
M  V30 3328 O 564.707 -1.4459 -7.59357 0
M  V30 3329 C 563.767 -0.347608 -7.69215 0
M  V30 3330 C 564.497 0.96767 -7.52806 0
M  V30 3331 O 564.707 1.21036 -6.1011 0
M  V30 3332 C 565.897 1.04544 -8.13308 0
M  V30 3333 O 566.287 2.38311 -8.41922 0
M  V30 3334 C 566.777 0.491279 -7.02284 0
M  V30 3335 C 566.067 0.996264 -5.77469 0
M  V30 3336 N 566.117 0.0501916 -4.62973 0
M  V30 3337 H 563.278 -0.374722 -8.67691 0
M  V30 3338 H 563.008 -0.443485 -6.90277 0
M  V30 3339 H 563.875 1.75537 -7.96793 0
M  V30 3340 P 567.837 2.75334 -8.47391 0
M  V30 3341 O 568.057 3.84128 -9.44797 0
M  V30 3342 O 568.627 1.51947 -8.68712 0
M  V30 3343 O 568.087 3.29363 -6.99321 0
M  V30 3344 C 567.147 4.24011 -6.4274 0
M  V30 3345 C 567.877 5.20775 -5.52155 0
M  V30 3346 O 568.087 4.56534 -4.22446 0
M  V30 3347 C 569.277 5.62629 -5.96531 0
M  V30 3348 O 569.667 6.87667 -5.41053 0
M  V30 3349 C 570.157 4.52537 -5.39283 0
M  V30 3350 C 569.447 4.20027 -4.08623 0
M  V30 3351 N 569.497 2.76189 -3.71603 0
M  V30 3352 H 566.658 4.797 -7.24003 0
M  V30 3353 H 566.388 3.69856 -5.84513 0
M  V30 3354 H 567.255 6.10356 -5.41441 0
M  V30 3355 P 571.217 7.20834 -5.23717 0
M  V30 3356 O 571.437 8.66104 -5.38572 0
M  V30 3357 O 572.007 6.33544 -6.1349 0
M  V30 3358 O 571.467 6.7751 -3.72168 0
M  V30 3359 C 570.527 7.20825 -2.7076 0
M  V30 3360 C 571.257 7.45864 -1.40599 0
M  V30 3361 O 571.467 6.17651 -0.734225 0
M  V30 3362 C 572.657 8.05808 -1.51899 0
M  V30 3363 O 573.047 8.74358 -0.335205 0
M  V30 3364 C 573.537 6.83093 -1.70294 0
M  V30 3365 C 572.827 5.79992 -0.836974 0
M  V30 3366 N 572.877 4.41864 -1.38293 0
M  V30 3367 H 570.038 8.13644 -3.0377 0
M  V30 3368 H 569.768 6.42788 -2.55485 0
M  V30 3369 H 570.635 8.12039 -0.792769 0
M  V30 3370 P 574.597 8.91 3.69815e-12 0
M  V30 3371 O 574.817 10.1726 0.733694 0
M  V30 3372 O 575.387 8.73148 -1.23936 0
M  V30 3373 O 574.847 7.66872 0.971405 0
M  V30 3374 C 573.907 7.42309 2.04641 0
M  V30 3375 C 574.637 6.86059 3.24661 0
M  V30 3376 O 574.847 5.42847 3.03646 0
M  V30 3377 C 576.037 7.41196 3.50753 0
M  V30 3378 O 576.427 7.27073 4.86816 0
M  V30 3379 C 576.917 6.5273 2.63741 0
M  V30 3380 C 576.207 5.1842 2.73198 0
M  V30 3381 N 576.257 4.38762 1.4784 0
M  V30 3382 H 573.418 8.36803 2.32493 0
M  V30 3383 H 573.148 6.70197 1.71129 0
M  V30 3384 H 574.015 7.03551 4.13168 0
M  V30 3385 P 577.977 7.20834 5.23717 0
M  V30 3386 O 578.197 7.79853 6.57286 0
M  V30 3387 O 578.767 7.79239 4.12957 0
M  V30 3388 O 578.227 5.63315 5.29344 0
M  V30 3389 C 577.287 4.80255 6.01876 0
M  V30 3390 C 578.017 3.64202 6.65911 0
M  V30 3391 O 578.227 2.60694 5.64732 0
M  V30 3392 C 579.417 3.93473 7.1943 0
M  V30 3393 O 579.807 3.02071 8.21205 0
M  V30 3394 C 580.297 3.73047 5.97036 0
M  V30 3395 C 579.587 2.58828 5.25741 0
M  V30 3396 N 579.637 2.68068 3.77503 0
M  V30 3397 H 576.798 5.40332 6.79951 0
M  V30 3398 H 576.528 4.41613 5.32378 0
M  V30 3399 H 577.395 3.26331 7.47797 0
M  V30 3400 P 581.357 2.75334 8.47391 0
M  V30 3401 O 581.577 2.44571 9.90142 0
M  V30 3402 O 582.147 3.87688 7.92115 0
M  V30 3403 O 581.607 1.4459 7.59357 0
M  V30 3404 C 580.667 0.347608 7.69215 0
M  V30 3405 C 581.397 -0.96767 7.52806 0
M  V30 3406 O 581.607 -1.21036 6.1011 0
M  V30 3407 C 582.797 -1.04544 8.13308 0
M  V30 3408 O 583.187 -2.38311 8.41922 0
M  V30 3409 C 583.677 -0.491279 7.02284 0
M  V30 3410 C 582.967 -0.996264 5.77469 0
M  V30 3411 N 583.017 -0.0501916 4.62973 0
M  V30 3412 H 580.178 0.374722 8.67691 0
M  V30 3413 H 579.908 0.443485 6.90277 0
M  V30 3414 H 580.775 -1.75537 7.96793 0
M  V30 3415 P 584.737 -2.75334 8.47391 0
M  V30 3416 O 584.957 -3.84166 9.4489 0
M  V30 3417 O 585.527 -1.51964 8.6881 0
M  V30 3418 O 584.987 -3.29363 6.99321 0
M  V30 3419 C 584.047 -4.23956 6.42656 0
M  V30 3420 C 584.777 -5.20775 5.52155 0
M  V30 3421 O 584.987 -4.56534 4.22446 0
M  V30 3422 C 586.177 -5.62629 5.96531 0
M  V30 3423 O 586.567 -6.87667 5.41053 0
M  V30 3424 C 587.057 -4.52537 5.39283 0
M  V30 3425 C 586.347 -4.20027 4.08623 0
M  V30 3426 N 586.397 -2.7613 3.71522 0
M  V30 3427 C 586.547 -2.45612 2.37989 0
M  V30 3428 O 586.637 -3.30919 1.51621 0
M  V30 3429 N 586.587 -1.10684 2.08435 0
M  V30 3430 C 586.497 -0.0690084 2.9792 0
M  V30 3431 C 586.347 -0.481522 4.35345 0
M  V30 3432 C 586.297 -1.78906 4.67968 0
M  V30 3433 H 583.557 -4.797 7.24003 0
M  V30 3434 H 583.288 -3.69802 5.84429 0
M  V30 3435 H 584.155 -6.10356 5.41441 0
M  V30 3436 H 586.81 -4.78651 3.27911 0
M  V30 3437 H 587.089 -3.64957 6.05871 0
M  V30 3438 H 588.081 -4.8868 5.2125 0
M  V30 3439 H 586.247 -5.66726 7.06352 0
M  V30 3440 H 586.176 -2.07737 5.72367 0
M  V30 3441 P 588.117 -7.20834 5.23717 0
M  V30 3442 O 588.337 -8.66274 5.38678 0
M  V30 3443 O 588.907 -6.33687 6.13629 0
M  V30 3444 O 588.367 -6.7751 3.72168 0
M  V30 3445 C 587.427 -7.20919 2.70795 0
M  V30 3446 C 588.157 -7.45864 1.40599 0
M  V30 3447 O 588.367 -6.17751 0.734343 0
M  V30 3448 C 589.557 -8.05906 1.51917 0
M  V30 3449 O 589.947 -8.74358 0.335205 0
M  V30 3450 C 590.437 -6.83093 1.70294 0
M  V30 3451 C 589.727 -5.79992 0.836974 0
M  V30 3452 N 589.777 -4.41864 1.38293 0
M  V30 3453 H 586.939 -8.13738 3.03804 0
M  V30 3454 H 586.667 -6.42974 2.55559 0
M  V30 3455 H 587.535 -8.12139 0.792866 0
M  V30 3456 H 590.19 -5.80178 -0.160643 0
M  V30 3457 H 590.47 -6.51379 2.75643 0
M  V30 3458 H 591.461 -7.01832 1.3448 0
M  V30 3459 H 589.627 -8.73771 2.38364 0
M  V30 3460 P 591.496 -8.91 -3.85533e-12 0
M  V30 3461 O 591.716 -10.1736 -0.733766 0
M  V30 3462 O 592.286 -8.73247 1.2395 0
M  V30 3463 O 591.746 -7.66872 -0.971405 0
M  V30 3464 C 590.806 -7.42212 -2.04614 0
M  V30 3465 C 591.536 -6.86059 -3.24661 0
M  V30 3466 O 591.746 -5.42847 -3.03646 0
M  V30 3467 C 592.937 -7.41196 -3.50753 0
M  V30 3468 O 593.327 -7.27073 -4.86816 0
M  V30 3469 C 593.817 -6.5273 -2.63741 0
M  V30 3470 C 593.106 -5.1842 -2.73198 0
M  V30 3471 N 593.156 -4.38668 -1.47808 0
M  V30 3472 C 593.306 -3.02239 -1.60048 0
M  V30 3473 O 593.396 -2.46459 -2.67869 0
M  V30 3474 N 593.346 -2.32436 -0.408571 0
M  V30 3475 C 593.256 -2.85471 0.854993 0
M  V30 3476 O 593.306 -2.12566 1.8531 0
M  V30 3477 C 593.106 -4.28918 0.887335 0
M  V30 3478 C 592.996 -4.91066 2.24619 0
M  V30 3479 C 593.056 -5.00349 -0.255399 0
M  V30 3480 H 590.317 -8.36803 -2.32493 0
M  V30 3481 H 590.048 -6.701 -1.71105 0
M  V30 3482 H 590.914 -7.03551 -4.13168 0
M  V30 3483 H 593.569 -4.59773 -3.53894 0
M  V30 3484 H 593.848 -6.88995 -1.59871 0
M  V30 3485 H 594.841 -6.46749 -3.03687 0
M  V30 3486 H 593.006 -8.46908 -3.20714 0
M  V30 3487 H 592.935 -6.08548 -0.206986 0
M  V30 3488 H 593.966 -5.34836 2.53099 0
M  V30 3489 H 592.228 -5.69638 2.2291 0
M  V30 3490 H 592.716 -4.13971 2.98044 0
M  V30 3491 H 593.452 -1.33211 -0.474216 0
M  V30 3492 P 594.876 -7.20834 -5.23717 0
M  V30 3493 O 595.096 -7.79853 -6.57286 0
M  V30 3494 O 595.666 -7.79239 -4.12957 0
M  V30 3495 O 595.126 -5.63315 -5.29344 0
M  V30 3496 C 594.186 -4.80255 -6.01876 0
M  V30 3497 C 594.916 -3.64202 -6.65911 0
M  V30 3498 O 595.126 -2.60694 -5.64732 0
M  V30 3499 C 596.316 -3.93473 -7.1943 0
M  V30 3500 O 596.706 -3.02071 -8.21205 0
M  V30 3501 C 597.196 -3.73047 -5.97036 0
M  V30 3502 C 596.486 -2.58828 -5.25741 0
M  V30 3503 N 596.536 -2.68068 -3.77503 0
M  V30 3504 H 593.697 -5.40332 -6.79951 0
M  V30 3505 H 593.427 -4.41613 -5.32378 0
M  V30 3506 H 594.294 -3.26331 -7.47797 0
M  V30 3507 P 598.256 -2.75334 -8.47391 0
M  V30 3508 O 598.476 -2.44571 -9.90142 0
M  V30 3509 O 599.046 -3.87688 -7.92115 0
M  V30 3510 O 598.506 -1.4459 -7.59357 0
M  V30 3511 C 597.566 -0.347608 -7.69215 0
M  V30 3512 C 598.296 0.96767 -7.52806 0
M  V30 3513 O 598.506 1.21036 -6.1011 0
M  V30 3514 C 599.696 1.04544 -8.13308 0
M  V30 3515 O 600.086 2.38311 -8.41922 0
M  V30 3516 C 600.576 0.491279 -7.02284 0
M  V30 3517 C 599.866 0.996264 -5.77469 0
M  V30 3518 N 599.916 0.0501916 -4.62973 0
M  V30 3519 H 597.077 -0.374722 -8.67691 0
M  V30 3520 H 596.807 -0.443485 -6.90277 0
M  V30 3521 H 597.674 1.75537 -7.96793 0
M  V30 3522 P 601.636 2.75334 -8.47391 0
M  V30 3523 O 601.856 3.84128 -9.44797 0
M  V30 3524 O 602.426 1.51947 -8.68712 0
M  V30 3525 O 601.886 3.29363 -6.99321 0
M  V30 3526 C 600.946 4.24011 -6.4274 0
M  V30 3527 C 601.676 5.20775 -5.52155 0
M  V30 3528 O 601.886 4.56534 -4.22446 0
M  V30 3529 C 603.076 5.62629 -5.96531 0
M  V30 3530 O 603.466 6.87667 -5.41053 0
M  V30 3531 C 603.956 4.52537 -5.39283 0
M  V30 3532 C 603.246 4.20027 -4.08623 0
M  V30 3533 N 603.296 2.76189 -3.71603 0
M  V30 3534 C 603.216 1.64862 -4.52822 0
M  V30 3535 N 603.296 0.512671 -3.88633 0
M  V30 3536 C 603.436 0.888083 -2.54977 0
M  V30 3537 C 603.566 0.094668 -1.38677 0
M  V30 3538 O 603.586 -1.13053 -1.28163 0
M  V30 3539 N 603.686 0.890102 -0.232633 0
M  V30 3540 C 603.686 2.26958 -0.21772 0
M  V30 3541 N 603.816 2.84626 0.97925 0
M  V30 3542 N 603.556 3.0178 -1.31033 0
M  V30 3543 C 603.436 2.26781 -2.43843 0
M  V30 3544 H 600.457 4.797 -7.24003 0
M  V30 3545 H 600.187 3.69856 -5.84513 0
M  V30 3546 H 601.054 6.10356 -5.41441 0
M  V30 3547 H 603.709 4.79061 -3.27488 0
M  V30 3548 H 603.988 3.64906 -6.05785 0
M  V30 3549 H 604.98 4.8868 -5.2125 0
M  V30 3550 H 603.146 5.66726 -7.06352 0
M  V30 3551 H 603.097 1.71169 -5.60966 0
M  V30 3552 H 603.779 0.419134 0.644739 0
M  V30 3553 H 603.816 3.87332 1.06098 0
M  V30 3554 H 603.917 2.26417 1.82483 0
M  V30 3555 P 605.016 7.20834 -5.23717 0
M  V30 3556 O 605.236 8.66274 -5.38678 0
M  V30 3557 O 605.806 6.33687 -6.13629 0
M  V30 3558 O 605.266 6.7751 -3.72168 0
M  V30 3559 C 604.326 7.20919 -2.70795 0
M  V30 3560 C 605.056 7.45864 -1.40599 0
M  V30 3561 O 605.266 6.17751 -0.734343 0
M  V30 3562 C 606.456 8.05906 -1.51917 0
M  V30 3563 O 606.846 8.74358 -0.335205 0
M  V30 3564 C 607.336 6.83093 -1.70294 0
M  V30 3565 C 606.626 5.79992 -0.836974 0
M  V30 3566 N 606.676 4.41864 -1.38293 0
M  V30 3567 H 603.838 8.13738 -3.03804 0
M  V30 3568 H 603.566 6.42974 -2.55559 0
M  V30 3569 H 604.434 8.12139 -0.792866 0
M  V30 3570 H 607.089 5.80178 0.160643 0
M  V30 3571 H 607.369 6.51379 -2.75643 0
M  V30 3572 H 608.36 7.01832 -1.3448 0
M  V30 3573 H 606.526 8.73771 -2.38364 0
M  V30 3574 P 608.396 8.91 4.01252e-12 0
M  V30 3575 O 608.616 10.1726 0.733694 0
M  V30 3576 O 609.186 8.73148 -1.23936 0
M  V30 3577 O 608.646 7.66872 0.971405 0
M  V30 3578 C 607.706 7.42309 2.04641 0
M  V30 3579 C 608.436 6.86059 3.24661 0
M  V30 3580 O 608.646 5.42847 3.03646 0
M  V30 3581 C 609.836 7.41196 3.50753 0
M  V30 3582 O 610.226 7.27073 4.86816 0
M  V30 3583 C 610.716 6.5273 2.63741 0
M  V30 3584 C 610.006 5.1842 2.73198 0
M  V30 3585 N 610.056 4.38762 1.4784 0
M  V30 3586 H 607.217 8.36803 2.32493 0
M  V30 3587 H 606.947 6.70197 1.71129 0
M  V30 3588 H 607.814 7.03551 4.13168 0
M  V30 3589 P 611.776 7.20834 5.23717 0
M  V30 3590 O 611.996 7.80006 6.57415 0
M  V30 3591 O 612.566 7.79416 4.13051 0
M  V30 3592 O 612.026 5.63315 5.29344 0
M  V30 3593 C 611.086 4.80318 6.01954 0
M  V30 3594 C 611.816 3.64202 6.65911 0
M  V30 3595 O 612.026 2.60736 5.64823 0
M  V30 3596 C 613.216 3.93521 7.19518 0
M  V30 3597 O 613.606 3.02071 8.21205 0
M  V30 3598 C 614.096 3.73047 5.97036 0
M  V30 3599 C 613.386 2.58828 5.25741 0
M  V30 3600 N 613.436 2.68068 3.77503 0
M  V30 3601 C 613.356 3.80474 2.99159 0
M  V30 3602 N 613.426 3.55622 1.71925 0
M  V30 3603 C 613.576 2.1832 1.65733 0
M  V30 3604 C 613.706 1.28842 0.572777 0
M  V30 3605 N 613.716 1.66875 -0.70098 0
M  V30 3606 N 613.826 -0.016788 0.859836 0
M  V30 3607 C 613.816 -0.398145 2.13316 0
M  V30 3608 N 613.696 0.328224 3.22333 0
M  V30 3609 C 613.576 1.62992 2.90383 0
M  V30 3610 H 610.598 5.40394 6.8003 0
M  V30 3611 H 610.326 4.41741 5.32532 0
M  V30 3612 H 611.194 3.26371 7.47889 0
M  V30 3613 H 613.849 1.64007 5.56746 0
M  V30 3614 H 614.129 4.63439 5.3432 0
M  V30 3615 H 615.12 3.44776 6.25925 0
M  V30 3616 H 613.286 4.96707 7.57347 0
M  V30 3617 H 613.245 4.8089 3.39924 0
M  V30 3618 H 613.626 2.66547 -0.941919 0
M  V30 3619 H 613.815 0.965341 -1.44766 0
M  V30 3620 H 613.923 -1.46427 2.29697 0
M  V30 3621 P 615.156 2.75334 8.47391 0
M  V30 3622 O 615.376 2.44571 9.90142 0
M  V30 3623 O 615.946 3.87688 7.92115 0
M  V30 3624 O 615.406 1.4459 7.59357 0
M  V30 3625 C 614.466 0.347608 7.69215 0
M  V30 3626 C 615.196 -0.96767 7.52806 0
M  V30 3627 O 615.406 -1.21036 6.1011 0
M  V30 3628 C 616.596 -1.04544 8.13308 0
M  V30 3629 O 616.986 -2.38311 8.41922 0
M  V30 3630 C 617.476 -0.491279 7.02284 0
M  V30 3631 C 616.766 -0.996264 5.77469 0
M  V30 3632 N 616.816 -0.0501916 4.62973 0
M  V30 3633 H 613.977 0.374722 8.67691 0
M  V30 3634 H 613.707 0.443485 6.90277 0
M  V30 3635 H 614.574 -1.75537 7.96793 0
M  V30 3636 P 618.536 -2.75334 8.47391 0
M  V30 3637 O 618.756 -3.84128 9.44797 0
M  V30 3638 O 619.326 -1.51947 8.68712 0
M  V30 3639 O 618.786 -3.29363 6.99321 0
M  V30 3640 C 617.846 -4.24011 6.4274 0
M  V30 3641 C 618.576 -5.20775 5.52155 0
M  V30 3642 O 618.786 -4.56534 4.22446 0
M  V30 3643 C 619.976 -5.62629 5.96531 0
M  V30 3644 O 620.366 -6.87667 5.41053 0
M  V30 3645 C 620.856 -4.52537 5.39283 0
M  V30 3646 C 620.146 -4.20027 4.08623 0
M  V30 3647 N 620.196 -2.76189 3.71603 0
M  V30 3648 H 617.357 -4.797 7.24003 0
M  V30 3649 H 617.087 -3.69856 5.84513 0
M  V30 3650 H 617.954 -6.10356 5.41441 0
M  V30 3651 P 621.916 -7.20834 5.23717 0
M  V30 3652 O 622.136 -8.66104 5.38572 0
M  V30 3653 O 622.706 -6.33544 6.1349 0
M  V30 3654 O 622.166 -6.7751 3.72168 0
M  V30 3655 C 621.226 -7.20825 2.7076 0
M  V30 3656 C 621.956 -7.45864 1.40599 0
M  V30 3657 O 622.166 -6.17651 0.734225 0
M  V30 3658 C 623.356 -8.05808 1.51899 0
M  V30 3659 O 623.746 -8.74358 0.335205 0
M  V30 3660 C 624.236 -6.83093 1.70294 0
M  V30 3661 C 623.526 -5.79992 0.836974 0
M  V30 3662 N 623.576 -4.41864 1.38293 0
M  V30 3663 C 623.496 -3.99538 2.69438 0
M  V30 3664 N 623.576 -2.69909 2.84277 0
M  V30 3665 C 623.716 -2.21719 1.5408 0
M  V30 3666 C 623.846 -0.891712 1.06628 0
M  V30 3667 N 623.966 -0.856846 -0.334985 0
M  V30 3668 C 623.966 -1.9641 -1.15789 0
M  V30 3669 N 624.096 -1.72708 -2.46522 0
M  V30 3670 N 623.836 -3.21165 -0.713741 0
M  V30 3671 C 623.716 -3.26797 0.639748 0
M  V30 3672 H 620.737 -8.13644 3.0377 0
M  V30 3673 H 620.467 -6.42788 2.55485 0
M  V30 3674 H 621.334 -8.12039 0.792769 0
M  V30 3675 P 625.296 -8.91 -4.1697e-12 0
M  V30 3676 O 625.516 -10.1726 -0.733694 0
M  V30 3677 O 626.086 -8.73148 1.23936 0
M  V30 3678 O 625.546 -7.66872 -0.971405 0
M  V30 3679 C 624.606 -7.42309 -2.04641 0
M  V30 3680 C 625.336 -6.86059 -3.24661 0
M  V30 3681 O 625.546 -5.42847 -3.03646 0
M  V30 3682 C 626.736 -7.41196 -3.50753 0
M  V30 3683 O 627.126 -7.27073 -4.86816 0
M  V30 3684 C 627.616 -6.5273 -2.63741 0
M  V30 3685 C 626.906 -5.1842 -2.73198 0
M  V30 3686 N 626.956 -4.38762 -1.4784 0
M  V30 3687 H 624.117 -8.36803 -2.32493 0
M  V30 3688 H 623.847 -6.70197 -1.71129 0
M  V30 3689 H 624.714 -7.03551 -4.13168 0
M  V30 3690 P 628.676 -7.20834 -5.23717 0
M  V30 3691 O 628.896 -7.80006 -6.57415 0
M  V30 3692 O 629.466 -7.79416 -4.13051 0
M  V30 3693 O 628.926 -5.63315 -5.29344 0
M  V30 3694 C 627.986 -4.80318 -6.01954 0
M  V30 3695 C 628.716 -3.64202 -6.65911 0
M  V30 3696 O 628.926 -2.60736 -5.64823 0
M  V30 3697 C 630.116 -3.93521 -7.19518 0
M  V30 3698 O 630.506 -3.02071 -8.21205 0
M  V30 3699 C 630.996 -3.73047 -5.97036 0
M  V30 3700 C 630.286 -2.58828 -5.25741 0
M  V30 3701 N 630.336 -2.68068 -3.77503 0
M  V30 3702 C 630.256 -3.80474 -2.99159 0
M  V30 3703 N 630.326 -3.55622 -1.71925 0
M  V30 3704 C 630.476 -2.1832 -1.65733 0
M  V30 3705 C 630.606 -1.28842 -0.572777 0
M  V30 3706 N 630.616 -1.66875 0.70098 0
M  V30 3707 N 630.726 0.016788 -0.859836 0
M  V30 3708 C 630.716 0.398145 -2.13316 0
M  V30 3709 N 630.596 -0.328224 -3.22333 0
M  V30 3710 C 630.476 -1.62992 -2.90383 0
M  V30 3711 H 627.498 -5.40394 -6.8003 0
M  V30 3712 H 627.226 -4.41741 -5.32532 0
M  V30 3713 H 628.094 -3.26371 -7.47889 0
M  V30 3714 H 630.749 -1.64007 -5.56746 0
M  V30 3715 H 631.029 -4.63439 -5.3432 0
M  V30 3716 H 632.02 -3.44776 -6.25925 0
M  V30 3717 H 630.186 -4.96707 -7.57347 0
M  V30 3718 H 630.145 -4.8089 -3.39924 0
M  V30 3719 H 630.526 -2.66547 0.941919 0
M  V30 3720 H 630.715 -0.965341 1.44766 0
M  V30 3721 H 630.823 1.46427 -2.29697 0
M  V30 3722 P 632.056 -2.75334 -8.47391 0
M  V30 3723 O 632.276 -2.44571 -9.90142 0
M  V30 3724 O 632.846 -3.87688 -7.92115 0
M  V30 3725 O 632.306 -1.4459 -7.59357 0
M  V30 3726 C 631.366 -0.347608 -7.69215 0
M  V30 3727 C 632.096 0.96767 -7.52806 0
M  V30 3728 O 632.306 1.21036 -6.1011 0
M  V30 3729 C 633.496 1.04544 -8.13308 0
M  V30 3730 O 633.886 2.38311 -8.41922 0
M  V30 3731 C 634.376 0.491279 -7.02284 0
M  V30 3732 C 633.666 0.996264 -5.77469 0
M  V30 3733 N 633.716 0.0501916 -4.62973 0
M  V30 3734 H 630.877 -0.374722 -8.67691 0
M  V30 3735 H 630.607 -0.443485 -6.90277 0
M  V30 3736 H 631.474 1.75537 -7.96793 0
M  V30 3737 P 635.436 2.75334 -8.47391 0
M  V30 3738 O 635.656 3.84128 -9.44797 0
M  V30 3739 O 636.226 1.51947 -8.68712 0
M  V30 3740 O 635.686 3.29363 -6.99321 0
M  V30 3741 C 634.746 4.24011 -6.4274 0
M  V30 3742 C 635.476 5.20775 -5.52155 0
M  V30 3743 O 635.686 4.56534 -4.22446 0
M  V30 3744 C 636.876 5.62629 -5.96531 0
M  V30 3745 O 637.266 6.87667 -5.41053 0
M  V30 3746 C 637.756 4.52537 -5.39283 0
M  V30 3747 C 637.046 4.20027 -4.08623 0
M  V30 3748 N 637.096 2.76189 -3.71603 0
M  V30 3749 H 634.257 4.797 -7.24003 0
M  V30 3750 H 633.987 3.69856 -5.84513 0
M  V30 3751 H 634.854 6.10356 -5.41441 0
M  V30 3752 P 638.816 7.20834 -5.23717 0
M  V30 3753 O 639.036 8.66104 -5.38572 0
M  V30 3754 O 639.606 6.33544 -6.1349 0
M  V30 3755 O 639.066 6.7751 -3.72168 0
M  V30 3756 C 638.126 7.20825 -2.7076 0
M  V30 3757 C 638.856 7.45864 -1.40599 0
M  V30 3758 O 639.066 6.17651 -0.734225 0
M  V30 3759 C 640.256 8.05808 -1.51899 0
M  V30 3760 O 640.646 8.74358 -0.335205 0
M  V30 3761 C 641.136 6.83093 -1.70294 0
M  V30 3762 C 640.426 5.79992 -0.836974 0
M  V30 3763 N 640.476 4.41864 -1.38293 0
M  V30 3764 C 640.396 3.99538 -2.69438 0
M  V30 3765 N 640.476 2.69909 -2.84277 0
M  V30 3766 C 640.616 2.21719 -1.5408 0
M  V30 3767 C 640.746 0.891712 -1.06628 0
M  V30 3768 N 640.866 0.856846 0.334985 0
M  V30 3769 C 640.866 1.9641 1.15789 0
M  V30 3770 N 640.996 1.72708 2.46522 0
M  V30 3771 N 640.736 3.21165 0.713741 0
M  V30 3772 C 640.616 3.26797 -0.639748 0
M  V30 3773 H 637.637 8.13644 -3.0377 0
M  V30 3774 H 637.367 6.42788 -2.55485 0
M  V30 3775 H 638.234 8.12039 -0.792769 0
M  V30 3776 P 642.196 8.91 4.32688e-12 0
M  V30 3777 O 642.416 10.1726 0.733694 0
M  V30 3778 O 642.986 8.73148 -1.23936 0
M  V30 3779 O 642.446 7.66872 0.971405 0
M  V30 3780 C 641.506 7.42309 2.04641 0
M  V30 3781 C 642.236 6.86059 3.24661 0
M  V30 3782 O 642.446 5.42847 3.03646 0
M  V30 3783 C 643.636 7.41196 3.50753 0
M  V30 3784 O 644.026 7.27073 4.86816 0
M  V30 3785 C 644.516 6.5273 2.63741 0
M  V30 3786 C 643.806 5.1842 2.73198 0
M  V30 3787 N 643.856 4.38762 1.4784 0
M  V30 3788 H 641.017 8.36803 2.32493 0
M  V30 3789 H 640.747 6.70197 1.71129 0
M  V30 3790 H 641.614 7.03551 4.13168 0
M  V30 3791 P 645.576 7.20834 5.23717 0
M  V30 3792 O 645.796 7.79853 6.57286 0
M  V30 3793 O 646.366 7.79239 4.12957 0
M  V30 3794 O 645.826 5.63315 5.29344 0
M  V30 3795 C 644.886 4.80255 6.01876 0
M  V30 3796 C 645.616 3.64202 6.65911 0
M  V30 3797 O 645.826 2.60694 5.64732 0
M  V30 3798 C 647.016 3.93473 7.1943 0
M  V30 3799 O 647.406 3.02071 8.21205 0
M  V30 3800 C 647.896 3.73047 5.97036 0
M  V30 3801 C 647.186 2.58828 5.25741 0
M  V30 3802 N 647.236 2.68068 3.77503 0
M  V30 3803 H 644.397 5.40332 6.79951 0
M  V30 3804 H 644.127 4.41613 5.32378 0
M  V30 3805 H 644.994 3.26331 7.47797 0
M  V30 3806 P 648.956 2.75334 8.47391 0
M  V30 3807 O 649.176 2.44619 9.90336 0
M  V30 3808 O 649.746 3.87776 7.92294 0
M  V30 3809 O 649.206 1.4459 7.59357 0
M  V30 3810 C 648.266 0.347653 7.69315 0
M  V30 3811 C 648.996 -0.96767 7.52806 0
M  V30 3812 O 649.206 -1.21055 6.10208 0
M  V30 3813 C 650.396 -1.04557 8.13408 0
M  V30 3814 O 650.786 -2.38311 8.41922 0
M  V30 3815 C 651.276 -0.491279 7.02284 0
M  V30 3816 C 650.566 -0.996264 5.77469 0
M  V30 3817 N 650.616 -0.0501916 4.62973 0
M  V30 3818 H 647.778 0.374765 8.67791 0
M  V30 3819 H 647.506 0.443613 6.90476 0
M  V30 3820 H 648.374 -1.75559 7.96891 0
M  V30 3821 H 651.029 -1.94563 5.46818 0
M  V30 3822 H 651.309 0.608651 7.04676 0
M  V30 3823 H 652.3 -0.889796 7.09039 0
M  V30 3824 H 650.466 -0.433128 9.04664 0
M  V30 3825 P 652.336 -2.75334 8.47391 0
M  V30 3826 O 652.556 -3.84128 9.44797 0
M  V30 3827 O 653.126 -1.51947 8.68712 0
M  V30 3828 O 652.586 -3.29363 6.99321 0
M  V30 3829 C 651.646 -4.24011 6.4274 0
M  V30 3830 C 652.376 -5.20775 5.52155 0
M  V30 3831 O 652.586 -4.56534 4.22446 0
M  V30 3832 C 653.776 -5.62629 5.96531 0
M  V30 3833 O 654.166 -6.87667 5.41053 0
M  V30 3834 C 654.656 -4.52537 5.39283 0
M  V30 3835 C 653.946 -4.20027 4.08623 0
M  V30 3836 N 653.996 -2.76189 3.71603 0
M  V30 3837 H 651.157 -4.797 7.24003 0
M  V30 3838 H 650.887 -3.69856 5.84513 0
M  V30 3839 H 651.754 -6.10356 5.41441 0
M  V30 3840 P 655.716 -7.20834 5.23717 0
M  V30 3841 O 655.936 -8.66104 5.38572 0
M  V30 3842 O 656.506 -6.33544 6.1349 0
M  V30 3843 O 655.966 -6.7751 3.72168 0
M  V30 3844 C 655.026 -7.20825 2.7076 0
M  V30 3845 C 655.756 -7.45864 1.40599 0
M  V30 3846 O 655.966 -6.17651 0.734225 0
M  V30 3847 C 657.156 -8.05808 1.51899 0
M  V30 3848 O 657.546 -8.74358 0.335205 0
M  V30 3849 C 658.036 -6.83093 1.70294 0
M  V30 3850 C 657.326 -5.79992 0.836974 0
M  V30 3851 N 657.376 -4.41864 1.38293 0
M  V30 3852 H 654.537 -8.13644 3.0377 0
M  V30 3853 H 654.267 -6.42788 2.55485 0
M  V30 3854 H 655.134 -8.12039 0.792769 0
M  V30 3855 P 659.096 -8.91 -4.48406e-12 0
M  V30 3856 O 659.316 -10.1726 -0.733694 0
M  V30 3857 O 659.886 -8.73148 1.23936 0
M  V30 3858 O 659.346 -7.66872 -0.971405 0
M  V30 3859 C 658.406 -7.42309 -2.04641 0
M  V30 3860 C 659.136 -6.86059 -3.24661 0
M  V30 3861 O 659.346 -5.42847 -3.03646 0
M  V30 3862 C 660.536 -7.41196 -3.50753 0
M  V30 3863 O 660.926 -7.27073 -4.86816 0
M  V30 3864 C 661.416 -6.5273 -2.63741 0
M  V30 3865 C 660.706 -5.1842 -2.73198 0
M  V30 3866 N 660.756 -4.38762 -1.4784 0
M  V30 3867 H 657.917 -8.36803 -2.32493 0
M  V30 3868 H 657.647 -6.70197 -1.71129 0
M  V30 3869 H 658.514 -7.03551 -4.13168 0
M  V30 3870 P 662.476 -7.20834 -5.23717 0
M  V30 3871 O 662.696 -7.79853 -6.57286 0
M  V30 3872 O 663.266 -7.79239 -4.12957 0
M  V30 3873 O 662.726 -5.63315 -5.29344 0
M  V30 3874 C 661.786 -4.80255 -6.01876 0
M  V30 3875 C 662.516 -3.64202 -6.65911 0
M  V30 3876 O 662.726 -2.60694 -5.64732 0
M  V30 3877 C 663.916 -3.93473 -7.1943 0
M  V30 3878 O 664.306 -3.02071 -8.21205 0
M  V30 3879 C 664.796 -3.73047 -5.97036 0
M  V30 3880 C 664.086 -2.58828 -5.25741 0
M  V30 3881 N 664.136 -2.68068 -3.77503 0
M  V30 3882 H 661.297 -5.40332 -6.79951 0
M  V30 3883 H 661.027 -4.41613 -5.32378 0
M  V30 3884 H 661.894 -3.26331 -7.47797 0
M  V30 3885 P 665.856 -2.75334 -8.47391 0
M  V30 3886 O 666.076 -2.44571 -9.90142 0
M  V30 3887 O 666.646 -3.87688 -7.92115 0
M  V30 3888 O 666.106 -1.4459 -7.59357 0
M  V30 3889 C 665.166 -0.347608 -7.69215 0
M  V30 3890 C 665.896 0.96767 -7.52806 0
M  V30 3891 O 666.106 1.21036 -6.1011 0
M  V30 3892 C 667.296 1.04544 -8.13308 0
M  V30 3893 O 667.686 2.38311 -8.41922 0
M  V30 3894 C 668.176 0.491279 -7.02284 0
M  V30 3895 C 667.466 0.996264 -5.77469 0
M  V30 3896 N 667.516 0.0501916 -4.62973 0
M  V30 3897 H 664.677 -0.374722 -8.67691 0
M  V30 3898 H 664.407 -0.443485 -6.90277 0
M  V30 3899 H 665.274 1.75537 -7.96793 0
M  V30 3900 P 669.236 2.75334 -8.47391 0
M  V30 3901 O 669.456 3.84128 -9.44797 0
M  V30 3902 O 670.026 1.51947 -8.68712 0
M  V30 3903 O 669.486 3.29363 -6.99321 0
M  V30 3904 C 668.546 4.24011 -6.4274 0
M  V30 3905 C 669.276 5.20775 -5.52155 0
M  V30 3906 O 669.486 4.56534 -4.22446 0
M  V30 3907 C 670.676 5.62629 -5.96531 0
M  V30 3908 O 671.066 6.87667 -5.41053 0
M  V30 3909 C 671.556 4.52537 -5.39283 0
M  V30 3910 C 670.846 4.20027 -4.08623 0
M  V30 3911 N 670.896 2.76189 -3.71603 0
M  V30 3912 H 668.057 4.797 -7.24003 0
M  V30 3913 H 667.787 3.69856 -5.84513 0
M  V30 3914 H 668.654 6.10356 -5.41441 0
M  V30 3915 P 672.616 7.20834 -5.23717 0
M  V30 3916 O 672.836 8.66104 -5.38572 0
M  V30 3917 O 673.406 6.33544 -6.1349 0
M  V30 3918 O 672.866 6.7751 -3.72168 0
M  V30 3919 C 671.926 7.20825 -2.7076 0
M  V30 3920 C 672.656 7.45864 -1.40599 0
M  V30 3921 O 672.866 6.17651 -0.734225 0
M  V30 3922 C 674.056 8.05808 -1.51899 0
M  V30 3923 O 674.446 8.74358 -0.335205 0
M  V30 3924 C 674.936 6.83093 -1.70294 0
M  V30 3925 C 674.226 5.79992 -0.836974 0
M  V30 3926 N 674.276 4.41864 -1.38293 0
M  V30 3927 C 674.196 3.99538 -2.69438 0
M  V30 3928 N 674.276 2.69909 -2.84277 0
M  V30 3929 C 674.416 2.21719 -1.5408 0
M  V30 3930 C 674.546 0.891712 -1.06628 0
M  V30 3931 N 674.666 0.856846 0.334985 0
M  V30 3932 C 674.666 1.9641 1.15789 0
M  V30 3933 N 674.796 1.72708 2.46522 0
M  V30 3934 N 674.536 3.21165 0.713741 0
M  V30 3935 C 674.416 3.26797 -0.639748 0
M  V30 3936 H 671.437 8.13644 -3.0377 0
M  V30 3937 H 671.167 6.42788 -2.55485 0
M  V30 3938 H 672.034 8.12039 -0.792769 0
M  V30 3939 P 675.996 8.91 4.64125e-12 0
M  V30 3940 O 676.216 10.1726 0.733694 0
M  V30 3941 O 676.786 8.73148 -1.23936 0
M  V30 3942 O 676.246 7.66872 0.971405 0
M  V30 3943 C 675.306 7.42309 2.04641 0
M  V30 3944 C 676.036 6.86059 3.24661 0
M  V30 3945 O 676.246 5.42847 3.03646 0
M  V30 3946 C 677.436 7.41196 3.50753 0
M  V30 3947 O 677.826 7.27073 4.86816 0
M  V30 3948 C 678.316 6.5273 2.63741 0
M  V30 3949 C 677.606 5.1842 2.73198 0
M  V30 3950 N 677.656 4.38762 1.4784 0
M  V30 3951 H 674.817 8.36803 2.32493 0
M  V30 3952 H 674.547 6.70197 1.71129 0
M  V30 3953 H 675.414 7.03551 4.13168 0
M  V30 3954 P 679.376 7.20834 5.23717 0
M  V30 3955 O 679.596 7.79853 6.57286 0
M  V30 3956 O 680.166 7.79239 4.12957 0
M  V30 3957 O 679.626 5.63315 5.29344 0
M  V30 3958 C 678.686 4.80255 6.01876 0
M  V30 3959 C 679.416 3.64202 6.65911 0
M  V30 3960 O 679.626 2.60694 5.64732 0
M  V30 3961 C 680.816 3.93473 7.1943 0
M  V30 3962 O 681.206 3.02071 8.21205 0
M  V30 3963 C 681.696 3.73047 5.97036 0
M  V30 3964 C 680.986 2.58828 5.25741 0
M  V30 3965 N 681.036 2.68068 3.77503 0
M  V30 3966 C 680.956 3.79715 2.96723 0
M  V30 3967 N 681.036 3.5377 1.68852 0
M  V30 3968 C 681.176 2.15054 1.63254 0
M  V30 3969 C 681.306 1.28964 0.518571 0
M  V30 3970 O 681.326 1.56826 -0.679156 0
M  V30 3971 N 681.426 -0.0538097 0.918425 0
M  V30 3972 C 681.426 -0.494275 2.22578 0
M  V30 3973 N 681.556 -1.81086 2.40434 0
M  V30 3974 N 681.296 0.313645 3.27502 0
M  V30 3975 C 681.176 1.61829 2.91033 0
M  V30 3976 H 678.197 5.40332 6.79951 0
M  V30 3977 H 677.927 4.41613 5.32378 0
M  V30 3978 H 678.794 3.26331 7.47797 0
M  V30 3979 H 681.449 1.63422 5.56814 0
M  V30 3980 H 681.728 4.63374 5.34244 0
M  V30 3981 H 682.72 3.44728 6.25838 0
M  V30 3982 H 680.886 4.96652 7.57263 0
M  V30 3983 H 680.837 4.80617 3.3614 0
M  V30 3984 H 681.519 -0.742702 0.199384 0
M  V30 3985 H 681.556 -2.20598 3.35588 0
M  V30 3986 H 681.657 -2.43518 1.58945 0
M  V30 3987 P 682.756 2.75334 8.47391 0
M  V30 3988 O 682.976 2.44571 9.90142 0
M  V30 3989 O 683.546 3.87688 7.92115 0
M  V30 3990 O 683.006 1.4459 7.59357 0
M  V30 3991 C 682.066 0.347608 7.69215 0
M  V30 3992 C 682.796 -0.96767 7.52806 0
M  V30 3993 O 683.006 -1.21036 6.1011 0
M  V30 3994 C 684.196 -1.04544 8.13308 0
M  V30 3995 O 684.586 -2.38311 8.41922 0
M  V30 3996 C 685.076 -0.491279 7.02284 0
M  V30 3997 C 684.366 -0.996264 5.77469 0
M  V30 3998 N 684.416 -0.0501916 4.62973 0
M  V30 3999 C 684.336 1.32786 4.63244 0
M  V30 4000 N 684.416 1.86957 3.44545 0
M  V30 4001 C 684.556 0.780241 2.58481 0
M  V30 4002 C 684.686 0.738536 1.17757 0
M  V30 4003 N 684.806 -0.58337 0.711393 0
M  V30 4004 C 684.806 -1.70816 1.51017 0
M  V30 4005 N 684.936 -2.87826 0.880757 0
M  V30 4006 N 684.676 -1.67126 2.8339 0
M  V30 4007 C 684.556 -0.401421 3.30572 0
M  V30 4008 H 681.577 0.374722 8.67691 0
M  V30 4009 H 681.307 0.443485 6.90277 0
M  V30 4010 H 682.174 -1.75537 7.96793 0
M  V30 4011 P 686.136 -2.75334 8.47391 0
M  V30 4012 O 686.356 -3.84128 9.44797 0
M  V30 4013 O 686.926 -1.51947 8.68712 0
M  V30 4014 O 686.386 -3.29363 6.99321 0
M  V30 4015 C 685.446 -4.24011 6.4274 0
M  V30 4016 C 686.176 -5.20775 5.52155 0
M  V30 4017 O 686.386 -4.56534 4.22446 0
M  V30 4018 C 687.576 -5.62629 5.96531 0
M  V30 4019 O 687.966 -6.87667 5.41053 0
M  V30 4020 C 688.456 -4.52537 5.39283 0
M  V30 4021 C 687.746 -4.20027 4.08623 0
M  V30 4022 N 687.796 -2.76189 3.71603 0
M  V30 4023 C 687.716 -1.64862 4.52822 0
M  V30 4024 N 687.796 -0.512671 3.88633 0
M  V30 4025 C 687.936 -0.888083 2.54977 0
M  V30 4026 C 688.066 -0.094668 1.38677 0
M  V30 4027 O 688.086 1.13053 1.28163 0
M  V30 4028 N 688.186 -0.890102 0.232633 0
M  V30 4029 C 688.186 -2.26958 0.21772 0
M  V30 4030 N 688.316 -2.84626 -0.97925 0
M  V30 4031 N 688.056 -3.0178 1.31033 0
M  V30 4032 C 687.936 -2.26781 2.43843 0
M  V30 4033 H 684.957 -4.797 7.24003 0
M  V30 4034 H 684.687 -3.69856 5.84513 0
M  V30 4035 H 685.554 -6.10356 5.41441 0
M  V30 4036 H 688.209 -4.79061 3.27488 0
M  V30 4037 H 688.488 -3.64906 6.05785 0
M  V30 4038 H 689.48 -4.8868 5.2125 0
M  V30 4039 H 687.646 -5.66726 7.06352 0
M  V30 4040 H 687.597 -1.71169 5.60966 0
M  V30 4041 H 688.279 -0.419134 -0.644739 0
M  V30 4042 H 688.316 -3.87332 -1.06098 0
M  V30 4043 H 688.417 -2.26417 -1.82483 0
M  V30 4044 P 689.516 -7.20834 5.23717 0
M  V30 4045 O 689.736 -8.66104 5.38572 0
M  V30 4046 O 690.306 -6.33544 6.1349 0
M  V30 4047 O 689.766 -6.7751 3.72168 0
M  V30 4048 C 688.826 -7.20825 2.7076 0
M  V30 4049 C 689.556 -7.45864 1.40599 0
M  V30 4050 O 689.766 -6.17651 0.734225 0
M  V30 4051 C 690.956 -8.05808 1.51899 0
M  V30 4052 O 691.346 -8.74358 0.335205 0
M  V30 4053 C 691.836 -6.83093 1.70294 0
M  V30 4054 C 691.126 -5.79992 0.836974 0
M  V30 4055 N 691.176 -4.41864 1.38293 0
M  V30 4056 C 691.096 -3.99538 2.69438 0
M  V30 4057 N 691.176 -2.69909 2.84277 0
M  V30 4058 C 691.316 -2.21719 1.5408 0
M  V30 4059 C 691.446 -0.891712 1.06628 0
M  V30 4060 O 691.466 0.161298 1.70137 0
M  V30 4061 N 691.566 -0.856846 -0.334985 0
M  V30 4062 C 691.566 -1.9641 -1.15789 0
M  V30 4063 N 691.696 -1.72708 -2.46522 0
M  V30 4064 N 691.436 -3.21165 -0.713741 0
M  V30 4065 C 691.316 -3.26797 0.639748 0
M  V30 4066 H 688.337 -8.13644 3.0377 0
M  V30 4067 H 688.067 -6.42788 2.55485 0
M  V30 4068 H 688.934 -8.12039 0.792769 0
M  V30 4069 H 691.589 -5.80061 -0.166416 0
M  V30 4070 H 691.868 -6.51287 2.75604 0
M  V30 4071 H 692.86 -7.01734 1.34462 0
M  V30 4072 H 691.026 -8.73674 2.38337 0
M  V30 4073 H 690.977 -4.68207 3.53221 0
M  V30 4074 H 691.659 0.0398818 -0.767965 0
M  V30 4075 H 691.696 -2.50995 -3.13503 0
M  V30 4076 H 691.797 -0.759148 -2.80716 0
M  V30 4077 P 692.896 -8.91 -4.67181e-12 0
M  V30 4078 O 693.116 -10.1726 -0.733694 0
M  V30 4079 O 693.686 -8.73148 1.23936 0
M  V30 4080 O 693.146 -7.66872 -0.971405 0
M  V30 4081 C 692.206 -7.42309 -2.04641 0
M  V30 4082 C 692.936 -6.86059 -3.24661 0
M  V30 4083 O 693.146 -5.42847 -3.03646 0
M  V30 4084 C 694.336 -7.41196 -3.50753 0
M  V30 4085 O 694.726 -7.27073 -4.86816 0
M  V30 4086 C 695.216 -6.5273 -2.63741 0
M  V30 4087 C 694.506 -5.1842 -2.73198 0
M  V30 4088 N 694.556 -4.38762 -1.4784 0
M  V30 4089 H 691.717 -8.36803 -2.32493 0
M  V30 4090 H 691.447 -6.70197 -1.71129 0
M  V30 4091 H 692.314 -7.03551 -4.13168 0
M  V30 4092 P 696.276 -7.20834 -5.23717 0
M  V30 4093 O 696.496 -7.79853 -6.57286 0
M  V30 4094 O 697.066 -7.79239 -4.12957 0
M  V30 4095 O 696.526 -5.63315 -5.29344 0
M  V30 4096 C 695.586 -4.80255 -6.01876 0
M  V30 4097 C 696.316 -3.64202 -6.65911 0
M  V30 4098 O 696.526 -2.60694 -5.64732 0
M  V30 4099 C 697.716 -3.93473 -7.1943 0
M  V30 4100 O 698.106 -3.02071 -8.21205 0
M  V30 4101 C 698.596 -3.73047 -5.97036 0
M  V30 4102 C 697.886 -2.58828 -5.25741 0
M  V30 4103 N 697.936 -2.68068 -3.77503 0
M  V30 4104 H 695.097 -5.40332 -6.79951 0
M  V30 4105 H 694.827 -4.41613 -5.32378 0
M  V30 4106 H 695.694 -3.26331 -7.47797 0
M  V30 4107 P 699.656 -2.75334 -8.47391 0
M  V30 4108 O 699.876 -2.44571 -9.90142 0
M  V30 4109 O 700.446 -3.87688 -7.92115 0
M  V30 4110 O 699.906 -1.4459 -7.59357 0
M  V30 4111 C 698.966 -0.347608 -7.69215 0
M  V30 4112 C 699.696 0.96767 -7.52806 0
M  V30 4113 O 699.906 1.21036 -6.1011 0
M  V30 4114 C 701.096 1.04544 -8.13308 0
M  V30 4115 O 701.486 2.38311 -8.41922 0
M  V30 4116 C 701.976 0.491279 -7.02284 0
M  V30 4117 C 701.266 0.996264 -5.77469 0
M  V30 4118 N 701.316 0.0501916 -4.62973 0
M  V30 4119 C 701.236 -1.32786 -4.63244 0
M  V30 4120 N 701.316 -1.86957 -3.44545 0
M  V30 4121 C 701.456 -0.780241 -2.58481 0
M  V30 4122 C 701.586 -0.738536 -1.17757 0
M  V30 4123 O 701.606 -1.66794 -0.372349 0
M  V30 4124 N 701.706 0.58337 -0.711393 0
M  V30 4125 C 701.706 1.70816 -1.51017 0
M  V30 4126 N 701.836 2.87826 -0.880757 0
M  V30 4127 N 701.576 1.67126 -2.8339 0
M  V30 4128 C 701.456 0.401421 -3.30572 0
M  V30 4129 H 698.477 -0.374722 -8.67691 0
M  V30 4130 H 698.207 -0.443485 -6.90277 0
M  V30 4131 H 699.074 1.75537 -7.96793 0
M  V30 4132 H 701.729 1.95076 -5.46529 0
M  V30 4133 H 702.008 -0.608565 -7.04577 0
M  V30 4134 H 703 0.889672 -7.08939 0
M  V30 4135 H 701.166 0.43308 -9.04564 0
M  V30 4136 H 701.117 -1.91249 -5.54442 0
M  V30 4137 H 701.799 0.718054 0.275244 0
M  V30 4138 H 701.836 3.75721 -1.41832 0
M  V30 4139 H 701.937 2.90436 0.145468 0
M  V30 4140 P 703.036 2.75334 -8.47391 0
M  V30 4141 O 703.256 3.84128 -9.44797 0
M  V30 4142 O 703.826 1.51947 -8.68712 0
M  V30 4143 O 703.286 3.29363 -6.99321 0
M  V30 4144 C 702.346 4.24011 -6.4274 0
M  V30 4145 C 703.076 5.20775 -5.52155 0
M  V30 4146 O 703.286 4.56534 -4.22446 0
M  V30 4147 C 704.476 5.62629 -5.96531 0
M  V30 4148 O 704.866 6.87667 -5.41053 0
M  V30 4149 C 705.356 4.52537 -5.39283 0
M  V30 4150 C 704.646 4.20027 -4.08623 0
M  V30 4151 N 704.696 2.76189 -3.71603 0
M  V30 4152 H 701.857 4.797 -7.24003 0
M  V30 4153 H 701.587 3.69856 -5.84513 0
M  V30 4154 H 702.454 6.10356 -5.41441 0
M  V30 4155 P 706.416 7.20834 -5.23717 0
M  V30 4156 O 706.636 8.66104 -5.38572 0
M  V30 4157 O 707.206 6.33544 -6.1349 0
M  V30 4158 O 706.666 6.7751 -3.72168 0
M  V30 4159 C 705.726 7.20825 -2.7076 0
M  V30 4160 C 706.456 7.45864 -1.40599 0
M  V30 4161 O 706.666 6.17651 -0.734225 0
M  V30 4162 C 707.856 8.05808 -1.51899 0
M  V30 4163 O 708.246 8.74358 -0.335205 0
M  V30 4164 C 708.736 6.83093 -1.70294 0
M  V30 4165 C 708.026 5.79992 -0.836974 0
M  V30 4166 N 708.076 4.41864 -1.38293 0
M  V30 4167 C 707.996 3.99538 -2.69438 0
M  V30 4168 N 708.076 2.69909 -2.84277 0
M  V30 4169 C 708.216 2.21719 -1.5408 0
M  V30 4170 C 708.346 0.891712 -1.06628 0
M  V30 4171 O 708.366 -0.161298 -1.70137 0
M  V30 4172 N 708.466 0.856846 0.334985 0
M  V30 4173 C 708.466 1.9641 1.15789 0
M  V30 4174 N 708.596 1.72708 2.46522 0
M  V30 4175 N 708.336 3.21165 0.713741 0
M  V30 4176 C 708.216 3.26797 -0.639748 0
M  V30 4177 H 705.237 8.13644 -3.0377 0
M  V30 4178 H 704.967 6.42788 -2.55485 0
M  V30 4179 H 705.834 8.12039 -0.792769 0
M  V30 4180 H 708.489 5.80061 0.166416 0
M  V30 4181 H 708.768 6.51287 -2.75604 0
M  V30 4182 H 709.76 7.01734 -1.34462 0
M  V30 4183 H 707.926 8.73674 -2.38337 0
M  V30 4184 H 707.877 4.68207 -3.53221 0
M  V30 4185 H 708.559 -0.0398818 0.767965 0
M  V30 4186 H 708.596 2.50995 3.13503 0
M  V30 4187 H 708.697 0.759148 2.80716 0
M  V30 4188 P 709.796 8.91 4.82899e-12 0
M  V30 4189 O 710.016 10.1726 0.733694 0
M  V30 4190 O 710.586 8.73148 -1.23936 0
M  V30 4191 O 710.046 7.66872 0.971405 0
M  V30 4192 C 709.106 7.42309 2.04641 0
M  V30 4193 C 709.836 6.86059 3.24661 0
M  V30 4194 O 710.046 5.42847 3.03646 0
M  V30 4195 C 711.236 7.41196 3.50753 0
M  V30 4196 O 711.626 7.27073 4.86816 0
M  V30 4197 C 712.116 6.5273 2.63741 0
M  V30 4198 C 711.406 5.1842 2.73198 0
M  V30 4199 N 711.456 4.38762 1.4784 0
M  V30 4200 H 708.617 8.36803 2.32493 0
M  V30 4201 H 708.347 6.70197 1.71129 0
M  V30 4202 H 709.214 7.03551 4.13168 0
M  V30 4203 P 713.176 7.20834 5.23717 0
M  V30 4204 O 713.396 7.79853 6.57286 0
M  V30 4205 O 713.966 7.79239 4.12957 0
M  V30 4206 O 713.426 5.63315 5.29344 0
M  V30 4207 C 712.486 4.80255 6.01876 0
M  V30 4208 C 713.216 3.64202 6.65911 0
M  V30 4209 O 713.426 2.60694 5.64732 0
M  V30 4210 C 714.616 3.93473 7.1943 0
M  V30 4211 O 715.006 3.02071 8.21205 0
M  V30 4212 C 715.496 3.73047 5.97036 0
M  V30 4213 C 714.786 2.58828 5.25741 0
M  V30 4214 N 714.836 2.68068 3.77503 0
M  V30 4215 H 711.997 5.40332 6.79951 0
M  V30 4216 H 711.727 4.41613 5.32378 0
M  V30 4217 H 712.594 3.26331 7.47797 0
M  V30 4218 P 716.556 2.75334 8.47391 0
M  V30 4219 O 716.776 2.44571 9.90142 0
M  V30 4220 O 717.346 3.87688 7.92115 0
M  V30 4221 O 716.806 1.4459 7.59357 0
M  V30 4222 C 715.866 0.347608 7.69215 0
M  V30 4223 C 716.596 -0.96767 7.52806 0
M  V30 4224 O 716.806 -1.21036 6.1011 0
M  V30 4225 C 717.996 -1.04544 8.13308 0
M  V30 4226 O 718.386 -2.38311 8.41922 0
M  V30 4227 C 718.876 -0.491279 7.02284 0
M  V30 4228 C 718.166 -0.996264 5.77469 0
M  V30 4229 N 718.216 -0.0501916 4.62973 0
M  V30 4230 C 718.136 1.32786 4.63244 0
M  V30 4231 N 718.216 1.86957 3.44545 0
M  V30 4232 C 718.356 0.780241 2.58481 0
M  V30 4233 C 718.486 0.738536 1.17757 0
M  V30 4234 N 718.606 -0.58337 0.711393 0
M  V30 4235 C 718.606 -1.70816 1.51017 0
M  V30 4236 N 718.736 -2.87826 0.880757 0
M  V30 4237 N 718.476 -1.67126 2.8339 0
M  V30 4238 C 718.356 -0.401421 3.30572 0
M  V30 4239 H 715.377 0.374722 8.67691 0
M  V30 4240 H 715.107 0.443485 6.90277 0
M  V30 4241 H 715.974 -1.75537 7.96793 0
M  V30 4242 P 719.936 -2.75334 8.47391 0
M  V30 4243 O 720.156 -3.84128 9.44797 0
M  V30 4244 O 720.726 -1.51947 8.68712 0
M  V30 4245 O 720.186 -3.29363 6.99321 0
M  V30 4246 C 719.246 -4.24011 6.4274 0
M  V30 4247 C 719.976 -5.20775 5.52155 0
M  V30 4248 O 720.186 -4.56534 4.22446 0
M  V30 4249 C 721.376 -5.62629 5.96531 0
M  V30 4250 O 721.766 -6.87667 5.41053 0
M  V30 4251 C 722.256 -4.52537 5.39283 0
M  V30 4252 C 721.546 -4.20027 4.08623 0
M  V30 4253 N 721.596 -2.76189 3.71603 0
M  V30 4254 C 721.516 -1.64862 4.52822 0
M  V30 4255 N 721.596 -0.512671 3.88633 0
M  V30 4256 C 721.736 -0.888083 2.54977 0
M  V30 4257 C 721.866 -0.094668 1.38677 0
M  V30 4258 O 721.886 1.13053 1.28163 0
M  V30 4259 N 721.986 -0.890102 0.232633 0
M  V30 4260 C 721.986 -2.26958 0.21772 0
M  V30 4261 N 722.116 -2.84626 -0.97925 0
M  V30 4262 N 721.856 -3.0178 1.31033 0
M  V30 4263 C 721.736 -2.26781 2.43843 0
M  V30 4264 H 718.757 -4.797 7.24003 0
M  V30 4265 H 718.487 -3.69856 5.84513 0
M  V30 4266 H 719.354 -6.10356 5.41441 0
M  V30 4267 H 722.009 -4.79061 3.27488 0
M  V30 4268 H 722.288 -3.64906 6.05785 0
M  V30 4269 H 723.28 -4.8868 5.2125 0
M  V30 4270 H 721.446 -5.66726 7.06352 0
M  V30 4271 H 721.397 -1.71169 5.60966 0
M  V30 4272 H 722.079 -0.419134 -0.644739 0
M  V30 4273 H 722.116 -3.87332 -1.06098 0
M  V30 4274 H 722.217 -2.26417 -1.82483 0
M  V30 4275 P 723.316 -7.20834 5.23717 0
M  V30 4276 O 723.536 -8.66104 5.38572 0
M  V30 4277 O 724.106 -6.33544 6.1349 0
M  V30 4278 O 723.566 -6.7751 3.72168 0
M  V30 4279 C 722.626 -7.20825 2.7076 0
M  V30 4280 C 723.356 -7.45864 1.40599 0
M  V30 4281 O 723.566 -6.17651 0.734225 0
M  V30 4282 C 724.756 -8.05808 1.51899 0
M  V30 4283 O 725.146 -8.74358 0.335205 0
M  V30 4284 C 725.636 -6.83093 1.70294 0
M  V30 4285 C 724.926 -5.79992 0.836974 0
M  V30 4286 N 724.976 -4.41864 1.38293 0
M  V30 4287 C 724.896 -3.99538 2.69438 0
M  V30 4288 N 724.976 -2.69909 2.84277 0
M  V30 4289 C 725.116 -2.21719 1.5408 0
M  V30 4290 C 725.246 -0.891712 1.06628 0
M  V30 4291 O 725.266 0.161298 1.70137 0
M  V30 4292 N 725.366 -0.856846 -0.334985 0
M  V30 4293 C 725.366 -1.9641 -1.15789 0
M  V30 4294 N 725.496 -1.72708 -2.46522 0
M  V30 4295 N 725.236 -3.21165 -0.713741 0
M  V30 4296 C 725.116 -3.26797 0.639748 0
M  V30 4297 H 722.137 -8.13644 3.0377 0
M  V30 4298 H 721.867 -6.42788 2.55485 0
M  V30 4299 H 722.734 -8.12039 0.792769 0
M  V30 4300 H 725.389 -5.80061 -0.166416 0
M  V30 4301 H 725.668 -6.51287 2.75604 0
M  V30 4302 H 726.66 -7.01734 1.34462 0
M  V30 4303 H 724.826 -8.73674 2.38337 0
M  V30 4304 H 724.777 -4.68207 3.53221 0
M  V30 4305 H 725.459 0.0398818 -0.767965 0
M  V30 4306 H 725.496 -2.50995 -3.13503 0
M  V30 4307 H 725.597 -0.759148 -2.80716 0
M  V30 4308 P 726.696 -8.91 -4.98617e-12 0
M  V30 4309 O 726.916 -10.1726 -0.733694 0
M  V30 4310 O 727.486 -8.73148 1.23936 0
M  V30 4311 O 726.946 -7.66872 -0.971405 0
M  V30 4312 C 726.006 -7.42309 -2.04641 0
M  V30 4313 C 726.736 -6.86059 -3.24661 0
M  V30 4314 O 726.946 -5.42847 -3.03646 0
M  V30 4315 C 728.136 -7.41196 -3.50753 0
M  V30 4316 O 728.526 -7.27073 -4.86816 0
M  V30 4317 C 729.016 -6.5273 -2.63741 0
M  V30 4318 C 728.306 -5.1842 -2.73198 0
M  V30 4319 N 728.356 -4.38762 -1.4784 0
M  V30 4320 C 728.276 -4.81605 -0.168631 0
M  V30 4321 N 728.356 -3.85454 0.713363 0
M  V30 4322 C 728.496 -2.6994 -0.0566958 0
M  V30 4323 C 728.626 -1.34815 0.338502 0
M  V30 4324 O 728.646 -0.869548 1.47125 0
M  V30 4325 N 728.746 -0.496304 -0.77465 0
M  V30 4326 C 728.746 -0.908403 -2.09122 0
M  V30 4327 N 728.876 0.0517805 -3.00955 0
M  V30 4328 N 728.616 -2.17875 -2.46519 0
M  V30 4329 C 728.496 -3.01988 -1.4033 0
M  V30 4330 H 725.517 -8.36803 -2.32493 0
M  V30 4331 H 725.247 -6.70197 -1.71129 0
M  V30 4332 H 726.114 -7.03551 -4.13168 0
M  V30 4333 H 728.769 -4.59498 -3.54415 0
M  V30 4334 H 729.048 -6.88898 -1.59848 0
M  V30 4335 H 730.04 -6.46749 -3.03687 0
M  V30 4336 H 728.206 -8.46908 -3.20714 0
M  V30 4337 H 728.157 -5.86405 0.105564 0
M  V30 4338 H 728.839 0.483664 -0.597855 0
M  V30 4339 H 728.876 -0.187865 -4.0116 0
M  V30 4340 H 728.977 1.03585 -2.71726 0
M  V30 4341 P 730.076 -7.20834 -5.23717 0
M  V30 4342 O 730.296 -7.79853 -6.57286 0
M  V30 4343 O 730.866 -7.79239 -4.12957 0
M  V30 4344 O 730.326 -5.63315 -5.29344 0
M  V30 4345 C 729.386 -4.80255 -6.01876 0
M  V30 4346 C 730.116 -3.64202 -6.65911 0
M  V30 4347 O 730.326 -2.60694 -5.64732 0
M  V30 4348 C 731.516 -3.93473 -7.1943 0
M  V30 4349 O 731.906 -3.02071 -8.21205 0
M  V30 4350 C 732.396 -3.73047 -5.97036 0
M  V30 4351 C 731.686 -2.58828 -5.25741 0
M  V30 4352 N 731.736 -2.68068 -3.77503 0
M  V30 4353 C 731.656 -3.79715 -2.96723 0
M  V30 4354 N 731.736 -3.5377 -1.68852 0
M  V30 4355 C 731.876 -2.15054 -1.63254 0
M  V30 4356 C 732.006 -1.28964 -0.518571 0
M  V30 4357 O 732.026 -1.56826 0.679156 0
M  V30 4358 N 732.126 0.0538097 -0.918425 0
M  V30 4359 C 732.126 0.494275 -2.22578 0
M  V30 4360 N 732.256 1.81086 -2.40434 0
M  V30 4361 N 731.996 -0.313645 -3.27502 0
M  V30 4362 C 731.876 -1.61829 -2.91033 0
M  V30 4363 H 728.897 -5.40332 -6.79951 0
M  V30 4364 H 728.627 -4.41613 -5.32378 0
M  V30 4365 H 729.494 -3.26331 -7.47797 0
M  V30 4366 H 732.149 -1.63422 -5.56814 0
M  V30 4367 H 732.428 -4.63374 -5.34244 0
M  V30 4368 H 733.42 -3.44728 -6.25838 0
M  V30 4369 H 731.586 -4.96652 -7.57263 0
M  V30 4370 H 731.537 -4.80617 -3.3614 0
M  V30 4371 H 732.219 0.742702 -0.199384 0
M  V30 4372 H 732.256 2.20598 -3.35588 0
M  V30 4373 H 732.357 2.43518 -1.58945 0
M  V30 4374 P 733.456 -2.75334 -8.47391 0
M  V30 4375 O 733.676 -2.44571 -9.90142 0
M  V30 4376 O 734.246 -3.87688 -7.92115 0
M  V30 4377 O 733.706 -1.4459 -7.59357 0
M  V30 4378 C 732.766 -0.347608 -7.69215 0
M  V30 4379 C 733.496 0.96767 -7.52806 0
M  V30 4380 O 733.706 1.21036 -6.1011 0
M  V30 4381 C 734.896 1.04544 -8.13308 0
M  V30 4382 O 735.286 2.38311 -8.41922 0
M  V30 4383 C 735.776 0.491279 -7.02284 0
M  V30 4384 C 735.066 0.996264 -5.77469 0
M  V30 4385 N 735.116 0.0501916 -4.62973 0
M  V30 4386 H 732.277 -0.374722 -8.67691 0
M  V30 4387 H 732.007 -0.443485 -6.90277 0
M  V30 4388 H 732.874 1.75537 -7.96793 0
M  V30 4389 P 736.836 2.75334 -8.47391 0
M  V30 4390 O 737.056 3.84128 -9.44797 0
M  V30 4391 O 737.626 1.51947 -8.68712 0
M  V30 4392 O 737.086 3.29363 -6.99321 0
M  V30 4393 C 736.146 4.24011 -6.4274 0
M  V30 4394 C 736.876 5.20775 -5.52155 0
M  V30 4395 O 737.086 4.56534 -4.22446 0
M  V30 4396 C 738.276 5.62629 -5.96531 0
M  V30 4397 O 738.666 6.87667 -5.41053 0
M  V30 4398 C 739.156 4.52537 -5.39283 0
M  V30 4399 C 738.446 4.20027 -4.08623 0
M  V30 4400 N 738.496 2.76189 -3.71603 0
M  V30 4401 H 735.657 4.797 -7.24003 0
M  V30 4402 H 735.387 3.69856 -5.84513 0
M  V30 4403 H 736.254 6.10356 -5.41441 0
M  V30 4404 P 740.216 7.20834 -5.23717 0
M  V30 4405 O 740.436 8.66104 -5.38572 0
M  V30 4406 O 741.006 6.33544 -6.1349 0
M  V30 4407 O 740.466 6.7751 -3.72168 0
M  V30 4408 C 739.526 7.20825 -2.7076 0
M  V30 4409 C 740.256 7.45864 -1.40599 0
M  V30 4410 O 740.466 6.17651 -0.734225 0
M  V30 4411 C 741.656 8.05808 -1.51899 0
M  V30 4412 O 742.046 8.74358 -0.335205 0
M  V30 4413 C 742.536 6.83093 -1.70294 0
M  V30 4414 C 741.826 5.79992 -0.836974 0
M  V30 4415 N 741.876 4.41864 -1.38293 0
M  V30 4416 C 741.796 3.99538 -2.69438 0
M  V30 4417 N 741.876 2.69909 -2.84277 0
M  V30 4418 C 742.016 2.21719 -1.5408 0
M  V30 4419 C 742.146 0.891712 -1.06628 0
M  V30 4420 O 742.166 -0.161298 -1.70137 0
M  V30 4421 N 742.266 0.856846 0.334985 0
M  V30 4422 C 742.266 1.9641 1.15789 0
M  V30 4423 N 742.396 1.72708 2.46522 0
M  V30 4424 N 742.136 3.21165 0.713741 0
M  V30 4425 C 742.016 3.26797 -0.639748 0
M  V30 4426 H 739.037 8.13644 -3.0377 0
M  V30 4427 H 738.767 6.42788 -2.55485 0
M  V30 4428 H 739.634 8.12039 -0.792769 0
M  V30 4429 H 742.289 5.80061 0.166416 0
M  V30 4430 H 742.568 6.51287 -2.75604 0
M  V30 4431 H 743.56 7.01734 -1.34462 0
M  V30 4432 H 741.726 8.73674 -2.38337 0
M  V30 4433 H 741.677 4.68207 -3.53221 0
M  V30 4434 H 742.359 -0.0398818 0.767965 0
M  V30 4435 H 742.396 2.50995 3.13503 0
M  V30 4436 H 742.497 0.759148 2.80716 0
M  V30 4437 P 743.596 8.91 5.14336e-12 0
M  V30 4438 O 743.816 10.1726 0.733694 0
M  V30 4439 O 744.386 8.73148 -1.23936 0
M  V30 4440 O 743.846 7.66872 0.971405 0
M  V30 4441 C 742.906 7.42309 2.04641 0
M  V30 4442 C 743.636 6.86059 3.24661 0
M  V30 4443 O 743.846 5.42847 3.03646 0
M  V30 4444 C 745.036 7.41196 3.50753 0
M  V30 4445 O 745.426 7.27073 4.86816 0
M  V30 4446 C 745.916 6.5273 2.63741 0
M  V30 4447 C 745.206 5.1842 2.73198 0
M  V30 4448 N 745.256 4.38762 1.4784 0
M  V30 4449 H 742.417 8.36803 2.32493 0
M  V30 4450 H 742.147 6.70197 1.71129 0
M  V30 4451 H 743.014 7.03551 4.13168 0
M  V30 4452 P 746.976 7.20834 5.23717 0
M  V30 4453 O 747.196 7.79853 6.57286 0
M  V30 4454 O 747.766 7.79239 4.12957 0
M  V30 4455 O 747.226 5.63315 5.29344 0
M  V30 4456 C 746.286 4.80255 6.01876 0
M  V30 4457 C 747.016 3.64202 6.65911 0
M  V30 4458 O 747.226 2.60694 5.64732 0
M  V30 4459 C 748.416 3.93473 7.1943 0
M  V30 4460 O 748.806 3.02071 8.21205 0
M  V30 4461 C 749.296 3.73047 5.97036 0
M  V30 4462 C 748.586 2.58828 5.25741 0
M  V30 4463 N 748.636 2.68068 3.77503 0
M  V30 4464 C 748.556 3.79715 2.96723 0
M  V30 4465 N 748.636 3.5377 1.68852 0
M  V30 4466 C 748.776 2.15054 1.63254 0
M  V30 4467 C 748.906 1.28964 0.518571 0
M  V30 4468 O 748.926 1.56826 -0.679156 0
M  V30 4469 N 749.026 -0.0538097 0.918425 0
M  V30 4470 C 749.026 -0.494275 2.22578 0
M  V30 4471 N 749.156 -1.81086 2.40434 0
M  V30 4472 N 748.896 0.313645 3.27502 0
M  V30 4473 C 748.776 1.61829 2.91033 0
M  V30 4474 H 745.797 5.40332 6.79951 0
M  V30 4475 H 745.527 4.41613 5.32378 0
M  V30 4476 H 746.394 3.26331 7.47797 0
M  V30 4477 H 749.049 1.63422 5.56814 0
M  V30 4478 H 749.328 4.63374 5.34244 0
M  V30 4479 H 750.32 3.44728 6.25838 0
M  V30 4480 H 748.486 4.96652 7.57263 0
M  V30 4481 H 748.437 4.80617 3.3614 0
M  V30 4482 H 749.119 -0.742702 0.199384 0
M  V30 4483 H 749.156 -2.20598 3.35588 0
M  V30 4484 H 749.257 -2.43518 1.58945 0
M  V30 4485 P 750.356 2.75334 8.47391 0
M  V30 4486 O 750.576 2.44571 9.90142 0
M  V30 4487 O 751.146 3.87688 7.92115 0
M  V30 4488 O 750.606 1.4459 7.59357 0
M  V30 4489 C 749.666 0.347608 7.69215 0
M  V30 4490 C 750.396 -0.96767 7.52806 0
M  V30 4491 O 750.606 -1.21036 6.1011 0
M  V30 4492 C 751.796 -1.04544 8.13308 0
M  V30 4493 O 752.186 -2.38311 8.41922 0
M  V30 4494 C 752.676 -0.491279 7.02284 0
M  V30 4495 C 751.966 -0.996264 5.77469 0
M  V30 4496 N 752.016 -0.0501916 4.62973 0
M  V30 4497 H 749.177 0.374722 8.67691 0
M  V30 4498 H 748.907 0.443485 6.90277 0
M  V30 4499 H 749.774 -1.75537 7.96793 0
M  V30 4500 P 753.736 -2.75334 8.47391 0
M  V30 4501 O 753.956 -3.84128 9.44797 0
M  V30 4502 O 754.526 -1.51947 8.68712 0
M  V30 4503 O 753.986 -3.29363 6.99321 0
M  V30 4504 C 753.046 -4.24011 6.4274 0
M  V30 4505 C 753.776 -5.20775 5.52155 0
M  V30 4506 O 753.986 -4.56534 4.22446 0
M  V30 4507 C 755.176 -5.62629 5.96531 0
M  V30 4508 O 755.566 -6.87667 5.41053 0
M  V30 4509 C 756.056 -4.52537 5.39283 0
M  V30 4510 C 755.346 -4.20027 4.08623 0
M  V30 4511 N 755.396 -2.76189 3.71603 0
M  V30 4512 C 755.316 -1.64862 4.52822 0
M  V30 4513 N 755.396 -0.512671 3.88633 0
M  V30 4514 C 755.536 -0.888083 2.54977 0
M  V30 4515 C 755.666 -0.094668 1.38677 0
M  V30 4516 O 755.686 1.13053 1.28163 0
M  V30 4517 N 755.786 -0.890102 0.232633 0
M  V30 4518 C 755.786 -2.26958 0.21772 0
M  V30 4519 N 755.916 -2.84626 -0.97925 0
M  V30 4520 N 755.656 -3.0178 1.31033 0
M  V30 4521 C 755.536 -2.26781 2.43843 0
M  V30 4522 H 752.557 -4.797 7.24003 0
M  V30 4523 H 752.287 -3.69856 5.84513 0
M  V30 4524 H 753.154 -6.10356 5.41441 0
M  V30 4525 H 755.809 -4.79061 3.27488 0
M  V30 4526 H 756.088 -3.64906 6.05785 0
M  V30 4527 H 757.08 -4.8868 5.2125 0
M  V30 4528 H 755.246 -5.66726 7.06352 0
M  V30 4529 H 755.197 -1.71169 5.60966 0
M  V30 4530 H 755.879 -0.419134 -0.644739 0
M  V30 4531 H 755.916 -3.87332 -1.06098 0
M  V30 4532 H 756.017 -2.26417 -1.82483 0
M  V30 4533 P 757.116 -7.20834 5.23717 0
M  V30 4534 O 757.336 -8.66104 5.38572 0
M  V30 4535 O 757.906 -6.33544 6.1349 0
M  V30 4536 O 757.366 -6.7751 3.72168 0
M  V30 4537 C 756.426 -7.20825 2.7076 0
M  V30 4538 C 757.156 -7.45864 1.40599 0
M  V30 4539 O 757.366 -6.17651 0.734225 0
M  V30 4540 C 758.556 -8.05808 1.51899 0
M  V30 4541 O 758.946 -8.74358 0.335205 0
M  V30 4542 C 759.436 -6.83093 1.70294 0
M  V30 4543 C 758.726 -5.79992 0.836974 0
M  V30 4544 N 758.776 -4.41864 1.38293 0
M  V30 4545 H 755.937 -8.13644 3.0377 0
M  V30 4546 H 755.667 -6.42788 2.55485 0
M  V30 4547 H 756.534 -8.12039 0.792769 0
M  V30 4548 P 760.496 -8.91 -5.30054e-12 0
M  V30 4549 O 760.716 -10.1726 -0.733694 0
M  V30 4550 O 761.286 -8.73148 1.23936 0
M  V30 4551 O 760.746 -7.66872 -0.971405 0
M  V30 4552 C 759.806 -7.42309 -2.04641 0
M  V30 4553 C 760.536 -6.86059 -3.24661 0
M  V30 4554 O 760.746 -5.42847 -3.03646 0
M  V30 4555 C 761.936 -7.41196 -3.50753 0
M  V30 4556 O 762.326 -7.27073 -4.86816 0
M  V30 4557 C 762.816 -6.5273 -2.63741 0
M  V30 4558 C 762.106 -5.1842 -2.73198 0
M  V30 4559 N 762.156 -4.38762 -1.4784 0
M  V30 4560 H 759.317 -8.36803 -2.32493 0
M  V30 4561 H 759.047 -6.70197 -1.71129 0
M  V30 4562 H 759.914 -7.03551 -4.13168 0
M  V30 4563 P 763.875 -7.20834 -5.23717 0
M  V30 4564 O 764.095 -7.79853 -6.57286 0
M  V30 4565 O 764.665 -7.79239 -4.12957 0
M  V30 4566 O 764.125 -5.63315 -5.29344 0
M  V30 4567 C 763.185 -4.80255 -6.01876 0
M  V30 4568 C 763.915 -3.64202 -6.65911 0
M  V30 4569 O 764.125 -2.60694 -5.64732 0
M  V30 4570 C 765.315 -3.93473 -7.1943 0
M  V30 4571 O 765.705 -3.02071 -8.21205 0
M  V30 4572 C 766.195 -3.73047 -5.97036 0
M  V30 4573 C 765.485 -2.58828 -5.25741 0
M  V30 4574 N 765.535 -2.68068 -3.77503 0
M  V30 4575 H 762.696 -5.40332 -6.79951 0
M  V30 4576 H 762.426 -4.41613 -5.32378 0
M  V30 4577 H 763.293 -3.26331 -7.47797 0
M  V30 4578 P 767.255 -2.75334 -8.47391 0
M  V30 4579 O 767.475 -2.44571 -9.90142 0
M  V30 4580 O 768.045 -3.87688 -7.92115 0
M  V30 4581 O 767.505 -1.4459 -7.59357 0
M  V30 4582 C 766.565 -0.347608 -7.69215 0
M  V30 4583 C 767.295 0.96767 -7.52806 0
M  V30 4584 O 767.505 1.21036 -6.1011 0
M  V30 4585 C 768.695 1.04544 -8.13308 0
M  V30 4586 O 769.085 2.38311 -8.41922 0
M  V30 4587 C 769.575 0.491279 -7.02284 0
M  V30 4588 C 768.865 0.996264 -5.77469 0
M  V30 4589 N 768.915 0.0501916 -4.62973 0
M  V30 4590 C 768.835 -1.32786 -4.63244 0
M  V30 4591 N 768.915 -1.86957 -3.44545 0
M  V30 4592 C 769.055 -0.780241 -2.58481 0
M  V30 4593 C 769.185 -0.738536 -1.17757 0
M  V30 4594 N 769.305 0.58337 -0.711393 0
M  V30 4595 C 769.305 1.70816 -1.51017 0
M  V30 4596 N 769.435 2.87826 -0.880757 0
M  V30 4597 N 769.175 1.67126 -2.8339 0
M  V30 4598 C 769.055 0.401421 -3.30572 0
M  V30 4599 H 766.076 -0.374722 -8.67691 0
M  V30 4600 H 765.806 -0.443485 -6.90277 0
M  V30 4601 H 766.673 1.75537 -7.96793 0
M  V30 4602 P 770.635 2.75334 -8.47391 0
M  V30 4603 O 770.855 3.84128 -9.44797 0
M  V30 4604 O 771.425 1.51947 -8.68712 0
M  V30 4605 O 770.885 3.29363 -6.99321 0
M  V30 4606 C 769.945 4.24011 -6.4274 0
M  V30 4607 C 770.675 5.20775 -5.52155 0
M  V30 4608 O 770.885 4.56534 -4.22446 0
M  V30 4609 C 772.075 5.62629 -5.96531 0
M  V30 4610 O 772.465 6.87667 -5.41053 0
M  V30 4611 C 772.955 4.52537 -5.39283 0
M  V30 4612 C 772.245 4.20027 -4.08623 0
M  V30 4613 N 772.295 2.76189 -3.71603 0
M  V30 4614 C 772.215 1.64862 -4.52822 0
M  V30 4615 N 772.295 0.512671 -3.88633 0
M  V30 4616 C 772.435 0.888083 -2.54977 0
M  V30 4617 C 772.565 0.094668 -1.38677 0
M  V30 4618 O 772.585 -1.13053 -1.28163 0
M  V30 4619 N 772.685 0.890102 -0.232633 0
M  V30 4620 C 772.685 2.26958 -0.21772 0
M  V30 4621 N 772.815 2.84626 0.97925 0
M  V30 4622 N 772.555 3.0178 -1.31033 0
M  V30 4623 C 772.435 2.26781 -2.43843 0
M  V30 4624 H 769.456 4.797 -7.24003 0
M  V30 4625 H 769.186 3.69856 -5.84513 0
M  V30 4626 H 770.053 6.10356 -5.41441 0
M  V30 4627 H 772.708 4.79061 -3.27488 0
M  V30 4628 H 772.987 3.64906 -6.05785 0
M  V30 4629 H 773.979 4.8868 -5.2125 0
M  V30 4630 H 772.145 5.66726 -7.06352 0
M  V30 4631 H 772.096 1.71169 -5.60966 0
M  V30 4632 H 772.778 0.419134 0.644739 0
M  V30 4633 H 772.815 3.87332 1.06098 0
M  V30 4634 H 772.916 2.26417 1.82483 0
M  V30 4635 P 774.015 7.20834 -5.23717 0
M  V30 4636 O 774.235 8.66104 -5.38572 0
M  V30 4637 O 774.805 6.33544 -6.1349 0
M  V30 4638 O 774.265 6.7751 -3.72168 0
M  V30 4639 C 773.325 7.20825 -2.7076 0
M  V30 4640 C 774.055 7.45864 -1.40599 0
M  V30 4641 O 774.265 6.17651 -0.734225 0
M  V30 4642 C 775.455 8.05808 -1.51899 0
M  V30 4643 O 775.845 8.74358 -0.335205 0
M  V30 4644 C 776.335 6.83093 -1.70294 0
M  V30 4645 C 775.625 5.79992 -0.836974 0
M  V30 4646 N 775.675 4.41864 -1.38293 0
M  V30 4647 C 775.595 3.99538 -2.69438 0
M  V30 4648 N 775.675 2.69909 -2.84277 0
M  V30 4649 C 775.815 2.21719 -1.5408 0
M  V30 4650 C 775.945 0.891712 -1.06628 0
M  V30 4651 O 775.965 -0.161298 -1.70137 0
M  V30 4652 N 776.065 0.856846 0.334985 0
M  V30 4653 C 776.065 1.9641 1.15789 0
M  V30 4654 N 776.195 1.72708 2.46522 0
M  V30 4655 N 775.935 3.21165 0.713741 0
M  V30 4656 C 775.815 3.26797 -0.639748 0
M  V30 4657 H 772.836 8.13644 -3.0377 0
M  V30 4658 H 772.566 6.42788 -2.55485 0
M  V30 4659 H 773.433 8.12039 -0.792769 0
M  V30 4660 H 776.088 5.80061 0.166416 0
M  V30 4661 H 776.367 6.51287 -2.75604 0
M  V30 4662 H 777.359 7.01734 -1.34462 0
M  V30 4663 H 775.525 8.73674 -2.38337 0
M  V30 4664 H 775.476 4.68207 -3.53221 0
M  V30 4665 H 776.158 -0.0398818 0.767965 0
M  V30 4666 H 776.195 2.50995 3.13503 0
M  V30 4667 H 776.296 0.759148 2.80716 0
M  V30 4668 P 777.395 8.91 5.45772e-12 0
M  V30 4669 O 777.615 10.1726 0.733694 0
M  V30 4670 O 778.185 8.73148 -1.23936 0
M  V30 4671 O 777.645 7.66872 0.971405 0
M  V30 4672 C 776.705 7.42309 2.04641 0
M  V30 4673 C 777.435 6.86059 3.24661 0
M  V30 4674 O 777.645 5.42847 3.03646 0
M  V30 4675 C 778.835 7.41196 3.50753 0
M  V30 4676 O 779.225 7.27073 4.86816 0
M  V30 4677 C 779.715 6.5273 2.63741 0
M  V30 4678 C 779.005 5.1842 2.73198 0
M  V30 4679 N 779.055 4.38762 1.4784 0
M  V30 4680 H 776.216 8.36803 2.32493 0
M  V30 4681 H 775.946 6.70197 1.71129 0
M  V30 4682 H 776.813 7.03551 4.13168 0
M  V30 4683 P 780.775 7.20834 5.23717 0
M  V30 4684 O 780.995 7.79853 6.57286 0
M  V30 4685 O 781.565 7.79239 4.12957 0
M  V30 4686 O 781.025 5.63315 5.29344 0
M  V30 4687 C 780.085 4.80255 6.01876 0
M  V30 4688 C 780.815 3.64202 6.65911 0
M  V30 4689 O 781.025 2.60694 5.64732 0
M  V30 4690 C 782.215 3.93473 7.1943 0
M  V30 4691 O 782.605 3.02071 8.21205 0
M  V30 4692 C 783.095 3.73047 5.97036 0
M  V30 4693 C 782.385 2.58828 5.25741 0
M  V30 4694 N 782.435 2.68068 3.77503 0
M  V30 4695 H 779.596 5.40332 6.79951 0
M  V30 4696 H 779.326 4.41613 5.32378 0
M  V30 4697 H 780.193 3.26331 7.47797 0
M  V30 4698 P 784.155 2.75334 8.47391 0
M  V30 4699 O 784.375 2.44571 9.90142 0
M  V30 4700 O 784.945 3.87688 7.92115 0
M  V30 4701 O 784.405 1.4459 7.59357 0
M  V30 4702 C 783.465 0.347608 7.69215 0
M  V30 4703 C 784.195 -0.96767 7.52806 0
M  V30 4704 O 784.405 -1.21036 6.1011 0
M  V30 4705 C 785.595 -1.04544 8.13308 0
M  V30 4706 O 785.985 -2.38311 8.41922 0
M  V30 4707 C 786.475 -0.491279 7.02284 0
M  V30 4708 C 785.765 -0.996264 5.77469 0
M  V30 4709 N 785.815 -0.0501916 4.62973 0
M  V30 4710 C 785.735 1.32786 4.63244 0
M  V30 4711 N 785.815 1.86957 3.44545 0
M  V30 4712 C 785.955 0.780241 2.58481 0
M  V30 4713 C 786.085 0.738536 1.17757 0
M  V30 4714 O 786.105 1.66794 0.372349 0
M  V30 4715 N 786.205 -0.58337 0.711393 0
M  V30 4716 C 786.205 -1.70816 1.51017 0
M  V30 4717 N 786.335 -2.87826 0.880757 0
M  V30 4718 N 786.075 -1.67126 2.8339 0
M  V30 4719 C 785.955 -0.401421 3.30572 0
M  V30 4720 H 782.976 0.374722 8.67691 0
M  V30 4721 H 782.706 0.443485 6.90277 0
M  V30 4722 H 783.573 -1.75537 7.96793 0
M  V30 4723 H 786.228 -1.95076 5.46529 0
M  V30 4724 H 786.507 0.608565 7.04577 0
M  V30 4725 H 787.499 -0.889672 7.08939 0
M  V30 4726 H 785.665 -0.43308 9.04564 0
M  V30 4727 H 785.616 1.91249 5.54442 0
M  V30 4728 H 786.298 -0.718054 -0.275244 0
M  V30 4729 H 786.335 -3.75721 1.41832 0
M  V30 4730 H 786.436 -2.90436 -0.145468 0
M  V30 4731 P 787.535 -2.75334 8.47391 0
M  V30 4732 O 787.755 -3.84166 9.4489 0
M  V30 4733 O 788.325 -1.51964 8.6881 0
M  V30 4734 O 787.785 -3.29363 6.99321 0
M  V30 4735 C 786.845 -4.23956 6.42656 0
M  V30 4736 C 787.575 -5.20775 5.52155 0
M  V30 4737 O 787.785 -4.56534 4.22446 0
M  V30 4738 C 788.975 -5.62629 5.96531 0
M  V30 4739 O 789.365 -6.87667 5.41053 0
M  V30 4740 C 789.855 -4.52537 5.39283 0
M  V30 4741 C 789.145 -4.20027 4.08623 0
M  V30 4742 N 789.195 -2.7613 3.71522 0
M  V30 4743 C 789.345 -2.45612 2.37989 0
M  V30 4744 O 789.435 -3.30919 1.51621 0
M  V30 4745 N 789.385 -1.10684 2.08435 0
M  V30 4746 C 789.295 -0.0690084 2.9792 0
M  V30 4747 C 789.145 -0.481522 4.35345 0
M  V30 4748 C 789.095 -1.78906 4.67968 0
M  V30 4749 H 786.355 -4.797 7.24003 0
M  V30 4750 H 786.086 -3.69802 5.84429 0
M  V30 4751 H 786.953 -6.10356 5.41441 0
M  V30 4752 H 789.608 -4.78651 3.27911 0
M  V30 4753 H 789.887 -3.64957 6.05871 0
M  V30 4754 H 790.879 -4.8868 5.2125 0
M  V30 4755 H 789.045 -5.66726 7.06352 0
M  V30 4756 H 788.974 -2.07737 5.72367 0
M  V30 4757 P 790.915 -7.20834 5.23717 0
M  V30 4758 O 791.135 -8.66104 5.38572 0
M  V30 4759 O 791.705 -6.33544 6.1349 0
M  V30 4760 O 791.165 -6.7751 3.72168 0
M  V30 4761 C 790.225 -7.20825 2.7076 0
M  V30 4762 C 790.955 -7.45864 1.40599 0
M  V30 4763 O 791.165 -6.17651 0.734225 0
M  V30 4764 C 792.355 -8.05808 1.51899 0
M  V30 4765 O 792.745 -8.74358 0.335205 0
M  V30 4766 C 793.235 -6.83093 1.70294 0
M  V30 4767 C 792.525 -5.79992 0.836974 0
M  V30 4768 N 792.575 -4.41864 1.38293 0
M  V30 4769 C 792.495 -3.99538 2.69438 0
M  V30 4770 N 792.575 -2.69909 2.84277 0
M  V30 4771 C 792.715 -2.21719 1.5408 0
M  V30 4772 C 792.845 -0.891712 1.06628 0
M  V30 4773 O 792.865 0.161298 1.70137 0
M  V30 4774 N 792.965 -0.856846 -0.334985 0
M  V30 4775 C 792.965 -1.9641 -1.15789 0
M  V30 4776 N 793.095 -1.72708 -2.46522 0
M  V30 4777 N 792.835 -3.21165 -0.713741 0
M  V30 4778 C 792.715 -3.26797 0.639748 0
M  V30 4779 H 789.736 -8.13644 3.0377 0
M  V30 4780 H 789.466 -6.42788 2.55485 0
M  V30 4781 H 790.333 -8.12039 0.792769 0
M  V30 4782 H 792.988 -5.80061 -0.166416 0
M  V30 4783 H 793.267 -6.51287 2.75604 0
M  V30 4784 H 794.259 -7.01734 1.34462 0
M  V30 4785 H 792.425 -8.73674 2.38337 0
M  V30 4786 H 792.376 -4.68207 3.53221 0
M  V30 4787 H 793.058 0.0398818 -0.767965 0
M  V30 4788 H 793.095 -2.50995 -3.13503 0
M  V30 4789 H 793.196 -0.759148 -2.80716 0
M  V30 4790 P 794.295 -8.91 -5.6149e-12 0
M  V30 4791 O 794.515 -10.1726 -0.733694 0
M  V30 4792 O 795.085 -8.73148 1.23936 0
M  V30 4793 O 794.545 -7.66872 -0.971405 0
M  V30 4794 C 793.605 -7.42309 -2.04641 0
M  V30 4795 C 794.335 -6.86059 -3.24661 0
M  V30 4796 O 794.545 -5.42847 -3.03646 0
M  V30 4797 C 795.735 -7.41196 -3.50753 0
M  V30 4798 O 796.125 -7.27073 -4.86816 0
M  V30 4799 C 796.615 -6.5273 -2.63741 0
M  V30 4800 C 795.905 -5.1842 -2.73198 0
M  V30 4801 N 795.955 -4.38762 -1.4784 0
M  V30 4802 H 793.116 -8.36803 -2.32493 0
M  V30 4803 H 792.846 -6.70197 -1.71129 0
M  V30 4804 H 793.713 -7.03551 -4.13168 0
M  V30 4805 P 797.675 -7.20834 -5.23717 0
M  V30 4806 O 797.895 -7.79853 -6.57286 0
M  V30 4807 O 798.465 -7.79239 -4.12957 0
M  V30 4808 O 797.925 -5.63315 -5.29344 0
M  V30 4809 C 796.985 -4.80255 -6.01876 0
M  V30 4810 C 797.715 -3.64202 -6.65911 0
M  V30 4811 O 797.925 -2.60694 -5.64732 0
M  V30 4812 C 799.115 -3.93473 -7.1943 0
M  V30 4813 O 799.505 -3.02071 -8.21205 0
M  V30 4814 C 799.995 -3.73047 -5.97036 0
M  V30 4815 C 799.285 -2.58828 -5.25741 0
M  V30 4816 N 799.335 -2.68068 -3.77503 0
M  V30 4817 C 799.255 -3.79715 -2.96723 0
M  V30 4818 N 799.335 -3.5377 -1.68852 0
M  V30 4819 C 799.475 -2.15054 -1.63254 0
M  V30 4820 C 799.605 -1.28964 -0.518571 0
M  V30 4821 O 799.625 -1.56826 0.679156 0
M  V30 4822 N 799.725 0.0538097 -0.918425 0
M  V30 4823 C 799.725 0.494275 -2.22578 0
M  V30 4824 N 799.855 1.81086 -2.40434 0
M  V30 4825 N 799.595 -0.313645 -3.27502 0
M  V30 4826 C 799.475 -1.61829 -2.91033 0
M  V30 4827 H 796.496 -5.40332 -6.79951 0
M  V30 4828 H 796.226 -4.41613 -5.32378 0
M  V30 4829 H 797.093 -3.26331 -7.47797 0
M  V30 4830 H 799.748 -1.63422 -5.56814 0
M  V30 4831 H 800.027 -4.63374 -5.34244 0
M  V30 4832 H 801.019 -3.44728 -6.25838 0
M  V30 4833 H 799.185 -4.96652 -7.57263 0
M  V30 4834 H 799.136 -4.80617 -3.3614 0
M  V30 4835 H 799.818 0.742702 -0.199384 0
M  V30 4836 H 799.855 2.20598 -3.35588 0
M  V30 4837 H 799.956 2.43518 -1.58945 0
M  V30 4838 P 801.055 -2.75334 -8.47391 0
M  V30 4839 O 801.275 -2.44571 -9.90142 0
M  V30 4840 O 801.845 -3.87688 -7.92115 0
M  V30 4841 O 801.305 -1.4459 -7.59357 0
M  V30 4842 C 800.365 -0.347608 -7.69215 0
M  V30 4843 C 801.095 0.96767 -7.52806 0
M  V30 4844 O 801.305 1.21036 -6.1011 0
M  V30 4845 C 802.495 1.04544 -8.13308 0
M  V30 4846 O 802.885 2.38311 -8.41922 0
M  V30 4847 C 803.375 0.491279 -7.02284 0
M  V30 4848 C 802.665 0.996264 -5.77469 0
M  V30 4849 N 802.715 0.0501916 -4.62973 0
M  V30 4850 C 802.635 -1.32786 -4.63244 0
M  V30 4851 N 802.715 -1.86957 -3.44545 0
M  V30 4852 C 802.855 -0.780241 -2.58481 0
M  V30 4853 C 802.985 -0.738536 -1.17757 0
M  V30 4854 N 803.105 0.58337 -0.711393 0
M  V30 4855 C 803.105 1.70816 -1.51017 0
M  V30 4856 N 803.235 2.87826 -0.880757 0
M  V30 4857 N 802.975 1.67126 -2.8339 0
M  V30 4858 C 802.855 0.401421 -3.30572 0
M  V30 4859 H 799.876 -0.374722 -8.67691 0
M  V30 4860 H 799.606 -0.443485 -6.90277 0
M  V30 4861 H 800.473 1.75537 -7.96793 0
M  V30 4862 P 804.435 2.75334 -8.47391 0
M  V30 4863 O 804.655 3.84128 -9.44797 0
M  V30 4864 O 805.225 1.51947 -8.68712 0
M  V30 4865 O 804.685 3.29363 -6.99321 0
M  V30 4866 C 803.745 4.24011 -6.4274 0
M  V30 4867 C 804.475 5.20775 -5.52155 0
M  V30 4868 O 804.685 4.56534 -4.22446 0
M  V30 4869 C 805.875 5.62629 -5.96531 0
M  V30 4870 O 806.265 6.87667 -5.41053 0
M  V30 4871 C 806.755 4.52537 -5.39283 0
M  V30 4872 C 806.045 4.20027 -4.08623 0
M  V30 4873 N 806.095 2.76189 -3.71603 0
M  V30 4874 C 806.015 1.64862 -4.52822 0
M  V30 4875 N 806.095 0.512671 -3.88633 0
M  V30 4876 C 806.235 0.888083 -2.54977 0
M  V30 4877 C 806.365 0.094668 -1.38677 0
M  V30 4878 O 806.385 -1.13053 -1.28163 0
M  V30 4879 N 806.485 0.890102 -0.232633 0
M  V30 4880 C 806.485 2.26958 -0.21772 0
M  V30 4881 N 806.615 2.84626 0.97925 0
M  V30 4882 N 806.355 3.0178 -1.31033 0
M  V30 4883 C 806.235 2.26781 -2.43843 0
M  V30 4884 H 803.256 4.797 -7.24003 0
M  V30 4885 H 802.986 3.69856 -5.84513 0
M  V30 4886 H 803.853 6.10356 -5.41441 0
M  V30 4887 H 806.508 4.79061 -3.27488 0
M  V30 4888 H 806.787 3.64906 -6.05785 0
M  V30 4889 H 807.779 4.8868 -5.2125 0
M  V30 4890 H 805.945 5.66726 -7.06352 0
M  V30 4891 H 805.896 1.71169 -5.60966 0
M  V30 4892 H 806.578 0.419134 0.644739 0
M  V30 4893 H 806.615 3.87332 1.06098 0
M  V30 4894 H 806.716 2.26417 1.82483 0
M  V30 4895 P 807.815 7.20834 -5.23717 0
M  V30 4896 O 808.035 8.66104 -5.38572 0
M  V30 4897 O 808.605 6.33544 -6.1349 0
M  V30 4898 O 808.065 6.7751 -3.72168 0
M  V30 4899 C 807.125 7.20825 -2.7076 0
M  V30 4900 C 807.855 7.45864 -1.40599 0
M  V30 4901 O 808.065 6.17651 -0.734225 0
M  V30 4902 C 809.255 8.05808 -1.51899 0
M  V30 4903 O 809.645 8.74358 -0.335205 0
M  V30 4904 C 810.135 6.83093 -1.70294 0
M  V30 4905 C 809.425 5.79992 -0.836974 0
M  V30 4906 N 809.475 4.41864 -1.38293 0
M  V30 4907 H 806.636 8.13644 -3.0377 0
M  V30 4908 H 806.366 6.42788 -2.55485 0
M  V30 4909 H 807.233 8.12039 -0.792769 0
M  V30 4910 P 811.195 8.91 5.77209e-12 0
M  V30 4911 O 811.415 10.1726 0.733694 0
M  V30 4912 O 811.985 8.73148 -1.23936 0
M  V30 4913 O 811.445 7.66872 0.971405 0
M  V30 4914 C 810.505 7.42309 2.04641 0
M  V30 4915 C 811.235 6.86059 3.24661 0
M  V30 4916 O 811.445 5.42847 3.03646 0
M  V30 4917 C 812.635 7.41196 3.50753 0
M  V30 4918 O 813.025 7.27073 4.86816 0
M  V30 4919 C 813.515 6.5273 2.63741 0
M  V30 4920 C 812.805 5.1842 2.73198 0
M  V30 4921 N 812.855 4.38762 1.4784 0
M  V30 4922 C 812.775 4.81605 0.168631 0
M  V30 4923 N 812.855 3.85454 -0.713363 0
M  V30 4924 C 812.995 2.6994 0.0566958 0
M  V30 4925 C 813.125 1.34815 -0.338502 0
M  V30 4926 O 813.145 0.869548 -1.47125 0
M  V30 4927 N 813.245 0.496304 0.77465 0
M  V30 4928 C 813.245 0.908403 2.09122 0
M  V30 4929 N 813.375 -0.0517805 3.00955 0
M  V30 4930 N 813.115 2.17875 2.46519 0
M  V30 4931 C 812.995 3.01988 1.4033 0
M  V30 4932 H 810.016 8.36803 2.32493 0
M  V30 4933 H 809.746 6.70197 1.71129 0
M  V30 4934 H 810.613 7.03551 4.13168 0
M  V30 4935 H 813.268 4.59498 3.54415 0
M  V30 4936 H 813.547 6.88898 1.59848 0
M  V30 4937 H 814.539 6.46749 3.03687 0
M  V30 4938 H 812.705 8.46908 3.20714 0
M  V30 4939 H 812.656 5.86405 -0.105564 0
M  V30 4940 H 813.338 -0.483664 0.597855 0
M  V30 4941 H 813.375 0.187865 4.0116 0
M  V30 4942 H 813.476 -1.03585 2.71726 0
M  V30 4943 P 814.575 7.20834 5.23717 0
M  V30 4944 O 814.795 7.79853 6.57286 0
M  V30 4945 O 815.365 7.79239 4.12957 0
M  V30 4946 O 814.825 5.63315 5.29344 0
M  V30 4947 C 813.885 4.80255 6.01876 0
M  V30 4948 C 814.615 3.64202 6.65911 0
M  V30 4949 O 814.825 2.60694 5.64732 0
M  V30 4950 C 816.015 3.93473 7.1943 0
M  V30 4951 O 816.405 3.02071 8.21205 0
M  V30 4952 C 816.895 3.73047 5.97036 0
M  V30 4953 C 816.185 2.58828 5.25741 0
M  V30 4954 N 816.235 2.68068 3.77503 0
M  V30 4955 H 813.396 5.40332 6.79951 0
M  V30 4956 H 813.126 4.41613 5.32378 0
M  V30 4957 H 813.993 3.26331 7.47797 0
M  V30 4958 P 817.955 2.75334 8.47391 0
M  V30 4959 O 818.175 2.44571 9.90142 0
M  V30 4960 O 818.745 3.87688 7.92115 0
M  V30 4961 O 818.205 1.4459 7.59357 0
M  V30 4962 C 817.265 0.347608 7.69215 0
M  V30 4963 C 817.995 -0.96767 7.52806 0
M  V30 4964 O 818.205 -1.21036 6.1011 0
M  V30 4965 C 819.395 -1.04544 8.13308 0
M  V30 4966 O 819.785 -2.38311 8.41922 0
M  V30 4967 C 820.275 -0.491279 7.02284 0
M  V30 4968 C 819.565 -0.996264 5.77469 0
M  V30 4969 N 819.615 -0.0501916 4.62973 0
M  V30 4970 C 819.535 1.32786 4.63244 0
M  V30 4971 N 819.615 1.86957 3.44545 0
M  V30 4972 C 819.755 0.780241 2.58481 0
M  V30 4973 C 819.885 0.738536 1.17757 0
M  V30 4974 O 819.905 1.66794 0.372349 0
M  V30 4975 N 820.005 -0.58337 0.711393 0
M  V30 4976 C 820.005 -1.70816 1.51017 0
M  V30 4977 N 820.135 -2.87826 0.880757 0
M  V30 4978 N 819.875 -1.67126 2.8339 0
M  V30 4979 C 819.755 -0.401421 3.30572 0
M  V30 4980 H 816.776 0.374722 8.67691 0
M  V30 4981 H 816.506 0.443485 6.90277 0
M  V30 4982 H 817.373 -1.75537 7.96793 0
M  V30 4983 H 820.028 -1.95076 5.46529 0
M  V30 4984 H 820.307 0.608565 7.04577 0
M  V30 4985 H 821.299 -0.889672 7.08939 0
M  V30 4986 H 819.465 -0.43308 9.04564 0
M  V30 4987 H 819.416 1.91249 5.54442 0
M  V30 4988 H 820.098 -0.718054 -0.275244 0
M  V30 4989 H 820.135 -3.75721 1.41832 0
M  V30 4990 H 820.236 -2.90436 -0.145468 0
M  V30 4991 P 821.335 -2.75334 8.47391 0
M  V30 4992 O 821.555 -3.84166 9.4489 0
M  V30 4993 O 822.125 -1.51964 8.6881 0
M  V30 4994 O 821.585 -3.29363 6.99321 0
M  V30 4995 C 820.645 -4.23956 6.42656 0
M  V30 4996 C 821.375 -5.20775 5.52155 0
M  V30 4997 O 821.585 -4.56534 4.22446 0
M  V30 4998 C 822.775 -5.62629 5.96531 0
M  V30 4999 O 823.165 -6.87667 5.41053 0
M  V30 5000 C 823.655 -4.52537 5.39283 0
M  V30 5001 C 822.945 -4.20027 4.08623 0
M  V30 5002 N 822.995 -2.7613 3.71522 0
M  V30 5003 C 823.145 -2.45612 2.37989 0
M  V30 5004 O 823.235 -3.30919 1.51621 0
M  V30 5005 N 823.185 -1.10684 2.08435 0
M  V30 5006 C 823.095 -0.0690084 2.9792 0
M  V30 5007 C 822.945 -0.481522 4.35345 0
M  V30 5008 C 822.895 -1.78906 4.67968 0
M  V30 5009 H 820.155 -4.797 7.24003 0
M  V30 5010 H 819.886 -3.69802 5.84429 0
M  V30 5011 H 820.753 -6.10356 5.41441 0
M  V30 5012 H 823.408 -4.78651 3.27911 0
M  V30 5013 H 823.687 -3.64957 6.05871 0
M  V30 5014 H 824.679 -4.8868 5.2125 0
M  V30 5015 H 822.845 -5.66726 7.06352 0
M  V30 5016 H 822.774 -2.07737 5.72367 0
M  V30 5017 P 824.715 -7.20834 5.23717 0
M  V30 5018 O 824.935 -8.66104 5.38572 0
M  V30 5019 O 825.505 -6.33544 6.1349 0
M  V30 5020 O 824.965 -6.7751 3.72168 0
M  V30 5021 C 824.025 -7.20825 2.7076 0
M  V30 5022 C 824.755 -7.45864 1.40599 0
M  V30 5023 O 824.965 -6.17651 0.734225 0
M  V30 5024 C 826.155 -8.05808 1.51899 0
M  V30 5025 O 826.545 -8.74358 0.335205 0
M  V30 5026 C 827.035 -6.83093 1.70294 0
M  V30 5027 C 826.325 -5.79992 0.836974 0
M  V30 5028 N 826.375 -4.41864 1.38293 0
M  V30 5029 H 823.536 -8.13644 3.0377 0
M  V30 5030 H 823.266 -6.42788 2.55485 0
M  V30 5031 H 824.133 -8.12039 0.792769 0
M  V30 5032 P 828.095 -8.91 -5.92927e-12 0
M  V30 5033 O 828.315 -10.1726 -0.733694 0
M  V30 5034 O 828.885 -8.73148 1.23936 0
M  V30 5035 O 828.345 -7.66872 -0.971405 0
M  V30 5036 C 827.405 -7.42309 -2.04641 0
M  V30 5037 C 828.135 -6.86059 -3.24661 0
M  V30 5038 O 828.345 -5.42847 -3.03646 0
M  V30 5039 C 829.535 -7.41196 -3.50753 0
M  V30 5040 O 829.925 -7.27073 -4.86816 0
M  V30 5041 C 830.415 -6.5273 -2.63741 0
M  V30 5042 C 829.705 -5.1842 -2.73198 0
M  V30 5043 N 829.755 -4.38762 -1.4784 0
M  V30 5044 C 829.675 -4.81605 -0.168631 0
M  V30 5045 N 829.755 -3.85454 0.713363 0
M  V30 5046 C 829.895 -2.6994 -0.0566958 0
M  V30 5047 C 830.025 -1.34815 0.338502 0
M  V30 5048 O 830.045 -0.869548 1.47125 0
M  V30 5049 N 830.145 -0.496304 -0.77465 0
M  V30 5050 C 830.145 -0.908403 -2.09122 0
M  V30 5051 N 830.275 0.0517805 -3.00955 0
M  V30 5052 N 830.015 -2.17875 -2.46519 0
M  V30 5053 C 829.895 -3.01988 -1.4033 0
M  V30 5054 H 826.916 -8.36803 -2.32493 0
M  V30 5055 H 826.646 -6.70197 -1.71129 0
M  V30 5056 H 827.513 -7.03551 -4.13168 0
M  V30 5057 H 830.168 -4.59498 -3.54415 0
M  V30 5058 H 830.447 -6.88898 -1.59848 0
M  V30 5059 H 831.439 -6.46749 -3.03687 0
M  V30 5060 H 829.605 -8.46908 -3.20714 0
M  V30 5061 H 829.556 -5.86405 0.105564 0
M  V30 5062 H 830.238 0.483664 -0.597855 0
M  V30 5063 H 830.275 -0.187865 -4.0116 0
M  V30 5064 H 830.376 1.03585 -2.71726 0
M  V30 5065 P 831.475 -7.20834 -5.23717 0
M  V30 5066 O 831.695 -7.7993 -6.57351 0
M  V30 5067 O 832.265 -7.79328 -4.13004 0
M  V30 5068 O 831.725 -5.63315 -5.29344 0
M  V30 5069 C 830.785 -4.80193 -6.01798 0
M  V30 5070 C 831.515 -3.64202 -6.65911 0
M  V30 5071 O 831.725 -2.60694 -5.64732 0
M  V30 5072 C 832.915 -3.93473 -7.1943 0
M  V30 5073 O 833.305 -3.02071 -8.21205 0
M  V30 5074 C 833.795 -3.73047 -5.97036 0
M  V30 5075 C 833.085 -2.58828 -5.25741 0
M  V30 5076 N 833.135 -2.6801 -3.77422 0
M  V30 5077 C 833.285 -1.50443 -3.07133 0
M  V30 5078 O 833.375 -0.419406 -3.61576 0
M  V30 5079 N 833.325 -1.6403 -1.69677 0
M  V30 5080 C 833.235 -2.81206 -0.986255 0
M  V30 5081 C 833.085 -3.99158 -1.80325 0
M  V30 5082 C 833.035 -3.89779 -3.1476 0
M  V30 5083 H 830.295 -5.40332 -6.79951 0
M  V30 5084 H 830.026 -4.41549 -5.32301 0
M  V30 5085 H 830.893 -3.26331 -7.47797 0
M  V30 5086 H 833.548 -1.6395 -5.56554 0
M  V30 5087 H 833.827 -4.63439 -5.3432 0
M  V30 5088 H 834.819 -3.44728 -6.25838 0
M  V30 5089 H 832.985 -4.96652 -7.57263 0
M  V30 5090 H 832.914 -4.80159 -3.74441 0
M  V30 5091 P 834.855 -2.75334 -8.47391 0
M  V30 5092 O 835.075 -2.44571 -9.90142 0
M  V30 5093 O 835.645 -3.87688 -7.92115 0
M  V30 5094 O 835.105 -1.4459 -7.59357 0
M  V30 5095 C 834.165 -0.347608 -7.69215 0
M  V30 5096 C 834.895 0.96767 -7.52806 0
M  V30 5097 O 835.105 1.21036 -6.1011 0
M  V30 5098 C 836.295 1.04544 -8.13308 0
M  V30 5099 O 836.685 2.38311 -8.41922 0
M  V30 5100 C 837.175 0.491279 -7.02284 0
M  V30 5101 C 836.465 0.996264 -5.77469 0
M  V30 5102 N 836.515 0.0501916 -4.62973 0
M  V30 5103 C 836.435 -1.32786 -4.63244 0
M  V30 5104 N 836.515 -1.86957 -3.44545 0
M  V30 5105 C 836.655 -0.780241 -2.58481 0
M  V30 5106 C 836.785 -0.738536 -1.17757 0
M  V30 5107 O 836.805 -1.66794 -0.372349 0
M  V30 5108 N 836.905 0.58337 -0.711393 0
M  V30 5109 C 836.905 1.70816 -1.51017 0
M  V30 5110 N 837.035 2.87826 -0.880757 0
M  V30 5111 N 836.775 1.67126 -2.8339 0
M  V30 5112 C 836.655 0.401421 -3.30572 0
M  V30 5113 H 833.676 -0.374722 -8.67691 0
M  V30 5114 H 833.406 -0.443485 -6.90277 0
M  V30 5115 H 834.273 1.75537 -7.96793 0
M  V30 5116 H 836.928 1.95076 -5.46529 0
M  V30 5117 H 837.207 -0.608565 -7.04577 0
M  V30 5118 H 838.199 0.889672 -7.08939 0
M  V30 5119 H 836.365 0.43308 -9.04564 0
M  V30 5120 H 836.316 -1.91249 -5.54442 0
M  V30 5121 H 836.998 0.718054 0.275244 0
M  V30 5122 H 837.035 3.75721 -1.41832 0
M  V30 5123 H 837.136 2.90436 0.145468 0
M  V30 5124 P 838.235 2.75334 -8.47391 0
M  V30 5125 O 838.455 3.84128 -9.44797 0
M  V30 5126 O 839.025 1.51947 -8.68712 0
M  V30 5127 O 838.485 3.29363 -6.99321 0
M  V30 5128 C 837.545 4.24011 -6.4274 0
M  V30 5129 C 838.275 5.20775 -5.52155 0
M  V30 5130 O 838.485 4.56534 -4.22446 0
M  V30 5131 C 839.675 5.62629 -5.96531 0
M  V30 5132 O 840.065 6.87667 -5.41053 0
M  V30 5133 C 840.555 4.52537 -5.39283 0
M  V30 5134 C 839.845 4.20027 -4.08623 0
M  V30 5135 N 839.895 2.76189 -3.71603 0
M  V30 5136 C 839.815 1.64862 -4.52822 0
M  V30 5137 N 839.895 0.512671 -3.88633 0
M  V30 5138 C 840.035 0.888083 -2.54977 0
M  V30 5139 C 840.165 0.094668 -1.38677 0
M  V30 5140 O 840.185 -1.13053 -1.28163 0
M  V30 5141 N 840.285 0.890102 -0.232633 0
M  V30 5142 C 840.285 2.26958 -0.21772 0
M  V30 5143 N 840.415 2.84626 0.97925 0
M  V30 5144 N 840.155 3.0178 -1.31033 0
M  V30 5145 C 840.035 2.26781 -2.43843 0
M  V30 5146 H 837.056 4.797 -7.24003 0
M  V30 5147 H 836.786 3.69856 -5.84513 0
M  V30 5148 H 837.653 6.10356 -5.41441 0
M  V30 5149 H 840.308 4.79061 -3.27488 0
M  V30 5150 H 840.587 3.64906 -6.05785 0
M  V30 5151 H 841.579 4.8868 -5.2125 0
M  V30 5152 H 839.745 5.66726 -7.06352 0
M  V30 5153 H 839.696 1.71169 -5.60966 0
M  V30 5154 H 840.378 0.419134 0.644739 0
M  V30 5155 H 840.415 3.87332 1.06098 0
M  V30 5156 H 840.516 2.26417 1.82483 0
M  V30 5157 P 841.615 7.20834 -5.23717 0
M  V30 5158 O 841.835 8.66104 -5.38572 0
M  V30 5159 O 842.405 6.33544 -6.1349 0
M  V30 5160 O 841.865 6.7751 -3.72168 0
M  V30 5161 C 840.925 7.20825 -2.7076 0
M  V30 5162 C 841.655 7.45864 -1.40599 0
M  V30 5163 O 841.865 6.17651 -0.734225 0
M  V30 5164 C 843.055 8.05808 -1.51899 0
M  V30 5165 O 843.445 8.74358 -0.335205 0
M  V30 5166 C 843.935 6.83093 -1.70294 0
M  V30 5167 C 843.225 5.79992 -0.836974 0
M  V30 5168 N 843.275 4.41864 -1.38293 0
M  V30 5169 C 843.195 3.99538 -2.69438 0
M  V30 5170 N 843.275 2.69909 -2.84277 0
M  V30 5171 C 843.415 2.21719 -1.5408 0
M  V30 5172 C 843.545 0.891712 -1.06628 0
M  V30 5173 O 843.565 -0.161298 -1.70137 0
M  V30 5174 N 843.665 0.856846 0.334985 0
M  V30 5175 C 843.665 1.9641 1.15789 0
M  V30 5176 N 843.795 1.72708 2.46522 0
M  V30 5177 N 843.535 3.21165 0.713741 0
M  V30 5178 C 843.415 3.26797 -0.639748 0
M  V30 5179 H 840.436 8.13644 -3.0377 0
M  V30 5180 H 840.166 6.42788 -2.55485 0
M  V30 5181 H 841.033 8.12039 -0.792769 0
M  V30 5182 H 843.688 5.80061 0.166416 0
M  V30 5183 H 843.967 6.51287 -2.75604 0
M  V30 5184 H 844.959 7.01734 -1.34462 0
M  V30 5185 H 843.125 8.73674 -2.38337 0
M  V30 5186 H 843.076 4.68207 -3.53221 0
M  V30 5187 H 843.758 -0.0398818 0.767965 0
M  V30 5188 H 843.795 2.50995 3.13503 0
M  V30 5189 H 843.896 0.759148 2.80716 0
M  V30 5190 P 844.995 8.91 6.08645e-12 0
M  V30 5191 O 845.215 10.1726 0.733694 0
M  V30 5192 O 845.785 8.73148 -1.23936 0
M  V30 5193 O 845.245 7.66872 0.971405 0
M  V30 5194 C 844.305 7.42309 2.04641 0
M  V30 5195 C 845.035 6.86059 3.24661 0
M  V30 5196 O 845.245 5.42847 3.03646 0
M  V30 5197 C 846.435 7.41196 3.50753 0
M  V30 5198 O 846.825 7.27073 4.86816 0
M  V30 5199 C 847.315 6.5273 2.63741 0
M  V30 5200 C 846.605 5.1842 2.73198 0
M  V30 5201 N 846.655 4.38762 1.4784 0
M  V30 5202 H 843.816 8.36803 2.32493 0
M  V30 5203 H 843.546 6.70197 1.71129 0
M  V30 5204 H 844.413 7.03551 4.13168 0
M  V30 5205 P 848.375 7.20834 5.23717 0
M  V30 5206 O 848.595 7.79853 6.57286 0
M  V30 5207 O 849.165 7.79239 4.12957 0
M  V30 5208 O 848.625 5.63315 5.29344 0
M  V30 5209 C 847.685 4.80255 6.01876 0
M  V30 5210 C 848.415 3.64202 6.65911 0
M  V30 5211 O 848.625 2.60694 5.64732 0
M  V30 5212 C 849.815 3.93473 7.1943 0
M  V30 5213 O 850.205 3.02071 8.21205 0
M  V30 5214 C 850.695 3.73047 5.97036 0
M  V30 5215 C 849.985 2.58828 5.25741 0
M  V30 5216 N 850.035 2.68068 3.77503 0
M  V30 5217 C 849.955 3.79715 2.96723 0
M  V30 5218 N 850.035 3.5377 1.68852 0
M  V30 5219 C 850.175 2.15054 1.63254 0
M  V30 5220 C 850.305 1.28964 0.518571 0
M  V30 5221 O 850.325 1.56826 -0.679156 0
M  V30 5222 N 850.425 -0.0538097 0.918425 0
M  V30 5223 C 850.425 -0.494275 2.22578 0
M  V30 5224 N 850.555 -1.81086 2.40434 0
M  V30 5225 N 850.295 0.313645 3.27502 0
M  V30 5226 C 850.175 1.61829 2.91033 0
M  V30 5227 H 847.196 5.40332 6.79951 0
M  V30 5228 H 846.926 4.41613 5.32378 0
M  V30 5229 H 847.793 3.26331 7.47797 0
M  V30 5230 H 850.448 1.63422 5.56814 0
M  V30 5231 H 850.727 4.63374 5.34244 0
M  V30 5232 H 851.719 3.44728 6.25838 0
M  V30 5233 H 849.885 4.96652 7.57263 0
M  V30 5234 H 849.836 4.80617 3.3614 0
M  V30 5235 H 850.518 -0.742702 0.199384 0
M  V30 5236 H 850.555 -2.20598 3.35588 0
M  V30 5237 H 850.656 -2.43518 1.58945 0
M  V30 5238 P 851.755 2.75334 8.47391 0
M  V30 5239 O 851.975 2.44571 9.90142 0
M  V30 5240 O 852.545 3.87688 7.92115 0
M  V30 5241 O 852.005 1.4459 7.59357 0
M  V30 5242 C 851.065 0.347608 7.69215 0
M  V30 5243 C 851.795 -0.96767 7.52806 0
M  V30 5244 O 852.005 -1.21036 6.1011 0
M  V30 5245 C 853.195 -1.04544 8.13308 0
M  V30 5246 O 853.585 -2.38311 8.41922 0
M  V30 5247 C 854.075 -0.491279 7.02284 0
M  V30 5248 C 853.365 -0.996264 5.77469 0
M  V30 5249 N 853.415 -0.0501916 4.62973 0
M  V30 5250 C 853.335 1.32786 4.63244 0
M  V30 5251 N 853.415 1.86957 3.44545 0
M  V30 5252 C 853.555 0.780241 2.58481 0
M  V30 5253 C 853.685 0.738536 1.17757 0
M  V30 5254 O 853.705 1.66794 0.372349 0
M  V30 5255 N 853.805 -0.58337 0.711393 0
M  V30 5256 C 853.805 -1.70816 1.51017 0
M  V30 5257 N 853.935 -2.87826 0.880757 0
M  V30 5258 N 853.675 -1.67126 2.8339 0
M  V30 5259 C 853.555 -0.401421 3.30572 0
M  V30 5260 H 850.576 0.374722 8.67691 0
M  V30 5261 H 850.306 0.443485 6.90277 0
M  V30 5262 H 851.173 -1.75537 7.96793 0
M  V30 5263 H 853.828 -1.95076 5.46529 0
M  V30 5264 H 854.107 0.608565 7.04577 0
M  V30 5265 H 855.099 -0.889672 7.08939 0
M  V30 5266 H 853.265 -0.43308 9.04564 0
M  V30 5267 H 853.216 1.91249 5.54442 0
M  V30 5268 H 853.898 -0.718054 -0.275244 0
M  V30 5269 H 853.935 -3.75721 1.41832 0
M  V30 5270 H 854.036 -2.90436 -0.145468 0
M  V30 5271 P 855.135 -2.75334 8.47391 0
M  V30 5272 O 855.355 -3.84128 9.44797 0
M  V30 5273 O 855.925 -1.51947 8.68712 0
M  V30 5274 O 855.385 -3.29363 6.99321 0
M  V30 5275 C 854.445 -4.24011 6.4274 0
M  V30 5276 C 855.175 -5.20775 5.52155 0
M  V30 5277 O 855.385 -4.56534 4.22446 0
M  V30 5278 C 856.575 -5.62629 5.96531 0
M  V30 5279 O 856.965 -6.87667 5.41053 0
M  V30 5280 C 857.455 -4.52537 5.39283 0
M  V30 5281 C 856.745 -4.20027 4.08623 0
M  V30 5282 N 856.795 -2.76189 3.71603 0
M  V30 5283 C 856.715 -1.64862 4.52822 0
M  V30 5284 N 856.795 -0.512671 3.88633 0
M  V30 5285 C 856.935 -0.888083 2.54977 0
M  V30 5286 C 857.065 -0.094668 1.38677 0
M  V30 5287 O 857.085 1.13053 1.28163 0
M  V30 5288 N 857.185 -0.890102 0.232633 0
M  V30 5289 C 857.185 -2.26958 0.21772 0
M  V30 5290 N 857.315 -2.84626 -0.97925 0
M  V30 5291 N 857.055 -3.0178 1.31033 0
M  V30 5292 C 856.935 -2.26781 2.43843 0
M  V30 5293 H 853.956 -4.797 7.24003 0
M  V30 5294 H 853.686 -3.69856 5.84513 0
M  V30 5295 H 854.553 -6.10356 5.41441 0
M  V30 5296 H 857.208 -4.79061 3.27488 0
M  V30 5297 H 857.487 -3.64906 6.05785 0
M  V30 5298 H 858.479 -4.8868 5.2125 0
M  V30 5299 H 856.645 -5.66726 7.06352 0
M  V30 5300 H 856.596 -1.71169 5.60966 0
M  V30 5301 H 857.278 -0.419134 -0.644739 0
M  V30 5302 H 857.315 -3.87332 -1.06098 0
M  V30 5303 H 857.416 -2.26417 -1.82483 0
M  V30 5304 P 858.515 -7.20834 5.23717 0
M  V30 5305 O 858.735 -8.66104 5.38572 0
M  V30 5306 O 859.305 -6.33544 6.1349 0
M  V30 5307 O 858.765 -6.7751 3.72168 0
M  V30 5308 C 857.825 -7.20825 2.7076 0
M  V30 5309 C 858.555 -7.45864 1.40599 0
M  V30 5310 O 858.765 -6.17651 0.734225 0
M  V30 5311 C 859.955 -8.05808 1.51899 0
M  V30 5312 O 860.345 -8.74358 0.335205 0
M  V30 5313 C 860.835 -6.83093 1.70294 0
M  V30 5314 C 860.125 -5.79992 0.836974 0
M  V30 5315 N 860.175 -4.41864 1.38293 0
M  V30 5316 H 857.336 -8.13644 3.0377 0
M  V30 5317 H 857.066 -6.42788 2.55485 0
M  V30 5318 H 857.933 -8.12039 0.792769 0
M  V30 5319 P 861.895 -8.91 -6.24363e-12 0
M  V30 5320 O 862.115 -10.1726 -0.733694 0
M  V30 5321 O 862.685 -8.73148 1.23936 0
M  V30 5322 O 862.145 -7.66872 -0.971405 0
M  V30 5323 C 861.205 -7.42309 -2.04641 0
M  V30 5324 C 861.935 -6.86059 -3.24661 0
M  V30 5325 O 862.145 -5.42847 -3.03646 0
M  V30 5326 C 863.335 -7.41196 -3.50753 0
M  V30 5327 O 863.725 -7.27073 -4.86816 0
M  V30 5328 C 864.215 -6.5273 -2.63741 0
M  V30 5329 C 863.505 -5.1842 -2.73198 0
M  V30 5330 N 863.555 -4.38762 -1.4784 0
M  V30 5331 H 860.716 -8.36803 -2.32493 0
M  V30 5332 H 860.446 -6.70197 -1.71129 0
M  V30 5333 H 861.313 -7.03551 -4.13168 0
M  V30 5334 P 865.275 -7.20834 -5.23717 0
M  V30 5335 O 865.495 -7.79853 -6.57286 0
M  V30 5336 O 866.065 -7.79239 -4.12957 0
M  V30 5337 O 865.525 -5.63315 -5.29344 0
M  V30 5338 C 864.585 -4.80255 -6.01876 0
M  V30 5339 C 865.315 -3.64202 -6.65911 0
M  V30 5340 O 865.525 -2.60694 -5.64732 0
M  V30 5341 C 866.715 -3.93473 -7.1943 0
M  V30 5342 O 867.105 -3.02071 -8.21205 0
M  V30 5343 C 867.595 -3.73047 -5.97036 0
M  V30 5344 C 866.885 -2.58828 -5.25741 0
M  V30 5345 N 866.935 -2.68068 -3.77503 0
M  V30 5346 C 866.855 -3.79715 -2.96723 0
M  V30 5347 N 866.935 -3.5377 -1.68852 0
M  V30 5348 C 867.075 -2.15054 -1.63254 0
M  V30 5349 C 867.205 -1.28964 -0.518571 0
M  V30 5350 O 867.225 -1.56826 0.679156 0
M  V30 5351 N 867.325 0.0538097 -0.918425 0
M  V30 5352 C 867.325 0.494275 -2.22578 0
M  V30 5353 N 867.455 1.81086 -2.40434 0
M  V30 5354 N 867.195 -0.313645 -3.27502 0
M  V30 5355 C 867.075 -1.61829 -2.91033 0
M  V30 5356 H 864.096 -5.40332 -6.79951 0
M  V30 5357 H 863.826 -4.41613 -5.32378 0
M  V30 5358 H 864.693 -3.26331 -7.47797 0
M  V30 5359 H 867.348 -1.63422 -5.56814 0
M  V30 5360 H 867.627 -4.63374 -5.34244 0
M  V30 5361 H 868.619 -3.44728 -6.25838 0
M  V30 5362 H 866.785 -4.96652 -7.57263 0
M  V30 5363 H 866.736 -4.80617 -3.3614 0
M  V30 5364 H 867.418 0.742702 -0.199384 0
M  V30 5365 H 867.455 2.20598 -3.35588 0
M  V30 5366 H 867.556 2.43518 -1.58945 0
M  V30 5367 P 868.655 -2.75334 -8.47391 0
M  V30 5368 O 868.875 -2.44571 -9.90142 0
M  V30 5369 O 869.445 -3.87688 -7.92115 0
M  V30 5370 O 868.905 -1.4459 -7.59357 0
M  V30 5371 C 867.965 -0.347608 -7.69215 0
M  V30 5372 C 868.695 0.96767 -7.52806 0
M  V30 5373 O 868.905 1.21036 -6.1011 0
M  V30 5374 C 870.095 1.04544 -8.13308 0
M  V30 5375 O 870.485 2.38311 -8.41922 0
M  V30 5376 C 870.975 0.491279 -7.02284 0
M  V30 5377 C 870.265 0.996264 -5.77469 0
M  V30 5378 N 870.315 0.0501916 -4.62973 0
M  V30 5379 C 870.235 -1.32786 -4.63244 0
M  V30 5380 N 870.315 -1.86957 -3.44545 0
M  V30 5381 C 870.455 -0.780241 -2.58481 0
M  V30 5382 C 870.585 -0.738536 -1.17757 0
M  V30 5383 O 870.605 -1.66794 -0.372349 0
M  V30 5384 N 870.705 0.58337 -0.711393 0
M  V30 5385 C 870.705 1.70816 -1.51017 0
M  V30 5386 N 870.835 2.87826 -0.880757 0
M  V30 5387 N 870.575 1.67126 -2.8339 0
M  V30 5388 C 870.455 0.401421 -3.30572 0
M  V30 5389 H 867.476 -0.374722 -8.67691 0
M  V30 5390 H 867.206 -0.443485 -6.90277 0
M  V30 5391 H 868.073 1.75537 -7.96793 0
M  V30 5392 H 870.728 1.95076 -5.46529 0
M  V30 5393 H 871.007 -0.608565 -7.04577 0
M  V30 5394 H 871.999 0.889672 -7.08939 0
M  V30 5395 H 870.165 0.43308 -9.04564 0
M  V30 5396 H 870.116 -1.91249 -5.54442 0
M  V30 5397 H 870.798 0.718054 0.275244 0
M  V30 5398 H 870.835 3.75721 -1.41832 0
M  V30 5399 H 870.936 2.90436 0.145468 0
M  V30 5400 P 872.035 2.75334 -8.47391 0
M  V30 5401 O 872.255 3.84128 -9.44797 0
M  V30 5402 O 872.825 1.51947 -8.68712 0
M  V30 5403 O 872.285 3.29363 -6.99321 0
M  V30 5404 C 871.345 4.24011 -6.4274 0
M  V30 5405 C 872.075 5.20775 -5.52155 0
M  V30 5406 O 872.285 4.56534 -4.22446 0
M  V30 5407 C 873.475 5.62629 -5.96531 0
M  V30 5408 O 873.865 6.87667 -5.41053 0
M  V30 5409 C 874.355 4.52537 -5.39283 0
M  V30 5410 C 873.645 4.20027 -4.08623 0
M  V30 5411 N 873.695 2.76189 -3.71603 0
M  V30 5412 H 870.856 4.797 -7.24003 0
M  V30 5413 H 870.586 3.69856 -5.84513 0
M  V30 5414 H 871.453 6.10356 -5.41441 0
M  V30 5415 P 875.415 7.20834 -5.23717 0
M  V30 5416 O 875.635 8.66104 -5.38572 0
M  V30 5417 O 876.205 6.33544 -6.1349 0
M  V30 5418 O 875.665 6.7751 -3.72168 0
M  V30 5419 C 874.725 7.20825 -2.7076 0
M  V30 5420 C 875.455 7.45864 -1.40599 0
M  V30 5421 O 875.665 6.17651 -0.734225 0
M  V30 5422 C 876.855 8.05808 -1.51899 0
M  V30 5423 O 877.245 8.74358 -0.335205 0
M  V30 5424 C 877.735 6.83093 -1.70294 0
M  V30 5425 C 877.025 5.79992 -0.836974 0
M  V30 5426 N 877.075 4.41864 -1.38293 0
M  V30 5427 H 874.236 8.13644 -3.0377 0
M  V30 5428 H 873.966 6.42788 -2.55485 0
M  V30 5429 H 874.833 8.12039 -0.792769 0
M  V30 5430 P 878.795 8.91 6.40081e-12 0
M  V30 5431 O 879.015 10.1726 0.733694 0
M  V30 5432 O 879.585 8.73148 -1.23936 0
M  V30 5433 O 879.045 7.66872 0.971405 0
M  V30 5434 C 878.105 7.42309 2.04641 0
M  V30 5435 C 878.835 6.86059 3.24661 0
M  V30 5436 O 879.045 5.42847 3.03646 0
M  V30 5437 C 880.235 7.41196 3.50753 0
M  V30 5438 O 880.625 7.27073 4.86816 0
M  V30 5439 C 881.115 6.5273 2.63741 0
M  V30 5440 C 880.405 5.1842 2.73198 0
M  V30 5441 N 880.455 4.38762 1.4784 0
M  V30 5442 C 880.375 4.81605 0.168631 0
M  V30 5443 N 880.455 3.85454 -0.713363 0
M  V30 5444 C 880.595 2.6994 0.0566958 0
M  V30 5445 C 880.725 1.34815 -0.338502 0
M  V30 5446 O 880.745 0.869548 -1.47125 0
M  V30 5447 N 880.845 0.496304 0.77465 0
M  V30 5448 C 880.845 0.908403 2.09122 0
M  V30 5449 N 880.975 -0.0517805 3.00955 0
M  V30 5450 N 880.715 2.17875 2.46519 0
M  V30 5451 C 880.595 3.01988 1.4033 0
M  V30 5452 H 877.616 8.36803 2.32493 0
M  V30 5453 H 877.346 6.70197 1.71129 0
M  V30 5454 H 878.213 7.03551 4.13168 0
M  V30 5455 H 880.868 4.59498 3.54415 0
M  V30 5456 H 881.147 6.88898 1.59848 0
M  V30 5457 H 882.139 6.46749 3.03687 0
M  V30 5458 H 880.305 8.46908 3.20714 0
M  V30 5459 H 880.256 5.86405 -0.105564 0
M  V30 5460 H 880.938 -0.483664 0.597855 0
M  V30 5461 H 880.975 0.187865 4.0116 0
M  V30 5462 H 881.076 -1.03585 2.71726 0
M  V30 5463 P 882.175 7.20834 5.23717 0
M  V30 5464 O 882.395 7.7993 6.57351 0
M  V30 5465 O 882.965 7.79328 4.13004 0
M  V30 5466 O 882.425 5.63315 5.29344 0
M  V30 5467 C 881.485 4.80193 6.01798 0
M  V30 5468 C 882.215 3.64202 6.65911 0
M  V30 5469 O 882.425 2.60694 5.64732 0
M  V30 5470 C 883.615 3.93473 7.1943 0
M  V30 5471 O 884.005 3.02071 8.21205 0
M  V30 5472 C 884.495 3.73047 5.97036 0
M  V30 5473 C 883.785 2.58828 5.25741 0
M  V30 5474 N 883.835 2.6801 3.77422 0
M  V30 5475 C 883.985 1.50443 3.07133 0
M  V30 5476 O 884.075 0.419406 3.61576 0
M  V30 5477 N 884.025 1.6403 1.69677 0
M  V30 5478 C 883.935 2.81206 0.986255 0
M  V30 5479 C 883.785 3.99158 1.80325 0
M  V30 5480 C 883.735 3.89779 3.1476 0
M  V30 5481 H 880.995 5.40332 6.79951 0
M  V30 5482 H 880.726 4.41549 5.32301 0
M  V30 5483 H 881.593 3.26331 7.47797 0
M  V30 5484 H 884.248 1.6395 5.56554 0
M  V30 5485 H 884.527 4.63439 5.3432 0
M  V30 5486 H 885.519 3.44728 6.25838 0
M  V30 5487 H 883.685 4.96652 7.57263 0
M  V30 5488 H 883.614 4.80159 3.74441 0
M  V30 5489 P 885.555 2.75334 8.47391 0
M  V30 5490 O 885.775 2.44571 9.90142 0
M  V30 5491 O 886.345 3.87688 7.92115 0
M  V30 5492 O 885.805 1.4459 7.59357 0
M  V30 5493 C 884.865 0.347608 7.69215 0
M  V30 5494 C 885.595 -0.96767 7.52806 0
M  V30 5495 O 885.805 -1.21036 6.1011 0
M  V30 5496 C 886.995 -1.04544 8.13308 0
M  V30 5497 O 887.385 -2.38311 8.41922 0
M  V30 5498 C 887.875 -0.491279 7.02284 0
M  V30 5499 C 887.165 -0.996264 5.77469 0
M  V30 5500 N 887.215 -0.0501916 4.62973 0
M  V30 5501 C 887.135 1.32786 4.63244 0
M  V30 5502 N 887.215 1.86957 3.44545 0
M  V30 5503 C 887.355 0.780241 2.58481 0
M  V30 5504 C 887.485 0.738536 1.17757 0
M  V30 5505 O 887.505 1.66794 0.372349 0
M  V30 5506 N 887.605 -0.58337 0.711393 0
M  V30 5507 C 887.605 -1.70816 1.51017 0
M  V30 5508 N 887.735 -2.87826 0.880757 0
M  V30 5509 N 887.475 -1.67126 2.8339 0
M  V30 5510 C 887.355 -0.401421 3.30572 0
M  V30 5511 H 884.376 0.374722 8.67691 0
M  V30 5512 H 884.106 0.443485 6.90277 0
M  V30 5513 H 884.973 -1.75537 7.96793 0
M  V30 5514 H 887.628 -1.95076 5.46529 0
M  V30 5515 H 887.907 0.608565 7.04577 0
M  V30 5516 H 888.899 -0.889672 7.08939 0
M  V30 5517 H 887.065 -0.43308 9.04564 0
M  V30 5518 H 887.016 1.91249 5.54442 0
M  V30 5519 H 887.698 -0.718054 -0.275244 0
M  V30 5520 H 887.735 -3.75721 1.41832 0
M  V30 5521 H 887.836 -2.90436 -0.145468 0
M  V30 5522 P 888.935 -2.75334 8.47391 0
M  V30 5523 O 889.155 -3.84128 9.44797 0
M  V30 5524 O 889.725 -1.51947 8.68712 0
M  V30 5525 O 889.185 -3.29363 6.99321 0
M  V30 5526 C 888.245 -4.24011 6.4274 0
M  V30 5527 C 888.975 -5.20775 5.52155 0
M  V30 5528 O 889.185 -4.56534 4.22446 0
M  V30 5529 C 890.375 -5.62629 5.96531 0
M  V30 5530 O 890.765 -6.87667 5.41053 0
M  V30 5531 C 891.255 -4.52537 5.39283 0
M  V30 5532 C 890.545 -4.20027 4.08623 0
M  V30 5533 N 890.595 -2.76189 3.71603 0
M  V30 5534 C 890.515 -1.64862 4.52822 0
M  V30 5535 N 890.595 -0.512671 3.88633 0
M  V30 5536 C 890.735 -0.888083 2.54977 0
M  V30 5537 C 890.865 -0.094668 1.38677 0
M  V30 5538 O 890.885 1.13053 1.28163 0
M  V30 5539 N 890.985 -0.890102 0.232633 0
M  V30 5540 C 890.985 -2.26958 0.21772 0
M  V30 5541 N 891.115 -2.84626 -0.97925 0
M  V30 5542 N 890.855 -3.0178 1.31033 0
M  V30 5543 C 890.735 -2.26781 2.43843 0
M  V30 5544 H 887.756 -4.797 7.24003 0
M  V30 5545 H 887.486 -3.69856 5.84513 0
M  V30 5546 H 888.353 -6.10356 5.41441 0
M  V30 5547 H 891.008 -4.79061 3.27488 0
M  V30 5548 H 891.287 -3.64906 6.05785 0
M  V30 5549 H 892.279 -4.8868 5.2125 0
M  V30 5550 H 890.445 -5.66726 7.06352 0
M  V30 5551 H 890.396 -1.71169 5.60966 0
M  V30 5552 H 891.078 -0.419134 -0.644739 0
M  V30 5553 H 891.115 -3.87332 -1.06098 0
M  V30 5554 H 891.216 -2.26417 -1.82483 0
M  V30 5555 P 892.315 -7.20834 5.23717 0
M  V30 5556 O 892.535 -8.66104 5.38572 0
M  V30 5557 O 893.105 -6.33544 6.1349 0
M  V30 5558 O 892.565 -6.7751 3.72168 0
M  V30 5559 C 891.625 -7.20825 2.7076 0
M  V30 5560 C 892.355 -7.45864 1.40599 0
M  V30 5561 O 892.565 -6.17651 0.734225 0
M  V30 5562 C 893.755 -8.05808 1.51899 0
M  V30 5563 O 894.145 -8.74358 0.335205 0
M  V30 5564 C 894.635 -6.83093 1.70294 0
M  V30 5565 C 893.925 -5.79992 0.836974 0
M  V30 5566 N 893.975 -4.41864 1.38293 0
M  V30 5567 C 893.895 -3.99538 2.69438 0
M  V30 5568 N 893.975 -2.69909 2.84277 0
M  V30 5569 C 894.115 -2.21719 1.5408 0
M  V30 5570 C 894.245 -0.891712 1.06628 0
M  V30 5571 O 894.265 0.161298 1.70137 0
M  V30 5572 N 894.365 -0.856846 -0.334985 0
M  V30 5573 C 894.365 -1.9641 -1.15789 0
M  V30 5574 N 894.495 -1.72708 -2.46522 0
M  V30 5575 N 894.235 -3.21165 -0.713741 0
M  V30 5576 C 894.115 -3.26797 0.639748 0
M  V30 5577 H 891.136 -8.13644 3.0377 0
M  V30 5578 H 890.866 -6.42788 2.55485 0
M  V30 5579 H 891.733 -8.12039 0.792769 0
M  V30 5580 H 894.388 -5.80061 -0.166416 0
M  V30 5581 H 894.667 -6.51287 2.75604 0
M  V30 5582 H 895.659 -7.01734 1.34462 0
M  V30 5583 H 893.825 -8.73674 2.38337 0
M  V30 5584 H 893.776 -4.68207 3.53221 0
M  V30 5585 H 894.458 0.0398818 -0.767965 0
M  V30 5586 H 894.495 -2.50995 -3.13503 0
M  V30 5587 H 894.596 -0.759148 -2.80716 0
M  V30 5588 P 895.695 -8.91 -6.558e-12 0
M  V30 5589 O 895.915 -10.1726 -0.733694 0
M  V30 5590 O 896.485 -8.73148 1.23936 0
M  V30 5591 O 895.945 -7.66872 -0.971405 0
M  V30 5592 C 895.005 -7.42309 -2.04641 0
M  V30 5593 C 895.735 -6.86059 -3.24661 0
M  V30 5594 O 895.945 -5.42847 -3.03646 0
M  V30 5595 C 897.135 -7.41196 -3.50753 0
M  V30 5596 O 897.525 -7.27073 -4.86816 0
M  V30 5597 C 898.015 -6.5273 -2.63741 0
M  V30 5598 C 897.305 -5.1842 -2.73198 0
M  V30 5599 N 897.355 -4.38762 -1.4784 0
M  V30 5600 C 897.275 -4.81605 -0.168631 0
M  V30 5601 N 897.355 -3.85454 0.713363 0
M  V30 5602 C 897.495 -2.6994 -0.0566958 0
M  V30 5603 C 897.625 -1.34815 0.338502 0
M  V30 5604 N 897.745 -0.496304 -0.77465 0
M  V30 5605 C 897.745 -0.908403 -2.09122 0
M  V30 5606 N 897.875 0.0517805 -3.00955 0
M  V30 5607 N 897.615 -2.17875 -2.46519 0
M  V30 5608 C 897.495 -3.01988 -1.4033 0
M  V30 5609 H 894.516 -8.36803 -2.32493 0
M  V30 5610 H 894.246 -6.70197 -1.71129 0
M  V30 5611 H 895.113 -7.03551 -4.13168 0
M  V30 5612 P 899.075 -7.20834 -5.23717 0
M  V30 5613 O 899.295 -7.79853 -6.57286 0
M  V30 5614 O 899.865 -7.79239 -4.12957 0
M  V30 5615 O 899.325 -5.63315 -5.29344 0
M  V30 5616 C 898.385 -4.80255 -6.01876 0
M  V30 5617 C 899.115 -3.64202 -6.65911 0
M  V30 5618 O 899.325 -2.60694 -5.64732 0
M  V30 5619 C 900.515 -3.93473 -7.1943 0
M  V30 5620 O 900.905 -3.02071 -8.21205 0
M  V30 5621 C 901.395 -3.73047 -5.97036 0
M  V30 5622 C 900.685 -2.58828 -5.25741 0
M  V30 5623 N 900.735 -2.68068 -3.77503 0
M  V30 5624 C 900.655 -3.79715 -2.96723 0
M  V30 5625 N 900.735 -3.5377 -1.68852 0
M  V30 5626 C 900.875 -2.15054 -1.63254 0
M  V30 5627 C 901.005 -1.28964 -0.518571 0
M  V30 5628 O 901.025 -1.56826 0.679156 0
M  V30 5629 N 901.125 0.0538097 -0.918425 0
M  V30 5630 C 901.125 0.494275 -2.22578 0
M  V30 5631 N 901.255 1.81086 -2.40434 0
M  V30 5632 N 900.995 -0.313645 -3.27502 0
M  V30 5633 C 900.875 -1.61829 -2.91033 0
M  V30 5634 H 897.896 -5.40332 -6.79951 0
M  V30 5635 H 897.626 -4.41613 -5.32378 0
M  V30 5636 H 898.493 -3.26331 -7.47797 0
M  V30 5637 H 901.148 -1.63422 -5.56814 0
M  V30 5638 H 901.427 -4.63374 -5.34244 0
M  V30 5639 H 902.419 -3.44728 -6.25838 0
M  V30 5640 H 900.585 -4.96652 -7.57263 0
M  V30 5641 H 900.536 -4.80617 -3.3614 0
M  V30 5642 H 901.218 0.742702 -0.199384 0
M  V30 5643 H 901.255 2.20598 -3.35588 0
M  V30 5644 H 901.356 2.43518 -1.58945 0
M  V30 5645 P 902.455 -2.75334 -8.47391 0
M  V30 5646 O 902.675 -2.44571 -9.90142 0
M  V30 5647 O 903.245 -3.87688 -7.92115 0
M  V30 5648 O 902.705 -1.4459 -7.59357 0
M  V30 5649 C 901.765 -0.347608 -7.69215 0
M  V30 5650 C 902.495 0.96767 -7.52806 0
M  V30 5651 O 902.705 1.21036 -6.1011 0
M  V30 5652 C 903.895 1.04544 -8.13308 0
M  V30 5653 O 904.285 2.38311 -8.41922 0
M  V30 5654 C 904.775 0.491279 -7.02284 0
M  V30 5655 C 904.065 0.996264 -5.77469 0
M  V30 5656 N 904.115 0.0501916 -4.62973 0
M  V30 5657 C 904.035 -1.32786 -4.63244 0
M  V30 5658 N 904.115 -1.86957 -3.44545 0
M  V30 5659 C 904.255 -0.780241 -2.58481 0
M  V30 5660 C 904.385 -0.738536 -1.17757 0
M  V30 5661 O 904.405 -1.66794 -0.372349 0
M  V30 5662 N 904.505 0.58337 -0.711393 0
M  V30 5663 C 904.505 1.70816 -1.51017 0
M  V30 5664 N 904.635 2.87826 -0.880757 0
M  V30 5665 N 904.375 1.67126 -2.8339 0
M  V30 5666 C 904.255 0.401421 -3.30572 0
M  V30 5667 H 901.276 -0.374722 -8.67691 0
M  V30 5668 H 901.006 -0.443485 -6.90277 0
M  V30 5669 H 901.873 1.75537 -7.96793 0
M  V30 5670 H 904.528 1.95076 -5.46529 0
M  V30 5671 H 904.807 -0.608565 -7.04577 0
M  V30 5672 H 905.799 0.889672 -7.08939 0
M  V30 5673 H 903.965 0.43308 -9.04564 0
M  V30 5674 H 903.916 -1.91249 -5.54442 0
M  V30 5675 H 904.598 0.718054 0.275244 0
M  V30 5676 H 904.635 3.75721 -1.41832 0
M  V30 5677 H 904.736 2.90436 0.145468 0
M  V30 5678 P 905.835 2.75334 -8.47391 0
M  V30 5679 O 906.055 3.84166 -9.4489 0
M  V30 5680 O 906.625 1.51964 -8.6881 0
M  V30 5681 O 906.085 3.29363 -6.99321 0
M  V30 5682 C 905.145 4.23956 -6.42656 0
M  V30 5683 C 905.875 5.20775 -5.52155 0
M  V30 5684 O 906.085 4.56534 -4.22446 0
M  V30 5685 C 907.275 5.62629 -5.96531 0
M  V30 5686 O 907.665 6.87667 -5.41053 0
M  V30 5687 C 908.155 4.52537 -5.39283 0
M  V30 5688 C 907.445 4.20027 -4.08623 0
M  V30 5689 N 907.495 2.7613 -3.71522 0
M  V30 5690 C 907.645 2.45612 -2.37989 0
M  V30 5691 O 907.735 3.30919 -1.51621 0
M  V30 5692 N 907.685 1.10684 -2.08435 0
M  V30 5693 C 907.595 0.0690084 -2.9792 0
M  V30 5694 C 907.445 0.481522 -4.35345 0
M  V30 5695 C 907.395 1.78906 -4.67968 0
M  V30 5696 H 904.655 4.797 -7.24003 0
M  V30 5697 H 904.386 3.69802 -5.84429 0
M  V30 5698 H 905.253 6.10356 -5.41441 0
M  V30 5699 H 907.908 4.78651 -3.27911 0
M  V30 5700 H 908.187 3.64957 -6.05871 0
M  V30 5701 H 909.179 4.8868 -5.2125 0
M  V30 5702 H 907.345 5.66726 -7.06352 0
M  V30 5703 H 907.274 2.07737 -5.72367 0
M  V30 5704 P 909.215 7.20834 -5.23717 0
M  V30 5705 O 909.435 8.66104 -5.38572 0
M  V30 5706 O 910.005 6.33544 -6.1349 0
M  V30 5707 O 909.465 6.7751 -3.72168 0
M  V30 5708 C 908.525 7.20825 -2.7076 0
M  V30 5709 C 909.255 7.45864 -1.40599 0
M  V30 5710 O 909.465 6.17651 -0.734225 0
M  V30 5711 C 910.655 8.05808 -1.51899 0
M  V30 5712 O 911.045 8.74358 -0.335205 0
M  V30 5713 C 911.535 6.83093 -1.70294 0
M  V30 5714 C 910.825 5.79992 -0.836974 0
M  V30 5715 N 910.875 4.41864 -1.38293 0
M  V30 5716 C 910.795 3.99538 -2.69438 0
M  V30 5717 N 910.875 2.69909 -2.84277 0
M  V30 5718 C 911.015 2.21719 -1.5408 0
M  V30 5719 C 911.145 0.891712 -1.06628 0
M  V30 5720 O 911.165 -0.161298 -1.70137 0
M  V30 5721 N 911.265 0.856846 0.334985 0
M  V30 5722 C 911.265 1.9641 1.15789 0
M  V30 5723 N 911.395 1.72708 2.46522 0
M  V30 5724 N 911.135 3.21165 0.713741 0
M  V30 5725 C 911.015 3.26797 -0.639748 0
M  V30 5726 H 908.036 8.13644 -3.0377 0
M  V30 5727 H 907.766 6.42788 -2.55485 0
M  V30 5728 H 908.633 8.12039 -0.792769 0
M  V30 5729 H 911.288 5.80061 0.166416 0
M  V30 5730 H 911.567 6.51287 -2.75604 0
M  V30 5731 H 912.559 7.01734 -1.34462 0
M  V30 5732 H 910.725 8.73674 -2.38337 0
M  V30 5733 H 910.676 4.68207 -3.53221 0
M  V30 5734 H 911.358 -0.0398818 0.767965 0
M  V30 5735 H 911.395 2.50995 3.13503 0
M  V30 5736 H 911.496 0.759148 2.80716 0
M  V30 5737 P 912.595 8.91 6.71518e-12 0
M  V30 5738 O 912.815 10.1726 0.733694 0
M  V30 5739 O 913.385 8.73148 -1.23936 0
M  V30 5740 O 912.845 7.66872 0.971405 0
M  V30 5741 C 911.905 7.42309 2.04641 0
M  V30 5742 C 912.635 6.86059 3.24661 0
M  V30 5743 O 912.845 5.42847 3.03646 0
M  V30 5744 C 914.035 7.41196 3.50753 0
M  V30 5745 O 914.425 7.27073 4.86816 0
M  V30 5746 C 914.915 6.5273 2.63741 0
M  V30 5747 C 914.205 5.1842 2.73198 0
M  V30 5748 N 914.255 4.38762 1.4784 0
M  V30 5749 C 914.175 4.81605 0.168631 0
M  V30 5750 N 914.255 3.85454 -0.713363 0
M  V30 5751 C 914.395 2.6994 0.0566958 0
M  V30 5752 C 914.525 1.34815 -0.338502 0
M  V30 5753 O 914.545 0.869548 -1.47125 0
M  V30 5754 N 914.645 0.496304 0.77465 0
M  V30 5755 C 914.645 0.908403 2.09122 0
M  V30 5756 N 914.775 -0.0517805 3.00955 0
M  V30 5757 N 914.515 2.17875 2.46519 0
M  V30 5758 C 914.395 3.01988 1.4033 0
M  V30 5759 H 911.416 8.36803 2.32493 0
M  V30 5760 H 911.146 6.70197 1.71129 0
M  V30 5761 H 912.013 7.03551 4.13168 0
M  V30 5762 H 914.668 4.59498 3.54415 0
M  V30 5763 H 914.947 6.88898 1.59848 0
M  V30 5764 H 915.939 6.46749 3.03687 0
M  V30 5765 H 914.105 8.46908 3.20714 0
M  V30 5766 H 914.056 5.86405 -0.105564 0
M  V30 5767 H 914.738 -0.483664 0.597855 0
M  V30 5768 H 914.775 0.187865 4.0116 0
M  V30 5769 H 914.876 -1.03585 2.71726 0
M  V30 5770 P 915.975 7.20834 5.23717 0
M  V30 5771 O 916.195 7.79853 6.57286 0
M  V30 5772 O 916.765 7.79239 4.12957 0
M  V30 5773 O 916.225 5.63315 5.29344 0
M  V30 5774 C 915.285 4.80255 6.01876 0
M  V30 5775 C 916.015 3.64202 6.65911 0
M  V30 5776 O 916.225 2.60694 5.64732 0
M  V30 5777 C 917.415 3.93473 7.1943 0
M  V30 5778 O 917.805 3.02071 8.21205 0
M  V30 5779 C 918.295 3.73047 5.97036 0
M  V30 5780 C 917.585 2.58828 5.25741 0
M  V30 5781 N 917.635 2.68068 3.77503 0
M  V30 5782 C 917.555 3.79715 2.96723 0
M  V30 5783 N 917.635 3.5377 1.68852 0
M  V30 5784 C 917.775 2.15054 1.63254 0
M  V30 5785 C 917.905 1.28964 0.518571 0
M  V30 5786 O 917.925 1.56826 -0.679156 0
M  V30 5787 N 918.025 -0.0538097 0.918425 0
M  V30 5788 C 918.025 -0.494275 2.22578 0
M  V30 5789 N 918.155 -1.81086 2.40434 0
M  V30 5790 N 917.895 0.313645 3.27502 0
M  V30 5791 C 917.775 1.61829 2.91033 0
M  V30 5792 H 914.796 5.40332 6.79951 0
M  V30 5793 H 914.526 4.41613 5.32378 0
M  V30 5794 H 915.393 3.26331 7.47797 0
M  V30 5795 H 918.048 1.63422 5.56814 0
M  V30 5796 H 918.327 4.63374 5.34244 0
M  V30 5797 H 919.319 3.44728 6.25838 0
M  V30 5798 H 917.485 4.96652 7.57263 0
M  V30 5799 H 917.436 4.80617 3.3614 0
M  V30 5800 H 918.118 -0.742702 0.199384 0
M  V30 5801 H 918.155 -2.20598 3.35588 0
M  V30 5802 H 918.256 -2.43518 1.58945 0
M  V30 5803 P 919.355 2.75334 8.47391 0
M  V30 5804 O 919.575 2.44571 9.90142 0
M  V30 5805 O 920.145 3.87688 7.92115 0
M  V30 5806 O 919.605 1.4459 7.59357 0
M  V30 5807 C 918.665 0.347608 7.69215 0
M  V30 5808 C 919.395 -0.96767 7.52806 0
M  V30 5809 O 919.605 -1.21036 6.1011 0
M  V30 5810 C 920.795 -1.04544 8.13308 0
M  V30 5811 O 921.185 -2.38311 8.41922 0
M  V30 5812 C 921.675 -0.491279 7.02284 0
M  V30 5813 C 920.965 -0.996264 5.77469 0
M  V30 5814 N 921.015 -0.0501916 4.62973 0
M  V30 5815 C 920.935 1.32786 4.63244 0
M  V30 5816 N 921.015 1.86957 3.44545 0
M  V30 5817 C 921.155 0.780241 2.58481 0
M  V30 5818 C 921.285 0.738536 1.17757 0
M  V30 5819 O 921.305 1.66794 0.372349 0
M  V30 5820 N 921.405 -0.58337 0.711393 0
M  V30 5821 C 921.405 -1.70816 1.51017 0
M  V30 5822 N 921.535 -2.87826 0.880757 0
M  V30 5823 N 921.275 -1.67126 2.8339 0
M  V30 5824 C 921.155 -0.401421 3.30572 0
M  V30 5825 H 918.176 0.374722 8.67691 0
M  V30 5826 H 917.906 0.443485 6.90277 0
M  V30 5827 H 918.773 -1.75537 7.96793 0
M  V30 5828 H 921.428 -1.95076 5.46529 0
M  V30 5829 H 921.707 0.608565 7.04577 0
M  V30 5830 H 922.699 -0.889672 7.08939 0
M  V30 5831 H 920.865 -0.43308 9.04564 0
M  V30 5832 H 920.816 1.91249 5.54442 0
M  V30 5833 H 921.498 -0.718054 -0.275244 0
M  V30 5834 H 921.535 -3.75721 1.41832 0
M  V30 5835 H 921.636 -2.90436 -0.145468 0
M  V30 5836 P 922.735 -2.75334 8.47391 0
M  V30 5837 O 922.955 -3.84128 9.44797 0
M  V30 5838 O 923.525 -1.51947 8.68712 0
M  V30 5839 O 922.985 -3.29363 6.99321 0
M  V30 5840 C 922.045 -4.24011 6.4274 0
M  V30 5841 C 922.775 -5.20775 5.52155 0
M  V30 5842 O 922.985 -4.56534 4.22446 0
M  V30 5843 C 924.175 -5.62629 5.96531 0
M  V30 5844 O 924.565 -6.87667 5.41053 0
M  V30 5845 C 925.055 -4.52537 5.39283 0
M  V30 5846 C 924.345 -4.20027 4.08623 0
M  V30 5847 N 924.395 -2.76189 3.71603 0
M  V30 5848 H 921.556 -4.797 7.24003 0
M  V30 5849 H 921.286 -3.69856 5.84513 0
M  V30 5850 H 922.153 -6.10356 5.41441 0
M  V30 5851 P 926.115 -7.20834 5.23717 0
M  V30 5852 O 926.335 -8.66104 5.38572 0
M  V30 5853 O 926.905 -6.33544 6.1349 0
M  V30 5854 O 926.365 -6.7751 3.72168 0
M  V30 5855 C 925.425 -7.20825 2.7076 0
M  V30 5856 C 926.155 -7.45864 1.40599 0
M  V30 5857 O 926.365 -6.17651 0.734225 0
M  V30 5858 C 927.555 -8.05808 1.51899 0
M  V30 5859 O 927.945 -8.74358 0.335205 0
M  V30 5860 C 928.435 -6.83093 1.70294 0
M  V30 5861 C 927.725 -5.79992 0.836974 0
M  V30 5862 N 927.775 -4.41864 1.38293 0
M  V30 5863 C 927.695 -3.99538 2.69438 0
M  V30 5864 N 927.775 -2.69909 2.84277 0
M  V30 5865 C 927.915 -2.21719 1.5408 0
M  V30 5866 C 928.045 -0.891712 1.06628 0
M  V30 5867 O 928.065 0.161298 1.70137 0
M  V30 5868 N 928.165 -0.856846 -0.334985 0
M  V30 5869 C 928.165 -1.9641 -1.15789 0
M  V30 5870 N 928.295 -1.72708 -2.46522 0
M  V30 5871 N 928.035 -3.21165 -0.713741 0
M  V30 5872 C 927.915 -3.26797 0.639748 0
M  V30 5873 H 924.936 -8.13644 3.0377 0
M  V30 5874 H 924.666 -6.42788 2.55485 0
M  V30 5875 H 925.533 -8.12039 0.792769 0
M  V30 5876 H 928.188 -5.80061 -0.166416 0
M  V30 5877 H 928.467 -6.51287 2.75604 0
M  V30 5878 H 929.459 -7.01734 1.34462 0
M  V30 5879 H 927.625 -8.73674 2.38337 0
M  V30 5880 H 927.576 -4.68207 3.53221 0
M  V30 5881 H 928.258 0.0398818 -0.767965 0
M  V30 5882 H 928.295 -2.50995 -3.13503 0
M  V30 5883 H 928.396 -0.759148 -2.80716 0
M  V30 5884 P 929.495 -8.91 -6.87236e-12 0
M  V30 5885 O 929.715 -10.1736 -0.733766 0
M  V30 5886 O 930.285 -8.73247 1.2395 0
M  V30 5887 O 929.745 -7.66872 -0.971405 0
M  V30 5888 C 928.805 -7.42212 -2.04614 0
M  V30 5889 C 929.535 -6.86059 -3.24661 0
M  V30 5890 O 929.745 -5.42847 -3.03646 0
M  V30 5891 C 930.935 -7.41196 -3.50753 0
M  V30 5892 O 931.325 -7.27073 -4.86816 0
M  V30 5893 C 931.815 -6.5273 -2.63741 0
M  V30 5894 C 931.105 -5.1842 -2.73198 0
M  V30 5895 N 931.155 -4.38668 -1.47808 0
M  V30 5896 C 931.305 -3.02239 -1.60048 0
M  V30 5897 O 931.395 -2.46459 -2.67869 0
M  V30 5898 N 931.345 -2.32436 -0.408571 0
M  V30 5899 C 931.255 -2.85471 0.854993 0
M  V30 5900 C 931.105 -4.28918 0.887335 0
M  V30 5901 C 931.055 -5.00349 -0.255399 0
M  V30 5902 H 928.315 -8.36803 -2.32493 0
M  V30 5903 H 928.046 -6.701 -1.71105 0
M  V30 5904 H 928.913 -7.03551 -4.13168 0
M  V30 5905 H 931.568 -4.59773 -3.53894 0
M  V30 5906 H 931.847 -6.88995 -1.59871 0
M  V30 5907 H 932.839 -6.46749 -3.03687 0
M  V30 5908 H 931.005 -8.46908 -3.20714 0
M  V30 5909 H 930.934 -6.08548 -0.206986 0
M  V30 5910 P 932.874 -7.20834 -5.23717 0
M  V30 5911 O 933.094 -7.79853 -6.57286 0
M  V30 5912 O 933.664 -7.79239 -4.12957 0
M  V30 5913 O 933.124 -5.63315 -5.29344 0
M  V30 5914 C 932.184 -4.80255 -6.01876 0
M  V30 5915 C 932.914 -3.64202 -6.65911 0
M  V30 5916 O 933.124 -2.60694 -5.64732 0
M  V30 5917 C 934.314 -3.93473 -7.1943 0
M  V30 5918 O 934.704 -3.02071 -8.21205 0
M  V30 5919 C 935.194 -3.73047 -5.97036 0
M  V30 5920 C 934.484 -2.58828 -5.25741 0
M  V30 5921 N 934.534 -2.68068 -3.77503 0
M  V30 5922 C 934.454 -3.79715 -2.96723 0
M  V30 5923 N 934.534 -3.5377 -1.68852 0
M  V30 5924 C 934.674 -2.15054 -1.63254 0
M  V30 5925 C 934.804 -1.28964 -0.518571 0
M  V30 5926 O 934.824 -1.56826 0.679156 0
M  V30 5927 N 934.924 0.0538097 -0.918425 0
M  V30 5928 C 934.924 0.494275 -2.22578 0
M  V30 5929 N 935.054 1.81086 -2.40434 0
M  V30 5930 N 934.794 -0.313645 -3.27502 0
M  V30 5931 C 934.674 -1.61829 -2.91033 0
M  V30 5932 H 931.695 -5.40332 -6.79951 0
M  V30 5933 H 931.425 -4.41613 -5.32378 0
M  V30 5934 H 932.292 -3.26331 -7.47797 0
M  V30 5935 H 934.947 -1.63422 -5.56814 0
M  V30 5936 H 935.226 -4.63374 -5.34244 0
M  V30 5937 H 936.218 -3.44728 -6.25838 0
M  V30 5938 H 934.384 -4.96652 -7.57263 0
M  V30 5939 H 934.335 -4.80617 -3.3614 0
M  V30 5940 H 935.017 0.742702 -0.199384 0
M  V30 5941 H 935.054 2.20598 -3.35588 0
M  V30 5942 H 935.155 2.43518 -1.58945 0
M  V30 5943 P 936.254 -2.75334 -8.47391 0
M  V30 5944 O 936.474 -2.44571 -9.90142 0
M  V30 5945 O 937.044 -3.87688 -7.92115 0
M  V30 5946 O 936.504 -1.4459 -7.59357 0
M  V30 5947 C 935.564 -0.347608 -7.69215 0
M  V30 5948 C 936.294 0.96767 -7.52806 0
M  V30 5949 O 936.504 1.21036 -6.1011 0
M  V30 5950 C 937.694 1.04544 -8.13308 0
M  V30 5951 O 938.084 2.38311 -8.41922 0
M  V30 5952 C 938.574 0.491279 -7.02284 0
M  V30 5953 C 937.864 0.996264 -5.77469 0
M  V30 5954 N 937.914 0.0501916 -4.62973 0
M  V30 5955 H 935.075 -0.374722 -8.67691 0
M  V30 5956 H 934.805 -0.443485 -6.90277 0
M  V30 5957 H 935.672 1.75537 -7.96793 0
M  V30 5958 P 939.634 2.75334 -8.47391 0
M  V30 5959 O 939.854 3.84128 -9.44797 0
M  V30 5960 O 940.424 1.51947 -8.68712 0
M  V30 5961 O 939.884 3.29363 -6.99321 0
M  V30 5962 C 938.944 4.24011 -6.4274 0
M  V30 5963 C 939.674 5.20775 -5.52155 0
M  V30 5964 O 939.884 4.56534 -4.22446 0
M  V30 5965 C 941.074 5.62629 -5.96531 0
M  V30 5966 O 941.464 6.87667 -5.41053 0
M  V30 5967 C 941.954 4.52537 -5.39283 0
M  V30 5968 C 941.244 4.20027 -4.08623 0
M  V30 5969 N 941.294 2.76189 -3.71603 0
M  V30 5970 H 938.455 4.797 -7.24003 0
M  V30 5971 H 938.185 3.69856 -5.84513 0
M  V30 5972 H 939.052 6.10356 -5.41441 0
M  V30 5973 P 943.014 7.20834 -5.23717 0
M  V30 5974 O 943.234 8.66104 -5.38572 0
M  V30 5975 O 943.804 6.33544 -6.1349 0
M  V30 5976 O 943.264 6.7751 -3.72168 0
M  V30 5977 C 942.324 7.20825 -2.7076 0
M  V30 5978 C 943.054 7.45864 -1.40599 0
M  V30 5979 O 943.264 6.17651 -0.734225 0
M  V30 5980 C 944.454 8.05808 -1.51899 0
M  V30 5981 O 944.844 8.74358 -0.335205 0
M  V30 5982 C 945.334 6.83093 -1.70294 0
M  V30 5983 C 944.624 5.79992 -0.836974 0
M  V30 5984 N 944.674 4.41864 -1.38293 0
M  V30 5985 C 944.594 3.99538 -2.69438 0
M  V30 5986 N 944.674 2.69909 -2.84277 0
M  V30 5987 C 944.814 2.21719 -1.5408 0
M  V30 5988 C 944.944 0.891712 -1.06628 0
M  V30 5989 O 944.964 -0.161298 -1.70137 0
M  V30 5990 N 945.064 0.856846 0.334985 0
M  V30 5991 C 945.064 1.9641 1.15789 0
M  V30 5992 N 945.194 1.72708 2.46522 0
M  V30 5993 N 944.934 3.21165 0.713741 0
M  V30 5994 C 944.814 3.26797 -0.639748 0
M  V30 5995 H 941.835 8.13644 -3.0377 0
M  V30 5996 H 941.565 6.42788 -2.55485 0
M  V30 5997 H 942.432 8.12039 -0.792769 0
M  V30 5998 H 945.087 5.80061 0.166416 0
M  V30 5999 H 945.366 6.51287 -2.75604 0
M  V30 6000 H 946.358 7.01734 -1.34462 0
M  V30 6001 H 944.524 8.73674 -2.38337 0
M  V30 6002 H 944.475 4.68207 -3.53221 0
M  V30 6003 H 945.157 -0.0398818 0.767965 0
M  V30 6004 H 945.194 2.50995 3.13503 0
M  V30 6005 H 945.295 0.759148 2.80716 0
M  V30 6006 P 946.394 8.91 7.02954e-12 0
M  V30 6007 O 946.614 10.1726 0.733694 0
M  V30 6008 O 947.184 8.73148 -1.23936 0
M  V30 6009 O 946.644 7.66872 0.971405 0
M  V30 6010 C 945.704 7.42309 2.04641 0
M  V30 6011 C 946.434 6.86059 3.24661 0
M  V30 6012 O 946.644 5.42847 3.03646 0
M  V30 6013 C 947.834 7.41196 3.50753 0
M  V30 6014 O 948.224 7.27073 4.86816 0
M  V30 6015 C 948.714 6.5273 2.63741 0
M  V30 6016 C 948.004 5.1842 2.73198 0
M  V30 6017 N 948.054 4.38762 1.4784 0
M  V30 6018 C 947.974 4.81605 0.168631 0
M  V30 6019 N 948.054 3.85454 -0.713363 0
M  V30 6020 C 948.194 2.6994 0.0566958 0
M  V30 6021 C 948.324 1.34815 -0.338502 0
M  V30 6022 O 948.344 0.869548 -1.47125 0
M  V30 6023 N 948.444 0.496304 0.77465 0
M  V30 6024 C 948.444 0.908403 2.09122 0
M  V30 6025 N 948.574 -0.0517805 3.00955 0
M  V30 6026 N 948.314 2.17875 2.46519 0
M  V30 6027 C 948.194 3.01988 1.4033 0
M  V30 6028 H 945.215 8.36803 2.32493 0
M  V30 6029 H 944.945 6.70197 1.71129 0
M  V30 6030 H 945.812 7.03551 4.13168 0
M  V30 6031 H 948.467 4.59498 3.54415 0
M  V30 6032 H 948.746 6.88898 1.59848 0
M  V30 6033 H 949.738 6.46749 3.03687 0
M  V30 6034 H 947.904 8.46908 3.20714 0
M  V30 6035 H 947.855 5.86405 -0.105564 0
M  V30 6036 H 948.537 -0.483664 0.597855 0
M  V30 6037 H 948.574 0.187865 4.0116 0
M  V30 6038 H 948.675 -1.03585 2.71726 0
M  V30 6039 P 949.774 7.20834 5.23717 0
M  V30 6040 O 949.994 7.79853 6.57286 0
M  V30 6041 O 950.564 7.79239 4.12957 0
M  V30 6042 O 950.024 5.63315 5.29344 0
M  V30 6043 C 949.084 4.80255 6.01876 0
M  V30 6044 C 949.814 3.64202 6.65911 0
M  V30 6045 O 950.024 2.60694 5.64732 0
M  V30 6046 C 951.214 3.93473 7.1943 0
M  V30 6047 O 951.604 3.02071 8.21205 0
M  V30 6048 C 952.094 3.73047 5.97036 0
M  V30 6049 C 951.384 2.58828 5.25741 0
M  V30 6050 N 951.434 2.68068 3.77503 0
M  V30 6051 C 951.354 3.79715 2.96723 0
M  V30 6052 N 951.434 3.5377 1.68852 0
M  V30 6053 C 951.574 2.15054 1.63254 0
M  V30 6054 C 951.704 1.28964 0.518571 0
M  V30 6055 O 951.724 1.56826 -0.679156 0
M  V30 6056 N 951.824 -0.0538097 0.918425 0
M  V30 6057 C 951.824 -0.494275 2.22578 0
M  V30 6058 N 951.954 -1.81086 2.40434 0
M  V30 6059 N 951.694 0.313645 3.27502 0
M  V30 6060 C 951.574 1.61829 2.91033 0
M  V30 6061 H 948.595 5.40332 6.79951 0
M  V30 6062 H 948.325 4.41613 5.32378 0
M  V30 6063 H 949.192 3.26331 7.47797 0
M  V30 6064 H 951.847 1.63422 5.56814 0
M  V30 6065 H 952.126 4.63374 5.34244 0
M  V30 6066 H 953.118 3.44728 6.25838 0
M  V30 6067 H 951.284 4.96652 7.57263 0
M  V30 6068 H 951.235 4.80617 3.3614 0
M  V30 6069 H 951.917 -0.742702 0.199384 0
M  V30 6070 H 951.954 -2.20598 3.35588 0
M  V30 6071 H 952.055 -2.43518 1.58945 0
M  V30 6072 P 953.154 2.75334 8.47391 0
M  V30 6073 O 953.374 2.44595 9.90239 0
M  V30 6074 O 953.944 3.87732 7.92204 0
M  V30 6075 O 953.404 1.4459 7.59357 0
M  V30 6076 C 952.464 0.347563 7.69115 0
M  V30 6077 C 953.194 -0.96767 7.52806 0
M  V30 6078 O 953.404 -1.21036 6.1011 0
M  V30 6079 C 954.594 -1.04544 8.13308 0
M  V30 6080 O 954.984 -2.38311 8.41922 0
M  V30 6081 C 955.474 -0.491279 7.02284 0
M  V30 6082 C 954.764 -0.996264 5.77469 0
M  V30 6083 N 954.814 -0.0501808 4.62873 0
M  V30 6084 C 954.964 -0.588177 3.36904 0
M  V30 6085 O 955.054 -1.78598 3.17173 0
M  V30 6086 N 955.004 0.329694 2.33686 0
M  V30 6087 C 954.914 1.6953 2.45079 0
M  V30 6088 C 954.764 2.16933 3.80505 0
M  V30 6089 C 954.714 1.30326 4.83752 0
M  V30 6090 H 951.974 0.374722 8.67691 0
M  V30 6091 H 951.705 0.443421 6.90177 0
M  V30 6092 H 952.572 -1.75537 7.96793 0
M  V30 6093 H 955.227 -1.94496 5.46629 0
M  V30 6094 H 955.506 0.608651 7.04676 0
M  V30 6095 H 956.498 -0.889672 7.08939 0
M  V30 6096 H 954.664 -0.43308 9.04564 0
M  V30 6097 H 954.593 1.68366 5.8516 0
M  V30 6098 P 956.534 -2.75334 8.47391 0
M  V30 6099 O 956.754 -3.84128 9.44797 0
M  V30 6100 O 957.324 -1.51947 8.68712 0
M  V30 6101 O 956.784 -3.29363 6.99321 0
M  V30 6102 C 955.844 -4.24011 6.4274 0
M  V30 6103 C 956.574 -5.20775 5.52155 0
M  V30 6104 O 956.784 -4.56534 4.22446 0
M  V30 6105 C 957.974 -5.62629 5.96531 0
M  V30 6106 O 958.364 -6.87667 5.41053 0
M  V30 6107 C 958.854 -4.52537 5.39283 0
M  V30 6108 C 958.144 -4.20027 4.08623 0
M  V30 6109 N 958.194 -2.76189 3.71603 0
M  V30 6110 C 958.114 -1.64862 4.52822 0
M  V30 6111 N 958.194 -0.512671 3.88633 0
M  V30 6112 C 958.334 -0.888083 2.54977 0
M  V30 6113 C 958.464 -0.094668 1.38677 0
M  V30 6114 O 958.484 1.13053 1.28163 0
M  V30 6115 N 958.584 -0.890102 0.232633 0
M  V30 6116 C 958.584 -2.26958 0.21772 0
M  V30 6117 N 958.714 -2.84626 -0.97925 0
M  V30 6118 N 958.454 -3.0178 1.31033 0
M  V30 6119 C 958.334 -2.26781 2.43843 0
M  V30 6120 H 955.355 -4.797 7.24003 0
M  V30 6121 H 955.085 -3.69856 5.84513 0
M  V30 6122 H 955.952 -6.10356 5.41441 0
M  V30 6123 H 958.607 -4.79061 3.27488 0
M  V30 6124 H 958.886 -3.64906 6.05785 0
M  V30 6125 H 959.878 -4.8868 5.2125 0
M  V30 6126 H 958.044 -5.66726 7.06352 0
M  V30 6127 H 957.995 -1.71169 5.60966 0
M  V30 6128 H 958.677 -0.419134 -0.644739 0
M  V30 6129 H 958.714 -3.87332 -1.06098 0
M  V30 6130 H 958.815 -2.26417 -1.82483 0
M  V30 6131 P 959.914 -7.20834 5.23717 0
M  V30 6132 O 960.134 -8.66104 5.38572 0
M  V30 6133 O 960.704 -6.33544 6.1349 0
M  V30 6134 O 960.164 -6.7751 3.72168 0
M  V30 6135 C 959.224 -7.20825 2.7076 0
M  V30 6136 C 959.954 -7.45864 1.40599 0
M  V30 6137 O 960.164 -6.17651 0.734225 0
M  V30 6138 C 961.354 -8.05808 1.51899 0
M  V30 6139 O 961.744 -8.74358 0.335205 0
M  V30 6140 C 962.234 -6.83093 1.70294 0
M  V30 6141 C 961.524 -5.79992 0.836974 0
M  V30 6142 N 961.574 -4.41864 1.38293 0
M  V30 6143 C 961.494 -3.99538 2.69438 0
M  V30 6144 N 961.574 -2.69909 2.84277 0
M  V30 6145 C 961.714 -2.21719 1.5408 0
M  V30 6146 C 961.844 -0.891712 1.06628 0
M  V30 6147 O 961.864 0.161298 1.70137 0
M  V30 6148 N 961.964 -0.856846 -0.334985 0
M  V30 6149 C 961.964 -1.9641 -1.15789 0
M  V30 6150 N 962.094 -1.72708 -2.46522 0
M  V30 6151 N 961.834 -3.21165 -0.713741 0
M  V30 6152 C 961.714 -3.26797 0.639748 0
M  V30 6153 H 958.735 -8.13644 3.0377 0
M  V30 6154 H 958.465 -6.42788 2.55485 0
M  V30 6155 H 959.332 -8.12039 0.792769 0
M  V30 6156 H 961.987 -5.80061 -0.166416 0
M  V30 6157 H 962.266 -6.51287 2.75604 0
M  V30 6158 H 963.258 -7.01734 1.34462 0
M  V30 6159 H 961.424 -8.73674 2.38337 0
M  V30 6160 H 961.375 -4.68207 3.53221 0
M  V30 6161 H 962.057 0.0398818 -0.767965 0
M  V30 6162 H 962.094 -2.50995 -3.13503 0
M  V30 6163 H 962.195 -0.759148 -2.80716 0
M  V30 6164 P 963.294 -8.91 -7.18673e-12 0
M  V30 6165 O 963.514 -10.1726 -0.733694 0
M  V30 6166 O 964.084 -8.73148 1.23936 0
M  V30 6167 O 963.544 -7.66872 -0.971405 0
M  V30 6168 C 962.604 -7.42309 -2.04641 0
M  V30 6169 C 963.334 -6.86059 -3.24661 0
M  V30 6170 O 963.544 -5.42847 -3.03646 0
M  V30 6171 C 964.734 -7.41196 -3.50753 0
M  V30 6172 O 965.124 -7.27073 -4.86816 0
M  V30 6173 C 965.614 -6.5273 -2.63741 0
M  V30 6174 C 964.904 -5.1842 -2.73198 0
M  V30 6175 N 964.954 -4.38762 -1.4784 0
M  V30 6176 C 964.874 -4.81605 -0.168631 0
M  V30 6177 N 964.954 -3.85454 0.713363 0
M  V30 6178 C 965.094 -2.6994 -0.0566958 0
M  V30 6179 C 965.224 -1.34815 0.338502 0
M  V30 6180 O 965.244 -0.869548 1.47125 0
M  V30 6181 N 965.344 -0.496304 -0.77465 0
M  V30 6182 C 965.344 -0.908403 -2.09122 0
M  V30 6183 N 965.474 0.0517805 -3.00955 0
M  V30 6184 N 965.214 -2.17875 -2.46519 0
M  V30 6185 C 965.094 -3.01988 -1.4033 0
M  V30 6186 H 962.115 -8.36803 -2.32493 0
M  V30 6187 H 961.845 -6.70197 -1.71129 0
M  V30 6188 H 962.712 -7.03551 -4.13168 0
M  V30 6189 H 965.367 -4.59498 -3.54415 0
M  V30 6190 H 965.646 -6.88898 -1.59848 0
M  V30 6191 H 966.638 -6.46749 -3.03687 0
M  V30 6192 H 964.804 -8.46908 -3.20714 0
M  V30 6193 H 964.755 -5.86405 0.105564 0
M  V30 6194 H 965.437 0.483664 -0.597855 0
M  V30 6195 H 965.474 -0.187865 -4.0116 0
M  V30 6196 H 965.575 1.03585 -2.71726 0
M  V30 6197 P 966.674 -7.20834 -5.23717 0
M  V30 6198 O 966.894 -7.7993 -6.57351 0
M  V30 6199 O 967.464 -7.79328 -4.13004 0
M  V30 6200 O 966.924 -5.63315 -5.29344 0
M  V30 6201 C 965.984 -4.80193 -6.01798 0
M  V30 6202 C 966.714 -3.64202 -6.65911 0
M  V30 6203 O 966.924 -2.60694 -5.64732 0
M  V30 6204 C 968.114 -3.93473 -7.1943 0
M  V30 6205 O 968.504 -3.02071 -8.21205 0
M  V30 6206 C 968.994 -3.73047 -5.97036 0
M  V30 6207 C 968.284 -2.58828 -5.25741 0
M  V30 6208 N 968.334 -2.6801 -3.77422 0
M  V30 6209 C 968.484 -1.50443 -3.07133 0
M  V30 6210 O 968.574 -0.419406 -3.61576 0
M  V30 6211 N 968.524 -1.6403 -1.69677 0
M  V30 6212 C 968.434 -2.81206 -0.986255 0
M  V30 6213 C 968.284 -3.99158 -1.80325 0
M  V30 6214 C 968.234 -3.89779 -3.1476 0
M  V30 6215 H 965.494 -5.40332 -6.79951 0
M  V30 6216 H 965.225 -4.41549 -5.32301 0
M  V30 6217 H 966.092 -3.26331 -7.47797 0
M  V30 6218 H 968.747 -1.6395 -5.56554 0
M  V30 6219 H 969.026 -4.63439 -5.3432 0
M  V30 6220 H 970.018 -3.44728 -6.25838 0
M  V30 6221 H 968.184 -4.96652 -7.57263 0
M  V30 6222 H 968.113 -4.80159 -3.74441 0
M  V30 6223 P 970.054 -2.75334 -8.47391 0
M  V30 6224 O 970.274 -2.44571 -9.90142 0
M  V30 6225 O 970.844 -3.87688 -7.92115 0
M  V30 6226 O 970.304 -1.4459 -7.59357 0
M  V30 6227 C 969.364 -0.347608 -7.69215 0
M  V30 6228 C 970.094 0.96767 -7.52806 0
M  V30 6229 O 970.304 1.21036 -6.1011 0
M  V30 6230 C 971.494 1.04544 -8.13308 0
M  V30 6231 O 971.884 2.38311 -8.41922 0
M  V30 6232 C 972.374 0.491279 -7.02284 0
M  V30 6233 C 971.664 0.996264 -5.77469 0
M  V30 6234 N 971.714 0.0501916 -4.62973 0
M  V30 6235 H 968.875 -0.374722 -8.67691 0
M  V30 6236 H 968.605 -0.443485 -6.90277 0
M  V30 6237 H 969.472 1.75537 -7.96793 0
M  V30 6238 P 973.434 2.75334 -8.47391 0
M  V30 6239 O 973.654 3.84128 -9.44797 0
M  V30 6240 O 974.224 1.51947 -8.68712 0
M  V30 6241 O 973.684 3.29363 -6.99321 0
M  V30 6242 C 972.744 4.24011 -6.4274 0
M  V30 6243 C 973.474 5.20775 -5.52155 0
M  V30 6244 O 973.684 4.56534 -4.22446 0
M  V30 6245 C 974.874 5.62629 -5.96531 0
M  V30 6246 O 975.264 6.87667 -5.41053 0
M  V30 6247 C 975.754 4.52537 -5.39283 0
M  V30 6248 C 975.044 4.20027 -4.08623 0
M  V30 6249 N 975.094 2.76189 -3.71603 0
M  V30 6250 H 972.255 4.797 -7.24003 0
M  V30 6251 H 971.985 3.69856 -5.84513 0
M  V30 6252 H 972.852 6.10356 -5.41441 0
M  V30 6253 P 976.814 7.20834 -5.23717 0
M  V30 6254 O 977.034 8.66189 -5.38625 0
M  V30 6255 O 977.604 6.33615 -6.1356 0
M  V30 6256 O 977.064 6.7751 -3.72168 0
M  V30 6257 C 976.124 7.20732 -2.70725 0
M  V30 6258 C 976.854 7.45864 -1.40599 0
M  V30 6259 O 977.064 6.17651 -0.734225 0
M  V30 6260 C 978.254 8.05808 -1.51899 0
M  V30 6261 O 978.644 8.74358 -0.335205 0
M  V30 6262 C 979.134 6.83093 -1.70294 0
M  V30 6263 C 978.424 5.79992 -0.836974 0
M  V30 6264 N 978.474 4.41769 -1.38263 0
M  V30 6265 C 978.624 3.38591 -0.481702 0
M  V30 6266 O 978.714 3.56839 0.718452 0
M  V30 6267 N 978.664 2.1206 -1.03569 0
M  V30 6268 C 978.574 1.80696 -2.36966 0
M  V30 6269 C 978.424 2.94845 -3.23898 0
M  V30 6270 C 978.374 4.19803 -2.73435 0
M  V30 6271 H 975.634 8.13644 -3.0377 0
M  V30 6272 H 975.365 6.42695 -2.55448 0
M  V30 6273 H 976.232 8.12039 -0.792769 0
M  V30 6274 H 978.887 5.79978 0.160587 0
M  V30 6275 H 979.166 6.51379 -2.75643 0
M  V30 6276 H 980.158 7.01734 -1.34462 0
M  V30 6277 H 978.324 8.73674 -2.38337 0
M  V30 6278 H 978.253 5.04492 -3.4095 0
M  V30 6279 P 980.194 8.91 7.34391e-12 0
M  V30 6280 O 980.414 10.1726 0.733694 0
M  V30 6281 O 980.984 8.73148 -1.23936 0
M  V30 6282 O 980.444 7.66872 0.971405 0
M  V30 6283 C 979.504 7.42309 2.04641 0
M  V30 6284 C 980.234 6.86059 3.24661 0
M  V30 6285 O 980.444 5.42847 3.03646 0
M  V30 6286 C 981.634 7.41196 3.50753 0
M  V30 6287 O 982.024 7.27073 4.86816 0
M  V30 6288 C 982.514 6.5273 2.63741 0
M  V30 6289 C 981.804 5.1842 2.73198 0
M  V30 6290 N 981.854 4.38762 1.4784 0
M  V30 6291 C 981.774 4.81605 0.168631 0
M  V30 6292 N 981.854 3.85454 -0.713363 0
M  V30 6293 C 981.994 2.6994 0.0566958 0
M  V30 6294 C 982.124 1.34815 -0.338502 0
M  V30 6295 O 982.144 0.869548 -1.47125 0
M  V30 6296 N 982.244 0.496304 0.77465 0
M  V30 6297 C 982.244 0.908403 2.09122 0
M  V30 6298 N 982.374 -0.0517805 3.00955 0
M  V30 6299 N 982.114 2.17875 2.46519 0
M  V30 6300 C 981.994 3.01988 1.4033 0
M  V30 6301 H 979.015 8.36803 2.32493 0
M  V30 6302 H 978.745 6.70197 1.71129 0
M  V30 6303 H 979.612 7.03551 4.13168 0
M  V30 6304 H 982.267 4.59498 3.54415 0
M  V30 6305 H 982.546 6.88898 1.59848 0
M  V30 6306 H 983.538 6.46749 3.03687 0
M  V30 6307 H 981.704 8.46908 3.20714 0
M  V30 6308 H 981.655 5.86405 -0.105564 0
M  V30 6309 H 982.337 -0.483664 0.597855 0
M  V30 6310 H 982.374 0.187865 4.0116 0
M  V30 6311 H 982.475 -1.03585 2.71726 0
M  V30 6312 P 983.574 7.20834 5.23717 0
M  V30 6313 O 983.794 7.79853 6.57286 0
M  V30 6314 O 984.364 7.79239 4.12957 0
M  V30 6315 O 983.824 5.63315 5.29344 0
M  V30 6316 C 982.884 4.80255 6.01876 0
M  V30 6317 C 983.614 3.64202 6.65911 0
M  V30 6318 O 983.824 2.60694 5.64732 0
M  V30 6319 C 985.014 3.93473 7.1943 0
M  V30 6320 O 985.404 3.02071 8.21205 0
M  V30 6321 C 985.894 3.73047 5.97036 0
M  V30 6322 C 985.184 2.58828 5.25741 0
M  V30 6323 N 985.234 2.68068 3.77503 0
M  V30 6324 C 985.154 3.79715 2.96723 0
M  V30 6325 N 985.234 3.5377 1.68852 0
M  V30 6326 C 985.374 2.15054 1.63254 0
M  V30 6327 C 985.504 1.28964 0.518571 0
M  V30 6328 O 985.524 1.56826 -0.679156 0
M  V30 6329 N 985.624 -0.0538097 0.918425 0
M  V30 6330 C 985.624 -0.494275 2.22578 0
M  V30 6331 N 985.754 -1.81086 2.40434 0
M  V30 6332 N 985.494 0.313645 3.27502 0
M  V30 6333 C 985.374 1.61829 2.91033 0
M  V30 6334 H 982.395 5.40332 6.79951 0
M  V30 6335 H 982.125 4.41613 5.32378 0
M  V30 6336 H 982.992 3.26331 7.47797 0
M  V30 6337 H 985.647 1.63422 5.56814 0
M  V30 6338 H 985.926 4.63374 5.34244 0
M  V30 6339 H 986.918 3.44728 6.25838 0
M  V30 6340 H 985.084 4.96652 7.57263 0
M  V30 6341 H 985.035 4.80617 3.3614 0
M  V30 6342 H 985.717 -0.742702 0.199384 0
M  V30 6343 H 985.754 -2.20598 3.35588 0
M  V30 6344 H 985.855 -2.43518 1.58945 0
M  V30 6345 P 986.954 2.75334 8.47391 0
M  V30 6346 O 987.174 2.44571 9.90142 0
M  V30 6347 O 987.744 3.87688 7.92115 0
M  V30 6348 O 987.204 1.4459 7.59357 0
M  V30 6349 C 986.264 0.347608 7.69215 0
M  V30 6350 C 986.994 -0.96767 7.52806 0
M  V30 6351 O 987.204 -1.21036 6.1011 0
M  V30 6352 C 988.394 -1.04544 8.13308 0
M  V30 6353 O 988.784 -2.38311 8.41922 0
M  V30 6354 C 989.274 -0.491279 7.02284 0
M  V30 6355 C 988.564 -0.996264 5.77469 0
M  V30 6356 N 988.614 -0.0501916 4.62973 0
M  V30 6357 C 988.534 1.32786 4.63244 0
M  V30 6358 N 988.614 1.86957 3.44545 0
M  V30 6359 C 988.754 0.780241 2.58481 0
M  V30 6360 C 988.884 0.738536 1.17757 0
M  V30 6361 O 988.904 1.66794 0.372349 0
M  V30 6362 N 989.004 -0.58337 0.711393 0
M  V30 6363 C 989.004 -1.70816 1.51017 0
M  V30 6364 N 989.134 -2.87826 0.880757 0
M  V30 6365 N 988.874 -1.67126 2.8339 0
M  V30 6366 C 988.754 -0.401421 3.30572 0
M  V30 6367 H 985.775 0.374722 8.67691 0
M  V30 6368 H 985.505 0.443485 6.90277 0
M  V30 6369 H 986.372 -1.75537 7.96793 0
M  V30 6370 H 989.027 -1.95076 5.46529 0
M  V30 6371 H 989.306 0.608565 7.04577 0
M  V30 6372 H 990.298 -0.889672 7.08939 0
M  V30 6373 H 988.464 -0.43308 9.04564 0
M  V30 6374 H 988.415 1.91249 5.54442 0
M  V30 6375 H 989.097 -0.718054 -0.275244 0
M  V30 6376 H 989.134 -3.75721 1.41832 0
M  V30 6377 H 989.235 -2.90436 -0.145468 0
M  V30 6378 P 990.334 -2.75334 8.47391 0
M  V30 6379 O 990.554 -3.84128 9.44797 0
M  V30 6380 O 991.124 -1.51947 8.68712 0
M  V30 6381 O 990.584 -3.29363 6.99321 0
M  V30 6382 C 989.644 -4.24011 6.4274 0
M  V30 6383 C 990.374 -5.20775 5.52155 0
M  V30 6384 O 990.584 -4.56534 4.22446 0
M  V30 6385 C 991.774 -5.62629 5.96531 0
M  V30 6386 O 992.164 -6.87667 5.41053 0
M  V30 6387 C 992.654 -4.52537 5.39283 0
M  V30 6388 C 991.944 -4.20027 4.08623 0
M  V30 6389 N 991.994 -2.76189 3.71603 0
M  V30 6390 H 989.155 -4.797 7.24003 0
M  V30 6391 H 988.885 -3.69856 5.84513 0
M  V30 6392 H 989.752 -6.10356 5.41441 0
M  V30 6393 P 993.714 -7.20834 5.23717 0
M  V30 6394 O 993.934 -8.66189 5.38625 0
M  V30 6395 O 994.504 -6.33615 6.1356 0
M  V30 6396 O 993.964 -6.7751 3.72168 0
M  V30 6397 C 993.024 -7.20732 2.70725 0
M  V30 6398 C 993.754 -7.45864 1.40599 0
M  V30 6399 O 993.964 -6.17651 0.734225 0
M  V30 6400 C 995.154 -8.05808 1.51899 0
M  V30 6401 O 995.544 -8.74358 0.335205 0
M  V30 6402 C 996.034 -6.83093 1.70294 0
M  V30 6403 C 995.324 -5.79992 0.836974 0
M  V30 6404 N 995.374 -4.41769 1.38263 0
M  V30 6405 C 995.524 -3.38591 0.481702 0
M  V30 6406 O 995.614 -3.56839 -0.718452 0
M  V30 6407 N 995.564 -2.1206 1.03569 0
M  V30 6408 C 995.474 -1.80696 2.36966 0
M  V30 6409 C 995.324 -2.94845 3.23898 0
M  V30 6410 C 995.274 -4.19803 2.73435 0
M  V30 6411 H 992.534 -8.13644 3.0377 0
M  V30 6412 H 992.265 -6.42695 2.55448 0
M  V30 6413 H 993.132 -8.12039 0.792769 0
M  V30 6414 H 995.787 -5.79978 -0.160587 0
M  V30 6415 H 996.066 -6.51379 2.75643 0
M  V30 6416 H 997.058 -7.01734 1.34462 0
M  V30 6417 H 995.224 -8.73674 2.38337 0
M  V30 6418 H 995.153 -5.04492 3.4095 0
M  V30 6419 P 997.094 -8.91 -7.50109e-12 0
M  V30 6420 O 997.314 -10.1726 -0.733694 0
M  V30 6421 O 997.884 -8.73148 1.23936 0
M  V30 6422 O 997.344 -7.66872 -0.971405 0
M  V30 6423 C 996.404 -7.42309 -2.04641 0
M  V30 6424 C 997.134 -6.86059 -3.24661 0
M  V30 6425 O 997.344 -5.42847 -3.03646 0
M  V30 6426 C 998.534 -7.41196 -3.50753 0
M  V30 6427 O 998.924 -7.27073 -4.86816 0
M  V30 6428 C 999.414 -6.5273 -2.63741 0
M  V30 6429 C 998.704 -5.1842 -2.73198 0
M  V30 6430 N 998.754 -4.38762 -1.4784 0
M  V30 6431 C 998.674 -4.81605 -0.168631 0
M  V30 6432 N 998.754 -3.85454 0.713363 0
M  V30 6433 C 998.894 -2.6994 -0.0566958 0
M  V30 6434 C 999.024 -1.34815 0.338502 0
M  V30 6435 O 999.044 -0.869548 1.47125 0
M  V30 6436 N 999.144 -0.496304 -0.77465 0
M  V30 6437 C 999.144 -0.908403 -2.09122 0
M  V30 6438 N 999.274 0.0517805 -3.00955 0
M  V30 6439 N 999.014 -2.17875 -2.46519 0
M  V30 6440 C 998.894 -3.01988 -1.4033 0
M  V30 6441 H 995.915 -8.36803 -2.32493 0
M  V30 6442 H 995.645 -6.70197 -1.71129 0
M  V30 6443 H 996.512 -7.03551 -4.13168 0
M  V30 6444 H 999.167 -4.59498 -3.54415 0
M  V30 6445 H 999.446 -6.88898 -1.59848 0
M  V30 6446 H 1000.44 -6.46749 -3.03687 0
M  V30 6447 H 998.604 -8.46908 -3.20714 0
M  V30 6448 H 998.555 -5.86405 0.105564 0
M  V30 6449 H 999.237 0.483664 -0.597855 0
M  V30 6450 H 999.274 -0.187865 -4.0116 0
M  V30 6451 H 999.375 1.03585 -2.71726 0
M  V30 6452 P 1000.47 -7.20834 -5.23717 0
M  V30 6453 O 1000.69 -7.79853 -6.57286 0
M  V30 6454 O 1001.26 -7.79239 -4.12957 0
M  V30 6455 O 1000.72 -5.63315 -5.29344 0
M  V30 6456 C 999.784 -4.80255 -6.01876 0
M  V30 6457 C 1000.51 -3.64202 -6.65911 0
M  V30 6458 O 1000.72 -2.60694 -5.64732 0
M  V30 6459 C 1001.91 -3.93473 -7.1943 0
M  V30 6460 O 1002.3 -3.02071 -8.21205 0
M  V30 6461 C 1002.79 -3.73047 -5.97036 0
M  V30 6462 C 1002.08 -2.58828 -5.25741 0
M  V30 6463 N 1002.13 -2.68068 -3.77503 0
M  V30 6464 H 999.295 -5.40332 -6.79951 0
M  V30 6465 H 999.025 -4.41613 -5.32378 0
M  V30 6466 H 999.892 -3.26331 -7.47797 0
M  V30 6467 P 1003.85 -2.75334 -8.47391 0
M  V30 6468 O 1004.07 -2.44571 -9.90142 0
M  V30 6469 O 1004.64 -3.87688 -7.92115 0
M  V30 6470 O 1004.1 -1.4459 -7.59357 0
M  V30 6471 C 1003.16 -0.347608 -7.69215 0
M  V30 6472 C 1003.89 0.96767 -7.52806 0
M  V30 6473 O 1004.1 1.21036 -6.1011 0
M  V30 6474 C 1005.29 1.04544 -8.13308 0
M  V30 6475 O 1005.68 2.38311 -8.41922 0
M  V30 6476 C 1006.17 0.491279 -7.02284 0
M  V30 6477 C 1005.46 0.996264 -5.77469 0
M  V30 6478 N 1005.51 0.0501916 -4.62973 0
M  V30 6479 C 1005.43 -1.32786 -4.63244 0
M  V30 6480 N 1005.51 -1.86957 -3.44545 0
M  V30 6481 C 1005.65 -0.780241 -2.58481 0
M  V30 6482 C 1005.78 -0.738536 -1.17757 0
M  V30 6483 O 1005.8 -1.66794 -0.372349 0
M  V30 6484 N 1005.9 0.58337 -0.711393 0
M  V30 6485 C 1005.9 1.70816 -1.51017 0
M  V30 6486 N 1006.03 2.87826 -0.880757 0
M  V30 6487 N 1005.77 1.67126 -2.8339 0
M  V30 6488 C 1005.65 0.401421 -3.30572 0
M  V30 6489 H 1002.68 -0.374722 -8.67691 0
M  V30 6490 H 1002.41 -0.443485 -6.90277 0
M  V30 6491 H 1003.27 1.75537 -7.96793 0
M  V30 6492 H 1005.93 1.95076 -5.46529 0
M  V30 6493 H 1006.21 -0.608565 -7.04577 0
M  V30 6494 H 1007.2 0.889672 -7.08939 0
M  V30 6495 H 1005.36 0.43308 -9.04564 0
M  V30 6496 H 1005.32 -1.91249 -5.54442 0
M  V30 6497 H 1006 0.718054 0.275244 0
M  V30 6498 H 1006.03 3.75721 -1.41832 0
M  V30 6499 H 1006.14 2.90436 0.145468 0
M  V30 6500 P 1007.23 2.75334 -8.47391 0
M  V30 6501 O 1007.45 3.84128 -9.44797 0
M  V30 6502 O 1008.02 1.51947 -8.68712 0
M  V30 6503 O 1007.48 3.29363 -6.99321 0
M  V30 6504 C 1006.54 4.24011 -6.4274 0
M  V30 6505 C 1007.27 5.20775 -5.52155 0
M  V30 6506 O 1007.48 4.56534 -4.22446 0
M  V30 6507 C 1008.67 5.62629 -5.96531 0
M  V30 6508 O 1009.06 6.87667 -5.41053 0
M  V30 6509 C 1009.55 4.52537 -5.39283 0
M  V30 6510 C 1008.84 4.20027 -4.08623 0
M  V30 6511 N 1008.89 2.76189 -3.71603 0
M  V30 6512 H 1006.06 4.797 -7.24003 0
M  V30 6513 H 1005.79 3.69856 -5.84513 0
M  V30 6514 H 1006.65 6.10356 -5.41441 0
M  V30 6515 P 1010.61 7.20834 -5.23717 0
M  V30 6516 O 1010.83 8.66189 -5.38625 0
M  V30 6517 O 1011.4 6.33615 -6.1356 0
M  V30 6518 O 1010.86 6.7751 -3.72168 0
M  V30 6519 C 1009.92 7.20732 -2.70725 0
M  V30 6520 C 1010.65 7.45864 -1.40599 0
M  V30 6521 O 1010.86 6.17651 -0.734225 0
M  V30 6522 C 1012.05 8.05808 -1.51899 0
M  V30 6523 O 1012.44 8.74358 -0.335205 0
M  V30 6524 C 1012.93 6.83093 -1.70294 0
M  V30 6525 C 1012.22 5.79992 -0.836974 0
M  V30 6526 N 1012.27 4.41769 -1.38263 0
M  V30 6527 C 1012.42 3.38591 -0.481702 0
M  V30 6528 O 1012.51 3.56839 0.718452 0
M  V30 6529 N 1012.46 2.1206 -1.03569 0
M  V30 6530 C 1012.37 1.80696 -2.36966 0
M  V30 6531 C 1012.22 2.94845 -3.23898 0
M  V30 6532 C 1012.17 4.19803 -2.73435 0
M  V30 6533 H 1009.43 8.13644 -3.0377 0
M  V30 6534 H 1009.17 6.42695 -2.55448 0
M  V30 6535 H 1010.03 8.12039 -0.792769 0
M  V30 6536 H 1012.69 5.79978 0.160587 0
M  V30 6537 H 1012.97 6.51379 -2.75643 0
M  V30 6538 H 1013.96 7.01734 -1.34462 0
M  V30 6539 H 1012.12 8.73674 -2.38337 0
M  V30 6540 H 1012.05 5.04492 -3.4095 0
M  V30 6541 P 1013.99 8.91 7.65827e-12 0
M  V30 6542 O 1014.21 10.1726 0.733694 0
M  V30 6543 O 1014.78 8.73148 -1.23936 0
M  V30 6544 O 1014.24 7.66872 0.971405 0
M  V30 6545 C 1013.3 7.42309 2.04641 0
M  V30 6546 C 1014.03 6.86059 3.24661 0
M  V30 6547 O 1014.24 5.42847 3.03646 0
M  V30 6548 C 1015.43 7.41196 3.50753 0
M  V30 6549 O 1015.82 7.27073 4.86816 0
M  V30 6550 C 1016.31 6.5273 2.63741 0
M  V30 6551 C 1015.6 5.1842 2.73198 0
M  V30 6552 N 1015.65 4.38762 1.4784 0
M  V30 6553 H 1012.82 8.36803 2.32493 0
M  V30 6554 H 1012.55 6.70197 1.71129 0
M  V30 6555 H 1013.41 7.03551 4.13168 0
M  V30 6556 P 1017.37 7.20834 5.23717 0
M  V30 6557 O 1017.59 7.79853 6.57286 0
M  V30 6558 O 1018.16 7.79239 4.12957 0
M  V30 6559 O 1017.62 5.63315 5.29344 0
M  V30 6560 C 1016.68 4.80255 6.01876 0
M  V30 6561 C 1017.41 3.64202 6.65911 0
M  V30 6562 O 1017.62 2.60694 5.64732 0
M  V30 6563 C 1018.81 3.93473 7.1943 0
M  V30 6564 O 1019.2 3.02071 8.21205 0
M  V30 6565 C 1019.69 3.73047 5.97036 0
M  V30 6566 C 1018.98 2.58828 5.25741 0
M  V30 6567 N 1019.03 2.68068 3.77503 0
M  V30 6568 H 1016.19 5.40332 6.79951 0
M  V30 6569 H 1015.92 4.41613 5.32378 0
M  V30 6570 H 1016.79 3.26331 7.47797 0
M  V30 6571 P 1020.75 2.75334 8.47391 0
M  V30 6572 O 1020.97 2.44571 9.90142 0
M  V30 6573 O 1021.54 3.87688 7.92115 0
M  V30 6574 O 1021 1.4459 7.59357 0
M  V30 6575 C 1020.06 0.347608 7.69215 0
M  V30 6576 C 1020.79 -0.96767 7.52806 0
M  V30 6577 O 1021 -1.21036 6.1011 0
M  V30 6578 C 1022.19 -1.04544 8.13308 0
M  V30 6579 O 1022.58 -2.38311 8.41922 0
M  V30 6580 C 1023.07 -0.491279 7.02284 0
M  V30 6581 C 1022.36 -0.996264 5.77469 0
M  V30 6582 N 1022.41 -0.0501916 4.62973 0
M  V30 6583 H 1019.57 0.374722 8.67691 0
M  V30 6584 H 1019.3 0.443485 6.90277 0
M  V30 6585 H 1020.17 -1.75537 7.96793 0
M  V30 6586 P 1024.13 -2.75334 8.47391 0
M  V30 6587 O 1024.35 -3.84128 9.44797 0
M  V30 6588 O 1024.92 -1.51947 8.68712 0
M  V30 6589 O 1024.38 -3.29363 6.99321 0
M  V30 6590 C 1023.44 -4.24011 6.4274 0
M  V30 6591 C 1024.17 -5.20775 5.52155 0
M  V30 6592 O 1024.38 -4.56534 4.22446 0
M  V30 6593 C 1025.57 -5.62629 5.96531 0
M  V30 6594 O 1025.96 -6.87667 5.41053 0
M  V30 6595 C 1026.45 -4.52537 5.39283 0
M  V30 6596 C 1025.74 -4.20027 4.08623 0
M  V30 6597 N 1025.79 -2.76189 3.71603 0
M  V30 6598 C 1025.71 -1.64862 4.52822 0
M  V30 6599 N 1025.79 -0.512671 3.88633 0
M  V30 6600 C 1025.93 -0.888083 2.54977 0
M  V30 6601 C 1026.06 -0.094668 1.38677 0
M  V30 6602 O 1026.08 1.13053 1.28163 0
M  V30 6603 N 1026.18 -0.890102 0.232633 0
M  V30 6604 C 1026.18 -2.26958 0.21772 0
M  V30 6605 N 1026.31 -2.84626 -0.97925 0
M  V30 6606 N 1026.05 -3.0178 1.31033 0
M  V30 6607 C 1025.93 -2.26781 2.43843 0
M  V30 6608 H 1022.95 -4.797 7.24003 0
M  V30 6609 H 1022.68 -3.69856 5.84513 0
M  V30 6610 H 1023.55 -6.10356 5.41441 0
M  V30 6611 H 1026.21 -4.79061 3.27488 0
M  V30 6612 H 1026.49 -3.64906 6.05785 0
M  V30 6613 H 1027.48 -4.8868 5.2125 0
M  V30 6614 H 1025.64 -5.66726 7.06352 0
M  V30 6615 H 1025.59 -1.71169 5.60966 0
M  V30 6616 H 1026.28 -0.419134 -0.644739 0
M  V30 6617 H 1026.31 -3.87332 -1.06098 0
M  V30 6618 H 1026.41 -2.26417 -1.82483 0
M  V30 6619 P 1027.51 -7.20834 5.23717 0
M  V30 6620 O 1027.73 -8.66104 5.38572 0
M  V30 6621 O 1028.3 -6.33544 6.1349 0
M  V30 6622 O 1027.76 -6.7751 3.72168 0
M  V30 6623 C 1026.82 -7.20825 2.7076 0
M  V30 6624 C 1027.55 -7.45864 1.40599 0
M  V30 6625 O 1027.76 -6.17651 0.734225 0
M  V30 6626 C 1028.95 -8.05808 1.51899 0
M  V30 6627 O 1029.34 -8.74358 0.335205 0
M  V30 6628 C 1029.83 -6.83093 1.70294 0
M  V30 6629 C 1029.12 -5.79992 0.836974 0
M  V30 6630 N 1029.17 -4.41864 1.38293 0
M  V30 6631 H 1026.33 -8.13644 3.0377 0
M  V30 6632 H 1026.06 -6.42788 2.55485 0
M  V30 6633 H 1026.93 -8.12039 0.792769 0
M  V30 6634 P 1030.89 -8.91 -7.81545e-12 0
M  V30 6635 O 1031.11 -10.1736 -0.733766 0
M  V30 6636 O 1031.68 -8.73247 1.2395 0
M  V30 6637 O 1031.14 -7.66872 -0.971405 0
M  V30 6638 C 1030.2 -7.42212 -2.04614 0
M  V30 6639 C 1030.93 -6.86059 -3.24661 0
M  V30 6640 O 1031.14 -5.42847 -3.03646 0
M  V30 6641 C 1032.33 -7.41196 -3.50753 0
M  V30 6642 O 1032.72 -7.27073 -4.86816 0
M  V30 6643 C 1033.21 -6.5273 -2.63741 0
M  V30 6644 C 1032.5 -5.1842 -2.73198 0
M  V30 6645 N 1032.55 -4.38668 -1.47808 0
M  V30 6646 C 1032.7 -3.02239 -1.60048 0
M  V30 6647 O 1032.79 -2.46459 -2.67869 0
M  V30 6648 N 1032.74 -2.32436 -0.408571 0
M  V30 6649 C 1032.65 -2.85471 0.854993 0
M  V30 6650 C 1032.5 -4.28918 0.887335 0
M  V30 6651 C 1032.45 -5.00349 -0.255399 0
M  V30 6652 H 1029.71 -8.36803 -2.32493 0
M  V30 6653 H 1029.44 -6.701 -1.71105 0
M  V30 6654 H 1030.31 -7.03551 -4.13168 0
M  V30 6655 H 1032.97 -4.59773 -3.53894 0
M  V30 6656 H 1033.25 -6.88995 -1.59871 0
M  V30 6657 H 1034.24 -6.46749 -3.03687 0
M  V30 6658 H 1032.4 -8.46908 -3.20714 0
M  V30 6659 H 1032.33 -6.08548 -0.206986 0
M  V30 6660 P 1034.27 -7.20834 -5.23717 0
M  V30 6661 O 1034.49 -7.79853 -6.57286 0
M  V30 6662 O 1035.06 -7.79239 -4.12957 0
M  V30 6663 O 1034.52 -5.63315 -5.29344 0
M  V30 6664 C 1033.58 -4.80255 -6.01876 0
M  V30 6665 C 1034.31 -3.64202 -6.65911 0
M  V30 6666 O 1034.52 -2.60694 -5.64732 0
M  V30 6667 C 1035.71 -3.93473 -7.1943 0
M  V30 6668 O 1036.1 -3.02071 -8.21205 0
M  V30 6669 C 1036.59 -3.73047 -5.97036 0
M  V30 6670 C 1035.88 -2.58828 -5.25741 0
M  V30 6671 N 1035.93 -2.68068 -3.77503 0
M  V30 6672 H 1033.09 -5.40332 -6.79951 0
M  V30 6673 H 1032.82 -4.41613 -5.32378 0
M  V30 6674 H 1033.69 -3.26331 -7.47797 0
M  V30 6675 P 1037.65 -2.75334 -8.47391 0
M  V30 6676 O 1037.87 -2.44571 -9.90142 0
M  V30 6677 O 1038.44 -3.87688 -7.92115 0
M  V30 6678 O 1037.9 -1.4459 -7.59357 0
M  V30 6679 C 1036.96 -0.347608 -7.69215 0
M  V30 6680 C 1037.69 0.96767 -7.52806 0
M  V30 6681 O 1037.9 1.21036 -6.1011 0
M  V30 6682 C 1039.09 1.04544 -8.13308 0
M  V30 6683 O 1039.48 2.38311 -8.41922 0
M  V30 6684 C 1039.97 0.491279 -7.02284 0
M  V30 6685 C 1039.26 0.996264 -5.77469 0
M  V30 6686 N 1039.31 0.0501916 -4.62973 0
M  V30 6687 H 1036.47 -0.374722 -8.67691 0
M  V30 6688 H 1036.2 -0.443485 -6.90277 0
M  V30 6689 H 1037.07 1.75537 -7.96793 0
M  V30 6690 P 1041.03 2.75334 -8.47391 0
M  V30 6691 O 1041.25 3.84128 -9.44797 0
M  V30 6692 O 1041.82 1.51947 -8.68712 0
M  V30 6693 O 1041.28 3.29363 -6.99321 0
M  V30 6694 C 1040.34 4.24011 -6.4274 0
M  V30 6695 C 1041.07 5.20775 -5.52155 0
M  V30 6696 O 1041.28 4.56534 -4.22446 0
M  V30 6697 C 1042.47 5.62629 -5.96531 0
M  V30 6698 O 1042.86 6.87667 -5.41053 0
M  V30 6699 C 1043.35 4.52537 -5.39283 0
M  V30 6700 C 1042.64 4.20027 -4.08623 0
M  V30 6701 N 1042.69 2.76189 -3.71603 0
M  V30 6702 H 1039.85 4.797 -7.24003 0
M  V30 6703 H 1039.58 3.69856 -5.84513 0
M  V30 6704 H 1040.45 6.10356 -5.41441 0
M  V30 6705 P 1044.41 7.20834 -5.23717 0
M  V30 6706 O 1044.63 8.66104 -5.38572 0
M  V30 6707 O 1045.2 6.33544 -6.1349 0
M  V30 6708 O 1044.66 6.7751 -3.72168 0
M  V30 6709 C 1043.72 7.20825 -2.7076 0
M  V30 6710 C 1044.45 7.45864 -1.40599 0
M  V30 6711 O 1044.66 6.17651 -0.734225 0
M  V30 6712 C 1045.85 8.05808 -1.51899 0
M  V30 6713 O 1046.24 8.74358 -0.335205 0
M  V30 6714 C 1046.73 6.83093 -1.70294 0
M  V30 6715 C 1046.02 5.79992 -0.836974 0
M  V30 6716 N 1046.07 4.41864 -1.38293 0
M  V30 6717 H 1043.23 8.13644 -3.0377 0
M  V30 6718 H 1042.96 6.42788 -2.55485 0
M  V30 6719 H 1043.83 8.12039 -0.792769 0
M  V30 6720 P 1047.79 8.91 7.97264e-12 0
M  V30 6721 O 1048.01 10.1726 0.733694 0
M  V30 6722 O 1048.58 8.73148 -1.23936 0
M  V30 6723 O 1048.04 7.66872 0.971405 0
M  V30 6724 C 1047.1 7.42309 2.04641 0
M  V30 6725 C 1047.83 6.86059 3.24661 0
M  V30 6726 O 1048.04 5.42847 3.03646 0
M  V30 6727 C 1049.23 7.41196 3.50753 0
M  V30 6728 O 1049.62 7.27073 4.86816 0
M  V30 6729 C 1050.11 6.5273 2.63741 0
M  V30 6730 C 1049.4 5.1842 2.73198 0
M  V30 6731 N 1049.45 4.38762 1.4784 0
M  V30 6732 H 1046.61 8.36803 2.32493 0
M  V30 6733 H 1046.34 6.70197 1.71129 0
M  V30 6734 H 1047.21 7.03551 4.13168 0
M  V30 6735 P 1051.17 7.20834 5.23717 0
M  V30 6736 O 1051.39 7.79853 6.57286 0
M  V30 6737 O 1051.96 7.79239 4.12957 0
M  V30 6738 O 1051.42 5.63315 5.29344 0
M  V30 6739 C 1050.48 4.80255 6.01876 0
M  V30 6740 C 1051.21 3.64202 6.65911 0
M  V30 6741 O 1051.42 2.60694 5.64732 0
M  V30 6742 C 1052.61 3.93473 7.1943 0
M  V30 6743 O 1053 3.02071 8.21205 0
M  V30 6744 C 1053.49 3.73047 5.97036 0
M  V30 6745 C 1052.78 2.58828 5.25741 0
M  V30 6746 N 1052.83 2.68068 3.77503 0
M  V30 6747 H 1049.99 5.40332 6.79951 0
M  V30 6748 H 1049.72 4.41613 5.32378 0
M  V30 6749 H 1050.59 3.26331 7.47797 0
M  V30 6750 P 1054.55 2.75334 8.47391 0
M  V30 6751 O 1054.77 2.44595 9.90239 0
M  V30 6752 O 1055.34 3.87732 7.92204 0
M  V30 6753 O 1054.8 1.4459 7.59357 0
M  V30 6754 C 1053.86 0.347563 7.69115 0
M  V30 6755 C 1054.59 -0.96767 7.52806 0
M  V30 6756 O 1054.8 -1.21036 6.1011 0
M  V30 6757 C 1055.99 -1.04544 8.13308 0
M  V30 6758 O 1056.38 -2.38311 8.41922 0
M  V30 6759 C 1056.87 -0.491279 7.02284 0
M  V30 6760 C 1056.16 -0.996264 5.77469 0
M  V30 6761 N 1056.21 -0.0501808 4.62873 0
M  V30 6762 C 1056.36 -0.588177 3.36904 0
M  V30 6763 O 1056.45 -1.78598 3.17173 0
M  V30 6764 N 1056.4 0.329694 2.33686 0
M  V30 6765 C 1056.31 1.6953 2.45079 0
M  V30 6766 C 1056.16 2.16933 3.80505 0
M  V30 6767 C 1056.11 1.30326 4.83752 0
M  V30 6768 H 1053.37 0.374722 8.67691 0
M  V30 6769 H 1053.1 0.443421 6.90177 0
M  V30 6770 H 1053.97 -1.75537 7.96793 0
M  V30 6771 H 1056.63 -1.94496 5.46629 0
M  V30 6772 H 1056.91 0.608651 7.04676 0
M  V30 6773 H 1057.9 -0.889672 7.08939 0
M  V30 6774 H 1056.06 -0.43308 9.04564 0
M  V30 6775 H 1055.99 1.68366 5.8516 0
M  V30 6776 P 1057.93 -2.75334 8.47391 0
M  V30 6777 O 1058.15 -3.84128 9.44797 0
M  V30 6778 O 1058.72 -1.51947 8.68712 0
M  V30 6779 O 1058.18 -3.29363 6.99321 0
M  V30 6780 C 1057.24 -4.24011 6.4274 0
M  V30 6781 C 1057.97 -5.20775 5.52155 0
M  V30 6782 O 1058.18 -4.56534 4.22446 0
M  V30 6783 C 1059.37 -5.62629 5.96531 0
M  V30 6784 O 1059.76 -6.87667 5.41053 0
M  V30 6785 C 1060.25 -4.52537 5.39283 0
M  V30 6786 C 1059.54 -4.20027 4.08623 0
M  V30 6787 N 1059.59 -2.76189 3.71603 0
M  V30 6788 C 1059.51 -1.64862 4.52822 0
M  V30 6789 N 1059.59 -0.512671 3.88633 0
M  V30 6790 C 1059.73 -0.888083 2.54977 0
M  V30 6791 C 1059.86 -0.094668 1.38677 0
M  V30 6792 O 1059.88 1.13053 1.28163 0
M  V30 6793 N 1059.98 -0.890102 0.232633 0
M  V30 6794 C 1059.98 -2.26958 0.21772 0
M  V30 6795 N 1060.11 -2.84626 -0.97925 0
M  V30 6796 N 1059.85 -3.0178 1.31033 0
M  V30 6797 C 1059.73 -2.26781 2.43843 0
M  V30 6798 H 1056.75 -4.797 7.24003 0
M  V30 6799 H 1056.48 -3.69856 5.84513 0
M  V30 6800 H 1057.35 -6.10356 5.41441 0
M  V30 6801 H 1060.01 -4.79061 3.27488 0
M  V30 6802 H 1060.29 -3.64906 6.05785 0
M  V30 6803 H 1061.28 -4.8868 5.2125 0
M  V30 6804 H 1059.44 -5.66726 7.06352 0
M  V30 6805 H 1059.39 -1.71169 5.60966 0
M  V30 6806 H 1060.08 -0.419134 -0.644739 0
M  V30 6807 H 1060.11 -3.87332 -1.06098 0
M  V30 6808 H 1060.21 -2.26417 -1.82483 0
M  V30 6809 P 1061.31 -7.20834 5.23717 0
M  V30 6810 O 1061.53 -8.66104 5.38572 0
M  V30 6811 O 1062.1 -6.33544 6.1349 0
M  V30 6812 O 1061.56 -6.7751 3.72168 0
M  V30 6813 C 1060.62 -7.20825 2.7076 0
M  V30 6814 C 1061.35 -7.45864 1.40599 0
M  V30 6815 O 1061.56 -6.17651 0.734225 0
M  V30 6816 C 1062.75 -8.05808 1.51899 0
M  V30 6817 O 1063.14 -8.74358 0.335205 0
M  V30 6818 C 1063.63 -6.83093 1.70294 0
M  V30 6819 C 1062.92 -5.79992 0.836974 0
M  V30 6820 N 1062.97 -4.41864 1.38293 0
M  V30 6821 H 1060.13 -8.13644 3.0377 0
M  V30 6822 H 1059.86 -6.42788 2.55485 0
M  V30 6823 H 1060.73 -8.12039 0.792769 0
M  V30 6824 P 1064.69 -8.91 -8.12982e-12 0
M  V30 6825 O 1064.91 -10.1746 -0.733838 0
M  V30 6826 O 1065.48 -8.73346 1.23964 0
M  V30 6827 O 1064.94 -7.66872 -0.971405 0
M  V30 6828 C 1064 -7.42405 -2.04668 0
M  V30 6829 C 1064.73 -6.86059 -3.24661 0
M  V30 6830 O 1064.94 -5.42934 -3.03695 0
M  V30 6831 C 1066.13 -7.41287 -3.50796 0
M  V30 6832 O 1066.52 -7.27073 -4.86816 0
M  V30 6833 C 1067.01 -6.5273 -2.63741 0
M  V30 6834 C 1066.3 -5.1842 -2.73198 0
M  V30 6835 N 1066.35 -4.38762 -1.4784 0
M  V30 6836 H 1063.52 -8.36899 -2.3252 0
M  V30 6837 H 1063.24 -6.70391 -1.71179 0
M  V30 6838 H 1064.11 -7.03638 -4.13219 0
M  V30 6839 H 1066.77 -4.59931 -3.54016 0
M  V30 6840 H 1067.05 -6.88995 -1.59871 0
M  V30 6841 H 1068.04 -6.4684 -3.0373 0
M  V30 6842 H 1066.2 -8.47002 -3.20749 0
M  V30 6843 P 1068.07 -7.20834 -5.23717 0
M  V30 6844 O 1068.29 -7.79853 -6.57286 0
M  V30 6845 O 1068.86 -7.79239 -4.12957 0
M  V30 6846 O 1068.32 -5.63315 -5.29344 0
M  V30 6847 C 1067.38 -4.80255 -6.01876 0
M  V30 6848 C 1068.11 -3.64202 -6.65911 0
M  V30 6849 O 1068.32 -2.60694 -5.64732 0
M  V30 6850 C 1069.51 -3.93473 -7.1943 0
M  V30 6851 O 1069.9 -3.02071 -8.21205 0
M  V30 6852 C 1070.39 -3.73047 -5.97036 0
M  V30 6853 C 1069.68 -2.58828 -5.25741 0
M  V30 6854 N 1069.73 -2.68068 -3.77503 0
M  V30 6855 H 1066.89 -5.40332 -6.79951 0
M  V30 6856 H 1066.62 -4.41613 -5.32378 0
M  V30 6857 H 1067.49 -3.26331 -7.47797 0
M  V30 6858 P 1071.45 -2.75334 -8.47391 0
M  V30 6859 O 1071.67 -2.44571 -9.90142 0
M  V30 6860 O 1072.24 -3.87688 -7.92115 0
M  V30 6861 O 1071.7 -1.4459 -7.59357 0
M  V30 6862 C 1070.76 -0.347608 -7.69215 0
M  V30 6863 C 1071.49 0.96767 -7.52806 0
M  V30 6864 O 1071.7 1.21036 -6.1011 0
M  V30 6865 C 1072.89 1.04544 -8.13308 0
M  V30 6866 O 1073.28 2.38311 -8.41922 0
M  V30 6867 C 1073.77 0.491279 -7.02284 0
M  V30 6868 C 1073.06 0.996264 -5.77469 0
M  V30 6869 N 1073.11 0.0501916 -4.62973 0
M  V30 6870 H 1070.27 -0.374722 -8.67691 0
M  V30 6871 H 1070 -0.443485 -6.90277 0
M  V30 6872 H 1070.87 1.75537 -7.96793 0
M  V30 6873 P 1074.83 2.75334 -8.47391 0
M  V30 6874 O 1075.05 3.84128 -9.44797 0
M  V30 6875 O 1075.62 1.51947 -8.68712 0
M  V30 6876 O 1075.08 3.29363 -6.99321 0
M  V30 6877 C 1074.14 4.24011 -6.4274 0
M  V30 6878 C 1074.87 5.20775 -5.52155 0
M  V30 6879 O 1075.08 4.56534 -4.22446 0
M  V30 6880 C 1076.27 5.62629 -5.96531 0
M  V30 6881 O 1076.66 6.87667 -5.41053 0
M  V30 6882 C 1077.15 4.52537 -5.39283 0
M  V30 6883 C 1076.44 4.20027 -4.08623 0
M  V30 6884 N 1076.49 2.76189 -3.71603 0
M  V30 6885 C 1076.41 1.64862 -4.52822 0
M  V30 6886 N 1076.49 0.512671 -3.88633 0
M  V30 6887 C 1076.63 0.888083 -2.54977 0
M  V30 6888 C 1076.76 0.094668 -1.38677 0
M  V30 6889 O 1076.78 -1.13053 -1.28163 0
M  V30 6890 N 1076.88 0.890102 -0.232633 0
M  V30 6891 C 1076.88 2.26958 -0.21772 0
M  V30 6892 N 1077.01 2.84626 0.97925 0
M  V30 6893 N 1076.75 3.0178 -1.31033 0
M  V30 6894 C 1076.63 2.26781 -2.43843 0
M  V30 6895 H 1073.65 4.797 -7.24003 0
M  V30 6896 H 1073.38 3.69856 -5.84513 0
M  V30 6897 H 1074.25 6.10356 -5.41441 0
M  V30 6898 H 1076.91 4.79061 -3.27488 0
M  V30 6899 H 1077.19 3.64906 -6.05785 0
M  V30 6900 H 1078.18 4.8868 -5.2125 0
M  V30 6901 H 1076.34 5.66726 -7.06352 0
M  V30 6902 H 1076.29 1.71169 -5.60966 0
M  V30 6903 H 1076.98 0.419134 0.644739 0
M  V30 6904 H 1077.01 3.87332 1.06098 0
M  V30 6905 H 1077.11 2.26417 1.82483 0
M  V30 6906 P 1078.21 7.20834 -5.23717 0
M  V30 6907 O 1078.43 8.66104 -5.38572 0
M  V30 6908 O 1079 6.33544 -6.1349 0
M  V30 6909 O 1078.46 6.7751 -3.72168 0
M  V30 6910 C 1077.52 7.20825 -2.7076 0
M  V30 6911 C 1078.25 7.45864 -1.40599 0
M  V30 6912 O 1078.46 6.17651 -0.734225 0
M  V30 6913 C 1079.65 8.05808 -1.51899 0
M  V30 6914 O 1080.04 8.74358 -0.335205 0
M  V30 6915 C 1080.53 6.83093 -1.70294 0
M  V30 6916 C 1079.82 5.79992 -0.836974 0
M  V30 6917 N 1079.87 4.41864 -1.38293 0
M  V30 6918 H 1077.03 8.13644 -3.0377 0
M  V30 6919 H 1076.76 6.42788 -2.55485 0
M  V30 6920 H 1077.63 8.12039 -0.792769 0
M  V30 6921 P 1081.59 8.91 8.287e-12 0
M  V30 6922 O 1081.81 10.1726 0.733694 0
M  V30 6923 O 1082.38 8.73148 -1.23936 0
M  V30 6924 O 1081.84 7.66872 0.971405 0
M  V30 6925 C 1080.9 7.42309 2.04641 0
M  V30 6926 C 1081.63 6.86059 3.24661 0
M  V30 6927 O 1081.84 5.42847 3.03646 0
M  V30 6928 C 1083.03 7.41196 3.50753 0
M  V30 6929 O 1083.42 7.27073 4.86816 0
M  V30 6930 C 1083.91 6.5273 2.63741 0
M  V30 6931 C 1083.2 5.1842 2.73198 0
M  V30 6932 N 1083.25 4.38762 1.4784 0
M  V30 6933 H 1080.41 8.36803 2.32493 0
M  V30 6934 H 1080.14 6.70197 1.71129 0
M  V30 6935 H 1081.01 7.03551 4.13168 0
M  V30 6936 P 1084.97 7.20834 5.23717 0
M  V30 6937 O 1085.19 7.79853 6.57286 0
M  V30 6938 O 1085.76 7.79239 4.12957 0
M  V30 6939 O 1085.22 5.63315 5.29344 0
M  V30 6940 C 1084.28 4.80255 6.01876 0
M  V30 6941 C 1085.01 3.64202 6.65911 0
M  V30 6942 O 1085.22 2.60694 5.64732 0
M  V30 6943 C 1086.41 3.93473 7.1943 0
M  V30 6944 O 1086.8 3.02071 8.21205 0
M  V30 6945 C 1087.29 3.73047 5.97036 0
M  V30 6946 C 1086.58 2.58828 5.25741 0
M  V30 6947 N 1086.63 2.68068 3.77503 0
M  V30 6948 C 1086.55 3.79715 2.96723 0
M  V30 6949 N 1086.63 3.5377 1.68852 0
M  V30 6950 C 1086.77 2.15054 1.63254 0
M  V30 6951 C 1086.9 1.28964 0.518571 0
M  V30 6952 O 1086.92 1.56826 -0.679156 0
M  V30 6953 N 1087.02 -0.0538097 0.918425 0
M  V30 6954 C 1087.02 -0.494275 2.22578 0
M  V30 6955 N 1087.15 -1.81086 2.40434 0
M  V30 6956 N 1086.89 0.313645 3.27502 0
M  V30 6957 C 1086.77 1.61829 2.91033 0
M  V30 6958 H 1083.79 5.40332 6.79951 0
M  V30 6959 H 1083.52 4.41613 5.32378 0
M  V30 6960 H 1084.39 3.26331 7.47797 0
M  V30 6961 H 1087.05 1.63422 5.56814 0
M  V30 6962 H 1087.33 4.63374 5.34244 0
M  V30 6963 H 1088.32 3.44728 6.25838 0
M  V30 6964 H 1086.48 4.96652 7.57263 0
M  V30 6965 H 1086.43 4.80617 3.3614 0
M  V30 6966 H 1087.12 -0.742702 0.199384 0
M  V30 6967 H 1087.15 -2.20598 3.35588 0
M  V30 6968 H 1087.25 -2.43518 1.58945 0
M  V30 6969 P 1088.35 2.75334 8.47391 0
M  V30 6970 O 1088.57 2.44571 9.90142 0
M  V30 6971 O 1089.14 3.87688 7.92115 0
M  V30 6972 O 1088.6 1.4459 7.59357 0
M  V30 6973 C 1087.66 0.347608 7.69215 0
M  V30 6974 C 1088.39 -0.96767 7.52806 0
M  V30 6975 O 1088.6 -1.21036 6.1011 0
M  V30 6976 C 1089.79 -1.04544 8.13308 0
M  V30 6977 O 1090.18 -2.38311 8.41922 0
M  V30 6978 C 1090.67 -0.491279 7.02284 0
M  V30 6979 C 1089.96 -0.996264 5.77469 0
M  V30 6980 N 1090.01 -0.0501916 4.62973 0
M  V30 6981 C 1089.93 1.32786 4.63244 0
M  V30 6982 N 1090.01 1.86957 3.44545 0
M  V30 6983 C 1090.15 0.780241 2.58481 0
M  V30 6984 C 1090.28 0.738536 1.17757 0
M  V30 6985 O 1090.3 1.66794 0.372349 0
M  V30 6986 N 1090.4 -0.58337 0.711393 0
M  V30 6987 C 1090.4 -1.70816 1.51017 0
M  V30 6988 N 1090.53 -2.87826 0.880757 0
M  V30 6989 N 1090.27 -1.67126 2.8339 0
M  V30 6990 C 1090.15 -0.401421 3.30572 0
M  V30 6991 H 1087.17 0.374722 8.67691 0
M  V30 6992 H 1086.9 0.443485 6.90277 0
M  V30 6993 H 1087.77 -1.75537 7.96793 0
M  V30 6994 H 1090.43 -1.95076 5.46529 0
M  V30 6995 H 1090.71 0.608565 7.04577 0
M  V30 6996 H 1091.7 -0.889672 7.08939 0
M  V30 6997 H 1089.86 -0.43308 9.04564 0
M  V30 6998 H 1089.81 1.91249 5.54442 0
M  V30 6999 H 1090.5 -0.718054 -0.275244 0
M  V30 7000 H 1090.53 -3.75721 1.41832 0
M  V30 7001 H 1090.63 -2.90436 -0.145468 0
M  V30 7002 P 1091.73 -2.75334 8.47391 0
M  V30 7003 O 1091.95 -3.84128 9.44797 0
M  V30 7004 O 1092.52 -1.51947 8.68712 0
M  V30 7005 O 1091.98 -3.29363 6.99321 0
M  V30 7006 C 1091.04 -4.24011 6.4274 0
M  V30 7007 C 1091.77 -5.20775 5.52155 0
M  V30 7008 O 1091.98 -4.56534 4.22446 0
M  V30 7009 C 1093.17 -5.62629 5.96531 0
M  V30 7010 O 1093.56 -6.87667 5.41053 0
M  V30 7011 C 1094.05 -4.52537 5.39283 0
M  V30 7012 C 1093.34 -4.20027 4.08623 0
M  V30 7013 N 1093.39 -2.76189 3.71603 0
M  V30 7014 H 1090.55 -4.797 7.24003 0
M  V30 7015 H 1090.28 -3.69856 5.84513 0
M  V30 7016 H 1091.15 -6.10356 5.41441 0
M  V30 7017 P 1095.11 -7.20834 5.23717 0
M  V30 7018 O 1095.33 -8.66104 5.38572 0
M  V30 7019 O 1095.9 -6.33544 6.1349 0
M  V30 7020 O 1095.36 -6.7751 3.72168 0
M  V30 7021 C 1094.42 -7.20825 2.7076 0
M  V30 7022 C 1095.15 -7.45864 1.40599 0
M  V30 7023 O 1095.36 -6.17651 0.734225 0
M  V30 7024 C 1096.55 -8.05808 1.51899 0
M  V30 7025 O 1096.94 -8.74358 0.335205 0
M  V30 7026 C 1097.43 -6.83093 1.70294 0
M  V30 7027 C 1096.72 -5.79992 0.836974 0
M  V30 7028 N 1096.77 -4.41864 1.38293 0
M  V30 7029 C 1096.69 -3.99538 2.69438 0
M  V30 7030 N 1096.77 -2.69909 2.84277 0
M  V30 7031 C 1096.91 -2.21719 1.5408 0
M  V30 7032 C 1097.04 -0.891712 1.06628 0
M  V30 7033 N 1097.16 -0.856846 -0.334985 0
M  V30 7034 C 1097.16 -1.9641 -1.15789 0
M  V30 7035 N 1097.29 -1.72708 -2.46522 0
M  V30 7036 N 1097.03 -3.21165 -0.713741 0
M  V30 7037 C 1096.91 -3.26797 0.639748 0
M  V30 7038 H 1093.93 -8.13644 3.0377 0
M  V30 7039 H 1093.66 -6.42788 2.55485 0
M  V30 7040 H 1094.53 -8.12039 0.792769 0
M  V30 7041 P 1098.49 -8.91 -8.44418e-12 0
M  V30 7042 O 1098.71 -10.1726 -0.733694 0
M  V30 7043 O 1099.28 -8.73148 1.23936 0
M  V30 7044 O 1098.74 -7.66872 -0.971405 0
M  V30 7045 C 1097.8 -7.42309 -2.04641 0
M  V30 7046 C 1098.53 -6.86059 -3.24661 0
M  V30 7047 O 1098.74 -5.42847 -3.03646 0
M  V30 7048 C 1099.93 -7.41196 -3.50753 0
M  V30 7049 O 1100.32 -7.27073 -4.86816 0
M  V30 7050 C 1100.81 -6.5273 -2.63741 0
M  V30 7051 C 1100.1 -5.1842 -2.73198 0
M  V30 7052 N 1100.15 -4.38762 -1.4784 0
M  V30 7053 H 1097.31 -8.36803 -2.32493 0
M  V30 7054 H 1097.04 -6.70197 -1.71129 0
M  V30 7055 H 1097.91 -7.03551 -4.13168 0
M  V30 7056 P 1101.87 -7.20834 -5.23717 0
M  V30 7057 O 1102.09 -7.80006 -6.57415 0
M  V30 7058 O 1102.66 -7.79416 -4.13051 0
M  V30 7059 O 1102.12 -5.63315 -5.29344 0
M  V30 7060 C 1101.18 -4.80318 -6.01954 0
M  V30 7061 C 1101.91 -3.64202 -6.65911 0
M  V30 7062 O 1102.12 -2.60736 -5.64823 0
M  V30 7063 C 1103.31 -3.93521 -7.19518 0
M  V30 7064 O 1103.7 -3.02071 -8.21205 0
M  V30 7065 C 1104.19 -3.73047 -5.97036 0
M  V30 7066 C 1103.48 -2.58828 -5.25741 0
M  V30 7067 N 1103.53 -2.68068 -3.77503 0
M  V30 7068 H 1100.7 -5.40394 -6.8003 0
M  V30 7069 H 1100.42 -4.41741 -5.32532 0
M  V30 7070 H 1101.29 -3.26371 -7.47889 0
M  V30 7071 H 1103.95 -1.64007 -5.56746 0
M  V30 7072 H 1104.23 -4.63439 -5.3432 0
M  V30 7073 H 1105.22 -3.44776 -6.25925 0
M  V30 7074 H 1103.38 -4.96707 -7.57347 0
M  V30 7075 P 1105.25 -2.75334 -8.47391 0
M  V30 7076 O 1105.47 -2.44571 -9.90142 0
M  V30 7077 O 1106.04 -3.87688 -7.92115 0
M  V30 7078 O 1105.5 -1.4459 -7.59357 0
M  V30 7079 C 1104.56 -0.347608 -7.69215 0
M  V30 7080 C 1105.29 0.96767 -7.52806 0
M  V30 7081 O 1105.5 1.21036 -6.1011 0
M  V30 7082 C 1106.69 1.04544 -8.13308 0
M  V30 7083 O 1107.08 2.38311 -8.41922 0
M  V30 7084 C 1107.57 0.491279 -7.02284 0
M  V30 7085 C 1106.86 0.996264 -5.77469 0
M  V30 7086 N 1106.91 0.0501916 -4.62973 0
M  V30 7087 C 1106.83 -1.32786 -4.63244 0
M  V30 7088 N 1106.91 -1.86957 -3.44545 0
M  V30 7089 C 1107.05 -0.780241 -2.58481 0
M  V30 7090 C 1107.18 -0.738536 -1.17757 0
M  V30 7091 O 1107.2 -1.66794 -0.372349 0
M  V30 7092 N 1107.3 0.58337 -0.711393 0
M  V30 7093 C 1107.3 1.70816 -1.51017 0
M  V30 7094 N 1107.43 2.87826 -0.880757 0
M  V30 7095 N 1107.17 1.67126 -2.8339 0
M  V30 7096 C 1107.05 0.401421 -3.30572 0
M  V30 7097 H 1104.07 -0.374722 -8.67691 0
M  V30 7098 H 1103.8 -0.443485 -6.90277 0
M  V30 7099 H 1104.67 1.75537 -7.96793 0
M  V30 7100 H 1107.33 1.95076 -5.46529 0
M  V30 7101 H 1107.61 -0.608565 -7.04577 0
M  V30 7102 H 1108.6 0.889672 -7.08939 0
M  V30 7103 H 1106.76 0.43308 -9.04564 0
M  V30 7104 H 1106.71 -1.91249 -5.54442 0
M  V30 7105 H 1107.4 0.718054 0.275244 0
M  V30 7106 H 1107.43 3.75721 -1.41832 0
M  V30 7107 H 1107.53 2.90436 0.145468 0
M  V30 7108 P 1108.63 2.75334 -8.47391 0
M  V30 7109 O 1108.85 3.84128 -9.44797 0
M  V30 7110 O 1109.42 1.51947 -8.68712 0
M  V30 7111 O 1108.88 3.29363 -6.99321 0
M  V30 7112 C 1107.94 4.24011 -6.4274 0
M  V30 7113 C 1108.67 5.20775 -5.52155 0
M  V30 7114 O 1108.88 4.56534 -4.22446 0
M  V30 7115 C 1110.07 5.62629 -5.96531 0
M  V30 7116 O 1110.46 6.87667 -5.41053 0
M  V30 7117 C 1110.95 4.52537 -5.39283 0
M  V30 7118 C 1110.24 4.20027 -4.08623 0
M  V30 7119 N 1110.29 2.76189 -3.71603 0
M  V30 7120 C 1110.21 1.64862 -4.52822 0
M  V30 7121 N 1110.29 0.512671 -3.88633 0
M  V30 7122 C 1110.43 0.888083 -2.54977 0
M  V30 7123 C 1110.56 0.094668 -1.38677 0
M  V30 7124 O 1110.58 -1.13053 -1.28163 0
M  V30 7125 N 1110.68 0.890102 -0.232633 0
M  V30 7126 C 1110.68 2.26958 -0.21772 0
M  V30 7127 N 1110.81 2.84626 0.97925 0
M  V30 7128 N 1110.55 3.0178 -1.31033 0
M  V30 7129 C 1110.43 2.26781 -2.43843 0
M  V30 7130 H 1107.45 4.797 -7.24003 0
M  V30 7131 H 1107.18 3.69856 -5.84513 0
M  V30 7132 H 1108.05 6.10356 -5.41441 0
M  V30 7133 H 1110.71 4.79061 -3.27488 0
M  V30 7134 H 1110.99 3.64906 -6.05785 0
M  V30 7135 H 1111.98 4.8868 -5.2125 0
M  V30 7136 H 1110.14 5.66726 -7.06352 0
M  V30 7137 H 1110.09 1.71169 -5.60966 0
M  V30 7138 H 1110.78 0.419134 0.644739 0
M  V30 7139 H 1110.81 3.87332 1.06098 0
M  V30 7140 H 1110.91 2.26417 1.82483 0
M  V30 7141 P 1112.01 7.20834 -5.23717 0
M  V30 7142 O 1112.23 8.66104 -5.38572 0
M  V30 7143 O 1112.8 6.33544 -6.1349 0
M  V30 7144 O 1112.26 6.7751 -3.72168 0
M  V30 7145 C 1111.32 7.20825 -2.7076 0
M  V30 7146 C 1112.05 7.45864 -1.40599 0
M  V30 7147 O 1112.26 6.17651 -0.734225 0
M  V30 7148 C 1113.45 8.05808 -1.51899 0
M  V30 7149 O 1113.84 8.74358 -0.335205 0
M  V30 7150 C 1114.33 6.83093 -1.70294 0
M  V30 7151 C 1113.62 5.79992 -0.836974 0
M  V30 7152 N 1113.67 4.41864 -1.38293 0
M  V30 7153 H 1110.83 8.13644 -3.0377 0
M  V30 7154 H 1110.56 6.42788 -2.55485 0
M  V30 7155 H 1111.43 8.12039 -0.792769 0
M  V30 7156 P 1115.39 8.91 8.60137e-12 0
M  V30 7157 O 1115.61 10.1736 0.733766 0
M  V30 7158 O 1116.18 8.73247 -1.2395 0
M  V30 7159 O 1115.64 7.66872 0.971405 0
M  V30 7160 C 1114.7 7.42212 2.04614 0
M  V30 7161 C 1115.43 6.86059 3.24661 0
M  V30 7162 O 1115.64 5.42847 3.03646 0
M  V30 7163 C 1116.83 7.41196 3.50753 0
M  V30 7164 O 1117.22 7.27073 4.86816 0
M  V30 7165 C 1117.71 6.5273 2.63741 0
M  V30 7166 C 1117 5.1842 2.73198 0
M  V30 7167 N 1117.05 4.38668 1.47808 0
M  V30 7168 C 1117.2 3.02239 1.60048 0
M  V30 7169 O 1117.29 2.46459 2.67869 0
M  V30 7170 N 1117.24 2.32436 0.408571 0
M  V30 7171 C 1117.15 2.85471 -0.854993 0
M  V30 7172 C 1117 4.28918 -0.887335 0
M  V30 7173 C 1116.95 5.00349 0.255399 0
M  V30 7174 H 1114.21 8.36803 2.32493 0
M  V30 7175 H 1113.94 6.701 1.71105 0
M  V30 7176 H 1114.81 7.03551 4.13168 0
M  V30 7177 H 1117.47 4.59773 3.53894 0
M  V30 7178 H 1117.75 6.88995 1.59871 0
M  V30 7179 H 1118.74 6.46749 3.03687 0
M  V30 7180 H 1116.9 8.46908 3.20714 0
M  V30 7181 H 1116.83 6.08548 0.206986 0
M  V30 7182 P 1118.77 7.20834 5.23717 0
M  V30 7183 O 1118.99 7.79853 6.57286 0
M  V30 7184 O 1119.56 7.79239 4.12957 0
M  V30 7185 O 1119.02 5.63315 5.29344 0
M  V30 7186 C 1118.08 4.80255 6.01876 0
M  V30 7187 C 1118.81 3.64202 6.65911 0
M  V30 7188 O 1119.02 2.60694 5.64732 0
M  V30 7189 C 1120.21 3.93473 7.1943 0
M  V30 7190 O 1120.6 3.02071 8.21205 0
M  V30 7191 C 1121.09 3.73047 5.97036 0
M  V30 7192 C 1120.38 2.58828 5.25741 0
M  V30 7193 N 1120.43 2.68068 3.77503 0
M  V30 7194 C 1120.35 3.79715 2.96723 0
M  V30 7195 N 1120.43 3.5377 1.68852 0
M  V30 7196 C 1120.57 2.15054 1.63254 0
M  V30 7197 C 1120.7 1.28964 0.518571 0
M  V30 7198 O 1120.72 1.56826 -0.679156 0
M  V30 7199 N 1120.82 -0.0538097 0.918425 0
M  V30 7200 C 1120.82 -0.494275 2.22578 0
M  V30 7201 N 1120.95 -1.81086 2.40434 0
M  V30 7202 N 1120.69 0.313645 3.27502 0
M  V30 7203 C 1120.57 1.61829 2.91033 0
M  V30 7204 H 1117.59 5.40332 6.79951 0
M  V30 7205 H 1117.32 4.41613 5.32378 0
M  V30 7206 H 1118.19 3.26331 7.47797 0
M  V30 7207 H 1120.85 1.63422 5.56814 0
M  V30 7208 H 1121.13 4.63374 5.34244 0
M  V30 7209 H 1122.12 3.44728 6.25838 0
M  V30 7210 H 1120.28 4.96652 7.57263 0
M  V30 7211 H 1120.23 4.80617 3.3614 0
M  V30 7212 H 1120.92 -0.742702 0.199384 0
M  V30 7213 H 1120.95 -2.20598 3.35588 0
M  V30 7214 H 1121.05 -2.43518 1.58945 0
M  V30 7215 P 1122.15 2.75334 8.47391 0
M  V30 7216 O 1122.37 2.44571 9.90142 0
M  V30 7217 O 1122.94 3.87688 7.92115 0
M  V30 7218 O 1122.4 1.4459 7.59357 0
M  V30 7219 C 1121.46 0.347608 7.69215 0
M  V30 7220 C 1122.19 -0.96767 7.52806 0
M  V30 7221 O 1122.4 -1.21036 6.1011 0
M  V30 7222 C 1123.59 -1.04544 8.13308 0
M  V30 7223 O 1123.98 -2.38311 8.41922 0
M  V30 7224 C 1124.47 -0.491279 7.02284 0
M  V30 7225 C 1123.76 -0.996264 5.77469 0
M  V30 7226 N 1123.81 -0.0501916 4.62973 0
M  V30 7227 C 1123.73 1.32786 4.63244 0
M  V30 7228 N 1123.81 1.86957 3.44545 0
M  V30 7229 C 1123.95 0.780241 2.58481 0
M  V30 7230 C 1124.08 0.738536 1.17757 0
M  V30 7231 O 1124.1 1.66794 0.372349 0
M  V30 7232 N 1124.2 -0.58337 0.711393 0
M  V30 7233 C 1124.2 -1.70816 1.51017 0
M  V30 7234 N 1124.33 -2.87826 0.880757 0
M  V30 7235 N 1124.07 -1.67126 2.8339 0
M  V30 7236 C 1123.95 -0.401421 3.30572 0
M  V30 7237 H 1120.97 0.374722 8.67691 0
M  V30 7238 H 1120.7 0.443485 6.90277 0
M  V30 7239 H 1121.57 -1.75537 7.96793 0
M  V30 7240 H 1124.23 -1.95076 5.46529 0
M  V30 7241 H 1124.51 0.608565 7.04577 0
M  V30 7242 H 1125.5 -0.889672 7.08939 0
M  V30 7243 H 1123.66 -0.43308 9.04564 0
M  V30 7244 H 1123.61 1.91249 5.54442 0
M  V30 7245 H 1124.3 -0.718054 -0.275244 0
M  V30 7246 H 1124.33 -3.75721 1.41832 0
M  V30 7247 H 1124.43 -2.90436 -0.145468 0
M  V30 7248 P 1125.53 -2.75334 8.47391 0
M  V30 7249 O 1125.75 -3.84128 9.44797 0
M  V30 7250 O 1126.32 -1.51947 8.68712 0
M  V30 7251 O 1125.78 -3.29363 6.99321 0
M  V30 7252 C 1124.84 -4.24011 6.4274 0
M  V30 7253 C 1125.57 -5.20775 5.52155 0
M  V30 7254 O 1125.78 -4.56534 4.22446 0
M  V30 7255 C 1126.97 -5.62629 5.96531 0
M  V30 7256 O 1127.36 -6.87667 5.41053 0
M  V30 7257 C 1127.85 -4.52537 5.39283 0
M  V30 7258 C 1127.14 -4.20027 4.08623 0
M  V30 7259 N 1127.19 -2.76189 3.71603 0
M  V30 7260 C 1127.11 -1.64862 4.52822 0
M  V30 7261 N 1127.19 -0.512671 3.88633 0
M  V30 7262 C 1127.33 -0.888083 2.54977 0
M  V30 7263 C 1127.46 -0.094668 1.38677 0
M  V30 7264 O 1127.48 1.13053 1.28163 0
M  V30 7265 N 1127.58 -0.890102 0.232633 0
M  V30 7266 C 1127.58 -2.26958 0.21772 0
M  V30 7267 N 1127.71 -2.84626 -0.97925 0
M  V30 7268 N 1127.45 -3.0178 1.31033 0
M  V30 7269 C 1127.33 -2.26781 2.43843 0
M  V30 7270 H 1124.35 -4.797 7.24003 0
M  V30 7271 H 1124.08 -3.69856 5.84513 0
M  V30 7272 H 1124.95 -6.10356 5.41441 0
M  V30 7273 H 1127.61 -4.79061 3.27488 0
M  V30 7274 H 1127.89 -3.64906 6.05785 0
M  V30 7275 H 1128.88 -4.8868 5.2125 0
M  V30 7276 H 1127.04 -5.66726 7.06352 0
M  V30 7277 H 1126.99 -1.71169 5.60966 0
M  V30 7278 H 1127.68 -0.419134 -0.644739 0
M  V30 7279 H 1127.71 -3.87332 -1.06098 0
M  V30 7280 H 1127.81 -2.26417 -1.82483 0
M  V30 7281 P 1128.91 -7.20834 5.23717 0
M  V30 7282 O 1129.13 -8.66104 5.38572 0
M  V30 7283 O 1129.7 -6.33544 6.1349 0
M  V30 7284 O 1129.16 -6.7751 3.72168 0
M  V30 7285 C 1128.22 -7.20825 2.7076 0
M  V30 7286 C 1128.95 -7.45864 1.40599 0
M  V30 7287 O 1129.16 -6.17651 0.734225 0
M  V30 7288 C 1130.35 -8.05808 1.51899 0
M  V30 7289 O 1130.74 -8.74358 0.335205 0
M  V30 7290 C 1131.23 -6.83093 1.70294 0
M  V30 7291 C 1130.52 -5.79992 0.836974 0
M  V30 7292 N 1130.57 -4.41864 1.38293 0
M  V30 7293 H 1127.73 -8.13644 3.0377 0
M  V30 7294 H 1127.46 -6.42788 2.55485 0
M  V30 7295 H 1128.33 -8.12039 0.792769 0
M  V30 7296 P 1132.29 -8.91 -8.75855e-12 0
M  V30 7297 O 1132.51 -10.1736 -0.733766 0
M  V30 7298 O 1133.08 -8.73247 1.2395 0
M  V30 7299 O 1132.54 -7.66872 -0.971405 0
M  V30 7300 C 1131.6 -7.42212 -2.04614 0
M  V30 7301 C 1132.33 -6.86059 -3.24661 0
M  V30 7302 O 1132.54 -5.42847 -3.03646 0
M  V30 7303 C 1133.73 -7.41196 -3.50753 0
M  V30 7304 O 1134.12 -7.27073 -4.86816 0
M  V30 7305 C 1134.61 -6.5273 -2.63741 0
M  V30 7306 C 1133.9 -5.1842 -2.73198 0
M  V30 7307 N 1133.95 -4.38668 -1.47808 0
M  V30 7308 C 1134.1 -3.02239 -1.60048 0
M  V30 7309 O 1134.19 -2.46459 -2.67869 0
M  V30 7310 N 1134.14 -2.32436 -0.408571 0
M  V30 7311 C 1134.05 -2.85471 0.854993 0
M  V30 7312 C 1133.9 -4.28918 0.887335 0
M  V30 7313 C 1133.85 -5.00349 -0.255399 0
M  V30 7314 H 1131.11 -8.36803 -2.32493 0
M  V30 7315 H 1130.84 -6.701 -1.71105 0
M  V30 7316 H 1131.71 -7.03551 -4.13168 0
M  V30 7317 H 1134.37 -4.59773 -3.53894 0
M  V30 7318 H 1134.65 -6.88995 -1.59871 0
M  V30 7319 H 1135.64 -6.46749 -3.03687 0
M  V30 7320 H 1133.8 -8.46908 -3.20714 0
M  V30 7321 H 1133.73 -6.08548 -0.206986 0
M  V30 7322 P 1135.67 -7.20834 -5.23717 0
M  V30 7323 O 1135.89 -7.79853 -6.57286 0
M  V30 7324 O 1136.46 -7.79239 -4.12957 0
M  V30 7325 O 1135.92 -5.63315 -5.29344 0
M  V30 7326 C 1134.98 -4.80255 -6.01876 0
M  V30 7327 C 1135.71 -3.64202 -6.65911 0
M  V30 7328 O 1135.92 -2.60694 -5.64732 0
M  V30 7329 C 1137.11 -3.93473 -7.1943 0
M  V30 7330 O 1137.5 -3.02071 -8.21205 0
M  V30 7331 C 1137.99 -3.73047 -5.97036 0
M  V30 7332 C 1137.28 -2.58828 -5.25741 0
M  V30 7333 N 1137.33 -2.68068 -3.77503 0
M  V30 7334 C 1137.25 -3.79715 -2.96723 0
M  V30 7335 N 1137.33 -3.5377 -1.68852 0
M  V30 7336 C 1137.47 -2.15054 -1.63254 0
M  V30 7337 C 1137.6 -1.28964 -0.518571 0
M  V30 7338 O 1137.62 -1.56826 0.679156 0
M  V30 7339 N 1137.72 0.0538097 -0.918425 0
M  V30 7340 C 1137.72 0.494275 -2.22578 0
M  V30 7341 N 1137.85 1.81086 -2.40434 0
M  V30 7342 N 1137.59 -0.313645 -3.27502 0
M  V30 7343 C 1137.47 -1.61829 -2.91033 0
M  V30 7344 H 1134.49 -5.40332 -6.79951 0
M  V30 7345 H 1134.22 -4.41613 -5.32378 0
M  V30 7346 H 1135.09 -3.26331 -7.47797 0
M  V30 7347 H 1137.75 -1.63422 -5.56814 0
M  V30 7348 H 1138.03 -4.63374 -5.34244 0
M  V30 7349 H 1139.02 -3.44728 -6.25838 0
M  V30 7350 H 1137.18 -4.96652 -7.57263 0
M  V30 7351 H 1137.13 -4.80617 -3.3614 0
M  V30 7352 H 1137.82 0.742702 -0.199384 0
M  V30 7353 H 1137.85 2.20598 -3.35588 0
M  V30 7354 H 1137.95 2.43518 -1.58945 0
M  V30 7355 P 1139.05 -2.75334 -8.47391 0
M  V30 7356 O 1139.27 -2.44571 -9.90142 0
M  V30 7357 O 1139.84 -3.87688 -7.92115 0
M  V30 7358 O 1139.3 -1.4459 -7.59357 0
M  V30 7359 C 1138.36 -0.347608 -7.69215 0
M  V30 7360 C 1139.09 0.96767 -7.52806 0
M  V30 7361 O 1139.3 1.21036 -6.1011 0
M  V30 7362 C 1140.49 1.04544 -8.13308 0
M  V30 7363 O 1140.88 2.38311 -8.41922 0
M  V30 7364 C 1141.37 0.491279 -7.02284 0
M  V30 7365 C 1140.66 0.996264 -5.77469 0
M  V30 7366 N 1140.71 0.0501916 -4.62973 0
M  V30 7367 H 1137.87 -0.374722 -8.67691 0
M  V30 7368 H 1137.6 -0.443485 -6.90277 0
M  V30 7369 H 1138.47 1.75537 -7.96793 0
M  V30 7370 P 1142.43 2.75334 -8.47391 0
M  V30 7371 O 1142.65 3.84128 -9.44797 0
M  V30 7372 O 1143.22 1.51947 -8.68712 0
M  V30 7373 O 1142.68 3.29363 -6.99321 0
M  V30 7374 C 1141.74 4.24011 -6.4274 0
M  V30 7375 C 1142.47 5.20775 -5.52155 0
M  V30 7376 O 1142.68 4.56534 -4.22446 0
M  V30 7377 C 1143.87 5.62629 -5.96531 0
M  V30 7378 O 1144.26 6.87667 -5.41053 0
M  V30 7379 C 1144.75 4.52537 -5.39283 0
M  V30 7380 C 1144.04 4.20027 -4.08623 0
M  V30 7381 N 1144.09 2.76189 -3.71603 0
M  V30 7382 C 1144.01 1.64862 -4.52822 0
M  V30 7383 N 1144.09 0.512671 -3.88633 0
M  V30 7384 C 1144.23 0.888083 -2.54977 0
M  V30 7385 C 1144.36 0.094668 -1.38677 0
M  V30 7386 O 1144.38 -1.13053 -1.28163 0
M  V30 7387 N 1144.48 0.890102 -0.232633 0
M  V30 7388 C 1144.48 2.26958 -0.21772 0
M  V30 7389 N 1144.61 2.84626 0.97925 0
M  V30 7390 N 1144.35 3.0178 -1.31033 0
M  V30 7391 C 1144.23 2.26781 -2.43843 0
M  V30 7392 H 1141.25 4.797 -7.24003 0
M  V30 7393 H 1140.98 3.69856 -5.84513 0
M  V30 7394 H 1141.85 6.10356 -5.41441 0
M  V30 7395 H 1144.51 4.79061 -3.27488 0
M  V30 7396 H 1144.79 3.64906 -6.05785 0
M  V30 7397 H 1145.78 4.8868 -5.2125 0
M  V30 7398 H 1143.94 5.66726 -7.06352 0
M  V30 7399 H 1143.89 1.71169 -5.60966 0
M  V30 7400 H 1144.58 0.419134 0.644739 0
M  V30 7401 H 1144.61 3.87332 1.06098 0
M  V30 7402 H 1144.71 2.26417 1.82483 0
M  V30 7403 P 1145.81 7.20834 -5.23717 0
M  V30 7404 O 1146.03 8.66104 -5.38572 0
M  V30 7405 O 1146.6 6.33544 -6.1349 0
M  V30 7406 O 1146.06 6.7751 -3.72168 0
M  V30 7407 C 1145.12 7.20825 -2.7076 0
M  V30 7408 C 1145.85 7.45864 -1.40599 0
M  V30 7409 O 1146.06 6.17651 -0.734225 0
M  V30 7410 C 1147.25 8.05808 -1.51899 0
M  V30 7411 O 1147.64 8.74358 -0.335205 0
M  V30 7412 C 1148.13 6.83093 -1.70294 0
M  V30 7413 C 1147.42 5.79992 -0.836974 0
M  V30 7414 N 1147.47 4.41864 -1.38293 0
M  V30 7415 C 1147.39 3.99538 -2.69438 0
M  V30 7416 N 1147.47 2.69909 -2.84277 0
M  V30 7417 C 1147.61 2.21719 -1.5408 0
M  V30 7418 C 1147.74 0.891712 -1.06628 0
M  V30 7419 O 1147.76 -0.161298 -1.70137 0
M  V30 7420 N 1147.86 0.856846 0.334985 0
M  V30 7421 C 1147.86 1.9641 1.15789 0
M  V30 7422 N 1147.99 1.72708 2.46522 0
M  V30 7423 N 1147.73 3.21165 0.713741 0
M  V30 7424 C 1147.61 3.26797 -0.639748 0
M  V30 7425 H 1144.63 8.13644 -3.0377 0
M  V30 7426 H 1144.36 6.42788 -2.55485 0
M  V30 7427 H 1145.23 8.12039 -0.792769 0
M  V30 7428 H 1147.89 5.80061 0.166416 0
M  V30 7429 H 1148.17 6.51287 -2.75604 0
M  V30 7430 H 1149.16 7.01734 -1.34462 0
M  V30 7431 H 1147.32 8.73674 -2.38337 0
M  V30 7432 H 1147.27 4.68207 -3.53221 0
M  V30 7433 H 1147.96 -0.0398818 0.767965 0
M  V30 7434 H 1147.99 2.50995 3.13503 0
M  V30 7435 H 1148.09 0.759148 2.80716 0
M  V30 7436 P 1149.19 8.91 8.91573e-12 0
M  V30 7437 O 1149.41 10.1726 0.733694 0
M  V30 7438 O 1149.98 8.73148 -1.23936 0
M  V30 7439 O 1149.44 7.66872 0.971405 0
M  V30 7440 C 1148.5 7.42309 2.04641 0
M  V30 7441 C 1149.23 6.86059 3.24661 0
M  V30 7442 O 1149.44 5.42847 3.03646 0
M  V30 7443 C 1150.63 7.41196 3.50753 0
M  V30 7444 O 1151.02 7.27073 4.86816 0
M  V30 7445 C 1151.51 6.5273 2.63741 0
M  V30 7446 C 1150.8 5.1842 2.73198 0
M  V30 7447 N 1150.85 4.38762 1.4784 0
M  V30 7448 H 1148.01 8.36803 2.32493 0
M  V30 7449 H 1147.74 6.70197 1.71129 0
M  V30 7450 H 1148.61 7.03551 4.13168 0
M  V30 7451 P 1152.57 7.20834 5.23717 0
M  V30 7452 O 1152.79 7.79853 6.57286 0
M  V30 7453 O 1153.36 7.79239 4.12957 0
M  V30 7454 O 1152.82 5.63315 5.29344 0
M  V30 7455 C 1151.88 4.80255 6.01876 0
M  V30 7456 C 1152.61 3.64202 6.65911 0
M  V30 7457 O 1152.82 2.60694 5.64732 0
M  V30 7458 C 1154.01 3.93473 7.1943 0
M  V30 7459 O 1154.4 3.02071 8.21205 0
M  V30 7460 C 1154.89 3.73047 5.97036 0
M  V30 7461 C 1154.18 2.58828 5.25741 0
M  V30 7462 N 1154.23 2.68068 3.77503 0
M  V30 7463 C 1154.15 3.79715 2.96723 0
M  V30 7464 N 1154.23 3.5377 1.68852 0
M  V30 7465 C 1154.37 2.15054 1.63254 0
M  V30 7466 C 1154.5 1.28964 0.518571 0
M  V30 7467 O 1154.52 1.56826 -0.679156 0
M  V30 7468 N 1154.62 -0.0538097 0.918425 0
M  V30 7469 C 1154.62 -0.494275 2.22578 0
M  V30 7470 N 1154.75 -1.81086 2.40434 0
M  V30 7471 N 1154.49 0.313645 3.27502 0
M  V30 7472 C 1154.37 1.61829 2.91033 0
M  V30 7473 H 1151.39 5.40332 6.79951 0
M  V30 7474 H 1151.12 4.41613 5.32378 0
M  V30 7475 H 1151.99 3.26331 7.47797 0
M  V30 7476 H 1154.65 1.63422 5.56814 0
M  V30 7477 H 1154.93 4.63374 5.34244 0
M  V30 7478 H 1155.92 3.44728 6.25838 0
M  V30 7479 H 1154.08 4.96652 7.57263 0
M  V30 7480 H 1154.03 4.80617 3.3614 0
M  V30 7481 H 1154.72 -0.742702 0.199384 0
M  V30 7482 H 1154.75 -2.20598 3.35588 0
M  V30 7483 H 1154.85 -2.43518 1.58945 0
M  V30 7484 P 1155.95 2.75334 8.47391 0
M  V30 7485 O 1156.17 2.44571 9.90142 0
M  V30 7486 O 1156.74 3.87688 7.92115 0
M  V30 7487 O 1156.2 1.4459 7.59357 0
M  V30 7488 C 1155.26 0.347608 7.69215 0
M  V30 7489 C 1155.99 -0.96767 7.52806 0
M  V30 7490 O 1156.2 -1.21036 6.1011 0
M  V30 7491 C 1157.39 -1.04544 8.13308 0
M  V30 7492 O 1157.78 -2.38311 8.41922 0
M  V30 7493 C 1158.27 -0.491279 7.02284 0
M  V30 7494 C 1157.56 -0.996264 5.77469 0
M  V30 7495 N 1157.61 -0.0501916 4.62973 0
M  V30 7496 C 1157.53 1.32786 4.63244 0
M  V30 7497 N 1157.61 1.86957 3.44545 0
M  V30 7498 C 1157.75 0.780241 2.58481 0
M  V30 7499 C 1157.88 0.738536 1.17757 0
M  V30 7500 O 1157.9 1.66794 0.372349 0
M  V30 7501 N 1158 -0.58337 0.711393 0
M  V30 7502 C 1158 -1.70816 1.51017 0
M  V30 7503 N 1158.13 -2.87826 0.880757 0
M  V30 7504 N 1157.87 -1.67126 2.8339 0
M  V30 7505 C 1157.75 -0.401421 3.30572 0
M  V30 7506 H 1154.77 0.374722 8.67691 0
M  V30 7507 H 1154.5 0.443485 6.90277 0
M  V30 7508 H 1155.37 -1.75537 7.96793 0
M  V30 7509 H 1158.03 -1.95076 5.46529 0
M  V30 7510 H 1158.31 0.608565 7.04577 0
M  V30 7511 H 1159.3 -0.889672 7.08939 0
M  V30 7512 H 1157.46 -0.43308 9.04564 0
M  V30 7513 H 1157.41 1.91249 5.54442 0
M  V30 7514 H 1158.1 -0.718054 -0.275244 0
M  V30 7515 H 1158.13 -3.75721 1.41832 0
M  V30 7516 H 1158.23 -2.90436 -0.145468 0
M  V30 7517 P 1159.33 -2.75334 8.47391 0
M  V30 7518 O 1159.55 -3.84128 9.44797 0
M  V30 7519 O 1160.12 -1.51947 8.68712 0
M  V30 7520 O 1159.58 -3.29363 6.99321 0
M  V30 7521 C 1158.64 -4.24011 6.4274 0
M  V30 7522 C 1159.37 -5.20775 5.52155 0
M  V30 7523 O 1159.58 -4.56534 4.22446 0
M  V30 7524 C 1160.77 -5.62629 5.96531 0
M  V30 7525 O 1161.16 -6.87667 5.41053 0
M  V30 7526 C 1161.65 -4.52537 5.39283 0
M  V30 7527 C 1160.94 -4.20027 4.08623 0
M  V30 7528 N 1160.99 -2.76189 3.71603 0
M  V30 7529 H 1158.15 -4.797 7.24003 0
M  V30 7530 H 1157.88 -3.69856 5.84513 0
M  V30 7531 H 1158.75 -6.10356 5.41441 0
M  V30 7532 P 1162.71 -7.20834 5.23717 0
M  V30 7533 O 1162.93 -8.66104 5.38572 0
M  V30 7534 O 1163.5 -6.33544 6.1349 0
M  V30 7535 O 1162.96 -6.7751 3.72168 0
M  V30 7536 C 1162.02 -7.20825 2.7076 0
M  V30 7537 C 1162.75 -7.45864 1.40599 0
M  V30 7538 O 1162.96 -6.17651 0.734225 0
M  V30 7539 C 1164.15 -8.05808 1.51899 0
M  V30 7540 O 1164.54 -8.74358 0.335205 0
M  V30 7541 C 1165.03 -6.83093 1.70294 0
M  V30 7542 C 1164.32 -5.79992 0.836974 0
M  V30 7543 N 1164.37 -4.41864 1.38293 0
M  V30 7544 C 1164.29 -3.99538 2.69438 0
M  V30 7545 N 1164.37 -2.69909 2.84277 0
M  V30 7546 C 1164.51 -2.21719 1.5408 0
M  V30 7547 C 1164.64 -0.891712 1.06628 0
M  V30 7548 O 1164.66 0.161298 1.70137 0
M  V30 7549 N 1164.76 -0.856846 -0.334985 0
M  V30 7550 C 1164.76 -1.9641 -1.15789 0
M  V30 7551 N 1164.89 -1.72708 -2.46522 0
M  V30 7552 N 1164.63 -3.21165 -0.713741 0
M  V30 7553 C 1164.51 -3.26797 0.639748 0
M  V30 7554 H 1161.53 -8.13644 3.0377 0
M  V30 7555 H 1161.26 -6.42788 2.55485 0
M  V30 7556 H 1162.13 -8.12039 0.792769 0
M  V30 7557 H 1164.79 -5.80061 -0.166416 0
M  V30 7558 H 1165.07 -6.51287 2.75604 0
M  V30 7559 H 1166.06 -7.01734 1.34462 0
M  V30 7560 H 1164.22 -8.73674 2.38337 0
M  V30 7561 H 1164.17 -4.68207 3.53221 0
M  V30 7562 H 1164.86 0.0398818 -0.767965 0
M  V30 7563 H 1164.89 -2.50995 -3.13503 0
M  V30 7564 H 1164.99 -0.759148 -2.80716 0
M  V30 7565 P 1166.09 -8.91 -9.07291e-12 0
M  V30 7566 O 1166.31 -10.1726 -0.733694 0
M  V30 7567 O 1166.88 -8.73148 1.23936 0
M  V30 7568 O 1166.34 -7.66872 -0.971405 0
M  V30 7569 C 1165.4 -7.42309 -2.04641 0
M  V30 7570 C 1166.13 -6.86059 -3.24661 0
M  V30 7571 O 1166.34 -5.42847 -3.03646 0
M  V30 7572 C 1167.53 -7.41196 -3.50753 0
M  V30 7573 O 1167.92 -7.27073 -4.86816 0
M  V30 7574 C 1168.41 -6.5273 -2.63741 0
M  V30 7575 C 1167.7 -5.1842 -2.73198 0
M  V30 7576 N 1167.75 -4.38762 -1.4784 0
M  V30 7577 C 1167.67 -4.81605 -0.168631 0
M  V30 7578 N 1167.75 -3.85454 0.713363 0
M  V30 7579 C 1167.89 -2.6994 -0.0566958 0
M  V30 7580 C 1168.02 -1.34815 0.338502 0
M  V30 7581 O 1168.04 -0.869548 1.47125 0
M  V30 7582 N 1168.14 -0.496304 -0.77465 0
M  V30 7583 C 1168.14 -0.908403 -2.09122 0
M  V30 7584 N 1168.27 0.0517805 -3.00955 0
M  V30 7585 N 1168.01 -2.17875 -2.46519 0
M  V30 7586 C 1167.89 -3.01988 -1.4033 0
M  V30 7587 H 1164.91 -8.36803 -2.32493 0
M  V30 7588 H 1164.64 -6.70197 -1.71129 0
M  V30 7589 H 1165.51 -7.03551 -4.13168 0
M  V30 7590 H 1168.17 -4.59498 -3.54415 0
M  V30 7591 H 1168.45 -6.88898 -1.59848 0
M  V30 7592 H 1169.44 -6.46749 -3.03687 0
M  V30 7593 H 1167.6 -8.46908 -3.20714 0
M  V30 7594 H 1167.55 -5.86405 0.105564 0
M  V30 7595 H 1168.24 0.483664 -0.597855 0
M  V30 7596 H 1168.27 -0.187865 -4.0116 0
M  V30 7597 H 1168.37 1.03585 -2.71726 0
M  V30 7598 P 1169.47 -7.20834 -5.23717 0
M  V30 7599 O 1169.69 -7.7993 -6.57351 0
M  V30 7600 O 1170.26 -7.79328 -4.13004 0
M  V30 7601 O 1169.72 -5.63315 -5.29344 0
M  V30 7602 C 1168.78 -4.80193 -6.01798 0
M  V30 7603 C 1169.51 -3.64202 -6.65911 0
M  V30 7604 O 1169.72 -2.60694 -5.64732 0
M  V30 7605 C 1170.91 -3.93473 -7.1943 0
M  V30 7606 O 1171.3 -3.02071 -8.21205 0
M  V30 7607 C 1171.79 -3.73047 -5.97036 0
M  V30 7608 C 1171.08 -2.58828 -5.25741 0
M  V30 7609 N 1171.13 -2.6801 -3.77422 0
M  V30 7610 C 1171.28 -1.50443 -3.07133 0
M  V30 7611 O 1171.37 -0.419406 -3.61576 0
M  V30 7612 N 1171.32 -1.6403 -1.69677 0
M  V30 7613 C 1171.23 -2.81206 -0.986255 0
M  V30 7614 C 1171.08 -3.99158 -1.80325 0
M  V30 7615 C 1171.03 -3.89779 -3.1476 0
M  V30 7616 H 1168.29 -5.40332 -6.79951 0
M  V30 7617 H 1168.02 -4.41549 -5.32301 0
M  V30 7618 H 1168.89 -3.26331 -7.47797 0
M  V30 7619 H 1171.55 -1.6395 -5.56554 0
M  V30 7620 H 1171.83 -4.63439 -5.3432 0
M  V30 7621 H 1172.82 -3.44728 -6.25838 0
M  V30 7622 H 1170.98 -4.96652 -7.57263 0
M  V30 7623 H 1170.91 -4.80159 -3.74441 0
M  V30 7624 P 1172.85 -2.75334 -8.47391 0
M  V30 7625 O 1173.07 -2.44571 -9.90142 0
M  V30 7626 O 1173.64 -3.87688 -7.92115 0
M  V30 7627 O 1173.1 -1.4459 -7.59357 0
M  V30 7628 C 1172.16 -0.347608 -7.69215 0
M  V30 7629 C 1172.89 0.96767 -7.52806 0
M  V30 7630 O 1173.1 1.21036 -6.1011 0
M  V30 7631 C 1174.29 1.04544 -8.13308 0
M  V30 7632 O 1174.68 2.38311 -8.41922 0
M  V30 7633 C 1175.17 0.491279 -7.02284 0
M  V30 7634 C 1174.46 0.996264 -5.77469 0
M  V30 7635 N 1174.51 0.0501916 -4.62973 0
M  V30 7636 C 1174.43 -1.32786 -4.63244 0
M  V30 7637 N 1174.51 -1.86957 -3.44545 0
M  V30 7638 C 1174.65 -0.780241 -2.58481 0
M  V30 7639 C 1174.78 -0.738536 -1.17757 0
M  V30 7640 O 1174.8 -1.66794 -0.372349 0
M  V30 7641 N 1174.9 0.58337 -0.711393 0
M  V30 7642 C 1174.9 1.70816 -1.51017 0
M  V30 7643 N 1175.03 2.87826 -0.880757 0
M  V30 7644 N 1174.77 1.67126 -2.8339 0
M  V30 7645 C 1174.65 0.401421 -3.30572 0
M  V30 7646 H 1171.67 -0.374722 -8.67691 0
M  V30 7647 H 1171.4 -0.443485 -6.90277 0
M  V30 7648 H 1172.27 1.75537 -7.96793 0
M  V30 7649 H 1174.93 1.95076 -5.46529 0
M  V30 7650 H 1175.21 -0.608565 -7.04577 0
M  V30 7651 H 1176.2 0.889672 -7.08939 0
M  V30 7652 H 1174.36 0.43308 -9.04564 0
M  V30 7653 H 1174.31 -1.91249 -5.54442 0
M  V30 7654 H 1175 0.718054 0.275244 0
M  V30 7655 H 1175.03 3.75721 -1.41832 0
M  V30 7656 H 1175.13 2.90436 0.145468 0
M  V30 7657 P 1176.23 2.75334 -8.47391 0
M  V30 7658 O 1176.45 3.84128 -9.44797 0
M  V30 7659 O 1177.02 1.51947 -8.68712 0
M  V30 7660 O 1176.48 3.29363 -6.99321 0
M  V30 7661 C 1175.54 4.24011 -6.4274 0
M  V30 7662 C 1176.27 5.20775 -5.52155 0
M  V30 7663 O 1176.48 4.56534 -4.22446 0
M  V30 7664 C 1177.67 5.62629 -5.96531 0
M  V30 7665 O 1178.06 6.87667 -5.41053 0
M  V30 7666 C 1178.55 4.52537 -5.39283 0
M  V30 7667 C 1177.84 4.20027 -4.08623 0
M  V30 7668 N 1177.89 2.76189 -3.71603 0
M  V30 7669 C 1177.81 1.64862 -4.52822 0
M  V30 7670 N 1177.89 0.512671 -3.88633 0
M  V30 7671 C 1178.03 0.888083 -2.54977 0
M  V30 7672 C 1178.16 0.094668 -1.38677 0
M  V30 7673 O 1178.18 -1.13053 -1.28163 0
M  V30 7674 N 1178.28 0.890102 -0.232633 0
M  V30 7675 C 1178.28 2.26958 -0.21772 0
M  V30 7676 N 1178.41 2.84626 0.97925 0
M  V30 7677 N 1178.15 3.0178 -1.31033 0
M  V30 7678 C 1178.03 2.26781 -2.43843 0
M  V30 7679 H 1175.05 4.797 -7.24003 0
M  V30 7680 H 1174.78 3.69856 -5.84513 0
M  V30 7681 H 1175.65 6.10356 -5.41441 0
M  V30 7682 H 1178.31 4.79061 -3.27488 0
M  V30 7683 H 1178.59 3.64906 -6.05785 0
M  V30 7684 H 1179.58 4.8868 -5.2125 0
M  V30 7685 H 1177.74 5.66726 -7.06352 0
M  V30 7686 H 1177.69 1.71169 -5.60966 0
M  V30 7687 H 1178.38 0.419134 0.644739 0
M  V30 7688 H 1178.41 3.87332 1.06098 0
M  V30 7689 H 1178.51 2.26417 1.82483 0
M  V30 7690 P 1179.61 7.20834 -5.23717 0
M  V30 7691 O 1179.83 8.66104 -5.38572 0
M  V30 7692 O 1180.4 6.33544 -6.1349 0
M  V30 7693 O 1179.86 6.7751 -3.72168 0
M  V30 7694 C 1178.92 7.20825 -2.7076 0
M  V30 7695 C 1179.65 7.45864 -1.40599 0
M  V30 7696 O 1179.86 6.17651 -0.734225 0
M  V30 7697 C 1181.05 8.05808 -1.51899 0
M  V30 7698 O 1181.44 8.74358 -0.335205 0
M  V30 7699 C 1181.93 6.83093 -1.70294 0
M  V30 7700 C 1181.22 5.79992 -0.836974 0
M  V30 7701 N 1181.27 4.41864 -1.38293 0
M  V30 7702 C 1181.19 3.99538 -2.69438 0
M  V30 7703 N 1181.27 2.69909 -2.84277 0
M  V30 7704 C 1181.41 2.21719 -1.5408 0
M  V30 7705 C 1181.54 0.891712 -1.06628 0
M  V30 7706 N 1181.66 0.856846 0.334985 0
M  V30 7707 C 1181.66 1.9641 1.15789 0
M  V30 7708 N 1181.79 1.72708 2.46522 0
M  V30 7709 N 1181.53 3.21165 0.713741 0
M  V30 7710 C 1181.41 3.26797 -0.639748 0
M  V30 7711 H 1178.43 8.13644 -3.0377 0
M  V30 7712 H 1178.16 6.42788 -2.55485 0
M  V30 7713 H 1179.03 8.12039 -0.792769 0
M  V30 7714 P 1182.99 8.91 9.23009e-12 0
M  V30 7715 O 1183.21 10.1726 0.733694 0
M  V30 7716 O 1183.78 8.73148 -1.23936 0
M  V30 7717 O 1183.24 7.66872 0.971405 0
M  V30 7718 C 1182.3 7.42309 2.04641 0
M  V30 7719 C 1183.03 6.86059 3.24661 0
M  V30 7720 O 1183.24 5.42847 3.03646 0
M  V30 7721 C 1184.43 7.41196 3.50753 0
M  V30 7722 O 1184.82 7.27073 4.86816 0
M  V30 7723 C 1185.31 6.5273 2.63741 0
M  V30 7724 C 1184.6 5.1842 2.73198 0
M  V30 7725 N 1184.65 4.38762 1.4784 0
M  V30 7726 H 1181.81 8.36803 2.32493 0
M  V30 7727 H 1181.54 6.70197 1.71129 0
M  V30 7728 H 1182.41 7.03551 4.13168 0
M  V30 7729 P 1186.37 7.20834 5.23717 0
M  V30 7730 O 1186.59 7.79853 6.57286 0
M  V30 7731 O 1187.16 7.79239 4.12957 0
M  V30 7732 O 1186.62 5.63315 5.29344 0
M  V30 7733 C 1185.68 4.80255 6.01876 0
M  V30 7734 C 1186.41 3.64202 6.65911 0
M  V30 7735 O 1186.62 2.60694 5.64732 0
M  V30 7736 C 1187.81 3.93473 7.1943 0
M  V30 7737 O 1188.2 3.02071 8.21205 0
M  V30 7738 C 1188.69 3.73047 5.97036 0
M  V30 7739 C 1187.98 2.58828 5.25741 0
M  V30 7740 N 1188.03 2.68068 3.77503 0
M  V30 7741 C 1187.95 3.79715 2.96723 0
M  V30 7742 N 1188.03 3.5377 1.68852 0
M  V30 7743 C 1188.17 2.15054 1.63254 0
M  V30 7744 C 1188.3 1.28964 0.518571 0
M  V30 7745 N 1188.42 -0.0538097 0.918425 0
M  V30 7746 C 1188.42 -0.494275 2.22578 0
M  V30 7747 N 1188.55 -1.81086 2.40434 0
M  V30 7748 N 1188.29 0.313645 3.27502 0
M  V30 7749 C 1188.17 1.61829 2.91033 0
M  V30 7750 H 1185.19 5.40332 6.79951 0
M  V30 7751 H 1184.92 4.41613 5.32378 0
M  V30 7752 H 1185.79 3.26331 7.47797 0
M  V30 7753 P 1189.75 2.75334 8.47391 0
M  V30 7754 O 1189.97 2.44595 9.90239 0
M  V30 7755 O 1190.54 3.87732 7.92204 0
M  V30 7756 O 1190 1.4459 7.59357 0
M  V30 7757 C 1189.06 0.347563 7.69115 0
M  V30 7758 C 1189.79 -0.96767 7.52806 0
M  V30 7759 O 1190 -1.21036 6.1011 0
M  V30 7760 C 1191.19 -1.04544 8.13308 0
M  V30 7761 O 1191.58 -2.38311 8.41922 0
M  V30 7762 C 1192.07 -0.491279 7.02284 0
M  V30 7763 C 1191.36 -0.996264 5.77469 0
M  V30 7764 N 1191.41 -0.0501808 4.62873 0
M  V30 7765 C 1191.56 -0.588177 3.36904 0
M  V30 7766 O 1191.65 -1.78598 3.17173 0
M  V30 7767 N 1191.6 0.329694 2.33686 0
M  V30 7768 C 1191.51 1.6953 2.45079 0
M  V30 7769 C 1191.36 2.16933 3.80505 0
M  V30 7770 C 1191.31 1.30326 4.83752 0
M  V30 7771 H 1188.57 0.374722 8.67691 0
M  V30 7772 H 1188.3 0.443421 6.90177 0
M  V30 7773 H 1189.17 -1.75537 7.96793 0
M  V30 7774 H 1191.83 -1.94496 5.46629 0
M  V30 7775 H 1192.1 0.608651 7.04676 0
M  V30 7776 H 1193.1 -0.889672 7.08939 0
M  V30 7777 H 1191.26 -0.43308 9.04564 0
M  V30 7778 H 1191.19 1.68366 5.8516 0
M  V30 7779 H 1191.45 -2.92663 7.63961 0
M  V30 7780 H 1195.47 -0.0909867 -9.51056 0
M  V30 7781 O 1195.35 -0.778697 -8.86988 0
M  V30 7782 P 1193.91 -1.17771 -8.83182 0
M  V30 7783 O 1193.69 -2.07206 -9.98732 0
M  V30 7784 O 1193.12 0.0743816 -8.81969 0
M  V30 7785 O 1193.66 -1.97652 -7.47304 0
M  V30 7786 C 1194.6 -3.01133 -7.08783 0
M  V30 7787 C 1193.87 -4.12613 -6.37049 0
M  V30 7788 O 1193.66 -3.72827 -4.97879 0
M  V30 7789 C 1192.47 -4.45085 -6.88694 0
M  V30 7790 O 1192.08 -5.7877 -6.5624 0
M  V30 7791 C 1191.59 -3.47817 -6.12078 0
M  V30 7792 C 1192.3 -3.39414 -4.77697 0
M  V30 7793 N 1192.25 -2.04615 -4.15333 0
M  V30 7794 C 1192.33 -0.803897 -4.75249 0
M  V30 7795 N 1192.25 0.197615 -3.91502 0
M  V30 7796 C 1192.11 -0.413002 -2.66823 0
M  V30 7797 C 1191.98 0.157221 -1.38007 0
M  V30 7798 N 1191.86 -0.833136 -0.390236 0
M  V30 7799 C 1191.86 -2.19402 -0.623885 0
M  V30 7800 N 1191.73 -2.97622 0.449677 0
M  V30 7801 N 1191.99 -2.73005 -1.83601 0
M  V30 7802 C 1192.11 -1.78786 -2.80935 0
M  V30 7803 H 1195.09 -3.41248 -7.98759 0
M  V30 7804 H 1195.36 -2.5837 -6.41742 0
M  V30 7805 H 1194.5 -5.02657 -6.42673 0
M  V30 7806 P 1190.53 -6.144 -6.45285 0
M  V30 7807 O 1190.31 -7.54673 -6.86199 0
M  V30 7808 O 1189.74 -5.12391 -7.179 0
M  V30 7809 O 1190.28 -5.99158 -4.88404 0
M  V30 7810 C 1191.22 -6.60062 -3.96313 0
M  V30 7811 C 1190.49 -7.08259 -2.72856 0
M  V30 7812 O 1190.28 -5.9427 -1.83651 0
M  V30 7813 C 1189.09 -7.65087 -2.94749 0
M  V30 7814 O 1188.7 -8.53963 -1.90717 0
M  V30 7815 C 1188.21 -6.41069 -2.90698 0
M  V30 7816 C 1188.92 -5.5528 -1.86931 0
M  V30 7817 N 1188.87 -4.09575 -2.15696 0
M  V30 7818 C 1188.72 -3.24249 -1.08435 0
M  V30 7819 O 1188.63 -3.63946 0.0628747 0
M  V30 7820 N 1188.68 -1.90009 -1.39973 0
M  V30 7821 C 1188.77 -1.34884 -2.65614 0
M  V30 7822 C 1188.92 -2.3145 -3.71736 0
M  V30 7823 C 1188.97 -3.63518 -3.44754 0
M  V30 7824 H 1191.71 -7.45402 -4.45526 0
M  V30 7825 H 1191.98 -5.86062 -3.67208 0
M  V30 7826 H 1191.12 -7.84412 -2.24479 0
M  V30 7827 H 1188.46 -5.73358 -0.888409 0
M  V30 7828 H 1188.18 -5.90877 -3.88583 0
M  V30 7829 H 1187.19 -6.65867 -2.58821 0
M  V30 7830 H 1189.02 -8.16248 -3.92006 0
M  V30 7831 H 1189.09 -4.34551 -4.26383 0
M  V30 7832 P 1187.15 -8.7635 -1.60911 0
M  V30 7833 O 1186.93 -10.1388 -1.11561 0
M  V30 7834 O 1186.36 -8.36503 -2.79617 0
M  V30 7835 O 1186.9 -7.71806 -0.42951 0
M  V30 7836 C 1187.84 -7.67148 0.673689 0
M  V30 7837 C 1187.11 -7.33374 1.95559 0
M  V30 7838 O 1186.9 -5.88721 2.00726 0
M  V30 7839 C 1185.71 -7.92526 2.10483 0
M  V30 7840 O 1185.32 -8.02971 3.47653 0
M  V30 7841 C 1184.83 -6.89602 1.41652 0
M  V30 7842 C 1185.54 -5.59201 1.75185 0
M  V30 7843 N 1185.49 -4.58301 0.657969 0
M  V30 7844 H 1188.33 -8.65116 0.777161 0
M  V30 7845 H 1188.6 -6.9022 0.46725 0
M  V30 7846 H 1187.74 -7.66548 2.79458 0
M  V30 7847 H 1185.08 -5.16165 2.65183 0
M  V30 7848 H 1184.8 -7.06433 0.329384 0
M  V30 7849 H 1183.81 -6.90926 1.82021 0
M  V30 7850 H 1185.64 -8.90873 1.62657 0
M  V30 7851 P 1183.77 -8.03563 3.84925 0
M  V30 7852 O 1183.55 -8.85821 5.0569 0
M  V30 7853 O 1182.98 -8.41101 2.65469 0
M  V30 7854 O 1183.52 -6.4965 4.18908 0
M  V30 7855 C 1184.46 -5.80886 5.05289 0
M  V30 7856 C 1183.73 -4.78366 5.89277 0
M  V30 7857 O 1183.52 -3.58302 5.08433 0
M  V30 7858 C 1182.33 -5.16748 6.36559 0
M  V30 7859 O 1181.94 -4.45271 7.53232 0
M  V30 7860 C 1181.45 -4.74572 5.19863 0
M  V30 7861 C 1182.16 -3.49373 4.70338 0
M  V30 7862 N 1182.11 -3.31704 3.22876 0
M  V30 7863 C 1181.96 -2.03326 2.74871 0
M  V30 7864 O 1181.87 -1.06486 3.48076 0
M  V30 7865 N 1181.92 -1.91838 1.37456 0
M  V30 7866 C 1182.01 -2.94295 0.462035 0
M  V30 7867 C 1182.16 -4.25064 1.05249 0
M  V30 7868 C 1182.21 -4.40214 2.39192 0
M  V30 7869 H 1184.95 -6.54063 5.71245 0
M  V30 7870 H 1185.22 -5.30339 4.43905 0
M  V30 7871 H 1184.36 -4.55889 6.76652 0
M  V30 7872 H 1181.7 -2.6167 5.17842 0
M  V30 7873 H 1181.42 -5.52155 4.41878 0
M  V30 7874 H 1180.43 -4.51918 5.53297 0
M  V30 7875 H 1182.26 -6.25055 6.55162 0
M  V30 7876 H 1182.34 -5.39798 2.81523 0
M  V30 7877 P 1180.39 -4.23843 7.83734 0
M  V30 7878 O 1180.17 -4.19407 9.29784 0
M  V30 7879 O 1179.6 -5.24426 7.09156 0
M  V30 7880 O 1180.14 -2.79386 7.20852 0
M  V30 7881 C 1181.08 -1.7299 7.50419 0
M  V30 7882 C 1180.35 -0.41401 7.5797 0
M  V30 7883 O 1180.14 0.089787 6.22035 0
M  V30 7884 C 1178.95 -0.447224 8.1878 0
M  V30 7885 O 1178.56 0.825159 8.71201 0
M  V30 7886 C 1178.07 -0.783801 6.99623 0
M  V30 7887 C 1178.78 -0.0619192 5.85967 0
M  V30 7888 N 1178.73 -0.7859 4.56281 0
M  V30 7889 C 1178.58 -0.0359258 3.39981 0
M  V30 7890 O 1178.49 1.19723 3.49038 0
M  V30 7891 N 1178.53 -0.869151 2.14025 0
M  V30 7892 C 1178.63 -2.01207 2.14363 0
M  V30 7893 N 1178.58 -2.58978 0.954287 0
M  V30 7894 C 1178.78 -2.80817 3.32215 0
M  V30 7895 C 1178.83 -2.13785 4.50884 0
M  V30 7896 H 1181.57 -1.93401 8.46693 0
M  V30 7897 H 1181.84 -1.68181 6.71046 0
M  V30 7898 H 1180.98 0.289076 8.15488 0
M  V30 7899 H 1178.32 0.927166 5.72947 0
M  V30 7900 H 1178.04 -1.87 6.82132 0
M  V30 7901 H 1177.05 -0.404009 7.13457 0
M  V30 7902 H 1178.88 -1.20599 8.97534 0
M  V30 7903 H 1178.96 -2.70295 5.43162 0
M  V30 7904 H 1178.85 -3.89465 3.27406 0
M  V30 7905 H 1178.47 -2.01616 0.107046 0
M  V30 7906 H 1178.66 -3.61403 0.873101 0
M  V30 7907 P 1177.01 1.17771 8.83182 0
M  V30 7908 O 1176.79 2.07206 9.98732 0
M  V30 7909 O 1176.22 -0.0743816 8.81969 0
M  V30 7910 O 1176.76 1.97678 7.474 0
M  V30 7911 C 1177.7 3.01133 7.08783 0
M  V30 7912 C 1176.97 4.1203 6.37546 0
M  V30 7913 O 1176.76 3.72887 4.9796 0
M  V30 7914 C 1175.57 4.45085 6.88694 0
M  V30 7915 O 1175.18 5.78836 6.56315 0
M  V30 7916 C 1174.69 3.47817 6.12078 0
M  V30 7917 C 1175.4 3.39414 4.77697 0
M  V30 7918 N 1175.35 2.04615 4.15333 0
M  V30 7919 C 1175.2 1.96929 2.77162 0
M  V30 7920 O 1175.11 3.02017 2.12006 0
M  V30 7921 N 1175.15 0.55485 2.24237 0
M  V30 7922 C 1175.25 -0.367808 2.9169 0
M  V30 7923 N 1175.2 -1.53426 2.29427 0
M  V30 7924 C 1175.4 -0.319148 4.33828 0
M  V30 7925 C 1175.45 0.920672 4.90433 0
M  V30 7926 H 1178.19 3.41209 7.98667 0
M  V30 7927 H 1178.46 2.5837 6.41742 0
M  V30 7928 H 1177.6 5.02718 6.42752 0
M  V30 7929 H 1174.94 4.11779 4.09026 0
M  V30 7930 H 1174.66 2.49661 6.61772 0
M  V30 7931 H 1173.67 3.86674 6.00946 0
M  V30 7932 H 1175.5 4.29991 7.97006 0
M  V30 7933 H 1175.58 1.00589 5.98303 0
M  V30 7934 H 1175.47 -1.22639 4.93799 0
M  V30 7935 H 1175.09 -1.56819 1.27167 0
M  V30 7936 H 1175.28 -2.41062 2.83063 0
M  V30 7937 P 1173.63 6.144 6.45285 0
M  V30 7938 O 1173.41 7.54673 6.86199 0
M  V30 7939 O 1172.84 5.12391 7.179 0
M  V30 7940 O 1173.38 5.99158 4.88404 0
M  V30 7941 C 1174.32 6.60234 3.96415 0
M  V30 7942 C 1173.59 7.08259 2.72856 0
M  V30 7943 O 1173.38 5.9427 1.83651 0
M  V30 7944 C 1172.19 7.64886 2.9555 0
M  V30 7945 O 1171.8 8.53963 1.90717 0
M  V30 7946 C 1171.31 6.4116 2.90739 0
M  V30 7947 C 1172.02 5.55375 1.86963 0
M  V30 7948 N 1171.97 4.09664 2.15742 0
M  V30 7949 C 1172.05 3.44381 3.37233 0
M  V30 7950 N 1171.97 2.14131 3.28347 0
M  V30 7951 C 1171.83 1.90247 1.91588 0
M  V30 7952 C 1171.7 0.683992 1.20892 0
M  V30 7953 N 1171.58 0.903396 -0.173998 0
M  V30 7954 C 1171.58 2.14171 -0.784879 0
M  V30 7955 N 1171.45 2.1435 -2.11317 0
M  V30 7956 N 1171.71 3.28784 -0.119316 0
M  V30 7957 C 1171.83 3.0977 1.22194 0
M  V30 7958 H 1174.81 7.45574 4.45629 0
M  V30 7959 H 1175.08 5.86232 3.67314 0
M  V30 7960 H 1174.22 7.84412 2.24479 0
M  V30 7961 P 1170.25 8.7635 1.60911 0
M  V30 7962 O 1170.03 10.1388 1.11561 0
M  V30 7963 O 1169.46 8.36503 2.79617 0
M  V30 7964 O 1170 7.71906 0.429565 0
M  V30 7965 C 1170.94 7.67148 -0.673689 0
M  V30 7966 C 1170.21 7.33666 -1.94851 0
M  V30 7967 O 1170 5.88816 -2.00759 0
M  V30 7968 C 1168.81 7.92526 -2.10483 0
M  V30 7969 O 1168.42 8.03063 -3.47693 0
M  V30 7970 C 1167.93 6.89602 -1.41652 0
M  V30 7971 C 1168.64 5.59201 -1.75185 0
M  V30 7972 N 1168.59 4.58235 -0.662552 0
M  V30 7973 C 1168.44 3.24451 -1.01643 0
M  V30 7974 O 1168.35 2.94958 -2.21722 0
M  V30 7975 N 1168.39 2.30408 0.165238 0
M  V30 7976 C 1168.49 2.66048 1.25118 0
M  V30 7977 N 1168.44 1.70787 2.16813 0
M  V30 7978 C 1168.64 4.02732 1.64413 0
M  V30 7979 C 1168.69 4.9488 0.63991 0
M  V30 7980 H 1171.43 8.65017 -0.777072 0
M  V30 7981 H 1171.7 6.90173 -0.474152 0
M  V30 7982 H 1170.84 7.66642 -2.79492 0
M  V30 7983 H 1168.18 5.16254 -2.65229 0
M  V30 7984 H 1167.9 7.06532 -0.329431 0
M  V30 7985 H 1166.91 6.91023 -1.82047 0
M  V30 7986 H 1168.74 8.90873 -1.62657 0
M  V30 7987 H 1168.82 6.00104 0.892197 0
M  V30 7988 H 1168.71 4.31733 2.69229 0
M  V30 7989 H 1168.33 0.724835 1.8844 0
M  V30 7990 H 1168.52 1.94716 3.16734 0
M  V30 7991 P 1166.87 8.03563 -3.84925 0
M  V30 7992 O 1166.65 8.85821 -5.0569 0
M  V30 7993 O 1166.08 8.41101 -2.65469 0
M  V30 7994 O 1166.62 6.49734 -4.18962 0
M  V30 7995 C 1167.56 5.81037 -5.05421 0
M  V30 7996 C 1166.83 4.79018 -5.88876 0
M  V30 7997 O 1166.62 3.58359 -5.08515 0
M  V30 7998 C 1165.43 5.17448 -6.36119 0
M  V30 7999 O 1165.04 4.45322 -7.53318 0
M  V30 8000 C 1164.55 4.74639 -5.19936 0
M  V30 8001 C 1165.26 3.49432 -4.70418 0
M  V30 8002 N 1165.21 3.31776 -3.22945 0
M  V30 8003 C 1165.06 2.02742 -2.72939 0
M  V30 8004 O 1164.97 1.08301 -3.52749 0
M  V30 8005 N 1165.01 1.96117 -1.22063 0
M  V30 8006 C 1165.11 2.8878 -0.551566 0
M  V30 8007 N 1165.06 2.65609 0.750198 0
M  V30 8008 C 1165.26 4.22457 -1.03707 0
M  V30 8009 C 1165.31 4.37979 -2.39113 0
M  V30 8010 H 1168.05 6.54138 -5.7131 0
M  V30 8011 H 1168.32 5.30492 -4.44033 0
M  V30 8012 H 1167.46 4.55945 -6.76735 0
M  V30 8013 H 1164.8 2.6176 -5.18021 0
M  V30 8014 H 1164.52 5.52233 -4.41941 0
M  V30 8015 H 1163.53 4.52045 -5.53452 0
M  V30 8016 H 1165.36 6.25124 -6.55234 0
M  V30 8017 H 1165.44 5.37936 -2.80552 0
M  V30 8018 H 1165.33 5.07528 -0.359553 0
M  V30 8019 H 1164.95 1.69403 1.09847 0
M  V30 8020 H 1165.14 3.43701 1.41792 0
M  V30 8021 P 1163.49 4.23843 -7.83734 0
M  V30 8022 O 1163.27 4.19407 -9.29784 0
M  V30 8023 O 1162.7 5.24426 -7.09156 0
M  V30 8024 O 1163.24 2.7935 -7.20758 0
M  V30 8025 C 1164.18 1.7299 -7.50419 0
M  V30 8026 C 1163.45 0.406376 -7.57911 0
M  V30 8027 O 1163.24 -0.0897726 -6.21935 0
M  V30 8028 C 1162.05 0.447224 -8.1878 0
M  V30 8029 O 1161.66 -0.825065 -8.71101 0
M  V30 8030 C 1161.17 0.783801 -6.99623 0
M  V30 8031 C 1161.88 0.0619192 -5.85967 0
M  V30 8032 N 1161.83 0.790462 -4.56202 0
M  V30 8033 H 1164.67 1.93423 -8.4679 0
M  V30 8034 H 1164.94 1.68852 -6.70877 0
M  V30 8035 H 1164.08 -0.289041 -8.15388 0
M  V30 8036 H 1161.42 -0.927006 -5.72848 0
M  V30 8037 H 1161.14 1.86973 -6.82036 0
M  V30 8038 H 1160.15 0.403953 -7.13357 0
M  V30 8039 H 1161.98 1.20599 -8.97534 0
M  V30 8040 P 1160.11 -1.17771 -8.83182 0
M  V30 8041 O 1159.89 -2.07206 -9.98732 0
M  V30 8042 O 1159.32 0.0743816 -8.81969 0
M  V30 8043 O 1159.86 -1.97678 -7.474 0
M  V30 8044 C 1160.8 -3.01133 -7.08783 0
M  V30 8045 C 1160.07 -4.1203 -6.37546 0
M  V30 8046 O 1159.86 -3.72887 -4.9796 0
M  V30 8047 C 1158.67 -4.45085 -6.88694 0
M  V30 8048 O 1158.28 -5.78836 -6.56315 0
M  V30 8049 C 1157.79 -3.47817 -6.12078 0
M  V30 8050 C 1158.5 -3.39414 -4.77697 0
M  V30 8051 N 1158.45 -2.04615 -4.15333 0
M  V30 8052 C 1158.3 -1.96929 -2.77162 0
M  V30 8053 O 1158.21 -3.02017 -2.12006 0
M  V30 8054 N 1158.25 -0.55485 -2.24237 0
M  V30 8055 C 1158.35 0.367808 -2.9169 0
M  V30 8056 N 1158.3 1.53426 -2.29427 0
M  V30 8057 C 1158.5 0.319148 -4.33828 0
M  V30 8058 C 1158.55 -0.920672 -4.90433 0
M  V30 8059 H 1161.29 -3.41209 -7.98667 0
M  V30 8060 H 1161.56 -2.5837 -6.41742 0
M  V30 8061 H 1160.7 -5.02718 -6.42752 0
M  V30 8062 H 1158.04 -4.11779 -4.09026 0
M  V30 8063 H 1157.76 -2.49661 -6.61772 0
M  V30 8064 H 1156.77 -3.86674 -6.00946 0
M  V30 8065 H 1158.6 -4.29991 -7.97006 0
M  V30 8066 H 1158.68 -1.00589 -5.98303 0
M  V30 8067 H 1158.57 1.22639 -4.93799 0
M  V30 8068 H 1158.19 1.56819 -1.27167 0
M  V30 8069 H 1158.38 2.41062 -2.83063 0
M  V30 8070 P 1156.73 -6.144 -6.45285 0
M  V30 8071 O 1156.51 -7.54673 -6.86199 0
M  V30 8072 O 1155.94 -5.12391 -7.179 0
M  V30 8073 O 1156.48 -5.99236 -4.88467 0
M  V30 8074 C 1157.42 -6.60234 -3.96415 0
M  V30 8075 C 1156.69 -7.08079 -2.736 0
M  V30 8076 O 1156.48 -5.94365 -1.8368 0
M  V30 8077 C 1155.29 -7.64886 -2.9555 0
M  V30 8078 O 1154.9 -8.5406 -1.90739 0
M  V30 8079 C 1154.41 -6.4116 -2.90739 0
M  V30 8080 C 1155.12 -5.55375 -1.86963 0
M  V30 8081 N 1155.07 -4.09664 -2.15742 0
M  V30 8082 C 1154.92 -3.22231 -1.08477 0
M  V30 8083 O 1154.83 -3.68951 0.0600489 0
M  V30 8084 N 1154.87 -1.76692 -1.48799 0
M  V30 8085 C 1154.97 -1.41695 -2.57602 0
M  V30 8086 N 1154.92 -0.107296 -2.75791 0
M  V30 8087 C 1155.12 -2.29178 -3.69733 0
M  V30 8088 C 1155.17 -3.62753 -3.42653 0
M  V30 8089 H 1157.91 -7.45488 -4.45578 0
M  V30 8090 H 1158.18 -5.86232 -3.67314 0
M  V30 8091 H 1157.32 -7.84508 -2.24507 0
M  V30 8092 H 1154.66 -5.73556 -0.888715 0
M  V30 8093 H 1154.38 -5.9096 -3.88638 0
M  V30 8094 H 1153.39 -6.66053 -2.58894 0
M  V30 8095 H 1155.22 -8.16339 -3.92049 0
M  V30 8096 H 1155.3 -4.33052 -4.24913 0
M  V30 8097 H 1155.19 -1.9103 -4.71577 0
M  V30 8098 H 1154.81 0.521221 -1.95056 0
M  V30 8099 H 1155 0.286429 -3.70695 0
M  V30 8100 P 1153.35 -8.7635 -1.60911 0
M  V30 8101 O 1153.13 -10.1388 -1.11561 0
M  V30 8102 O 1152.56 -8.36503 -2.79617 0
M  V30 8103 O 1153.1 -7.71806 -0.42951 0
M  V30 8104 C 1154.04 -7.67148 0.673689 0
M  V30 8105 C 1153.31 -7.33374 1.95559 0
M  V30 8106 O 1153.1 -5.88721 2.00726 0
M  V30 8107 C 1151.91 -7.92526 2.10483 0
M  V30 8108 O 1151.52 -8.02971 3.47653 0
M  V30 8109 C 1151.03 -6.89602 1.41652 0
M  V30 8110 C 1151.74 -5.59201 1.75185 0
M  V30 8111 N 1151.69 -4.58301 0.657969 0
M  V30 8112 H 1154.53 -8.65116 0.777161 0
M  V30 8113 H 1154.8 -6.9022 0.46725 0
M  V30 8114 H 1153.94 -7.66548 2.79458 0
M  V30 8115 H 1151.28 -5.16165 2.65183 0
M  V30 8116 H 1151 -7.06433 0.329384 0
M  V30 8117 H 1150.01 -6.90926 1.82021 0
M  V30 8118 H 1151.84 -8.90873 1.62657 0
M  V30 8119 P 1149.97 -8.03563 3.84925 0
M  V30 8120 O 1149.75 -8.85821 5.0569 0
M  V30 8121 O 1149.18 -8.41101 2.65469 0
M  V30 8122 O 1149.72 -6.49734 4.18962 0
M  V30 8123 C 1150.66 -5.81037 5.05421 0
M  V30 8124 C 1149.93 -4.79018 5.88876 0
M  V30 8125 O 1149.72 -3.58359 5.08515 0
M  V30 8126 C 1148.53 -5.17448 6.36119 0
M  V30 8127 O 1148.14 -4.45322 7.53318 0
M  V30 8128 C 1147.65 -4.74639 5.19936 0
M  V30 8129 C 1148.36 -3.49432 4.70418 0
M  V30 8130 N 1148.31 -3.31776 3.22945 0
M  V30 8131 C 1148.16 -2.02742 2.72939 0
M  V30 8132 O 1148.07 -1.08301 3.52749 0
M  V30 8133 N 1148.11 -1.96117 1.22063 0
M  V30 8134 C 1148.21 -2.8878 0.551566 0
M  V30 8135 N 1148.16 -2.65609 -0.750198 0
M  V30 8136 C 1148.36 -4.22457 1.03707 0
M  V30 8137 C 1148.41 -4.37979 2.39113 0
M  V30 8138 H 1151.15 -6.54138 5.7131 0
M  V30 8139 H 1151.42 -5.30492 4.44033 0
M  V30 8140 H 1150.56 -4.55945 6.76735 0
M  V30 8141 H 1147.9 -2.6176 5.18021 0
M  V30 8142 H 1147.62 -5.52233 4.41941 0
M  V30 8143 H 1146.63 -4.52045 5.53452 0
M  V30 8144 H 1148.46 -6.25124 6.55234 0
M  V30 8145 H 1148.54 -5.37936 2.80552 0
M  V30 8146 H 1148.43 -5.07528 0.359553 0
M  V30 8147 H 1148.05 -1.69403 -1.09847 0
M  V30 8148 H 1148.24 -3.43701 -1.41792 0
M  V30 8149 P 1146.59 -4.23843 7.83734 0
M  V30 8150 O 1146.37 -4.19407 9.29784 0
M  V30 8151 O 1145.8 -5.24426 7.09156 0
M  V30 8152 O 1146.34 -2.79386 7.20852 0
M  V30 8153 C 1147.28 -1.7299 7.50419 0
M  V30 8154 C 1146.55 -0.41401 7.5797 0
M  V30 8155 O 1146.34 0.089787 6.22035 0
M  V30 8156 C 1145.15 -0.447224 8.1878 0
M  V30 8157 O 1144.76 0.825159 8.71201 0
M  V30 8158 C 1144.27 -0.783801 6.99623 0
M  V30 8159 C 1144.98 -0.0619192 5.85967 0
M  V30 8160 N 1144.93 -0.7859 4.56281 0
M  V30 8161 C 1144.78 -0.0359258 3.39981 0
M  V30 8162 O 1144.69 1.19723 3.49038 0
M  V30 8163 N 1144.73 -0.869151 2.14025 0
M  V30 8164 C 1144.83 -2.01207 2.14363 0
M  V30 8165 N 1144.78 -2.58978 0.954287 0
M  V30 8166 C 1144.98 -2.80817 3.32215 0
M  V30 8167 C 1145.03 -2.13785 4.50884 0
M  V30 8168 H 1147.77 -1.93401 8.46693 0
M  V30 8169 H 1148.04 -1.68181 6.71046 0
M  V30 8170 H 1147.18 0.289076 8.15488 0
M  V30 8171 H 1144.52 0.927166 5.72947 0
M  V30 8172 H 1144.24 -1.87 6.82132 0
M  V30 8173 H 1143.25 -0.404009 7.13457 0
M  V30 8174 H 1145.08 -1.20599 8.97534 0
M  V30 8175 H 1145.16 -2.70295 5.43162 0
M  V30 8176 H 1145.05 -3.89465 3.27406 0
M  V30 8177 H 1144.67 -2.01616 0.107046 0
M  V30 8178 H 1144.86 -3.61403 0.873101 0
M  V30 8179 P 1143.21 1.17771 8.83182 0
M  V30 8180 O 1142.99 2.07206 9.98732 0
M  V30 8181 O 1142.42 -0.0743816 8.81969 0
M  V30 8182 O 1142.96 1.97652 7.47304 0
M  V30 8183 C 1143.9 3.01133 7.08783 0
M  V30 8184 C 1143.17 4.12613 6.37049 0
M  V30 8185 O 1142.96 3.72827 4.97879 0
M  V30 8186 C 1141.77 4.45085 6.88694 0
M  V30 8187 O 1141.38 5.7877 6.5624 0
M  V30 8188 C 1140.89 3.47817 6.12078 0
M  V30 8189 C 1141.6 3.39414 4.77697 0
M  V30 8190 N 1141.55 2.04615 4.15333 0
M  V30 8191 H 1144.39 3.41248 7.98759 0
M  V30 8192 H 1144.66 2.5837 6.41742 0
M  V30 8193 H 1143.8 5.02657 6.42673 0
M  V30 8194 P 1139.83 6.144 6.45285 0
M  V30 8195 O 1139.61 7.54673 6.86199 0
M  V30 8196 O 1139.04 5.12391 7.179 0
M  V30 8197 O 1139.58 5.99236 4.88467 0
M  V30 8198 C 1140.52 6.60234 3.96415 0
M  V30 8199 C 1139.79 7.08079 2.736 0
M  V30 8200 O 1139.58 5.94365 1.8368 0
M  V30 8201 C 1138.39 7.64886 2.9555 0
M  V30 8202 O 1138 8.5406 1.90739 0
M  V30 8203 C 1137.51 6.4116 2.90739 0
M  V30 8204 C 1138.22 5.55375 1.86963 0
M  V30 8205 N 1138.17 4.09664 2.15742 0
M  V30 8206 C 1138.02 3.22231 1.08477 0
M  V30 8207 O 1137.93 3.68951 -0.0600489 0
M  V30 8208 N 1137.97 1.76692 1.48799 0
M  V30 8209 C 1138.07 1.41695 2.57602 0
M  V30 8210 N 1138.02 0.107296 2.75791 0
M  V30 8211 C 1138.22 2.29178 3.69733 0
M  V30 8212 C 1138.27 3.62753 3.42653 0
M  V30 8213 H 1141.01 7.45488 4.45578 0
M  V30 8214 H 1141.28 5.86232 3.67314 0
M  V30 8215 H 1140.42 7.84508 2.24507 0
M  V30 8216 H 1137.76 5.73556 0.888715 0
M  V30 8217 H 1137.48 5.9096 3.88638 0
M  V30 8218 H 1136.49 6.66053 2.58894 0
M  V30 8219 H 1138.32 8.16339 3.92049 0
M  V30 8220 H 1138.4 4.33052 4.24913 0
M  V30 8221 H 1138.29 1.9103 4.71577 0
M  V30 8222 H 1137.91 -0.521221 1.95056 0
M  V30 8223 H 1138.1 -0.286429 3.70695 0
M  V30 8224 P 1136.45 8.7635 1.60911 0
M  V30 8225 O 1136.23 10.1388 1.11561 0
M  V30 8226 O 1135.66 8.36503 2.79617 0
M  V30 8227 O 1136.2 7.71806 0.42951 0
M  V30 8228 C 1137.14 7.67148 -0.673689 0
M  V30 8229 C 1136.41 7.33374 -1.95559 0
M  V30 8230 O 1136.2 5.88721 -2.00726 0
M  V30 8231 C 1135.01 7.92526 -2.10483 0
M  V30 8232 O 1134.62 8.02971 -3.47653 0
M  V30 8233 C 1134.13 6.89602 -1.41652 0
M  V30 8234 C 1134.84 5.59201 -1.75185 0
M  V30 8235 N 1134.79 4.58235 -0.662552 0
M  V30 8236 C 1134.87 4.7683 0.704049 0
M  V30 8237 N 1134.79 3.66233 1.39775 0
M  V30 8238 C 1134.65 2.66526 0.431739 0
M  V30 8239 C 1134.52 1.26394 0.575992 0
M  V30 8240 N 1134.4 0.62859 -0.67177 0
M  V30 8241 C 1134.4 1.27134 -1.89385 0
M  V30 8242 N 1134.27 0.492035 -2.96951 0
M  V30 8243 N 1134.53 2.58978 -2.02907 0
M  V30 8244 C 1134.65 3.22433 -0.832218 0
M  V30 8245 H 1137.63 8.65116 -0.777161 0
M  V30 8246 H 1137.9 6.90173 -0.474152 0
M  V30 8247 H 1137.04 7.66548 -2.79458 0
M  V30 8248 P 1133.07 8.03563 -3.84925 0
M  V30 8249 O 1132.85 8.85821 -5.0569 0
M  V30 8250 O 1132.28 8.41101 -2.65469 0
M  V30 8251 O 1132.82 6.4965 -4.18908 0
M  V30 8252 C 1133.76 5.81037 -5.05421 0
M  V30 8253 C 1133.03 4.78366 -5.89277 0
M  V30 8254 O 1132.82 3.58302 -5.08433 0
M  V30 8255 C 1131.63 5.17448 -6.36119 0
M  V30 8256 O 1131.24 4.45271 -7.53232 0
M  V30 8257 C 1130.75 4.74639 -5.19936 0
M  V30 8258 C 1131.46 3.49432 -4.70418 0
M  V30 8259 N 1131.41 3.31776 -3.22945 0
M  V30 8260 H 1134.25 6.54213 -5.71376 0
M  V30 8261 H 1134.52 5.30492 -4.44033 0
M  V30 8262 H 1133.66 4.55889 -6.76652 0
M  V30 8263 P 1129.69 4.23843 -7.83734 0
M  V30 8264 O 1129.47 4.19407 -9.29784 0
M  V30 8265 O 1128.9 5.24426 -7.09156 0
M  V30 8266 O 1129.44 2.79386 -7.20852 0
M  V30 8267 C 1130.38 1.7299 -7.50419 0
M  V30 8268 C 1129.65 0.41401 -7.5797 0
M  V30 8269 O 1129.44 -0.089787 -6.22035 0
M  V30 8270 C 1128.25 0.447224 -8.1878 0
M  V30 8271 O 1127.86 -0.825159 -8.71201 0
M  V30 8272 C 1127.37 0.783801 -6.99623 0
M  V30 8273 C 1128.08 0.0619192 -5.85967 0
M  V30 8274 N 1128.03 0.7859 -4.56281 0
M  V30 8275 C 1127.88 0.0359258 -3.39981 0
M  V30 8276 O 1127.79 -1.19723 -3.49038 0
M  V30 8277 N 1127.83 0.869151 -2.14025 0
M  V30 8278 C 1127.93 2.01207 -2.14363 0
M  V30 8279 N 1127.88 2.58978 -0.954287 0
M  V30 8280 C 1128.08 2.80817 -3.32215 0
M  V30 8281 C 1128.13 2.13785 -4.50884 0
M  V30 8282 H 1130.87 1.93401 -8.46693 0
M  V30 8283 H 1131.14 1.68181 -6.71046 0
M  V30 8284 H 1130.28 -0.289076 -8.15488 0
M  V30 8285 H 1127.62 -0.927166 -5.72947 0
M  V30 8286 H 1127.34 1.87 -6.82132 0
M  V30 8287 H 1126.35 0.404009 -7.13457 0
M  V30 8288 H 1128.18 1.20599 -8.97534 0
M  V30 8289 H 1128.26 2.70295 -5.43162 0
M  V30 8290 H 1128.15 3.89465 -3.27406 0
M  V30 8291 H 1127.77 2.01616 -0.107046 0
M  V30 8292 H 1127.96 3.61403 -0.873101 0
M  V30 8293 P 1126.31 -1.17771 -8.83182 0
M  V30 8294 O 1126.09 -2.07206 -9.98732 0
M  V30 8295 O 1125.52 0.0743816 -8.81969 0
M  V30 8296 O 1126.06 -1.97678 -7.474 0
M  V30 8297 C 1127 -3.01133 -7.08783 0
M  V30 8298 C 1126.27 -4.1203 -6.37546 0
M  V30 8299 O 1126.06 -3.72887 -4.9796 0
M  V30 8300 C 1124.87 -4.45085 -6.88694 0
M  V30 8301 O 1124.48 -5.78836 -6.56315 0
M  V30 8302 C 1123.99 -3.47817 -6.12078 0
M  V30 8303 C 1124.7 -3.39414 -4.77697 0
M  V30 8304 N 1124.65 -2.04615 -4.15333 0
M  V30 8305 C 1124.5 -1.96929 -2.77162 0
M  V30 8306 O 1124.41 -3.02017 -2.12006 0
M  V30 8307 N 1124.45 -0.55485 -2.24237 0
M  V30 8308 C 1124.55 0.367808 -2.9169 0
M  V30 8309 N 1124.5 1.53426 -2.29427 0
M  V30 8310 C 1124.7 0.319148 -4.33828 0
M  V30 8311 C 1124.75 -0.920672 -4.90433 0
M  V30 8312 H 1127.49 -3.41209 -7.98667 0
M  V30 8313 H 1127.76 -2.5837 -6.41742 0
M  V30 8314 H 1126.9 -5.02718 -6.42752 0
M  V30 8315 H 1124.24 -4.11779 -4.09026 0
M  V30 8316 H 1123.96 -2.49661 -6.61772 0
M  V30 8317 H 1122.97 -3.86674 -6.00946 0
M  V30 8318 H 1124.8 -4.29991 -7.97006 0
M  V30 8319 H 1124.88 -1.00589 -5.98303 0
M  V30 8320 H 1124.77 1.22639 -4.93799 0
M  V30 8321 H 1124.39 1.56819 -1.27167 0
M  V30 8322 H 1124.58 2.41062 -2.83063 0
M  V30 8323 P 1122.93 -6.144 -6.45285 0
M  V30 8324 O 1122.71 -7.54673 -6.86199 0
M  V30 8325 O 1122.14 -5.12391 -7.179 0
M  V30 8326 O 1122.68 -5.99236 -4.88467 0
M  V30 8327 C 1123.62 -6.60234 -3.96415 0
M  V30 8328 C 1122.89 -7.08079 -2.736 0
M  V30 8329 O 1122.68 -5.94365 -1.8368 0
M  V30 8330 C 1121.49 -7.64886 -2.9555 0
M  V30 8331 O 1121.1 -8.5406 -1.90739 0
M  V30 8332 C 1120.61 -6.4116 -2.90739 0
M  V30 8333 C 1121.32 -5.55375 -1.86963 0
M  V30 8334 N 1121.27 -4.09664 -2.15742 0
M  V30 8335 C 1121.12 -3.22231 -1.08477 0
M  V30 8336 O 1121.03 -3.68951 0.0600489 0
M  V30 8337 N 1121.07 -1.76692 -1.48799 0
M  V30 8338 C 1121.17 -1.41695 -2.57602 0
M  V30 8339 N 1121.12 -0.107296 -2.75791 0
M  V30 8340 C 1121.32 -2.29178 -3.69733 0
M  V30 8341 C 1121.37 -3.62753 -3.42653 0
M  V30 8342 H 1124.11 -7.45488 -4.45578 0
M  V30 8343 H 1124.38 -5.86232 -3.67314 0
M  V30 8344 H 1123.52 -7.84508 -2.24507 0
M  V30 8345 H 1120.86 -5.73556 -0.888715 0
M  V30 8346 H 1120.58 -5.9096 -3.88638 0
M  V30 8347 H 1119.59 -6.66053 -2.58894 0
M  V30 8348 H 1121.42 -8.16339 -3.92049 0
M  V30 8349 H 1121.5 -4.33052 -4.24913 0
M  V30 8350 H 1121.39 -1.9103 -4.71577 0
M  V30 8351 H 1121.01 0.521221 -1.95056 0
M  V30 8352 H 1121.2 0.286429 -3.70695 0
M  V30 8353 P 1119.55 -8.7635 -1.60911 0
M  V30 8354 O 1119.33 -10.1388 -1.11561 0
M  V30 8355 O 1118.76 -8.36503 -2.79617 0
M  V30 8356 O 1119.3 -7.71806 -0.42951 0
M  V30 8357 C 1120.24 -7.67148 0.673689 0
M  V30 8358 C 1119.51 -7.33374 1.95559 0
M  V30 8359 O 1119.3 -5.88721 2.00726 0
M  V30 8360 C 1118.11 -7.92526 2.10483 0
M  V30 8361 O 1117.72 -8.02971 3.47653 0
M  V30 8362 C 1117.23 -6.89602 1.41652 0
M  V30 8363 C 1117.94 -5.59201 1.75185 0
M  V30 8364 N 1117.89 -4.58235 0.662552 0
M  V30 8365 C 1117.97 -4.7683 -0.704049 0
M  V30 8366 N 1117.89 -3.66233 -1.39775 0
M  V30 8367 C 1117.75 -2.66526 -0.431739 0
M  V30 8368 C 1117.62 -1.26394 -0.575992 0
M  V30 8369 N 1117.5 -0.62859 0.67177 0
M  V30 8370 C 1117.5 -1.27134 1.89385 0
M  V30 8371 N 1117.37 -0.492035 2.96951 0
M  V30 8372 N 1117.63 -2.58978 2.02907 0
M  V30 8373 C 1117.75 -3.22433 0.832218 0
M  V30 8374 H 1120.73 -8.65116 0.777161 0
M  V30 8375 H 1121 -6.90173 0.474152 0
M  V30 8376 H 1120.14 -7.66548 2.79458 0
M  V30 8377 P 1116.17 -8.03563 3.84925 0
M  V30 8378 O 1115.95 -8.85821 5.0569 0
M  V30 8379 O 1115.38 -8.41101 2.65469 0
M  V30 8380 O 1115.92 -6.4965 4.18908 0
M  V30 8381 C 1116.86 -5.81037 5.05421 0
M  V30 8382 C 1116.13 -4.78366 5.89277 0
M  V30 8383 O 1115.92 -3.58302 5.08433 0
M  V30 8384 C 1114.73 -5.17448 6.36119 0
M  V30 8385 O 1114.34 -4.45271 7.53232 0
M  V30 8386 C 1113.85 -4.74639 5.19936 0
M  V30 8387 C 1114.56 -3.49432 4.70418 0
M  V30 8388 N 1114.51 -3.31776 3.22945 0
M  V30 8389 H 1117.35 -6.54213 5.71376 0
M  V30 8390 H 1117.62 -5.30492 4.44033 0
M  V30 8391 H 1116.76 -4.55889 6.76652 0
M  V30 8392 P 1112.79 -4.23843 7.83734 0
M  V30 8393 O 1112.57 -4.19407 9.29784 0
M  V30 8394 O 1112 -5.24426 7.09156 0
M  V30 8395 O 1112.54 -2.79386 7.20852 0
M  V30 8396 C 1113.48 -1.7299 7.50419 0
M  V30 8397 C 1112.75 -0.41401 7.5797 0
M  V30 8398 O 1112.54 0.089787 6.22035 0
M  V30 8399 C 1111.35 -0.447224 8.1878 0
M  V30 8400 O 1110.96 0.825159 8.71201 0
M  V30 8401 C 1110.47 -0.783801 6.99623 0
M  V30 8402 C 1111.18 -0.0619192 5.85967 0
M  V30 8403 N 1111.13 -0.7859 4.56281 0
M  V30 8404 C 1110.98 -0.0359258 3.39981 0
M  V30 8405 O 1110.89 1.19723 3.49038 0
M  V30 8406 N 1110.93 -0.869151 2.14025 0
M  V30 8407 C 1111.03 -2.01207 2.14363 0
M  V30 8408 N 1110.98 -2.58978 0.954287 0
M  V30 8409 C 1111.18 -2.80817 3.32215 0
M  V30 8410 C 1111.23 -2.13785 4.50884 0
M  V30 8411 H 1113.97 -1.93401 8.46693 0
M  V30 8412 H 1114.24 -1.68181 6.71046 0
M  V30 8413 H 1113.38 0.289076 8.15488 0
M  V30 8414 H 1110.72 0.927166 5.72947 0
M  V30 8415 H 1110.44 -1.87 6.82132 0
M  V30 8416 H 1109.45 -0.404009 7.13457 0
M  V30 8417 H 1111.28 -1.20599 8.97534 0
M  V30 8418 H 1111.36 -2.70295 5.43162 0
M  V30 8419 H 1111.25 -3.89465 3.27406 0
M  V30 8420 H 1110.87 -2.01616 0.107046 0
M  V30 8421 H 1111.06 -3.61403 0.873101 0
M  V30 8422 P 1109.41 1.17771 8.83182 0
M  V30 8423 O 1109.19 2.07206 9.98732 0
M  V30 8424 O 1108.62 -0.0743816 8.81969 0
M  V30 8425 O 1109.16 1.97678 7.474 0
M  V30 8426 C 1110.1 3.01133 7.08783 0
M  V30 8427 C 1109.37 4.1203 6.37546 0
M  V30 8428 O 1109.16 3.72887 4.9796 0
M  V30 8429 C 1107.97 4.45085 6.88694 0
M  V30 8430 O 1107.58 5.78836 6.56315 0
M  V30 8431 C 1107.09 3.47817 6.12078 0
M  V30 8432 C 1107.8 3.39414 4.77697 0
M  V30 8433 N 1107.75 2.04615 4.15333 0
M  V30 8434 C 1107.6 1.96929 2.77162 0
M  V30 8435 O 1107.51 3.02017 2.12006 0
M  V30 8436 N 1107.55 0.55485 2.24237 0
M  V30 8437 C 1107.65 -0.367808 2.9169 0
M  V30 8438 N 1107.6 -1.53426 2.29427 0
M  V30 8439 C 1107.8 -0.319148 4.33828 0
M  V30 8440 C 1107.85 0.920672 4.90433 0
M  V30 8441 H 1110.59 3.41209 7.98667 0
M  V30 8442 H 1110.86 2.5837 6.41742 0
M  V30 8443 H 1110 5.02718 6.42752 0
M  V30 8444 H 1107.34 4.11779 4.09026 0
M  V30 8445 H 1107.06 2.49661 6.61772 0
M  V30 8446 H 1106.07 3.86674 6.00946 0
M  V30 8447 H 1107.9 4.29991 7.97006 0
M  V30 8448 H 1107.98 1.00589 5.98303 0
M  V30 8449 H 1107.87 -1.22639 4.93799 0
M  V30 8450 H 1107.49 -1.56819 1.27167 0
M  V30 8451 H 1107.68 -2.41062 2.83063 0
M  V30 8452 P 1106.03 6.144 6.45285 0
M  V30 8453 O 1105.81 7.54673 6.86199 0
M  V30 8454 O 1105.24 5.12391 7.179 0
M  V30 8455 O 1105.78 5.99158 4.88404 0
M  V30 8456 C 1106.72 6.60234 3.96415 0
M  V30 8457 C 1105.99 7.08259 2.72856 0
M  V30 8458 O 1105.78 5.9427 1.83651 0
M  V30 8459 C 1104.59 7.64886 2.9555 0
M  V30 8460 O 1104.2 8.53963 1.90717 0
M  V30 8461 C 1103.71 6.4116 2.90739 0
M  V30 8462 C 1104.42 5.55375 1.86963 0
M  V30 8463 N 1104.37 4.09664 2.15742 0
M  V30 8464 H 1107.21 7.45574 4.45629 0
M  V30 8465 H 1107.48 5.86232 3.67314 0
M  V30 8466 H 1106.62 7.84412 2.24479 0
M  V30 8467 P 1102.65 8.7635 1.60911 0
M  V30 8468 O 1102.43 10.1388 1.11561 0
M  V30 8469 O 1101.86 8.36503 2.79617 0
M  V30 8470 O 1102.4 7.71806 0.42951 0
M  V30 8471 C 1103.34 7.67148 -0.673689 0
M  V30 8472 C 1102.61 7.33374 -1.95559 0
M  V30 8473 O 1102.4 5.88721 -2.00726 0
M  V30 8474 C 1101.21 7.92526 -2.10483 0
M  V30 8475 O 1100.82 8.02971 -3.47653 0
M  V30 8476 C 1100.33 6.89602 -1.41652 0
M  V30 8477 C 1101.04 5.59201 -1.75185 0
M  V30 8478 N 1100.99 4.58235 -0.662552 0
M  V30 8479 H 1103.83 8.65116 -0.777161 0
M  V30 8480 H 1104.1 6.90173 -0.474152 0
M  V30 8481 H 1103.24 7.66548 -2.79458 0
M  V30 8482 P 1099.27 8.03563 -3.84925 0
M  V30 8483 O 1099.05 8.85821 -5.0569 0
M  V30 8484 O 1098.48 8.41101 -2.65469 0
M  V30 8485 O 1099.02 6.4965 -4.18908 0
M  V30 8486 C 1099.96 5.80886 -5.05289 0
M  V30 8487 C 1099.23 4.78366 -5.89277 0
M  V30 8488 O 1099.02 3.58302 -5.08433 0
M  V30 8489 C 1097.83 5.16748 -6.36559 0
M  V30 8490 O 1097.44 4.45271 -7.53232 0
M  V30 8491 C 1096.95 4.74572 -5.19863 0
M  V30 8492 C 1097.66 3.49373 -4.70338 0
M  V30 8493 N 1097.61 3.31704 -3.22876 0
M  V30 8494 C 1097.46 2.03326 -2.74871 0
M  V30 8495 O 1097.37 1.06486 -3.48076 0
M  V30 8496 N 1097.42 1.91838 -1.37456 0
M  V30 8497 C 1097.51 2.94295 -0.462035 0
M  V30 8498 C 1097.66 4.25064 -1.05249 0
M  V30 8499 C 1097.71 4.40214 -2.39192 0
M  V30 8500 H 1100.45 6.54063 -5.71245 0
M  V30 8501 H 1100.72 5.30339 -4.43905 0
M  V30 8502 H 1099.86 4.55889 -6.76652 0
M  V30 8503 H 1097.2 2.6167 -5.17842 0
M  V30 8504 H 1096.92 5.52155 -4.41878 0
M  V30 8505 H 1095.93 4.51918 -5.53297 0
M  V30 8506 H 1097.76 6.25055 -6.55162 0
M  V30 8507 H 1097.84 5.39798 -2.81523 0
M  V30 8508 P 1095.89 4.23843 -7.83734 0
M  V30 8509 O 1095.67 4.19407 -9.29784 0
M  V30 8510 O 1095.1 5.24426 -7.09156 0
M  V30 8511 O 1095.64 2.7935 -7.20758 0
M  V30 8512 C 1096.58 1.7299 -7.50419 0
M  V30 8513 C 1095.85 0.406376 -7.57911 0
M  V30 8514 O 1095.64 -0.0897726 -6.21935 0
M  V30 8515 C 1094.45 0.447224 -8.1878 0
M  V30 8516 O 1094.06 -0.825065 -8.71101 0
M  V30 8517 C 1093.57 0.783801 -6.99623 0
M  V30 8518 C 1094.28 0.0619192 -5.85967 0
M  V30 8519 N 1094.23 0.790462 -4.56202 0
M  V30 8520 H 1097.07 1.93423 -8.4679 0
M  V30 8521 H 1097.34 1.68852 -6.70877 0
M  V30 8522 H 1096.48 -0.289041 -8.15388 0
M  V30 8523 H 1093.82 -0.927006 -5.72848 0
M  V30 8524 H 1093.54 1.86973 -6.82036 0
M  V30 8525 H 1092.55 0.403953 -7.13357 0
M  V30 8526 H 1094.38 1.20599 -8.97534 0
M  V30 8527 P 1092.51 -1.17771 -8.83182 0
M  V30 8528 O 1092.29 -2.07206 -9.98732 0
M  V30 8529 O 1091.72 0.0743816 -8.81969 0
M  V30 8530 O 1092.26 -1.97678 -7.474 0
M  V30 8531 C 1093.2 -3.01133 -7.08783 0
M  V30 8532 C 1092.47 -4.1203 -6.37546 0
M  V30 8533 O 1092.26 -3.72887 -4.9796 0
M  V30 8534 C 1091.07 -4.45085 -6.88694 0
M  V30 8535 O 1090.68 -5.78836 -6.56315 0
M  V30 8536 C 1090.19 -3.47817 -6.12078 0
M  V30 8537 C 1090.9 -3.39414 -4.77697 0
M  V30 8538 N 1090.85 -2.04615 -4.15333 0
M  V30 8539 C 1090.7 -1.96929 -2.77162 0
M  V30 8540 O 1090.61 -3.02017 -2.12006 0
M  V30 8541 N 1090.65 -0.55485 -2.24237 0
M  V30 8542 C 1090.75 0.367808 -2.9169 0
M  V30 8543 N 1090.7 1.53426 -2.29427 0
M  V30 8544 C 1090.9 0.319148 -4.33828 0
M  V30 8545 C 1090.95 -0.920672 -4.90433 0
M  V30 8546 H 1093.69 -3.41209 -7.98667 0
M  V30 8547 H 1093.96 -2.5837 -6.41742 0
M  V30 8548 H 1093.1 -5.02718 -6.42752 0
M  V30 8549 H 1090.44 -4.11779 -4.09026 0
M  V30 8550 H 1090.16 -2.49661 -6.61772 0
M  V30 8551 H 1089.17 -3.86674 -6.00946 0
M  V30 8552 H 1091 -4.29991 -7.97006 0
M  V30 8553 H 1091.08 -1.00589 -5.98303 0
M  V30 8554 H 1090.97 1.22639 -4.93799 0
M  V30 8555 H 1090.59 1.56819 -1.27167 0
M  V30 8556 H 1090.78 2.41062 -2.83063 0
M  V30 8557 P 1089.13 -6.144 -6.45285 0
M  V30 8558 O 1088.91 -7.54673 -6.86199 0
M  V30 8559 O 1088.34 -5.12391 -7.179 0
M  V30 8560 O 1088.88 -5.99236 -4.88467 0
M  V30 8561 C 1089.82 -6.60234 -3.96415 0
M  V30 8562 C 1089.09 -7.08079 -2.736 0
M  V30 8563 O 1088.88 -5.94365 -1.8368 0
M  V30 8564 C 1087.69 -7.64886 -2.9555 0
M  V30 8565 O 1087.3 -8.5406 -1.90739 0
M  V30 8566 C 1086.81 -6.4116 -2.90739 0
M  V30 8567 C 1087.52 -5.55375 -1.86963 0
M  V30 8568 N 1087.47 -4.09664 -2.15742 0
M  V30 8569 C 1087.32 -3.22231 -1.08477 0
M  V30 8570 O 1087.23 -3.68951 0.0600489 0
M  V30 8571 N 1087.27 -1.76692 -1.48799 0
M  V30 8572 C 1087.37 -1.41695 -2.57602 0
M  V30 8573 N 1087.32 -0.107296 -2.75791 0
M  V30 8574 C 1087.52 -2.29178 -3.69733 0
M  V30 8575 C 1087.57 -3.62753 -3.42653 0
M  V30 8576 H 1090.31 -7.45488 -4.45578 0
M  V30 8577 H 1090.58 -5.86232 -3.67314 0
M  V30 8578 H 1089.72 -7.84508 -2.24507 0
M  V30 8579 H 1087.06 -5.73556 -0.888715 0
M  V30 8580 H 1086.78 -5.9096 -3.88638 0
M  V30 8581 H 1085.79 -6.66053 -2.58894 0
M  V30 8582 H 1087.62 -8.16339 -3.92049 0
M  V30 8583 H 1087.7 -4.33052 -4.24913 0
M  V30 8584 H 1087.59 -1.9103 -4.71577 0
M  V30 8585 H 1087.21 0.521221 -1.95056 0
M  V30 8586 H 1087.4 0.286429 -3.70695 0
M  V30 8587 P 1085.75 -8.7635 -1.60911 0
M  V30 8588 O 1085.53 -10.1388 -1.11561 0
M  V30 8589 O 1084.96 -8.36503 -2.79617 0
M  V30 8590 O 1085.5 -7.71806 -0.42951 0
M  V30 8591 C 1086.44 -7.67148 0.673689 0
M  V30 8592 C 1085.71 -7.33374 1.95559 0
M  V30 8593 O 1085.5 -5.88721 2.00726 0
M  V30 8594 C 1084.31 -7.92526 2.10483 0
M  V30 8595 O 1083.92 -8.02971 3.47653 0
M  V30 8596 C 1083.43 -6.89602 1.41652 0
M  V30 8597 C 1084.14 -5.59201 1.75185 0
M  V30 8598 N 1084.09 -4.58235 0.662552 0
M  V30 8599 H 1086.93 -8.65116 0.777161 0
M  V30 8600 H 1087.2 -6.90173 0.474152 0
M  V30 8601 H 1086.34 -7.66548 2.79458 0
M  V30 8602 P 1082.37 -8.03563 3.84925 0
M  V30 8603 O 1082.15 -8.85821 5.0569 0
M  V30 8604 O 1081.58 -8.41101 2.65469 0
M  V30 8605 O 1082.12 -6.4965 4.18908 0
M  V30 8606 C 1083.06 -5.81037 5.05421 0
M  V30 8607 C 1082.33 -4.78366 5.89277 0
M  V30 8608 O 1082.12 -3.58302 5.08433 0
M  V30 8609 C 1080.93 -5.17448 6.36119 0
M  V30 8610 O 1080.54 -4.45271 7.53232 0
M  V30 8611 C 1080.05 -4.74639 5.19936 0
M  V30 8612 C 1080.76 -3.49432 4.70418 0
M  V30 8613 N 1080.71 -3.31776 3.22945 0
M  V30 8614 H 1083.55 -6.54213 5.71376 0
M  V30 8615 H 1083.82 -5.30492 4.44033 0
M  V30 8616 H 1082.96 -4.55889 6.76652 0
M  V30 8617 P 1078.99 -4.23843 7.83734 0
M  V30 8618 O 1078.77 -4.19407 9.29784 0
M  V30 8619 O 1078.2 -5.24426 7.09156 0
M  V30 8620 O 1078.74 -2.79386 7.20852 0
M  V30 8621 C 1079.68 -1.7299 7.50419 0
M  V30 8622 C 1078.95 -0.41401 7.5797 0
M  V30 8623 O 1078.74 0.089787 6.22035 0
M  V30 8624 C 1077.55 -0.447224 8.1878 0
M  V30 8625 O 1077.16 0.825159 8.71201 0
M  V30 8626 C 1076.67 -0.783801 6.99623 0
M  V30 8627 C 1077.38 -0.0619192 5.85967 0
M  V30 8628 N 1077.33 -0.7859 4.56281 0
M  V30 8629 C 1077.18 -0.0359258 3.39981 0
M  V30 8630 O 1077.09 1.19723 3.49038 0
M  V30 8631 N 1077.13 -0.869151 2.14025 0
M  V30 8632 C 1077.23 -2.01207 2.14363 0
M  V30 8633 N 1077.18 -2.58978 0.954287 0
M  V30 8634 C 1077.38 -2.80817 3.32215 0
M  V30 8635 C 1077.43 -2.13785 4.50884 0
M  V30 8636 H 1080.17 -1.93401 8.46693 0
M  V30 8637 H 1080.44 -1.68181 6.71046 0
M  V30 8638 H 1079.58 0.289076 8.15488 0
M  V30 8639 H 1076.92 0.927166 5.72947 0
M  V30 8640 H 1076.64 -1.87 6.82132 0
M  V30 8641 H 1075.65 -0.404009 7.13457 0
M  V30 8642 H 1077.48 -1.20599 8.97534 0
M  V30 8643 H 1077.56 -2.70295 5.43162 0
M  V30 8644 H 1077.45 -3.89465 3.27406 0
M  V30 8645 H 1077.07 -2.01616 0.107046 0
M  V30 8646 H 1077.26 -3.61403 0.873101 0
M  V30 8647 P 1075.61 1.17771 8.83182 0
M  V30 8648 O 1075.39 2.07206 9.98732 0
M  V30 8649 O 1074.82 -0.0743816 8.81969 0
M  V30 8650 O 1075.36 1.97652 7.47304 0
M  V30 8651 C 1076.3 3.01133 7.08783 0
M  V30 8652 C 1075.57 4.12613 6.37049 0
M  V30 8653 O 1075.36 3.72827 4.97879 0
M  V30 8654 C 1074.17 4.45085 6.88694 0
M  V30 8655 O 1073.78 5.7877 6.5624 0
M  V30 8656 C 1073.29 3.47817 6.12078 0
M  V30 8657 C 1074 3.39414 4.77697 0
M  V30 8658 N 1073.95 2.04199 4.15538 0
M  V30 8659 H 1076.79 3.41248 7.98759 0
M  V30 8660 H 1077.06 2.57728 6.42 0
M  V30 8661 H 1076.2 5.02657 6.42673 0
M  V30 8662 H 1073.54 4.11708 4.08956 0
M  V30 8663 H 1073.26 2.49626 6.61679 0
M  V30 8664 H 1072.27 3.8662 6.00862 0
M  V30 8665 H 1074.1 4.29991 7.97006 0
M  V30 8666 P 1072.23 6.144 6.45285 0
M  V30 8667 O 1072.01 7.54673 6.86199 0
M  V30 8668 O 1071.44 5.12391 7.179 0
M  V30 8669 O 1071.98 5.99158 4.88404 0
M  V30 8670 C 1072.92 6.60234 3.96415 0
M  V30 8671 C 1072.19 7.08259 2.72856 0
M  V30 8672 O 1071.98 5.9427 1.83651 0
M  V30 8673 C 1070.79 7.64886 2.9555 0
M  V30 8674 O 1070.4 8.53963 1.90717 0
M  V30 8675 C 1069.91 6.4116 2.90739 0
M  V30 8676 C 1070.62 5.55375 1.86963 0
M  V30 8677 N 1070.57 4.09448 2.16152 0
M  V30 8678 H 1073.41 7.45574 4.45629 0
M  V30 8679 H 1073.68 5.85864 3.679 0
M  V30 8680 H 1072.82 7.84412 2.24479 0
M  V30 8681 H 1070.16 5.73457 0.888562 0
M  V30 8682 H 1069.88 5.90877 3.88583 0
M  V30 8683 H 1068.89 6.6596 2.58858 0
M  V30 8684 H 1070.72 8.16339 3.92049 0
M  V30 8685 P 1068.85 8.7635 1.60911 0
M  V30 8686 O 1068.63 10.1388 1.11561 0
M  V30 8687 O 1068.06 8.36503 2.79617 0
M  V30 8688 O 1068.6 7.71806 0.42951 0
M  V30 8689 C 1069.54 7.67148 -0.673689 0
M  V30 8690 C 1068.81 7.33374 -1.95559 0
M  V30 8691 O 1068.6 5.88721 -2.00726 0
M  V30 8692 C 1067.41 7.92526 -2.10483 0
M  V30 8693 O 1067.02 8.02971 -3.47653 0
M  V30 8694 C 1066.53 6.89602 -1.41652 0
M  V30 8695 C 1067.24 5.59201 -1.75185 0
M  V30 8696 N 1067.19 4.58235 -0.662552 0
M  V30 8697 H 1070.03 8.65116 -0.777161 0
M  V30 8698 H 1070.3 6.90173 -0.474152 0
M  V30 8699 H 1069.44 7.66548 -2.79458 0
M  V30 8700 P 1065.47 8.03563 -3.84925 0
M  V30 8701 O 1065.25 8.85821 -5.0569 0
M  V30 8702 O 1064.68 8.41101 -2.65469 0
M  V30 8703 O 1065.22 6.4965 -4.18908 0
M  V30 8704 C 1066.16 5.81037 -5.05421 0
M  V30 8705 C 1065.43 4.78366 -5.89277 0
M  V30 8706 O 1065.22 3.58302 -5.08433 0
M  V30 8707 C 1064.03 5.17448 -6.36119 0
M  V30 8708 O 1063.64 4.45271 -7.53232 0
M  V30 8709 C 1063.15 4.74639 -5.19936 0
M  V30 8710 C 1063.86 3.49432 -4.70418 0
M  V30 8711 N 1063.81 3.31776 -3.22945 0
M  V30 8712 H 1066.65 6.54213 -5.71376 0
M  V30 8713 H 1066.92 5.30492 -4.44033 0
M  V30 8714 H 1066.06 4.55889 -6.76652 0
M  V30 8715 P 1062.09 4.23843 -7.83734 0
M  V30 8716 O 1061.87 4.19407 -9.29784 0
M  V30 8717 O 1061.3 5.24426 -7.09156 0
M  V30 8718 O 1061.84 2.79386 -7.20852 0
M  V30 8719 C 1062.78 1.7299 -7.50419 0
M  V30 8720 C 1062.05 0.41401 -7.5797 0
M  V30 8721 O 1061.84 -0.089787 -6.22035 0
M  V30 8722 C 1060.65 0.447224 -8.1878 0
M  V30 8723 O 1060.26 -0.825159 -8.71201 0
M  V30 8724 C 1059.77 0.783801 -6.99623 0
M  V30 8725 C 1060.48 0.0619192 -5.85967 0
M  V30 8726 N 1060.43 0.7859 -4.56281 0
M  V30 8727 C 1060.28 0.0359258 -3.39981 0
M  V30 8728 O 1060.19 -1.19723 -3.49038 0
M  V30 8729 N 1060.23 0.869151 -2.14025 0
M  V30 8730 C 1060.33 2.01207 -2.14363 0
M  V30 8731 N 1060.28 2.58978 -0.954287 0
M  V30 8732 C 1060.48 2.80817 -3.32215 0
M  V30 8733 C 1060.53 2.13785 -4.50884 0
M  V30 8734 H 1063.27 1.93401 -8.46693 0
M  V30 8735 H 1063.54 1.68181 -6.71046 0
M  V30 8736 H 1062.68 -0.289076 -8.15488 0
M  V30 8737 H 1060.02 -0.927166 -5.72947 0
M  V30 8738 H 1059.74 1.87 -6.82132 0
M  V30 8739 H 1058.75 0.404009 -7.13457 0
M  V30 8740 H 1060.58 1.20599 -8.97534 0
M  V30 8741 H 1060.66 2.70295 -5.43162 0
M  V30 8742 H 1060.55 3.89465 -3.27406 0
M  V30 8743 H 1060.17 2.01616 -0.107046 0
M  V30 8744 H 1060.36 3.61403 -0.873101 0
M  V30 8745 P 1058.71 -1.17771 -8.83182 0
M  V30 8746 O 1058.49 -2.07206 -9.98732 0
M  V30 8747 O 1057.92 0.0743816 -8.81969 0
M  V30 8748 O 1058.46 -1.97652 -7.47304 0
M  V30 8749 C 1059.4 -3.01133 -7.08783 0
M  V30 8750 C 1058.67 -4.12613 -6.37049 0
M  V30 8751 O 1058.46 -3.72827 -4.97879 0
M  V30 8752 C 1057.27 -4.45085 -6.88694 0
M  V30 8753 O 1056.88 -5.7877 -6.5624 0
M  V30 8754 C 1056.39 -3.47817 -6.12078 0
M  V30 8755 C 1057.1 -3.39414 -4.77697 0
M  V30 8756 N 1057.05 -2.04615 -4.15333 0
M  V30 8757 C 1057.13 -0.803897 -4.75249 0
M  V30 8758 N 1057.05 0.197615 -3.91502 0
M  V30 8759 C 1056.91 -0.413002 -2.66823 0
M  V30 8760 C 1056.78 0.157221 -1.38007 0
M  V30 8761 N 1056.66 -0.833136 -0.390236 0
M  V30 8762 C 1056.66 -2.19402 -0.623885 0
M  V30 8763 N 1056.53 -2.97622 0.449677 0
M  V30 8764 N 1056.79 -2.73005 -1.83601 0
M  V30 8765 C 1056.91 -1.78786 -2.80935 0
M  V30 8766 H 1059.89 -3.41248 -7.98759 0
M  V30 8767 H 1060.16 -2.5837 -6.41742 0
M  V30 8768 H 1059.3 -5.02657 -6.42673 0
M  V30 8769 P 1055.33 -6.144 -6.45285 0
M  V30 8770 O 1055.11 -7.54673 -6.86199 0
M  V30 8771 O 1054.54 -5.12391 -7.179 0
M  V30 8772 O 1055.08 -5.99158 -4.88404 0
M  V30 8773 C 1056.02 -6.60234 -3.96415 0
M  V30 8774 C 1055.29 -7.08259 -2.72856 0
M  V30 8775 O 1055.08 -5.9427 -1.83651 0
M  V30 8776 C 1053.89 -7.64886 -2.9555 0
M  V30 8777 O 1053.5 -8.53963 -1.90717 0
M  V30 8778 C 1053.01 -6.4116 -2.90739 0
M  V30 8779 C 1053.72 -5.55375 -1.86963 0
M  V30 8780 N 1053.67 -4.09664 -2.15742 0
M  V30 8781 H 1056.51 -7.45574 -4.45629 0
M  V30 8782 H 1056.78 -5.86232 -3.67314 0
M  V30 8783 H 1055.92 -7.84412 -2.24479 0
M  V30 8784 P 1051.95 -8.7635 -1.60911 0
M  V30 8785 O 1051.73 -10.1388 -1.11561 0
M  V30 8786 O 1051.16 -8.36503 -2.79617 0
M  V30 8787 O 1051.7 -7.71806 -0.42951 0
M  V30 8788 C 1052.64 -7.67148 0.673689 0
M  V30 8789 C 1051.91 -7.33374 1.95559 0
M  V30 8790 O 1051.7 -5.88721 2.00726 0
M  V30 8791 C 1050.51 -7.92526 2.10483 0
M  V30 8792 O 1050.12 -8.02971 3.47653 0
M  V30 8793 C 1049.63 -6.89602 1.41652 0
M  V30 8794 C 1050.34 -5.59201 1.75185 0
M  V30 8795 N 1050.29 -4.58301 0.657969 0
M  V30 8796 H 1053.13 -8.65116 0.777161 0
M  V30 8797 H 1053.4 -6.9022 0.46725 0
M  V30 8798 H 1052.54 -7.66548 2.79458 0
M  V30 8799 H 1049.88 -5.16165 2.65183 0
M  V30 8800 H 1049.6 -7.06433 0.329384 0
M  V30 8801 H 1048.61 -6.90926 1.82021 0
M  V30 8802 H 1050.44 -8.90873 1.62657 0
M  V30 8803 P 1048.57 -8.03563 3.84925 0
M  V30 8804 O 1048.35 -8.85821 5.0569 0
M  V30 8805 O 1047.78 -8.41101 2.65469 0
M  V30 8806 O 1048.32 -6.4965 4.18908 0
M  V30 8807 C 1049.26 -5.81037 5.05421 0
M  V30 8808 C 1048.53 -4.78366 5.89277 0
M  V30 8809 O 1048.32 -3.58302 5.08433 0
M  V30 8810 C 1047.13 -5.17448 6.36119 0
M  V30 8811 O 1046.74 -4.45271 7.53232 0
M  V30 8812 C 1046.25 -4.74639 5.19936 0
M  V30 8813 C 1046.96 -3.49432 4.70418 0
M  V30 8814 N 1046.91 -3.31776 3.22945 0
M  V30 8815 H 1049.75 -6.54213 5.71376 0
M  V30 8816 H 1050.02 -5.30492 4.44033 0
M  V30 8817 H 1049.16 -4.55889 6.76652 0
M  V30 8818 P 1045.19 -4.23843 7.83734 0
M  V30 8819 O 1044.97 -4.19407 9.29784 0
M  V30 8820 O 1044.4 -5.24426 7.09156 0
M  V30 8821 O 1044.94 -2.7935 7.20758 0
M  V30 8822 C 1045.88 -1.7299 7.50419 0
M  V30 8823 C 1045.15 -0.406376 7.57911 0
M  V30 8824 O 1044.94 0.0897726 6.21935 0
M  V30 8825 C 1043.75 -0.447224 8.1878 0
M  V30 8826 O 1043.36 0.825065 8.71101 0
M  V30 8827 C 1042.87 -0.783801 6.99623 0
M  V30 8828 C 1043.58 -0.0619192 5.85967 0
M  V30 8829 N 1043.53 -0.7859 4.56281 0
M  V30 8830 H 1046.37 -1.93423 8.4679 0
M  V30 8831 H 1046.64 -1.68181 6.71046 0
M  V30 8832 H 1045.78 0.289041 8.15388 0
M  V30 8833 P 1041.81 1.17771 8.83182 0
M  V30 8834 O 1041.59 2.07206 9.98732 0
M  V30 8835 O 1041.02 -0.0743816 8.81969 0
M  V30 8836 O 1041.56 1.97652 7.47304 0
M  V30 8837 C 1042.5 3.01133 7.08783 0
M  V30 8838 C 1041.77 4.12613 6.37049 0
M  V30 8839 O 1041.56 3.72827 4.97879 0
M  V30 8840 C 1040.37 4.45085 6.88694 0
M  V30 8841 O 1039.98 5.7877 6.5624 0
M  V30 8842 C 1039.49 3.47817 6.12078 0
M  V30 8843 C 1040.2 3.39414 4.77697 0
M  V30 8844 N 1040.15 2.04615 4.15333 0
M  V30 8845 H 1042.99 3.41248 7.98759 0
M  V30 8846 H 1043.26 2.5837 6.41742 0
M  V30 8847 H 1042.4 5.02657 6.42673 0
M  V30 8848 P 1038.43 6.144 6.45285 0
M  V30 8849 O 1038.21 7.54673 6.86199 0
M  V30 8850 O 1037.64 5.12391 7.179 0
M  V30 8851 O 1038.18 5.99158 4.88404 0
M  V30 8852 C 1039.12 6.60234 3.96415 0
M  V30 8853 C 1038.39 7.08259 2.72856 0
M  V30 8854 O 1038.18 5.9427 1.83651 0
M  V30 8855 C 1036.99 7.64886 2.9555 0
M  V30 8856 O 1036.6 8.53963 1.90717 0
M  V30 8857 C 1036.11 6.4116 2.90739 0
M  V30 8858 C 1036.82 5.55375 1.86963 0
M  V30 8859 N 1036.77 4.09664 2.15742 0
M  V30 8860 H 1039.61 7.45574 4.45629 0
M  V30 8861 H 1039.88 5.86232 3.67314 0
M  V30 8862 H 1039.02 7.84412 2.24479 0
M  V30 8863 P 1035.05 8.7635 1.60911 0
M  V30 8864 O 1034.83 10.1388 1.11561 0
M  V30 8865 O 1034.26 8.36503 2.79617 0
M  V30 8866 O 1034.8 7.71806 0.42951 0
M  V30 8867 C 1035.74 7.67148 -0.673689 0
M  V30 8868 C 1035.01 7.33374 -1.95559 0
M  V30 8869 O 1034.8 5.88721 -2.00726 0
M  V30 8870 C 1033.61 7.92526 -2.10483 0
M  V30 8871 O 1033.22 8.02971 -3.47653 0
M  V30 8872 C 1032.73 6.89602 -1.41652 0
M  V30 8873 C 1033.44 5.59201 -1.75185 0
M  V30 8874 N 1033.39 4.58235 -0.662552 0
M  V30 8875 C 1033.47 4.7683 0.704049 0
M  V30 8876 N 1033.39 3.66233 1.39775 0
M  V30 8877 C 1033.25 2.66526 0.431739 0
M  V30 8878 C 1033.12 1.26394 0.575992 0
M  V30 8879 N 1033 0.62859 -0.67177 0
M  V30 8880 C 1033 1.27134 -1.89385 0
M  V30 8881 N 1032.87 0.492035 -2.96951 0
M  V30 8882 N 1033.13 2.58978 -2.02907 0
M  V30 8883 C 1033.25 3.22433 -0.832218 0
M  V30 8884 H 1036.23 8.65116 -0.777161 0
M  V30 8885 H 1036.5 6.90173 -0.474152 0
M  V30 8886 H 1035.64 7.66548 -2.79458 0
M  V30 8887 P 1031.67 8.03563 -3.84925 0
M  V30 8888 O 1031.45 8.85821 -5.0569 0
M  V30 8889 O 1030.88 8.41101 -2.65469 0
M  V30 8890 O 1031.42 6.4965 -4.18908 0
M  V30 8891 C 1032.36 5.81037 -5.05421 0
M  V30 8892 C 1031.63 4.78366 -5.89277 0
M  V30 8893 O 1031.42 3.58302 -5.08433 0
M  V30 8894 C 1030.23 5.17448 -6.36119 0
M  V30 8895 O 1029.84 4.45271 -7.53232 0
M  V30 8896 C 1029.35 4.74639 -5.19936 0
M  V30 8897 C 1030.06 3.49432 -4.70418 0
M  V30 8898 N 1030.01 3.31776 -3.22945 0
M  V30 8899 H 1032.85 6.54213 -5.71376 0
M  V30 8900 H 1033.12 5.30492 -4.44033 0
M  V30 8901 H 1032.26 4.55889 -6.76652 0
M  V30 8902 P 1028.29 4.23843 -7.83734 0
M  V30 8903 O 1028.07 4.19407 -9.29784 0
M  V30 8904 O 1027.5 5.24426 -7.09156 0
M  V30 8905 O 1028.04 2.79386 -7.20852 0
M  V30 8906 C 1028.98 1.7299 -7.50419 0
M  V30 8907 C 1028.25 0.41401 -7.5797 0
M  V30 8908 O 1028.04 -0.089787 -6.22035 0
M  V30 8909 C 1026.85 0.447224 -8.1878 0
M  V30 8910 O 1026.46 -0.825159 -8.71201 0
M  V30 8911 C 1025.97 0.783801 -6.99623 0
M  V30 8912 C 1026.68 0.0619192 -5.85967 0
M  V30 8913 N 1026.63 0.7859 -4.56281 0
M  V30 8914 C 1026.48 0.0359258 -3.39981 0
M  V30 8915 O 1026.39 -1.19723 -3.49038 0
M  V30 8916 N 1026.43 0.869151 -2.14025 0
M  V30 8917 C 1026.53 2.01207 -2.14363 0
M  V30 8918 N 1026.48 2.58978 -0.954287 0
M  V30 8919 C 1026.68 2.80817 -3.32215 0
M  V30 8920 C 1026.73 2.13785 -4.50884 0
M  V30 8921 H 1029.47 1.93401 -8.46693 0
M  V30 8922 H 1029.74 1.68181 -6.71046 0
M  V30 8923 H 1028.88 -0.289076 -8.15488 0
M  V30 8924 H 1026.22 -0.927166 -5.72947 0
M  V30 8925 H 1025.94 1.87 -6.82132 0
M  V30 8926 H 1024.95 0.404009 -7.13457 0
M  V30 8927 H 1026.78 1.20599 -8.97534 0
M  V30 8928 H 1026.86 2.70295 -5.43162 0
M  V30 8929 H 1026.75 3.89465 -3.27406 0
M  V30 8930 H 1026.37 2.01616 -0.107046 0
M  V30 8931 H 1026.56 3.61403 -0.873101 0
M  V30 8932 P 1024.91 -1.17771 -8.83182 0
M  V30 8933 O 1024.69 -2.07206 -9.98732 0
M  V30 8934 O 1024.12 0.0743816 -8.81969 0
M  V30 8935 O 1024.66 -1.97652 -7.47304 0
M  V30 8936 C 1025.6 -3.01133 -7.08783 0
M  V30 8937 C 1024.87 -4.12613 -6.37049 0
M  V30 8938 O 1024.66 -3.72827 -4.97879 0
M  V30 8939 C 1023.47 -4.45085 -6.88694 0
M  V30 8940 O 1023.08 -5.7877 -6.5624 0
M  V30 8941 C 1022.59 -3.47817 -6.12078 0
M  V30 8942 C 1023.3 -3.39414 -4.77697 0
M  V30 8943 N 1023.25 -2.04615 -4.15333 0
M  V30 8944 H 1026.09 -3.41248 -7.98759 0
M  V30 8945 H 1026.36 -2.5837 -6.41742 0
M  V30 8946 H 1025.5 -5.02657 -6.42673 0
M  V30 8947 P 1021.53 -6.144 -6.45285 0
M  V30 8948 O 1021.31 -7.54673 -6.86199 0
M  V30 8949 O 1020.74 -5.12391 -7.179 0
M  V30 8950 O 1021.28 -5.99158 -4.88404 0
M  V30 8951 C 1022.22 -6.60234 -3.96415 0
M  V30 8952 C 1021.49 -7.08259 -2.72856 0
M  V30 8953 O 1021.28 -5.9427 -1.83651 0
M  V30 8954 C 1020.09 -7.64886 -2.9555 0
M  V30 8955 O 1019.7 -8.53963 -1.90717 0
M  V30 8956 C 1019.21 -6.4116 -2.90739 0
M  V30 8957 C 1019.92 -5.55375 -1.86963 0
M  V30 8958 N 1019.87 -4.09448 -2.16152 0
M  V30 8959 H 1022.71 -7.45574 -4.45629 0
M  V30 8960 H 1022.98 -5.85864 -3.679 0
M  V30 8961 H 1022.12 -7.84412 -2.24479 0
M  V30 8962 H 1019.46 -5.73457 -0.888562 0
M  V30 8963 H 1019.18 -5.90877 -3.88583 0
M  V30 8964 H 1018.19 -6.6596 -2.58858 0
M  V30 8965 H 1020.02 -8.16339 -3.92049 0
M  V30 8966 P 1018.15 -8.7635 -1.60911 0
M  V30 8967 O 1017.93 -10.1388 -1.11561 0
M  V30 8968 O 1017.36 -8.36503 -2.79617 0
M  V30 8969 O 1017.9 -7.71806 -0.42951 0
M  V30 8970 C 1018.84 -7.67148 0.673689 0
M  V30 8971 C 1018.11 -7.33374 1.95559 0
M  V30 8972 O 1017.9 -5.88721 2.00726 0
M  V30 8973 C 1016.71 -7.92526 2.10483 0
M  V30 8974 O 1016.32 -8.02971 3.47653 0
M  V30 8975 C 1015.83 -6.89602 1.41652 0
M  V30 8976 C 1016.54 -5.59201 1.75185 0
M  V30 8977 N 1016.49 -4.58235 0.662552 0
M  V30 8978 H 1019.33 -8.65116 0.777161 0
M  V30 8979 H 1019.61 -6.90173 0.474152 0
M  V30 8980 H 1018.74 -7.66548 2.79458 0
M  V30 8981 P 1014.77 -8.03563 3.84925 0
M  V30 8982 O 1014.55 -8.85821 5.0569 0
M  V30 8983 O 1013.98 -8.41101 2.65469 0
M  V30 8984 O 1014.52 -6.4965 4.18908 0
M  V30 8985 C 1015.46 -5.81037 5.05421 0
M  V30 8986 C 1014.73 -4.78366 5.89277 0
M  V30 8987 O 1014.52 -3.58302 5.08433 0
M  V30 8988 C 1013.33 -5.17448 6.36119 0
M  V30 8989 O 1012.94 -4.45271 7.53232 0
M  V30 8990 C 1012.45 -4.74639 5.19936 0
M  V30 8991 C 1013.16 -3.49432 4.70418 0
M  V30 8992 N 1013.11 -3.31776 3.22945 0
M  V30 8993 C 1013.19 -4.27147 2.23315 0
M  V30 8994 N 1013.11 -3.78447 1.02186 0
M  V30 8995 C 1012.97 -2.41001 1.21732 0
M  V30 8996 C 1012.84 -1.36111 0.27694 0
M  V30 8997 N 1012.72 -0.113683 0.912949 0
M  V30 8998 C 1012.72 0.0846396 2.27943 0
M  V30 8999 N 1012.59 1.34737 2.6916 0
M  V30 9000 N 1012.85 -0.902521 3.16379 0
M  V30 9001 C 1012.97 -2.11937 2.56849 0
M  V30 9002 H 1015.95 -6.54213 5.71376 0
M  V30 9003 H 1016.23 -5.30492 4.44033 0
M  V30 9004 H 1015.36 -4.55889 6.76652 0
M  V30 9005 P 1011.39 -4.23843 7.83734 0
M  V30 9006 O 1011.17 -4.19407 9.29784 0
M  V30 9007 O 1010.6 -5.24426 7.09156 0
M  V30 9008 O 1011.14 -2.7935 7.20758 0
M  V30 9009 C 1012.08 -1.7299 7.50419 0
M  V30 9010 C 1011.35 -0.406376 7.57911 0
M  V30 9011 O 1011.14 0.0897726 6.21935 0
M  V30 9012 C 1009.95 -0.447224 8.1878 0
M  V30 9013 O 1009.56 0.825065 8.71101 0
M  V30 9014 C 1009.07 -0.783801 6.99623 0
M  V30 9015 C 1009.78 -0.0619192 5.85967 0
M  V30 9016 N 1009.73 -0.7859 4.56281 0
M  V30 9017 H 1012.57 -1.93423 8.4679 0
M  V30 9018 H 1012.85 -1.68181 6.71046 0
M  V30 9019 H 1011.98 0.289041 8.15388 0
M  V30 9020 P 1008.01 1.17771 8.83182 0
M  V30 9021 O 1007.79 2.07206 9.98732 0
M  V30 9022 O 1007.22 -0.0743816 8.81969 0
M  V30 9023 O 1007.76 1.97678 7.474 0
M  V30 9024 C 1008.7 3.01133 7.08783 0
M  V30 9025 C 1007.97 4.1203 6.37546 0
M  V30 9026 O 1007.76 3.72887 4.9796 0
M  V30 9027 C 1006.57 4.45085 6.88694 0
M  V30 9028 O 1006.18 5.78836 6.56315 0
M  V30 9029 C 1005.69 3.47817 6.12078 0
M  V30 9030 C 1006.4 3.39414 4.77697 0
M  V30 9031 N 1006.35 2.04615 4.15333 0
M  V30 9032 C 1006.2 1.96929 2.77162 0
M  V30 9033 O 1006.11 3.02017 2.12006 0
M  V30 9034 N 1006.15 0.55485 2.24237 0
M  V30 9035 C 1006.25 -0.367808 2.9169 0
M  V30 9036 N 1006.2 -1.53426 2.29427 0
M  V30 9037 C 1006.4 -0.319148 4.33828 0
M  V30 9038 C 1006.45 0.920672 4.90433 0
M  V30 9039 H 1009.19 3.41209 7.98667 0
M  V30 9040 H 1009.46 2.5837 6.41742 0
M  V30 9041 H 1008.6 5.02718 6.42752 0
M  V30 9042 H 1005.94 4.11779 4.09026 0
M  V30 9043 H 1005.66 2.49661 6.61772 0
M  V30 9044 H 1004.67 3.86674 6.00946 0
M  V30 9045 H 1006.51 4.29991 7.97006 0
M  V30 9046 H 1006.58 1.00589 5.98303 0
M  V30 9047 H 1006.48 -1.22639 4.93799 0
M  V30 9048 H 1006.09 -1.56819 1.27167 0
M  V30 9049 H 1006.28 -2.41062 2.83063 0
M  V30 9050 P 1004.63 6.144 6.45285 0
M  V30 9051 O 1004.41 7.54673 6.86199 0
M  V30 9052 O 1003.84 5.12391 7.179 0
M  V30 9053 O 1004.38 5.99158 4.88404 0
M  V30 9054 C 1005.32 6.60234 3.96415 0
M  V30 9055 C 1004.59 7.08259 2.72856 0
M  V30 9056 O 1004.38 5.9427 1.83651 0
M  V30 9057 C 1003.19 7.64886 2.9555 0
M  V30 9058 O 1002.8 8.53963 1.90717 0
M  V30 9059 C 1002.31 6.4116 2.90739 0
M  V30 9060 C 1003.02 5.55375 1.86963 0
M  V30 9061 N 1002.97 4.09448 2.16152 0
M  V30 9062 H 1005.81 7.45574 4.45629 0
M  V30 9063 H 1006.09 5.85864 3.679 0
M  V30 9064 H 1005.22 7.84412 2.24479 0
M  V30 9065 H 1002.56 5.73457 0.888562 0
M  V30 9066 H 1002.28 5.90877 3.88583 0
M  V30 9067 H 1001.29 6.6596 2.58858 0
M  V30 9068 H 1003.13 8.16339 3.92049 0
M  V30 9069 P 1001.25 8.7635 1.60911 0
M  V30 9070 O 1001.03 10.1388 1.11561 0
M  V30 9071 O 1000.46 8.36503 2.79617 0
M  V30 9072 O 1001 7.71906 0.429565 0
M  V30 9073 C 1001.94 7.67148 -0.673689 0
M  V30 9074 C 1001.21 7.33666 -1.94851 0
M  V30 9075 O 1001 5.88816 -2.00759 0
M  V30 9076 C 999.814 7.92526 -2.10483 0
M  V30 9077 O 999.424 8.03063 -3.47693 0
M  V30 9078 C 998.934 6.89602 -1.41652 0
M  V30 9079 C 999.644 5.59201 -1.75185 0
M  V30 9080 N 999.594 4.58235 -0.662552 0
M  V30 9081 C 999.444 3.24451 -1.01643 0
M  V30 9082 O 999.354 2.94958 -2.21722 0
M  V30 9083 N 999.394 2.30408 0.165238 0
M  V30 9084 C 999.494 2.66048 1.25118 0
M  V30 9085 N 999.444 1.70787 2.16813 0
M  V30 9086 C 999.644 4.02732 1.64413 0
M  V30 9087 C 999.694 4.9488 0.63991 0
M  V30 9088 H 1002.43 8.65017 -0.777072 0
M  V30 9089 H 1002.7 6.90173 -0.474152 0
M  V30 9090 H 1001.84 7.66642 -2.79492 0
M  V30 9091 H 999.182 5.16254 -2.65229 0
M  V30 9092 H 998.902 7.06532 -0.329431 0
M  V30 9093 H 997.911 6.91023 -1.82047 0
M  V30 9094 H 999.745 8.90873 -1.62657 0
M  V30 9095 H 999.817 6.00104 0.892197 0
M  V30 9096 H 999.715 4.31733 2.69229 0
M  V30 9097 H 999.327 0.724835 1.8844 0
M  V30 9098 H 999.523 1.94716 3.16734 0
M  V30 9099 P 997.874 8.03563 -3.84925 0
M  V30 9100 O 997.654 8.85821 -5.0569 0
M  V30 9101 O 997.084 8.41101 -2.65469 0
M  V30 9102 O 997.624 6.4965 -4.18908 0
M  V30 9103 C 998.564 5.81037 -5.05421 0
M  V30 9104 C 997.834 4.78366 -5.89277 0
M  V30 9105 O 997.624 3.58302 -5.08433 0
M  V30 9106 C 996.434 5.17448 -6.36119 0
M  V30 9107 O 996.044 4.45271 -7.53232 0
M  V30 9108 C 995.554 4.74639 -5.19936 0
M  V30 9109 C 996.264 3.49432 -4.70418 0
M  V30 9110 N 996.214 3.31776 -3.22945 0
M  V30 9111 C 996.294 4.27147 -2.23315 0
M  V30 9112 N 996.214 3.78447 -1.02186 0
M  V30 9113 C 996.074 2.41001 -1.21732 0
M  V30 9114 C 995.944 1.36111 -0.27694 0
M  V30 9115 N 995.824 0.113683 -0.912949 0
M  V30 9116 C 995.824 -0.0846396 -2.27943 0
M  V30 9117 N 995.694 -1.34737 -2.6916 0
M  V30 9118 N 995.954 0.902521 -3.16379 0
M  V30 9119 C 996.074 2.11937 -2.56849 0
M  V30 9120 H 999.053 6.54213 -5.71376 0
M  V30 9121 H 999.325 5.30492 -4.44033 0
M  V30 9122 H 998.457 4.55889 -6.76652 0
M  V30 9123 P 994.494 4.23843 -7.83734 0
M  V30 9124 O 994.274 4.19407 -9.29784 0
M  V30 9125 O 993.704 5.24426 -7.09156 0
M  V30 9126 O 994.244 2.7935 -7.20758 0
M  V30 9127 C 995.184 1.7299 -7.50419 0
M  V30 9128 C 994.454 0.406376 -7.57911 0
M  V30 9129 O 994.244 -0.0897726 -6.21935 0
M  V30 9130 C 993.054 0.447224 -8.1878 0
M  V30 9131 O 992.664 -0.825065 -8.71101 0
M  V30 9132 C 992.174 0.783801 -6.99623 0
M  V30 9133 C 992.884 0.0619192 -5.85967 0
M  V30 9134 N 992.834 0.7859 -4.56281 0
M  V30 9135 H 995.673 1.93423 -8.4679 0
M  V30 9136 H 995.945 1.68181 -6.71046 0
M  V30 9137 H 995.077 -0.289041 -8.15388 0
M  V30 9138 P 991.114 -1.17771 -8.83182 0
M  V30 9139 O 990.894 -2.07206 -9.98732 0
M  V30 9140 O 990.324 0.0743816 -8.81969 0
M  V30 9141 O 990.864 -1.97678 -7.474 0
M  V30 9142 C 991.804 -3.01133 -7.08783 0
M  V30 9143 C 991.074 -4.1203 -6.37546 0
M  V30 9144 O 990.864 -3.72887 -4.9796 0
M  V30 9145 C 989.674 -4.45085 -6.88694 0
M  V30 9146 O 989.284 -5.78836 -6.56315 0
M  V30 9147 C 988.794 -3.47817 -6.12078 0
M  V30 9148 C 989.504 -3.39414 -4.77697 0
M  V30 9149 N 989.454 -2.04615 -4.15333 0
M  V30 9150 C 989.304 -1.96929 -2.77162 0
M  V30 9151 O 989.214 -3.02017 -2.12006 0
M  V30 9152 N 989.254 -0.55485 -2.24237 0
M  V30 9153 C 989.354 0.367808 -2.9169 0
M  V30 9154 N 989.304 1.53426 -2.29427 0
M  V30 9155 C 989.504 0.319148 -4.33828 0
M  V30 9156 C 989.554 -0.920672 -4.90433 0
M  V30 9157 H 992.294 -3.41209 -7.98667 0
M  V30 9158 H 992.564 -2.5837 -6.41742 0
M  V30 9159 H 991.697 -5.02718 -6.42752 0
M  V30 9160 H 989.042 -4.11779 -4.09026 0
M  V30 9161 H 988.762 -2.49661 -6.61772 0
M  V30 9162 H 987.771 -3.86674 -6.00946 0
M  V30 9163 H 989.605 -4.29991 -7.97006 0
M  V30 9164 H 989.677 -1.00589 -5.98303 0
M  V30 9165 H 989.575 1.22639 -4.93799 0
M  V30 9166 H 989.187 1.56819 -1.27167 0
M  V30 9167 H 989.383 2.41062 -2.83063 0
M  V30 9168 P 987.734 -6.144 -6.45285 0
M  V30 9169 O 987.514 -7.54673 -6.86199 0
M  V30 9170 O 986.944 -5.12391 -7.179 0
M  V30 9171 O 987.484 -5.99236 -4.88467 0
M  V30 9172 C 988.424 -6.60234 -3.96415 0
M  V30 9173 C 987.694 -7.08079 -2.736 0
M  V30 9174 O 987.484 -5.94365 -1.8368 0
M  V30 9175 C 986.294 -7.64886 -2.9555 0
M  V30 9176 O 985.904 -8.5406 -1.90739 0
M  V30 9177 C 985.414 -6.4116 -2.90739 0
M  V30 9178 C 986.124 -5.55375 -1.86963 0
M  V30 9179 N 986.074 -4.09664 -2.15742 0
M  V30 9180 C 985.924 -3.22231 -1.08477 0
M  V30 9181 O 985.834 -3.68951 0.0600489 0
M  V30 9182 N 985.874 -1.76692 -1.48799 0
M  V30 9183 C 985.974 -1.41695 -2.57602 0
M  V30 9184 N 985.924 -0.107296 -2.75791 0
M  V30 9185 C 986.124 -2.29178 -3.69733 0
M  V30 9186 C 986.174 -3.62753 -3.42653 0
M  V30 9187 H 988.914 -7.45488 -4.45578 0
M  V30 9188 H 989.184 -5.86232 -3.67314 0
M  V30 9189 H 988.317 -7.84508 -2.24507 0
M  V30 9190 H 985.662 -5.73556 -0.888715 0
M  V30 9191 H 985.382 -5.9096 -3.88638 0
M  V30 9192 H 984.391 -6.66053 -2.58894 0
M  V30 9193 H 986.225 -8.16339 -3.92049 0
M  V30 9194 H 986.297 -4.33052 -4.24913 0
M  V30 9195 H 986.195 -1.9103 -4.71577 0
M  V30 9196 H 985.807 0.521221 -1.95056 0
M  V30 9197 H 986.003 0.286429 -3.70695 0
M  V30 9198 P 984.354 -8.7635 -1.60911 0
M  V30 9199 O 984.134 -10.1388 -1.11561 0
M  V30 9200 O 983.564 -8.36503 -2.79617 0
M  V30 9201 O 984.104 -7.71906 -0.429565 0
M  V30 9202 C 985.044 -7.67148 0.673689 0
M  V30 9203 C 984.314 -7.33666 1.94851 0
M  V30 9204 O 984.104 -5.88816 2.00759 0
M  V30 9205 C 982.914 -7.92526 2.10483 0
M  V30 9206 O 982.524 -8.03063 3.47693 0
M  V30 9207 C 982.034 -6.89602 1.41652 0
M  V30 9208 C 982.744 -5.59201 1.75185 0
M  V30 9209 N 982.694 -4.58235 0.662552 0
M  V30 9210 C 982.544 -3.24451 1.01643 0
M  V30 9211 O 982.454 -2.94958 2.21722 0
M  V30 9212 N 982.494 -2.30408 -0.165238 0
M  V30 9213 C 982.594 -2.66048 -1.25118 0
M  V30 9214 N 982.544 -1.70787 -2.16813 0
M  V30 9215 C 982.744 -4.02732 -1.64413 0
M  V30 9216 C 982.794 -4.9488 -0.63991 0
M  V30 9217 H 985.534 -8.65017 0.777072 0
M  V30 9218 H 985.804 -6.90173 0.474152 0
M  V30 9219 H 984.937 -7.66642 2.79492 0
M  V30 9220 H 982.282 -5.16254 2.65229 0
M  V30 9221 H 982.002 -7.06532 0.329431 0
M  V30 9222 H 981.011 -6.91023 1.82047 0
M  V30 9223 H 982.845 -8.90873 1.62657 0
M  V30 9224 H 982.917 -6.00104 -0.892197 0
M  V30 9225 H 982.815 -4.31733 -2.69229 0
M  V30 9226 H 982.427 -0.724835 -1.8844 0
M  V30 9227 H 982.623 -1.94716 -3.16734 0
M  V30 9228 P 980.974 -8.03563 3.84925 0
M  V30 9229 O 980.754 -8.85821 5.0569 0
M  V30 9230 O 980.184 -8.41101 2.65469 0
M  V30 9231 O 980.724 -6.4965 4.18908 0
M  V30 9232 C 981.664 -5.81037 5.05421 0
M  V30 9233 C 980.934 -4.78366 5.89277 0
M  V30 9234 O 980.724 -3.58302 5.08433 0
M  V30 9235 C 979.534 -5.17448 6.36119 0
M  V30 9236 O 979.144 -4.45271 7.53232 0
M  V30 9237 C 978.654 -4.74639 5.19936 0
M  V30 9238 C 979.364 -3.49432 4.70418 0
M  V30 9239 N 979.314 -3.31776 3.22945 0
M  V30 9240 C 979.394 -4.27147 2.23315 0
M  V30 9241 N 979.314 -3.78447 1.02186 0
M  V30 9242 C 979.174 -2.41001 1.21732 0
M  V30 9243 C 979.044 -1.36111 0.27694 0
M  V30 9244 N 978.924 -0.113683 0.912949 0
M  V30 9245 C 978.924 0.0846396 2.27943 0
M  V30 9246 N 978.794 1.34737 2.6916 0
M  V30 9247 N 979.054 -0.902521 3.16379 0
M  V30 9248 C 979.174 -2.11937 2.56849 0
M  V30 9249 H 982.153 -6.54213 5.71376 0
M  V30 9250 H 982.425 -5.30492 4.44033 0
M  V30 9251 H 981.557 -4.55889 6.76652 0
M  V30 9252 P 977.594 -4.23843 7.83734 0
M  V30 9253 O 977.374 -4.19407 9.29784 0
M  V30 9254 O 976.804 -5.24426 7.09156 0
M  V30 9255 O 977.344 -2.7935 7.20758 0
M  V30 9256 C 978.284 -1.7299 7.50419 0
M  V30 9257 C 977.554 -0.406376 7.57911 0
M  V30 9258 O 977.344 0.0897726 6.21935 0
M  V30 9259 C 976.154 -0.447224 8.1878 0
M  V30 9260 O 975.764 0.825065 8.71101 0
M  V30 9261 C 975.274 -0.783801 6.99623 0
M  V30 9262 C 975.984 -0.0619192 5.85967 0
M  V30 9263 N 975.934 -0.7859 4.56281 0
M  V30 9264 H 978.773 -1.93423 8.4679 0
M  V30 9265 H 979.045 -1.68181 6.71046 0
M  V30 9266 H 978.177 0.289041 8.15388 0
M  V30 9267 P 974.214 1.17771 8.83182 0
M  V30 9268 O 973.994 2.07206 9.98732 0
M  V30 9269 O 973.424 -0.0743816 8.81969 0
M  V30 9270 O 973.964 1.97652 7.47304 0
M  V30 9271 C 974.904 3.01133 7.08783 0
M  V30 9272 C 974.174 4.12613 6.37049 0
M  V30 9273 O 973.964 3.72827 4.97879 0
M  V30 9274 C 972.774 4.45085 6.88694 0
M  V30 9275 O 972.384 5.7877 6.5624 0
M  V30 9276 C 971.894 3.47817 6.12078 0
M  V30 9277 C 972.604 3.39414 4.77697 0
M  V30 9278 N 972.554 2.04199 4.15538 0
M  V30 9279 H 975.393 3.41248 7.98759 0
M  V30 9280 H 975.665 2.57728 6.42 0
M  V30 9281 H 974.797 5.02657 6.42673 0
M  V30 9282 H 972.142 4.11708 4.08956 0
M  V30 9283 H 971.862 2.49626 6.61679 0
M  V30 9284 H 970.871 3.8662 6.00862 0
M  V30 9285 H 972.705 4.29991 7.97006 0
M  V30 9286 P 970.834 6.144 6.45285 0
M  V30 9287 O 970.614 7.54673 6.86199 0
M  V30 9288 O 970.044 5.12391 7.179 0
M  V30 9289 O 970.584 5.99158 4.88404 0
M  V30 9290 C 971.524 6.60234 3.96415 0
M  V30 9291 C 970.794 7.08259 2.72856 0
M  V30 9292 O 970.584 5.9427 1.83651 0
M  V30 9293 C 969.394 7.64886 2.9555 0
M  V30 9294 O 969.004 8.53963 1.90717 0
M  V30 9295 C 968.514 6.4116 2.90739 0
M  V30 9296 C 969.224 5.55375 1.86963 0
M  V30 9297 N 969.174 4.09664 2.15742 0
M  V30 9298 C 969.254 3.44381 3.37233 0
M  V30 9299 N 969.174 2.14131 3.28347 0
M  V30 9300 C 969.034 1.90247 1.91588 0
M  V30 9301 C 968.904 0.683992 1.20892 0
M  V30 9302 N 968.784 0.903396 -0.173998 0
M  V30 9303 C 968.784 2.14171 -0.784879 0
M  V30 9304 N 968.654 2.1435 -2.11317 0
M  V30 9305 N 968.914 3.28784 -0.119316 0
M  V30 9306 C 969.034 3.0977 1.22194 0
M  V30 9307 H 972.013 7.45574 4.45629 0
M  V30 9308 H 972.285 5.86232 3.67314 0
M  V30 9309 H 971.417 7.84412 2.24479 0
M  V30 9310 P 967.454 8.7635 1.60911 0
M  V30 9311 O 967.234 10.1388 1.11561 0
M  V30 9312 O 966.664 8.36503 2.79617 0
M  V30 9313 O 967.204 7.71906 0.429565 0
M  V30 9314 C 968.144 7.67148 -0.673689 0
M  V30 9315 C 967.414 7.33666 -1.94851 0
M  V30 9316 O 967.204 5.88816 -2.00759 0
M  V30 9317 C 966.014 7.92526 -2.10483 0
M  V30 9318 O 965.624 8.03063 -3.47693 0
M  V30 9319 C 965.134 6.89602 -1.41652 0
M  V30 9320 C 965.844 5.59201 -1.75185 0
M  V30 9321 N 965.794 4.58235 -0.662552 0
M  V30 9322 C 965.644 3.24451 -1.01643 0
M  V30 9323 O 965.554 2.94958 -2.21722 0
M  V30 9324 N 965.594 2.30408 0.165238 0
M  V30 9325 C 965.694 2.66048 1.25118 0
M  V30 9326 N 965.644 1.70787 2.16813 0
M  V30 9327 C 965.844 4.02732 1.64413 0
M  V30 9328 C 965.894 4.9488 0.63991 0
M  V30 9329 H 968.634 8.65017 -0.777072 0
M  V30 9330 H 968.904 6.90173 -0.474152 0
M  V30 9331 H 968.037 7.66642 -2.79492 0
M  V30 9332 H 965.382 5.16254 -2.65229 0
M  V30 9333 H 965.102 7.06532 -0.329431 0
M  V30 9334 H 964.111 6.91023 -1.82047 0
M  V30 9335 H 965.945 8.90873 -1.62657 0
M  V30 9336 H 966.017 6.00104 0.892197 0
M  V30 9337 H 965.915 4.31733 2.69229 0
M  V30 9338 H 965.527 0.724835 1.8844 0
M  V30 9339 H 965.723 1.94716 3.16734 0
M  V30 9340 P 964.074 8.03563 -3.84925 0
M  V30 9341 O 963.854 8.85821 -5.0569 0
M  V30 9342 O 963.284 8.41101 -2.65469 0
M  V30 9343 O 963.824 6.49734 -4.18962 0
M  V30 9344 C 964.764 5.81037 -5.05421 0
M  V30 9345 C 964.034 4.79018 -5.88876 0
M  V30 9346 O 963.824 3.58359 -5.08515 0
M  V30 9347 C 962.634 5.17448 -6.36119 0
M  V30 9348 O 962.244 4.45322 -7.53318 0
M  V30 9349 C 961.754 4.74639 -5.19936 0
M  V30 9350 C 962.464 3.49432 -4.70418 0
M  V30 9351 N 962.414 3.31776 -3.22945 0
M  V30 9352 C 962.264 2.02742 -2.72939 0
M  V30 9353 O 962.174 1.08301 -3.52749 0
M  V30 9354 N 962.214 1.96117 -1.22063 0
M  V30 9355 C 962.314 2.8878 -0.551566 0
M  V30 9356 N 962.264 2.65609 0.750198 0
M  V30 9357 C 962.464 4.22457 -1.03707 0
M  V30 9358 C 962.514 4.37979 -2.39113 0
M  V30 9359 H 965.254 6.54138 -5.7131 0
M  V30 9360 H 965.524 5.30492 -4.44033 0
M  V30 9361 H 964.657 4.55945 -6.76735 0
M  V30 9362 H 962.002 2.6176 -5.18021 0
M  V30 9363 H 961.722 5.52233 -4.41941 0
M  V30 9364 H 960.731 4.52045 -5.53452 0
M  V30 9365 H 962.565 6.25124 -6.55234 0
M  V30 9366 H 962.637 5.37936 -2.80552 0
M  V30 9367 H 962.535 5.07528 -0.359553 0
M  V30 9368 H 962.147 1.69403 1.09847 0
M  V30 9369 H 962.343 3.43701 1.41792 0
M  V30 9370 P 960.694 4.23843 -7.83734 0
M  V30 9371 O 960.474 4.19407 -9.29784 0
M  V30 9372 O 959.904 5.24426 -7.09156 0
M  V30 9373 O 960.444 2.79386 -7.20852 0
M  V30 9374 C 961.384 1.7299 -7.50419 0
M  V30 9375 C 960.654 0.41401 -7.5797 0
M  V30 9376 O 960.444 -0.089787 -6.22035 0
M  V30 9377 C 959.254 0.447224 -8.1878 0
M  V30 9378 O 958.864 -0.825159 -8.71201 0
M  V30 9379 C 958.374 0.783801 -6.99623 0
M  V30 9380 C 959.084 0.0619192 -5.85967 0
M  V30 9381 N 959.034 0.7859 -4.56281 0
M  V30 9382 C 958.884 0.0359258 -3.39981 0
M  V30 9383 O 958.794 -1.19723 -3.49038 0
M  V30 9384 N 958.834 0.869151 -2.14025 0
M  V30 9385 C 958.934 2.01207 -2.14363 0
M  V30 9386 N 958.884 2.58978 -0.954287 0
M  V30 9387 C 959.084 2.80817 -3.32215 0
M  V30 9388 C 959.134 2.13785 -4.50884 0
M  V30 9389 H 961.874 1.93401 -8.46693 0
M  V30 9390 H 962.144 1.68181 -6.71046 0
M  V30 9391 H 961.277 -0.289076 -8.15488 0
M  V30 9392 H 958.622 -0.927166 -5.72947 0
M  V30 9393 H 958.342 1.87 -6.82132 0
M  V30 9394 H 957.351 0.404009 -7.13457 0
M  V30 9395 H 959.185 1.20599 -8.97534 0
M  V30 9396 H 959.257 2.70295 -5.43162 0
M  V30 9397 H 959.155 3.89465 -3.27406 0
M  V30 9398 H 958.767 2.01616 -0.107046 0
M  V30 9399 H 958.963 3.61403 -0.873101 0
M  V30 9400 P 957.314 -1.17771 -8.83182 0
M  V30 9401 O 957.094 -2.07206 -9.98732 0
M  V30 9402 O 956.524 0.0743816 -8.81969 0
M  V30 9403 O 957.064 -1.97652 -7.47304 0
M  V30 9404 C 958.004 -3.01133 -7.08783 0
M  V30 9405 C 957.274 -4.12613 -6.37049 0
M  V30 9406 O 957.064 -3.72827 -4.97879 0
M  V30 9407 C 955.874 -4.45085 -6.88694 0
M  V30 9408 O 955.484 -5.7877 -6.5624 0
M  V30 9409 C 954.994 -3.47817 -6.12078 0
M  V30 9410 C 955.704 -3.39414 -4.77697 0
M  V30 9411 N 955.654 -2.04615 -4.15333 0
M  V30 9412 C 955.734 -0.803897 -4.75249 0
M  V30 9413 N 955.654 0.197615 -3.91502 0
M  V30 9414 C 955.514 -0.413002 -2.66823 0
M  V30 9415 C 955.384 0.157221 -1.38007 0
M  V30 9416 N 955.264 -0.833136 -0.390236 0
M  V30 9417 C 955.264 -2.19402 -0.623885 0
M  V30 9418 N 955.134 -2.97622 0.449677 0
M  V30 9419 N 955.394 -2.73005 -1.83601 0
M  V30 9420 C 955.514 -1.78786 -2.80935 0
M  V30 9421 H 958.493 -3.41248 -7.98759 0
M  V30 9422 H 958.765 -2.5837 -6.41742 0
M  V30 9423 H 957.897 -5.02657 -6.42673 0
M  V30 9424 P 953.934 -6.144 -6.45285 0
M  V30 9425 O 953.714 -7.54673 -6.86199 0
M  V30 9426 O 953.144 -5.12391 -7.179 0
M  V30 9427 O 953.684 -5.99236 -4.88467 0
M  V30 9428 C 954.624 -6.60234 -3.96415 0
M  V30 9429 C 953.894 -7.08079 -2.736 0
M  V30 9430 O 953.684 -5.94365 -1.8368 0
M  V30 9431 C 952.494 -7.64886 -2.9555 0
M  V30 9432 O 952.104 -8.5406 -1.90739 0
M  V30 9433 C 951.614 -6.4116 -2.90739 0
M  V30 9434 C 952.324 -5.55375 -1.86963 0
M  V30 9435 N 952.274 -4.09664 -2.15742 0
M  V30 9436 C 952.124 -3.22231 -1.08477 0
M  V30 9437 O 952.034 -3.68951 0.0600489 0
M  V30 9438 N 952.074 -1.76692 -1.48799 0
M  V30 9439 C 952.174 -1.41695 -2.57602 0
M  V30 9440 N 952.124 -0.107296 -2.75791 0
M  V30 9441 C 952.324 -2.29178 -3.69733 0
M  V30 9442 C 952.374 -3.62753 -3.42653 0
M  V30 9443 H 955.114 -7.45488 -4.45578 0
M  V30 9444 H 955.384 -5.86232 -3.67314 0
M  V30 9445 H 954.517 -7.84508 -2.24507 0
M  V30 9446 H 951.862 -5.73556 -0.888715 0
M  V30 9447 H 951.582 -5.9096 -3.88638 0
M  V30 9448 H 950.591 -6.66053 -2.58894 0
M  V30 9449 H 952.425 -8.16339 -3.92049 0
M  V30 9450 H 952.497 -4.33052 -4.24913 0
M  V30 9451 H 952.395 -1.9103 -4.71577 0
M  V30 9452 H 952.007 0.521221 -1.95056 0
M  V30 9453 H 952.203 0.286429 -3.70695 0
M  V30 9454 P 950.554 -8.7635 -1.60911 0
M  V30 9455 O 950.334 -10.1388 -1.11561 0
M  V30 9456 O 949.764 -8.36503 -2.79617 0
M  V30 9457 O 950.304 -7.71906 -0.429565 0
M  V30 9458 C 951.244 -7.67148 0.673689 0
M  V30 9459 C 950.514 -7.33666 1.94851 0
M  V30 9460 O 950.304 -5.88816 2.00759 0
M  V30 9461 C 949.114 -7.92526 2.10483 0
M  V30 9462 O 948.724 -8.03063 3.47693 0
M  V30 9463 C 948.234 -6.89602 1.41652 0
M  V30 9464 C 948.944 -5.59201 1.75185 0
M  V30 9465 N 948.894 -4.58235 0.662552 0
M  V30 9466 C 948.744 -3.24451 1.01643 0
M  V30 9467 O 948.654 -2.94958 2.21722 0
M  V30 9468 N 948.694 -2.30408 -0.165238 0
M  V30 9469 C 948.794 -2.66048 -1.25118 0
M  V30 9470 N 948.744 -1.70787 -2.16813 0
M  V30 9471 C 948.944 -4.02732 -1.64413 0
M  V30 9472 C 948.994 -4.9488 -0.63991 0
M  V30 9473 H 951.734 -8.65017 0.777072 0
M  V30 9474 H 952.004 -6.90173 0.474152 0
M  V30 9475 H 951.137 -7.66642 2.79492 0
M  V30 9476 H 948.482 -5.16254 2.65229 0
M  V30 9477 H 948.202 -7.06532 0.329431 0
M  V30 9478 H 947.211 -6.91023 1.82047 0
M  V30 9479 H 949.045 -8.90873 1.62657 0
M  V30 9480 H 949.117 -6.00104 -0.892197 0
M  V30 9481 H 949.015 -4.31733 -2.69229 0
M  V30 9482 H 948.627 -0.724835 -1.8844 0
M  V30 9483 H 948.823 -1.94716 -3.16734 0
M  V30 9484 P 947.174 -8.03563 3.84925 0
M  V30 9485 O 946.954 -8.85821 5.0569 0
M  V30 9486 O 946.384 -8.41101 2.65469 0
M  V30 9487 O 946.924 -6.49734 4.18962 0
M  V30 9488 C 947.864 -5.81037 5.05421 0
M  V30 9489 C 947.134 -4.79018 5.88876 0
M  V30 9490 O 946.924 -3.58359 5.08515 0
M  V30 9491 C 945.734 -5.17448 6.36119 0
M  V30 9492 O 945.344 -4.45322 7.53318 0
M  V30 9493 C 944.854 -4.74639 5.19936 0
M  V30 9494 C 945.564 -3.49432 4.70418 0
M  V30 9495 N 945.514 -3.31776 3.22945 0
M  V30 9496 C 945.364 -2.02742 2.72939 0
M  V30 9497 O 945.274 -1.08301 3.52749 0
M  V30 9498 N 945.314 -1.96117 1.22063 0
M  V30 9499 C 945.414 -2.8878 0.551566 0
M  V30 9500 N 945.364 -2.65609 -0.750198 0
M  V30 9501 C 945.564 -4.22457 1.03707 0
M  V30 9502 C 945.614 -4.37979 2.39113 0
M  V30 9503 H 948.354 -6.54138 5.7131 0
M  V30 9504 H 948.624 -5.30492 4.44033 0
M  V30 9505 H 947.757 -4.55945 6.76735 0
M  V30 9506 H 945.102 -2.6176 5.18021 0
M  V30 9507 H 944.822 -5.52233 4.41941 0
M  V30 9508 H 943.831 -4.52045 5.53452 0
M  V30 9509 H 945.665 -6.25124 6.55234 0
M  V30 9510 H 945.737 -5.37936 2.80552 0
M  V30 9511 H 945.635 -5.07528 0.359553 0
M  V30 9512 H 945.247 -1.69403 -1.09847 0
M  V30 9513 H 945.443 -3.43701 -1.41792 0
M  V30 9514 P 943.794 -4.23843 7.83734 0
M  V30 9515 O 943.574 -4.19407 9.29784 0
M  V30 9516 O 943.004 -5.24426 7.09156 0
M  V30 9517 O 943.544 -2.7935 7.20758 0
M  V30 9518 C 944.484 -1.7299 7.50419 0
M  V30 9519 C 943.754 -0.406376 7.57911 0
M  V30 9520 O 943.544 0.0897726 6.21935 0
M  V30 9521 C 942.354 -0.447224 8.1878 0
M  V30 9522 O 941.964 0.825065 8.71101 0
M  V30 9523 C 941.474 -0.783801 6.99623 0
M  V30 9524 C 942.184 -0.0619192 5.85967 0
M  V30 9525 N 942.134 -0.7859 4.56281 0
M  V30 9526 H 944.973 -1.93423 8.4679 0
M  V30 9527 H 945.245 -1.68181 6.71046 0
M  V30 9528 H 944.377 0.289041 8.15388 0
M  V30 9529 P 940.414 1.17771 8.83182 0
M  V30 9530 O 940.194 2.07206 9.98732 0
M  V30 9531 O 939.624 -0.0743816 8.81969 0
M  V30 9532 O 940.164 1.97652 7.47304 0
M  V30 9533 C 941.104 3.01133 7.08783 0
M  V30 9534 C 940.374 4.12613 6.37049 0
M  V30 9535 O 940.164 3.72827 4.97879 0
M  V30 9536 C 938.974 4.45085 6.88694 0
M  V30 9537 O 938.584 5.7877 6.5624 0
M  V30 9538 C 938.094 3.47817 6.12078 0
M  V30 9539 C 938.804 3.39414 4.77697 0
M  V30 9540 N 938.754 2.04615 4.15333 0
M  V30 9541 H 941.593 3.41248 7.98759 0
M  V30 9542 H 941.865 2.5837 6.41742 0
M  V30 9543 H 940.997 5.02657 6.42673 0
M  V30 9544 P 937.034 6.144 6.45285 0
M  V30 9545 O 936.814 7.54673 6.86199 0
M  V30 9546 O 936.244 5.12391 7.179 0
M  V30 9547 O 936.784 5.99236 4.88467 0
M  V30 9548 C 937.724 6.60234 3.96415 0
M  V30 9549 C 936.994 7.08079 2.736 0
M  V30 9550 O 936.784 5.94365 1.8368 0
M  V30 9551 C 935.594 7.64886 2.9555 0
M  V30 9552 O 935.204 8.5406 1.90739 0
M  V30 9553 C 934.714 6.4116 2.90739 0
M  V30 9554 C 935.424 5.55375 1.86963 0
M  V30 9555 N 935.374 4.09664 2.15742 0
M  V30 9556 C 935.224 3.22231 1.08477 0
M  V30 9557 O 935.134 3.68951 -0.0600489 0
M  V30 9558 N 935.174 1.76692 1.48799 0
M  V30 9559 C 935.274 1.41695 2.57602 0
M  V30 9560 N 935.224 0.107296 2.75791 0
M  V30 9561 C 935.424 2.29178 3.69733 0
M  V30 9562 C 935.474 3.62753 3.42653 0
M  V30 9563 H 938.214 7.45488 4.45578 0
M  V30 9564 H 938.484 5.86232 3.67314 0
M  V30 9565 H 937.617 7.84508 2.24507 0
M  V30 9566 H 934.962 5.73556 0.888715 0
M  V30 9567 H 934.682 5.9096 3.88638 0
M  V30 9568 H 933.691 6.66053 2.58894 0
M  V30 9569 H 935.525 8.16339 3.92049 0
M  V30 9570 H 935.597 4.33052 4.24913 0
M  V30 9571 H 935.495 1.9103 4.71577 0
M  V30 9572 H 935.107 -0.521221 1.95056 0
M  V30 9573 H 935.303 -0.286429 3.70695 0
M  V30 9574 P 933.655 8.7635 1.60911 0
M  V30 9575 O 933.435 10.1388 1.11561 0
M  V30 9576 O 932.865 8.36503 2.79617 0
M  V30 9577 O 933.405 7.71806 0.42951 0
M  V30 9578 C 934.345 7.67148 -0.673689 0
M  V30 9579 C 933.615 7.33374 -1.95559 0
M  V30 9580 O 933.405 5.88721 -2.00726 0
M  V30 9581 C 932.215 7.92526 -2.10483 0
M  V30 9582 O 931.825 8.02971 -3.47653 0
M  V30 9583 C 931.335 6.89602 -1.41652 0
M  V30 9584 C 932.045 5.59201 -1.75185 0
M  V30 9585 N 931.995 4.58235 -0.662552 0
M  V30 9586 C 932.075 4.7683 0.704049 0
M  V30 9587 N 931.995 3.66233 1.39775 0
M  V30 9588 C 931.855 2.66526 0.431739 0
M  V30 9589 C 931.725 1.26394 0.575992 0
M  V30 9590 N 931.605 0.62859 -0.67177 0
M  V30 9591 C 931.605 1.27134 -1.89385 0
M  V30 9592 N 931.475 0.492035 -2.96951 0
M  V30 9593 N 931.735 2.58978 -2.02907 0
M  V30 9594 C 931.855 3.22433 -0.832218 0
M  V30 9595 H 934.834 8.65116 -0.777161 0
M  V30 9596 H 935.106 6.90173 -0.474152 0
M  V30 9597 H 934.238 7.66548 -2.79458 0
M  V30 9598 P 930.275 8.03563 -3.84925 0
M  V30 9599 O 930.055 8.85821 -5.0569 0
M  V30 9600 O 929.485 8.41101 -2.65469 0
M  V30 9601 O 930.025 6.49734 -4.18962 0
M  V30 9602 C 930.965 5.81037 -5.05421 0
M  V30 9603 C 930.235 4.79018 -5.88876 0
M  V30 9604 O 930.025 3.58359 -5.08515 0
M  V30 9605 C 928.835 5.17448 -6.36119 0
M  V30 9606 O 928.445 4.45322 -7.53318 0
M  V30 9607 C 927.955 4.74639 -5.19936 0
M  V30 9608 C 928.665 3.49432 -4.70418 0
M  V30 9609 N 928.615 3.31776 -3.22945 0
M  V30 9610 C 928.465 2.02742 -2.72939 0
M  V30 9611 O 928.375 1.08301 -3.52749 0
M  V30 9612 N 928.415 1.96117 -1.22063 0
M  V30 9613 C 928.515 2.8878 -0.551566 0
M  V30 9614 N 928.465 2.65609 0.750198 0
M  V30 9615 C 928.665 4.22457 -1.03707 0
M  V30 9616 C 928.715 4.37979 -2.39113 0
M  V30 9617 H 931.455 6.54138 -5.7131 0
M  V30 9618 H 931.725 5.30492 -4.44033 0
M  V30 9619 H 930.858 4.55945 -6.76735 0
M  V30 9620 H 928.203 2.6176 -5.18021 0
M  V30 9621 H 927.923 5.52233 -4.41941 0
M  V30 9622 H 926.932 4.52045 -5.53452 0
M  V30 9623 H 928.766 6.25124 -6.55234 0
M  V30 9624 H 928.838 5.37936 -2.80552 0
M  V30 9625 H 928.736 5.07528 -0.359553 0
M  V30 9626 H 928.348 1.69403 1.09847 0
M  V30 9627 H 928.544 3.43701 1.41792 0
M  V30 9628 P 926.895 4.23843 -7.83734 0
M  V30 9629 O 926.675 4.19407 -9.29784 0
M  V30 9630 O 926.105 5.24426 -7.09156 0
M  V30 9631 O 926.645 2.7935 -7.20758 0
M  V30 9632 C 927.585 1.7299 -7.50419 0
M  V30 9633 C 926.855 0.406376 -7.57911 0
M  V30 9634 O 926.645 -0.0897726 -6.21935 0
M  V30 9635 C 925.455 0.447224 -8.1878 0
M  V30 9636 O 925.065 -0.825065 -8.71101 0
M  V30 9637 C 924.575 0.783801 -6.99623 0
M  V30 9638 C 925.285 0.0619192 -5.85967 0
M  V30 9639 N 925.235 0.7859 -4.56281 0
M  V30 9640 H 928.074 1.93423 -8.4679 0
M  V30 9641 H 928.346 1.68181 -6.71046 0
M  V30 9642 H 927.478 -0.289041 -8.15388 0
M  V30 9643 P 923.515 -1.17771 -8.83182 0
M  V30 9644 O 923.295 -2.07206 -9.98732 0
M  V30 9645 O 922.725 0.0743816 -8.81969 0
M  V30 9646 O 923.265 -1.97678 -7.474 0
M  V30 9647 C 924.205 -3.01133 -7.08783 0
M  V30 9648 C 923.475 -4.1203 -6.37546 0
M  V30 9649 O 923.265 -3.72887 -4.9796 0
M  V30 9650 C 922.075 -4.45085 -6.88694 0
M  V30 9651 O 921.685 -5.78836 -6.56315 0
M  V30 9652 C 921.195 -3.47817 -6.12078 0
M  V30 9653 C 921.905 -3.39414 -4.77697 0
M  V30 9654 N 921.855 -2.04615 -4.15333 0
M  V30 9655 C 921.705 -1.96929 -2.77162 0
M  V30 9656 O 921.615 -3.02017 -2.12006 0
M  V30 9657 N 921.655 -0.55485 -2.24237 0
M  V30 9658 C 921.755 0.367808 -2.9169 0
M  V30 9659 N 921.705 1.53426 -2.29427 0
M  V30 9660 C 921.905 0.319148 -4.33828 0
M  V30 9661 C 921.955 -0.920672 -4.90433 0
M  V30 9662 H 924.695 -3.41209 -7.98667 0
M  V30 9663 H 924.965 -2.5837 -6.41742 0
M  V30 9664 H 924.098 -5.02718 -6.42752 0
M  V30 9665 H 921.443 -4.11779 -4.09026 0
M  V30 9666 H 921.163 -2.49661 -6.61772 0
M  V30 9667 H 920.172 -3.86674 -6.00946 0
M  V30 9668 H 922.006 -4.29991 -7.97006 0
M  V30 9669 H 922.078 -1.00589 -5.98303 0
M  V30 9670 H 921.976 1.22639 -4.93799 0
M  V30 9671 H 921.588 1.56819 -1.27167 0
M  V30 9672 H 921.784 2.41062 -2.83063 0
M  V30 9673 P 920.135 -6.144 -6.45285 0
M  V30 9674 O 919.915 -7.54673 -6.86199 0
M  V30 9675 O 919.345 -5.12391 -7.179 0
M  V30 9676 O 919.885 -5.99236 -4.88467 0
M  V30 9677 C 920.825 -6.60234 -3.96415 0
M  V30 9678 C 920.095 -7.08079 -2.736 0
M  V30 9679 O 919.885 -5.94365 -1.8368 0
M  V30 9680 C 918.695 -7.64886 -2.9555 0
M  V30 9681 O 918.305 -8.5406 -1.90739 0
M  V30 9682 C 917.815 -6.4116 -2.90739 0
M  V30 9683 C 918.525 -5.55375 -1.86963 0
M  V30 9684 N 918.475 -4.09664 -2.15742 0
M  V30 9685 C 918.325 -3.22231 -1.08477 0
M  V30 9686 O 918.235 -3.68951 0.0600489 0
M  V30 9687 N 918.275 -1.76692 -1.48799 0
M  V30 9688 C 918.375 -1.41695 -2.57602 0
M  V30 9689 N 918.325 -0.107296 -2.75791 0
M  V30 9690 C 918.525 -2.29178 -3.69733 0
M  V30 9691 C 918.575 -3.62753 -3.42653 0
M  V30 9692 H 921.315 -7.45488 -4.45578 0
M  V30 9693 H 921.585 -5.86232 -3.67314 0
M  V30 9694 H 920.718 -7.84508 -2.24507 0
M  V30 9695 H 918.063 -5.73556 -0.888715 0
M  V30 9696 H 917.783 -5.9096 -3.88638 0
M  V30 9697 H 916.792 -6.66053 -2.58894 0
M  V30 9698 H 918.626 -8.16339 -3.92049 0
M  V30 9699 H 918.698 -4.33052 -4.24913 0
M  V30 9700 H 918.596 -1.9103 -4.71577 0
M  V30 9701 H 918.208 0.521221 -1.95056 0
M  V30 9702 H 918.404 0.286429 -3.70695 0
M  V30 9703 P 916.755 -8.7635 -1.60911 0
M  V30 9704 O 916.535 -10.1388 -1.11561 0
M  V30 9705 O 915.965 -8.36503 -2.79617 0
M  V30 9706 O 916.505 -7.71906 -0.429565 0
M  V30 9707 C 917.445 -7.67148 0.673689 0
M  V30 9708 C 916.715 -7.33666 1.94851 0
M  V30 9709 O 916.505 -5.88816 2.00759 0
M  V30 9710 C 915.315 -7.92526 2.10483 0
M  V30 9711 O 914.925 -8.03063 3.47693 0
M  V30 9712 C 914.435 -6.89602 1.41652 0
M  V30 9713 C 915.145 -5.59201 1.75185 0
M  V30 9714 N 915.095 -4.58235 0.662552 0
M  V30 9715 C 914.945 -3.24451 1.01643 0
M  V30 9716 O 914.855 -2.94958 2.21722 0
M  V30 9717 N 914.895 -2.30408 -0.165238 0
M  V30 9718 C 914.995 -2.66048 -1.25118 0
M  V30 9719 N 914.945 -1.70787 -2.16813 0
M  V30 9720 C 915.145 -4.02732 -1.64413 0
M  V30 9721 C 915.195 -4.9488 -0.63991 0
M  V30 9722 H 917.935 -8.65017 0.777072 0
M  V30 9723 H 918.205 -6.90173 0.474152 0
M  V30 9724 H 917.338 -7.66642 2.79492 0
M  V30 9725 H 914.683 -5.16254 2.65229 0
M  V30 9726 H 914.403 -7.06532 0.329431 0
M  V30 9727 H 913.412 -6.91023 1.82047 0
M  V30 9728 H 915.246 -8.90873 1.62657 0
M  V30 9729 H 915.318 -6.00104 -0.892197 0
M  V30 9730 H 915.216 -4.31733 -2.69229 0
M  V30 9731 H 914.828 -0.724835 -1.8844 0
M  V30 9732 H 915.024 -1.94716 -3.16734 0
M  V30 9733 P 913.375 -8.03563 3.84925 0
M  V30 9734 O 913.155 -8.85821 5.0569 0
M  V30 9735 O 912.585 -8.41101 2.65469 0
M  V30 9736 O 913.125 -6.49734 4.18962 0
M  V30 9737 C 914.065 -5.81037 5.05421 0
M  V30 9738 C 913.335 -4.79018 5.88876 0
M  V30 9739 O 913.125 -3.58359 5.08515 0
M  V30 9740 C 911.935 -5.17448 6.36119 0
M  V30 9741 O 911.545 -4.45322 7.53318 0
M  V30 9742 C 911.055 -4.74639 5.19936 0
M  V30 9743 C 911.765 -3.49432 4.70418 0
M  V30 9744 N 911.715 -3.31776 3.22945 0
M  V30 9745 C 911.565 -2.02742 2.72939 0
M  V30 9746 O 911.475 -1.08301 3.52749 0
M  V30 9747 N 911.515 -1.96117 1.22063 0
M  V30 9748 C 911.615 -2.8878 0.551566 0
M  V30 9749 N 911.565 -2.65609 -0.750198 0
M  V30 9750 C 911.765 -4.22457 1.03707 0
M  V30 9751 C 911.815 -4.37979 2.39113 0
M  V30 9752 H 914.555 -6.54138 5.7131 0
M  V30 9753 H 914.825 -5.30492 4.44033 0
M  V30 9754 H 913.958 -4.55945 6.76735 0
M  V30 9755 H 911.303 -2.6176 5.18021 0
M  V30 9756 H 911.023 -5.52233 4.41941 0
M  V30 9757 H 910.032 -4.52045 5.53452 0
M  V30 9758 H 911.866 -6.25124 6.55234 0
M  V30 9759 H 911.938 -5.37936 2.80552 0
M  V30 9760 H 911.836 -5.07528 0.359553 0
M  V30 9761 H 911.448 -1.69403 -1.09847 0
M  V30 9762 H 911.644 -3.43701 -1.41792 0
M  V30 9763 P 909.995 -4.23843 7.83734 0
M  V30 9764 O 909.775 -4.19407 9.29784 0
M  V30 9765 O 909.205 -5.24426 7.09156 0
M  V30 9766 O 909.745 -2.7935 7.20758 0
M  V30 9767 C 910.685 -1.7299 7.50419 0
M  V30 9768 C 909.955 -0.406376 7.57911 0
M  V30 9769 O 909.745 0.0897726 6.21935 0
M  V30 9770 C 908.555 -0.447224 8.1878 0
M  V30 9771 O 908.165 0.825065 8.71101 0
M  V30 9772 C 907.675 -0.783801 6.99623 0
M  V30 9773 C 908.385 -0.0619192 5.85967 0
M  V30 9774 N 908.335 -0.7859 4.56281 0
M  V30 9775 C 908.415 -2.14308 4.31736 0
M  V30 9776 N 908.335 -2.46106 3.05116 0
M  V30 9777 C 908.195 -1.23422 2.4014 0
M  V30 9778 C 908.065 -0.938381 1.02409 0
M  V30 9779 N 907.945 0.444647 0.805413 0
M  V30 9780 C 907.945 1.40829 1.79435 0
M  V30 9781 N 907.815 2.67213 1.38558 0
M  V30 9782 N 908.075 1.12947 3.09005 0
M  V30 9783 C 908.195 -0.204887 3.32369 0
M  V30 9784 H 911.174 -1.93423 8.4679 0
M  V30 9785 H 911.446 -1.68181 6.71046 0
M  V30 9786 H 910.578 0.289041 8.15388 0
M  V30 9787 P 906.615 1.17771 8.83182 0
M  V30 9788 O 906.395 2.07206 9.98732 0
M  V30 9789 O 905.825 -0.0743816 8.81969 0
M  V30 9790 O 906.365 1.97678 7.474 0
M  V30 9791 C 907.305 3.01133 7.08783 0
M  V30 9792 C 906.575 4.1203 6.37546 0
M  V30 9793 O 906.365 3.72887 4.9796 0
M  V30 9794 C 905.175 4.45085 6.88694 0
M  V30 9795 O 904.785 5.78836 6.56315 0
M  V30 9796 C 904.295 3.47817 6.12078 0
M  V30 9797 C 905.005 3.39414 4.77697 0
M  V30 9798 N 904.955 2.04615 4.15333 0
M  V30 9799 C 904.805 1.96929 2.77162 0
M  V30 9800 O 904.715 3.02017 2.12006 0
M  V30 9801 N 904.755 0.55485 2.24237 0
M  V30 9802 C 904.855 -0.367808 2.9169 0
M  V30 9803 N 904.805 -1.53426 2.29427 0
M  V30 9804 C 905.005 -0.319148 4.33828 0
M  V30 9805 C 905.055 0.920672 4.90433 0
M  V30 9806 H 907.795 3.41209 7.98667 0
M  V30 9807 H 908.065 2.5837 6.41742 0
M  V30 9808 H 907.198 5.02718 6.42752 0
M  V30 9809 H 904.543 4.11779 4.09026 0
M  V30 9810 H 904.263 2.49661 6.61772 0
M  V30 9811 H 903.272 3.86674 6.00946 0
M  V30 9812 H 905.106 4.29991 7.97006 0
M  V30 9813 H 905.178 1.00589 5.98303 0
M  V30 9814 H 905.076 -1.22639 4.93799 0
M  V30 9815 H 904.688 -1.56819 1.27167 0
M  V30 9816 H 904.884 -2.41062 2.83063 0
M  V30 9817 P 903.235 6.144 6.45285 0
M  V30 9818 O 903.015 7.54673 6.86199 0
M  V30 9819 O 902.445 5.12391 7.179 0
M  V30 9820 O 902.985 5.99236 4.88467 0
M  V30 9821 C 903.925 6.60234 3.96415 0
M  V30 9822 C 903.195 7.08079 2.736 0
M  V30 9823 O 902.985 5.94365 1.8368 0
M  V30 9824 C 901.795 7.64886 2.9555 0
M  V30 9825 O 901.405 8.5406 1.90739 0
M  V30 9826 C 900.915 6.4116 2.90739 0
M  V30 9827 C 901.625 5.55375 1.86963 0
M  V30 9828 N 901.575 4.09664 2.15742 0
M  V30 9829 C 901.425 3.22231 1.08477 0
M  V30 9830 O 901.335 3.68951 -0.0600489 0
M  V30 9831 N 901.375 1.76692 1.48799 0
M  V30 9832 C 901.475 1.41695 2.57602 0
M  V30 9833 N 901.425 0.107296 2.75791 0
M  V30 9834 C 901.625 2.29178 3.69733 0
M  V30 9835 C 901.675 3.62753 3.42653 0
M  V30 9836 H 904.415 7.45488 4.45578 0
M  V30 9837 H 904.685 5.86232 3.67314 0
M  V30 9838 H 903.818 7.84508 2.24507 0
M  V30 9839 H 901.163 5.73556 0.888715 0
M  V30 9840 H 900.883 5.9096 3.88638 0
M  V30 9841 H 899.892 6.66053 2.58894 0
M  V30 9842 H 901.726 8.16339 3.92049 0
M  V30 9843 H 901.798 4.33052 4.24913 0
M  V30 9844 H 901.696 1.9103 4.71577 0
M  V30 9845 H 901.308 -0.521221 1.95056 0
M  V30 9846 H 901.504 -0.286429 3.70695 0
M  V30 9847 P 899.855 8.7635 1.60911 0
M  V30 9848 O 899.635 10.1388 1.11561 0
M  V30 9849 O 899.065 8.36503 2.79617 0
M  V30 9850 O 899.605 7.71806 0.42951 0
M  V30 9851 C 900.545 7.66948 -0.673514 0
M  V30 9852 C 899.815 7.33374 -1.95559 0
M  V30 9853 O 899.605 5.88721 -2.00726 0
M  V30 9854 C 898.415 7.92218 -2.1125 0
M  V30 9855 O 898.025 8.02971 -3.47653 0
M  V30 9856 C 897.535 6.89504 -1.41631 0
M  V30 9857 C 898.245 5.59106 -1.75155 0
M  V30 9858 N 898.195 4.58136 -0.662409 0
M  V30 9859 C 898.045 3.26059 -1.02863 0
M  V30 9860 O 897.955 2.90743 -2.19009 0
M  V30 9861 N 898.005 2.35995 0.0155585 0
M  V30 9862 C 898.095 2.65248 1.35603 0
M  V30 9863 C 898.245 4.05747 1.64698 0
M  V30 9864 C 898.295 4.96734 0.652411 0
M  V30 9865 H 901.036 8.64917 -0.776982 0
M  V30 9866 H 901.305 6.89974 -0.474015 0
M  V30 9867 H 900.438 7.66548 -2.79458 0
M  V30 9868 H 897.783 5.16076 -2.65138 0
M  V30 9869 H 897.504 7.06433 -0.329384 0
M  V30 9870 H 896.512 6.90829 -1.81996 0
M  V30 9871 H 898.346 8.90774 -1.62639 0
M  V30 9872 H 898.417 6.02181 0.895285 0
M  V30 9873 P 896.475 8.03563 -3.84925 0
M  V30 9874 O 896.255 8.85821 -5.0569 0
M  V30 9875 O 895.685 8.41101 -2.65469 0
M  V30 9876 O 896.225 6.49734 -4.18962 0
M  V30 9877 C 897.165 5.81037 -5.05421 0
M  V30 9878 C 896.435 4.79018 -5.88876 0
M  V30 9879 O 896.225 3.58359 -5.08515 0
M  V30 9880 C 895.035 5.17448 -6.36119 0
M  V30 9881 O 894.645 4.45322 -7.53318 0
M  V30 9882 C 894.155 4.74639 -5.19936 0
M  V30 9883 C 894.865 3.49432 -4.70418 0
M  V30 9884 N 894.815 3.31776 -3.22945 0
M  V30 9885 C 894.665 2.02742 -2.72939 0
M  V30 9886 O 894.575 1.08301 -3.52749 0
M  V30 9887 N 894.615 1.96117 -1.22063 0
M  V30 9888 C 894.715 2.8878 -0.551566 0
M  V30 9889 N 894.665 2.65609 0.750198 0
M  V30 9890 C 894.865 4.22457 -1.03707 0
M  V30 9891 C 894.915 4.37979 -2.39113 0
M  V30 9892 H 897.655 6.54138 -5.7131 0
M  V30 9893 H 897.925 5.30492 -4.44033 0
M  V30 9894 H 897.058 4.55945 -6.76735 0
M  V30 9895 H 894.403 2.6176 -5.18021 0
M  V30 9896 H 894.123 5.52233 -4.41941 0
M  V30 9897 H 893.132 4.52045 -5.53452 0
M  V30 9898 H 894.966 6.25124 -6.55234 0
M  V30 9899 H 895.038 5.37936 -2.80552 0
M  V30 9900 H 894.936 5.07528 -0.359553 0
M  V30 9901 H 894.548 1.69403 1.09847 0
M  V30 9902 H 894.744 3.43701 1.41792 0
M  V30 9903 P 893.095 4.23843 -7.83734 0
M  V30 9904 O 892.875 4.19407 -9.29784 0
M  V30 9905 O 892.305 5.24426 -7.09156 0
M  V30 9906 O 892.845 2.79386 -7.20852 0
M  V30 9907 C 893.785 1.7299 -7.50419 0
M  V30 9908 C 893.055 0.41401 -7.5797 0
M  V30 9909 O 892.845 -0.089787 -6.22035 0
M  V30 9910 C 891.655 0.447224 -8.1878 0
M  V30 9911 O 891.265 -0.825159 -8.71201 0
M  V30 9912 C 890.775 0.783801 -6.99623 0
M  V30 9913 C 891.485 0.0619192 -5.85967 0
M  V30 9914 N 891.435 0.7859 -4.56281 0
M  V30 9915 C 891.285 0.0359258 -3.39981 0
M  V30 9916 O 891.195 -1.19723 -3.49038 0
M  V30 9917 N 891.235 0.869151 -2.14025 0
M  V30 9918 C 891.335 2.01207 -2.14363 0
M  V30 9919 N 891.285 2.58978 -0.954287 0
M  V30 9920 C 891.485 2.80817 -3.32215 0
M  V30 9921 C 891.535 2.13785 -4.50884 0
M  V30 9922 H 894.275 1.93401 -8.46693 0
M  V30 9923 H 894.545 1.68181 -6.71046 0
M  V30 9924 H 893.678 -0.289076 -8.15488 0
M  V30 9925 H 891.023 -0.927166 -5.72947 0
M  V30 9926 H 890.743 1.87 -6.82132 0
M  V30 9927 H 889.752 0.404009 -7.13457 0
M  V30 9928 H 891.586 1.20599 -8.97534 0
M  V30 9929 H 891.658 2.70295 -5.43162 0
M  V30 9930 H 891.556 3.89465 -3.27406 0
M  V30 9931 H 891.168 2.01616 -0.107046 0
M  V30 9932 H 891.364 3.61403 -0.873101 0
M  V30 9933 P 889.715 -1.17771 -8.83182 0
M  V30 9934 O 889.495 -2.07206 -9.98732 0
M  V30 9935 O 888.925 0.0743816 -8.81969 0
M  V30 9936 O 889.465 -1.97678 -7.474 0
M  V30 9937 C 890.405 -3.01133 -7.08783 0
M  V30 9938 C 889.675 -4.1203 -6.37546 0
M  V30 9939 O 889.465 -3.72887 -4.9796 0
M  V30 9940 C 888.275 -4.45085 -6.88694 0
M  V30 9941 O 887.885 -5.78836 -6.56315 0
M  V30 9942 C 887.395 -3.47817 -6.12078 0
M  V30 9943 C 888.105 -3.39414 -4.77697 0
M  V30 9944 N 888.055 -2.04615 -4.15333 0
M  V30 9945 C 887.905 -1.96929 -2.77162 0
M  V30 9946 O 887.815 -3.02017 -2.12006 0
M  V30 9947 N 887.855 -0.55485 -2.24237 0
M  V30 9948 C 887.955 0.367808 -2.9169 0
M  V30 9949 N 887.905 1.53426 -2.29427 0
M  V30 9950 C 888.105 0.319148 -4.33828 0
M  V30 9951 C 888.155 -0.920672 -4.90433 0
M  V30 9952 H 890.895 -3.41209 -7.98667 0
M  V30 9953 H 891.165 -2.5837 -6.41742 0
M  V30 9954 H 890.298 -5.02718 -6.42752 0
M  V30 9955 H 887.643 -4.11779 -4.09026 0
M  V30 9956 H 887.363 -2.49661 -6.61772 0
M  V30 9957 H 886.372 -3.86674 -6.00946 0
M  V30 9958 H 888.206 -4.29991 -7.97006 0
M  V30 9959 H 888.278 -1.00589 -5.98303 0
M  V30 9960 H 888.176 1.22639 -4.93799 0
M  V30 9961 H 887.788 1.56819 -1.27167 0
M  V30 9962 H 887.984 2.41062 -2.83063 0
M  V30 9963 P 886.335 -6.144 -6.45285 0
M  V30 9964 O 886.115 -7.54673 -6.86199 0
M  V30 9965 O 885.545 -5.12391 -7.179 0
M  V30 9966 O 886.085 -5.99158 -4.88404 0
M  V30 9967 C 887.025 -6.60234 -3.96415 0
M  V30 9968 C 886.295 -7.08259 -2.72856 0
M  V30 9969 O 886.085 -5.9427 -1.83651 0
M  V30 9970 C 884.895 -7.64886 -2.9555 0
M  V30 9971 O 884.505 -8.53963 -1.90717 0
M  V30 9972 C 884.015 -6.4116 -2.90739 0
M  V30 9973 C 884.725 -5.55375 -1.86963 0
M  V30 9974 N 884.675 -4.09664 -2.15742 0
M  V30 9975 C 884.755 -3.44381 -3.37233 0
M  V30 9976 N 884.675 -2.14131 -3.28347 0
M  V30 9977 C 884.535 -1.90247 -1.91588 0
M  V30 9978 C 884.405 -0.683992 -1.20892 0
M  V30 9979 N 884.285 -0.903396 0.173998 0
M  V30 9980 C 884.285 -2.14171 0.784879 0
M  V30 9981 N 884.155 -2.1435 2.11317 0
M  V30 9982 N 884.415 -3.28784 0.119316 0
M  V30 9983 C 884.535 -3.0977 -1.22194 0
M  V30 9984 H 887.514 -7.45574 -4.45629 0
M  V30 9985 H 887.786 -5.86232 -3.67314 0
M  V30 9986 H 886.918 -7.84412 -2.24479 0
M  V30 9987 P 882.955 -8.7635 -1.60911 0
M  V30 9988 O 882.735 -10.1388 -1.11561 0
M  V30 9989 O 882.165 -8.36503 -2.79617 0
M  V30 9990 O 882.705 -7.71906 -0.429565 0
M  V30 9991 C 883.645 -7.67148 0.673689 0
M  V30 9992 C 882.915 -7.33666 1.94851 0
M  V30 9993 O 882.705 -5.88816 2.00759 0
M  V30 9994 C 881.515 -7.92526 2.10483 0
M  V30 9995 O 881.125 -8.03063 3.47693 0
M  V30 9996 C 880.635 -6.89602 1.41652 0
M  V30 9997 C 881.345 -5.59201 1.75185 0
M  V30 9998 N 881.295 -4.58235 0.662552 0
M  V30 9999 C 881.145 -3.24451 1.01643 0
M  V30 10000 O 881.055 -2.94958 2.21722 0
M  V30 10001 N 881.095 -2.30408 -0.165238 0
M  V30 10002 C 881.195 -2.66048 -1.25118 0
M  V30 10003 N 881.145 -1.70787 -2.16813 0
M  V30 10004 C 881.345 -4.02732 -1.64413 0
M  V30 10005 C 881.395 -4.9488 -0.63991 0
M  V30 10006 H 884.135 -8.65017 0.777072 0
M  V30 10007 H 884.405 -6.90173 0.474152 0
M  V30 10008 H 883.538 -7.66642 2.79492 0
M  V30 10009 H 880.883 -5.16254 2.65229 0
M  V30 10010 H 880.603 -7.06532 0.329431 0
M  V30 10011 H 879.612 -6.91023 1.82047 0
M  V30 10012 H 881.446 -8.90873 1.62657 0
M  V30 10013 H 881.518 -6.00104 -0.892197 0
M  V30 10014 H 881.416 -4.31733 -2.69229 0
M  V30 10015 H 881.028 -0.724835 -1.8844 0
M  V30 10016 H 881.224 -1.94716 -3.16734 0
M  V30 10017 P 879.575 -8.03563 3.84925 0
M  V30 10018 O 879.355 -8.85821 5.0569 0
M  V30 10019 O 878.785 -8.41101 2.65469 0
M  V30 10020 O 879.325 -6.4965 4.18908 0
M  V30 10021 C 880.265 -5.81037 5.05421 0
M  V30 10022 C 879.535 -4.78366 5.89277 0
M  V30 10023 O 879.325 -3.58302 5.08433 0
M  V30 10024 C 878.135 -5.17448 6.36119 0
M  V30 10025 O 877.745 -4.45271 7.53232 0
M  V30 10026 C 877.255 -4.74639 5.19936 0
M  V30 10027 C 877.965 -3.49432 4.70418 0
M  V30 10028 N 877.915 -3.31776 3.22945 0
M  V30 10029 H 880.754 -6.54213 5.71376 0
M  V30 10030 H 881.026 -5.30492 4.44033 0
M  V30 10031 H 880.158 -4.55889 6.76652 0
M  V30 10032 P 876.195 -4.23843 7.83734 0
M  V30 10033 O 875.975 -4.19407 9.29784 0
M  V30 10034 O 875.405 -5.24426 7.09156 0
M  V30 10035 O 875.945 -2.7935 7.20758 0
M  V30 10036 C 876.885 -1.7299 7.50419 0
M  V30 10037 C 876.155 -0.406376 7.57911 0
M  V30 10038 O 875.945 0.0897726 6.21935 0
M  V30 10039 C 874.755 -0.447224 8.1878 0
M  V30 10040 O 874.365 0.825065 8.71101 0
M  V30 10041 C 873.875 -0.783801 6.99623 0
M  V30 10042 C 874.585 -0.0619192 5.85967 0
M  V30 10043 N 874.535 -0.790462 4.56202 0
M  V30 10044 H 877.374 -1.93423 8.4679 0
M  V30 10045 H 877.646 -1.68852 6.70877 0
M  V30 10046 H 876.778 0.289041 8.15388 0
M  V30 10047 H 874.123 0.927006 5.72848 0
M  V30 10048 H 873.843 -1.86973 6.82036 0
M  V30 10049 H 872.852 -0.403953 7.13357 0
M  V30 10050 H 874.686 -1.20599 8.97534 0
M  V30 10051 P 872.815 1.17771 8.83182 0
M  V30 10052 O 872.595 2.07206 9.98732 0
M  V30 10053 O 872.025 -0.0743816 8.81969 0
M  V30 10054 O 872.565 1.97678 7.474 0
M  V30 10055 C 873.505 3.01133 7.08783 0
M  V30 10056 C 872.775 4.1203 6.37546 0
M  V30 10057 O 872.565 3.72887 4.9796 0
M  V30 10058 C 871.375 4.45085 6.88694 0
M  V30 10059 O 870.985 5.78836 6.56315 0
M  V30 10060 C 870.495 3.47817 6.12078 0
M  V30 10061 C 871.205 3.39414 4.77697 0
M  V30 10062 N 871.155 2.04615 4.15333 0
M  V30 10063 C 871.005 1.96929 2.77162 0
M  V30 10064 O 870.915 3.02017 2.12006 0
M  V30 10065 N 870.955 0.55485 2.24237 0
M  V30 10066 C 871.055 -0.367808 2.9169 0
M  V30 10067 N 871.005 -1.53426 2.29427 0
M  V30 10068 C 871.205 -0.319148 4.33828 0
M  V30 10069 C 871.255 0.920672 4.90433 0
M  V30 10070 H 873.995 3.41209 7.98667 0
M  V30 10071 H 874.265 2.5837 6.41742 0
M  V30 10072 H 873.398 5.02718 6.42752 0
M  V30 10073 H 870.743 4.11779 4.09026 0
M  V30 10074 H 870.463 2.49661 6.61772 0
M  V30 10075 H 869.472 3.86674 6.00946 0
M  V30 10076 H 871.306 4.29991 7.97006 0
M  V30 10077 H 871.378 1.00589 5.98303 0
M  V30 10078 H 871.276 -1.22639 4.93799 0
M  V30 10079 H 870.888 -1.56819 1.27167 0
M  V30 10080 H 871.084 -2.41062 2.83063 0
M  V30 10081 P 869.435 6.144 6.45285 0
M  V30 10082 O 869.215 7.54673 6.86199 0
M  V30 10083 O 868.645 5.12391 7.179 0
M  V30 10084 O 869.185 5.99236 4.88467 0
M  V30 10085 C 870.125 6.60234 3.96415 0
M  V30 10086 C 869.395 7.08079 2.736 0
M  V30 10087 O 869.185 5.94365 1.8368 0
M  V30 10088 C 867.995 7.64886 2.9555 0
M  V30 10089 O 867.605 8.5406 1.90739 0
M  V30 10090 C 867.115 6.4116 2.90739 0
M  V30 10091 C 867.825 5.55375 1.86963 0
M  V30 10092 N 867.775 4.09664 2.15742 0
M  V30 10093 C 867.625 3.22231 1.08477 0
M  V30 10094 O 867.535 3.68951 -0.0600489 0
M  V30 10095 N 867.575 1.76692 1.48799 0
M  V30 10096 C 867.675 1.41695 2.57602 0
M  V30 10097 N 867.625 0.107296 2.75791 0
M  V30 10098 C 867.825 2.29178 3.69733 0
M  V30 10099 C 867.875 3.62753 3.42653 0
M  V30 10100 H 870.615 7.45488 4.45578 0
M  V30 10101 H 870.885 5.86232 3.67314 0
M  V30 10102 H 870.018 7.84508 2.24507 0
M  V30 10103 H 867.363 5.73556 0.888715 0
M  V30 10104 H 867.083 5.9096 3.88638 0
M  V30 10105 H 866.092 6.66053 2.58894 0
M  V30 10106 H 867.926 8.16339 3.92049 0
M  V30 10107 H 867.998 4.33052 4.24913 0
M  V30 10108 H 867.896 1.9103 4.71577 0
M  V30 10109 H 867.508 -0.521221 1.95056 0
M  V30 10110 H 867.704 -0.286429 3.70695 0
M  V30 10111 P 866.055 8.7635 1.60911 0
M  V30 10112 O 865.835 10.1388 1.11561 0
M  V30 10113 O 865.265 8.36503 2.79617 0
M  V30 10114 O 865.805 7.71806 0.42951 0
M  V30 10115 C 866.745 7.67148 -0.673689 0
M  V30 10116 C 866.015 7.33374 -1.95559 0
M  V30 10117 O 865.805 5.88721 -2.00726 0
M  V30 10118 C 864.615 7.92526 -2.10483 0
M  V30 10119 O 864.225 8.02971 -3.47653 0
M  V30 10120 C 863.735 6.89602 -1.41652 0
M  V30 10121 C 864.445 5.59201 -1.75185 0
M  V30 10122 N 864.395 4.58235 -0.662552 0
M  V30 10123 H 867.234 8.65116 -0.777161 0
M  V30 10124 H 867.506 6.90173 -0.474152 0
M  V30 10125 H 866.638 7.66548 -2.79458 0
M  V30 10126 P 862.675 8.03563 -3.84925 0
M  V30 10127 O 862.455 8.85821 -5.0569 0
M  V30 10128 O 861.885 8.41101 -2.65469 0
M  V30 10129 O 862.425 6.4965 -4.18908 0
M  V30 10130 C 863.365 5.81037 -5.05421 0
M  V30 10131 C 862.635 4.78366 -5.89277 0
M  V30 10132 O 862.425 3.58302 -5.08433 0
M  V30 10133 C 861.235 5.17448 -6.36119 0
M  V30 10134 O 860.845 4.45271 -7.53232 0
M  V30 10135 C 860.355 4.74639 -5.19936 0
M  V30 10136 C 861.065 3.49432 -4.70418 0
M  V30 10137 N 861.015 3.31776 -3.22945 0
M  V30 10138 H 863.854 6.54213 -5.71376 0
M  V30 10139 H 864.126 5.30492 -4.44033 0
M  V30 10140 H 863.258 4.55889 -6.76652 0
M  V30 10141 P 859.295 4.23843 -7.83734 0
M  V30 10142 O 859.075 4.19407 -9.29784 0
M  V30 10143 O 858.505 5.24426 -7.09156 0
M  V30 10144 O 859.045 2.79386 -7.20852 0
M  V30 10145 C 859.985 1.7299 -7.50419 0
M  V30 10146 C 859.255 0.41401 -7.5797 0
M  V30 10147 O 859.045 -0.089787 -6.22035 0
M  V30 10148 C 857.855 0.447224 -8.1878 0
M  V30 10149 O 857.465 -0.825159 -8.71201 0
M  V30 10150 C 856.975 0.783801 -6.99623 0
M  V30 10151 C 857.685 0.0619192 -5.85967 0
M  V30 10152 N 857.635 0.7859 -4.56281 0
M  V30 10153 C 857.485 0.0359258 -3.39981 0
M  V30 10154 O 857.395 -1.19723 -3.49038 0
M  V30 10155 N 857.435 0.869151 -2.14025 0
M  V30 10156 C 857.535 2.01207 -2.14363 0
M  V30 10157 N 857.485 2.58978 -0.954287 0
M  V30 10158 C 857.685 2.80817 -3.32215 0
M  V30 10159 C 857.735 2.13785 -4.50884 0
M  V30 10160 H 860.475 1.93401 -8.46693 0
M  V30 10161 H 860.745 1.68181 -6.71046 0
M  V30 10162 H 859.878 -0.289076 -8.15488 0
M  V30 10163 H 857.223 -0.927166 -5.72947 0
M  V30 10164 H 856.943 1.87 -6.82132 0
M  V30 10165 H 855.952 0.404009 -7.13457 0
M  V30 10166 H 857.786 1.20599 -8.97534 0
M  V30 10167 H 857.858 2.70295 -5.43162 0
M  V30 10168 H 857.756 3.89465 -3.27406 0
M  V30 10169 H 857.368 2.01616 -0.107046 0
M  V30 10170 H 857.564 3.61403 -0.873101 0
M  V30 10171 P 855.915 -1.17771 -8.83182 0
M  V30 10172 O 855.695 -2.07206 -9.98732 0
M  V30 10173 O 855.125 0.0743816 -8.81969 0
M  V30 10174 O 855.665 -1.97678 -7.474 0
M  V30 10175 C 856.605 -3.01133 -7.08783 0
M  V30 10176 C 855.875 -4.1203 -6.37546 0
M  V30 10177 O 855.665 -3.72887 -4.9796 0
M  V30 10178 C 854.475 -4.45085 -6.88694 0
M  V30 10179 O 854.085 -5.78836 -6.56315 0
M  V30 10180 C 853.595 -3.47817 -6.12078 0
M  V30 10181 C 854.305 -3.39414 -4.77697 0
M  V30 10182 N 854.255 -2.04615 -4.15333 0
M  V30 10183 C 854.105 -1.96929 -2.77162 0
M  V30 10184 O 854.015 -3.02017 -2.12006 0
M  V30 10185 N 854.055 -0.55485 -2.24237 0
M  V30 10186 C 854.155 0.367808 -2.9169 0
M  V30 10187 N 854.105 1.53426 -2.29427 0
M  V30 10188 C 854.305 0.319148 -4.33828 0
M  V30 10189 C 854.355 -0.920672 -4.90433 0
M  V30 10190 H 857.095 -3.41209 -7.98667 0
M  V30 10191 H 857.365 -2.5837 -6.41742 0
M  V30 10192 H 856.498 -5.02718 -6.42752 0
M  V30 10193 H 853.843 -4.11779 -4.09026 0
M  V30 10194 H 853.563 -2.49661 -6.61772 0
M  V30 10195 H 852.572 -3.86674 -6.00946 0
M  V30 10196 H 854.406 -4.29991 -7.97006 0
M  V30 10197 H 854.478 -1.00589 -5.98303 0
M  V30 10198 H 854.376 1.22639 -4.93799 0
M  V30 10199 H 853.988 1.56819 -1.27167 0
M  V30 10200 H 854.184 2.41062 -2.83063 0
M  V30 10201 P 852.535 -6.144 -6.45285 0
M  V30 10202 O 852.315 -7.54673 -6.86199 0
M  V30 10203 O 851.745 -5.12391 -7.179 0
M  V30 10204 O 852.285 -5.99236 -4.88467 0
M  V30 10205 C 853.225 -6.60234 -3.96415 0
M  V30 10206 C 852.495 -7.08079 -2.736 0
M  V30 10207 O 852.285 -5.94365 -1.8368 0
M  V30 10208 C 851.095 -7.64886 -2.9555 0
M  V30 10209 O 850.705 -8.5406 -1.90739 0
M  V30 10210 C 850.215 -6.4116 -2.90739 0
M  V30 10211 C 850.925 -5.55375 -1.86963 0
M  V30 10212 N 850.875 -4.09664 -2.15742 0
M  V30 10213 C 850.725 -3.22231 -1.08477 0
M  V30 10214 O 850.635 -3.68951 0.0600489 0
M  V30 10215 N 850.675 -1.76692 -1.48799 0
M  V30 10216 C 850.775 -1.41695 -2.57602 0
M  V30 10217 N 850.725 -0.107296 -2.75791 0
M  V30 10218 C 850.925 -2.29178 -3.69733 0
M  V30 10219 C 850.975 -3.62753 -3.42653 0
M  V30 10220 H 853.715 -7.45488 -4.45578 0
M  V30 10221 H 853.985 -5.86232 -3.67314 0
M  V30 10222 H 853.118 -7.84508 -2.24507 0
M  V30 10223 H 850.463 -5.73556 -0.888715 0
M  V30 10224 H 850.183 -5.9096 -3.88638 0
M  V30 10225 H 849.192 -6.66053 -2.58894 0
M  V30 10226 H 851.026 -8.16339 -3.92049 0
M  V30 10227 H 851.098 -4.33052 -4.24913 0
M  V30 10228 H 850.996 -1.9103 -4.71577 0
M  V30 10229 H 850.608 0.521221 -1.95056 0
M  V30 10230 H 850.804 0.286429 -3.70695 0
M  V30 10231 P 849.155 -8.7635 -1.60911 0
M  V30 10232 O 848.935 -10.1388 -1.11561 0
M  V30 10233 O 848.365 -8.36503 -2.79617 0
M  V30 10234 O 848.905 -7.71806 -0.42951 0
M  V30 10235 C 849.845 -7.67148 0.673689 0
M  V30 10236 C 849.115 -7.33374 1.95559 0
M  V30 10237 O 848.905 -5.88721 2.00726 0
M  V30 10238 C 847.715 -7.92526 2.10483 0
M  V30 10239 O 847.325 -8.02971 3.47653 0
M  V30 10240 C 846.835 -6.89602 1.41652 0
M  V30 10241 C 847.545 -5.59201 1.75185 0
M  V30 10242 N 847.495 -4.58235 0.662552 0
M  V30 10243 H 850.334 -8.65116 0.777161 0
M  V30 10244 H 850.606 -6.90173 0.474152 0
M  V30 10245 H 849.738 -7.66548 2.79458 0
M  V30 10246 P 845.775 -8.03563 3.84925 0
M  V30 10247 O 845.555 -8.85821 5.0569 0
M  V30 10248 O 844.985 -8.41101 2.65469 0
M  V30 10249 O 845.525 -6.49734 4.18962 0
M  V30 10250 C 846.465 -5.81037 5.05421 0
M  V30 10251 C 845.735 -4.79018 5.88876 0
M  V30 10252 O 845.525 -3.58359 5.08515 0
M  V30 10253 C 844.335 -5.17448 6.36119 0
M  V30 10254 O 843.945 -4.45322 7.53318 0
M  V30 10255 C 843.455 -4.74639 5.19936 0
M  V30 10256 C 844.165 -3.49432 4.70418 0
M  V30 10257 N 844.115 -3.31776 3.22945 0
M  V30 10258 C 843.965 -2.02742 2.72939 0
M  V30 10259 O 843.875 -1.08301 3.52749 0
M  V30 10260 N 843.915 -1.96117 1.22063 0
M  V30 10261 C 844.015 -2.8878 0.551566 0
M  V30 10262 N 843.965 -2.65609 -0.750198 0
M  V30 10263 C 844.165 -4.22457 1.03707 0
M  V30 10264 C 844.215 -4.37979 2.39113 0
M  V30 10265 H 846.955 -6.54138 5.7131 0
M  V30 10266 H 847.225 -5.30492 4.44033 0
M  V30 10267 H 846.358 -4.55945 6.76735 0
M  V30 10268 H 843.703 -2.6176 5.18021 0
M  V30 10269 H 843.423 -5.52233 4.41941 0
M  V30 10270 H 842.432 -4.52045 5.53452 0
M  V30 10271 H 844.266 -6.25124 6.55234 0
M  V30 10272 H 844.338 -5.37936 2.80552 0
M  V30 10273 H 844.236 -5.07528 0.359553 0
M  V30 10274 H 843.848 -1.69403 -1.09847 0
M  V30 10275 H 844.044 -3.43701 -1.41792 0
M  V30 10276 P 842.395 -4.23843 7.83734 0
M  V30 10277 O 842.175 -4.19407 9.29784 0
M  V30 10278 O 841.605 -5.24426 7.09156 0
M  V30 10279 O 842.145 -2.79386 7.20852 0
M  V30 10280 C 843.085 -1.7299 7.50419 0
M  V30 10281 C 842.355 -0.41401 7.5797 0
M  V30 10282 O 842.145 0.089787 6.22035 0
M  V30 10283 C 840.955 -0.447224 8.1878 0
M  V30 10284 O 840.565 0.825159 8.71201 0
M  V30 10285 C 840.075 -0.783801 6.99623 0
M  V30 10286 C 840.785 -0.0619192 5.85967 0
M  V30 10287 N 840.735 -0.7859 4.56281 0
M  V30 10288 C 840.585 -0.0359258 3.39981 0
M  V30 10289 O 840.495 1.19723 3.49038 0
M  V30 10290 N 840.535 -0.869151 2.14025 0
M  V30 10291 C 840.635 -2.01207 2.14363 0
M  V30 10292 N 840.585 -2.58978 0.954287 0
M  V30 10293 C 840.785 -2.80817 3.32215 0
M  V30 10294 C 840.835 -2.13785 4.50884 0
M  V30 10295 H 843.575 -1.93401 8.46693 0
M  V30 10296 H 843.845 -1.68181 6.71046 0
M  V30 10297 H 842.978 0.289076 8.15488 0
M  V30 10298 H 840.323 0.927166 5.72947 0
M  V30 10299 H 840.043 -1.87 6.82132 0
M  V30 10300 H 839.052 -0.404009 7.13457 0
M  V30 10301 H 840.886 -1.20599 8.97534 0
M  V30 10302 H 840.958 -2.70295 5.43162 0
M  V30 10303 H 840.856 -3.89465 3.27406 0
M  V30 10304 H 840.468 -2.01616 0.107046 0
M  V30 10305 H 840.664 -3.61403 0.873101 0
M  V30 10306 P 839.015 1.17771 8.83182 0
M  V30 10307 O 838.795 2.07206 9.98732 0
M  V30 10308 O 838.225 -0.0743816 8.81969 0
M  V30 10309 O 838.765 1.97678 7.474 0
M  V30 10310 C 839.705 3.01133 7.08783 0
M  V30 10311 C 838.975 4.1203 6.37546 0
M  V30 10312 O 838.765 3.72887 4.9796 0
M  V30 10313 C 837.575 4.45085 6.88694 0
M  V30 10314 O 837.185 5.78836 6.56315 0
M  V30 10315 C 836.695 3.47817 6.12078 0
M  V30 10316 C 837.405 3.39414 4.77697 0
M  V30 10317 N 837.355 2.04615 4.15333 0
M  V30 10318 C 837.205 1.96929 2.77162 0
M  V30 10319 O 837.115 3.02017 2.12006 0
M  V30 10320 N 837.155 0.55485 2.24237 0
M  V30 10321 C 837.255 -0.367808 2.9169 0
M  V30 10322 N 837.205 -1.53426 2.29427 0
M  V30 10323 C 837.405 -0.319148 4.33828 0
M  V30 10324 C 837.455 0.920672 4.90433 0
M  V30 10325 H 840.195 3.41209 7.98667 0
M  V30 10326 H 840.465 2.5837 6.41742 0
M  V30 10327 H 839.598 5.02718 6.42752 0
M  V30 10328 H 836.943 4.11779 4.09026 0
M  V30 10329 H 836.663 2.49661 6.61772 0
M  V30 10330 H 835.672 3.86674 6.00946 0
M  V30 10331 H 837.506 4.29991 7.97006 0
M  V30 10332 H 837.578 1.00589 5.98303 0
M  V30 10333 H 837.476 -1.22639 4.93799 0
M  V30 10334 H 837.088 -1.56819 1.27167 0
M  V30 10335 H 837.284 -2.41062 2.83063 0
M  V30 10336 P 835.635 6.144 6.45285 0
M  V30 10337 O 835.415 7.54673 6.86199 0
M  V30 10338 O 834.845 5.12391 7.179 0
M  V30 10339 O 835.385 5.99158 4.88404 0
M  V30 10340 C 836.325 6.60234 3.96415 0
M  V30 10341 C 835.595 7.08259 2.72856 0
M  V30 10342 O 835.385 5.9427 1.83651 0
M  V30 10343 C 834.195 7.64886 2.9555 0
M  V30 10344 O 833.805 8.53963 1.90717 0
M  V30 10345 C 833.315 6.4116 2.90739 0
M  V30 10346 C 834.025 5.55375 1.86963 0
M  V30 10347 N 833.975 4.09664 2.15742 0
M  V30 10348 C 834.055 3.44381 3.37233 0
M  V30 10349 N 833.975 2.14131 3.28347 0
M  V30 10350 C 833.835 1.90247 1.91588 0
M  V30 10351 C 833.705 0.683992 1.20892 0
M  V30 10352 N 833.585 0.903396 -0.173998 0
M  V30 10353 C 833.585 2.14171 -0.784879 0
M  V30 10354 N 833.455 2.1435 -2.11317 0
M  V30 10355 N 833.715 3.28784 -0.119316 0
M  V30 10356 C 833.835 3.0977 1.22194 0
M  V30 10357 H 836.814 7.45574 4.45629 0
M  V30 10358 H 837.086 5.86232 3.67314 0
M  V30 10359 H 836.218 7.84412 2.24479 0
M  V30 10360 P 832.255 8.7635 1.60911 0
M  V30 10361 O 832.035 10.1388 1.11561 0
M  V30 10362 O 831.465 8.36503 2.79617 0
M  V30 10363 O 832.005 7.71906 0.429565 0
M  V30 10364 C 832.945 7.67148 -0.673689 0
M  V30 10365 C 832.215 7.33666 -1.94851 0
M  V30 10366 O 832.005 5.88816 -2.00759 0
M  V30 10367 C 830.815 7.92526 -2.10483 0
M  V30 10368 O 830.425 8.03063 -3.47693 0
M  V30 10369 C 829.935 6.89602 -1.41652 0
M  V30 10370 C 830.645 5.59201 -1.75185 0
M  V30 10371 N 830.595 4.58235 -0.662552 0
M  V30 10372 C 830.445 3.24451 -1.01643 0
M  V30 10373 O 830.355 2.94958 -2.21722 0
M  V30 10374 N 830.395 2.30408 0.165238 0
M  V30 10375 C 830.495 2.66048 1.25118 0
M  V30 10376 N 830.445 1.70787 2.16813 0
M  V30 10377 C 830.645 4.02732 1.64413 0
M  V30 10378 C 830.695 4.9488 0.63991 0
M  V30 10379 H 833.435 8.65017 -0.777072 0
M  V30 10380 H 833.705 6.90173 -0.474152 0
M  V30 10381 H 832.838 7.66642 -2.79492 0
M  V30 10382 H 830.183 5.16254 -2.65229 0
M  V30 10383 H 829.903 7.06532 -0.329431 0
M  V30 10384 H 828.912 6.91023 -1.82047 0
M  V30 10385 H 830.746 8.90873 -1.62657 0
M  V30 10386 H 830.818 6.00104 0.892197 0
M  V30 10387 H 830.716 4.31733 2.69229 0
M  V30 10388 H 830.328 0.724835 1.8844 0
M  V30 10389 H 830.524 1.94716 3.16734 0
M  V30 10390 P 828.875 8.03563 -3.84925 0
M  V30 10391 O 828.655 8.85821 -5.0569 0
M  V30 10392 O 828.085 8.41101 -2.65469 0
M  V30 10393 O 828.625 6.4965 -4.18908 0
M  V30 10394 C 829.565 5.81037 -5.05421 0
M  V30 10395 C 828.835 4.78366 -5.89277 0
M  V30 10396 O 828.625 3.58302 -5.08433 0
M  V30 10397 C 827.435 5.17448 -6.36119 0
M  V30 10398 O 827.045 4.45271 -7.53232 0
M  V30 10399 C 826.555 4.74639 -5.19936 0
M  V30 10400 C 827.265 3.49432 -4.70418 0
M  V30 10401 N 827.215 3.31776 -3.22945 0
M  V30 10402 H 830.054 6.54213 -5.71376 0
M  V30 10403 H 830.326 5.30492 -4.44033 0
M  V30 10404 H 829.458 4.55889 -6.76652 0
M  V30 10405 P 825.495 4.23843 -7.83734 0
M  V30 10406 O 825.275 4.19407 -9.29784 0
M  V30 10407 O 824.705 5.24426 -7.09156 0
M  V30 10408 O 825.245 2.7935 -7.20758 0
M  V30 10409 C 826.185 1.7299 -7.50419 0
M  V30 10410 C 825.455 0.406376 -7.57911 0
M  V30 10411 O 825.245 -0.0897726 -6.21935 0
M  V30 10412 C 824.055 0.447224 -8.1878 0
M  V30 10413 O 823.665 -0.825065 -8.71101 0
M  V30 10414 C 823.175 0.783801 -6.99623 0
M  V30 10415 C 823.885 0.0619192 -5.85967 0
M  V30 10416 N 823.835 0.7859 -4.56281 0
M  V30 10417 C 823.915 2.14308 -4.31736 0
M  V30 10418 N 823.835 2.46106 -3.05116 0
M  V30 10419 C 823.695 1.23422 -2.4014 0
M  V30 10420 C 823.565 0.938381 -1.02409 0
M  V30 10421 N 823.445 -0.444647 -0.805413 0
M  V30 10422 C 823.445 -1.40829 -1.79435 0
M  V30 10423 N 823.315 -2.67213 -1.38558 0
M  V30 10424 N 823.575 -1.12947 -3.09005 0
M  V30 10425 C 823.695 0.204887 -3.32369 0
M  V30 10426 H 826.674 1.93423 -8.4679 0
M  V30 10427 H 826.946 1.68181 -6.71046 0
M  V30 10428 H 826.078 -0.289041 -8.15388 0
M  V30 10429 P 822.115 -1.17771 -8.83182 0
M  V30 10430 O 821.895 -2.07206 -9.98732 0
M  V30 10431 O 821.325 0.0743816 -8.81969 0
M  V30 10432 O 821.865 -1.97678 -7.474 0
M  V30 10433 C 822.805 -3.01133 -7.08783 0
M  V30 10434 C 822.075 -4.1203 -6.37546 0
M  V30 10435 O 821.865 -3.72887 -4.9796 0
M  V30 10436 C 820.675 -4.45085 -6.88694 0
M  V30 10437 O 820.285 -5.78836 -6.56315 0
M  V30 10438 C 819.795 -3.47817 -6.12078 0
M  V30 10439 C 820.505 -3.39414 -4.77697 0
M  V30 10440 N 820.455 -2.04615 -4.15333 0
M  V30 10441 C 820.305 -1.96929 -2.77162 0
M  V30 10442 O 820.215 -3.02017 -2.12006 0
M  V30 10443 N 820.255 -0.55485 -2.24237 0
M  V30 10444 C 820.355 0.367808 -2.9169 0
M  V30 10445 N 820.305 1.53426 -2.29427 0
M  V30 10446 C 820.505 0.319148 -4.33828 0
M  V30 10447 C 820.555 -0.920672 -4.90433 0
M  V30 10448 H 823.295 -3.41209 -7.98667 0
M  V30 10449 H 823.565 -2.5837 -6.41742 0
M  V30 10450 H 822.698 -5.02718 -6.42752 0
M  V30 10451 H 820.043 -4.11779 -4.09026 0
M  V30 10452 H 819.763 -2.49661 -6.61772 0
M  V30 10453 H 818.772 -3.86674 -6.00946 0
M  V30 10454 H 820.606 -4.29991 -7.97006 0
M  V30 10455 H 820.678 -1.00589 -5.98303 0
M  V30 10456 H 820.576 1.22639 -4.93799 0
M  V30 10457 H 820.188 1.56819 -1.27167 0
M  V30 10458 H 820.384 2.41062 -2.83063 0
M  V30 10459 P 818.735 -6.144 -6.45285 0
M  V30 10460 O 818.515 -7.54673 -6.86199 0
M  V30 10461 O 817.945 -5.12391 -7.179 0
M  V30 10462 O 818.485 -5.99158 -4.88404 0
M  V30 10463 C 819.425 -6.60234 -3.96415 0
M  V30 10464 C 818.695 -7.08259 -2.72856 0
M  V30 10465 O 818.485 -5.9427 -1.83651 0
M  V30 10466 C 817.295 -7.64886 -2.9555 0
M  V30 10467 O 816.905 -8.53963 -1.90717 0
M  V30 10468 C 816.415 -6.4116 -2.90739 0
M  V30 10469 C 817.125 -5.55375 -1.86963 0
M  V30 10470 N 817.075 -4.09448 -2.16152 0
M  V30 10471 H 819.914 -7.45574 -4.45629 0
M  V30 10472 H 820.186 -5.85864 -3.679 0
M  V30 10473 H 819.318 -7.84412 -2.24479 0
M  V30 10474 H 816.663 -5.73457 -0.888562 0
M  V30 10475 H 816.383 -5.90877 -3.88583 0
M  V30 10476 H 815.392 -6.6596 -2.58858 0
M  V30 10477 H 817.226 -8.16339 -3.92049 0
M  V30 10478 P 815.355 -8.7635 -1.60911 0
M  V30 10479 O 815.135 -10.1388 -1.11561 0
M  V30 10480 O 814.565 -8.36503 -2.79617 0
M  V30 10481 O 815.105 -7.71906 -0.429565 0
M  V30 10482 C 816.045 -7.67148 0.673689 0
M  V30 10483 C 815.315 -7.33666 1.94851 0
M  V30 10484 O 815.105 -5.88816 2.00759 0
M  V30 10485 C 813.915 -7.92526 2.10483 0
M  V30 10486 O 813.525 -8.03063 3.47693 0
M  V30 10487 C 813.035 -6.89602 1.41652 0
M  V30 10488 C 813.745 -5.59201 1.75185 0
M  V30 10489 N 813.695 -4.58235 0.662552 0
M  V30 10490 C 813.545 -3.24451 1.01643 0
M  V30 10491 O 813.455 -2.94958 2.21722 0
M  V30 10492 N 813.495 -2.30408 -0.165238 0
M  V30 10493 C 813.595 -2.66048 -1.25118 0
M  V30 10494 N 813.545 -1.70787 -2.16813 0
M  V30 10495 C 813.745 -4.02732 -1.64413 0
M  V30 10496 C 813.795 -4.9488 -0.63991 0
M  V30 10497 H 816.535 -8.65017 0.777072 0
M  V30 10498 H 816.805 -6.90173 0.474152 0
M  V30 10499 H 815.938 -7.66642 2.79492 0
M  V30 10500 H 813.283 -5.16254 2.65229 0
M  V30 10501 H 813.003 -7.06532 0.329431 0
M  V30 10502 H 812.012 -6.91023 1.82047 0
M  V30 10503 H 813.846 -8.90873 1.62657 0
M  V30 10504 H 813.918 -6.00104 -0.892197 0
M  V30 10505 H 813.816 -4.31733 -2.69229 0
M  V30 10506 H 813.428 -0.724835 -1.8844 0
M  V30 10507 H 813.624 -1.94716 -3.16734 0
M  V30 10508 P 811.975 -8.03563 3.84925 0
M  V30 10509 O 811.755 -8.85821 5.0569 0
M  V30 10510 O 811.185 -8.41101 2.65469 0
M  V30 10511 O 811.725 -6.4965 4.18908 0
M  V30 10512 C 812.665 -5.81037 5.05421 0
M  V30 10513 C 811.935 -4.78366 5.89277 0
M  V30 10514 O 811.725 -3.58302 5.08433 0
M  V30 10515 C 810.535 -5.17448 6.36119 0
M  V30 10516 O 810.145 -4.45271 7.53232 0
M  V30 10517 C 809.655 -4.74639 5.19936 0
M  V30 10518 C 810.365 -3.49432 4.70418 0
M  V30 10519 N 810.315 -3.31776 3.22945 0
M  V30 10520 H 813.154 -6.54213 5.71376 0
M  V30 10521 H 813.426 -5.30492 4.44033 0
M  V30 10522 H 812.558 -4.55889 6.76652 0
M  V30 10523 P 808.595 -4.23843 7.83734 0
M  V30 10524 O 808.375 -4.19407 9.29784 0
M  V30 10525 O 807.805 -5.24426 7.09156 0
M  V30 10526 O 808.345 -2.79386 7.20852 0
M  V30 10527 C 809.285 -1.7299 7.50419 0
M  V30 10528 C 808.555 -0.41401 7.5797 0
M  V30 10529 O 808.345 0.089787 6.22035 0
M  V30 10530 C 807.155 -0.447224 8.1878 0
M  V30 10531 O 806.765 0.825159 8.71201 0
M  V30 10532 C 806.275 -0.783801 6.99623 0
M  V30 10533 C 806.985 -0.0619192 5.85967 0
M  V30 10534 N 806.935 -0.7859 4.56281 0
M  V30 10535 C 806.785 -0.0359258 3.39981 0
M  V30 10536 O 806.695 1.19723 3.49038 0
M  V30 10537 N 806.735 -0.869151 2.14025 0
M  V30 10538 C 806.835 -2.01207 2.14363 0
M  V30 10539 N 806.785 -2.58978 0.954287 0
M  V30 10540 C 806.985 -2.80817 3.32215 0
M  V30 10541 C 807.035 -2.13785 4.50884 0
M  V30 10542 H 809.775 -1.93401 8.46693 0
M  V30 10543 H 810.045 -1.68181 6.71046 0
M  V30 10544 H 809.178 0.289076 8.15488 0
M  V30 10545 H 806.523 0.927166 5.72947 0
M  V30 10546 H 806.243 -1.87 6.82132 0
M  V30 10547 H 805.252 -0.404009 7.13457 0
M  V30 10548 H 807.086 -1.20599 8.97534 0
M  V30 10549 H 807.158 -2.70295 5.43162 0
M  V30 10550 H 807.056 -3.89465 3.27406 0
M  V30 10551 H 806.668 -2.01616 0.107046 0
M  V30 10552 H 806.864 -3.61403 0.873101 0
M  V30 10553 P 805.215 1.17771 8.83182 0
M  V30 10554 O 804.995 2.07206 9.98732 0
M  V30 10555 O 804.425 -0.0743816 8.81969 0
M  V30 10556 O 804.965 1.97652 7.47304 0
M  V30 10557 C 805.905 3.01055 7.08599 0
M  V30 10558 C 805.175 4.12613 6.37049 0
M  V30 10559 O 804.965 3.72827 4.97879 0
M  V30 10560 C 803.775 4.45719 6.88164 0
M  V30 10561 O 803.385 5.7877 6.5624 0
M  V30 10562 C 802.895 3.47768 6.11991 0
M  V30 10563 C 803.605 3.39356 4.77615 0
M  V30 10564 N 803.555 2.04571 4.15244 0
M  V30 10565 C 803.405 1.98587 2.78314 0
M  V30 10566 O 803.315 2.98134 2.08835 0
M  V30 10567 N 803.365 0.714467 2.24925 0
M  V30 10568 C 803.455 -0.470001 2.94169 0
M  V30 10569 C 803.605 -0.312541 4.36783 0
M  V30 10570 C 803.655 0.914512 4.92583 0
M  V30 10571 H 806.396 3.41169 7.98575 0
M  V30 10572 H 806.665 2.58295 6.41556 0
M  V30 10573 H 805.798 5.02657 6.42673 0
M  V30 10574 H 803.143 4.11637 4.08885 0
M  V30 10575 H 802.864 2.49626 6.61679 0
M  V30 10576 H 801.872 3.86566 6.00778 0
M  V30 10577 H 803.706 4.29943 7.96918 0
M  V30 10578 H 803.777 1.00937 6.00374 0
M  V30 10579 P 801.835 6.144 6.45285 0
M  V30 10580 O 801.615 7.54673 6.86199 0
M  V30 10581 O 801.045 5.12391 7.179 0
M  V30 10582 O 801.585 5.99236 4.88467 0
M  V30 10583 C 802.525 6.60234 3.96415 0
M  V30 10584 C 801.795 7.08079 2.736 0
M  V30 10585 O 801.585 5.94365 1.8368 0
M  V30 10586 C 800.395 7.64886 2.9555 0
M  V30 10587 O 800.005 8.5406 1.90739 0
M  V30 10588 C 799.515 6.4116 2.90739 0
M  V30 10589 C 800.225 5.55375 1.86963 0
M  V30 10590 N 800.175 4.09664 2.15742 0
M  V30 10591 C 800.025 3.22231 1.08477 0
M  V30 10592 O 799.935 3.68951 -0.0600489 0
M  V30 10593 N 799.975 1.76692 1.48799 0
M  V30 10594 C 800.075 1.41695 2.57602 0
M  V30 10595 N 800.025 0.107296 2.75791 0
M  V30 10596 C 800.225 2.29178 3.69733 0
M  V30 10597 C 800.275 3.62753 3.42653 0
M  V30 10598 H 803.015 7.45488 4.45578 0
M  V30 10599 H 803.285 5.86232 3.67314 0
M  V30 10600 H 802.418 7.84508 2.24507 0
M  V30 10601 H 799.763 5.73556 0.888715 0
M  V30 10602 H 799.483 5.9096 3.88638 0
M  V30 10603 H 798.492 6.66053 2.58894 0
M  V30 10604 H 800.326 8.16339 3.92049 0
M  V30 10605 H 800.398 4.33052 4.24913 0
M  V30 10606 H 800.296 1.9103 4.71577 0
M  V30 10607 H 799.908 -0.521221 1.95056 0
M  V30 10608 H 800.104 -0.286429 3.70695 0
M  V30 10609 P 798.455 8.7635 1.60911 0
M  V30 10610 O 798.235 10.1388 1.11561 0
M  V30 10611 O 797.665 8.36503 2.79617 0
M  V30 10612 O 798.205 7.71806 0.42951 0
M  V30 10613 C 799.145 7.67148 -0.673689 0
M  V30 10614 C 798.415 7.33374 -1.95559 0
M  V30 10615 O 798.205 5.88721 -2.00726 0
M  V30 10616 C 797.015 7.92526 -2.10483 0
M  V30 10617 O 796.625 8.02971 -3.47653 0
M  V30 10618 C 796.135 6.89602 -1.41652 0
M  V30 10619 C 796.845 5.59201 -1.75185 0
M  V30 10620 N 796.795 4.58301 -0.657969 0
M  V30 10621 H 799.634 8.65116 -0.777161 0
M  V30 10622 H 799.906 6.9022 -0.46725 0
M  V30 10623 H 799.038 7.66548 -2.79458 0
M  V30 10624 H 796.383 5.16165 -2.65183 0
M  V30 10625 H 796.103 7.06433 -0.329384 0
M  V30 10626 H 795.112 6.90926 -1.82021 0
M  V30 10627 H 796.946 8.90873 -1.62657 0
M  V30 10628 P 795.075 8.03563 -3.84925 0
M  V30 10629 O 794.855 8.85821 -5.0569 0
M  V30 10630 O 794.285 8.41101 -2.65469 0
M  V30 10631 O 794.825 6.49734 -4.18962 0
M  V30 10632 C 795.765 5.81037 -5.05421 0
M  V30 10633 C 795.035 4.79018 -5.88876 0
M  V30 10634 O 794.825 3.58359 -5.08515 0
M  V30 10635 C 793.635 5.17448 -6.36119 0
M  V30 10636 O 793.245 4.45322 -7.53318 0
M  V30 10637 C 792.755 4.74639 -5.19936 0
M  V30 10638 C 793.465 3.49432 -4.70418 0
M  V30 10639 N 793.415 3.31776 -3.22945 0
M  V30 10640 C 793.265 2.02742 -2.72939 0
M  V30 10641 O 793.175 1.08301 -3.52749 0
M  V30 10642 N 793.215 1.96117 -1.22063 0
M  V30 10643 C 793.315 2.8878 -0.551566 0
M  V30 10644 N 793.265 2.65609 0.750198 0
M  V30 10645 C 793.465 4.22457 -1.03707 0
M  V30 10646 C 793.515 4.37979 -2.39113 0
M  V30 10647 H 796.255 6.54138 -5.7131 0
M  V30 10648 H 796.525 5.30492 -4.44033 0
M  V30 10649 H 795.658 4.55945 -6.76735 0
M  V30 10650 H 793.003 2.6176 -5.18021 0
M  V30 10651 H 792.723 5.52233 -4.41941 0
M  V30 10652 H 791.732 4.52045 -5.53452 0
M  V30 10653 H 793.566 6.25124 -6.55234 0
M  V30 10654 H 793.638 5.37936 -2.80552 0
M  V30 10655 H 793.536 5.07528 -0.359553 0
M  V30 10656 H 793.148 1.69403 1.09847 0
M  V30 10657 H 793.344 3.43701 1.41792 0
M  V30 10658 P 791.695 4.23843 -7.83734 0
M  V30 10659 O 791.475 4.19407 -9.29784 0
M  V30 10660 O 790.905 5.24426 -7.09156 0
M  V30 10661 O 791.445 2.7935 -7.20758 0
M  V30 10662 C 792.385 1.7299 -7.50419 0
M  V30 10663 C 791.655 0.406376 -7.57911 0
M  V30 10664 O 791.445 -0.0897726 -6.21935 0
M  V30 10665 C 790.255 0.447224 -8.1878 0
M  V30 10666 O 789.865 -0.825065 -8.71101 0
M  V30 10667 C 789.375 0.783801 -6.99623 0
M  V30 10668 C 790.085 0.0619192 -5.85967 0
M  V30 10669 N 790.035 0.7859 -4.56281 0
M  V30 10670 C 790.115 2.14308 -4.31736 0
M  V30 10671 N 790.035 2.46106 -3.05116 0
M  V30 10672 C 789.895 1.23422 -2.4014 0
M  V30 10673 C 789.765 0.938381 -1.02409 0
M  V30 10674 N 789.645 -0.444647 -0.805413 0
M  V30 10675 C 789.645 -1.40829 -1.79435 0
M  V30 10676 N 789.515 -2.67213 -1.38558 0
M  V30 10677 N 789.775 -1.12947 -3.09005 0
M  V30 10678 C 789.895 0.204887 -3.32369 0
M  V30 10679 H 792.874 1.93423 -8.4679 0
M  V30 10680 H 793.146 1.68181 -6.71046 0
M  V30 10681 H 792.278 -0.289041 -8.15388 0
M  V30 10682 P 788.315 -1.17771 -8.83182 0
M  V30 10683 O 788.095 -2.07206 -9.98732 0
M  V30 10684 O 787.525 0.0743816 -8.81969 0
M  V30 10685 O 788.065 -1.97678 -7.474 0
M  V30 10686 C 789.005 -3.01133 -7.08783 0
M  V30 10687 C 788.275 -4.1203 -6.37546 0
M  V30 10688 O 788.065 -3.72887 -4.9796 0
M  V30 10689 C 786.875 -4.45085 -6.88694 0
M  V30 10690 O 786.485 -5.78836 -6.56315 0
M  V30 10691 C 785.995 -3.47817 -6.12078 0
M  V30 10692 C 786.705 -3.39414 -4.77697 0
M  V30 10693 N 786.655 -2.04615 -4.15333 0
M  V30 10694 C 786.505 -1.96929 -2.77162 0
M  V30 10695 O 786.415 -3.02017 -2.12006 0
M  V30 10696 N 786.455 -0.55485 -2.24237 0
M  V30 10697 C 786.555 0.367808 -2.9169 0
M  V30 10698 N 786.505 1.53426 -2.29427 0
M  V30 10699 C 786.705 0.319148 -4.33828 0
M  V30 10700 C 786.755 -0.920672 -4.90433 0
M  V30 10701 H 789.495 -3.41209 -7.98667 0
M  V30 10702 H 789.765 -2.5837 -6.41742 0
M  V30 10703 H 788.898 -5.02718 -6.42752 0
M  V30 10704 H 786.243 -4.11779 -4.09026 0
M  V30 10705 H 785.963 -2.49661 -6.61772 0
M  V30 10706 H 784.972 -3.86674 -6.00946 0
M  V30 10707 H 786.806 -4.29991 -7.97006 0
M  V30 10708 H 786.878 -1.00589 -5.98303 0
M  V30 10709 H 786.776 1.22639 -4.93799 0
M  V30 10710 H 786.388 1.56819 -1.27167 0
M  V30 10711 H 786.584 2.41062 -2.83063 0
M  V30 10712 P 784.935 -6.144 -6.45285 0
M  V30 10713 O 784.715 -7.54673 -6.86199 0
M  V30 10714 O 784.145 -5.12391 -7.179 0
M  V30 10715 O 784.685 -5.99158 -4.88404 0
M  V30 10716 C 785.625 -6.60234 -3.96415 0
M  V30 10717 C 784.895 -7.08259 -2.72856 0
M  V30 10718 O 784.685 -5.9427 -1.83651 0
M  V30 10719 C 783.495 -7.64886 -2.9555 0
M  V30 10720 O 783.105 -8.53963 -1.90717 0
M  V30 10721 C 782.615 -6.4116 -2.90739 0
M  V30 10722 C 783.325 -5.55375 -1.86963 0
M  V30 10723 N 783.275 -4.09448 -2.16152 0
M  V30 10724 H 786.114 -7.45574 -4.45629 0
M  V30 10725 H 786.386 -5.85864 -3.679 0
M  V30 10726 H 785.518 -7.84412 -2.24479 0
M  V30 10727 H 782.863 -5.73457 -0.888562 0
M  V30 10728 H 782.583 -5.90877 -3.88583 0
M  V30 10729 H 781.592 -6.6596 -2.58858 0
M  V30 10730 H 783.426 -8.16339 -3.92049 0
M  V30 10731 P 781.555 -8.7635 -1.60911 0
M  V30 10732 O 781.335 -10.1388 -1.11561 0
M  V30 10733 O 780.765 -8.36503 -2.79617 0
M  V30 10734 O 781.305 -7.71806 -0.42951 0
M  V30 10735 C 782.245 -7.67148 0.673689 0
M  V30 10736 C 781.515 -7.33374 1.95559 0
M  V30 10737 O 781.305 -5.88721 2.00726 0
M  V30 10738 C 780.115 -7.92526 2.10483 0
M  V30 10739 O 779.725 -8.02971 3.47653 0
M  V30 10740 C 779.235 -6.89602 1.41652 0
M  V30 10741 C 779.945 -5.59201 1.75185 0
M  V30 10742 N 779.895 -4.58301 0.657969 0
M  V30 10743 H 782.734 -8.65116 0.777161 0
M  V30 10744 H 783.006 -6.9022 0.46725 0
M  V30 10745 H 782.138 -7.66548 2.79458 0
M  V30 10746 H 779.483 -5.16165 2.65183 0
M  V30 10747 H 779.203 -7.06433 0.329384 0
M  V30 10748 H 778.212 -6.90926 1.82021 0
M  V30 10749 H 780.046 -8.90873 1.62657 0
M  V30 10750 P 778.175 -8.03563 3.84925 0
M  V30 10751 O 777.955 -8.85821 5.0569 0
M  V30 10752 O 777.385 -8.41101 2.65469 0
M  V30 10753 O 777.925 -6.49734 4.18962 0
M  V30 10754 C 778.865 -5.81037 5.05421 0
M  V30 10755 C 778.135 -4.79018 5.88876 0
M  V30 10756 O 777.925 -3.58359 5.08515 0
M  V30 10757 C 776.735 -5.17448 6.36119 0
M  V30 10758 O 776.345 -4.45322 7.53318 0
M  V30 10759 C 775.855 -4.74639 5.19936 0
M  V30 10760 C 776.565 -3.49432 4.70418 0
M  V30 10761 N 776.515 -3.31776 3.22945 0
M  V30 10762 C 776.365 -2.02742 2.72939 0
M  V30 10763 O 776.275 -1.08301 3.52749 0
M  V30 10764 N 776.315 -1.96117 1.22063 0
M  V30 10765 C 776.415 -2.8878 0.551566 0
M  V30 10766 N 776.365 -2.65609 -0.750198 0
M  V30 10767 C 776.565 -4.22457 1.03707 0
M  V30 10768 C 776.615 -4.37979 2.39113 0
M  V30 10769 H 779.355 -6.54138 5.7131 0
M  V30 10770 H 779.625 -5.30492 4.44033 0
M  V30 10771 H 778.758 -4.55945 6.76735 0
M  V30 10772 H 776.103 -2.6176 5.18021 0
M  V30 10773 H 775.823 -5.52233 4.41941 0
M  V30 10774 H 774.832 -4.52045 5.53452 0
M  V30 10775 H 776.666 -6.25124 6.55234 0
M  V30 10776 H 776.738 -5.37936 2.80552 0
M  V30 10777 H 776.636 -5.07528 0.359553 0
M  V30 10778 H 776.248 -1.69403 -1.09847 0
M  V30 10779 H 776.444 -3.43701 -1.41792 0
M  V30 10780 P 774.795 -4.23843 7.83734 0
M  V30 10781 O 774.575 -4.19407 9.29784 0
M  V30 10782 O 774.005 -5.24426 7.09156 0
M  V30 10783 O 774.545 -2.79386 7.20852 0
M  V30 10784 C 775.485 -1.7299 7.50419 0
M  V30 10785 C 774.755 -0.41401 7.5797 0
M  V30 10786 O 774.545 0.089787 6.22035 0
M  V30 10787 C 773.355 -0.447224 8.1878 0
M  V30 10788 O 772.965 0.825159 8.71201 0
M  V30 10789 C 772.475 -0.783801 6.99623 0
M  V30 10790 C 773.185 -0.0619192 5.85967 0
M  V30 10791 N 773.135 -0.7859 4.56281 0
M  V30 10792 C 772.985 -0.0359258 3.39981 0
M  V30 10793 O 772.895 1.19723 3.49038 0
M  V30 10794 N 772.935 -0.869151 2.14025 0
M  V30 10795 C 773.035 -2.01207 2.14363 0
M  V30 10796 N 772.985 -2.58978 0.954287 0
M  V30 10797 C 773.185 -2.80817 3.32215 0
M  V30 10798 C 773.235 -2.13785 4.50884 0
M  V30 10799 H 775.975 -1.93401 8.46693 0
M  V30 10800 H 776.245 -1.68181 6.71046 0
M  V30 10801 H 775.378 0.289076 8.15488 0
M  V30 10802 H 772.723 0.927166 5.72947 0
M  V30 10803 H 772.443 -1.87 6.82132 0
M  V30 10804 H 771.452 -0.404009 7.13457 0
M  V30 10805 H 773.286 -1.20599 8.97534 0
M  V30 10806 H 773.358 -2.70295 5.43162 0
M  V30 10807 H 773.256 -3.89465 3.27406 0
M  V30 10808 H 772.868 -2.01616 0.107046 0
M  V30 10809 H 773.064 -3.61403 0.873101 0
M  V30 10810 P 771.415 1.17771 8.83182 0
M  V30 10811 O 771.195 2.07206 9.98732 0
M  V30 10812 O 770.625 -0.0743816 8.81969 0
M  V30 10813 O 771.165 1.97652 7.47304 0
M  V30 10814 C 772.105 3.01055 7.08599 0
M  V30 10815 C 771.375 4.12613 6.37049 0
M  V30 10816 O 771.165 3.72827 4.97879 0
M  V30 10817 C 769.975 4.45719 6.88164 0
M  V30 10818 O 769.585 5.7877 6.5624 0
M  V30 10819 C 769.095 3.47768 6.11991 0
M  V30 10820 C 769.805 3.39356 4.77615 0
M  V30 10821 N 769.755 2.04571 4.15244 0
M  V30 10822 C 769.605 1.98587 2.78314 0
M  V30 10823 O 769.515 2.98134 2.08835 0
M  V30 10824 N 769.565 0.714467 2.24925 0
M  V30 10825 C 769.655 -0.470001 2.94169 0
M  V30 10826 C 769.805 -0.312541 4.36783 0
M  V30 10827 C 769.855 0.914512 4.92583 0
M  V30 10828 H 772.596 3.41169 7.98575 0
M  V30 10829 H 772.865 2.58295 6.41556 0
M  V30 10830 H 771.998 5.02657 6.42673 0
M  V30 10831 H 769.343 4.11637 4.08885 0
M  V30 10832 H 769.064 2.49626 6.61679 0
M  V30 10833 H 768.072 3.86566 6.00778 0
M  V30 10834 H 769.906 4.29943 7.96918 0
M  V30 10835 H 769.977 1.00937 6.00374 0
M  V30 10836 P 768.035 6.144 6.45285 0
M  V30 10837 O 767.815 7.54673 6.86199 0
M  V30 10838 O 767.245 5.12391 7.179 0
M  V30 10839 O 767.785 5.99158 4.88404 0
M  V30 10840 C 768.725 6.60234 3.96415 0
M  V30 10841 C 767.995 7.08259 2.72856 0
M  V30 10842 O 767.785 5.9427 1.83651 0
M  V30 10843 C 766.595 7.64886 2.9555 0
M  V30 10844 O 766.205 8.53963 1.90717 0
M  V30 10845 C 765.715 6.4116 2.90739 0
M  V30 10846 C 766.425 5.55375 1.86963 0
M  V30 10847 N 766.375 4.09664 2.15742 0
M  V30 10848 H 769.214 7.45574 4.45629 0
M  V30 10849 H 769.486 5.86232 3.67314 0
M  V30 10850 H 768.618 7.84412 2.24479 0
M  V30 10851 P 764.656 8.7635 1.60911 0
M  V30 10852 O 764.436 10.1388 1.11561 0
M  V30 10853 O 763.866 8.36503 2.79617 0
M  V30 10854 O 764.406 7.71806 0.42951 0
M  V30 10855 C 765.346 7.67148 -0.673689 0
M  V30 10856 C 764.616 7.33374 -1.95559 0
M  V30 10857 O 764.406 5.88721 -2.00726 0
M  V30 10858 C 763.216 7.92526 -2.10483 0
M  V30 10859 O 762.826 8.02971 -3.47653 0
M  V30 10860 C 762.336 6.89602 -1.41652 0
M  V30 10861 C 763.046 5.59201 -1.75185 0
M  V30 10862 N 762.996 4.58235 -0.662552 0
M  V30 10863 H 765.835 8.65116 -0.777161 0
M  V30 10864 H 766.107 6.90173 -0.474152 0
M  V30 10865 H 765.239 7.66548 -2.79458 0
M  V30 10866 P 761.276 8.03563 -3.84925 0
M  V30 10867 O 761.056 8.85821 -5.0569 0
M  V30 10868 O 760.486 8.41101 -2.65469 0
M  V30 10869 O 761.026 6.4965 -4.18908 0
M  V30 10870 C 761.966 5.81037 -5.05421 0
M  V30 10871 C 761.236 4.78366 -5.89277 0
M  V30 10872 O 761.026 3.58302 -5.08433 0
M  V30 10873 C 759.836 5.17448 -6.36119 0
M  V30 10874 O 759.446 4.45271 -7.53232 0
M  V30 10875 C 758.956 4.74639 -5.19936 0
M  V30 10876 C 759.666 3.49432 -4.70418 0
M  V30 10877 N 759.616 3.32099 -3.22613 0
M  V30 10878 H 762.455 6.54213 -5.71376 0
M  V30 10879 H 762.727 5.30936 -4.43503 0
M  V30 10880 H 761.859 4.55889 -6.76652 0
M  V30 10881 H 759.204 2.61715 -5.17932 0
M  V30 10882 H 758.924 5.52155 -4.41878 0
M  V30 10883 H 757.933 4.51981 -5.53374 0
M  V30 10884 H 759.767 6.25124 -6.55234 0
M  V30 10885 P 757.896 4.23843 -7.83734 0
M  V30 10886 O 757.676 4.19407 -9.29784 0
M  V30 10887 O 757.106 5.24426 -7.09156 0
M  V30 10888 O 757.646 2.79386 -7.20852 0
M  V30 10889 C 758.586 1.7299 -7.50419 0
M  V30 10890 C 757.856 0.41401 -7.5797 0
M  V30 10891 O 757.646 -0.089787 -6.22035 0
M  V30 10892 C 756.456 0.447224 -8.1878 0
M  V30 10893 O 756.066 -0.825159 -8.71201 0
M  V30 10894 C 755.576 0.783801 -6.99623 0
M  V30 10895 C 756.286 0.0619192 -5.85967 0
M  V30 10896 N 756.236 0.7859 -4.56281 0
M  V30 10897 C 756.086 0.0359258 -3.39981 0
M  V30 10898 O 755.996 -1.19723 -3.49038 0
M  V30 10899 N 756.036 0.869151 -2.14025 0
M  V30 10900 C 756.136 2.01207 -2.14363 0
M  V30 10901 N 756.086 2.58978 -0.954287 0
M  V30 10902 C 756.286 2.80817 -3.32215 0
M  V30 10903 C 756.336 2.13785 -4.50884 0
M  V30 10904 H 759.076 1.93401 -8.46693 0
M  V30 10905 H 759.346 1.68181 -6.71046 0
M  V30 10906 H 758.479 -0.289076 -8.15488 0
M  V30 10907 H 755.824 -0.927166 -5.72947 0
M  V30 10908 H 755.544 1.87 -6.82132 0
M  V30 10909 H 754.553 0.404009 -7.13457 0
M  V30 10910 H 756.387 1.20599 -8.97534 0
M  V30 10911 H 756.459 2.70295 -5.43162 0
M  V30 10912 H 756.357 3.89465 -3.27406 0
M  V30 10913 H 755.969 2.01616 -0.107046 0
M  V30 10914 H 756.165 3.61403 -0.873101 0
M  V30 10915 P 754.516 -1.17771 -8.83182 0
M  V30 10916 O 754.296 -2.07206 -9.98732 0
M  V30 10917 O 753.726 0.0743816 -8.81969 0
M  V30 10918 O 754.266 -1.97652 -7.47304 0
M  V30 10919 C 755.206 -3.01133 -7.08783 0
M  V30 10920 C 754.476 -4.12613 -6.37049 0
M  V30 10921 O 754.266 -3.72827 -4.97879 0
M  V30 10922 C 753.076 -4.45085 -6.88694 0
M  V30 10923 O 752.686 -5.7877 -6.5624 0
M  V30 10924 C 752.196 -3.47817 -6.12078 0
M  V30 10925 C 752.906 -3.39414 -4.77697 0
M  V30 10926 N 752.856 -2.04615 -4.15333 0
M  V30 10927 H 755.695 -3.41248 -7.98759 0
M  V30 10928 H 755.967 -2.5837 -6.41742 0
M  V30 10929 H 755.099 -5.02657 -6.42673 0
M  V30 10930 P 751.136 -6.144 -6.45285 0
M  V30 10931 O 750.916 -7.54673 -6.86199 0
M  V30 10932 O 750.346 -5.12391 -7.179 0
M  V30 10933 O 750.886 -5.99236 -4.88467 0
M  V30 10934 C 751.826 -6.60234 -3.96415 0
M  V30 10935 C 751.096 -7.08079 -2.736 0
M  V30 10936 O 750.886 -5.94365 -1.8368 0
M  V30 10937 C 749.696 -7.64886 -2.9555 0
M  V30 10938 O 749.306 -8.5406 -1.90739 0
M  V30 10939 C 748.816 -6.4116 -2.90739 0
M  V30 10940 C 749.526 -5.55375 -1.86963 0
M  V30 10941 N 749.476 -4.09664 -2.15742 0
M  V30 10942 C 749.326 -3.22231 -1.08477 0
M  V30 10943 O 749.236 -3.68951 0.0600489 0
M  V30 10944 N 749.276 -1.76692 -1.48799 0
M  V30 10945 C 749.376 -1.41695 -2.57602 0
M  V30 10946 N 749.326 -0.107296 -2.75791 0
M  V30 10947 C 749.526 -2.29178 -3.69733 0
M  V30 10948 C 749.576 -3.62753 -3.42653 0
M  V30 10949 H 752.316 -7.45488 -4.45578 0
M  V30 10950 H 752.586 -5.86232 -3.67314 0
M  V30 10951 H 751.719 -7.84508 -2.24507 0
M  V30 10952 H 749.064 -5.73556 -0.888715 0
M  V30 10953 H 748.784 -5.9096 -3.88638 0
M  V30 10954 H 747.793 -6.66053 -2.58894 0
M  V30 10955 H 749.627 -8.16339 -3.92049 0
M  V30 10956 H 749.699 -4.33052 -4.24913 0
M  V30 10957 H 749.597 -1.9103 -4.71577 0
M  V30 10958 H 749.209 0.521221 -1.95056 0
M  V30 10959 H 749.405 0.286429 -3.70695 0
M  V30 10960 P 747.756 -8.7635 -1.60911 0
M  V30 10961 O 747.536 -10.1388 -1.11561 0
M  V30 10962 O 746.966 -8.36503 -2.79617 0
M  V30 10963 O 747.506 -7.71806 -0.42951 0
M  V30 10964 C 748.446 -7.67148 0.673689 0
M  V30 10965 C 747.716 -7.33374 1.95559 0
M  V30 10966 O 747.506 -5.88721 2.00726 0
M  V30 10967 C 746.316 -7.92526 2.10483 0
M  V30 10968 O 745.926 -8.02971 3.47653 0
M  V30 10969 C 745.436 -6.89602 1.41652 0
M  V30 10970 C 746.146 -5.59201 1.75185 0
M  V30 10971 N 746.096 -4.58235 0.662552 0
M  V30 10972 H 748.935 -8.65116 0.777161 0
M  V30 10973 H 749.207 -6.90173 0.474152 0
M  V30 10974 H 748.339 -7.66548 2.79458 0
M  V30 10975 P 744.376 -8.03563 3.84925 0
M  V30 10976 O 744.156 -8.85821 5.0569 0
M  V30 10977 O 743.586 -8.41101 2.65469 0
M  V30 10978 O 744.126 -6.49734 4.18962 0
M  V30 10979 C 745.066 -5.81037 5.05421 0
M  V30 10980 C 744.336 -4.79018 5.88876 0
M  V30 10981 O 744.126 -3.58359 5.08515 0
M  V30 10982 C 742.936 -5.17448 6.36119 0
M  V30 10983 O 742.546 -4.45322 7.53318 0
M  V30 10984 C 742.056 -4.74639 5.19936 0
M  V30 10985 C 742.766 -3.49432 4.70418 0
M  V30 10986 N 742.716 -3.31776 3.22945 0
M  V30 10987 C 742.566 -2.02742 2.72939 0
M  V30 10988 O 742.476 -1.08301 3.52749 0
M  V30 10989 N 742.516 -1.96117 1.22063 0
M  V30 10990 C 742.616 -2.8878 0.551566 0
M  V30 10991 N 742.566 -2.65609 -0.750198 0
M  V30 10992 C 742.766 -4.22457 1.03707 0
M  V30 10993 C 742.816 -4.37979 2.39113 0
M  V30 10994 H 745.556 -6.54138 5.7131 0
M  V30 10995 H 745.826 -5.30492 4.44033 0
M  V30 10996 H 744.959 -4.55945 6.76735 0
M  V30 10997 H 742.304 -2.6176 5.18021 0
M  V30 10998 H 742.024 -5.52233 4.41941 0
M  V30 10999 H 741.033 -4.52045 5.53452 0
M  V30 11000 H 742.867 -6.25124 6.55234 0
M  V30 11001 H 742.939 -5.37936 2.80552 0
M  V30 11002 H 742.837 -5.07528 0.359553 0
M  V30 11003 H 742.449 -1.69403 -1.09847 0
M  V30 11004 H 742.645 -3.43701 -1.41792 0
M  V30 11005 P 740.996 -4.23843 7.83734 0
M  V30 11006 O 740.776 -4.19407 9.29784 0
M  V30 11007 O 740.206 -5.24426 7.09156 0
M  V30 11008 O 740.746 -2.7935 7.20758 0
M  V30 11009 C 741.686 -1.7299 7.50419 0
M  V30 11010 C 740.956 -0.406376 7.57911 0
M  V30 11011 O 740.746 0.0897726 6.21935 0
M  V30 11012 C 739.556 -0.447224 8.1878 0
M  V30 11013 O 739.166 0.825065 8.71101 0
M  V30 11014 C 738.676 -0.783801 6.99623 0
M  V30 11015 C 739.386 -0.0619192 5.85967 0
M  V30 11016 N 739.336 -0.7859 4.56281 0
M  V30 11017 H 742.175 -1.93423 8.4679 0
M  V30 11018 H 742.447 -1.68181 6.71046 0
M  V30 11019 H 741.579 0.289041 8.15388 0
M  V30 11020 P 737.616 1.17771 8.83182 0
M  V30 11021 O 737.396 2.07206 9.98732 0
M  V30 11022 O 736.826 -0.0743816 8.81969 0
M  V30 11023 O 737.366 1.97652 7.47304 0
M  V30 11024 C 738.306 3.01133 7.08783 0
M  V30 11025 C 737.576 4.12613 6.37049 0
M  V30 11026 O 737.366 3.72827 4.97879 0
M  V30 11027 C 736.176 4.45085 6.88694 0
M  V30 11028 O 735.786 5.7877 6.5624 0
M  V30 11029 C 735.296 3.47817 6.12078 0
M  V30 11030 C 736.006 3.39414 4.77697 0
M  V30 11031 N 735.956 2.04615 4.15333 0
M  V30 11032 H 738.795 3.41248 7.98759 0
M  V30 11033 H 739.067 2.5837 6.41742 0
M  V30 11034 H 738.199 5.02657 6.42673 0
M  V30 11035 P 734.236 6.144 6.45285 0
M  V30 11036 O 734.016 7.54673 6.86199 0
M  V30 11037 O 733.446 5.12391 7.179 0
M  V30 11038 O 733.986 5.99236 4.88467 0
M  V30 11039 C 734.926 6.60234 3.96415 0
M  V30 11040 C 734.196 7.08079 2.736 0
M  V30 11041 O 733.986 5.94365 1.8368 0
M  V30 11042 C 732.796 7.64886 2.9555 0
M  V30 11043 O 732.406 8.5406 1.90739 0
M  V30 11044 C 731.916 6.4116 2.90739 0
M  V30 11045 C 732.626 5.55375 1.86963 0
M  V30 11046 N 732.576 4.09664 2.15742 0
M  V30 11047 C 732.426 3.22231 1.08477 0
M  V30 11048 O 732.336 3.68951 -0.0600489 0
M  V30 11049 N 732.376 1.76692 1.48799 0
M  V30 11050 C 732.476 1.41695 2.57602 0
M  V30 11051 N 732.426 0.107296 2.75791 0
M  V30 11052 C 732.626 2.29178 3.69733 0
M  V30 11053 C 732.676 3.62753 3.42653 0
M  V30 11054 H 735.416 7.45488 4.45578 0
M  V30 11055 H 735.686 5.86232 3.67314 0
M  V30 11056 H 734.819 7.84508 2.24507 0
M  V30 11057 H 732.164 5.73556 0.888715 0
M  V30 11058 H 731.884 5.9096 3.88638 0
M  V30 11059 H 730.893 6.66053 2.58894 0
M  V30 11060 H 732.727 8.16339 3.92049 0
M  V30 11061 H 732.799 4.33052 4.24913 0
M  V30 11062 H 732.697 1.9103 4.71577 0
M  V30 11063 H 732.309 -0.521221 1.95056 0
M  V30 11064 H 732.505 -0.286429 3.70695 0
M  V30 11065 P 730.856 8.7635 1.60911 0
M  V30 11066 O 730.636 10.1388 1.11561 0
M  V30 11067 O 730.066 8.36503 2.79617 0
M  V30 11068 O 730.606 7.71906 0.429565 0
M  V30 11069 C 731.546 7.67148 -0.673689 0
M  V30 11070 C 730.816 7.33666 -1.94851 0
M  V30 11071 O 730.606 5.88816 -2.00759 0
M  V30 11072 C 729.416 7.92526 -2.10483 0
M  V30 11073 O 729.026 8.03063 -3.47693 0
M  V30 11074 C 728.536 6.89602 -1.41652 0
M  V30 11075 C 729.246 5.59201 -1.75185 0
M  V30 11076 N 729.196 4.58235 -0.662552 0
M  V30 11077 C 729.046 3.24451 -1.01643 0
M  V30 11078 O 728.956 2.94958 -2.21722 0
M  V30 11079 N 728.996 2.30408 0.165238 0
M  V30 11080 C 729.096 2.66048 1.25118 0
M  V30 11081 N 729.046 1.70787 2.16813 0
M  V30 11082 C 729.246 4.02732 1.64413 0
M  V30 11083 C 729.296 4.9488 0.63991 0
M  V30 11084 H 732.036 8.65017 -0.777072 0
M  V30 11085 H 732.306 6.90173 -0.474152 0
M  V30 11086 H 731.439 7.66642 -2.79492 0
M  V30 11087 H 728.784 5.16254 -2.65229 0
M  V30 11088 H 728.504 7.06532 -0.329431 0
M  V30 11089 H 727.513 6.91023 -1.82047 0
M  V30 11090 H 729.347 8.90873 -1.62657 0
M  V30 11091 H 729.419 6.00104 0.892197 0
M  V30 11092 H 729.317 4.31733 2.69229 0
M  V30 11093 H 728.929 0.724835 1.8844 0
M  V30 11094 H 729.125 1.94716 3.16734 0
M  V30 11095 P 727.476 8.03563 -3.84925 0
M  V30 11096 O 727.256 8.85821 -5.0569 0
M  V30 11097 O 726.686 8.41101 -2.65469 0
M  V30 11098 O 727.226 6.49734 -4.18962 0
M  V30 11099 C 728.166 5.81037 -5.05421 0
M  V30 11100 C 727.436 4.79018 -5.88876 0
M  V30 11101 O 727.226 3.58359 -5.08515 0
M  V30 11102 C 726.036 5.17448 -6.36119 0
M  V30 11103 O 725.646 4.45322 -7.53318 0
M  V30 11104 C 725.156 4.74639 -5.19936 0
M  V30 11105 C 725.866 3.49432 -4.70418 0
M  V30 11106 N 725.816 3.31776 -3.22945 0
M  V30 11107 C 725.666 2.02742 -2.72939 0
M  V30 11108 O 725.576 1.08301 -3.52749 0
M  V30 11109 N 725.616 1.96117 -1.22063 0
M  V30 11110 C 725.716 2.8878 -0.551566 0
M  V30 11111 N 725.666 2.65609 0.750198 0
M  V30 11112 C 725.866 4.22457 -1.03707 0
M  V30 11113 C 725.916 4.37979 -2.39113 0
M  V30 11114 H 728.656 6.54138 -5.7131 0
M  V30 11115 H 728.926 5.30492 -4.44033 0
M  V30 11116 H 728.059 4.55945 -6.76735 0
M  V30 11117 H 725.404 2.6176 -5.18021 0
M  V30 11118 H 725.124 5.52233 -4.41941 0
M  V30 11119 H 724.133 4.52045 -5.53452 0
M  V30 11120 H 725.967 6.25124 -6.55234 0
M  V30 11121 H 726.039 5.37936 -2.80552 0
M  V30 11122 H 725.937 5.07528 -0.359553 0
M  V30 11123 H 725.549 1.69403 1.09847 0
M  V30 11124 H 725.745 3.43701 1.41792 0
M  V30 11125 P 724.096 4.23843 -7.83734 0
M  V30 11126 O 723.876 4.19407 -9.29784 0
M  V30 11127 O 723.306 5.24426 -7.09156 0
M  V30 11128 O 723.846 2.79386 -7.20852 0
M  V30 11129 C 724.786 1.7299 -7.50419 0
M  V30 11130 C 724.056 0.41401 -7.5797 0
M  V30 11131 O 723.846 -0.089787 -6.22035 0
M  V30 11132 C 722.656 0.447224 -8.1878 0
M  V30 11133 O 722.266 -0.825159 -8.71201 0
M  V30 11134 C 721.776 0.783801 -6.99623 0
M  V30 11135 C 722.486 0.0619192 -5.85967 0
M  V30 11136 N 722.436 0.7859 -4.56281 0
M  V30 11137 C 722.286 0.0359258 -3.39981 0
M  V30 11138 O 722.196 -1.19723 -3.49038 0
M  V30 11139 N 722.236 0.869151 -2.14025 0
M  V30 11140 C 722.336 2.01207 -2.14363 0
M  V30 11141 N 722.286 2.58978 -0.954287 0
M  V30 11142 C 722.486 2.80817 -3.32215 0
M  V30 11143 C 722.536 2.13785 -4.50884 0
M  V30 11144 H 725.276 1.93401 -8.46693 0
M  V30 11145 H 725.546 1.68181 -6.71046 0
M  V30 11146 H 724.679 -0.289076 -8.15488 0
M  V30 11147 H 722.024 -0.927166 -5.72947 0
M  V30 11148 H 721.744 1.87 -6.82132 0
M  V30 11149 H 720.753 0.404009 -7.13457 0
M  V30 11150 H 722.587 1.20599 -8.97534 0
M  V30 11151 H 722.659 2.70295 -5.43162 0
M  V30 11152 H 722.557 3.89465 -3.27406 0
M  V30 11153 H 722.169 2.01616 -0.107046 0
M  V30 11154 H 722.365 3.61403 -0.873101 0
M  V30 11155 P 720.716 -1.17771 -8.83182 0
M  V30 11156 O 720.496 -2.07206 -9.98732 0
M  V30 11157 O 719.926 0.0743816 -8.81969 0
M  V30 11158 O 720.466 -1.97652 -7.47304 0
M  V30 11159 C 721.406 -3.01055 -7.08599 0
M  V30 11160 C 720.676 -4.12613 -6.37049 0
M  V30 11161 O 720.466 -3.72827 -4.97879 0
M  V30 11162 C 719.276 -4.45719 -6.88164 0
M  V30 11163 O 718.886 -5.7877 -6.5624 0
M  V30 11164 C 718.396 -3.47768 -6.11991 0
M  V30 11165 C 719.106 -3.39356 -4.77615 0
M  V30 11166 N 719.056 -2.04571 -4.15244 0
M  V30 11167 C 718.906 -1.98587 -2.78314 0
M  V30 11168 O 718.816 -2.98134 -2.08835 0
M  V30 11169 N 718.866 -0.714467 -2.24925 0
M  V30 11170 C 718.956 0.470001 -2.94169 0
M  V30 11171 C 719.106 0.312541 -4.36783 0
M  V30 11172 C 719.156 -0.914512 -4.92583 0
M  V30 11173 H 721.897 -3.41169 -7.98575 0
M  V30 11174 H 722.166 -2.58295 -6.41556 0
M  V30 11175 H 721.299 -5.02657 -6.42673 0
M  V30 11176 H 718.644 -4.11637 -4.08885 0
M  V30 11177 H 718.365 -2.49626 -6.61679 0
M  V30 11178 H 717.373 -3.86566 -6.00778 0
M  V30 11179 H 719.207 -4.29943 -7.96918 0
M  V30 11180 H 719.278 -1.00937 -6.00374 0
M  V30 11181 P 717.336 -6.144 -6.45285 0
M  V30 11182 O 717.116 -7.54673 -6.86199 0
M  V30 11183 O 716.546 -5.12391 -7.179 0
M  V30 11184 O 717.086 -5.99158 -4.88404 0
M  V30 11185 C 718.026 -6.60234 -3.96415 0
M  V30 11186 C 717.296 -7.08259 -2.72856 0
M  V30 11187 O 717.086 -5.9427 -1.83651 0
M  V30 11188 C 715.896 -7.64886 -2.9555 0
M  V30 11189 O 715.506 -8.53963 -1.90717 0
M  V30 11190 C 715.016 -6.4116 -2.90739 0
M  V30 11191 C 715.726 -5.55375 -1.86963 0
M  V30 11192 N 715.676 -4.09448 -2.16152 0
M  V30 11193 H 718.515 -7.45574 -4.45629 0
M  V30 11194 H 718.787 -5.85864 -3.679 0
M  V30 11195 H 717.919 -7.84412 -2.24479 0
M  V30 11196 H 715.264 -5.73457 -0.888562 0
M  V30 11197 H 714.984 -5.90877 -3.88583 0
M  V30 11198 H 713.993 -6.6596 -2.58858 0
M  V30 11199 H 715.827 -8.16339 -3.92049 0
M  V30 11200 P 713.956 -8.7635 -1.60911 0
M  V30 11201 O 713.736 -10.1388 -1.11561 0
M  V30 11202 O 713.166 -8.36503 -2.79617 0
M  V30 11203 O 713.706 -7.71806 -0.42951 0
M  V30 11204 C 714.646 -7.67148 0.673689 0
M  V30 11205 C 713.916 -7.33374 1.95559 0
M  V30 11206 O 713.706 -5.88721 2.00726 0
M  V30 11207 C 712.516 -7.92526 2.10483 0
M  V30 11208 O 712.126 -8.02971 3.47653 0
M  V30 11209 C 711.636 -6.89602 1.41652 0
M  V30 11210 C 712.346 -5.59201 1.75185 0
M  V30 11211 N 712.296 -4.58301 0.657969 0
M  V30 11212 H 715.135 -8.65116 0.777161 0
M  V30 11213 H 715.407 -6.9022 0.46725 0
M  V30 11214 H 714.539 -7.66548 2.79458 0
M  V30 11215 H 711.884 -5.16165 2.65183 0
M  V30 11216 H 711.604 -7.06433 0.329384 0
M  V30 11217 H 710.613 -6.90926 1.82021 0
M  V30 11218 H 712.447 -8.90873 1.62657 0
M  V30 11219 P 710.576 -8.03563 3.84925 0
M  V30 11220 O 710.356 -8.85821 5.0569 0
M  V30 11221 O 709.786 -8.41101 2.65469 0
M  V30 11222 O 710.326 -6.49734 4.18962 0
M  V30 11223 C 711.266 -5.81037 5.05421 0
M  V30 11224 C 710.536 -4.79018 5.88876 0
M  V30 11225 O 710.326 -3.58359 5.08515 0
M  V30 11226 C 709.136 -5.17448 6.36119 0
M  V30 11227 O 708.746 -4.45322 7.53318 0
M  V30 11228 C 708.256 -4.74639 5.19936 0
M  V30 11229 C 708.966 -3.49432 4.70418 0
M  V30 11230 N 708.916 -3.31776 3.22945 0
M  V30 11231 C 708.766 -2.02742 2.72939 0
M  V30 11232 O 708.676 -1.08301 3.52749 0
M  V30 11233 N 708.716 -1.96117 1.22063 0
M  V30 11234 C 708.816 -2.8878 0.551566 0
M  V30 11235 N 708.766 -2.65609 -0.750198 0
M  V30 11236 C 708.966 -4.22457 1.03707 0
M  V30 11237 C 709.016 -4.37979 2.39113 0
M  V30 11238 H 711.756 -6.54138 5.7131 0
M  V30 11239 H 712.026 -5.30492 4.44033 0
M  V30 11240 H 711.159 -4.55945 6.76735 0
M  V30 11241 H 708.504 -2.6176 5.18021 0
M  V30 11242 H 708.224 -5.52233 4.41941 0
M  V30 11243 H 707.233 -4.52045 5.53452 0
M  V30 11244 H 709.067 -6.25124 6.55234 0
M  V30 11245 H 709.139 -5.37936 2.80552 0
M  V30 11246 H 709.037 -5.07528 0.359553 0
M  V30 11247 H 708.649 -1.69403 -1.09847 0
M  V30 11248 H 708.845 -3.43701 -1.41792 0
M  V30 11249 P 707.196 -4.23843 7.83734 0
M  V30 11250 O 706.976 -4.19407 9.29784 0
M  V30 11251 O 706.406 -5.24426 7.09156 0
M  V30 11252 O 706.946 -2.7935 7.20758 0
M  V30 11253 C 707.886 -1.7299 7.50419 0
M  V30 11254 C 707.156 -0.406376 7.57911 0
M  V30 11255 O 706.946 0.0897726 6.21935 0
M  V30 11256 C 705.756 -0.447224 8.1878 0
M  V30 11257 O 705.366 0.825065 8.71101 0
M  V30 11258 C 704.876 -0.783801 6.99623 0
M  V30 11259 C 705.586 -0.0619192 5.85967 0
M  V30 11260 N 705.536 -0.7859 4.56281 0
M  V30 11261 H 708.375 -1.93423 8.4679 0
M  V30 11262 H 708.647 -1.68181 6.71046 0
M  V30 11263 H 707.779 0.289041 8.15388 0
M  V30 11264 P 703.816 1.17771 8.83182 0
M  V30 11265 O 703.596 2.07206 9.98732 0
M  V30 11266 O 703.026 -0.0743816 8.81969 0
M  V30 11267 O 703.566 1.97678 7.474 0
M  V30 11268 C 704.506 3.01133 7.08783 0
M  V30 11269 C 703.776 4.1203 6.37546 0
M  V30 11270 O 703.566 3.72887 4.9796 0
M  V30 11271 C 702.376 4.45085 6.88694 0
M  V30 11272 O 701.986 5.78836 6.56315 0
M  V30 11273 C 701.496 3.47817 6.12078 0
M  V30 11274 C 702.206 3.39414 4.77697 0
M  V30 11275 N 702.156 2.04615 4.15333 0
M  V30 11276 C 702.006 1.96929 2.77162 0
M  V30 11277 O 701.916 3.02017 2.12006 0
M  V30 11278 N 701.956 0.55485 2.24237 0
M  V30 11279 C 702.056 -0.367808 2.9169 0
M  V30 11280 N 702.006 -1.53426 2.29427 0
M  V30 11281 C 702.206 -0.319148 4.33828 0
M  V30 11282 C 702.256 0.920672 4.90433 0
M  V30 11283 H 704.996 3.41209 7.98667 0
M  V30 11284 H 705.266 2.5837 6.41742 0
M  V30 11285 H 704.399 5.02718 6.42752 0
M  V30 11286 H 701.744 4.11779 4.09026 0
M  V30 11287 H 701.464 2.49661 6.61772 0
M  V30 11288 H 700.473 3.86674 6.00946 0
M  V30 11289 H 702.307 4.29991 7.97006 0
M  V30 11290 H 702.379 1.00589 5.98303 0
M  V30 11291 H 702.277 -1.22639 4.93799 0
M  V30 11292 H 701.889 -1.56819 1.27167 0
M  V30 11293 H 702.085 -2.41062 2.83063 0
M  V30 11294 P 700.436 6.144 6.45285 0
M  V30 11295 O 700.216 7.54673 6.86199 0
M  V30 11296 O 699.646 5.12391 7.179 0
M  V30 11297 O 700.186 5.99158 4.88404 0
M  V30 11298 C 701.126 6.60234 3.96415 0
M  V30 11299 C 700.396 7.08259 2.72856 0
M  V30 11300 O 700.186 5.9427 1.83651 0
M  V30 11301 C 698.996 7.64886 2.9555 0
M  V30 11302 O 698.606 8.53963 1.90717 0
M  V30 11303 C 698.116 6.4116 2.90739 0
M  V30 11304 C 698.826 5.55375 1.86963 0
M  V30 11305 N 698.776 4.09664 2.15742 0
M  V30 11306 H 701.615 7.45574 4.45629 0
M  V30 11307 H 701.887 5.86232 3.67314 0
M  V30 11308 H 701.019 7.84412 2.24479 0
M  V30 11309 P 697.056 8.7635 1.60911 0
M  V30 11310 O 696.836 10.1388 1.11561 0
M  V30 11311 O 696.266 8.36503 2.79617 0
M  V30 11312 O 696.806 7.71806 0.42951 0
M  V30 11313 C 697.746 7.67148 -0.673689 0
M  V30 11314 C 697.016 7.33374 -1.95559 0
M  V30 11315 O 696.806 5.88721 -2.00726 0
M  V30 11316 C 695.616 7.92526 -2.10483 0
M  V30 11317 O 695.226 8.02971 -3.47653 0
M  V30 11318 C 694.736 6.89602 -1.41652 0
M  V30 11319 C 695.446 5.59201 -1.75185 0
M  V30 11320 N 695.396 4.58235 -0.662552 0
M  V30 11321 H 698.235 8.65116 -0.777161 0
M  V30 11322 H 698.507 6.90173 -0.474152 0
M  V30 11323 H 697.639 7.66548 -2.79458 0
M  V30 11324 P 693.676 8.03563 -3.84925 0
M  V30 11325 O 693.456 8.85821 -5.0569 0
M  V30 11326 O 692.886 8.41101 -2.65469 0
M  V30 11327 O 693.426 6.49734 -4.18962 0
M  V30 11328 C 694.366 5.81037 -5.05421 0
M  V30 11329 C 693.636 4.79018 -5.88876 0
M  V30 11330 O 693.426 3.58359 -5.08515 0
M  V30 11331 C 692.236 5.17448 -6.36119 0
M  V30 11332 O 691.846 4.45322 -7.53318 0
M  V30 11333 C 691.356 4.74639 -5.19936 0
M  V30 11334 C 692.066 3.49432 -4.70418 0
M  V30 11335 N 692.016 3.31776 -3.22945 0
M  V30 11336 C 691.866 2.02742 -2.72939 0
M  V30 11337 O 691.776 1.08301 -3.52749 0
M  V30 11338 N 691.816 1.96117 -1.22063 0
M  V30 11339 C 691.916 2.8878 -0.551566 0
M  V30 11340 N 691.866 2.65609 0.750198 0
M  V30 11341 C 692.066 4.22457 -1.03707 0
M  V30 11342 C 692.116 4.37979 -2.39113 0
M  V30 11343 H 694.856 6.54138 -5.7131 0
M  V30 11344 H 695.126 5.30492 -4.44033 0
M  V30 11345 H 694.259 4.55945 -6.76735 0
M  V30 11346 H 691.604 2.6176 -5.18021 0
M  V30 11347 H 691.324 5.52233 -4.41941 0
M  V30 11348 H 690.333 4.52045 -5.53452 0
M  V30 11349 H 692.167 6.25124 -6.55234 0
M  V30 11350 H 692.239 5.37936 -2.80552 0
M  V30 11351 H 692.137 5.07528 -0.359553 0
M  V30 11352 H 691.749 1.69403 1.09847 0
M  V30 11353 H 691.945 3.43701 1.41792 0
M  V30 11354 P 690.296 4.23843 -7.83734 0
M  V30 11355 O 690.076 4.19407 -9.29784 0
M  V30 11356 O 689.506 5.24426 -7.09156 0
M  V30 11357 O 690.046 2.79386 -7.20852 0
M  V30 11358 C 690.986 1.7299 -7.50419 0
M  V30 11359 C 690.256 0.41401 -7.5797 0
M  V30 11360 O 690.046 -0.089787 -6.22035 0
M  V30 11361 C 688.856 0.447224 -8.1878 0
M  V30 11362 O 688.466 -0.825159 -8.71201 0
M  V30 11363 C 687.976 0.783801 -6.99623 0
M  V30 11364 C 688.686 0.0619192 -5.85967 0
M  V30 11365 N 688.636 0.7859 -4.56281 0
M  V30 11366 C 688.486 0.0359258 -3.39981 0
M  V30 11367 O 688.396 -1.19723 -3.49038 0
M  V30 11368 N 688.436 0.869151 -2.14025 0
M  V30 11369 C 688.536 2.01207 -2.14363 0
M  V30 11370 N 688.486 2.58978 -0.954287 0
M  V30 11371 C 688.686 2.80817 -3.32215 0
M  V30 11372 C 688.736 2.13785 -4.50884 0
M  V30 11373 H 691.476 1.93401 -8.46693 0
M  V30 11374 H 691.746 1.68181 -6.71046 0
M  V30 11375 H 690.879 -0.289076 -8.15488 0
M  V30 11376 H 688.224 -0.927166 -5.72947 0
M  V30 11377 H 687.944 1.87 -6.82132 0
M  V30 11378 H 686.953 0.404009 -7.13457 0
M  V30 11379 H 688.787 1.20599 -8.97534 0
M  V30 11380 H 688.859 2.70295 -5.43162 0
M  V30 11381 H 688.757 3.89465 -3.27406 0
M  V30 11382 H 688.369 2.01616 -0.107046 0
M  V30 11383 H 688.565 3.61403 -0.873101 0
M  V30 11384 P 686.916 -1.17771 -8.83182 0
M  V30 11385 O 686.696 -2.07206 -9.98732 0
M  V30 11386 O 686.126 0.0743816 -8.81969 0
M  V30 11387 O 686.666 -1.97652 -7.47304 0
M  V30 11388 C 687.606 -3.01055 -7.08599 0
M  V30 11389 C 686.876 -4.12613 -6.37049 0
M  V30 11390 O 686.666 -3.72827 -4.97879 0
M  V30 11391 C 685.476 -4.45719 -6.88164 0
M  V30 11392 O 685.086 -5.7877 -6.5624 0
M  V30 11393 C 684.596 -3.47768 -6.11991 0
M  V30 11394 C 685.306 -3.39356 -4.77615 0
M  V30 11395 N 685.256 -2.04571 -4.15244 0
M  V30 11396 C 685.106 -1.98587 -2.78314 0
M  V30 11397 O 685.016 -2.98134 -2.08835 0
M  V30 11398 N 685.066 -0.714467 -2.24925 0
M  V30 11399 C 685.156 0.470001 -2.94169 0
M  V30 11400 C 685.306 0.312541 -4.36783 0
M  V30 11401 C 685.356 -0.914512 -4.92583 0
M  V30 11402 H 688.097 -3.41169 -7.98575 0
M  V30 11403 H 688.366 -2.58295 -6.41556 0
M  V30 11404 H 687.499 -5.02657 -6.42673 0
M  V30 11405 H 684.844 -4.11637 -4.08885 0
M  V30 11406 H 684.565 -2.49626 -6.61679 0
M  V30 11407 H 683.573 -3.86566 -6.00778 0
M  V30 11408 H 685.407 -4.29943 -7.96918 0
M  V30 11409 H 685.478 -1.00937 -6.00374 0
M  V30 11410 P 683.536 -6.144 -6.45285 0
M  V30 11411 O 683.316 -7.54673 -6.86199 0
M  V30 11412 O 682.746 -5.12391 -7.179 0
M  V30 11413 O 683.286 -5.99236 -4.88467 0
M  V30 11414 C 684.226 -6.60234 -3.96415 0
M  V30 11415 C 683.496 -7.08079 -2.736 0
M  V30 11416 O 683.286 -5.94365 -1.8368 0
M  V30 11417 C 682.096 -7.64886 -2.9555 0
M  V30 11418 O 681.706 -8.5406 -1.90739 0
M  V30 11419 C 681.216 -6.4116 -2.90739 0
M  V30 11420 C 681.926 -5.55375 -1.86963 0
M  V30 11421 N 681.876 -4.09664 -2.15742 0
M  V30 11422 C 681.726 -3.22231 -1.08477 0
M  V30 11423 O 681.636 -3.68951 0.0600489 0
M  V30 11424 N 681.676 -1.76692 -1.48799 0
M  V30 11425 C 681.776 -1.41695 -2.57602 0
M  V30 11426 N 681.726 -0.107296 -2.75791 0
M  V30 11427 C 681.926 -2.29178 -3.69733 0
M  V30 11428 C 681.976 -3.62753 -3.42653 0
M  V30 11429 H 684.716 -7.45488 -4.45578 0
M  V30 11430 H 684.986 -5.86232 -3.67314 0
M  V30 11431 H 684.119 -7.84508 -2.24507 0
M  V30 11432 H 681.464 -5.73556 -0.888715 0
M  V30 11433 H 681.184 -5.9096 -3.88638 0
M  V30 11434 H 680.193 -6.66053 -2.58894 0
M  V30 11435 H 682.027 -8.16339 -3.92049 0
M  V30 11436 H 682.099 -4.33052 -4.24913 0
M  V30 11437 H 681.997 -1.9103 -4.71577 0
M  V30 11438 H 681.609 0.521221 -1.95056 0
M  V30 11439 H 681.805 0.286429 -3.70695 0
M  V30 11440 P 680.156 -8.7635 -1.60911 0
M  V30 11441 O 679.936 -10.1388 -1.11561 0
M  V30 11442 O 679.366 -8.36503 -2.79617 0
M  V30 11443 O 679.906 -7.71806 -0.42951 0
M  V30 11444 C 680.846 -7.67148 0.673689 0
M  V30 11445 C 680.116 -7.33374 1.95559 0
M  V30 11446 O 679.906 -5.88721 2.00726 0
M  V30 11447 C 678.716 -7.92526 2.10483 0
M  V30 11448 O 678.326 -8.02971 3.47653 0
M  V30 11449 C 677.836 -6.89602 1.41652 0
M  V30 11450 C 678.546 -5.59201 1.75185 0
M  V30 11451 N 678.496 -4.58301 0.657969 0
M  V30 11452 H 681.335 -8.65116 0.777161 0
M  V30 11453 H 681.607 -6.9022 0.46725 0
M  V30 11454 H 680.739 -7.66548 2.79458 0
M  V30 11455 H 678.084 -5.16165 2.65183 0
M  V30 11456 H 677.804 -7.06433 0.329384 0
M  V30 11457 H 676.813 -6.90926 1.82021 0
M  V30 11458 H 678.647 -8.90873 1.62657 0
M  V30 11459 P 676.776 -8.03563 3.84925 0
M  V30 11460 O 676.556 -8.85821 5.0569 0
M  V30 11461 O 675.986 -8.41101 2.65469 0
M  V30 11462 O 676.526 -6.4965 4.18908 0
M  V30 11463 C 677.466 -5.80886 5.05289 0
M  V30 11464 C 676.736 -4.78366 5.89277 0
M  V30 11465 O 676.526 -3.58302 5.08433 0
M  V30 11466 C 675.336 -5.16748 6.36559 0
M  V30 11467 O 674.946 -4.45271 7.53232 0
M  V30 11468 C 674.456 -4.74572 5.19863 0
M  V30 11469 C 675.166 -3.49373 4.70338 0
M  V30 11470 N 675.116 -3.31704 3.22876 0
M  V30 11471 C 674.966 -2.03326 2.74871 0
M  V30 11472 O 674.876 -1.06486 3.48076 0
M  V30 11473 N 674.926 -1.91838 1.37456 0
M  V30 11474 C 675.016 -2.94295 0.462035 0
M  V30 11475 C 675.166 -4.25064 1.05249 0
M  V30 11476 C 675.216 -4.40214 2.39192 0
M  V30 11477 H 677.957 -6.54063 5.71245 0
M  V30 11478 H 678.226 -5.30339 4.43905 0
M  V30 11479 H 677.359 -4.55889 6.76652 0
M  V30 11480 H 674.704 -2.6167 5.17842 0
M  V30 11481 H 674.425 -5.52155 4.41878 0
M  V30 11482 H 673.433 -4.51918 5.53297 0
M  V30 11483 H 675.267 -6.25055 6.55162 0
M  V30 11484 H 675.338 -5.39798 2.81523 0
M  V30 11485 P 673.396 -4.23843 7.83734 0
M  V30 11486 O 673.176 -4.19407 9.29784 0
M  V30 11487 O 672.606 -5.24426 7.09156 0
M  V30 11488 O 673.146 -2.7935 7.20758 0
M  V30 11489 C 674.086 -1.7299 7.50419 0
M  V30 11490 C 673.356 -0.406376 7.57911 0
M  V30 11491 O 673.146 0.0897726 6.21935 0
M  V30 11492 C 671.956 -0.447224 8.1878 0
M  V30 11493 O 671.566 0.825065 8.71101 0
M  V30 11494 C 671.076 -0.783801 6.99623 0
M  V30 11495 C 671.786 -0.0619192 5.85967 0
M  V30 11496 N 671.736 -0.790462 4.56202 0
M  V30 11497 H 674.575 -1.93423 8.4679 0
M  V30 11498 H 674.847 -1.68852 6.70877 0
M  V30 11499 H 673.979 0.289041 8.15388 0
M  V30 11500 H 671.324 0.927006 5.72848 0
M  V30 11501 H 671.044 -1.86973 6.82036 0
M  V30 11502 H 670.053 -0.403953 7.13357 0
M  V30 11503 H 671.887 -1.20599 8.97534 0
M  V30 11504 P 670.016 1.17771 8.83182 0
M  V30 11505 O 669.796 2.07206 9.98732 0
M  V30 11506 O 669.226 -0.0743816 8.81969 0
M  V30 11507 O 669.766 1.97652 7.47304 0
M  V30 11508 C 670.706 3.01133 7.08783 0
M  V30 11509 C 669.976 4.12613 6.37049 0
M  V30 11510 O 669.766 3.72827 4.97879 0
M  V30 11511 C 668.576 4.45085 6.88694 0
M  V30 11512 O 668.186 5.7877 6.5624 0
M  V30 11513 C 667.696 3.47817 6.12078 0
M  V30 11514 C 668.406 3.39414 4.77697 0
M  V30 11515 N 668.356 2.04199 4.15538 0
M  V30 11516 H 671.195 3.41248 7.98759 0
M  V30 11517 H 671.467 2.57728 6.42 0
M  V30 11518 H 670.599 5.02657 6.42673 0
M  V30 11519 H 667.944 4.11708 4.08956 0
M  V30 11520 H 667.664 2.49626 6.61679 0
M  V30 11521 H 666.673 3.8662 6.00862 0
M  V30 11522 H 668.507 4.29991 7.97006 0
M  V30 11523 P 666.636 6.144 6.45285 0
M  V30 11524 O 666.416 7.54673 6.86199 0
M  V30 11525 O 665.846 5.12391 7.179 0
M  V30 11526 O 666.386 5.99158 4.88404 0
M  V30 11527 C 667.326 6.60234 3.96415 0
M  V30 11528 C 666.596 7.08259 2.72856 0
M  V30 11529 O 666.386 5.9427 1.83651 0
M  V30 11530 C 665.196 7.64886 2.9555 0
M  V30 11531 O 664.806 8.53963 1.90717 0
M  V30 11532 C 664.316 6.4116 2.90739 0
M  V30 11533 C 665.026 5.55375 1.86963 0
M  V30 11534 N 664.976 4.09664 2.15742 0
M  V30 11535 H 667.815 7.45574 4.45629 0
M  V30 11536 H 668.087 5.86232 3.67314 0
M  V30 11537 H 667.219 7.84412 2.24479 0
M  V30 11538 P 663.256 8.7635 1.60911 0
M  V30 11539 O 663.036 10.1388 1.11561 0
M  V30 11540 O 662.466 8.36503 2.79617 0
M  V30 11541 O 663.006 7.71806 0.42951 0
M  V30 11542 C 663.946 7.67148 -0.673689 0
M  V30 11543 C 663.216 7.33374 -1.95559 0
M  V30 11544 O 663.006 5.88721 -2.00726 0
M  V30 11545 C 661.816 7.92526 -2.10483 0
M  V30 11546 O 661.426 8.02971 -3.47653 0
M  V30 11547 C 660.936 6.89602 -1.41652 0
M  V30 11548 C 661.646 5.59201 -1.75185 0
M  V30 11549 N 661.596 4.58235 -0.662552 0
M  V30 11550 H 664.435 8.65116 -0.777161 0
M  V30 11551 H 664.707 6.90173 -0.474152 0
M  V30 11552 H 663.839 7.66548 -2.79458 0
M  V30 11553 P 659.876 8.03563 -3.84925 0
M  V30 11554 O 659.656 8.85821 -5.0569 0
M  V30 11555 O 659.086 8.41101 -2.65469 0
M  V30 11556 O 659.626 6.4965 -4.18908 0
M  V30 11557 C 660.566 5.81037 -5.05421 0
M  V30 11558 C 659.836 4.78366 -5.89277 0
M  V30 11559 O 659.626 3.58302 -5.08433 0
M  V30 11560 C 658.436 5.17448 -6.36119 0
M  V30 11561 O 658.046 4.45271 -7.53232 0
M  V30 11562 C 657.556 4.74639 -5.19936 0
M  V30 11563 C 658.266 3.49432 -4.70418 0
M  V30 11564 N 658.216 3.31776 -3.22945 0
M  V30 11565 H 661.055 6.54213 -5.71376 0
M  V30 11566 H 661.327 5.30492 -4.44033 0
M  V30 11567 H 660.459 4.55889 -6.76652 0
M  V30 11568 P 656.496 4.23843 -7.83734 0
M  V30 11569 O 656.276 4.19407 -9.29784 0
M  V30 11570 O 655.706 5.24426 -7.09156 0
M  V30 11571 O 656.246 2.7935 -7.20758 0
M  V30 11572 C 657.186 1.7299 -7.50419 0
M  V30 11573 C 656.456 0.406376 -7.57911 0
M  V30 11574 O 656.246 -0.0897726 -6.21935 0
M  V30 11575 C 655.056 0.447224 -8.1878 0
M  V30 11576 O 654.666 -0.825065 -8.71101 0
M  V30 11577 C 654.176 0.783801 -6.99623 0
M  V30 11578 C 654.886 0.0619192 -5.85967 0
M  V30 11579 N 654.836 0.7859 -4.56281 0
M  V30 11580 H 657.675 1.93423 -8.4679 0
M  V30 11581 H 657.947 1.68181 -6.71046 0
M  V30 11582 H 657.079 -0.289041 -8.15388 0
M  V30 11583 P 653.116 -1.17771 -8.83182 0
M  V30 11584 O 652.896 -2.07206 -9.98732 0
M  V30 11585 O 652.326 0.0743816 -8.81969 0
M  V30 11586 O 652.866 -1.97652 -7.47304 0
M  V30 11587 C 653.806 -3.01133 -7.08783 0
M  V30 11588 C 653.076 -4.12613 -6.37049 0
M  V30 11589 O 652.866 -3.72827 -4.97879 0
M  V30 11590 C 651.676 -4.45085 -6.88694 0
M  V30 11591 O 651.286 -5.7877 -6.5624 0
M  V30 11592 C 650.796 -3.47817 -6.12078 0
M  V30 11593 C 651.506 -3.39414 -4.77697 0
M  V30 11594 N 651.456 -2.04615 -4.15333 0
M  V30 11595 H 654.295 -3.41248 -7.98759 0
M  V30 11596 H 654.567 -2.5837 -6.41742 0
M  V30 11597 H 653.699 -5.02657 -6.42673 0
M  V30 11598 P 649.736 -6.144 -6.45285 0
M  V30 11599 O 649.516 -7.54673 -6.86199 0
M  V30 11600 O 648.946 -5.12391 -7.179 0
M  V30 11601 O 649.486 -5.99158 -4.88404 0
M  V30 11602 C 650.426 -6.60234 -3.96415 0
M  V30 11603 C 649.696 -7.08259 -2.72856 0
M  V30 11604 O 649.486 -5.9427 -1.83651 0
M  V30 11605 C 648.296 -7.64886 -2.9555 0
M  V30 11606 O 647.906 -8.53963 -1.90717 0
M  V30 11607 C 647.416 -6.4116 -2.90739 0
M  V30 11608 C 648.126 -5.55375 -1.86963 0
M  V30 11609 N 648.076 -4.09664 -2.15742 0
M  V30 11610 H 650.915 -7.45574 -4.45629 0
M  V30 11611 H 651.187 -5.86232 -3.67314 0
M  V30 11612 H 650.319 -7.84412 -2.24479 0
M  V30 11613 P 646.356 -8.7635 -1.60911 0
M  V30 11614 O 646.136 -10.1388 -1.11561 0
M  V30 11615 O 645.566 -8.36503 -2.79617 0
M  V30 11616 O 646.106 -7.71806 -0.42951 0
M  V30 11617 C 647.046 -7.67148 0.673689 0
M  V30 11618 C 646.316 -7.33374 1.95559 0
M  V30 11619 O 646.106 -5.88721 2.00726 0
M  V30 11620 C 644.916 -7.92526 2.10483 0
M  V30 11621 O 644.526 -8.02971 3.47653 0
M  V30 11622 C 644.036 -6.89602 1.41652 0
M  V30 11623 C 644.746 -5.59201 1.75185 0
M  V30 11624 N 644.696 -4.58235 0.662552 0
M  V30 11625 H 647.535 -8.65116 0.777161 0
M  V30 11626 H 647.807 -6.90173 0.474152 0
M  V30 11627 H 646.939 -7.66548 2.79458 0
M  V30 11628 P 642.976 -8.03563 3.84925 0
M  V30 11629 O 642.756 -8.85821 5.0569 0
M  V30 11630 O 642.186 -8.41101 2.65469 0
M  V30 11631 O 642.726 -6.4965 4.18908 0
M  V30 11632 C 643.666 -5.80886 5.05289 0
M  V30 11633 C 642.936 -4.78366 5.89277 0
M  V30 11634 O 642.726 -3.58302 5.08433 0
M  V30 11635 C 641.536 -5.16748 6.36559 0
M  V30 11636 O 641.146 -4.45271 7.53232 0
M  V30 11637 C 640.656 -4.74572 5.19863 0
M  V30 11638 C 641.366 -3.49373 4.70338 0
M  V30 11639 N 641.316 -3.31704 3.22876 0
M  V30 11640 C 641.166 -2.03326 2.74871 0
M  V30 11641 O 641.076 -1.06486 3.48076 0
M  V30 11642 N 641.126 -1.91838 1.37456 0
M  V30 11643 C 641.216 -2.94295 0.462035 0
M  V30 11644 C 641.366 -4.25064 1.05249 0
M  V30 11645 C 641.416 -4.40214 2.39192 0
M  V30 11646 H 644.157 -6.54063 5.71245 0
M  V30 11647 H 644.426 -5.30339 4.43905 0
M  V30 11648 H 643.559 -4.55889 6.76652 0
M  V30 11649 H 640.904 -2.6167 5.17842 0
M  V30 11650 H 640.625 -5.52155 4.41878 0
M  V30 11651 H 639.633 -4.51918 5.53297 0
M  V30 11652 H 641.467 -6.25055 6.55162 0
M  V30 11653 H 641.538 -5.39798 2.81523 0
M  V30 11654 P 639.596 -4.23843 7.83734 0
M  V30 11655 O 639.376 -4.19407 9.29784 0
M  V30 11656 O 638.806 -5.24426 7.09156 0
M  V30 11657 O 639.346 -2.7935 7.20758 0
M  V30 11658 C 640.286 -1.7299 7.50419 0
M  V30 11659 C 639.556 -0.406376 7.57911 0
M  V30 11660 O 639.346 0.0897726 6.21935 0
M  V30 11661 C 638.156 -0.447224 8.1878 0
M  V30 11662 O 637.766 0.825065 8.71101 0
M  V30 11663 C 637.276 -0.783801 6.99623 0
M  V30 11664 C 637.986 -0.0619192 5.85967 0
M  V30 11665 N 637.936 -0.790462 4.56202 0
M  V30 11666 H 640.775 -1.93423 8.4679 0
M  V30 11667 H 641.047 -1.68852 6.70877 0
M  V30 11668 H 640.179 0.289041 8.15388 0
M  V30 11669 H 637.524 0.927006 5.72848 0
M  V30 11670 H 637.244 -1.86973 6.82036 0
M  V30 11671 H 636.253 -0.403953 7.13357 0
M  V30 11672 H 638.087 -1.20599 8.97534 0
M  V30 11673 P 636.216 1.17771 8.83182 0
M  V30 11674 O 635.996 2.07206 9.98732 0
M  V30 11675 O 635.426 -0.0743816 8.81969 0
M  V30 11676 O 635.966 1.97652 7.47304 0
M  V30 11677 C 636.906 3.01133 7.08783 0
M  V30 11678 C 636.176 4.12613 6.37049 0
M  V30 11679 O 635.966 3.72827 4.97879 0
M  V30 11680 C 634.776 4.45085 6.88694 0
M  V30 11681 O 634.386 5.7877 6.5624 0
M  V30 11682 C 633.896 3.47817 6.12078 0
M  V30 11683 C 634.606 3.39414 4.77697 0
M  V30 11684 N 634.556 2.04615 4.15333 0
M  V30 11685 H 637.395 3.41248 7.98759 0
M  V30 11686 H 637.667 2.5837 6.41742 0
M  V30 11687 H 636.799 5.02657 6.42673 0
M  V30 11688 P 632.836 6.144 6.45285 0
M  V30 11689 O 632.616 7.54673 6.86199 0
M  V30 11690 O 632.046 5.12391 7.179 0
M  V30 11691 O 632.586 5.99158 4.88404 0
M  V30 11692 C 633.526 6.60062 3.96313 0
M  V30 11693 C 632.796 7.08259 2.72856 0
M  V30 11694 O 632.586 5.9427 1.83651 0
M  V30 11695 C 631.396 7.65087 2.94749 0
M  V30 11696 O 631.006 8.53963 1.90717 0
M  V30 11697 C 630.516 6.41069 2.90698 0
M  V30 11698 C 631.226 5.5528 1.86931 0
M  V30 11699 N 631.176 4.09575 2.15696 0
M  V30 11700 C 631.026 3.24249 1.08435 0
M  V30 11701 O 630.936 3.63946 -0.0628747 0
M  V30 11702 N 630.986 1.90009 1.39973 0
M  V30 11703 C 631.076 1.34884 2.65614 0
M  V30 11704 O 631.026 0.123716 2.81728 0
M  V30 11705 C 631.226 2.3145 3.71736 0
M  V30 11706 C 631.336 1.75913 5.10438 0
M  V30 11707 C 631.276 3.63518 3.44754 0
M  V30 11708 H 634.017 7.45402 4.45526 0
M  V30 11709 H 634.286 5.86062 3.67208 0
M  V30 11710 H 633.419 7.84412 2.24479 0
M  V30 11711 H 630.764 5.73358 0.888409 0
M  V30 11712 H 630.485 5.90877 3.88583 0
M  V30 11713 H 629.493 6.65867 2.58821 0
M  V30 11714 H 631.327 8.16248 3.92006 0
M  V30 11715 H 631.398 4.34551 4.26383 0
M  V30 11716 H 630.368 1.85471 5.61775 0
M  V30 11717 H 632.105 2.31364 5.66257 0
M  V30 11718 H 631.617 0.695936 5.05229 0
M  V30 11719 H 630.881 1.26277 0.63625 0
M  V30 11720 P 629.456 8.7635 1.60911 0
M  V30 11721 O 629.236 10.1388 1.11561 0
M  V30 11722 O 628.666 8.36503 2.79617 0
M  V30 11723 O 629.206 7.71806 0.42951 0
M  V30 11724 C 630.146 7.67148 -0.673689 0
M  V30 11725 C 629.416 7.33374 -1.95559 0
M  V30 11726 O 629.206 5.88721 -2.00726 0
M  V30 11727 C 628.016 7.92526 -2.10483 0
M  V30 11728 O 627.626 8.02971 -3.47653 0
M  V30 11729 C 627.136 6.89602 -1.41652 0
M  V30 11730 C 627.846 5.59201 -1.75185 0
M  V30 11731 N 627.796 4.58301 -0.657969 0
M  V30 11732 H 630.635 8.65116 -0.777161 0
M  V30 11733 H 630.907 6.9022 -0.46725 0
M  V30 11734 H 630.039 7.66548 -2.79458 0
M  V30 11735 H 627.384 5.16165 -2.65183 0
M  V30 11736 H 627.104 7.06433 -0.329384 0
M  V30 11737 H 626.113 6.90926 -1.82021 0
M  V30 11738 H 627.947 8.90873 -1.62657 0
M  V30 11739 P 626.076 8.03563 -3.84925 0
M  V30 11740 O 625.856 8.85821 -5.0569 0
M  V30 11741 O 625.286 8.41101 -2.65469 0
M  V30 11742 O 625.826 6.4965 -4.18908 0
M  V30 11743 C 626.766 5.80886 -5.05289 0
M  V30 11744 C 626.036 4.78366 -5.89277 0
M  V30 11745 O 625.826 3.58302 -5.08433 0
M  V30 11746 C 624.636 5.16748 -6.36559 0
M  V30 11747 O 624.246 4.45271 -7.53232 0
M  V30 11748 C 623.756 4.74572 -5.19863 0
M  V30 11749 C 624.466 3.49373 -4.70338 0
M  V30 11750 N 624.416 3.31704 -3.22876 0
M  V30 11751 C 624.266 2.03326 -2.74871 0
M  V30 11752 O 624.176 1.06486 -3.48076 0
M  V30 11753 N 624.226 1.91838 -1.37456 0
M  V30 11754 C 624.316 2.94295 -0.462035 0
M  V30 11755 C 624.466 4.25064 -1.05249 0
M  V30 11756 C 624.516 4.40214 -2.39192 0
M  V30 11757 H 627.257 6.54063 -5.71245 0
M  V30 11758 H 627.526 5.30339 -4.43905 0
M  V30 11759 H 626.659 4.55889 -6.76652 0
M  V30 11760 H 624.004 2.6167 -5.17842 0
M  V30 11761 H 623.725 5.52155 -4.41878 0
M  V30 11762 H 622.733 4.51918 -5.53297 0
M  V30 11763 H 624.567 6.25055 -6.55162 0
M  V30 11764 H 624.638 5.39798 -2.81523 0
M  V30 11765 P 622.696 4.23843 -7.83734 0
M  V30 11766 O 622.476 4.19407 -9.29784 0
M  V30 11767 O 621.906 5.24426 -7.09156 0
M  V30 11768 O 622.446 2.7935 -7.20758 0
M  V30 11769 C 623.386 1.7299 -7.50419 0
M  V30 11770 C 622.656 0.406376 -7.57911 0
M  V30 11771 O 622.446 -0.0897726 -6.21935 0
M  V30 11772 C 621.256 0.447224 -8.1878 0
M  V30 11773 O 620.866 -0.825065 -8.71101 0
M  V30 11774 C 620.376 0.783801 -6.99623 0
M  V30 11775 C 621.086 0.0619192 -5.85967 0
M  V30 11776 N 621.036 0.7859 -4.56281 0
M  V30 11777 H 623.875 1.93423 -8.4679 0
M  V30 11778 H 624.147 1.68181 -6.71046 0
M  V30 11779 H 623.279 -0.289041 -8.15388 0
M  V30 11780 P 619.316 -1.17771 -8.83182 0
M  V30 11781 O 619.096 -2.07206 -9.98732 0
M  V30 11782 O 618.526 0.0743816 -8.81969 0
M  V30 11783 O 619.066 -1.97652 -7.47304 0
M  V30 11784 C 620.006 -3.01133 -7.08783 0
M  V30 11785 C 619.276 -4.12613 -6.37049 0
M  V30 11786 O 619.066 -3.72827 -4.97879 0
M  V30 11787 C 617.876 -4.45085 -6.88694 0
M  V30 11788 O 617.486 -5.7877 -6.5624 0
M  V30 11789 C 616.996 -3.47817 -6.12078 0
M  V30 11790 C 617.706 -3.39414 -4.77697 0
M  V30 11791 N 617.656 -2.04615 -4.15333 0
M  V30 11792 H 620.495 -3.41248 -7.98759 0
M  V30 11793 H 620.767 -2.5837 -6.41742 0
M  V30 11794 H 619.899 -5.02657 -6.42673 0
M  V30 11795 P 615.936 -6.144 -6.45285 0
M  V30 11796 O 615.716 -7.54673 -6.86199 0
M  V30 11797 O 615.146 -5.12391 -7.179 0
M  V30 11798 O 615.686 -5.99158 -4.88404 0
M  V30 11799 C 616.626 -6.60062 -3.96313 0
M  V30 11800 C 615.896 -7.08259 -2.72856 0
M  V30 11801 O 615.686 -5.9427 -1.83651 0
M  V30 11802 C 614.496 -7.65087 -2.94749 0
M  V30 11803 O 614.106 -8.53963 -1.90717 0
M  V30 11804 C 613.616 -6.41069 -2.90698 0
M  V30 11805 C 614.326 -5.5528 -1.86931 0
M  V30 11806 N 614.276 -4.09575 -2.15696 0
M  V30 11807 C 614.126 -3.24249 -1.08435 0
M  V30 11808 O 614.036 -3.63946 0.0628747 0
M  V30 11809 N 614.086 -1.90009 -1.39973 0
M  V30 11810 C 614.176 -1.34884 -2.65614 0
M  V30 11811 O 614.126 -0.123716 -2.81728 0
M  V30 11812 C 614.326 -2.3145 -3.71736 0
M  V30 11813 C 614.436 -1.75913 -5.10438 0
M  V30 11814 C 614.376 -3.63518 -3.44754 0
M  V30 11815 H 617.117 -7.45402 -4.45526 0
M  V30 11816 H 617.386 -5.86062 -3.67208 0
M  V30 11817 H 616.519 -7.84412 -2.24479 0
M  V30 11818 H 613.864 -5.73358 -0.888409 0
M  V30 11819 H 613.585 -5.90877 -3.88583 0
M  V30 11820 H 612.593 -6.65867 -2.58821 0
M  V30 11821 H 614.427 -8.16248 -3.92006 0
M  V30 11822 H 614.498 -4.34551 -4.26383 0
M  V30 11823 H 613.468 -1.85471 -5.61775 0
M  V30 11824 H 615.205 -2.31364 -5.66257 0
M  V30 11825 H 614.717 -0.695936 -5.05229 0
M  V30 11826 H 613.981 -1.26277 -0.63625 0
M  V30 11827 P 612.556 -8.7635 -1.60911 0
M  V30 11828 O 612.336 -10.1388 -1.11561 0
M  V30 11829 O 611.766 -8.36503 -2.79617 0
M  V30 11830 O 612.306 -7.71806 -0.42951 0
M  V30 11831 C 613.246 -7.67148 0.673689 0
M  V30 11832 C 612.516 -7.33374 1.95559 0
M  V30 11833 O 612.306 -5.88721 2.00726 0
M  V30 11834 C 611.116 -7.92526 2.10483 0
M  V30 11835 O 610.726 -8.02971 3.47653 0
M  V30 11836 C 610.236 -6.89602 1.41652 0
M  V30 11837 C 610.946 -5.59201 1.75185 0
M  V30 11838 N 610.896 -4.58235 0.662552 0
M  V30 11839 H 613.735 -8.65116 0.777161 0
M  V30 11840 H 614.007 -6.90173 0.474152 0
M  V30 11841 H 613.139 -7.66548 2.79458 0
M  V30 11842 P 609.176 -8.03563 3.84925 0
M  V30 11843 O 608.956 -8.85821 5.0569 0
M  V30 11844 O 608.386 -8.41101 2.65469 0
M  V30 11845 O 608.926 -6.4965 4.18908 0
M  V30 11846 C 609.866 -5.81037 5.05421 0
M  V30 11847 C 609.136 -4.78366 5.89277 0
M  V30 11848 O 608.926 -3.58302 5.08433 0
M  V30 11849 C 607.736 -5.17448 6.36119 0
M  V30 11850 O 607.346 -4.45271 7.53232 0
M  V30 11851 C 606.856 -4.74639 5.19936 0
M  V30 11852 C 607.566 -3.49432 4.70418 0
M  V30 11853 N 607.516 -3.31776 3.22945 0
M  V30 11854 H 610.355 -6.54213 5.71376 0
M  V30 11855 H 610.627 -5.30492 4.44033 0
M  V30 11856 H 609.759 -4.55889 6.76652 0
M  V30 11857 P 605.796 -4.23843 7.83734 0
M  V30 11858 O 605.576 -4.19407 9.29784 0
M  V30 11859 O 605.006 -5.24426 7.09156 0
M  V30 11860 O 605.546 -2.79386 7.20852 0
M  V30 11861 C 606.486 -1.7299 7.50419 0
M  V30 11862 C 605.756 -0.41401 7.5797 0
M  V30 11863 O 605.546 0.089787 6.22035 0
M  V30 11864 C 604.356 -0.447224 8.1878 0
M  V30 11865 O 603.966 0.825159 8.71201 0
M  V30 11866 C 603.476 -0.783801 6.99623 0
M  V30 11867 C 604.186 -0.0619192 5.85967 0
M  V30 11868 N 604.136 -0.7859 4.56281 0
M  V30 11869 C 603.986 -0.0359258 3.39981 0
M  V30 11870 O 603.896 1.19723 3.49038 0
M  V30 11871 N 603.936 -0.869151 2.14025 0
M  V30 11872 C 604.036 -2.01207 2.14363 0
M  V30 11873 N 603.986 -2.58978 0.954287 0
M  V30 11874 C 604.186 -2.80817 3.32215 0
M  V30 11875 C 604.236 -2.13785 4.50884 0
M  V30 11876 H 606.976 -1.93401 8.46693 0
M  V30 11877 H 607.246 -1.68181 6.71046 0
M  V30 11878 H 606.379 0.289076 8.15488 0
M  V30 11879 H 603.724 0.927166 5.72947 0
M  V30 11880 H 603.444 -1.87 6.82132 0
M  V30 11881 H 602.453 -0.404009 7.13457 0
M  V30 11882 H 604.287 -1.20599 8.97534 0
M  V30 11883 H 604.359 -2.70295 5.43162 0
M  V30 11884 H 604.257 -3.89465 3.27406 0
M  V30 11885 H 603.869 -2.01616 0.107046 0
M  V30 11886 H 604.065 -3.61403 0.873101 0
M  V30 11887 P 602.416 1.17771 8.83182 0
M  V30 11888 O 602.196 2.07206 9.98732 0
M  V30 11889 O 601.626 -0.0743816 8.81969 0
M  V30 11890 O 602.166 1.97652 7.47304 0
M  V30 11891 C 603.106 3.01133 7.08783 0
M  V30 11892 C 602.376 4.12613 6.37049 0
M  V30 11893 O 602.166 3.72827 4.97879 0
M  V30 11894 C 600.976 4.45085 6.88694 0
M  V30 11895 O 600.586 5.7877 6.5624 0
M  V30 11896 C 600.096 3.47817 6.12078 0
M  V30 11897 C 600.806 3.39414 4.77697 0
M  V30 11898 N 600.756 2.04615 4.15333 0
M  V30 11899 H 603.595 3.41248 7.98759 0
M  V30 11900 H 603.867 2.5837 6.41742 0
M  V30 11901 H 602.999 5.02657 6.42673 0
M  V30 11902 P 599.036 6.144 6.45285 0
M  V30 11903 O 598.816 7.54673 6.86199 0
M  V30 11904 O 598.246 5.12391 7.179 0
M  V30 11905 O 598.786 5.99158 4.88404 0
M  V30 11906 C 599.726 6.60234 3.96415 0
M  V30 11907 C 598.996 7.08259 2.72856 0
M  V30 11908 O 598.786 5.9427 1.83651 0
M  V30 11909 C 597.596 7.64886 2.9555 0
M  V30 11910 O 597.206 8.53963 1.90717 0
M  V30 11911 C 596.716 6.4116 2.90739 0
M  V30 11912 C 597.426 5.55375 1.86963 0
M  V30 11913 N 597.376 4.09664 2.15742 0
M  V30 11914 H 600.215 7.45574 4.45629 0
M  V30 11915 H 600.487 5.86232 3.67314 0
M  V30 11916 H 599.619 7.84412 2.24479 0
M  V30 11917 P 595.656 8.7635 1.60911 0
M  V30 11918 O 595.437 10.1388 1.11561 0
M  V30 11919 O 594.866 8.36503 2.79617 0
M  V30 11920 O 595.406 7.71806 0.42951 0
M  V30 11921 C 596.346 7.67148 -0.673689 0
M  V30 11922 C 595.616 7.33374 -1.95559 0
M  V30 11923 O 595.406 5.88721 -2.00726 0
M  V30 11924 C 594.216 7.92526 -2.10483 0
M  V30 11925 O 593.827 8.02971 -3.47653 0
M  V30 11926 C 593.337 6.89602 -1.41652 0
M  V30 11927 C 594.046 5.59201 -1.75185 0
M  V30 11928 N 593.996 4.58301 -0.657969 0
M  V30 11929 C 594.077 4.79019 0.692603 0
M  V30 11930 N 594.006 3.69736 1.38998 0
M  V30 11931 C 593.856 2.70474 0.438135 0
M  V30 11932 C 593.726 1.30327 0.538142 0
M  V30 11933 N 593.716 0.64304 1.69192 0
M  V30 11934 N 593.606 0.611027 -0.605183 0
M  V30 11935 C 593.616 1.27002 -1.75953 0
M  V30 11936 N 593.736 2.56038 -1.98546 0
M  V30 11937 C 593.856 3.22681 -0.822541 0
M  V30 11938 H 596.836 8.65116 -0.777161 0
M  V30 11939 H 597.107 6.9022 -0.46725 0
M  V30 11940 H 596.24 7.66548 -2.79458 0
M  V30 11941 H 593.584 5.16165 -2.65183 0
M  V30 11942 H 593.304 7.06433 -0.329384 0
M  V30 11943 H 592.313 6.90926 -1.82021 0
M  V30 11944 H 594.147 8.90873 -1.62657 0
M  V30 11945 H 594.188 5.77785 1.13874 0
M  V30 11946 H 593.808 1.15585 2.57991 0
M  V30 11947 H 593.618 -0.382989 1.69835 0
M  V30 11948 H 593.51 0.653331 -2.64449 0
M  V30 11949 P 592.277 8.03563 -3.84925 0
M  V30 11950 O 592.057 8.85821 -5.0569 0
M  V30 11951 O 591.487 8.41101 -2.65469 0
M  V30 11952 O 592.027 6.4965 -4.18908 0
M  V30 11953 C 592.967 5.81037 -5.05421 0
M  V30 11954 C 592.237 4.78366 -5.89277 0
M  V30 11955 O 592.027 3.58302 -5.08433 0
M  V30 11956 C 590.837 5.17448 -6.36119 0
M  V30 11957 O 590.447 4.45271 -7.53232 0
M  V30 11958 C 589.957 4.74639 -5.19936 0
M  V30 11959 C 590.667 3.49432 -4.70418 0
M  V30 11960 N 590.617 3.31776 -3.22945 0
M  V30 11961 H 593.456 6.54213 -5.71376 0
M  V30 11962 H 593.728 5.30492 -4.44033 0
M  V30 11963 H 592.86 4.55889 -6.76652 0
M  V30 11964 P 588.897 4.23843 -7.83734 0
M  V30 11965 O 588.677 4.19407 -9.29784 0
M  V30 11966 O 588.107 5.24426 -7.09156 0
M  V30 11967 O 588.647 2.7935 -7.20758 0
M  V30 11968 C 589.587 1.7299 -7.50419 0
M  V30 11969 C 588.857 0.406376 -7.57911 0
M  V30 11970 O 588.647 -0.0897726 -6.21935 0
M  V30 11971 C 587.457 0.447224 -8.1878 0
M  V30 11972 O 587.067 -0.825065 -8.71101 0
M  V30 11973 C 586.577 0.783801 -6.99623 0
M  V30 11974 C 587.287 0.0619192 -5.85967 0
M  V30 11975 N 587.237 0.7859 -4.56281 0
M  V30 11976 C 587.317 2.14308 -4.31736 0
M  V30 11977 N 587.237 2.46106 -3.05116 0
M  V30 11978 C 587.097 1.23422 -2.4014 0
M  V30 11979 C 586.967 0.938381 -1.02409 0
M  V30 11980 N 586.847 -0.444647 -0.805413 0
M  V30 11981 C 586.847 -1.40829 -1.79435 0
M  V30 11982 N 586.717 -2.67213 -1.38558 0
M  V30 11983 N 586.977 -1.12947 -3.09005 0
M  V30 11984 C 587.097 0.204887 -3.32369 0
M  V30 11985 H 590.076 1.93423 -8.4679 0
M  V30 11986 H 590.348 1.68181 -6.71046 0
M  V30 11987 H 589.48 -0.289041 -8.15388 0
M  V30 11988 P 585.517 -1.17771 -8.83182 0
M  V30 11989 O 585.297 -2.07206 -9.98732 0
M  V30 11990 O 584.727 0.0743816 -8.81969 0
M  V30 11991 O 585.267 -1.97652 -7.47304 0
M  V30 11992 C 586.207 -3.01133 -7.08783 0
M  V30 11993 C 585.477 -4.12613 -6.37049 0
M  V30 11994 O 585.267 -3.72827 -4.97879 0
M  V30 11995 C 584.077 -4.45085 -6.88694 0
M  V30 11996 O 583.687 -5.7877 -6.5624 0
M  V30 11997 C 583.197 -3.47817 -6.12078 0
M  V30 11998 C 583.907 -3.39414 -4.77697 0
M  V30 11999 N 583.857 -2.04199 -4.15538 0
M  V30 12000 H 586.696 -3.41248 -7.98759 0
M  V30 12001 H 586.968 -2.57728 -6.42 0
M  V30 12002 H 586.1 -5.02657 -6.42673 0
M  V30 12003 H 583.445 -4.11708 -4.08956 0
M  V30 12004 H 583.165 -2.49626 -6.61679 0
M  V30 12005 H 582.174 -3.8662 -6.00862 0
M  V30 12006 H 584.008 -4.29991 -7.97006 0
M  V30 12007 P 582.137 -6.144 -6.45285 0
M  V30 12008 O 581.917 -7.54673 -6.86199 0
M  V30 12009 O 581.347 -5.12391 -7.179 0
M  V30 12010 O 581.887 -5.99158 -4.88404 0
M  V30 12011 C 582.827 -6.60234 -3.96415 0
M  V30 12012 C 582.097 -7.08259 -2.72856 0
M  V30 12013 O 581.887 -5.9427 -1.83651 0
M  V30 12014 C 580.697 -7.64886 -2.9555 0
M  V30 12015 O 580.307 -8.53963 -1.90717 0
M  V30 12016 C 579.817 -6.4116 -2.90739 0
M  V30 12017 C 580.527 -5.55375 -1.86963 0
M  V30 12018 N 580.477 -4.09664 -2.15742 0
M  V30 12019 H 583.316 -7.45574 -4.45629 0
M  V30 12020 H 583.588 -5.86232 -3.67314 0
M  V30 12021 H 582.72 -7.84412 -2.24479 0
M  V30 12022 P 578.757 -8.7635 -1.60911 0
M  V30 12023 O 578.537 -10.1388 -1.11561 0
M  V30 12024 O 577.967 -8.36503 -2.79617 0
M  V30 12025 O 578.507 -7.71806 -0.42951 0
M  V30 12026 C 579.447 -7.67148 0.673689 0
M  V30 12027 C 578.717 -7.33374 1.95559 0
M  V30 12028 O 578.507 -5.88721 2.00726 0
M  V30 12029 C 577.317 -7.92526 2.10483 0
M  V30 12030 O 576.927 -8.02971 3.47653 0
M  V30 12031 C 576.437 -6.89602 1.41652 0
M  V30 12032 C 577.147 -5.59201 1.75185 0
M  V30 12033 N 577.097 -4.58235 0.662552 0
M  V30 12034 H 579.936 -8.65116 0.777161 0
M  V30 12035 H 580.208 -6.90173 0.474152 0
M  V30 12036 H 579.34 -7.66548 2.79458 0
M  V30 12037 P 575.377 -8.03563 3.84925 0
M  V30 12038 O 575.157 -8.85821 5.0569 0
M  V30 12039 O 574.587 -8.41101 2.65469 0
M  V30 12040 O 575.127 -6.4965 4.18908 0
M  V30 12041 C 576.067 -5.81037 5.05421 0
M  V30 12042 C 575.337 -4.78366 5.89277 0
M  V30 12043 O 575.127 -3.58302 5.08433 0
M  V30 12044 C 573.937 -5.17448 6.36119 0
M  V30 12045 O 573.547 -4.45271 7.53232 0
M  V30 12046 C 573.057 -4.74639 5.19936 0
M  V30 12047 C 573.767 -3.49432 4.70418 0
M  V30 12048 N 573.717 -3.31776 3.22945 0
M  V30 12049 H 576.556 -6.54213 5.71376 0
M  V30 12050 H 576.828 -5.30492 4.44033 0
M  V30 12051 H 575.96 -4.55889 6.76652 0
M  V30 12052 P 571.997 -4.23843 7.83734 0
M  V30 12053 O 571.777 -4.19407 9.29784 0
M  V30 12054 O 571.207 -5.24426 7.09156 0
M  V30 12055 O 571.747 -2.7935 7.20758 0
M  V30 12056 C 572.687 -1.7299 7.50419 0
M  V30 12057 C 571.957 -0.406376 7.57911 0
M  V30 12058 O 571.747 0.0897726 6.21935 0
M  V30 12059 C 570.557 -0.447224 8.1878 0
M  V30 12060 O 570.167 0.825065 8.71101 0
M  V30 12061 C 569.677 -0.783801 6.99623 0
M  V30 12062 C 570.387 -0.0619192 5.85967 0
M  V30 12063 N 570.337 -0.7859 4.56281 0
M  V30 12064 H 573.176 -1.93423 8.4679 0
M  V30 12065 H 573.448 -1.68181 6.71046 0
M  V30 12066 H 572.58 0.289041 8.15388 0
M  V30 12067 P 568.617 1.17771 8.83182 0
M  V30 12068 O 568.397 2.07206 9.98732 0
M  V30 12069 O 567.827 -0.0743816 8.81969 0
M  V30 12070 O 568.367 1.97652 7.47304 0
M  V30 12071 C 569.307 3.01133 7.08783 0
M  V30 12072 C 568.577 4.12613 6.37049 0
M  V30 12073 O 568.367 3.72827 4.97879 0
M  V30 12074 C 567.177 4.45085 6.88694 0
M  V30 12075 O 566.787 5.7877 6.5624 0
M  V30 12076 C 566.297 3.47817 6.12078 0
M  V30 12077 C 567.007 3.39414 4.77697 0
M  V30 12078 N 566.957 2.04199 4.15538 0
M  V30 12079 H 569.796 3.41248 7.98759 0
M  V30 12080 H 570.068 2.57728 6.42 0
M  V30 12081 H 569.2 5.02657 6.42673 0
M  V30 12082 H 566.545 4.11708 4.08956 0
M  V30 12083 H 566.265 2.49626 6.61679 0
M  V30 12084 H 565.274 3.8662 6.00862 0
M  V30 12085 H 567.108 4.29991 7.97006 0
M  V30 12086 P 565.237 6.144 6.45285 0
M  V30 12087 O 565.017 7.54673 6.86199 0
M  V30 12088 O 564.447 5.12391 7.179 0
M  V30 12089 O 564.987 5.99158 4.88404 0
M  V30 12090 C 565.927 6.60234 3.96415 0
M  V30 12091 C 565.197 7.08259 2.72856 0
M  V30 12092 O 564.987 5.9427 1.83651 0
M  V30 12093 C 563.797 7.64886 2.9555 0
M  V30 12094 O 563.407 8.53963 1.90717 0
M  V30 12095 C 562.917 6.4116 2.90739 0
M  V30 12096 C 563.627 5.55375 1.86963 0
M  V30 12097 N 563.577 4.09448 2.16152 0
M  V30 12098 H 566.416 7.45574 4.45629 0
M  V30 12099 H 566.688 5.85864 3.679 0
M  V30 12100 H 565.82 7.84412 2.24479 0
M  V30 12101 H 563.165 5.73457 0.888562 0
M  V30 12102 H 562.885 5.90877 3.88583 0
M  V30 12103 H 561.894 6.6596 2.58858 0
M  V30 12104 H 563.728 8.16339 3.92049 0
M  V30 12105 P 561.857 8.7635 1.60911 0
M  V30 12106 O 561.637 10.1388 1.11561 0
M  V30 12107 O 561.067 8.36503 2.79617 0
M  V30 12108 O 561.607 7.71806 0.42951 0
M  V30 12109 C 562.547 7.67148 -0.673689 0
M  V30 12110 C 561.817 7.33374 -1.95559 0
M  V30 12111 O 561.607 5.88721 -2.00726 0
M  V30 12112 C 560.417 7.92526 -2.10483 0
M  V30 12113 O 560.027 8.02971 -3.47653 0
M  V30 12114 C 559.537 6.89602 -1.41652 0
M  V30 12115 C 560.247 5.59201 -1.75185 0
M  V30 12116 N 560.197 4.58235 -0.662552 0
M  V30 12117 H 563.036 8.65116 -0.777161 0
M  V30 12118 H 563.308 6.90173 -0.474152 0
M  V30 12119 H 562.44 7.66548 -2.79458 0
M  V30 12120 P 558.477 8.03563 -3.84925 0
M  V30 12121 O 558.257 8.85821 -5.0569 0
M  V30 12122 O 557.687 8.41101 -2.65469 0
M  V30 12123 O 558.227 6.4965 -4.18908 0
M  V30 12124 C 559.167 5.81037 -5.05421 0
M  V30 12125 C 558.437 4.78366 -5.89277 0
M  V30 12126 O 558.227 3.58302 -5.08433 0
M  V30 12127 C 557.037 5.17448 -6.36119 0
M  V30 12128 O 556.647 4.45271 -7.53232 0
M  V30 12129 C 556.157 4.74639 -5.19936 0
M  V30 12130 C 556.867 3.49432 -4.70418 0
M  V30 12131 N 556.817 3.31776 -3.22945 0
M  V30 12132 H 559.656 6.54213 -5.71376 0
M  V30 12133 H 559.928 5.30492 -4.44033 0
M  V30 12134 H 559.06 4.55889 -6.76652 0
M  V30 12135 P 555.097 4.23843 -7.83734 0
M  V30 12136 O 554.877 4.19407 -9.29784 0
M  V30 12137 O 554.307 5.24426 -7.09156 0
M  V30 12138 O 554.847 2.7935 -7.20758 0
M  V30 12139 C 555.787 1.7299 -7.50419 0
M  V30 12140 C 555.057 0.406376 -7.57911 0
M  V30 12141 O 554.847 -0.0897726 -6.21935 0
M  V30 12142 C 553.657 0.447224 -8.1878 0
M  V30 12143 O 553.267 -0.825065 -8.71101 0
M  V30 12144 C 552.777 0.783801 -6.99623 0
M  V30 12145 C 553.487 0.0619192 -5.85967 0
M  V30 12146 N 553.437 0.790462 -4.56202 0
M  V30 12147 H 556.276 1.93423 -8.4679 0
M  V30 12148 H 556.548 1.68852 -6.70877 0
M  V30 12149 H 555.68 -0.289041 -8.15388 0
M  V30 12150 H 553.025 -0.927006 -5.72848 0
M  V30 12151 H 552.745 1.86973 -6.82036 0
M  V30 12152 H 551.754 0.403953 -7.13357 0
M  V30 12153 H 553.588 1.20599 -8.97534 0
M  V30 12154 P 551.717 -1.17771 -8.83182 0
M  V30 12155 O 551.497 -2.07206 -9.98732 0
M  V30 12156 O 550.927 0.0743816 -8.81969 0
M  V30 12157 O 551.467 -1.97652 -7.47304 0
M  V30 12158 C 552.407 -3.01133 -7.08783 0
M  V30 12159 C 551.677 -4.12613 -6.37049 0
M  V30 12160 O 551.467 -3.72827 -4.97879 0
M  V30 12161 C 550.277 -4.45085 -6.88694 0
M  V30 12162 O 549.887 -5.7877 -6.5624 0
M  V30 12163 C 549.397 -3.47817 -6.12078 0
M  V30 12164 C 550.107 -3.39414 -4.77697 0
M  V30 12165 N 550.057 -2.04615 -4.15333 0
M  V30 12166 H 552.896 -3.41248 -7.98759 0
M  V30 12167 H 553.168 -2.5837 -6.41742 0
M  V30 12168 H 552.3 -5.02657 -6.42673 0
M  V30 12169 P 548.337 -6.144 -6.45285 0
M  V30 12170 O 548.117 -7.54673 -6.86199 0
M  V30 12171 O 547.547 -5.12391 -7.179 0
M  V30 12172 O 548.087 -5.99158 -4.88404 0
M  V30 12173 C 549.027 -6.60234 -3.96415 0
M  V30 12174 C 548.297 -7.08259 -2.72856 0
M  V30 12175 O 548.087 -5.9427 -1.83651 0
M  V30 12176 C 546.897 -7.64886 -2.9555 0
M  V30 12177 O 546.507 -8.53963 -1.90717 0
M  V30 12178 C 546.017 -6.4116 -2.90739 0
M  V30 12179 C 546.727 -5.55375 -1.86963 0
M  V30 12180 N 546.677 -4.09448 -2.16152 0
M  V30 12181 H 549.516 -7.45574 -4.45629 0
M  V30 12182 H 549.788 -5.85864 -3.679 0
M  V30 12183 H 548.92 -7.84412 -2.24479 0
M  V30 12184 H 546.265 -5.73457 -0.888562 0
M  V30 12185 H 545.985 -5.90877 -3.88583 0
M  V30 12186 H 544.994 -6.6596 -2.58858 0
M  V30 12187 H 546.828 -8.16339 -3.92049 0
M  V30 12188 P 544.957 -8.7635 -1.60911 0
M  V30 12189 O 544.737 -10.1388 -1.11561 0
M  V30 12190 O 544.167 -8.36503 -2.79617 0
M  V30 12191 O 544.707 -7.71806 -0.42951 0
M  V30 12192 C 545.647 -7.67148 0.673689 0
M  V30 12193 C 544.917 -7.33374 1.95559 0
M  V30 12194 O 544.707 -5.88721 2.00726 0
M  V30 12195 C 543.517 -7.92526 2.10483 0
M  V30 12196 O 543.127 -8.02971 3.47653 0
M  V30 12197 C 542.637 -6.89602 1.41652 0
M  V30 12198 C 543.347 -5.59201 1.75185 0
M  V30 12199 N 543.297 -4.58301 0.657969 0
M  V30 12200 H 546.136 -8.65116 0.777161 0
M  V30 12201 H 546.408 -6.9022 0.46725 0
M  V30 12202 H 545.54 -7.66548 2.79458 0
M  V30 12203 H 542.885 -5.16165 2.65183 0
M  V30 12204 H 542.605 -7.06433 0.329384 0
M  V30 12205 H 541.614 -6.90926 1.82021 0
M  V30 12206 H 543.448 -8.90873 1.62657 0
M  V30 12207 P 541.577 -8.03563 3.84925 0
M  V30 12208 O 541.357 -8.85821 5.0569 0
M  V30 12209 O 540.787 -8.41101 2.65469 0
M  V30 12210 O 541.327 -6.4965 4.18908 0
M  V30 12211 C 542.267 -5.81037 5.05421 0
M  V30 12212 C 541.537 -4.78366 5.89277 0
M  V30 12213 O 541.327 -3.58302 5.08433 0
M  V30 12214 C 540.137 -5.17448 6.36119 0
M  V30 12215 O 539.747 -4.45271 7.53232 0
M  V30 12216 C 539.257 -4.74639 5.19936 0
M  V30 12217 C 539.967 -3.49432 4.70418 0
M  V30 12218 N 539.917 -3.31776 3.22945 0
M  V30 12219 H 542.756 -6.54213 5.71376 0
M  V30 12220 H 543.028 -5.30492 4.44033 0
M  V30 12221 H 542.16 -4.55889 6.76652 0
M  V30 12222 P 538.197 -4.23843 7.83734 0
M  V30 12223 O 537.977 -4.19407 9.29784 0
M  V30 12224 O 537.407 -5.24426 7.09156 0
M  V30 12225 O 537.947 -2.7935 7.20758 0
M  V30 12226 C 538.887 -1.7299 7.50419 0
M  V30 12227 C 538.157 -0.406376 7.57911 0
M  V30 12228 O 537.947 0.0897726 6.21935 0
M  V30 12229 C 536.757 -0.447224 8.1878 0
M  V30 12230 O 536.367 0.825065 8.71101 0
M  V30 12231 C 535.877 -0.783801 6.99623 0
M  V30 12232 C 536.587 -0.0619192 5.85967 0
M  V30 12233 N 536.537 -0.790462 4.56202 0
M  V30 12234 C 536.617 -2.13895 4.34171 0
M  V30 12235 N 536.547 -2.46449 3.08687 0
M  V30 12236 C 536.397 -1.2525 2.43697 0
M  V30 12237 C 536.267 -0.914535 1.07318 0
M  V30 12238 N 536.257 -1.80782 0.0887348 0
M  V30 12239 N 536.147 0.386745 0.768133 0
M  V30 12240 C 536.157 1.28096 1.75159 0
M  V30 12241 N 536.277 1.09708 3.04861 0
M  V30 12242 C 536.397 -0.214857 3.32306 0
M  V30 12243 H 539.376 -1.93423 8.4679 0
M  V30 12244 H 539.648 -1.68852 6.70877 0
M  V30 12245 H 538.78 0.289041 8.15388 0
M  V30 12246 H 536.125 0.927006 5.72848 0
M  V30 12247 H 535.845 -1.86973 6.82036 0
M  V30 12248 H 534.854 -0.403953 7.13357 0
M  V30 12249 H 536.688 -1.20599 8.97534 0
M  V30 12250 H 536.729 -2.86846 5.14318 0
M  V30 12251 H 536.348 -2.81082 0.302037 0
M  V30 12252 H 536.159 -1.49688 -0.889064 0
M  V30 12253 H 536.051 2.31317 1.43855 0
M  V30 12254 P 534.817 1.17771 8.83182 0
M  V30 12255 O 534.597 2.07206 9.98732 0
M  V30 12256 O 534.027 -0.0743816 8.81969 0
M  V30 12257 O 534.567 1.97652 7.47304 0
M  V30 12258 C 535.507 3.01133 7.08783 0
M  V30 12259 C 534.777 4.12613 6.37049 0
M  V30 12260 O 534.567 3.72827 4.97879 0
M  V30 12261 C 533.377 4.45085 6.88694 0
M  V30 12262 O 532.987 5.7877 6.5624 0
M  V30 12263 C 532.497 3.47817 6.12078 0
M  V30 12264 C 533.207 3.39414 4.77697 0
M  V30 12265 N 533.157 2.04615 4.15333 0
M  V30 12266 H 535.996 3.41248 7.98759 0
M  V30 12267 H 536.268 2.5837 6.41742 0
M  V30 12268 H 535.4 5.02657 6.42673 0
M  V30 12269 P 531.437 6.144 6.45285 0
M  V30 12270 O 531.217 7.54673 6.86199 0
M  V30 12271 O 530.647 5.12391 7.179 0
M  V30 12272 O 531.187 5.99158 4.88404 0
M  V30 12273 C 532.127 6.60234 3.96415 0
M  V30 12274 C 531.397 7.08259 2.72856 0
M  V30 12275 O 531.187 5.9427 1.83651 0
M  V30 12276 C 529.997 7.64886 2.9555 0
M  V30 12277 O 529.607 8.53963 1.90717 0
M  V30 12278 C 529.117 6.4116 2.90739 0
M  V30 12279 C 529.827 5.55375 1.86963 0
M  V30 12280 N 529.777 4.09664 2.15742 0
M  V30 12281 H 532.616 7.45574 4.45629 0
M  V30 12282 H 532.888 5.86232 3.67314 0
M  V30 12283 H 532.02 7.84412 2.24479 0
M  V30 12284 P 528.057 8.7635 1.60911 0
M  V30 12285 O 527.837 10.1388 1.11561 0
M  V30 12286 O 527.267 8.36503 2.79617 0
M  V30 12287 O 527.807 7.71906 0.429565 0
M  V30 12288 C 528.747 7.67148 -0.673689 0
M  V30 12289 C 528.017 7.33666 -1.94851 0
M  V30 12290 O 527.807 5.88816 -2.00759 0
M  V30 12291 C 526.617 7.92526 -2.10483 0
M  V30 12292 O 526.227 8.03063 -3.47693 0
M  V30 12293 C 525.737 6.89602 -1.41652 0
M  V30 12294 C 526.447 5.59201 -1.75185 0
M  V30 12295 N 526.397 4.58235 -0.662552 0
M  V30 12296 C 526.247 3.24451 -1.01643 0
M  V30 12297 O 526.157 2.94958 -2.21722 0
M  V30 12298 N 526.197 2.30408 0.165238 0
M  V30 12299 C 526.297 2.66048 1.25118 0
M  V30 12300 N 526.247 1.70787 2.16813 0
M  V30 12301 C 526.447 4.02732 1.64413 0
M  V30 12302 C 526.497 4.9488 0.63991 0
M  V30 12303 H 529.237 8.65017 -0.777072 0
M  V30 12304 H 529.507 6.90173 -0.474152 0
M  V30 12305 H 528.64 7.66642 -2.79492 0
M  V30 12306 H 525.985 5.16254 -2.65229 0
M  V30 12307 H 525.705 7.06532 -0.329431 0
M  V30 12308 H 524.714 6.91023 -1.82047 0
M  V30 12309 H 526.548 8.90873 -1.62657 0
M  V30 12310 H 526.62 6.00104 0.892197 0
M  V30 12311 H 526.518 4.31733 2.69229 0
M  V30 12312 H 526.13 0.724835 1.8844 0
M  V30 12313 H 526.326 1.94716 3.16734 0
M  V30 12314 P 524.677 8.03563 -3.84925 0
M  V30 12315 O 524.457 8.85821 -5.0569 0
M  V30 12316 O 523.887 8.41101 -2.65469 0
M  V30 12317 O 524.427 6.4965 -4.18908 0
M  V30 12318 C 525.367 5.81037 -5.05421 0
M  V30 12319 C 524.637 4.78366 -5.89277 0
M  V30 12320 O 524.427 3.58302 -5.08433 0
M  V30 12321 C 523.237 5.17448 -6.36119 0
M  V30 12322 O 522.847 4.45271 -7.53232 0
M  V30 12323 C 522.357 4.74639 -5.19936 0
M  V30 12324 C 523.067 3.49432 -4.70418 0
M  V30 12325 N 523.017 3.31776 -3.22945 0
M  V30 12326 H 525.856 6.54213 -5.71376 0
M  V30 12327 H 526.128 5.30492 -4.44033 0
M  V30 12328 H 525.26 4.55889 -6.76652 0
M  V30 12329 P 521.297 4.23843 -7.83734 0
M  V30 12330 O 521.077 4.19407 -9.29784 0
M  V30 12331 O 520.507 5.24426 -7.09156 0
M  V30 12332 O 521.047 2.79386 -7.20852 0
M  V30 12333 C 521.987 1.7299 -7.50419 0
M  V30 12334 C 521.257 0.41401 -7.5797 0
M  V30 12335 O 521.047 -0.089787 -6.22035 0
M  V30 12336 C 519.857 0.447224 -8.1878 0
M  V30 12337 O 519.467 -0.825159 -8.71201 0
M  V30 12338 C 518.977 0.783801 -6.99623 0
M  V30 12339 C 519.687 0.0619192 -5.85967 0
M  V30 12340 N 519.637 0.7859 -4.56281 0
M  V30 12341 C 519.487 0.0359258 -3.39981 0
M  V30 12342 O 519.397 -1.19723 -3.49038 0
M  V30 12343 N 519.437 0.869151 -2.14025 0
M  V30 12344 C 519.537 2.01207 -2.14363 0
M  V30 12345 N 519.487 2.58978 -0.954287 0
M  V30 12346 C 519.687 2.80817 -3.32215 0
M  V30 12347 C 519.737 2.13785 -4.50884 0
M  V30 12348 H 522.477 1.93401 -8.46693 0
M  V30 12349 H 522.747 1.68181 -6.71046 0
M  V30 12350 H 521.88 -0.289076 -8.15488 0
M  V30 12351 H 519.225 -0.927166 -5.72947 0
M  V30 12352 H 518.945 1.87 -6.82132 0
M  V30 12353 H 517.954 0.404009 -7.13457 0
M  V30 12354 H 519.788 1.20599 -8.97534 0
M  V30 12355 H 519.86 2.70295 -5.43162 0
M  V30 12356 H 519.758 3.89465 -3.27406 0
M  V30 12357 H 519.37 2.01616 -0.107046 0
M  V30 12358 H 519.566 3.61403 -0.873101 0
M  V30 12359 P 517.917 -1.17771 -8.83182 0
M  V30 12360 O 517.697 -2.07206 -9.98732 0
M  V30 12361 O 517.127 0.0743816 -8.81969 0
M  V30 12362 O 517.667 -1.97652 -7.47304 0
M  V30 12363 C 518.607 -3.01055 -7.08599 0
M  V30 12364 C 517.877 -4.12613 -6.37049 0
M  V30 12365 O 517.667 -3.72827 -4.97879 0
M  V30 12366 C 516.477 -4.45719 -6.88164 0
M  V30 12367 O 516.087 -5.7877 -6.5624 0
M  V30 12368 C 515.597 -3.47768 -6.11991 0
M  V30 12369 C 516.307 -3.39356 -4.77615 0
M  V30 12370 N 516.257 -2.04571 -4.15244 0
M  V30 12371 C 516.107 -1.98587 -2.78314 0
M  V30 12372 O 516.017 -2.98134 -2.08835 0
M  V30 12373 N 516.067 -0.714467 -2.24925 0
M  V30 12374 C 516.157 0.470001 -2.94169 0
M  V30 12375 C 516.307 0.312541 -4.36783 0
M  V30 12376 C 516.357 -0.914512 -4.92583 0
M  V30 12377 H 519.098 -3.41169 -7.98575 0
M  V30 12378 H 519.367 -2.58295 -6.41556 0
M  V30 12379 H 518.5 -5.02657 -6.42673 0
M  V30 12380 H 515.845 -4.11637 -4.08885 0
M  V30 12381 H 515.566 -2.49626 -6.61679 0
M  V30 12382 H 514.574 -3.86566 -6.00778 0
M  V30 12383 H 516.408 -4.29943 -7.96918 0
M  V30 12384 H 516.479 -1.00937 -6.00374 0
M  V30 12385 P 514.537 -6.144 -6.45285 0
M  V30 12386 O 514.317 -7.54673 -6.86199 0
M  V30 12387 O 513.747 -5.12391 -7.179 0
M  V30 12388 O 514.287 -5.99158 -4.88404 0
M  V30 12389 C 515.227 -6.60234 -3.96415 0
M  V30 12390 C 514.497 -7.08259 -2.72856 0
M  V30 12391 O 514.287 -5.9427 -1.83651 0
M  V30 12392 C 513.097 -7.64886 -2.9555 0
M  V30 12393 O 512.707 -8.53963 -1.90717 0
M  V30 12394 C 512.217 -6.4116 -2.90739 0
M  V30 12395 C 512.927 -5.55375 -1.86963 0
M  V30 12396 N 512.877 -4.09448 -2.16152 0
M  V30 12397 H 515.716 -7.45574 -4.45629 0
M  V30 12398 H 515.988 -5.85864 -3.679 0
M  V30 12399 H 515.12 -7.84412 -2.24479 0
M  V30 12400 H 512.465 -5.73457 -0.888562 0
M  V30 12401 H 512.185 -5.90877 -3.88583 0
M  V30 12402 H 511.194 -6.6596 -2.58858 0
M  V30 12403 H 513.028 -8.16339 -3.92049 0
M  V30 12404 P 511.157 -8.7635 -1.60911 0
M  V30 12405 O 510.937 -10.1388 -1.11561 0
M  V30 12406 O 510.367 -8.36503 -2.79617 0
M  V30 12407 O 510.907 -7.71806 -0.42951 0
M  V30 12408 C 511.847 -7.67148 0.673689 0
M  V30 12409 C 511.117 -7.33374 1.95559 0
M  V30 12410 O 510.907 -5.88721 2.00726 0
M  V30 12411 C 509.717 -7.92526 2.10483 0
M  V30 12412 O 509.327 -8.02971 3.47653 0
M  V30 12413 C 508.837 -6.89602 1.41652 0
M  V30 12414 C 509.547 -5.59201 1.75185 0
M  V30 12415 N 509.497 -4.58301 0.657969 0
M  V30 12416 H 512.336 -8.65116 0.777161 0
M  V30 12417 H 512.608 -6.9022 0.46725 0
M  V30 12418 H 511.74 -7.66548 2.79458 0
M  V30 12419 H 509.085 -5.16165 2.65183 0
M  V30 12420 H 508.805 -7.06433 0.329384 0
M  V30 12421 H 507.814 -6.90926 1.82021 0
M  V30 12422 H 509.648 -8.90873 1.62657 0
M  V30 12423 P 507.777 -8.03563 3.84925 0
M  V30 12424 O 507.557 -8.85821 5.0569 0
M  V30 12425 O 506.987 -8.41101 2.65469 0
M  V30 12426 O 507.527 -6.49734 4.18962 0
M  V30 12427 C 508.467 -5.81037 5.05421 0
M  V30 12428 C 507.737 -4.79018 5.88876 0
M  V30 12429 O 507.527 -3.58359 5.08515 0
M  V30 12430 C 506.337 -5.17448 6.36119 0
M  V30 12431 O 505.947 -4.45322 7.53318 0
M  V30 12432 C 505.457 -4.74639 5.19936 0
M  V30 12433 C 506.167 -3.49432 4.70418 0
M  V30 12434 N 506.117 -3.31776 3.22945 0
M  V30 12435 C 505.967 -2.02742 2.72939 0
M  V30 12436 O 505.877 -1.08301 3.52749 0
M  V30 12437 N 505.917 -1.96117 1.22063 0
M  V30 12438 C 506.017 -2.8878 0.551566 0
M  V30 12439 N 505.967 -2.65609 -0.750198 0
M  V30 12440 C 506.167 -4.22457 1.03707 0
M  V30 12441 C 506.217 -4.37979 2.39113 0
M  V30 12442 H 508.957 -6.54138 5.7131 0
M  V30 12443 H 509.227 -5.30492 4.44033 0
M  V30 12444 H 508.36 -4.55945 6.76735 0
M  V30 12445 H 505.705 -2.6176 5.18021 0
M  V30 12446 H 505.425 -5.52233 4.41941 0
M  V30 12447 H 504.434 -4.52045 5.53452 0
M  V30 12448 H 506.268 -6.25124 6.55234 0
M  V30 12449 H 506.34 -5.37936 2.80552 0
M  V30 12450 H 506.238 -5.07528 0.359553 0
M  V30 12451 H 505.85 -1.69403 -1.09847 0
M  V30 12452 H 506.046 -3.43701 -1.41792 0
M  V30 12453 P 504.397 -4.23843 7.83734 0
M  V30 12454 O 504.177 -4.19407 9.29784 0
M  V30 12455 O 503.607 -5.24426 7.09156 0
M  V30 12456 O 504.147 -2.7935 7.20758 0
M  V30 12457 C 505.087 -1.7299 7.50419 0
M  V30 12458 C 504.357 -0.406376 7.57911 0
M  V30 12459 O 504.147 0.0897726 6.21935 0
M  V30 12460 C 502.957 -0.447224 8.1878 0
M  V30 12461 O 502.567 0.825065 8.71101 0
M  V30 12462 C 502.077 -0.783801 6.99623 0
M  V30 12463 C 502.787 -0.0619192 5.85967 0
M  V30 12464 N 502.737 -0.790462 4.56202 0
M  V30 12465 H 505.576 -1.93423 8.4679 0
M  V30 12466 H 505.848 -1.68852 6.70877 0
M  V30 12467 H 504.98 0.289041 8.15388 0
M  V30 12468 H 502.325 0.927006 5.72848 0
M  V30 12469 H 502.045 -1.86973 6.82036 0
M  V30 12470 H 501.054 -0.403953 7.13357 0
M  V30 12471 H 502.888 -1.20599 8.97534 0
M  V30 12472 P 501.017 1.17771 8.83182 0
M  V30 12473 O 500.797 2.07206 9.98732 0
M  V30 12474 O 500.227 -0.0743816 8.81969 0
M  V30 12475 O 500.767 1.97652 7.47304 0
M  V30 12476 C 501.707 3.01133 7.08783 0
M  V30 12477 C 500.977 4.12613 6.37049 0
M  V30 12478 O 500.767 3.72827 4.97879 0
M  V30 12479 C 499.577 4.45085 6.88694 0
M  V30 12480 O 499.187 5.7877 6.5624 0
M  V30 12481 C 498.697 3.47817 6.12078 0
M  V30 12482 C 499.407 3.39414 4.77697 0
M  V30 12483 N 499.357 2.04615 4.15333 0
M  V30 12484 H 502.196 3.41248 7.98759 0
M  V30 12485 H 502.468 2.5837 6.41742 0
M  V30 12486 H 501.6 5.02657 6.42673 0
M  V30 12487 P 497.637 6.144 6.45285 0
M  V30 12488 O 497.417 7.54673 6.86199 0
M  V30 12489 O 496.847 5.12391 7.179 0
M  V30 12490 O 497.387 5.99158 4.88404 0
M  V30 12491 C 498.327 6.60062 3.96313 0
M  V30 12492 C 497.597 7.08259 2.72856 0
M  V30 12493 O 497.387 5.9427 1.83651 0
M  V30 12494 C 496.197 7.65087 2.94749 0
M  V30 12495 O 495.807 8.53963 1.90717 0
M  V30 12496 C 495.317 6.41069 2.90698 0
M  V30 12497 C 496.027 5.5528 1.86931 0
M  V30 12498 N 495.977 4.09575 2.15696 0
M  V30 12499 C 495.827 3.24249 1.08435 0
M  V30 12500 O 495.737 3.63946 -0.0628747 0
M  V30 12501 N 495.787 1.90009 1.39973 0
M  V30 12502 C 495.877 1.34884 2.65614 0
M  V30 12503 C 496.027 2.3145 3.71736 0
M  V30 12504 C 496.077 3.63518 3.44754 0
M  V30 12505 H 498.818 7.45402 4.45526 0
M  V30 12506 H 499.087 5.86062 3.67208 0
M  V30 12507 H 498.22 7.84412 2.24479 0
M  V30 12508 H 495.565 5.73358 0.888409 0
M  V30 12509 H 495.286 5.90877 3.88583 0
M  V30 12510 H 494.294 6.65867 2.58821 0
M  V30 12511 H 496.128 8.16248 3.92006 0
M  V30 12512 H 496.199 4.34551 4.26383 0
M  V30 12513 P 494.257 8.7635 1.60911 0
M  V30 12514 O 494.037 10.1388 1.11561 0
M  V30 12515 O 493.467 8.36503 2.79617 0
M  V30 12516 O 494.007 7.71806 0.42951 0
M  V30 12517 C 494.947 7.67148 -0.673689 0
M  V30 12518 C 494.217 7.33374 -1.95559 0
M  V30 12519 O 494.007 5.88721 -2.00726 0
M  V30 12520 C 492.817 7.92526 -2.10483 0
M  V30 12521 O 492.427 8.02971 -3.47653 0
M  V30 12522 C 491.937 6.89602 -1.41652 0
M  V30 12523 C 492.647 5.59201 -1.75185 0
M  V30 12524 N 492.597 4.58301 -0.657969 0
M  V30 12525 H 495.436 8.65116 -0.777161 0
M  V30 12526 H 495.708 6.9022 -0.46725 0
M  V30 12527 H 494.84 7.66548 -2.79458 0
M  V30 12528 H 492.185 5.16165 -2.65183 0
M  V30 12529 H 491.905 7.06433 -0.329384 0
M  V30 12530 H 490.914 6.90926 -1.82021 0
M  V30 12531 H 492.748 8.90873 -1.62657 0
M  V30 12532 P 490.877 8.03563 -3.84925 0
M  V30 12533 O 490.657 8.85821 -5.0569 0
M  V30 12534 O 490.087 8.41101 -2.65469 0
M  V30 12535 O 490.627 6.4965 -4.18908 0
M  V30 12536 C 491.567 5.81037 -5.05421 0
M  V30 12537 C 490.837 4.78366 -5.89277 0
M  V30 12538 O 490.627 3.58302 -5.08433 0
M  V30 12539 C 489.437 5.17448 -6.36119 0
M  V30 12540 O 489.047 4.45271 -7.53232 0
M  V30 12541 C 488.557 4.74639 -5.19936 0
M  V30 12542 C 489.267 3.49432 -4.70418 0
M  V30 12543 N 489.217 3.32099 -3.22613 0
M  V30 12544 C 489.297 4.28245 -2.25527 0
M  V30 12545 N 489.227 3.80823 -1.04874 0
M  V30 12546 C 489.077 2.44571 -1.23535 0
M  V30 12547 C 488.947 1.37068 -0.330675 0
M  V30 12548 N 488.937 1.51472 0.990824 0
M  V30 12549 N 488.827 0.138614 -0.848756 0
M  V30 12550 C 488.837 -0.00675923 -2.16999 0
M  V30 12551 N 488.957 0.904372 -3.11122 0
M  V30 12552 C 489.077 2.12707 -2.56212 0
M  V30 12553 H 492.056 6.54213 -5.71376 0
M  V30 12554 H 492.328 5.30936 -4.43503 0
M  V30 12555 H 491.46 4.55889 -6.76652 0
M  V30 12556 H 488.805 2.61715 -5.17932 0
M  V30 12557 H 488.525 5.52155 -4.41878 0
M  V30 12558 H 487.534 4.51981 -5.53374 0
M  V30 12559 H 489.368 6.25124 -6.55234 0
M  V30 12560 H 489.409 5.34372 -2.47488 0
M  V30 12561 H 489.028 2.45153 1.4078 0
M  V30 12562 H 488.839 0.688422 1.59911 0
M  V30 12563 H 488.731 -1.02584 -2.52346 0
M  V30 12564 P 487.497 4.23843 -7.83734 0
M  V30 12565 O 487.277 4.19407 -9.29784 0
M  V30 12566 O 486.707 5.24426 -7.09156 0
M  V30 12567 O 487.247 2.7935 -7.20758 0
M  V30 12568 C 488.187 1.7299 -7.50419 0
M  V30 12569 C 487.457 0.406376 -7.57911 0
M  V30 12570 O 487.247 -0.0897726 -6.21935 0
M  V30 12571 C 486.057 0.447224 -8.1878 0
M  V30 12572 O 485.667 -0.825065 -8.71101 0
M  V30 12573 C 485.177 0.783801 -6.99623 0
M  V30 12574 C 485.887 0.0619192 -5.85967 0
M  V30 12575 N 485.837 0.7859 -4.56281 0
M  V30 12576 H 488.676 1.93423 -8.4679 0
M  V30 12577 H 488.948 1.68181 -6.71046 0
M  V30 12578 H 488.08 -0.289041 -8.15388 0
M  V30 12579 P 484.117 -1.17771 -8.83182 0
M  V30 12580 O 483.897 -2.07206 -9.98732 0
M  V30 12581 O 483.327 0.0743816 -8.81969 0
M  V30 12582 O 483.867 -1.97652 -7.47304 0
M  V30 12583 C 484.807 -3.01133 -7.08783 0
M  V30 12584 C 484.077 -4.12613 -6.37049 0
M  V30 12585 O 483.867 -3.72827 -4.97879 0
M  V30 12586 C 482.677 -4.45085 -6.88694 0
M  V30 12587 O 482.287 -5.7877 -6.5624 0
M  V30 12588 C 481.797 -3.47817 -6.12078 0
M  V30 12589 C 482.507 -3.39414 -4.77697 0
M  V30 12590 N 482.457 -2.04615 -4.15333 0
M  V30 12591 H 485.296 -3.41248 -7.98759 0
M  V30 12592 H 485.568 -2.5837 -6.41742 0
M  V30 12593 H 484.7 -5.02657 -6.42673 0
M  V30 12594 P 480.737 -6.144 -6.45285 0
M  V30 12595 O 480.517 -7.54673 -6.86199 0
M  V30 12596 O 479.947 -5.12391 -7.179 0
M  V30 12597 O 480.487 -5.99158 -4.88404 0
M  V30 12598 C 481.427 -6.60234 -3.96415 0
M  V30 12599 C 480.697 -7.08259 -2.72856 0
M  V30 12600 O 480.487 -5.9427 -1.83651 0
M  V30 12601 C 479.297 -7.64886 -2.9555 0
M  V30 12602 O 478.907 -8.53963 -1.90717 0
M  V30 12603 C 478.417 -6.4116 -2.90739 0
M  V30 12604 C 479.127 -5.55375 -1.86963 0
M  V30 12605 N 479.077 -4.09664 -2.15742 0
M  V30 12606 H 481.916 -7.45574 -4.45629 0
M  V30 12607 H 482.188 -5.86232 -3.67314 0
M  V30 12608 H 481.32 -7.84412 -2.24479 0
M  V30 12609 P 477.357 -8.7635 -1.60911 0
M  V30 12610 O 477.137 -10.1388 -1.11561 0
M  V30 12611 O 476.567 -8.36503 -2.79617 0
M  V30 12612 O 477.107 -7.71806 -0.42951 0
M  V30 12613 C 478.047 -7.67148 0.673689 0
M  V30 12614 C 477.317 -7.33374 1.95559 0
M  V30 12615 O 477.107 -5.88721 2.00726 0
M  V30 12616 C 475.917 -7.92526 2.10483 0
M  V30 12617 O 475.527 -8.02971 3.47653 0
M  V30 12618 C 475.037 -6.89602 1.41652 0
M  V30 12619 C 475.747 -5.59201 1.75185 0
M  V30 12620 N 475.697 -4.58235 0.662552 0
M  V30 12621 H 478.536 -8.65116 0.777161 0
M  V30 12622 H 478.808 -6.90173 0.474152 0
M  V30 12623 H 477.94 -7.66548 2.79458 0
M  V30 12624 P 473.977 -8.03563 3.84925 0
M  V30 12625 O 473.757 -8.85821 5.0569 0
M  V30 12626 O 473.187 -8.41101 2.65469 0
M  V30 12627 O 473.727 -6.4965 4.18908 0
M  V30 12628 C 474.667 -5.81037 5.05421 0
M  V30 12629 C 473.937 -4.78366 5.89277 0
M  V30 12630 O 473.727 -3.58302 5.08433 0
M  V30 12631 C 472.537 -5.17448 6.36119 0
M  V30 12632 O 472.147 -4.45271 7.53232 0
M  V30 12633 C 471.657 -4.74639 5.19936 0
M  V30 12634 C 472.367 -3.49432 4.70418 0
M  V30 12635 N 472.317 -3.32099 3.22613 0
M  V30 12636 C 472.397 -4.28245 2.25527 0
M  V30 12637 N 472.327 -3.80823 1.04874 0
M  V30 12638 C 472.177 -2.44571 1.23535 0
M  V30 12639 C 472.047 -1.37068 0.330675 0
M  V30 12640 N 472.037 -1.51472 -0.990824 0
M  V30 12641 N 471.927 -0.138614 0.848756 0
M  V30 12642 C 471.937 0.00675923 2.16999 0
M  V30 12643 N 472.057 -0.904372 3.11122 0
M  V30 12644 C 472.177 -2.12707 2.56212 0
M  V30 12645 H 475.156 -6.54213 5.71376 0
M  V30 12646 H 475.428 -5.30936 4.43503 0
M  V30 12647 H 474.56 -4.55889 6.76652 0
M  V30 12648 H 471.905 -2.61715 5.17932 0
M  V30 12649 H 471.625 -5.52155 4.41878 0
M  V30 12650 H 470.634 -4.51981 5.53374 0
M  V30 12651 H 472.468 -6.25124 6.55234 0
M  V30 12652 H 472.509 -5.34372 2.47488 0
M  V30 12653 H 472.128 -2.45153 -1.4078 0
M  V30 12654 H 471.939 -0.688422 -1.59911 0
M  V30 12655 H 471.831 1.02584 2.52346 0
M  V30 12656 P 470.597 -4.23843 7.83734 0
M  V30 12657 O 470.377 -4.19407 9.29784 0
M  V30 12658 O 469.807 -5.24426 7.09156 0
M  V30 12659 O 470.347 -2.7935 7.20758 0
M  V30 12660 C 471.287 -1.7299 7.50419 0
M  V30 12661 C 470.557 -0.406376 7.57911 0
M  V30 12662 O 470.347 0.0897726 6.21935 0
M  V30 12663 C 469.157 -0.447224 8.1878 0
M  V30 12664 O 468.767 0.825065 8.71101 0
M  V30 12665 C 468.277 -0.783801 6.99623 0
M  V30 12666 C 468.987 -0.0619192 5.85967 0
M  V30 12667 N 468.937 -0.790462 4.56202 0
M  V30 12668 H 471.776 -1.93423 8.4679 0
M  V30 12669 H 472.048 -1.68852 6.70877 0
M  V30 12670 H 471.18 0.289041 8.15388 0
M  V30 12671 H 468.525 0.927006 5.72848 0
M  V30 12672 H 468.245 -1.86973 6.82036 0
M  V30 12673 H 467.254 -0.403953 7.13357 0
M  V30 12674 H 469.088 -1.20599 8.97534 0
M  V30 12675 P 467.217 1.17771 8.83182 0
M  V30 12676 O 466.997 2.07206 9.98732 0
M  V30 12677 O 466.427 -0.0743816 8.81969 0
M  V30 12678 O 466.967 1.97652 7.47304 0
M  V30 12679 C 467.907 3.01133 7.08783 0
M  V30 12680 C 467.177 4.12613 6.37049 0
M  V30 12681 O 466.967 3.72827 4.97879 0
M  V30 12682 C 465.777 4.45085 6.88694 0
M  V30 12683 O 465.387 5.7877 6.5624 0
M  V30 12684 C 464.897 3.47817 6.12078 0
M  V30 12685 C 465.607 3.39414 4.77697 0
M  V30 12686 N 465.557 2.04615 4.15333 0
M  V30 12687 H 468.396 3.41248 7.98759 0
M  V30 12688 H 468.668 2.5837 6.41742 0
M  V30 12689 H 467.8 5.02657 6.42673 0
M  V30 12690 P 463.837 6.144 6.45285 0
M  V30 12691 O 463.617 7.54673 6.86199 0
M  V30 12692 O 463.047 5.12391 7.179 0
M  V30 12693 O 463.587 5.99158 4.88404 0
M  V30 12694 C 464.527 6.60234 3.96415 0
M  V30 12695 C 463.797 7.08259 2.72856 0
M  V30 12696 O 463.587 5.9427 1.83651 0
M  V30 12697 C 462.397 7.64886 2.9555 0
M  V30 12698 O 462.007 8.53963 1.90717 0
M  V30 12699 C 461.517 6.4116 2.90739 0
M  V30 12700 C 462.227 5.55375 1.86963 0
M  V30 12701 N 462.177 4.09448 2.16152 0
M  V30 12702 H 465.016 7.45574 4.45629 0
M  V30 12703 H 465.288 5.85864 3.679 0
M  V30 12704 H 464.42 7.84412 2.24479 0
M  V30 12705 H 461.765 5.73457 0.888562 0
M  V30 12706 H 461.485 5.90877 3.88583 0
M  V30 12707 H 460.494 6.6596 2.58858 0
M  V30 12708 H 462.328 8.16339 3.92049 0
M  V30 12709 P 460.457 8.7635 1.60911 0
M  V30 12710 O 460.237 10.1388 1.11561 0
M  V30 12711 O 459.667 8.36503 2.79617 0
M  V30 12712 O 460.207 7.71906 0.429565 0
M  V30 12713 C 461.147 7.67148 -0.673689 0
M  V30 12714 C 460.417 7.33666 -1.94851 0
M  V30 12715 O 460.207 5.88816 -2.00759 0
M  V30 12716 C 459.017 7.92526 -2.10483 0
M  V30 12717 O 458.627 8.03063 -3.47693 0
M  V30 12718 C 458.137 6.89602 -1.41652 0
M  V30 12719 C 458.847 5.59201 -1.75185 0
M  V30 12720 N 458.797 4.58235 -0.662552 0
M  V30 12721 C 458.647 3.24451 -1.01643 0
M  V30 12722 O 458.557 2.94958 -2.21722 0
M  V30 12723 N 458.597 2.30408 0.165238 0
M  V30 12724 C 458.697 2.66048 1.25118 0
M  V30 12725 N 458.647 1.70787 2.16813 0
M  V30 12726 C 458.847 4.02732 1.64413 0
M  V30 12727 C 458.897 4.9488 0.63991 0
M  V30 12728 H 461.637 8.65017 -0.777072 0
M  V30 12729 H 461.907 6.90173 -0.474152 0
M  V30 12730 H 461.04 7.66642 -2.79492 0
M  V30 12731 H 458.385 5.16254 -2.65229 0
M  V30 12732 H 458.105 7.06532 -0.329431 0
M  V30 12733 H 457.114 6.91023 -1.82047 0
M  V30 12734 H 458.948 8.90873 -1.62657 0
M  V30 12735 H 459.02 6.00104 0.892197 0
M  V30 12736 H 458.918 4.31733 2.69229 0
M  V30 12737 H 458.53 0.724835 1.8844 0
M  V30 12738 H 458.726 1.94716 3.16734 0
M  V30 12739 P 457.077 8.03563 -3.84925 0
M  V30 12740 O 456.857 8.85821 -5.0569 0
M  V30 12741 O 456.287 8.41101 -2.65469 0
M  V30 12742 O 456.827 6.4965 -4.18908 0
M  V30 12743 C 457.767 5.81037 -5.05421 0
M  V30 12744 C 457.037 4.78366 -5.89277 0
M  V30 12745 O 456.827 3.58302 -5.08433 0
M  V30 12746 C 455.637 5.17448 -6.36119 0
M  V30 12747 O 455.247 4.45271 -7.53232 0
M  V30 12748 C 454.757 4.74639 -5.19936 0
M  V30 12749 C 455.467 3.49432 -4.70418 0
M  V30 12750 N 455.417 3.31776 -3.22945 0
M  V30 12751 C 455.497 4.27147 -2.23315 0
M  V30 12752 N 455.417 3.78447 -1.02186 0
M  V30 12753 C 455.277 2.41001 -1.21732 0
M  V30 12754 C 455.147 1.36111 -0.27694 0
M  V30 12755 N 455.027 0.113683 -0.912949 0
M  V30 12756 C 455.027 -0.0846396 -2.27943 0
M  V30 12757 N 454.897 -1.34737 -2.6916 0
M  V30 12758 N 455.157 0.902521 -3.16379 0
M  V30 12759 C 455.277 2.11937 -2.56849 0
M  V30 12760 H 458.256 6.54213 -5.71376 0
M  V30 12761 H 458.528 5.30492 -4.44033 0
M  V30 12762 H 457.66 4.55889 -6.76652 0
M  V30 12763 P 453.697 4.23843 -7.83734 0
M  V30 12764 O 453.477 4.19407 -9.29784 0
M  V30 12765 O 452.907 5.24426 -7.09156 0
M  V30 12766 O 453.447 2.7935 -7.20758 0
M  V30 12767 C 454.387 1.7299 -7.50419 0
M  V30 12768 C 453.657 0.406376 -7.57911 0
M  V30 12769 O 453.447 -0.0897726 -6.21935 0
M  V30 12770 C 452.257 0.447224 -8.1878 0
M  V30 12771 O 451.867 -0.825065 -8.71101 0
M  V30 12772 C 451.377 0.783801 -6.99623 0
M  V30 12773 C 452.087 0.0619192 -5.85967 0
M  V30 12774 N 452.037 0.7859 -4.56281 0
M  V30 12775 H 454.876 1.93423 -8.4679 0
M  V30 12776 H 455.148 1.68181 -6.71046 0
M  V30 12777 H 454.28 -0.289041 -8.15388 0
M  V30 12778 P 450.317 -1.17771 -8.83182 0
M  V30 12779 O 450.097 -2.07206 -9.98732 0
M  V30 12780 O 449.527 0.0743816 -8.81969 0
M  V30 12781 O 450.067 -1.97652 -7.47304 0
M  V30 12782 C 451.007 -3.01133 -7.08783 0
M  V30 12783 C 450.277 -4.12613 -6.37049 0
M  V30 12784 O 450.067 -3.72827 -4.97879 0
M  V30 12785 C 448.877 -4.45085 -6.88694 0
M  V30 12786 O 448.487 -5.7877 -6.5624 0
M  V30 12787 C 447.997 -3.47817 -6.12078 0
M  V30 12788 C 448.707 -3.39414 -4.77697 0
M  V30 12789 N 448.657 -2.04615 -4.15333 0
M  V30 12790 H 451.496 -3.41248 -7.98759 0
M  V30 12791 H 451.768 -2.5837 -6.41742 0
M  V30 12792 H 450.9 -5.02657 -6.42673 0
M  V30 12793 P 446.937 -6.144 -6.45285 0
M  V30 12794 O 446.717 -7.54673 -6.86199 0
M  V30 12795 O 446.147 -5.12391 -7.179 0
M  V30 12796 O 446.687 -5.99158 -4.88404 0
M  V30 12797 C 447.627 -6.60234 -3.96415 0
M  V30 12798 C 446.897 -7.08259 -2.72856 0
M  V30 12799 O 446.687 -5.9427 -1.83651 0
M  V30 12800 C 445.497 -7.64886 -2.9555 0
M  V30 12801 O 445.107 -8.53963 -1.90717 0
M  V30 12802 C 444.617 -6.4116 -2.90739 0
M  V30 12803 C 445.327 -5.55375 -1.86963 0
M  V30 12804 N 445.277 -4.09664 -2.15742 0
M  V30 12805 H 448.116 -7.45574 -4.45629 0
M  V30 12806 H 448.388 -5.86232 -3.67314 0
M  V30 12807 H 447.52 -7.84412 -2.24479 0
M  V30 12808 P 443.557 -8.7635 -1.60911 0
M  V30 12809 O 443.337 -10.1388 -1.11561 0
M  V30 12810 O 442.767 -8.36503 -2.79617 0
M  V30 12811 O 443.307 -7.71806 -0.42951 0
M  V30 12812 C 444.247 -7.67148 0.673689 0
M  V30 12813 C 443.517 -7.33374 1.95559 0
M  V30 12814 O 443.307 -5.88721 2.00726 0
M  V30 12815 C 442.117 -7.92526 2.10483 0
M  V30 12816 O 441.727 -8.02971 3.47653 0
M  V30 12817 C 441.237 -6.89602 1.41652 0
M  V30 12818 C 441.947 -5.59201 1.75185 0
M  V30 12819 N 441.897 -4.58235 0.662552 0
M  V30 12820 C 441.977 -4.7683 -0.704049 0
M  V30 12821 N 441.897 -3.66233 -1.39775 0
M  V30 12822 C 441.757 -2.66526 -0.431739 0
M  V30 12823 C 441.627 -1.26394 -0.575992 0
M  V30 12824 N 441.507 -0.62859 0.67177 0
M  V30 12825 C 441.507 -1.27134 1.89385 0
M  V30 12826 N 441.377 -0.492035 2.96951 0
M  V30 12827 N 441.637 -2.58978 2.02907 0
M  V30 12828 C 441.757 -3.22433 0.832218 0
M  V30 12829 H 444.736 -8.65116 0.777161 0
M  V30 12830 H 445.008 -6.90173 0.474152 0
M  V30 12831 H 444.14 -7.66548 2.79458 0
M  V30 12832 P 440.177 -8.03563 3.84925 0
M  V30 12833 O 439.957 -8.85821 5.0569 0
M  V30 12834 O 439.387 -8.41101 2.65469 0
M  V30 12835 O 439.927 -6.4965 4.18908 0
M  V30 12836 C 440.867 -5.81037 5.05421 0
M  V30 12837 C 440.137 -4.78366 5.89277 0
M  V30 12838 O 439.927 -3.58302 5.08433 0
M  V30 12839 C 438.737 -5.17448 6.36119 0
M  V30 12840 O 438.347 -4.45271 7.53232 0
M  V30 12841 C 437.857 -4.74639 5.19936 0
M  V30 12842 C 438.567 -3.49432 4.70418 0
M  V30 12843 N 438.517 -3.32099 3.22613 0
M  V30 12844 H 441.356 -6.54213 5.71376 0
M  V30 12845 H 441.628 -5.30936 4.43503 0
M  V30 12846 H 440.76 -4.55889 6.76652 0
M  V30 12847 H 438.105 -2.61715 5.17932 0
M  V30 12848 H 437.825 -5.52155 4.41878 0
M  V30 12849 H 436.834 -4.51981 5.53374 0
M  V30 12850 H 438.668 -6.25124 6.55234 0
M  V30 12851 P 436.797 -4.23843 7.83734 0
M  V30 12852 O 436.577 -4.19407 9.29784 0
M  V30 12853 O 436.007 -5.24426 7.09156 0
M  V30 12854 O 436.547 -2.7935 7.20758 0
M  V30 12855 C 437.487 -1.72945 7.50224 0
M  V30 12856 C 436.757 -0.406376 7.57911 0
M  V30 12857 O 436.547 0.0897726 6.21935 0
M  V30 12858 C 435.357 -0.438983 8.18724 0
M  V30 12859 O 434.967 0.825065 8.71101 0
M  V30 12860 C 434.477 -0.783689 6.99524 0
M  V30 12861 C 435.187 -0.0619086 5.85867 0
M  V30 12862 N 435.137 -0.78573 4.56183 0
M  V30 12863 C 434.987 -0.0292889 3.41887 0
M  V30 12864 O 434.897 1.18445 3.4419 0
M  V30 12865 N 434.947 -0.744061 2.23964 0
M  V30 12866 C 435.037 -2.10932 2.10362 0
M  V30 12867 C 435.187 -2.8202 3.34994 0
M  V30 12868 C 435.237 -2.15547 4.52261 0
M  V30 12869 H 437.978 -1.93379 8.46595 0
M  V30 12870 H 438.247 -1.68132 6.70852 0
M  V30 12871 H 437.38 0.289041 8.15388 0
M  V30 12872 H 434.725 0.926847 5.72749 0
M  V30 12873 H 434.446 -1.86973 6.82036 0
M  V30 12874 H 433.454 -0.403896 7.13257 0
M  V30 12875 H 435.288 -1.20585 8.97435 0
M  V30 12876 H 435.359 -2.71231 5.45042 0
M  V30 12877 P 433.417 1.17771 8.83182 0
M  V30 12878 O 433.197 2.07206 9.98732 0
M  V30 12879 O 432.627 -0.0743816 8.81969 0
M  V30 12880 O 433.167 1.97652 7.47304 0
M  V30 12881 C 434.107 3.01133 7.08783 0
M  V30 12882 C 433.377 4.12613 6.37049 0
M  V30 12883 O 433.167 3.72827 4.97879 0
M  V30 12884 C 431.977 4.45085 6.88694 0
M  V30 12885 O 431.587 5.7877 6.5624 0
M  V30 12886 C 431.097 3.47817 6.12078 0
M  V30 12887 C 431.807 3.39414 4.77697 0
M  V30 12888 N 431.757 2.04615 4.15333 0
M  V30 12889 H 434.596 3.41248 7.98759 0
M  V30 12890 H 434.868 2.5837 6.41742 0
M  V30 12891 H 434 5.02657 6.42673 0
M  V30 12892 P 430.037 6.144 6.45285 0
M  V30 12893 O 429.817 7.54673 6.86199 0
M  V30 12894 O 429.247 5.12391 7.179 0
M  V30 12895 O 429.787 5.99158 4.88404 0
M  V30 12896 C 430.727 6.60234 3.96415 0
M  V30 12897 C 429.997 7.08259 2.72856 0
M  V30 12898 O 429.787 5.9427 1.83651 0
M  V30 12899 C 428.597 7.64886 2.9555 0
M  V30 12900 O 428.207 8.53963 1.90717 0
M  V30 12901 C 427.717 6.4116 2.90739 0
M  V30 12902 C 428.427 5.55375 1.86963 0
M  V30 12903 N 428.377 4.09664 2.15742 0
M  V30 12904 H 431.216 7.45574 4.45629 0
M  V30 12905 H 431.488 5.86232 3.67314 0
M  V30 12906 H 430.62 7.84412 2.24479 0
M  V30 12907 P 426.657 8.7635 1.60911 0
M  V30 12908 O 426.437 10.1388 1.11561 0
M  V30 12909 O 425.867 8.36503 2.79617 0
M  V30 12910 O 426.407 7.71806 0.42951 0
M  V30 12911 C 427.347 7.67148 -0.673689 0
M  V30 12912 C 426.617 7.33374 -1.95559 0
M  V30 12913 O 426.407 5.88721 -2.00726 0
M  V30 12914 C 425.217 7.92526 -2.10483 0
M  V30 12915 O 424.827 8.02971 -3.47653 0
M  V30 12916 C 424.337 6.89602 -1.41652 0
M  V30 12917 C 425.047 5.59201 -1.75185 0
M  V30 12918 N 424.997 4.58235 -0.662552 0
M  V30 12919 H 427.836 8.65116 -0.777161 0
M  V30 12920 H 428.108 6.90173 -0.474152 0
M  V30 12921 H 427.24 7.66548 -2.79458 0
M  V30 12922 P 423.278 8.03563 -3.84925 0
M  V30 12923 O 423.058 8.85821 -5.0569 0
M  V30 12924 O 422.488 8.41101 -2.65469 0
M  V30 12925 O 423.028 6.4965 -4.18908 0
M  V30 12926 C 423.968 5.81037 -5.05421 0
M  V30 12927 C 423.238 4.78366 -5.89277 0
M  V30 12928 O 423.028 3.58302 -5.08433 0
M  V30 12929 C 421.838 5.17448 -6.36119 0
M  V30 12930 O 421.448 4.45271 -7.53232 0
M  V30 12931 C 420.958 4.74639 -5.19936 0
M  V30 12932 C 421.668 3.49432 -4.70418 0
M  V30 12933 N 421.618 3.31776 -3.22945 0
M  V30 12934 H 424.457 6.54213 -5.71376 0
M  V30 12935 H 424.729 5.30492 -4.44033 0
M  V30 12936 H 423.861 4.55889 -6.76652 0
M  V30 12937 P 419.898 4.23843 -7.83734 0
M  V30 12938 O 419.678 4.19407 -9.29784 0
M  V30 12939 O 419.108 5.24426 -7.09156 0
M  V30 12940 O 419.648 2.7935 -7.20758 0
M  V30 12941 C 420.588 1.7299 -7.50419 0
M  V30 12942 C 419.858 0.406376 -7.57911 0
M  V30 12943 O 419.648 -0.0897726 -6.21935 0
M  V30 12944 C 418.458 0.447224 -8.1878 0
M  V30 12945 O 418.068 -0.825065 -8.71101 0
M  V30 12946 C 417.578 0.783801 -6.99623 0
M  V30 12947 C 418.288 0.0619192 -5.85967 0
M  V30 12948 N 418.238 0.7859 -4.56281 0
M  V30 12949 H 421.077 1.93423 -8.4679 0
M  V30 12950 H 421.349 1.68181 -6.71046 0
M  V30 12951 H 420.481 -0.289041 -8.15388 0
M  V30 12952 P 416.518 -1.17771 -8.83182 0
M  V30 12953 O 416.298 -2.07206 -9.98732 0
M  V30 12954 O 415.728 0.0743816 -8.81969 0
M  V30 12955 O 416.268 -1.97652 -7.47304 0
M  V30 12956 C 417.208 -3.01133 -7.08783 0
M  V30 12957 C 416.478 -4.12613 -6.37049 0
M  V30 12958 O 416.268 -3.72827 -4.97879 0
M  V30 12959 C 415.078 -4.45085 -6.88694 0
M  V30 12960 O 414.688 -5.7877 -6.5624 0
M  V30 12961 C 414.198 -3.47817 -6.12078 0
M  V30 12962 C 414.908 -3.39414 -4.77697 0
M  V30 12963 N 414.858 -2.04199 -4.15538 0
M  V30 12964 C 414.938 -0.821545 -4.76977 0
M  V30 12965 N 414.868 0.1794 -3.94592 0
M  V30 12966 C 414.718 -0.419121 -2.70776 0
M  V30 12967 C 414.588 0.109072 -1.40577 0
M  V30 12968 N 414.578 1.4104 -1.1344 0
M  V30 12969 N 414.468 -0.764381 -0.39411 0
M  V30 12970 C 414.478 -2.06587 -0.664135 0
M  V30 12971 N 414.598 -2.67948 -1.82153 0
M  V30 12972 C 414.718 -1.77942 -2.8147 0
M  V30 12973 H 417.697 -3.41248 -7.98759 0
M  V30 12974 H 417.969 -2.57728 -6.42 0
M  V30 12975 H 417.101 -5.02657 -6.42673 0
M  V30 12976 H 414.446 -4.11708 -4.08956 0
M  V30 12977 H 414.166 -2.49626 -6.61679 0
M  V30 12978 H 413.175 -3.8662 -6.00862 0
M  V30 12979 H 415.009 -4.29991 -7.97006 0
M  V30 12980 H 415.05 -0.702451 -5.84696 0
M  V30 12981 H 414.669 2.09647 -1.89651 0
M  V30 12982 H 414.48 1.73358 -0.160575 0
M  V30 12983 H 414.372 -2.71695 0.195838 0
M  V30 12984 P 413.138 -6.144 -6.45285 0
M  V30 12985 O 412.918 -7.54673 -6.86199 0
M  V30 12986 O 412.348 -5.12391 -7.179 0
M  V30 12987 O 412.888 -5.99158 -4.88404 0
M  V30 12988 C 413.828 -6.60234 -3.96415 0
M  V30 12989 C 413.098 -7.08259 -2.72856 0
M  V30 12990 O 412.888 -5.9427 -1.83651 0
M  V30 12991 C 411.698 -7.64886 -2.9555 0
M  V30 12992 O 411.308 -8.53963 -1.90717 0
M  V30 12993 C 410.818 -6.4116 -2.90739 0
M  V30 12994 C 411.528 -5.55375 -1.86963 0
M  V30 12995 N 411.478 -4.09448 -2.16152 0
M  V30 12996 H 414.317 -7.45574 -4.45629 0
M  V30 12997 H 414.589 -5.85864 -3.679 0
M  V30 12998 H 413.721 -7.84412 -2.24479 0
M  V30 12999 H 411.066 -5.73457 -0.888562 0
M  V30 13000 H 410.786 -5.90877 -3.88583 0
M  V30 13001 H 409.795 -6.6596 -2.58858 0
M  V30 13002 H 411.629 -8.16339 -3.92049 0
M  V30 13003 P 409.758 -8.7635 -1.60911 0
M  V30 13004 O 409.538 -10.1388 -1.11561 0
M  V30 13005 O 408.968 -8.36503 -2.79617 0
M  V30 13006 O 409.508 -7.71806 -0.42951 0
M  V30 13007 C 410.448 -7.67148 0.673689 0
M  V30 13008 C 409.718 -7.33374 1.95559 0
M  V30 13009 O 409.508 -5.88721 2.00726 0
M  V30 13010 C 408.318 -7.92526 2.10483 0
M  V30 13011 O 407.928 -8.02971 3.47653 0
M  V30 13012 C 407.438 -6.89602 1.41652 0
M  V30 13013 C 408.148 -5.59201 1.75185 0
M  V30 13014 N 408.098 -4.58235 0.662552 0
M  V30 13015 H 410.937 -8.65116 0.777161 0
M  V30 13016 H 411.209 -6.90173 0.474152 0
M  V30 13017 H 410.341 -7.66548 2.79458 0
M  V30 13018 P 406.378 -8.03563 3.84925 0
M  V30 13019 O 406.158 -8.85821 5.0569 0
M  V30 13020 O 405.588 -8.41101 2.65469 0
M  V30 13021 O 406.128 -6.4965 4.18908 0
M  V30 13022 C 407.068 -5.81037 5.05421 0
M  V30 13023 C 406.338 -4.78366 5.89277 0
M  V30 13024 O 406.128 -3.58302 5.08433 0
M  V30 13025 C 404.938 -5.17448 6.36119 0
M  V30 13026 O 404.548 -4.45271 7.53232 0
M  V30 13027 C 404.058 -4.74639 5.19936 0
M  V30 13028 C 404.768 -3.49432 4.70418 0
M  V30 13029 N 404.718 -3.32099 3.22613 0
M  V30 13030 H 407.557 -6.54213 5.71376 0
M  V30 13031 H 407.829 -5.30936 4.43503 0
M  V30 13032 H 406.961 -4.55889 6.76652 0
M  V30 13033 H 404.306 -2.61715 5.17932 0
M  V30 13034 H 404.026 -5.52155 4.41878 0
M  V30 13035 H 403.035 -4.51981 5.53374 0
M  V30 13036 H 404.869 -6.25124 6.55234 0
M  V30 13037 P 402.998 -4.23843 7.83734 0
M  V30 13038 O 402.778 -4.19407 9.29784 0
M  V30 13039 O 402.208 -5.24426 7.09156 0
M  V30 13040 O 402.748 -2.7935 7.20758 0
M  V30 13041 C 403.688 -1.7299 7.50419 0
M  V30 13042 C 402.958 -0.406376 7.57911 0
M  V30 13043 O 402.748 0.0897726 6.21935 0
M  V30 13044 C 401.558 -0.447224 8.1878 0
M  V30 13045 O 401.168 0.825065 8.71101 0
M  V30 13046 C 400.678 -0.783801 6.99623 0
M  V30 13047 C 401.388 -0.0619192 5.85967 0
M  V30 13048 N 401.338 -0.7859 4.56281 0
M  V30 13049 H 404.177 -1.93423 8.4679 0
M  V30 13050 H 404.449 -1.68181 6.71046 0
M  V30 13051 H 403.581 0.289041 8.15388 0
M  V30 13052 P 399.618 1.17771 8.83182 0
M  V30 13053 O 399.398 2.07206 9.98732 0
M  V30 13054 O 398.828 -0.0743816 8.81969 0
M  V30 13055 O 399.368 1.97678 7.474 0
M  V30 13056 C 400.308 3.01133 7.08783 0
M  V30 13057 C 399.578 4.1203 6.37546 0
M  V30 13058 O 399.368 3.72887 4.9796 0
M  V30 13059 C 398.178 4.45085 6.88694 0
M  V30 13060 O 397.788 5.78836 6.56315 0
M  V30 13061 C 397.298 3.47817 6.12078 0
M  V30 13062 C 398.008 3.39414 4.77697 0
M  V30 13063 N 397.958 2.04615 4.15333 0
M  V30 13064 C 397.808 1.96929 2.77162 0
M  V30 13065 O 397.718 3.02017 2.12006 0
M  V30 13066 N 397.758 0.55485 2.24237 0
M  V30 13067 C 397.858 -0.367808 2.9169 0
M  V30 13068 N 397.808 -1.53426 2.29427 0
M  V30 13069 C 398.008 -0.319148 4.33828 0
M  V30 13070 C 398.058 0.920672 4.90433 0
M  V30 13071 H 400.798 3.41209 7.98667 0
M  V30 13072 H 401.068 2.5837 6.41742 0
M  V30 13073 H 400.201 5.02718 6.42752 0
M  V30 13074 H 397.546 4.11779 4.09026 0
M  V30 13075 H 397.266 2.49661 6.61772 0
M  V30 13076 H 396.275 3.86674 6.00946 0
M  V30 13077 H 398.109 4.29991 7.97006 0
M  V30 13078 H 398.181 1.00589 5.98303 0
M  V30 13079 H 398.079 -1.22639 4.93799 0
M  V30 13080 H 397.691 -1.56819 1.27167 0
M  V30 13081 H 397.887 -2.41062 2.83063 0
M  V30 13082 P 396.238 6.144 6.45285 0
M  V30 13083 O 396.018 7.54673 6.86199 0
M  V30 13084 O 395.448 5.12391 7.179 0
M  V30 13085 O 395.988 5.99236 4.88467 0
M  V30 13086 C 396.928 6.60234 3.96415 0
M  V30 13087 C 396.198 7.08079 2.736 0
M  V30 13088 O 395.988 5.94365 1.8368 0
M  V30 13089 C 394.798 7.64886 2.9555 0
M  V30 13090 O 394.408 8.5406 1.90739 0
M  V30 13091 C 393.918 6.4116 2.90739 0
M  V30 13092 C 394.628 5.55375 1.86963 0
M  V30 13093 N 394.578 4.09664 2.15742 0
M  V30 13094 C 394.428 3.22231 1.08477 0
M  V30 13095 O 394.338 3.68951 -0.0600489 0
M  V30 13096 N 394.378 1.76692 1.48799 0
M  V30 13097 C 394.478 1.41695 2.57602 0
M  V30 13098 N 394.428 0.107296 2.75791 0
M  V30 13099 C 394.628 2.29178 3.69733 0
M  V30 13100 C 394.678 3.62753 3.42653 0
M  V30 13101 H 397.418 7.45488 4.45578 0
M  V30 13102 H 397.688 5.86232 3.67314 0
M  V30 13103 H 396.821 7.84508 2.24507 0
M  V30 13104 H 394.166 5.73556 0.888715 0
M  V30 13105 H 393.886 5.9096 3.88638 0
M  V30 13106 H 392.895 6.66053 2.58894 0
M  V30 13107 H 394.729 8.16339 3.92049 0
M  V30 13108 H 394.801 4.33052 4.24913 0
M  V30 13109 H 394.699 1.9103 4.71577 0
M  V30 13110 H 394.311 -0.521221 1.95056 0
M  V30 13111 H 394.507 -0.286429 3.70695 0
M  V30 13112 P 392.858 8.7635 1.60911 0
M  V30 13113 O 392.638 10.1388 1.11561 0
M  V30 13114 O 392.068 8.36503 2.79617 0
M  V30 13115 O 392.608 7.71806 0.42951 0
M  V30 13116 C 393.548 7.67148 -0.673689 0
M  V30 13117 C 392.818 7.33374 -1.95559 0
M  V30 13118 O 392.608 5.88721 -2.00726 0
M  V30 13119 C 391.418 7.92526 -2.10483 0
M  V30 13120 O 391.028 8.02971 -3.47653 0
M  V30 13121 C 390.538 6.89602 -1.41652 0
M  V30 13122 C 391.248 5.59201 -1.75185 0
M  V30 13123 N 391.198 4.58235 -0.662552 0
M  V30 13124 H 394.037 8.65116 -0.777161 0
M  V30 13125 H 394.309 6.90173 -0.474152 0
M  V30 13126 H 393.441 7.66548 -2.79458 0
M  V30 13127 P 389.478 8.03563 -3.84925 0
M  V30 13128 O 389.258 8.85821 -5.0569 0
M  V30 13129 O 388.688 8.41101 -2.65469 0
M  V30 13130 O 389.228 6.4965 -4.18908 0
M  V30 13131 C 390.168 5.81037 -5.05421 0
M  V30 13132 C 389.438 4.78366 -5.89277 0
M  V30 13133 O 389.228 3.58302 -5.08433 0
M  V30 13134 C 388.038 5.17448 -6.36119 0
M  V30 13135 O 387.648 4.45271 -7.53232 0
M  V30 13136 C 387.158 4.74639 -5.19936 0
M  V30 13137 C 387.868 3.49432 -4.70418 0
M  V30 13138 N 387.818 3.31776 -3.22945 0
M  V30 13139 H 390.657 6.54213 -5.71376 0
M  V30 13140 H 390.929 5.30492 -4.44033 0
M  V30 13141 H 390.061 4.55889 -6.76652 0
M  V30 13142 P 386.098 4.23843 -7.83734 0
M  V30 13143 O 385.878 4.19407 -9.29784 0
M  V30 13144 O 385.308 5.24426 -7.09156 0
M  V30 13145 O 385.848 2.7935 -7.20758 0
M  V30 13146 C 386.788 1.7299 -7.50419 0
M  V30 13147 C 386.058 0.406376 -7.57911 0
M  V30 13148 O 385.848 -0.0897726 -6.21935 0
M  V30 13149 C 384.658 0.447224 -8.1878 0
M  V30 13150 O 384.268 -0.825065 -8.71101 0
M  V30 13151 C 383.778 0.783801 -6.99623 0
M  V30 13152 C 384.488 0.0619192 -5.85967 0
M  V30 13153 N 384.438 0.7859 -4.56281 0
M  V30 13154 H 387.277 1.93423 -8.4679 0
M  V30 13155 H 387.549 1.68181 -6.71046 0
M  V30 13156 H 386.681 -0.289041 -8.15388 0
M  V30 13157 P 382.718 -1.17771 -8.83182 0
M  V30 13158 O 382.498 -2.07206 -9.98732 0
M  V30 13159 O 381.928 0.0743816 -8.81969 0
M  V30 13160 O 382.468 -1.97652 -7.47304 0
M  V30 13161 C 383.408 -3.01133 -7.08783 0
M  V30 13162 C 382.678 -4.12613 -6.37049 0
M  V30 13163 O 382.468 -3.72827 -4.97879 0
M  V30 13164 C 381.278 -4.45085 -6.88694 0
M  V30 13165 O 380.888 -5.7877 -6.5624 0
M  V30 13166 C 380.398 -3.47817 -6.12078 0
M  V30 13167 C 381.108 -3.39414 -4.77697 0
M  V30 13168 N 381.058 -2.04199 -4.15538 0
M  V30 13169 H 383.897 -3.41248 -7.98759 0
M  V30 13170 H 384.169 -2.57728 -6.42 0
M  V30 13171 H 383.301 -5.02657 -6.42673 0
M  V30 13172 H 380.646 -4.11708 -4.08956 0
M  V30 13173 H 380.366 -2.49626 -6.61679 0
M  V30 13174 H 379.375 -3.8662 -6.00862 0
M  V30 13175 H 381.209 -4.29991 -7.97006 0
M  V30 13176 P 379.338 -6.144 -6.45285 0
M  V30 13177 O 379.118 -7.54673 -6.86199 0
M  V30 13178 O 378.548 -5.12391 -7.179 0
M  V30 13179 O 379.088 -5.99158 -4.88404 0
M  V30 13180 C 380.028 -6.60234 -3.96415 0
M  V30 13181 C 379.298 -7.08259 -2.72856 0
M  V30 13182 O 379.088 -5.9427 -1.83651 0
M  V30 13183 C 377.898 -7.64886 -2.9555 0
M  V30 13184 O 377.508 -8.53963 -1.90717 0
M  V30 13185 C 377.018 -6.4116 -2.90739 0
M  V30 13186 C 377.728 -5.55375 -1.86963 0
M  V30 13187 N 377.678 -4.09448 -2.16152 0
M  V30 13188 H 380.517 -7.45574 -4.45629 0
M  V30 13189 H 380.789 -5.85864 -3.679 0
M  V30 13190 H 379.921 -7.84412 -2.24479 0
M  V30 13191 H 377.266 -5.73457 -0.888562 0
M  V30 13192 H 376.986 -5.90877 -3.88583 0
M  V30 13193 H 375.995 -6.6596 -2.58858 0
M  V30 13194 H 377.829 -8.16339 -3.92049 0
M  V30 13195 P 375.958 -8.7635 -1.60911 0
M  V30 13196 O 375.738 -10.1388 -1.11561 0
M  V30 13197 O 375.168 -8.36503 -2.79617 0
M  V30 13198 O 375.708 -7.71806 -0.42951 0
M  V30 13199 C 376.648 -7.67148 0.673689 0
M  V30 13200 C 375.918 -7.33374 1.95559 0
M  V30 13201 O 375.708 -5.88721 2.00726 0
M  V30 13202 C 374.518 -7.92526 2.10483 0
M  V30 13203 O 374.128 -8.02971 3.47653 0
M  V30 13204 C 373.638 -6.89602 1.41652 0
M  V30 13205 C 374.348 -5.59201 1.75185 0
M  V30 13206 N 374.298 -4.58235 0.662552 0
M  V30 13207 H 377.137 -8.65116 0.777161 0
M  V30 13208 H 377.409 -6.90173 0.474152 0
M  V30 13209 H 376.541 -7.66548 2.79458 0
M  V30 13210 P 372.578 -8.03563 3.84925 0
M  V30 13211 O 372.358 -8.85821 5.0569 0
M  V30 13212 O 371.788 -8.41101 2.65469 0
M  V30 13213 O 372.328 -6.4965 4.18908 0
M  V30 13214 C 373.268 -5.81037 5.05421 0
M  V30 13215 C 372.538 -4.78366 5.89277 0
M  V30 13216 O 372.328 -3.58302 5.08433 0
M  V30 13217 C 371.138 -5.17448 6.36119 0
M  V30 13218 O 370.748 -4.45271 7.53232 0
M  V30 13219 C 370.258 -4.74639 5.19936 0
M  V30 13220 C 370.968 -3.49432 4.70418 0
M  V30 13221 N 370.918 -3.32099 3.22613 0
M  V30 13222 C 370.998 -4.28245 2.25527 0
M  V30 13223 N 370.928 -3.80823 1.04874 0
M  V30 13224 C 370.778 -2.44571 1.23535 0
M  V30 13225 C 370.648 -1.37068 0.330675 0
M  V30 13226 N 370.638 -1.51472 -0.990824 0
M  V30 13227 N 370.528 -0.138614 0.848756 0
M  V30 13228 C 370.538 0.00675923 2.16999 0
M  V30 13229 N 370.658 -0.904372 3.11122 0
M  V30 13230 C 370.778 -2.12707 2.56212 0
M  V30 13231 H 373.757 -6.54213 5.71376 0
M  V30 13232 H 374.029 -5.30936 4.43503 0
M  V30 13233 H 373.161 -4.55889 6.76652 0
M  V30 13234 H 370.506 -2.61715 5.17932 0
M  V30 13235 H 370.226 -5.52155 4.41878 0
M  V30 13236 H 369.235 -4.51981 5.53374 0
M  V30 13237 H 371.069 -6.25124 6.55234 0
M  V30 13238 H 371.11 -5.34372 2.47488 0
M  V30 13239 H 370.729 -2.45153 -1.4078 0
M  V30 13240 H 370.54 -0.688422 -1.59911 0
M  V30 13241 H 370.432 1.02584 2.52346 0
M  V30 13242 P 369.198 -4.23843 7.83734 0
M  V30 13243 O 368.978 -4.19407 9.29784 0
M  V30 13244 O 368.408 -5.24426 7.09156 0
M  V30 13245 O 368.948 -2.7935 7.20758 0
M  V30 13246 C 369.888 -1.7299 7.50419 0
M  V30 13247 C 369.158 -0.406376 7.57911 0
M  V30 13248 O 368.948 0.0897726 6.21935 0
M  V30 13249 C 367.758 -0.447224 8.1878 0
M  V30 13250 O 367.368 0.825065 8.71101 0
M  V30 13251 C 366.878 -0.783801 6.99623 0
M  V30 13252 C 367.588 -0.0619192 5.85967 0
M  V30 13253 N 367.538 -0.7859 4.56281 0
M  V30 13254 H 370.377 -1.93423 8.4679 0
M  V30 13255 H 370.649 -1.68181 6.71046 0
M  V30 13256 H 369.781 0.289041 8.15388 0
M  V30 13257 P 365.818 1.17771 8.83182 0
M  V30 13258 O 365.598 2.07206 9.98732 0
M  V30 13259 O 365.028 -0.0743816 8.81969 0
M  V30 13260 O 365.568 1.97652 7.47304 0
M  V30 13261 C 366.508 3.01133 7.08783 0
M  V30 13262 C 365.778 4.12613 6.37049 0
M  V30 13263 O 365.568 3.72827 4.97879 0
M  V30 13264 C 364.378 4.45085 6.88694 0
M  V30 13265 O 363.988 5.7877 6.5624 0
M  V30 13266 C 363.498 3.47817 6.12078 0
M  V30 13267 C 364.208 3.39414 4.77697 0
M  V30 13268 N 364.158 2.04615 4.15333 0
M  V30 13269 H 366.997 3.41248 7.98759 0
M  V30 13270 H 367.269 2.5837 6.41742 0
M  V30 13271 H 366.401 5.02657 6.42673 0
M  V30 13272 P 362.438 6.144 6.45285 0
M  V30 13273 O 362.218 7.54673 6.86199 0
M  V30 13274 O 361.648 5.12391 7.179 0
M  V30 13275 O 362.188 5.99158 4.88404 0
M  V30 13276 C 363.128 6.60062 3.96313 0
M  V30 13277 C 362.398 7.08259 2.72856 0
M  V30 13278 O 362.188 5.9427 1.83651 0
M  V30 13279 C 360.998 7.65087 2.94749 0
M  V30 13280 O 360.608 8.53963 1.90717 0
M  V30 13281 C 360.118 6.41069 2.90698 0
M  V30 13282 C 360.828 5.5528 1.86931 0
M  V30 13283 N 360.778 4.09575 2.15696 0
M  V30 13284 C 360.628 3.24249 1.08435 0
M  V30 13285 O 360.538 3.63946 -0.0628747 0
M  V30 13286 N 360.588 1.90009 1.39973 0
M  V30 13287 C 360.678 1.34884 2.65614 0
M  V30 13288 O 360.628 0.123716 2.81728 0
M  V30 13289 C 360.828 2.3145 3.71736 0
M  V30 13290 C 360.938 1.75913 5.10438 0
M  V30 13291 C 360.878 3.63518 3.44754 0
M  V30 13292 H 363.619 7.45402 4.45526 0
M  V30 13293 H 363.888 5.86062 3.67208 0
M  V30 13294 H 363.021 7.84412 2.24479 0
M  V30 13295 H 360.366 5.73358 0.888409 0
M  V30 13296 H 360.087 5.90877 3.88583 0
M  V30 13297 H 359.095 6.65867 2.58821 0
M  V30 13298 H 360.929 8.16248 3.92006 0
M  V30 13299 H 361 4.34551 4.26383 0
M  V30 13300 H 359.97 1.85471 5.61775 0
M  V30 13301 H 361.707 2.31364 5.66257 0
M  V30 13302 H 361.219 0.695936 5.05229 0
M  V30 13303 H 360.483 1.26277 0.63625 0
M  V30 13304 P 359.058 8.7635 1.60911 0
M  V30 13305 O 358.838 10.1388 1.11561 0
M  V30 13306 O 358.268 8.36503 2.79617 0
M  V30 13307 O 358.808 7.71906 0.429565 0
M  V30 13308 C 359.748 7.67148 -0.673689 0
M  V30 13309 C 359.018 7.33666 -1.94851 0
M  V30 13310 O 358.808 5.88816 -2.00759 0
M  V30 13311 C 357.618 7.92526 -2.10483 0
M  V30 13312 O 357.228 8.03063 -3.47693 0
M  V30 13313 C 356.738 6.89602 -1.41652 0
M  V30 13314 C 357.448 5.59201 -1.75185 0
M  V30 13315 N 357.398 4.58235 -0.662552 0
M  V30 13316 C 357.248 3.24451 -1.01643 0
M  V30 13317 O 357.158 2.94958 -2.21722 0
M  V30 13318 N 357.198 2.30408 0.165238 0
M  V30 13319 C 357.298 2.66048 1.25118 0
M  V30 13320 N 357.248 1.70787 2.16813 0
M  V30 13321 C 357.448 4.02732 1.64413 0
M  V30 13322 C 357.498 4.9488 0.63991 0
M  V30 13323 H 360.238 8.65017 -0.777072 0
M  V30 13324 H 360.508 6.90173 -0.474152 0
M  V30 13325 H 359.641 7.66642 -2.79492 0
M  V30 13326 H 356.986 5.16254 -2.65229 0
M  V30 13327 H 356.706 7.06532 -0.329431 0
M  V30 13328 H 355.715 6.91023 -1.82047 0
M  V30 13329 H 357.549 8.90873 -1.62657 0
M  V30 13330 H 357.621 6.00104 0.892197 0
M  V30 13331 H 357.519 4.31733 2.69229 0
M  V30 13332 H 357.131 0.724835 1.8844 0
M  V30 13333 H 357.327 1.94716 3.16734 0
M  V30 13334 P 355.678 8.03563 -3.84925 0
M  V30 13335 O 355.458 8.85821 -5.0569 0
M  V30 13336 O 354.888 8.41101 -2.65469 0
M  V30 13337 O 355.428 6.4965 -4.18908 0
M  V30 13338 C 356.368 5.81037 -5.05421 0
M  V30 13339 C 355.638 4.78366 -5.89277 0
M  V30 13340 O 355.428 3.58302 -5.08433 0
M  V30 13341 C 354.238 5.17448 -6.36119 0
M  V30 13342 O 353.848 4.45271 -7.53232 0
M  V30 13343 C 353.358 4.74639 -5.19936 0
M  V30 13344 C 354.068 3.49432 -4.70418 0
M  V30 13345 N 354.018 3.31776 -3.22945 0
M  V30 13346 H 356.857 6.54213 -5.71376 0
M  V30 13347 H 357.129 5.30492 -4.44033 0
M  V30 13348 H 356.261 4.55889 -6.76652 0
M  V30 13349 P 352.298 4.23843 -7.83734 0
M  V30 13350 O 352.078 4.19407 -9.29784 0
M  V30 13351 O 351.508 5.24426 -7.09156 0
M  V30 13352 O 352.048 2.7935 -7.20758 0
M  V30 13353 C 352.988 1.7299 -7.50419 0
M  V30 13354 C 352.258 0.406376 -7.57911 0
M  V30 13355 O 352.048 -0.0897726 -6.21935 0
M  V30 13356 C 350.858 0.447224 -8.1878 0
M  V30 13357 O 350.468 -0.825065 -8.71101 0
M  V30 13358 C 349.978 0.783801 -6.99623 0
M  V30 13359 C 350.688 0.0619192 -5.85967 0
M  V30 13360 N 350.638 0.790462 -4.56202 0
M  V30 13361 H 353.477 1.93423 -8.4679 0
M  V30 13362 H 353.749 1.68852 -6.70877 0
M  V30 13363 H 352.881 -0.289041 -8.15388 0
M  V30 13364 H 350.226 -0.927006 -5.72848 0
M  V30 13365 H 349.946 1.86973 -6.82036 0
M  V30 13366 H 348.955 0.403953 -7.13357 0
M  V30 13367 H 350.789 1.20599 -8.97534 0
M  V30 13368 P 348.918 -1.17771 -8.83182 0
M  V30 13369 O 348.698 -2.07206 -9.98732 0
M  V30 13370 O 348.128 0.0743816 -8.81969 0
M  V30 13371 O 348.668 -1.97678 -7.474 0
M  V30 13372 C 349.608 -3.01133 -7.08783 0
M  V30 13373 C 348.878 -4.1203 -6.37546 0
M  V30 13374 O 348.668 -3.72887 -4.9796 0
M  V30 13375 C 347.478 -4.45085 -6.88694 0
M  V30 13376 O 347.088 -5.78836 -6.56315 0
M  V30 13377 C 346.598 -3.47817 -6.12078 0
M  V30 13378 C 347.308 -3.39414 -4.77697 0
M  V30 13379 N 347.258 -2.04615 -4.15333 0
M  V30 13380 C 347.108 -1.96929 -2.77162 0
M  V30 13381 O 347.018 -3.02017 -2.12006 0
M  V30 13382 N 347.058 -0.55485 -2.24237 0
M  V30 13383 C 347.158 0.367808 -2.9169 0
M  V30 13384 N 347.108 1.53426 -2.29427 0
M  V30 13385 C 347.308 0.319148 -4.33828 0
M  V30 13386 C 347.358 -0.920672 -4.90433 0
M  V30 13387 H 350.098 -3.41209 -7.98667 0
M  V30 13388 H 350.368 -2.5837 -6.41742 0
M  V30 13389 H 349.501 -5.02718 -6.42752 0
M  V30 13390 H 346.846 -4.11779 -4.09026 0
M  V30 13391 H 346.566 -2.49661 -6.61772 0
M  V30 13392 H 345.575 -3.86674 -6.00946 0
M  V30 13393 H 347.409 -4.29991 -7.97006 0
M  V30 13394 H 347.481 -1.00589 -5.98303 0
M  V30 13395 H 347.379 1.22639 -4.93799 0
M  V30 13396 H 346.991 1.56819 -1.27167 0
M  V30 13397 H 347.187 2.41062 -2.83063 0
M  V30 13398 P 345.538 -6.144 -6.45285 0
M  V30 13399 O 345.318 -7.54673 -6.86199 0
M  V30 13400 O 344.748 -5.12391 -7.179 0
M  V30 13401 O 345.288 -5.99158 -4.88404 0
M  V30 13402 C 346.228 -6.60234 -3.96415 0
M  V30 13403 C 345.498 -7.08259 -2.72856 0
M  V30 13404 O 345.288 -5.9427 -1.83651 0
M  V30 13405 C 344.098 -7.64886 -2.9555 0
M  V30 13406 O 343.708 -8.53963 -1.90717 0
M  V30 13407 C 343.218 -6.4116 -2.90739 0
M  V30 13408 C 343.928 -5.55375 -1.86963 0
M  V30 13409 N 343.878 -4.09448 -2.16152 0
M  V30 13410 H 346.717 -7.45574 -4.45629 0
M  V30 13411 H 346.989 -5.85864 -3.679 0
M  V30 13412 H 346.121 -7.84412 -2.24479 0
M  V30 13413 H 343.466 -5.73457 -0.888562 0
M  V30 13414 H 343.186 -5.90877 -3.88583 0
M  V30 13415 H 342.195 -6.6596 -2.58858 0
M  V30 13416 H 344.029 -8.16339 -3.92049 0
M  V30 13417 P 342.158 -8.7635 -1.60911 0
M  V30 13418 O 341.938 -10.1388 -1.11561 0
M  V30 13419 O 341.368 -8.36503 -2.79617 0
M  V30 13420 O 341.908 -7.71806 -0.42951 0
M  V30 13421 C 342.848 -7.67148 0.673689 0
M  V30 13422 C 342.118 -7.33374 1.95559 0
M  V30 13423 O 341.908 -5.88721 2.00726 0
M  V30 13424 C 340.718 -7.92526 2.10483 0
M  V30 13425 O 340.328 -8.02971 3.47653 0
M  V30 13426 C 339.838 -6.89602 1.41652 0
M  V30 13427 C 340.548 -5.59201 1.75185 0
M  V30 13428 N 340.498 -4.58235 0.662552 0
M  V30 13429 H 343.337 -8.65116 0.777161 0
M  V30 13430 H 343.609 -6.90173 0.474152 0
M  V30 13431 H 342.741 -7.66548 2.79458 0
M  V30 13432 P 338.778 -8.03563 3.84925 0
M  V30 13433 O 338.558 -8.85821 5.0569 0
M  V30 13434 O 337.988 -8.41101 2.65469 0
M  V30 13435 O 338.528 -6.4965 4.18908 0
M  V30 13436 C 339.468 -5.81037 5.05421 0
M  V30 13437 C 338.738 -4.78366 5.89277 0
M  V30 13438 O 338.528 -3.58302 5.08433 0
M  V30 13439 C 337.338 -5.17448 6.36119 0
M  V30 13440 O 336.948 -4.45271 7.53232 0
M  V30 13441 C 336.458 -4.74639 5.19936 0
M  V30 13442 C 337.168 -3.49432 4.70418 0
M  V30 13443 N 337.118 -3.31776 3.22945 0
M  V30 13444 H 339.957 -6.54213 5.71376 0
M  V30 13445 H 340.229 -5.30492 4.44033 0
M  V30 13446 H 339.361 -4.55889 6.76652 0
M  V30 13447 P 335.398 -4.23843 7.83734 0
M  V30 13448 O 335.178 -4.19407 9.29784 0
M  V30 13449 O 334.608 -5.24426 7.09156 0
M  V30 13450 O 335.148 -2.7935 7.20758 0
M  V30 13451 C 336.088 -1.72945 7.50224 0
M  V30 13452 C 335.358 -0.406376 7.57911 0
M  V30 13453 O 335.148 0.0897726 6.21935 0
M  V30 13454 C 333.958 -0.438983 8.18724 0
M  V30 13455 O 333.568 0.825065 8.71101 0
M  V30 13456 C 333.078 -0.783689 6.99524 0
M  V30 13457 C 333.788 -0.0619086 5.85867 0
M  V30 13458 N 333.738 -0.78573 4.56183 0
M  V30 13459 C 333.588 -0.0292889 3.41887 0
M  V30 13460 O 333.498 1.18445 3.4419 0
M  V30 13461 N 333.548 -0.744061 2.23964 0
M  V30 13462 C 333.638 -2.10932 2.10362 0
M  V30 13463 C 333.788 -2.8202 3.34994 0
M  V30 13464 C 333.838 -2.15547 4.52261 0
M  V30 13465 H 336.579 -1.93379 8.46595 0
M  V30 13466 H 336.848 -1.68132 6.70852 0
M  V30 13467 H 335.981 0.289041 8.15388 0
M  V30 13468 H 333.326 0.926847 5.72749 0
M  V30 13469 H 333.047 -1.86973 6.82036 0
M  V30 13470 H 332.055 -0.403896 7.13257 0
M  V30 13471 H 333.889 -1.20585 8.97435 0
M  V30 13472 H 333.96 -2.71231 5.45042 0
M  V30 13473 P 332.018 1.17771 8.83182 0
M  V30 13474 O 331.798 2.07206 9.98732 0
M  V30 13475 O 331.228 -0.0743816 8.81969 0
M  V30 13476 O 331.768 1.97652 7.47304 0
M  V30 13477 C 332.708 3.01055 7.08599 0
M  V30 13478 C 331.978 4.12613 6.37049 0
M  V30 13479 O 331.768 3.72827 4.97879 0
M  V30 13480 C 330.578 4.45719 6.88164 0
M  V30 13481 O 330.188 5.7877 6.5624 0
M  V30 13482 C 329.698 3.47768 6.11991 0
M  V30 13483 C 330.408 3.39356 4.77615 0
M  V30 13484 N 330.358 2.04571 4.15244 0
M  V30 13485 C 330.208 1.98587 2.78314 0
M  V30 13486 O 330.118 2.98134 2.08835 0
M  V30 13487 N 330.168 0.714467 2.24925 0
M  V30 13488 C 330.258 -0.470001 2.94169 0
M  V30 13489 O 330.208 -1.55587 2.35195 0
M  V30 13490 C 330.408 -0.312541 4.36783 0
M  V30 13491 C 330.518 -1.57711 5.16352 0
M  V30 13492 C 330.458 0.914512 4.92583 0
M  V30 13493 H 333.199 3.41169 7.98575 0
M  V30 13494 H 333.468 2.58295 6.41556 0
M  V30 13495 H 332.601 5.02657 6.42673 0
M  V30 13496 H 329.946 4.11637 4.08885 0
M  V30 13497 H 329.667 2.49626 6.61679 0
M  V30 13498 H 328.675 3.86566 6.00778 0
M  V30 13499 H 330.509 4.29943 7.96918 0
M  V30 13500 H 330.58 1.00937 6.00374 0
M  V30 13501 H 329.55 -1.80153 5.63503 0
M  V30 13502 H 331.287 -1.4566 5.94104 0
M  V30 13503 H 330.799 -2.40664 4.49645 0
M  V30 13504 H 330.063 0.647622 1.25697 0
M  V30 13505 P 328.638 6.144 6.45285 0
M  V30 13506 O 328.418 7.54673 6.86199 0
M  V30 13507 O 327.848 5.12391 7.179 0
M  V30 13508 O 328.388 5.99158 4.88404 0
M  V30 13509 C 329.328 6.60234 3.96415 0
M  V30 13510 C 328.598 7.08259 2.72856 0
M  V30 13511 O 328.388 5.9427 1.83651 0
M  V30 13512 C 327.198 7.64886 2.9555 0
M  V30 13513 O 326.808 8.53963 1.90717 0
M  V30 13514 C 326.318 6.4116 2.90739 0
M  V30 13515 C 327.028 5.55375 1.86963 0
M  V30 13516 N 326.978 4.09664 2.15742 0
M  V30 13517 H 329.817 7.45574 4.45629 0
M  V30 13518 H 330.089 5.86232 3.67314 0
M  V30 13519 H 329.221 7.84412 2.24479 0
M  V30 13520 P 325.258 8.7635 1.60911 0
M  V30 13521 O 325.038 10.1388 1.11561 0
M  V30 13522 O 324.468 8.36503 2.79617 0
M  V30 13523 O 325.008 7.71806 0.42951 0
M  V30 13524 C 325.948 7.66948 -0.673514 0
M  V30 13525 C 325.218 7.33374 -1.95559 0
M  V30 13526 O 325.008 5.88721 -2.00726 0
M  V30 13527 C 323.818 7.92218 -2.1125 0
M  V30 13528 O 323.428 8.02971 -3.47653 0
M  V30 13529 C 322.938 6.89504 -1.41631 0
M  V30 13530 C 323.648 5.59106 -1.75155 0
M  V30 13531 N 323.598 4.58136 -0.662409 0
M  V30 13532 C 323.448 3.26059 -1.02863 0
M  V30 13533 O 323.358 2.90743 -2.19009 0
M  V30 13534 N 323.408 2.35995 0.0155585 0
M  V30 13535 C 323.498 2.65248 1.35603 0
M  V30 13536 O 323.448 1.75605 2.20651 0
M  V30 13537 C 323.648 4.05747 1.64698 0
M  V30 13538 C 323.758 4.42345 3.09553 0
M  V30 13539 C 323.698 4.96734 0.652411 0
M  V30 13540 H 326.439 8.64917 -0.776982 0
M  V30 13541 H 326.708 6.89974 -0.474015 0
M  V30 13542 H 325.841 7.66548 -2.79458 0
M  V30 13543 H 323.186 5.16076 -2.65138 0
M  V30 13544 H 322.907 7.06433 -0.329384 0
M  V30 13545 H 321.915 6.90829 -1.81996 0
M  V30 13546 H 323.749 8.90774 -1.62639 0
M  V30 13547 H 323.82 6.02181 0.895285 0
M  V30 13548 H 322.79 4.80252 3.45468 0
M  V30 13549 H 324.527 5.20015 3.22119 0
M  V30 13550 H 324.039 3.53269 3.67833 0
M  V30 13551 H 323.303 1.39558 -0.227499 0
M  V30 13552 P 321.878 8.03563 -3.84925 0
M  V30 13553 O 321.658 8.85821 -5.0569 0
M  V30 13554 O 321.088 8.41101 -2.65469 0
M  V30 13555 O 321.628 6.4965 -4.18908 0
M  V30 13556 C 322.568 5.80886 -5.05289 0
M  V30 13557 C 321.838 4.78366 -5.89277 0
M  V30 13558 O 321.628 3.58302 -5.08433 0
M  V30 13559 C 320.438 5.16748 -6.36559 0
M  V30 13560 O 320.048 4.45271 -7.53232 0
M  V30 13561 C 319.558 4.74572 -5.19863 0
M  V30 13562 C 320.268 3.49373 -4.70338 0
M  V30 13563 N 320.218 3.31704 -3.22876 0
M  V30 13564 C 320.068 2.03326 -2.74871 0
M  V30 13565 O 319.978 1.06486 -3.48076 0
M  V30 13566 N 320.028 1.91838 -1.37456 0
M  V30 13567 C 320.118 2.94295 -0.462035 0
M  V30 13568 C 320.268 4.25064 -1.05249 0
M  V30 13569 C 320.318 4.40214 -2.39192 0
M  V30 13570 H 323.059 6.54063 -5.71245 0
M  V30 13571 H 323.328 5.30339 -4.43905 0
M  V30 13572 H 322.461 4.55889 -6.76652 0
M  V30 13573 H 319.806 2.6167 -5.17842 0
M  V30 13574 H 319.527 5.52155 -4.41878 0
M  V30 13575 H 318.535 4.51918 -5.53297 0
M  V30 13576 H 320.369 6.25055 -6.55162 0
M  V30 13577 H 320.44 5.39798 -2.81523 0
M  V30 13578 P 318.498 4.23843 -7.83734 0
M  V30 13579 O 318.278 4.19407 -9.29784 0
M  V30 13580 O 317.708 5.24426 -7.09156 0
M  V30 13581 O 318.248 2.7935 -7.20758 0
M  V30 13582 C 319.188 1.7299 -7.50419 0
M  V30 13583 C 318.458 0.406376 -7.57911 0
M  V30 13584 O 318.248 -0.0897726 -6.21935 0
M  V30 13585 C 317.058 0.447224 -8.1878 0
M  V30 13586 O 316.668 -0.825065 -8.71101 0
M  V30 13587 C 316.178 0.783801 -6.99623 0
M  V30 13588 C 316.888 0.0619192 -5.85967 0
M  V30 13589 N 316.838 0.790462 -4.56202 0
M  V30 13590 H 319.677 1.93423 -8.4679 0
M  V30 13591 H 319.949 1.68852 -6.70877 0
M  V30 13592 H 319.081 -0.289041 -8.15388 0
M  V30 13593 H 316.426 -0.927006 -5.72848 0
M  V30 13594 H 316.146 1.86973 -6.82036 0
M  V30 13595 H 315.155 0.403953 -7.13357 0
M  V30 13596 H 316.989 1.20599 -8.97534 0
M  V30 13597 P 315.118 -1.17771 -8.83182 0
M  V30 13598 O 314.898 -2.07206 -9.98732 0
M  V30 13599 O 314.328 0.0743816 -8.81969 0
M  V30 13600 O 314.868 -1.97652 -7.47304 0
M  V30 13601 C 315.808 -3.01133 -7.08783 0
M  V30 13602 C 315.078 -4.12613 -6.37049 0
M  V30 13603 O 314.868 -3.72827 -4.97879 0
M  V30 13604 C 313.678 -4.45085 -6.88694 0
M  V30 13605 O 313.288 -5.7877 -6.5624 0
M  V30 13606 C 312.798 -3.47817 -6.12078 0
M  V30 13607 C 313.508 -3.39414 -4.77697 0
M  V30 13608 N 313.458 -2.04615 -4.15333 0
M  V30 13609 H 316.297 -3.41248 -7.98759 0
M  V30 13610 H 316.569 -2.5837 -6.41742 0
M  V30 13611 H 315.701 -5.02657 -6.42673 0
M  V30 13612 P 311.738 -6.144 -6.45285 0
M  V30 13613 O 311.518 -7.54673 -6.86199 0
M  V30 13614 O 310.948 -5.12391 -7.179 0
M  V30 13615 O 311.488 -5.99158 -4.88404 0
M  V30 13616 C 312.428 -6.60234 -3.96415 0
M  V30 13617 C 311.698 -7.08259 -2.72856 0
M  V30 13618 O 311.488 -5.9427 -1.83651 0
M  V30 13619 C 310.298 -7.64886 -2.9555 0
M  V30 13620 O 309.908 -8.53963 -1.90717 0
M  V30 13621 C 309.418 -6.4116 -2.90739 0
M  V30 13622 C 310.128 -5.55375 -1.86963 0
M  V30 13623 N 310.078 -4.09664 -2.15742 0
M  V30 13624 H 312.917 -7.45574 -4.45629 0
M  V30 13625 H 313.189 -5.86232 -3.67314 0
M  V30 13626 H 312.321 -7.84412 -2.24479 0
M  V30 13627 P 308.358 -8.7635 -1.60911 0
M  V30 13628 O 308.138 -10.1388 -1.11561 0
M  V30 13629 O 307.568 -8.36503 -2.79617 0
M  V30 13630 O 308.108 -7.71806 -0.42951 0
M  V30 13631 C 309.048 -7.67148 0.673689 0
M  V30 13632 C 308.318 -7.33374 1.95559 0
M  V30 13633 O 308.108 -5.88721 2.00726 0
M  V30 13634 C 306.918 -7.92526 2.10483 0
M  V30 13635 O 306.528 -8.02971 3.47653 0
M  V30 13636 C 306.038 -6.89602 1.41652 0
M  V30 13637 C 306.748 -5.59201 1.75185 0
M  V30 13638 N 306.698 -4.58235 0.662552 0
M  V30 13639 H 309.537 -8.65116 0.777161 0
M  V30 13640 H 309.809 -6.90173 0.474152 0
M  V30 13641 H 308.941 -7.66548 2.79458 0
M  V30 13642 P 304.978 -8.03563 3.84925 0
M  V30 13643 O 304.758 -8.85821 5.0569 0
M  V30 13644 O 304.188 -8.41101 2.65469 0
M  V30 13645 O 304.728 -6.4965 4.18908 0
M  V30 13646 C 305.668 -5.81037 5.05421 0
M  V30 13647 C 304.938 -4.78366 5.89277 0
M  V30 13648 O 304.728 -3.58302 5.08433 0
M  V30 13649 C 303.538 -5.17448 6.36119 0
M  V30 13650 O 303.148 -4.45271 7.53232 0
M  V30 13651 C 302.658 -4.74639 5.19936 0
M  V30 13652 C 303.368 -3.49432 4.70418 0
M  V30 13653 N 303.318 -3.31776 3.22945 0
M  V30 13654 H 306.157 -6.54213 5.71376 0
M  V30 13655 H 306.429 -5.30492 4.44033 0
M  V30 13656 H 305.561 -4.55889 6.76652 0
M  V30 13657 P 301.598 -4.23843 7.83734 0
M  V30 13658 O 301.378 -4.19407 9.29784 0
M  V30 13659 O 300.808 -5.24426 7.09156 0
M  V30 13660 O 301.348 -2.7935 7.20758 0
M  V30 13661 C 302.288 -1.72945 7.50224 0
M  V30 13662 C 301.558 -0.406376 7.57911 0
M  V30 13663 O 301.348 0.0897726 6.21935 0
M  V30 13664 C 300.158 -0.438983 8.18724 0
M  V30 13665 O 299.768 0.825065 8.71101 0
M  V30 13666 C 299.278 -0.783689 6.99524 0
M  V30 13667 C 299.988 -0.0619086 5.85867 0
M  V30 13668 N 299.938 -0.78573 4.56183 0
M  V30 13669 C 299.788 -0.0292889 3.41887 0
M  V30 13670 O 299.698 1.18445 3.4419 0
M  V30 13671 N 299.748 -0.744061 2.23964 0
M  V30 13672 C 299.838 -2.10932 2.10362 0
M  V30 13673 C 299.988 -2.8202 3.34994 0
M  V30 13674 C 300.038 -2.15547 4.52261 0
M  V30 13675 H 302.779 -1.93379 8.46595 0
M  V30 13676 H 303.048 -1.68132 6.70852 0
M  V30 13677 H 302.181 0.289041 8.15388 0
M  V30 13678 H 299.526 0.926847 5.72749 0
M  V30 13679 H 299.247 -1.86973 6.82036 0
M  V30 13680 H 298.255 -0.403896 7.13257 0
M  V30 13681 H 300.089 -1.20585 8.97435 0
M  V30 13682 H 300.16 -2.71231 5.45042 0
M  V30 13683 P 298.218 1.17771 8.83182 0
M  V30 13684 O 297.998 2.07206 9.98732 0
M  V30 13685 O 297.428 -0.0743816 8.81969 0
M  V30 13686 O 297.968 1.97678 7.474 0
M  V30 13687 C 298.908 3.01133 7.08783 0
M  V30 13688 C 298.178 4.1203 6.37546 0
M  V30 13689 O 297.968 3.72887 4.9796 0
M  V30 13690 C 296.778 4.45085 6.88694 0
M  V30 13691 O 296.388 5.78836 6.56315 0
M  V30 13692 C 295.898 3.47817 6.12078 0
M  V30 13693 C 296.608 3.39414 4.77697 0
M  V30 13694 N 296.558 2.04615 4.15333 0
M  V30 13695 C 296.408 1.96929 2.77162 0
M  V30 13696 O 296.318 3.02017 2.12006 0
M  V30 13697 N 296.358 0.55485 2.24237 0
M  V30 13698 C 296.458 -0.367808 2.9169 0
M  V30 13699 N 296.408 -1.53426 2.29427 0
M  V30 13700 C 296.608 -0.319148 4.33828 0
M  V30 13701 C 296.658 0.920672 4.90433 0
M  V30 13702 H 299.398 3.41209 7.98667 0
M  V30 13703 H 299.668 2.5837 6.41742 0
M  V30 13704 H 298.801 5.02718 6.42752 0
M  V30 13705 H 296.146 4.11779 4.09026 0
M  V30 13706 H 295.866 2.49661 6.61772 0
M  V30 13707 H 294.875 3.86674 6.00946 0
M  V30 13708 H 296.709 4.29991 7.97006 0
M  V30 13709 H 296.781 1.00589 5.98303 0
M  V30 13710 H 296.679 -1.22639 4.93799 0
M  V30 13711 H 296.291 -1.56819 1.27167 0
M  V30 13712 H 296.487 -2.41062 2.83063 0
M  V30 13713 P 294.838 6.144 6.45285 0
M  V30 13714 O 294.618 7.54673 6.86199 0
M  V30 13715 O 294.048 5.12391 7.179 0
M  V30 13716 O 294.588 5.99158 4.88404 0
M  V30 13717 C 295.528 6.60234 3.96415 0
M  V30 13718 C 294.798 7.08259 2.72856 0
M  V30 13719 O 294.588 5.9427 1.83651 0
M  V30 13720 C 293.398 7.64886 2.9555 0
M  V30 13721 O 293.008 8.53963 1.90717 0
M  V30 13722 C 292.518 6.4116 2.90739 0
M  V30 13723 C 293.228 5.55375 1.86963 0
M  V30 13724 N 293.178 4.09448 2.16152 0
M  V30 13725 H 296.017 7.45574 4.45629 0
M  V30 13726 H 296.289 5.85864 3.679 0
M  V30 13727 H 295.421 7.84412 2.24479 0
M  V30 13728 H 292.766 5.73457 0.888562 0
M  V30 13729 H 292.486 5.90877 3.88583 0
M  V30 13730 H 291.495 6.6596 2.58858 0
M  V30 13731 H 293.329 8.16339 3.92049 0
M  V30 13732 P 291.458 8.7635 1.60911 0
M  V30 13733 O 291.238 10.1388 1.11561 0
M  V30 13734 O 290.668 8.36503 2.79617 0
M  V30 13735 O 291.208 7.71806 0.42951 0
M  V30 13736 C 292.148 7.67148 -0.673689 0
M  V30 13737 C 291.418 7.33374 -1.95559 0
M  V30 13738 O 291.208 5.88721 -2.00726 0
M  V30 13739 C 290.018 7.92526 -2.10483 0
M  V30 13740 O 289.628 8.02971 -3.47653 0
M  V30 13741 C 289.138 6.89602 -1.41652 0
M  V30 13742 C 289.848 5.59201 -1.75185 0
M  V30 13743 N 289.798 4.58235 -0.662552 0
M  V30 13744 H 292.637 8.65116 -0.777161 0
M  V30 13745 H 292.909 6.90173 -0.474152 0
M  V30 13746 H 292.041 7.66548 -2.79458 0
M  V30 13747 P 288.078 8.03563 -3.84925 0
M  V30 13748 O 287.858 8.85821 -5.0569 0
M  V30 13749 O 287.288 8.41101 -2.65469 0
M  V30 13750 O 287.828 6.4965 -4.18908 0
M  V30 13751 C 288.768 5.81037 -5.05421 0
M  V30 13752 C 288.038 4.78366 -5.89277 0
M  V30 13753 O 287.828 3.58302 -5.08433 0
M  V30 13754 C 286.638 5.17448 -6.36119 0
M  V30 13755 O 286.248 4.45271 -7.53232 0
M  V30 13756 C 285.758 4.74639 -5.19936 0
M  V30 13757 C 286.468 3.49432 -4.70418 0
M  V30 13758 N 286.418 3.32099 -3.22613 0
M  V30 13759 H 289.257 6.54213 -5.71376 0
M  V30 13760 H 289.529 5.30936 -4.43503 0
M  V30 13761 H 288.661 4.55889 -6.76652 0
M  V30 13762 H 286.006 2.61715 -5.17932 0
M  V30 13763 H 285.726 5.52155 -4.41878 0
M  V30 13764 H 284.735 4.51981 -5.53374 0
M  V30 13765 H 286.569 6.25124 -6.55234 0
M  V30 13766 P 284.698 4.23843 -7.83734 0
M  V30 13767 O 284.478 4.19407 -9.29784 0
M  V30 13768 O 283.908 5.24426 -7.09156 0
M  V30 13769 O 284.448 2.7935 -7.20758 0
M  V30 13770 C 285.388 1.7299 -7.50419 0
M  V30 13771 C 284.658 0.406376 -7.57911 0
M  V30 13772 O 284.448 -0.0897726 -6.21935 0
M  V30 13773 C 283.258 0.447224 -8.1878 0
M  V30 13774 O 282.868 -0.825065 -8.71101 0
M  V30 13775 C 282.378 0.783801 -6.99623 0
M  V30 13776 C 283.088 0.0619192 -5.85967 0
M  V30 13777 N 283.038 0.7859 -4.56281 0
M  V30 13778 H 285.877 1.93423 -8.4679 0
M  V30 13779 H 286.149 1.68181 -6.71046 0
M  V30 13780 H 285.281 -0.289041 -8.15388 0
M  V30 13781 P 281.318 -1.17771 -8.83182 0
M  V30 13782 O 281.098 -2.07206 -9.98732 0
M  V30 13783 O 280.528 0.0743816 -8.81969 0
M  V30 13784 O 281.068 -1.97652 -7.47304 0
M  V30 13785 C 282.008 -3.01133 -7.08783 0
M  V30 13786 C 281.278 -4.12613 -6.37049 0
M  V30 13787 O 281.068 -3.72827 -4.97879 0
M  V30 13788 C 279.878 -4.45085 -6.88694 0
M  V30 13789 O 279.488 -5.7877 -6.5624 0
M  V30 13790 C 278.998 -3.47817 -6.12078 0
M  V30 13791 C 279.708 -3.39414 -4.77697 0
M  V30 13792 N 279.658 -2.04615 -4.15333 0
M  V30 13793 H 282.497 -3.41248 -7.98759 0
M  V30 13794 H 282.769 -2.5837 -6.41742 0
M  V30 13795 H 281.901 -5.02657 -6.42673 0
M  V30 13796 P 277.938 -6.144 -6.45285 0
M  V30 13797 O 277.718 -7.54673 -6.86199 0
M  V30 13798 O 277.148 -5.12391 -7.179 0
M  V30 13799 O 277.688 -5.99158 -4.88404 0
M  V30 13800 C 278.628 -6.60062 -3.96313 0
M  V30 13801 C 277.898 -7.08259 -2.72856 0
M  V30 13802 O 277.688 -5.9427 -1.83651 0
M  V30 13803 C 276.498 -7.65087 -2.94749 0
M  V30 13804 O 276.108 -8.53963 -1.90717 0
M  V30 13805 C 275.618 -6.41069 -2.90698 0
M  V30 13806 C 276.328 -5.5528 -1.86931 0
M  V30 13807 N 276.278 -4.09575 -2.15696 0
M  V30 13808 C 276.128 -3.24249 -1.08435 0
M  V30 13809 O 276.038 -3.63946 0.0628747 0
M  V30 13810 N 276.088 -1.90009 -1.39973 0
M  V30 13811 C 276.178 -1.34884 -2.65614 0
M  V30 13812 C 276.328 -2.3145 -3.71736 0
M  V30 13813 C 276.378 -3.63518 -3.44754 0
M  V30 13814 H 279.119 -7.45402 -4.45526 0
M  V30 13815 H 279.388 -5.86062 -3.67208 0
M  V30 13816 H 278.521 -7.84412 -2.24479 0
M  V30 13817 H 275.866 -5.73358 -0.888409 0
M  V30 13818 H 275.587 -5.90877 -3.88583 0
M  V30 13819 H 274.595 -6.65867 -2.58821 0
M  V30 13820 H 276.429 -8.16248 -3.92006 0
M  V30 13821 H 276.5 -4.34551 -4.26383 0
M  V30 13822 P 274.558 -8.7635 -1.60911 0
M  V30 13823 O 274.338 -10.1388 -1.11561 0
M  V30 13824 O 273.768 -8.36503 -2.79617 0
M  V30 13825 O 274.308 -7.71806 -0.42951 0
M  V30 13826 C 275.248 -7.66948 0.673514 0
M  V30 13827 C 274.518 -7.33374 1.95559 0
M  V30 13828 O 274.308 -5.88721 2.00726 0
M  V30 13829 C 273.118 -7.92218 2.1125 0
M  V30 13830 O 272.728 -8.02971 3.47653 0
M  V30 13831 C 272.238 -6.89504 1.41631 0
M  V30 13832 C 272.948 -5.59106 1.75155 0
M  V30 13833 N 272.898 -4.58136 0.662409 0
M  V30 13834 C 272.748 -3.26059 1.02863 0
M  V30 13835 O 272.658 -2.90743 2.19009 0
M  V30 13836 N 272.708 -2.35995 -0.0155585 0
M  V30 13837 C 272.798 -2.65248 -1.35603 0
M  V30 13838 O 272.748 -1.75605 -2.20651 0
M  V30 13839 C 272.948 -4.05747 -1.64698 0
M  V30 13840 C 273.058 -4.42345 -3.09553 0
M  V30 13841 C 272.998 -4.96734 -0.652411 0
M  V30 13842 H 275.739 -8.64917 0.776982 0
M  V30 13843 H 276.008 -6.89974 0.474015 0
M  V30 13844 H 275.141 -7.66548 2.79458 0
M  V30 13845 H 272.486 -5.16076 2.65138 0
M  V30 13846 H 272.207 -7.06433 0.329384 0
M  V30 13847 H 271.215 -6.90829 1.81996 0
M  V30 13848 H 273.049 -8.90774 1.62639 0
M  V30 13849 H 273.12 -6.02181 -0.895285 0
M  V30 13850 H 272.09 -4.80252 -3.45468 0
M  V30 13851 H 273.827 -5.20015 -3.22119 0
M  V30 13852 H 273.339 -3.53269 -3.67833 0
M  V30 13853 H 272.603 -1.39558 0.227499 0
M  V30 13854 P 271.178 -8.03563 3.84925 0
M  V30 13855 O 270.958 -8.85821 5.0569 0
M  V30 13856 O 270.388 -8.41101 2.65469 0
M  V30 13857 O 270.928 -6.4965 4.18908 0
M  V30 13858 C 271.868 -5.80886 5.05289 0
M  V30 13859 C 271.138 -4.78366 5.89277 0
M  V30 13860 O 270.928 -3.58302 5.08433 0
M  V30 13861 C 269.738 -5.16748 6.36559 0
M  V30 13862 O 269.348 -4.45271 7.53232 0
M  V30 13863 C 268.858 -4.74572 5.19863 0
M  V30 13864 C 269.568 -3.49373 4.70338 0
M  V30 13865 N 269.518 -3.31704 3.22876 0
M  V30 13866 C 269.368 -2.03326 2.74871 0
M  V30 13867 O 269.278 -1.06486 3.48076 0
M  V30 13868 N 269.328 -1.91838 1.37456 0
M  V30 13869 C 269.418 -2.94295 0.462035 0
M  V30 13870 O 269.368 -2.71763 -0.752928 0
M  V30 13871 C 269.568 -4.25064 1.05249 0
M  V30 13872 C 269.678 -5.39815 0.095697 0
M  V30 13873 C 269.618 -4.40214 2.39192 0
M  V30 13874 H 272.359 -6.54063 5.71245 0
M  V30 13875 H 272.628 -5.30339 4.43905 0
M  V30 13876 H 271.761 -4.55889 6.76652 0
M  V30 13877 H 269.106 -2.6167 5.17842 0
M  V30 13878 H 268.827 -5.52155 4.41878 0
M  V30 13879 H 267.835 -4.51918 5.53297 0
M  V30 13880 H 269.669 -6.25055 6.55162 0
M  V30 13881 H 269.74 -5.39798 2.81523 0
M  V30 13882 H 268.71 -5.91593 0.0279582 0
M  V30 13883 H 270.447 -6.10038 0.450573 0
M  V30 13884 H 269.959 -5.02007 -0.89937 0
M  V30 13885 H 269.223 -0.995326 1.00435 0
M  V30 13886 P 267.798 -4.23843 7.83734 0
M  V30 13887 O 267.578 -4.19407 9.29784 0
M  V30 13888 O 267.008 -5.24426 7.09156 0
M  V30 13889 O 267.548 -2.7935 7.20758 0
M  V30 13890 C 268.488 -1.7299 7.50419 0
M  V30 13891 C 267.758 -0.406376 7.57911 0
M  V30 13892 O 267.548 0.0897726 6.21935 0
M  V30 13893 C 266.358 -0.447224 8.1878 0
M  V30 13894 O 265.968 0.825065 8.71101 0
M  V30 13895 C 265.478 -0.783801 6.99623 0
M  V30 13896 C 266.188 -0.0619192 5.85967 0
M  V30 13897 N 266.138 -0.7859 4.56281 0
M  V30 13898 H 268.977 -1.93423 8.4679 0
M  V30 13899 H 269.249 -1.68181 6.71046 0
M  V30 13900 H 268.381 0.289041 8.15388 0
M  V30 13901 P 264.418 1.17771 8.83182 0
M  V30 13902 O 264.198 2.07206 9.98732 0
M  V30 13903 O 263.628 -0.0743816 8.81969 0
M  V30 13904 O 264.168 1.97652 7.47304 0
M  V30 13905 C 265.108 3.01055 7.08599 0
M  V30 13906 C 264.378 4.12613 6.37049 0
M  V30 13907 O 264.168 3.72827 4.97879 0
M  V30 13908 C 262.978 4.45719 6.88164 0
M  V30 13909 O 262.588 5.7877 6.5624 0
M  V30 13910 C 262.098 3.47768 6.11991 0
M  V30 13911 C 262.808 3.39356 4.77615 0
M  V30 13912 N 262.758 2.04571 4.15244 0
M  V30 13913 C 262.608 1.98587 2.78314 0
M  V30 13914 O 262.518 2.98134 2.08835 0
M  V30 13915 N 262.568 0.714467 2.24925 0
M  V30 13916 C 262.658 -0.470001 2.94169 0
M  V30 13917 O 262.608 -1.55587 2.35195 0
M  V30 13918 C 262.808 -0.312541 4.36783 0
M  V30 13919 C 262.918 -1.57711 5.16352 0
M  V30 13920 C 262.858 0.914512 4.92583 0
M  V30 13921 H 265.599 3.41169 7.98575 0
M  V30 13922 H 265.868 2.58295 6.41556 0
M  V30 13923 H 265.001 5.02657 6.42673 0
M  V30 13924 H 262.346 4.11637 4.08885 0
M  V30 13925 H 262.067 2.49626 6.61679 0
M  V30 13926 H 261.075 3.86566 6.00778 0
M  V30 13927 H 262.909 4.29943 7.96918 0
M  V30 13928 H 262.98 1.00937 6.00374 0
M  V30 13929 H 261.95 -1.80153 5.63503 0
M  V30 13930 H 263.687 -1.4566 5.94104 0
M  V30 13931 H 263.199 -2.40664 4.49645 0
M  V30 13932 H 262.463 0.647622 1.25697 0
M  V30 13933 P 261.038 6.144 6.45285 0
M  V30 13934 O 260.818 7.54673 6.86199 0
M  V30 13935 O 260.248 5.12391 7.179 0
M  V30 13936 O 260.788 5.99158 4.88404 0
M  V30 13937 C 261.728 6.60062 3.96313 0
M  V30 13938 C 260.998 7.08259 2.72856 0
M  V30 13939 O 260.788 5.9427 1.83651 0
M  V30 13940 C 259.598 7.65087 2.94749 0
M  V30 13941 O 259.208 8.53963 1.90717 0
M  V30 13942 C 258.718 6.41069 2.90698 0
M  V30 13943 C 259.428 5.5528 1.86931 0
M  V30 13944 N 259.378 4.09575 2.15696 0
M  V30 13945 C 259.228 3.24249 1.08435 0
M  V30 13946 O 259.138 3.63946 -0.0628747 0
M  V30 13947 N 259.188 1.90009 1.39973 0
M  V30 13948 C 259.278 1.34884 2.65614 0
M  V30 13949 O 259.228 0.123716 2.81728 0
M  V30 13950 C 259.428 2.3145 3.71736 0
M  V30 13951 C 259.538 1.75913 5.10438 0
M  V30 13952 C 259.478 3.63518 3.44754 0
M  V30 13953 H 262.219 7.45402 4.45526 0
M  V30 13954 H 262.488 5.86062 3.67208 0
M  V30 13955 H 261.621 7.84412 2.24479 0
M  V30 13956 H 258.966 5.73358 0.888409 0
M  V30 13957 H 258.687 5.90877 3.88583 0
M  V30 13958 H 257.695 6.65867 2.58821 0
M  V30 13959 H 259.529 8.16248 3.92006 0
M  V30 13960 H 259.6 4.34551 4.26383 0
M  V30 13961 H 258.57 1.85471 5.61775 0
M  V30 13962 H 260.307 2.31364 5.66257 0
M  V30 13963 H 259.819 0.695936 5.05229 0
M  V30 13964 H 259.083 1.26277 0.63625 0
M  V30 13965 P 257.658 8.7635 1.60911 0
M  V30 13966 O 257.438 10.1388 1.11561 0
M  V30 13967 O 256.868 8.36503 2.79617 0
M  V30 13968 O 257.408 7.71806 0.42951 0
M  V30 13969 C 258.348 7.67148 -0.673689 0
M  V30 13970 C 257.618 7.33374 -1.95559 0
M  V30 13971 O 257.408 5.88721 -2.00726 0
M  V30 13972 C 256.218 7.92526 -2.10483 0
M  V30 13973 O 255.828 8.02971 -3.47653 0
M  V30 13974 C 255.338 6.89602 -1.41652 0
M  V30 13975 C 256.048 5.59201 -1.75185 0
M  V30 13976 N 255.998 4.58301 -0.657969 0
M  V30 13977 H 258.837 8.65116 -0.777161 0
M  V30 13978 H 259.109 6.9022 -0.46725 0
M  V30 13979 H 258.241 7.66548 -2.79458 0
M  V30 13980 H 255.586 5.16165 -2.65183 0
M  V30 13981 H 255.306 7.06433 -0.329384 0
M  V30 13982 H 254.315 6.90926 -1.82021 0
M  V30 13983 H 256.149 8.90873 -1.62657 0
M  V30 13984 P 254.279 8.03563 -3.84925 0
M  V30 13985 O 254.059 8.85821 -5.0569 0
M  V30 13986 O 253.489 8.41101 -2.65469 0
M  V30 13987 O 254.029 6.4965 -4.18908 0
M  V30 13988 C 254.969 5.81037 -5.05421 0
M  V30 13989 C 254.239 4.78366 -5.89277 0
M  V30 13990 O 254.029 3.58302 -5.08433 0
M  V30 13991 C 252.839 5.17448 -6.36119 0
M  V30 13992 O 252.449 4.45271 -7.53232 0
M  V30 13993 C 251.959 4.74639 -5.19936 0
M  V30 13994 C 252.669 3.49432 -4.70418 0
M  V30 13995 N 252.619 3.31776 -3.22945 0
M  V30 13996 H 255.458 6.54213 -5.71376 0
M  V30 13997 H 255.73 5.30492 -4.44033 0
M  V30 13998 H 254.862 4.55889 -6.76652 0
M  V30 13999 P 250.899 4.23843 -7.83734 0
M  V30 14000 O 250.679 4.19407 -9.29784 0
M  V30 14001 O 250.109 5.24426 -7.09156 0
M  V30 14002 O 250.649 2.7935 -7.20758 0
M  V30 14003 C 251.589 1.7299 -7.50419 0
M  V30 14004 C 250.859 0.406376 -7.57911 0
M  V30 14005 O 250.649 -0.0897726 -6.21935 0
M  V30 14006 C 249.459 0.447224 -8.1878 0
M  V30 14007 O 249.069 -0.825065 -8.71101 0
M  V30 14008 C 248.579 0.783801 -6.99623 0
M  V30 14009 C 249.289 0.0619192 -5.85967 0
M  V30 14010 N 249.239 0.7859 -4.56281 0
M  V30 14011 H 252.078 1.93423 -8.4679 0
M  V30 14012 H 252.35 1.68181 -6.71046 0
M  V30 14013 H 251.482 -0.289041 -8.15388 0
M  V30 14014 P 247.519 -1.17771 -8.83182 0
M  V30 14015 O 247.299 -2.07206 -9.98732 0
M  V30 14016 O 246.729 0.0743816 -8.81969 0
M  V30 14017 O 247.269 -1.97652 -7.47304 0
M  V30 14018 C 248.209 -3.01055 -7.08599 0
M  V30 14019 C 247.479 -4.12613 -6.37049 0
M  V30 14020 O 247.269 -3.72827 -4.97879 0
M  V30 14021 C 246.079 -4.45719 -6.88164 0
M  V30 14022 O 245.689 -5.7877 -6.5624 0
M  V30 14023 C 245.199 -3.47768 -6.11991 0
M  V30 14024 C 245.909 -3.39356 -4.77615 0
M  V30 14025 N 245.859 -2.04571 -4.15244 0
M  V30 14026 C 245.709 -1.98587 -2.78314 0
M  V30 14027 O 245.619 -2.98134 -2.08835 0
M  V30 14028 N 245.669 -0.714467 -2.24925 0
M  V30 14029 C 245.759 0.470001 -2.94169 0
M  V30 14030 O 245.709 1.55587 -2.35195 0
M  V30 14031 C 245.909 0.312541 -4.36783 0
M  V30 14032 C 246.019 1.57711 -5.16352 0
M  V30 14033 C 245.959 -0.914512 -4.92583 0
M  V30 14034 H 248.7 -3.41169 -7.98575 0
M  V30 14035 H 248.969 -2.58295 -6.41556 0
M  V30 14036 H 248.102 -5.02657 -6.42673 0
M  V30 14037 H 245.447 -4.11637 -4.08885 0
M  V30 14038 H 245.168 -2.49626 -6.61679 0
M  V30 14039 H 244.176 -3.86566 -6.00778 0
M  V30 14040 H 246.01 -4.29943 -7.96918 0
M  V30 14041 H 246.081 -1.00937 -6.00374 0
M  V30 14042 H 245.051 1.80153 -5.63503 0
M  V30 14043 H 246.788 1.4566 -5.94104 0
M  V30 14044 H 246.3 2.40664 -4.49645 0
M  V30 14045 H 245.564 -0.647622 -1.25697 0
M  V30 14046 P 244.139 -6.144 -6.45285 0
M  V30 14047 O 243.919 -7.54673 -6.86199 0
M  V30 14048 O 243.349 -5.12391 -7.179 0
M  V30 14049 O 243.889 -5.99158 -4.88404 0
M  V30 14050 C 244.829 -6.60234 -3.96415 0
M  V30 14051 C 244.099 -7.08259 -2.72856 0
M  V30 14052 O 243.889 -5.9427 -1.83651 0
M  V30 14053 C 242.699 -7.64886 -2.9555 0
M  V30 14054 O 242.309 -8.53963 -1.90717 0
M  V30 14055 C 241.819 -6.4116 -2.90739 0
M  V30 14056 C 242.529 -5.55375 -1.86963 0
M  V30 14057 N 242.479 -4.09664 -2.15742 0
M  V30 14058 H 245.318 -7.45574 -4.45629 0
M  V30 14059 H 245.59 -5.86232 -3.67314 0
M  V30 14060 H 244.722 -7.84412 -2.24479 0
M  V30 14061 P 240.759 -8.7635 -1.60911 0
M  V30 14062 O 240.539 -10.1388 -1.11561 0
M  V30 14063 O 239.969 -8.36503 -2.79617 0
M  V30 14064 O 240.509 -7.71806 -0.42951 0
M  V30 14065 C 241.449 -7.67148 0.673689 0
M  V30 14066 C 240.719 -7.33374 1.95559 0
M  V30 14067 O 240.509 -5.88721 2.00726 0
M  V30 14068 C 239.319 -7.92526 2.10483 0
M  V30 14069 O 238.929 -8.02971 3.47653 0
M  V30 14070 C 238.439 -6.89602 1.41652 0
M  V30 14071 C 239.149 -5.59201 1.75185 0
M  V30 14072 N 239.099 -4.58301 0.657969 0
M  V30 14073 H 241.938 -8.65116 0.777161 0
M  V30 14074 H 242.21 -6.9022 0.46725 0
M  V30 14075 H 241.342 -7.66548 2.79458 0
M  V30 14076 H 238.687 -5.16165 2.65183 0
M  V30 14077 H 238.407 -7.06433 0.329384 0
M  V30 14078 H 237.416 -6.90926 1.82021 0
M  V30 14079 H 239.25 -8.90873 1.62657 0
M  V30 14080 P 237.379 -8.03563 3.84925 0
M  V30 14081 O 237.159 -8.85821 5.0569 0
M  V30 14082 O 236.589 -8.41101 2.65469 0
M  V30 14083 O 237.129 -6.4965 4.18908 0
M  V30 14084 C 238.069 -5.81037 5.05421 0
M  V30 14085 C 237.339 -4.78366 5.89277 0
M  V30 14086 O 237.129 -3.58302 5.08433 0
M  V30 14087 C 235.939 -5.17448 6.36119 0
M  V30 14088 O 235.549 -4.45271 7.53232 0
M  V30 14089 C 235.059 -4.74639 5.19936 0
M  V30 14090 C 235.769 -3.49432 4.70418 0
M  V30 14091 N 235.719 -3.32099 3.22613 0
M  V30 14092 H 238.558 -6.54213 5.71376 0
M  V30 14093 H 238.83 -5.30936 4.43503 0
M  V30 14094 H 237.962 -4.55889 6.76652 0
M  V30 14095 H 235.307 -2.61715 5.17932 0
M  V30 14096 H 235.027 -5.52155 4.41878 0
M  V30 14097 H 234.036 -4.51981 5.53374 0
M  V30 14098 H 235.87 -6.25124 6.55234 0
M  V30 14099 P 233.999 -4.23843 7.83734 0
M  V30 14100 O 233.779 -4.19407 9.29784 0
M  V30 14101 O 233.209 -5.24426 7.09156 0
M  V30 14102 O 233.749 -2.7935 7.20758 0
M  V30 14103 C 234.689 -1.7299 7.50419 0
M  V30 14104 C 233.959 -0.406376 7.57911 0
M  V30 14105 O 233.749 0.0897726 6.21935 0
M  V30 14106 C 232.559 -0.447224 8.1878 0
M  V30 14107 O 232.169 0.825065 8.71101 0
M  V30 14108 C 231.679 -0.783801 6.99623 0
M  V30 14109 C 232.389 -0.0619192 5.85967 0
M  V30 14110 N 232.339 -0.7859 4.56281 0
M  V30 14111 H 235.178 -1.93423 8.4679 0
M  V30 14112 H 235.45 -1.68181 6.71046 0
M  V30 14113 H 234.582 0.289041 8.15388 0
M  V30 14114 P 230.619 1.17771 8.83182 0
M  V30 14115 O 230.399 2.07206 9.98732 0
M  V30 14116 O 229.829 -0.0743816 8.81969 0
M  V30 14117 O 230.369 1.97652 7.47304 0
M  V30 14118 C 231.309 3.01133 7.08783 0
M  V30 14119 C 230.579 4.12613 6.37049 0
M  V30 14120 O 230.369 3.72827 4.97879 0
M  V30 14121 C 229.179 4.45085 6.88694 0
M  V30 14122 O 228.789 5.7877 6.5624 0
M  V30 14123 C 228.299 3.47817 6.12078 0
M  V30 14124 C 229.009 3.39414 4.77697 0
M  V30 14125 N 228.959 2.04199 4.15538 0
M  V30 14126 C 229.039 0.821545 4.76977 0
M  V30 14127 N 228.969 -0.1794 3.94592 0
M  V30 14128 C 228.819 0.419121 2.70776 0
M  V30 14129 C 228.689 -0.109072 1.40577 0
M  V30 14130 N 228.679 -1.4104 1.1344 0
M  V30 14131 N 228.569 0.764381 0.39411 0
M  V30 14132 C 228.579 2.06587 0.664135 0
M  V30 14133 N 228.699 2.67948 1.82153 0
M  V30 14134 C 228.819 1.77942 2.8147 0
M  V30 14135 H 231.798 3.41248 7.98759 0
M  V30 14136 H 232.07 2.57728 6.42 0
M  V30 14137 H 231.202 5.02657 6.42673 0
M  V30 14138 H 228.547 4.11708 4.08956 0
M  V30 14139 H 228.267 2.49626 6.61679 0
M  V30 14140 H 227.276 3.8662 6.00862 0
M  V30 14141 H 229.11 4.29991 7.97006 0
M  V30 14142 H 229.151 0.702451 5.84696 0
M  V30 14143 H 228.77 -2.09647 1.89651 0
M  V30 14144 H 228.581 -1.73358 0.160575 0
M  V30 14145 H 228.473 2.71695 -0.195838 0
M  V30 14146 P 227.239 6.144 6.45285 0
M  V30 14147 O 227.019 7.54673 6.86199 0
M  V30 14148 O 226.449 5.12391 7.179 0
M  V30 14149 O 226.989 5.99158 4.88404 0
M  V30 14150 C 227.929 6.60234 3.96415 0
M  V30 14151 C 227.199 7.08259 2.72856 0
M  V30 14152 O 226.989 5.9427 1.83651 0
M  V30 14153 C 225.799 7.64886 2.9555 0
M  V30 14154 O 225.409 8.53963 1.90717 0
M  V30 14155 C 224.919 6.4116 2.90739 0
M  V30 14156 C 225.629 5.55375 1.86963 0
M  V30 14157 N 225.579 4.09664 2.15742 0
M  V30 14158 H 228.418 7.45574 4.45629 0
M  V30 14159 H 228.69 5.86232 3.67314 0
M  V30 14160 H 227.822 7.84412 2.24479 0
M  V30 14161 P 223.859 8.7635 1.60911 0
M  V30 14162 O 223.639 10.1388 1.11561 0
M  V30 14163 O 223.069 8.36503 2.79617 0
M  V30 14164 O 223.609 7.71806 0.42951 0
M  V30 14165 C 224.549 7.67148 -0.673689 0
M  V30 14166 C 223.819 7.33374 -1.95559 0
M  V30 14167 O 223.609 5.88721 -2.00726 0
M  V30 14168 C 222.419 7.92526 -2.10483 0
M  V30 14169 O 222.029 8.02971 -3.47653 0
M  V30 14170 C 221.539 6.89602 -1.41652 0
M  V30 14171 C 222.249 5.59201 -1.75185 0
M  V30 14172 N 222.199 4.58235 -0.662552 0
M  V30 14173 H 225.038 8.65116 -0.777161 0
M  V30 14174 H 225.31 6.90173 -0.474152 0
M  V30 14175 H 224.442 7.66548 -2.79458 0
M  V30 14176 P 220.479 8.03563 -3.84925 0
M  V30 14177 O 220.259 8.85821 -5.0569 0
M  V30 14178 O 219.689 8.41101 -2.65469 0
M  V30 14179 O 220.229 6.49734 -4.18962 0
M  V30 14180 C 221.169 5.81037 -5.05421 0
M  V30 14181 C 220.439 4.79018 -5.88876 0
M  V30 14182 O 220.229 3.58359 -5.08515 0
M  V30 14183 C 219.039 5.17448 -6.36119 0
M  V30 14184 O 218.649 4.45322 -7.53318 0
M  V30 14185 C 218.159 4.74639 -5.19936 0
M  V30 14186 C 218.869 3.49432 -4.70418 0
M  V30 14187 N 218.819 3.31776 -3.22945 0
M  V30 14188 C 218.669 2.02742 -2.72939 0
M  V30 14189 O 218.579 1.08301 -3.52749 0
M  V30 14190 N 218.619 1.96117 -1.22063 0
M  V30 14191 C 218.719 2.8878 -0.551566 0
M  V30 14192 N 218.669 2.65609 0.750198 0
M  V30 14193 C 218.869 4.22457 -1.03707 0
M  V30 14194 C 218.919 4.37979 -2.39113 0
M  V30 14195 H 221.659 6.54138 -5.7131 0
M  V30 14196 H 221.929 5.30492 -4.44033 0
M  V30 14197 H 221.062 4.55945 -6.76735 0
M  V30 14198 H 218.407 2.6176 -5.18021 0
M  V30 14199 H 218.127 5.52233 -4.41941 0
M  V30 14200 H 217.136 4.52045 -5.53452 0
M  V30 14201 H 218.97 6.25124 -6.55234 0
M  V30 14202 H 219.042 5.37936 -2.80552 0
M  V30 14203 H 218.94 5.07528 -0.359553 0
M  V30 14204 H 218.552 1.69403 1.09847 0
M  V30 14205 H 218.748 3.43701 1.41792 0
M  V30 14206 P 217.099 4.23843 -7.83734 0
M  V30 14207 O 216.879 4.19407 -9.29784 0
M  V30 14208 O 216.309 5.24426 -7.09156 0
M  V30 14209 O 216.849 2.7935 -7.20758 0
M  V30 14210 C 217.789 1.7299 -7.50419 0
M  V30 14211 C 217.059 0.406376 -7.57911 0
M  V30 14212 O 216.849 -0.0897726 -6.21935 0
M  V30 14213 C 215.659 0.447224 -8.1878 0
M  V30 14214 O 215.269 -0.825065 -8.71101 0
M  V30 14215 C 214.779 0.783801 -6.99623 0
M  V30 14216 C 215.489 0.0619192 -5.85967 0
M  V30 14217 N 215.439 0.7859 -4.56281 0
M  V30 14218 H 218.278 1.93423 -8.4679 0
M  V30 14219 H 218.55 1.68181 -6.71046 0
M  V30 14220 H 217.682 -0.289041 -8.15388 0
M  V30 14221 P 213.719 -1.17771 -8.83182 0
M  V30 14222 O 213.499 -2.07206 -9.98732 0
M  V30 14223 O 212.929 0.0743816 -8.81969 0
M  V30 14224 O 213.469 -1.97678 -7.474 0
M  V30 14225 C 214.409 -3.01133 -7.08783 0
M  V30 14226 C 213.679 -4.1203 -6.37546 0
M  V30 14227 O 213.469 -3.72887 -4.9796 0
M  V30 14228 C 212.279 -4.45085 -6.88694 0
M  V30 14229 O 211.889 -5.78836 -6.56315 0
M  V30 14230 C 211.399 -3.47817 -6.12078 0
M  V30 14231 C 212.109 -3.39414 -4.77697 0
M  V30 14232 N 212.059 -2.04615 -4.15333 0
M  V30 14233 C 211.909 -1.96929 -2.77162 0
M  V30 14234 O 211.819 -3.02017 -2.12006 0
M  V30 14235 N 211.859 -0.55485 -2.24237 0
M  V30 14236 C 211.959 0.367808 -2.9169 0
M  V30 14237 N 211.909 1.53426 -2.29427 0
M  V30 14238 C 212.109 0.319148 -4.33828 0
M  V30 14239 C 212.159 -0.920672 -4.90433 0
M  V30 14240 H 214.899 -3.41209 -7.98667 0
M  V30 14241 H 215.169 -2.5837 -6.41742 0
M  V30 14242 H 214.302 -5.02718 -6.42752 0
M  V30 14243 H 211.647 -4.11779 -4.09026 0
M  V30 14244 H 211.367 -2.49661 -6.61772 0
M  V30 14245 H 210.376 -3.86674 -6.00946 0
M  V30 14246 H 212.21 -4.29991 -7.97006 0
M  V30 14247 H 212.282 -1.00589 -5.98303 0
M  V30 14248 H 212.18 1.22639 -4.93799 0
M  V30 14249 H 211.792 1.56819 -1.27167 0
M  V30 14250 H 211.988 2.41062 -2.83063 0
M  V30 14251 P 210.339 -6.144 -6.45285 0
M  V30 14252 O 210.119 -7.54673 -6.86199 0
M  V30 14253 O 209.549 -5.12391 -7.179 0
M  V30 14254 O 210.089 -5.99158 -4.88404 0
M  V30 14255 C 211.029 -6.60062 -3.96313 0
M  V30 14256 C 210.299 -7.08259 -2.72856 0
M  V30 14257 O 210.089 -5.9427 -1.83651 0
M  V30 14258 C 208.899 -7.65087 -2.94749 0
M  V30 14259 O 208.509 -8.53963 -1.90717 0
M  V30 14260 C 208.019 -6.41069 -2.90698 0
M  V30 14261 C 208.729 -5.5528 -1.86931 0
M  V30 14262 N 208.679 -4.09575 -2.15696 0
M  V30 14263 C 208.529 -3.24249 -1.08435 0
M  V30 14264 O 208.439 -3.63946 0.0628747 0
M  V30 14265 N 208.489 -1.90009 -1.39973 0
M  V30 14266 C 208.579 -1.34884 -2.65614 0
M  V30 14267 C 208.729 -2.3145 -3.71736 0
M  V30 14268 C 208.779 -3.63518 -3.44754 0
M  V30 14269 H 211.52 -7.45402 -4.45526 0
M  V30 14270 H 211.789 -5.86062 -3.67208 0
M  V30 14271 H 210.922 -7.84412 -2.24479 0
M  V30 14272 H 208.267 -5.73358 -0.888409 0
M  V30 14273 H 207.988 -5.90877 -3.88583 0
M  V30 14274 H 206.996 -6.65867 -2.58821 0
M  V30 14275 H 208.83 -8.16248 -3.92006 0
M  V30 14276 H 208.901 -4.34551 -4.26383 0
M  V30 14277 P 206.959 -8.7635 -1.60911 0
M  V30 14278 O 206.739 -10.1388 -1.11561 0
M  V30 14279 O 206.169 -8.36503 -2.79617 0
M  V30 14280 O 206.709 -7.71806 -0.42951 0
M  V30 14281 C 207.649 -7.67148 0.673689 0
M  V30 14282 C 206.919 -7.33374 1.95559 0
M  V30 14283 O 206.709 -5.88721 2.00726 0
M  V30 14284 C 205.519 -7.92526 2.10483 0
M  V30 14285 O 205.129 -8.02971 3.47653 0
M  V30 14286 C 204.639 -6.89602 1.41652 0
M  V30 14287 C 205.349 -5.59201 1.75185 0
M  V30 14288 N 205.299 -4.58301 0.657969 0
M  V30 14289 H 208.138 -8.65116 0.777161 0
M  V30 14290 H 208.41 -6.9022 0.46725 0
M  V30 14291 H 207.542 -7.66548 2.79458 0
M  V30 14292 H 204.887 -5.16165 2.65183 0
M  V30 14293 H 204.607 -7.06433 0.329384 0
M  V30 14294 H 203.616 -6.90926 1.82021 0
M  V30 14295 H 205.45 -8.90873 1.62657 0
M  V30 14296 P 203.579 -8.03563 3.84925 0
M  V30 14297 O 203.359 -8.85821 5.0569 0
M  V30 14298 O 202.789 -8.41101 2.65469 0
M  V30 14299 O 203.329 -6.4965 4.18908 0
M  V30 14300 C 204.269 -5.80886 5.05289 0
M  V30 14301 C 203.539 -4.78366 5.89277 0
M  V30 14302 O 203.329 -3.58302 5.08433 0
M  V30 14303 C 202.139 -5.16748 6.36559 0
M  V30 14304 O 201.749 -4.45271 7.53232 0
M  V30 14305 C 201.259 -4.74572 5.19863 0
M  V30 14306 C 201.969 -3.49373 4.70338 0
M  V30 14307 N 201.919 -3.31704 3.22876 0
M  V30 14308 C 201.769 -2.03326 2.74871 0
M  V30 14309 O 201.679 -1.06486 3.48076 0
M  V30 14310 N 201.729 -1.91838 1.37456 0
M  V30 14311 C 201.819 -2.94295 0.462035 0
M  V30 14312 C 201.969 -4.25064 1.05249 0
M  V30 14313 C 202.019 -4.40214 2.39192 0
M  V30 14314 H 204.76 -6.54063 5.71245 0
M  V30 14315 H 205.029 -5.30339 4.43905 0
M  V30 14316 H 204.162 -4.55889 6.76652 0
M  V30 14317 H 201.507 -2.6167 5.17842 0
M  V30 14318 H 201.228 -5.52155 4.41878 0
M  V30 14319 H 200.236 -4.51918 5.53297 0
M  V30 14320 H 202.07 -6.25055 6.55162 0
M  V30 14321 H 202.141 -5.39798 2.81523 0
M  V30 14322 P 200.199 -4.23843 7.83734 0
M  V30 14323 O 199.979 -4.19407 9.29784 0
M  V30 14324 O 199.409 -5.24426 7.09156 0
M  V30 14325 O 199.949 -2.7935 7.20758 0
M  V30 14326 C 200.889 -1.7299 7.50419 0
M  V30 14327 C 200.159 -0.406376 7.57911 0
M  V30 14328 O 199.949 0.0897726 6.21935 0
M  V30 14329 C 198.759 -0.447224 8.1878 0
M  V30 14330 O 198.369 0.825065 8.71101 0
M  V30 14331 C 197.879 -0.783801 6.99623 0
M  V30 14332 C 198.589 -0.0619192 5.85967 0
M  V30 14333 N 198.539 -0.790462 4.56202 0
M  V30 14334 H 201.378 -1.93423 8.4679 0
M  V30 14335 H 201.65 -1.68852 6.70877 0
M  V30 14336 H 200.782 0.289041 8.15388 0
M  V30 14337 H 198.127 0.927006 5.72848 0
M  V30 14338 H 197.847 -1.86973 6.82036 0
M  V30 14339 H 196.856 -0.403953 7.13357 0
M  V30 14340 H 198.69 -1.20599 8.97534 0
M  V30 14341 P 196.819 1.17771 8.83182 0
M  V30 14342 O 196.599 2.07206 9.98732 0
M  V30 14343 O 196.029 -0.0743816 8.81969 0
M  V30 14344 O 196.569 1.97652 7.47304 0
M  V30 14345 C 197.509 3.01133 7.08783 0
M  V30 14346 C 196.779 4.12613 6.37049 0
M  V30 14347 O 196.569 3.72827 4.97879 0
M  V30 14348 C 195.379 4.45085 6.88694 0
M  V30 14349 O 194.989 5.7877 6.5624 0
M  V30 14350 C 194.499 3.47817 6.12078 0
M  V30 14351 C 195.209 3.39414 4.77697 0
M  V30 14352 N 195.159 2.04199 4.15538 0
M  V30 14353 H 197.998 3.41248 7.98759 0
M  V30 14354 H 198.27 2.57728 6.42 0
M  V30 14355 H 197.402 5.02657 6.42673 0
M  V30 14356 H 194.747 4.11708 4.08956 0
M  V30 14357 H 194.467 2.49626 6.61679 0
M  V30 14358 H 193.476 3.8662 6.00862 0
M  V30 14359 H 195.31 4.29991 7.97006 0
M  V30 14360 P 193.439 6.144 6.45285 0
M  V30 14361 O 193.219 7.54673 6.86199 0
M  V30 14362 O 192.649 5.12391 7.179 0
M  V30 14363 O 193.189 5.99158 4.88404 0
M  V30 14364 C 194.129 6.60062 3.96313 0
M  V30 14365 C 193.399 7.08259 2.72856 0
M  V30 14366 O 193.189 5.9427 1.83651 0
M  V30 14367 C 191.999 7.65087 2.94749 0
M  V30 14368 O 191.609 8.53963 1.90717 0
M  V30 14369 C 191.119 6.41069 2.90698 0
M  V30 14370 C 191.829 5.5528 1.86931 0
M  V30 14371 N 191.779 4.09575 2.15696 0
M  V30 14372 C 191.629 3.24249 1.08435 0
M  V30 14373 O 191.539 3.63946 -0.0628747 0
M  V30 14374 N 191.589 1.90009 1.39973 0
M  V30 14375 C 191.679 1.34884 2.65614 0
M  V30 14376 O 191.629 0.123716 2.81728 0
M  V30 14377 C 191.829 2.3145 3.71736 0
M  V30 14378 C 191.939 1.75913 5.10438 0
M  V30 14379 C 191.879 3.63518 3.44754 0
M  V30 14380 H 194.62 7.45402 4.45526 0
M  V30 14381 H 194.889 5.86062 3.67208 0
M  V30 14382 H 194.022 7.84412 2.24479 0
M  V30 14383 H 191.367 5.73358 0.888409 0
M  V30 14384 H 191.088 5.90877 3.88583 0
M  V30 14385 H 190.096 6.65867 2.58821 0
M  V30 14386 H 191.93 8.16248 3.92006 0
M  V30 14387 H 192.001 4.34551 4.26383 0
M  V30 14388 H 190.971 1.85471 5.61775 0
M  V30 14389 H 192.708 2.31364 5.66257 0
M  V30 14390 H 192.22 0.695936 5.05229 0
M  V30 14391 H 191.484 1.26277 0.63625 0
M  V30 14392 P 190.059 8.7635 1.60911 0
M  V30 14393 O 189.839 10.1388 1.11561 0
M  V30 14394 O 189.269 8.36503 2.79617 0
M  V30 14395 O 189.809 7.71806 0.42951 0
M  V30 14396 C 190.749 7.67148 -0.673689 0
M  V30 14397 C 190.019 7.33374 -1.95559 0
M  V30 14398 O 189.809 5.88721 -2.00726 0
M  V30 14399 C 188.619 7.92526 -2.10483 0
M  V30 14400 O 188.229 8.02971 -3.47653 0
M  V30 14401 C 187.739 6.89602 -1.41652 0
M  V30 14402 C 188.449 5.59201 -1.75185 0
M  V30 14403 N 188.399 4.58235 -0.662552 0
M  V30 14404 H 191.238 8.65116 -0.777161 0
M  V30 14405 H 191.51 6.90173 -0.474152 0
M  V30 14406 H 190.642 7.66548 -2.79458 0
M  V30 14407 P 186.679 8.03563 -3.84925 0
M  V30 14408 O 186.459 8.85821 -5.0569 0
M  V30 14409 O 185.889 8.41101 -2.65469 0
M  V30 14410 O 186.429 6.4965 -4.18908 0
M  V30 14411 C 187.369 5.81037 -5.05421 0
M  V30 14412 C 186.639 4.78366 -5.89277 0
M  V30 14413 O 186.429 3.58302 -5.08433 0
M  V30 14414 C 185.239 5.17448 -6.36119 0
M  V30 14415 O 184.849 4.45271 -7.53232 0
M  V30 14416 C 184.359 4.74639 -5.19936 0
M  V30 14417 C 185.069 3.49432 -4.70418 0
M  V30 14418 N 185.019 3.32099 -3.22613 0
M  V30 14419 H 187.858 6.54213 -5.71376 0
M  V30 14420 H 188.13 5.30936 -4.43503 0
M  V30 14421 H 187.262 4.55889 -6.76652 0
M  V30 14422 H 184.607 2.61715 -5.17932 0
M  V30 14423 H 184.327 5.52155 -4.41878 0
M  V30 14424 H 183.336 4.51981 -5.53374 0
M  V30 14425 H 185.17 6.25124 -6.55234 0
M  V30 14426 P 183.299 4.23843 -7.83734 0
M  V30 14427 O 183.079 4.19407 -9.29784 0
M  V30 14428 O 182.509 5.24426 -7.09156 0
M  V30 14429 O 183.049 2.7935 -7.20758 0
M  V30 14430 C 183.989 1.72945 -7.50224 0
M  V30 14431 C 183.259 0.406376 -7.57911 0
M  V30 14432 O 183.049 -0.0897726 -6.21935 0
M  V30 14433 C 181.859 0.438983 -8.18724 0
M  V30 14434 O 181.469 -0.825065 -8.71101 0
M  V30 14435 C 180.979 0.783689 -6.99524 0
M  V30 14436 C 181.689 0.0619086 -5.85867 0
M  V30 14437 N 181.639 0.78573 -4.56183 0
M  V30 14438 C 181.489 0.0292889 -3.41887 0
M  V30 14439 O 181.399 -1.18445 -3.4419 0
M  V30 14440 N 181.449 0.744061 -2.23964 0
M  V30 14441 C 181.539 2.10932 -2.10362 0
M  V30 14442 C 181.689 2.8202 -3.34994 0
M  V30 14443 C 181.739 2.15547 -4.52261 0
M  V30 14444 H 184.48 1.93379 -8.46595 0
M  V30 14445 H 184.749 1.68132 -6.70852 0
M  V30 14446 H 183.882 -0.289041 -8.15388 0
M  V30 14447 H 181.227 -0.926847 -5.72749 0
M  V30 14448 H 180.948 1.86973 -6.82036 0
M  V30 14449 H 179.956 0.403896 -7.13257 0
M  V30 14450 H 181.79 1.20585 -8.97435 0
M  V30 14451 H 181.861 2.71231 -5.45042 0
M  V30 14452 P 179.919 -1.17771 -8.83182 0
M  V30 14453 O 179.699 -2.07206 -9.98732 0
M  V30 14454 O 179.129 0.0743816 -8.81969 0
M  V30 14455 O 179.669 -1.97652 -7.47304 0
M  V30 14456 C 180.609 -3.01133 -7.08783 0
M  V30 14457 C 179.879 -4.12613 -6.37049 0
M  V30 14458 O 179.669 -3.72827 -4.97879 0
M  V30 14459 C 178.479 -4.45085 -6.88694 0
M  V30 14460 O 178.089 -5.7877 -6.5624 0
M  V30 14461 C 177.599 -3.47817 -6.12078 0
M  V30 14462 C 178.309 -3.39414 -4.77697 0
M  V30 14463 N 178.259 -2.04615 -4.15333 0
M  V30 14464 H 181.098 -3.41248 -7.98759 0
M  V30 14465 H 181.37 -2.5837 -6.41742 0
M  V30 14466 H 180.502 -5.02657 -6.42673 0
M  V30 14467 P 176.539 -6.144 -6.45285 0
M  V30 14468 O 176.319 -7.54673 -6.86199 0
M  V30 14469 O 175.749 -5.12391 -7.179 0
M  V30 14470 O 176.289 -5.99158 -4.88404 0
M  V30 14471 C 177.229 -6.60234 -3.96415 0
M  V30 14472 C 176.499 -7.08259 -2.72856 0
M  V30 14473 O 176.289 -5.9427 -1.83651 0
M  V30 14474 C 175.099 -7.64886 -2.9555 0
M  V30 14475 O 174.709 -8.53963 -1.90717 0
M  V30 14476 C 174.219 -6.4116 -2.90739 0
M  V30 14477 C 174.929 -5.55375 -1.86963 0
M  V30 14478 N 174.879 -4.09664 -2.15742 0
M  V30 14479 H 177.718 -7.45574 -4.45629 0
M  V30 14480 H 177.99 -5.86232 -3.67314 0
M  V30 14481 H 177.122 -7.84412 -2.24479 0
M  V30 14482 P 173.159 -8.7635 -1.60911 0
M  V30 14483 O 172.939 -10.1388 -1.11561 0
M  V30 14484 O 172.369 -8.36503 -2.79617 0
M  V30 14485 O 172.909 -7.71806 -0.42951 0
M  V30 14486 C 173.849 -7.67148 0.673689 0
M  V30 14487 C 173.119 -7.33374 1.95559 0
M  V30 14488 O 172.909 -5.88721 2.00726 0
M  V30 14489 C 171.719 -7.92526 2.10483 0
M  V30 14490 O 171.329 -8.02971 3.47653 0
M  V30 14491 C 170.839 -6.89602 1.41652 0
M  V30 14492 C 171.549 -5.59201 1.75185 0
M  V30 14493 N 171.499 -4.58235 0.662552 0
M  V30 14494 H 174.338 -8.65116 0.777161 0
M  V30 14495 H 174.61 -6.90173 0.474152 0
M  V30 14496 H 173.742 -7.66548 2.79458 0
M  V30 14497 P 169.779 -8.03563 3.84925 0
M  V30 14498 O 169.559 -8.85821 5.0569 0
M  V30 14499 O 168.989 -8.41101 2.65469 0
M  V30 14500 O 169.529 -6.4965 4.18908 0
M  V30 14501 C 170.469 -5.81037 5.05421 0
M  V30 14502 C 169.739 -4.78366 5.89277 0
M  V30 14503 O 169.529 -3.58302 5.08433 0
M  V30 14504 C 168.339 -5.17448 6.36119 0
M  V30 14505 O 167.949 -4.45271 7.53232 0
M  V30 14506 C 167.459 -4.74639 5.19936 0
M  V30 14507 C 168.169 -3.49432 4.70418 0
M  V30 14508 N 168.119 -3.31776 3.22945 0
M  V30 14509 C 168.199 -4.27147 2.23315 0
M  V30 14510 N 168.119 -3.78447 1.02186 0
M  V30 14511 C 167.979 -2.41001 1.21732 0
M  V30 14512 C 167.849 -1.36111 0.27694 0
M  V30 14513 O 167.829 -1.42065 -0.951767 0
M  V30 14514 N 167.729 -0.113683 0.912949 0
M  V30 14515 C 167.729 0.0846396 2.27943 0
M  V30 14516 N 167.599 1.34737 2.6916 0
M  V30 14517 N 167.859 -0.902521 3.16379 0
M  V30 14518 C 167.979 -2.11937 2.56849 0
M  V30 14519 H 170.958 -6.54213 5.71376 0
M  V30 14520 H 171.23 -5.30492 4.44033 0
M  V30 14521 H 170.362 -4.55889 6.76652 0
M  V30 14522 H 167.707 -2.6176 5.18021 0
M  V30 14523 H 167.427 -5.52233 4.41941 0
M  V30 14524 H 166.436 -4.52045 5.53452 0
M  V30 14525 H 168.27 -6.25193 6.55307 0
M  V30 14526 H 168.319 -5.3351 2.43857 0
M  V30 14527 H 167.637 0.69331 0.330371 0
M  V30 14528 H 167.6 1.56433 3.6988 0
M  V30 14529 H 167.499 2.10701 2.00133 0
M  V30 14530 P 166.399 -4.23843 7.83734 0
M  V30 14531 O 166.179 -4.19407 9.29784 0
M  V30 14532 O 165.609 -5.24426 7.09156 0
M  V30 14533 O 166.149 -2.7935 7.20758 0
M  V30 14534 C 167.089 -1.7299 7.50419 0
M  V30 14535 C 166.359 -0.406376 7.57911 0
M  V30 14536 O 166.149 0.0897726 6.21935 0
M  V30 14537 C 164.959 -0.447224 8.1878 0
M  V30 14538 O 164.569 0.825065 8.71101 0
M  V30 14539 C 164.079 -0.783801 6.99623 0
M  V30 14540 C 164.789 -0.0619192 5.85967 0
M  V30 14541 N 164.739 -0.790462 4.56202 0
M  V30 14542 H 167.578 -1.93423 8.4679 0
M  V30 14543 H 167.85 -1.68852 6.70877 0
M  V30 14544 H 166.982 0.289041 8.15388 0
M  V30 14545 H 164.327 0.927006 5.72848 0
M  V30 14546 H 164.047 -1.86973 6.82036 0
M  V30 14547 H 163.056 -0.403953 7.13357 0
M  V30 14548 H 164.89 -1.20599 8.97534 0
M  V30 14549 P 163.019 1.17771 8.83182 0
M  V30 14550 O 162.799 2.07206 9.98732 0
M  V30 14551 O 162.229 -0.0743816 8.81969 0
M  V30 14552 O 162.769 1.97652 7.47304 0
M  V30 14553 C 163.709 3.01133 7.08783 0
M  V30 14554 C 162.979 4.12613 6.37049 0
M  V30 14555 O 162.769 3.72827 4.97879 0
M  V30 14556 C 161.579 4.45085 6.88694 0
M  V30 14557 O 161.189 5.7877 6.5624 0
M  V30 14558 C 160.699 3.47817 6.12078 0
M  V30 14559 C 161.409 3.39414 4.77697 0
M  V30 14560 N 161.359 2.04199 4.15538 0
M  V30 14561 C 161.439 0.821545 4.76977 0
M  V30 14562 N 161.369 -0.1794 3.94592 0
M  V30 14563 C 161.219 0.419121 2.70776 0
M  V30 14564 C 161.089 -0.109072 1.40577 0
M  V30 14565 N 161.079 -1.4104 1.1344 0
M  V30 14566 N 160.969 0.764381 0.39411 0
M  V30 14567 C 160.979 2.06587 0.664135 0
M  V30 14568 N 161.099 2.67948 1.82153 0
M  V30 14569 C 161.219 1.77942 2.8147 0
M  V30 14570 H 164.198 3.41248 7.98759 0
M  V30 14571 H 164.47 2.57728 6.42 0
M  V30 14572 H 163.602 5.02657 6.42673 0
M  V30 14573 H 160.947 4.11708 4.08956 0
M  V30 14574 H 160.667 2.49626 6.61679 0
M  V30 14575 H 159.676 3.8662 6.00862 0
M  V30 14576 H 161.51 4.29991 7.97006 0
M  V30 14577 H 161.551 0.702451 5.84696 0
M  V30 14578 H 161.17 -2.09647 1.89651 0
M  V30 14579 H 160.981 -1.73358 0.160575 0
M  V30 14580 H 160.873 2.71695 -0.195838 0
M  V30 14581 P 159.639 6.144 6.45285 0
M  V30 14582 O 159.419 7.54673 6.86199 0
M  V30 14583 O 158.849 5.12391 7.179 0
M  V30 14584 O 159.389 5.99158 4.88404 0
M  V30 14585 C 160.329 6.60234 3.96415 0
M  V30 14586 C 159.599 7.08259 2.72856 0
M  V30 14587 O 159.389 5.9427 1.83651 0
M  V30 14588 C 158.199 7.64886 2.9555 0
M  V30 14589 O 157.809 8.53963 1.90717 0
M  V30 14590 C 157.319 6.4116 2.90739 0
M  V30 14591 C 158.029 5.55375 1.86963 0
M  V30 14592 N 157.979 4.09664 2.15742 0
M  V30 14593 H 160.818 7.45574 4.45629 0
M  V30 14594 H 161.09 5.86232 3.67314 0
M  V30 14595 H 160.222 7.84412 2.24479 0
M  V30 14596 P 156.259 8.7635 1.60911 0
M  V30 14597 O 156.039 10.1388 1.11561 0
M  V30 14598 O 155.469 8.36503 2.79617 0
M  V30 14599 O 156.009 7.71806 0.42951 0
M  V30 14600 C 156.949 7.67148 -0.673689 0
M  V30 14601 C 156.219 7.33374 -1.95559 0
M  V30 14602 O 156.009 5.88721 -2.00726 0
M  V30 14603 C 154.819 7.92526 -2.10483 0
M  V30 14604 O 154.429 8.02971 -3.47653 0
M  V30 14605 C 153.939 6.89602 -1.41652 0
M  V30 14606 C 154.649 5.59201 -1.75185 0
M  V30 14607 N 154.599 4.58301 -0.657969 0
M  V30 14608 H 157.438 8.65116 -0.777161 0
M  V30 14609 H 157.71 6.9022 -0.46725 0
M  V30 14610 H 156.842 7.66548 -2.79458 0
M  V30 14611 H 154.187 5.16165 -2.65183 0
M  V30 14612 H 153.907 7.06433 -0.329384 0
M  V30 14613 H 152.916 6.90926 -1.82021 0
M  V30 14614 H 154.75 8.90873 -1.62657 0
M  V30 14615 P 152.879 8.03563 -3.84925 0
M  V30 14616 O 152.659 8.85821 -5.0569 0
M  V30 14617 O 152.089 8.41101 -2.65469 0
M  V30 14618 O 152.629 6.49734 -4.18962 0
M  V30 14619 C 153.569 5.81037 -5.05421 0
M  V30 14620 C 152.839 4.79018 -5.88876 0
M  V30 14621 O 152.629 3.58359 -5.08515 0
M  V30 14622 C 151.439 5.17448 -6.36119 0
M  V30 14623 O 151.049 4.45322 -7.53318 0
M  V30 14624 C 150.559 4.74639 -5.19936 0
M  V30 14625 C 151.269 3.49432 -4.70418 0
M  V30 14626 N 151.219 3.31776 -3.22945 0
M  V30 14627 C 151.069 2.02742 -2.72939 0
M  V30 14628 O 150.979 1.08301 -3.52749 0
M  V30 14629 N 151.019 1.96117 -1.22063 0
M  V30 14630 C 151.119 2.8878 -0.551566 0
M  V30 14631 N 151.069 2.65609 0.750198 0
M  V30 14632 C 151.269 4.22457 -1.03707 0
M  V30 14633 C 151.319 4.37979 -2.39113 0
M  V30 14634 H 154.059 6.54138 -5.7131 0
M  V30 14635 H 154.329 5.30492 -4.44033 0
M  V30 14636 H 153.462 4.55945 -6.76735 0
M  V30 14637 H 150.807 2.6176 -5.18021 0
M  V30 14638 H 150.527 5.52233 -4.41941 0
M  V30 14639 H 149.536 4.52045 -5.53452 0
M  V30 14640 H 151.37 6.25124 -6.55234 0
M  V30 14641 H 151.442 5.37936 -2.80552 0
M  V30 14642 H 151.34 5.07528 -0.359553 0
M  V30 14643 H 150.952 1.69403 1.09847 0
M  V30 14644 H 151.148 3.43701 1.41792 0
M  V30 14645 P 149.499 4.23843 -7.83734 0
M  V30 14646 O 149.279 4.19407 -9.29784 0
M  V30 14647 O 148.709 5.24426 -7.09156 0
M  V30 14648 O 149.249 2.7935 -7.20758 0
M  V30 14649 C 150.189 1.7299 -7.50419 0
M  V30 14650 C 149.459 0.406376 -7.57911 0
M  V30 14651 O 149.249 -0.0897726 -6.21935 0
M  V30 14652 C 148.059 0.447224 -8.1878 0
M  V30 14653 O 147.669 -0.825065 -8.71101 0
M  V30 14654 C 147.179 0.783801 -6.99623 0
M  V30 14655 C 147.889 0.0619192 -5.85967 0
M  V30 14656 N 147.839 0.7859 -4.56281 0
M  V30 14657 H 150.678 1.93423 -8.4679 0
M  V30 14658 H 150.95 1.68181 -6.71046 0
M  V30 14659 H 150.082 -0.289041 -8.15388 0
M  V30 14660 P 146.119 -1.17771 -8.83182 0
M  V30 14661 O 145.899 -2.07206 -9.98732 0
M  V30 14662 O 145.329 0.0743816 -8.81969 0
M  V30 14663 O 145.869 -1.97652 -7.47304 0
M  V30 14664 C 146.809 -3.01133 -7.08783 0
M  V30 14665 C 146.079 -4.12613 -6.37049 0
M  V30 14666 O 145.869 -3.72827 -4.97879 0
M  V30 14667 C 144.679 -4.45085 -6.88694 0
M  V30 14668 O 144.289 -5.7877 -6.5624 0
M  V30 14669 C 143.799 -3.47817 -6.12078 0
M  V30 14670 C 144.509 -3.39414 -4.77697 0
M  V30 14671 N 144.459 -2.04615 -4.15333 0
M  V30 14672 H 147.298 -3.41248 -7.98759 0
M  V30 14673 H 147.57 -2.5837 -6.41742 0
M  V30 14674 H 146.702 -5.02657 -6.42673 0
M  V30 14675 P 142.739 -6.144 -6.45285 0
M  V30 14676 O 142.519 -7.54673 -6.86199 0
M  V30 14677 O 141.949 -5.12391 -7.179 0
M  V30 14678 O 142.489 -5.99158 -4.88404 0
M  V30 14679 C 143.429 -6.60234 -3.96415 0
M  V30 14680 C 142.699 -7.08259 -2.72856 0
M  V30 14681 O 142.489 -5.9427 -1.83651 0
M  V30 14682 C 141.299 -7.64886 -2.9555 0
M  V30 14683 O 140.909 -8.53963 -1.90717 0
M  V30 14684 C 140.419 -6.4116 -2.90739 0
M  V30 14685 C 141.129 -5.55375 -1.86963 0
M  V30 14686 N 141.079 -4.09664 -2.15742 0
M  V30 14687 H 143.918 -7.45574 -4.45629 0
M  V30 14688 H 144.19 -5.86232 -3.67314 0
M  V30 14689 H 143.322 -7.84412 -2.24479 0
M  V30 14690 P 139.359 -8.7635 -1.60911 0
M  V30 14691 O 139.139 -10.1388 -1.11561 0
M  V30 14692 O 138.569 -8.36503 -2.79617 0
M  V30 14693 O 139.109 -7.71806 -0.42951 0
M  V30 14694 C 140.049 -7.67148 0.673689 0
M  V30 14695 C 139.319 -7.33374 1.95559 0
M  V30 14696 O 139.109 -5.88721 2.00726 0
M  V30 14697 C 137.919 -7.92526 2.10483 0
M  V30 14698 O 137.529 -8.02971 3.47653 0
M  V30 14699 C 137.039 -6.89602 1.41652 0
M  V30 14700 C 137.749 -5.59201 1.75185 0
M  V30 14701 N 137.699 -4.58235 0.662552 0
M  V30 14702 C 137.779 -4.7683 -0.704049 0
M  V30 14703 N 137.699 -3.66233 -1.39775 0
M  V30 14704 C 137.559 -2.66526 -0.431739 0
M  V30 14705 C 137.429 -1.26394 -0.575992 0
M  V30 14706 N 137.309 -0.62859 0.67177 0
M  V30 14707 C 137.309 -1.27134 1.89385 0
M  V30 14708 N 137.179 -0.492035 2.96951 0
M  V30 14709 N 137.439 -2.58978 2.02907 0
M  V30 14710 C 137.559 -3.22433 0.832218 0
M  V30 14711 H 140.538 -8.65116 0.777161 0
M  V30 14712 H 140.81 -6.90173 0.474152 0
M  V30 14713 H 139.942 -7.66548 2.79458 0
M  V30 14714 P 135.979 -8.03563 3.84925 0
M  V30 14715 O 135.759 -8.85821 5.0569 0
M  V30 14716 O 135.189 -8.41101 2.65469 0
M  V30 14717 O 135.729 -6.4965 4.18908 0
M  V30 14718 C 136.669 -5.81037 5.05421 0
M  V30 14719 C 135.939 -4.78366 5.89277 0
M  V30 14720 O 135.729 -3.58302 5.08433 0
M  V30 14721 C 134.539 -5.17448 6.36119 0
M  V30 14722 O 134.149 -4.45271 7.53232 0
M  V30 14723 C 133.659 -4.74639 5.19936 0
M  V30 14724 C 134.369 -3.49432 4.70418 0
M  V30 14725 N 134.319 -3.31776 3.22945 0
M  V30 14726 C 134.399 -4.27147 2.23315 0
M  V30 14727 N 134.319 -3.78447 1.02186 0
M  V30 14728 C 134.179 -2.41001 1.21732 0
M  V30 14729 C 134.049 -1.36111 0.27694 0
M  V30 14730 N 133.929 -0.113683 0.912949 0
M  V30 14731 C 133.929 0.0846396 2.27943 0
M  V30 14732 N 133.799 1.34737 2.6916 0
M  V30 14733 N 134.059 -0.902521 3.16379 0
M  V30 14734 C 134.179 -2.11937 2.56849 0
M  V30 14735 H 137.158 -6.54213 5.71376 0
M  V30 14736 H 137.43 -5.30492 4.44033 0
M  V30 14737 H 136.562 -4.55889 6.76652 0
M  V30 14738 P 132.599 -4.23843 7.83734 0
M  V30 14739 O 132.379 -4.19407 9.29784 0
M  V30 14740 O 131.809 -5.24426 7.09156 0
M  V30 14741 O 132.349 -2.7935 7.20758 0
M  V30 14742 C 133.289 -1.7299 7.50419 0
M  V30 14743 C 132.559 -0.406376 7.57911 0
M  V30 14744 O 132.349 0.0897726 6.21935 0
M  V30 14745 C 131.159 -0.447224 8.1878 0
M  V30 14746 O 130.769 0.825065 8.71101 0
M  V30 14747 C 130.279 -0.783801 6.99623 0
M  V30 14748 C 130.989 -0.0619192 5.85967 0
M  V30 14749 N 130.939 -0.7859 4.56281 0
M  V30 14750 H 133.778 -1.93423 8.4679 0
M  V30 14751 H 134.05 -1.68181 6.71046 0
M  V30 14752 H 133.182 0.289041 8.15388 0
M  V30 14753 P 129.219 1.17771 8.83182 0
M  V30 14754 O 128.999 2.07206 9.98732 0
M  V30 14755 O 128.429 -0.0743816 8.81969 0
M  V30 14756 O 128.969 1.97652 7.47304 0
M  V30 14757 C 129.909 3.01055 7.08599 0
M  V30 14758 C 129.179 4.12613 6.37049 0
M  V30 14759 O 128.969 3.72827 4.97879 0
M  V30 14760 C 127.779 4.45719 6.88164 0
M  V30 14761 O 127.389 5.7877 6.5624 0
M  V30 14762 C 126.899 3.47768 6.11991 0
M  V30 14763 C 127.609 3.39356 4.77615 0
M  V30 14764 N 127.559 2.04571 4.15244 0
M  V30 14765 C 127.409 1.98587 2.78314 0
M  V30 14766 O 127.319 2.98134 2.08835 0
M  V30 14767 N 127.369 0.714467 2.24925 0
M  V30 14768 C 127.459 -0.470001 2.94169 0
M  V30 14769 C 127.609 -0.312541 4.36783 0
M  V30 14770 C 127.659 0.914512 4.92583 0
M  V30 14771 H 130.4 3.41169 7.98575 0
M  V30 14772 H 130.669 2.58295 6.41556 0
M  V30 14773 H 129.802 5.02657 6.42673 0
M  V30 14774 H 127.147 4.11637 4.08885 0
M  V30 14775 H 126.868 2.49626 6.61679 0
M  V30 14776 H 125.876 3.86566 6.00778 0
M  V30 14777 H 127.71 4.29943 7.96918 0
M  V30 14778 H 127.781 1.00937 6.00374 0
M  V30 14779 P 125.839 6.144 6.45285 0
M  V30 14780 O 125.619 7.54673 6.86199 0
M  V30 14781 O 125.049 5.12391 7.179 0
M  V30 14782 O 125.589 5.99158 4.88404 0
M  V30 14783 C 126.529 6.60234 3.96415 0
M  V30 14784 C 125.799 7.08259 2.72856 0
M  V30 14785 O 125.589 5.9427 1.83651 0
M  V30 14786 C 124.399 7.64886 2.9555 0
M  V30 14787 O 124.009 8.53963 1.90717 0
M  V30 14788 C 123.519 6.4116 2.90739 0
M  V30 14789 C 124.229 5.55375 1.86963 0
M  V30 14790 N 124.179 4.09664 2.15742 0
M  V30 14791 H 127.018 7.45574 4.45629 0
M  V30 14792 H 127.29 5.86232 3.67314 0
M  V30 14793 H 126.422 7.84412 2.24479 0
M  V30 14794 P 122.459 8.7635 1.60911 0
M  V30 14795 O 122.239 10.1388 1.11561 0
M  V30 14796 O 121.669 8.36503 2.79617 0
M  V30 14797 O 122.209 7.71806 0.42951 0
M  V30 14798 C 123.149 7.67148 -0.673689 0
M  V30 14799 C 122.419 7.33374 -1.95559 0
M  V30 14800 O 122.209 5.88721 -2.00726 0
M  V30 14801 C 121.019 7.92526 -2.10483 0
M  V30 14802 O 120.629 8.02971 -3.47653 0
M  V30 14803 C 120.139 6.89602 -1.41652 0
M  V30 14804 C 120.849 5.59201 -1.75185 0
M  V30 14805 N 120.799 4.58301 -0.657969 0
M  V30 14806 H 123.638 8.65116 -0.777161 0
M  V30 14807 H 123.91 6.9022 -0.46725 0
M  V30 14808 H 123.042 7.66548 -2.79458 0
M  V30 14809 H 120.387 5.16165 -2.65183 0
M  V30 14810 H 120.107 7.06433 -0.329384 0
M  V30 14811 H 119.116 6.90926 -1.82021 0
M  V30 14812 H 120.95 8.90873 -1.62657 0
M  V30 14813 P 119.079 8.03563 -3.84925 0
M  V30 14814 O 118.859 8.85821 -5.0569 0
M  V30 14815 O 118.289 8.41101 -2.65469 0
M  V30 14816 O 118.829 6.4965 -4.18908 0
M  V30 14817 C 119.769 5.81037 -5.05421 0
M  V30 14818 C 119.039 4.78366 -5.89277 0
M  V30 14819 O 118.829 3.58302 -5.08433 0
M  V30 14820 C 117.639 5.17448 -6.36119 0
M  V30 14821 O 117.249 4.45271 -7.53232 0
M  V30 14822 C 116.759 4.74639 -5.19936 0
M  V30 14823 C 117.469 3.49432 -4.70418 0
M  V30 14824 N 117.419 3.31776 -3.22945 0
M  V30 14825 H 120.258 6.54213 -5.71376 0
M  V30 14826 H 120.53 5.30492 -4.44033 0
M  V30 14827 H 119.662 4.55889 -6.76652 0
M  V30 14828 P 115.699 4.23843 -7.83734 0
M  V30 14829 O 115.479 4.19407 -9.29784 0
M  V30 14830 O 114.909 5.24426 -7.09156 0
M  V30 14831 O 115.449 2.7935 -7.20758 0
M  V30 14832 C 116.389 1.7299 -7.50419 0
M  V30 14833 C 115.659 0.406376 -7.57911 0
M  V30 14834 O 115.449 -0.0897726 -6.21935 0
M  V30 14835 C 114.259 0.447224 -8.1878 0
M  V30 14836 O 113.869 -0.825065 -8.71101 0
M  V30 14837 C 113.379 0.783801 -6.99623 0
M  V30 14838 C 114.089 0.0619192 -5.85967 0
M  V30 14839 N 114.039 0.7859 -4.56281 0
M  V30 14840 H 116.878 1.93423 -8.4679 0
M  V30 14841 H 117.15 1.68181 -6.71046 0
M  V30 14842 H 116.282 -0.289041 -8.15388 0
M  V30 14843 P 112.319 -1.17771 -8.83182 0
M  V30 14844 O 112.099 -2.07206 -9.98732 0
M  V30 14845 O 111.529 0.0743816 -8.81969 0
M  V30 14846 O 112.069 -1.97652 -7.47304 0
M  V30 14847 C 113.009 -3.01133 -7.08783 0
M  V30 14848 C 112.279 -4.12613 -6.37049 0
M  V30 14849 O 112.069 -3.72827 -4.97879 0
M  V30 14850 C 110.879 -4.45085 -6.88694 0
M  V30 14851 O 110.489 -5.7877 -6.5624 0
M  V30 14852 C 109.999 -3.47817 -6.12078 0
M  V30 14853 C 110.709 -3.39414 -4.77697 0
M  V30 14854 N 110.659 -2.04199 -4.15538 0
M  V30 14855 C 110.739 -0.821545 -4.76977 0
M  V30 14856 N 110.669 0.1794 -3.94592 0
M  V30 14857 C 110.519 -0.419121 -2.70776 0
M  V30 14858 C 110.389 0.109072 -1.40577 0
M  V30 14859 N 110.379 1.4104 -1.1344 0
M  V30 14860 N 110.269 -0.764381 -0.39411 0
M  V30 14861 C 110.279 -2.06587 -0.664135 0
M  V30 14862 N 110.399 -2.67948 -1.82153 0
M  V30 14863 C 110.519 -1.77942 -2.8147 0
M  V30 14864 H 113.498 -3.41248 -7.98759 0
M  V30 14865 H 113.77 -2.57728 -6.42 0
M  V30 14866 H 112.902 -5.02657 -6.42673 0
M  V30 14867 H 110.247 -4.11708 -4.08956 0
M  V30 14868 H 109.967 -2.49626 -6.61679 0
M  V30 14869 H 108.976 -3.8662 -6.00862 0
M  V30 14870 H 110.81 -4.29991 -7.97006 0
M  V30 14871 H 110.851 -0.702451 -5.84696 0
M  V30 14872 H 110.47 2.09647 -1.89651 0
M  V30 14873 H 110.281 1.73358 -0.160575 0
M  V30 14874 H 110.173 -2.71695 0.195838 0
M  V30 14875 P 108.939 -6.144 -6.45285 0
M  V30 14876 O 108.719 -7.54673 -6.86199 0
M  V30 14877 O 108.149 -5.12391 -7.179 0
M  V30 14878 O 108.689 -5.99158 -4.88404 0
M  V30 14879 C 109.629 -6.60234 -3.96415 0
M  V30 14880 C 108.899 -7.08259 -2.72856 0
M  V30 14881 O 108.689 -5.9427 -1.83651 0
M  V30 14882 C 107.499 -7.64886 -2.9555 0
M  V30 14883 O 107.109 -8.53963 -1.90717 0
M  V30 14884 C 106.619 -6.4116 -2.90739 0
M  V30 14885 C 107.329 -5.55375 -1.86963 0
M  V30 14886 N 107.279 -4.09448 -2.16152 0
M  V30 14887 C 107.359 -3.46824 -3.37593 0
M  V30 14888 N 107.289 -2.17422 -3.29777 0
M  V30 14889 C 107.139 -1.93065 -1.94427 0
M  V30 14890 C 107.009 -0.738053 -1.20141 0
M  V30 14891 N 106.999 0.474256 -1.74676 0
M  V30 14892 N 106.889 -0.850049 0.13045 0
M  V30 14893 C 106.899 -2.06169 0.676992 0
M  V30 14894 N 107.019 -3.23842 0.101312 0
M  V30 14895 C 107.139 -3.09402 -1.23122 0
M  V30 14896 H 110.118 -7.45574 -4.45629 0
M  V30 14897 H 110.39 -5.85864 -3.679 0
M  V30 14898 H 109.522 -7.84412 -2.24479 0
M  V30 14899 H 106.867 -5.73457 -0.888562 0
M  V30 14900 H 106.587 -5.90877 -3.88583 0
M  V30 14901 H 105.596 -6.6596 -2.58858 0
M  V30 14902 H 107.43 -8.16339 -3.92049 0
M  V30 14903 H 107.471 -4.00505 -4.3174 0
M  V30 14904 H 107.09 0.581337 -2.76658 0
M  V30 14905 H 106.901 1.30811 -1.14888 0
M  V30 14906 H 106.793 -2.08295 1.75542 0
M  V30 14907 P 105.559 -8.7635 -1.60911 0
M  V30 14908 O 105.339 -10.1388 -1.11561 0
M  V30 14909 O 104.769 -8.36503 -2.79617 0
M  V30 14910 O 105.309 -7.71806 -0.42951 0
M  V30 14911 C 106.249 -7.67148 0.673689 0
M  V30 14912 C 105.519 -7.33374 1.95559 0
M  V30 14913 O 105.309 -5.88721 2.00726 0
M  V30 14914 C 104.119 -7.92526 2.10483 0
M  V30 14915 O 103.729 -8.02971 3.47653 0
M  V30 14916 C 103.239 -6.89602 1.41652 0
M  V30 14917 C 103.949 -5.59201 1.75185 0
M  V30 14918 N 103.899 -4.58235 0.662552 0
M  V30 14919 H 106.738 -8.65116 0.777161 0
M  V30 14920 H 107.01 -6.90173 0.474152 0
M  V30 14921 H 106.142 -7.66548 2.79458 0
M  V30 14922 P 102.179 -8.03563 3.84925 0
M  V30 14923 O 101.959 -8.85821 5.0569 0
M  V30 14924 O 101.389 -8.41101 2.65469 0
M  V30 14925 O 101.929 -6.4965 4.18908 0
M  V30 14926 C 102.869 -5.81037 5.05421 0
M  V30 14927 C 102.139 -4.78366 5.89277 0
M  V30 14928 O 101.929 -3.58302 5.08433 0
M  V30 14929 C 100.739 -5.17448 6.36119 0
M  V30 14930 O 100.349 -4.45271 7.53232 0
M  V30 14931 C 99.8594 -4.74639 5.19936 0
M  V30 14932 C 100.569 -3.49432 4.70418 0
M  V30 14933 N 100.519 -3.31776 3.22945 0
M  V30 14934 H 103.358 -6.54213 5.71376 0
M  V30 14935 H 103.63 -5.30492 4.44033 0
M  V30 14936 H 102.762 -4.55889 6.76652 0
M  V30 14937 P 98.7994 -4.23843 7.83734 0
M  V30 14938 O 98.5794 -4.19407 9.29784 0
M  V30 14939 O 98.0094 -5.24426 7.09156 0
M  V30 14940 O 98.5494 -2.7935 7.20758 0
M  V30 14941 C 99.4894 -1.7299 7.50419 0
M  V30 14942 C 98.7594 -0.406376 7.57911 0
M  V30 14943 O 98.5494 0.0897726 6.21935 0
M  V30 14944 C 97.3594 -0.447224 8.1878 0
M  V30 14945 O 96.9694 0.825065 8.71101 0
M  V30 14946 C 96.4794 -0.783801 6.99623 0
M  V30 14947 C 97.1894 -0.0619192 5.85967 0
M  V30 14948 N 97.1394 -0.790462 4.56202 0
M  V30 14949 H 99.9784 -1.93423 8.4679 0
M  V30 14950 H 100.25 -1.68852 6.70877 0
M  V30 14951 H 99.3824 0.289041 8.15388 0
M  V30 14952 H 96.7274 0.927006 5.72848 0
M  V30 14953 H 96.4474 -1.86973 6.82036 0
M  V30 14954 H 95.4564 -0.403953 7.13357 0
M  V30 14955 H 97.2904 -1.20599 8.97534 0
M  V30 14956 P 95.4195 1.17771 8.83182 0
M  V30 14957 O 95.1995 2.07206 9.98732 0
M  V30 14958 O 94.6295 -0.0743816 8.81969 0
M  V30 14959 O 95.1695 1.97652 7.47304 0
M  V30 14960 C 96.1095 3.01133 7.08783 0
M  V30 14961 C 95.3795 4.12613 6.37049 0
M  V30 14962 O 95.1695 3.72827 4.97879 0
M  V30 14963 C 93.9795 4.45085 6.88694 0
M  V30 14964 O 93.5895 5.7877 6.5624 0
M  V30 14965 C 93.0995 3.47817 6.12078 0
M  V30 14966 C 93.8095 3.39414 4.77697 0
M  V30 14967 N 93.7595 2.04615 4.15333 0
M  V30 14968 H 96.5985 3.41248 7.98759 0
M  V30 14969 H 96.8705 2.5837 6.41742 0
M  V30 14970 H 96.0025 5.02657 6.42673 0
M  V30 14971 P 92.0395 6.144 6.45285 0
M  V30 14972 O 91.8195 7.54673 6.86199 0
M  V30 14973 O 91.2495 5.12391 7.179 0
M  V30 14974 O 91.7895 5.99236 4.88467 0
M  V30 14975 C 92.7295 6.60234 3.96415 0
M  V30 14976 C 91.9995 7.08079 2.736 0
M  V30 14977 O 91.7895 5.94365 1.8368 0
M  V30 14978 C 90.5995 7.64886 2.9555 0
M  V30 14979 O 90.2095 8.5406 1.90739 0
M  V30 14980 C 89.7195 6.4116 2.90739 0
M  V30 14981 C 90.4295 5.55375 1.86963 0
M  V30 14982 N 90.3795 4.09664 2.15742 0
M  V30 14983 C 90.2295 3.22231 1.08477 0
M  V30 14984 O 90.1395 3.68951 -0.0600489 0
M  V30 14985 N 90.1795 1.76692 1.48799 0
M  V30 14986 C 90.2795 1.41695 2.57602 0
M  V30 14987 N 90.2295 0.107296 2.75791 0
M  V30 14988 C 90.4295 2.29178 3.69733 0
M  V30 14989 C 90.4795 3.62753 3.42653 0
M  V30 14990 H 93.2195 7.45488 4.45578 0
M  V30 14991 H 93.4895 5.86232 3.67314 0
M  V30 14992 H 92.6225 7.84508 2.24507 0
M  V30 14993 H 89.9675 5.73556 0.888715 0
M  V30 14994 H 89.6875 5.9096 3.88638 0
M  V30 14995 H 88.6965 6.66053 2.58894 0
M  V30 14996 H 90.5305 8.16339 3.92049 0
M  V30 14997 H 90.6025 4.33052 4.24913 0
M  V30 14998 H 90.5005 1.9103 4.71577 0
M  V30 14999 H 90.1125 -0.521221 1.95056 0
M  V30 15000 H 90.3085 -0.286429 3.70695 0
M  V30 15001 P 88.6595 8.7635 1.60911 0
M  V30 15002 O 88.4395 10.1388 1.11561 0
M  V30 15003 O 87.8695 8.36503 2.79617 0
M  V30 15004 O 88.4095 7.71906 0.429565 0
M  V30 15005 C 89.3495 7.67148 -0.673689 0
M  V30 15006 C 88.6195 7.33666 -1.94851 0
M  V30 15007 O 88.4095 5.88816 -2.00759 0
M  V30 15008 C 87.2195 7.92526 -2.10483 0
M  V30 15009 O 86.8295 8.03063 -3.47693 0
M  V30 15010 C 86.3395 6.89602 -1.41652 0
M  V30 15011 C 87.0495 5.59201 -1.75185 0
M  V30 15012 N 86.9995 4.58235 -0.662552 0
M  V30 15013 C 86.8495 3.24451 -1.01643 0
M  V30 15014 O 86.7595 2.94958 -2.21722 0
M  V30 15015 N 86.7995 2.30408 0.165238 0
M  V30 15016 C 86.8995 2.66048 1.25118 0
M  V30 15017 N 86.8495 1.70787 2.16813 0
M  V30 15018 C 87.0495 4.02732 1.64413 0
M  V30 15019 C 87.0995 4.9488 0.63991 0
M  V30 15020 H 89.8395 8.65017 -0.777072 0
M  V30 15021 H 90.1095 6.90173 -0.474152 0
M  V30 15022 H 89.2425 7.66642 -2.79492 0
M  V30 15023 H 86.5875 5.16254 -2.65229 0
M  V30 15024 H 86.3075 7.06532 -0.329431 0
M  V30 15025 H 85.3165 6.91023 -1.82047 0
M  V30 15026 H 87.1505 8.90873 -1.62657 0
M  V30 15027 H 87.2225 6.00104 0.892197 0
M  V30 15028 H 87.1205 4.31733 2.69229 0
M  V30 15029 H 86.7325 0.724835 1.8844 0
M  V30 15030 H 86.9285 1.94716 3.16734 0
M  V30 15031 P 85.2795 8.03563 -3.84925 0
M  V30 15032 O 85.0595 8.85821 -5.0569 0
M  V30 15033 O 84.4895 8.41101 -2.65469 0
M  V30 15034 O 85.0295 6.4965 -4.18908 0
M  V30 15035 C 85.9695 5.81037 -5.05421 0
M  V30 15036 C 85.2395 4.78366 -5.89277 0
M  V30 15037 O 85.0295 3.58302 -5.08433 0
M  V30 15038 C 83.8395 5.17448 -6.36119 0
M  V30 15039 O 83.4495 4.45271 -7.53232 0
M  V30 15040 C 82.9595 4.74639 -5.19936 0
M  V30 15041 C 83.6695 3.49432 -4.70418 0
M  V30 15042 N 83.6195 3.31776 -3.22945 0
M  V30 15043 H 86.4585 6.54213 -5.71376 0
M  V30 15044 H 86.7305 5.30492 -4.44033 0
M  V30 15045 H 85.8625 4.55889 -6.76652 0
M  V30 15046 P 81.8995 4.23843 -7.83734 0
M  V30 15047 O 81.6795 4.19407 -9.29784 0
M  V30 15048 O 81.1095 5.24426 -7.09156 0
M  V30 15049 O 81.6495 2.7935 -7.20758 0
M  V30 15050 C 82.5895 1.7299 -7.50419 0
M  V30 15051 C 81.8595 0.406376 -7.57911 0
M  V30 15052 O 81.6495 -0.0897726 -6.21935 0
M  V30 15053 C 80.4595 0.447224 -8.1878 0
M  V30 15054 O 80.0695 -0.825065 -8.71101 0
M  V30 15055 C 79.5795 0.783801 -6.99623 0
M  V30 15056 C 80.2895 0.0619192 -5.85967 0
M  V30 15057 N 80.2395 0.7859 -4.56281 0
M  V30 15058 H 83.0785 1.93423 -8.4679 0
M  V30 15059 H 83.3505 1.68181 -6.71046 0
M  V30 15060 H 82.4825 -0.289041 -8.15388 0
M  V30 15061 P 78.5196 -1.17771 -8.83182 0
M  V30 15062 O 78.2996 -2.07206 -9.98732 0
M  V30 15063 O 77.7296 0.0743816 -8.81969 0
M  V30 15064 O 78.2696 -1.97652 -7.47304 0
M  V30 15065 C 79.2096 -3.01133 -7.08783 0
M  V30 15066 C 78.4796 -4.12613 -6.37049 0
M  V30 15067 O 78.2696 -3.72827 -4.97879 0
M  V30 15068 C 77.0796 -4.45085 -6.88694 0
M  V30 15069 O 76.6896 -5.7877 -6.5624 0
M  V30 15070 C 76.1996 -3.47817 -6.12078 0
M  V30 15071 C 76.9096 -3.39414 -4.77697 0
M  V30 15072 N 76.8596 -2.04615 -4.15333 0
M  V30 15073 H 79.6986 -3.41248 -7.98759 0
M  V30 15074 H 79.9706 -2.5837 -6.41742 0
M  V30 15075 H 79.1026 -5.02657 -6.42673 0
M  V30 15076 P 75.1396 -6.144 -6.45285 0
M  V30 15077 O 74.9196 -7.54673 -6.86199 0
M  V30 15078 O 74.3496 -5.12391 -7.179 0
M  V30 15079 O 74.8896 -5.99158 -4.88404 0
M  V30 15080 C 75.8296 -6.60234 -3.96415 0
M  V30 15081 C 75.0996 -7.08259 -2.72856 0
M  V30 15082 O 74.8896 -5.9427 -1.83651 0
M  V30 15083 C 73.6996 -7.64886 -2.9555 0
M  V30 15084 O 73.3096 -8.53963 -1.90717 0
M  V30 15085 C 72.8196 -6.4116 -2.90739 0
M  V30 15086 C 73.5296 -5.55375 -1.86963 0
M  V30 15087 N 73.4796 -4.09448 -2.16152 0
M  V30 15088 H 76.3186 -7.45574 -4.45629 0
M  V30 15089 H 76.5906 -5.85864 -3.679 0
M  V30 15090 H 75.7226 -7.84412 -2.24479 0
M  V30 15091 H 73.0676 -5.73457 -0.888562 0
M  V30 15092 H 72.7876 -5.90877 -3.88583 0
M  V30 15093 H 71.7966 -6.6596 -2.58858 0
M  V30 15094 H 73.6306 -8.16339 -3.92049 0
M  V30 15095 P 71.7596 -8.7635 -1.60911 0
M  V30 15096 O 71.5396 -10.1388 -1.11561 0
M  V30 15097 O 70.9696 -8.36503 -2.79617 0
M  V30 15098 O 71.5096 -7.71806 -0.42951 0
M  V30 15099 C 72.4496 -7.66948 0.673514 0
M  V30 15100 C 71.7196 -7.33374 1.95559 0
M  V30 15101 O 71.5096 -5.88721 2.00726 0
M  V30 15102 C 70.3196 -7.92218 2.1125 0
M  V30 15103 O 69.9296 -8.02971 3.47653 0
M  V30 15104 C 69.4396 -6.89504 1.41631 0
M  V30 15105 C 70.1496 -5.59106 1.75155 0
M  V30 15106 N 70.0996 -4.58136 0.662409 0
M  V30 15107 C 69.9496 -3.26059 1.02863 0
M  V30 15108 O 69.8596 -2.90743 2.19009 0
M  V30 15109 N 69.9096 -2.35995 -0.0155585 0
M  V30 15110 C 69.9996 -2.65248 -1.35603 0
M  V30 15111 C 70.1496 -4.05747 -1.64698 0
M  V30 15112 C 70.1996 -4.96734 -0.652411 0
M  V30 15113 H 72.9406 -8.64917 0.776982 0
M  V30 15114 H 73.2096 -6.89974 0.474015 0
M  V30 15115 H 72.3426 -7.66548 2.79458 0
M  V30 15116 H 69.6876 -5.16076 2.65138 0
M  V30 15117 H 69.4086 -7.06433 0.329384 0
M  V30 15118 H 68.4166 -6.90829 1.81996 0
M  V30 15119 H 70.2506 -8.90774 1.62639 0
M  V30 15120 H 70.3216 -6.02181 -0.895285 0
M  V30 15121 P 68.3796 -8.03563 3.84925 0
M  V30 15122 O 68.1596 -8.85821 5.0569 0
M  V30 15123 O 67.5896 -8.41101 2.65469 0
M  V30 15124 O 68.1296 -6.4965 4.18908 0
M  V30 15125 C 69.0696 -5.81037 5.05421 0
M  V30 15126 C 68.3396 -4.78366 5.89277 0
M  V30 15127 O 68.1296 -3.58302 5.08433 0
M  V30 15128 C 66.9396 -5.17448 6.36119 0
M  V30 15129 O 66.5496 -4.45271 7.53232 0
M  V30 15130 C 66.0596 -4.74639 5.19936 0
M  V30 15131 C 66.7696 -3.49432 4.70418 0
M  V30 15132 N 66.7196 -3.31776 3.22945 0
M  V30 15133 H 69.5586 -6.54213 5.71376 0
M  V30 15134 H 69.8306 -5.30492 4.44033 0
M  V30 15135 H 68.9626 -4.55889 6.76652 0
M  V30 15136 P 64.9996 -4.23843 7.83734 0
M  V30 15137 O 64.7796 -4.19407 9.29784 0
M  V30 15138 O 64.2096 -5.24426 7.09156 0
M  V30 15139 O 64.7496 -2.7935 7.20758 0
M  V30 15140 C 65.6896 -1.7299 7.50419 0
M  V30 15141 C 64.9596 -0.406376 7.57911 0
M  V30 15142 O 64.7496 0.0897726 6.21935 0
M  V30 15143 C 63.5596 -0.447224 8.1878 0
M  V30 15144 O 63.1696 0.825065 8.71101 0
M  V30 15145 C 62.6796 -0.783801 6.99623 0
M  V30 15146 C 63.3896 -0.0619192 5.85967 0
M  V30 15147 N 63.3396 -0.7859 4.56281 0
M  V30 15148 H 66.1786 -1.93423 8.4679 0
M  V30 15149 H 66.4506 -1.68181 6.71046 0
M  V30 15150 H 65.5826 0.289041 8.15388 0
M  V30 15151 P 61.6197 1.17771 8.83182 0
M  V30 15152 O 61.3997 2.07206 9.98732 0
M  V30 15153 O 60.8297 -0.0743816 8.81969 0
M  V30 15154 O 61.3697 1.97652 7.47304 0
M  V30 15155 C 62.3097 3.01133 7.08783 0
M  V30 15156 C 61.5797 4.12613 6.37049 0
M  V30 15157 O 61.3697 3.72827 4.97879 0
M  V30 15158 C 60.1797 4.45085 6.88694 0
M  V30 15159 O 59.7897 5.7877 6.5624 0
M  V30 15160 C 59.2997 3.47817 6.12078 0
M  V30 15161 C 60.0097 3.39414 4.77697 0
M  V30 15162 N 59.9597 2.04615 4.15333 0
M  V30 15163 H 62.7987 3.41248 7.98759 0
M  V30 15164 H 63.0707 2.5837 6.41742 0
M  V30 15165 H 62.2027 5.02657 6.42673 0
M  V30 15166 P 58.2397 6.144 6.45285 0
M  V30 15167 O 58.0197 7.54673 6.86199 0
M  V30 15168 O 57.4497 5.12391 7.179 0
M  V30 15169 O 57.9897 5.99158 4.88404 0
M  V30 15170 C 58.9297 6.60234 3.96415 0
M  V30 15171 C 58.1997 7.08259 2.72856 0
M  V30 15172 O 57.9897 5.9427 1.83651 0
M  V30 15173 C 56.7997 7.64886 2.9555 0
M  V30 15174 O 56.4097 8.53963 1.90717 0
M  V30 15175 C 55.9197 6.4116 2.90739 0
M  V30 15176 C 56.6297 5.55375 1.86963 0
M  V30 15177 N 56.5797 4.09448 2.16152 0
M  V30 15178 H 59.4187 7.45574 4.45629 0
M  V30 15179 H 59.6907 5.85864 3.679 0
M  V30 15180 H 58.8227 7.84412 2.24479 0
M  V30 15181 H 56.1677 5.73457 0.888562 0
M  V30 15182 H 55.8877 5.90877 3.88583 0
M  V30 15183 H 54.8967 6.6596 2.58858 0
M  V30 15184 H 56.7307 8.16339 3.92049 0
M  V30 15185 P 54.8597 8.7635 1.60911 0
M  V30 15186 O 54.6397 10.1388 1.11561 0
M  V30 15187 O 54.0697 8.36503 2.79617 0
M  V30 15188 O 54.6097 7.71806 0.42951 0
M  V30 15189 C 55.5497 7.67148 -0.673689 0
M  V30 15190 C 54.8197 7.33374 -1.95559 0
M  V30 15191 O 54.6097 5.88721 -2.00726 0
M  V30 15192 C 53.4197 7.92526 -2.10483 0
M  V30 15193 O 53.0297 8.02971 -3.47653 0
M  V30 15194 C 52.5397 6.89602 -1.41652 0
M  V30 15195 C 53.2497 5.59201 -1.75185 0
M  V30 15196 N 53.1997 4.58235 -0.662552 0
M  V30 15197 H 56.0387 8.65116 -0.777161 0
M  V30 15198 H 56.3107 6.90173 -0.474152 0
M  V30 15199 H 55.4427 7.66548 -2.79458 0
M  V30 15200 P 51.4797 8.03563 -3.84925 0
M  V30 15201 O 51.2597 8.85821 -5.0569 0
M  V30 15202 O 50.6897 8.41101 -2.65469 0
M  V30 15203 O 51.2297 6.4965 -4.18908 0
M  V30 15204 C 52.1697 5.80886 -5.05289 0
M  V30 15205 C 51.4397 4.78366 -5.89277 0
M  V30 15206 O 51.2297 3.58302 -5.08433 0
M  V30 15207 C 50.0397 5.16748 -6.36559 0
M  V30 15208 O 49.6497 4.45271 -7.53232 0
M  V30 15209 C 49.1597 4.74572 -5.19863 0
M  V30 15210 C 49.8697 3.49373 -4.70338 0
M  V30 15211 N 49.8197 3.31704 -3.22876 0
M  V30 15212 C 49.6697 2.03326 -2.74871 0
M  V30 15213 O 49.5797 1.06486 -3.48076 0
M  V30 15214 N 49.6297 1.91838 -1.37456 0
M  V30 15215 C 49.7197 2.94295 -0.462035 0
M  V30 15216 C 49.8697 4.25064 -1.05249 0
M  V30 15217 C 49.9197 4.40214 -2.39192 0
M  V30 15218 H 52.6607 6.54063 -5.71245 0
M  V30 15219 H 52.9297 5.30339 -4.43905 0
M  V30 15220 H 52.0627 4.55889 -6.76652 0
M  V30 15221 H 49.4077 2.6167 -5.17842 0
M  V30 15222 H 49.1287 5.52155 -4.41878 0
M  V30 15223 H 48.1367 4.51918 -5.53297 0
M  V30 15224 H 49.9707 6.25055 -6.55162 0
M  V30 15225 H 50.0417 5.39798 -2.81523 0
M  V30 15226 P 48.0997 4.23843 -7.83734 0
M  V30 15227 O 47.8797 4.19407 -9.29784 0
M  V30 15228 O 47.3097 5.24426 -7.09156 0
M  V30 15229 O 47.8497 2.7935 -7.20758 0
M  V30 15230 C 48.7897 1.7299 -7.50419 0
M  V30 15231 C 48.0597 0.406376 -7.57911 0
M  V30 15232 O 47.8497 -0.0897726 -6.21935 0
M  V30 15233 C 46.6597 0.447224 -8.1878 0
M  V30 15234 O 46.2697 -0.825065 -8.71101 0
M  V30 15235 C 45.7797 0.783801 -6.99623 0
M  V30 15236 C 46.4897 0.0619192 -5.85967 0
M  V30 15237 N 46.4397 0.790462 -4.56202 0
M  V30 15238 H 49.2787 1.93423 -8.4679 0
M  V30 15239 H 49.5507 1.68852 -6.70877 0
M  V30 15240 H 48.6827 -0.289041 -8.15388 0
M  V30 15241 H 46.0277 -0.927006 -5.72848 0
M  V30 15242 H 45.7477 1.86973 -6.82036 0
M  V30 15243 H 44.7567 0.403953 -7.13357 0
M  V30 15244 H 46.5907 1.20599 -8.97534 0
M  V30 15245 P 44.7198 -1.17771 -8.83182 0
M  V30 15246 O 44.4998 -2.07206 -9.98732 0
M  V30 15247 O 43.9298 0.0743816 -8.81969 0
M  V30 15248 O 44.4698 -1.97652 -7.47304 0
M  V30 15249 C 45.4098 -3.01133 -7.08783 0
M  V30 15250 C 44.6798 -4.12613 -6.37049 0
M  V30 15251 O 44.4698 -3.72827 -4.97879 0
M  V30 15252 C 43.2798 -4.45085 -6.88694 0
M  V30 15253 O 42.8898 -5.7877 -6.5624 0
M  V30 15254 C 42.3998 -3.47817 -6.12078 0
M  V30 15255 C 43.1098 -3.39414 -4.77697 0
M  V30 15256 N 43.0598 -2.04199 -4.15538 0
M  V30 15257 H 45.8988 -3.41248 -7.98759 0
M  V30 15258 H 46.1708 -2.57728 -6.42 0
M  V30 15259 H 45.3028 -5.02657 -6.42673 0
M  V30 15260 H 42.6478 -4.11708 -4.08956 0
M  V30 15261 H 42.3678 -2.49626 -6.61679 0
M  V30 15262 H 41.3768 -3.8662 -6.00862 0
M  V30 15263 H 43.2108 -4.29991 -7.97006 0
M  V30 15264 P 41.3398 -6.144 -6.45285 0
M  V30 15265 O 41.1198 -7.54673 -6.86199 0
M  V30 15266 O 40.5498 -5.12391 -7.179 0
M  V30 15267 O 41.0898 -5.99158 -4.88404 0
M  V30 15268 C 42.0298 -6.60062 -3.96313 0
M  V30 15269 C 41.2998 -7.08259 -2.72856 0
M  V30 15270 O 41.0898 -5.9427 -1.83651 0
M  V30 15271 C 39.8998 -7.65087 -2.94749 0
M  V30 15272 O 39.5098 -8.53963 -1.90717 0
M  V30 15273 C 39.0198 -6.41069 -2.90698 0
M  V30 15274 C 39.7298 -5.5528 -1.86931 0
M  V30 15275 N 39.6798 -4.09575 -2.15696 0
M  V30 15276 C 39.5298 -3.24249 -1.08435 0
M  V30 15277 O 39.4398 -3.63946 0.0628747 0
M  V30 15278 N 39.4898 -1.90009 -1.39973 0
M  V30 15279 C 39.5798 -1.34884 -2.65614 0
M  V30 15280 C 39.7298 -2.3145 -3.71736 0
M  V30 15281 C 39.7798 -3.63518 -3.44754 0
M  V30 15282 H 42.5208 -7.45402 -4.45526 0
M  V30 15283 H 42.7898 -5.86062 -3.67208 0
M  V30 15284 H 41.9228 -7.84412 -2.24479 0
M  V30 15285 H 39.2678 -5.73358 -0.888409 0
M  V30 15286 H 38.9888 -5.90877 -3.88583 0
M  V30 15287 H 37.9968 -6.65867 -2.58821 0
M  V30 15288 H 39.8308 -8.16248 -3.92006 0
M  V30 15289 H 39.9018 -4.34551 -4.26383 0
M  V30 15290 P 37.9598 -8.7635 -1.60911 0
M  V30 15291 O 37.7398 -10.1388 -1.11561 0
M  V30 15292 O 37.1698 -8.36503 -2.79617 0
M  V30 15293 O 37.7098 -7.71806 -0.42951 0
M  V30 15294 C 38.6498 -7.67148 0.673689 0
M  V30 15295 C 37.9198 -7.33374 1.95559 0
M  V30 15296 O 37.7098 -5.88721 2.00726 0
M  V30 15297 C 36.5198 -7.92526 2.10483 0
M  V30 15298 O 36.1298 -8.02971 3.47653 0
M  V30 15299 C 35.6398 -6.89602 1.41652 0
M  V30 15300 C 36.3498 -5.59201 1.75185 0
M  V30 15301 N 36.2998 -4.58235 0.662552 0
M  V30 15302 H 39.1388 -8.65116 0.777161 0
M  V30 15303 H 39.4108 -6.90173 0.474152 0
M  V30 15304 H 38.5428 -7.66548 2.79458 0
M  V30 15305 P 34.5798 -8.03563 3.84925 0
M  V30 15306 O 34.3598 -8.85821 5.0569 0
M  V30 15307 O 33.7898 -8.41101 2.65469 0
M  V30 15308 O 34.3298 -6.4965 4.18908 0
M  V30 15309 C 35.2698 -5.81037 5.05421 0
M  V30 15310 C 34.5398 -4.78366 5.89277 0
M  V30 15311 O 34.3298 -3.58302 5.08433 0
M  V30 15312 C 33.1398 -5.17448 6.36119 0
M  V30 15313 O 32.7498 -4.45271 7.53232 0
M  V30 15314 C 32.2598 -4.74639 5.19936 0
M  V30 15315 C 32.9698 -3.49432 4.70418 0
M  V30 15316 N 32.9198 -3.31776 3.22945 0
M  V30 15317 H 35.7588 -6.54213 5.71376 0
M  V30 15318 H 36.0308 -5.30492 4.44033 0
M  V30 15319 H 35.1628 -4.55889 6.76652 0
M  V30 15320 P 31.1998 -4.23843 7.83734 0
M  V30 15321 O 30.9798 -4.19407 9.29784 0
M  V30 15322 O 30.4098 -5.24426 7.09156 0
M  V30 15323 O 30.9498 -2.7935 7.20758 0
M  V30 15324 C 31.8898 -1.7299 7.50419 0
M  V30 15325 C 31.1598 -0.406376 7.57911 0
M  V30 15326 O 30.9498 0.0897726 6.21935 0
M  V30 15327 C 29.7598 -0.447224 8.1878 0
M  V30 15328 O 29.3698 0.825065 8.71101 0
M  V30 15329 C 28.8798 -0.783801 6.99623 0
M  V30 15330 C 29.5898 -0.0619192 5.85967 0
M  V30 15331 N 29.5398 -0.7859 4.56281 0
M  V30 15332 H 32.3788 -1.93423 8.4679 0
M  V30 15333 H 32.6508 -1.68181 6.71046 0
M  V30 15334 H 31.7828 0.289041 8.15388 0
M  V30 15335 P 27.8199 1.17771 8.83182 0
M  V30 15336 O 27.5999 2.07206 9.98732 0
M  V30 15337 O 27.0299 -0.0743816 8.81969 0
M  V30 15338 O 27.5699 1.97652 7.47304 0
M  V30 15339 C 28.5099 3.01133 7.08783 0
M  V30 15340 C 27.7799 4.12613 6.37049 0
M  V30 15341 O 27.5699 3.72827 4.97879 0
M  V30 15342 C 26.3799 4.45085 6.88694 0
M  V30 15343 O 25.9899 5.7877 6.5624 0
M  V30 15344 C 25.4999 3.47817 6.12078 0
M  V30 15345 C 26.2099 3.39414 4.77697 0
M  V30 15346 N 26.1599 2.04615 4.15333 0
M  V30 15347 H 28.9989 3.41248 7.98759 0
M  V30 15348 H 29.2709 2.5837 6.41742 0
M  V30 15349 H 28.4029 5.02657 6.42673 0
M  V30 15350 P 24.4399 6.144 6.45285 0
M  V30 15351 O 24.2199 7.54673 6.86199 0
M  V30 15352 O 23.6499 5.12391 7.179 0
M  V30 15353 O 24.1899 5.99158 4.88404 0
M  V30 15354 C 25.1299 6.60234 3.96415 0
M  V30 15355 C 24.3999 7.08259 2.72856 0
M  V30 15356 O 24.1899 5.9427 1.83651 0
M  V30 15357 C 22.9999 7.64886 2.9555 0
M  V30 15358 O 22.6099 8.53963 1.90717 0
M  V30 15359 C 22.1199 6.4116 2.90739 0
M  V30 15360 C 22.8299 5.55375 1.86963 0
M  V30 15361 N 22.7799 4.09448 2.16152 0
M  V30 15362 C 22.8599 3.46824 3.37593 0
M  V30 15363 N 22.7899 2.17422 3.29777 0
M  V30 15364 C 22.6399 1.93065 1.94427 0
M  V30 15365 C 22.5099 0.738053 1.20141 0
M  V30 15366 N 22.4999 -0.474256 1.74676 0
M  V30 15367 N 22.3899 0.850049 -0.13045 0
M  V30 15368 C 22.3999 2.06169 -0.676992 0
M  V30 15369 N 22.5199 3.23842 -0.101312 0
M  V30 15370 C 22.6399 3.09402 1.23122 0
M  V30 15371 H 25.6189 7.45574 4.45629 0
M  V30 15372 H 25.8909 5.85864 3.679 0
M  V30 15373 H 25.0229 7.84412 2.24479 0
M  V30 15374 H 22.3679 5.73457 0.888562 0
M  V30 15375 H 22.0879 5.90877 3.88583 0
M  V30 15376 H 21.0969 6.6596 2.58858 0
M  V30 15377 H 22.9309 8.16339 3.92049 0
M  V30 15378 H 22.9719 4.00505 4.3174 0
M  V30 15379 H 22.5909 -0.581337 2.76658 0
M  V30 15380 H 22.4019 -1.30811 1.14888 0
M  V30 15381 H 22.2939 2.08295 -1.75542 0
M  V30 15382 P 21.0599 8.7635 1.60911 0
M  V30 15383 O 20.8399 10.1388 1.11561 0
M  V30 15384 O 20.2699 8.36503 2.79617 0
M  V30 15385 O 20.8099 7.71806 0.42951 0
M  V30 15386 C 21.7499 7.67148 -0.673689 0
M  V30 15387 C 21.0199 7.33374 -1.95559 0
M  V30 15388 O 20.8099 5.88721 -2.00726 0
M  V30 15389 C 19.6199 7.92526 -2.10483 0
M  V30 15390 O 19.2299 8.02971 -3.47653 0
M  V30 15391 C 18.7399 6.89602 -1.41652 0
M  V30 15392 C 19.4499 5.59201 -1.75185 0
M  V30 15393 N 19.3999 4.58235 -0.662552 0
M  V30 15394 H 22.2389 8.65116 -0.777161 0
M  V30 15395 H 22.5109 6.90173 -0.474152 0
M  V30 15396 H 21.6429 7.66548 -2.79458 0
M  V30 15397 P 17.6799 8.03563 -3.84925 0
M  V30 15398 O 17.4599 8.85821 -5.0569 0
M  V30 15399 O 16.8899 8.41101 -2.65469 0
M  V30 15400 O 17.4299 6.4965 -4.18908 0
M  V30 15401 C 18.3699 5.81037 -5.05421 0
M  V30 15402 C 17.6399 4.78366 -5.89277 0
M  V30 15403 O 17.4299 3.58302 -5.08433 0
M  V30 15404 C 16.2399 5.17448 -6.36119 0
M  V30 15405 O 15.8499 4.45271 -7.53232 0
M  V30 15406 C 15.3599 4.74639 -5.19936 0
M  V30 15407 C 16.0699 3.49432 -4.70418 0
M  V30 15408 N 16.0199 3.31776 -3.22945 0
M  V30 15409 H 18.8589 6.54213 -5.71376 0
M  V30 15410 H 19.1309 5.30492 -4.44033 0
M  V30 15411 H 18.2629 4.55889 -6.76652 0
M  V30 15412 P 14.2999 4.23843 -7.83734 0
M  V30 15413 O 14.0799 4.19407 -9.29784 0
M  V30 15414 O 13.5099 5.24426 -7.09156 0
M  V30 15415 O 14.0499 2.7935 -7.20758 0
M  V30 15416 C 14.9899 1.7299 -7.50419 0
M  V30 15417 C 14.2599 0.406376 -7.57911 0
M  V30 15418 O 14.0499 -0.0897726 -6.21935 0
M  V30 15419 C 12.8599 0.447224 -8.1878 0
M  V30 15420 O 12.4699 -0.825065 -8.71101 0
M  V30 15421 C 11.9799 0.783801 -6.99623 0
M  V30 15422 C 12.6899 0.0619192 -5.85967 0
M  V30 15423 N 12.6399 0.790462 -4.56202 0
M  V30 15424 C 12.7199 2.13895 -4.34171 0
M  V30 15425 N 12.6499 2.46449 -3.08687 0
M  V30 15426 C 12.4999 1.2525 -2.43697 0
M  V30 15427 C 12.3699 0.914535 -1.07318 0
M  V30 15428 N 12.3599 1.80782 -0.0887348 0
M  V30 15429 N 12.2499 -0.386745 -0.768133 0
M  V30 15430 C 12.2599 -1.28096 -1.75159 0
M  V30 15431 N 12.3799 -1.09708 -3.04861 0
M  V30 15432 C 12.4999 0.214857 -3.32306 0
M  V30 15433 H 15.4789 1.93423 -8.4679 0
M  V30 15434 H 15.7509 1.68852 -6.70877 0
M  V30 15435 H 14.8829 -0.289041 -8.15388 0
M  V30 15436 H 12.2279 -0.927006 -5.72848 0
M  V30 15437 H 11.9479 1.86973 -6.82036 0
M  V30 15438 H 10.9569 0.403953 -7.13357 0
M  V30 15439 H 12.7909 1.20599 -8.97534 0
M  V30 15440 H 12.8319 2.86846 -5.14318 0
M  V30 15441 H 12.4509 2.81082 -0.302037 0
M  V30 15442 H 12.2619 1.49688 0.889064 0
M  V30 15443 H 12.1539 -2.31317 -1.43855 0
M  V30 15444 P 10.92 -1.17771 -8.83182 0
M  V30 15445 O 10.7 -2.07206 -9.98732 0
M  V30 15446 O 10.13 0.0743816 -8.81969 0
M  V30 15447 O 10.67 -1.97652 -7.47304 0
M  V30 15448 C 11.61 -3.01133 -7.08783 0
M  V30 15449 C 10.88 -4.12613 -6.37049 0
M  V30 15450 O 10.67 -3.72827 -4.97879 0
M  V30 15451 C 9.47996 -4.45085 -6.88694 0
M  V30 15452 O 9.08996 -5.7877 -6.5624 0
M  V30 15453 C 8.59996 -3.47817 -6.12078 0
M  V30 15454 C 9.30996 -3.39414 -4.77697 0
M  V30 15455 N 9.25996 -2.04199 -4.15538 0
M  V30 15456 H 12.099 -3.41248 -7.98759 0
M  V30 15457 H 12.371 -2.57728 -6.42 0
M  V30 15458 H 11.503 -5.02657 -6.42673 0
M  V30 15459 H 8.84796 -4.11708 -4.08956 0
M  V30 15460 H 8.56796 -2.49626 -6.61679 0
M  V30 15461 H 7.57696 -3.8662 -6.00862 0
M  V30 15462 H 9.41096 -4.29991 -7.97006 0
M  V30 15463 P 7.53998 -6.144 -6.45285 0
M  V30 15464 O 7.31998 -7.54673 -6.86199 0
M  V30 15465 O 6.74998 -5.12391 -7.179 0
M  V30 15466 O 7.28998 -5.99158 -4.88404 0
M  V30 15467 C 8.22998 -6.60234 -3.96415 0
M  V30 15468 C 7.49998 -7.08259 -2.72856 0
M  V30 15469 O 7.28998 -5.9427 -1.83651 0
M  V30 15470 C 6.09998 -7.64886 -2.9555 0
M  V30 15471 O 5.70998 -8.53963 -1.90717 0
M  V30 15472 C 5.21998 -6.4116 -2.90739 0
M  V30 15473 C 5.92998 -5.55375 -1.86963 0
M  V30 15474 N 5.87998 -4.09664 -2.15742 0
M  V30 15475 H 8.71898 -7.45574 -4.45629 0
M  V30 15476 H 8.99098 -5.86232 -3.67314 0
M  V30 15477 H 8.12298 -7.84412 -2.24479 0
M  V30 15478 P 4.16 -8.7635 -1.60911 0
M  V30 15479 O 3.94 -10.1388 -1.11561 0
M  V30 15480 O 3.37 -8.36503 -2.79617 0
M  V30 15481 O 3.91 -7.71806 -0.42951 0
M  V30 15482 C 4.85 -7.67148 0.673689 0
M  V30 15483 C 4.12 -7.33374 1.95559 0
M  V30 15484 O 3.91 -5.88721 2.00726 0
M  V30 15485 C 2.72 -7.92526 2.10483 0
M  V30 15486 O 2.33 -8.02971 3.47653 0
M  V30 15487 C 1.84 -6.89602 1.41652 0
M  V30 15488 C 2.55 -5.59201 1.75185 0
M  V30 15489 N 2.5 -4.58235 0.662552 0
M  V30 15490 H 5.339 -8.65116 0.777161 0
M  V30 15491 H 5.611 -6.90173 0.474152 0
M  V30 15492 H 4.743 -7.66548 2.79458 0
M  V30 15493 H 1.613 -8.66322 3.55694 0
M  V30 END ATOM
M  V30 BEGIN BOND
M  V30 END BOND
M  V30 END CTAB
M  END
$$$$
