drugbank_target|P22637 Cholesterol oxidase (DB03147)
 OpenBabel12092119503D

  0  0  0     0  0            999 V3000
M  V30 BEGIN CTAB
M  V30 COUNTS 8315 8401 0 0 0
M  V30 BEGIN ATOM
M  V30 1 H -0.908 1.98254 -0.117106 0
M  V30 2 N 0 1.576 0 0
M  V30 3 C 0.933 2.03868 1.02534 0
M  V30 4 C 1.911 0.928543 1.3348 0
M  V30 5 O 3.095 1.19667 1.45644 0
M  V30 6 C 0.222 2.43627 2.35294 0
M  V30 7 C -0.732 3.65373 2.2001 0
M  V30 8 S 0.101 5.13292 1.52614 0
M  V30 9 C 1.257 5.56322 2.86805 0
M  V30 10 H 1.49 2.90518 0.631377 0
M  V30 11 H -0.977 1.52953 0.210867 0
M  V30 12 H 0.981 2.67203 3.11629 0
M  V30 13 H -0.358 1.57376 2.7183 0
M  V30 14 H -1.165 3.90944 3.18086 0
M  V30 15 H -1.563 3.418 1.51819 0
M  V30 16 H 0.729 5.58782 3.83104 0
M  V30 17 H 1.672 6.56266 2.65933 0
M  V30 18 H 2.08 4.83886 2.90714 0
M  V30 19 N 1.4781 -0.272755 1.55222 0
M  V30 20 C 2.7061 -1.02255 1.79865 0
M  V30 21 C 3.1211 -1.79924 0.572088 0
M  V30 22 O 2.4781 -1.76638 -0.458842 0
M  V30 23 C 2.5291 -1.98094 3.02392 0
M  V30 24 O 2.2501 -1.23572 4.20311 0
M  V30 25 C 3.7511 -2.84884 3.39641 0
M  V30 26 H 0.9711 -0.302057 0.599168 0
M  V30 27 H 3.5151 -0.303465 2.02236 0
M  V30 28 H 1.6701 -2.65465 2.82147 0
M  V30 29 H 2.0841 -1.88172 4.89583 0
M  V30 30 H 3.5581 -3.47927 4.28545 0
M  V30 31 H 4.0351 -3.54665 2.59055 0
M  V30 32 H 4.6411 -2.23003 3.62146 0
M  V30 33 N 2.9562 -1.48159 -0.537278 0
M  V30 34 C 4.2332 -1.46291 -1.29839 0
M  V30 35 C 4.6132 -0.170613 -2.10409 0
M  V30 36 O 3.9612 0.847746 -2.12192 0
M  V30 37 C 4.1712 -2.72055 -2.18603 0
M  V30 38 C 5.5192 -3.20087 -2.7898 0
M  V30 39 O 6.5432 -2.72921 -2.28894 0
M  V30 40 O 5.4022 -4.02138 -3.70064 0
M  V30 41 H 2.4962 -0.583906 -0.585647 0
M  V30 42 H 5.0422 -1.60384 -0.554534 0
M  V30 43 H 3.8142 -3.57628 -1.58801 0
M  V30 44 H 3.4372 -2.60646 -3.00249 0
M  V30 45 N 4.4343 0.785586 -1.36625 0
M  V30 46 C 5.6593 1.57963 -1.34397 0
M  V30 47 C 6.0843 1.87964 0.071526 0
M  V30 48 O 5.4423 1.48182 1.0446 0
M  V30 49 C 5.4903 2.87511 -2.17646 0
M  V30 50 O 4.5943 3.81281 -1.57158 0
M  V30 51 H 3.9353 0.479014 -0.459828 0
M  V30 52 H 6.4653 0.973411 -1.79961 0
M  V30 53 H 6.4753 3.36745 -2.30362 0
M  V30 54 H 5.1503 2.65002 -3.20541 0
M  V30 55 H 3.7273 3.39885 -1.53403 0
M  V30 56 N 5.9124 1.20967 1.01018 0
M  V30 57 C 7.3284 0.965905 1.27053 0
M  V30 58 C 7.5284 -0.350785 1.98423 0
M  V30 59 O 6.5844 -1.07773 2.28344 0
M  V30 60 C 7.8974 2.15294 2.09926 0
M  V30 61 C 9.4454 2.19463 2.23171 0
M  V30 62 C 9.9204 3.3767 3.09424 0
M  V30 63 N 11.4114 3.37724 3.17012 0
M  V30 64 C 12.1464 4.25837 3.83993 0
M  V30 65 N 11.6424 5.24138 4.53047 0
M  V30 66 N 13.4354 4.1366 3.80581 0
M  V30 67 H 5.5864 2.0565 0.531194 0
M  V30 68 H 7.8494 0.90024 0.297106 0
M  V30 69 H 7.5554 3.10684 1.64828 0
M  V30 70 H 7.4294 2.13923 3.10672 0
M  V30 71 H 9.8164 1.24632 2.6749 0
M  V30 72 H 9.8974 2.2488 1.21912 0
M  V30 73 H 9.5414 4.32791 2.65808 0
M  V30 74 H 9.4714 3.29491 4.10784 0
M  V30 75 H 11.9624 2.6658 2.6785 0
M  V30 76 H 12.2754 5.87684 5.01844 0
M  V30 77 H 10.6204 5.28068 4.5185 0
M  V30 78 H 13.8114 3.36127 3.25785 0
M  V30 79 H 13.9844 4.82538 4.32505 0
M  V30 80 N 7.3905 -1.2043 1.01659 0
M  V30 81 C 8.3535 -2.21433 0.591616 0
M  V30 82 C 9.3535 -1.57203 -0.338226 0
M  V30 83 O 10.5435 -1.73737 -0.126918 0
M  V30 84 C 7.6755 -3.40628 -0.136058 0
M  V30 85 H 8.8685 -2.60545 1.48514 0
M  V30 86 H 6.4215 -1.33893 0.806379 0
M  V30 87 H 7.1565 -3.07019 -1.04449 0
M  V30 88 H 6.9415 -3.88475 0.531917 0
M  V30 89 H 8.4315 -4.15475 -0.420735 0
M  V30 90 N 8.8686 -0.792821 -1.36206 0
M  V30 91 C 9.8166 -0.181555 -2.3189 0
M  V30 92 C 10.8106 0.661025 -1.55971 0
M  V30 93 O 12.0166 0.555728 -1.71206 0
M  V30 94 H 8.3916 -0.0399382 -0.750939 0
M  V30 95 H 10.3626 -1.00394 -2.81005 0
M  V30 96 C 9.1116 0.666444 -3.41253 0
M  V30 97 H 8.4346 0.0274489 -3.99791 0
M  V30 98 H 9.8746 1.06076 -4.10517 0
M  V30 99 C 8.3336 1.82614 -2.83114 0
M  V30 100 O 8.8636 2.9229 -2.75553 0
M  V30 101 N 7.0696 1.63333 -2.40356 0
M  V30 102 H 6.6166 0.741217 -2.46706 0
M  V30 103 H 6.5746 2.41087 -2.01803 0
M  V30 104 N 10.3467 1.47872 -0.545128 0
M  V30 105 C 11.7627 1.5829 -0.204032 0
M  V30 106 C 11.9627 1.54529 1.29317 0
M  V30 107 O 11.0187 1.44232 2.07252 0
M  V30 108 C 12.3317 2.89304 -0.819987 0
M  V30 109 C 13.8797 3.02864 -0.790105 0
M  V30 110 C 14.3547 4.3656 -1.38491 0
M  V30 111 N 15.8457 4.43165 -1.34755 0
M  V30 112 C 16.5807 5.45153 -1.77753 0
M  V30 113 N 16.0767 6.54016 -2.2855 0
M  V30 114 N 17.8697 5.36125 -1.68897 0
M  V30 115 H 10.0207 1.4856 -1.51802 0
M  V30 116 H 12.2837 0.706305 -0.632327 0
M  V30 117 H 11.9897 2.97757 -1.87173 0
M  V30 118 H 11.8637 3.75957 -0.305915 0
M  V30 119 H 14.2507 2.94014 0.252913 0
M  V30 120 H 14.3317 2.17782 -1.34181 0
M  V30 121 H 13.9757 4.46164 -2.42693 0
M  V30 122 H 13.9057 5.20353 -0.808754 0
M  V30 123 H 16.3967 3.65083 -0.975855 0
M  V30 124 H 16.7097 7.27994 -2.59314 0
M  V30 125 H 15.0547 6.54938 -2.32553 0
M  V30 126 H 18.2457 4.49975 -1.28998 0
M  V30 127 H 18.4187 6.15472 -2.02726 0
M  V30 128 N 11.8248 0.280983 1.55075 0
M  V30 129 C 12.7878 -0.590896 2.21452 0
M  V30 130 C 13.7878 -1.07682 1.19421 0
M  V30 131 O 14.9778 -0.97605 1.44288 0
M  V30 132 C 12.1098 -1.81587 2.88511 0
M  V30 133 H 13.3028 -0.0112554 2.99898 0
M  V30 134 H 10.8558 0.0316438 1.56268 0
M  V30 135 H 11.5908 -2.43587 2.14093 0
M  V30 136 H 11.3758 -1.4753 3.63287 0
M  V30 137 H 12.8658 -2.43575 3.39206 0
M  V30 138 N 13.3029 -1.57598 0.00835791 0
M  V30 139 C 14.5799 -1.82172 -0.712235 0
M  V30 140 C 14.9599 -0.887873 -1.9152 0
M  V30 141 O 14.3079 0.06146 -2.28417 0
M  V30 142 C 14.5179 -3.30875 -1.11008 0
M  V30 143 C 15.8659 -3.96826 -1.51044 0
M  V30 144 O 16.8899 -3.35248 -1.20364 0
M  V30 145 O 15.7489 -5.05318 -2.08125 0
M  V30 146 H 12.8429 -0.750435 -0.347529 0
M  V30 147 H 15.3889 -1.69665 0.0344523 0
M  V30 148 H 14.1609 -3.90481 -0.252982 0
M  V30 149 H 13.7839 -3.48412 -1.9156 0
M  V30 150 N 14.781 0.264519 -1.55364 0
M  V30 151 C 15.744 1.31046 -1.88042 0
M  V30 152 C 16.744 1.41943 -0.755569 0
M  V30 153 O 17.934 1.40947 -1.02369 0
M  V30 154 C 15.066 2.69067 -2.09323 0
M  V30 155 H 16.259 1.03297 -2.81549 0
M  V30 156 H 13.812 0.502989 -1.47986 0
M  V30 157 H 14.547 3.01982 -1.18226 0
M  V30 158 H 14.332 2.62542 -2.91229 0
M  V30 159 H 15.822 3.44623 -2.35848 0
M  V30 160 N 16.2591 1.48442 0.529413 0
M  V30 161 C 17.4871 1.60151 1.30994 0
M  V30 162 C 17.9021 0.261985 1.86973 0
M  V30 163 O 17.2591 -0.748805 1.66431 0
M  V30 164 C 17.3101 2.64854 2.46038 0
M  V30 165 O 17.0311 3.93608 1.92365 0
M  V30 166 C 18.5321 2.87007 3.37849 0
M  V30 167 H 15.7521 0.539971 0.398338 0
M  V30 168 H 18.2961 1.94273 0.638597 0
M  V30 169 H 16.4511 2.33589 3.09055 0
M  V30 170 H 16.8651 4.51055 2.67675 0
M  V30 171 H 18.3391 3.64068 4.14919 0
M  V30 172 H 18.8161 1.95852 3.93114 0
M  V30 173 H 19.4221 3.19579 2.80623 0
M  V30 174 N 17.7372 -0.778329 1.37039 0
M  V30 175 C 19.1532 -1.07796 1.17695 0
M  V30 176 C 19.3532 -2.01498 0.00860115 0
M  V30 177 O 18.4092 -2.43901 -0.653352 0
M  V30 178 C 19.7222 -1.68178 2.49272 0
M  V30 179 C 21.2702 -1.80467 2.55735 0
M  V30 180 C 21.7452 -2.44263 3.87427 0
M  V30 181 N 23.2362 -2.51721 3.88833 0
M  V30 182 C 23.9712 -3.01919 4.87476 0
M  V30 183 N 23.4672 -3.5234 5.96513 0
M  V30 184 N 25.2602 -3.00733 4.74885 0
M  V30 185 H 17.4112 -0.156032 2.11826 0
M  V30 186 H 19.6742 -0.131844 0.938787 0
M  V30 187 H 19.3802 -1.06796 3.35093 0
M  V30 188 H 19.2542 -2.67554 2.65885 0
M  V30 189 H 21.6412 -2.40984 1.70325 0
M  V30 190 H 21.7222 -0.798656 2.43013 0
M  V30 191 H 21.3662 -1.84388 4.73248 0
M  V30 192 H 21.2962 -3.45458 3.9745 0
M  V30 193 H 23.7872 -2.1603 3.10063 0
M  V30 194 H 24.1002 -3.89027 6.67741 0
M  V30 195 H 22.4452 -3.50462 6.00168 0
M  V30 196 H 25.6362 -2.60638 3.88826 0
M  V30 197 H 25.8092 -3.39545 5.51918 0
M  V30 198 N 19.2153 -1.21501 -1.00376 0
M  V30 199 C 20.4633 -1.03095 -1.73827 0
M  V30 200 C 20.7843 0.436341 -1.90055 0
M  V30 201 O 20.0543 1.31466 -1.45236 0
M  V30 202 H 18.6343 -0.378487 -0.644016 0
M  V30 203 H 21.2963 -1.52831 -1.20949 0
M  V30 204 H 20.3923 -1.49991 -2.73695 0
M  V30 205 N 20.6934 1.19889 -1.02296 0
M  V30 206 C 21.9394 1.89701 -0.717033 0
M  V30 207 C 22.2724 1.7905 0.751989 0
M  V30 208 O 21.5474 1.17891 1.547 0
M  V30 209 C 21.8304 3.40858 -1.16136 0
M  V30 210 C 21.6834 3.60411 -2.69117 0
M  V30 211 C 23.0024 4.33876 -0.737549 0
M  V30 212 H 20.1214 0.688874 -0.261957 0
M  V30 213 H 22.7634 1.41154 -1.27183 0
M  V30 214 H 20.9134 3.82335 -0.689342 0
M  V30 215 H 22.5854 3.28145 -3.2422 0
M  V30 216 H 20.8284 3.03665 -3.0979 0
M  V30 217 H 21.4994 4.66396 -2.95261 0
M  V30 218 H 23.9754 4.00081 -1.14344 0
M  V30 219 H 22.8514 5.38242 -1.0764 0
M  V30 220 H 23.1124 4.40628 0.360436 0
M  V30 221 N 22.1715 0.800033 1.35784 0
M  V30 222 C 23.1345 0.211565 2.28221 0
M  V30 223 C 24.1345 -0.59728 1.49296 0
M  V30 224 O 25.3245 -0.416721 1.69142 0
M  V30 225 C 22.4565 -0.705846 3.33513 0
M  V30 226 H 23.6495 1.02677 2.81776 0
M  V30 227 H 21.2025 0.570211 1.45528 0
M  V30 228 H 21.9375 -1.54498 2.85133 0
M  V30 229 H 21.7225 -0.127655 3.91892 0
M  V30 230 H 23.2125 -1.11211 4.02519 0
M  V30 231 N 23.6496 -1.47581 0.552962 0
M  V30 232 C 24.8746 -2.07378 0.0300593 0
M  V30 233 C 25.2996 -1.40355 -1.25229 0
M  V30 234 O 24.6576 -0.477099 -1.7491 0
M  V30 235 C 24.7056 -3.60274 -0.153231 0
M  V30 236 O 23.8096 -3.94041 -1.21678 0
M  V30 237 H 23.1506 -0.662158 0.0494182 0
M  V30 238 H 25.6806 -1.89662 0.767434 0
M  V30 239 H 25.6906 -4.0633 -0.368761 0
M  V30 240 H 24.3656 -4.08455 0.783397 0
M  V30 241 H 22.9426 -3.59735 -0.982079 0
M  V30 242 N 25.1277 -0.289203 -1.54924 0
M  V30 243 C 26.3737 0.323998 -2.00195 0
M  V30 244 C 26.7067 1.54441 -1.17735 0
M  V30 245 O 25.9817 1.92875 -0.250878 0
M  V30 246 C 26.2647 0.692276 -3.53383 0
M  V30 247 C 26.1177 -0.536457 -4.46589 0
M  V30 248 C 27.4367 1.52335 -4.12895 0
M  V30 249 H 24.5557 0.116289 -0.727768 0
M  V30 250 H 27.1977 -0.398954 -1.85764 0
M  V30 251 H 25.3477 1.30822 -3.65811 0
M  V30 252 H 27.0197 -1.17499 -4.46085 0
M  V30 253 H 25.2627 -1.17192 -4.1767 0
M  V30 254 H 25.9337 -0.234806 -5.515 0
M  V30 255 H 28.4097 1.00302 -4.0383 0
M  V30 256 H 27.2857 1.74982 -5.20262 0
M  V30 257 H 27.5467 2.50886 -3.64018 0
M  V30 258 N 26.6058 1.57591 -0.0167156 0
M  V30 259 C 27.8308 1.9598 0.67872 0
M  V30 260 C 28.2558 0.892546 1.65575 0
M  V30 261 O 27.6138 -0.147772 1.80697 0
M  V30 262 C 27.6618 3.33468 1.37227 0
M  V30 263 O 26.7658 3.28954 2.48722 0
M  V30 264 H 26.1068 0.639339 0.17928 0
M  V30 265 H 28.6368 2.04463 -0.0748802 0
M  V30 266 H 28.6468 3.69417 1.7319 0
M  V30 267 H 27.3218 4.10694 0.656007 0
M  V30 268 H 25.8988 3.04705 2.14963 0
M  V30 269 N 28.0839 -0.256276 1.55502 0
M  V30 270 C 29.4999 -0.604325 1.47716 0
M  V30 271 C 29.6999 -1.88763 0.705039 0
M  V30 272 O 28.7559 -2.51445 0.230613 0
M  V30 273 C 30.0689 -0.715756 2.92057 0
M  V30 274 C 31.6169 -0.808706 3.02372 0
M  V30 275 C 32.0919 -0.951777 4.48001 0
M  V30 276 N 33.5829 -1.01688 4.519 0
M  V30 277 C 34.3179 -1.14668 5.61817 0
M  V30 278 N 33.8139 -1.24261 6.81565 0
M  V30 279 N 35.6069 -1.1791 5.49594 0
M  V30 280 H 27.7579 0.586291 2.04148 0
M  V30 281 H 30.0209 0.201015 0.926443 0
M  V30 282 H 29.7269 0.157027 3.51349 0
M  V30 283 H 29.6009 -1.59071 3.42018 0
M  V30 284 H 31.9879 -1.67195 2.43166 0
M  V30 285 H 32.0689 0.0912063 2.55637 0
M  V30 286 H 31.7129 -0.0931291 5.07815 0
M  V30 287 H 31.6429 -1.86659 4.92408 0
M  V30 288 H 34.1339 -0.954468 3.65648 0
M  V30 289 H 34.4469 -1.34046 7.61086 0
M  V30 290 H 32.7919 -1.21236 6.84344 0
M  V30 291 H 35.9829 -1.10057 4.54978 0
M  V30 292 H 36.1559 -1.27681 6.35296 0
M  V30 293 N 29.562 -1.4872 -0.521534 0
M  V30 294 C 30.978 -1.35028 -0.850855 0
M  V30 295 C 31.178 -0.367712 -1.98116 0
M  V30 296 O 30.234 0.208037 -2.51642 0
M  V30 297 C 31.547 -2.75263 -1.21041 0
M  V30 298 C 33.095 -2.83813 -1.31981 0
M  V30 299 C 33.57 -4.24769 -1.71276 0
M  V30 300 N 35.061 -4.27482 -1.78363 0
M  V30 301 C 35.796 -5.33494 -2.1017 0
M  V30 302 N 35.292 -6.49775 -2.40343 0
M  V30 303 N 37.085 -5.20894 -2.11248 0
M  V30 304 H 29.236 -2.11214 0.22413 0
M  V30 305 H 31.499 -0.947252 0.0376439 0
M  V30 306 H 31.205 -3.48765 -0.453415 0
M  V30 307 H 31.079 -3.09327 -2.15863 0
M  V30 308 H 33.466 -2.10561 -2.06756 0
M  V30 309 H 33.547 -2.53358 -0.352596 0
M  V30 310 H 33.191 -4.9854 -0.970588 0
M  V30 311 H 33.121 -4.52673 -2.69062 0
M  V30 312 H 35.612 -3.43611 -1.57288 0
M  V30 313 H 35.925 -7.26402 -2.63743 0
M  V30 314 H 34.27 -6.53035 -2.37844 0
M  V30 315 H 37.461 -4.29065 -1.87139 0
M  V30 316 H 37.634 -6.03612 -2.35704 0
M  V30 317 N 31.0401 0.771051 -1.3745 0
M  V30 318 C 32.4561 1.07171 -1.18265 0
M  V30 319 C 32.6561 2.01491 -0.019287 0
M  V30 320 O 31.7121 2.44244 0.640408 0
M  V30 321 C 33.0251 1.66854 -2.50161 0
M  V30 322 C 34.5731 1.79109 -2.56689 0
M  V30 323 C 35.0481 2.42205 -3.88717 0
M  V30 324 N 36.5391 2.49655 -3.90162 0
M  V30 325 C 37.2741 2.9933 -4.8907 0
M  V30 326 N 36.7701 3.49172 -5.98374 0
M  V30 327 N 38.5631 2.9821 -4.76474 0
M  V30 328 H 30.7141 0.144796 -2.11906 0
M  V30 329 H 32.9771 0.126863 -0.939473 0
M  V30 330 H 32.6831 1.05017 -3.35655 0
M  V30 331 H 32.5571 2.6614 -2.673 0
M  V30 332 H 34.9441 2.40077 -1.71601 0
M  V30 333 H 35.0251 0.785757 -2.43433 0
M  V30 334 H 34.6691 1.81875 -4.74219 0
M  V30 335 H 34.5991 3.43345 -3.99276 0
M  V30 336 H 37.0901 2.14383 -3.11205 0
M  V30 337 H 37.4031 3.8548 -6.69795 0
M  V30 338 H 35.7481 3.47275 -6.02018 0
M  V30 339 H 38.9391 2.58572 -3.90203 0
M  V30 340 H 39.1121 3.36613 -5.53711 0
M  V30 341 N 32.5182 1.22032 0.997298 0
M  V30 342 C 33.7652 1.04222 1.73621 0
M  V30 343 C 34.0932 -0.423264 1.89839 0
M  V30 344 O 33.3482 -1.3302 1.43542 0
M  V30 345 C 33.6472 1.69345 3.14733 0
M  V30 346 C 33.3132 3.19226 3.18442 0
M  V30 347 C 31.9752 3.60124 3.19161 0
M  V30 348 C 34.3272 4.15181 3.15078 0
M  V30 349 C 31.6552 4.95467 3.14212 0
M  V30 350 C 34.0072 5.50495 3.1167 0
M  V30 351 C 32.6712 5.90779 3.10703 0
M  V30 352 H 31.9412 0.381374 0.635323 0
M  V30 353 H 34.5882 1.51732 1.16831 0
M  V30 354 H 32.8932 1.14147 3.74803 0
M  V30 355 H 34.5902 1.53059 3.7064 0
M  V30 356 H 31.1802 2.86659 3.18629 0
M  V30 357 H 35.3642 3.84605 3.13676 0
M  V30 358 H 30.6202 5.25916 3.11805 0
M  V30 359 H 34.7942 6.24576 3.08022 0
M  V30 360 H 32.4212 6.9562 3.06622 0
M  V30 361 N 33.9963 -1.19345 1.0293 0
M  V30 362 C 34.9263 -2.2481 0.631105 0
M  V30 363 C 35.9073 -1.66245 -0.360104 0
M  V30 364 O 37.0923 -1.92677 -0.242726 0
M  V30 365 C 34.2223 -3.47295 -0.0184607 0
M  V30 366 C 33.1763 -4.18536 0.895073 0
M  V30 367 C 32.5023 -5.34586 0.110592 0
M  V30 368 C 33.8023 -4.73287 2.209 0
M  V30 369 H 35.4963 -2.58372 1.51275 0
M  V30 370 H 33.0423 -1.24194 0.728818 0
M  V30 371 H 34.9953 -4.20268 -0.308675 0
M  V30 372 H 33.7193 -3.12933 -0.934907 0
M  V30 373 H 32.3783 -3.47446 1.16949 0
M  V30 374 H 32.0263 -4.96469 -0.807902 0
M  V30 375 H 31.7263 -5.83183 0.719087 0
M  V30 376 H 33.2503 -6.10355 -0.172871 0
M  V30 377 H 34.6643 -5.38013 1.98028 0
M  V30 378 H 33.0613 -5.32373 2.76946 0
M  V30 379 H 34.1313 -3.91331 2.86336 0
M  V30 380 N 35.4744 -0.807222 -1.35358 0
M  V30 381 C 36.4374 -0.223665 -2.28106 0
M  V30 382 C 37.4374 0.589354 -1.4961 0
M  V30 383 O 38.6274 0.407745 -1.69361 0
M  V30 384 C 35.7594 0.688149 -3.33882 0
M  V30 385 H 36.9524 -1.04169 -2.81227 0
M  V30 386 H 34.5054 -0.577921 -1.45223 0
M  V30 387 H 35.2404 1.52984 -2.85948 0
M  V30 388 H 35.0254 0.10687 -3.91954 0
M  V30 389 H 36.5154 1.09075 -4.03104 0
M  V30 390 N 36.9525 1.47285 -0.560781 0
M  V30 391 C 38.2005 2.02064 -0.0379868 0
M  V30 392 C 38.5215 1.43711 1.31803 0
M  V30 393 O 37.7915 0.61362 1.86042 0
M  V30 394 H 36.3715 0.746918 -0.0110531 0
M  V30 395 H 39.0335 1.80648 -0.731598 0
M  V30 396 H 38.1295 3.12064 0.0474463 0
M  V30 397 N 38.4306 0.297415 1.54768 0
M  V30 398 C 39.3936 -0.567375 2.22066 0
M  V30 399 C 40.3936 -1.06409 1.20556 0
M  V30 400 O 41.5836 -0.960691 1.45315 0
M  V30 401 C 38.7156 -1.78517 2.90421 0
M  V30 402 H 39.9086 0.0205534 2.99893 0
M  V30 403 H 37.4616 0.0482163 1.56226 0
M  V30 404 H 38.1966 -2.41303 2.16664 0
M  V30 405 H 37.9816 -1.43669 3.64831 0
M  V30 406 H 39.4716 -2.39964 3.41771 0
M  V30 407 N 39.9087 -1.5758 0.0250728 0
M  V30 408 C 41.1567 -1.91255 -0.653151 0
M  V30 409 C 41.4777 -0.901691 -1.729 0
M  V30 410 O 40.7477 0.0573785 -1.95816 0
M  V30 411 H 39.3277 -0.705942 -0.244243 0
M  V30 412 H 41.9897 -1.94767 0.0719209 0
M  V30 413 H 41.0857 -2.91752 -1.10847 0
M  V30 414 N 41.3868 0.248026 -1.55636 0
M  V30 415 C 42.3168 1.31079 -1.93237 0
M  V30 416 C 43.2978 1.50264 -0.797174 0
M  V30 417 O 44.4828 1.62891 -1.05737 0
M  V30 418 C 41.6128 2.66575 -2.22609 0
M  V30 419 C 40.5668 2.62087 -3.3837 0
M  V30 420 C 39.8928 4.01369 -3.53281 0
M  V30 421 C 41.1928 2.19171 -4.7409 0
M  V30 422 H 42.8868 0.998556 -2.82257 0
M  V30 423 H 40.4328 0.47891 -1.35803 0
M  V30 424 H 42.3858 3.41057 -2.47503 0
M  V30 425 H 41.1098 2.99432 -1.30414 0
M  V30 426 H 39.7688 1.90063 -3.13483 0
M  V30 427 H 39.4168 4.31489 -2.58508 0
M  V30 428 H 39.1168 3.99254 -4.31127 0
M  V30 429 H 40.6408 4.77552 -3.80495 0
M  V30 430 H 42.0548 2.83384 -4.98363 0
M  V30 431 H 40.4518 2.2817 -5.5503 0
M  V30 432 H 41.5218 1.14336 -4.71227 0
M  V30 433 N 42.8649 1.48995 0.513639 0
M  V30 434 C 44.0929 1.61531 1.29288 0
M  V30 435 C 44.5079 0.281801 1.86685 0
M  V30 436 O 43.8649 -0.731111 1.67215 0
M  V30 437 C 43.9159 2.67449 2.43215 0
M  V30 438 O 43.6369 3.95626 1.88179 0
M  V30 439 C 45.1379 2.90575 3.34785 0
M  V30 440 H 42.3579 0.544165 0.392588 0
M  V30 441 H 44.9019 1.9494 0.617956 0
M  V30 442 H 43.0569 2.36853 3.0656 0
M  V30 443 H 43.4709 4.53868 2.62876 0
M  V30 444 H 44.9449 3.68449 4.11035 0
M  V30 445 H 45.4219 2.00011 3.91015 0
M  V30 446 H 46.0279 3.22538 2.77218 0
M  V30 447 N 44.343 -0.763751 1.37857 0
M  V30 448 C 45.306 -1.85889 1.34081 0
M  V30 449 C 46.306 -1.58949 0.243277 0
M  V30 450 O 47.496 -1.66882 0.499589 0
M  V30 451 C 44.628 -3.23176 1.08489 0
M  V30 452 H 45.821 -1.90648 2.31502 0
M  V30 453 H 43.374 -0.964367 1.23003 0
M  V30 454 H 44.109 -3.24091 0.116318 0
M  V30 455 H 43.894 -3.44124 1.8794 0
M  V30 456 H 45.384 -4.03254 1.08517 0
M  V30 457 N 45.8211 -1.22559 -0.990812 0
M  V30 458 C 47.0691 -1.04933 -1.72724 0
M  V30 459 C 47.3901 0.416158 -1.90508 0
M  V30 460 O 46.6601 1.29918 -1.46622 0
M  V30 461 H 45.2401 -0.385296 -0.639965 0
M  V30 462 H 47.9021 -1.54105 -1.19322 0
M  V30 463 H 46.9981 -1.52886 -2.72089 0
M  V30 464 N 47.2992 1.18797 -1.03562 0
M  V30 465 C 48.2622 2.20464 -0.626769 0
M  V30 466 C 49.2622 1.57721 0.313173 0
M  V30 467 O 50.4522 1.73917 0.0992615 0
M  V30 468 C 47.5842 3.40802 0.0818498 0
M  V30 469 H 48.7772 2.58149 -1.5264 0
M  V30 470 H 46.3302 1.32593 -0.827578 0
M  V30 471 H 47.0652 3.08642 0.995518 0
M  V30 472 H 46.8502 3.8758 -0.593652 0
M  V30 473 H 48.3402 4.16092 0.354584 0
M  V30 474 N 48.7773 0.814389 1.34928 0
M  V30 475 C 50.0263 0.394871 1.97797 0
M  V30 476 C 50.3393 -1.04555 1.65311 0
M  V30 477 O 51.5453 -1.56856 2.21604 0
M  V30 478 C 50.0013 0.655103 3.53888 0
M  V30 479 C 49.6093 2.10858 3.95276 0
M  V30 480 C 51.3533 0.301329 4.23429 0
M  V30 481 C 49.2603 2.31415 5.44244 0
M  V30 482 H 48.1903 0.143913 0.740139 0
M  V30 483 H 50.8413 0.999544 1.53888 0
M  V30 484 H 49.2233 -0.0196253 3.95995 0
M  V30 485 H 50.3973 2.82176 3.64298 0
M  V30 486 H 48.7123 2.42297 3.38646 0
M  V30 487 H 51.3093 0.432869 5.32945 0
M  V30 488 H 51.6523 -0.75331 4.09428 0
M  V30 489 H 52.1853 0.930288 3.86769 0
M  V30 490 H 48.9243 3.35353 5.63222 0
M  V30 491 H 48.4443 1.6463 5.76764 0
M  V30 492 H 50.1233 2.13352 6.10811 0
M  V30 493 N 50.2554 -1.46986 0.568584 0
M  V30 494 C 51.2184 -2.28624 -0.162366 0
M  V30 495 C 52.2184 -1.37596 -0.832103 0
M  V30 496 O 53.4084 -1.60115 -0.68622 0
M  V30 497 C 50.5404 -3.17596 -1.23878 0
M  V30 498 H 51.7334 -2.94722 0.554899 0
M  V30 499 H 49.2864 -1.52863 0.325976 0
M  V30 500 H 50.0214 -2.56214 -1.98808 0
M  V30 501 H 49.8064 -3.846 -0.763219 0
M  V30 502 H 51.2964 -3.79078 -1.75185 0
M  V30 503 N 51.7335 -0.305618 -1.54608 0
M  V30 504 C 52.6635 0.561482 -2.26649 0
M  V30 505 C 53.6445 1.13415 -1.26772 0
M  V30 506 O 54.8295 1.16262 -1.55553 0
M  V30 507 C 51.9595 1.73122 -3.01075 0
M  V30 508 C 50.9135 1.2887 -4.08138 0
M  V30 509 C 50.2395 2.54396 -4.70305 0
M  V30 510 C 51.5395 0.416578 -5.20636 0
M  V30 511 H 53.2335 -0.0393902 -2.99374 0
M  V30 512 H 50.7795 -0.020385 -1.43986 0
M  V30 513 H 52.7325 2.34396 -3.50195 0
M  V30 514 H 51.4565 2.3584 -2.25936 0
M  V30 515 H 50.1155 0.698991 -3.59875 0
M  V30 516 H 49.7635 3.15439 -3.918 0
M  V30 517 H 49.4635 2.25486 -5.42614 0
M  V30 518 H 50.9875 3.16464 -5.2219 0
M  V30 519 H 52.4015 0.935116 -5.65622 0
M  V30 520 H 50.7985 0.221046 -5.99693 0
M  V30 521 H 51.8685 -0.557162 -4.81688 0
M  V30 522 N 53.2116 1.57565 -0.0334293 0
M  V30 523 C 54.4366 1.96689 0.657895 0
M  V30 524 C 54.8616 0.910057 1.64619 0
M  V30 525 O 54.2196 -0.128598 1.80843 0
M  V30 526 C 54.2676 3.34905 1.33683 0
M  V30 527 O 53.3716 3.31574 2.45219 0
M  V30 528 H 52.7126 0.641205 0.172489 0
M  V30 529 H 55.2426 2.04372 -0.0965621 0
M  V30 530 H 55.2526 3.71234 1.69262 0
M  V30 531 H 53.9276 4.11366 0.612411 0
M  V30 532 H 52.5046 3.06968 2.11719 0
M  V30 533 N 54.6897 -0.239769 1.55765 0
M  V30 534 C 55.9147 -0.988373 1.82335 0
M  V30 535 C 56.3397 -1.77886 0.611421 0
M  V30 536 O 55.6977 -1.75889 -0.439639 0
M  V30 537 C 55.7457 -1.89627 3.06715 0
M  V30 538 O 54.8497 -2.98904 2.84131 0
M  V30 539 H 54.1907 -0.280858 0.601677 0
M  V30 540 H 56.7207 -0.258597 2.02959 0
M  V30 541 H 56.7307 -2.30957 3.36338 0
M  V30 542 H 55.4057 -1.31511 3.9456 0
M  V30 543 H 53.9827 -2.61651 2.65694 0
M  V30 544 N 56.1678 -1.49265 -0.50573 0
M  V30 545 C 57.1008 -1.60183 -1.62532 0
M  V30 546 C 58.0788 -0.451107 -1.56217 0
M  V30 547 O 59.2628 -0.666016 -1.76342 0
M  V30 548 C 56.3898 -1.55238 -3.01029 0
M  V30 549 C 55.4358 -2.7545 -3.25621 0
M  V30 550 S 56.2688 -4.37174 -3.09256 0
M  V30 551 C 57.4248 -4.34866 -4.50158 0
M  V30 552 H 57.6578 -2.54894 -1.53025 0
M  V30 553 H 55.1908 -1.38098 -0.690535 0
M  V30 554 H 57.1488 -1.53071 -3.80893 0
M  V30 555 H 55.8098 -0.618238 -3.07956 0
M  V30 556 H 55.0028 -2.68197 -4.26716 0
M  V30 557 H 54.6048 -2.75005 -2.53472 0
M  V30 558 H 56.8968 -4.06295 -5.42154 0
M  V30 559 H 57.8398 -5.36223 -4.62462 0
M  V30 560 H 58.2478 -3.65007 -4.30616 0
M  V30 561 N 57.6459 0.756429 -1.3826 0
M  V30 562 C 58.8709 1.55077 -1.37717 0
M  V30 563 C 59.2959 1.88073 0.03164 0
M  V30 564 O 58.6539 1.50364 1.01293 0
M  V30 565 C 58.7019 2.8283 -2.23695 0
M  V30 566 O 57.8059 3.77862 -1.6521 0
M  V30 567 H 57.1469 0.469152 -0.469885 0
M  V30 568 H 59.6769 0.935019 -1.81985 0
M  V30 569 H 59.6869 3.31783 -2.37453 0
M  V30 570 H 58.3619 2.58144 -3.2609 0
M  V30 571 H 56.9389 3.36555 -1.60578 0
M  V30 572 N 59.124 1.23083 0.984299 0
M  V30 573 C 60.352 1.08714 1.76037 0
M  V30 574 C 60.767 -0.361691 1.85303 0
M  V30 575 O 60.124 -1.25034 1.32939 0
M  V30 576 C 60.175 1.70206 3.18923 0
M  V30 577 O 59.896 3.09423 3.10144 0
M  V30 578 C 61.397 1.61227 4.12941 0
M  V30 579 H 58.617 0.380664 0.552572 0
M  V30 580 H 61.161 1.62853 1.23689 0
M  V30 581 H 59.316 1.20109 3.6831 0
M  V30 582 H 59.73 3.39188 4.00065 0
M  V30 583 H 61.204 2.08962 5.10919 0
M  V30 584 H 61.681 0.570375 4.35481 0
M  V30 585 H 62.287 2.10671 3.69456 0
M  V30 586 N 60.6021 -1.18246 1.0419 0
M  V30 587 C 61.8271 -1.92736 0.765996 0
M  V30 588 C 62.2521 -1.75728 -0.67091 0
M  V30 589 O 61.6101 -1.06825 -1.46486 0
M  V30 590 C 61.6581 -3.42148 1.13875 0
M  V30 591 O 60.7621 -4.11548 0.264954 0
M  V30 592 H 60.1031 -0.601238 0.281797 0
M  V30 593 H 62.6331 -1.49942 1.39207 0
M  V30 594 H 62.6431 -3.92858 1.1012 0
M  V30 595 H 61.3181 -3.53848 2.18551 0
M  V30 596 H 59.8951 -3.71137 0.362226 0
M  V30 597 N 62.0802 -0.821533 -1.34494 0
M  V30 598 C 63.0432 -0.247847 -2.27856 0
M  V30 599 C 64.0432 0.573453 -1.50227 0
M  V30 600 O 65.2332 0.389759 -1.69784 0
M  V30 601 C 62.3652 0.652698 -3.34593 0
M  V30 602 H 63.5582 -1.07146 -2.80107 0
M  V30 603 H 61.1112 -0.593291 -1.44602 0
M  V30 604 H 61.8462 1.49943 -2.87555 0
M  V30 605 H 61.6312 0.065292 -3.92046 0
M  V30 606 H 63.1212 1.04793 -4.04238 0
M  V30 607 N 63.5583 1.46682 -0.576371 0
M  V30 608 C 64.7833 2.07304 -0.0630475 0
M  V30 609 C 65.2083 1.42329 1.2298 0
M  V30 610 O 64.5663 0.504865 1.74129 0
M  V30 611 C 64.6143 3.60472 0.095895 0
M  V30 612 O 63.7183 3.95927 1.15394 0
M  V30 613 H 63.0593 0.661288 -0.0599463 0
M  V30 614 H 65.5893 1.88417 -0.797511 0
M  V30 615 H 65.5993 4.06865 0.304071 0
M  V30 616 H 64.2743 4.07157 -0.84828 0
M  V30 617 H 62.8513 3.61252 0.924724 0
M  V30 618 N 65.0364 0.313813 1.54444 0
M  V30 619 C 65.9994 -0.54379 2.22656 0
M  V30 620 C 66.9994 -1.05124 1.21678 0
M  V30 621 O 68.1894 -0.945225 1.46325 0
M  V30 622 C 65.3214 -1.75427 2.92298 0
M  V30 623 H 66.5144 0.0523599 2.99854 0
M  V30 624 H 64.0674 0.0647834 1.56166 0
M  V30 625 H 64.8024 -2.38991 2.19211 0
M  V30 626 H 64.5874 -1.39791 3.66334 0
M  V30 627 H 66.0774 -2.36325 3.44297 0
M  V30 628 N 66.5145 -1.57545 0.0417849 0
M  V30 629 C 67.4775 -2.09885 -0.92093 0
M  V30 630 C 68.4775 -1.01648 -1.24596 0
M  V30 631 O 69.6675 -1.27759 -1.1842 0
M  V30 632 C 66.7995 -2.57527 -2.23367 0
M  V30 633 H 67.9925 -2.96236 -0.467382 0
M  V30 634 H 65.5455 -1.5493 -0.206467 0
M  V30 635 H 66.2805 -1.74542 -2.73323 0
M  V30 636 H 66.0655 -3.36613 -2.01083 0
M  V30 637 H 67.5555 -2.98201 -2.92346 0
M  V30 638 N 67.9926 0.231505 -1.5589 0
M  V30 639 C 69.4036 0.799327 -1.68724 0
M  V30 640 C 69.7546 1.85398 -0.642022 0
M  V30 641 O 68.8796 2.1539 0.208784 0
M  V30 642 C 69.4746 1.45664 -3.05888 0
M  V30 643 C 68.0336 1.97197 -3.20609 0
M  V30 644 C 67.1806 0.828552 -2.64632 0
M  V30 645 H 70.1316 0.00702616 -1.58698 0
M  V30 646 H 70.1526 2.32517 -3.01191 0
M  V30 647 H 69.6646 0.688808 -3.81939 0
M  V30 648 H 67.7656 2.76813 -2.4941 0
M  V30 649 H 67.8786 2.15878 -4.27707 0
M  V30 650 H 66.2426 1.23321 -2.22854 0
M  V30 651 H 67.0256 0.0735544 -3.43221 0
M  V30 652 N 69.4707 1.49531 0.497807 0
M  V30 653 C 70.6957 1.63159 1.28039 0
M  V30 654 C 71.1207 0.30418 1.85624 0
M  V30 655 O 70.4787 -0.728618 1.66015 0
M  V30 656 C 70.5267 2.70537 2.38416 0
M  V30 657 O 69.6307 2.29931 3.42353 0
M  V30 658 H 68.9717 0.546001 0.377861 0
M  V30 659 H 71.5017 1.9574 0.59558 0
M  V30 660 H 71.5117 2.92802 2.84132 0
M  V30 661 H 70.1867 3.6689 1.95869 0
M  V30 662 H 68.7637 2.18009 3.02533 0
M  V30 663 N 70.9488 -0.749086 1.3866 0
M  V30 664 C 72.3648 -1.05276 1.19955 0
M  V30 665 C 72.5648 -2.01435 0.05134 0
M  V30 666 O 71.6208 -2.45232 -0.60147 0
M  V30 667 C 72.9338 -1.62853 2.52783 0
M  V30 668 C 74.4818 -1.75002 2.59506 0
M  V30 669 C 74.9568 -2.35991 3.92521 0
M  V30 670 N 76.4478 -2.43416 3.94085 0
M  V30 671 C 77.1828 -2.91511 4.9377 0
M  V30 672 N 76.6788 -3.39608 6.03853 0
M  V30 673 N 78.4718 -2.90592 4.81157 0
M  V30 674 H 70.6228 -0.111066 2.12109 0
M  V30 675 H 72.8858 -0.111901 0.941373 0
M  V30 676 H 72.5918 -0.99664 3.37283 0
M  V30 677 H 72.4658 -2.61854 2.715 0
M  V30 678 H 74.8528 -2.37317 1.75398 0
M  V30 679 H 74.9338 -0.74693 2.44652 0
M  V30 680 H 74.5778 -1.74308 4.77053 0
M  V30 681 H 74.5078 -3.3695 4.04688 0
M  V30 682 H 76.9988 -2.09405 3.14576 0
M  V30 683 H 77.3118 -3.74775 6.75843 0
M  V30 684 H 75.6568 -3.37653 6.07466 0
M  V30 685 H 78.8478 -2.52332 3.94267 0
M  V30 686 H 79.0208 -3.27762 5.58996 0
M  V30 687 N 72.4269 -1.23603 -0.977757 0
M  V30 688 C 73.6549 -1.09646 -1.75458 0
M  V30 689 C 74.0699 0.351859 -1.85492 0
M  V30 690 O 73.4269 1.24327 -1.336 0
M  V30 691 C 73.4779 -1.71895 -3.18016 0
M  V30 692 O 73.1989 -3.11063 -3.08498 0
M  V30 693 C 74.6999 -1.63415 -4.12081 0
M  V30 694 H 71.9199 -0.38359 -0.550545 0
M  V30 695 H 74.4639 -1.63507 -1.22824 0
M  V30 696 H 72.6189 -1.22061 -3.67668 0
M  V30 697 H 73.0329 -3.41305 -3.9826 0
M  V30 698 H 74.5069 -2.11669 -5.09804 0
M  V30 699 H 74.9839 -0.593462 -4.35172 0
M  V30 700 H 75.5899 -2.12628 -3.68334 0
M  V30 701 N 73.905 1.17692 -1.04816 0
M  V30 702 C 74.835 2.23777 -0.666791 0
M  V30 703 C 75.816 1.66796 0.33361 0
M  V30 704 O 77.001 1.93039 0.212042 0
M  V30 705 C 74.131 3.47281 -0.0367933 0
M  V30 706 C 73.085 4.17059 -0.961546 0
M  V30 707 C 72.411 5.34342 -0.195626 0
M  V30 708 C 73.711 4.69713 -2.28402 0
M  V30 709 H 75.405 2.55933 -1.55367 0
M  V30 710 H 72.951 1.23019 -0.748484 0
M  V30 711 H 74.904 4.20706 0.241775 0
M  V30 712 H 73.628 3.14381 0.885004 0
M  V30 713 H 72.287 3.45541 -1.22462 0
M  V30 714 H 71.935 4.97692 0.728816 0
M  V30 715 H 71.635 5.81966 -0.811775 0
M  V30 716 H 73.159 6.10553 0.0757473 0
M  V30 717 H 74.573 5.34794 -2.06563 0
M  V30 718 H 72.97 5.279 -2.8538 0
M  V30 719 H 74.04 3.86726 -2.92525 0
M  V30 720 N 75.3831 0.828654 1.34056 0
M  V30 721 C 76.3461 0.259927 2.27721 0
M  V30 722 C 77.3461 -0.565478 1.50529 0
M  V30 723 O 78.5361 -0.38075 1.69988 0
M  V30 724 C 75.6681 -0.634944 3.34935 0
M  V30 725 H 76.8611 1.0863 2.79534 0
M  V30 726 H 74.4141 0.600951 1.44285 0
M  V30 727 H 75.1491 -1.48416 2.88346 0
M  V30 728 H 74.9341 -0.0444999 3.92075 0
M  V30 729 H 76.4241 -1.02648 4.04788 0
M  V30 730 N 76.8612 -1.46375 0.584142 0
M  V30 731 C 78.1382 -1.956 0.0033388 0
M  V30 732 C 78.5182 -1.52679 -1.45782 0
M  V30 733 O 77.8662 -0.77816 -2.14842 0
M  V30 734 C 78.0762 -3.48551 0.176891 0
M  V30 735 C 79.4242 -4.24576 0.0454609 0
M  V30 736 O 80.4482 -3.56043 0.105801 0
M  V30 737 O 79.3072 -5.46427 -0.0890376 0
M  V30 738 H 76.4012 -0.825547 -0.0490066 0
M  V30 739 H 78.9472 -1.56652 0.65256 0
M  V30 740 H 77.7192 -3.72683 1.1926 0
M  V30 741 H 77.3422 -3.94332 -0.508695 0
M  V30 742 N 78.3393 -0.321999 -1.54275 0
M  V30 743 C 79.5873 0.280489 -2.00144 0
M  V30 744 C 79.9083 1.52777 -1.21178 0
M  V30 745 O 79.1783 1.9338 -0.313187 0
M  V30 746 H 77.7583 0.106632 -0.73935 0
M  V30 747 H 80.4203 -0.438184 -1.8991 0
M  V30 748 H 79.5163 0.537972 -3.07428 0
M  V30 749 N 79.8174 1.5752 -0.0501392 0
M  V30 750 C 81.0944 1.83996 0.663685 0
M  V30 751 C 81.4744 0.938339 1.89099 0
M  V30 752 O 80.8224 -0.00087759 2.285 0
M  V30 753 C 81.0324 3.33702 1.02196 0
M  V30 754 C 82.3804 4.00691 1.40469 0
M  V30 755 O 83.4044 3.38321 1.11433 0
M  V30 756 O 82.2634 5.10658 1.94654 0
M  V30 757 H 79.3574 0.759385 0.32751 0
M  V30 758 H 81.9034 1.69514 -0.0794238 0
M  V30 759 H 80.6754 3.91015 0.149364 0
M  V30 760 H 80.2984 3.53368 1.82255 0
M  V30 761 N 81.2955 -0.223234 1.56011 0
M  V30 762 C 82.7115 -0.572856 1.48965 0
M  V30 763 C 82.9115 -1.87225 0.74492 0
M  V30 764 O 81.9675 -2.50899 0.283896 0
M  V30 765 C 83.2805 -0.653646 2.9351 0
M  V30 766 C 84.8285 -0.744386 3.0402 0
M  V30 767 C 85.3035 -0.856535 4.49919 0
M  V30 768 N 86.7945 -0.9208 4.53955 0
M  V30 769 C 87.5295 -1.02726 5.64123 0
M  V30 770 N 87.0255 -1.09777 6.84047 0
M  V30 771 N 88.8185 -1.06226 5.51971 0
M  V30 772 H 80.9695 0.629462 2.02858 0
M  V30 773 H 83.2325 0.220621 0.921971 0
M  V30 774 H 82.9385 0.231518 3.50937 0
M  V30 775 H 82.8125 -1.51781 3.45315 0
M  V30 776 H 85.1995 -1.61999 2.46658 0
M  V30 777 H 85.2805 0.14541 2.55386 0
M  V30 778 H 84.9245 0.0146069 5.07898 0
M  V30 779 H 84.8545 -1.76172 4.96257 0
M  V30 780 H 87.3455 -0.876694 3.6759 0
M  V30 781 H 87.6585 -1.17872 7.63758 0
M  V30 782 H 86.0035 -1.06693 6.86762 0
M  V30 783 H 89.1945 -1.00382 4.5721 0
M  V30 784 H 89.3675 -1.14177 6.37862 0
M  V30 785 N 82.7736 -1.49793 -0.48987 0
M  V30 786 C 84.0196 -1.60078 -1.24511 0
M  V30 787 C 84.3526 -0.291608 -1.91998 0
M  V30 788 O 83.6276 0.705647 -1.81248 0
M  V30 789 C 83.9106 -2.76791 -2.30345 0
M  V30 790 C 83.7636 -4.17535 -1.67286 0
M  V30 791 C 85.0826 -2.89111 -3.31817 0
M  V30 792 H 82.2016 -0.582645 -0.451324 0
M  V30 793 H 84.8436 -1.82117 -0.541612 0
M  V30 794 H 82.9936 -2.5813 -2.90346 0
M  V30 795 H 84.6656 -4.4774 -1.11026 0
M  V30 796 H 82.9086 -4.22665 -0.976577 0
M  V30 797 H 83.5796 -4.95094 -2.44103 0
M  V30 798 H 86.0556 -3.06133 -2.81819 0
M  V30 799 H 84.9316 -3.72433 -4.03219 0
M  V30 800 H 85.1926 -1.9893 -3.94815 0
M  V30 801 N 84.2517 0.741722 -1.39055 0
M  V30 802 C 85.6627 1.31966 -1.32068 0
M  V30 803 C 86.0137 1.96192 0.0180797 0
M  V30 804 O 85.1387 1.95861 0.920196 0
M  V30 805 C 85.7337 2.39954 -2.39181 0
M  V30 806 C 84.2927 2.93438 -2.35735 0
M  V30 807 C 83.4397 1.66936 -2.21422 0
M  V30 808 H 86.3907 0.539721 -1.4924 0
M  V30 809 H 86.4117 3.20182 -2.05581 0
M  V30 810 H 85.9237 1.9318 -3.36605 0
M  V30 811 H 84.0247 3.4451 -1.41929 0
M  V30 812 H 84.1377 3.4701 -3.30335 0
M  V30 813 H 82.5017 1.91016 -1.68478 0
M  V30 814 H 83.2847 1.22224 -3.20806 0
M  V30 815 N 85.7298 1.2412 0.971189 0
M  V30 816 C 86.6928 1.03156 2.04674 0
M  V30 817 C 87.6928 -0.00990322 1.60797 0
M  V30 818 O 88.8828 0.230729 1.72665 0
M  V30 819 C 86.0148 0.562765 3.36223 0
M  V30 820 H 87.2078 1.98614 2.24705 0
M  V30 821 H 84.7608 1.06293 1.14593 0
M  V30 822 H 85.4958 -0.395176 3.21883 0
M  V30 823 H 85.2808 1.31441 3.69413 0
M  V30 824 H 86.7708 0.437015 4.15307 0
M  V30 825 N 87.2079 -1.17134 1.05439 0
M  V30 826 C 88.1379 -2.2342 0.678649 0
M  V30 827 C 89.1189 -1.66971 -0.32476 0
M  V30 828 O 90.3039 -1.93149 -0.201802 0
M  V30 829 C 87.4339 -3.47256 0.0552099 0
M  V30 830 C 86.3879 -4.16543 0.98365 0
M  V30 831 C 85.7139 -5.34231 0.223961 0
M  V30 832 C 87.0139 -4.68495 2.3089 0
M  V30 833 H 88.7079 -2.55105 1.56722 0
M  V30 834 H 86.2539 -1.2262 0.754998 0
M  V30 835 H 88.2069 -4.20828 -0.21946 0
M  V30 836 H 86.9309 -3.14846 -0.868319 0
M  V30 837 H 85.5899 -3.44887 1.24293 0
M  V30 838 H 85.2379 -4.98071 -0.702412 0
M  V30 839 H 84.9379 -5.81527 0.842627 0
M  V30 840 H 86.4619 -6.10585 -0.0433671 0
M  V30 841 H 87.8759 -5.33691 2.09396 0
M  V30 842 H 86.2729 -5.26379 2.88176 0
M  V30 843 H 87.3429 -3.85169 2.94572 0
M  V30 844 N 88.686 -0.835752 -1.33615 0
M  V30 845 C 89.932 -0.430596 -1.98176 0
M  V30 846 C 90.265 1.00684 -1.66061 0
M  V30 847 O 89.54 1.70339 -0.938877 0
M  V30 848 C 89.823 -0.648065 -3.5422 0
M  V30 849 C 89.676 -2.13255 -3.96033 0
M  V30 850 C 90.995 -0.0922113 -4.40003 0
M  V30 851 H 88.114 -0.157924 -0.719881 0
M  V30 852 H 90.756 -1.05069 -1.58305 0
M  V30 853 H 88.906 -0.120237 -3.88314 0
M  V30 854 H 90.578 -2.725 -3.72211 0
M  V30 855 H 88.821 -2.61823 -3.45878 0
M  V30 856 H 89.492 -2.23547 -5.04708 0
M  V30 857 H 91.968 -0.543343 -4.12537 0
M  V30 858 H 90.844 -0.274083 -5.48215 0
M  V30 859 H 91.105 1.00378 -4.30554 0
M  V30 860 N 90.1641 1.46063 -0.591896 0
M  V30 861 C 91.4131 2.01547 -0.0786637 0
M  V30 862 C 91.7261 1.46796 1.29268 0
M  V30 863 O 92.9321 1.94157 1.89777 0
M  V30 864 C 91.3881 3.59787 -0.0900024 0
M  V30 865 C 90.9961 4.23534 -1.46023 0
M  V30 866 C 92.7401 4.22895 0.368806 0
M  V30 867 C 90.6471 5.73881 -1.4288 0
M  V30 868 H 89.5771 0.753564 -0.0256388 0
M  V30 869 H 92.2281 1.677 -0.744905 0
M  V30 870 H 90.6101 3.90752 0.642586 0
M  V30 871 H 91.7841 4.04167 -2.21328 0
M  V30 872 H 90.0991 3.72558 -1.85982 0
M  V30 873 H 92.6961 5.33116 0.411258 0
M  V30 874 H 93.0391 3.9247 1.38827 0
M  V30 875 H 93.5721 3.9659 -0.31001 0
M  V30 876 H 90.3111 6.0898 -2.42536 0
M  V30 877 H 89.8311 5.95486 -0.718095 0
M  V30 878 H 91.5101 6.36776 -1.14565 0
M  V30 879 N 91.6422 0.330177 1.54103 0
M  V30 880 C 92.8902 -0.269871 2.0029 0
M  V30 881 C 93.2112 -1.52133 1.21986 0
M  V30 882 O 92.4812 -1.93212 0.323438 0
M  V30 883 H 91.0612 -0.10271 0.739905 0
M  V30 884 H 93.7232 0.448249 1.89675 0
M  V30 885 H 92.8192 -0.52166 3.07709 0
M  V30 886 N 93.1203 -1.57491 0.0584922 0
M  V30 887 C 94.3453 -1.97711 -0.62652 0
M  V30 888 C 94.7703 -0.936132 -1.63151 0
M  V30 889 O 94.1283 0.099811 -1.81025 0
M  V30 890 C 94.1763 -3.36989 -1.28338 0
M  V30 891 O 93.2803 -3.35433 -2.39913 0
M  V30 892 H 92.6213 -0.643868 -0.162266 0
M  V30 893 H 95.1513 -2.04193 0.129064 0
M  V30 894 H 95.1613 -3.73879 -1.63335 0
M  V30 895 H 93.8363 -4.12289 -0.546889 0
M  V30 896 H 92.4133 -3.10298 -2.06809 0
M  V30 897 N 94.5984 0.214957 -1.56127 0
M  V30 898 C 95.8464 0.936518 -1.79091 0
M  V30 899 C 96.1674 1.84606 -0.628148 0
M  V30 900 O 95.4374 1.92664 0.35462 0
M  V30 901 H 94.0174 0.3488 -0.660566 0
M  V30 902 H 96.6794 0.22523 -1.93594 0
M  V30 903 H 95.7754 1.53943 -2.71492 0
M  V30 904 N 96.0765 1.50051 0.48192 0
M  V30 905 C 97.3065 1.63999 1.2565 0
M  V30 906 C 97.7145 0.318288 1.86504 0
M  V30 907 O 97.0575 -0.708534 1.69486 0
M  V30 908 C 97.1195 2.66504 2.4128 0
M  V30 909 C 96.7835 4.10352 2.01148 0
M  V30 910 C 97.7805 4.96562 1.54021 0
M  V30 911 C 95.4655 4.56203 2.10199 0
M  V30 912 C 97.4595 6.26668 1.16473 0
M  V30 913 C 95.1465 5.86318 1.72264 0
M  V30 914 C 96.1445 6.71375 1.25477 0
M  V30 915 O 95.8325 7.99062 0.880626 0
M  V30 916 H 95.5645 0.55456 0.386574 0
M  V30 917 H 98.1185 1.96954 0.582944 0
M  V30 918 H 96.3485 2.28769 3.11772 0
M  V30 919 H 98.0375 2.69783 3.03268 0
M  V30 920 H 98.8035 4.62358 1.46458 0
M  V30 921 H 94.6825 3.90152 2.45566 0
M  V30 922 H 98.2265 6.93011 0.798841 0
M  V30 923 H 94.1235 6.20046 1.79482 0
M  V30 924 H 94.8915 8.12239 1.01043 0
M  V30 925 N 97.5546 -0.734337 1.39446 0
M  V30 926 C 98.8026 -1.49096 1.36436 0
M  V30 927 C 99.1236 -1.94961 -0.0388255 0
M  V30 928 O 98.3936 -1.69033 -0.990191 0
M  V30 929 H 96.9736 -0.5531 0.502085 0
M  V30 930 H 99.6356 -0.871725 1.74319 0
M  V30 931 H 98.7316 -2.37276 2.02747 0
M  V30 932 N 99.0327 -1.24633 -0.964593 0
M  V30 933 C 100.281 -1.08573 -1.70459 0
M  V30 934 C 100.602 0.375655 -1.91347 0
M  V30 935 O 99.8717 1.26779 -1.49345 0
M  V30 936 H 98.4517 -0.398784 -0.631649 0
M  V30 937 H 101.114 -1.56601 -1.16026 0
M  V30 938 H 100.21 -1.58623 -2.68785 0
M  V30 939 N 100.511 1.16574 -1.06058 0
M  V30 940 C 101.474 2.19085 -0.673392 0
M  V30 941 C 102.474 1.5835 0.279648 0
M  V30 942 O 103.664 1.74088 0.0623488 0
M  V30 943 C 100.796 3.40899 0.00954234 0
M  V30 944 H 101.989 2.54853 -1.58081 0
M  V30 945 H 99.5418 1.30808 -0.855516 0
M  V30 946 H 100.277 3.10684 0.929826 0
M  V30 947 H 100.062 3.86233 -0.67573 0
M  V30 948 H 101.552 4.1675 0.266245 0
M  V30 949 N 101.989 0.842826 1.3317 0
M  V30 950 C 103.235 0.441099 1.97945 0
M  V30 951 C 103.568 -0.998024 1.66593 0
M  V30 952 O 102.843 -1.69839 0.947898 0
M  V30 953 C 103.126 0.666841 3.53872 0
M  V30 954 C 102.979 2.15352 3.94897 0
M  V30 955 C 104.298 0.115544 4.39948 0
M  V30 956 H 101.417 0.161739 0.719034 0
M  V30 957 H 104.059 1.05907 1.57746 0
M  V30 958 H 102.209 0.140828 3.88245 0
M  V30 959 H 103.881 2.7447 3.70761 0
M  V30 960 H 102.124 2.63653 3.44484 0
M  V30 961 H 102.795 2.26221 5.03516 0
M  V30 962 H 105.271 0.565213 4.12243 0
M  V30 963 H 104.147 0.303152 5.48062 0
M  V30 964 H 104.408 -0.980935 4.3108 0
M  V30 965 N 103.467 -1.45747 0.599634 0
M  V30 966 C 104.43 -2.28917 -0.113835 0
M  V30 967 C 105.43 -1.3933 -0.802729 0
M  V30 968 O 106.62 -1.61534 -0.652103 0
M  V30 969 C 103.752 -3.20152 -1.17114 0
M  V30 970 H 104.945 -2.93478 0.617289 0
M  V30 971 H 102.498 -1.52137 0.358327 0
M  V30 972 H 103.233 -2.60374 -1.93329 0
M  V30 973 H 103.018 -3.86133 -0.681468 0
M  V30 974 H 104.508 -3.82708 -1.67105 0
M  V30 975 N 104.945 -0.338344 -1.53925 0
M  V30 976 C 105.908 0.508299 -2.23493 0
M  V30 977 C 106.908 1.03175 -1.23335 0
M  V30 978 O 108.098 0.921826 -1.47811 0
M  V30 979 C 105.23 1.70754 -2.95052 0
M  V30 980 H 106.423 -0.100058 -2.99733 0
M  V30 981 H 103.976 -0.0896198 -1.56043 0
M  V30 982 H 104.711 2.35474 -2.22986 0
M  V30 983 H 104.496 1.33946 -3.68512 0
M  V30 984 H 105.986 2.30818 -3.48013 0
M  V30 985 N 106.423 1.57458 -0.0668435 0
M  V30 986 C 107.353 2.15468 0.899764 0
M  V30 987 C 108.334 1.08042 1.31381 0
M  V30 988 O 109.519 1.36054 1.38574 0
M  V30 989 C 106.649 2.71232 2.16911 0
M  V30 990 C 105.603 3.83781 1.89463 0
M  V30 991 C 104.929 4.26127 3.22986 0
M  V30 992 C 106.229 5.08238 1.20381 0
M  V30 993 H 107.923 2.96488 0.416529 0
M  V30 994 H 105.469 1.4262 0.198908 0
M  V30 995 H 107.422 3.10458 2.84945 0
M  V30 996 H 106.146 1.87426 2.67468 0
M  V30 997 H 104.805 3.45051 1.23836 0
M  V30 998 H 104.453 3.39249 3.71374 0
M  V30 999 H 104.153 5.01993 3.05413 0
M  V30 1000 H 105.677 4.67966 3.92225 0
M  V30 1001 H 107.091 5.44811 1.78475 0
M  V30 1002 H 105.488 5.89349 1.13083 0
M  V30 1003 H 106.558 4.84558 0.182153 0
M  V30 1004 N 107.901 -0.206675 1.56239 0
M  V30 1005 C 109.317 -0.557025 1.49564 0
M  V30 1006 C 109.517 -1.86424 0.764735 0
M  V30 1007 O 108.573 -2.50584 0.310491 0
M  V30 1008 C 109.886 -0.622478 2.94186 0
M  V30 1009 C 111.434 -0.712099 3.04792 0
M  V30 1010 C 111.909 -0.808767 4.50803 0
M  V30 1011 N 113.4 -0.8726 4.54907 0
M  V30 1012 C 114.135 -0.967365 5.65181 0
M  V30 1013 N 113.631 -1.02515 6.85173 0
M  V30 1014 N 115.424 -1.00366 5.53067 0
M  V30 1015 H 107.575 0.650943 2.02179 0
M  V30 1016 H 109.838 0.230387 0.919579 0
M  V30 1017 H 109.544 0.268727 3.50672 0
M  V30 1018 H 109.418 -1.4811 3.46905 0
M  V30 1019 H 111.805 -1.59374 2.48363 0
M  V30 1020 H 111.886 0.172489 2.55218 0
M  V30 1021 H 111.53 0.0684754 5.07854 0
M  V30 1022 H 111.46 -1.70899 4.98098 0
M  V30 1023 H 113.951 -0.837657 3.68499 0
M  V30 1024 H 114.264 -1.09765 7.64965 0
M  V30 1025 H 112.609 -0.994026 6.87855 0
M  V30 1026 H 115.8 -0.95527 4.58249 0
M  V30 1027 H 115.973 -1.07405 6.39037 0
M  V30 1028 N 109.379 -1.50304 -0.473955 0
M  V30 1029 C 110.309 -1.71886 -1.58042 0
M  V30 1030 C 111.29 -0.567799 -1.60344 0
M  V30 1031 O 112.475 -0.806623 -1.76656 0
M  V30 1032 C 109.605 -1.81036 -2.96384 0
M  V30 1033 C 108.559 -2.962 -3.08949 0
M  V30 1034 C 107.885 -2.9049 -4.48909 0
M  V30 1035 C 109.185 -4.36752 -2.86434 0
M  V30 1036 H 110.879 -2.64527 -1.40234 0
M  V30 1037 H 108.425 -1.27295 -0.673201 0
M  V30 1038 H 110.378 -1.94719 -3.73714 0
M  V30 1039 H 109.102 -0.850147 -3.15341 0
M  V30 1040 H 107.761 -2.82164 -2.3405 0
M  V30 1041 H 107.409 -1.92321 -4.64781 0
M  V30 1042 H 107.109 -3.67802 -4.58253 0
M  V30 1043 H 108.633 -3.06218 -5.28264 0
M  V30 1044 H 110.047 -4.5133 -3.53517 0
M  V30 1045 H 108.444 -5.15493 -3.07225 0
M  V30 1046 H 109.514 -4.49321 -1.82316 0
M  V30 1047 N 110.857 0.726932 -1.39834 0
M  V30 1048 C 112.085 1.51613 -1.40787 0
M  V30 1049 C 112.5 1.88799 -0.00451505 0
M  V30 1050 O 111.857 1.54662 0.968809 0
M  V30 1051 C 111.908 2.79863 -2.28821 0
M  V30 1052 O 111.629 2.44253 -3.63692 0
M  V30 1053 C 113.13 3.73837 -2.38245 0
M  V30 1054 H 110.35 0.468264 -0.480593 0
M  V30 1055 H 112.894 0.897607 -1.83748 0
M  V30 1056 H 111.049 3.38027 -1.89252 0
M  V30 1057 H 111.463 3.26695 -4.1033 0
M  V30 1058 H 112.937 4.60699 -3.04073 0
M  V30 1059 H 113.414 4.16153 -1.40403 0
M  V30 1060 H 114.02 3.21589 -2.78317 0
M  V30 1061 N 112.336 1.25143 0.95797 0
M  V30 1062 C 113.268 1.01023 2.05735 0
M  V30 1063 C 114.281 -0.0236902 1.62783 0
M  V30 1064 O 115.47 0.21448 1.77207 0
M  V30 1065 C 112.57 0.504595 3.35122 0
M  V30 1066 C 111.743 1.6039 4.06932 0
M  V30 1067 C 110.802 1.09922 5.14591 0
M  V30 1068 O 109.828 1.79293 5.40225 0
M  V30 1069 N 111.03 -0.0612545 5.80468 0
M  V30 1070 H 113.795 1.95683 2.26998 0
M  V30 1071 H 111.356 1.16303 1.12629 0
M  V30 1072 H 113.348 0.151516 4.04416 0
M  V30 1073 H 111.918 -0.347989 3.10657 0
M  V30 1074 H 111.138 2.12872 3.31782 0
M  V30 1075 H 112.426 2.34252 4.51667 0
M  V30 1076 H 111.824 -0.640985 5.62057 0
M  V30 1077 H 110.381 -0.355395 6.5083 0
M  V30 1078 N 113.814 -1.1601 1.06675 0
M  V30 1079 C 114.777 -2.18724 0.685001 0
M  V30 1080 C 115.777 -1.58496 -0.271246 0
M  V30 1081 O 116.967 -1.74119 -0.0531156 0
M  V30 1082 C 114.099 -3.40899 0.00853648 0
M  V30 1083 H 115.292 -2.54011 1.59431 0
M  V30 1084 H 112.845 -1.30352 0.862441 0
M  V30 1085 H 113.58 -3.11173 -0.913337 0
M  V30 1086 H 113.365 -3.8587 0.696204 0
M  V30 1087 H 114.855 -4.16886 -0.24414 0
M  V30 1088 N 115.292 -0.849877 -1.32721 0
M  V30 1089 C 116.54 -0.450032 -1.97026 0
M  V30 1090 C 116.861 0.996604 -1.67609 0
M  V30 1091 O 116.131 1.6958 -0.980786 0
M  V30 1092 H 114.711 -0.163426 -0.728904 0
M  V30 1093 H 117.373 -1.08526 -1.6189 0
M  V30 1094 H 116.469 -0.591146 -3.0645 0
M  V30 1095 N 116.77 1.45427 -0.607355 0
M  V30 1096 C 118.019 2.01452 -0.100036 0
M  V30 1097 C 118.332 1.48159 1.27704 0
M  V30 1098 O 119.538 1.96159 1.87707 0
M  V30 1099 C 117.994 3.59672 -0.128158 0
M  V30 1100 C 117.602 4.21962 -1.50507 0
M  V30 1101 C 119.346 4.23262 0.323932 0
M  V30 1102 C 117.253 5.72333 -1.48959 0
M  V30 1103 H 116.183 0.75325 -0.0336299 0
M  V30 1104 H 118.834 1.66901 -0.76265 0
M  V30 1105 H 117.216 3.91411 0.601105 0
M  V30 1106 H 118.39 4.01796 -2.25602 0
M  V30 1107 H 116.705 3.70565 -1.89923 0
M  V30 1108 H 119.302 5.33522 0.354691 0
M  V30 1109 H 119.645 3.93921 1.34656 0
M  V30 1110 H 120.178 3.96239 -0.352056 0
M  V30 1111 H 116.917 6.06373 -2.48981 0
M  V30 1112 H 116.437 5.94691 -0.781214 0
M  V30 1113 H 118.116 6.35525 -1.21313 0
M  V30 1114 N 118.248 0.346503 1.53744 0
M  V30 1115 C 119.659 -0.136779 1.86198 0
M  V30 1116 C 120.01 -1.49749 1.26766 0
M  V30 1117 O 119.135 -2.08417 0.582355 0
M  V30 1118 C 119.73 -0.254966 3.37839 0
M  V30 1119 C 118.289 -0.682482 3.70161 0
M  V30 1120 C 117.436 0.181981 2.76702 0
M  V30 1121 H 120.387 0.565994 1.48264 0
M  V30 1122 H 120.408 -1.08195 3.64793 0
M  V30 1123 H 119.92 0.735526 3.81066 0
M  V30 1124 H 118.021 -1.68189 3.3248 0
M  V30 1125 H 118.134 -0.470326 4.76786 0
M  V30 1126 H 116.498 -0.34615 2.52337 0
M  V30 1127 H 117.281 1.16966 3.2276 0
M  V30 1128 N 119.726 -1.57421 0.075193 0
M  V30 1129 C 120.954 -1.97946 -0.602076 0
M  V30 1130 C 121.369 -0.953674 -1.62943 0
M  V30 1131 O 120.726 0.0592551 -1.82404 0
M  V30 1132 C 120.777 -3.38546 -1.26762 0
M  V30 1133 O 120.498 -4.37195 -0.281376 0
M  V30 1134 C 121.999 -3.93966 -2.03239 0
M  V30 1135 H 119.219 -0.650918 -0.162931 0
M  V30 1136 H 121.763 -2.03959 0.148601 0
M  V30 1137 H 119.918 -3.33609 -1.96936 0
M  V30 1138 H 120.332 -5.18975 -0.759267 0
M  V30 1139 H 121.806 -4.94555 -2.45193 0
M  V30 1140 H 122.283 -3.30693 -2.8903 0
M  V30 1141 H 122.889 -4.02315 -1.37924 0
M  V30 1142 N 121.204 0.198386 -1.56346 0
M  V30 1143 C 122.136 1.26987 -1.90806 0
M  V30 1144 C 123.149 1.41877 -0.798419 0
M  V30 1145 O 124.338 1.42362 -1.07682 0
M  V30 1146 C 121.438 2.64246 -2.12196 0
M  V30 1147 C 120.611 2.71007 -3.43328 0
M  V30 1148 C 119.67 3.89439 -3.5387 0
M  V30 1149 O 118.696 3.76695 -4.26719 0
M  V30 1150 N 119.898 5.04752 -2.86715 0
M  V30 1151 H 122.663 0.977433 -2.83313 0
M  V30 1152 H 120.224 0.388322 -1.57174 0
M  V30 1153 H 122.216 3.41896 -2.1654 0
M  V30 1154 H 120.786 2.85992 -1.26204 0
M  V30 1155 H 120.006 1.79657 -3.50881 0
M  V30 1156 H 121.294 2.72512 -4.29668 0
M  V30 1157 H 120.692 5.18004 -2.2735 0
M  V30 1158 H 119.249 5.8036 -2.96691 0
M  V30 1159 N 122.682 1.50554 0.465978 0
M  V30 1160 C 123.931 1.61038 1.21448 0
M  V30 1161 C 124.244 0.31865 1.92987 0
M  V30 1162 O 125.45 0.302469 2.6981 0
M  V30 1163 C 123.906 2.84283 2.20706 0
M  V30 1164 C 123.514 4.20352 1.54946 0
M  V30 1165 C 125.258 3.04115 2.96166 0
M  V30 1166 C 123.165 5.34778 2.5252 0
M  V30 1167 H 122.095 0.599718 0.457005 0
M  V30 1168 H 124.746 1.7699 0.484424 0
M  V30 1169 H 123.128 2.61901 2.97025 0
M  V30 1170 H 124.302 4.53008 0.843811 0
M  V30 1171 H 122.617 4.06167 0.917475 0
M  V30 1172 H 125.214 3.86774 3.69202 0
M  V30 1173 H 125.557 2.16045 3.55852 0
M  V30 1174 H 126.09 3.26702 2.26959 0
M  V30 1175 H 122.829 6.25018 1.97566 0
M  V30 1176 H 122.349 5.06534 3.21222 0
M  V30 1177 H 124.028 5.65561 3.14245 0
M  V30 1178 N 124.16 -0.719506 1.40217 0
M  V30 1179 C 125.406 -1.48152 1.38488 0
M  V30 1180 C 125.739 -1.94195 -0.0141867 0
M  V30 1181 O 125.014 -1.67884 -0.982096 0
M  V30 1182 C 125.297 -2.71035 2.37091 0
M  V30 1183 C 125.15 -2.30912 3.86005 0
M  V30 1184 C 126.469 -3.73182 2.33288 0
M  V30 1185 H 123.588 -0.537395 0.504357 0
M  V30 1186 H 126.23 -0.821472 1.71324 0
M  V30 1187 H 124.38 -3.27352 2.0922 0
M  V30 1188 H 126.052 -1.80107 4.24687 0
M  V30 1189 H 124.295 -1.62958 4.02029 0
M  V30 1190 H 124.966 -3.18978 4.50508 0
M  V30 1191 H 127.442 -3.26485 2.57966 0
M  V30 1192 H 126.318 -4.56806 3.04334 0
M  V30 1193 H 126.579 -4.21202 1.34317 0
M  V30 1194 N 125.638 -1.25649 -0.95132 0
M  V30 1195 C 126.548 -1.08073 -2.08224 0
M  V30 1196 C 127.564 -0.0169666 -1.73992 0
M  V30 1197 O 128.74 -0.218593 -2.0021 0
M  V30 1198 C 125.805 -0.704922 -3.39458 0
M  V30 1199 C 124.866 -1.84699 -3.87537 0
M  V30 1200 C 124.099 -1.48902 -5.12508 0
M  V30 1201 O 124.322 -0.386156 -5.69091 0
M  V30 1202 O 123.256 -2.32033 -5.55378 0
M  V30 1203 H 127.082 -2.02924 -2.25954 0
M  V30 1204 H 124.667 -1.04618 -1.06656 0
M  V30 1205 H 126.549 -0.507609 -4.18332 0
M  V30 1206 H 125.224 0.214291 -3.2299 0
M  V30 1207 H 124.131 -2.09919 -3.09653 0
M  V30 1208 H 125.464 -2.74557 -4.08509 0
M  V30 1209 N 127.117 1.15442 -1.07289 0
M  V30 1210 C 128.05 2.19135 -0.636798 0
M  V30 1211 C 129.028 1.58884 0.34562 0
M  V30 1212 O 130.212 1.86805 0.252195 0
M  V30 1213 C 127.339 3.38638 0.0650014 0
M  V30 1214 C 126.385 4.17412 -0.87576 0
M  V30 1215 S 127.218 4.79882 -2.37642 0
M  V30 1216 C 128.374 6.02753 -1.6864 0
M  V30 1217 H 128.607 2.55787 -1.51526 0
M  V30 1218 H 126.14 1.26394 -0.886793 0
M  V30 1219 H 128.098 4.07873 0.463664 0
M  V30 1220 H 126.759 3.00331 0.919801 0
M  V30 1221 H 125.952 5.02909 -0.33143 0
M  V30 1222 H 125.554 3.53722 -1.21478 0
M  V30 1223 H 127.846 6.70113 -0.997753 0
M  V30 1224 H 128.789 6.61754 -2.51967 0
M  V30 1225 H 129.197 5.52355 -1.16465 0
M  V30 1226 N 128.595 0.856903 1.32268 0
M  V30 1227 C 129.843 0.460474 1.96784 0
M  V30 1228 C 130.164 -0.987701 1.68135 0
M  V30 1229 O 129.434 -1.69058 0.989765 0
M  V30 1230 H 128.014 0.167289 0.728027 0
M  V30 1231 H 130.676 1.09383 1.61312 0
M  V30 1232 H 129.772 0.60739 3.06133 0
M  V30 1233 N 130.073 -1.45103 0.615059 0
M  V30 1234 C 131.489 -1.57137 0.279322 0
M  V30 1235 C 131.689 -1.60523 -1.21797 0
M  V30 1236 O 130.745 -1.53956 -2.00134 0
M  V30 1237 C 132.058 -2.85062 0.957083 0
M  V30 1238 C 133.606 -2.98749 0.933706 0
M  V30 1239 C 134.081 -4.29455 1.59162 0
M  V30 1240 N 135.572 -4.36231 1.55746 0
M  V30 1241 C 136.307 -5.36051 2.0356 0
M  V30 1242 N 135.803 -6.42367 2.59494 0
M  V30 1243 N 137.596 -5.27456 1.94284 0
M  V30 1244 H 129.747 -1.41148 1.58717 0
M  V30 1245 H 132.01 -0.675331 0.665306 0
M  V30 1246 H 131.716 -2.88488 2.01166 0
M  V30 1247 H 131.59 -3.7407 0.48494 0
M  V30 1248 H 133.977 -2.94886 -0.112347 0
M  V30 1249 H 134.058 -2.11132 1.44419 0
M  V30 1250 H 133.702 -4.34077 2.63704 0
M  V30 1251 H 133.632 -5.15901 1.0561 0
M  V30 1252 H 136.123 -3.60011 1.14893 0
M  V30 1253 H 136.436 -7.14793 2.93752 0
M  V30 1254 H 134.781 -6.43097 2.63537 0
M  V30 1255 H 137.972 -4.43308 1.5032 0
M  V30 1256 H 138.145 -6.05099 2.3186 0
M  V30 1257 N 131.551 -0.354651 -1.53558 0
M  V30 1258 C 132.776 0.242153 -2.05981 0
M  V30 1259 C 133.201 1.42553 -1.2272 0
M  V30 1260 O 132.559 1.79656 -0.243604 0
M  V30 1261 C 132.607 0.624367 -3.55154 0
M  V30 1262 O 131.711 1.72301 -3.74681 0
M  V30 1263 H 131.052 0.0378432 -0.662921 0
M  V30 1264 H 133.582 -0.512087 -1.98088 0
M  V30 1265 H 133.592 0.898433 -3.97985 0
M  V30 1266 H 132.267 -0.240989 -4.15201 0
M  V30 1267 H 130.844 1.44535 -3.4375 0
M  V30 1268 N 133.029 1.57378 -0.0835403 0
M  V30 1269 C 134.275 1.95025 0.577664 0
M  V30 1270 C 134.63 0.964049 1.66505 0
M  V30 1271 O 133.923 -0.0118235 1.91596 0
M  V30 1272 C 134.117 3.37063 1.1884 0
M  V30 1273 C 133.946 4.49409 0.16171 0
M  V30 1274 C 132.716 5.04642 -0.257756 0
M  V30 1275 C 134.914 5.10722 -0.605634 0
M  V30 1276 N 132.896 6.00537 -1.27393 0
M  V30 1277 C 134.267 6.02225 -1.47395 0
M  V30 1278 C 136.322 4.93501 -0.660418 0
M  V30 1279 C 135.025 6.78355 -2.39221 0
M  V30 1280 C 137.051 5.70283 -1.56623 0
M  V30 1281 C 136.413 6.61444 -2.4222 0
M  V30 1282 H 132.512 0.760512 0.182058 0
M  V30 1283 H 135.096 1.94013 -0.163419 0
M  V30 1284 H 133.267 3.3879 1.89936 0
M  V30 1285 H 134.999 3.61917 1.81103 0
M  V30 1286 H 131.754 4.73428 0.127702 0
M  V30 1287 H 132.178 6.53184 -1.77987 0
M  V30 1288 H 136.82 4.22798 -0.0128221 0
M  V30 1289 H 134.538 7.48327 -3.05011 0
M  V30 1290 H 138.124 5.58976 -1.61361 0
M  V30 1291 H 137.004 7.1982 -3.11174 0
M  V30 1292 N 134.507 -0.190092 1.56449 0
M  V30 1293 C 135.784 -0.935886 1.71757 0
M  V30 1294 C 136.164 -2.01173 0.639726 0
M  V30 1295 O 135.512 -2.25827 -0.348502 0
M  V30 1296 C 135.722 -1.51775 3.1427 0
M  V30 1297 C 137.07 -1.99794 3.74656 0
M  V30 1298 O 138.094 -1.61607 3.1743 0
M  V30 1299 O 136.953 -2.70079 4.751 0
M  V30 1300 H 134.047 -0.439229 0.700719 0
M  V30 1301 H 136.593 -0.179395 1.68749 0
M  V30 1302 H 135.365 -0.742505 3.84191 0
M  V30 1303 H 134.988 -2.33894 3.21527 0
M  V30 1304 N 135.985 -1.50799 -0.457987 0
M  V30 1305 C 137.213 -1.66218 -1.23203 0
M  V30 1306 C 137.628 -0.350894 -1.85511 0
M  V30 1307 O 136.985 0.668546 -1.69814 0
M  V30 1308 C 137.036 -2.76291 -2.33121 0
M  V30 1309 O 136.757 -4.02338 -1.73366 0
M  V30 1310 C 138.258 -3.028 -3.2377 0
M  V30 1311 H 135.478 -0.558361 -0.372121 0
M  V30 1312 H 138.022 -1.97099 -0.545179 0
M  V30 1313 H 136.177 -2.48068 -2.97558 0
M  V30 1314 H 136.591 -4.63312 -2.4585 0
M  V30 1315 H 138.065 -3.8345 -3.97077 0
M  V30 1316 H 138.542 -2.14385 -3.83322 0
M  V30 1317 H 139.148 -3.32604 -2.65056 0
M  V30 1318 N 137.463 0.71206 -1.40597 0
M  V30 1319 C 138.874 1.29135 -1.34837 0
M  V30 1320 C 139.225 1.96186 -0.0235395 0
M  V30 1321 O 138.35 1.97768 0.878444 0
M  V30 1322 C 138.945 2.34827 -2.44217 0
M  V30 1323 C 137.504 2.88371 -2.41907 0
M  V30 1324 C 136.651 1.62202 -2.24913 0
M  V30 1325 H 139.602 0.507944 -1.50352 0
M  V30 1326 H 139.623 3.15749 -2.12327 0
M  V30 1327 H 139.135 1.85996 -3.40627 0
M  V30 1328 H 137.236 3.41422 -1.49204 0
M  V30 1329 H 137.349 3.39925 -3.37621 0
M  V30 1330 H 135.713 1.874 -1.72492 0
M  V30 1331 H 136.496 1.15391 -3.23326 0
M  V30 1332 N 138.941 1.26152 0.944643 0
M  V30 1333 C 140.189 1.11271 1.6871 0
M  V30 1334 C 140.51 -0.345166 1.91921 0
M  V30 1335 O 139.78 -1.24387 1.51343 0
M  V30 1336 H 138.36 0.408783 0.625224 0
M  V30 1337 H 141.022 1.58427 1.1352 0
M  V30 1338 H 140.118 1.62879 2.66227 0
M  V30 1339 N 140.419 -1.14872 1.07899 0
M  V30 1340 C 141.644 -1.90202 0.826926 0
M  V30 1341 C 142.069 -1.77774 -0.614664 0
M  V30 1342 O 141.427 -1.11431 -1.43013 0
M  V30 1343 C 141.475 -3.38352 1.24702 0
M  V30 1344 O 140.579 -4.10497 0.39575 0
M  V30 1345 H 139.92 -0.591968 0.300782 0
M  V30 1346 H 142.45 -1.45437 1.43907 0
M  V30 1347 H 142.46 -3.89156 1.22563 0
M  V30 1348 H 141.135 -3.46715 2.29698 0
M  V30 1349 H 139.712 -3.69796 0.480117 0
M  V30 1350 N 141.898 -0.863906 -1.31812 0
M  V30 1351 C 143.175 -0.39275 -1.91616 0
M  V30 1352 C 143.555 1.12461 -1.7865 0
M  V30 1353 O 142.903 1.95045 -1.19037 0
M  V30 1354 C 143.113 -0.867385 -3.38049 0
M  V30 1355 C 144.461 -0.889966 -4.15168 0
M  V30 1356 O 145.485 -0.812635 -3.46806 0
M  V30 1357 O 144.344 -1.00079 -5.37258 0
M  V30 1358 H 141.438 -0.116358 -0.818773 0
M  V30 1359 H 143.984 -0.951418 -1.40521 0
M  V30 1360 H 142.756 -1.91081 -3.41473 0
M  V30 1361 H 142.379 -0.286687 -3.96565 0
M  V30 1362 N 143.376 1.44774 -0.622745 0
M  V30 1363 C 144.624 2.01721 -0.123655 0
M  V30 1364 C 144.945 1.49172 1.25589 0
M  V30 1365 O 144.215 0.691974 1.83272 0
M  V30 1366 H 142.795 0.745777 -0.0427225 0
M  V30 1367 H 145.457 1.77382 -0.807559 0
M  V30 1368 H 144.553 3.11984 -0.0849534 0
M  V30 1369 N 144.854 0.36279 1.53368 0
M  V30 1370 C 145.801 -0.485008 2.25646 0
M  V30 1371 C 146.771 -1.07982 1.2621 0
M  V30 1372 O 147.956 -1.11284 1.54986 0
M  V30 1373 C 145.096 -1.62023 3.04701 0
M  V30 1374 C 144.209 -1.05086 4.19024 0
M  V30 1375 C 143.344 -2.15496 4.85525 0
M  V30 1376 C 142.383 -1.5601 5.91884 0
M  V30 1377 N 141.52 -2.60241 6.52088 0
M  V30 1378 H 146.36 0.137864 2.97681 0
M  V30 1379 H 143.897 0.0798061 1.46883 0
M  V30 1380 H 145.855 -2.28887 3.48807 0
M  V30 1381 H 144.485 -2.2138 2.34927 0
M  V30 1382 H 143.537 -0.27259 3.79422 0
M  V30 1383 H 144.849 -0.575926 4.95464 0
M  V30 1384 H 144.003 -2.90186 5.32801 0
M  V30 1385 H 142.742 -2.66341 4.08551 0
M  V30 1386 H 141.747 -0.798338 5.43973 0
M  V30 1387 H 142.972 -1.05994 6.70777 0
M  V30 1388 H 140.918 -3.10304 5.77968 0
M  V30 1389 H 140.835 -2.17426 7.24059 0
M  V30 1390 H 142.103 -3.34641 7.04014 0
M  V30 1391 N 146.332 -1.57332 0.0918853 0
M  V30 1392 C 147.581 -1.93412 -0.572249 0
M  V30 1393 C 147.894 -0.975515 -1.69538 0
M  V30 1394 O 149.1 -1.22991 -2.42045 0
M  V30 1395 C 147.556 -3.43648 -1.0693 0
M  V30 1396 C 147.164 -4.47994 0.0239049 0
M  V30 1397 C 148.908 -3.88695 -1.70635 0
M  V30 1398 C 146.815 -5.89381 -0.488319 0
M  V30 1399 H 145.745 -0.721939 -0.217532 0
M  V30 1400 H 148.396 -1.82735 0.167369 0
M  V30 1401 H 146.778 -3.49466 -1.8625 0
M  V30 1402 H 147.952 -4.53815 0.799277 0
M  V30 1403 H 146.267 -4.12536 0.565946 0
M  V30 1404 H 148.864 -4.91725 -2.10025 0
M  V30 1405 H 149.207 -3.27166 -2.57426 0
M  V30 1406 H 149.74 -3.85564 -0.979023 0
M  V30 1407 H 146.479 -6.54602 0.342906 0
M  V30 1408 H 145.999 -5.87037 -1.23077 0
M  V30 1409 H 147.678 -6.39863 -0.958317 0
M  V30 1410 N 147.81 0.181792 -1.56548 0
M  V30 1411 C 149.057 0.900097 -1.81396 0
M  V30 1412 C 149.385 1.82695 -0.667281 0
M  V30 1413 O 148.64 1.92614 0.346146 0
M  V30 1414 C 148.939 1.73728 -3.12335 0
M  V30 1415 C 148.605 0.960255 -4.40556 0
M  V30 1416 C 147.267 0.745766 -4.75386 0
M  V30 1417 C 149.619 0.414477 -5.19549 0
M  V30 1418 C 146.947 -0.0257694 -5.86694 0
M  V30 1419 C 149.299 -0.343916 -6.31664 0
M  V30 1420 C 147.963 -0.569301 -6.65068 0
M  V30 1421 H 147.233 0.329369 -0.663775 0
M  V30 1422 H 149.88 0.165647 -1.90782 0
M  V30 1423 H 148.185 2.54081 -2.98245 0
M  V30 1424 H 149.882 2.29591 -3.28769 0
M  V30 1425 H 146.472 1.13746 -4.13231 0
M  V30 1426 H 150.656 0.567554 -4.93044 0
M  V30 1427 H 145.912 -0.210233 -6.11038 0
M  V30 1428 H 150.086 -0.774133 -6.92084 0
M  V30 1429 H 147.713 -1.16903 -7.51158 0
M  V30 1430 N 149.288 1.51039 0.449983 0
M  V30 1431 C 150.528 1.64732 1.21007 0
M  V30 1432 C 150.892 0.349865 1.88785 0
M  V30 1433 O 152.093 0.362431 2.66345 0
M  V30 1434 C 150.364 2.80902 2.20973 0
M  V30 1435 S 151.923 3.14851 3.05638 0
M  V30 1436 H 148.741 0.5805 0.410538 0
M  V30 1437 H 151.343 1.88901 0.503634 0
M  V30 1438 H 150.047 3.73627 1.69796 0
M  V30 1439 H 149.578 2.58882 2.96215 0
M  V30 1440 H 151.593 2.60306 4.22439 0
M  V30 1441 N 150.766 -0.704594 1.40972 0
M  V30 1442 C 152.014 -1.46169 1.39568 0
M  V30 1443 C 152.335 -1.95 0.00253745 0
M  V30 1444 O 151.605 -1.71095 -0.954114 0
M  V30 1445 H 150.185 -0.542326 0.513704 0
M  V30 1446 H 152.847 -0.834553 1.76128 0
M  V30 1447 H 151.943 -2.32922 2.07735 0
M  V30 1448 N 152.244 -1.26651 -0.937939 0
M  V30 1449 C 153.177 -1.02811 -2.03728 0
M  V30 1450 C 154.155 0.0481915 -1.62529 0
M  V30 1451 O 155.339 -0.0948839 -1.88261 0
M  V30 1452 C 152.466 -0.557517 -3.3408 0
M  V30 1453 C 151.512 -1.62686 -3.94253 0
M  V30 1454 S 152.345 -3.21667 -4.28125 0
M  V30 1455 C 153.501 -2.76384 -5.61572 0
M  V30 1456 H 153.734 -1.95891 -2.23638 0
M  V30 1457 H 151.267 -1.10367 -1.07974 0
M  V30 1458 H 153.225 -0.292674 -4.09455 0
M  V30 1459 H 151.886 0.353062 -3.12109 0
M  V30 1460 H 151.079 -1.24866 -4.88287 0
M  V30 1461 H 150.681 -1.84324 -3.25424 0
M  V30 1462 H 152.973 -2.2105 -6.40424 0
M  V30 1463 H 153.916 -3.69123 -6.0428 0
M  V30 1464 H 154.324 -2.15847 -5.21604 0
M  V30 1465 N 153.722 1.14298 -1.08507 0
M  V30 1466 C 154.652 2.21542 -0.737646 0
M  V30 1467 C 155.633 1.67773 0.280377 0
M  V30 1468 O 156.818 1.93616 0.150521 0
M  V30 1469 C 153.948 3.46988 -0.147259 0
M  V30 1470 C 152.902 4.13789 -1.09374 0
M  V30 1471 C 152.228 5.33449 -0.365524 0
M  V30 1472 C 153.528 4.62208 -2.4323 0
M  V30 1473 H 155.222 2.5086 -1.6343 0
M  V30 1474 H 152.768 1.20576 -0.787243 0
M  V30 1475 H 154.721 4.21262 0.107808 0
M  V30 1476 H 153.445 3.17037 0.784538 0
M  V30 1477 H 152.104 3.4147 -1.33393 0
M  V30 1478 H 151.752 4.99759 0.57011 0
M  V30 1479 H 151.452 5.79088 -0.996512 0
M  V30 1480 H 152.976 6.10485 -0.118534 0
M  V30 1481 H 154.39 5.27952 -2.23472 0
M  V30 1482 H 152.787 5.18553 -3.02031 0
M  V30 1483 H 153.857 3.77224 -3.04681 0
M  V30 1484 N 155.201 0.870884 1.31352 0
M  V30 1485 C 156.149 0.316445 2.30437 0
M  V30 1486 C 157.143 -0.568965 1.59559 0
M  V30 1487 O 158.349 -0.454964 1.74155 0
M  V30 1488 H 154.724 0.0836521 0.747333 0
M  V30 1489 H 156.695 1.16606 2.74673 0
M  V30 1490 C 155.444 -0.46635 3.44558 0
M  V30 1491 H 154.767 0.205687 3.99271 0
M  V30 1492 H 156.207 -0.819614 4.16003 0
M  V30 1493 C 154.666 -1.65797 2.9328 0
M  V30 1494 O 155.196 -2.75728 2.92125 0
M  V30 1495 N 153.402 -1.49041 2.4947 0
M  V30 1496 H 152.949 -0.59612 2.50608 0
M  V30 1497 H 152.907 -2.28911 2.15516 0
M  V30 1498 N 156.679 -1.44442 0.630414 0
M  V30 1499 C 158.09 -1.85434 0.217063 0
M  V30 1500 C 158.441 -1.52748 -1.23136 0
M  V30 1501 O 157.566 -0.965205 -1.93682 0
M  V30 1502 C 158.161 -3.36581 0.387168 0
M  V30 1503 C 156.72 -3.76389 0.0283297 0
M  V30 1504 C 155.867 -2.68296 0.700889 0
M  V30 1505 H 158.818 -1.34919 0.83562 0
M  V30 1506 H 158.839 -3.78657 -0.374086 0
M  V30 1507 H 158.351 -3.60339 1.44144 0
M  V30 1508 H 156.452 -3.58246 -1.02423 0
M  V30 1509 H 156.565 -4.77095 0.437892 0
M  V30 1510 H 154.929 -2.54335 0.136267 0
M  V30 1511 H 155.712 -2.94887 1.75774 0
M  V30 1512 N 158.157 -0.370918 -1.53173 0
M  V30 1513 C 159.434 0.273754 -1.93675 0
M  V30 1514 C 159.814 1.65938 -1.3049 0
M  V30 1515 O 159.162 2.23698 -0.465999 0
M  V30 1516 C 159.372 0.318602 -3.47543 0
M  V30 1517 C 160.72 0.556392 -4.20939 0
M  V30 1518 O 161.744 0.399587 -3.53952 0
M  V30 1519 O 160.603 0.862133 -5.39657 0
M  V30 1520 H 157.697 0.165448 -0.810281 0
M  V30 1521 H 160.243 -0.42409 -1.64315 0
M  V30 1522 H 159.015 -0.652687 -3.85818 0
M  V30 1523 H 158.638 1.06212 -3.83151 0
M  V30 1524 N 159.635 1.57281 -0.100228 0
M  V30 1525 C 160.582 2.14305 0.856858 0
M  V30 1526 C 161.552 1.06296 1.27634 0
M  V30 1527 O 162.737 1.34109 1.35718 0
M  V30 1528 C 159.877 2.73184 2.10866 0
M  V30 1529 C 158.99 3.95442 1.73925 0
M  V30 1530 C 158.125 4.42468 2.93931 0
M  V30 1531 C 157.164 5.57303 2.5314 0
M  V30 1532 N 156.301 5.99158 3.65997 0
M  V30 1533 H 161.141 2.95772 0.363726 0
M  V30 1534 H 158.678 1.46139 0.167858 0
M  V30 1535 H 160.636 3.05442 2.84185 0
M  V30 1536 H 159.266 1.94437 2.57671 0
M  V30 1537 H 158.318 3.69464 0.905554 0
M  V30 1538 H 159.63 4.78769 1.39935 0
M  V30 1539 H 158.784 4.76537 3.75496 0
M  V30 1540 H 157.523 3.58052 3.31134 0
M  V30 1541 H 156.528 5.22857 1.70003 0
M  V30 1542 H 157.753 6.43471 2.17075 0
M  V30 1543 H 155.699 5.17687 4.02909 0
M  V30 1544 H 155.616 6.77295 3.35869 0
M  V30 1545 H 156.884 6.3786 4.48057 0
M  V30 1546 N 161.113 -0.173488 1.56642 0
M  V30 1547 C 162.529 -0.525174 1.50712 0
M  V30 1548 C 162.729 -1.8476 0.804107 0
M  V30 1549 O 161.785 -2.49869 0.363574 0
M  V30 1550 C 163.098 -0.559937 2.95441 0
M  V30 1551 C 164.646 -0.647288 3.06234 0
M  V30 1552 C 165.121 -0.712963 4.52417 0
M  V30 1553 N 166.612 -0.775911 4.56655 0
M  V30 1554 C 167.347 -0.847264 5.67106 0
M  V30 1555 N 166.843 -0.879585 6.87194 0
M  V30 1556 N 168.636 -0.886117 5.55071 0
M  V30 1557 H 160.787 0.693681 2.00753 0
M  V30 1558 H 163.05 0.249841 0.914485 0
M  V30 1559 H 162.756 0.343049 3.50023 0
M  V30 1560 H 162.63 -1.40718 3.49969 0
M  V30 1561 H 165.017 -1.5407 2.51687 0
M  V30 1562 H 165.098 0.226586 2.54794 0
M  V30 1563 H 164.742 0.176183 5.07594 0
M  V30 1564 H 164.672 -1.60295 5.0161 0
M  V30 1565 H 167.163 -0.759304 3.70193 0
M  V30 1566 H 167.476 -0.935144 7.67121 0
M  V30 1567 H 165.821 -0.847898 6.89808 0
M  V30 1568 H 169.012 -0.857853 4.60172 0
M  V30 1569 H 169.185 -0.938263 6.41171 0
M  V30 1570 N 162.591 -1.51276 -0.441967 0
M  V30 1571 C 163.816 -1.67799 -1.21895 0
M  V30 1572 C 164.241 -0.372864 -1.84367 0
M  V30 1573 O 163.599 0.666501 -1.68604 0
M  V30 1574 C 163.647 -2.79199 -2.28211 0
M  V30 1575 O 162.751 -2.42479 -3.33583 0
M  V30 1576 H 162.092 -0.559649 -0.357336 0
M  V30 1577 H 164.622 -1.97815 -0.522522 0
M  V30 1578 H 164.632 -3.03146 -2.73069 0
M  V30 1579 H 163.307 -3.73906 -1.82118 0
M  V30 1580 H 161.884 -2.29087 -2.94234 0
M  V30 1581 N 164.069 0.697108 -1.41344 0
M  V30 1582 C 165.002 1.82134 -1.37486 0
M  V30 1583 C 165.98 1.60784 -0.242351 0
M  V30 1584 O 167.164 1.83553 -0.429012 0
M  V30 1585 C 164.291 3.18788 -1.14421 0
M  V30 1586 C 163.337 3.58932 -2.3037 0
M  V30 1587 S 164.17 3.63916 -3.92843 0
M  V30 1588 C 165.326 5.03298 -3.72078 0
M  V30 1589 H 165.559 1.85129 -2.32625 0
M  V30 1590 H 163.092 0.865671 -1.2785 0
M  V30 1591 H 165.05 3.97677 -1.018 0
M  V30 1592 H 163.711 3.13404 -0.20905 0
M  V30 1593 H 162.904 4.58202 -2.09922 0
M  V30 1594 H 162.506 2.87347 -2.39391 0
M  V30 1595 H 164.798 5.90753 -3.31688 0
M  V30 1596 H 165.741 5.28788 -4.70945 0
M  V30 1597 H 166.149 4.74764 -3.05384 0
M  V30 1598 N 165.547 1.27147 0.931209 0
M  V30 1599 C 166.793 1.14455 1.68141 0
M  V30 1600 C 167.148 -0.307172 1.89932 0
M  V30 1601 O 166.441 -1.22158 1.47607 0
M  V30 1602 C 166.635 1.8579 3.05314 0
M  V30 1603 C 166.464 3.3775 2.96909 0
M  V30 1604 C 165.234 4.07062 2.99381 0
M  V30 1605 C 167.432 4.33783 2.76291 0
M  V30 1606 N 165.414 5.45618 2.8138 0
M  V30 1607 C 166.785 5.59582 2.6696 0
M  V30 1608 C 168.84 4.23915 2.61152 0
M  V30 1609 C 167.543 6.76639 2.44033 0
M  V30 1610 C 169.569 5.40689 2.39602 0
M  V30 1611 C 168.931 6.65443 2.3101 0
M  V30 1612 H 165.03 0.473667 0.622225 0
M  V30 1613 H 167.614 1.60568 1.10118 0
M  V30 1614 H 165.785 1.42138 3.61457 0
M  V30 1615 H 167.517 1.65634 3.69253 0
M  V30 1616 H 164.272 3.585 3.09475 0
M  V30 1617 H 164.696 6.184 2.75519 0
M  V30 1618 H 169.338 3.28189 2.66555 0
M  V30 1619 H 167.056 7.72451 2.3737 0
M  V30 1620 H 170.642 5.34932 2.28778 0
M  V30 1621 H 169.522 7.54277 2.14558 0
M  V30 1622 N 167.025 -1.13721 1.09112 0
M  V30 1623 C 167.955 -2.21148 0.749385 0
M  V30 1624 C 168.936 -1.6792 -0.271475 0
M  V30 1625 O 170.121 -1.93693 -0.140251 0
M  V30 1626 C 167.251 -3.46905 0.165659 0
M  V30 1627 C 166.205 -4.13203 1.11567 0
M  V30 1628 C 165.531 -5.33248 0.393809 0
M  V30 1629 C 166.831 -4.60912 2.45678 0
M  V30 1630 H 168.525 -2.4999 1.64758 0
M  V30 1631 H 166.071 -1.20156 0.793626 0
M  V30 1632 H 168.024 -4.21313 -0.085466 0
M  V30 1633 H 166.748 -3.17449 -0.767714 0
M  V30 1634 H 165.407 -3.40758 1.35202 0
M  V30 1635 H 165.055 -5.00054 -0.543599 0
M  V30 1636 H 164.755 -5.78552 1.02721 0
M  V30 1637 H 166.279 -6.10413 0.150908 0
M  V30 1638 H 167.693 -5.26759 2.26269 0
M  V30 1639 H 166.09 -5.16944 3.04776 0
M  V30 1640 H 167.16 -3.75603 3.06677 0
M  V30 1641 N 168.503 -0.877838 -1.30888 0
M  V30 1642 C 169.466 -0.344265 -2.266 0
M  V30 1643 C 170.466 0.50922 -1.52524 0
M  V30 1644 O 171.656 0.317398 -1.71284 0
M  V30 1645 C 168.788 0.510198 -3.37061 0
M  V30 1646 H 169.981 -1.1893 -2.7531 0
M  V30 1647 H 167.534 -0.654088 -1.41956 0
M  V30 1648 H 168.269 1.37612 -2.93655 0
M  V30 1649 H 168.054 -0.101047 -3.9197 0
M  V30 1650 H 169.544 0.875537 -4.08319 0
M  V30 1651 N 169.982 1.44106 -0.638065 0
M  V30 1652 C 171.259 1.95453 -0.0759321 0
M  V30 1653 C 171.639 1.57984 1.40015 0
M  V30 1654 O 170.987 0.857361 2.11806 0
M  V30 1655 C 171.197 3.47655 -0.306132 0
M  V30 1656 C 172.545 4.24114 -0.203008 0
M  V30 1657 O 173.569 3.55405 -0.237871 0
M  V30 1658 O 172.428 5.46381 -0.113827 0
M  V30 1659 H 169.522 0.826797 0.0183332 0
M  V30 1660 H 172.068 1.54122 -0.710251 0
M  V30 1661 H 170.84 3.68 -1.3301 0
M  V30 1662 H 170.463 3.95949 0.361991 0
M  V30 1663 N 171.46 0.379036 1.52974 0
M  V30 1664 C 172.407 -0.461048 2.26148 0
M  V30 1665 C 173.377 -1.06637 1.27349 0
M  V30 1666 O 174.562 -1.09633 1.56157 0
M  V30 1667 C 171.702 -1.58782 3.06402 0
M  V30 1668 C 170.815 -1.00636 4.20115 0
M  V30 1669 C 169.95 -2.10334 4.87784 0
M  V30 1670 C 168.989 -1.49724 5.93506 0
M  V30 1671 N 168.126 -2.5331 6.54812 0
M  V30 1672 H 172.966 0.169429 2.97518 0
M  V30 1673 H 170.503 0.0953806 1.4679 0
M  V30 1674 H 172.461 -2.25174 3.51215 0
M  V30 1675 H 171.091 -2.18876 2.37261 0
M  V30 1676 H 170.143 -0.232332 3.7969 0
M  V30 1677 H 171.455 -0.523343 4.96047 0
M  V30 1678 H 170.609 -2.84519 5.35849 0
M  V30 1679 H 169.348 -2.61992 4.11353 0
M  V30 1680 H 168.353 -0.740598 5.44789 0
M  V30 1681 H 169.578 -0.988732 6.71864 0
M  V30 1682 H 167.524 -3.04156 5.81227 0
M  V30 1683 H 167.441 -2.09734 7.26325 0
M  V30 1684 H 168.709 -3.27155 7.07524 0
M  V30 1685 N 172.938 -1.57226 0.108567 0
M  V30 1686 C 174.166 -1.99179 -0.559954 0
M  V30 1687 C 174.581 -0.988022 -1.60884 0
M  V30 1688 O 173.938 0.0205512 -1.82488 0
M  V30 1689 C 173.989 -3.41159 -1.19552 0
M  V30 1690 O 173.71 -4.37694 -0.188577 0
M  V30 1691 C 175.211 -3.98188 -1.94837 0
M  V30 1692 H 172.431 -0.654228 -0.149088 0
M  V30 1693 H 174.975 -2.03598 0.19183 0
M  V30 1694 H 173.13 -3.37711 -1.89815 0
M  V30 1695 H 173.544 -5.20469 -0.649014 0
M  V30 1696 H 175.018 -4.99644 -2.34648 0
M  V30 1697 H 175.495 -3.3675 -2.81951 0
M  V30 1698 H 176.101 -4.0515 -1.2936 0
M  V30 1699 N 174.416 0.165178 -1.56732 0
M  V30 1700 C 175.693 0.908443 -1.73224 0
M  V30 1701 C 176.073 2.0013 -0.67165 0
M  V30 1702 O 175.421 2.26353 0.31253 0
M  V30 1703 C 175.631 1.46756 -3.16644 0
M  V30 1704 C 176.979 1.93809 -3.77787 0
M  V30 1705 O 178.003 1.56537 -3.1996 0
M  V30 1706 O 176.862 2.62486 -4.79336 0
M  V30 1707 H 173.956 0.428025 -0.707618 0
M  V30 1708 H 176.502 0.152526 -1.69013 0
M  V30 1709 H 175.274 0.68129 -3.85323 0
M  V30 1710 H 174.897 2.28749 -3.25207 0
M  V30 1711 N 175.894 1.51508 0.433938 0
M  V30 1712 C 176.826 1.69266 1.54537 0
M  V30 1713 C 177.839 0.573276 1.52373 0
M  V30 1714 O 179.028 0.847698 1.57087 0
M  V30 1715 C 176.128 1.69524 2.93453 0
M  V30 1716 C 175.301 2.98101 3.20085 0
M  V30 1717 C 174.36 2.90502 4.38742 0
M  V30 1718 O 173.386 3.64442 4.3723 0
M  V30 1719 N 174.588 2.06586 5.42496 0
M  V30 1720 H 177.353 2.65145 1.39708 0
M  V30 1721 H 174.914 1.49437 0.622922 0
M  V30 1722 H 176.906 1.62004 3.70859 0
M  V30 1723 H 175.476 0.812245 3.01863 0
M  V30 1724 H 174.696 3.19464 2.30947 0
M  V30 1725 H 175.984 3.83207 3.34708 0
M  V30 1726 H 175.382 1.45896 5.46563 0
M  V30 1727 H 173.939 2.04943 6.18742 0
M  V30 1728 N 177.372 -0.689602 1.41712 0
M  V30 1729 C 178.783 -1.26973 1.36875 0
M  V30 1730 C 179.134 -1.96124 0.054748 0
M  V30 1731 O 178.259 -1.99141 -0.84687 0
M  V30 1732 C 178.854 -2.30912 2.47922 0
M  V30 1733 C 177.413 -2.84486 2.46464 0
M  V30 1734 C 176.56 -1.58603 2.27465 0
M  V30 1735 H 179.511 -0.48396 1.51141 0
M  V30 1736 H 179.532 -3.12331 2.17323 0
M  V30 1737 H 179.044 -1.80554 3.43543 0
M  V30 1738 H 177.145 -3.39005 1.54617 0
M  V30 1739 H 177.258 -3.34511 3.42986 0
M  V30 1740 H 175.622 -1.84632 1.75451 0
M  V30 1741 H 176.405 -1.10233 3.25121 0
M  V30 1742 N 178.85 -1.27639 -0.924453 0
M  V30 1743 C 180.096 -1.14336 -1.67497 0
M  V30 1744 C 180.429 0.309465 -1.91718 0
M  V30 1745 O 179.704 1.22608 -1.50989 0
M  V30 1746 C 179.987 -1.93096 -3.0395 0
M  V30 1747 C 179.84 -3.46381 -2.8695 0
M  V30 1748 C 181.159 -1.73798 -4.0433 0
M  V30 1749 H 178.278 -0.416728 -0.607871 0
M  V30 1750 H 180.92 -1.56832 -1.07256 0
M  V30 1751 H 179.07 -1.56982 -3.55372 0
M  V30 1752 H 180.742 -3.92343 -2.42621 0
M  V30 1753 H 178.985 -3.72557 -2.22225 0
M  V30 1754 H 179.656 -3.96735 -3.83804 0
M  V30 1755 H 182.132 -2.05293 -3.61931 0
M  V30 1756 H 181.008 -2.31294 -4.97789 0
M  V30 1757 H 181.269 -0.686725 -4.36734 0
M  V30 1758 N 180.328 1.1314 -1.09713 0
M  V30 1759 C 181.553 1.88862 -0.857081 0
M  V30 1760 C 181.978 1.78729 0.586304 0
M  V30 1761 O 181.336 1.13692 1.41222 0
M  V30 1762 C 181.384 3.36325 -1.30069 0
M  V30 1763 O 180.488 4.09815 -0.461007 0
M  V30 1764 H 179.829 0.587108 -0.310162 0
M  V30 1765 H 182.359 1.43129 -1.46203 0
M  V30 1766 H 182.369 3.87157 -1.28738 0
M  V30 1767 H 181.044 3.43017 -2.35185 0
M  V30 1768 H 179.621 3.68986 -0.538888 0
M  V30 1769 N 181.806 0.884767 1.30421 0
M  V30 1770 C 182.754 0.340869 2.30089 0
M  V30 1771 C 183.748 -0.55201 1.60154 0
M  V30 1772 O 184.954 -0.436467 1.74628 0
M  V30 1773 H 181.329 0.0915739 0.746404 0
M  V30 1774 H 183.3 1.19513 2.73421 0
M  V30 1775 C 182.049 -0.429779 3.45034 0
M  V30 1776 H 181.372 0.248024 3.9903 0
M  V30 1777 H 182.812 -0.775445 4.16849 0
M  V30 1778 C 181.271 -1.62677 2.95022 0
M  V30 1779 O 181.801 -2.72614 2.95033 0
M  V30 1780 N 180.007 -1.46387 2.51036 0
M  V30 1781 H 179.554 -0.569506 2.51226 0
M  V30 1782 H 179.512 -2.26612 2.17932 0
M  V30 1783 N 183.284 -1.43765 0.645699 0
M  V30 1784 C 184.531 -2.01898 0.15604 0
M  V30 1785 C 184.859 -1.50887 -1.22733 0
M  V30 1786 O 184.114 -0.689271 -1.8316 0
M  V30 1787 C 184.413 -3.57238 0.107679 0
M  V30 1788 C 184.079 -4.27564 1.43178 0
M  V30 1789 C 182.741 -4.46492 1.7944 0
M  V30 1790 C 185.093 -4.67454 2.30513 0
M  V30 1791 C 182.421 -5.02573 3.02716 0
M  V30 1792 C 184.773 -5.24901 3.53074 0
M  V30 1793 C 183.437 -5.42046 3.89541 0
M  V30 1794 H 182.707 -0.738797 0.057099 0
M  V30 1795 H 185.354 -1.72341 0.834912 0
M  V30 1796 H 183.659 -3.86293 -0.654618 0
M  V30 1797 H 185.356 -3.99965 -0.287938 0
M  V30 1798 H 181.946 -4.13171 1.13963 0
M  V30 1799 H 186.13 -4.5253 2.0379 0
M  V30 1800 H 181.386 -5.14033 3.31028 0
M  V30 1801 H 185.56 -5.54758 4.20971 0
M  V30 1802 H 183.187 -5.85268 4.85145 0
M  V30 1803 N 184.763 -0.387143 -1.52771 0
M  V30 1804 C 185.696 0.493123 -2.22808 0
M  V30 1805 C 186.674 1.0658 -1.22798 0
M  V30 1806 O 187.858 1.11785 -1.51777 0
M  V30 1807 C 184.985 1.68238 -2.93962 0
M  V30 1808 C 184.031 1.23515 -4.08223 0
M  V30 1809 S 184.864 0.21848 -5.35054 0
M  V30 1810 C 186.02 1.41357 -6.09729 0
M  V30 1811 H 186.253 -0.101625 -2.97126 0
M  V30 1812 H 183.786 -0.171323 -1.53447 0
M  V30 1813 H 185.744 2.36443 -3.35567 0
M  V30 1814 H 184.405 2.24842 -2.19328 0
M  V30 1815 H 183.598 2.12304 -4.57103 0
M  V30 1816 H 183.2 0.632044 -3.68621 0
M  V30 1817 H 185.492 2.34101 -6.3577 0
M  V30 1818 H 186.435 0.965736 -7.01484 0
M  V30 1819 H 186.843 1.6294 -5.40473 0
M  V30 1820 N 186.241 1.57166 -0.116904 0
M  V30 1821 C 187.489 1.94737 0.540533 0
M  V30 1822 C 187.81 1.00096 1.67349 0
M  V30 1823 O 187.08 0.0568854 1.95817 0
M  V30 1824 H 185.66 0.718981 0.202669 0
M  V30 1825 H 188.322 1.94017 -0.185353 0
M  V30 1826 H 187.418 2.97719 0.936483 0
M  V30 1827 N 187.719 -0.156864 1.56817 0
M  V30 1828 C 188.966 -0.871125 1.82805 0
M  V30 1829 C 189.294 -1.81611 0.696262 0
M  V30 1830 O 188.549 -1.93141 -0.315459 0
M  V30 1831 C 188.848 -1.68737 3.1506 0
M  V30 1832 C 188.514 -0.890045 4.42028 0
M  V30 1833 C 187.176 -0.670042 4.76512 0
M  V30 1834 C 189.528 -0.331769 5.20143 0
M  V30 1835 C 186.856 0.119104 5.86579 0
M  V30 1836 C 189.208 0.444365 6.31037 0
M  V30 1837 C 187.872 0.675035 6.64078 0
M  V30 1838 H 187.142 -0.318767 0.668931 0
M  V30 1839 H 189.789 -0.135274 1.91022 0
M  V30 1840 H 188.094 -2.49304 3.0225 0
M  V30 1841 H 189.791 -2.24331 3.3238 0
M  V30 1842 H 186.381 -1.07157 4.14988 0
M  V30 1843 H 190.565 -0.489043 4.93885 0
M  V30 1844 H 185.821 0.307417 6.10627 0
M  V30 1845 H 189.995 0.884139 6.90765 0
M  V30 1846 H 187.622 1.28839 7.49203 0
M  V30 1847 N 189.197 -1.51736 -0.425897 0
M  V30 1848 C 190.445 -1.64644 -1.17204 0
M  V30 1849 C 190.766 -0.370486 -1.91448 0
M  V30 1850 O 190.036 0.614088 -1.86026 0
M  V30 1851 H 188.616 -0.606819 -0.435638 0
M  V30 1852 H 191.278 -1.88713 -0.487177 0
M  V30 1853 H 190.374 -2.47958 -1.89534 0
M  V30 1854 N 190.675 0.682077 -1.42076 0
M  V30 1855 C 191.924 1.43786 -1.41451 0
M  V30 1856 C 192.237 1.95574 -0.0317074 0
M  V30 1857 O 193.443 2.71326 0.0971462 0
M  V30 1858 C 191.899 2.60071 -2.48779 0
M  V30 1859 C 191.507 2.15013 -3.93031 0
M  V30 1860 C 193.251 3.37626 -2.57311 0
M  V30 1861 C 191.158 3.28336 -4.91883 0
M  V30 1862 H 190.088 0.540143 -0.526082 0
M  V30 1863 H 192.739 0.739157 -1.67955 0
M  V30 1864 H 191.121 3.32275 -2.15429 0
M  V30 1865 H 192.295 1.5001 -4.35699 0
M  V30 1866 H 190.61 1.50416 -3.88284 0
M  V30 1867 H 193.207 4.22012 -3.28345 0
M  V30 1868 H 193.55 3.83727 -1.61429 0
M  V30 1869 H 194.083 2.72488 -2.89819 0
M  V30 1870 H 190.822 2.87234 -5.89217 0
M  V30 1871 H 190.342 3.92145 -4.53853 0
M  V30 1872 H 192.021 3.93913 -5.13265 0
M  V30 1873 N 192.153 1.28127 0.917671 0
M  V30 1874 C 193.101 1.11569 2.04096 0
M  V30 1875 C 194.095 0.0360242 1.69362 0
M  V30 1876 O 195.301 0.194501 1.78946 0
M  V30 1877 H 191.676 0.344097 0.668656 0
M  V30 1878 H 193.647 2.06711 2.15205 0
M  V30 1879 C 192.396 0.790197 3.38602 0
M  V30 1880 H 191.719 1.61293 3.6582 0
M  V30 1881 H 193.159 0.714271 4.1794 0
M  V30 1882 C 191.618 -0.505897 3.3308 0
M  V30 1883 O 192.148 -1.53736 3.71117 0
M  V30 1884 N 190.354 -0.505193 2.86175 0
M  V30 1885 H 189.901 0.334621 2.55417 0
M  V30 1886 H 189.859 -1.37243 2.82863 0
M  V30 1887 N 193.631 -1.12557 1.10312 0
M  V30 1888 C 194.578 -2.18247 0.750781 0
M  V30 1889 C 195.548 -1.63853 -0.272293 0
M  V30 1890 O 196.733 -1.90195 -0.151862 0
M  V30 1891 C 193.873 -3.44591 0.187379 0
M  V30 1892 C 192.986 -4.13046 1.2656 0
M  V30 1893 C 192.121 -5.27034 0.663978 0
M  V30 1894 C 191.16 -5.87353 1.72287 0
M  V30 1895 N 190.297 -6.92757 1.1416 0
M  V30 1896 H 195.137 -2.47732 1.65628 0
M  V30 1897 H 192.674 -1.21629 0.827337 0
M  V30 1898 H 194.632 -4.16904 -0.157148 0
M  V30 1899 H 193.262 -3.15527 -0.681355 0
M  V30 1900 H 192.314 -3.38924 1.72727 0
M  V30 1901 H 193.626 -4.53947 2.06721 0
M  V30 1902 H 192.78 -6.06104 0.268824 0
M  V30 1903 H 191.519 -4.87407 -0.169082 0
M  V30 1904 H 190.524 -5.06971 2.12746 0
M  V30 1905 H 191.749 -6.29051 2.55875 0
M  V30 1906 H 189.695 -6.5517 0.329984 0
M  V30 1907 H 189.612 -7.3225 1.88007 0
M  V30 1908 H 190.88 -7.75658 0.772956 0
M  V30 1909 N 195.109 -0.891671 -1.2995 0
M  V30 1910 C 196.334 -0.527932 -2.00568 0
M  V30 1911 C 196.759 0.877969 -1.66353 0
M  V30 1912 O 196.117 1.58301 -0.883762 0
M  V30 1913 C 196.165 -0.717745 -3.53385 0
M  V30 1914 O 195.269 0.233376 -4.11739 0
M  V30 1915 H 194.61 -0.20722 -0.630837 0
M  V30 1916 H 197.14 -1.20105 -1.65638 0
M  V30 1917 H 197.15 -0.619307 -4.03272 0
M  V30 1918 H 195.825 -1.74276 -3.77625 0
M  V30 1919 H 194.402 0.0880706 -3.72796 0
M  V30 1920 N 196.587 1.43421 -0.653314 0
M  V30 1921 C 197.836 2.01032 -0.164076 0
M  V30 1922 C 198.149 1.52147 1.22926 0
M  V30 1923 O 199.355 2.02031 1.81371 0
M  V30 1924 C 197.811 3.59082 -0.24252 0
M  V30 1925 C 197.419 4.1696 -1.63855 0
M  V30 1926 C 199.163 4.24079 0.18911 0
M  V30 1927 C 197.07 5.67304 -1.67092 0
M  V30 1928 H 196 0.751798 -0.0575769 0
M  V30 1929 H 198.651 1.6439 -0.815362 0
M  V30 1930 H 197.033 3.93125 0.476276 0
M  V30 1931 H 198.207 3.94416 -2.38271 0
M  V30 1932 H 196.522 3.64335 -2.01616 0
M  V30 1933 H 199.119 5.34381 0.184775 0
M  V30 1934 H 199.462 3.98005 1.22056 0
M  V30 1935 H 199.995 3.94918 -0.477938 0
M  V30 1936 H 196.734 5.98145 -2.68146 0
M  V30 1937 H 196.254 5.91904 -0.970014 0
M  V30 1938 H 197.933 6.31344 -1.4147 0
M  V30 1939 N 198.065 0.39524 1.52563 0
M  V30 1940 C 199.342 -0.242908 1.94086 0
M  V30 1941 C 199.722 -1.63841 1.33114 0
M  V30 1942 O 199.07 -2.22928 0.501529 0
M  V30 1943 C 199.28 -0.26327 3.48006 0
M  V30 1944 C 200.628 -0.489354 4.21771 0
M  V30 1945 O 201.652 -0.343226 3.54543 0
M  V30 1946 O 200.511 -0.776169 5.4096 0
M  V30 1947 H 197.605 -0.152536 0.812811 0
M  V30 1948 H 200.151 0.450178 1.6362 0
M  V30 1949 H 198.923 0.713985 3.84731 0
M  V30 1950 H 198.546 -1.00103 3.84792 0
M  V30 1951 N 199.544 -1.57102 0.125237 0
M  V30 1952 C 200.96 -1.57915 -0.231322 0
M  V30 1953 C 201.16 -1.13833 -1.66266 0
M  V30 1954 O 200.216 -0.828581 -2.38518 0
M  V30 1955 C 201.529 -3.00699 0.00766489 0
M  V30 1956 C 203.077 -3.12947 -0.0577483 0
M  V30 1957 C 203.552 -4.57742 0.153626 0
M  V30 1958 N 205.043 -4.63092 0.0998073 0
M  V30 1959 C 205.778 -5.72905 0.238174 0
M  V30 1960 N 205.274 -6.91445 0.433057 0
M  V30 1961 N 207.067 -5.6182 0.177308 0
M  V30 1962 H 199.218 -1.84055 1.06007 0
M  V30 1963 H 201.481 -0.850905 0.417929 0
M  V30 1964 H 201.187 -3.3726 0.997431 0
M  V30 1965 H 201.061 -3.70236 -0.721452 0
M  V30 1966 H 203.448 -2.7624 -1.03804 0
M  V30 1967 H 203.529 -2.4594 0.70335 0
M  V30 1968 H 203.173 -4.95149 1.13092 0
M  V30 1969 H 203.103 -5.22848 -0.627534 0
M  V30 1970 H 205.594 -3.77871 -0.047051 0
M  V30 1971 H 205.907 -7.70985 0.529332 0
M  V30 1972 H 204.252 -6.93415 0.469109 0
M  V30 1973 H 207.443 -4.68093 0.0259748 0
M  V30 1974 H 207.616 -6.47357 0.288582 0
M  V30 1975 N 201.022 0.148545 -1.56898 0
M  V30 1976 C 202.252 0.875118 -1.8715 0
M  V30 1977 C 202.66 1.75322 -0.711262 0
M  V30 1978 O 202.003 1.80745 0.328151 0
M  V30 1979 C 202.065 1.7844 -3.12089 0
M  V30 1980 C 201.729 1.08361 -4.43967 0
M  V30 1981 C 202.726 0.438247 -5.1805 0
M  V30 1982 C 200.411 1.07358 -4.90693 0
M  V30 1983 C 202.405 -0.20779 -6.37061 0
M  V30 1984 C 200.092 0.42373 -6.09629 0
M  V30 1985 C 201.09 -0.215829 -6.82659 0
M  V30 1986 O 200.778 -0.855378 -7.99336 0
M  V30 1987 H 200.51 0.258504 -0.624621 0
M  V30 1988 H 203.064 0.14652 -2.04877 0
M  V30 1989 H 201.294 2.55389 -2.90367 0
M  V30 1990 H 202.983 2.38279 -3.286 0
M  V30 1991 H 203.749 0.437817 -4.8302 0
M  V30 1992 H 199.628 1.5608 -4.33774 0
M  V30 1993 H 203.172 -0.70758 -6.94002 0
M  V30 1994 H 199.069 0.421822 -6.4412 0
M  V30 1995 H 199.837 -0.756892 -8.14993 0
M  V30 1996 N 202.5 1.5196 0.417844 0
M  V30 1997 C 203.746 1.65836 1.16732 0
M  V30 1998 C 204.079 0.382881 1.90388 0
M  V30 1999 O 203.354 -0.618368 1.84408 0
M  V30 2000 C 203.637 2.87466 2.16876 0
M  V30 2001 C 203.49 4.25041 1.47174 0
M  V30 2002 C 204.809 3.04613 3.17646 0
M  V30 2003 H 201.928 0.603515 0.423011 0
M  V30 2004 H 204.57 1.84494 0.454105 0
M  V30 2005 H 202.72 2.71689 2.777 0
M  V30 2006 H 204.392 4.52527 0.895376 0
M  V30 2007 H 202.635 4.26843 0.773806 0
M  V30 2008 H 203.306 5.06176 2.20204 0
M  V30 2009 H 205.782 3.1923 2.66892 0
M  V30 2010 H 204.658 3.91247 3.8499 0
M  V30 2011 H 204.919 2.17541 3.84874 0
M  V30 2012 N 203.978 -0.674533 1.42435 0
M  V30 2013 C 205.226 -1.43175 1.42637 0
M  V30 2014 C 205.547 -1.94951 0.0438992 0
M  V30 2015 O 204.817 -1.7308 -0.917607 0
M  V30 2016 H 203.397 -0.531307 0.525092 0
M  V30 2017 H 206.059 -0.797006 1.77859 0
M  V30 2018 H 205.155 -2.28463 2.12629 0
M  V30 2019 N 205.456 -1.28612 -0.910864 0
M  V30 2020 C 206.702 -1.16106 -1.66274 0
M  V30 2021 C 207.035 0.289113 -1.92036 0
M  V30 2022 O 206.31 1.21 -1.52281 0
M  V30 2023 C 206.593 -1.96309 -3.01885 0
M  V30 2024 C 206.446 -3.49405 -2.8326 0
M  V30 2025 C 207.765 -1.78076 -4.02463 0
M  V30 2026 H 204.884 -0.423152 -0.603417 0
M  V30 2027 H 207.526 -1.57961 -1.05586 0
M  V30 2028 H 205.676 -1.60742 -3.53687 0
M  V30 2029 H 207.348 -3.94894 -2.38446 0
M  V30 2030 H 205.591 -3.74893 -2.18261 0
M  V30 2031 H 206.262 -4.00784 -3.79574 0
M  V30 2032 H 208.738 -2.0912 -3.59733 0
M  V30 2033 H 207.614 -2.36561 -4.95308 0
M  V30 2034 H 207.875 -0.733008 -4.35981 0
M  V30 2035 N 206.934 1.1197 -1.10907 0
M  V30 2036 C 207.864 2.19928 -0.784473 0
M  V30 2037 C 208.845 1.6833 0.244726 0
M  V30 2038 O 210.03 1.93892 0.109418 0
M  V30 2039 C 207.16 3.46597 -0.220827 0
M  V30 2040 C 206.114 4.11376 -1.18127 0
M  V30 2041 C 205.44 5.32554 -0.478594 0
M  V30 2042 C 206.74 4.56945 -2.52979 0
M  V30 2043 H 208.434 2.47337 -1.68715 0
M  V30 2044 H 205.98 1.18879 -0.812642 0
M  V30 2045 H 207.933 4.21396 0.0184278 0
M  V30 2046 H 206.657 3.1863 0.717113 0
M  V30 2047 H 205.316 3.38564 -1.40606 0
M  V30 2048 H 204.964 5.00856 0.463976 0
M  V30 2049 H 204.664 5.76844 -1.11912 0
M  V30 2050 H 206.188 6.10096 -0.248 0
M  V30 2051 H 207.602 5.23093 -2.3462 0
M  V30 2052 H 205.999 5.1203 -3.12962 0
M  V30 2053 H 207.069 3.70676 -3.12614 0
M  V30 2054 N 208.412 0.89855 1.29475 0
M  V30 2055 C 209.689 0.443416 1.90508 0
M  V30 2056 C 210.069 -1.07685 1.81569 0
M  V30 2057 O 209.417 -1.9182 1.24166 0
M  V30 2058 C 209.627 0.956708 3.35631 0
M  V30 2059 C 210.975 0.999728 4.12663 0
M  V30 2060 O 211.999 0.904299 3.4453 0
M  V30 2061 O 210.858 1.14289 5.34416 0
M  V30 2062 H 207.952 0.138025 0.815401 0
M  V30 2063 H 210.498 0.98834 1.37949 0
M  V30 2064 H 209.27 2.00067 3.36287 0
M  V30 2065 H 208.893 0.391728 3.95666 0
M  V30 2066 N 209.89 -1.43072 0.660911 0
M  V30 2067 C 211.115 -2.06584 0.183805 0
M  V30 2068 C 211.54 -1.49257 -1.14472 0
M  V30 2069 O 210.898 -0.605528 -1.70889 0
M  V30 2070 C 210.946 -3.60418 0.114434 0
M  V30 2071 O 210.05 -4.01981 -0.921137 0
M  V30 2072 H 209.391 -0.656669 0.0983994 0
M  V30 2073 H 211.921 -1.83447 0.906006 0
M  V30 2074 H 211.931 -4.07946 -0.0663394 0
M  V30 2075 H 210.606 -4.01519 1.08422 0
M  V30 2076 H 209.183 -3.66029 -0.71253 0
M  V30 2077 N 211.368 -0.403325 -1.52352 0
M  V30 2078 C 212.278 0.432009 -2.30588 0
M  V30 2079 C 213.294 1.05884 -1.38075 0
M  V30 2080 O 214.47 1.06161 -1.71148 0
M  V30 2081 C 211.535 1.53669 -3.10784 0
M  V30 2082 C 210.596 0.933525 -4.19027 0
M  V30 2083 C 209.829 1.98557 -4.9539 0
M  V30 2084 O 210.052 3.20283 -4.71991 0
M  V30 2085 O 208.986 1.59504 -5.80381 0
M  V30 2086 H 212.812 -0.205739 -3.03002 0
M  V30 2087 H 210.397 -0.166675 -1.48467 0
M  V30 2088 H 212.279 2.17814 -3.60742 0
M  V30 2089 H 210.954 2.15915 -2.41169 0
M  V30 2090 H 209.861 0.254954 -3.7323 0
M  V30 2091 H 211.194 0.35508 -4.90918 0
M  V30 2092 N 212.846 1.57033 -0.133567 0
M  V30 2093 C 214.262 1.58035 0.222944 0
M  V30 2094 C 214.462 1.14713 1.6566 0
M  V30 2095 O 213.518 0.841218 2.38075 0
M  V30 2096 C 214.831 3.00691 -0.0236116 0
M  V30 2097 C 216.379 3.12973 0.0411512 0
M  V30 2098 C 216.854 4.57654 -0.177899 0
M  V30 2099 N 218.345 4.63033 -0.124365 0
M  V30 2100 C 219.08 5.72771 -0.268553 0
M  V30 2101 N 218.576 6.91206 -0.46972 0
M  V30 2102 N 220.369 5.61718 -0.2071 0
M  V30 2103 H 212.52 1.8349 -1.06981 0
M  V30 2104 H 214.783 0.848677 -0.422436 0
M  V30 2105 H 214.489 3.36726 -1.0153 0
M  V30 2106 H 214.363 3.70614 0.701808 0
M  V30 2107 H 216.75 2.76787 1.02338 0
M  V30 2108 H 216.831 2.45564 -0.716383 0
M  V30 2109 H 216.475 4.94542 -1.15717 0
M  V30 2110 H 216.405 5.23173 0.599797 0
M  V30 2111 H 218.896 3.7789 0.027011 0
M  V30 2112 H 219.209 7.70693 -0.570212 0
M  V30 2113 H 217.554 6.93156 -0.505876 0
M  V30 2114 H 220.745 4.68072 -0.0507986 0
M  V30 2115 H 220.918 6.47195 -0.322909 0
M  V30 2116 N 214.325 -0.140222 1.56975 0
M  V30 2117 C 215.572 -0.851687 1.83719 0
M  V30 2118 C 215.9 -1.80862 0.715485 0
M  V30 2119 O 215.155 -1.93464 -0.294956 0
M  V30 2120 C 215.454 -1.65386 3.16832 0
M  V30 2121 C 215.12 -0.843112 4.42947 0
M  V30 2122 C 213.782 -0.619464 4.77196 0
M  V30 2123 C 216.134 -0.276582 5.20466 0
M  V30 2124 C 213.462 0.181312 5.8642 0
M  V30 2125 C 215.814 0.51127 6.30531 0
M  V30 2126 C 214.478 0.745432 6.63325 0
M  V30 2127 H 213.748 -0.311654 0.672274 0
M  V30 2128 H 216.395 -0.115006 1.91154 0
M  V30 2129 H 214.7 -2.46084 3.04877 0
M  V30 2130 H 216.397 -2.20793 3.34741 0
M  V30 2131 H 212.987 -1.0275 4.16101 0
M  V30 2132 H 217.171 -0.436632 4.94376 0
M  V30 2133 H 212.427 0.372165 6.10266 0
M  V30 2134 H 216.601 0.957354 6.89788 0
M  V30 2135 H 214.228 1.36778 7.47794 0
M  V30 2136 N 215.803 -1.52179 -0.40978 0
M  V30 2137 C 217.028 -1.70347 -1.18308 0
M  V30 2138 C 217.453 -0.411887 -1.83535 0
M  V30 2139 O 216.811 0.630587 -1.6998 0
M  V30 2140 C 216.859 -2.83977 -2.22238 0
M  V30 2141 O 215.963 -2.495 -3.28365 0
M  V30 2142 H 215.304 -0.567103 -0.345384 0
M  V30 2143 H 217.834 -1.98879 -0.480445 0
M  V30 2144 H 217.844 -3.0887 -2.66577 0
M  V30 2145 H 216.519 -3.77685 -1.74146 0
M  V30 2146 H 215.096 -2.35277 -2.89308 0
M  V30 2147 N 217.281 0.66697 -1.42791 0
M  V30 2148 C 218.529 1.42417 -1.43394 0
M  V30 2149 C 218.85 1.94925 -0.0542373 0
M  V30 2150 O 218.12 1.73564 0.908415 0
M  V30 2151 H 216.7 0.528515 -0.527902 0
M  V30 2152 H 219.362 0.787562 -1.78279 0
M  V30 2153 H 218.458 2.27333 -2.13837 0
M  V30 2154 N 218.759 1.29093 0.90403 0
M  V30 2155 C 220.008 1.16187 1.64874 0
M  V30 2156 C 220.321 -0.286742 1.93487 0
M  V30 2157 O 221.527 -0.537062 2.66135 0
M  V30 2158 C 219.983 2.03177 2.97064 0
M  V30 2159 C 219.591 3.52836 2.76062 0
M  V30 2160 C 221.335 1.98984 3.74974 0
M  V30 2161 C 219.242 4.31945 4.03952 0
M  V30 2162 H 218.172 0.431246 0.618501 0
M  V30 2163 H 220.823 1.53699 1.00243 0
M  V30 2164 H 219.205 1.5853 3.62883 0
M  V30 2165 H 220.379 4.05507 2.18863 0
M  V30 2166 H 218.694 3.58656 2.11553 0
M  V30 2167 H 221.291 2.55351 4.69787 0
M  V30 2168 H 221.634 0.968815 4.0487 0
M  V30 2169 H 222.167 2.41652 3.15989 0
M  V30 2170 H 218.906 5.34667 3.79225 0
M  V30 2171 H 218.426 3.84045 4.60727 0
M  V30 2172 H 220.105 4.42379 4.72133 0
M  V30 2173 N 220.237 -1.11381 1.11499 0
M  V30 2174 C 221.184 -2.17439 0.773887 0
M  V30 2175 C 222.154 -1.64132 -0.254899 0
M  V30 2176 O 223.339 -1.90345 -0.13168 0
M  V30 2177 C 220.479 -3.44373 0.223917 0
M  V30 2178 C 219.592 -4.1168 1.30934 0
M  V30 2179 C 218.727 -5.263 0.71984 0
M  V30 2180 C 217.766 -5.85493 1.78507 0
M  V30 2181 N 216.903 -6.91507 1.21502 0
M  V30 2182 H 221.743 -2.45962 1.68246 0
M  V30 2183 H 219.28 -1.20744 0.840191 0
M  V30 2184 H 221.238 -4.17047 -0.112921 0
M  V30 2185 H 219.868 -3.16232 -0.647851 0
M  V30 2186 H 218.92 -3.37073 1.76312 0
M  V30 2187 H 220.232 -4.51729 2.11524 0
M  V30 2188 H 219.386 -6.05785 0.333094 0
M  V30 2189 H 218.125 -4.87559 -0.117377 0
M  V30 2190 H 217.13 -5.04686 2.18111 0
M  V30 2191 H 218.355 -6.26301 2.62533 0
M  V30 2192 H 216.301 -6.54783 0.399455 0
M  V30 2193 H 216.218 -7.30214 1.95763 0
M  V30 2194 H 217.486 -7.74795 0.855181 0
M  V30 2195 N 221.715 -0.905404 -1.28997 0
M  V30 2196 C 222.961 -0.535039 -1.95615 0
M  V30 2197 C 223.294 0.917404 -1.71165 0
M  V30 2198 O 222.569 1.65123 -1.02785 0
M  V30 2199 C 222.852 -0.834918 -3.50287 0
M  V30 2200 C 222.705 -2.33948 -3.84172 0
M  V30 2201 C 224.024 -0.325318 -4.38896 0
M  V30 2202 H 221.143 -0.195861 -0.710498 0
M  V30 2203 H 223.785 -1.13313 -1.52513 0
M  V30 2204 H 221.935 -0.325904 -3.87131 0
M  V30 2205 H 223.607 -2.91847 -3.57243 0
M  V30 2206 H 221.85 -2.79789 -3.31513 0
M  V30 2207 H 222.521 -2.49987 -4.92149 0
M  V30 2208 H 224.997 -0.761256 -4.09077 0
M  V30 2209 H 223.873 -0.564295 -5.45992 0
M  V30 2210 H 224.134 0.774144 -4.35269 0
M  V30 2211 N 223.193 1.4272 -0.668489 0
M  V30 2212 C 224.423 2.05668 -0.196063 0
M  V30 2213 C 224.831 1.5028 1.14946 0
M  V30 2214 O 224.174 0.6348 1.72383 0
M  V30 2215 C 224.236 3.59469 -0.0468879 0
M  V30 2216 C 223.9 4.37518 -1.32012 0
M  V30 2217 C 224.897 4.68584 -2.25222 0
M  V30 2218 C 222.582 4.77266 -1.56596 0
M  V30 2219 C 224.576 5.38326 -3.41297 0
M  V30 2220 C 222.263 5.4675 -2.72962 0
M  V30 2221 C 223.261 5.77204 -3.65137 0
M  V30 2222 O 222.949 6.45264 -4.79468 0
M  V30 2223 H 222.681 0.669382 -0.0943599 0
M  V30 2224 H 225.235 1.83954 -0.913788 0
M  V30 2225 H 223.465 3.79817 0.726357 0
M  V30 2226 H 225.154 4.04071 0.384852 0
M  V30 2227 H 225.92 4.38382 -2.07477 0
M  V30 2228 H 221.799 4.52959 -0.857249 0
M  V30 2229 H 225.343 5.62014 -4.13263 0
M  V30 2230 H 221.24 5.76369 -2.90635 0
M  V30 2231 H 222.008 6.63753 -4.78931 0
M  V30 2232 N 224.671 0.411399 1.52136 0
M  V30 2233 C 225.603 -0.448386 2.24771 0
M  V30 2234 C 226.616 -1.00828 1.27818 0
M  V30 2235 O 227.805 -0.906841 1.53749 0
M  V30 2236 C 224.905 -1.63636 2.96777 0
M  V30 2237 C 224.078 -1.19995 4.20618 0
M  V30 2238 C 223.137 -2.25509 4.75428 0
M  V30 2239 O 222.163 -1.86007 5.3795 0
M  V30 2240 N 223.365 -3.577 4.57199 0
M  V30 2241 H 226.13 0.174025 2.99194 0
M  V30 2242 H 223.691 0.238897 1.60128 0
M  V30 2243 H 225.683 -2.33793 3.30338 0
M  V30 2244 H 224.253 -2.16465 2.25526 0
M  V30 2245 H 223.473 -0.326421 3.92846 0
M  V30 2246 H 224.761 -0.885365 5.01038 0
M  V30 2247 H 224.159 -3.92543 4.07341 0
M  V30 2248 H 222.716 -4.23827 4.95191 0
M  V30 2249 N 226.149 -1.5696 0.141893 0
M  V30 2250 C 227.397 -1.95573 -0.509484 0
M  V30 2251 C 227.718 -1.02746 -1.65736 0
M  V30 2252 O 226.988 -0.0880311 -1.95702 0
M  V30 2253 H 225.568 -0.722115 -0.191205 0
M  V30 2254 H 228.23 -1.93697 0.216196 0
M  V30 2255 H 227.326 -2.99171 -0.889 0
M  V30 2256 N 227.627 0.131896 -1.57047 0
M  V30 2257 C 229.043 0.485031 -1.52051 0
M  V30 2258 C 229.243 1.82563 -0.85281 0
M  V30 2259 O 228.299 2.48817 -0.429694 0
M  V30 2260 C 229.612 0.481409 -2.96821 0
M  V30 2261 C 231.16 0.565868 -3.07842 0
M  V30 2262 C 231.635 0.592762 -4.54148 0
M  V30 2263 N 233.126 0.654564 -4.58552 0
M  V30 2264 C 233.861 0.696608 -5.69153 0
M  V30 2265 N 233.357 0.697078 -6.89284 0
M  V30 2266 N 235.15 0.738639 -5.57226 0
M  V30 2267 H 227.301 -0.746664 -1.98843 0
M  V30 2268 H 229.564 -0.273999 -0.90754 0
M  V30 2269 H 229.27 -0.435731 -3.4899 0
M  V30 2270 H 229.144 1.3139 -3.53577 0
M  V30 2271 H 231.531 1.47343 -2.55684 0
M  V30 2272 H 231.612 -0.29406 -2.54104 0
M  V30 2273 H 231.256 -0.310701 -5.06949 0
M  V30 2274 H 231.186 1.46939 -5.05684 0
M  V30 2275 H 233.677 0.660887 -3.72076 0
M  V30 2276 H 233.99 0.731426 -7.69331 0
M  V30 2277 H 232.335 0.66471 -6.91814 0
M  V30 2278 H 235.526 0.735545 -4.62285 0
M  V30 2279 H 235.699 0.767938 -6.43434 0
M  V30 2280 N 229.106 1.52395 0.401703 0
M  V30 2281 C 230.354 1.66488 1.14569 0
M  V30 2282 C 230.675 0.400897 1.90835 0
M  V30 2283 O 229.945 -0.584415 1.8698 0
M  V30 2284 H 228.525 0.613672 0.425929 0
M  V30 2285 H 231.187 1.89464 0.457093 0
M  V30 2286 H 230.283 2.50942 1.85566 0
M  V30 2287 N 230.584 -0.659388 1.43143 0
M  V30 2288 C 231.83 -1.42145 1.44647 0
M  V30 2289 C 232.163 -1.9408 0.0681907 0
M  V30 2290 O 231.438 -1.71899 -0.910007 0
M  V30 2291 C 231.721 -2.60735 2.48373 0
M  V30 2292 C 231.574 -2.14332 3.95451 0
M  V30 2293 C 232.893 -3.62951 2.48906 0
M  V30 2294 H 230.012 -0.51552 0.526696 0
M  V30 2295 H 232.654 -0.748069 1.74654 0
M  V30 2296 H 230.804 -3.18184 2.22916 0
M  V30 2297 H 232.476 -1.61932 4.31944 0
M  V30 2298 H 230.719 -1.4576 4.08578 0
M  V30 2299 H 231.39 -2.99583 4.63631 0
M  V30 2300 H 233.866 -3.1525 2.71582 0
M  V30 2301 H 232.742 -4.43487 3.23435 0
M  V30 2302 H 233.003 -4.15126 1.52061 0
M  V30 2303 N 232.062 -1.29571 -0.897171 0
M  V30 2304 C 233.31 -1.17456 -1.64464 0
M  V30 2305 C 233.631 0.273698 -1.9307 0
M  V30 2306 O 232.901 1.18684 -1.55855 0
M  V30 2307 H 231.481 -0.431706 -0.609622 0
M  V30 2308 H 234.143 -1.62531 -1.07562 0
M  V30 2309 H 233.239 -1.72648 -2.59998 0
M  V30 2310 N 233.54 1.10788 -1.12088 0
M  V30 2311 C 234.788 1.8231 -0.872205 0
M  V30 2312 C 235.109 1.85419 0.603709 0
M  V30 2313 O 234.379 1.32963 1.43867 0
M  V30 2314 H 232.959 0.675137 -0.319686 0
M  V30 2315 H 235.621 1.34068 -1.41463 0
M  V30 2316 H 234.717 2.85955 -1.25045 0
M  V30 2317 N 235.018 0.912232 1.28515 0
M  V30 2318 C 236.266 0.543523 1.94654 0
M  V30 2319 C 236.587 -0.9155 1.72173 0
M  V30 2320 O 235.857 -1.64708 1.06058 0
M  V30 2321 H 234.437 0.198017 0.720277 0
M  V30 2322 H 237.099 1.16126 1.56527 0
M  V30 2323 H 236.195 0.736684 3.03281 0
M  V30 2324 N 236.496 -1.42363 0.676048 0
M  V30 2325 C 237.721 -2.06377 0.205705 0
M  V30 2326 C 238.146 -1.50463 -1.12883 0
M  V30 2327 O 237.504 -0.623619 -1.70237 0
M  V30 2328 C 237.552 -3.60277 0.152655 0
M  V30 2329 O 236.656 -4.02935 -0.87845 0
M  V30 2330 H 235.997 -0.655588 0.105359 0
M  V30 2331 H 238.527 -1.82475 0.925412 0
M  V30 2332 H 238.537 -4.07993 -0.0230675 0
M  V30 2333 H 237.212 -4.00346 1.12675 0
M  V30 2334 H 235.789 -3.66764 -0.673668 0
M  V30 2335 N 237.974 -0.419461 -1.51915 0
M  V30 2336 C 238.904 0.391813 -2.30189 0
M  V30 2337 C 239.885 1.03699 -1.34836 0
M  V30 2338 O 241.07 1.04403 -1.63748 0
M  V30 2339 C 238.2 1.50312 -3.13087 0
M  V30 2340 C 237.154 0.9824 -4.16573 0
M  V30 2341 C 236.48 2.18809 -4.8788 0
M  V30 2342 C 237.78 0.0292356 -5.22292 0
M  V30 2343 H 239.474 -0.26135 -2.98257 0
M  V30 2344 H 237.02 -0.127134 -1.43438 0
M  V30 2345 H 238.973 2.07773 -3.66617 0
M  V30 2346 H 237.697 2.18431 -2.42807 0
M  V30 2347 H 236.356 0.430119 -3.64068 0
M  V30 2348 H 236.004 2.85507 -4.14119 0
M  V30 2349 H 235.704 1.84615 -5.57845 0
M  V30 2350 H 237.228 2.76858 -5.44226 0
M  V30 2351 H 238.642 0.512976 -5.71 0
M  V30 2352 H 237.039 -0.2244 -5.9968 0
M  V30 2353 H 238.109 -0.912931 -4.76228 0
M  V30 2354 N 239.452 1.56882 -0.150215 0
M  V30 2355 C 240.698 1.96518 0.500834 0
M  V30 2356 C 241.031 1.03527 1.64304 0
M  V30 2357 O 240.306 0.0782751 1.94342 0
M  V30 2358 C 240.589 3.45822 1.00395 0
M  V30 2359 C 240.442 4.49591 -0.136983 0
M  V30 2360 C 241.761 3.97704 1.88467 0
M  V30 2361 H 238.88 0.714535 0.18058 0
M  V30 2362 H 241.522 1.88577 -0.232091 0
M  V30 2363 H 239.672 3.5272 1.62851 0
M  V30 2364 H 241.344 4.5477 -0.77343 0
M  V30 2365 H 239.587 4.26441 -0.795652 0
M  V30 2366 H 240.258 5.51402 0.256815 0
M  V30 2367 H 242.734 3.93304 1.35834 0
M  V30 2368 H 241.61 5.0263 2.20578 0
M  V30 2369 H 241.871 3.40252 2.82279 0
M  V30 2370 N 240.93 -0.123565 1.57115 0
M  V30 2371 C 241.878 -1.17082 2.00984 0
M  V30 2372 C 242.872 -1.43136 0.906009 0
M  V30 2373 O 244.078 -1.43152 1.09121 0
M  V30 2374 H 240.453 -0.394653 0.64012 0
M  V30 2375 H 242.424 -0.774292 2.88179 0
M  V30 2376 C 241.173 -2.49057 2.42623 0
M  V30 2377 H 240.496 -2.29846 3.27125 0
M  V30 2378 H 241.936 -3.20906 2.7712 0
M  V30 2379 C 240.395 -3.11305 1.28805 0
M  V30 2380 O 240.925 -3.97171 0.60153 0
M  V30 2381 N 239.131 -2.71111 1.04628 0
M  V30 2382 H 238.678 -2.01382 1.60634 0
M  V30 2383 H 238.636 -3.1309 0.286685 0
M  V30 2384 N 242.408 -1.52605 -0.393616 0
M  V30 2385 C 243.656 -1.67093 -1.13685 0
M  V30 2386 C 243.977 -0.411011 -1.90619 0
M  V30 2387 O 243.247 0.574491 -1.87287 0
M  V30 2388 H 241.827 -0.615923 -0.422668 0
M  V30 2389 H 244.489 -1.89704 -0.447039 0
M  V30 2390 H 243.585 -2.51922 -1.84232 0
M  V30 2391 N 243.887 0.651787 -1.4349 0
M  V30 2392 C 245.135 1.40888 -1.44897 0
M  V30 2393 C 245.456 1.94856 -0.0749086 0
M  V30 2394 O 244.726 1.74518 0.889956 0
M  V30 2395 H 243.306 0.522887 -0.533478 0
M  V30 2396 H 245.968 0.768609 -1.79104 0
M  V30 2397 H 245.064 2.25052 -2.16236 0
M  V30 2398 N 245.365 1.30045 0.890287 0
M  V30 2399 C 246.298 1.10301 1.99772 0
M  V30 2400 C 247.276 0.0121631 1.62595 0
M  V30 2401 O 248.46 0.16469 1.87779 0
M  V30 2402 C 245.587 0.681125 3.31781 0
M  V30 2403 C 244.633 1.77206 3.87944 0
M  V30 2404 S 245.466 3.37335 4.15891 0
M  V30 2405 C 246.622 2.97036 5.50927 0
M  V30 2406 H 246.855 2.04057 2.16213 0
M  V30 2407 H 244.388 1.14299 1.03804 0
M  V30 2408 H 246.346 0.444439 4.08087 0
M  V30 2409 H 245.007 -0.236981 3.13205 0
M  V30 2410 H 244.2 1.42903 4.83316 0
M  V30 2411 H 243.802 1.96275 3.18358 0
M  V30 2412 H 246.094 2.44666 6.31779 0
M  V30 2413 H 247.037 3.91296 5.90164 0
M  V30 2414 H 247.445 2.35057 5.13233 0
M  V30 2415 N 246.843 -1.10192 1.12674 0
M  V30 2416 C 247.806 -2.14786 0.799979 0
M  V30 2417 C 248.806 -1.59711 -0.18685 0
M  V30 2418 O 249.996 -1.74156 0.0392558 0
M  V30 2419 C 247.128 -3.40374 0.189228 0
M  V30 2420 H 248.321 -2.45203 1.72671 0
M  V30 2421 H 245.874 -1.25597 0.930326 0
M  V30 2422 H 246.609 -3.15577 -0.747107 0
M  V30 2423 H 246.394 -3.81637 0.899766 0
M  V30 2424 H 247.884 -4.17594 -0.0228143 0
M  V30 2425 N 248.321 -0.919034 -1.28029 0
M  V30 2426 C 249.567 -0.555757 -1.95036 0
M  V30 2427 C 249.9 0.899198 -1.72128 0
M  V30 2428 O 249.175 1.64023 -1.04531 0
M  V30 2429 C 249.458 -0.872024 -3.49382 0
M  V30 2430 C 249.311 -2.3801 -3.81669 0
M  V30 2431 C 250.63 -0.37185 -4.38526 0
M  V30 2432 H 247.749 -0.203386 -0.708381 0
M  V30 2433 H 250.391 -1.14924 -1.51303 0
M  V30 2434 H 248.541 -0.366946 -3.86763 0
M  V30 2435 H 250.213 -2.9562 -3.54128 0
M  V30 2436 H 248.456 -2.83289 -3.28526 0
M  V30 2437 H 249.127 -2.55192 -4.8947 0
M  V30 2438 H 251.603 -0.804602 -4.08247 0
M  V30 2439 H 250.479 -0.622173 -5.45362 0
M  V30 2440 H 250.74 0.727934 -4.36066 0
M  V30 2441 N 249.799 1.42003 -0.683588 0
M  V30 2442 C 251.027 2.05746 -0.218182 0
M  V30 2443 C 251.442 1.51396 1.12804 0
M  V30 2444 O 250.799 0.657303 1.70252 0
M  V30 2445 C 250.85 3.61171 -0.154131 0
M  V30 2446 O 250.571 4.13508 -1.44716 0
M  V30 2447 C 252.072 4.42042 0.333713 0
M  V30 2448 H 249.292 0.662888 -0.10402 0
M  V30 2449 H 251.836 1.81987 -0.9328 0
M  V30 2450 H 249.991 3.84012 0.511231 0
M  V30 2451 H 250.405 5.07453 -1.32632 0
M  V30 2452 H 251.879 5.51028 0.327423 0
M  V30 2453 H 252.356 4.17269 1.37053 0
M  V30 2454 H 252.962 4.24239 -0.300222 0
M  V30 2455 N 251.277 0.427512 1.51691 0
M  V30 2456 C 252.688 -0.0378867 1.86662 0
M  V30 2457 C 253.039 -1.42819 1.34525 0
M  V30 2458 O 252.164 -2.05037 0.692014 0
M  V30 2459 C 252.759 -0.0755266 3.38716 0
M  V30 2460 C 251.318 -0.485309 3.73258 0
M  V30 2461 C 250.465 0.328399 2.75349 0
M  V30 2462 H 253.416 0.64379 1.45055 0
M  V30 2463 H 253.437 -0.887056 3.70016 0
M  V30 2464 H 252.949 0.936487 3.76632 0
M  V30 2465 H 251.05 -1.50329 3.40928 0
M  V30 2466 H 251.163 -0.21693 4.78609 0
M  V30 2467 H 249.527 -0.211905 2.53817 0
M  V30 2468 H 250.31 1.3391 3.16106 0
M  V30 2469 N 252.755 -1.56801 0.158532 0
M  V30 2470 C 253.702 -2.17337 -0.776729 0
M  V30 2471 C 254.672 -1.1096 -1.23601 0
M  V30 2472 O 255.857 -1.39054 -1.30647 0
M  V30 2473 C 252.997 -2.80822 -2.00582 0
M  V30 2474 C 252.11 -4.01624 -1.59129 0
M  V30 2475 C 251.245 -4.53072 -2.77306 0
M  V30 2476 C 250.284 -5.66314 -2.32282 0
M  V30 2477 N 249.421 -6.12329 -3.43508 0
M  V30 2478 H 254.261 -2.96918 -0.253701 0
M  V30 2479 H 251.798 -1.46661 -0.113504 0
M  V30 2480 H 253.756 -3.15779 -2.72652 0
M  V30 2481 H 252.386 -2.03866 -2.50277 0
M  V30 2482 H 251.438 -3.72571 -0.767806 0
M  V30 2483 H 252.75 -4.83633 -1.2207 0
M  V30 2484 H 251.904 -4.90145 -3.57551 0
M  V30 2485 H 250.643 -3.70095 -3.17617 0
M  V30 2486 H 249.648 -5.28806 -1.5048 0
M  V30 2487 H 250.873 -6.51085 -1.93043 0
M  V30 2488 H 248.819 -5.32284 -3.83418 0
M  V30 2489 H 248.736 -6.89293 -3.105 0
M  V30 2490 H 250.004 -6.5405 -4.24075 0
M  V30 2491 N 254.233 0.115231 -1.57178 0
M  V30 2492 C 255.649 0.468877 -1.52557 0
M  V30 2493 C 255.849 1.81649 -0.872125 0
M  V30 2494 O 254.905 2.48347 -0.45606 0
M  V30 2495 C 256.218 0.4499 -2.97315 0
M  V30 2496 C 257.766 0.533185 -3.08425 0
M  V30 2497 C 258.241 0.54456 -4.54751 0
M  V30 2498 N 259.732 0.605892 -4.5922 0
M  V30 2499 C 260.467 0.636203 -5.6986 0
M  V30 2500 N 259.963 0.623931 -6.89985 0
M  V30 2501 N 261.756 0.679496 -5.57978 0
M  V30 2502 H 253.907 -0.767712 -1.9804 0
M  V30 2503 H 256.17 -0.283609 -0.904583 0
M  V30 2504 H 255.876 -0.472721 -3.48509 0
M  V30 2505 H 255.75 1.27632 -3.5495 0
M  V30 2506 H 258.137 1.44623 -2.57232 0
M  V30 2507 H 258.218 -0.320995 -2.53778 0
M  V30 2508 H 257.862 -0.364452 -5.06591 0
M  V30 2509 H 257.792 1.41568 -5.07214 0
M  V30 2510 H 260.283 0.621386 -3.72756 0
M  V30 2511 H 260.596 0.649787 -7.70063 0
M  V30 2512 H 258.941 0.591296 -6.9248 0
M  V30 2513 H 262.132 0.686472 -4.63039 0
M  V30 2514 H 262.305 0.69965 -6.44212 0
M  V30 2515 N 255.711 1.52812 0.385517 0
M  V30 2516 C 256.659 1.78482 1.49155 0
M  V30 2517 C 257.653 0.652914 1.56312 0
M  V30 2518 O 258.859 0.835464 1.59436 0
M  V30 2519 H 255.234 0.5648 0.496493 0
M  V30 2520 H 257.205 2.71095 1.24699 0
M  V30 2521 C 255.954 1.97378 2.86247 0
M  V30 2522 H 255.277 2.83907 2.81491 0
M  V30 2523 H 256.717 2.19327 3.62866 0
M  V30 2524 C 255.176 0.74728 3.28508 0
M  V30 2525 O 255.706 -0.0736232 4.01633 0
M  V30 2526 N 253.912 0.576396 2.84826 0
M  V30 2527 H 253.459 1.24555 2.25486 0
M  V30 2528 H 253.417 -0.24288 3.1346 0
M  V30 2529 N 257.189 -0.644168 1.43834 0
M  V30 2530 C 258.419 -1.42939 1.49171 0
M  V30 2531 C 258.827 -1.88874 0.111048 0
M  V30 2532 O 258.17 -1.60656 -0.8908 0
M  V30 2533 C 258.232 -2.69151 2.38324 0
M  V30 2534 C 257.896 -2.45097 3.85715 0
M  V30 2535 C 258.893 -2.07747 4.76589 0
M  V30 2536 C 256.578 -2.59141 4.30292 0
M  V30 2537 C 258.572 -1.8475 6.10038 0
M  V30 2538 C 256.259 -2.35759 5.63792 0
M  V30 2539 C 257.257 -1.9862 6.53482 0
M  V30 2540 O 256.945 -1.75489 7.84512 0
M  V30 2541 H 256.677 -0.445271 0.508635 0
M  V30 2542 H 259.231 -0.79621 1.8934 0
M  V30 2543 H 257.461 -3.3506 1.93058 0
M  V30 2544 H 259.15 -3.31123 2.3476 0
M  V30 2545 H 259.916 -1.96465 4.43426 0
M  V30 2546 H 255.795 -2.87022 3.60749 0
M  V30 2547 H 259.339 -1.55686 6.80006 0
M  V30 2548 H 255.236 -2.46646 5.9652 0
M  V30 2549 H 256.004 -1.89841 7.9618 0
M  V30 2550 N 258.668 -1.30515 -0.883378 0
M  V30 2551 C 259.915 -1.1943 -1.63532 0
M  V30 2552 C 260.243 0.250627 -1.92878 0
M  V30 2553 O 259.498 1.19556 -1.54935 0
M  V30 2554 C 259.797 -1.96994 -2.98209 0
M  V30 2555 C 259.463 -3.466 -2.88408 0
M  V30 2556 C 258.125 -3.87397 -2.85442 0
M  V30 2557 C 260.477 -4.41863 -2.76418 0
M  V30 2558 C 257.805 -5.21745 -2.68327 0
M  V30 2559 C 260.157 -5.7632 -2.60841 0
M  V30 2560 C 258.821 -6.16354 -2.56251 0
M  V30 2561 H 258.091 -0.437025 -0.598406 0
M  V30 2562 H 260.738 -1.61635 -1.02696 0
M  V30 2563 H 259.043 -1.47429 -3.63004 0
M  V30 2564 H 260.74 -1.85808 -3.55354 0
M  V30 2565 H 257.33 -3.14182 -2.91527 0
M  V30 2566 H 261.514 -4.11285 -2.77775 0
M  V30 2567 H 256.77 -5.51853 -2.63189 0
M  V30 2568 H 260.944 -6.49772 -2.50538 0
M  V30 2569 H 258.571 -7.20401 -2.42748 0
M  V30 2570 N 260.146 1.09593 -1.13257 0
M  V30 2571 C 261.056 2.19739 -0.821691 0
M  V30 2572 C 262.072 1.72926 0.19302 0
M  V30 2573 O 263.248 2.01385 0.0244895 0
M  V30 2574 C 260.313 3.45482 -0.290333 0
M  V30 2575 C 259.374 4.06985 -1.36607 0
M  V30 2576 C 258.607 5.26726 -0.859975 0
M  V30 2577 O 258.83 5.69594 0.303082 0
M  V30 2578 O 257.764 5.7931 -1.63351 0
M  V30 2579 H 261.59 2.48781 -1.74189 0
M  V30 2580 H 259.175 1.18496 -0.909894 0
M  V30 2581 H 261.057 4.214 0.000674022 0
M  V30 2582 H 259.732 3.18047 0.602306 0
M  V30 2583 H 258.639 3.32712 -1.71037 0
M  V30 2584 H 259.972 4.38643 -2.23279 0
M  V30 2585 N 261.624 0.925811 1.2754 0
M  V30 2586 C 262.534 0.428993 2.30644 0
M  V30 2587 C 263.55 -0.489387 1.66976 0
M  V30 2588 O 264.726 -0.372653 1.97922 0
M  V30 2589 C 261.791 -0.311967 3.45294 0
M  V30 2590 C 260.852 0.641098 4.24486 0
M  V30 2591 C 260.085 -0.0645955 5.33661 0
M  V30 2592 O 260.308 -1.28429 5.55754 0
M  V30 2593 O 259.242 0.606265 5.98839 0
M  V30 2594 H 263.068 1.28504 2.75173 0
M  V30 2595 H 260.653 0.691086 1.32455 0
M  V30 2596 H 262.535 -0.729972 4.15029 0
M  V30 2597 H 261.21 -1.14365 3.02824 0
M  V30 2598 H 260.117 1.10874 3.57292 0
M  V30 2599 H 261.45 1.43995 4.70666 0
M  V30 2600 N 263.102 -1.41638 0.69111 0
M  V30 2601 C 264.351 -2.00526 0.217318 0
M  V30 2602 C 264.664 -1.55353 -1.18848 0
M  V30 2603 O 265.87 -2.06769 -1.75951 0
M  V30 2604 C 264.326 -3.58313 0.337639 0
M  V30 2605 C 263.934 -4.12469 1.74852 0
M  V30 2606 C 265.678 -4.24431 -0.0766066 0
M  V30 2607 C 263.585 -5.62675 1.82074 0
M  V30 2608 H 262.515 -0.750008 0.0774893 0
M  V30 2609 H 265.166 -1.6217 0.858661 0
M  V30 2610 H 263.548 -3.9425 -0.371879 0
M  V30 2611 H 264.722 -3.8796 2.48644 0
M  V30 2612 H 263.037 -3.58861 2.11205 0
M  V30 2613 H 265.634 -5.34683 -0.0430284 0
M  V30 2614 H 265.977 -4.01101 -1.1146 0
M  V30 2615 H 266.51 -3.93512 0.582476 0
M  V30 2616 H 263.249 -5.90826 2.83911 0
M  V30 2617 H 262.769 -5.89124 1.12661 0
M  V30 2618 H 264.448 -6.27371 1.58159 0
M  V30 2619 N 264.58 -0.43555 -1.51462 0
M  V30 2620 C 265.51 0.367376 -2.30592 0
M  V30 2621 C 266.491 1.02263 -1.35928 0
M  V30 2622 O 267.676 1.02661 -1.64847 0
M  V30 2623 C 264.806 1.46983 -3.14664 0
M  V30 2624 C 263.76 0.938161 -4.17591 0
M  V30 2625 C 263.086 2.13622 -4.90173 0
M  V30 2626 C 264.386 -0.0261621 -5.22293 0
M  V30 2627 H 266.08 -0.292969 -2.97963 0
M  V30 2628 H 263.626 -0.14234 -1.43295 0
M  V30 2629 H 265.579 2.03873 -3.688 0
M  V30 2630 H 264.303 2.15843 -2.4511 0
M  V30 2631 H 262.962 0.391481 -3.64504 0
M  V30 2632 H 262.61 2.81098 -4.17124 0
M  V30 2633 H 262.31 1.78688 -5.59772 0
M  V30 2634 H 263.834 2.7107 -5.47132 0
M  V30 2635 H 265.248 0.452384 -5.71512 0
M  V30 2636 H 263.645 -0.287992 -5.99409 0
M  V30 2637 H 264.715 -0.963391 -4.75233 0
M  V30 2638 N 266.058 1.56714 -0.166846 0
M  V30 2639 C 267.469 1.83378 0.350646 0
M  V30 2640 C 267.82 1.08646 1.63372 0
M  V30 2641 O 266.945 0.338058 2.13743 0
M  V30 2642 C 267.54 3.32643 0.642963 0
M  V30 2643 C 266.099 3.59818 1.10491 0
M  V30 2644 C 265.246 2.76954 0.138411 0
M  V30 2645 H 268.197 1.53803 -0.391193 0
M  V30 2646 H 268.218 3.49878 1.49551 0
M  V30 2647 H 267.73 3.87007 -0.291055 0
M  V30 2648 H 265.831 3.1086 2.05418 0
M  V30 2649 H 265.944 4.68178 1.01716 0
M  V30 2650 H 264.308 2.4666 0.634911 0
M  V30 2651 H 265.091 3.34097 -0.789549 0
M  V30 2652 N 267.536 -0.106894 1.57237 0
M  V30 2653 C 268.761 -0.830287 1.90055 0
M  V30 2654 C 269.186 -1.72064 0.75998 0
M  V30 2655 O 268.544 -1.78982 -0.288991 0
M  V30 2656 C 268.592 -1.6295 3.21683 0
M  V30 2657 O 267.696 -2.73748 3.08441 0
M  V30 2658 H 267.037 -0.228855 0.623315 0
M  V30 2659 H 269.567 -0.085658 2.04421 0
M  V30 2660 H 269.577 -2.01621 3.54701 0
M  V30 2661 H 268.252 -0.975989 4.04286 0
M  V30 2662 H 266.829 -2.38192 2.86913 0
M  V30 2663 N 269.014 -1.53014 -0.377408 0
M  V30 2664 C 270.26 -1.68872 -1.12294 0
M  V30 2665 C 270.593 -0.433224 -1.89306 0
M  V30 2666 O 269.868 0.569258 -1.85983 0
M  V30 2667 C 270.151 -2.93115 -2.09179 0
M  V30 2668 C 270.004 -4.28794 -1.35853 0
M  V30 2669 C 271.323 -3.12928 -3.09458 0
M  V30 2670 H 268.442 -0.614518 -0.406862 0
M  V30 2671 H 271.084 -1.85633 -0.40503 0
M  V30 2672 H 269.234 -2.78956 -2.70399 0
M  V30 2673 H 270.906 -4.54742 -0.775082 0
M  V30 2674 H 269.149 -4.28744 -0.660364 0
M  V30 2675 H 269.82 -5.11837 -2.06706 0
M  V30 2676 H 272.296 -3.26194 -2.58334 0
M  V30 2677 H 271.172 -4.01316 -3.74482 0
M  V30 2678 H 271.433 -2.27669 -3.78971 0
M  V30 2679 N 270.492 0.636531 -1.44174 0
M  V30 2680 C 271.769 1.39463 -1.37148 0
M  V30 2681 C 272.149 2.11082 -0.027507 0
M  V30 2682 O 271.497 2.05954 0.989716 0
M  V30 2683 C 271.707 2.36552 -2.56601 0
M  V30 2684 C 273.055 3.00048 -3.00427 0
M  V30 2685 O 274.079 2.46878 -2.56767 0
M  V30 2686 O 272.938 3.96488 -3.76111 0
M  V30 2687 H 270.032 0.623903 -0.542839 0
M  V30 2688 H 272.578 0.662039 -1.56253 0
M  V30 2689 H 271.35 1.82692 -3.46034 0
M  V30 2690 H 270.973 3.17236 -2.39681 0
M  V30 2691 N 271.97 1.30982 0.876444 0
M  V30 2692 C 273.195 1.23373 1.66715 0
M  V30 2693 C 273.62 -0.19885 1.87046 0
M  V30 2694 O 272.978 -1.1427 1.40756 0
M  V30 2695 C 273.026 1.97644 3.01611 0
M  V30 2696 O 272.13 1.30935 3.91062 0
M  V30 2697 H 271.471 0.426279 0.509099 0
M  V30 2698 H 274.001 1.72944 1.09323 0
M  V30 2699 H 274.011 2.06992 3.51594 0
M  V30 2700 H 272.686 3.01829 2.86133 0
M  V30 2701 H 271.263 1.29996 3.49507 0
M  V30 2702 N 273.449 -1.08991 1.13837 0
M  V30 2703 C 274.397 -2.17841 0.815347 0
M  V30 2704 C 275.391 -1.68164 -0.204233 0
M  V30 2705 O 276.597 -1.79897 -0.0609304 0
M  V30 2706 H 272.972 -0.710654 0.245915 0
M  V30 2707 H 274.943 -2.42315 1.74143 0
M  V30 2708 C 273.692 -3.46381 0.302614 0
M  V30 2709 H 273.015 -3.84979 1.0785 0
M  V30 2710 H 274.455 -4.23844 0.115074 0
M  V30 2711 C 272.914 -3.22556 -0.972591 0
M  V30 2712 O 273.444 -3.45599 -2.04754 0
M  V30 2713 N 271.65 -2.76134 -0.905455 0
M  V30 2714 H 271.197 -2.57582 -0.0305421 0
M  V30 2715 H 271.155 -2.60571 -1.75926 0
M  V30 2716 N 274.927 -0.932562 -1.27047 0
M  V30 2717 C 275.837 -0.441219 -2.30414 0
M  V30 2718 C 276.853 0.480525 -1.67233 0
M  V30 2719 O 278.029 0.362151 -1.98117 0
M  V30 2720 C 275.094 0.293651 -3.45454 0
M  V30 2721 C 274.155 -0.663601 -4.2414 0
M  V30 2722 C 273.388 0.0362932 -5.33688 0
M  V30 2723 O 273.611 1.2548 -5.56427 0
M  V30 2724 O 272.545 -0.638015 -5.98509 0
M  V30 2725 H 276.371 -1.29962 -2.74488 0
M  V30 2726 H 273.956 -0.6981 -1.32087 0
M  V30 2727 H 275.838 0.707951 -4.15411 0
M  V30 2728 H 274.513 1.12758 -3.03426 0
M  V30 2729 H 273.42 -1.12768 -3.56699 0
M  V30 2730 H 274.753 -1.46489 -4.69896 0
M  V30 2731 N 276.405 1.4127 -0.698611 0
M  V30 2732 C 277.338 2.28195 0.0153898 0
M  V30 2733 C 278.316 1.42402 0.784883 0
M  V30 2734 O 279.5 1.71828 0.775067 0
M  V30 2735 C 276.627 3.22685 1.02918 0
M  V30 2736 C 275.673 4.25041 0.352501 0
M  V30 2737 S 276.506 5.27757 -0.907322 0
M  V30 2738 C 277.662 6.25812 0.104796 0
M  V30 2739 H 277.895 2.88403 -0.721858 0
M  V30 2740 H 275.428 1.46452 -0.488996 0
M  V30 2741 H 277.386 3.77655 1.60893 0
M  V30 2742 H 276.047 2.61566 1.73902 0
M  V30 2743 H 275.24 4.91437 1.11828 0
M  V30 2744 H 274.842 3.73682 -0.154254 0
M  V30 2745 H 277.134 6.70705 0.957103 0
M  V30 2746 H 278.077 7.06149 -0.525323 0
M  V30 2747 H 278.485 5.62615 0.460931 0
M  V30 2748 N 277.883 0.443576 1.51229 0
M  V30 2749 C 279.113 -0.119117 2.06256 0
M  V30 2750 C 279.521 -1.36471 1.31043 0
M  V30 2751 O 278.864 -1.80034 0.365151 0
M  V30 2752 C 278.926 -0.500546 3.55998 0
M  V30 2753 C 278.59 0.639125 4.52509 0
M  V30 2754 C 279.587 1.51311 4.97394 0
M  V30 2755 C 277.272 0.821632 4.95535 0
M  V30 2756 C 279.266 2.55425 5.83984 0
M  V30 2757 C 276.953 1.86603 5.81913 0
M  V30 2758 C 277.951 2.73072 6.26036 0
M  V30 2759 O 277.639 3.75718 7.10698 0
M  V30 2760 H 277.371 -0.00857665 0.675946 0
M  V30 2761 H 279.925 0.623288 1.95715 0
M  V30 2762 H 278.155 -1.29575 3.64345 0
M  V30 2763 H 279.844 -0.995116 3.93513 0
M  V30 2764 H 280.61 1.38367 4.64844 0
M  V30 2765 H 276.489 0.158149 4.60729 0
M  V30 2766 H 280.033 3.22949 6.18344 0
M  V30 2767 H 275.93 1.99564 6.13876 0
M  V30 2768 H 276.698 3.72374 7.2889 0
M  V30 2769 N 279.361 -1.56624 0.175154 0
M  V30 2770 C 280.309 -2.19468 -0.770495 0
M  V30 2771 C 281.303 -1.15985 -1.23466 0
M  V30 2772 O 282.509 -1.34176 -1.19987 0
M  V30 2773 H 278.884 -0.703095 -0.266761 0
M  V30 2774 H 280.855 -2.97613 -0.216542 0
M  V30 2775 C 279.604 -2.85264 -1.98796 0
M  V30 2776 H 278.927 -3.64623 -1.63983 0
M  V30 2777 H 280.367 -3.327 -2.62843 0
M  V30 2778 C 278.826 -1.85239 -2.81404 0
M  V30 2779 O 279.356 -1.34024 -3.78682 0
M  V30 2780 N 277.562 -1.53911 -2.46495 0
M  V30 2781 H 277.109 -1.95751 -1.67449 0
M  V30 2782 H 277.067 -0.872382 -3.02054 0
M  V30 2783 N 280.839 0.0985539 -1.57292 0
M  V30 2784 C 281.786 1.11981 -2.01814 0
M  V30 2785 C 282.756 1.39999 -0.89384 0
M  V30 2786 O 283.941 1.5152 -1.15958 0
M  V30 2787 C 281.081 2.43577 -2.44467 0
M  V30 2788 C 280.194 2.2232 -3.70402 0
M  V30 2789 C 279.329 3.4729 -4.01949 0
M  V30 2790 C 278.368 3.2128 -5.21005 0
M  V30 2791 N 277.505 4.38507 -5.48321 0
M  V30 2792 H 282.345 0.733149 -2.88841 0
M  V30 2793 H 279.882 0.350482 -1.42864 0
M  V30 2794 H 281.84 3.20373 -2.6724 0
M  V30 2795 H 280.47 2.80097 -1.60455 0
M  V30 2796 H 279.522 1.36343 -3.55126 0
M  V30 2797 H 280.834 1.99089 -4.57345 0
M  V30 2798 H 279.988 4.32495 -4.25479 0
M  V30 2799 H 278.727 3.73572 -3.13521 0
M  V30 2800 H 277.732 2.34468 -4.97298 0
M  V30 2801 H 278.957 2.96348 -6.11028 0
M  V30 2802 H 276.903 4.64871 -4.62851 0
M  V30 2803 H 276.82 4.18455 -6.29628 0
M  V30 2804 H 278.088 5.24787 -5.76385 0
M  V30 2805 N 282.317 1.53212 0.369288 0
M  V30 2806 C 283.547 1.72868 1.13139 0
M  V30 2807 C 283.955 0.455754 1.83629 0
M  V30 2808 O 283.298 -0.580861 1.74275 0
M  V30 2809 C 283.36 2.83667 2.20847 0
M  V30 2810 C 283.024 4.24142 1.70155 0
M  V30 2811 C 284.021 5.06619 1.16763 0
M  V30 2812 C 281.706 4.70539 1.7578 0
M  V30 2813 C 283.7 6.33581 0.696678 0
M  V30 2814 C 281.387 5.97481 1.28297 0
M  V30 2815 C 282.385 6.78833 0.753307 0
M  V30 2816 O 282.073 8.03393 0.285475 0
M  V30 2817 H 281.805 0.581707 0.344373 0
M  V30 2818 H 284.359 2.00736 0.435243 0
M  V30 2819 H 282.589 2.51265 2.93944 0
M  V30 2820 H 284.278 2.91536 2.82421 0
M  V30 2821 H 285.044 4.71948 1.11758 0
M  V30 2822 H 280.923 4.07293 2.15949 0
M  V30 2823 H 284.467 6.97027 0.282581 0
M  V30 2824 H 280.364 6.31651 1.32994 0
M  V30 2825 H 281.132 8.17497 0.405145 0
M  V30 2826 N 283.795 -0.628877 1.44509 0
M  V30 2827 C 285.042 -1.38839 1.47411 0
M  V30 2828 C 285.37 -1.94202 0.10757 0
M  V30 2829 O 284.625 -1.74243 -0.890947 0
M  V30 2830 C 284.924 -2.56995 2.48371 0
M  V30 2831 C 284.59 -2.19908 3.93639 0
M  V30 2832 C 283.252 -2.09506 4.33198 0
M  V30 2833 C 285.604 -1.9064 4.85083 0
M  V30 2834 C 282.932 -1.68028 5.62124 0
M  V30 2835 C 285.284 -1.50655 6.14399 0
M  V30 2836 C 283.948 -1.38796 6.5291 0
M  V30 2837 H 283.218 -0.508048 0.539414 0
M  V30 2838 H 285.865 -0.712913 1.77735 0
M  V30 2839 H 284.17 -3.29786 2.11538 0
M  V30 2840 H 285.867 -3.15223 2.47861 0
M  V30 2841 H 282.457 -2.28922 3.62343 0
M  V30 2842 H 286.641 -1.97585 4.55273 0
M  V30 2843 H 281.897 -1.57452 5.90778 0
M  V30 2844 H 286.071 -1.27048 6.84713 0
M  V30 2845 H 283.698 -1.06429 7.52713 0
M  V30 2846 N 285.273 -1.31445 -0.869486 0
M  V30 2847 C 286.684 -1.19042 -1.43826 0
M  V30 2848 C 287.035 0.202919 -1.95148 0
M  V30 2849 O 286.16 1.10071 -1.86315 0
M  V30 2850 C 286.755 -2.15499 -2.6143 0
M  V30 2851 C 285.314 -2.07028 -3.14351 0
M  V30 2852 C 284.461 -2.04701 -1.87063 0
M  V30 2853 H 287.412 -1.43489 -0.677984 0
M  V30 2854 H 287.433 -1.74488 -3.38134 0
M  V30 2855 H 286.945 -3.16899 -2.24046 0
M  V30 2856 H 285.046 -1.08825 -3.56354 0
M  V30 2857 H 285.159 -2.96157 -3.766 0
M  V30 2858 H 283.523 -1.49724 -2.06046 0
M  V30 2859 H 284.306 -3.07857 -1.51917 0
M  V30 2860 N 286.751 1.08385 -1.14413 0
M  V30 2861 C 288.167 1.32844 -0.884563 0
M  V30 2862 C 288.367 1.95841 0.474181 0
M  V30 2863 O 287.423 2.21158 1.21842 0
M  V30 2864 C 288.736 2.22978 -2.01745 0
M  V30 2865 C 290.284 2.36458 -2.05077 0
M  V30 2866 C 290.759 3.29934 -3.1766 0
M  V30 2867 N 292.25 3.37511 -3.17239 0
M  V30 2868 C 292.985 4.09871 -4.0099 0
M  V30 2869 N 292.481 4.84936 -4.94781 0
M  V30 2870 N 294.274 4.05704 -3.89051 0
M  V30 2871 H 286.425 0.658756 -2.01926 0
M  V30 2872 H 288.688 0.352821 -0.879899 0
M  V30 2873 H 288.394 1.83934 -2.99769 0
M  V30 2874 H 288.268 3.23441 -1.94077 0
M  V30 2875 H 290.655 2.7476 -1.0766 0
M  V30 2876 H 290.736 1.35736 -2.16816 0
M  V30 2877 H 290.38 2.92352 -4.15322 0
M  V30 2878 H 290.31 4.30584 -3.03158 0
M  V30 2879 H 292.801 2.83996 -2.49308 0
M  V30 2880 H 293.114 5.37612 -5.55151 0
M  V30 2881 H 291.459 4.83988 -4.98779 0
M  V30 2882 H 294.65 3.46167 -3.15097 0
M  V30 2883 H 294.823 4.61834 -4.54547 0
M  V30 2884 N 288.23 0.939286 1.26551 0
M  V30 2885 C 289.193 0.451987 2.24699 0
M  V30 2886 C 290.193 -0.435869 1.5478 0
M  V30 2887 O 291.383 -0.235314 1.72603 0
M  V30 2888 C 288.515 -0.348801 3.39111 0
M  V30 2889 H 289.708 1.3193 2.69322 0
M  V30 2890 H 287.261 0.721072 1.38673 0
M  V30 2891 H 287.996 -1.23444 2.99887 0
M  V30 2892 H 287.781 0.287945 3.91041 0
M  V30 2893 H 289.271 -0.679726 4.12031 0
M  V30 2894 N 289.708 -1.40897 0.706093 0
M  V30 2895 C 290.656 -2.32572 0.0361893 0
M  V30 2896 C 291.65 -1.51532 -0.757266 0
M  V30 2897 O 292.856 -1.67396 -0.661703 0
M  V30 2898 H 289.231 -0.751966 -0.00709935 0
M  V30 2899 H 291.202 -2.86733 0.826249 0
M  V30 2900 C 289.951 -3.36418 -0.87854 0
M  V30 2901 H 289.274 -3.98836 -0.277401 0
M  V30 2902 H 290.714 -4.0308 -1.3154 0
M  V30 2903 C 289.173 -2.71141 -1.99961 0
M  V30 2904 O 289.703 -2.56735 -3.0895 0
M  V30 2905 N 287.909 -2.29671 -1.78043 0
M  V30 2906 H 287.456 -2.41588 -0.894042 0
M  V30 2907 H 287.414 -1.86332 -2.53235 0
M  V30 2908 N 291.186 -0.45159 -1.50991 0
M  V30 2909 C 292.414 0.108334 -2.06616 0
M  V30 2910 C 292.829 1.35224 -1.31757 0
M  V30 2911 O 292.186 1.78475 -0.381174 0
M  V30 2912 C 292.237 0.41619 -3.59096 0
M  V30 2913 O 291.958 -0.778361 -4.3113 0
M  V30 2914 C 293.459 1.02523 -4.31282 0
M  V30 2915 H 290.679 0.00159995 -0.670998 0
M  V30 2916 H 293.223 -0.634771 -1.94399 0
M  V30 2917 H 291.378 1.10921 -3.71181 0
M  V30 2918 H 291.792 -0.511181 -5.22003 0
M  V30 2919 H 293.266 1.19053 -5.39009 0
M  V30 2920 H 293.743 2.01013 -3.905 0
M  V30 2921 H 294.349 0.371173 -4.23677 0
M  V30 2922 N 292.664 1.56529 -0.183458 0
M  V30 2923 C 293.912 1.96855 0.457452 0
M  V30 2924 C 294.233 1.07104 1.62953 0
M  V30 2925 O 293.503 0.139887 1.954 0
M  V30 2926 H 292.083 0.72693 0.171992 0
M  V30 2927 H 294.745 1.93056 -0.267476 0
M  V30 2928 H 293.841 3.01423 0.809368 0
M  V30 2929 N 294.142 -0.090211 1.57342 0
M  V30 2930 C 295.072 -1.10976 2.05443 0
M  V30 2931 C 296.053 -1.41482 0.944284 0
M  V30 2932 O 297.238 -1.51428 1.21586 0
M  V30 2933 C 294.368 -2.42831 2.48295 0
M  V30 2934 C 293.322 -2.26721 3.63018 0
M  V30 2935 C 292.648 -3.63796 3.91863 0
M  V30 2936 C 293.948 -1.7037 4.93732 0
M  V30 2937 H 295.642 -0.709564 2.9087 0
M  V30 2938 H 293.188 -0.339874 1.39932 0
M  V30 2939 H 295.141 -3.14431 2.80555 0
M  V30 2940 H 293.865 -2.84795 1.59873 0
M  V30 2941 H 292.524 -1.57565 3.31012 0
M  V30 2942 H 292.172 -4.03297 3.00601 0
M  V30 2943 H 291.872 -3.53861 4.69101 0
M  V30 2944 H 293.396 -4.36855 4.26603 0
M  V30 2945 H 294.81 -2.31816 5.24342 0
M  V30 2946 H 293.207 -1.71181 5.75167 0
M  V30 2947 H 294.277 -0.663542 4.80339 0
M  V30 2948 N 295.62 -1.53406 -0.361157 0
M  V30 2949 C 296.868 -1.69467 -1.10115 0
M  V30 2950 C 297.189 -0.451352 -1.89705 0
M  V30 2951 O 296.459 0.534636 -1.88463 0
M  V30 2952 H 295.039 -0.624749 -0.409508 0
M  V30 2953 H 297.701 -1.90609 -0.406699 0
M  V30 2954 H 296.797 -2.55774 -1.78847 0
M  V30 2955 N 297.098 0.621204 -1.44841 0
M  V30 2956 C 298.344 1.3826 -1.48365 0
M  V30 2957 C 298.677 1.93831 -0.119624 0
M  V30 2958 O 297.952 1.74251 0.864111 0
M  V30 2959 C 298.235 2.54058 -2.55199 0
M  V30 2960 C 298.088 2.03772 -4.00995 0
M  V30 2961 C 299.407 3.56225 -2.58442 0
M  V30 2962 H 296.526 0.501374 -0.540179 0
M  V30 2963 H 299.168 0.7015 -1.76576 0
M  V30 2964 H 297.318 3.12162 -2.31274 0
M  V30 2965 H 298.99 1.50423 -4.36086 0
M  V30 2966 H 297.233 1.34876 -4.12299 0
M  V30 2967 H 297.904 2.87185 -4.71411 0
M  V30 2968 H 300.38 3.07939 -2.79844 0
M  V30 2969 H 299.256 4.34756 -3.3508 0
M  V30 2970 H 299.517 4.10949 -1.63013 0
M  V30 2971 N 298.576 1.31904 0.862503 0
M  V30 2972 C 299.524 1.20125 1.9918 0
M  V30 2973 C 300.518 0.107824 1.69056 0
M  V30 2974 O 301.724 0.270223 1.7796 0
M  V30 2975 H 298.099 0.372148 0.65346 0
M  V30 2976 H 300.07 2.15652 2.06244 0
M  V30 2977 C 298.819 0.933099 3.34946 0
M  V30 2978 H 298.142 1.76664 3.5865 0
M  V30 2979 H 299.582 0.890892 4.14535 0
M  V30 2980 C 298.041 -0.364172 3.34926 0
M  V30 2981 O 298.571 -1.37858 3.77304 0
M  V30 2982 N 296.777 -0.383362 2.8806 0
M  V30 2983 H 296.324 0.442651 2.53768 0
M  V30 2984 H 296.282 -1.25123 2.8843 0
M  V30 2985 N 300.054 -1.07777 1.14986 0
M  V30 2986 C 301.002 -2.16964 0.838406 0
M  V30 2987 C 301.996 -1.68372 -0.186386 0
M  V30 2988 O 303.202 -1.79951 -0.0418465 0
M  V30 2989 H 299.577 -0.708006 0.253439 0
M  V30 2990 H 301.548 -2.40454 1.76704 0
M  V30 2991 C 300.297 -3.4604 0.339335 0
M  V30 2992 H 299.62 -3.83813 1.11927 0
M  V30 2993 H 301.06 -4.23698 0.160021 0
M  V30 2994 C 299.519 -3.23569 -0.938325 0
M  V30 2995 O 300.049 -3.47752 -2.01077 0
M  V30 2996 N 298.255 -2.77079 -0.876117 0
M  V30 2997 H 297.802 -2.576 -0.00322037 0
M  V30 2998 H 297.76 -2.62422 -1.73153 0
M  V30 2999 N 301.532 -0.945985 -1.26051 0
M  V30 3000 C 302.781 -0.591836 -1.92822 0
M  V30 3001 C 303.094 0.873956 -1.7499 0
M  V30 3002 O 304.3 1.33769 -2.36259 0
M  V30 3003 C 302.756 -1.00776 -3.45503 0
M  V30 3004 C 302.364 -2.4955 -3.7206 0
M  V30 3005 C 304.108 -0.725735 -4.1825 0
M  V30 3006 C 302.015 -2.84988 -5.18205 0
M  V30 3007 H 300.945 -0.217635 -0.721908 0
M  V30 3008 H 303.596 -1.14927 -1.43052 0
M  V30 3009 H 301.978 -0.378812 -3.94184 0
M  V30 3010 H 303.152 -3.1739 -3.34066 0
M  V30 3011 H 301.467 -2.75133 -3.12555 0
M  V30 3012 H 304.064 -0.966771 -5.25887 0
M  V30 3013 H 304.407 0.337639 -4.14929 0
M  V30 3014 H 304.94 -1.31463 -3.7545 0
M  V30 3015 H 301.679 -3.90307 -5.26631 0
M  V30 3016 H 301.199 -2.21813 -5.57278 0
M  V30 3017 H 302.878 -2.73712 -5.86252 0
M  V30 3018 N 303.011 1.40521 -0.713556 0
M  V30 3019 C 304.288 1.94775 -0.17943 0
M  V30 3020 C 304.668 1.65184 1.31444 0
M  V30 3021 O 304.016 0.968429 2.06963 0
M  V30 3022 C 304.226 3.45543 -0.489986 0
M  V30 3023 C 305.574 4.22442 -0.427536 0
M  V30 3024 O 306.598 3.53644 -0.425929 0
M  V30 3025 O 305.457 5.4501 -0.403292 0
M  V30 3026 H 302.551 0.826606 -0.0255192 0
M  V30 3027 H 305.097 1.5014 -0.790949 0
M  V30 3028 H 303.869 3.60432 -1.5233 0
M  V30 3029 H 303.492 3.97311 0.151598 0
M  V30 3030 N 304.489 0.459591 1.5075 0
M  V30 3031 C 305.421 -0.37665 2.26084 0
M  V30 3032 C 306.434 -0.967109 1.30961 0
M  V30 3033 O 307.623 -0.857468 1.56556 0
M  V30 3034 C 304.723 -1.54112 3.01832 0
M  V30 3035 C 303.896 -1.06553 4.24223 0
M  V30 3036 C 302.955 -2.1027 4.82362 0
M  V30 3037 O 301.981 -1.68798 5.43595 0
M  V30 3038 N 303.183 -3.42974 4.68347 0
M  V30 3039 H 305.948 0.269124 2.98489 0
M  V30 3040 H 303.509 0.28972 1.59287 0
M  V30 3041 H 305.501 -2.23165 3.37608 0
M  V30 3042 H 304.071 -2.0918 2.32298 0
M  V30 3043 H 303.291 -0.201274 3.93686 0
M  V30 3044 H 304.579 -0.725516 5.03601 0
M  V30 3045 H 303.977 -3.79385 4.19623 0
M  V30 3046 H 302.534 -4.07858 5.08424 0
M  V30 3047 N 305.967 -1.56429 0.191757 0
M  V30 3048 C 306.93 -2.17707 -0.716688 0
M  V30 3049 C 307.93 -1.13061 -1.14341 0
M  V30 3050 O 309.12 -1.38464 -1.05704 0
M  V30 3051 C 306.252 -2.77644 -1.97804 0
M  V30 3052 H 307.445 -2.99342 -0.1829 0
M  V30 3053 H 304.998 -1.56193 -0.0578566 0
M  V30 3054 H 305.733 -1.99799 -2.55443 0
M  V30 3055 H 305.518 -3.54246 -1.68083 0
M  V30 3056 H 307.008 -3.24708 -2.62592 0
M  V30 3057 N 307.445 0.0818655 -1.57387 0
M  V30 3058 C 308.691 0.778884 -1.87896 0
M  V30 3059 C 309.046 1.75692 -0.784229 0
M  V30 3060 O 308.339 1.90417 0.212567 0
M  V30 3061 C 308.533 1.53513 -3.22752 0
M  V30 3062 C 308.362 0.631838 -4.45239 0
M  V30 3063 C 307.132 0.272571 -5.04564 0
M  V30 3064 C 309.33 -0.0670191 -5.14256 0
M  V30 3065 N 307.312 -0.637498 -6.10581 0
M  V30 3066 C 308.683 -0.834653 -6.14356 0
M  V30 3067 C 310.738 -0.139551 -4.97704 0
M  V30 3068 C 309.441 -1.66806 -6.99691 0
M  V30 3069 C 311.467 -0.959903 -5.83558 0
M  V30 3070 C 310.829 -1.71561 -6.83188 0
M  V30 3071 H 306.928 0.260764 -0.737242 0
M  V30 3072 H 309.512 0.0408227 -1.94657 0
M  V30 3073 H 307.683 2.24398 -3.17018 0
M  V30 3074 H 309.415 2.18038 -3.40942 0
M  V30 3075 H 306.17 0.62319 -4.69482 0
M  V30 3076 H 306.594 -1.08548 -6.68241 0
M  V30 3077 H 311.236 0.430376 -4.20604 0
M  V30 3078 H 308.954 -2.249 -7.76174 0
M  V30 3079 H 312.54 -1.01887 -5.72809 0
M  V30 3080 H 311.42 -2.34017 -7.48469 0
M  V30 3081 N 308.923 1.53595 0.353017 0
M  V30 3082 C 310.17 1.70385 1.09431 0
M  V30 3083 C 310.498 0.462113 1.88931 0
M  V30 3084 O 309.753 -0.556074 1.87633 0
M  V30 3085 C 310.052 2.91313 2.07054 0
M  V30 3086 C 309.718 4.27308 1.43939 0
M  V30 3087 C 308.38 4.64287 1.26454 0
M  V30 3088 C 310.732 5.11829 0.983883 0
M  V30 3089 C 308.06 5.83412 0.620226 0
M  V30 3090 C 310.412 6.31611 0.353516 0
M  V30 3091 C 309.076 6.67293 0.166272 0
M  V30 3092 H 308.346 0.623484 0.400436 0
M  V30 3093 H 310.993 1.87799 0.374655 0
M  V30 3094 H 309.298 2.68463 2.85368 0
M  V30 3095 H 310.995 3.01497 2.64387 0
M  V30 3096 H 307.585 3.98198 1.58543 0
M  V30 3097 H 311.769 4.838 1.10685 0
M  V30 3098 H 307.025 6.09639 0.463681 0
M  V30 3099 H 311.199 6.964 -0.00757555 0
M  V30 3100 H 308.826 7.59461 -0.335047 0
M  V30 3101 N 310.401 -0.613514 1.45168 0
M  V30 3102 C 311.311 -1.75296 1.55912 0
M  V30 3103 C 312.327 -1.68244 0.443856 0
M  V30 3104 O 313.503 -1.88706 0.70371 0
M  V30 3105 C 310.568 -3.1174 1.5172 0
M  V30 3106 C 309.629 -3.30291 2.74238 0
M  V30 3107 C 308.862 -4.60226 2.70236 0
M  V30 3108 O 309.085 -5.42168 1.77229 0
M  V30 3109 O 308.019 -4.81361 3.61352 0
M  V30 3110 H 311.845 -1.69183 2.52212 0
M  V30 3111 H 309.43 -0.776886 1.27612 0
M  V30 3112 H 311.312 -3.93044 1.51968 0
M  V30 3113 H 309.987 -3.18357 0.585697 0
M  V30 3114 H 308.894 -2.48598 2.79553 0
M  V30 3115 H 310.227 -3.28547 3.66494 0
M  V30 3116 N 311.879 -1.3236 -0.855495 0
M  V30 3117 C 313.104 -1.2601 -1.64731 0
M  V30 3118 C 313.529 0.169068 -1.87339 0
M  V30 3119 O 312.887 1.12016 -1.42556 0
M  V30 3120 C 312.935 -2.02417 -2.98429 0
M  V30 3121 O 312.039 -1.3714 -3.8893 0
M  V30 3122 H 311.38 -0.434325 -0.502253 0
M  V30 3123 H 313.91 -1.74661 -1.06558 0
M  V30 3124 H 313.92 -2.12559 -3.48257 0
M  V30 3125 H 312.595 -3.06343 -2.81295 0
M  V30 3126 H 311.172 -1.3554 -3.47395 0
M  V30 3127 N 313.357 1.07166 -1.15556 0
M  V30 3128 C 314.585 1.83514 -0.955519 0
M  V30 3129 C 315 1.82163 0.49621 0
M  V30 3130 O 314.357 1.23441 1.34419 0
M  V30 3131 C 314.408 3.30515 -1.46432 0
M  V30 3132 O 314.129 3.31937 -2.85918 0
M  V30 3133 C 315.63 4.23625 -1.30603 0
M  V30 3134 H 312.85 0.578926 -0.339244 0
M  V30 3135 H 315.394 1.35265 -1.53374 0
M  V30 3136 H 313.549 3.76106 -0.928584 0
M  V30 3137 H 313.963 4.23794 -3.09029 0
M  V30 3138 H 315.437 5.24831 -1.71047 0
M  V30 3139 H 315.914 4.38485 -0.250441 0
M  V30 3140 H 316.52 3.83871 -1.83094 0
M  V30 3141 N 314.835 0.952656 1.25548 0
M  V30 3142 C 315.745 0.47782 2.29682 0
M  V30 3143 C 316.761 -0.453859 1.67977 0
M  V30 3144 O 317.937 -0.330587 1.98668 0
M  V30 3145 C 315.002 -0.238655 3.45878 0
M  V30 3146 C 314.063 0.730994 4.23031 0
M  V30 3147 C 313.296 0.0486165 5.33678 0
M  V30 3148 O 313.519 -1.16612 5.58353 0
M  V30 3149 O 312.453 0.733152 5.97418 0
M  V30 3150 H 316.279 1.34312 2.72386 0
M  V30 3151 H 313.864 0.719026 1.30959 0
M  V30 3152 H 315.746 -0.641774 4.16484 0
M  V30 3153 H 314.421 -1.07916 3.05181 0
M  V30 3154 H 313.328 1.18428 3.5486 0
M  V30 3155 H 314.661 1.53946 4.67506 0
M  V30 3156 N 316.313 -1.40141 0.720998 0
M  V30 3157 C 317.559 -2.01572 0.272075 0
M  V30 3158 C 317.914 -1.5616 -1.12391 0
M  V30 3159 O 317.207 -0.774198 -1.75262 0
M  V30 3160 C 317.401 -3.56165 0.296892 0
M  V30 3161 C 317.23 -4.16584 1.69375 0
M  V30 3162 C 316 -4.49783 2.30269 0
M  V30 3163 C 318.198 -4.41076 2.64493 0
M  V30 3164 N 316.18 -4.95626 3.62254 0
M  V30 3165 C 317.551 -4.88971 3.81192 0
M  V30 3166 C 319.606 -4.23122 2.62435 0
M  V30 3167 C 318.309 -5.20796 4.96149 0
M  V30 3168 C 320.335 -4.56052 3.76524 0
M  V30 3169 C 319.697 -5.04141 4.91956 0
M  V30 3170 H 315.796 -0.768343 0.145511 0
M  V30 3171 H 318.38 -1.70287 0.943959 0
M  V30 3172 H 316.551 -3.86868 -0.344578 0
M  V30 3173 H 318.283 -4.04346 -0.169254 0
M  V30 3174 H 315.038 -4.37101 1.82318 0
M  V30 3175 H 315.462 -5.22923 4.29977 0
M  V30 3176 H 320.104 -3.85158 1.74393 0
M  V30 3177 H 317.822 -5.57672 5.84831 0
M  V30 3178 H 321.408 -4.43796 3.76213 0
M  V30 3179 H 320.288 -5.29142 5.78774 0
M  V30 3180 N 317.792 -0.46758 -1.50504 0
M  V30 3181 C 319.022 0.086288 -2.0642 0
M  V30 3182 C 319.43 1.34369 -1.33197 0
M  V30 3183 O 318.773 1.79431 -0.393747 0
M  V30 3184 C 318.835 0.443846 -3.5675 0
M  V30 3185 C 318.499 -0.711035 -4.51435 0
M  V30 3186 C 319.496 -1.59205 -4.94924 0
M  V30 3187 C 317.181 -0.900363 -4.94165 0
M  V30 3188 C 319.175 -2.64683 -5.79846 0
M  V30 3189 C 316.862 -1.95837 -5.7887 0
M  V30 3190 C 317.86 -2.82997 -6.21612 0
M  V30 3191 O 317.548 -3.86977 -7.0463 0
M  V30 3192 H 317.28 -0.00217814 -0.675996 0
M  V30 3193 H 319.834 -0.654346 -1.94698 0
M  V30 3194 H 318.064 1.23762 -3.6636 0
M  V30 3195 H 319.753 0.932386 -3.95046 0
M  V30 3196 H 320.519 -1.45745 -4.62583 0
M  V30 3197 H 316.398 -0.231427 -4.60419 0
M  V30 3198 H 319.942 -3.32745 -6.13128 0
M  V30 3199 H 315.839 -2.09305 -6.10624 0
M  V30 3200 H 316.607 -3.83923 -7.22873 0
M  V30 3201 N 319.27 1.56325 -0.20005 0
M  V30 3202 C 320.217 2.1932 0.718833 0
M  V30 3203 C 321.187 1.14198 1.20615 0
M  V30 3204 O 322.372 1.42469 1.26914 0
M  V30 3205 C 319.512 2.86041 1.93066 0
M  V30 3206 C 318.625 4.05702 1.48425 0
M  V30 3207 C 317.76 4.60266 2.65196 0
M  V30 3208 C 316.799 5.72273 2.17185 0
M  V30 3209 N 315.936 6.21221 3.27152 0
M  V30 3210 H 320.776 2.97486 0.17489 0
M  V30 3211 H 318.313 1.46911 0.0745794 0
M  V30 3212 H 320.271 3.22897 2.64184 0
M  V30 3213 H 318.901 2.1043 2.44783 0
M  V30 3214 H 317.953 3.74475 0.668755 0
M  V30 3215 H 319.265 4.86699 1.09204 0
M  V30 3216 H 318.419 4.99453 3.4443 0
M  V30 3217 H 317.158 3.78386 3.07693 0
M  V30 3218 H 316.163 5.3261 1.36407 0
M  V30 3219 H 317.388 6.55974 1.75713 0
M  V30 3220 H 315.334 5.42263 3.69171 0
M  V30 3221 H 315.251 6.97284 2.92116 0
M  V30 3222 H 316.519 6.65063 4.06585 0
M  V30 3223 N 320.748 -0.0735177 1.57428 0
M  V30 3224 C 321.995 -0.772999 1.87166 0
M  V30 3225 C 322.323 -1.77665 0.791551 0
M  V30 3226 O 321.578 -1.94541 -0.212636 0
M  V30 3227 C 321.877 -1.51799 3.23561 0
M  V30 3228 C 321.543 -0.654484 4.46125 0
M  V30 3229 C 320.205 -0.416511 4.79394 0
M  V30 3230 C 322.557 -0.0555862 5.2117 0
M  V30 3231 C 319.885 0.429869 5.85123 0
M  V30 3232 C 322.237 0.778239 6.27795 0
M  V30 3233 C 320.901 1.0261 6.59566 0
M  V30 3234 H 320.171 -0.282861 0.684888 0
M  V30 3235 H 322.818 -0.0338272 1.9147 0
M  V30 3236 H 321.123 -2.32932 3.1504 0
M  V30 3237 H 322.82 -2.06397 3.43804 0
M  V30 3238 H 319.41 -0.850091 4.20085 0
M  V30 3239 H 323.594 -0.226558 4.95783 0
M  V30 3240 H 318.85 0.630665 6.08139 0
M  V30 3241 H 323.024 1.24906 6.85107 0
M  V30 3242 H 320.651 1.68371 7.4132 0
M  V30 3243 N 322.226 -1.5378 -0.344866 0
M  V30 3244 C 323.189 -1.80981 -1.40637 0
M  V30 3245 C 324.189 -0.680816 -1.45676 0
M  V30 3246 O 325.379 -0.949095 -1.46075 0
M  V30 3247 C 322.511 -1.95063 -2.79577 0
M  V30 3248 H 323.704 -2.75803 -1.17783 0
M  V30 3249 H 321.257 -1.45173 -0.579181 0
M  V30 3250 H 321.992 -1.02379 -3.07716 0
M  V30 3251 H 321.777 -2.77198 -2.77315 0
M  V30 3252 H 323.267 -2.17629 -3.56409 0
M  V30 3253 N 323.704 0.605807 -1.45491 0
M  V30 3254 C 325.12 0.926751 -1.29936 0
M  V30 3255 C 325.32 1.99896 -0.253706 0
M  V30 3256 O 324.376 2.50038 0.351737 0
M  V30 3257 C 325.689 1.36599 -2.67883 0
M  V30 3258 C 327.237 1.4801 -2.75793 0
M  V30 3259 C 327.712 1.95309 -4.14268 0
M  V30 3260 N 329.203 2.0254 -4.16571 0
M  V30 3261 C 329.938 2.40363 -5.20589 0
M  V30 3262 N 329.434 2.77143 -6.34952 0
M  V30 3263 N 331.227 2.40718 -5.07948 0
M  V30 3264 H 323.378 -0.102862 -2.12151 0
M  V30 3265 H 325.641 0.016639 -0.947854 0
M  V30 3266 H 325.347 0.652306 -3.45598 0
M  V30 3267 H 325.221 2.33215 -2.96463 0
M  V30 3268 H 327.608 2.1847 -1.98381 0
M  V30 3269 H 327.689 0.497041 -2.50925 0
M  V30 3270 H 327.333 1.25436 -4.92167 0
M  V30 3271 H 327.263 2.94532 -4.3653 0
M  V30 3272 H 329.754 1.76699 -3.34045 0
M  V30 3273 H 330.067 3.0489 -7.10114 0
M  V30 3274 H 328.412 2.74834 -6.3835 0
M  V30 3275 H 331.603 2.11392 -4.1765 0
M  V30 3276 H 331.776 2.69869 -5.89131 0
M  V30 3277 N 325.182 1.32811 0.848464 0
M  V30 3278 C 326.41 1.26739 1.63538 0
M  V30 3279 C 326.825 -0.163484 1.88091 0
M  V30 3280 O 326.182 -1.10258 1.45429 0
M  V30 3281 C 326.233 2.03013 2.99112 0
M  V30 3282 O 325.954 3.40518 2.75643 0
M  V30 3283 C 327.455 2.04038 3.93552 0
M  V30 3284 H 324.675 0.437024 0.509167 0
M  V30 3285 H 327.219 1.75033 1.05753 0
M  V30 3286 H 325.374 1.58426 3.53525 0
M  V30 3287 H 325.788 3.79635 3.61908 0
M  V30 3288 H 327.262 2.61877 4.85926 0
M  V30 3289 H 327.739 1.0282 4.26995 0
M  V30 3290 H 328.345 2.486 3.45077 0
M  V30 3291 N 326.66 -1.06551 1.16123 0
M  V30 3292 C 327.908 -1.78947 0.939267 0
M  V30 3293 C 328.229 -1.87532 -0.534476 0
M  V30 3294 O 327.499 -1.38211 -1.38833 0
M  V30 3295 H 326.079 -0.662807 0.344523 0
M  V30 3296 H 328.741 -1.28725 1.46342 0
M  V30 3297 H 327.837 -2.81117 1.35572 0
M  V30 3298 N 328.138 -0.959301 -1.25041 0
M  V30 3299 C 329.554 -0.664474 -1.4511 0
M  V30 3300 C 329.754 0.776481 -1.85938 0
M  V30 3301 O 328.81 1.55128 -1.99227 0
M  V30 3302 C 330.123 -1.64139 -2.5195 0
M  V30 3303 C 331.671 -1.65309 -2.65786 0
M  V30 3304 C 332.146 -2.61777 -3.75815 0
M  V30 3305 N 333.637 -2.60169 -3.83231 0
M  V30 3306 C 334.372 -3.31489 -4.6787 0
M  V30 3307 N 333.868 -4.12298 -5.56761 0
M  V30 3308 N 335.661 -3.20354 -4.61876 0
M  V30 3309 H 327.812 -1.89043 -0.968332 0
M  V30 3310 H 330.075 -0.813408 -0.4869 0
M  V30 3311 H 329.781 -2.67086 -2.28819 0
M  V30 3312 H 329.655 -1.40756 -3.49954 0
M  V30 3313 H 332.042 -0.630778 -2.8828 0
M  V30 3314 H 332.123 -1.92753 -1.68167 0
M  V30 3315 H 331.767 -3.64137 -3.54071 0
M  V30 3316 H 331.697 -2.31616 -4.72929 0
M  V30 3317 H 334.188 -2.01507 -3.19692 0
M  V30 3318 H 334.501 -4.63625 -6.18281 0
M  V30 3319 H 332.846 -4.16395 -5.56454 0
M  V30 3320 H 336.037 -2.56692 -3.91442 0
M  V30 3321 H 336.21 -3.76201 -5.27614 0
M  V30 3322 N 329.616 1.39756 -0.72842 0
M  V30 3323 C 330.563 2.30647 -0.0841519 0
M  V30 3324 C 331.533 1.48869 0.7367 0
M  V30 3325 O 332.718 1.77574 0.698015 0
M  V30 3326 C 329.858 3.35165 0.822091 0
M  V30 3327 C 328.971 4.31999 -0.0106663 0
M  V30 3328 C 328.106 5.23585 0.896241 0
M  V30 3329 C 327.145 6.12072 0.0583381 0
M  V30 3330 N 326.282 6.96035 0.920818 0
M  V30 3331 H 331.122 2.85173 -0.864891 0
M  V30 3332 H 328.659 1.40422 -0.438179 0
M  V30 3333 H 330.617 3.94345 1.36189 0
M  V30 3334 H 329.247 2.8211 1.56888 0
M  V30 3335 H 328.299 3.74492 -0.66781 0
M  V30 3336 H 329.611 4.9443 -0.658825 0
M  V30 3337 H 328.765 5.87759 1.50412 0
M  V30 3338 H 327.504 4.61459 1.57819 0
M  V30 3339 H 326.509 5.46916 -0.562389 0
M  V30 3340 H 327.734 6.76261 -0.6203 0
M  V30 3341 H 325.68 6.36485 1.58818 0
M  V30 3342 H 325.597 7.55284 0.32899 0
M  V30 3343 H 326.865 7.64646 1.51447 0
M  V30 3344 N 331.094 0.475555 1.50254 0
M  V30 3345 C 332.322 -0.0754493 2.06762 0
M  V30 3346 C 332.737 -1.33111 1.33891 0
M  V30 3347 O 332.094 -1.77846 0.40952 0
M  V30 3348 C 332.145 -0.359008 3.59713 0
M  V30 3349 O 331.866 0.846851 4.29837 0
M  V30 3350 C 333.367 -0.956484 4.32858 0
M  V30 3351 H 330.587 0.00907525 0.670939 0
M  V30 3352 H 333.131 0.665618 1.93364 0
M  V30 3353 H 331.286 -1.05001 3.72899 0
M  V30 3354 H 331.7 0.594162 5.21124 0
M  V30 3355 H 333.174 -1.10463 5.40834 0
M  V30 3356 H 333.651 -1.94775 3.93649 0
M  V30 3357 H 334.257 -0.303723 4.24214 0
M  V30 3358 N 332.573 -1.56217 0.208337 0
M  V30 3359 C 333.536 -2.18455 -0.693557 0
M  V30 3360 C 334.536 -1.14268 -1.13135 0
M  V30 3361 O 335.726 -1.39577 -1.0423 0
M  V30 3362 C 332.858 -2.79727 -1.94848 0
M  V30 3363 H 334.051 -2.99519 -0.15114 0
M  V30 3364 H 331.604 -1.56245 -0.041287 0
M  V30 3365 H 332.339 -2.02497 -2.53309 0
M  V30 3366 H 332.124 -3.56009 -1.64316 0
M  V30 3367 H 333.614 -3.27475 -2.59133 0
M  V30 3368 N 334.051 0.0651679 -1.57465 0
M  V30 3369 C 334.983 1.10359 -2.00882 0
M  V30 3370 C 335.996 1.346 -0.915788 0
M  V30 3371 O 337.185 1.32723 -1.1936 0
M  V30 3372 C 334.285 2.45312 -2.33828 0
M  V30 3373 C 333.458 2.40934 -3.65061 0
M  V30 3374 C 332.517 3.58047 -3.85602 0
M  V30 3375 O 331.543 3.39175 -4.57109 0
M  V30 3376 N 332.745 4.78637 -3.28462 0
M  V30 3377 H 335.51 0.733807 -2.90578 0
M  V30 3378 H 333.071 0.253719 -1.599 0
M  V30 3379 H 335.063 3.22314 -2.44737 0
M  V30 3380 H 333.633 2.74267 -1.49988 0
M  V30 3381 H 332.853 1.49273 -3.64844 0
M  V30 3382 H 334.141 2.35117 -4.51218 0
M  V30 3383 H 333.539 4.96872 -2.70433 0
M  V30 3384 H 332.096 5.53127 -3.44809 0
M  V30 3385 N 335.529 1.53961 0.336706 0
M  V30 3386 C 336.945 1.44378 0.680241 0
M  V30 3387 C 337.145 0.606034 1.9217 0
M  V30 3388 O 336.201 0.099688 2.52303 0
M  V30 3389 C 337.514 2.87945 0.8665 0
M  V30 3390 C 339.062 2.97763 0.964682 0
M  V30 3391 C 339.537 4.42453 1.18321 0
M  V30 3392 N 341.028 4.46008 1.25025 0
M  V30 3393 C 341.763 5.55102 1.43697 0
M  V30 3394 N 341.259 6.7419 1.59498 0
M  V30 3395 N 343.052 5.42727 1.463 0
M  V30 3396 H 335.203 2.06918 -0.479455 0
M  V30 3397 H 337.466 0.935634 -0.152619 0
M  V30 3398 H 337.172 3.51691 0.0256937 0
M  V30 3399 H 337.046 3.33293 1.76623 0
M  V30 3400 H 339.433 2.34153 1.796 0
M  V30 3401 H 339.514 2.55766 0.041708 0
M  V30 3402 H 339.158 5.06645 0.356788 0
M  V30 3403 H 339.088 4.82048 2.11985 0
M  V30 3404 H 341.579 3.60196 1.14312 0
M  V30 3405 H 341.892 7.53095 1.734 0
M  V30 3406 H 340.237 6.77123 1.56621 0
M  V30 3407 H 343.428 4.48647 1.33543 0
M  V30 3408 H 343.601 6.27806 1.6051 0
M  V30 3409 N 337.007 -0.598083 1.45811 0
M  V30 3410 C 338.232 -1.3881 1.54099 0
M  V30 3411 C 338.657 -1.8726 0.177578 0
M  V30 3412 O 338.015 -1.6069 -0.839541 0
M  V30 3413 C 338.063 -2.56217 2.53743 0
M  V30 3414 O 337.167 -3.5716 2.06182 0
M  V30 3415 H 336.508 -0.414024 0.519115 0
M  V30 3416 H 339.038 -0.726971 1.91249 0
M  V30 3417 H 339.048 -3.03337 2.72856 0
M  V30 3418 H 337.723 -2.20303 3.5276 0
M  V30 3419 H 336.3 -3.16624 1.96987 0
M  V30 3420 N 338.485 -1.33259 -0.841409 0
M  V30 3421 C 339.733 -1.24326 -1.59334 0
M  V30 3422 C 340.054 0.191564 -1.94057 0
M  V30 3423 O 339.324 1.11967 -1.60749 0
M  V30 3424 H 337.904 -0.457174 -0.590763 0
M  V30 3425 H 340.566 -1.66947 -1.00571 0
M  V30 3426 H 339.662 -1.8352 -2.52442 0
M  V30 3427 N 339.963 1.05934 -1.16686 0
M  V30 3428 C 341.21 1.788 -0.950622 0
M  V30 3429 C 341.538 1.87384 0.521305 0
M  V30 3430 O 340.793 1.36438 1.40297 0
M  V30 3431 C 341.092 3.23105 -1.52767 0
M  V30 3432 C 340.758 3.34594 -3.02254 0
M  V30 3433 C 339.42 3.37437 -3.43059 0
M  V30 3434 C 341.772 3.36219 -3.98254 0
M  V30 3435 C 339.1 3.39525 -4.78477 0
M  V30 3436 C 341.452 3.39845 -5.33562 0
M  V30 3437 C 340.116 3.40971 -5.73842 0
M  V30 3438 H 339.386 0.654275 -0.347857 0
M  V30 3439 H 342.033 1.24555 -1.45459 0
M  V30 3440 H 340.338 3.80227 -0.94524 0
M  V30 3441 H 342.035 3.7809 -1.336 0
M  V30 3442 H 338.625 3.3309 -2.6972 0
M  V30 3443 H 342.809 3.33231 -3.67792 0
M  V30 3444 H 338.065 3.38703 -5.09009 0
M  V30 3445 H 342.239 3.4005 -6.07733 0
M  V30 3446 H 339.866 3.42342 -6.78753 0
M  V30 3447 N 341.441 0.965919 1.2453 0
M  V30 3448 C 342.669 0.644385 1.96609 0
M  V30 3449 C 343.084 -0.785823 1.71669 0
M  V30 3450 O 342.441 -1.52703 0.999399 0
M  V30 3451 C 342.492 0.907375 3.49927 0
M  V30 3452 O 342.213 2.28136 3.74013 0
M  V30 3453 C 343.714 0.599784 4.39224 0
M  V30 3454 H 340.934 0.240588 0.626385 0
M  V30 3455 H 343.478 1.29337 1.58405 0
M  V30 3456 H 341.633 0.304631 3.862 0
M  V30 3457 H 342.047 2.36002 4.68405 0
M  V30 3458 H 343.521 0.834263 5.45659 0
M  V30 3459 H 343.998 -0.465921 4.36722 0
M  V30 3460 H 344.604 1.18235 4.08535 0
M  V30 3461 N 342.919 -1.39368 0.735821 0
M  V30 3462 C 344.147 -2.04795 0.294393 0
M  V30 3463 C 344.562 -1.55478 -1.07107 0
M  V30 3464 O 343.919 -0.720038 -1.67695 0
M  V30 3465 C 343.97 -3.6035 0.288071 0
M  V30 3466 O 343.691 -4.07852 1.59963 0
M  V30 3467 C 345.192 -4.42976 -0.169422 0
M  V30 3468 H 342.412 -0.658571 0.128551 0
M  V30 3469 H 344.956 -1.78399 0.999701 0
M  V30 3470 H 343.111 -3.85645 -0.368355 0
M  V30 3471 H 343.525 -5.02181 1.51375 0
M  V30 3472 H 344.999 -5.51864 -0.122687 0
M  V30 3473 H 345.476 -4.22068 -1.21472 0
M  V30 3474 H 346.082 -4.22832 0.457469 0
M  V30 3475 N 344.397 -0.483516 -1.5 0
M  V30 3476 C 345.36 0.292965 -2.2732 0
M  V30 3477 C 346.36 0.909499 -1.32608 0
M  V30 3478 O 347.55 0.776745 -1.55924 0
M  V30 3479 C 344.682 1.41854 -3.09984 0
M  V30 3480 H 345.875 -0.385289 -2.97415 0
M  V30 3481 H 343.428 -0.237942 -1.54478 0
M  V30 3482 H 344.163 2.13148 -2.44414 0
M  V30 3483 H 343.948 0.982114 -3.79601 0
M  V30 3484 H 345.438 1.96597 -3.68429 0
M  V30 3485 N 345.875 1.56104 -0.216619 0
M  V30 3486 C 347.122 1.98172 0.416416 0
M  V30 3487 C 347.45 1.10413 1.60122 0
M  V30 3488 O 346.705 0.147967 1.9514 0
M  V30 3489 C 347.004 3.45923 0.898464 0
M  V30 3490 C 346.67 4.50559 -0.175288 0
M  V30 3491 C 345.332 4.78897 -0.470271 0
M  V30 3492 C 347.684 5.1334 -0.901728 0
M  V30 3493 C 345.012 5.67299 -1.4963 0
M  V30 3494 C 347.364 6.02853 -1.91705 0
M  V30 3495 C 346.028 6.29537 -2.21901 0
M  V30 3496 H 345.298 0.725164 0.152377 0
M  V30 3497 H 347.945 1.88839 -0.318103 0
M  V30 3498 H 346.25 3.52434 1.71165 0
M  V30 3499 H 347.947 3.75841 1.39803 0
M  V30 3500 H 344.537 4.28551 0.0647806 0
M  V30 3501 H 348.721 4.91521 -0.687072 0
M  V30 3502 H 343.977 5.86239 -1.73592 0
M  V30 3503 H 348.151 6.50552 -2.48505 0
M  V30 3504 H 345.778 6.97835 -3.01548 0
M  V30 3505 N 347.353 -0.0568162 1.57498 0
M  V30 3506 C 348.599 -0.75422 1.88253 0
M  V30 3507 C 348.932 -1.76461 0.810865 0
M  V30 3508 O 348.207 -1.93691 -0.177259 0
M  V30 3509 C 348.49 -1.44878 3.2967 0
M  V30 3510 C 348.343 -0.453789 4.47505 0
M  V30 3511 C 349.662 -2.38994 3.69554 0
M  V30 3512 H 346.781 -0.272724 0.684683 0
M  V30 3513 H 349.423 -0.0172113 1.89992 0
M  V30 3514 H 347.573 -2.077 3.28318 0
M  V30 3515 H 349.245 0.170371 4.60985 0
M  V30 3516 H 347.488 0.229552 4.33192 0
M  V30 3517 H 348.159 -0.977699 5.43273 0
M  V30 3518 H 350.635 -1.86239 3.72095 0
M  V30 3519 H 349.511 -2.84587 4.69363 0
M  V30 3520 H 349.772 -3.24461 3.00296 0
M  V30 3521 N 348.832 -1.54138 -0.328536 0
M  V30 3522 C 350.243 -1.63395 -0.903272 0
M  V30 3523 C 350.594 -0.524828 -1.8905 0
M  V30 3524 O 349.719 0.343068 -2.13663 0
M  V30 3525 C 350.314 -2.9618 -1.64507 0
M  V30 3526 C 348.873 -3.0765 -2.1686 0
M  V30 3527 C 348.02 -2.58933 -0.992416 0
M  V30 3528 H 350.971 -1.58344 -0.106253 0
M  V30 3529 H 350.992 -2.86061 -2.50897 0
M  V30 3530 H 350.504 -3.76884 -0.926302 0
M  V30 3531 H 348.605 -2.31611 -2.91868 0
M  V30 3532 H 348.718 -4.1337 -2.42202 0
M  V30 3533 H 347.082 -2.14706 -1.37016 0
M  V30 3534 H 347.865 -3.42089 -0.288041 0
M  V30 3535 N 350.31 0.590341 -1.46126 0
M  V30 3536 C 351.258 1.72105 -1.5647 0
M  V30 3537 C 352.252 1.63756 -0.433612 0
M  V30 3538 O 353.458 1.69342 -0.610194 0
M  V30 3539 H 349.833 0.568889 -0.491802 0
M  V30 3540 H 351.804 1.6051 -2.51553 0
M  V30 3541 C 350.553 3.10493 -1.56491 0
M  V30 3542 H 349.876 3.17583 -2.4286 0
M  V30 3543 H 351.316 3.8939 -1.67785 0
M  V30 3544 C 349.775 3.3563 -0.292231 0
M  V30 3545 O 350.305 3.96875 0.620739 0
M  V30 3546 N 348.511 2.90026 -0.182523 0
M  V30 3547 H 348.058 2.40367 -0.926356 0
M  V30 3548 H 348.016 3.07218 0.668152 0
M  V30 3549 N 351.788 1.33704 0.83433 0
M  V30 3550 C 353.034 1.25603 1.59222 0
M  V30 3551 C 353.367 -0.176659 1.93395 0
M  V30 3552 O 352.642 -1.11915 1.59076 0
M  V30 3553 C 352.925 2.13576 2.89926 0
M  V30 3554 C 352.778 3.65326 2.62406 0
M  V30 3555 C 354.097 2.01238 3.91397 0
M  V30 3556 H 351.216 0.457613 0.577719 0
M  V30 3557 H 353.858 1.63848 0.961972 0
M  V30 3558 H 352.008 1.8109 3.43713 0
M  V30 3559 H 353.68 4.08124 2.15017 0
M  V30 3560 H 351.923 3.8698 1.96033 0
M  V30 3561 H 352.594 4.22232 3.55562 0
M  V30 3562 H 355.07 2.29738 3.46929 0
M  V30 3563 H 353.946 2.65036 4.80673 0
M  V30 3564 H 354.207 0.985951 4.30966 0
M  V30 3565 N 353.266 -1.05314 1.17247 0
M  V30 3566 C 354.496 -1.81707 0.983166 0
M  V30 3567 C 354.904 -1.83222 -0.471822 0
M  V30 3568 O 354.247 -1.25721 -1.3394 0
M  V30 3569 C 354.309 -3.29134 1.44606 0
M  V30 3570 C 353.973 -3.51304 2.92292 0
M  V30 3571 C 354.97 -3.4353 3.90235 0
M  V30 3572 C 352.655 -3.78306 3.30439 0
M  V30 3573 C 354.649 -3.62442 5.24323 0
M  V30 3574 C 352.336 -3.96866 4.64694 0
M  V30 3575 C 353.334 -3.88933 5.61445 0
M  V30 3576 O 353.022 -4.06976 6.93272 0
M  V30 3577 H 352.754 -0.579476 0.348114 0
M  V30 3578 H 355.308 -1.33705 1.55924 0
M  V30 3579 H 353.538 -3.78046 0.813537 0
M  V30 3580 H 355.227 -3.87049 1.22262 0
M  V30 3581 H 355.993 -3.22648 3.62109 0
M  V30 3582 H 351.872 -3.83585 2.55702 0
M  V30 3583 H 355.416 -3.56165 5.99827 0
M  V30 3584 H 351.313 -4.1724 4.92525 0
M  V30 3585 H 352.081 -4.24209 6.99992 0
M  V30 3586 N 354.744 -0.972509 -1.24016 0
M  V30 3587 C 356.021 -0.553733 -1.87598 0
M  V30 3588 C 356.401 0.969158 -1.87538 0
M  V30 3589 O 355.749 1.84255 -1.35139 0
M  V30 3590 C 355.959 -1.15076 -3.29482 0
M  V30 3591 C 357.307 -1.23862 -4.06132 0
M  V30 3592 O 358.331 -1.10363 -3.38672 0
M  V30 3593 O 357.19 -1.45252 -5.26844 0
M  V30 3594 H 354.284 -0.185331 -0.805966 0
M  V30 3595 H 356.83 -1.06709 -1.31952 0
M  V30 3596 H 355.602 -2.19333 -3.2405 0
M  V30 3597 H 355.225 -0.621746 -3.92709 0
M  V30 3598 N 356.222 1.38976 -0.743202 0
M  V30 3599 C 357.469 2.00343 -0.294752 0
M  V30 3600 C 357.797 1.58983 1.12047 0
M  V30 3601 O 357.052 0.813809 1.77977 0
M  V30 3602 C 357.351 3.55647 -0.353517 0
M  V30 3603 C 357.017 4.16685 -1.72292 0
M  V30 3604 C 355.679 4.3307 -2.09771 0
M  V30 3605 C 358.031 4.50464 -2.62168 0
M  V30 3606 C 355.359 4.80526 -3.36618 0
M  V30 3607 C 357.711 4.99332 -3.88395 0
M  V30 3608 C 356.375 5.13924 -4.25956 0
M  V30 3609 H 355.645 0.733108 -0.107857 0
M  V30 3610 H 358.292 1.6618 -0.951651 0
M  V30 3611 H 356.597 3.89884 0.386954 0
M  V30 3612 H 358.294 4.00998 0.0117269 0
M  V30 3613 H 354.884 4.04339 -1.42155 0
M  V30 3614 H 359.068 4.37416 -2.3448 0
M  V30 3615 H 354.324 4.90008 -3.65653 0
M  V30 3616 H 358.498 5.2444 -4.58187 0
M  V30 3617 H 356.125 5.50457 -5.2431 0
M  V30 3618 N 357.7 0.491464 1.49741 0
M  V30 3619 C 358.61 -0.296835 2.32715 0
M  V30 3620 C 359.626 -0.976536 1.44013 0
M  V30 3621 O 360.802 -0.960023 1.77047 0
M  V30 3622 C 357.867 -1.35288 3.19215 0
M  V30 3623 C 356.928 -0.687632 4.23757 0
M  V30 3624 C 356.161 -1.69336 5.06123 0
M  V30 3625 O 356.384 -2.92219 4.89861 0
M  V30 3626 O 355.318 -1.25394 5.88693 0
M  V30 3627 H 359.144 0.382048 3.01287 0
M  V30 3628 H 356.729 0.252953 1.47243 0
M  V30 3629 H 358.611 -1.96411 3.72828 0
M  V30 3630 H 357.286 -2.01487 2.53347 0
M  V30 3631 H 356.193 -0.0369159 3.74082 0
M  V30 3632 H 357.526 -0.0682566 4.92153 0
M  V30 3633 N 359.178 -1.55987 0.224894 0
M  V30 3634 C 360.408 -2.02489 -0.41007 0
M  V30 3635 C 360.816 -1.10391 -1.53657 0
M  V30 3636 O 360.159 -0.106458 -1.83391 0
M  V30 3637 C 360.221 -3.45319 -0.999757 0
M  V30 3638 C 359.885 -4.56999 -0.00827976 0
M  V30 3639 C 360.882 -5.13812 0.793314 0
M  V30 3640 C 358.567 -5.02176 0.111442 0
M  V30 3641 C 360.561 -6.14276 1.7013 0
M  V30 3642 C 358.248 -6.02477 1.02296 0
M  V30 3643 C 359.246 -6.58403 1.81643 0
M  V30 3644 O 358.934 -7.56751 2.71262 0
M  V30 3645 H 358.666 -0.667915 -0.104235 0
M  V30 3646 H 361.22 -2.0257 0.339782 0
M  V30 3647 H 359.45 -3.42318 -1.79876 0
M  V30 3648 H 361.139 -3.7545 -1.54248 0
M  V30 3649 H 361.905 -4.79756 0.711288 0
M  V30 3650 H 357.784 -4.58323 -0.49605 0
M  V30 3651 H 361.328 -6.57854 2.32107 0
M  V30 3652 H 357.225 -6.35954 1.10599 0
M  V30 3653 H 357.993 -7.74286 2.65375 0
M  V30 3654 N 360.656 0.0484629 -1.57525 0
M  V30 3655 C 361.589 1.08755 -2.00618 0
M  V30 3656 C 362.567 1.36272 -0.887058 0
M  V30 3657 O 363.751 1.49255 -1.15131 0
M  V30 3658 C 360.878 2.42675 -2.36277 0
M  V30 3659 C 359.924 2.31142 -3.58435 0
M  V30 3660 S 360.757 1.68326 -5.08357 0
M  V30 3661 C 361.913 3.03776 -5.47239 0
M  V30 3662 H 362.146 0.720415 -2.88439 0
M  V30 3663 H 359.679 0.257801 -1.52233 0
M  V30 3664 H 361.637 3.19699 -2.57494 0
M  V30 3665 H 360.298 2.76541 -1.48942 0
M  V30 3666 H 359.491 3.29957 -3.80978 0
M  V30 3667 H 359.093 1.62258 -3.36969 0
M  V30 3668 H 361.385 4.00106 -5.46737 0
M  V30 3669 H 362.328 2.85988 -6.47778 0
M  V30 3670 H 362.736 3.05456 -4.74718 0
M  V30 3671 N 362.134 1.5431 0.320358 0
M  V30 3672 C 363.081 1.83918 1.39438 0
M  V30 3673 C 364.051 0.686525 1.51248 0
M  V30 3674 O 365.236 0.933269 1.66417 0
M  V30 3675 C 362.376 2.075 2.75749 0
M  V30 3676 C 361.489 3.35177 2.72544 0
M  V30 3677 C 360.624 3.48704 4.00723 0
M  V30 3678 C 359.663 4.70244 3.91838 0
M  V30 3679 N 358.8 4.80679 5.11754 0
M  V30 3680 H 363.64 2.75544 1.13489 0
M  V30 3681 H 361.177 1.36459 0.549309 0
M  V30 3682 H 363.135 2.19166 3.54996 0
M  V30 3683 H 361.765 1.19163 3 0
M  V30 3684 H 360.817 3.32233 1.85271 0
M  V30 3685 H 362.129 4.24534 2.61863 0
M  V30 3686 H 361.283 3.59928 4.88402 0
M  V30 3687 H 360.022 2.57445 4.14214 0
M  V30 3688 H 359.027 4.59072 3.02544 0
M  V30 3689 H 360.252 5.6289 3.7991 0
M  V30 3690 H 358.198 3.92337 5.25745 0
M  V30 3691 H 358.115 5.64007 5.0342 0
M  V30 3692 H 359.383 4.96239 6.01138 0
M  V30 3693 N 363.613 -0.582584 1.46437 0
M  V30 3694 C 364.56 -1.69164 1.5701 0
M  V30 3695 C 365.53 -1.60847 0.414403 0
M  V30 3696 O 366.715 -1.80058 0.631171 0
M  V30 3697 C 363.855 -3.075 1.56646 0
M  V30 3698 C 362.968 -3.2644 2.82951 0
M  V30 3699 C 362.103 -4.55026 2.7409 0
M  V30 3700 C 361.142 -4.6731 3.95333 0
M  V30 3701 N 360.279 -5.87221 3.84858 0
M  V30 3702 H 365.119 -1.59464 2.51744 0
M  V30 3703 H 362.656 -0.777186 1.24893 0
M  V30 3704 H 364.614 -3.8757 1.5442 0
M  V30 3705 H 363.244 -3.16096 0.654439 0
M  V30 3706 H 362.296 -2.39974 2.95155 0
M  V30 3707 H 363.608 -3.31385 3.72808 0
M  V30 3708 H 362.762 -5.43324 2.6997 0
M  V30 3709 H 361.501 -4.52519 1.81873 0
M  V30 3710 H 360.506 -3.77429 3.99784 0
M  V30 3711 H 361.731 -4.71595 4.88646 0
M  V30 3712 H 359.677 -5.85712 2.95427 0
M  V30 3713 H 359.594 -5.93435 4.6837 0
M  V30 3714 H 360.862 -6.7795 3.84713 0
M  V30 3715 N 365.091 -1.34144 -0.827227 0
M  V30 3716 C 366.001 -1.27428 -1.96975 0
M  V30 3717 C 367.017 -0.182728 -1.73038 0
M  V30 3718 O 368.193 -0.408426 -1.97215 0
M  V30 3719 C 365.258 -1.02526 -3.31194 0
M  V30 3720 C 364.319 -2.20796 -3.68168 0
M  V30 3721 C 363.552 -1.97073 -4.95982 0
M  V30 3722 O 363.775 -0.926822 -5.6282 0
M  V30 3723 O 362.709 -2.83912 -5.30733 0
M  V30 3724 H 366.535 -2.23537 -2.05584 0
M  V30 3725 H 364.12 -1.14307 -0.961989 0
M  V30 3726 H 366.002 -0.904026 -4.11589 0
M  V30 3727 H 364.677 -0.0945389 -3.23562 0
M  V30 3728 H 363.584 -2.38477 -2.88235 0
M  V30 3729 H 364.917 -3.12243 -3.8048 0
M  V30 3730 N 366.569 1.04691 -1.17803 0
M  V30 3731 C 367.532 2.10724 -0.901545 0
M  V30 3732 C 368.532 1.6042 0.110437 0
M  V30 3733 O 369.722 1.7377 -0.122303 0
M  V30 3734 C 366.854 3.39084 -0.351409 0
M  V30 3735 H 368.047 2.36686 -1.84174 0
M  V30 3736 H 365.6 1.21015 -0.98919 0
M  V30 3737 H 366.335 3.18782 0.59569 0
M  V30 3738 H 366.12 3.76909 -1.08083 0
M  V30 3739 H 367.61 4.17227 -0.176451 0
M  V30 3740 N 368.047 0.979072 1.23499 0
M  V30 3741 C 369.01 0.523244 2.23147 0
M  V30 3742 C 370.01 -0.386406 1.56088 0
M  V30 3743 O 371.2 -0.180283 1.73265 0
M  V30 3744 C 368.332 -0.240739 3.40049 0
M  V30 3745 H 369.525 1.40432 2.64989 0
M  V30 3746 H 367.078 0.764824 1.36309 0
M  V30 3747 H 367.813 -1.13841 3.03662 0
M  V30 3748 H 367.598 0.412207 3.89927 0
M  V30 3749 H 369.088 -0.548297 4.13985 0
M  V30 3750 N 369.525 -1.3858 0.750561 0
M  V30 3751 C 370.773 -1.99789 0.30477 0
M  V30 3752 C 371.094 -1.59874 -1.11649 0
M  V30 3753 O 370.364 -0.85417 -1.76297 0
M  V30 3754 H 368.944 -0.738902 0.109694 0
M  V30 3755 H 371.606 -1.69391 0.963983 0
M  V30 3756 H 370.702 -3.09952 0.365499 0
M  V30 3757 N 371.003 -0.499398 -1.49478 0
M  V30 3758 C 371.935 0.316575 -2.27003 0
M  V30 3759 C 372.948 0.932047 -1.33479 0
M  V30 3760 O 374.137 0.815658 -1.58774 0
M  V30 3761 C 371.237 1.46055 -3.05812 0
M  V30 3762 C 370.41 0.952679 -4.26899 0
M  V30 3763 C 369.469 1.97407 -4.87767 0
M  V30 3764 O 368.495 1.54326 -5.4788 0
M  V30 3765 N 369.697 3.30436 -4.77276 0
M  V30 3766 H 372.462 -0.348168 -2.97671 0
M  V30 3767 H 370.023 -0.33185 -1.58463 0
M  V30 3768 H 372.015 2.14135 -3.43407 0
M  V30 3769 H 370.585 2.02948 -2.37762 0
M  V30 3770 H 369.805 0.0968248 -3.94081 0
M  V30 3771 H 371.093 0.59174 -5.05347 0
M  V30 3772 H 370.491 3.68126 -4.29534 0
M  V30 3773 H 369.048 3.94235 -5.19059 0
M  V30 3774 N 372.481 1.55866 -0.233164 0
M  V30 3775 C 373.727 1.98897 0.395959 0
M  V30 3776 C 374.06 1.12091 1.58585 0
M  V30 3777 O 373.335 0.181182 1.93654 0
M  V30 3778 C 373.618 3.50658 0.819224 0
M  V30 3779 C 373.471 4.48233 -0.375109 0
M  V30 3780 C 374.79 4.07135 1.67121 0
M  V30 3781 H 371.909 0.723102 0.142451 0
M  V30 3782 H 374.551 1.87082 -0.331725 0
M  V30 3783 H 372.701 3.60857 1.43925 0
M  V30 3784 H 374.373 4.50031 -1.01341 0
M  V30 3785 H 372.616 4.21624 -1.02058 0
M  V30 3786 H 373.287 5.51988 -0.0358328 0
M  V30 3787 H 375.763 3.99952 1.14795 0
M  V30 3788 H 374.639 5.13615 1.93625 0
M  V30 3789 H 374.9 3.54736 2.63846 0
M  V30 3790 N 373.959 -0.0401083 1.57549 0
M  V30 3791 C 375.187 -0.745196 1.93014 0
M  V30 3792 C 375.602 -1.6948 0.831984 0
M  V30 3793 O 374.959 -1.81482 -0.192463 0
M  V30 3794 C 375.01 -1.51176 3.28372 0
M  V30 3795 O 374.731 -0.600284 4.33968 0
M  V30 3796 C 376.232 -2.315 3.78051 0
M  V30 3797 H 373.452 -0.210088 0.637263 0
M  V30 3798 H 375.996 -0.000924689 2.045 0
M  V30 3799 H 374.151 -2.20801 3.18317 0
M  V30 3800 H 374.565 -1.13669 5.12035 0
M  V30 3801 H 376.039 -2.80697 4.75303 0
M  V30 3802 H 376.516 -3.12436 3.08675 0
M  V30 3803 H 377.122 -1.66971 3.91153 0
M  V30 3804 N 375.437 -1.54477 -0.31217 0
M  V30 3805 C 376.384 -1.84655 -1.38461 0
M  V30 3806 C 377.354 -0.694536 -1.50882 0
M  V30 3807 O 378.539 -0.942081 -1.6592 0
M  V30 3808 C 375.679 -2.0896 -2.74645 0
M  V30 3809 C 374.792 -3.36618 -2.70763 0
M  V30 3810 C 373.927 -3.50824 -3.98868 0
M  V30 3811 C 372.966 -4.72315 -3.89339 0
M  V30 3812 N 372.103 -4.83387 -5.09197 0
M  V30 3813 H 376.943 -2.76142 -1.12026 0
M  V30 3814 H 374.48 -1.36748 -0.542065 0
M  V30 3815 H 376.438 -2.21045 -3.53829 0
M  V30 3816 H 375.068 -1.20752 -2.99364 0
M  V30 3817 H 374.12 -3.33211 -1.83506 0
M  V30 3818 H 375.432 -4.25917 -2.59608 0
M  V30 3819 H 374.586 -3.62513 -4.86486 0
M  V30 3820 H 373.325 -2.59638 -4.12843 0
M  V30 3821 H 372.33 -4.6067 -3.00105 0
M  V30 3822 H 373.555 -5.64897 -3.76919 0
M  V30 3823 H 371.501 -3.9512 -5.23657 0
M  V30 3824 H 371.418 -5.66669 -5.00422 0
M  V30 3825 H 372.686 -4.9942 -5.98498 0
M  V30 3826 N 376.915 0.57481 -1.46744 0
M  V30 3827 C 378.14 1.36341 -1.56288 0
M  V30 3828 C 378.565 1.86954 -0.207347 0
M  V30 3829 O 377.923 1.62006 0.813871 0
M  V30 3830 C 377.971 2.52147 -2.57787 0
M  V30 3831 O 377.075 3.53834 -2.11838 0
M  V30 3832 H 376.416 0.405713 -0.525636 0
M  V30 3833 H 378.946 0.696453 -1.92382 0
M  V30 3834 H 378.956 2.98958 -2.77648 0
M  V30 3835 H 377.631 2.14663 -3.5622 0
M  V30 3836 H 376.208 3.1345 -2.01999 0
M  V30 3837 N 378.394 1.34581 0.820102 0
M  V30 3838 C 379.642 1.26845 1.57336 0
M  V30 3839 C 379.963 -0.160667 1.94337 0
M  V30 3840 O 379.233 -1.09396 1.6251 0
M  V30 3841 H 377.813 0.466514 0.583415 0
M  V30 3842 H 380.475 1.68526 0.979027 0
M  V30 3843 H 379.571 1.87513 2.4949 0
M  V30 3844 N 379.872 -1.04064 1.18357 0
M  V30 3845 C 380.802 -2.14001 0.934113 0
M  V30 3846 C 381.783 -1.69616 -0.128186 0
M  V30 3847 O 382.968 -1.94185 0.0244093 0
M  V30 3848 C 380.098 -3.44253 0.459066 0
M  V30 3849 C 379.052 -4.02261 1.46185 0
M  V30 3850 C 378.378 -5.27992 0.844322 0
M  V30 3851 C 379.678 -4.38432 2.83856 0
M  V30 3852 H 381.372 -2.35127 1.85352 0
M  V30 3853 H 378.918 -1.12998 0.892604 0
M  V30 3854 H 380.871 -4.20522 0.271907 0
M  V30 3855 H 379.595 -3.22813 -0.495912 0
M  V30 3856 H 378.254 -3.28074 1.63595 0
M  V30 3857 H 377.902 -5.02862 -0.117845 0
M  V30 3858 H 377.602 -5.67765 1.51384 0
M  V30 3859 H 379.126 -6.06938 0.667693 0
M  V30 3860 H 380.54 -5.05688 2.70098 0
M  V30 3861 H 378.937 -4.89254 3.47491 0
M  V30 3862 H 380.007 -3.4826 3.37406 0
M  V30 3863 N 381.35 -0.985608 -1.22978 0
M  V30 3864 C 382.598 -0.656087 -1.91154 0
M  V30 3865 C 382.919 0.813561 -1.77218 0
M  V30 3866 O 382.189 1.58244 -1.1548 0
M  V30 3867 H 380.769 -0.239674 -0.707506 0
M  V30 3868 H 383.431 -1.25054 -1.49491 0
M  V30 3869 H 382.527 -0.912253 -2.9847 0
M  V30 3870 N 382.828 1.3818 -0.7579 0
M  V30 3871 C 384.076 1.99624 -0.315361 0
M  V30 3872 C 384.397 1.60464 1.10799 0
M  V30 3873 O 383.667 0.863507 1.75842 0
M  V30 3874 H 382.247 0.73831 -0.113611 0
M  V30 3875 H 384.909 1.68878 -0.972952 0
M  V30 3876 H 384.005 3.09754 -0.381931 0
M  V30 3877 N 384.306 0.507319 1.49211 0
M  V30 3878 C 385.216 -0.272136 2.33016 0
M  V30 3879 C 386.232 -0.961206 1.45041 0
M  V30 3880 O 387.408 -0.941191 1.78055 0
M  V30 3881 C 384.473 -1.31895 3.20631 0
M  V30 3882 C 383.534 -0.642648 4.24463 0
M  V30 3883 C 382.767 -1.63959 5.07891 0
M  V30 3884 O 382.99 -2.87007 4.92933 0
M  V30 3885 O 381.924 -1.19143 5.8999 0
M  V30 3886 H 385.75 0.413982 3.00865 0
M  V30 3887 H 383.335 0.268556 1.46966 0
M  V30 3888 H 385.217 -1.92446 3.7489 0
M  V30 3889 H 383.892 -1.98788 2.5547 0
M  V30 3890 H 382.799 0.00276252 3.741 0
M  V30 3891 H 384.132 -0.0160534 4.92197 0
M  V30 3892 N 385.784 -1.5574 0.241426 0
M  V30 3893 C 387.03 -1.99104 -0.385406 0
M  V30 3894 C 387.363 -1.1293 -1.57988 0
M  V30 3895 O 386.638 -0.191449 -1.93555 0
M  V30 3896 C 386.921 -3.51087 -0.800616 0
M  V30 3897 C 386.774 -4.48028 0.398874 0
M  V30 3898 C 388.093 -4.08015 -1.64959 0
M  V30 3899 H 385.212 -0.723848 -0.138614 0
M  V30 3900 H 387.854 -1.86903 0.341642 0
M  V30 3901 H 386.004 -3.61615 -1.4201 0
M  V30 3902 H 387.676 -4.49487 1.03726 0
M  V30 3903 H 385.919 -4.21077 1.04293 0
M  V30 3904 H 386.59 -5.51962 0.0651056 0
M  V30 3905 H 389.066 -4.00555 -1.12672 0
M  V30 3906 H 387.942 -5.14635 -1.90898 0
M  V30 3907 H 388.203 -3.56131 -2.61961 0
M  V30 3908 N 387.262 0.0317525 -1.57568 0
M  V30 3909 C 388.511 0.722131 -1.8833 0
M  V30 3910 C 388.824 1.76664 -0.839587 0
M  V30 3911 O 390.03 2.50942 -1.03635 0
M  V30 3912 C 388.486 1.33544 -3.34207 0
M  V30 3913 C 388.094 0.327415 -4.46802 0
M  V30 3914 C 389.838 2.00585 -3.7412 0
M  V30 3915 C 387.745 0.948915 -5.83738 0
M  V30 3916 H 386.675 0.273466 -0.702661 0
M  V30 3917 H 389.326 -0.0235811 -1.83485 0
M  V30 3918 H 387.708 2.13077 -3.33788 0
M  V30 3919 H 388.882 -0.441006 -4.58685 0
M  V30 3920 H 387.197 -0.240758 -4.15703 0
M  V30 3921 H 389.794 2.47932 -4.73744 0
M  V30 3922 H 390.137 2.82285 -3.05975 0
M  V30 3923 H 390.67 1.27831 -3.76702 0
M  V30 3924 H 387.409 0.171387 -6.55276 0
M  V30 3925 H 386.929 1.68724 -5.7558 0
M  V30 3926 H 388.608 1.45705 -6.3038 0
M  V30 3927 N 388.74 1.54641 0.303973 0
M  V30 3928 C 389.97 1.77511 1.05705 0
M  V30 3929 C 390.378 0.533228 1.81531 0
M  V30 3930 O 389.721 -0.506423 1.76582 0
M  V30 3931 C 389.783 2.92779 2.08617 0
M  V30 3932 C 389.447 4.30977 1.52013 0
M  V30 3933 C 390.444 5.11115 0.9517 0
M  V30 3934 C 388.129 4.77571 1.55665 0
M  V30 3935 C 390.123 6.35966 0.427327 0
M  V30 3936 C 387.81 6.02384 1.02841 0
M  V30 3937 C 388.808 6.81417 0.464713 0
M  V30 3938 O 388.496 8.03881 -0.0555283 0
M  V30 3939 H 388.228 0.59579 0.319391 0
M  V30 3940 H 390.782 2.02401 0.349712 0
M  V30 3941 H 389.012 2.63506 2.83022 0
M  V30 3942 H 390.701 3.03252 2.69802 0
M  V30 3943 H 391.467 4.76264 0.916407 0
M  V30 3944 H 387.346 4.16085 1.9848 0
M  V30 3945 H 390.89 6.97599 -0.0133062 0
M  V30 3946 H 386.787 6.36723 1.06084 0
M  V30 3947 H 387.555 8.18479 0.0580522 0
M  V30 3948 N 390.218 -0.567019 1.47046 0
M  V30 3949 C 391.466 -1.322 1.52864 0
M  V30 3950 C 391.787 -1.94088 0.188388 0
M  V30 3951 O 391.057 -1.7941 -0.786693 0
M  V30 3952 H 389.637 -0.490894 0.563056 0
M  V30 3953 H 392.299 -0.662879 1.83281 0
M  V30 3954 H 391.395 -2.12062 2.2899 0
M  V30 3955 N 391.696 -1.35014 -0.812953 0
M  V30 3956 C 392.644 -1.27435 -1.94585 0
M  V30 3957 C 393.638 -0.170494 -1.6854 0
M  V30 3958 O 394.844 -0.336085 -1.76835 0
M  V30 3959 H 391.219 -0.396144 -0.639198 0
M  V30 3960 H 393.19 -2.23158 -1.98098 0
M  V30 3961 C 391.939 -1.05677 -3.31252 0
M  V30 3962 H 391.262 -1.89853 -3.51846 0
M  V30 3963 H 392.702 -1.04413 -4.10943 0
M  V30 3964 C 391.161 0.239615 -3.36047 0
M  V30 3965 O 391.691 1.23759 -3.8216 0
M  V30 3966 N 389.897 0.276186 -2.89285 0
M  V30 3967 H 389.444 -0.53653 -2.51951 0
M  V30 3968 H 389.402 1.14332 -2.92875 0
M  V30 3969 N 393.175 1.03435 -1.18907 0
M  V30 3970 C 394.123 2.13703 -0.918353 0
M  V30 3971 C 395.117 1.68947 0.123767 0
M  V30 3972 O 396.323 1.79983 -0.0249701 0
M  V30 3973 H 392.698 0.698112 -0.279542 0
M  V30 3974 H 394.669 2.33731 -1.85506 0
M  V30 3975 C 393.418 3.44542 -0.467532 0
M  V30 3976 H 392.741 3.79394 -1.26095 0
M  V30 3977 H 394.181 4.22812 -0.317164 0
M  V30 3978 C 392.64 3.26829 0.817588 0
M  V30 3979 O 393.17 3.54975 1.88031 0
M  V30 3980 N 391.376 2.80139 0.772677 0
M  V30 3981 H 390.923 2.57434 -0.0923883 0
M  V30 3982 H 390.881 2.68668 1.63294 0
M  V30 3983 N 394.653 0.992116 1.22453 0
M  V30 3984 C 395.616 0.546883 2.2258 0
M  V30 3985 C 396.616 -0.369829 1.56489 0
M  V30 3986 O 397.806 -0.161896 1.73446 0
M  V30 3987 C 394.938 -0.204659 3.40285 0
M  V30 3988 H 396.131 1.43234 2.63484 0
M  V30 3989 H 393.684 0.779239 1.3549 0
M  V30 3990 H 394.419 -1.10614 3.04853 0
M  V30 3991 H 394.204 0.45354 3.89468 0
M  V30 3992 H 395.694 -0.504358 4.14543 0
M  V30 3993 N 396.131 -1.37776 0.765217 0
M  V30 3994 C 397.379 -1.99454 0.325943 0
M  V30 3995 C 397.7 -1.61049 -1.09947 0
M  V30 3996 O 396.97 -0.872821 -1.75381 0
M  V30 3997 H 395.55 -0.737697 0.117525 0
M  V30 3998 H 398.212 -1.68359 0.981895 0
M  V30 3999 H 397.308 -3.09547 0.398353 0
M  V30 4000 N 397.609 -0.515225 -1.4894 0
M  V30 4001 C 398.556 0.255567 -2.29381 0
M  V30 4002 C 399.526 0.947387 -1.36432 0
M  V30 4003 O 400.711 0.951288 -1.65394 0
M  V30 4004 C 397.851 1.30551 -3.19453 0
M  V30 4005 C 396.964 0.624029 -4.27469 0
M  V30 4006 C 396.099 1.65563 -5.0474 0
M  V30 4007 C 395.138 0.956802 -6.04576 0
M  V30 4008 N 394.275 1.93326 -6.74959 0
M  V30 4009 H 399.115 -0.436607 -2.94784 0
M  V30 4010 H 396.652 -0.227154 -1.45336 0
M  V30 4011 H 398.61 1.92639 -3.70062 0
M  V30 4012 H 397.24 1.96626 -2.56004 0
M  V30 4013 H 396.292 -0.110459 -3.8024 0
M  V30 4014 H 397.604 0.0746092 -4.98744 0
M  V30 4015 H 396.758 2.35119 -5.59289 0
M  V30 4016 H 395.497 2.23893 -4.3327 0
M  V30 4017 H 394.502 0.247097 -5.49244 0
M  V30 4018 H 395.727 0.379814 -6.78037 0
M  V30 4019 H 393.673 2.50591 -6.06251 0
M  V30 4020 H 393.59 1.43489 -7.42258 0
M  V30 4021 H 394.858 2.62126 -7.34105 0
M  V30 4022 N 399.087 1.5561 -0.249682 0
M  V30 4023 C 400.034 2.21496 0.648694 0
M  V30 4024 C 401.004 1.17977 1.16921 0
M  V30 4025 O 402.189 1.46434 1.22318 0
M  V30 4026 C 399.329 2.92039 1.83868 0
M  V30 4027 C 398.442 4.10219 1.35442 0
M  V30 4028 C 397.577 4.6847 2.50419 0
M  V30 4029 C 396.616 5.78893 1.98869 0
M  V30 4030 N 395.753 6.31315 3.07223 0
M  V30 4031 H 400.593 2.97892 0.0801582 0
M  V30 4032 H 398.13 1.47074 0.0278031 0
M  V30 4033 H 400.088 3.31138 2.53778 0
M  V30 4034 H 398.718 2.18111 2.37965 0
M  V30 4035 H 397.77 3.76413 0.54928 0
M  V30 4036 H 399.082 4.89927 0.936649 0
M  V30 4037 H 398.236 5.10158 3.28366 0
M  V30 4038 H 396.975 3.87984 2.95499 0
M  V30 4039 H 395.98 5.3668 1.19393 0
M  V30 4040 H 397.205 6.61232 1.54755 0
M  V30 4041 H 395.151 5.53733 3.51732 0
M  V30 4042 H 395.068 7.06224 2.69784 0
M  V30 4043 H 396.336 6.77662 3.8522 0
M  V30 4044 N 400.565 -0.0233959 1.57583 0
M  V30 4045 C 401.79 -0.728376 1.94189 0
M  V30 4046 C 402.215 -1.67793 0.850119 0
M  V30 4047 O 401.573 -1.80262 -0.19371 0
M  V30 4048 C 401.621 -1.45669 3.29868 0
M  V30 4049 O 400.725 -2.57013 3.22518 0
M  V30 4050 H 400.066 -0.195493 0.63457 0
M  V30 4051 H 402.596 0.0228214 2.04587 0
M  V30 4052 H 402.606 -1.82535 3.6489 0
M  V30 4053 H 401.281 -0.760314 4.08891 0
M  V30 4054 H 399.858 -2.22648 2.99136 0
M  V30 4055 N 402.043 -1.548 -0.295768 0
M  V30 4056 C 402.973 -1.89115 -1.36959 0
M  V30 4057 C 403.954 -0.75059 -1.52644 0
M  V30 4058 O 405.139 -1.00678 -1.66065 0
M  V30 4059 C 402.269 -2.14307 -2.73295 0
M  V30 4060 C 401.223 -3.30151 -2.72368 0
M  V30 4061 C 400.549 -3.40772 -4.12042 0
M  V30 4062 C 401.849 -4.67126 -2.33646 0
M  V30 4063 H 403.543 -2.79053 -1.08488 0
M  V30 4064 H 401.089 -1.34266 -0.520443 0
M  V30 4065 H 403.042 -2.36898 -3.48507 0
M  V30 4066 H 401.766 -1.21145 -3.03301 0
M  V30 4067 H 400.425 -3.0749 -1.99613 0
M  V30 4068 H 400.073 -2.45117 -4.39234 0
M  V30 4069 H 399.773 -4.18645 -4.12322 0
M  V30 4070 H 401.297 -3.6563 -4.89027 0
M  V30 4071 H 402.711 -4.89414 -2.98575 0
M  V30 4072 H 401.108 -5.47751 -2.45129 0
M  V30 4073 H 402.178 -4.67489 -1.28772 0
M  V30 4074 N 403.521 0.559213 -1.47345 0
M  V30 4075 C 404.798 1.31997 -1.44348 0
M  V30 4076 C 405.178 2.1064 -0.139358 0
M  V30 4077 O 404.526 2.1091 0.879153 0
M  V30 4078 C 404.736 2.22618 -2.68779 0
M  V30 4079 C 406.084 2.83701 -3.1591 0
M  V30 4080 O 407.108 2.32921 -2.69493 0
M  V30 4081 O 405.967 3.75993 -3.966 0
M  V30 4082 H 403.061 0.594251 -0.575147 0
M  V30 4083 H 405.607 0.578282 -1.59543 0
M  V30 4084 H 404.379 1.64093 -3.55231 0
M  V30 4085 H 404.002 3.04085 -2.5616 0
M  V30 4086 N 404.999 1.35443 0.805782 0
M  V30 4087 C 405.946 1.28431 1.91766 0
M  V30 4088 C 406.916 0.156102 1.65365 0
M  V30 4089 O 408.101 0.339936 1.87747 0
M  V30 4090 C 405.241 1.06301 3.2832 0
M  V30 4091 C 404.354 2.2805 3.66902 0
M  V30 4092 C 403.489 1.99064 4.92491 0
M  V30 4093 C 402.528 3.16863 5.23703 0
M  V30 4094 N 401.665 2.87647 6.40471 0
M  V30 4095 H 406.505 2.23511 1.97096 0
M  V30 4096 H 404.042 1.11105 0.964054 0
M  V30 4097 H 406 0.915012 4.07042 0
M  V30 4098 H 404.63 0.148822 3.22457 0
M  V30 4099 H 403.682 2.53711 2.83434 0
M  V30 4100 H 404.994 3.1601 3.85927 0
M  V30 4101 H 404.148 1.81099 5.7904 0
M  V30 4102 H 402.887 1.0839 4.75503 0
M  V30 4103 H 401.892 3.35404 4.35642 0
M  V30 4104 H 403.117 4.08339 5.4262 0
M  V30 4105 H 401.063 1.99568 6.24907 0
M  V30 4106 H 400.98 3.69141 6.59751 0
M  V30 4107 H 402.248 2.73226 7.30047 0
M  V30 4108 N 406.477 -1.02803 1.19454 0
M  V30 4109 C 407.705 -1.79841 1.02297 0
M  V30 4110 C 408.12 -1.83879 -0.428259 0
M  V30 4111 O 407.477 -1.28345 -1.29745 0
M  V30 4112 C 407.528 -3.24852 1.58598 0
M  V30 4113 O 407.249 -3.21097 2.98041 0
M  V30 4114 C 408.75 -4.18485 1.46236 0
M  V30 4115 H 405.97 -0.565936 0.360496 0
M  V30 4116 H 408.514 -1.2948 1.58288 0
M  V30 4117 H 406.669 -3.72401 1.06753 0
M  V30 4118 H 407.083 -4.12033 3.24545 0
M  V30 4119 H 408.557 -5.18121 1.90407 0
M  V30 4120 H 409.034 -4.37254 0.41301 0
M  V30 4121 H 409.64 -3.76811 1.97215 0
M  V30 4122 N 407.956 -0.998596 -1.21925 0
M  V30 4123 C 409.186 -0.695276 -1.94549 0
M  V30 4124 C 409.594 0.745079 -1.73911 0
M  V30 4125 O 408.937 1.51507 -1.03881 0
M  V30 4126 C 408.999 -0.928485 -3.47303 0
M  V30 4127 C 408.663 -2.35443 -3.91683 0
M  V30 4128 C 409.66 -3.33428 -3.98901 0
M  V30 4129 C 407.345 -2.69038 -4.24174 0
M  V30 4130 C 409.339 -4.63079 -4.37992 0
M  V30 4131 C 407.026 -3.98906 -4.62944 0
M  V30 4132 C 408.024 -4.95738 -4.69822 0
M  V30 4133 O 407.712 -6.23285 -5.07711 0
M  V30 4134 H 407.444 -0.255902 -0.625692 0
M  V30 4135 H 409.998 -1.33767 -1.5587 0
M  V30 4136 H 408.228 -0.228917 -3.86022 0
M  V30 4137 H 409.917 -0.619539 -4.01144 0
M  V30 4138 H 410.683 -3.08807 -3.73983 0
M  V30 4139 H 406.562 -1.94367 -4.18022 0
M  V30 4140 H 410.106 -5.38658 -4.43275 0
M  V30 4141 H 406.003 -4.23314 -4.87314 0
M  V30 4142 H 406.771 -6.27306 -5.25766 0
M  V30 4143 N 409.434 1.37368 -0.772513 0
M  V30 4144 C 410.364 2.32856 -0.173304 0
M  V30 4145 C 411.345 1.55818 0.682262 0
M  V30 4146 O 412.53 1.84052 0.619566 0
M  V30 4147 C 409.66 3.40048 0.706007 0
M  V30 4148 C 408.614 4.27973 -0.0483144 0
M  V30 4149 C 407.94 5.26184 0.950491 0
M  V30 4150 C 409.24 5.07665 -1.22776 0
M  V30 4151 H 410.934 2.83217 -0.971002 0
M  V30 4152 H 408.48 1.3617 -0.468377 0
M  V30 4153 H 410.433 4.05827 1.13501 0
M  V30 4154 H 409.157 2.88214 1.53623 0
M  V30 4155 H 407.816 3.63726 -0.458107 0
M  V30 4156 H 407.464 4.7063 1.77529 0
M  V30 4157 H 407.164 5.85872 0.450314 0
M  V30 4158 H 408.688 5.94838 1.37842 0
M  V30 4159 H 410.102 5.66578 -0.875366 0
M  V30 4160 H 408.499 5.76681 -1.66007 0
M  V30 4161 H 409.569 4.40294 -2.03149 0
M  V30 4162 N 410.912 0.523116 1.48665 0
M  V30 4163 C 411.875 -0.232592 2.28017 0
M  V30 4164 C 412.875 -0.874021 1.34972 0
M  V30 4165 O 414.065 -0.735132 1.57929 0
M  V30 4166 C 411.197 -1.33586 3.13636 0
M  V30 4167 H 412.39 0.464008 2.96289 0
M  V30 4168 H 409.943 0.278816 1.53793 0
M  V30 4169 H 410.678 -2.06593 2.4998 0
M  V30 4170 H 410.463 -0.881125 3.82071 0
M  V30 4171 H 411.953 -1.86759 3.73511 0
M  V30 4172 N 412.39 -1.55475 0.257931 0
M  V30 4173 C 413.322 -2.19192 -0.669881 0
M  V30 4174 C 414.335 -1.17148 -1.1305 0
M  V30 4175 O 415.524 -1.43959 -1.05537 0
M  V30 4176 C 412.624 -2.79016 -1.92363 0
M  V30 4177 C 411.797 -4.06586 -1.61265 0
M  V30 4178 C 410.856 -4.50622 -2.7171 0
M  V30 4179 O 409.882 -5.16765 -2.38627 0
M  V30 4180 N 411.084 -4.19325 -4.01431 0
M  V30 4181 H 413.849 -2.99441 -0.124635 0
M  V30 4182 H 411.41 -1.6171 0.0783311 0
M  V30 4183 H 413.402 -3.05427 -2.65511 0
M  V30 4184 H 411.972 -2.0286 -2.37837 0
M  V30 4185 H 411.192 -3.87646 -0.715811 0
M  V30 4186 H 412.48 -4.89737 -1.37967 0
M  V30 4187 H 411.878 -3.66247 -4.31138 0
M  V30 4188 H 410.435 -4.50547 -4.7101 0
M  V30 4189 N 413.868 0.0150385 -1.57593 0
M  V30 4190 C 414.831 0.995996 -2.06428 0
M  V30 4191 C 415.831 1.2818 -0.970903 0
M  V30 4192 O 417.021 1.22949 -1.23406 0
M  V30 4193 C 414.153 2.32506 -2.49307 0
M  V30 4194 H 415.346 0.573873 -2.94358 0
M  V30 4195 H 412.899 0.262186 -1.54085 0
M  V30 4196 H 413.634 2.79438 -1.64575 0
M  V30 4197 H 413.419 2.13087 -3.29145 0
M  V30 4198 H 414.909 3.02906 -2.87468 0
M  V30 4199 N 415.346 1.54954 0.287554 0
M  V30 4200 C 416.309 1.86076 1.33823 0
M  V30 4201 C 417.309 0.734414 1.43049 0
M  V30 4202 O 418.499 1.00266 1.42452 0
M  V30 4203 C 415.631 2.05305 2.72144 0
M  V30 4204 H 416.824 2.79984 1.07465 0
M  V30 4205 H 414.377 1.47223 0.524902 0
M  V30 4206 H 415.112 1.1373 3.03704 0
M  V30 4207 H 414.897 2.873 2.66836 0
M  V30 4208 H 416.387 2.30706 3.48087 0
M  V30 4209 N 416.824 -0.551391 1.4764 0
M  V30 4210 C 417.787 -1.64007 1.60107 0
M  V30 4211 C 418.787 -1.53601 0.47576 0
M  V30 4212 O 419.977 -1.57655 0.740988 0
M  V30 4213 C 417.109 -3.03569 1.55108 0
M  V30 4214 H 418.302 -1.543 2.57161 0
M  V30 4215 H 415.855 -0.771776 1.35917 0
M  V30 4216 H 416.59 -3.18804 0.594519 0
M  V30 4217 H 416.375 -3.12532 2.36783 0
M  V30 4218 H 417.865 -3.82762 1.66982 0
M  V30 4219 N 418.302 -1.35869 -0.798587 0
M  V30 4220 C 419.53 -1.32722 -1.58722 0
M  V30 4221 C 419.945 0.0935631 -1.88568 0
M  V30 4222 O 419.302 1.04784 -1.49421 0
M  V30 4223 C 419.353 -2.13974 -2.91371 0
M  V30 4224 O 419.074 -3.50514 -2.62815 0
M  V30 4225 C 420.575 -2.18504 -3.85708 0
M  V30 4226 H 417.795 -0.45562 -0.492596 0
M  V30 4227 H 420.339 -1.78837 -0.991843 0
M  V30 4228 H 418.494 -1.71438 -3.47402 0
M  V30 4229 H 418.908 -3.92806 -3.47568 0
M  V30 4230 H 420.382 -2.79732 -4.75872 0
M  V30 4231 H 420.859 -1.18597 -4.22885 0
M  V30 4232 H 421.465 -2.61236 -3.35612 0
M  V30 4233 N 419.78 1.02168 -1.19998 0
M  V30 4234 C 421.028 1.75338 -1.00504 0
M  V30 4235 C 421.349 1.89387 0.464506 0
M  V30 4236 O 420.619 1.43268 1.33608 0
M  V30 4237 H 419.199 0.649564 -0.368885 0
M  V30 4238 H 421.861 1.23205 -1.51018 0
M  V30 4239 H 420.957 2.75892 -1.45912 0
M  V30 4240 N 421.258 1.00505 1.21394 0
M  V30 4241 C 422.205 0.565496 2.23765 0
M  V30 4242 C 423.175 -0.408466 1.60999 0
M  V30 4243 O 424.36 -0.310503 1.88257 0
M  V30 4244 C 421.5 -0.101667 3.4495 0
M  V30 4245 C 420.613 0.915479 4.22188 0
M  V30 4246 C 419.748 0.220574 5.30742 0
M  V30 4247 C 418.787 1.22527 5.99711 0
M  V30 4248 N 417.924 0.557831 6.9988 0
M  V30 4249 H 422.764 1.44314 2.60725 0
M  V30 4250 H 420.301 0.722643 1.28126 0
M  V30 4251 H 422.259 -0.505504 4.14126 0
M  V30 4252 H 420.889 -0.94303 3.08718 0
M  V30 4253 H 419.941 1.43756 3.52191 0
M  V30 4254 H 421.253 1.68005 4.69655 0
M  V30 4255 H 420.407 -0.239368 6.06228 0
M  V30 4256 H 419.146 -0.576401 4.84282 0
M  V30 4257 H 418.151 1.69571 5.22997 0
M  V30 4258 H 419.376 2.02332 6.48258 0
M  V30 4259 H 417.322 -0.219486 6.55633 0
M  V30 4260 H 417.239 1.26065 7.45415 0
M  V30 4261 H 418.507 0.121095 7.79406 0
M  V30 4262 N 422.737 -1.36956 0.779787 0
M  V30 4263 C 423.667 -2.32761 0.185651 0
M  V30 4264 C 424.648 -1.56177 -0.673989 0
M  V30 4265 O 425.833 -1.84378 -0.609797 0
M  V30 4266 C 422.963 -3.40418 -0.687964 0
M  V30 4267 C 421.917 -4.27941 0.0710102 0
M  V30 4268 C 421.243 -5.26681 -0.922573 0
M  V30 4269 C 422.543 -5.07006 1.25467 0
M  V30 4270 H 424.237 -2.82698 0.986008 0
M  V30 4271 H 421.783 -1.3592 0.475592 0
M  V30 4272 H 423.736 -4.06423 -1.11348 0
M  V30 4273 H 422.46 -2.89025 -1.52093 0
M  V30 4274 H 421.119 -3.63478 0.47739 0
M  V30 4275 H 420.767 -4.71565 -1.7503 0
M  V30 4276 H 420.467 -5.86103 -0.419237 0
M  V30 4277 H 421.991 -5.9556 -1.34686 0
M  V30 4278 H 423.405 -5.66105 0.905401 0
M  V30 4279 H 421.802 -5.75793 1.69063 0
M  V30 4280 H 422.872 -4.3921 2.05481 0
M  V30 4281 N 424.215 -0.530993 -1.48385 0
M  V30 4282 C 425.443 -0.00134122 -2.069 0
M  V30 4283 C 425.858 1.2805 -1.3874 0
M  V30 4284 O 425.215 1.76204 -0.475244 0
M  V30 4285 C 425.266 0.225256 -3.60798 0
M  V30 4286 O 424.987 -1.0058 -4.26398 0
M  V30 4287 C 426.488 0.795172 -4.3611 0
M  V30 4288 H 423.708 -0.0339704 -0.67014 0
M  V30 4289 H 426.252 -0.736926 -1.90761 0
M  V30 4290 H 424.407 0.910891 -3.76539 0
M  V30 4291 H 424.821 -0.787165 -5.1856 0
M  V30 4292 H 426.295 0.903143 -5.44562 0
M  V30 4293 H 426.772 1.80031 -4.00606 0
M  V30 4294 H 427.378 0.146069 -4.25049 0
M  V30 4295 N 425.693 1.55336 -0.266172 0
M  V30 4296 C 426.942 1.98574 0.353749 0
M  V30 4297 C 427.255 1.15789 1.57646 0
M  V30 4298 O 428.461 1.49129 2.26876 0
M  V30 4299 C 426.917 3.53403 0.680747 0
M  V30 4300 C 426.525 4.44953 -0.52165 0
M  V30 4301 C 428.269 4.05251 1.26379 0
M  V30 4302 C 426.176 5.91156 -0.169736 0
M  V30 4303 H 425.106 0.741643 0.135949 0
M  V30 4304 H 427.757 1.79743 -0.369421 0
M  V30 4305 H 426.139 3.68001 1.46257 0
M  V30 4306 H 427.313 4.42121 -1.29869 0
M  V30 4307 H 425.628 4.03691 -1.02093 0
M  V30 4308 H 428.225 5.12021 1.54074 0
M  V30 4309 H 428.568 3.53749 2.19471 0
M  V30 4310 H 429.101 3.94057 0.544447 0
M  V30 4311 H 425.84 6.46736 -1.0683 0
M  V30 4312 H 425.36 5.97079 0.570717 0
M  V30 4313 H 427.039 6.4655 0.241245 0
M  V30 4314 N 427.171 -0.0066808 1.57599 0
M  V30 4315 C 428.399 -0.704087 1.94551 0
M  V30 4316 C 428.814 -1.67677 0.867746 0
M  V30 4317 O 428.171 -1.8185 -0.153925 0
M  V30 4318 C 428.222 -1.44177 3.31505 0
M  V30 4319 O 427.943 -0.508097 4.35144 0
M  V30 4320 C 429.444 -2.23429 3.82876 0
M  V30 4321 H 426.664 -0.196523 0.641576 0
M  V30 4322 H 429.208 0.042453 2.04456 0
M  V30 4323 H 427.363 -2.13999 3.22929 0
M  V30 4324 H 427.777 -1.02782 5.14331 0
M  V30 4325 H 429.251 -2.70552 4.8115 0
M  V30 4326 H 429.728 -3.05818 3.15233 0
M  V30 4327 H 430.334 -1.58636 3.94607 0
M  V30 4328 N 428.649 -1.55105 -0.279332 0
M  V30 4329 C 429.877 -1.7943 -1.03017 0
M  V30 4330 C 430.292 -0.564456 -1.80165 0
M  V30 4331 O 429.649 0.466326 -1.76442 0
M  V30 4332 C 429.7 -3.0155 -1.99374 0
M  V30 4333 O 429.421 -4.19784 -1.25352 0
M  V30 4334 C 430.922 -3.3843 -2.86321 0
M  V30 4335 H 428.142 -0.597882 -0.304594 0
M  V30 4336 H 430.686 -2.02105 -0.312035 0
M  V30 4337 H 428.841 -2.81019 -2.66659 0
M  V30 4338 H 429.255 -4.88781 -1.90246 0
M  V30 4339 H 430.729 -4.27066 -3.49741 0
M  V30 4340 H 431.206 -2.57549 -3.5576 0
M  V30 4341 H 431.812 -3.61197 -2.24536 0
M  V30 4342 N 430.127 0.543554 -1.4793 0
M  V30 4343 C 431.057 1.65888 -1.64327 0
M  V30 4344 C 432.038 1.62818 -0.492383 0
M  V30 4345 O 433.223 1.80226 -0.723338 0
M  V30 4346 C 430.353 3.04506 -1.67013 0
M  V30 4347 C 429.307 3.2243 -2.81466 0
M  V30 4348 C 428.633 4.61972 -2.69233 0
M  V30 4349 C 429.933 3.06496 -4.22915 0
M  V30 4350 H 431.627 1.52421 -2.57698 0
M  V30 4351 H 429.173 0.731849 -1.24016 0
M  V30 4352 H 431.126 3.82391 -1.77074 0
M  V30 4353 H 429.85 3.18964 -0.70212 0
M  V30 4354 H 428.509 2.46957 -2.70938 0
M  V30 4355 H 428.157 4.73247 -1.7043 0
M  V30 4356 H 427.857 4.74911 -3.46025 0
M  V30 4357 H 429.381 5.41974 -2.81242 0
M  V30 4358 H 430.795 3.74186 -4.34348 0
M  V30 4359 H 429.192 3.30938 -5.006 0
M  V30 4360 H 430.262 2.03077 -4.40327 0
M  V30 4361 N 431.605 1.3629 0.791371 0
M  V30 4362 C 432.555 1.26988 1.89362 0
M  V30 4363 C 433.539 0.161795 1.60084 0
M  V30 4364 O 434.731 0.394426 1.72549 0
M  V30 4365 C 431.86 1.05944 3.26544 0
M  V30 4366 C 430.946 2.21211 3.61838 0
M  V30 4367 N 431.337 3.46518 3.68455 0
M  V30 4368 C 429.635 2.12933 3.91887 0
M  V30 4369 C 430.336 4.2241 3.99931 0
M  V30 4370 N 429.312 3.51329 4.14812 0
M  V30 4371 H 433.114 2.21908 1.92702 0
M  V30 4372 H 430.628 1.28982 0.986787 0
M  V30 4373 H 432.625 0.973666 4.05371 0
M  V30 4374 H 431.285 0.119223 3.24481 0
M  V30 4375 H 432.296 3.80677 3.51148 0
M  V30 4376 H 428.973 1.26855 3.97761 0
M  V30 4377 H 430.363 5.30767 4.1199 0
M  V30 4378 N 433.083 -1.0153 1.20538 0
M  V30 4379 C 434.499 -1.27461 0.96051 0
M  V30 4380 C 434.699 -1.98273 -0.359193 0
M  V30 4381 O 433.755 -2.27886 -1.0874 0
M  V30 4382 C 435.068 -2.10837 2.14402 0
M  V30 4383 C 436.616 -2.24099 2.18515 0
M  V30 4384 C 437.091 -3.10852 3.36355 0
M  V30 4385 N 438.582 -3.18441 3.36377 0
M  V30 4386 C 439.317 -3.85795 4.24205 0
M  V30 4387 N 438.813 -4.55264 5.22213 0
M  V30 4388 N 440.606 -3.82331 4.12043 0
M  V30 4389 H 432.757 -0.539907 2.05423 0
M  V30 4390 H 435.02 -0.30092 0.898972 0
M  V30 4391 H 434.726 -1.66144 3.09983 0
M  V30 4392 H 434.6 -3.11576 2.12604 0
M  V30 4393 H 436.987 -2.68016 1.23497 0
M  V30 4394 H 437.068 -1.22865 2.24361 0
M  V30 4395 H 436.712 -2.6764 4.31661 0
M  V30 4396 H 436.642 -4.12177 3.27746 0
M  V30 4397 H 439.133 -2.68978 2.65442 0
M  V30 4398 H 439.446 -5.04331 5.85551 0
M  V30 4399 H 437.791 -4.54085 5.26148 0
M  V30 4400 H 440.982 -3.27207 3.34743 0
M  V30 4401 H 441.155 -4.34547 4.807 0
M  V30 4402 N 434.561 -1.01147 -1.20859 0
M  V30 4403 C 435.807 -0.698899 -1.90377 0
M  V30 4404 C 436.14 0.76904 -1.78324 0
M  V30 4405 O 435.415 1.55817 -1.16409 0
M  V30 4406 C 435.698 -1.12878 -3.41951 0
M  V30 4407 C 435.551 -2.65665 -3.62963 0
M  V30 4408 C 436.87 -0.696114 -4.3456 0
M  V30 4409 H 433.989 -0.255372 -0.691342 0
M  V30 4410 H 436.631 -1.25831 -1.42361 0
M  V30 4411 H 434.781 -0.652827 -3.82976 0
M  V30 4412 H 436.453 -3.21074 -3.31224 0
M  V30 4413 H 434.696 -3.06878 -3.06608 0
M  V30 4414 H 435.367 -2.90797 -4.69192 0
M  V30 4415 H 437.843 -1.10521 -4.01154 0
M  V30 4416 H 436.719 -1.025 -5.39245 0
M  V30 4417 H 436.98 0.402465 -4.40264 0
M  V30 4418 N 436.039 1.36541 -0.78704 0
M  V30 4419 C 437.267 2.03561 -0.370199 0
M  V30 4420 C 437.682 1.59347 1.01263 0
M  V30 4421 O 437.039 0.781781 1.64907 0
M  V30 4422 C 437.09 3.59033 -0.421614 0
M  V30 4423 O 436.811 4.01634 -1.7499 0
M  V30 4424 C 438.312 4.433 0.00489763 0
M  V30 4425 H 435.532 0.653346 -0.152904 0
M  V30 4426 H 438.076 1.74566 -1.06522 0
M  V30 4427 H 436.231 3.86746 0.224971 0
M  V30 4428 H 436.645 4.96217 -1.69909 0
M  V30 4429 H 438.119 5.51939 -0.0822184 0
M  V30 4430 H 438.596 4.26285 1.05723 0
M  V30 4431 H 439.202 4.20843 -0.614085 0
M  V30 4432 N 437.518 0.538854 1.48102 0
M  V30 4433 C 438.465 -0.219042 2.29758 0
M  V30 4434 C 439.435 -0.925562 1.37922 0
M  V30 4435 O 440.62 -0.924855 1.66886 0
M  V30 4436 C 437.76 -1.25452 3.2149 0
M  V30 4437 C 436.873 -0.555943 4.28408 0
M  V30 4438 C 436.008 -1.57512 5.0731 0
M  V30 4439 C 435.047 -0.860498 6.06021 0
M  V30 4440 N 434.184 -1.82564 6.77949 0
M  V30 4441 H 439.024 0.483449 2.94052 0
M  V30 4442 H 436.561 0.250247 1.44956 0
M  V30 4443 H 438.519 -1.86727 3.7308 0
M  V30 4444 H 437.149 -1.92528 2.591 0
M  V30 4445 H 436.201 0.170938 3.80016 0
M  V30 4446 H 437.513 0.00474616 4.988 0
M  V30 4447 H 436.667 -2.26191 5.62959 0
M  V30 4448 H 435.406 -2.16972 4.36778 0
M  V30 4449 H 434.411 -0.159686 5.49568 0
M  V30 4450 H 435.636 -0.271897 6.78555 0
M  V30 4451 H 433.582 -2.40915 6.10161 0
M  V30 4452 H 433.499 -1.31662 7.44447 0
M  V30 4453 H 434.767 -2.50414 7.38182 0
M  V30 4454 N 438.996 -1.55193 0.274407 0
M  V30 4455 C 440.242 -1.99877 -0.343086 0
M  V30 4456 C 440.575 -1.16256 -1.55558 0
M  V30 4457 O 439.85 -0.232462 -1.93106 0
M  V30 4458 C 440.133 -3.52706 -0.725965 0
M  V30 4459 C 439.986 -4.47081 0.493818 0
M  V30 4460 C 441.305 -4.11422 -1.56268 0
M  V30 4461 H 438.424 -0.726625 -0.123229 0
M  V30 4462 H 441.066 -1.86136 0.38121 0
M  V30 4463 H 439.216 -3.64546 -1.34307 0
M  V30 4464 H 440.888 -4.47186 1.13237 0
M  V30 4465 H 439.131 -4.1877 1.13201 0
M  V30 4466 H 439.802 -5.51699 0.18217 0
M  V30 4467 H 442.278 -4.02855 -1.04151 0
M  V30 4468 H 441.154 -5.18568 -1.79939 0
M  V30 4469 H 441.415 -3.61607 -2.54348 0
M  V30 4470 N 440.474 -0.00167713 -1.576 0
M  V30 4471 C 441.437 0.974046 -2.07473 0
M  V30 4472 C 442.437 1.27143 -0.984444 0
M  V30 4473 O 443.627 1.21633 -1.24703 0
M  V30 4474 C 440.759 2.29849 -2.51759 0
M  V30 4475 H 441.952 0.54262 -2.9495 0
M  V30 4476 H 439.505 0.245829 -1.54355 0
M  V30 4477 H 440.24 2.77677 -1.67529 0
M  V30 4478 H 440.025 2.09584 -3.31386 0
M  V30 4479 H 441.515 2.9984 -2.90664 0
M  V30 4480 N 441.952 1.55251 0.271103 0
M  V30 4481 C 443.363 1.66635 0.842007 0
M  V30 4482 C 443.714 0.594631 1.86972 0
M  V30 4483 O 442.839 -0.263532 2.14789 0
M  V30 4484 C 443.434 3.02082 1.53401 0
M  V30 4485 C 441.993 3.15487 2.05293 0
M  V30 4486 C 441.14 2.62438 0.895631 0
M  V30 4487 H 444.091 1.58629 0.0474117 0
M  V30 4488 H 444.112 2.95176 2.40107 0
M  V30 4489 H 443.624 3.80062 0.785786 0
M  V30 4490 H 441.725 2.42284 2.83071 0
M  V30 4491 H 441.838 4.22075 2.26693 0
M  V30 4492 H 440.202 2.19644 1.28953 0
M  V30 4493 H 440.985 3.42923 0.160878 0
M  V30 4494 N 443.43 -0.535701 1.48216 0
M  V30 4495 C 444.393 -1.623 1.61838 0
M  V30 4496 C 445.393 -1.53087 0.492024 0
M  V30 4497 O 446.583 -1.5686 0.757668 0
M  V30 4498 C 443.715 -3.01907 1.58319 0
M  V30 4499 H 444.908 -1.51564 2.58783 0
M  V30 4500 H 442.461 -0.757317 1.36727 0
M  V30 4501 H 443.196 -3.18155 0.628299 0
M  V30 4502 H 442.981 -3.10003 2.40085 0
M  V30 4503 H 444.471 -3.80969 1.71033 0
M  V30 4504 N 444.908 -1.36708 -0.784132 0
M  V30 4505 C 446.136 -1.34398 -1.57305 0
M  V30 4506 C 446.551 0.0735577 -1.88657 0
M  V30 4507 O 445.908 1.03193 -1.50524 0
M  V30 4508 C 445.959 -2.17053 -2.89085 0
M  V30 4509 O 445.68 -3.53281 -2.59083 0
M  V30 4510 C 447.181 -2.22583 -3.83369 0
M  V30 4511 H 444.401 -0.460819 -0.487736 0
M  V30 4512 H 446.945 -1.79879 -0.972819 0
M  V30 4513 H 445.1 -1.75113 -3.45564 0
M  V30 4514 H 445.514 -3.9647 -3.43383 0
M  V30 4515 H 446.988 -2.84763 -4.72878 0
M  V30 4516 H 447.465 -1.23075 -4.21603 0
M  V30 4517 H 448.071 -2.64781 -3.32823 0
M  V30 4518 N 446.386 1.0089 -1.21074 0
M  V30 4519 C 447.634 1.74262 -1.02358 0
M  V30 4520 C 447.955 1.89869 0.444393 0
M  V30 4521 O 447.225 1.44677 1.32081 0
M  V30 4522 H 445.805 0.645615 -0.375754 0
M  V30 4523 H 448.467 1.21596 -1.52317 0
M  V30 4524 H 447.563 2.74328 -1.4883 0
M  V30 4525 N 447.864 1.01787 1.20321 0
M  V30 4526 C 449.089 0.727009 1.9424 0
M  V30 4527 C 449.514 -0.706179 1.74341 0
M  V30 4528 O 448.872 -1.48609 1.03852 0
M  V30 4529 C 448.92 1.06958 3.44372 0
M  V30 4530 O 448.024 0.181983 4.11998 0
M  V30 4531 H 447.365 0.269626 0.606793 0
M  V30 4532 H 449.895 1.36158 1.52716 0
M  V30 4533 H 449.905 1.02182 3.94997 0
M  V30 4534 H 448.58 2.11378 3.58179 0
M  V30 4535 H 447.157 0.287378 3.71791 0
M  V30 4536 N 449.342 -1.36122 0.79427 0
M  V30 4537 C 450.59 -1.98718 0.368177 0
M  V30 4538 C 450.911 -1.63345 -1.06506 0
M  V30 4539 O 450.181 -0.909825 -1.73491 0
M  V30 4540 H 448.761 -0.735038 0.133146 0
M  V30 4541 H 451.423 -1.66239 1.01739 0
M  V30 4542 H 450.519 -3.08633 0.463923 0
M  V30 4543 N 450.82 -0.546701 -1.47814 0
M  V30 4544 C 452.05 -0.0232519 -2.06587 0
M  V30 4545 C 452.458 1.2712 -1.40133 0
M  V30 4546 O 451.801 1.77091 -0.488305 0
M  V30 4547 C 451.863 0.254117 -3.58601 0
M  V30 4548 C 451.527 -0.949331 -4.47031 0
M  V30 4549 C 452.524 -1.85216 -4.85789 0
M  V30 4550 C 450.209 -1.16104 -4.88697 0
M  V30 4551 C 452.203 -2.95047 -5.65001 0
M  V30 4552 C 449.89 -2.26247 -5.67676 0
M  V30 4553 C 450.888 -3.1555 -6.05737 0
M  V30 4554 O 450.576 -4.23784 -6.83127 0
M  V30 4555 H 450.308 -0.0380082 -0.674931 0
M  V30 4556 H 452.862 -0.756631 -1.90956 0
M  V30 4557 H 451.092 1.04168 -3.72406 0
M  V30 4558 H 452.781 0.72167 -3.99433 0
M  V30 4559 H 453.547 -1.70061 -4.54207 0
M  V30 4560 H 449.426 -0.475159 -4.58545 0
M  V30 4561 H 452.97 -3.64778 -5.94628 0
M  V30 4562 H 448.867 -2.41379 -5.98671 0
M  V30 4563 H 449.635 -4.21701 -7.01506 0
M  V30 4564 N 452.299 1.55045 -0.282633 0
M  V30 4565 C 453.524 2.04628 0.337977 0
M  V30 4566 C 453.949 1.15937 1.48123 0
M  V30 4567 O 453.307 0.159532 1.80597 0
M  V30 4568 C 453.355 3.51854 0.78936 0
M  V30 4569 O 452.459 3.66236 1.89592 0
M  V30 4570 H 451.8 0.660434 0.0687261 0
M  V30 4571 H 454.33 2.00261 -0.419124 0
M  V30 4572 H 454.34 3.93361 1.08311 0
M  V30 4573 H 453.015 4.15873 -0.0470419 0
M  V30 4574 H 451.592 3.36633 1.60413 0
M  V30 4575 N 453.777 0.010035 1.57597 0
M  V30 4576 C 455.023 -0.673697 1.91283 0
M  V30 4577 C 455.356 -1.72863 0.884979 0
M  V30 4578 O 454.631 -1.94268 -0.0949487 0
M  V30 4579 C 454.914 -1.30766 3.35518 0
M  V30 4580 C 454.767 -0.263578 4.49027 0
M  V30 4581 C 456.086 -2.23105 3.79358 0
M  V30 4582 H 453.205 -0.243439 0.695634 0
M  V30 4583 H 455.847 0.0633864 1.89894 0
M  V30 4584 H 453.997 -1.93588 3.36832 0
M  V30 4585 H 455.669 0.365738 4.59848 0
M  V30 4586 H 453.912 0.413077 4.31829 0
M  V30 4587 H 454.583 -0.746398 5.4693 0
M  V30 4588 H 457.059 -1.70289 3.79659 0
M  V30 4589 H 455.935 -2.64424 4.81011 0
M  V30 4590 H 456.196 -3.11433 3.13787 0
M  V30 4591 N 455.255 -1.55392 -0.262866 0
M  V30 4592 C 456.483 -1.80513 -1.01108 0
M  V30 4593 C 456.898 -0.583533 -1.79556 0
M  V30 4594 O 456.255 0.447585 -1.76926 0
M  V30 4595 C 456.306 -3.03648 -1.96164 0
M  V30 4596 O 456.027 -4.2109 -1.20893 0
M  V30 4597 C 457.528 -3.41448 -2.82715 0
M  V30 4598 H 454.748 -0.601079 -0.298236 0
M  V30 4599 H 457.292 -2.02425 -0.290582 0
M  V30 4600 H 455.447 -2.83832 -2.63663 0
M  V30 4601 H 455.861 -4.90771 -1.85051 0
M  V30 4602 H 457.335 -4.30751 -3.45192 0
M  V30 4603 H 457.812 -2.61308 -3.53008 0
M  V30 4604 H 458.418 -3.63559 -2.20693 0
M  V30 4605 N 456.733 0.527833 -1.48498 0
M  V30 4606 C 457.666 1.64892 -1.57753 0
M  V30 4607 C 458.644 1.5687 -0.427867 0
M  V30 4608 O 459.828 1.77311 -0.639764 0
M  V30 4609 C 456.955 3.03301 -1.50752 0
M  V30 4610 C 456.001 3.29675 -2.70586 0
M  V30 4611 S 456.834 3.15712 -4.32535 0
M  V30 4612 C 457.99 4.56564 -4.28136 0
M  V30 4613 H 458.223 1.56792 -2.52594 0
M  V30 4614 H 455.756 0.710959 -1.37057 0
M  V30 4615 H 457.714 3.83123 -1.474 0
M  V30 4616 H 456.375 3.08839 -0.572454 0
M  V30 4617 H 455.568 4.3065 -2.61833 0
M  V30 4618 H 455.17 2.57526 -2.71212 0
M  V30 4619 H 457.462 5.48126 -3.98201 0
M  V30 4620 H 458.405 4.70371 -5.29298 0
M  V30 4621 H 458.813 4.35987 -3.58574 0
M  V30 4622 N 458.211 1.37122 0.776871 0
M  V30 4623 C 459.121 1.34651 1.9211 0
M  V30 4624 C 460.137 0.246824 1.7224 0
M  V30 4625 O 461.313 0.48134 1.95563 0
M  V30 4626 C 458.378 1.14748 3.2716 0
M  V30 4627 C 457.439 2.34308 3.5972 0
M  V30 4628 C 456.672 2.15345 4.88326 0
M  V30 4629 O 456.895 1.13507 5.58992 0
M  V30 4630 O 455.829 3.03414 5.1983 0
M  V30 4631 H 459.655 2.31013 1.97146 0
M  V30 4632 H 457.24 1.17799 0.918901 0
M  V30 4633 H 459.122 1.05616 4.0795 0
M  V30 4634 H 457.797 0.214562 3.22988 0
M  V30 4635 H 456.704 2.49011 2.79185 0
M  V30 4636 H 458.037 3.26149 3.68629 0
M  V30 4637 N 459.689 -1.00246 1.21608 0
M  V30 4638 C 460.621 -2.09244 0.935401 0
M  V30 4639 C 461.634 -1.62592 -0.0823594 0
M  V30 4640 O 462.823 -1.77865 0.150456 0
M  V30 4641 C 459.923 -3.36724 0.383453 0
M  V30 4642 C 459.096 -4.1245 1.45615 0
M  V30 4643 C 458.155 -5.18219 0.912991 0
M  V30 4644 O 457.181 -5.46337 1.59701 0
M  V30 4645 N 458.383 -5.7987 -0.270478 0
M  V30 4646 H 461.148 -2.33905 1.87373 0
M  V30 4647 H 458.709 -1.16748 1.12167 0
M  V30 4648 H 460.701 -4.047 0.00562157 0
M  V30 4649 H 459.271 -3.09201 -0.459758 0
M  V30 4650 H 458.491 -3.39241 2.00772 0
M  V30 4651 H 459.779 -4.59819 2.17817 0
M  V30 4652 H 459.177 -5.59381 -0.843195 0
M  V30 4653 H 457.734 -6.49126 -0.589794 0
M  V30 4654 N 461.167 -1.02423 -1.1978 0
M  V30 4655 C 462.416 -0.713265 -1.88667 0
M  V30 4656 C 462.729 0.7609 -1.80193 0
M  V30 4657 O 463.935 1.18473 -2.44288 0
M  V30 4658 C 462.391 -1.22545 -3.38394 0
M  V30 4659 C 461.999 -2.72706 -3.55437 0
M  V30 4660 C 463.743 -0.990257 -4.12788 0
M  V30 4661 C 461.65 -3.17367 -4.99031 0
M  V30 4662 H 460.58 -0.263105 -0.706606 0
M  V30 4663 H 463.231 -1.23792 -1.35454 0
M  V30 4664 H 461.613 -0.628732 -3.90977 0
M  V30 4665 H 462.787 -3.37993 -3.13205 0
M  V30 4666 H 461.102 -2.94453 -2.94425 0
M  V30 4667 H 463.699 -1.29926 -5.18675 0
M  V30 4668 H 464.042 0.0730761 -4.16236 0
M  V30 4669 H 464.575 -1.55074 -3.66329 0
M  V30 4670 H 461.314 -4.23009 -5.00743 0
M  V30 4671 H 460.834 -2.56805 -5.42044 0
M  V30 4672 H 462.513 -3.10441 -5.67658 0
M  V30 4673 N 462.645 1.35699 -0.801477 0
M  V30 4674 C 463.922 1.9324 -0.302937 0
M  V30 4675 C 464.302 1.73209 1.20672 0
M  V30 4676 O 463.65 1.09809 2.00385 0
M  V30 4677 C 463.86 3.41728 -0.708747 0
M  V30 4678 C 465.208 4.18868 -0.695328 0
M  V30 4679 O 466.232 3.5022 -0.649971 0
M  V30 4680 O 465.091 5.41342 -0.749081 0
M  V30 4681 H 462.185 0.82331 -0.0780367 0
M  V30 4682 H 464.731 1.44806 -0.884832 0
M  V30 4683 H 463.503 3.50015 -1.74944 0
M  V30 4684 H 463.126 3.97471 -0.101384 0
M  V30 4685 N 464.123 0.554532 1.47522 0
M  V30 4686 C 465.033 -0.197865 2.33764 0
M  V30 4687 C 466.049 -0.914576 1.48025 0
M  V30 4688 O 467.225 -0.884067 1.80959 0
M  V30 4689 C 464.29 -1.21628 3.24665 0
M  V30 4690 C 463.351 -0.507283 4.26292 0
M  V30 4691 C 462.584 -1.47718 5.1285 0
M  V30 4692 O 462.807 -2.7118 5.01814 0
M  V30 4693 O 461.741 -1.00313 5.93482 0
M  V30 4694 H 465.567 0.50949 2.99396 0
M  V30 4695 H 463.152 0.315176 1.46038 0
M  V30 4696 H 465.034 -1.80421 3.80823 0
M  V30 4697 H 463.709 -1.9056 2.61665 0
M  V30 4698 H 462.616 0.121778 3.73902 0
M  V30 4699 H 463.949 0.140544 4.91999 0
M  V30 4700 N 465.601 -1.54893 0.290851 0
M  V30 4701 C 466.533 -2.20564 -0.623236 0
M  V30 4702 C 467.546 -1.19519 -1.1054 0
M  V30 4703 O 468.735 -1.46165 -1.02459 0
M  V30 4704 C 465.835 -2.83033 -1.86401 0
M  V30 4705 C 465.008 -4.09916 -1.52604 0
M  V30 4706 C 464.067 -4.56284 -2.62091 0
M  V30 4707 O 463.093 -5.2171 -2.27612 0
M  V30 4708 N 464.295 -4.27746 -3.92446 0
M  V30 4709 H 467.06 -2.99638 -0.0610915 0
M  V30 4710 H 464.621 -1.61508 0.112615 0
M  V30 4711 H 466.613 -3.1099 -2.58973 0
M  V30 4712 H 465.183 -2.0786 -2.33481 0
M  V30 4713 H 464.403 -3.89078 -0.633424 0
M  V30 4714 H 465.691 -4.92554 -1.27547 0
M  V30 4715 H 465.089 -3.7531 -4.23272 0
M  V30 4716 H 463.646 -4.60437 -4.61347 0
M  V30 4717 N 467.08 -0.0183926 -1.57589 0
M  V30 4718 C 468.328 0.661253 -1.90976 0
M  V30 4719 C 468.649 1.73281 -0.894353 0
M  V30 4720 O 467.919 1.9579 0.0656788 0
M  V30 4721 H 466.499 0.247233 -0.704901 0
M  V30 4722 H 469.161 -0.0636639 -1.94796 0
M  V30 4723 H 468.257 1.12083 -2.9128 0
M  V30 4724 N 468.558 1.5553 0.254621 0
M  V30 4725 C 469.506 1.9048 1.33492 0
M  V30 4726 C 470.5 0.78304 1.50216 0
M  V30 4727 O 471.706 0.967582 1.51782 0
M  V30 4728 H 468.081 0.604846 0.44684 0
M  V30 4729 H 470.052 2.80688 1.01275 0
M  V30 4730 C 468.801 2.20928 2.68489 0
M  V30 4731 H 468.124 3.06742 2.56417 0
M  V30 4732 H 469.564 2.49291 3.42972 0
M  V30 4733 C 468.023 1.023 3.20993 0
M  V30 4734 O 468.553 0.267027 4.00811 0
M  V30 4735 N 466.759 0.815714 2.78917 0
M  V30 4736 H 466.306 1.43217 2.14119 0
M  V30 4737 H 466.264 0.0236532 3.14391 0
M  V30 4738 N 470.036 -0.519951 1.48776 0
M  V30 4739 C 471.282 -1.27711 1.57536 0
M  V30 4740 C 471.615 -1.92547 0.252866 0
M  V30 4741 O 470.89 -1.7979 -0.742021 0
M  V30 4742 C 471.173 -2.35875 2.72094 0
M  V30 4743 C 471.026 -1.75664 4.1408 0
M  V30 4744 C 472.345 -3.37575 2.82367 0
M  V30 4745 H 469.464 -0.462971 0.573434 0
M  V30 4746 H 472.106 -0.578194 1.80989 0
M  V30 4747 H 470.256 -2.95488 2.52228 0
M  V30 4748 H 471.928 -1.20025 4.45412 0
M  V30 4749 H 470.171 -1.06154 4.20611 0
M  V30 4750 H 470.842 -2.54029 4.90075 0
M  V30 4751 H 473.318 -2.87929 3.00393 0
M  V30 4752 H 472.194 -4.1064 3.64233 0
M  V30 4753 H 472.455 -3.98743 1.90936 0
M  V30 4754 N 471.514 -1.37532 -0.769588 0
M  V30 4755 C 472.76 -1.33057 -1.53048 0
M  V30 4756 C 473.093 0.0841865 -1.94017 0
M  V30 4757 O 472.368 1.04198 -1.64235 0
M  V30 4758 C 472.651 -2.27166 -2.79406 0
M  V30 4759 C 472.504 -3.77429 -2.44677 0
M  V30 4760 C 473.823 -2.19683 -3.81349 0
M  V30 4761 H 470.942 -0.484655 -0.555228 0
M  V30 4762 H 473.584 -1.68251 -0.882702 0
M  V30 4763 H 471.734 -1.97283 -3.34682 0
M  V30 4764 H 473.406 -4.17918 -1.953 0
M  V30 4765 H 471.649 -3.95892 -1.77346 0
M  V30 4766 H 472.32 -4.38716 -3.35011 0
M  V30 4767 H 474.796 -2.46029 -3.35573 0
M  V30 4768 H 473.672 -2.87668 -4.67481 0
M  V30 4769 H 473.933 -1.19045 -4.25771 0
M  V30 4770 N 472.992 0.995999 -1.22138 0
M  V30 4771 C 473.955 2.06711 -0.990109 0
M  V30 4772 C 474.955 1.60744 0.0422978 0
M  V30 4773 O 476.145 1.73095 -0.195895 0
M  V30 4774 C 473.277 3.37288 -0.49491 0
M  V30 4775 H 474.47 2.28661 -1.94047 0
M  V30 4776 H 472.023 1.16711 -1.03963 0
M  V30 4777 H 472.758 3.21022 0.459948 0
M  V30 4778 H 472.543 3.71986 -1.23971 0
M  V30 4779 H 474.033 4.16103 -0.353253 0
M  V30 4780 N 474.47 1.03057 1.19235 0
M  V30 4781 C 475.698 0.747697 1.92917 0
M  V30 4782 C 476.113 -0.69372 1.75593 0
M  V30 4783 O 475.47 -1.47191 1.07894 0
M  V30 4784 C 475.521 1.09159 3.44625 0
M  V30 4785 O 475.242 2.47641 3.61394 0
M  V30 4786 C 476.743 0.831763 4.35427 0
M  V30 4787 H 473.963 0.273453 0.612751 0
M  V30 4788 H 476.507 1.37552 1.51327 0
M  V30 4789 H 474.662 0.508919 3.84043 0
M  V30 4790 H 475.076 2.60499 4.55237 0
M  V30 4791 H 476.55 1.12233 5.4047 0
M  V30 4792 H 477.027 -0.233769 4.38577 0
M  V30 4793 H 477.633 1.39725 4.01693 0
M  V30 4794 N 475.948 -1.35272 0.808662 0
M  V30 4795 C 476.895 -2.29764 0.218482 0
M  V30 4796 C 477.865 -1.52911 -0.648652 0
M  V30 4797 O 479.05 -1.81341 -0.593297 0
M  V30 4798 C 476.19 -3.39388 -0.625282 0
M  V30 4799 C 475.303 -4.31202 0.262516 0
M  V30 4800 C 474.438 -5.27919 -0.589451 0
M  V30 4801 C 473.477 -6.11371 0.298617 0
M  V30 4802 N 472.614 -7.0022 -0.513443 0
M  V30 4803 H 477.454 -2.79645 1.02968 0
M  V30 4804 H 474.991 -1.37629 0.519303 0
M  V30 4805 H 476.949 -4.01615 -1.12966 0
M  V30 4806 H 475.579 -2.90777 -1.40173 0
M  V30 4807 H 474.631 -3.69962 0.885013 0
M  V30 4808 H 475.943 -4.89748 0.945971 0
M  V30 4809 H 475.097 -5.95529 -1.15888 0
M  V30 4810 H 473.836 -4.69875 -1.30647 0
M  V30 4811 H 472.841 -5.42707 0.880301 0
M  V30 4812 H 474.066 -6.71494 1.01352 0
M  V30 4813 H 472.012 -6.44662 -1.21439 0
M  V30 4814 H 471.929 -7.55917 0.111922 0
M  V30 4815 H 473.197 -7.72175 -1.06608 0
M  V30 4816 N 477.426 -0.562348 -1.47226 0
M  V30 4817 C 478.672 -0.0402761 -2.0276 0
M  V30 4818 C 479.005 1.30823 -1.43523 0
M  V30 4819 O 478.28 1.85249 -0.592705 0
M  V30 4820 C 478.563 0.047311 -3.60069 0
M  V30 4821 C 478.416 -1.32865 -4.29729 0
M  V30 4822 C 479.735 0.758182 -4.3352 0
M  V30 4823 H 476.854 -0.0161105 -0.736824 0
M  V30 4824 H 479.496 -0.725628 -1.75598 0
M  V30 4825 H 477.646 0.630986 -3.83342 0
M  V30 4826 H 479.318 -1.95593 -4.17781 0
M  V30 4827 H 477.561 -1.90195 -3.89882 0
M  V30 4828 H 478.232 -1.22004 -5.38349 0
M  V30 4829 H 480.708 0.262546 -4.15271 0
M  V30 4830 H 479.584 0.78844 -5.43208 0
M  V30 4831 H 479.845 1.81537 -4.03109 0
M  V30 4832 N 478.904 1.54736 -0.299062 0
M  V30 4833 C 480.15 2.00397 0.311244 0
M  V30 4834 C 480.483 1.18716 1.53688 0
M  V30 4835 O 479.758 0.263154 1.92712 0
M  V30 4836 C 480.041 3.53817 0.669761 0
M  V30 4837 C 479.894 4.46239 -0.564882 0
M  V30 4838 C 481.213 4.13856 1.49702 0
M  V30 4839 H 478.332 0.728493 0.111653 0
M  V30 4840 H 480.974 1.85506 -0.410774 0
M  V30 4841 H 479.124 3.66637 1.28491 0
M  V30 4842 H 480.796 4.45328 -1.20337 0
M  V30 4843 H 479.039 4.16916 -1.19849 0
M  V30 4844 H 479.71 5.5134 -0.269918 0
M  V30 4845 H 482.186 4.04461 0.977284 0
M  V30 4846 H 481.062 5.21365 1.71666 0
M  V30 4847 H 481.323 3.65608 2.48563 0
M  V30 4848 N 480.382 0.0267497 1.57577 0
M  V30 4849 C 481.61 -0.662661 1.96001 0
M  V30 4850 C 482.025 -1.65799 0.903117 0
M  V30 4851 O 481.382 -1.82135 -0.115317 0
M  V30 4852 C 481.433 -1.37112 3.34488 0
M  V30 4853 O 481.154 -0.415683 4.36123 0
M  V30 4854 C 482.655 -2.15257 3.8753 0
M  V30 4855 H 479.875 -0.18287 0.6456 0
M  V30 4856 H 482.419 0.0858116 2.0432 0
M  V30 4857 H 480.574 -2.07101 3.27395 0
M  V30 4858 H 480.988 -0.918496 5.16395 0
M  V30 4859 H 482.462 -2.60285 4.86781 0
M  V30 4860 H 482.939 -2.99063 3.21649 0
M  V30 4861 H 483.545 -1.50231 3.97883 0
M  V30 4862 N 481.861 -1.55662 -0.24637 0
M  V30 4863 C 482.824 -1.89558 -1.28842 0
M  V30 4864 C 483.824 -0.772082 -1.41052 0
M  V30 4865 O 485.014 -1.04007 -1.39743 0
M  V30 4866 C 482.146 -2.12449 -2.66605 0
M  V30 4867 H 483.339 -2.82735 -1.00004 0
M  V30 4868 H 480.892 -1.48562 -0.485684 0
M  V30 4869 H 481.627 -1.21742 -3.00582 0
M  V30 4870 H 481.412 -2.94273 -2.59125 0
M  V30 4871 H 482.902 -2.39854 -3.41847 0
M  V30 4872 N 483.339 0.512053 -1.4905 0
M  V30 4873 C 484.616 1.27337 -1.48474 0
M  V30 4874 C 484.996 2.1009 -0.206301 0
M  V30 4875 O 484.344 2.136 0.811609 0
M  V30 4876 C 484.554 2.13954 -2.75726 0
M  V30 4877 C 485.902 2.73507 -3.24776 0
M  V30 4878 O 486.926 2.24229 -2.76767 0
M  V30 4879 O 485.785 3.63186 -4.08361 0
M  V30 4880 H 482.879 0.575652 -0.593762 0
M  V30 4881 H 485.425 0.527232 -1.61302 0
M  V30 4882 H 484.197 1.52709 -3.60272 0
M  V30 4883 H 483.82 2.95782 -2.65705 0
M  V30 4884 N 484.817 1.37938 0.762283 0
M  V30 4885 C 486.233 1.18945 1.06415 0
M  V30 4886 C 486.433 0.0321163 2.01474 0
M  V30 4887 O 485.489 -0.624844 2.44647 0
M  V30 4888 C 486.802 2.51218 1.65258 0
M  V30 4889 C 488.35 2.57824 1.7747 0
M  V30 4890 C 488.825 3.90251 2.39725 0
M  V30 4891 N 490.316 3.91744 2.47166 0
M  V30 4892 C 491.051 4.90966 2.96209 0
M  V30 4893 N 490.547 6.00585 3.45354 0
M  V30 4894 N 492.34 4.78363 2.9517 0
M  V30 4895 H 484.491 2.11994 0.131301 0
M  V30 4896 H 486.754 0.940262 0.120879 0
M  V30 4897 H 486.46 3.36317 1.02878 0
M  V30 4898 H 486.334 2.68989 2.64433 0
M  V30 4899 H 488.721 1.73126 2.3898 0
M  V30 4900 H 488.802 2.43928 0.770241 0
M  V30 4901 H 488.446 4.75368 1.78852 0
M  V30 4902 H 488.376 4.01454 3.40796 0
M  V30 4903 H 490.867 3.12563 2.12397 0
M  V30 4904 H 491.18 6.72236 3.81207 0
M  V30 4905 H 489.525 6.04217 3.43434 0
M  V30 4906 H 492.716 3.91841 2.56082 0
M  V30 4907 H 492.889 5.55843 3.33081 0
M  V30 4908 N 486.295 -0.989507 1.22664 0
M  V30 4909 C 487.541 -1.7321 1.05481 0
M  V30 4910 C 487.874 -1.89852 -0.408635 0
M  V30 4911 O 487.149 -1.44416 -1.30285 0
M  V30 4912 C 487.432 -3.1357 1.77047 0
M  V30 4913 C 487.285 -3.04555 3.31008 0
M  V30 4914 C 488.604 -4.12812 1.5256 0
M  V30 4915 H 485.723 -0.628697 0.384589 0
M  V30 4916 H 488.365 -1.15258 1.51049 0
M  V30 4917 H 486.515 -3.63046 1.3831 0
M  V30 4918 H 488.187 -2.62674 3.7921 0
M  V30 4919 H 486.43 -2.41278 3.6051 0
M  V30 4920 H 487.101 -4.03894 3.76263 0
M  V30 4921 H 489.577 -3.72106 1.86215 0
M  V30 4922 H 488.453 -5.09132 2.05124 0
M  V30 4923 H 488.714 -4.39711 0.458936 0
M  V30 4924 N 487.773 -1.03688 -1.18687 0
M  V30 4925 C 489.02 -0.73803 -1.88572 0
M  V30 4926 C 489.348 0.733973 -1.8012 0
M  V30 4927 O 488.603 1.55098 -1.19344 0
M  V30 4928 C 488.902 -1.14477 -3.3857 0
M  V30 4929 C 488.568 -2.61641 -3.67226 0
M  V30 4930 C 487.23 -3.01846 -3.74757 0
M  V30 4931 C 489.582 -3.56812 -3.79914 0
M  V30 4932 C 486.91 -4.36118 -3.92451 0
M  V30 4933 C 489.262 -4.90799 -3.99123 0
M  V30 4934 C 487.926 -5.3068 -4.04888 0
M  V30 4935 H 487.196 -0.270064 -0.690034 0
M  V30 4936 H 489.843 -1.3012 -1.40503 0
M  V30 4937 H 488.148 -0.500337 -3.88592 0
M  V30 4938 H 489.845 -0.89095 -3.90977 0
M  V30 4939 H 486.435 -2.29498 -3.61979 0
M  V30 4940 H 490.619 -3.26899 -3.73431 0
M  V30 4941 H 485.875 -4.66542 -3.95157 0
M  V30 4942 H 490.049 -5.64451 -4.07882 0
M  V30 4943 H 487.676 -6.34733 -4.18351 0
M  V30 4944 N 489.251 1.34841 -0.815825 0
M  V30 4945 C 490.498 1.98499 -0.400535 0
M  V30 4946 C 490.826 1.64699 1.03463 0
M  V30 4947 O 490.081 0.907006 1.73412 0
M  V30 4948 C 490.38 3.53273 -0.541541 0
M  V30 4949 C 490.046 4.06966 -1.94138 0
M  V30 4950 C 488.708 4.21341 -2.32433 0
M  V30 4951 C 491.06 4.35933 -2.85677 0
M  V30 4952 C 488.388 4.62007 -3.61617 0
M  V30 4953 C 490.74 4.78042 -4.14317 0
M  V30 4954 C 489.404 4.90622 -4.52599 0
M  V30 4955 H 488.674 0.72636 -0.146566 0
M  V30 4956 H 491.321 1.60902 -1.0384 0
M  V30 4957 H 489.626 3.91387 0.179741 0
M  V30 4958 H 491.323 4.00497 -0.20085 0
M  V30 4959 H 487.913 3.96235 -1.63388 0
M  V30 4960 H 492.097 4.24372 -2.57337 0
M  V30 4961 H 487.353 4.69937 -3.91113 0
M  V30 4962 H 491.527 4.99415 -4.85342 0
M  V30 4963 H 489.154 5.2189 -5.52752 0
M  V30 4964 N 490.729 0.570148 1.46925 0
M  V30 4965 C 491.692 -0.159933 2.28641 0
M  V30 4966 C 492.692 -0.830638 1.37685 0
M  V30 4967 O 493.882 -0.684516 1.60187 0
M  V30 4968 C 491.014 -1.2354 3.17727 0
M  V30 4969 H 492.207 0.558035 2.94662 0
M  V30 4970 H 489.76 0.327603 1.52828 0
M  V30 4971 H 490.495 -1.98535 2.56426 0
M  V30 4972 H 490.28 -0.759125 3.84681 0
M  V30 4973 H 491.77 -1.74782 3.79264 0
M  V30 4974 N 492.207 -1.54576 0.307264 0
M  V30 4975 C 493.17 -2.22423 -0.553224 0
M  V30 4976 C 494.17 -1.21231 -1.05639 0
M  V30 4977 O 495.36 -1.45923 -0.951419 0
M  V30 4978 C 492.492 -2.91552 -1.76664 0
M  V30 4979 H 493.685 -2.99874 0.0396484 0
M  V30 4980 H 491.238 -1.56192 0.0581629 0
M  V30 4981 H 491.973 -2.18196 -2.39918 0
M  V30 4982 H 491.758 -3.65738 -1.41343 0
M  V30 4983 H 493.248 -3.43292 -2.37783 0
M  V30 4984 N 493.685 -0.035106 -1.57561 0
M  V30 4985 C 494.933 0.64096 -1.91667 0
M  V30 4986 C 495.254 1.72323 -0.912681 0
M  V30 4987 O 494.524 1.95849 0.0449089 0
M  V30 4988 H 493.104 0.239743 -0.707483 0
M  V30 4989 H 495.766 -0.084321 -1.94718 0
M  V30 4990 H 494.862 1.08987 -2.92452 0
M  V30 4991 N 495.163 1.55791 0.238111 0
M  V30 4992 C 496.388 1.8244 0.986432 0
M  V30 4993 C 496.813 0.613314 1.7782 0
M  V30 4994 O 496.171 -0.437767 1.75935 0
M  V30 4995 C 496.219 3.06917 1.893 0
M  V30 4996 O 495.323 2.84449 2.98601 0
M  V30 4997 H 494.664 0.601975 0.280218 0
M  V30 4998 H 497.194 2.02987 0.256437 0
M  V30 4999 H 497.204 3.36583 2.30598 0
M  V30 5000 H 495.879 3.947 1.31091 0
M  V30 5001 H 494.456 2.65972 2.61368 0
M  V30 5002 N 496.642 -0.504142 1.49319 0
M  V30 5003 C 497.888 -1.26033 1.58882 0
M  V30 5004 C 498.221 -1.92268 0.273274 0
M  V30 5005 O 497.496 -1.80567 -0.72291 0
M  V30 5006 C 497.779 -2.32976 2.7458 0
M  V30 5007 C 497.632 -1.71263 4.1592 0
M  V30 5008 C 498.951 -3.34561 2.85932 0
M  V30 5009 H 496.07 -0.456863 0.578312 0
M  V30 5010 H 498.712 -0.558965 1.81592 0
M  V30 5011 H 496.862 -2.92796 2.55348 0
M  V30 5012 H 498.534 -1.15294 4.4666 0
M  V30 5013 H 496.777 -1.01686 4.21714 0
M  V30 5014 H 497.448 -2.48816 4.92742 0
M  V30 5015 H 499.924 -2.84727 3.0343 0
M  V30 5016 H 498.8 -4.06754 3.68568 0
M  V30 5017 H 499.061 -3.96695 1.95154 0
M  V30 5018 N 498.12 -1.38341 -0.754957 0
M  V30 5019 C 499.368 -1.34208 -1.51105 0
M  V30 5020 C 499.689 0.0677634 -1.94882 0
M  V30 5021 O 498.959 1.01517 -1.67544 0
M  V30 5022 H 497.539 -0.493819 -0.560493 0
M  V30 5023 H 500.201 -1.73005 -0.897507 0
M  V30 5024 H 499.297 -1.99203 -2.4026 0
M  V30 5025 N 499.598 0.982988 -1.23187 0
M  V30 5026 C 500.826 1.75921 -1.08901 0
M  V30 5027 C 501.241 1.85341 0.359719 0
M  V30 5028 O 500.598 1.33072 1.24892 0
M  V30 5029 C 500.649 3.18742 -1.70545 0
M  V30 5030 O 500.37 3.09814 -3.09753 0
M  V30 5031 C 501.871 4.1277 -1.61667 0
M  V30 5032 H 499.091 0.552166 -0.381252 0
M  V30 5033 H 501.635 1.23516 -1.62985 0
M  V30 5034 H 499.79 3.68182 -1.20501 0
M  V30 5035 H 500.204 3.99703 -3.39614 0
M  V30 5036 H 501.678 5.10697 -2.09506 0
M  V30 5037 H 502.155 4.3542 -0.575009 0
M  V30 5038 H 502.761 3.69232 -2.11064 0
M  V30 5039 N 501.076 1.04316 1.18135 0
M  V30 5040 C 502.301 0.768047 1.92655 0
M  V30 5041 C 502.726 -0.66904 1.758 0
M  V30 5042 O 502.084 -1.46372 1.06981 0
M  V30 5043 C 502.132 1.14239 3.42026 0
M  V30 5044 O 501.236 0.269333 4.1152 0
M  V30 5045 H 500.577 0.282436 0.600937 0
M  V30 5046 H 503.107 1.39367 1.49793 0
M  V30 5047 H 503.117 1.10538 3.92741 0
M  V30 5048 H 501.792 2.18928 3.53615 0
M  V30 5049 H 500.369 0.366175 3.71098 0
M  V30 5050 N 502.554 -1.34406 0.822964 0
M  V30 5051 C 503.501 -2.29519 0.24284 0
M  V30 5052 C 504.471 -1.5359 -0.632397 0
M  V30 5053 O 505.656 -1.8196 -0.57403 0
M  V30 5054 C 502.796 -3.40032 -0.58925 0
M  V30 5055 C 501.909 -4.30899 0.308236 0
M  V30 5056 C 501.044 -5.28515 -0.533425 0
M  V30 5057 C 500.083 -6.1102 0.363444 0
M  V30 5058 N 499.22 -7.00725 -0.439147 0
M  V30 5059 H 504.06 -2.78537 1.05929 0
M  V30 5060 H 501.597 -1.3707 0.533872 0
M  V30 5061 H 503.555 -4.0279 -1.087 0
M  V30 5062 H 502.185 -2.92248 -1.37081 0
M  V30 5063 H 501.237 -3.69002 0.924203 0
M  V30 5064 H 502.549 -4.88717 0.997862 0
M  V30 5065 H 501.703 -5.96725 -1.09565 0
M  V30 5066 H 500.442 -4.71235 -1.25656 0
M  V30 5067 H 499.447 -5.41743 0.937812 0
M  V30 5068 H 500.672 -6.70381 1.08469 0
M  V30 5069 H 498.618 -6.45913 -1.14595 0
M  V30 5070 H 498.535 -7.55756 0.19209 0
M  V30 5071 H 499.803 -7.73263 -0.984124 0
M  V30 5072 N 504.032 -0.577932 -1.46621 0
M  V30 5073 C 504.962 0.145917 -2.33044 0
M  V30 5074 C 505.943 0.888412 -1.45056 0
M  V30 5075 O 507.128 0.864812 -1.73881 0
M  V30 5076 C 504.258 1.16322 -3.27241 0
M  V30 5077 C 503.212 0.535868 -4.24632 0
M  V30 5078 C 502.538 1.65929 -5.08303 0
M  V30 5079 C 503.838 -0.523861 -5.19666 0
M  V30 5080 H 505.532 -0.575636 -2.93814 0
M  V30 5081 H 503.078 -0.278272 -1.41286 0
M  V30 5082 H 505.031 1.67793 -3.86553 0
M  V30 5083 H 503.755 1.91498 -2.64567 0
M  V30 5084 H 502.414 0.0422759 -3.66576 0
M  V30 5085 H 502.062 2.40061 -4.42018 0
M  V30 5086 H 501.762 1.2452 -5.74255 0
M  V30 5087 H 503.286 2.17686 -5.70478 0
M  V30 5088 H 504.7 -0.0944059 -5.73222 0
M  V30 5089 H 503.097 -0.858 -5.93935 0
M  V30 5090 H 504.167 -1.41197 -4.63887 0
M  V30 5091 N 505.51 1.54411 -0.315457 0
M  V30 5092 C 506.44 2.27002 0.547039 0
M  V30 5093 C 507.421 1.27492 1.12605 0
M  V30 5094 O 508.606 1.5629 1.15269 0
M  V30 5095 C 505.736 3.02171 1.71201 0
M  V30 5096 C 504.69 4.0895 1.26268 0
M  V30 5097 C 504.016 4.71915 2.51396 0
M  V30 5098 C 505.316 5.20891 0.383419 0
M  V30 5099 H 507.01 2.99343 -0.0584517 0
M  V30 5100 H 504.556 1.4397 -0.0295527 0
M  V30 5101 H 506.509 3.51681 2.32161 0
M  V30 5102 H 505.233 2.27433 2.34397 0
M  V30 5103 H 503.892 3.60312 0.676062 0
M  V30 5104 H 503.54 3.93801 3.12937 0
M  V30 5105 H 503.24 5.44039 2.22026 0
M  V30 5106 H 504.764 5.24195 3.13133 0
M  V30 5107 H 506.178 5.66206 0.899082 0
M  V30 5108 H 504.575 5.99821 0.182857 0
M  V30 5109 H 505.645 4.81324 -0.587821 0
M  V30 5110 N 506.988 0.0434614 1.5754 0
M  V30 5111 C 508.234 -0.632971 1.92669 0
M  V30 5112 C 508.567 -1.70947 0.921446 0
M  V30 5113 O 507.842 -1.94426 -0.0537202 0
M  V30 5114 C 508.125 -1.23619 3.38216 0
M  V30 5115 C 507.978 -0.168274 4.49485 0
M  V30 5116 C 509.297 -2.15008 3.84005 0
M  V30 5117 H 506.416 -0.228629 0.700641 0
M  V30 5118 H 509.058 0.103651 1.89717 0
M  V30 5119 H 507.208 -1.864 3.40863 0
M  V30 5120 H 508.88 0.463196 4.58969 0
M  V30 5121 H 507.123 0.504581 4.30855 0
M  V30 5122 H 507.794 -0.630218 5.48391 0
M  V30 5123 H 510.27 -1.62198 3.83185 0
M  V30 5124 H 509.146 -2.54161 4.86511 0
M  V30 5125 H 509.407 -3.04707 3.20322 0
M  V30 5126 N 508.466 -1.55915 -0.229846 0
M  V30 5127 C 509.691 -1.8296 -0.976743 0
M  V30 5128 C 510.116 -0.622735 -1.77493 0
M  V30 5129 O 509.474 0.428431 -1.76165 0
M  V30 5130 C 509.522 -3.07916 -1.8767 0
M  V30 5131 O 508.626 -2.86028 -2.97088 0
M  V30 5132 H 507.967 -0.603453 -0.277021 0
M  V30 5133 H 510.497 -2.0312 -0.245669 0
M  V30 5134 H 510.507 -3.37802 -2.2881 0
M  V30 5135 H 509.182 -3.95389 -1.28996 0
M  V30 5136 H 507.759 -2.67355 -2.59954 0
M  V30 5137 N 509.944 0.496216 -1.49584 0
M  V30 5138 C 510.877 1.61508 -1.61215 0
M  V30 5139 C 511.855 1.55927 -0.461045 0
M  V30 5140 O 513.039 1.75914 -0.677231 0
M  V30 5141 C 510.166 3.00035 -1.57152 0
M  V30 5142 C 509.212 3.23861 -2.77518 0
M  V30 5143 S 510.045 3.06466 -4.39134 0
M  V30 5144 C 511.201 4.4738 -4.37724 0
M  V30 5145 H 511.434 1.51398 -2.55863 0
M  V30 5146 H 508.967 0.681727 -1.38535 0
M  V30 5147 H 510.925 3.7991 -1.55494 0
M  V30 5148 H 509.586 3.07556 -0.637834 0
M  V30 5149 H 508.779 4.25 -2.70908 0
M  V30 5150 H 508.381 2.51716 -2.76614 0
M  V30 5151 H 510.673 5.39556 -4.09738 0
M  V30 5152 H 511.616 4.59038 -5.39156 0
M  V30 5153 H 512.024 4.28283 -3.67742 0
M  V30 5154 N 511.423 1.38739 0.74761 0
M  V30 5155 C 512.37 1.36449 1.86146 0
M  V30 5156 C 513.34 0.226098 1.64554 0
M  V30 5157 O 514.525 0.41926 1.86137 0
M  V30 5158 C 511.665 1.2013 3.23516 0
M  V30 5159 C 510.778 2.43407 3.56899 0
M  V30 5160 C 509.913 2.19773 4.83605 0
M  V30 5161 C 508.952 3.3879 5.09792 0
M  V30 5162 N 508.089 3.14553 6.27695 0
M  V30 5163 H 512.929 2.3167 1.87438 0
M  V30 5164 H 510.466 1.15094 0.916063 0
M  V30 5165 H 512.424 1.08683 4.02795 0
M  V30 5166 H 511.054 0.285453 3.21535 0
M  V30 5167 H 510.106 2.65504 2.72418 0
M  V30 5168 H 511.418 3.32094 3.72176 0
M  V30 5169 H 510.572 2.05496 5.70838 0
M  V30 5170 H 509.311 1.28461 4.70478 0
M  V30 5171 H 508.316 3.53579 4.21025 0
M  V30 5172 H 509.541 4.30986 5.24812 0
M  V30 5173 H 507.487 2.25893 6.1588 0
M  V30 5174 H 507.404 3.96791 6.435 0
M  V30 5175 H 508.672 3.03943 7.17801 0
M  V30 5176 N 512.901 -0.976442 1.23707 0
M  V30 5177 C 513.864 -2.0511 1.02287 0
M  V30 5178 C 514.864 -1.60791 -0.0167195 0
M  V30 5179 O 516.054 -1.72761 0.223408 0
M  V30 5180 C 513.186 -3.36458 0.548507 0
M  V30 5181 H 514.379 -2.25545 1.9766 0
M  V30 5182 H 511.932 -1.15042 1.05806 0
M  V30 5183 H 512.667 -3.21713 -0.408818 0
M  V30 5184 H 512.452 -3.69967 1.29874 0
M  V30 5185 H 513.942 -4.15489 0.419406 0
M  V30 5186 N 514.379 -1.04941 -1.1758 0
M  V30 5187 C 515.311 -0.606174 -2.21039 0
M  V30 5188 C 516.324 0.328763 -1.59446 0
M  V30 5189 O 517.513 0.121895 -1.78083 0
M  V30 5190 C 514.613 0.133294 -3.38638 0
M  V30 5191 C 513.786 -0.811711 -4.29802 0
M  V30 5192 C 512.845 -0.113958 -5.26077 0
M  V30 5193 O 511.871 -0.747237 -5.64274 0
M  V30 5194 N 513.073 1.14953 -5.69004 0
M  V30 5195 H 515.838 -1.49606 -2.59689 0
M  V30 5196 H 513.399 -0.930997 -1.32454 0
M  V30 5197 H 515.391 0.610144 -4.00074 0
M  V30 5198 H 513.961 0.924816 -2.98607 0
M  V30 5199 H 513.181 -1.46824 -3.65837 0
M  V30 5200 H 514.469 -1.45326 -4.87604 0
M  V30 5201 H 513.867 1.68441 -5.40041 0
M  V30 5202 H 512.424 1.57049 -6.32597 0
M  V30 5203 N 515.857 1.33968 -0.830081 0
M  V30 5204 C 517.105 1.97672 -0.420734 0
M  V30 5205 C 517.426 1.66111 1.02138 0
M  V30 5206 O 516.696 0.955503 1.71017 0
M  V30 5207 H 515.276 0.73125 -0.152587 0
M  V30 5208 H 517.938 1.63483 -1.0611 0
M  V30 5209 H 517.034 3.07294 -0.545588 0
M  V30 5210 N 517.335 0.585699 1.46312 0
M  V30 5211 C 518.285 -0.166813 2.27389 0
M  V30 5212 C 519.269 -0.859076 1.36047 0
M  V30 5213 O 520.461 -0.752678 1.60199 0
M  V30 5214 C 517.59 -1.17791 3.2246 0
M  V30 5215 C 516.676 -0.487605 4.21288 0
M  V30 5216 N 517.067 0.45849 5.03718 0
M  V30 5217 C 515.365 -0.737971 4.39852 0
M  V30 5218 C 516.066 0.862213 5.75275 0
M  V30 5219 N 515.042 0.210707 5.43191 0
M  V30 5220 H 518.844 0.560167 2.88512 0
M  V30 5221 H 516.358 0.407715 1.57199 0
M  V30 5222 H 518.355 -1.73122 3.79255 0
M  V30 5223 H 517.015 -1.90568 2.62896 0
M  V30 5224 H 518.026 0.834163 5.11138 0
M  V30 5225 H 514.703 -1.45209 3.91434 0
M  V30 5226 H 516.093 1.64128 6.51546 0
M  V30 5227 N 518.813 -1.54241 0.323641 0
M  V30 5228 C 519.743 -2.27289 -0.534993 0
M  V30 5229 C 520.724 -1.28087 -1.11927 0
M  V30 5230 O 521.909 -1.56899 -1.14439 0
M  V30 5231 C 519.039 -3.03075 -1.69596 0
M  V30 5232 C 517.993 -4.09614 -1.24098 0
M  V30 5233 C 517.319 -4.73242 -2.4889 0
M  V30 5234 C 518.619 -5.21087 -0.355789 0
M  V30 5235 H 520.313 -2.99308 0.0743257 0
M  V30 5236 H 517.859 -1.43952 0.0371874 0
M  V30 5237 H 519.812 -3.52907 -2.30293 0
M  V30 5238 H 518.536 -2.28673 -2.33187 0
M  V30 5239 H 517.195 -3.60666 -0.656945 0
M  V30 5240 H 516.843 -3.95455 -3.10845 0
M  V30 5241 H 516.543 -5.45209 -2.19138 0
M  V30 5242 H 518.067 -5.25848 -3.10348 0
M  V30 5243 H 519.481 -5.66675 -0.869042 0
M  V30 5244 H 517.878 -5.9991 -0.151045 0
M  V30 5245 H 518.948 -4.81005 0.613339 0
M  V30 5246 N 520.291 -0.0518155 -1.57515 0
M  V30 5247 C 521.702 0.483787 -1.80323 0
M  V30 5248 C 522.053 1.70879 -0.964099 0
M  V30 5249 O 521.178 2.15643 -0.180872 0
M  V30 5250 C 521.773 0.884459 -3.27052 0
M  V30 5251 C 520.332 1.36504 -3.50776 0
M  V30 5252 C 519.479 0.340539 -2.75201 0
M  V30 5253 H 522.43 -0.277691 -1.56252 0
M  V30 5254 H 522.451 1.74733 -3.38007 0
M  V30 5255 H 521.963 -0.00731093 -3.88099 0
M  V30 5256 H 520.064 2.27598 -2.95009 0
M  V30 5257 H 520.177 1.35675 -4.59488 0
M  V30 5258 H 518.541 0.81356 -2.41357 0
M  V30 5259 H 519.324 -0.543156 -3.38976 0
M  V30 5260 N 521.769 1.56035 0.221574 0
M  V30 5261 C 522.717 1.93269 1.29421 0
M  V30 5262 C 523.711 0.814727 1.48521 0
M  V30 5263 O 524.917 0.999559 1.49696 0
M  V30 5264 H 521.292 0.614188 0.43391 0
M  V30 5265 H 523.263 2.82773 0.952987 0
M  V30 5266 C 522.012 2.26573 2.63742 0
M  V30 5267 H 521.335 3.12112 2.49853 0
M  V30 5268 H 522.775 2.5651 3.37607 0
M  V30 5269 C 521.234 1.09086 3.1875 0
M  V30 5270 O 521.764 0.351985 4.00155 0
M  V30 5271 N 519.97 0.874693 2.77124 0
M  V30 5272 H 519.517 1.47726 2.11033 0
M  V30 5273 H 519.475 0.0903349 3.1427 0
M  V30 5274 N 523.247 -0.488276 1.49845 0
M  V30 5275 C 524.177 -1.59675 1.70371 0
M  V30 5276 C 525.158 -1.60878 0.552473 0
M  V30 5277 O 526.343 -1.77417 0.78973 0
M  V30 5278 C 523.473 -2.98098 1.782 0
M  V30 5279 C 522.427 -3.11761 2.93239 0
M  V30 5280 C 521.753 -4.51661 2.86193 0
M  V30 5281 C 523.053 -2.90589 4.33999 0
M  V30 5282 H 524.747 -1.42752 2.63177 0
M  V30 5283 H 522.293 -0.685317 1.26647 0
M  V30 5284 H 524.246 -3.75555 1.91144 0
M  V30 5285 H 522.97 -3.16138 0.820018 0
M  V30 5286 H 521.629 -2.36732 2.79917 0
M  V30 5287 H 521.277 -4.66595 1.87877 0
M  V30 5288 H 520.977 -4.61742 3.63412 0
M  V30 5289 H 522.501 -5.31162 3.01163 0
M  V30 5290 H 523.915 -3.57807 4.47936 0
M  V30 5291 H 522.312 -3.1213 5.12538 0
M  V30 5292 H 523.382 -1.86595 4.4756 0
M  V30 5293 N 524.725 -1.39134 -0.740242 0
M  V30 5294 C 525.95 -1.39518 -1.53459 0
M  V30 5295 C 526.375 0.00968883 -1.88098 0
M  V30 5296 O 525.733 0.995312 -1.51536 0
M  V30 5297 C 525.781 -2.26981 -2.802 0
M  V30 5298 O 524.885 -1.69609 -3.75908 0
M  V30 5299 H 524.226 -0.475328 -0.463637 0
M  V30 5300 H 526.756 -1.83064 -0.913717 0
M  V30 5301 H 526.766 -2.41309 -3.28989 0
M  V30 5302 H 525.441 -3.29081 -2.5432 0
M  V30 5303 H 524.018 -1.64495 -3.34658 0
M  V30 5304 N 526.204 0.969867 -1.24223 0
M  V30 5305 C 527.429 1.75289 -1.10853 0
M  V30 5306 C 527.854 1.85091 0.335079 0
M  V30 5307 O 527.212 1.32024 1.24255 0
M  V30 5308 C 527.26 3.15255 -1.75062 0
M  V30 5309 O 526.364 3.99589 -1.01992 0
M  V30 5310 H 525.705 0.538904 -0.387915 0
M  V30 5311 H 528.235 1.21675 -1.64488 0
M  V30 5312 H 528.245 3.65787 -1.80731 0
M  V30 5313 H 526.92 3.07436 -2.801 0
M  V30 5314 H 525.497 3.58077 -1.04094 0
M  V30 5315 N 527.682 1.05563 1.17022 0
M  V30 5316 C 528.614 0.617888 2.20714 0
M  V30 5317 C 529.627 -0.320303 1.59618 0
M  V30 5318 O 530.816 -0.112449 1.78145 0
M  V30 5319 C 527.916 -0.115333 3.38704 0
M  V30 5320 C 527.089 0.834493 4.29366 0
M  V30 5321 C 526.148 0.141855 5.26009 0
M  V30 5322 O 525.174 0.777151 5.6387 0
M  V30 5323 N 526.376 -1.11934 5.69606 0
M  V30 5324 H 529.141 1.50981 2.58892 0
M  V30 5325 H 526.702 0.938008 1.31958 0
M  V30 5326 H 528.694 -0.588918 4.00392 0
M  V30 5327 H 527.264 -0.908967 2.99093 0
M  V30 5328 H 526.484 1.48762 3.65053 0
M  V30 5329 H 527.772 1.4791 4.86827 0
M  V30 5330 H 527.17 -1.65574 5.40927 0
M  V30 5331 H 525.727 -1.53692 6.33421 0
M  V30 5332 N 529.16 -1.33526 0.837174 0
M  V30 5333 C 530.406 -1.9813 0.432704 0
M  V30 5334 C 530.739 -1.66168 -1.00508 0
M  V30 5335 O 530.014 -0.94069 -1.70239 0
M  V30 5336 C 530.297 -3.54151 0.651834 0
M  V30 5337 C 530.15 -3.95806 2.13676 0
M  V30 5338 C 531.469 -4.39993 0.0968937 0
M  V30 5339 H 528.588 -0.719713 0.15869 0
M  V30 5340 H 531.23 -1.58193 1.05237 0
M  V30 5341 H 529.38 -3.88301 0.124369 0
M  V30 5342 H 531.052 -3.71921 2.72896 0
M  V30 5343 H 529.295 -3.45599 2.62191 0
M  V30 5344 H 529.966 -5.0447 2.24084 0
M  V30 5345 H 532.442 -4.12479 0.547733 0
M  V30 5346 H 531.318 -5.48186 0.279917 0
M  V30 5347 H 531.579 -4.3066 -0.9992 0
M  V30 5348 N 530.638 -0.59345 -1.46 0
M  V30 5349 C 531.886 -0.082988 -2.0193 0
M  V30 5350 C 532.207 1.28569 -1.46612 0
M  V30 5351 O 531.477 1.84629 -0.654909 0
M  V30 5352 H 530.057 -0.0276882 -0.746487 0
M  V30 5353 H 532.719 -0.771657 -1.78973 0
M  V30 5354 H 531.815 -0.022079 -3.12092 0
M  V30 5355 N 532.116 1.54067 -0.331816 0
M  V30 5356 C 533.026 2.28322 0.539104 0
M  V30 5357 C 534.042 1.32985 1.1221 0
M  V30 5358 O 535.218 1.6601 1.1403 0
M  V30 5359 C 532.283 3.03277 1.68 0
M  V30 5360 C 531.344 4.14216 1.12798 0
M  V30 5361 C 530.577 4.85588 2.2145 0
M  V30 5362 O 530.8 4.56536 3.41952 0
M  V30 5363 O 529.734 5.72309 1.86404 0
M  V30 5364 H 533.56 3.03632 -0.0641692 0
M  V30 5365 H 531.145 1.49083 -0.0972365 0
M  V30 5366 H 533.027 3.50189 2.34405 0
M  V30 5367 H 531.702 2.30834 2.2693 0
M  V30 5368 H 530.609 3.71635 0.428782 0
M  V30 5369 H 531.942 4.88727 0.583698 0
M  V30 5370 N 533.594 0.0601682 1.57485 0
M  V30 5371 C 534.842 -0.610386 1.92662 0
M  V30 5372 C 535.163 -1.70849 0.939981 0
M  V30 5373 O 534.433 -1.95895 -0.0137455 0
M  V30 5374 H 533.013 -0.228457 0.711208 0
M  V30 5375 H 535.675 0.115288 1.94559 0
M  V30 5376 H 534.771 -1.0432 2.94149 0
M  V30 5377 N 535.072 -1.5615 -0.213296 0
M  V30 5378 C 536.318 -1.80718 -0.933402 0
M  V30 5379 C 536.673 -0.634441 -1.81639 0
M  V30 5380 O 535.966 0.371182 -1.8797 0
M  V30 5381 C 536.16 -3.08772 -1.79985 0
M  V30 5382 C 535.989 -4.38389 -1.00224 0
M  V30 5383 C 534.759 -5.00513 -0.693885 0
M  V30 5384 C 536.957 -5.13013 -0.363598 0
M  V30 5385 N 534.939 -6.13774 0.124266 0
M  V30 5386 C 536.31 -6.19186 0.31757 0
M  V30 5387 C 538.365 -4.97126 -0.277468 0
M  V30 5388 C 537.068 -7.11197 1.07664 0
M  V30 5389 C 539.094 -5.89544 0.468155 0
M  V30 5390 C 538.456 -6.95149 1.13784 0
M  V30 5391 H 534.555 -0.712833 -0.321549 0
M  V30 5392 H 537.139 -1.93633 -0.203588 0
M  V30 5393 H 535.31 -2.97126 -2.50142 0
M  V30 5394 H 537.042 -3.21499 -2.45806 0
M  V30 5395 H 533.797 -4.62619 -1.01391 0
M  V30 5396 H 534.221 -6.74981 0.522418 0
M  V30 5397 H 538.863 -4.15526 -0.78087 0
M  V30 5398 H 536.581 -7.92273 1.59153 0
M  V30 5399 H 540.167 -5.79327 0.535911 0
M  V30 5400 H 539.047 -7.65428 1.70557 0
M  V30 5401 N 536.55 0.480323 -1.50102 0
M  V30 5402 C 537.798 1.23063 -1.60312 0
M  V30 5403 C 538.119 1.92659 -0.301226 0
M  V30 5404 O 537.389 1.83691 0.680753 0
M  V30 5405 H 535.969 0.457231 -0.590719 0
M  V30 5406 H 538.631 0.554893 -1.86834 0
M  V30 5407 H 537.727 1.9835 -2.40964 0
M  V30 5408 N 538.028 1.39524 0.732853 0
M  V30 5409 C 538.976 1.38563 1.86824 0
M  V30 5410 C 539.97 0.268467 1.67259 0
M  V30 5411 O 541.176 0.438613 1.74574 0
M  V30 5412 H 537.551 0.432737 0.615014 0
M  V30 5413 H 539.522 2.34328 1.84751 0
M  V30 5414 C 538.271 1.2481 3.24527 0
M  V30 5415 H 537.594 2.10044 3.40179 0
M  V30 5416 H 539.034 1.28194 4.04156 0
M  V30 5417 C 537.493 -0.0432825 3.36872 0
M  V30 5418 O 538.023 -1.01268 3.88726 0
M  V30 5419 N 536.229 -0.107055 2.90403 0
M  V30 5420 H 535.776 0.682512 2.48394 0
M  V30 5421 H 535.734 -0.970618 2.99042 0
M  V30 5422 N 539.506 -0.963266 1.24736 0
M  V30 5423 C 540.454 -2.07985 1.04139 0
M  V30 5424 C 541.448 -1.69381 -0.0250556 0
M  V30 5425 O 542.654 -1.79531 0.129863 0
M  V30 5426 H 539.029 -0.680627 0.319768 0
M  V30 5427 H 541 -2.22517 1.98818 0
M  V30 5428 C 539.749 -3.4123 0.667615 0
M  V30 5429 H 539.072 -3.71397 1.48 0
M  V30 5430 H 540.512 -4.20244 0.563136 0
M  V30 5431 C 538.971 -3.3104 -0.625647 0
M  V30 5432 O 539.501 -3.65334 -1.67016 0
M  V30 5433 N 537.707 -2.84168 -0.608033 0
M  V30 5434 H 537.254 -2.56458 0.242323 0
M  V30 5435 H 537.212 -2.77732 -1.47352 0
M  V30 5436 N 540.985 -1.06182 -1.16461 0
M  V30 5437 C 542.233 -0.776326 -1.86595 0
M  V30 5438 C 542.554 0.69921 -1.82033 0
M  V30 5439 O 541.824 1.50579 -1.2531 0
M  V30 5440 H 540.404 -0.284184 -0.690832 0
M  V30 5441 H 543.066 -1.34308 -1.41235 0
M  V30 5442 H 542.162 -1.10022 -2.92064 0
M  V30 5443 N 542.463 1.3308 -0.844243 0
M  V30 5444 C 543.411 2.31028 -0.269954 0
M  V30 5445 C 544.405 1.58381 0.600997 0
M  V30 5446 O 545.611 1.73203 0.48996 0
M  V30 5447 H 541.986 0.748866 -0.0685782 0
M  V30 5448 H 543.957 2.76967 -1.11049 0
M  V30 5449 C 542.706 3.43549 0.535676 0
M  V30 5450 H 542.029 3.99604 -0.125202 0
M  V30 5451 H 543.469 4.14267 0.903262 0
M  V30 5452 C 541.928 2.8988 1.71672 0
M  V30 5453 O 542.458 2.86511 2.81557 0
M  V30 5454 N 540.664 2.46416 1.54037 0
M  V30 5455 H 540.211 2.49356 0.64649 0
M  V30 5456 H 540.169 2.1086 2.33207 0
M  V30 5457 N 543.941 0.601185 1.45683 0
M  V30 5458 C 545.19 0.0914953 2.01492 0
M  V30 5459 C 545.503 -1.28331 1.47616 0
M  V30 5460 O 546.709 -1.88537 1.95362 0
M  V30 5461 C 545.165 0.11291 3.59723 0
M  V30 5462 C 544.773 1.48717 4.22596 0
M  V30 5463 C 546.517 -0.341871 4.23121 0
M  V30 5464 C 544.424 1.46531 5.7296 0
M  V30 5465 H 543.354 0.0304365 0.753385 0
M  V30 5466 H 546.005 0.755568 1.67223 0
M  V30 5467 H 544.387 -0.617692 3.91153 0
M  V30 5468 H 545.561 2.23897 4.02749 0
M  V30 5469 H 543.876 1.88351 3.71366 0
M  V30 5470 H 546.473 -0.377304 5.33367 0
M  V30 5471 H 546.816 -1.36325 3.93346 0
M  V30 5472 H 547.349 0.335256 3.96385 0
M  V30 5473 H 544.088 2.46408 6.07423 0
M  V30 5474 H 543.608 0.755997 5.95017 0
M  V30 5475 H 545.287 1.18618 6.36034 0
M  V30 5476 N 545.419 -1.53889 0.339982 0
M  V30 5477 C 546.352 -2.21187 -0.561405 0
M  V30 5478 C 547.33 -1.19463 -1.10306 0
M  V30 5479 O 548.514 -1.48268 -1.164 0
M  V30 5480 C 545.641 -2.8865 -1.77198 0
M  V30 5481 C 544.687 -4.04232 -1.3601 0
M  V30 5482 S 545.52 -5.34129 -0.382909 0
M  V30 5483 C 546.676 -6.05094 -1.60039 0
M  V30 5484 H 546.909 -2.97298 0.0102092 0
M  V30 5485 H 544.442 -1.53901 0.124056 0
M  V30 5486 H 546.4 -3.28138 -2.4665 0
M  V30 5487 H 545.061 -2.12311 -2.3148 0
M  V30 5488 H 544.254 -4.50358 -2.2626 0
M  V30 5489 H 543.856 -3.66503 -0.745098 0
M  V30 5490 H 546.148 -6.2827 -2.53541 0
M  V30 5491 H 547.091 -6.98182 -1.18099 0
M  V30 5492 H 547.499 -5.35207 -1.79483 0
M  V30 5493 N 546.897 -0.0685191 -1.57451 0
M  V30 5494 C 548.143 0.602239 -1.93652 0
M  V30 5495 C 548.476 1.6946 -0.948526 0
M  V30 5496 O 547.751 1.94487 0.022782 0
M  V30 5497 C 548.034 1.18223 -3.4014 0
M  V30 5498 C 547.887 0.0967431 -4.49696 0
M  V30 5499 C 549.206 2.08872 -3.87377 0
M  V30 5500 H 546.325 0.217453 -0.70419 0
M  V30 5501 H 548.967 -0.133821 -1.89528 0
M  V30 5502 H 547.117 1.80953 -3.43785 0
M  V30 5503 H 548.789 -0.536155 -4.58174 0
M  V30 5504 H 547.032 -0.573063 -4.29998 0
M  V30 5505 H 547.703 0.542894 -5.49324 0
M  V30 5506 H 550.179 1.56081 -3.85717 0
M  V30 5507 H 549.055 2.46389 -4.90493 0
M  V30 5508 H 549.316 2.99572 -3.25129 0
M  V30 5509 N 548.375 1.56261 0.205012 0
M  V30 5510 C 549.623 1.79684 0.925096 0
M  V30 5511 C 549.944 0.63989 1.84202 0
M  V30 5512 O 549.214 -0.342345 1.92885 0
M  V30 5513 H 547.794 0.662774 0.344587 0
M  V30 5514 H 550.456 1.93734 0.212899 0
M  V30 5515 H 549.552 2.72467 1.52211 0
M  V30 5516 N 549.853 -0.472356 1.50355 0
M  V30 5517 C 551.269 -0.806001 1.37753 0
M  V30 5518 C 551.469 -1.968 0.432649 0
M  V30 5519 O 550.525 -2.52189 -0.12519 0
M  V30 5520 C 551.838 -1.11926 2.79093 0
M  V30 5521 C 553.386 -1.22579 2.87999 0
M  V30 5522 C 553.861 -1.57218 4.3017 0
M  V30 5523 N 555.352 -1.64212 4.33115 0
M  V30 5524 C 556.087 -1.92517 5.40116 0
M  V30 5525 N 555.583 -2.1885 6.57325 0
M  V30 5526 N 557.376 -1.94008 5.27558 0
M  V30 5527 H 549.527 0.293451 2.10363 0
M  V30 5528 H 551.79 0.0687672 0.945503 0
M  V30 5529 H 551.496 -0.338504 3.50067 0
M  V30 5530 H 551.37 -2.05577 3.16256 0
M  V30 5531 H 553.757 -1.99722 2.17245 0
M  V30 5532 H 553.838 -0.269107 2.54381 0
M  V30 5533 H 553.482 -0.806154 5.01461 0
M  V30 5534 H 553.412 -2.54034 4.61275 0
M  V30 5535 H 555.903 -1.45906 3.48597 0
M  V30 5536 H 556.216 -2.39718 7.3468 0
M  V30 5537 H 554.561 -2.16245 6.60502 0
M  V30 5538 H 557.752 -1.72931 4.34986 0
M  V30 5539 H 557.925 -2.15731 6.11035 0
M  V30 5540 N 551.331 -1.39911 -0.725443 0
M  V30 5541 C 552.294 -1.39156 -1.82121 0
M  V30 5542 C 553.294 -0.287018 -1.58218 0
M  V30 5543 O 554.484 -0.545421 -1.65441 0
M  V30 5544 C 551.616 -1.1736 -3.20062 0
M  V30 5545 H 552.809 -2.36672 -1.84191 0
M  V30 5546 H 550.362 -1.25615 -0.930079 0
M  V30 5547 H 551.097 -0.205648 -3.23647 0
M  V30 5548 H 550.882 -1.97358 -3.3881 0
M  V30 5549 H 552.372 -1.19596 -4.00108 0
M  V30 5550 N 552.809 0.956637 -1.25245 0
M  V30 5551 C 553.757 2.0743 -1.0524 0
M  V30 5552 C 554.751 1.69392 0.0160725 0
M  V30 5553 O 555.957 1.7946 -0.139382 0
M  V30 5554 H 552.332 0.678921 -0.323373 0
M  V30 5555 H 554.303 2.2146 -1.99995 0
M  V30 5556 C 553.052 3.40872 -0.685702 0
M  V30 5557 H 552.375 3.70607 -1.49968 0
M  V30 5558 H 553.815 4.19939 -0.585415 0
M  V30 5559 C 552.274 3.31367 0.608082 0
M  V30 5560 O 552.804 3.66214 1.65076 0
M  V30 5561 N 551.01 2.84486 0.592955 0
M  V30 5562 H 550.557 2.56326 -0.25592 0
M  V30 5563 H 550.515 2.78509 1.45877 0
M  V30 5564 N 554.287 1.06798 1.15896 0
M  V30 5565 C 555.237 0.653213 2.18443 0
M  V30 5566 C 556.221 -0.318763 1.57711 0
M  V30 5567 O 557.413 -0.133388 1.76497 0
M  V30 5568 C 554.542 0.0465785 3.43268 0
M  V30 5569 C 553.628 1.04336 4.11066 0
M  V30 5570 N 554.019 2.22084 4.54436 0
M  V30 5571 C 552.317 0.875433 4.37324 0
M  V30 5572 C 553.018 2.85276 5.06944 0
M  V30 5573 N 551.994 2.12973 5.00143 0
M  V30 5574 H 555.796 1.55011 2.49698 0
M  V30 5575 H 553.31 0.940384 1.32403 0
M  V30 5576 H 555.307 -0.26843 4.16035 0
M  V30 5577 H 553.967 -0.845504 3.13499 0
M  V30 5578 H 554.978 2.59833 4.48004 0
M  V30 5579 H 551.655 0.0357721 4.17485 0
M  V30 5580 H 553.045 3.85223 5.50503 0
M  V30 5581 N 555.766 -1.3263 0.851289 0
M  V30 5582 C 556.699 -2.26952 0.238318 0
M  V30 5583 C 557.677 -1.50243 -0.621757 0
M  V30 5584 O 558.861 -1.79378 -0.579298 0
M  V30 5585 C 555.988 -3.32124 -0.664178 0
M  V30 5586 C 555.034 -4.26325 0.122067 0
M  V30 5587 S 555.867 -5.14404 1.48824 0
M  V30 5588 C 557.023 -6.231 0.591372 0
M  V30 5589 H 557.256 -2.78594 1.03791 0
M  V30 5590 H 554.789 -1.4011 0.648731 0
M  V30 5591 H 556.747 -3.93197 -1.17924 0
M  V30 5592 H 555.408 -2.79273 -1.43755 0
M  V30 5593 H 554.601 -5.00821 -0.565181 0
M  V30 5594 H 554.203 -3.69652 0.568602 0
M  V30 5595 H 556.495 -6.77187 -0.205762 0
M  V30 5596 H 557.438 -6.95936 1.30687 0
M  V30 5597 H 557.846 -5.64252 0.167206 0
M  V30 5598 N 557.244 -0.608902 -1.45362 0
M  V30 5599 C 558.49 -0.113196 -2.03085 0
M  V30 5600 C 558.845 1.24288 -1.46868 0
M  V30 5601 O 558.138 1.80792 -0.634402 0
M  V30 5602 C 558.332 -0.0167296 -3.57396 0
M  V30 5603 C 558.161 -1.36191 -4.28581 0
M  V30 5604 C 556.931 -1.94295 -4.66452 0
M  V30 5605 C 559.129 -2.29097 -4.60455 0
M  V30 5606 N 557.111 -3.2228 -5.22503 0
M  V30 5607 C 558.482 -3.41681 -5.17353 0
M  V30 5608 C 560.537 -2.28453 -4.42395 0
M  V30 5609 C 559.24 -4.53789 -5.58093 0
M  V30 5610 C 561.266 -3.39608 -4.8417 0
M  V30 5611 C 560.628 -4.50915 -5.41161 0
M  V30 5612 H 556.727 -0.0848213 -0.777386 0
M  V30 5613 H 559.311 -0.807541 -1.77163 0
M  V30 5614 H 557.482 0.646839 -3.82976 0
M  V30 5615 H 559.214 0.485757 -4.01774 0
M  V30 5616 H 555.969 -1.47486 -4.5005 0
M  V30 5617 H 556.393 -3.87654 -5.55025 0
M  V30 5618 H 561.035 -1.43658 -3.97646 0
M  V30 5619 H 558.753 -5.39307 -6.01808 0
M  V30 5620 H 562.339 -3.40259 -4.71927 0
M  V30 5621 H 561.219 -5.35505 -5.72891 0
M  V30 5622 N 558.722 1.53707 -0.348139 0
M  V30 5623 C 559.999 1.93247 0.302475 0
M  V30 5624 C 560.379 1.28012 1.67857 0
M  V30 5625 O 559.727 0.43274 2.24365 0
M  V30 5626 C 559.937 3.47031 0.370159 0
M  V30 5627 C 561.285 4.20066 0.61882 0
M  V30 5628 O 562.309 3.53319 0.452087 0
M  V30 5629 O 561.168 5.38318 0.94215 0
M  V30 5630 H 558.262 0.807736 0.177458 0
M  V30 5631 H 560.808 1.64927 -0.399651 0
M  V30 5632 H 559.58 3.86745 -0.59534 0
M  V30 5633 H 559.203 3.81532 1.11888 0
M  V30 5634 N 560.2 0.0768682 1.57412 0
M  V30 5635 C 561.163 -0.873949 2.11884 0
M  V30 5636 C 562.163 -1.22301 1.04398 0
M  V30 5637 O 563.353 -1.15545 1.30365 0
M  V30 5638 C 560.485 -2.17575 2.62438 0
M  V30 5639 H 561.678 -0.401278 2.97203 0
M  V30 5640 H 559.231 -0.171904 1.55352 0
M  V30 5641 H 559.966 -2.69368 1.80587 0
M  V30 5642 H 559.751 -1.93534 3.41009 0
M  V30 5643 H 561.241 -2.85631 3.04639 0
M  V30 5644 N 561.678 -1.56367 -0.196722 0
M  V30 5645 C 562.906 -1.84639 -0.933608 0
M  V30 5646 C 563.321 -0.659164 -1.76919 0
M  V30 5647 O 562.678 0.372142 -1.78665 0
M  V30 5648 C 562.729 -3.11694 -1.83109 0
M  V30 5649 O 562.45 -4.25838 -1.02924 0
M  V30 5650 C 563.951 -3.53132 -2.67979 0
M  V30 5651 H 561.171 -0.613188 -0.272473 0
M  V30 5652 H 563.715 -2.03475 -0.204465 0
M  V30 5653 H 561.87 -2.94759 -2.51387 0
M  V30 5654 H 562.284 -4.98178 -1.64069 0
M  V30 5655 H 563.758 -4.45005 -3.26611 0
M  V30 5656 H 564.235 -2.76045 -3.41608 0
M  V30 5657 H 564.841 -3.72592 -2.05074 0
M  V30 5658 N 563.156 0.464375 -1.50603 0
M  V30 5659 C 564.404 1.21356 -1.61608 0
M  V30 5660 C 564.725 1.92329 -0.321643 0
M  V30 5661 O 563.995 1.84403 0.661232 0
M  V30 5662 H 562.575 0.45094 -0.595535 0
M  V30 5663 H 565.237 0.535046 -1.87412 0
M  V30 5664 H 564.333 1.95783 -2.43054 0
M  V30 5665 N 564.634 1.40294 0.718013 0
M  V30 5666 C 565.859 1.41941 1.5122 0
M  V30 5667 C 566.284 0.0202371 1.88089 0
M  V30 5668 O 565.642 -0.971078 1.53101 0
M  V30 5669 C 565.69 2.3141 2.76554 0
M  V30 5670 O 564.794 1.75567 3.73162 0
M  V30 5671 H 564.135 0.482644 0.456016 0
M  V30 5672 H 566.665 1.84494 0.884478 0
M  V30 5673 H 566.675 2.46513 3.25108 0
M  V30 5674 H 565.35 3.33085 2.49053 0
M  V30 5675 H 563.927 1.69798 3.31999 0
M  V30 5676 N 566.112 -0.949982 1.2575 0
M  V30 5677 C 567.059 -2.04738 1.06541 0
M  V30 5678 C 568.029 -1.66078 -0.0268818 0
M  V30 5679 O 569.214 -1.90348 0.131196 0
M  V30 5680 C 566.354 -3.38027 0.695127 0
M  V30 5681 C 565.467 -3.89776 1.86276 0
M  V30 5682 C 564.602 -5.11411 1.4364 0
M  V30 5683 C 563.641 -5.554 2.57287 0
M  V30 5684 N 562.778 -6.68244 2.15395 0
M  V30 5685 H 567.618 -2.20502 2.00457 0
M  V30 5686 H 565.155 -1.0805 0.998178 0
M  V30 5687 H 567.113 -4.14641 0.461375 0
M  V30 5688 H 565.743 -3.22135 -0.207046 0
M  V30 5689 H 564.795 -3.0964 2.20969 0
M  V30 5690 H 566.107 -4.18368 2.71606 0
M  V30 5691 H 565.261 -5.95457 1.16257 0
M  V30 5692 H 564 -4.84545 0.553879 0
M  V30 5693 H 563.005 -4.69916 2.85409 0
M  V30 5694 H 564.23 -5.84272 3.46125 0
M  V30 5695 H 562.176 -6.43078 1.29565 0
M  V30 5696 H 562.093 -6.96377 2.94272 0
M  V30 5697 H 563.361 -7.55687 1.91201 0
M  V30 5698 N 567.59 -1.07411 -1.15328 0
M  V30 5699 C 568.522 -0.652924 -2.19703 0
M  V30 5700 C 569.535 0.294869 -1.60107 0
M  V30 5701 O 570.724 0.0840932 -1.78302 0
M  V30 5702 C 567.824 0.061434 -3.38844 0
M  V30 5703 C 566.997 -0.902696 -4.27984 0
M  V30 5704 C 566.056 -0.225521 -5.25717 0
M  V30 5705 O 565.082 -0.86676 -5.62562 0
M  V30 5706 N 566.284 1.02858 -5.71315 0
M  V30 5707 H 569.049 -1.55081 -2.56457 0
M  V30 5708 H 566.61 -0.958883 -1.30449 0
M  V30 5709 H 568.602 0.525145 -4.01278 0
M  V30 5710 H 567.172 0.861269 -3.00501 0
M  V30 5711 H 566.392 -1.54551 -3.6264 0
M  V30 5712 H 567.68 -1.55636 -4.84412 0
M  V30 5713 H 567.078 1.56948 -5.43492 0
M  V30 5714 H 565.635 1.43596 -6.35786 0
M  V30 5715 N 569.068 1.32177 -0.85831 0
M  V30 5716 C 570.031 2.27086 -0.310588 0
M  V30 5717 C 571.031 1.51751 0.531806 0
M  V30 5718 O 572.221 1.70794 0.34279 0
M  V30 5719 C 569.353 3.36266 0.560179 0
M  V30 5720 H 570.546 2.77045 -1.1483 0
M  V30 5721 H 568.099 1.42911 -0.632942 0
M  V30 5722 H 568.834 2.9158 1.41956 0
M  V30 5723 H 568.619 3.92077 -0.0428473 0
M  V30 5724 H 570.109 4.06974 0.936056 0
M  V30 5725 N 570.547 0.616602 1.45037 0
M  V30 5726 C 571.775 0.121968 2.0654 0
M  V30 5727 C 572.19 -1.19743 1.45969 0
M  V30 5728 O 571.547 -1.73133 0.577168 0
M  V30 5729 C 571.598 -0.0145171 3.61497 0
M  V30 5730 O 571.319 1.25269 4.19809 0
M  V30 5731 C 572.82 -0.539555 4.40004 0
M  V30 5732 H 570.04 0.0729837 0.667019 0
M  V30 5733 H 572.584 0.846891 1.8614 0
M  V30 5734 H 570.739 -0.689809 3.81209 0
M  V30 5735 H 571.153 1.08816 5.13088 0
M  V30 5736 H 572.627 -0.584112 5.48901 0
M  V30 5737 H 573.104 -1.56368 4.10421 0
M  V30 5738 H 573.71 0.101995 4.25178 0
M  V30 5739 N 572.025 -1.5352 0.356285 0
M  V30 5740 C 573.274 -2.00298 -0.237373 0
M  V30 5741 C 573.587 -1.24784 -1.50627 0
M  V30 5742 O 574.793 -1.62103 -2.17795 0
M  V30 5743 C 573.249 -3.56771 -0.473545 0
M  V30 5744 C 572.857 -4.41154 0.780183 0
M  V30 5745 C 574.601 -4.1193 -1.02537 0
M  V30 5746 C 572.508 -5.89161 0.514108 0
M  V30 5747 H 571.438 -0.748307 -0.092478 0
M  V30 5748 H 574.089 -1.77283 0.473588 0
M  V30 5749 H 572.471 -3.75902 -1.24553 0
M  V30 5750 H 573.645 -4.33797 1.55425 0
M  V30 5751 H 571.96 -3.97052 1.25455 0
M  V30 5752 H 574.557 -5.20133 -1.2396 0
M  V30 5753 H 574.9 -3.65943 -1.98473 0
M  V30 5754 H 575.433 -3.96561 -0.313775 0
M  V30 5755 H 572.172 -6.39408 1.44355 0
M  V30 5756 H 571.692 -5.9939 -0.221632 0
M  V30 5757 H 573.371 -6.46857 0.136122 0
M  V30 5758 N 573.503 -0.0852151 -1.57369 0
M  V30 5759 C 574.914 0.445428 -1.81309 0
M  V30 5760 C 575.265 1.68795 -1.00013 0
M  V30 5761 O 574.39 2.15211 -0.226573 0
M  V30 5762 C 574.985 0.814887 -3.28854 0
M  V30 5763 C 573.544 1.29032 -3.53592 0
M  V30 5764 C 572.691 0.282089 -2.75861 0
M  V30 5765 H 575.642 -0.310771 -1.55627 0
M  V30 5766 H 575.663 1.67524 -3.41637 0
M  V30 5767 H 575.175 -0.0896309 -3.87996 0
M  V30 5768 H 573.276 2.21289 -2.9977 0
M  V30 5769 H 573.389 1.25898 -4.62262 0
M  V30 5770 H 571.753 0.762182 -2.43029 0
M  V30 5771 H 572.536 -0.614936 -3.37748 0
M  V30 5772 N 574.981 1.5647 0.188427 0
M  V30 5773 C 576.209 1.85131 0.923803 0
M  V30 5774 C 576.624 0.668537 1.76567 0
M  V30 5775 O 575.981 -0.362662 1.7886 0
M  V30 5776 C 576.032 3.12661 1.81453 0
M  V30 5777 O 575.753 4.26378 1.00665 0
M  V30 5778 C 577.254 3.54548 2.66103 0
M  V30 5779 H 574.474 0.614624 0.269218 0
M  V30 5780 H 577.018 2.03581 0.193671 0
M  V30 5781 H 575.173 2.96088 2.49821 0
M  V30 5782 H 575.587 4.99041 1.61425 0
M  V30 5783 H 577.061 4.4673 3.24247 0
M  V30 5784 H 577.538 2.77853 3.40139 0
M  V30 5785 H 578.144 3.73674 2.03096 0
M  V30 5786 N 576.459 -0.456382 1.50847 0
M  V30 5787 C 577.392 -1.57177 1.65441 0
M  V30 5788 C 578.37 -1.54649 0.502224 0
M  V30 5789 O 579.554 -1.74057 0.723633 0
M  V30 5790 C 576.681 -2.95763 1.65052 0
M  V30 5791 C 575.727 -3.16389 2.86007 0
M  V30 5792 S 576.56 -2.94716 4.47105 0
M  V30 5793 C 577.716 -4.35617 4.49432 0
M  V30 5794 H 577.949 -1.44561 2.59787 0
M  V30 5795 H 575.482 -0.644758 1.40293 0
M  V30 5796 H 577.44 -3.75654 1.65512 0
M  V30 5797 H 576.101 -3.05756 0.719153 0
M  V30 5798 H 575.294 -4.17667 2.82081 0
M  V30 5799 H 574.896 -2.44293 2.8319 0
M  V30 5800 H 577.188 -5.28503 4.239 0
M  V30 5801 H 578.131 -4.44582 5.51137 0
M  V30 5802 H 578.539 -4.18382 3.78967 0
M  V30 5803 N 577.937 -1.40673 -0.710563 0
M  V30 5804 C 579.185 -1.38947 -1.46759 0
M  V30 5805 C 579.506 0.00572879 -1.94999 0
M  V30 5806 O 578.776 0.961358 -1.70689 0
M  V30 5807 H 577.356 -0.5114 -0.544499 0
M  V30 5808 H 580.018 -1.75773 -0.842012 0
M  V30 5809 H 579.114 -2.06745 -2.33801 0
M  V30 5810 N 579.415 0.9433 -1.26252 0
M  V30 5811 C 580.664 1.68369 -1.11062 0
M  V30 5812 C 580.977 1.92514 0.346104 0
M  V30 5813 O 582.183 2.64358 0.618646 0
M  V30 5814 C 580.639 3.03171 -1.93946 0
M  V30 5815 C 580.247 2.86782 -3.4418 0
M  V30 5816 C 581.991 3.80916 -1.87359 0
M  V30 5817 C 579.898 4.17044 -4.19319 0
M  V30 5818 H 578.828 0.631469 -0.412023 0
M  V30 5819 H 581.479 1.04922 -1.50544 0
M  V30 5820 H 579.861 3.67587 -1.47296 0
M  V30 5821 H 581.035 2.31229 -3.98585 0
M  V30 5822 H 579.35 2.22482 -3.51981 0
M  V30 5823 H 581.947 4.77417 -2.40784 0
M  V30 5824 H 582.29 4.07658 -0.843857 0
M  V30 5825 H 582.823 3.2327 -2.31821 0
M  V30 5826 H 579.562 3.95487 -5.22753 0
M  V30 5827 H 579.082 4.72319 -3.69696 0
M  V30 5828 H 580.761 4.85513 -4.27651 0
M  V30 5829 N 580.893 1.08022 1.14757 0
M  V30 5830 C 582.17 0.720386 1.81851 0
M  V30 5831 C 582.55 -0.796375 1.95502 0
M  V30 5832 O 581.898 -1.71339 1.51179 0
M  V30 5833 C 582.108 1.44273 3.17783 0
M  V30 5834 C 583.456 1.59925 3.93331 0
M  V30 5835 O 584.48 1.40407 3.2736 0
M  V30 5836 O 583.339 1.92096 5.11626 0
M  V30 5837 H 580.433 0.257142 0.786007 0
M  V30 5838 H 582.979 1.18155 1.21809 0
M  V30 5839 H 581.751 2.47618 3.02987 0
M  V30 5840 H 581.374 0.97279 3.85516 0
M  V30 5841 N 582.371 -1.3172 0.865308 0
M  V30 5842 C 583.319 -2.30569 0.306674 0
M  V30 5843 C 584.313 -1.59317 -0.575724 0
M  V30 5844 O 585.519 -1.73961 -0.462343 0
M  V30 5845 H 581.894 -0.747681 0.0804834 0
M  V30 5846 H 583.865 -2.75165 1.15441 0
M  V30 5847 C 582.614 -3.44358 -0.480952 0
M  V30 5848 H 581.937 -3.99354 0.18876 0
M  V30 5849 H 583.377 -4.15652 -0.837241 0
M  V30 5850 C 581.836 -2.92574 -1.67039 0
M  V30 5851 O 582.366 -2.90954 -2.76964 0
M  V30 5852 N 580.572 -2.48835 -1.50097 0
M  V30 5853 H 580.119 -2.50353 -0.606738 0
M  V30 5854 H 580.077 -2.14543 -2.29823 0
M  V30 5855 N 583.85 -0.624285 -1.44708 0
M  V30 5856 C 585.096 -0.13473 -2.02953 0
M  V30 5857 C 585.451 1.22724 -1.48178 0
M  V30 5858 O 584.744 1.80109 -0.653542 0
M  V30 5859 C 584.938 -0.0546353 -3.57358 0
M  V30 5860 C 584.767 -1.40729 -4.27113 0
M  V30 5861 C 583.537 -1.99231 -4.64365 0
M  V30 5862 C 585.735 -2.33968 -4.58 0
M  V30 5863 N 583.716 -3.27803 -5.19055 0
M  V30 5864 C 585.088 -3.47149 -5.137 0
M  V30 5865 C 587.143 -2.33132 -4.39948 0
M  V30 5866 C 585.846 -4.59682 -5.53249 0
M  V30 5867 C 587.872 -3.44724 -4.8054 0
M  V30 5868 C 587.234 -4.56629 -5.36348 0
M  V30 5869 H 583.332 -0.0930617 -0.776443 0
M  V30 5870 H 585.917 -0.826286 -1.76297 0
M  V30 5871 H 584.088 0.606183 -3.8364 0
M  V30 5872 H 585.82 0.443116 -4.02267 0
M  V30 5873 H 582.575 -1.52251 -4.4846 0
M  V30 5874 H 582.999 -3.93519 -5.50883 0
M  V30 5875 H 587.641 -1.47868 -3.961 0
M  V30 5876 H 585.359 -5.4566 -5.96054 0
M  V30 5877 H 588.945 -3.45245 -4.68291 0
M  V30 5878 H 587.825 -5.41551 -5.67179 0
M  V30 5879 N 585.328 1.53329 -0.364422 0
M  V30 5880 C 586.291 2.24323 0.470292 0
M  V30 5881 C 587.291 1.25068 1.01067 0
M  V30 5882 O 588.481 1.49354 0.896605 0
M  V30 5883 C 585.613 2.97908 1.65722 0
M  V30 5884 H 586.806 2.9952 -0.150917 0
M  V30 5885 H 584.359 1.55868 -0.116092 0
M  V30 5886 H 585.094 2.2695 2.31655 0
M  V30 5887 H 584.879 3.70732 1.27671 0
M  V30 5888 H 586.369 3.5188 2.24878 0
M  V30 5889 N 586.806 0.0935595 1.57322 0
M  V30 5890 C 588.083 -0.612692 1.85756 0
M  V30 5891 C 588.463 -1.86439 0.99013 0
M  V30 5892 O 587.811 -2.28416 0.0621362 0
M  V30 5893 C 588.021 -0.929547 3.36393 0
M  V30 5894 C 589.369 -1.29366 4.04413 0
M  V30 5895 O 590.393 -1.02061 3.41265 0
M  V30 5896 O 589.252 -1.80498 5.15832 0
M  V30 5897 H 586.346 -0.306444 0.768128 0
M  V30 5898 H 588.892 0.126141 1.69231 0
M  V30 5899 H 587.664 -0.0414766 3.91278 0
M  V30 5900 H 587.287 -1.72441 3.5826 0
M  V30 5901 N 588.284 -1.56567 -0.180126 0
M  V30 5902 C 589.695 -1.7126 -0.743422 0
M  V30 5903 C 590.046 -0.70263 -1.83187 0
M  V30 5904 O 589.171 0.137856 -2.1596 0
M  V30 5905 C 589.766 -3.10512 -1.35528 0
M  V30 5906 C 588.325 -3.26919 -1.8655 0
M  V30 5907 C 587.472 -2.67213 -0.741099 0
M  V30 5908 H 590.423 -1.58636 0.0451543 0
M  V30 5909 H 590.444 -3.08673 -2.22489 0
M  V30 5910 H 589.956 -3.83997 -0.562862 0
M  V30 5911 H 588.057 -2.58376 -2.68464 0
M  V30 5912 H 588.17 -4.34574 -2.01699 0
M  V30 5913 H 586.534 -2.26788 -1.15927 0
M  V30 5914 H 587.317 -3.43277 0.0393291 0
M  V30 5915 N 589.762 0.448376 -1.51087 0
M  V30 5916 C 590.99 1.22143 -1.66999 0
M  V30 5917 C 591.405 1.85283 -0.362699 0
M  V30 5918 O 590.762 1.70236 0.65772 0
M  V30 5919 C 590.813 2.31357 -2.7777 0
M  V30 5920 O 590.534 1.70801 -4.03434 0
M  V30 5921 C 592.035 3.21836 -3.04855 0
M  V30 5922 H 589.255 0.368558 -0.560719 0
M  V30 5923 H 591.799 0.532618 -1.97442 0
M  V30 5924 H 589.954 2.95973 -2.49958 0
M  V30 5925 H 590.368 2.42895 -4.64868 0
M  V30 5926 H 591.842 3.94627 -3.85971 0
M  V30 5927 H 592.319 3.81949 -2.16821 0
M  V30 5928 H 592.925 2.62933 -3.34285 0
M  V30 5929 N 591.24 1.41047 0.703093 0
M  V30 5930 C 592.203 1.42036 1.79884 0
M  V30 5931 C 593.203 0.312153 1.57741 0
M  V30 5932 O 594.393 0.571672 1.64553 0
M  V30 5933 C 591.525 1.22437 3.18154 0
M  V30 5934 H 592.718 2.39572 1.80403 0
M  V30 5935 H 590.271 1.27079 0.909977 0
M  V30 5936 H 591.006 0.257112 3.23279 0
M  V30 5937 H 590.791 2.02723 3.35627 0
M  V30 5938 H 592.281 1.25946 3.98155 0
M  V30 5939 N 592.718 -0.936591 1.26751 0
M  V30 5940 C 594.129 -1.49816 1.1141 0
M  V30 5941 C 594.48 -1.9383 -0.304015 0
M  V30 5942 O 593.605 -1.80346 -1.196 0
M  V30 5943 C 594.2 -2.72271 2.01629 0
M  V30 5944 C 592.759 -3.2468 1.9042 0
M  V30 5945 C 591.906 -1.97444 1.94708 0
M  V30 5946 H 594.857 -0.751604 1.39773 0
M  V30 5947 H 594.878 -3.46741 1.56688 0
M  V30 5948 H 594.39 -2.40205 3.04833 0
M  V30 5949 H 592.491 -3.61525 0.901674 0
M  V30 5950 H 592.604 -3.91476 2.76195 0
M  V30 5951 H 590.968 -2.13545 1.38818 0
M  V30 5952 H 591.751 -1.67703 2.9955 0
M  V30 5953 N 594.196 -1.08629 -1.14182 0
M  V30 5954 C 595.445 -0.812271 -1.84621 0
M  V30 5955 C 595.758 0.664313 -1.83973 0
M  V30 5956 O 596.964 1.05357 -2.50224 0
M  V30 5957 C 595.42 -1.4031 -3.31423 0
M  V30 5958 C 595.028 -2.91164 -3.40481 0
M  V30 5959 C 596.772 -1.20767 -4.06959 0
M  V30 5960 C 594.679 -3.43373 -4.81507 0
M  V30 5961 H 593.609 -0.30019 -0.691666 0
M  V30 5962 H 596.26 -1.30798 -1.28701 0
M  V30 5963 H 594.642 -0.835096 -3.87094 0
M  V30 5964 H 595.816 -3.5412 -2.94848 0
M  V30 5965 H 594.131 -3.09646 -2.78403 0
M  V30 5966 H 596.728 -1.57237 -5.11058 0
M  V30 5967 H 597.071 -0.147664 -4.16038 0
M  V30 5968 H 597.604 -1.74274 -3.57594 0
M  V30 5969 H 594.343 -4.48958 -4.77616 0
M  V30 5970 H 593.863 -2.85176 -5.27669 0
M  V30 5971 H 595.542 -3.40095 -5.50404 0
M  V30 5972 N 595.674 1.31259 -0.872281 0
M  V30 5973 C 596.921 1.96622 -0.484365 0
M  V30 5974 C 597.249 1.68939 0.963841 0
M  V30 5975 O 596.504 0.97974 1.6941 0
M  V30 5976 C 596.803 3.50659 -0.690889 0
M  V30 5977 C 596.469 3.98366 -2.11224 0
M  V30 5978 C 595.131 4.11104 -2.50094 0
M  V30 5979 C 597.483 4.23425 -3.0391 0
M  V30 5980 C 594.811 4.46254 -3.80887 0
M  V30 5981 C 597.163 4.60039 -4.3422 0
M  V30 5982 C 595.827 4.70984 -4.73001 0
M  V30 5983 H 595.097 0.71949 -0.177242 0
M  V30 5984 H 597.744 1.56353 -1.10571 0
M  V30 5985 H 596.049 3.91798 0.0135782 0
M  V30 5986 H 597.746 3.99284 -0.370534 0
M  V30 5987 H 594.336 3.88949 -1.80047 0
M  V30 5988 H 598.52 4.13075 -2.75104 0
M  V30 5989 H 593.776 4.52926 -4.10692 0
M  V30 5990 H 597.95 4.78381 -5.06088 0
M  V30 5991 H 595.577 4.97977 -5.7439 0
M  V30 5992 N 597.152 0.631951 1.44375 0
M  V30 5993 C 598.115 -0.0628142 2.29114 0
M  V30 5994 C 599.115 -0.771494 1.41084 0
M  V30 5995 O 600.305 -0.615959 1.62947 0
M  V30 5996 C 597.437 -1.09953 3.22681 0
M  V30 5997 H 598.63 0.682509 2.92031 0
M  V30 5998 H 596.183 0.392128 1.51301 0
M  V30 5999 H 596.918 -1.87481 2.64616 0
M  V30 6000 H 596.703 -0.595286 3.87555 0
M  V30 6001 H 598.193 -1.58538 3.86336 0
M  V30 6002 N 598.631 -1.53133 0.372548 0
M  V30 6003 C 599.541 -2.29671 -0.478379 0
M  V30 6004 C 600.557 -1.35913 -1.08644 0
M  V30 6005 O 601.733 -1.68975 -1.09588 0
M  V30 6006 C 598.798 -3.07625 -1.599 0
M  V30 6007 C 597.859 -4.17061 -1.01776 0
M  V30 6008 C 597.092 -4.91289 -2.08497 0
M  V30 6009 O 597.315 -4.65442 -3.29727 0
M  V30 6010 O 596.249 -5.7705 -1.71164 0
M  V30 6011 H 600.075 -3.03355 0.144649 0
M  V30 6012 H 597.66 -1.48773 0.136729 0
M  V30 6013 H 599.542 -3.56281 -2.25038 0
M  V30 6014 H 598.217 -2.3677 -2.2073 0
M  V30 6015 H 597.124 -3.72641 -0.330098 0
M  V30 6016 H 598.457 -4.90102 -0.453915 0
M  V30 6017 N 600.109 -0.101901 -1.5727 0
M  V30 6018 C 601.358 0.559922 -1.93772 0
M  V30 6019 C 601.671 1.68913 -0.98629 0
M  V30 6020 O 602.877 2.41256 -1.24529 0
M  V30 6021 C 601.333 1.04739 -3.44322 0
M  V30 6022 C 600.941 -0.05243 -4.47969 0
M  V30 6023 C 602.685 1.68157 -3.89774 0
M  V30 6024 C 600.592 0.450781 -5.8968 0
M  V30 6025 H 599.522 0.212931 -0.723309 0
M  V30 6026 H 602.173 -0.179001 -1.82625 0
M  V30 6027 H 600.555 1.84021 -3.50645 0
M  V30 6028 H 601.729 -0.828157 -4.53297 0
M  V30 6029 H 600.044 -0.592202 -4.12167 0
M  V30 6030 H 602.641 2.0689 -4.93052 0
M  V30 6031 H 602.984 2.55338 -3.28798 0
M  V30 6032 H 603.517 0.954453 -3.8618 0
M  V30 6033 H 600.256 -0.38458 -6.54371 0
M  V30 6034 H 599.776 1.19336 -5.87809 0
M  V30 6035 H 601.455 0.917555 -6.40461 0
M  V30 6036 N 601.587 1.56661 0.17182 0
M  V30 6037 C 602.55 1.9549 1.19651 0
M  V30 6038 C 603.55 0.838501 1.37207 0
M  V30 6039 O 604.74 1.10556 1.34622 0
M  V30 6040 C 601.872 2.24927 2.56166 0
M  V30 6041 H 603.065 2.87184 0.864007 0
M  V30 6042 H 600.618 1.50711 0.41425 0
M  V30 6043 H 601.353 1.35944 2.94431 0
M  V30 6044 H 601.138 3.06301 2.4479 0
M  V30 6045 H 602.628 2.55891 3.30014 0
M  V30 6046 N 603.065 -0.440357 1.51323 0
M  V30 6047 C 604.476 -1.02032 1.56353 0
M  V30 6048 C 604.827 -1.92382 0.385197 0
M  V30 6049 O 603.952 -2.10583 -0.498373 0
M  V30 6050 C 604.547 -1.85723 2.83359 0
M  V30 6051 C 603.106 -2.38774 2.90971 0
M  V30 6052 C 602.253 -1.17908 2.50984 0
M  V30 6053 H 605.204 -0.221744 1.57143 0
M  V30 6054 H 605.225 -2.71141 2.66951 0
M  V30 6055 H 604.737 -1.19939 3.69102 0
M  V30 6056 H 602.838 -3.08021 2.09651 0
M  V30 6057 H 602.951 -2.71778 3.94555 0
M  V30 6058 H 601.315 -1.52347 2.04114 0
M  V30 6059 H 602.098 -0.537393 3.39068 0
M  V30 6060 N 604.543 -1.41418 -0.695603 0
M  V30 6061 C 605.473 -1.46035 -1.82197 0
M  V30 6062 C 606.454 -0.319025 -1.67082 0
M  V30 6063 O 607.639 -0.530462 -1.86815 0
M  V30 6064 C 604.769 -1.34179 -3.20333 0
M  V30 6065 C 603.723 -2.46123 -3.50154 0
M  V30 6066 C 603.049 -2.19332 -4.87645 0
M  V30 6067 C 604.349 -3.88463 -3.49133 0
M  V30 6068 H 606.043 -2.40303 -1.78591 0
M  V30 6069 H 603.589 -1.15663 -0.857797 0
M  V30 6070 H 605.542 -1.36021 -3.98844 0
M  V30 6071 H 604.266 -0.363952 -3.24566 0
M  V30 6072 H 602.925 -2.43563 -2.73994 0
M  V30 6073 H 602.573 -1.19891 -4.88503 0
M  V30 6074 H 602.273 -2.94344 -5.08562 0
M  V30 6075 H 603.797 -2.22889 -5.68465 0
M  V30 6076 H 605.211 -3.92738 -4.17648 0
M  V30 6077 H 603.608 -4.63158 -3.81582 0
M  V30 6078 H 604.678 -4.16617 -2.48109 0
M  V30 6079 N 606.021 0.929856 -1.27246 0
M  V30 6080 C 607.432 1.49223 -1.12203 0
M  V30 6081 C 607.783 1.93989 0.293731 0
M  V30 6082 O 606.908 1.80978 1.18642 0
M  V30 6083 C 607.503 2.71198 -2.0307 0
M  V30 6084 C 606.062 3.23666 -1.92139 0
M  V30 6085 C 605.209 1.96409 -1.95752 0
M  V30 6086 H 608.16 0.744181 -1.4017 0
M  V30 6087 H 608.181 3.45905 -1.58524 0
M  V30 6088 H 607.693 2.38585 -3.06102 0
M  V30 6089 H 605.794 3.61042 -0.920834 0
M  V30 6090 H 605.907 3.90006 -2.78267 0
M  V30 6091 H 604.271 2.12806 -1.39949 0
M  V30 6092 H 605.054 1.66113 -3.00436 0
M  V30 6093 N 607.499 1.09233 1.13605 0
M  V30 6094 C 608.462 0.733553 2.17144 0
M  V30 6095 C 609.462 -0.235873 1.59061 0
M  V30 6096 O 610.652 -0.0143167 1.74194 0
M  V30 6097 C 607.784 0.084471 3.40795 0
M  V30 6098 H 608.977 1.65049 2.50397 0
M  V30 6099 H 606.53 0.891264 1.28399 0
M  V30 6100 H 607.265 -0.843795 3.1313 0
M  V30 6101 H 607.05 0.781985 3.84223 0
M  V30 6102 H 608.54 -0.151216 4.17326 0
M  V30 6103 N 608.977 -1.30795 0.87923 0
M  V30 6104 C 610.225 -1.95974 0.493809 0
M  V30 6105 C 610.546 -1.69787 -0.959021 0
M  V30 6106 O 609.816 -1.01832 -1.67353 0
M  V30 6107 H 608.396 -0.725083 0.179622 0
M  V30 6108 H 611.058 -1.59432 1.12105 0
M  V30 6109 H 610.154 -3.05058 0.659263 0
M  V30 6110 N 610.455 -0.639598 -1.44038 0
M  V30 6111 C 611.385 0.0469443 -2.33453 0
M  V30 6112 C 612.366 0.82609 -1.48694 0
M  V30 6113 O 613.551 0.790285 -1.77393 0
M  V30 6114 C 610.681 1.02338 -3.3188 0
M  V30 6115 C 609.635 0.355284 -4.26523 0
M  V30 6116 C 608.961 1.44221 -5.14883 0
M  V30 6117 C 610.261 -0.743798 -5.16977 0
M  V30 6118 H 611.955 -0.699735 -2.91108 0
M  V30 6119 H 609.501 -0.337946 -1.39978 0
M  V30 6120 H 611.454 1.51247 -3.93322 0
M  V30 6121 H 610.178 1.80105 -2.72451 0
M  V30 6122 H 608.837 -0.113239 -3.66425 0
M  V30 6123 H 608.485 2.21097 -4.51802 0
M  V30 6124 H 608.185 1.00052 -5.79019 0
M  V30 6125 H 609.709 1.93295 -5.79197 0
M  V30 6126 H 611.123 -0.337444 -5.72306 0
M  V30 6127 H 609.52 -1.10914 -5.89761 0
M  V30 6128 H 610.59 -1.60745 -4.57481 0
M  V30 6129 N 611.933 1.52934 -0.380664 0
M  V30 6130 C 612.843 2.29921 0.466192 0
M  V30 6131 C 613.859 1.36488 1.07922 0
M  V30 6132 O 615.035 1.69553 1.0869 0
M  V30 6133 C 612.1 3.08468 1.58266 0
M  V30 6134 C 611.161 4.17595 0.995627 0
M  V30 6135 C 610.394 4.92387 2.05889 0
M  V30 6136 O 610.617 4.67184 3.27254 0
M  V30 6137 O 609.551 5.77949 1.68102 0
M  V30 6138 H 613.377 3.03274 -0.160735 0
M  V30 6139 H 610.962 1.48698 -0.144617 0
M  V30 6140 H 612.844 3.57469 2.23145 0
M  V30 6141 H 611.519 2.37937 2.19471 0
M  V30 6142 H 610.426 3.72811 0.310332 0
M  V30 6143 H 611.759 4.90336 0.427918 0
M  V30 6144 N 613.412 0.11024 1.57214 0
M  V30 6145 C 614.64 -0.557834 1.99238 0
M  V30 6146 C 615.055 -1.60778 0.989734 0
M  V30 6147 O 614.412 -1.82491 -0.0186092 0
M  V30 6148 C 614.463 -1.19189 3.41286 0
M  V30 6149 O 614.184 -0.183919 4.37714 0
M  V30 6150 C 615.685 -1.94413 3.98395 0
M  V30 6151 H 612.905 -0.148392 0.654386 0
M  V30 6152 H 615.449 0.193996 2.03578 0
M  V30 6153 H 613.604 -1.89456 3.37913 0
M  V30 6154 H 614.018 -0.643475 5.20538 0
M  V30 6155 H 615.492 -2.34116 4.99894 0
M  V30 6156 H 615.969 -2.81592 3.3705 0
M  V30 6157 H 616.575 -1.28928 4.05287 0
M  V30 6158 N 614.89 -1.56749 -0.16351 0
M  V30 6159 C 616.12 -1.86307 -0.892936 0
M  V30 6160 C 616.528 -0.6945 -1.75992 0
M  V30 6161 O 615.871 0.345384 -1.80424 0
M  V30 6162 C 615.933 -3.10372 -1.81409 0
M  V30 6163 C 615.597 -4.42913 -1.12593 0
M  V30 6164 C 616.594 -5.17608 -0.487661 0
M  V30 6165 C 614.279 -4.89646 -1.12035 0
M  V30 6166 C 616.273 -6.3723 0.14699 0
M  V30 6167 C 613.96 -6.09197 -0.481883 0
M  V30 6168 C 614.958 -6.82834 0.150678 0
M  V30 6169 O 614.646 -8.00116 0.779065 0
M  V30 6170 H 614.378 -0.622126 -0.264452 0
M  V30 6171 H 616.932 -2.04728 -0.166063 0
M  V30 6172 H 615.162 -2.87917 -2.58148 0
M  V30 6173 H 616.851 -3.26312 -2.41403 0
M  V30 6174 H 617.617 -4.8258 -0.483888 0
M  V30 6175 H 613.496 -4.32265 -1.60212 0
M  V30 6176 H 617.04 -6.94646 0.641325 0
M  V30 6177 H 612.937 -6.43688 -0.483266 0
M  V30 6178 H 613.705 -8.15678 0.679089 0
M  V30 6179 N 616.368 0.432326 -1.51554 0
M  V30 6180 C 617.614 1.18309 -1.64714 0
M  V30 6181 C 617.947 1.90745 -0.364696 0
M  V30 6182 O 617.222 1.8381 0.635936 0
M  V30 6183 C 617.505 2.1961 -2.85383 0
M  V30 6184 C 617.358 1.51223 -4.23617 0
M  V30 6185 C 618.677 3.20538 -3.01569 0
M  V30 6186 H 615.796 0.428751 -0.599451 0
M  V30 6187 H 618.438 0.471689 -1.84052 0
M  V30 6188 H 616.588 2.8028 -2.69027 0
M  V30 6189 H 618.26 0.938516 -4.51652 0
M  V30 6190 H 616.503 0.814501 -4.26085 0
M  V30 6191 H 617.174 2.25024 -5.04052 0
M  V30 6192 H 619.65 2.69926 -3.16669 0
M  V30 6193 H 618.526 3.88706 -3.87555 0
M  V30 6194 H 618.787 3.86933 -2.13859 0
M  V30 6195 N 617.846 1.41785 0.688094 0
M  V30 6196 C 619.071 1.45117 1.48175 0
M  V30 6197 C 619.496 0.060129 1.88004 0
M  V30 6198 O 618.854 -0.938385 1.55126 0
M  V30 6199 C 618.902 2.37224 2.71583 0
M  V30 6200 O 618.006 1.83443 3.69354 0
M  V30 6201 H 617.347 0.492208 0.445676 0
M  V30 6202 H 619.877 1.86329 0.845145 0
M  V30 6203 H 619.887 2.53353 3.19806 0
M  V30 6204 H 618.562 3.38293 2.41931 0
M  V30 6205 H 617.139 1.76802 3.28322 0
M  V30 6206 N 619.324 -0.923095 1.27737 0
M  V30 6207 C 620.254 -2.04124 1.13383 0
M  V30 6208 C 621.235 -1.70066 0.0340658 0
M  V30 6209 O 622.42 -1.93068 0.209383 0
M  V30 6210 C 619.55 -3.3831 0.785097 0
M  V30 6211 C 618.504 -3.86496 1.8386 0
M  V30 6212 C 617.83 -5.1754 1.34373 0
M  V30 6213 C 619.13 -4.09381 3.24353 0
M  V30 6214 H 620.824 -2.1639 2.06919 0
M  V30 6215 H 618.37 -1.03976 0.996243 0
M  V30 6216 H 620.323 -4.16016 0.671485 0
M  V30 6217 H 619.047 -3.2607 -0.185969 0
M  V30 6218 H 617.706 -3.10987 1.9412 0
M  V30 6219 H 617.354 -5.01696 0.361989 0
M  V30 6220 H 617.054 -5.50751 2.04811 0
M  V30 6221 H 618.578 -5.97811 1.24315 0
M  V30 6222 H 619.992 -4.77641 3.17067 0
M  V30 6223 H 618.389 -4.53906 3.92542 0
M  V30 6224 H 619.459 -3.14515 3.69064 0
M  V30 6225 N 620.802 -1.09834 -1.13024 0
M  V30 6226 C 622.032 -0.857657 -1.87957 0
M  V30 6227 C 622.44 0.595008 -1.796 0
M  V30 6228 O 621.783 1.42158 -1.16347 0
M  V30 6229 C 621.845 -1.21949 -3.38185 0
M  V30 6230 C 621.509 -2.67791 -3.7032 0
M  V30 6231 C 622.506 -3.66036 -3.69207 0
M  V30 6232 C 620.191 -3.04019 -3.99847 0
M  V30 6233 C 622.185 -4.98533 -3.9717 0
M  V30 6234 C 619.872 -4.36706 -4.27471 0
M  V30 6235 C 620.87 -5.33772 -4.26118 0
M  V30 6236 O 620.558 -6.64072 -4.53061 0
M  V30 6237 H 620.29 -0.308009 -0.601753 0
M  V30 6238 H 622.844 -1.46496 -1.43973 0
M  V30 6239 H 621.074 -0.555249 -3.82693 0
M  V30 6240 H 622.763 -0.957281 -3.9445 0
M  V30 6241 H 623.529 -3.39392 -3.46465 0
M  V30 6242 H 619.408 -2.29096 -4.00045 0
M  V30 6243 H 622.952 -5.74288 -3.96029 0
M  V30 6244 H 618.849 -4.63091 -4.49685 0
M  V30 6245 H 619.617 -6.69608 -4.7071 0
M  V30 6246 N 622.28 1.30327 -0.886154 0
M  V30 6247 C 623.21 2.30549 -0.370028 0
M  V30 6248 C 624.191 1.61039 0.547751 0
M  V30 6249 O 625.376 1.8864 0.461353 0
M  V30 6250 C 622.506 3.44808 0.415275 0
M  V30 6251 C 621.46 4.26024 -0.41085 0
M  V30 6252 C 620.786 5.32347 0.501128 0
M  V30 6253 C 622.086 4.95433 -1.65359 0
M  V30 6254 H 623.78 2.73969 -1.20754 0
M  V30 6255 H 621.326 1.3171 -0.582097 0
M  V30 6256 H 623.279 4.13986 0.78699 0
M  V30 6257 H 622.003 3.00197 1.28644 0
M  V30 6258 H 620.662 3.58535 -0.764719 0
M  V30 6259 H 620.31 4.83982 1.37004 0
M  V30 6260 H 620.01 5.87581 -0.0478356 0
M  V30 6261 H 621.534 6.0438 0.869333 0
M  V30 6262 H 622.948 5.5712 -1.35239 0
M  V30 6263 H 621.345 5.60537 -2.14284 0
M  V30 6264 H 622.415 4.21493 -2.39733 0
M  V30 6265 N 623.758 0.647228 1.43697 0
M  V30 6266 C 624.721 -0.0385101 2.29168 0
M  V30 6267 C 625.721 -0.756487 1.41894 0
M  V30 6268 O 626.911 -0.598641 1.63591 0
M  V30 6269 C 624.043 -1.06524 3.23829 0
M  V30 6270 H 625.236 0.713445 2.9129 0
M  V30 6271 H 622.789 0.408153 1.50877 0
M  V30 6272 H 623.524 -1.84664 2.66589 0
M  V30 6273 H 623.309 -0.554147 3.88164 0
M  V30 6274 H 624.799 -1.54432 3.87996 0
M  V30 6275 N 625.236 -1.5273 0.388769 0
M  V30 6276 C 626.485 -2.00757 -0.194833 0
M  V30 6277 C 626.798 -1.27951 -1.47946 0
M  V30 6278 O 628.004 -1.66686 -2.14308 0
M  V30 6279 C 626.46 -3.57695 -0.397762 0
M  V30 6280 C 626.068 -4.394 0.873583 0
M  V30 6281 C 627.812 -4.14012 -0.937759 0
M  V30 6282 C 625.719 -5.87938 0.638962 0
M  V30 6283 H 624.649 -0.750101 -0.0765845 0
M  V30 6284 H 627.3 -1.76239 0.511086 0
M  V30 6285 H 625.682 -3.7846 -1.16552 0
M  V30 6286 H 626.856 -4.30403 1.64591 0
M  V30 6287 H 625.171 -3.94301 1.33849 0
M  V30 6288 H 627.768 -5.22645 -1.12899 0
M  V30 6289 H 628.111 -3.7007 -1.90666 0
M  V30 6290 H 628.644 -3.97137 -0.229588 0
M  V30 6291 H 625.383 -6.36202 1.57885 0
M  V30 6292 H 624.903 -5.99726 -0.094443 0
M  V30 6293 H 626.582 -6.46423 0.273299 0
M  V30 6294 N 626.714 -0.118576 -1.57153 0
M  V30 6295 C 627.942 0.54726 -1.99531 0
M  V30 6296 C 628.357 1.60251 -0.998246 0
M  V30 6297 O 627.714 1.82498 0.00893106 0
M  V30 6298 C 627.765 1.17378 -3.41913 0
M  V30 6299 O 627.486 0.160703 -4.37805 0
M  V30 6300 C 628.987 1.92297 -3.9942 0
M  V30 6301 H 626.207 0.144919 -0.655164 0
M  V30 6302 H 628.751 -0.20479 -2.03472 0
M  V30 6303 H 626.906 1.87661 -3.38913 0
M  V30 6304 H 627.32 0.61586 -5.20872 0
M  V30 6305 H 628.794 2.31462 -5.01128 0
M  V30 6306 H 629.271 2.79801 -3.38538 0
M  V30 6307 H 629.877 1.26777 -4.05965 0
M  V30 6308 N 628.193 1.56834 0.155195 0
M  V30 6309 C 629.14 1.97646 1.19184 0
M  V30 6310 C 630.11 0.842788 1.4313 0
M  V30 6311 O 631.295 1.1042 1.55602 0
M  V30 6312 C 628.435 2.35527 2.52232 0
M  V30 6313 C 627.548 3.62147 2.35529 0
M  V30 6314 C 626.683 3.89167 3.61555 0
M  V30 6315 C 625.722 5.09084 3.39853 0
M  V30 6316 N 624.859 5.32156 4.5799 0
M  V30 6317 H 629.699 2.8601 0.836802 0
M  V30 6318 H 627.236 1.41507 0.401758 0
M  V30 6319 H 629.194 2.55516 3.29799 0
M  V30 6320 H 627.824 1.50253 2.85699 0
M  V30 6321 H 626.876 3.4998 1.49057 0
M  V30 6322 H 628.188 4.49871 2.15448 0
M  V30 6323 H 627.342 4.09611 4.47553 0
M  V30 6324 H 626.081 2.9985 3.84632 0
M  V30 6325 H 625.086 4.88522 2.52243 0
M  V30 6326 H 626.311 5.99947 3.18183 0
M  V30 6327 H 624.257 4.45791 4.81255 0
M  V30 6328 H 624.174 6.14133 4.40882 0
M  V30 6329 H 625.442 5.57091 5.45225 0
M  V30 6330 N 629.671 -0.424282 1.51781 0
M  V30 6331 C 630.619 -1.53649 1.74628 0
M  V30 6332 C 631.613 -1.57923 0.612922 0
M  V30 6333 O 632.819 -1.61511 0.794618 0
M  V30 6334 H 629.194 -0.510706 0.551981 0
M  V30 6335 H 631.165 -1.31558 2.67834 0
M  V30 6336 C 629.914 -2.91177 1.9003 0
M  V30 6337 H 629.237 -2.88625 2.76651 0
M  V30 6338 H 630.677 -3.6833 2.10021 0
M  V30 6339 C 629.136 -3.30303 0.663435 0
M  V30 6340 O 629.666 -4.01315 -0.175812 0
M  V30 6341 N 627.872 -2.86201 0.503723 0
M  V30 6342 H 627.419 -2.28583 1.18776 0
M  V30 6343 H 627.377 -3.12741 -0.322575 0
M  V30 6344 N 631.149 -1.42148 -0.680565 0
M  V30 6345 C 632.56 -1.3768 -1.26099 0
M  V30 6346 C 632.911 -0.0672348 -1.96085 0
M  V30 6347 O 632.036 0.834172 -1.99676 0
M  V30 6348 C 632.631 -2.49387 -2.29328 0
M  V30 6349 C 631.19 -2.4827 -2.82911 0
M  V30 6350 C 630.337 -2.2847 -1.57152 0
M  V30 6351 H 633.288 -1.51446 -0.474326 0
M  V30 6352 H 633.309 -2.19307 -3.10941 0
M  V30 6353 H 632.821 -3.44686 -1.78363 0
M  V30 6354 H 630.922 -1.56773 -3.38013 0
M  V30 6355 H 631.035 -3.45109 -3.3232 0
M  V30 6356 H 629.399 -1.76623 -1.83511 0
M  V30 6357 H 630.182 -3.25816 -1.0816 0
M  V30 6358 N 632.627 0.916307 -1.28225 0
M  V30 6359 C 633.537 2.05165 -1.13775 0
M  V30 6360 C 634.553 1.73879 -0.0649418 0
M  V30 6361 O 635.729 1.99531 -0.273722 0
M  V30 6362 C 632.794 3.37385 -0.798267 0
M  V30 6363 C 631.855 3.82296 -1.95316 0
M  V30 6364 C 631.088 5.08206 -1.62978 0
M  V30 6365 O 631.311 5.6781 -0.542948 0
M  V30 6366 O 630.245 5.48768 -2.47261 0
M  V30 6367 H 634.071 2.20273 -2.09078 0
M  V30 6368 H 631.656 1.0373 -1.07519 0
M  V30 6369 H 633.538 4.16773 -0.62278 0
M  V30 6370 H 632.213 3.23458 0.125139 0
M  V30 6371 H 631.12 3.03746 -2.18378 0
M  V30 6372 H 632.453 4.00782 -2.85718 0
M  V30 6373 N 634.105 1.10431 1.1244 0
M  V30 6374 C 635.521 0.836096 1.35947 0
M  V30 6375 C 635.721 -0.544475 1.94004 0
M  V30 6376 O 634.777 -1.29735 2.16622 0
M  V30 6377 C 636.09 1.93575 2.30107 0
M  V30 6378 C 637.638 1.9642 2.43697 0
M  V30 6379 C 638.113 3.05559 3.41171 0
M  V30 6380 N 639.604 3.04865 3.48728 0
M  V30 6381 C 640.339 3.85954 4.24061 0
M  V30 6382 N 639.835 4.76977 5.02458 0
M  V30 6383 N 641.628 3.74172 4.19466 0
M  V30 6384 H 633.779 1.9942 0.731124 0
M  V30 6385 H 636.042 0.866607 0.384312 0
M  V30 6386 H 635.748 2.92943 1.94621 0
M  V30 6387 H 635.622 1.8229 3.30227 0
M  V30 6388 H 638.009 0.97685 2.78463 0
M  V30 6389 H 638.09 2.11782 1.43465 0
M  V30 6390 H 637.734 4.04513 3.07135 0
M  V30 6391 H 637.664 2.87438 4.41234 0
M  V30 6392 H 640.155 2.38908 2.92799 0
M  V30 6393 H 640.468 5.35409 5.57277 0
M  V30 6394 H 638.813 4.81006 5.01655 0
M  V30 6395 H 642.004 3.02412 3.57302 0
M  V30 6396 H 642.177 4.37602 4.77921 0
M  V30 6397 N 635.583 -1.29855 0.893053 0
M  V30 6398 C 636.546 -2.26183 0.370687 0
M  V30 6399 C 637.546 -1.53108 -0.491385 0
M  V30 6400 O 638.736 -1.71643 -0.297386 0
M  V30 6401 C 635.868 -3.37633 -0.470827 0
M  V30 6402 H 637.061 -2.73903 1.22135 0
M  V30 6403 H 634.614 -1.41183 0.67061 0
M  V30 6404 H 635.349 -2.95241 -1.34175 0
M  V30 6405 H 635.134 -3.91825 0.146784 0
M  V30 6406 H 636.624 -4.09313 -0.827825 0
M  V30 6407 N 637.061 -0.65484 -1.43351 0
M  V30 6408 C 638.477 -0.32255 -1.56307 0
M  V30 6409 C 638.677 1.17324 -1.63821 0
M  V30 6410 O 637.733 1.95813 -1.59417 0
M  V30 6411 C 639.046 -1.03533 -2.82314 0
M  V30 6412 C 640.594 -1.01574 -2.9606 0
M  V30 6413 C 641.069 -1.70945 -4.24902 0
M  V30 6414 N 642.56 -1.67716 -4.3177 0
M  V30 6415 C 643.295 -2.18265 -5.30234 0
M  V30 6416 N 642.791 -2.7711 -6.34966 0
M  V30 6417 N 644.584 -2.08756 -5.21898 0
M  V30 6418 H 636.735 -1.62549 -1.36717 0
M  V30 6419 H 638.998 -0.683676 -0.656727 0
M  V30 6420 H 638.704 -2.09045 -2.8283 0
M  V30 6421 H 638.578 -0.587913 -3.7259 0
M  V30 6422 H 640.965 0.0309834 -2.95084 0
M  V30 6423 H 641.046 -1.50186 -2.07069 0
M  V30 6424 H 640.69 -2.75574 -4.26639 0
M  V30 6425 H 640.62 -1.19797 -5.12793 0
M  V30 6426 H 643.111 -1.24777 -3.56706 0
M  V30 6427 H 643.424 -3.13353 -7.06421 0
M  V30 6428 H 641.769 -2.81171 -6.35585 0
M  V30 6429 H 644.96 -1.62488 -4.38994 0
M  V30 6430 H 645.133 -2.48459 -5.98475 0
M  V30 6431 N 638.539 1.52521 -0.396863 0
M  V30 6432 C 639.786 2.01672 0.182898 0
M  V30 6433 C 640.114 1.28302 1.46181 0
M  V30 6434 O 639.369 0.374118 1.92091 0
M  V30 6435 C 639.668 3.5403 0.489677 0
M  V30 6436 C 639.334 4.45456 -0.698581 0
M  V30 6437 C 637.996 4.70166 -1.02454 0
M  V30 6438 C 640.348 4.99354 -1.49316 0
M  V30 6439 C 637.676 5.46024 -2.1465 0
M  V30 6440 C 640.028 5.76439 -2.60579 0
M  V30 6441 C 638.692 5.99426 -2.93675 0
M  V30 6442 H 637.962 0.737971 0.066927 0
M  V30 6443 H 640.609 1.83853 -0.535764 0
M  V30 6444 H 638.914 3.69963 1.28976 0
M  V30 6445 H 640.611 3.8956 0.951018 0
M  V30 6446 H 637.201 4.26392 -0.434525 0
M  V30 6447 H 641.385 4.80182 -1.25457 0
M  V30 6448 H 636.641 5.62046 -2.40654 0
M  V30 6449 H 640.815 6.17202 -3.22544 0
M  V30 6450 H 638.442 6.57988 -3.80731 0
M  V30 6451 N 640.017 0.126909 1.57088 0
M  V30 6452 C 640.949 -0.850973 2.12817 0
M  V30 6453 C 641.962 -1.22457 1.07276 0
M  V30 6454 O 643.151 -1.17215 1.34622 0
M  V30 6455 C 640.251 -2.15039 2.61938 0
M  V30 6456 C 639.424 -1.94726 3.91664 0
M  V30 6457 C 638.483 -3.0847 4.26301 0
M  V30 6458 O 637.509 -2.81038 4.94981 0
M  V30 6459 N 638.711 -4.35116 3.84259 0
M  V30 6460 H 641.476 -0.3748 2.97347 0
M  V30 6461 H 639.037 -0.0572793 1.61799 0
M  V30 6462 H 641.029 -2.90141 2.82135 0
M  V30 6463 H 639.599 -2.5398 1.82244 0
M  V30 6464 H 638.819 -1.03772 3.80296 0
M  V30 6465 H 640.107 -1.78469 4.76473 0
M  V30 6466 H 639.505 -4.60276 3.2888 0
M  V30 6467 H 638.062 -5.07064 4.09548 0
M  V30 6468 N 641.495 -1.56914 -0.146875 0
M  V30 6469 C 642.742 -1.83356 -0.859467 0
M  V30 6470 C 643.07 -0.707811 -1.81164 0
M  V30 6471 O 642.325 0.303155 -1.93338 0
M  V30 6472 C 642.624 -3.16128 -1.66727 0
M  V30 6473 C 642.29 -4.42586 -0.861881 0
M  V30 6474 C 640.952 -4.76929 -0.639687 0
M  V30 6475 C 643.304 -5.20344 -0.298643 0
M  V30 6476 C 640.632 -5.86491 0.156451 0
M  V30 6477 C 642.984 -6.30742 0.484536 0
M  V30 6478 C 641.648 -6.63635 0.717306 0
M  V30 6479 H 640.918 -0.670947 -0.314501 0
M  V30 6480 H 643.565 -1.91104 -0.123108 0
M  V30 6481 H 641.87 -3.03831 -2.47374 0
M  V30 6482 H 643.567 -3.33802 -2.2221 0
M  V30 6483 H 640.157 -4.15662 -1.04513 0
M  V30 6484 H 644.341 -4.94186 -0.457585 0
M  V30 6485 H 639.597 -6.10419 0.346292 0
M  V30 6486 H 643.771 -6.90188 0.928105 0
M  V30 6487 H 641.398 -7.48367 1.33607 0
M  V30 6488 N 642.974 0.416227 -1.52004 0
M  V30 6489 C 643.922 1.5272 -1.7544 0
M  V30 6490 C 644.916 1.57596 -0.621289 0
M  V30 6491 O 646.122 1.61087 -0.803172 0
M  V30 6492 H 642.497 0.507772 -0.554682 0
M  V30 6493 H 644.468 1.30136 -2.68528 0
M  V30 6494 C 643.217 2.90165 -1.91571 0
M  V30 6495 H 642.54 2.87154 -2.78178 0
M  V30 6496 H 643.98 3.67211 -2.11972 0
M  V30 6497 C 642.439 3.29947 -0.680942 0
M  V30 6498 O 642.969 4.01403 0.154527 0
M  V30 6499 N 641.175 2.8593 -0.518894 0
M  V30 6500 H 640.722 2.2795 -1.19986 0
M  V30 6501 H 640.68 3.12907 0.305985 0
M  V30 6502 N 644.452 1.42507 0.673017 0
M  V30 6503 C 645.677 1.4668 1.46627 0
M  V30 6504 C 646.102 0.080066 1.8793 0
M  V30 6505 O 645.46 -0.921879 1.56112 0
M  V30 6506 C 645.508 2.40091 2.69051 0
M  V30 6507 O 644.612 1.8735 3.67387 0
M  V30 6508 H 643.953 0.496908 0.44043 0
M  V30 6509 H 646.483 1.87215 0.825334 0
M  V30 6510 H 646.493 2.56731 3.17101 0
M  V30 6511 H 645.168 3.4084 2.3833 0
M  V30 6512 H 643.745 1.80274 3.26429 0
M  V30 6513 N 645.93 -0.909495 1.28709 0
M  V30 6514 C 647.178 -1.65577 1.15882 0
M  V30 6515 C 647.499 -1.928 -0.292108 0
M  V30 6516 O 646.769 -1.54716 -1.20166 0
M  V30 6517 H 645.349 -0.613714 0.425869 0
M  V30 6518 H 648.011 -1.09108 1.61498 0
M  V30 6519 H 647.107 -2.61634 1.70159 0
M  V30 6520 N 647.408 -1.11026 -1.11852 0
M  V30 6521 C 648.636 -0.878818 -1.87308 0
M  V30 6522 C 649.051 0.57111 -1.79955 0
M  V30 6523 O 648.408 1.39409 -1.17777 0
M  V30 6524 C 648.459 -1.3264 -3.36287 0
M  V30 6525 O 648.18 -2.71948 -3.43476 0
M  V30 6526 C 649.681 -1.12974 -4.28663 0
M  V30 6527 H 646.901 -0.315015 -0.592458 0
M  V30 6528 H 649.445 -1.47649 -1.41492 0
M  V30 6529 H 647.6 -0.772269 -3.79625 0
M  V30 6530 H 648.014 -2.91241 -4.3621 0
M  V30 6531 H 649.488 -1.49198 -5.31454 0
M  V30 6532 H 649.965 -0.0689127 -4.39146 0
M  V30 6533 H 650.571 -1.67064 -3.91113 0
M  V30 6534 N 648.886 1.2938 -0.899927 0
M  V30 6535 C 650.134 1.95164 -0.524924 0
M  V30 6536 C 650.455 1.71292 0.931888 0
M  V30 6537 O 649.725 1.04481 1.65712 0
M  V30 6538 H 648.305 0.722133 -0.191135 0
M  V30 6539 H 650.967 1.57628 -1.14627 0
M  V30 6540 H 650.063 3.0397 -0.707711 0
M  V30 6541 N 650.364 0.662433 1.43002 0
M  V30 6542 C 651.311 -0.0235324 2.30788 0
M  V30 6543 C 652.281 -0.805342 1.4527 0
M  V30 6544 O 653.466 -0.78009 1.74124 0
M  V30 6545 C 650.606 -0.977545 3.30965 0
M  V30 6546 C 649.719 -0.190865 4.31578 0
M  V30 6547 C 648.854 -1.13951 5.18834 0
M  V30 6548 C 647.893 -0.343796 6.11134 0
M  V30 6549 N 647.03 -1.2445 6.90982 0
M  V30 6550 H 651.87 0.730921 2.88897 0
M  V30 6551 H 649.407 0.372197 1.42313 0
M  V30 6552 H 651.365 -1.54437 3.87563 0
M  V30 6553 H 649.995 -1.69877 2.74484 0
M  V30 6554 H 649.047 0.492388 3.772 0
M  V30 6555 H 650.359 0.427464 4.96965 0
M  V30 6556 H 649.513 -1.77666 5.80103 0
M  V30 6557 H 648.252 -1.79174 4.53595 0
M  V30 6558 H 647.257 0.30665 5.48944 0
M  V30 6559 H 648.482 0.304161 6.78419 0
M  V30 6560 H 646.428 -1.88336 6.28383 0
M  V30 6561 H 646.345 -0.680959 7.52927 0
M  V30 6562 H 647.613 -1.86952 7.56749 0
M  V30 6563 N 651.842 -1.52309 0.404946 0
M  V30 6564 C 653.088 -2.02065 -0.172455 0
M  V30 6565 C 653.421 -1.29022 -1.45145 0
M  V30 6566 O 652.696 -0.395284 -1.90441 0
M  V30 6567 C 652.979 -3.5759 -0.424433 0
M  V30 6568 C 652.832 -4.41287 0.870945 0
M  V30 6569 C 654.151 -4.23186 -1.20837 0
M  V30 6570 H 651.27 -0.734454 -0.0612035 0
M  V30 6571 H 653.912 -1.82236 0.53759 0
M  V30 6572 H 652.062 -3.74617 -1.02929 0
M  V30 6573 H 653.734 -4.3598 1.50729 0
M  V30 6574 H 651.977 -4.07669 1.48284 0
M  V30 6575 H 652.648 -5.48171 0.649083 0
M  V30 6576 H 655.124 -4.10232 -0.696338 0
M  V30 6577 H 654 -5.31953 -1.35343 0
M  V30 6578 H 654.261 -3.81862 -2.22786 0
M  V30 6579 N 653.32 -0.135238 -1.57019 0
M  V30 6580 C 654.597 0.563227 -1.87316 0
M  V30 6581 C 654.977 1.83749 -1.03921 0
M  V30 6582 O 654.325 2.2817 -0.122675 0
M  V30 6583 C 654.535 0.840031 -3.3874 0
M  V30 6584 C 655.883 1.18598 -4.077 0
M  V30 6585 O 656.907 0.92977 -3.43851 0
M  V30 6586 O 655.766 1.66758 -5.20436 0
M  V30 6587 H 652.86 0.285971 -0.775983 0
M  V30 6588 H 655.406 -0.170965 -1.68837 0
M  V30 6589 H 654.178 -0.0622785 -3.9125 0
M  V30 6590 H 653.801 1.62882 -3.62706 0
M  V30 6591 N 654.798 1.5699 0.138552 0
M  V30 6592 C 655.728 2.01933 1.17241 0
M  V30 6593 C 656.709 0.90033 1.44319 0
M  V30 6594 O 657.894 1.16872 1.55095 0
M  V30 6595 C 655.024 2.40711 2.50351 0
M  V30 6596 C 653.978 3.55874 2.37776 0
M  V30 6597 C 653.304 3.80491 3.75674 0
M  V30 6598 C 654.604 4.8826 1.85472 0
M  V30 6599 H 656.298 2.88551 0.798672 0
M  V30 6600 H 653.844 1.3882 0.382743 0
M  V30 6601 H 655.797 2.70754 3.22909 0
M  V30 6602 H 654.521 1.5104 2.89576 0
M  V30 6603 H 653.18 3.2601 1.67669 0
M  V30 6604 H 652.828 2.88057 4.12349 0
M  V30 6605 H 652.528 4.57998 3.68119 0
M  V30 6606 H 654.052 4.12967 4.49767 0
M  V30 6607 H 655.466 5.16965 2.4783 0
M  V30 6608 H 653.863 5.69631 1.88787 0
M  V30 6609 H 654.933 4.78071 0.810935 0
M  V30 6610 N 656.276 -0.40816 1.52223 0
M  V30 6611 C 657.504 -1.17672 1.70179 0
M  V30 6612 C 657.919 -1.84257 0.411696 0
M  V30 6613 O 657.276 -1.7192 -0.612354 0
M  V30 6614 C 657.327 -2.23911 2.83806 0
M  V30 6615 O 657.048 -1.60044 4.0782 0
M  V30 6616 C 658.549 -3.1364 3.13281 0
M  V30 6617 H 655.769 -0.353562 0.570293 0
M  V30 6618 H 658.313 -0.480083 1.98785 0
M  V30 6619 H 656.468 -2.89242 2.57717 0
M  V30 6620 H 656.882 -2.30484 4.71145 0
M  V30 6621 H 658.356 -3.84255 3.96298 0
M  V30 6622 H 658.833 -3.76066 2.26872 0
M  V30 6623 H 659.439 -2.53977 3.41139 0
M  V30 6624 N 657.755 -1.42862 -0.66545 0
M  V30 6625 C 659.001 -1.4504 -1.426 0
M  V30 6626 C 659.356 -0.0690217 -1.92276 0
M  V30 6627 O 658.649 0.91036 -1.68591 0
M  V30 6628 C 658.843 -2.4175 -2.63233 0
M  V30 6629 C 658.672 -3.89155 -2.25362 0
M  V30 6630 C 657.442 -4.57619 -2.14273 0
M  V30 6631 C 659.64 -4.79326 -1.86417 0
M  V30 6632 N 657.622 -5.90006 -1.69604 0
M  V30 6633 C 658.993 -6.00892 -1.52738 0
M  V30 6634 C 661.048 -4.66696 -1.73492 0
M  V30 6635 C 659.751 -7.11232 -1.0743 0
M  V30 6636 C 661.777 -5.77027 -1.29589 0
M  V30 6637 C 661.139 -6.97712 -0.968393 0
M  V30 6638 H 657.238 -0.585889 -0.517936 0
M  V30 6639 H 659.822 -1.78956 -0.767002 0
M  V30 6640 H 657.993 -2.09881 -3.26809 0
M  V30 6641 H 659.725 -2.34447 -3.29874 0
M  V30 6642 H 656.48 -4.11957 -2.33641 0
M  V30 6643 H 656.904 -6.60249 -1.49666 0
M  V30 6644 H 661.546 -3.7386 -1.97455 0
M  V30 6645 H 659.264 -8.03907 -0.822147 0
M  V30 6646 H 662.85 -5.6927 -1.20095 0
M  V30 6647 H 661.73 -7.81634 -0.63384 0
M  V30 6648 N 659.233 0.902656 -1.29189 0
M  V30 6649 C 660.196 1.98797 -1.14071 0
M  V30 6650 C 661.196 1.60615 -0.0770549 0
M  V30 6651 O 662.386 1.71165 -0.323753 0
M  V30 6652 C 659.518 3.32688 -0.743739 0
M  V30 6653 H 660.711 2.13637 -2.10473 0
M  V30 6654 H 658.264 1.08678 -1.12334 0
M  V30 6655 H 658.999 3.23549 0.220554 0
M  V30 6656 H 658.784 3.61765 -1.51223 0
M  V30 6657 H 660.274 4.12337 -0.660935 0
M  V30 6658 N 660.711 1.11618 1.11262 0
M  V30 6659 C 661.643 0.734015 2.17129 0
M  V30 6660 C 662.656 -0.235243 1.61091 0
M  V30 6661 O 663.845 -0.0178597 1.78491 0
M  V30 6662 C 660.945 0.0643682 3.38839 0
M  V30 6663 C 660.118 1.06092 4.24339 0
M  V30 6664 C 659.177 0.420482 5.24517 0
M  V30 6665 O 658.203 1.07495 5.58957 0
M  V30 6666 N 659.405 -0.815828 5.74739 0
M  V30 6667 H 662.17 1.64492 2.50524 0
M  V30 6668 H 659.731 1.00664 1.26801 0
M  V30 6669 H 661.723 -0.375851 4.02951 0
M  V30 6670 H 660.293 -0.749147 3.03491 0
M  V30 6671 H 659.513 1.67903 3.56654 0
M  V30 6672 H 660.801 1.73507 4.78302 0
M  V30 6673 H 660.199 -1.36668 5.48943 0
M  V30 6674 H 658.756 -1.199 6.40677 0
M  V30 6675 N 662.189 -1.289 0.906776 0
M  V30 6676 C 663.414 -1.99939 0.551303 0
M  V30 6677 C 663.839 -1.67366 -0.858496 0
M  V30 6678 O 663.197 -0.902176 -1.57259 0
M  V30 6679 C 663.245 -3.52523 0.758937 0
M  V30 6680 O 662.349 -4.11983 -0.185308 0
M  V30 6681 H 661.69 -0.628376 0.214568 0
M  V30 6682 H 664.22 -1.64225 1.2203 0
M  V30 6683 H 664.23 -4.02522 0.666329 0
M  V30 6684 H 662.905 -3.75566 1.78671 0
M  V30 6685 H 661.482 -3.72873 -0.0445577 0
M  V30 6686 N 663.667 -0.670007 -1.42649 0
M  V30 6687 C 664.599 0.0501746 -2.29145 0
M  V30 6688 C 665.612 0.770331 -1.43422 0
M  V30 6689 O 666.801 0.625288 -1.6719 0
M  V30 6690 C 663.901 1.09463 -3.20735 0
M  V30 6691 C 663.074 0.44926 -4.35087 0
M  V30 6692 C 662.133 1.39285 -5.07431 0
M  V30 6693 O 661.159 0.894997 -5.6212 0
M  V30 6694 N 662.361 2.72631 -5.12496 0
M  V30 6695 H 665.126 -0.692312 -2.91594 0
M  V30 6696 H 662.687 -0.514056 -1.53522 0
M  V30 6697 H 664.679 1.72705 -3.65999 0
M  V30 6698 H 663.249 1.73891 -2.59771 0
M  V30 6699 H 662.469 -0.362573 -3.92529 0
M  V30 6700 H 663.757 -0.000544776 -5.088 0
M  V30 6701 H 663.155 3.15623 -4.69467 0
M  V30 6702 H 661.712 3.31132 -5.61422 0
M  V30 6703 N 665.145 1.52092 -0.413018 0
M  V30 6704 C 666.093 2.28681 0.425199 0
M  V30 6705 C 667.087 1.3353 1.04241 0
M  V30 6706 O 668.293 1.50973 0.980166 0
M  V30 6707 H 664.668 0.735661 0.155906 0
M  V30 6708 H 666.639 2.97418 -0.241926 0
M  V30 6709 C 665.388 3.1235 1.5275 0
M  V30 6710 H 664.711 3.85439 1.06191 0
M  V30 6711 H 666.151 3.69038 2.08774 0
M  V30 6712 C 664.61 2.26161 2.49706 0
M  V30 6713 O 665.14 1.90452 3.53682 0
M  V30 6714 N 663.346 1.89854 2.20008 0
M  V30 6715 H 662.893 2.19092 1.35486 0
M  V30 6716 H 662.851 1.3248 2.85125 0
M  V30 6717 N 666.623 0.143563 1.56945 0
M  V30 6718 C 667.555 -0.828353 2.13708 0
M  V30 6719 C 668.568 -1.21313 1.08568 0
M  V30 6720 O 669.757 -1.1578 1.35857 0
M  V30 6721 C 666.857 -2.12248 2.64204 0
M  V30 6722 C 666.03 -1.90561 3.93707 0
M  V30 6723 C 665.089 -3.03931 4.29549 0
M  V30 6724 O 664.115 -2.75772 4.97934 0
M  V30 6725 N 665.317 -4.31016 3.88852 0
M  V30 6726 H 668.082 -0.343242 2.97728 0
M  V30 6727 H 665.643 -0.0401152 1.6185 0
M  V30 6728 H 667.635 -2.87132 2.85197 0
M  V30 6729 H 666.205 -2.52033 1.84928 0
M  V30 6730 H 665.425 -0.997327 3.81375 0
M  V30 6731 H 666.713 -1.73405 4.78339 0
M  V30 6732 H 666.111 -4.56762 3.33743 0
M  V30 6733 H 664.668 -5.02691 4.14903 0
M  V30 6734 N 668.101 -1.57061 -0.130224 0
M  V30 6735 C 669.048 -1.99517 -1.16024 0
M  V30 6736 C 670.018 -0.865452 -1.41771 0
M  V30 6737 O 671.203 -1.12882 -1.53826 0
M  V30 6738 C 668.343 -2.3951 -2.48453 0
M  V30 6739 C 667.456 -3.65848 -2.29737 0
M  V30 6740 C 666.591 -3.9487 -3.55318 0
M  V30 6741 C 665.63 -5.14426 -3.31711 0
M  V30 6742 N 664.767 -5.39375 -4.49466 0
M  V30 6743 H 669.607 -2.87305 -0.791194 0
M  V30 6744 H 667.144 -1.42129 -0.379195 0
M  V30 6745 H 669.102 -2.60731 -3.25692 0
M  V30 6746 H 667.732 -1.54779 -2.83272 0
M  V30 6747 H 666.784 -3.52307 -1.4347 0
M  V30 6748 H 668.096 -4.53241 -2.08263 0
M  V30 6749 H 667.25 -4.16679 -4.4098 0
M  V30 6750 H 665.989 -3.05931 -3.79813 0
M  V30 6751 H 664.994 -4.92473 -2.44439 0
M  V30 6752 H 666.219 -6.04933 -3.08598 0
M  V30 6753 H 664.165 -4.53391 -4.74102 0
M  V30 6754 H 664.082 -6.21069 -4.31055 0
M  V30 6755 H 665.35 -5.65694 -5.36293 0
M  V30 6756 N 669.579 0.400081 -1.52437 0
M  V30 6757 C 670.827 1.14392 -1.6661 0
M  V30 6758 C 671.148 1.90792 -0.402927 0
M  V30 6759 O 670.418 1.87042 0.582425 0
M  V30 6760 H 668.998 0.425275 -0.614125 0
M  V30 6761 H 671.66 0.455076 -1.89513 0
M  V30 6762 H 670.756 1.85298 -2.51139 0
M  V30 6763 N 671.057 1.43213 0.657864 0
M  V30 6764 C 672.306 1.43871 1.41365 0
M  V30 6765 C 672.619 0.064898 1.95492 0
M  V30 6766 O 673.825 -0.0510796 2.71452 0
M  V30 6767 C 672.281 2.53158 2.55811 0
M  V30 6768 C 671.889 3.96624 2.08311 0
M  V30 6769 C 673.633 2.63004 3.3321 0
M  V30 6770 C 671.54 4.97385 3.1994 0
M  V30 6771 H 670.47 0.535174 0.531136 0
M  V30 6772 H 673.121 1.69185 0.710543 0
M  V30 6773 H 671.503 2.21037 3.2857 0
M  V30 6774 H 672.677 4.38182 1.42593 0
M  V30 6775 H 670.992 3.90781 1.43804 0
M  V30 6776 H 673.589 3.3546 4.16378 0
M  V30 6777 H 673.932 1.67918 3.80932 0
M  V30 6778 H 674.465 2.94403 2.67529 0
M  V30 6779 H 671.204 5.94007 2.77192 0
M  V30 6780 H 670.724 4.60444 3.84385 0
M  V30 6781 H 672.403 5.19877 3.85145 0
M  V30 6782 N 672.536 -0.895792 1.29666 0
M  V30 6783 C 673.813 -1.62723 1.08538 0
M  V30 6784 C 674.193 -2.07848 -0.369119 0
M  V30 6785 O 673.541 -1.8372 -1.35864 0
M  V30 6786 C 673.751 -2.80505 2.07648 0
M  V30 6787 C 675.099 -3.51098 2.3878 0
M  V30 6788 O 676.123 -2.90679 2.05874 0
M  V30 6789 O 674.982 -4.60028 2.9502 0
M  V30 6790 H 672.076 -0.714692 0.416106 0
M  V30 6791 H 674.622 -0.943517 1.41053 0
M  V30 6792 H 673.394 -2.44386 3.05599 0
M  V30 6793 H 673.017 -3.5658 1.75887 0
M  V30 6794 N 674.014 -1.12206 -1.10668 0
M  V30 6795 C 674.947 -0.731468 -2.16159 0
M  V30 6796 C 675.925 0.276216 -1.60237 0
M  V30 6797 O 677.109 0.17074 -1.87725 0
M  V30 6798 C 674.236 -0.0822882 -3.386 0
M  V30 6799 C 673.282 -1.05641 -4.1321 0
M  V30 6800 S 674.115 -2.58281 -4.69096 0
M  V30 6801 C 675.271 -1.94686 -5.94851 0
M  V30 6802 H 675.504 -1.62504 -2.48957 0
M  V30 6803 H 673.037 -0.940906 -1.22419 0
M  V30 6804 H 674.995 0.285896 -4.09503 0
M  V30 6805 H 673.656 0.788358 -3.04046 0
M  V30 6806 H 672.849 -0.549764 -5.00993 0
M  V30 6807 H 672.451 -1.36741 -3.48106 0
M  V30 6808 H 674.743 -1.28815 -6.65141 0
M  V30 6809 H 675.686 -2.80499 -6.50174 0
M  V30 6810 H 676.094 -1.40369 -5.46769 0
M  V30 6811 N 675.492 1.28418 -0.913599 0
M  V30 6812 C 676.455 2.25564 -0.406624 0
M  V30 6813 C 677.455 1.5387 0.466965 0
M  V30 6814 O 678.645 1.72094 0.270042 0
M  V30 6815 C 675.777 3.38339 0.417053 0
M  V30 6816 H 676.97 2.71926 -1.26477 0
M  V30 6817 H 674.523 1.40098 -0.692986 0
M  V30 6818 H 675.258 2.97339 1.29461 0
M  V30 6819 H 675.043 3.91542 -0.209102 0
M  V30 6820 H 676.533 4.10578 0.762602 0
M  V30 6821 N 676.97 0.677563 1.42291 0
M  V30 6822 C 677.917 0.000947061 2.308 0
M  V30 6823 C 678.887 -0.789889 1.46116 0
M  V30 6824 O 680.072 -0.761578 1.74942 0
M  V30 6825 C 677.212 -0.942387 3.31984 0
M  V30 6826 C 676.325 -0.14508 4.31756 0
M  V30 6827 C 675.46 -1.08442 5.20013 0
M  V30 6828 C 674.499 -0.278958 6.11464 0
M  V30 6829 N 673.636 -1.17115 6.92263 0
M  V30 6830 H 678.476 0.761521 2.88106 0
M  V30 6831 H 676.013 0.38727 1.41911 0
M  V30 6832 H 677.971 -1.50317 3.89179 0
M  V30 6833 H 676.601 -1.66956 2.76271 0
M  V30 6834 H 675.653 0.532368 3.76656 0
M  V30 6835 H 676.965 0.48015 4.96484 0
M  V30 6836 H 676.119 -1.71504 5.81955 0
M  V30 6837 H 674.858 -1.74353 4.55469 0
M  V30 6838 H 673.863 0.364856 5.48588 0
M  V30 6839 H 675.088 0.376099 6.78058 0
M  V30 6840 H 673.034 -1.81661 6.30345 0
M  V30 6841 H 672.951 -0.601063 7.53607 0
M  V30 6842 H 674.219 -1.78915 7.58689 0
M  V30 6843 N 678.448 -1.51871 0.421078 0
M  V30 6844 C 679.395 -2.27334 -0.398508 0
M  V30 6845 C 680.365 -1.30241 -1.03085 0
M  V30 6846 O 681.55 -1.59121 -1.05285 0
M  V30 6847 C 678.69 -3.10664 -1.50272 0
M  V30 6848 C 677.803 -4.2273 -0.890122 0
M  V30 6849 C 676.938 -4.93399 -1.96803 0
M  V30 6850 C 675.977 -5.97409 -1.333 0
M  V30 6851 N 675.114 -6.61548 -2.35156 0
M  V30 6852 H 679.954 -2.96938 0.251411 0
M  V30 6853 H 677.491 -1.46472 0.135825 0
M  V30 6854 H 679.449 -3.57292 -2.15403 0
M  V30 6855 H 678.079 -2.43207 -2.1225 0
M  V30 6856 H 677.131 -3.80186 -0.127537 0
M  V30 6857 H 678.443 -4.97302 -0.386349 0
M  V30 6858 H 677.597 -5.43491 -2.69633 0
M  V30 6859 H 676.336 -4.18421 -2.50549 0
M  V30 6860 H 675.341 -5.46624 -0.59008 0
M  V30 6861 H 676.566 -6.74335 -0.803076 0
M  V30 6862 H 674.512 -5.89394 -2.88012 0
M  V30 6863 H 674.429 -7.31832 -1.89624 0
M  V30 6864 H 675.697 -7.16276 -3.0752 0
M  V30 6865 N 679.926 -0.151884 -1.56866 0
M  V30 6866 C 681.172 0.498742 -1.96572 0
M  V30 6867 C 681.505 1.64194 -1.03702 0
M  V30 6868 O 680.78 1.94334 -0.0803432 0
M  V30 6869 C 681.063 1.00027 -3.45929 0
M  V30 6870 C 680.916 -0.141767 -4.49577 0
M  V30 6871 C 682.235 1.88044 -3.97904 0
M  V30 6872 H 679.354 0.17982 -0.714726 0
M  V30 6873 H 681.996 -0.234097 -1.88552 0
M  V30 6874 H 680.146 1.62476 -3.52894 0
M  V30 6875 H 681.818 -0.778269 -4.54687 0
M  V30 6876 H 680.061 -0.80019 -4.26356 0
M  V30 6877 H 680.732 0.250947 -5.51429 0
M  V30 6878 H 683.208 1.35416 -3.93449 0
M  V30 6879 H 682.084 2.20043 -5.02864 0
M  V30 6880 H 682.345 2.81916 -3.40552 0
M  V30 6881 N 681.404 1.57128 0.121893 0
M  V30 6882 C 682.651 1.847 0.830188 0
M  V30 6883 C 682.979 0.736543 1.80015 0
M  V30 6884 O 682.234 -0.272358 1.93796 0
M  V30 6885 C 682.533 3.1874 1.61677 0
M  V30 6886 C 682.199 4.43901 0.791361 0
M  V30 6887 C 680.861 4.77887 0.563731 0
M  V30 6888 C 683.213 5.20753 0.215823 0
M  V30 6889 C 680.541 5.86168 -0.249737 0
M  V30 6890 C 682.893 6.29891 -0.584821 0
M  V30 6891 C 681.557 6.6241 -0.822794 0
M  V30 6892 H 680.827 0.675866 0.303787 0
M  V30 6893 H 683.474 1.91276 0.0926894 0
M  V30 6894 H 681.779 3.07728 2.42509 0
M  V30 6895 H 683.476 3.37295 2.16872 0
M  V30 6896 H 680.066 4.17272 0.978867 0
M  V30 6897 H 684.25 4.94851 0.378907 0
M  V30 6898 H 679.506 6.0979 -0.44336 0
M  V30 6899 H 683.68 6.88624 -1.03779 0
M  V30 6900 H 681.307 7.46147 -1.45496 0
M  V30 6901 N 682.882 -0.391992 1.52647 0
M  V30 6902 C 684.159 -1.15136 1.58123 0
M  V30 6903 C 684.539 -2.07786 0.372597 0
M  V30 6904 O 683.887 -2.19374 -0.639304 0
M  V30 6905 C 684.097 -1.91367 2.91856 0
M  V30 6906 C 685.445 -2.46833 3.45483 0
M  V30 6907 O 686.469 -2.01527 2.9371 0
M  V30 6908 O 685.328 -3.29587 4.3593 0
M  V30 6909 H 682.422 -0.526649 0.637629 0
M  V30 6910 H 684.968 -0.397386 1.64982 0
M  V30 6911 H 683.74 -1.23597 3.71268 0
M  V30 6912 H 683.363 -2.73732 2.88369 0
M  V30 6913 N 684.36 -1.4356 -0.65026 0
M  V30 6914 C 685.307 -1.48948 -1.76304 0
M  V30 6915 C 686.277 -0.338919 -1.62605 0
M  V30 6916 O 687.462 -0.54649 -1.82806 0
M  V30 6917 C 684.602 -1.42131 -3.14472 0
M  V30 6918 C 683.715 -2.67415 -3.39284 0
M  V30 6919 C 682.85 -2.52565 -4.67316 0
M  V30 6920 C 681.889 -3.73103 -4.85243 0
M  V30 6921 N 681.026 -3.57046 -6.04535 0
M  V30 6922 H 685.866 -2.44032 -1.71034 0
M  V30 6923 H 683.403 -1.21131 -0.834601 0
M  V30 6924 H 685.361 -1.36172 -3.94351 0
M  V30 6925 H 683.991 -0.506273 -3.18805 0
M  V30 6926 H 683.043 -2.8364 -2.53481 0
M  V30 6927 H 684.355 -3.56943 -3.48415 0
M  V30 6928 H 683.509 -2.44331 -5.55326 0
M  V30 6929 H 682.248 -1.60566 -4.60511 0
M  V30 6930 H 681.253 -3.81743 -3.95667 0
M  V30 6931 H 682.478 -4.66115 -4.93876 0
M  V30 6932 H 680.424 -2.67783 -5.98856 0
M  V30 6933 H 680.341 -4.40178 -6.14638 0
M  V30 6934 H 681.609 -3.52669 -6.95158 0
M  V30 6935 N 685.838 0.888903 -1.30139 0
M  V30 6936 C 687.087 1.63507 -1.18103 0
M  V30 6937 C 687.4 1.93808 0.264141 0
M  V30 6938 O 688.606 2.66744 0.505966 0
M  V30 6939 C 687.062 2.94673 -2.0663 0
M  V30 6940 C 686.67 2.71926 -3.56034 0
M  V30 6941 C 688.414 3.72626 -2.03346 0
M  V30 6942 C 686.321 3.98884 -4.3663 0
M  V30 6943 H 685.251 0.613426 -0.438435 0
M  V30 6944 H 687.902 0.984427 -1.54859 0
M  V30 6945 H 686.284 3.61009 -1.62754 0
M  V30 6946 H 687.458 2.14116 -4.08033 0
M  V30 6947 H 685.773 2.07353 -3.61101 0
M  V30 6948 H 688.37 4.66775 -2.60816 0
M  V30 6949 H 688.713 4.03712 -1.016 0
M  V30 6950 H 689.246 3.13147 -2.45324 0
M  V30 6951 H 685.985 3.72959 -5.39056 0
M  V30 6952 H 685.505 4.56214 -3.89396 0
M  V30 6953 H 687.184 4.66938 -4.47859 0
M  V30 6954 N 687.317 1.12792 1.10072 0
M  V30 6955 C 688.265 0.794523 2.18609 0
M  V30 6956 C 689.259 -0.220271 1.67962 0
M  V30 6957 O 690.465 -0.0780938 1.79831 0
M  V30 6958 H 686.84 0.239123 0.712969 0
M  V30 6959 H 688.811 1.71823 2.43966 0
M  V30 6960 C 687.56 0.269548 3.46654 0
M  V30 6961 H 686.883 1.04171 3.8599 0
M  V30 6962 H 688.323 0.0746242 4.23934 0
M  V30 6963 C 686.782 -1.00333 3.21613 0
M  V30 6964 O 687.312 -2.08042 3.4363 0
M  V30 6965 N 685.518 -0.931763 2.75257 0
M  V30 6966 H 685.065 -0.0551197 2.57541 0
M  V30 6967 H 685.023 -1.78405 2.58881 0
M  V30 6968 N 688.795 -1.27931 0.920396 0
M  V30 6969 C 689.727 -2.26175 0.371169 0
M  V30 6970 C 690.74 -1.55122 -0.494065 0
M  V30 6971 O 691.929 -1.75825 -0.30787 0
M  V30 6972 C 689.029 -3.35376 -0.487481 0
M  V30 6973 C 688.202 -4.35943 0.356772 0
M  V30 6974 C 687.261 -5.24374 -0.438042 0
M  V30 6975 O 686.287 -5.68998 0.151715 0
M  V30 6976 N 687.489 -5.53823 -1.73956 0
M  V30 6977 H 690.254 -2.73938 1.21564 0
M  V30 6978 H 687.815 -1.41482 0.787047 0
M  V30 6979 H 689.807 -3.91476 -1.02609 0
M  V30 6980 H 688.377 -2.87269 -1.23269 0
M  V30 6981 H 687.597 -3.7921 1.07672 0
M  V30 6982 H 688.885 -5.0015 0.934206 0
M  V30 6983 H 688.283 -5.19413 -2.24114 0
M  V30 6984 H 686.84 -6.12653 -2.22486 0
M  V30 6985 N 690.273 -0.685099 -1.4193 0
M  V30 6986 C 691.22 -0.0131869 -2.30796 0
M  V30 6987 C 692.19 0.782129 -1.46533 0
M  V30 6988 O 693.375 0.75229 -1.75343 0
M  V30 6989 C 690.515 0.924768 -3.32479 0
M  V30 6990 C 689.628 0.122181 -4.31827 0
M  V30 6991 C 688.763 1.05682 -5.20581 0
M  V30 6992 C 687.802 0.246526 -6.11603 0
M  V30 6993 N 686.939 1.13442 -6.92875 0
M  V30 6994 H 691.779 -0.776789 -2.87698 0
M  V30 6995 H 689.316 -0.394791 -1.41703 0
M  V30 6996 H 691.274 1.48251 -3.89971 0
M  V30 6997 H 689.904 1.65488 -2.77152 0
M  V30 6998 H 688.956 -0.552335 -3.76369 0
M  V30 6999 H 690.268 -0.506473 -4.96222 0
M  V30 7000 H 689.422 1.68415 -5.82856 0
M  V30 7001 H 688.161 1.71935 -4.56388 0
M  V30 7002 H 687.166 -0.393944 -5.48387 0
M  V30 7003 H 688.391 -0.412053 -6.77849 0
M  V30 7004 H 686.337 1.78316 -6.313 0
M  V30 7005 H 686.254 0.561089 -7.53915 0
M  V30 7006 H 687.522 1.74889 -7.59628 0
M  V30 7007 N 691.751 1.51645 -0.429126 0
M  V30 7008 C 692.661 2.31288 0.392809 0
M  V30 7009 C 693.677 1.39852 1.03525 0
M  V30 7010 O 694.853 1.72926 1.03241 0
M  V30 7011 C 691.918 3.13347 1.48372 0
M  V30 7012 C 690.979 4.20551 0.862268 0
M  V30 7013 C 690.212 4.98688 1.9012 0
M  V30 7014 O 690.435 4.77359 3.12225 0
M  V30 7015 O 689.369 5.83005 1.4963 0
M  V30 7016 H 693.195 3.02609 -0.257138 0
M  V30 7017 H 690.78 1.48163 -0.191851 0
M  V30 7018 H 692.662 3.64387 2.1166 0
M  V30 7019 H 691.337 2.44799 2.1179 0
M  V30 7020 H 690.244 3.73609 0.191568 0
M  V30 7021 H 691.577 4.91449 0.271704 0
M  V30 7022 N 693.229 0.160201 1.56784 0
M  V30 7023 C 694.477 -0.486625 1.96154 0
M  V30 7024 C 694.798 -1.64525 1.04673 0
M  V30 7025 O 694.068 -1.95586 0.110864 0
M  V30 7026 H 692.648 -0.182764 0.724297 0
M  V30 7027 H 695.31 0.238787 1.93432 0
M  V30 7028 H 694.406 -0.854025 3.00188 0
M  V30 7029 N 694.707 -1.5719 -0.113559 0
M  V30 7030 C 695.935 -1.89328 -0.834422 0
M  V30 7031 C 696.35 -0.752018 -1.73177 0
M  V30 7032 O 695.707 0.276912 -1.80387 0
M  V30 7033 C 695.758 -3.20962 -1.66329 0
M  V30 7034 O 695.479 -4.30695 -0.802069 0
M  V30 7035 C 696.98 -3.6684 -2.48884 0
M  V30 7036 H 694.2 -0.626769 -0.239587 0
M  V30 7037 H 696.744 -2.04273 -0.0963195 0
M  V30 7038 H 694.899 -3.0767 -2.35409 0
M  V30 7039 H 695.313 -5.06175 -1.37431 0
M  V30 7040 H 696.787 -4.61692 -3.02563 0
M  V30 7041 H 697.264 -2.93765 -3.26495 0
M  V30 7042 H 697.87 -3.82938 -1.85036 0
M  V30 7043 N 696.185 0.383891 -1.52853 0
M  V30 7044 C 697.434 1.12563 -1.67369 0
M  V30 7045 C 697.747 1.90982 -0.422533 0
M  V30 7046 O 698.953 2.6778 -0.447914 0
M  V30 7047 C 697.409 2.05011 -2.95801 0
M  V30 7048 C 697.017 1.31991 -4.28115 0
M  V30 7049 C 698.761 2.79289 -3.19684 0
M  V30 7050 C 696.668 2.23235 -5.4765 0
M  V30 7051 H 695.598 0.42391 -0.623552 0
M  V30 7052 H 698.249 0.388016 -1.79351 0
M  V30 7053 H 696.631 2.82429 -2.77578 0
M  V30 7054 H 697.805 0.597633 -4.56908 0
M  V30 7055 H 696.12 0.696517 -4.10533 0
M  V30 7056 H 698.717 3.47749 -4.06171 0
M  V30 7057 H 699.06 3.43649 -2.3497 0
M  V30 7058 H 699.593 2.08962 -3.38496 0
M  V30 7059 H 696.332 1.63482 -6.34786 0
M  V30 7060 H 695.852 2.93364 -5.23161 0
M  V30 7061 H 697.531 2.83205 -5.81725 0
M  V30 7062 N 697.663 1.43903 0.642637 0
M  V30 7063 C 698.893 1.49323 1.4278 0
M  V30 7064 C 699.301 0.113058 1.88862 0
M  V30 7065 O 698.644 -0.889089 1.60751 0
M  V30 7066 C 698.706 2.3861 2.68897 0
M  V30 7067 C 698.37 3.85976 2.44687 0
M  V30 7068 C 699.367 4.7681 2.07239 0
M  V30 7069 C 697.052 4.30567 2.58683 0
M  V30 7070 C 699.046 6.10234 1.841 0
M  V30 7071 C 696.733 5.64042 2.35159 0
M  V30 7072 C 697.731 6.53693 1.97925 0
M  V30 7073 O 697.419 7.84698 1.74654 0
M  V30 7074 H 697.151 0.509109 0.444729 0
M  V30 7075 H 699.705 1.89425 0.794195 0
M  V30 7076 H 697.935 1.93415 3.34855 0
M  V30 7077 H 699.624 2.35112 3.30873 0
M  V30 7078 H 700.39 4.43635 1.95993 0
M  V30 7079 H 696.269 3.61054 2.86637 0
M  V30 7080 H 699.813 6.80171 1.54962 0
M  V30 7081 H 695.71 5.96782 2.46011 0
M  V30 7082 H 696.478 7.96382 1.88993 0
M  V30 7083 N 699.141 -0.881989 1.30609 0
M  V30 7084 C 700.557 -1.16576 1.09005 0
M  V30 7085 C 700.757 -2.00961 -0.14727 0
M  V30 7086 O 699.813 -2.38117 -0.840036 0
M  V30 7087 C 701.126 -1.86954 2.35518 0
M  V30 7088 C 702.674 -1.99706 2.41011 0
M  V30 7089 C 703.149 -2.73497 3.67374 0
M  V30 7090 N 704.64 -2.8104 3.68199 0
M  V30 7091 C 705.375 -3.38718 4.62664 0
M  V30 7092 N 704.871 -3.97421 5.67475 0
M  V30 7093 N 706.664 -3.36561 4.50203 0
M  V30 7094 H 698.815 -0.319398 2.09985 0
M  V30 7095 H 701.078 -0.204058 0.925778 0
M  V30 7096 H 700.784 -1.32393 3.2583 0
M  V30 7097 H 700.658 -2.87317 2.44395 0
M  V30 7098 H 703.045 -2.53436 1.51176 0
M  V30 7099 H 703.126 -0.984218 2.36108 0
M  V30 7100 H 702.77 -2.20438 4.57569 0
M  V30 7101 H 702.7 -3.75163 3.6954 0
M  V30 7102 H 705.191 -2.39365 2.92426 0
M  V30 7103 H 705.504 -4.39507 6.35652 0
M  V30 7104 H 703.849 -3.95832 5.71264 0
M  V30 7105 H 707.04 -2.8993 3.67503 0
M  V30 7106 H 707.213 -3.81215 5.24003 0
M  V30 7107 N 700.619 -1.13374 -1.09472 0
M  V30 7108 C 701.847 -0.918351 -1.85402 0
M  V30 7109 C 702.262 0.53281 -1.81126 0
M  V30 7110 O 701.619 1.36879 -1.20708 0
M  V30 7111 C 701.67 -1.39743 -3.33398 0
M  V30 7112 O 701.391 -2.79172 -3.37631 0
M  V30 7113 C 702.892 -1.22042 -4.2617 0
M  V30 7114 H 700.112 -0.327511 -0.585643 0
M  V30 7115 H 702.656 -1.50617 -1.38328 0
M  V30 7116 H 700.811 -0.852619 -3.77901 0
M  V30 7117 H 701.225 -3.00428 -4.29934 0
M  V30 7118 H 702.699 -1.60438 -5.2817 0
M  V30 7119 H 703.176 -0.162047 -4.38901 0
M  V30 7120 H 703.782 -1.75323 -3.87482 0
M  V30 7121 N 702.098 1.27442 -0.927168 0
M  V30 7122 C 703.375 1.89473 -0.485742 0
M  V30 7123 C 703.755 1.83922 1.03614 0
M  V30 7124 O 703.103 1.28409 1.89007 0
M  V30 7125 C 703.313 3.33417 -1.03123 0
M  V30 7126 C 704.661 4.10333 -1.0914 0
M  V30 7127 O 705.685 3.4243 -0.98082 0
M  V30 7128 O 704.544 5.31737 -1.26165 0
M  V30 7129 H 701.638 0.812124 -0.156154 0
M  V30 7130 H 704.184 1.35713 -1.01882 0
M  V30 7131 H 702.956 3.31747 -2.07508 0
M  V30 7132 H 702.579 3.94695 -0.479767 0
M  V30 7133 N 703.576 0.692616 1.41565 0
M  V30 7134 C 704.506 0.0397325 2.33466 0
M  V30 7135 C 705.487 -0.770334 1.51657 0
M  V30 7136 O 706.672 -0.723903 1.80203 0
M  V30 7137 C 703.802 -0.899495 3.3545 0
M  V30 7138 C 702.756 -0.196738 4.27548 0
M  V30 7139 C 702.082 -1.25012 5.19881 0
M  V30 7140 C 703.382 0.935158 5.1386 0
M  V30 7141 H 705.076 0.807296 2.88311 0
M  V30 7142 H 702.622 0.389665 1.38628 0
M  V30 7143 H 704.575 -1.36545 3.98665 0
M  V30 7144 H 703.299 -1.69869 2.78948 0
M  V30 7145 H 701.958 0.249158 3.65752 0
M  V30 7146 H 701.606 -2.04177 4.59696 0
M  V30 7147 H 701.306 -0.784931 5.82334 0
M  V30 7148 H 702.83 -1.71665 5.85972 0
M  V30 7149 H 704.244 0.549619 5.70659 0
M  V30 7150 H 702.641 1.32726 5.85238 0
M  V30 7151 H 703.711 1.77613 4.512 0
M  V30 7152 N 705.054 -1.51416 0.437162 0
M  V30 7153 C 706.301 -2.02086 -0.129364 0
M  V30 7154 C 706.629 -1.32133 -1.42728 0
M  V30 7155 O 705.884 -0.424916 -1.91031 0
M  V30 7156 C 706.183 -3.55203 -0.39564 0
M  V30 7157 C 705.849 -4.43447 0.81644 0
M  V30 7158 C 704.511 -4.67285 1.14884 0
M  V30 7159 C 706.863 -4.95219 1.62503 0
M  V30 7160 C 704.191 -5.40141 2.29052 0
M  V30 7161 C 706.543 -5.69327 2.7577 0
M  V30 7162 C 705.207 -5.91429 3.09464 0
M  V30 7163 H 704.477 -0.739486 -0.0473375 0
M  V30 7164 H 707.124 -1.82368 0.584321 0
M  V30 7165 H 705.429 -3.73252 -1.19121 0
M  V30 7166 H 707.126 -3.91944 -0.847399 0
M  V30 7167 H 703.716 -4.2509 0.547422 0
M  V30 7168 H 707.9 -4.76686 1.38144 0
M  V30 7169 H 703.156 -5.55468 2.55471 0
M  V30 7170 H 707.33 -6.08433 3.38795 0
M  V30 7171 H 704.957 -6.47662 3.98042 0
M  V30 7172 N 706.532 -0.168513 -1.56696 0
M  V30 7173 C 707.78 0.476216 -1.96409 0
M  V30 7174 C 708.101 1.63968 -1.05544 0
M  V30 7175 O 707.371 1.95525 -0.121235 0
M  V30 7176 H 705.951 0.178921 -0.725256 0
M  V30 7177 H 708.613 -0.249042 -1.93302 0
M  V30 7178 H 707.709 0.838094 -3.00637 0
M  V30 7179 N 708.01 1.57248 0.105221 0
M  V30 7180 C 709.256 1.85845 0.811753 0
M  V30 7181 C 709.589 0.756219 1.78871 0
M  V30 7182 O 708.864 -0.236736 1.93054 0
M  V30 7183 C 709.147 3.25059 1.54947 0
M  V30 7184 C 709 4.45898 0.591185 0
M  V30 7185 C 710.319 3.6203 2.50245 0
M  V30 7186 H 707.438 0.675973 0.293649 0
M  V30 7187 H 710.08 1.89849 0.0756269 0
M  V30 7188 H 708.23 3.21776 2.17698 0
M  V30 7189 H 709.902 4.61291 -0.0285352 0
M  V30 7190 H 708.145 4.33693 -0.0962343 0
M  V30 7191 H 708.816 5.40009 1.1443 0
M  V30 7192 H 711.292 3.66192 1.97593 0
M  V30 7193 H 710.168 4.60389 2.98886 0
M  V30 7194 H 710.429 2.90176 3.33542 0
M  V30 7195 N 709.488 -0.375779 1.53054 0
M  V30 7196 C 710.718 -1.1387 1.72386 0
M  V30 7197 C 711.126 -1.8382 0.447966 0
M  V30 7198 O 710.469 -1.74027 -0.588244 0
M  V30 7199 C 710.531 -2.22047 2.82728 0
M  V30 7200 C 710.195 -1.71951 4.23417 0
M  V30 7201 C 711.192 -1.18909 5.06119 0
M  V30 7202 C 708.877 -1.77773 4.69789 0
M  V30 7203 C 710.871 -0.723529 6.3328 0
M  V30 7204 C 708.558 -1.30829 5.96931 0
M  V30 7205 C 709.556 -0.782077 6.78508 0
M  V30 7206 O 709.244 -0.319529 8.03265 0
M  V30 7207 H 708.976 -0.346835 0.580242 0
M  V30 7208 H 711.53 -0.443748 2.00549 0
M  V30 7209 H 709.76 -2.95006 2.50017 0
M  V30 7210 H 711.449 -2.83654 2.90336 0
M  V30 7211 H 712.215 -1.13758 4.7147 0
M  V30 7212 H 708.094 -2.17673 4.06373 0
M  V30 7213 H 711.638 -0.312126 6.96901 0
M  V30 7214 H 707.535 -1.3567 6.31081 0
M  V30 7215 H 708.303 -0.439796 8.17318 0
M  V30 7216 N 710.966 -1.44241 -0.634997 0
M  V30 7217 C 712.213 -1.46821 -1.39463 0
M  V30 7218 C 712.541 -0.0993362 -1.94246 0
M  V30 7219 O 711.796 0.898325 -1.73864 0
M  V30 7220 C 712.095 -2.47279 -2.58046 0
M  V30 7221 C 711.761 -3.92703 -2.21574 0
M  V30 7222 C 710.423 -4.32306 -2.1134 0
M  V30 7223 C 712.775 -4.84271 -1.92695 0
M  V30 7224 C 710.103 -5.61407 -1.70409 0
M  V30 7225 C 712.455 -6.13755 -1.53258 0
M  V30 7226 C 711.119 -6.52316 -1.41562 0
M  V30 7227 H 710.389 -0.537256 -0.51033 0
M  V30 7228 H 713.036 -1.77431 -0.720441 0
M  V30 7229 H 711.341 -2.10138 -3.3068 0
M  V30 7230 H 713.038 -2.46523 -3.16271 0
M  V30 7231 H 709.628 -3.61369 -2.30456 0
M  V30 7232 H 713.812 -4.54432 -1.99513 0
M  V30 7233 H 709.068 -5.90105 -1.59955 0
M  V30 7234 H 713.242 -6.84168 -1.29949 0
M  V30 7235 H 710.869 -7.52255 -1.09619 0
M  V30 7236 N 712.444 0.87505 -1.31075 0
M  V30 7237 C 713.391 1.98178 -1.18296 0
M  V30 7238 C 714.361 1.65952 -0.0699923 0
M  V30 7239 O 715.546 1.8926 -0.241951 0
M  V30 7240 C 712.686 3.33399 -0.891024 0
M  V30 7241 C 711.799 3.78253 -2.08684 0
M  V30 7242 C 710.934 5.02166 -1.73212 0
M  V30 7243 C 709.973 5.39455 -2.89231 0
M  V30 7244 N 709.11 6.54549 -2.53989 0
M  V30 7245 H 713.95 2.0844 -2.12971 0
M  V30 7246 H 711.487 1.02047 -1.05948 0
M  V30 7247 H 713.445 4.11246 -0.702338 0
M  V30 7248 H 712.075 3.22794 0.0188799 0
M  V30 7249 H 711.127 2.9623 -2.38646 0
M  V30 7250 H 712.439 4.01821 -2.95536 0
M  V30 7251 H 711.593 5.87666 -1.50777 0
M  V30 7252 H 710.332 4.80491 -0.83544 0
M  V30 7253 H 709.337 4.52477 -3.12321 0
M  V30 7254 H 710.562 5.63098 -3.79601 0
M  V30 7255 H 708.508 6.3443 -1.66838 0
M  V30 7256 H 708.425 6.78035 -3.34372 0
M  V30 7257 H 709.693 7.43254 -2.34934 0
M  V30 7258 N 713.922 1.13953 1.08869 0
M  V30 7259 C 715.15 0.92817 1.84912 0
M  V30 7260 C 715.565 -0.523197 1.81406 0
M  V30 7261 O 714.922 -1.36237 1.21432 0
M  V30 7262 C 714.973 1.41509 3.32652 0
M  V30 7263 O 714.694 2.80959 3.36145 0
M  V30 7264 C 716.195 1.243 4.25517 0
M  V30 7265 H 713.415 0.330612 0.583898 0
M  V30 7266 H 715.959 1.51349 1.37527 0
M  V30 7267 H 714.114 0.872648 3.77444 0
M  V30 7268 H 714.528 3.02704 4.28335 0
M  V30 7269 H 716.002 1.63237 5.27312 0
M  V30 7270 H 716.479 0.18532 4.38809 0
M  V30 7271 H 717.085 1.77375 3.86546 0
M  V30 7272 N 715.4 -1.26948 0.933913 0
M  V30 7273 C 716.646 -1.94716 0.587985 0
M  V30 7274 C 717.001 -1.71994 -0.862312 0
M  V30 7275 O 716.294 -1.04208 -1.60783 0
M  V30 7276 C 716.488 -3.46963 0.857406 0
M  V30 7277 C 716.317 -3.84489 2.33234 0
M  V30 7278 C 715.087 -4.07621 2.98618 0
M  V30 7279 C 717.285 -3.93602 3.31031 0
M  V30 7280 N 715.267 -4.31976 4.362 0
M  V30 7281 C 716.638 -4.22404 4.53845 0
M  V30 7282 C 718.693 -3.76201 3.26155 0
M  V30 7283 C 717.396 -4.35615 5.72391 0
M  V30 7284 C 719.422 -3.90641 4.4402 0
M  V30 7285 C 718.784 -4.19835 5.65613 0
M  V30 7286 H 714.883 -0.735586 0.2654 0
M  V30 7287 H 717.467 -1.53181 1.20182 0
M  V30 7288 H 715.638 -3.87442 0.27268 0
M  V30 7289 H 717.37 -4.01921 0.47348 0
M  V30 7290 H 714.125 -4.02696 2.49264 0
M  V30 7291 H 714.549 -4.48199 5.07392 0
M  V30 7292 H 719.191 -3.52665 2.3321 0
M  V30 7293 H 716.909 -4.57975 6.65796 0
M  V30 7294 H 720.495 -3.78589 4.41771 0
M  V30 7295 H 719.375 -4.30765 6.55295 0
M  V30 7296 N 716.879 -0.700114 -1.41195 0
M  V30 7297 C 718.127 -0.232546 -2.00758 0
M  V30 7298 C 718.448 1.1734 -1.55745 0
M  V30 7299 O 717.718 1.79262 -0.790058 0
M  V30 7300 H 716.298 -0.0829845 -0.742376 0
M  V30 7301 H 718.96 -0.902289 -1.72756 0
M  V30 7302 H 718.056 -0.253521 -3.11069 0
M  V30 7303 N 718.357 1.51182 -0.445186 0
M  V30 7304 C 719.634 1.9478 0.178965 0
M  V30 7305 C 720.014 1.38428 1.59376 0
M  V30 7306 O 719.362 0.574552 2.21159 0
M  V30 7307 C 719.572 3.48683 0.148711 0
M  V30 7308 C 720.92 4.23152 0.35042 0
M  V30 7309 O 721.944 3.55479 0.226474 0
M  V30 7310 O 720.803 5.4322 0.597893 0
M  V30 7311 H 717.897 0.817387 0.12573 0
M  V30 7312 H 720.443 1.62051 -0.503729 0
M  V30 7313 H 719.215 3.82176 -0.84009 0
M  V30 7314 H 718.838 3.87875 0.873979 0
M  V30 7315 N 719.835 0.176821 1.56605 0
M  V30 7316 C 721.112 -0.513365 1.88743 0
M  V30 7317 C 721.492 -1.80929 1.08757 0
M  V30 7318 O 720.84 -2.27765 0.183127 0
M  V30 7319 C 721.05 -0.749925 3.40848 0
M  V30 7320 C 722.398 -1.07747 4.10701 0
M  V30 7321 O 723.422 -0.838277 3.46196 0
M  V30 7322 O 722.281 -1.52901 5.24675 0
M  V30 7323 H 719.375 -0.265296 0.783292 0
M  V30 7324 H 721.921 0.215669 1.68324 0
M  V30 7325 H 720.693 0.16599 3.90948 0
M  V30 7326 H 720.316 -1.53208 3.66897 0
M  V30 7327 N 721.313 -1.57302 -0.09688 0
M  V30 7328 C 722.56 -1.85997 -0.800699 0
M  V30 7329 C 722.888 -0.765089 -1.7882 0
M  V30 7330 O 722.143 0.241492 -1.94204 0
M  V30 7331 C 722.442 -3.21272 -1.56586 0
M  V30 7332 C 722.108 -4.45104 -0.72064 0
M  V30 7333 C 720.77 -4.78723 -0.487632 0
M  V30 7334 C 723.122 -5.2103 -0.132948 0
M  V30 7335 C 720.45 -5.85697 0.34296 0
M  V30 7336 C 722.802 -6.28881 0.684957 0
M  V30 7337 C 721.466 -6.61017 0.928073 0
M  V30 7338 H 720.736 -0.680613 -0.292997 0
M  V30 7339 H 723.383 -1.91399 -0.0622474 0
M  V30 7340 H 721.688 -3.11547 -2.37583 0
M  V30 7341 H 723.385 -3.40702 -2.11478 0
M  V30 7342 H 719.975 -4.18777 -0.912359 0
M  V30 7343 H 724.159 -4.95392 -0.300132 0
M  V30 7344 H 719.415 -6.09008 0.540317 0
M  V30 7345 H 723.589 -6.86886 1.14721 0
M  V30 7346 H 721.216 -7.43738 1.57348 0
M  V30 7347 N 722.791 0.367657 -1.53252 0
M  V30 7348 C 724.019 1.13119 -1.73239 0
M  V30 7349 C 724.434 1.831 -0.460404 0
M  V30 7350 O 723.791 1.73483 0.566557 0
M  V30 7351 C 723.842 2.16308 -2.89643 0
M  V30 7352 O 723.563 1.49175 -4.1192 0
M  V30 7353 C 725.064 3.05224 -3.21486 0
M  V30 7354 H 722.284 0.338318 -0.579467 0
M  V30 7355 H 724.828 0.42721 -1.99988 0
M  V30 7356 H 722.983 2.82307 -2.65295 0
M  V30 7357 H 723.397 2.17912 -4.7709 0
M  V30 7358 H 724.871 3.73613 -4.06346 0
M  V30 7359 H 725.348 3.69919 -2.36763 0
M  V30 7360 H 725.954 2.44843 -3.47753 0
M  V30 7361 N 724.269 1.44576 0.627338 0
M  V30 7362 C 725.499 1.50829 1.41189 0
M  V30 7363 C 725.907 0.133083 1.88731 0
M  V30 7364 O 725.25 -0.87199 1.61685 0
M  V30 7365 C 725.312 2.41449 2.66351 0
M  V30 7366 C 724.976 3.88549 2.40579 0
M  V30 7367 C 725.973 4.78981 2.0217 0
M  V30 7368 C 723.658 4.33287 2.54102 0
M  V30 7369 C 725.652 6.12153 1.77618 0
M  V30 7370 C 723.339 5.66505 2.29163 0
M  V30 7371 C 724.337 6.55756 1.9098 0
M  V30 7372 O 724.025 7.86506 1.66321 0
M  V30 7373 H 723.757 0.513797 0.439304 0
M  V30 7374 H 726.311 1.90256 0.774059 0
M  V30 7375 H 724.541 1.96955 3.32784 0
M  V30 7376 H 726.23 2.38608 3.28361 0
M  V30 7377 H 726.996 4.45689 1.91277 0
M  V30 7378 H 722.875 3.64074 2.82792 0
M  V30 7379 H 726.419 6.81776 1.47739 0
M  V30 7380 H 722.316 5.99358 2.39668 0
M  V30 7381 H 723.084 7.98341 1.80536 0
M  V30 7382 N 725.747 -0.868086 1.31537 0
M  V30 7383 C 726.697 -1.96321 1.1594 0
M  V30 7384 C 727.681 -1.60748 0.0698962 0
M  V30 7385 O 728.873 -1.74524 0.295011 0
M  V30 7386 C 726.002 -3.32073 0.870789 0
M  V30 7387 C 725.088 -3.73907 2.00136 0
M  V30 7388 N 725.479 -3.87685 3.24859 0
M  V30 7389 C 723.777 -4.03433 1.90152 0
M  V30 7390 C 724.478 -4.23454 3.98825 0
M  V30 7391 N 723.454 -4.34242 3.27009 0
M  V30 7392 H 727.256 -2.05088 2.10514 0
M  V30 7393 H 724.77 -1.059 1.23122 0
M  V30 7394 H 726.767 -4.10279 0.740034 0
M  V30 7395 H 725.427 -3.24631 -0.0667068 0
M  V30 7396 H 726.438 -3.72363 3.59953 0
M  V30 7397 H 723.115 -4.0437 1.03879 0
M  V30 7398 H 724.505 -4.41696 5.06314 0
M  V30 7399 N 727.225 -1.14528 -1.08264 0
M  V30 7400 C 728.636 -0.925261 -1.6216 0
M  V30 7401 C 728.987 0.535587 -1.88748 0
M  V30 7402 O 728.112 1.4048 -1.64604 0
M  V30 7403 C 728.707 -1.67316 -2.94603 0
M  V30 7404 C 727.266 -1.49868 -3.45278 0
M  V30 7405 C 726.413 -1.69471 -2.19487 0
M  V30 7406 H 729.364 -1.29687 -0.914707 0
M  V30 7407 H 729.385 -1.13721 -3.63109 0
M  V30 7408 H 728.897 -2.73635 -2.75219 0
M  V30 7409 H 726.998 -0.459032 -3.69762 0
M  V30 7410 H 727.111 -2.2696 -4.21931 0
M  V30 7411 H 725.475 -1.12048 -2.2873 0
M  V30 7412 H 726.258 -2.77136 -2.0261 0
M  V30 7413 N 728.703 1.26451 -0.940633 0
M  V30 7414 C 729.633 2.28773 -0.467479 0
M  V30 7415 C 730.614 1.63218 0.478955 0
M  V30 7416 O 731.799 1.90427 0.380929 0
M  V30 7417 C 728.929 3.46259 0.268656 0
M  V30 7418 C 727.883 4.23898 -0.591171 0
M  V30 7419 C 727.209 5.33993 0.274891 0
M  V30 7420 C 728.509 4.87974 -1.86223 0
M  V30 7421 H 730.203 2.68601 -1.32265 0
M  V30 7422 H 727.749 1.29123 -0.637436 0
M  V30 7423 H 729.702 4.16951 0.610696 0
M  V30 7424 H 728.426 3.05383 1.15796 0
M  V30 7425 H 727.085 3.54969 -0.916098 0
M  V30 7426 H 726.733 4.89358 1.16353 0
M  V30 7427 H 726.433 5.86849 -0.297006 0
M  V30 7428 H 727.957 6.07523 0.612213 0
M  V30 7429 H 729.371 5.50883 -1.58747 0
M  V30 7430 H 727.768 5.50945 -2.37866 0
M  V30 7431 H 728.838 4.10945 -2.57394 0
M  V30 7432 N 730.181 0.707592 1.40822 0
M  V30 7433 C 731.429 0.243189 2.00632 0
M  V30 7434 C 731.75 -1.16512 1.56365 0
M  V30 7435 O 731.02 -1.78841 0.799553 0
M  V30 7436 H 729.6 0.0869203 0.741926 0
M  V30 7437 H 732.262 0.911438 1.72275 0
M  V30 7438 H 731.358 0.270014 3.1093 0
M  V30 7439 N 731.66 -1.50943 0.453197 0
M  V30 7440 C 732.908 -2.01813 -0.107709 0
M  V30 7441 C 733.229 -1.33841 -1.41816 0
M  V30 7442 O 732.499 -0.477973 -1.8998 0
M  V30 7443 H 731.079 -0.745773 -0.0427948 0
M  V30 7444 H 733.741 -1.8545 0.599531 0
M  V30 7445 H 732.837 -3.10911 -0.27218 0
M  V30 7446 N 733.138 -0.185124 -1.56509 0
M  V30 7447 C 734.384 0.456934 -1.97585 0
M  V30 7448 C 734.717 1.61957 -1.07161 0
M  V30 7449 O 733.992 1.9412 -0.121546 0
M  V30 7450 C 734.275 0.926666 -3.47973 0
M  V30 7451 C 734.128 -0.237097 -4.49175 0
M  V30 7452 C 735.447 1.79561 -4.01803 0
M  V30 7453 H 732.566 0.164619 -0.71838 0
M  V30 7454 H 735.208 -0.274039 -1.88013 0
M  V30 7455 H 733.358 1.54954 -3.56261 0
M  V30 7456 H 735.03 -0.87454 -4.52934 0
M  V30 7457 H 733.273 -0.890446 -4.24563 0
M  V30 7458 H 733.944 0.133924 -5.51838 0
M  V30 7459 H 736.42 1.27039 -3.96232 0
M  V30 7460 H 735.296 2.09327 -5.07418 0
M  V30 7461 H 735.557 2.74629 -3.46455 0
M  V30 7462 N 734.616 1.57351 0.0885366 0
M  V30 7463 C 735.546 2.05561 1.10757 0
M  V30 7464 C 736.527 0.945789 1.41382 0
M  V30 7465 O 737.712 1.21747 1.51299 0
M  V30 7466 C 734.842 2.48554 2.42566 0
M  V30 7467 C 733.796 3.63259 2.26334 0
M  V30 7468 C 733.122 3.9225 3.63378 0
M  V30 7469 C 734.422 4.93913 1.69844 0
M  V30 7470 H 736.116 2.90946 0.706468 0
M  V30 7471 H 733.662 1.39968 0.338385 0
M  V30 7472 H 735.615 2.8089 3.14132 0
M  V30 7473 H 734.339 1.60176 2.84625 0
M  V30 7474 H 732.998 3.31179 1.57213 0
M  V30 7475 H 732.646 3.0103 4.02976 0
M  V30 7476 H 732.346 4.69478 3.53362 0
M  V30 7477 H 733.87 4.27067 4.36401 0
M  V30 7478 H 735.284 5.24588 2.31258 0
M  V30 7479 H 733.681 5.75349 1.70569 0
M  V30 7480 H 734.751 4.80409 0.65843 0
M  V30 7481 N 736.094 -0.359525 1.53444 0
M  V30 7482 C 737.024 -1.44662 1.8329 0
M  V30 7483 C 738.005 -1.55617 0.68683 0
M  V30 7484 O 739.19 -1.70086 0.93725 0
M  V30 7485 C 736.32 -2.81923 2.02822 0
M  V30 7486 C 735.274 -2.85787 3.18606 0
M  V30 7487 C 734.6 -4.25781 3.23442 0
M  V30 7488 C 735.9 -2.52762 4.57065 0
M  V30 7489 H 737.594 -1.19934 2.74329 0
M  V30 7490 H 735.14 -0.575517 1.31999 0
M  V30 7491 H 737.093 -3.58005 2.22285 0
M  V30 7492 H 735.817 -3.08051 1.085 0
M  V30 7493 H 734.476 -2.12157 2.98973 0
M  V30 7494 H 734.124 -4.48994 2.26745 0
M  V30 7495 H 733.824 -4.29281 4.01238 0
M  V30 7496 H 735.348 -5.03727 3.45096 0
M  V30 7497 H 736.762 -3.18557 4.76649 0
M  V30 7498 H 735.159 -2.67569 5.37147 0
M  V30 7499 H 736.229 -1.47993 4.61764 0
M  V30 7500 N 737.572 -1.44907 -0.619662 0
M  V30 7501 C 738.52 -1.52971 -1.75222 0
M  V30 7502 C 739.514 -0.400531 -1.64597 0
M  V30 7503 O 740.72 -0.575952 -1.70537 0
M  V30 7504 H 737.095 -0.480241 -0.578682 0
M  V30 7505 H 739.066 -2.48269 -1.65545 0
M  V30 7506 C 737.815 -1.50204 -3.13583 0
M  V30 7507 H 737.138 -2.36412 -3.22412 0
M  V30 7508 H 738.578 -1.59905 -3.92691 0
M  V30 7509 C 737.037 -0.22455 -3.36151 0
M  V30 7510 O 737.567 0.700574 -3.95544 0
M  V30 7511 N 735.773 -0.124052 -2.90335 0
M  V30 7512 H 735.32 -0.87774 -2.42185 0
M  V30 7513 H 735.278 0.729914 -3.0581 0
M  V30 7514 N 739.05 0.861098 -1.31996 0
M  V30 7515 C 739.997 1.96912 -1.20392 0
M  V30 7516 C 740.967 1.65869 -0.0875899 0
M  V30 7517 O 742.152 1.88992 -0.262011 0
M  V30 7518 C 739.292 3.32435 -0.926335 0
M  V30 7519 C 738.405 3.76018 -2.12684 0
M  V30 7520 C 737.54 5.00301 -1.78529 0
M  V30 7521 C 736.579 5.36357 -2.94937 0
M  V30 7522 N 735.716 6.51818 -2.60917 0
M  V30 7523 H 740.556 2.06169 -2.1517 0
M  V30 7524 H 738.093 1.00917 -1.07024 0
M  V30 7525 H 740.051 4.10478 -0.745917 0
M  V30 7526 H 738.681 3.22796 -0.0153578 0
M  V30 7527 H 737.733 2.93683 -2.41774 0
M  V30 7528 H 739.045 3.98664 -2.99781 0
M  V30 7529 H 738.199 5.86034 -1.57001 0
M  V30 7530 H 736.938 4.79578 -0.886356 0
M  V30 7531 H 735.943 4.49139 -3.17103 0
M  V30 7532 H 737.168 5.59041 -3.85552 0
M  V30 7533 H 735.114 6.32624 -1.73558 0
M  V30 7534 H 735.031 6.7445 -3.41544 0
M  V30 7535 H 736.299 7.4072 -2.42804 0
M  V30 7536 N 740.528 1.15101 1.07655 0
M  V30 7537 C 741.491 0.847625 2.12951 0
M  V30 7538 C 742.491 -0.151227 1.60087 0
M  V30 7539 O 743.681 0.0780399 1.74025 0
M  V30 7540 C 740.813 0.265 3.39868 0
M  V30 7541 H 742.006 1.7809 2.41296 0
M  V30 7542 H 739.559 0.958072 1.23494 0
M  V30 7543 H 740.294 -0.676625 3.17163 0
M  V30 7544 H 740.079 0.984554 3.79538 0
M  V30 7545 H 741.569 0.0702121 4.17541 0
M  V30 7546 N 742.006 -1.2595 0.947325 0
M  V30 7547 C 743.234 -1.97544 0.615127 0
M  V30 7548 C 743.649 -1.70484 -0.811221 0
M  V30 7549 O 743.006 -0.97662 -1.5417 0
M  V30 7550 C 743.057 -3.51236 0.855328 0
M  V30 7551 O 742.778 -3.77359 2.22558 0
M  V30 7552 C 744.279 -4.40066 0.534515 0
M  V30 7553 H 741.499 -0.629888 0.231263 0
M  V30 7554 H 744.043 -1.60308 1.26971 0
M  V30 7555 H 742.198 -3.8661 0.247266 0
M  V30 7556 H 742.612 -4.71857 2.29022 0
M  V30 7557 H 744.086 -5.46838 0.753168 0
M  V30 7558 H 744.563 -4.35982 -0.530701 0
M  V30 7559 H 745.169 -4.10245 1.12158 0
M  V30 7560 N 743.484 -0.715051 -1.40445 0
M  V30 7561 C 744.761 -0.181503 -1.94756 0
M  V30 7562 C 745.141 1.31268 -1.65324 0
M  V30 7563 O 744.489 2.0686 -0.970631 0
M  V30 7564 C 744.699 -0.493663 -3.45491 0
M  V30 7565 C 746.047 -0.432032 -4.22396 0
M  V30 7566 O 747.071 -0.429692 -3.53599 0
M  V30 7567 O 745.93 -0.409091 -5.44967 0
M  V30 7568 H 743.024 -0.0263989 -0.826579 0
M  V30 7569 H 745.57 -0.792546 -1.50056 0
M  V30 7570 H 744.342 -1.52713 -3.6027 0
M  V30 7571 H 743.965 0.14737 -3.97327 0
M  V30 7572 N 744.962 1.50701 -0.461195 0
M  V30 7573 C 745.91 2.29918 0.352231 0
M  V30 7574 C 746.904 1.36778 0.999403 0
M  V30 7575 O 748.11 1.54015 0.931639 0
M  V30 7576 H 744.485 0.740249 0.132423 0
M  V30 7577 H 746.456 2.96497 -0.336424 0
M  V30 7578 C 745.205 3.17052 1.42736 0
M  V30 7579 H 744.528 3.88623 0.938747 0
M  V30 7580 H 745.968 3.75493 1.96928 0
M  V30 7581 C 744.427 2.3399 2.42384 0
M  V30 7582 O 744.957 2.01608 3.47444 0
M  V30 7583 N 743.163 1.96758 2.13857 0
M  V30 7584 H 742.71 2.23292 1.28447 0
M  V30 7585 H 742.668 1.41484 2.80766 0
M  V30 7586 N 746.441 0.193421 1.56409 0
M  V30 7587 C 747.688 -0.445789 1.97532 0
M  V30 7588 C 748.016 -1.61744 1.08024 0
M  V30 7589 O 747.271 -1.95338 0.118982 0
M  V30 7590 C 747.57 -0.949718 3.44551 0
M  V30 7591 C 747.236 0.108383 4.5077 0
M  V30 7592 C 745.898 0.399126 4.79542 0
M  V30 7593 C 748.25 0.825423 5.14622 0
M  V30 7594 C 745.578 1.41192 5.69457 0
M  V30 7595 C 747.93 1.82735 6.05632 0
M  V30 7596 C 746.594 2.12531 6.32761 0
M  V30 7597 H 745.864 -0.163126 0.722822 0
M  V30 7598 H 748.511 0.290035 1.89291 0
M  V30 7599 H 746.816 -1.76378 3.49854 0
M  V30 7600 H 748.513 -1.45367 3.73724 0
M  V30 7601 H 745.103 -0.128392 4.28408 0
M  V30 7602 H 749.287 0.61403 4.92487 0
M  V30 7603 H 744.543 1.6487 5.88751 0
M  V30 7604 H 748.717 2.3882 6.5417 0
M  V30 7605 H 746.344 2.91155 7.02234 0
M  V30 7606 N 747.919 -1.57396 -0.0801906 0
M  V30 7607 C 749.167 -1.86467 -0.779384 0
M  V30 7608 C 749.488 -0.784243 -1.78535 0
M  V30 7609 O 748.758 0.187986 -1.94996 0
M  V30 7610 H 747.338 -0.68806 -0.29083 0
M  V30 7611 H 750 -1.94813 -0.0582749 0
M  V30 7612 H 749.096 -2.83701 -1.30078 0
M  V30 7613 N 749.397 0.351382 -1.53633 0
M  V30 7614 C 750.813 0.693987 -1.43722 0
M  V30 7615 C 751.013 1.9274 -0.587669 0
M  V30 7616 O 750.069 2.52387 -0.0756082 0
M  V30 7617 C 751.382 0.893937 -2.87105 0
M  V30 7618 C 752.93 0.993051 -2.96829 0
M  V30 7619 C 753.405 1.22537 -4.41303 0
M  V30 7620 N 754.896 1.29275 -4.44795 0
M  V30 7621 C 755.631 1.48988 -5.53706 0
M  V30 7622 N 755.127 1.65924 -6.72637 0
M  V30 7623 N 756.92 1.51472 -5.41306 0
M  V30 7624 H 749.071 -0.459688 -2.07366 0
M  V30 7625 H 751.334 -0.143684 -0.937048 0
M  V30 7626 H 751.04 0.0592517 -3.5165 0
M  V30 7627 H 750.914 1.79795 -3.31592 0
M  V30 7628 H 753.301 1.81827 -2.32429 0
M  V30 7629 H 753.382 0.0661119 -2.55715 0
M  V30 7630 H 753.026 0.405117 -5.06282 0
M  V30 7631 H 752.956 2.16575 -4.80003 0
M  V30 7632 H 755.447 1.17743 -3.59089 0
M  V30 7633 H 755.76 1.80578 -7.51406 0
M  V30 7634 H 754.105 1.63075 -6.75597 0
M  V30 7635 H 757.296 1.37818 -4.47352 0
M  V30 7636 H 757.469 1.66493 -6.26246 0
M  V30 7637 N 750.875 1.45233 0.611969 0
M  V30 7638 C 751.805 1.5641 1.73373 0
M  V30 7639 C 752.786 0.415896 1.64937 0
M  V30 7640 O 753.971 0.638478 1.83404 0
M  V30 7641 C 751.101 1.52627 3.11965 0
M  V30 7642 C 750.055 2.66119 3.35208 0
M  V30 7643 C 749.381 2.4739 4.74028 0
M  V30 7644 C 750.681 4.08157 3.25891 0
M  V30 7645 H 752.375 2.50307 1.64277 0
M  V30 7646 H 749.921 1.20467 0.788904 0
M  V30 7647 H 751.874 1.59043 3.90235 0
M  V30 7648 H 750.598 0.552564 3.21892 0
M  V30 7649 H 749.257 2.59123 2.59327 0
M  V30 7650 H 748.905 1.48168 4.80682 0
M  V30 7651 H 748.605 3.23494 4.90536 0
M  V30 7652 H 750.129 2.55653 5.54503 0
M  V30 7653 H 751.543 4.1642 3.9404 0
M  V30 7654 H 749.94 4.84617 3.5393 0
M  V30 7655 H 751.01 4.30374 2.23397 0
M  V30 7656 N 752.353 -0.854086 1.3245 0
M  V30 7657 C 753.764 -1.42427 1.20712 0
M  V30 7658 C 754.115 -1.95371 -0.18013 0
M  V30 7659 O 753.24 -1.87587 -1.07889 0
M  V30 7660 C 753.835 -2.58897 2.18536 0
M  V30 7661 C 752.394 -3.11913 2.10683 0
M  V30 7662 C 751.541 -1.84661 2.06871 0
M  V30 7663 H 754.492 -0.661192 1.4427 0
M  V30 7664 H 754.513 -3.36074 1.78422 0
M  V30 7665 H 754.025 -2.20333 3.19492 0
M  V30 7666 H 752.126 -3.55059 1.12977 0
M  V30 7667 H 752.239 -3.73119 3.00532 0
M  V30 7668 H 750.603 -2.04285 1.52118 0
M  V30 7669 H 751.386 -1.48314 3.09609 0
M  V30 7670 N 753.831 -1.1567 -1.07043 0
M  V30 7671 C 754.741 -0.870435 -2.17855 0
M  V30 7672 C 755.757 0.154452 -1.73313 0
M  V30 7673 O 756.933 -0.0203759 -2.0139 0
M  V30 7674 C 753.998 -0.367219 -3.4475 0
M  V30 7675 C 753.059 -1.45639 -4.03841 0
M  V30 7676 C 752.292 -0.977092 -5.2468 0
M  V30 7677 O 752.515 0.176127 -5.70128 0
M  V30 7678 O 751.449 -1.76215 -5.75527 0
M  V30 7679 H 755.275 -1.79687 -2.44839 0
M  V30 7680 H 752.86 -0.936064 -1.1644 0
M  V30 7681 H 754.742 -0.0931947 -4.21297 0
M  V30 7682 H 753.417 0.53131 -3.1931 0
M  V30 7683 H 752.324 -1.78406 -3.28819 0
M  V30 7684 H 753.657 -2.32995 -4.3356 0
M  V30 7685 N 755.309 1.25446 -0.953992 0
M  V30 7686 C 756.539 1.96929 -0.624688 0
M  V30 7687 C 756.947 1.71112 0.807292 0
M  V30 7688 O 756.29 0.983512 1.55154 0
M  V30 7689 C 756.352 3.50425 -0.802676 0
M  V30 7690 C 756.016 3.99916 -2.21169 0
M  V30 7691 C 757.013 4.10662 -3.18831 0
M  V30 7692 C 754.698 4.33598 -2.53571 0
M  V30 7693 C 756.692 4.54401 -4.46988 0
M  V30 7694 C 754.379 4.77024 -3.81958 0
M  V30 7695 C 755.377 4.87388 -4.78478 0
M  V30 7696 O 755.065 5.29851 -6.04577 0
M  V30 7697 H 754.797 0.634511 -0.233179 0
M  V30 7698 H 757.351 1.60591 -1.28061 0
M  V30 7699 H 755.581 3.86596 -0.0896044 0
M  V30 7700 H 757.27 4.03117 -0.47452 0
M  V30 7701 H 758.036 3.84872 -2.95124 0
M  V30 7702 H 753.915 4.24757 -1.79171 0
M  V30 7703 H 757.459 4.62406 -5.22328 0
M  V30 7704 H 753.356 5.02258 -4.05471 0
M  V30 7705 H 754.124 5.48039 -6.07944 0
M  V30 7706 N 756.787 0.722489 1.40064 0
M  V30 7707 C 758.198 0.336507 1.83642 0
M  V30 7708 C 758.549 -1.13002 1.6039 0
M  V30 7709 O 757.674 -1.87036 1.08842 0
M  V30 7710 C 758.269 0.603985 3.33373 0
M  V30 7711 C 756.828 0.271637 3.75419 0
M  V30 7712 C 755.975 0.872898 2.63203 0
M  V30 7713 H 758.926 0.921108 1.29233 0
M  V30 7714 H 758.947 -0.128471 3.80283 0
M  V30 7715 H 758.459 1.67141 3.50265 0
M  V30 7716 H 756.56 -0.790455 3.64119 0
M  V30 7717 H 756.673 0.745457 4.73265 0
M  V30 7718 H 755.037 0.300431 2.52922 0
M  V30 7719 H 755.82 1.94473 2.82905 0
M  V30 7720 N 758.265 -1.50454 0.469181 0
M  V30 7721 C 759.513 -2.01916 -0.0862982 0
M  V30 7722 C 759.834 -1.35337 -1.40388 0
M  V30 7723 O 759.104 -0.498096 -1.89462 0
M  V30 7724 H 757.684 -0.746185 -0.0348825 0
M  V30 7725 H 760.346 -1.84804 0.619167 0
M  V30 7726 H 759.442 -3.11182 -0.239189 0
M  V30 7727 N 759.743 -0.201713 -1.56304 0
M  V30 7728 C 760.673 0.71155 -2.22394 0
M  V30 7729 C 761.654 1.21625 -1.18917 0
M  V30 7730 O 762.839 1.26388 -1.47444 0
M  V30 7731 C 759.969 1.92837 -2.88845 0
M  V30 7732 C 758.923 1.55831 -3.98623 0
M  V30 7733 C 758.249 2.85228 -4.52271 0
M  V30 7734 C 759.549 0.763249 -5.16693 0
M  V30 7735 H 761.243 0.160573 -2.98969 0
M  V30 7736 H 758.789 0.0757916 -1.438 0
M  V30 7737 H 760.742 2.57253 -3.33764 0
M  V30 7738 H 759.466 2.50398 -2.09686 0
M  V30 7739 H 758.125 0.9377 -3.54405 0
M  V30 7740 H 757.773 3.40893 -3.69866 0
M  V30 7741 H 757.473 2.6121 -5.26349 0
M  V30 7742 H 758.997 3.50622 -4.99897 0
M  V30 7743 H 760.411 1.31066 -5.58117 0
M  V30 7744 H 758.808 0.620935 -5.96879 0
M  V30 7745 H 759.878 -0.234322 -4.84334 0
M  V30 7746 N 761.222 1.57436 0.0718424 0
M  V30 7747 C 762.452 1.91196 0.782795 0
M  V30 7748 C 762.86 0.795927 1.71644 0
M  V30 7749 O 762.203 -0.239604 1.82131 0
M  V30 7750 C 762.265 3.20421 1.63005 0
M  V30 7751 C 761.929 4.48724 0.865782 0
M  V30 7752 C 762.926 5.19571 0.185051 0
M  V30 7753 C 760.611 4.95345 0.832971 0
M  V30 7754 C 762.605 6.3529 -0.518264 0
M  V30 7755 C 760.292 6.1097 0.125884 0
M  V30 7756 C 761.29 6.80794 -0.548533 0
M  V30 7757 O 760.978 7.94213 -1.24423 0
M  V30 7758 H 760.71 0.636486 0.227731 0
M  V30 7759 H 763.264 2.05348 0.0464187 0
M  V30 7760 H 761.494 3.02478 2.40923 0
M  V30 7761 H 763.183 3.39831 2.21968 0
M  V30 7762 H 763.949 4.8458 0.201707 0
M  V30 7763 H 759.828 4.40871 1.34737 0
M  V30 7764 H 763.372 6.89725 -1.04523 0
M  V30 7765 H 759.269 6.45411 0.107155 0
M  V30 7766 H 760.037 8.10331 -1.1535 0
M  V30 7767 N 762.7 -0.34323 1.53817 0
M  V30 7768 C 763.946 -1.08504 1.71332 0
M  V30 7769 C 764.279 -1.88294 0.475285 0
M  V30 7770 O 763.554 -1.87205 -0.527688 0
M  V30 7771 C 763.837 -2.02597 2.97702 0
M  V30 7772 C 763.69 -1.26268 4.31713 0
M  V30 7773 C 765.009 -3.0241 3.19744 0
M  V30 7774 H 762.128 -0.393072 0.623429 0
M  V30 7775 H 764.77 -0.363579 1.86489 0
M  V30 7776 H 762.92 -2.64118 2.8491 0
M  V30 7777 H 764.592 -0.673594 4.56356 0
M  V30 7778 H 762.835 -0.564696 4.30109 0
M  V30 7779 H 763.506 -1.95253 5.16314 0
M  V30 7780 H 765.982 -2.51004 3.31868 0
M  V30 7781 H 764.858 -3.65449 4.09558 0
M  V30 7782 H 765.119 -3.73806 2.36054 0
M  V30 7783 N 764.178 -1.45556 -0.604258 0
M  V30 7784 C 765.424 -1.49968 -1.36519 0
M  V30 7785 C 765.757 -0.142236 -1.93678 0
M  V30 7786 O 765.032 0.843717 -1.75247 0
M  V30 7787 C 765.315 -2.58146 -2.51063 0
M  V30 7788 C 765.168 -4.03346 -1.99078 0
M  V30 7789 C 766.487 -2.62581 -3.53184 0
M  V30 7790 H 763.606 -0.545993 -0.495036 0
M  V30 7791 H 766.248 -1.77382 -0.680845 0
M  V30 7792 H 764.398 -2.34901 -3.09441 0
M  V30 7793 H 766.07 -4.37811 -1.45323 0
M  V30 7794 H 764.313 -4.13845 -1.30055 0
M  V30 7795 H 764.984 -4.74731 -2.81664 0
M  V30 7796 H 767.46 -2.83419 -3.04652 0
M  V30 7797 H 766.336 -3.40131 -4.30816 0
M  V30 7798 H 766.597 -1.67798 -4.09019 0
M  V30 7799 N 765.656 0.84705 -1.32902 0
M  V30 7800 C 766.933 1.58583 -1.14503 0
M  V30 7801 C 767.313 2.09075 0.291724 0
M  V30 7802 O 766.661 1.88636 1.28952 0
M  V30 7803 C 766.871 2.72605 -2.17916 0
M  V30 7804 C 768.219 3.41993 -2.51646 0
M  V30 7805 O 769.243 2.82838 -2.1652 0
M  V30 7806 O 768.102 4.48761 -3.1189 0
M  V30 7807 H 765.196 0.698756 -0.442345 0
M  V30 7808 H 767.742 0.890516 -1.44457 0
M  V30 7809 H 766.514 2.32876 -3.14459 0
M  V30 7810 H 766.137 3.49807 -1.89 0
M  V30 7811 N 767.134 1.16236 1.06428 0
M  V30 7812 C 768.382 0.941171 1.78847 0
M  V30 7813 C 768.703 -0.53248 1.87589 0
M  V30 7814 O 767.973 -1.38686 1.38358 0
M  V30 7815 H 766.553 0.345228 0.66244 0
M  V30 7816 H 769.215 1.46479 1.28569 0
M  V30 7817 H 768.311 1.35871 2.80972 0
M  V30 7818 N 768.612 -1.24939 0.960631 0
M  V30 7819 C 769.837 -1.9742 0.635608 0
M  V30 7820 C 770.262 -1.70857 -0.786737 0
M  V30 7821 O 769.62 -0.968063 -1.53291 0
M  V30 7822 C 769.668 -3.48987 0.907771 0
M  V30 7823 O 768.772 -4.12399 -0.0104053 0
M  V30 7824 H 768.113 -0.61871 0.241027 0
M  V30 7825 H 770.643 -1.58901 1.28886 0
M  V30 7826 H 770.653 -3.99334 0.836453 0
M  V30 7827 H 769.328 -3.6765 1.94439 0
M  V30 7828 H 767.905 -3.72727 0.113631 0
M  V30 7829 N 770.09 -0.729906 -1.39679 0
M  V30 7830 C 771.02 -0.101618 -2.33279 0
M  V30 7831 C 772.001 0.729854 -1.53646 0
M  V30 7832 O 773.186 0.67587 -1.82059 0
M  V30 7833 C 770.316 0.81024 -3.37716 0
M  V30 7834 C 769.27 0.0833126 -4.27919 0
M  V30 7835 C 768.596 1.11185 -5.23012 0
M  V30 7836 C 769.896 -1.07107 -5.112 0
M  V30 7837 H 771.59 -0.883452 -2.86069 0
M  V30 7838 H 769.136 -0.426283 -1.37546 0
M  V30 7839 H 771.089 1.25927 -4.02145 0
M  V30 7840 H 769.813 1.62413 -2.83354 0
M  V30 7841 H 768.472 -0.346043 -3.64963 0
M  V30 7842 H 768.12 1.91917 -4.64948 0
M  V30 7843 H 767.82 0.63026 -5.8421 0
M  V30 7844 H 769.344 1.56068 -5.90318 0
M  V30 7845 H 770.758 -0.700726 -5.69002 0
M  V30 7846 H 769.155 -1.48196 -5.81514 0
M  V30 7847 H 770.225 -1.89513 -4.46332 0
M  V30 7848 N 771.568 1.50203 -0.477153 0
M  V30 7849 C 772.814 2.02658 0.0758507 0
M  V30 7850 C 773.147 1.358 1.38824 0
M  V30 7851 O 772.422 0.485696 1.88338 0
M  V30 7852 C 772.705 3.59208 0.253339 0
M  V30 7853 C 772.558 4.36629 -1.0805 0
M  V30 7854 C 773.877 4.28469 1.00509 0
M  V30 7855 H 770.996 0.736538 0.0260921 0
M  V30 7856 H 773.638 1.79464 -0.623925 0
M  V30 7857 H 771.788 3.79101 0.849378 0
M  V30 7858 H 773.46 4.28292 -1.71358 0
M  V30 7859 H 771.703 4.0013 -1.67566 0
M  V30 7860 H 772.374 5.44449 -0.909883 0
M  V30 7861 H 774.85 4.13087 0.499818 0
M  V30 7862 H 773.726 5.37804 1.09808 0
M  V30 7863 H 773.987 3.92057 2.04314 0
M  V30 7864 N 773.046 0.209999 1.56195 0
M  V30 7865 C 774.457 -0.299943 1.84275 0
M  V30 7866 C 774.808 -1.60314 1.1311 0
M  V30 7867 O 773.933 -2.1273 0.396874 0
M  V30 7868 C 774.528 -0.550986 3.3429 0
M  V30 7869 C 773.087 -1.00526 3.62728 0
M  V30 7870 C 772.234 -0.0619828 2.77231 0
M  V30 7871 H 775.185 0.433458 1.52666 0
M  V30 7872 H 775.206 -1.39846 3.53869 0
M  V30 7873 H 774.718 0.397669 3.86057 0
M  V30 7874 H 772.819 -1.96768 3.16407 0
M  V30 7875 H 772.932 -0.887664 4.70805 0
M  V30 7876 H 771.296 -0.566648 2.48317 0
M  V30 7877 H 772.079 0.881383 3.31793 0
M  V30 7878 N 774.524 -1.57472 -0.0634922 0
M  V30 7879 C 775.772 -1.87283 -0.759563 0
M  V30 7880 C 776.093 -0.803135 -1.77693 0
M  V30 7881 O 775.363 0.167293 -1.95184 0
M  V30 7882 H 773.943 -0.691106 -0.283516 0
M  V30 7883 H 776.605 -1.94864 -0.0376091 0
M  V30 7884 H 775.701 -2.85064 -1.27062 0
M  V30 7885 N 776.003 0.335068 -1.53997 0
M  V30 7886 C 776.951 1.43206 -1.83289 0
M  V30 7887 C 777.945 1.54081 -0.703953 0
M  V30 7888 O 779.151 1.56603 -0.887432 0
M  V30 7889 H 775.526 0.477655 -0.580818 0
M  V30 7890 H 777.497 1.15719 -2.75049 0
M  V30 7891 C 776.246 2.79602 -2.06683 0
M  V30 7892 H 775.569 2.72004 -2.93008 0
M  V30 7893 H 777.009 3.55459 -2.31139 0
M  V30 7894 C 775.468 3.25873 -0.854883 0
M  V30 7895 O 775.998 4.01657 -0.0584648 0
M  V30 7896 N 774.204 2.82777 -0.669729 0
M  V30 7897 H 773.751 2.21269 -1.31901 0
M  V30 7898 H 773.709 3.1409 0.13969 0
M  V30 7899 N 777.481 1.45874 0.596531 0
M  V30 7900 C 778.727 1.5069 1.35722 0
M  V30 7901 C 779.06 0.152506 1.936 0
M  V30 7902 O 778.335 -0.834411 1.75692 0
M  V30 7903 C 778.618 2.59474 2.4969 0
M  V30 7904 C 778.471 4.04396 1.96937 0
M  V30 7905 C 779.79 2.64451 3.51787 0
M  V30 7906 H 776.909 0.548611 0.492133 0
M  V30 7907 H 779.551 1.77741 0.671428 0
M  V30 7908 H 777.701 2.36539 3.08191 0
M  V30 7909 H 779.373 4.38576 1.43 0
M  V30 7910 H 777.616 4.14529 1.27859 0
M  V30 7911 H 778.287 4.76218 2.79143 0
M  V30 7912 H 780.763 2.85031 3.03145 0
M  V30 7913 H 779.639 3.42411 4.29006 0
M  V30 7914 H 779.9 1.69965 4.08123 0
M  V30 7915 N 778.959 -0.83999 1.33349 0
M  V30 7916 C 780.207 -1.59202 1.24496 0
M  V30 7917 C 780.528 -1.94077 -0.189499 0
M  V30 7918 O 779.798 -1.60868 -1.11796 0
M  V30 7919 H 778.378 -0.590276 0.457802 0
M  V30 7920 H 781.04 -1.00394 1.67054 0
M  V30 7921 H 780.136 -2.52247 1.83788 0
M  V30 7922 N 780.437 -1.16799 -1.0581 0
M  V30 7923 C 781.683 -0.953935 -1.78963 0
M  V30 7924 C 782.016 0.516638 -1.87202 0
M  V30 7925 O 781.291 1.38338 -1.36721 0
M  V30 7926 C 781.574 -1.58808 -3.23191 0
M  V30 7927 C 781.427 -3.13032 -3.23003 0
M  V30 7928 C 782.746 -1.2868 -4.20867 0
M  V30 7929 H 779.865 -0.347972 -0.64968 0
M  V30 7930 H 782.507 -1.44204 -1.23715 0
M  V30 7931 H 780.657 -1.17303 -3.70368 0
M  V30 7932 H 782.329 -3.63553 -2.83949 0
M  V30 7933 H 780.572 -3.46108 -2.61518 0
M  V30 7934 H 781.243 -3.52527 -4.24769 0
M  V30 7935 H 783.719 -1.6461 -3.82155 0
M  V30 7936 H 782.595 -1.75645 -5.20038 0
M  V30 7937 H 782.856 -0.206491 -4.41618 0
M  V30 7938 N 781.915 1.24427 -0.967243 0
M  V30 7939 C 782.863 2.27403 -0.488927 0
M  V30 7940 C 783.857 1.63388 0.447302 0
M  V30 7941 O 785.063 1.77085 0.322643 0
M  V30 7942 H 781.438 0.738921 -0.139643 0
M  V30 7943 H 783.409 2.65122 -1.36942 0
M  V30 7944 C 782.158 3.4709 0.205787 0
M  V30 7945 H 781.481 3.96591 -0.50551 0
M  V30 7946 H 782.921 4.2099 0.504296 0
M  V30 7947 C 781.38 3.04923 1.43261 0
M  V30 7948 O 781.91 3.12043 2.52967 0
M  V30 7949 N 780.116 2.59976 1.29849 0
M  V30 7950 H 779.663 2.54382 0.405876 0
M  V30 7951 H 779.621 2.32128 2.12047 0
M  V30 7952 N 783.393 0.737304 1.3929 0
M  V30 7953 C 784.804 0.355966 1.83275 0
M  V30 7954 C 785.155 -1.11295 1.6158 0
M  V30 7955 O 784.28 -1.85871 1.10819 0
M  V30 7956 C 784.875 0.63931 3.32713 0
M  V30 7957 C 783.434 0.31144 3.75109 0
M  V30 7958 C 782.581 0.900765 2.62262 0
M  V30 7959 H 785.532 0.934763 1.28249 0
M  V30 7960 H 785.553 -0.0881293 3.80398 0
M  V30 7961 H 785.065 1.70847 3.48472 0
M  V30 7962 H 783.166 -0.751791 3.64937 0
M  V30 7963 H 783.279 0.795611 4.72448 0
M  V30 7964 H 781.643 0.327239 2.52589 0
M  V30 7965 H 782.426 1.97463 2.80826 0
M  V30 7966 N 784.871 -1.49948 0.485112 0
M  V30 7967 C 786.118 -2.02396 -0.0650059 0
M  V30 7968 C 786.446 -1.36606 -1.38452 0
M  V30 7969 O 785.701 -0.485476 -1.89583 0
M  V30 7970 C 786 -3.56282 -0.282434 0
M  V30 7971 C 785.666 -4.40625 0.957106 0
M  V30 7972 C 784.328 -4.63393 1.29692 0
M  V30 7973 C 786.68 -4.89799 1.78176 0
M  V30 7974 C 784.008 -5.3258 2.4612 0
M  V30 7975 C 786.36 -5.60266 2.93743 0
M  V30 7976 C 785.024 -5.81284 3.28124 0
M  V30 7977 H 784.294 -0.740618 -0.0237873 0
M  V30 7978 H 786.941 -1.80416 0.642044 0
M  V30 7979 H 785.246 -3.76853 -1.07186 0
M  V30 7980 H 786.943 -3.94442 -0.722276 0
M  V30 7981 H 783.533 -4.23133 0.682384 0
M  V30 7982 H 787.717 -4.7205 1.53239 0
M  V30 7983 H 782.973 -5.47059 2.73014 0
M  V30 7984 H 787.147 -5.97347 3.5798 0
M  V30 7985 H 784.774 -6.34671 4.18446 0
M  V30 7986 N 786.349 -0.21828 -1.56081 0
M  V30 7987 C 787.595 0.414921 -1.9851 0
M  V30 7988 C 787.928 1.59648 -1.10573 0
M  V30 7989 O 787.203 1.93818 -0.162695 0
M  V30 7990 C 787.486 0.852647 -3.4986 0
M  V30 7991 C 787.339 -0.33232 -4.48571 0
M  V30 7992 C 788.658 1.70998 -4.05521 0
M  V30 7993 H 785.777 0.149344 -0.72171 0
M  V30 7994 H 788.419 -0.313858 -1.8739 0
M  V30 7995 H 786.569 1.47362 -3.59467 0
M  V30 7996 H 788.241 -0.970418 -4.50977 0
M  V30 7997 H 786.484 -0.980302 -4.22578 0
M  V30 7998 H 787.155 0.0168407 -5.51997 0
M  V30 7999 H 789.631 1.18606 -3.98838 0
M  V30 8000 H 788.507 1.98517 -5.11744 0
M  V30 8001 H 788.768 2.67219 -3.52202 0
M  V30 8002 N 787.827 1.57504 0.0551401 0
M  V30 8003 C 789.055 1.92294 0.76358 0
M  V30 8004 C 789.47 0.815774 1.70266 0
M  V30 8005 O 788.827 -0.209772 1.8129 0
M  V30 8006 C 788.878 3.26914 1.54302 0
M  V30 8007 O 788.599 4.33375 0.641666 0
M  V30 8008 C 790.1 3.75825 2.35097 0
M  V30 8009 H 787.32 0.635229 0.216159 0
M  V30 8010 H 789.864 2.0449 0.0204385 0
M  V30 8011 H 788.019 3.16196 2.23828 0
M  V30 8012 H 788.433 5.10927 1.1855 0
M  V30 8013 H 789.907 4.72603 2.8522 0
M  V30 8014 H 790.384 3.0568 3.15367 0
M  V30 8015 H 790.99 3.89542 1.70696 0
M  V30 8016 N 789.305 -0.326896 1.54172 0
M  V30 8017 C 790.554 -1.06274 1.71431 0
M  V30 8018 C 790.867 -1.89282 0.493123 0
M  V30 8019 O 792.073 -2.65933 0.54699 0
M  V30 8020 C 790.529 -1.93892 3.03206 0
M  V30 8021 C 790.137 -1.16011 4.32719 0
M  V30 8022 C 791.881 -2.67232 3.29829 0
M  V30 8023 C 789.788 -2.02755 5.55558 0
M  V30 8024 H 788.718 -0.400475 0.638855 0
M  V30 8025 H 791.369 -0.321184 1.80667 0
M  V30 8026 H 789.751 -2.71933 2.87869 0
M  V30 8027 H 790.925 -0.427643 4.58811 0
M  V30 8028 H 789.24 -0.54367 4.12836 0
M  V30 8029 H 791.837 -3.32434 4.18798 0
M  V30 8030 H 792.18 -3.34692 2.47562 0
M  V30 8031 H 792.713 -1.96255 3.46018 0
M  V30 8032 H 789.452 -1.3981 6.40417 0
M  V30 8033 H 788.972 -2.73745 5.33689 0
M  V30 8034 H 790.651 -2.61419 5.91835 0
M  V30 8035 N 790.784 -1.46188 -0.588786 0
M  V30 8036 C 792.012 -1.54743 -1.37339 0
M  V30 8037 C 792.427 -0.186446 -1.87877 0
M  V30 8038 O 791.784 0.815247 -1.63279 0
M  V30 8039 C 791.835 -2.54727 -2.56508 0
M  V30 8040 O 791.556 -3.85539 -2.08066 0
M  V30 8041 C 793.057 -2.73163 -3.49137 0
M  V30 8042 H 790.277 -0.523484 -0.419768 0
M  V30 8043 H 792.821 -1.91543 -0.716345 0
M  V30 8044 H 790.976 -2.20948 -3.18215 0
M  V30 8045 H 791.39 -4.39905 -2.85629 0
M  V30 8046 H 792.864 -3.47057 -4.2925 0
M  V30 8047 H 793.341 -1.79856 -4.00685 0
M  V30 8048 H 793.947 -3.08014 -2.9327 0
M  V30 8049 N 792.262 0.832906 -1.33792 0
M  V30 8050 C 793.678 1.1245 -1.13257 0
M  V30 8051 C 793.878 2.01369 0.0725832 0
M  V30 8052 O 792.934 2.41071 0.751082 0
M  V30 8053 C 794.247 1.78084 -2.42294 0
M  V30 8054 C 795.795 1.90624 -2.48257 0
M  V30 8055 C 796.27 2.59673 -3.77271 0
M  V30 8056 N 797.761 2.67181 -3.78376 0
M  V30 8057 C 798.496 3.21313 -4.74916 0
M  V30 8058 N 797.992 3.76086 -5.81835 0
M  V30 8059 N 799.785 3.19621 -4.62384 0
M  V30 8060 H 791.936 0.241244 -2.11026 0
M  V30 8061 H 794.199 0.169557 -0.932713 0
M  V30 8062 H 793.905 1.20209 -3.30519 0
M  V30 8063 H 793.779 2.78049 -2.5489 0
M  V30 8064 H 796.166 2.4765 -1.60478 0
M  V30 8065 H 796.247 0.89591 -2.39598 0
M  V30 8066 H 795.891 2.03304 -4.65435 0
M  V30 8067 H 795.821 3.61189 -3.8321 0
M  V30 8068 H 798.312 2.28346 -3.01108 0
M  V30 8069 H 798.625 4.15612 -6.51526 0
M  V30 8070 H 796.97 3.74357 -5.85561 0
M  V30 8071 H 800.161 2.76091 -3.7801 0
M  V30 8072 H 800.334 3.61504 -5.37791 0
M  V30 8073 N 793.74 1.17359 1.05189 0
M  V30 8074 C 794.67 0.91365 2.14883 0
M  V30 8075 C 795.651 -0.144365 1.69486 0
M  V30 8076 O 796.836 0.00587861 1.94199 0
M  V30 8077 C 793.966 0.426196 3.44675 0
M  V30 8078 C 792.92 1.4234 4.03638 0
M  V30 8079 C 792.246 0.793902 5.28773 0
M  V30 8080 C 793.546 2.7966 4.41121 0
M  V30 8081 H 795.24 1.831 2.36885 0
M  V30 8082 H 792.786 0.881781 1.13845 0
M  V30 8083 H 794.739 0.231767 4.20762 0
M  V30 8084 H 793.463 -0.526693 3.22325 0
M  V30 8085 H 792.122 1.60457 3.2962 0
M  V30 8086 H 791.77 -0.165824 5.02727 0
M  V30 8087 H 791.47 1.45959 5.69183 0
M  V30 8088 H 792.994 0.609747 6.07548 0
M  V30 8089 H 794.408 2.6526 5.08242 0
M  V30 8090 H 792.805 3.42807 4.92548 0
M  V30 8091 H 793.875 3.34068 3.51464 0
M  V30 8092 N 795.218 -1.23913 0.973828 0
M  V30 8093 C 796.181 -2.23367 0.51378 0
M  V30 8094 C 797.181 -1.55923 -0.39302 0
M  V30 8095 O 798.371 -1.73187 -0.187626 0
M  V30 8096 C 795.503 -3.39944 -0.255152 0
M  V30 8097 H 796.696 -2.65581 1.39307 0
M  V30 8098 H 794.249 -1.36632 0.759039 0
M  V30 8099 H 794.984 -3.03177 -1.15127 0
M  V30 8100 H 794.769 -3.90098 0.395673 0
M  V30 8101 H 796.259 -4.13749 -0.565842 0
M  V30 8102 N 796.696 -0.74468 -1.38897 0
M  V30 8103 C 797.606 -0.112892 -2.34328 0
M  V30 8104 C 798.622 0.71087 -1.58816 0
M  V30 8105 O 799.798 0.637092 -1.91058 0
M  V30 8106 C 796.863 0.776417 -3.37894 0
M  V30 8107 C 795.924 -0.0606999 -4.29257 0
M  V30 8108 C 795.157 0.786258 -5.27877 0
M  V30 8109 O 795.38 2.02463 -5.33259 0
M  V30 8110 O 794.314 0.209781 -6.01534 0
M  V30 8111 H 798.14 -0.900801 -2.90033 0
M  V30 8112 H 795.725 -0.505462 -1.4059 0
M  V30 8113 H 797.607 1.28496 -4.01331 0
M  V30 8114 H 796.282 1.54297 -2.84559 0
M  V30 8115 H 795.189 -0.614984 -3.69011 0
M  V30 8116 H 796.522 -0.789702 -4.85824 0
M  V30 8117 N 798.174 1.49689 -0.493057 0
M  V30 8118 C 799.59 1.58907 -0.148526 0
M  V30 8119 C 799.79 1.4991 1.34645 0
M  V30 8120 O 798.846 1.36893 2.12171 0
M  V30 8121 C 800.159 2.91996 -0.718265 0
M  V30 8122 C 801.707 3.05443 -0.683658 0
M  V30 8123 C 802.182 4.41138 -1.23132 0
M  V30 8124 N 803.673 4.47608 -1.19167 0
M  V30 8125 C 804.408 5.51038 -1.5857 0
M  V30 8126 N 803.904 6.61612 -2.05528 0
M  V30 8127 N 805.697 5.41706 -1.50036 0
M  V30 8128 H 797.848 1.5378 -1.46511 0
M  V30 8129 H 800.111 0.727996 -0.607228 0
M  V30 8130 H 799.817 3.04123 -1.7664 0
M  V30 8131 H 799.691 3.76798 -0.17419 0
M  V30 8132 H 802.078 2.92949 0.355626 0
M  V30 8133 H 802.159 2.22344 -1.26479 0
M  V30 8134 H 801.803 4.54382 -2.26935 0
M  V30 8135 H 801.733 5.22864 -0.626201 0
M  V30 8136 H 804.224 3.68274 -0.847524 0
M  V30 8137 H 804.537 7.36622 -2.33685 0
M  V30 8138 H 802.882 6.62674 -2.09497 0
M  V30 8139 H 806.073 4.54212 -1.13176 0
M  V30 8140 H 806.246 6.22188 -1.81068 0
M  V30 8141 N 799.652 0.226554 1.55963 0
M  V30 8142 C 800.6 -0.697922 2.21882 0
M  V30 8143 C 801.594 -1.19586 1.19981 0
M  V30 8144 O 802.8 -1.15511 1.38048 0
M  V30 8145 H 799.175 -0.243501 0.711485 0
M  V30 8146 H 801.146 -0.118576 2.98164 0
M  V30 8147 C 799.895 -1.89309 2.91646 0
M  V30 8148 H 799.218 -1.51906 3.69817 0
M  V30 8149 H 800.658 -2.51762 3.41162 0
M  V30 8150 C 799.117 -2.75162 1.94391 0
M  V30 8151 O 799.647 -3.74071 1.46402 0
M  V30 8152 N 797.853 -2.41302 1.61932 0
M  V30 8153 H 797.4 -1.60923 2.01151 0
M  V30 8154 H 797.358 -2.99023 0.971219 0
M  V30 8155 N 801.13 -1.57531 -0.0467866 0
M  V30 8156 C 802.063 -2.00734 -1.08541 0
M  V30 8157 C 803.041 -0.888508 -1.36177 0
M  V30 8158 O 804.225 -1.1529 -1.49132 0
M  V30 8159 C 801.352 -2.36535 -2.42423 0
M  V30 8160 C 800.398 -3.58681 -2.3076 0
M  V30 8161 S 801.231 -5.08536 -1.67785 0
M  V30 8162 C 802.387 -5.47562 -3.03194 0
M  V30 8163 H 802.62 -2.88516 -0.717345 0
M  V30 8164 H 800.153 -1.5226 -0.256181 0
M  V30 8165 H 802.111 -2.57834 -3.19424 0
M  V30 8166 H 800.772 -1.49236 -2.76382 0
M  V30 8167 H 799.965 -3.81329 -3.29552 0
M  V30 8168 H 799.567 -3.37142 -1.61899 0
M  V30 8169 H 801.859 -5.47163 -3.99524 0
M  V30 8170 H 802.802 -6.48082 -2.85299 0
M  V30 8171 H 803.21 -4.75042 -3.04951 0
M  V30 8172 N 802.608 0.318715 -1.54344 0
M  V30 8173 C 803.885 1.07461 -1.63437 0
M  V30 8174 C 804.265 2.05771 -0.47131 0
M  V30 8175 O 803.613 2.22175 0.53391 0
M  V30 8176 C 803.823 1.77224 -3.00654 0
M  V30 8177 C 805.171 2.30069 -3.56866 0
M  V30 8178 O 806.195 1.87284 -3.0299 0
M  V30 8179 O 805.054 3.08412 -4.51159 0
M  V30 8180 H 802.148 0.495627 -0.66203 0
M  V30 8181 H 804.694 0.318218 -1.6669 0
M  V30 8182 H 803.466 1.05742 -3.76742 0
M  V30 8183 H 803.089 2.59662 -3.01101 0
M  V30 8184 N 804.086 1.46499 0.581025 0
M  V30 8185 C 805.033 1.5719 1.68997 0
M  V30 8186 C 806.003 0.416114 1.60803 0
M  V30 8187 O 807.188 0.633086 1.79991 0
M  V30 8188 C 804.328 1.56973 3.07333 0
M  V30 8189 C 803.441 2.83298 3.26139 0
M  V30 8190 C 802.576 2.74574 4.54734 0
M  V30 8191 C 801.615 3.9583 4.66889 0
M  V30 8192 N 800.752 3.85482 5.86811 0
M  V30 8193 H 805.592 2.51914 1.59196 0
M  V30 8194 H 803.129 1.24975 0.775857 0
M  V30 8195 H 805.087 1.54832 3.87405 0
M  V30 8196 H 803.717 0.657803 3.16027 0
M  V30 8197 H 802.769 2.95411 2.3966 0
M  V30 8198 H 804.081 3.7316 3.30988 0
M  V30 8199 H 803.235 2.70548 5.43036 0
M  V30 8200 H 801.974 1.82354 4.52325 0
M  V30 8201 H 800.979 4.00186 3.77003 0
M  V30 8202 H 802.204 4.89148 4.71075 0
M  V30 8203 H 800.15 2.96051 5.85397 0
M  V30 8204 H 800.067 4.69002 5.92936 0
M  V30 8205 H 801.335 3.85434 6.7754 0
M  V30 8206 N 805.565 -0.825799 1.34232 0
M  V30 8207 C 806.814 -1.57686 1.2577 0
M  V30 8208 C 807.127 -1.94848 -0.171372 0
M  V30 8209 O 808.333 -2.68854 -0.378123 0
M  V30 8210 C 806.789 -2.84478 2.20454 0
M  V30 8211 C 806.397 -2.54629 3.68603 0
M  V30 8212 C 808.141 -3.625 2.20893 0
M  V30 8213 C 806.048 -3.77597 4.55164 0
M  V30 8214 H 804.978 -0.591809 0.467203 0
M  V30 8215 H 807.629 -0.909421 1.59379 0
M  V30 8216 H 806.011 -3.52832 1.79793 0
M  V30 8217 H 807.185 -1.94404 4.17784 0
M  V30 8218 H 805.5 -1.89888 3.70582 0
M  V30 8219 H 808.097 -4.538 2.82789 0
M  V30 8220 H 808.44 -3.98404 1.20746 0
M  V30 8221 H 808.973 -3.01086 2.59985 0
M  V30 8222 H 805.712 -3.46815 5.56237 0
M  V30 8223 H 805.232 -4.37116 4.10719 0
M  V30 8224 H 806.911 -4.45039 4.69627 0
M  V30 8225 N 807.043 -1.17915 -1.04565 0
M  V30 8226 C 808.292 -0.965816 -1.77073 0
M  V30 8227 C 808.605 0.506005 -1.88942 0
M  V30 8228 O 809.811 0.837717 -2.58253 0
M  V30 8229 C 808.267 -1.67894 -3.18339 0
M  V30 8230 C 807.875 -3.18972 -3.1458 0
M  V30 8231 C 809.619 -1.54823 -3.9526 0
M  V30 8232 C 807.526 -3.82946 -4.50674 0
M  V30 8233 H 806.456 -0.357729 -0.663736 0
M  V30 8234 H 809.107 -1.41235 -1.17153 0
M  V30 8235 H 807.489 -1.16016 -3.78624 0
M  V30 8236 H 808.663 -3.77835 -2.63776 0
M  V30 8237 H 806.978 -3.32127 -2.51159 0
M  V30 8238 H 809.575 -1.99984 -4.95894 0
M  V30 8239 H 809.918 -0.499727 -4.1329 0
M  V30 8240 H 810.451 -2.03953 -3.41538 0
M  V30 8241 H 807.19 -4.8782 -4.37849 0
M  V30 8242 H 806.71 -3.2887 -5.01602 0
M  V30 8243 H 808.389 -3.85518 -5.196 0
M  V30 8244 N 808.521 1.23394 -0.980386 0
M  V30 8245 C 809.746 1.96384 -0.666935 0
M  V30 8246 C 810.171 1.72087 0.759456 0
M  V30 8247 O 809.529 0.992328 1.51732 0
M  V30 8248 C 809.577 3.47499 -0.963177 0
M  V30 8249 O 808.681 4.12363 -0.0552051 0
M  V30 8250 H 808.022 0.614797 -0.250839 0
M  V30 8251 H 810.552 1.56831 -1.31398 0
M  V30 8252 H 810.562 3.97953 -0.899877 0
M  V30 8253 H 809.237 3.6451 -2.00264 0
M  V30 8254 H 807.814 3.72499 -0.172914 0
M  V30 8255 N 809.999 0.752036 1.385 0
M  V30 8256 C 811.224 0.316993 2.04963 0
M  V30 8257 C 811.649 -1.04582 1.56346 0
M  V30 8258 O 811.007 -1.66616 0.714755 0
M  V30 8259 C 811.055 0.347235 3.58924 0
M  V30 8260 O 810.159 -0.659296 4.07096 0
M  V30 8261 H 809.5 0.140652 0.648932 0
M  V30 8262 H 812.03 1.02272 1.77205 0
M  V30 8263 H 812.04 0.19757 4.07521 0
M  V30 8264 H 810.715 1.34157 3.93668 0
M  V30 8265 H 809.292 -0.474371 3.6987 0
M  V30 8266 N 811.477 -1.49425 0.500989 0
M  V30 8267 C 812.754 -1.9531 -0.106551 0
M  V30 8268 C 813.134 -1.44248 -1.54129 0
M  V30 8269 O 812.482 -0.656237 -2.18874 0
M  V30 8270 C 812.692 -3.48995 -0.0191972 0
M  V30 8271 C 814.04 -4.24161 -0.193129 0
M  V30 8272 O 815.064 -3.56075 -0.0943843 0
M  V30 8273 O 813.923 -5.45064 -0.395869 0
M  V30 8274 H 811.017 -0.82149 -0.0953068 0
M  V30 8275 H 813.563 -1.6007 0.563526 0
M  V30 8276 H 812.335 -3.78794 0.981353 0
M  V30 8277 H 811.958 -3.90852 -0.72942 0
M  V30 8278 N 812.955 -0.234822 -1.55841 0
M  V30 8279 C 814.204 0.393685 -1.97821 0
M  V30 8280 C 814.517 1.59947 -1.1259 0
M  V30 8281 O 815.723 2.29835 -1.44528 0
M  V30 8282 C 814.179 0.751811 -3.5196 0
M  V30 8283 C 813.787 -0.431898 -4.45913 0
M  V30 8284 C 815.531 1.34518 -4.02623 0
M  V30 8285 C 813.438 -0.0505976 -5.91378 0
M  V30 8286 H 812.368 0.150864 -0.738753 0
M  V30 8287 H 815.019 -0.333132 -1.80451 0
M  V30 8288 H 813.401 1.53642 -3.6498 0
M  V30 8289 H 814.575 -1.20935 -4.44647 0
M  V30 8290 H 812.89 -0.939385 -4.05666 0
M  V30 8291 H 815.487 1.64359 -5.08813 0
M  V30 8292 H 815.83 2.26554 -3.49255 0
M  V30 8293 H 816.363 0.623729 -3.9288 0
M  V30 8294 H 813.102 -0.937779 -6.48757 0
M  V30 8295 H 812.622 0.690898 -5.95808 0
M  V30 8296 H 814.301 0.37146 -6.45933 0
M  V30 8297 N 814.433 1.57553 0.0384317 0
M  V30 8298 C 815.365 2.02726 1.06934 0
M  V30 8299 C 816.378 0.938502 1.33026 0
M  V30 8300 O 817.567 1.21595 1.30678 0
M  V30 8301 C 814.667 2.37958 2.41308 0
M  V30 8302 C 813.84 3.69098 2.34703 0
M  V30 8303 C 812.899 3.91623 3.51451 0
M  V30 8304 O 811.925 4.628 3.31368 0
M  V30 8305 N 813.127 3.36538 4.72993 0
M  V30 8306 H 815.892 2.91781 0.684381 0
M  V30 8307 H 813.453 1.60307 0.226542 0
M  V30 8308 H 815.445 2.50172 3.18113 0
M  V30 8309 H 814.015 1.54621 2.71682 0
M  V30 8310 H 813.235 3.67325 1.43059 0
M  V30 8311 H 814.523 4.55144 2.27424 0
M  V30 8312 H 813.921 2.78828 4.92211 0
M  V30 8313 H 812.478 3.54148 5.47195 0
M  V30 8314 O 815.95 -0.181452 1.60477 0
M  V30 8315 H 816.641 -0.819067 1.75531 0
M  V30 END ATOM
M  V30 BEGIN BOND
M  V30 END BOND
M  V30 END CTAB
M  END
$$$$
