drugbank_target|P22676 Calretinin (DB11093; DB11348; DB13800; DB14481)
 OpenBabel12092121053D

  0  0  0     0  0            999 V3000
M  V30 BEGIN CTAB
M  V30 COUNTS 4384 4428 0 0 0
M  V30 BEGIN ATOM
M  V30 1 H -0.908 1.98254 -0.117106 0
M  V30 2 N 0 1.576 0 0
M  V30 3 C 0.933 2.03868 1.02534 0
M  V30 4 C 1.911 0.928543 1.3348 0
M  V30 5 O 3.095 1.19667 1.45644 0
M  V30 6 C 0.222 2.43627 2.35294 0
M  V30 7 C -0.732 3.65373 2.2001 0
M  V30 8 S 0.101 5.13292 1.52614 0
M  V30 9 C 1.257 5.56322 2.86805 0
M  V30 10 H 1.49 2.90518 0.631377 0
M  V30 11 H -0.977 1.52953 0.210867 0
M  V30 12 H 0.981 2.67203 3.11629 0
M  V30 13 H -0.358 1.57376 2.7183 0
M  V30 14 H -1.165 3.90944 3.18086 0
M  V30 15 H -1.563 3.418 1.51819 0
M  V30 16 H 0.729 5.58782 3.83104 0
M  V30 17 H 1.672 6.56266 2.65933 0
M  V30 18 H 2.08 4.83886 2.90714 0
M  V30 19 N 1.4781 -0.272755 1.55222 0
M  V30 20 C 2.4411 -1.32041 1.87344 0
M  V30 21 C 3.4411 -1.42342 0.74803 0
M  V30 22 O 4.6311 -1.41488 1.0162 0
M  V30 23 C 1.7631 -2.70173 2.07893 0
M  V30 24 H 2.9561 -1.04789 2.80997 0
M  V30 25 H 0.5091 -0.51083 1.47717 0
M  V30 26 H 1.2441 -3.02605 1.16622 0
M  V30 27 H 1.0291 -2.64082 2.89833 0
M  V30 28 H 2.5191 -3.45869 2.34017 0
M  V30 29 N 2.9562 -1.48159 -0.537278 0
M  V30 30 C 4.2042 -1.55497 -1.29094 0
M  V30 31 C 4.5252 -0.227454 -1.93669 0
M  V30 32 O 3.7952 0.750386 -1.80959 0
M  V30 33 H 2.3752 -0.572832 -0.47945 0
M  V30 34 H 5.0372 -1.84579 -0.625818 0
M  V30 35 H 4.1332 -2.33216 -2.07405 0
M  V30 36 N 4.4343 0.785586 -1.36625 0
M  V30 37 C 5.8453 1.36101 -1.27803 0
M  V30 38 C 6.1963 1.96035 0.0804875 0
M  V30 39 O 5.3213 1.92834 0.982042 0
M  V30 40 C 5.9163 2.47442 -2.31426 0
M  V30 41 C 4.4753 3.00789 -2.26281 0
M  V30 42 C 3.6223 1.73896 -2.15999 0
M  V30 43 H 6.5733 0.586928 -1.47448 0
M  V30 44 H 6.5943 3.2656 -1.95291 0
M  V30 45 H 6.1063 2.03791 -3.30289 0
M  V30 46 H 4.2073 3.48851 -1.30896 0
M  V30 47 H 4.3203 3.57343 -3.19128 0
M  V30 48 H 2.6843 1.9628 -1.62316 0
M  V30 49 H 3.4673 1.32368 -3.16755 0
M  V30 50 N 5.9124 1.20967 1.01018 0
M  V30 51 C 6.8444 0.922059 2.09835 0
M  V30 52 C 7.8574 -0.0927106 1.62536 0
M  V30 53 O 9.0464 0.139127 1.77957 0
M  V30 54 C 6.1464 0.362004 3.36961 0
M  V30 55 C 5.3194 1.42986 4.13369 0
M  V30 56 C 4.3784 0.879976 5.1879 0
M  V30 57 O 3.4044 1.56219 5.47343 0
M  V30 58 N 4.6064 -0.307396 5.79686 0
M  V30 59 H 7.3714 1.8588 2.35093 0
M  V30 60 H 4.9324 1.11422 1.1746 0
M  V30 61 H 6.9244 -0.0201474 4.04695 0
M  V30 62 H 5.4944 -0.479437 3.08902 0
M  V30 63 H 4.7144 1.98608 3.40512 0
M  V30 64 H 6.0024 2.14885 4.61196 0
M  V30 65 H 5.4004 -0.878796 5.58832 0
M  V30 66 H 3.9574 -0.631115 6.48737 0
M  V30 67 N 7.3905 -1.2043 1.01659 0
M  V30 68 C 8.3225 -2.22626 0.544988 0
M  V30 69 C 9.3355 -1.58479 -0.372609 0
M  V30 70 O 10.5245 -1.77679 -0.170958 0
M  V30 71 C 7.6245 -3.38141 -0.22663 0
M  V30 72 C 6.7975 -4.31877 0.692876 0
M  V30 73 C 5.8565 -5.26191 -0.0311616 0
M  V30 74 O 4.8825 -5.6612 0.591343 0
M  V30 75 N 6.0845 -5.65618 -1.30601 0
M  V30 76 H 8.8495 -2.63716 1.42388 0
M  V30 77 H 6.4105 -1.34971 0.894116 0
M  V30 78 H 8.4025 -3.98239 -0.72024 0
M  V30 79 H 6.9725 -2.95943 -1.00681 0
M  V30 80 H 6.1925 -3.69746 1.36679 0
M  V30 81 H 7.4805 -4.91426 1.31824 0
M  V30 82 H 6.8785 -5.3519 -1.83269 0
M  V30 83 H 5.4355 -6.28025 -1.74435 0
M  V30 84 N 8.8686 -0.792821 -1.36206 0
M  V30 85 C 9.8006 -0.151469 -2.28699 0
M  V30 86 C 10.8136 0.641262 -1.49638 0
M  V30 87 O 12.0026 0.475885 -1.72039 0
M  V30 88 C 9.1026 0.808424 -3.29117 0
M  V30 89 C 8.2756 0.0650202 -4.37352 0
M  V30 90 C 7.3346 0.941358 -5.17711 0
M  V30 91 O 6.3606 0.397352 -5.67811 0
M  V30 92 N 7.5626 2.2652 -5.3448 0
M  V30 93 H 10.3276 -0.945982 -2.84379 0
M  V30 94 H 7.8886 -0.647032 -1.48409 0
M  V30 95 H 9.8806 1.3986 -3.79765 0
M  V30 96 H 8.4506 1.5038 -2.74052 0
M  V30 97 H 7.6706 -0.706255 -3.87822 0
M  V30 98 H 8.9586 -0.447847 -5.06825 0
M  V30 99 H 8.3566 2.73128 -4.95396 0
M  V30 100 H 6.9136 2.80493 -5.88359 0
M  V30 101 N 10.3467 1.47872 -0.545128 0
M  V30 102 C 11.7577 1.86384 -0.108581 0
M  V30 103 C 12.1087 1.45309 1.31832 0
M  V30 104 O 11.2337 0.850641 1.9898 0
M  V30 105 C 11.8287 3.38265 -0.190274 0
M  V30 106 C 10.3877 3.75914 0.191164 0
M  V30 107 C 9.5347 2.71926 -0.543273 0
M  V30 108 H 12.4857 1.39561 -0.755537 0
M  V30 109 H 12.5067 3.75831 0.594217 0
M  V30 110 H 12.0187 3.6813 -1.2289 0
M  V30 111 H 10.1197 3.51665 1.23136 0
M  V30 112 H 10.2327 4.78836 -0.158987 0
M  V30 113 H 8.5967 2.54697 0.0122495 0
M  V30 114 H 9.3797 3.04634 -1.58282 0
M  V30 115 N 11.8248 0.280983 1.55075 0
M  V30 116 C 13.2358 -0.215629 1.85451 0
M  V30 117 C 13.5868 -1.54991 1.203 0
M  V30 118 O 12.7118 -2.10699 0.493435 0
M  V30 119 C 13.3068 -0.398026 3.36454 0
M  V30 120 C 11.8658 -0.838866 3.66933 0
M  V30 121 C 11.0128 0.064458 2.77225 0
M  V30 122 H 13.9638 0.502601 1.50531 0
M  V30 123 H 13.9848 -1.23569 3.59876 0
M  V30 124 H 13.4968 0.573241 3.83843 0
M  V30 125 H 11.5978 -1.8214 3.25048 0
M  V30 126 H 11.7108 -0.672123 4.74362 0
M  V30 127 H 10.0748 -0.452863 2.50642 0
M  V30 128 H 10.8578 1.03172 3.2743 0
M  V30 129 N 13.3029 -1.57598 0.00835791 0
M  V30 130 C 14.5329 -1.94931 -0.684496 0
M  V30 131 C 14.9409 -0.882233 -1.67372 0
M  V30 132 O 14.2839 0.146621 -1.83114 0
M  V30 133 C 14.3459 -3.283 -1.4649 0
M  V30 134 C 14.0099 -4.52548 -0.63634 0
M  V30 135 C 15.0069 -5.19839 0.0795586 0
M  V30 136 C 12.6919 -4.98942 -0.579849 0
M  V30 137 C 14.6859 -6.3183 0.840843 0
M  V30 138 C 12.3729 -6.10819 0.185155 0
M  V30 139 C 13.3709 -6.77121 0.894227 0
M  V30 140 O 13.0589 -7.86853 1.64673 0
M  V30 141 H 12.7909 -0.647249 -0.19505 0
M  V30 142 H 15.3449 -2.05318 0.0581272 0
M  V30 143 H 13.5749 -3.14345 -2.2522 0
M  V30 144 H 15.2639 -3.50685 -2.04389 0
M  V30 145 H 16.0299 -4.84979 0.0451202 0
M  V30 146 H 11.9089 -4.47155 -1.1213 0
M  V30 147 H 15.4529 -6.83513 1.39483 0
M  V30 148 H 11.3499 -6.4512 0.221384 0
M  V30 149 H 12.1179 -8.03412 1.56432 0
M  V30 150 N 14.781 0.264519 -1.55364 0
M  V30 151 C 15.711 1.33121 -1.91836 0
M  V30 152 C 16.692 1.51101 -0.781192 0
M  V30 153 O 17.877 1.64003 -1.04003 0
M  V30 154 C 15.007 2.68921 -2.19769 0
M  V30 155 C 13.961 2.65661 -3.35571 0
M  V30 156 C 13.287 4.05093 -3.49004 0
M  V30 157 C 14.587 2.24187 -4.71739 0
M  V30 158 H 16.281 1.02844 -2.81182 0
M  V30 159 H 13.827 0.493286 -1.35287 0
M  V30 160 H 15.78 3.43663 -2.43872 0
M  V30 161 H 14.504 3.00799 -1.27231 0
M  V30 162 H 13.163 1.93377 -3.1145 0
M  V30 163 H 12.811 4.34206 -2.53917 0
M  V30 164 H 12.511 4.03804 -4.26868 0
M  V30 165 H 14.035 4.81561 -3.75408 0
M  V30 166 H 15.449 2.88654 -4.9533 0
M  V30 167 H 13.846 2.34044 -5.52579 0
M  V30 168 H 14.916 1.19327 -4.69988 0
M  V30 169 N 16.2591 1.48442 0.529413 0
M  V30 170 C 17.2091 1.59407 1.63014 0
M  V30 171 C 18.1931 0.451166 1.54445 0
M  V30 172 O 19.3851 0.702635 1.62456 0
M  V30 173 C 16.5141 1.63746 3.01732 0
M  V30 174 C 15.6001 2.83518 3.15402 0
M  V30 175 N 15.9911 4.07929 2.99045 0
M  V30 176 C 14.2891 2.80862 3.46457 0
M  V30 177 C 14.9901 4.8829 3.16146 0
M  V30 178 N 13.9661 4.21117 3.43746 0
M  V30 179 H 17.7681 2.53343 1.48978 0
M  V30 180 H 15.2821 1.44821 0.734885 0
M  V30 181 H 17.2791 1.69695 3.80801 0
M  V30 182 H 15.9391 0.709264 3.16859 0
M  V30 183 H 16.9501 4.38357 2.75796 0
M  V30 184 H 13.6271 1.97301 3.67938 0
M  V30 185 H 15.0171 5.97028 3.08232 0
M  V30 186 N 17.7372 -0.778329 1.37039 0
M  V30 187 C 18.6672 -1.90546 1.34962 0
M  V30 188 C 19.6482 -1.68681 0.219274 0
M  V30 189 O 20.8332 -1.89634 0.418624 0
M  V30 190 C 17.9632 -3.27734 1.14925 0
M  V30 191 C 16.9172 -3.64147 2.24902 0
M  V30 192 C 16.2432 -4.99806 1.89996 0
M  V30 193 C 17.5432 -3.71579 3.67051 0
M  V30 194 H 19.2372 -1.92541 2.29277 0
M  V30 195 H 16.7832 -0.924948 1.10366 0
M  V30 196 H 18.7362 -4.06215 1.12104 0
M  V30 197 H 17.4602 -3.26154 0.170631 0
M  V30 198 H 16.1192 -2.8797 2.26868 0
M  V30 199 H 15.7672 -4.94759 0.906796 0
M  V30 200 H 15.4672 -5.25139 2.63634 0
M  V30 201 H 16.9912 -5.80694 1.88749 0
M  V30 202 H 18.4052 -4.40227 3.67251 0
M  V30 203 H 16.8022 -4.08405 4.39688 0
M  V30 204 H 17.8722 -2.72404 4.01154 0
M  V30 205 N 19.2153 -1.21501 -1.00376 0
M  V30 206 C 20.1783 -0.976927 -2.07337 0
M  V30 207 C 21.1783 0.0525322 -1.60714 0
M  V30 208 O 22.3683 -0.184869 -1.73216 0
M  V30 209 C 19.5003 -0.473423 -3.37597 0
M  V30 210 H 20.6933 -1.92587 -2.29892 0
M  V30 211 H 18.2463 -1.03217 -1.17371 0
M  V30 212 H 18.9813 0.480379 -3.20722 0
M  V30 213 H 18.7663 -1.216 -3.72768 0
M  V30 214 H 20.2563 -0.32675 -4.1632 0
M  V30 215 N 20.6934 1.19889 -1.02296 0
M  V30 216 C 21.6034 2.26571 -0.608508 0
M  V30 217 C 22.6194 1.70299 0.356964 0
M  V30 218 O 23.7954 2.00235 0.216326 0
M  V30 219 C 20.8604 3.46677 0.0402814 0
M  V30 220 C 19.9214 4.18153 -0.97194 0
M  V30 221 C 19.1544 5.32525 -0.354016 0
M  V30 222 O 19.3774 5.64112 0.844604 0
M  V30 223 O 18.3114 5.92242 -1.07391 0
M  V30 224 H 22.1374 2.64251 -1.49684 0
M  V30 225 H 19.7224 1.26629 -0.792809 0
M  V30 226 H 21.6044 4.19475 0.402324 0
M  V30 227 H 20.2794 3.10858 0.902707 0
M  V30 228 H 19.1864 3.47499 -1.38546 0
M  V30 229 H 20.5194 4.57927 -1.80454 0
M  V30 230 N 22.1715 0.800033 1.35784 0
M  V30 231 C 23.1015 0.220184 2.3246 0
M  V30 232 C 24.0825 -0.65073 1.57161 0
M  V30 233 O 25.2675 -0.582359 1.85263 0
M  V30 234 C 22.3975 -0.637353 3.41402 0
M  V30 235 C 21.3515 0.134531 4.27789 0
M  V30 236 C 20.6775 -0.844285 5.27992 0
M  V30 237 C 21.9775 1.32979 5.05088 0
M  V30 238 H 23.6715 1.02787 2.81203 0
M  V30 239 H 21.2175 0.495717 1.35199 0
M  V30 240 H 23.1705 -1.05302 4.08031 0
M  V30 241 H 21.8945 -1.47785 2.91251 0
M  V30 242 H 20.5535 0.531296 3.6273 0
M  V30 243 H 20.2015 -1.68011 4.74111 0
M  V30 244 H 19.9015 -0.332184 5.8666 0
M  V30 245 H 21.4255 -1.2583 5.97494 0
M  V30 246 H 22.8395 0.98934 5.64699 0
M  V30 247 H 21.2365 1.77593 5.7322 0
M  V30 248 H 22.3065 2.11978 4.36111 0
M  V30 249 N 23.6496 -1.47581 0.552962 0
M  V30 250 C 24.8776 -2.06875 0.0320556 0
M  V30 251 C 25.2926 -1.40625 -1.25976 0
M  V30 252 O 24.6496 -0.501349 -1.75479 0
M  V30 253 C 24.7006 -3.61092 -0.17167 0
M  V30 254 O 24.4216 -4.24858 1.06899 0
M  V30 255 C 25.9226 -4.37242 -0.730344 0
M  V30 256 H 23.1426 -0.669561 0.043915 0
M  V30 257 H 25.6866 -1.89646 0.765163 0
M  V30 258 H 23.8416 -3.7785 -0.854894 0
M  V30 259 H 24.2556 -5.17334 0.864059 0
M  V30 260 H 25.7296 -5.45842 -0.822203 0
M  V30 261 H 26.2066 -4.03235 -1.74064 0
M  V30 262 H 26.8126 -4.25219 -0.0829543 0
M  V30 263 N 25.1277 -0.289203 -1.54924 0
M  V30 264 C 26.0907 0.579144 -2.21762 0
M  V30 265 C 27.0907 1.07047 -1.1999 0
M  V30 266 O 28.2807 0.968384 -1.44803 0
M  V30 267 C 25.4127 1.80055 -2.8947 0
M  V30 268 H 26.6057 -0.00464908 -2.999 0
M  V30 269 H 24.1587 -0.0399306 -1.56249 0
M  V30 270 H 24.8937 2.42449 -2.15381 0
M  V30 271 H 24.6787 1.45602 -3.64064 0
M  V30 272 H 26.1687 2.41773 -3.40493 0
M  V30 273 N 26.6058 1.57591 -0.0167156 0
M  V30 274 C 27.8308 1.9598 0.67872 0
M  V30 275 C 28.2558 0.892546 1.65575 0
M  V30 276 O 27.6138 -0.147772 1.80697 0
M  V30 277 C 27.6618 3.33468 1.37227 0
M  V30 278 O 26.7658 3.28954 2.48722 0
M  V30 279 H 26.1068 0.639339 0.17928 0
M  V30 280 H 28.6368 2.04463 -0.0748802 0
M  V30 281 H 28.6468 3.69417 1.7319 0
M  V30 282 H 27.3218 4.10694 0.656007 0
M  V30 283 H 25.8988 3.04705 2.14963 0
M  V30 284 N 28.0839 -0.256276 1.55502 0
M  V30 285 C 29.0159 -1.33981 1.85962 0
M  V30 286 C 30.0289 -1.44743 0.745212 0
M  V30 287 O 31.2179 -1.4626 1.02324 0
M  V30 288 C 28.3179 -2.7194 2.02242 0
M  V30 289 C 27.4909 -2.83562 3.33033 0
M  V30 290 C 26.5499 -4.02304 3.39172 0
M  V30 291 O 25.5759 -3.92273 4.12444 0
M  V30 292 N 26.7779 -5.15045 2.67784 0
M  V30 293 H 29.5429 -1.08191 2.7949 0
M  V30 294 H 27.1039 -0.446388 1.55624 0
M  V30 295 H 29.0959 -3.49697 2.03701 0
M  V30 296 H 27.6659 -2.90479 1.15502 0
M  V30 297 H 26.8859 -1.92555 3.43971 0
M  V30 298 H 28.1739 -2.88271 4.19258 0
M  V30 299 H 27.5719 -5.26085 2.07968 0
M  V30 300 H 26.1289 -5.90972 2.74947 0
M  V30 301 N 29.562 -1.4872 -0.521534 0
M  V30 302 C 30.809 -1.57168 -1.27689 0
M  V30 303 C 31.137 -0.249275 -1.92896 0
M  V30 304 O 30.392 0.761162 -1.80291 0
M  V30 305 C 30.691 -2.66497 -2.38148 0
M  V30 306 C 30.357 -4.08664 -1.90538 0
M  V30 307 C 29.019 -4.47357 -1.77271 0
M  V30 308 C 31.371 -4.97724 -1.54663 0
M  V30 309 C 28.699 -5.72905 -1.26478 0
M  V30 310 C 31.051 -6.2377 -1.05329 0
M  V30 311 C 29.715 -6.61311 -0.906861 0
M  V30 312 H 28.985 -0.575117 -0.467249 0
M  V30 313 H 31.632 -1.82472 -0.581051 0
M  V30 314 H 29.937 -2.35085 -3.13437 0
M  V30 315 H 31.634 -2.70246 -2.96257 0
M  V30 316 H 28.224 -3.78111 -2.01816 0
M  V30 317 H 32.408 -4.68501 -1.63768 0
M  V30 318 H 27.664 -6.00709 -1.13835 0
M  V30 319 H 31.838 -6.9217 -0.76644 0
M  V30 320 H 29.465 -7.5848 -0.511083 0
M  V30 321 N 31.0401 0.771051 -1.3745 0
M  V30 322 C 31.9701 1.89827 -1.3597 0
M  V30 323 C 32.9511 1.68562 -0.228216 0
M  V30 324 O 34.1361 1.8941 -0.428675 0
M  V30 325 C 31.2661 3.2712 -1.16662 0
M  V30 326 C 30.2201 3.6295 -2.2683 0
M  V30 327 C 29.5461 4.98791 -1.92644 0
M  V30 328 C 30.8461 3.69627 -3.69017 0
M  V30 329 H 32.5401 1.91323 -2.30295 0
M  V30 330 H 30.0861 0.919082 -1.10855 0
M  V30 331 H 32.0391 4.05615 -1.14256 0
M  V30 332 H 30.7631 3.26059 -0.187926 0
M  V30 333 H 29.4221 2.86763 -2.28392 0
M  V30 334 H 29.0701 4.94271 -0.933021 0
M  V30 335 H 28.7701 5.23733 -2.66416 0
M  V30 336 H 30.2941 5.79685 -1.91826 0
M  V30 337 H 31.7081 4.38273 -3.69581 0
M  V30 338 H 30.1051 4.06067 -4.41848 0
M  V30 339 H 31.1751 2.70273 -4.02592 0
M  V30 340 N 32.5182 1.22032 0.997298 0
M  V30 341 C 33.4282 1.00271 2.12092 0
M  V30 342 C 34.4442 -0.047621 1.73935 0
M  V30 343 O 35.6202 0.144136 2.00884 0
M  V30 344 C 32.6852 0.578449 3.4184 0
M  V30 345 C 31.7462 1.70189 3.94125 0
M  V30 346 C 30.9792 1.29778 5.17681 0
M  V30 347 O 31.2022 0.174676 5.70132 0
M  V30 348 O 30.1362 2.11261 5.63607 0
M  V30 349 H 33.9622 1.94398 2.3333 0
M  V30 350 H 31.5472 1.00587 1.10465 0
M  V30 351 H 33.4292 0.351998 4.19927 0
M  V30 352 H 32.1042 -0.334019 3.21972 0
M  V30 353 H 31.0112 1.98282 3.1723 0
M  V30 354 H 32.3442 2.59206 4.18417 0
M  V30 355 N 33.9963 -1.19345 1.0293 0
M  V30 356 C 35.2453 -1.88363 0.721256 0
M  V30 357 C 35.5583 -1.80514 -0.753254 0
M  V30 358 O 36.7643 -2.44788 -1.17436 0
M  V30 359 C 35.2203 -3.37872 1.23978 0
M  V30 360 C 34.8283 -3.54278 2.74211 0
M  V30 361 C 36.5723 -4.12365 1.00775 0
M  V30 362 C 34.4793 -4.97682 3.19479 0
M  V30 363 H 33.4093 -0.705484 0.266098 0
M  V30 364 H 36.0603 -1.34928 1.24365 0
M  V30 365 H 34.4423 -3.90707 0.6453 0
M  V30 366 H 35.6163 -3.11769 3.39318 0
M  V30 367 H 33.9313 -2.93174 2.95699 0
M  V30 368 H 36.5283 -5.18119 1.32123 0
M  V30 369 H 36.8713 -4.16263 -0.0554308 0
M  V30 370 H 37.4043 -3.65668 1.56625 0
M  V30 371 H 34.1433 -4.98945 4.25128 0
M  V30 372 H 33.6633 -5.4095 2.591 0
M  V30 373 H 35.3423 -5.66337 3.12845 0
M  V30 374 N 35.4744 -0.807222 -1.35358 0
M  V30 375 C 36.7204 -0.397594 -1.99476 0
M  V30 376 C 37.0754 1.02405 -1.62883 0
M  V30 377 O 36.3684 1.70077 -0.882282 0
M  V30 378 C 36.5624 -0.519036 -3.53611 0
M  V30 379 C 36.3914 -1.95094 -4.05177 0
M  V30 380 C 35.1614 -2.57945 -4.34503 0
M  V30 381 C 37.3594 -2.91558 -4.23673 0
M  V30 382 N 35.3414 -3.92539 -4.72003 0
M  V30 383 C 36.7124 -4.11024 -4.64176 0
M  V30 384 C 38.7674 -2.88381 -4.05883 0
M  V30 385 C 37.4704 -5.27745 -4.88751 0
M  V30 386 C 39.4964 -4.04306 -4.31614 0
M  V30 387 C 38.8584 -5.22519 -4.72391 0
M  V30 388 H 34.9574 -0.193274 -0.75774 0
M  V30 389 H 37.5414 -1.0486 -1.6405 0
M  V30 390 H 35.7124 0.101979 -3.88266 0
M  V30 391 H 37.4444 -0.0839321 -4.04613 0
M  V30 392 H 34.1994 -2.09295 -4.24844 0
M  V30 393 H 34.6234 -4.61836 -4.95011 0
M  V30 394 H 39.2654 -1.98137 -3.73499 0
M  V30 395 H 36.9834 -6.1856 -5.20008 0
M  V30 396 H 40.5694 -4.03229 -4.19402 0
M  V30 397 H 39.4494 -6.1073 -4.91913 0
M  V30 398 N 36.9525 1.47285 -0.560781 0
M  V30 399 C 37.8995 2.30058 0.18491 0
M  V30 400 C 38.8695 1.39281 0.904986 0
M  V30 401 O 40.0545 1.68241 0.899979 0
M  V30 402 C 37.1945 3.23317 1.20666 0
M  V30 403 C 36.3075 4.29186 0.492285 0
M  V30 404 C 35.4425 5.09592 1.49964 0
M  V30 405 C 34.4815 6.07232 0.770439 0
M  V30 406 N 33.6185 6.80584 1.72479 0
M  V30 407 H 38.4585 2.93302 -0.527048 0
M  V30 408 H 35.9955 1.44568 -0.271738 0
M  V30 409 H 37.9535 3.75811 1.81168 0
M  V30 410 H 36.5835 2.61929 1.88661 0
M  V30 411 H 35.6355 3.7972 -0.227333 0
M  V30 412 H 36.9475 4.98738 -0.0787929 0
M  V30 413 H 36.1015 5.66254 2.17809 0
M  V30 414 H 34.8405 4.3995 2.10464 0
M  V30 415 H 33.8455 5.49745 0.0780846 0
M  V30 416 H 35.0705 6.78884 0.171134 0
M  V30 417 H 33.0165 6.1367 2.3183 0
M  V30 418 H 32.9335 7.46319 1.20596 0
M  V30 419 H 34.2015 7.41818 2.39428 0
M  V30 420 N 38.4306 0.297415 1.54768 0
M  V30 421 C 39.3806 -0.595275 2.20092 0
M  V30 422 C 40.3646 -1.10163 1.17273 0
M  V30 423 O 41.5566 -1.043 1.43006 0
M  V30 424 C 38.6856 -1.7684 2.94249 0
M  V30 425 C 37.7716 -1.27818 4.0438 0
M  V30 426 N 38.1626 -0.505695 5.03266 0
M  V30 427 C 36.4606 -1.55923 4.17857 0
M  V30 428 C 37.1616 -0.245094 5.81183 0
M  V30 429 N 36.1376 -0.823881 5.3732 0
M  V30 430 H 39.9396 0.00250837 2.939 0
M  V30 431 H 37.4536 0.102007 1.62079 0
M  V30 432 H 39.4506 -2.41944 3.39513 0
M  V30 433 H 38.1106 -2.36992 2.21957 0
M  V30 434 H 39.1216 -0.150928 5.1768 0
M  V30 435 H 35.7986 -2.16849 3.56767 0
M  V30 436 H 37.1886 0.375084 6.70852 0
M  V30 437 N 39.9087 -1.5758 0.0250728 0
M  V30 438 C 41.1557 -1.91633 -0.654444 0
M  V30 439 C 41.4837 -0.901103 -1.72367 0
M  V30 440 O 40.7387 0.0905647 -1.9549 0
M  V30 441 C 41.0377 -3.32421 -1.31268 0
M  V30 442 C 40.7037 -4.49344 -0.374223 0
M  V30 443 C 39.3657 -4.8106 -0.115911 0
M  V30 444 C 41.7177 -5.20498 0.270432 0
M  V30 445 C 39.0457 -5.8129 0.79493 0
M  V30 446 C 41.3977 -6.21699 1.1693 0
M  V30 447 C 40.0617 -6.51859 1.43655 0
M  V30 448 H 39.3317 -0.701236 -0.239478 0
M  V30 449 H 41.9787 -1.91307 0.0859734 0
M  V30 450 H 40.2837 -3.28989 -2.12775 0
M  V30 451 H 41.9807 -3.56038 -1.84494 0
M  V30 452 H 38.5707 -4.24579 -0.58573 0
M  V30 453 H 42.7547 -4.96229 0.0839194 0
M  V30 454 H 38.0107 -6.03005 1.00973 0
M  V30 455 H 42.1847 -6.75955 1.67504 0
M  V30 456 H 39.8117 -7.2934 2.144 0
M  V30 457 N 41.3868 0.248026 -1.55636 0
M  V30 458 C 42.6638 0.998988 -1.68165 0
M  V30 459 C 43.0438 2.03409 -0.564621 0
M  V30 460 O 42.3918 2.24378 0.432076 0
M  V30 461 C 42.6018 1.63334 -3.0842 0
M  V30 462 C 43.9498 2.13562 -3.66983 0
M  V30 463 O 44.9738 1.73277 -3.11213 0
M  V30 464 O 43.8328 2.87526 -4.64749 0
M  V30 465 H 40.9268 0.464933 -0.683935 0
M  V30 466 H 43.4728 0.241902 -1.67967 0
M  V30 467 H 42.2448 0.884583 -3.8117 0
M  V30 468 H 41.8678 2.45666 -3.12624 0
M  V30 469 N 42.8649 1.48995 0.513639 0
M  V30 470 C 43.8279 1.64229 1.59879 0
M  V30 471 C 44.8279 0.514696 1.5234 0
M  V30 472 O 46.0179 0.78087 1.55718 0
M  V30 473 C 43.1499 1.62783 2.99524 0
M  V30 474 H 44.3429 2.61004 1.47705 0
M  V30 475 H 41.8959 1.37837 0.736936 0
M  V30 476 H 42.6309 0.675461 3.17188 0
M  V30 477 H 42.4159 2.4466 3.06404 0
M  V30 478 H 43.9059 1.76669 3.78388 0
M  V30 479 N 44.343 -0.763751 1.37857 0
M  V30 480 C 45.62 -1.51244 1.24035 0
M  V30 481 C 46 -2.10472 -0.162649 0
M  V30 482 O 45.348 -1.96206 -1.17112 0
M  V30 483 C 45.558 -2.58694 2.34261 0
M  V30 484 C 46.906 -3.25878 2.72193 0
M  V30 485 O 47.93 -2.68993 2.33497 0
M  V30 486 O 46.789 -4.2874 3.38887 0
M  V30 487 H 43.883 -0.670243 0.484462 0
M  V30 488 H 46.429 -0.800031 1.49658 0
M  V30 489 H 45.201 -2.13105 3.2818 0
M  V30 490 H 44.824 -3.37527 2.10146 0
M  V30 491 N 45.8211 -1.22559 -0.990812 0
M  V30 492 C 47.0691 -1.04933 -1.72724 0
M  V30 493 C 47.3901 0.416158 -1.90508 0
M  V30 494 O 46.6601 1.29918 -1.46622 0
M  V30 495 H 45.2401 -0.385296 -0.639965 0
M  V30 496 H 47.9021 -1.54105 -1.19322 0
M  V30 497 H 46.9981 -1.52886 -2.72089 0
M  V30 498 N 47.2992 1.18797 -1.03562 0
M  V30 499 C 48.2472 2.24297 -0.615905 0
M  V30 500 C 49.2412 1.65643 0.354808 0
M  V30 501 O 50.4472 1.78618 0.22265 0
M  V30 502 H 46.8222 0.729909 -0.180934 0
M  V30 503 H 48.7932 2.5701 -1.5162 0
M  V30 504 C 47.5422 3.47698 0.0104735 0
M  V30 505 H 46.8652 3.93125 -0.727509 0
M  V30 506 H 48.3052 4.23159 0.266995 0
M  V30 507 C 46.7642 3.12489 1.25905 0
M  V30 508 O 47.2942 3.25761 2.35038 0
M  V30 509 N 45.5002 2.6686 1.15039 0
M  V30 510 H 45.0472 2.56261 0.262328 0
M  V30 511 H 45.0052 2.43674 1.98672 0
M  V30 512 N 48.7773 0.814389 1.34928 0
M  V30 513 C 50.0253 0.397636 1.9815 0
M  V30 514 C 50.3463 -1.04069 1.64908 0
M  V30 515 O 49.6163 -1.72121 0.93548 0
M  V30 516 H 48.1963 0.144043 0.732981 0
M  V30 517 H 50.8583 1.04195 1.6471 0
M  V30 518 H 49.9543 0.509688 3.0791 0
M  V30 519 N 50.2554 -1.46986 0.568584 0
M  V30 520 C 51.4854 -2.0653 0.0539173 0
M  V30 521 C 51.8934 -1.42004 -1.25026 0
M  V30 522 O 51.2364 -0.514541 -1.76347 0
M  V30 523 C 51.2984 -3.58938 -0.200854 0
M  V30 524 C 50.9624 -4.45572 1.01559 0
M  V30 525 C 51.9594 -4.82986 1.92407 0
M  V30 526 C 49.6444 -4.8692 1.23346 0
M  V30 527 C 51.6384 -5.60559 3.03402 0
M  V30 528 C 49.3254 -5.64255 2.34649 0
M  V30 529 C 50.3234 -6.00986 3.24507 0
M  V30 530 O 50.0114 -6.76761 4.33878 0
M  V30 531 H 49.7434 -0.674292 0.0480234 0
M  V30 532 H 52.2974 -1.89812 0.784896 0
M  V30 533 H 50.5274 -3.73911 -0.986279 0
M  V30 534 H 52.2164 -4.0046 -0.662294 0
M  V30 535 H 52.9824 -4.51633 1.76785 0
M  V30 536 H 48.8614 -4.57789 0.543178 0
M  V30 537 H 52.4054 -5.89147 3.73565 0
M  V30 538 H 48.3024 -5.95021 2.5024 0
M  V30 539 H 49.0704 -6.95168 4.32068 0
M  V30 540 N 51.7335 -0.305618 -1.54608 0
M  V30 541 C 52.9825 0.303098 -1.9941 0
M  V30 542 C 53.2955 1.54648 -1.19764 0
M  V30 543 O 54.5015 2.23007 -1.54855 0
M  V30 544 C 52.9575 0.590588 -3.55021 0
M  V30 545 C 52.5655 -0.634719 -4.43481 0
M  V30 546 C 54.3095 1.16025 -4.08336 0
M  V30 547 C 52.2165 -0.320126 -5.90533 0
M  V30 548 H 51.1465 0.117031 -0.744862 0
M  V30 549 H 53.7975 -0.415045 -1.78745 0
M  V30 550 H 52.1795 1.36845 -3.71604 0
M  V30 551 H 53.3535 -1.41079 -4.38672 0
M  V30 552 H 51.6685 -1.12333 -4.00962 0
M  V30 553 H 54.2655 1.40994 -5.15776 0
M  V30 554 H 54.6085 2.10397 -3.5922 0
M  V30 555 H 55.1415 0.443985 -3.95315 0
M  V30 556 H 51.8805 -1.23254 -6.43808 0
M  V30 557 H 51.4005 0.418579 -5.98338 0
M  V30 558 H 53.0795 0.0766241 -6.46955 0
M  V30 559 N 53.2116 1.57565 -0.0334293 0
M  V30 560 C 54.1216 2.13943 0.962572 0
M  V30 561 C 55.1376 1.09276 1.35406 0
M  V30 562 O 56.3136 1.41355 1.4346 0
M  V30 563 C 53.3786 2.65887 2.22497 0
M  V30 564 C 52.4396 3.85286 1.8935 0
M  V30 565 C 51.6726 4.34743 3.09571 0
M  V30 566 O 51.8956 3.83352 4.22371 0
M  V30 567 O 50.8296 5.26538 2.91618 0
M  V30 568 H 54.6556 2.99333 0.513169 0
M  V30 569 H 52.2406 1.4822 0.18743 0
M  V30 570 H 54.1226 2.99346 2.96598 0
M  V30 571 H 52.7976 1.83578 2.6661 0
M  V30 572 H 51.7046 3.56746 1.1262 0
M  V30 573 H 53.0376 4.68771 1.5005 0
M  V30 574 N 54.6897 -0.239769 1.55765 0
M  V30 575 C 55.9377 -0.964892 1.77579 0
M  V30 576 C 56.2587 -1.85582 0.598699 0
M  V30 577 O 55.5287 -1.92075 -0.385226 0
M  V30 578 H 54.1087 -0.359265 0.654933 0
M  V30 579 H 56.7707 -0.256001 1.93211 0
M  V30 580 H 55.8667 -1.58243 2.69009 0
M  V30 581 N 56.1678 -1.49265 -0.50573 0
M  V30 582 C 57.1148 -1.65585 -1.6078 0
M  V30 583 C 58.0848 -0.497396 -1.58478 0
M  V30 584 O 59.2698 -0.72385 -1.76536 0
M  V30 585 C 56.4098 -1.72408 -2.98948 0
M  V30 586 C 55.5228 -2.99525 -3.11301 0
M  V30 587 C 54.6578 -2.97356 -4.40174 0
M  V30 588 C 53.6968 -4.19074 -4.46143 0
M  V30 589 N 52.8338 -4.14841 -5.66437 0
M  V30 590 H 57.6738 -2.59688 -1.46172 0
M  V30 591 H 55.2108 -1.28761 -0.711261 0
M  V30 592 H 57.1688 -1.74344 -3.79025 0
M  V30 593 H 55.7988 -0.817753 -3.1227 0
M  V30 594 H 54.8508 -3.07222 -2.24318 0
M  V30 595 H 56.1628 -3.89518 -3.11572 0
M  V30 596 H 55.3168 -2.97829 -5.28567 0
M  V30 597 H 54.0558 -2.05133 -4.42461 0
M  V30 598 H 53.0608 -4.1885 -3.56153 0
M  V30 599 H 54.2858 -5.12483 -4.45575 0
M  V30 600 H 52.2318 -3.25453 -5.69575 0
M  V30 601 H 52.1488 -4.98564 -5.68304 0
M  V30 602 H 53.4168 -4.1941 -6.57051 0
M  V30 603 N 57.6459 0.756429 -1.3826 0
M  V30 604 C 58.5559 1.9009 -1.37488 0
M  V30 605 C 59.5719 1.71855 -0.272366 0
M  V30 606 O 60.7479 1.94827 -0.510318 0
M  V30 607 C 57.8129 3.25421 -1.19592 0
M  V30 608 C 56.8739 3.56202 -2.39622 0
M  V30 609 C 56.1069 4.85075 -2.2257 0
M  V30 610 O 56.3299 5.57246 -1.21793 0
M  V30 611 O 55.2639 5.15269 -3.11098 0
M  V30 612 H 59.0899 1.93695 -2.33914 0
M  V30 613 H 56.6749 0.901313 -1.1915 0
M  V30 614 H 58.5569 4.06337 -1.11661 0
M  V30 615 H 57.2319 3.22634 -0.262486 0
M  V30 616 H 56.1389 2.75458 -2.53128 0
M  V30 617 H 57.4719 3.63747 -3.31586 0
M  V30 618 N 59.124 1.23083 0.984299 0
M  V30 619 C 60.054 1.03292 2.09411 0
M  V30 620 C 61.035 -0.048923 1.7003 0
M  V30 621 O 62.22 0.114967 1.93859 0
M  V30 622 C 59.35 0.619155 3.41736 0
M  V30 623 C 58.304 1.64791 3.95004 0
M  V30 624 C 57.63 1.0897 5.23478 0
M  V30 625 C 58.93 3.03999 4.24714 0
M  V30 626 H 60.624 1.96119 2.26225 0
M  V30 627 H 58.17 0.944344 1.08711 0
M  V30 628 H 60.123 0.467777 4.18796 0
M  V30 629 H 58.847 -0.344786 3.24775 0
M  V30 630 H 57.506 1.78721 3.20085 0
M  V30 631 H 57.154 0.11686 5.02864 0
M  V30 632 H 56.854 1.77704 5.60085 0
M  V30 633 H 58.378 0.950093 6.03163 0
M  V30 634 H 59.792 2.93393 4.92538 0
M  V30 635 H 58.189 3.69936 4.72512 0
M  V30 636 H 59.259 3.53285 3.32142 0
M  V30 637 N 60.6021 -1.18246 1.0419 0
M  V30 638 C 61.5121 -2.25574 0.644476 0
M  V30 639 C 62.5281 -1.70845 -0.329826 0
M  V30 640 O 63.7041 -2.00554 -0.184443 0
M  V30 641 C 60.7691 -3.46697 0.014877 0
M  V30 642 C 59.8301 -4.16554 1.03834 0
M  V30 643 C 59.0631 -5.31894 0.438692 0
M  V30 644 O 59.2861 -5.65385 -0.754752 0
M  V30 645 O 58.2201 -5.90459 1.168 0
M  V30 646 H 62.0461 -2.61836 1.53869 0
M  V30 647 H 59.6311 -1.25352 0.812854 0
M  V30 648 H 61.5131 -4.20062 -0.335538 0
M  V30 649 H 60.1881 -3.12255 -0.853138 0
M  V30 650 H 59.0951 -3.45251 1.44057 0
M  V30 651 H 60.4281 -4.54998 1.87716 0
M  V30 652 N 62.0802 -0.821533 -1.34494 0
M  V30 653 C 63.0282 -0.230702 -2.31453 0
M  V30 654 C 64.0222 0.627793 -1.57338 0
M  V30 655 O 65.2282 0.519288 -1.72347 0
M  V30 656 H 61.6032 -0.0558577 -0.749923 0
M  V30 657 H 63.5742 -1.06332 -2.78812 0
M  V30 658 C 62.3232 0.59391 -3.4259 0
M  V30 659 H 61.6462 -0.0573588 -3.99759 0
M  V30 660 H 63.0862 0.973446 -4.12674 0
M  V30 661 C 61.5452 1.76568 -2.86924 0
M  V30 662 O 62.0752 2.8638 -2.81691 0
M  V30 663 N 60.2812 1.58198 -2.43766 0
M  V30 664 H 59.8282 0.68872 -2.48222 0
M  V30 665 H 59.7862 2.36752 -2.06871 0
M  V30 666 N 63.5583 1.46682 -0.576371 0
M  V30 667 C 64.8053 2.02412 -0.0595339 0
M  V30 668 C 65.1333 1.44859 1.29793 0
M  V30 669 O 64.3883 0.601099 1.8624 0
M  V30 670 C 64.6873 3.57345 0.062886 0
M  V30 671 C 64.3533 4.33908 -1.22616 0
M  V30 672 C 63.0153 4.54544 -1.57933 0
M  V30 673 C 65.3673 4.77919 -2.07948 0
M  V30 674 C 62.6953 5.16444 -2.78393 0
M  V30 675 C 65.0473 5.41149 -3.27629 0
M  V30 676 C 63.7113 5.60014 -3.63236 0
M  V30 677 H 62.9813 0.74068 -0.021785 0
M  V30 678 H 65.6283 1.76128 -0.751735 0
M  V30 679 H 63.9333 3.82729 0.838178 0
M  V30 680 H 65.6303 3.98136 0.478439 0
M  V30 681 H 62.2203 4.18138 -0.941202 0
M  V30 682 H 66.4043 4.61738 -1.81967 0
M  V30 683 H 61.6603 5.29242 -3.06126 0
M  V30 684 H 65.8343 5.74211 -3.94023 0
M  V30 685 H 63.4613 6.07748 -4.56669 0
M  V30 686 N 65.0364 0.313813 1.54444 0
M  V30 687 C 66.2834 -0.291675 2.00388 0
M  V30 688 C 66.6114 -1.52904 1.2021 0
M  V30 689 O 65.8664 -1.93833 0.269707 0
M  V30 690 C 66.1654 -0.680386 3.50864 0
M  V30 691 C 65.8314 0.456699 4.48581 0
M  V30 692 C 64.4934 0.768824 4.75018 0
M  V30 693 C 66.8454 1.22098 5.06697 0
M  V30 694 C 64.1734 1.84812 5.56831 0
M  V30 695 C 66.5254 2.29029 5.89685 0
M  V30 696 C 65.1894 2.60834 6.14428 0
M  V30 697 H 64.4594 -0.106732 0.733273 0
M  V30 698 H 67.1064 0.43557 1.86481 0
M  V30 699 H 65.4114 -1.48791 3.62448 0
M  V30 700 H 67.1084 -1.16026 3.83847 0
M  V30 701 H 63.6984 0.203337 4.28117 0
M  V30 702 H 67.8824 0.993096 4.86263 0
M  V30 703 H 63.1384 2.09912 5.74236 0
M  V30 704 H 67.3124 2.887 6.33739 0
M  V30 705 H 64.9394 3.44596 6.77612 0
M  V30 706 N 66.5145 -1.57545 0.0417849 0
M  V30 707 C 67.4465 -2.07904 -0.964799 0
M  V30 708 C 68.4595 -1.00497 -1.28079 0
M  V30 709 O 69.6485 -1.28087 -1.24322 0
M  V30 710 C 66.7485 -2.49928 -2.28887 0
M  V30 711 C 65.9215 -3.80562 -2.15619 0
M  V30 712 C 64.9805 -4.08999 -3.31069 0
M  V30 713 O 64.0065 -4.79061 -3.0739 0
M  V30 714 N 65.2085 -3.6017 -4.55256 0
M  V30 715 H 67.9735 -2.94886 -0.535029 0
M  V30 716 H 65.5345 -1.61252 -0.144681 0
M  V30 717 H 67.5265 -2.66034 -3.04972 0
M  V30 718 H 66.0965 -1.68245 -2.63463 0
M  V30 719 H 65.3165 -3.74129 -1.24183 0
M  V30 720 H 66.6045 -4.66126 -2.03971 0
M  V30 721 H 66.0025 -3.03512 -4.77386 0
M  V30 722 H 64.5595 -3.81532 -5.28466 0
M  V30 723 N 67.9926 0.231505 -1.5589 0
M  V30 724 C 68.9026 1.308 -1.94752 0
M  V30 725 C 69.9186 1.51826 -0.849989 0
M  V30 726 O 71.0946 1.6515 -1.15271 0
M  V30 727 C 68.1596 2.63968 -2.24771 0
M  V30 728 C 67.2206 2.51331 -3.48039 0
M  V30 729 C 66.4536 3.78148 -3.76616 0
M  V30 730 O 66.6766 4.80722 -3.07022 0
M  V30 731 O 65.6106 3.75857 -4.70123 0
M  V30 732 H 69.4366 1.0083 -2.86474 0
M  V30 733 H 67.0216 0.433547 -1.42971 0
M  V30 734 H 68.9036 3.42633 -2.45318 0
M  V30 735 H 67.5786 2.9364 -1.36225 0
M  V30 736 H 66.4856 1.709 -3.32782 0
M  V30 737 H 67.8186 2.26601 -4.36936 0
M  V30 738 N 69.4707 1.49531 0.497807 0
M  V30 739 C 70.4007 1.6935 1.60757 0
M  V30 740 C 71.3817 0.542218 1.61227 0
M  V30 741 O 72.5667 0.778417 1.77917 0
M  V30 742 C 69.6967 1.76298 2.99226 0
M  V30 743 C 68.6507 2.91248 3.13622 0
M  V30 744 C 67.9767 2.83312 4.53474 0
M  V30 745 C 69.2767 4.3214 2.93346 0
M  V30 746 H 70.9707 2.62263 1.44425 0
M  V30 747 H 68.5167 1.26208 0.693367 0
M  V30 748 H 70.4697 1.88749 3.76765 0
M  V30 749 H 69.1937 0.799871 3.16654 0
M  V30 750 H 67.8527 2.78404 2.38509 0
M  V30 751 H 67.5007 1.84902 4.67782 0
M  V30 752 H 67.2007 3.60465 4.64046 0
M  V30 753 H 68.7247 2.97775 5.33069 0
M  V30 754 H 70.1387 4.45649 3.60652 0
M  V30 755 H 68.5357 5.1054 3.15387 0
M  V30 756 H 69.6057 4.46363 1.89441 0
M  V30 757 N 70.9488 -0.749086 1.3866 0
M  V30 758 C 71.8588 -1.89358 1.38494 0
M  V30 759 C 72.8748 -1.71708 0.281476 0
M  V30 760 O 74.0508 -1.94554 0.520643 0
M  V30 761 C 71.1158 -3.24782 1.21316 0
M  V30 762 C 70.1768 -3.54926 2.41508 0
M  V30 763 C 69.4098 -4.83888 2.2514 0
M  V30 764 O 69.6328 -5.56592 1.24746 0
M  V30 765 O 68.5668 -5.13612 3.13826 0
M  V30 766 H 72.3928 -1.92452 2.34938 0
M  V30 767 H 69.9778 -0.894981 1.19626 0
M  V30 768 H 71.8598 -4.05739 1.13814 0
M  V30 769 H 70.5348 -3.2249 0.279592 0
M  V30 770 H 69.4418 -2.74112 2.54585 0
M  V30 771 H 70.7748 -3.61983 3.3351 0
M  V30 772 N 72.4269 -1.23603 -0.977757 0
M  V30 773 C 73.3739 -1.01954 -2.07061 0
M  V30 774 C 74.3439 0.0638697 -1.65977 0
M  V30 775 O 75.5289 -0.0887624 -1.90593 0
M  V30 776 C 72.6689 -0.619658 -3.39491 0
M  V30 777 C 71.7819 -1.77547 -3.93829 0
M  V30 778 C 70.9169 -1.32212 -5.14484 0
M  V30 779 C 69.9559 -2.44852 -5.60994 0
M  V30 780 N 69.0929 -2.00456 -6.72876 0
M  V30 781 H 73.9329 -1.95495 -2.24913 0
M  V30 782 H 71.4699 -0.973861 -1.10247 0
M  V30 783 H 73.4279 -0.368898 -4.15566 0
M  V30 784 H 72.0579 0.278752 -3.21594 0
M  V30 785 H 71.1099 -2.14016 -3.14486 0
M  V30 786 H 72.4219 -2.62219 -4.24314 0
M  V30 787 H 71.5759 -1.02965 -5.97899 0
M  V30 788 H 70.3149 -0.445808 -4.85658 0
M  V30 789 H 69.3199 -2.74871 -4.76157 0
M  V30 790 H 70.5449 -3.33024 -5.91837 0
M  V30 791 H 68.4909 -1.15208 -6.45804 0
M  V30 792 H 68.4079 -2.78687 -7.02759 0
M  V30 793 H 69.6759 -1.7432 -7.59758 0
M  V30 794 N 73.905 1.17692 -1.04816 0
M  V30 795 C 74.868 2.19787 -0.650117 0
M  V30 796 C 75.868 1.58044 0.296427 0
M  V30 797 O 77.058 1.74012 0.0808097 0
M  V30 798 C 74.19 3.40869 0.0456987 0
M  V30 799 H 75.383 2.56516 -1.5537 0
M  V30 800 H 72.936 1.31708 -0.841594 0
M  V30 801 H 73.671 3.09681 0.962726 0
M  V30 802 H 73.456 3.86928 -0.634727 0
M  V30 803 H 74.946 4.16445 0.310432 0
M  V30 804 N 75.3831 0.828654 1.34056 0
M  V30 805 C 76.7991 0.515135 1.51058 0
M  V30 806 C 76.9991 -0.959581 1.77184 0
M  V30 807 O 76.0551 -1.74382 1.82612 0
M  V30 808 C 77.3681 1.37963 2.67183 0
M  V30 809 C 78.9161 1.37735 2.81066 0
M  V30 810 C 79.3911 2.22645 4.00241 0
M  V30 811 N 80.8821 2.203 4.07458 0
M  V30 812 C 81.6171 2.82744 4.98842 0
M  V30 813 N 81.1131 3.54201 5.9541 0
M  V30 814 N 82.9061 2.72268 4.91759 0
M  V30 815 H 75.0571 1.78343 1.15358 0
M  V30 816 H 77.3201 0.760304 0.566252 0
M  V30 817 H 77.0261 2.42714 2.54525 0
M  V30 818 H 76.9001 1.0484 3.62338 0
M  V30 819 H 79.2871 0.337593 2.93163 0
M  V30 820 H 79.3681 1.74859 1.86703 0
M  V30 821 H 79.0121 3.26674 3.88905 0
M  V30 822 H 78.9421 1.82869 4.93829 0
M  V30 823 H 81.4331 1.68327 3.38341 0
M  V30 824 H 81.7461 3.9908 6.61782 0
M  V30 825 H 80.0911 3.58308 5.95517 0
M  V30 826 H 83.2821 2.16014 4.15278 0
M  V30 827 H 83.4551 3.21219 5.62781 0
M  V30 828 N 76.8612 -1.46375 0.584142 0
M  V30 829 C 77.8082 -2.30323 -0.148286 0
M  V30 830 C 78.7782 -1.40703 -0.882713 0
M  V30 831 O 79.9632 -1.69651 -0.873099 0
M  V30 832 C 77.1032 -3.25196 -1.15507 0
M  V30 833 C 76.2162 -4.29915 -0.423943 0
M  V30 834 C 75.3512 -5.11914 -1.41838 0
M  V30 835 C 74.3902 -6.08381 -0.673736 0
M  V30 836 N 73.5272 -6.83242 -1.6163 0
M  V30 837 H 78.3672 -2.92427 0.573644 0
M  V30 838 H 75.9042 -1.44118 0.294703 0
M  V30 839 H 77.8622 -3.78646 -1.75166 0
M  V30 840 H 76.4922 -2.64898 -1.8447 0
M  V30 841 H 75.5442 -3.7931 0.287714 0
M  V30 842 H 76.8562 -4.98549 0.158128 0
M  V30 843 H 76.0102 -5.69648 -2.08773 0
M  V30 844 H 74.7492 -4.43243 -2.03438 0
M  V30 845 H 73.7542 -5.49799 0.00938483 0
M  V30 846 H 74.9792 -6.79071 -0.0631082 0
M  V30 847 H 72.9252 -6.1728 -2.22038 0
M  V30 848 H 72.8422 -7.48144 -1.08707 0
M  V30 849 H 74.1102 -7.45534 -2.27596 0
M  V30 850 N 78.3393 -0.321999 -1.54275 0
M  V30 851 C 79.5873 0.280489 -2.00144 0
M  V30 852 C 79.9083 1.52777 -1.21178 0
M  V30 853 O 79.1783 1.9338 -0.313187 0
M  V30 854 H 77.7583 0.106632 -0.73935 0
M  V30 855 H 80.4203 -0.438184 -1.8991 0
M  V30 856 H 79.5163 0.537972 -3.07428 0
M  V30 857 N 79.8174 1.5752 -0.0501392 0
M  V30 858 C 81.0424 1.97376 0.636997 0
M  V30 859 C 81.4674 0.927466 1.63645 0
M  V30 860 O 80.8254 -0.10941 1.8097 0
M  V30 861 C 80.8734 3.36304 1.30123 0
M  V30 862 O 79.9774 3.34156 2.41689 0
M  V30 863 H 79.3184 0.642998 0.165679 0
M  V30 864 H 81.8484 2.04258 -0.118233 0
M  V30 865 H 81.8584 3.73008 1.65315 0
M  V30 866 H 80.5334 4.11993 0.568746 0
M  V30 867 H 79.1104 3.09196 2.08451 0
M  V30 868 N 81.2955 -0.223234 1.56011 0
M  V30 869 C 82.5435 -0.946003 1.78592 0
M  V30 870 C 82.8645 -1.84936 0.618349 0
M  V30 871 O 82.1345 -1.92473 -0.364833 0
M  V30 872 H 80.7145 -0.352298 0.658707 0
M  V30 873 H 83.3765 -0.235494 1.93472 0
M  V30 874 H 82.4725 -1.55381 2.70672 0
M  V30 875 N 82.7736 -1.49793 -0.48987 0
M  V30 876 C 83.7066 -1.61898 -1.60823 0
M  V30 877 C 84.6846 -0.467651 -1.5573 0
M  V30 878 O 85.8686 -0.684682 -1.75626 0
M  V30 879 C 82.9956 -1.58422 -2.99366 0
M  V30 880 C 82.0416 -2.78889 -3.22682 0
M  V30 881 S 82.8746 -4.40429 -3.04602 0
M  V30 882 C 84.0306 -4.39617 -4.4552 0
M  V30 883 H 84.2636 -2.56502 -1.50312 0
M  V30 884 H 81.7966 -1.38822 -0.675849 0
M  V30 885 H 83.7546 -1.57103 -3.79248 0
M  V30 886 H 82.4156 -0.650866 -3.07283 0
M  V30 887 H 81.6086 -2.72708 -4.23847 0
M  V30 888 H 81.2106 -2.77678 -2.50541 0
M  V30 889 H 83.5026 -4.12022 -5.37814 0
M  V30 890 H 84.4456 -5.41097 -4.56749 0
M  V30 891 H 84.8536 -3.69554 -4.2672 0
M  V30 892 N 84.2517 0.741722 -1.39055 0
M  V30 893 C 85.1847 1.86416 -1.31622 0
M  V30 894 C 86.1627 1.61473 -0.191076 0
M  V30 895 O 87.3467 1.84825 -0.370399 0
M  V30 896 C 84.4737 3.22266 -1.04221 0
M  V30 897 C 83.5197 3.66079 -2.18834 0
M  V30 898 S 84.3527 3.7623 -3.81066 0
M  V30 899 C 85.5087 5.14881 -3.55877 0
M  V30 900 H 85.7417 1.92437 -2.26617 0
M  V30 901 H 83.2747 0.905907 -1.25031 0
M  V30 902 H 85.2327 4.00714 -0.890964 0
M  V30 903 H 83.8937 3.1391 -0.109237 0
M  V30 904 H 83.0867 4.64648 -1.95238 0
M  V30 905 H 82.6887 2.94817 -2.30128 0
M  V30 906 H 84.9807 6.01006 -3.12726 0
M  V30 907 H 85.9237 5.43503 -4.53884 0
M  V30 908 H 86.3317 4.84239 -2.90126 0
M  V30 909 N 85.7298 1.2412 0.971189 0
M  V30 910 C 86.9548 1.10667 1.75407 0
M  V30 911 C 87.3798 -0.337048 1.85056 0
M  V30 912 O 86.7378 -1.24396 1.31892 0
M  V30 913 C 86.7858 1.74726 3.15441 0
M  V30 914 O 85.8898 1.01566 3.99697 0
M  V30 915 H 85.2308 0.387341 0.539317 0
M  V30 916 H 87.7608 1.64358 1.2185 0
M  V30 917 H 87.7708 1.80341 3.6598 0
M  V30 918 H 86.4458 2.79773 3.07734 0
M  V30 919 H 85.0228 1.03713 3.58187 0
M  V30 920 N 87.2079 -1.17134 1.05439 0
M  V30 921 C 88.1549 -2.21235 0.657539 0
M  V30 922 C 89.1249 -1.62551 -0.341543 0
M  V30 923 O 90.3099 -1.89379 -0.232393 0
M  V30 924 C 87.4499 -3.45076 0.0410575 0
M  V30 925 C 86.5629 -4.18042 1.08927 0
M  V30 926 C 85.6979 -5.29376 0.439848 0
M  V30 927 C 84.7369 -5.94132 1.4722 0
M  V30 928 N 83.8739 -6.96975 0.846756 0
M  V30 929 H 88.7139 -2.54534 1.54972 0
M  V30 930 H 86.2509 -1.25028 0.775006 0
M  V30 931 H 88.2089 -4.15862 -0.33383 0
M  V30 932 H 86.8389 -3.12353 -0.814568 0
M  V30 933 H 85.8909 -3.45945 1.58196 0
M  V30 934 H 87.2029 -4.62306 1.87282 0
M  V30 935 H 86.3569 -6.06699 0.0115125 0
M  V30 936 H 85.0959 -4.86251 -0.375656 0
M  V30 937 H 84.1009 -5.15538 1.91052 0
M  V30 938 H 85.3259 -6.39337 2.28965 0
M  V30 939 H 83.2719 -6.5598 0.0518075 0
M  V30 940 H 83.1889 -7.39565 1.5678 0
M  V30 941 H 84.4569 -7.78239 0.443277 0
M  V30 942 N 88.686 -0.835752 -1.33615 0
M  V30 943 C 89.911 -0.442389 -2.02627 0
M  V30 944 C 90.336 0.947735 -1.62479 0
M  V30 945 O 89.694 1.61907 -0.815826 0
M  V30 946 C 89.742 -0.567216 -3.56111 0
M  V30 947 O 88.846 0.407799 -4.10379 0
M  V30 948 H 88.187 -0.180278 -0.639059 0
M  V30 949 H 90.717 -1.12972 -1.70583 0
M  V30 950 H 90.727 -0.447708 -4.05536 0
M  V30 951 H 89.402 -1.58103 -3.84677 0
M  V30 952 H 87.979 0.246107 -3.72087 0
M  V30 953 N 90.1641 1.46063 -0.591896 0
M  V30 954 C 91.4411 1.95595 -0.0137119 0
M  V30 955 C 91.8211 1.5345 1.4497 0
M  V30 956 O 91.1691 0.789543 2.14426 0
M  V30 957 C 91.3791 3.48453 -0.195373 0
M  V30 958 C 92.7271 4.24546 -0.0679765 0
M  V30 959 O 93.7511 3.55982 -0.124681 0
M  V30 960 O 92.6101 5.46467 0.0600579 0
M  V30 961 H 89.7041 0.825795 0.0446279 0
M  V30 962 H 92.2501 1.56303 -0.660859 0
M  V30 963 H 91.0221 3.72045 -1.21235 0
M  V30 964 H 90.6451 3.94597 0.487775 0
M  V30 965 N 91.6422 0.330177 1.54103 0
M  V30 966 C 92.5902 -0.548226 2.26047 0
M  V30 967 C 93.5842 -1.11309 1.27698 0
M  V30 968 O 94.7902 -1.06036 1.45452 0
M  V30 969 H 91.1652 -0.195456 0.726155 0
M  V30 970 H 93.1362 0.0807567 2.98291 0
M  V30 971 C 91.8852 -1.69415 3.03634 0
M  V30 972 H 91.2082 -1.26876 3.79134 0
M  V30 973 H 92.6482 -2.28423 3.5721 0
M  V30 974 C 91.1072 -2.61569 2.12328 0
M  V30 975 O 91.6372 -3.63462 1.7105 0
M  V30 976 N 89.8432 -2.29952 1.77681 0
M  V30 977 H 89.3902 -1.47134 2.11446 0
M  V30 978 H 89.3482 -2.91871 1.16869 0
M  V30 979 N 93.1203 -1.57491 0.0584922 0
M  V30 980 C 94.3673 -1.92978 -0.613648 0
M  V30 981 C 94.6953 -0.937461 -1.70417 0
M  V30 982 O 93.9503 0.049078 -1.95638 0
M  V30 983 C 94.2493 -3.3513 -1.24188 0
M  V30 984 C 93.9153 -4.50037 -0.278826 0
M  V30 985 C 92.5773 -4.81198 -0.0138447 0
M  V30 986 C 94.9293 -5.19807 0.380777 0
M  V30 987 C 92.2573 -5.79473 0.918052 0
M  V30 988 C 94.6093 -6.19079 1.30091 0
M  V30 989 C 93.2733 -6.48665 1.57449 0
M  V30 990 H 92.5433 -0.706157 -0.22455 0
M  V30 991 H 95.1903 -1.91082 0.126533 0
M  V30 992 H 93.4953 -3.33429 -2.05749 0
M  V30 993 H 95.1923 -3.59871 -1.769 0
M  V30 994 H 91.7823 -4.25726 -0.495539 0
M  V30 995 H 95.9663 -4.95939 0.189158 0
M  V30 996 H 91.2223 -6.00727 1.1374 0
M  V30 997 H 95.3963 -6.7225 1.81804 0
M  V30 998 H 93.0233 -7.24628 2.29822 0
M  V30 999 N 94.5984 0.214957 -1.56127 0
M  V30 1000 C 95.8464 0.936518 -1.79091 0
M  V30 1001 C 96.1674 1.84606 -0.628148 0
M  V30 1002 O 95.4374 1.92664 0.35462 0
M  V30 1003 H 94.0174 0.3488 -0.660566 0
M  V30 1004 H 96.6794 0.22523 -1.93594 0
M  V30 1005 H 95.7754 1.53943 -2.71492 0
M  V30 1006 N 96.0765 1.50051 0.48192 0
M  V30 1007 C 96.9865 1.7089 1.60728 0
M  V30 1008 C 98.0025 0.591788 1.63627 0
M  V30 1009 O 99.1785 0.868817 1.81696 0
M  V30 1010 C 96.2435 1.78855 2.97005 0
M  V30 1011 C 95.3045 3.02537 3.04581 0
M  V30 1012 C 94.5375 3.10112 4.34357 0
M  V30 1013 O 94.7605 2.24765 5.24249 0
M  V30 1014 O 93.6945 4.02747 4.47301 0
M  V30 1015 H 97.5205 2.66264 1.46072 0
M  V30 1016 H 95.1055 1.34018 0.660264 0
M  V30 1017 H 96.9875 1.86336 3.77964 0
M  V30 1018 H 95.6625 0.866628 3.11883 0
M  V30 1019 H 94.5695 3.00563 2.22739 0
M  V30 1020 H 95.9025 3.94272 2.94636 0
M  V30 1021 N 97.5546 -0.734337 1.39446 0
M  V30 1022 C 98.5016 -1.84835 1.38219 0
M  V30 1023 C 99.4716 -1.64331 0.24179 0
M  V30 1024 O 100.657 -1.85728 0.437002 0
M  V30 1025 C 97.7966 -3.22355 1.23212 0
M  V30 1026 C 96.9096 -3.5456 2.46801 0
M  V30 1027 C 96.0446 -4.81485 2.24377 0
M  V30 1028 C 95.0836 -5.06536 3.43639 0
M  V30 1029 N 94.2206 -6.24665 3.20528 0
M  V30 1030 H 99.0606 -1.85219 2.33448 0
M  V30 1031 H 96.5976 -0.905039 1.15963 0
M  V30 1032 H 98.5556 -4.0174 1.12522 0
M  V30 1033 H 97.1856 -3.21248 0.316121 0
M  V30 1034 H 96.2376 -2.69872 2.68092 0
M  V30 1035 H 97.5496 -3.6899 3.3563 0
M  V30 1036 H 96.7036 -5.68852 2.10933 0
M  V30 1037 H 95.4426 -4.6923 1.32944 0
M  V30 1038 H 94.4476 -4.17632 3.5758 0
M  V30 1039 H 95.6726 -5.20676 4.35974 0
M  V30 1040 H 93.6186 -6.13696 2.3176 0
M  V30 1041 H 93.5356 -6.39685 4.02913 0
M  V30 1042 H 94.8036 -7.14868 3.10779 0
M  V30 1043 N 99.0327 -1.24633 -0.964593 0
M  V30 1044 C 99.9657 -0.984662 -2.05863 0
M  V30 1045 C 100.944 0.0826554 -1.6239 0
M  V30 1046 O 102.128 -0.0549296 -1.8842 0
M  V30 1047 C 99.2547 -0.486529 -3.35187 0
M  V30 1048 C 98.3007 -1.54286 -3.97615 0
M  V30 1049 S 99.1337 -3.12513 -4.34851 0
M  V30 1050 C 100.29 -2.6441 -5.67308 0
M  V30 1051 H 100.523 -1.91104 -2.27743 0
M  V30 1052 H 98.0557 -1.08052 -1.10291 0
M  V30 1053 H 100.014 -0.205757 -4.09984 0
M  V30 1054 H 98.6747 0.419186 -3.1129 0
M  V30 1055 H 97.8677 -1.14481 -4.90826 0
M  V30 1056 H 97.4697 -1.7738 -3.2926 0
M  V30 1057 H 99.7617 -2.07416 -6.44969 0
M  V30 1058 H 100.705 -3.56222 -6.11973 0
M  V30 1059 H 101.113 -2.04734 -5.26065 0
M  V30 1060 N 100.511 1.16574 -1.06058 0
M  V30 1061 C 101.458 2.20883 -0.669263 0
M  V30 1062 C 102.428 1.62729 0.332918 0
M  V30 1063 O 103.613 1.895 0.222346 0
M  V30 1064 C 100.753 3.45049 -0.0593572 0
M  V30 1065 C 99.8658 4.17458 -1.11143 0
M  V30 1066 C 99.0008 5.29135 -0.467916 0
M  V30 1067 C 98.0398 5.93343 -1.50369 0
M  V30 1068 N 97.1768 6.96516 -0.883706 0
M  V30 1069 H 102.017 2.53709 -1.5632 0
M  V30 1070 H 99.5538 1.24616 -0.781625 0
M  V30 1071 H 101.512 4.16033 0.311771 0
M  V30 1072 H 100.142 3.12781 0.797992 0
M  V30 1073 H 99.1938 3.45101 -1.60029 0
M  V30 1074 H 100.506 4.61307 -1.89731 0
M  V30 1075 H 99.6598 6.06684 -0.0436871 0
M  V30 1076 H 98.3988 4.86443 0.349864 0
M  V30 1077 H 97.4038 5.14517 -1.93784 0
M  V30 1078 H 98.6288 6.38114 -2.32352 0
M  V30 1079 H 96.5748 6.55943 -0.086595 0
M  V30 1080 H 96.4918 7.38723 -1.607 0
M  V30 1081 H 97.7598 7.77993 -0.484543 0
M  V30 1082 N 101.989 0.842826 1.3317 0
M  V30 1083 C 102.899 0.281444 2.32906 0
M  V30 1084 C 103.915 -0.594587 1.63526 0
M  V30 1085 O 105.091 -0.49777 1.95152 0
M  V30 1086 C 102.156 -0.530929 3.42611 0
M  V30 1087 C 101.217 0.369843 4.27704 0
M  V30 1088 C 100.45 -0.403853 5.3217 0
M  V30 1089 O 100.673 -1.63513 5.46461 0
M  V30 1090 O 99.6069 0.224199 6.01482 0
M  V30 1091 H 103.433 1.10744 2.82789 0
M  V30 1092 H 101.018 0.60545 1.36582 0
M  V30 1093 H 102.9 -0.992437 4.09547 0
M  V30 1094 H 101.575 -1.33392 2.94938 0
M  V30 1095 H 100.482 0.879275 3.6362 0
M  V30 1096 H 101.815 1.13771 4.78871 0
M  V30 1097 N 103.467 -1.45747 0.599634 0
M  V30 1098 C 104.714 -2.02292 0.0917284 0
M  V30 1099 C 105.042 -1.46906 -1.27472 0
M  V30 1100 O 104.297 -0.630652 -1.8526 0
M  V30 1101 C 104.596 -3.57399 -0.00602758 0
M  V30 1102 C 104.262 -4.31902 1.29503 0
M  V30 1103 C 102.924 -4.51974 1.65144 0
M  V30 1104 C 105.276 -4.74551 2.15525 0
M  V30 1105 C 102.604 -5.11949 2.86574 0
M  V30 1106 C 104.956 -5.35868 3.36196 0
M  V30 1107 C 103.62 -5.54165 3.72099 0
M  V30 1108 H 102.89 -0.740239 0.0335658 0
M  V30 1109 H 105.537 -1.7491 0.779661 0
M  V30 1110 H 103.842 -3.84014 -0.777183 0
M  V30 1111 H 105.539 -3.98846 -0.415038 0
M  V30 1112 H 102.129 -4.16588 1.00761 0
M  V30 1113 H 106.313 -4.58784 1.8929 0
M  V30 1114 H 101.569 -5.24305 3.14507 0
M  V30 1115 H 105.743 -5.6787 4.03109 0
M  V30 1116 H 103.37 -6.00406 4.6628 0
M  V30 1117 N 104.945 -0.338344 -1.53925 0
M  V30 1118 C 105.878 0.563758 -2.21127 0
M  V30 1119 C 106.856 1.10433 -1.19345 0
M  V30 1120 O 108.04 1.16557 -1.48144 0
M  V30 1121 C 105.167 1.77505 -2.88461 0
M  V30 1122 C 104.213 1.3644 -4.04087 0
M  V30 1123 S 105.046 0.388593 -5.34088 0
M  V30 1124 C 106.202 1.60683 -6.04923 0
M  V30 1125 H 106.435 -0.00704546 -2.97299 0
M  V30 1126 H 103.968 -0.122418 -1.53914 0
M  V30 1127 H 105.926 2.46999 -3.27875 0
M  V30 1128 H 104.587 2.31706 -2.12064 0
M  V30 1129 H 103.78 2.26739 -4.50117 0
M  V30 1130 H 103.382 0.748998 -3.66423 0
M  V30 1131 H 105.674 2.54209 -6.28 0
M  V30 1132 H 106.617 1.18842 -6.98056 0
M  V30 1133 H 107.025 1.80052 -5.35015 0
M  V30 1134 N 106.423 1.57458 -0.0668435 0
M  V30 1135 C 107.355 2.09413 0.931601 0
M  V30 1136 C 108.368 1.02522 1.26464 0
M  V30 1137 O 109.557 1.30049 1.22269 0
M  V30 1138 C 106.657 2.53537 2.24882 0
M  V30 1139 C 105.83 3.83944 2.09537 0
M  V30 1140 C 104.889 4.14214 3.2452 0
M  V30 1141 O 103.915 4.83891 2.9973 0
M  V30 1142 N 105.117 3.67367 4.49469 0
M  V30 1143 H 107.882 2.95699 0.488048 0
M  V30 1144 H 105.443 1.61462 0.119009 0
M  V30 1145 H 107.435 2.70853 3.00701 0
M  V30 1146 H 106.005 1.72415 2.60753 0
M  V30 1147 H 105.225 3.76057 1.18215 0
M  V30 1148 H 106.513 4.69312 1.96529 0
M  V30 1149 H 105.911 3.11068 4.72497 0
M  V30 1150 H 104.468 3.89891 5.2233 0
M  V30 1151 N 107.901 -0.206675 1.56239 0
M  V30 1152 C 108.848 -1.25617 1.93621 0
M  V30 1153 C 109.818 -1.45824 0.795274 0
M  V30 1154 O 111.003 -1.59148 1.05245 0
M  V30 1155 C 108.143 -2.59839 2.27107 0
M  V30 1156 C 107.256 -2.47308 3.54207 0
M  V30 1157 C 106.391 -3.74155 3.7707 0
M  V30 1158 C 105.43 -3.56407 4.97635 0
M  V30 1159 N 104.567 -4.75238 5.1681 0
M  V30 1160 H 109.407 -0.930383 2.83104 0
M  V30 1161 H 106.944 -0.448065 1.4011 0
M  V30 1162 H 108.902 -3.38021 2.44535 0
M  V30 1163 H 107.532 -2.90485 1.40778 0
M  V30 1164 H 106.584 -1.60483 3.4489 0
M  V30 1165 H 107.896 -2.30122 4.42544 0
M  V30 1166 H 107.05 -4.60778 3.94675 0
M  V30 1167 H 105.789 -3.94282 2.87042 0
M  V30 1168 H 104.794 -2.68168 4.79964 0
M  V30 1169 H 106.019 -3.37736 5.89161 0
M  V30 1170 H 103.965 -4.95651 4.29728 0
M  V30 1171 H 103.882 -4.60835 5.99306 0
M  V30 1172 H 105.15 -5.63246 5.38864 0
M  V30 1173 N 109.379 -1.50304 -0.473955 0
M  V30 1174 C 110.609 -1.64663 -1.24778 0
M  V30 1175 C 111.017 -0.328174 -1.86332 0
M  V30 1176 O 110.36 0.699536 -1.69859 0
M  V30 1177 C 110.422 -2.6778 -2.39863 0
M  V30 1178 C 110.086 -4.11413 -1.98969 0
M  V30 1179 C 111.083 -4.97372 -1.51385 0
M  V30 1180 C 108.768 -4.57312 -2.07777 0
M  V30 1181 C 110.762 -6.27277 -1.13148 0
M  V30 1182 C 108.449 -5.87223 -1.69152 0
M  V30 1183 C 109.447 -6.72031 -1.21915 0
M  V30 1184 O 109.135 -7.99518 -0.838237 0
M  V30 1185 H 108.867 -0.556602 -0.383627 0
M  V30 1186 H 111.421 -1.9726 -0.572491 0
M  V30 1187 H 109.651 -2.30419 -3.10554 0
M  V30 1188 H 111.34 -2.71388 -3.01833 0
M  V30 1189 H 112.106 -4.63128 -1.44004 0
M  V30 1190 H 107.985 -3.91449 -2.43493 0
M  V30 1191 H 111.529 -6.93425 -0.762077 0
M  V30 1192 H 107.426 -6.20989 -1.76191 0
M  V30 1193 H 108.194 -8.12764 -0.967339 0
M  V30 1194 N 110.857 0.726932 -1.39834 0
M  V30 1195 C 112.134 1.47902 -1.28001 0
M  V30 1196 C 112.514 2.1083 0.106789 0
M  V30 1197 O 111.862 1.99242 1.11869 0
M  V30 1198 C 112.072 2.52392 -2.41038 0
M  V30 1199 C 113.42 3.18546 -2.80737 0
M  V30 1200 O 114.444 2.62708 -2.40547 0
M  V30 1201 O 113.303 4.19604 -3.50135 0
M  V30 1202 H 110.397 0.657163 -0.502062 0
M  V30 1203 H 112.943 0.760071 -1.51727 0
M  V30 1204 H 111.715 2.04329 -3.33715 0
M  V30 1205 H 111.338 3.31837 -2.19021 0
M  V30 1206 N 112.336 1.25143 0.95797 0
M  V30 1207 C 113.283 1.05235 2.05412 0
M  V30 1208 C 114.253 -0.0374561 1.66058 0
M  V30 1209 O 115.438 0.119073 1.90428 0
M  V30 1210 C 112.578 0.673589 3.38462 0
M  V30 1211 C 111.691 1.8379 3.90954 0
M  V30 1212 C 110.826 1.40381 5.12315 0
M  V30 1213 C 109.865 2.53746 5.57027 0
M  V30 1214 N 109.002 2.11136 6.69601 0
M  V30 1215 H 113.842 1.99048 2.21774 0
M  V30 1216 H 111.379 0.991277 1.08683 0
M  V30 1217 H 113.337 0.434964 4.14926 0
M  V30 1218 H 111.967 -0.227554 3.21997 0
M  V30 1219 H 111.019 2.18992 3.11041 0
M  V30 1220 H 112.331 2.68937 4.20089 0
M  V30 1221 H 111.485 1.12464 5.96185 0
M  V30 1222 H 110.224 0.523015 4.84887 0
M  V30 1223 H 109.229 2.82412 4.71724 0
M  V30 1224 H 110.454 3.42398 5.86464 0
M  V30 1225 H 108.4 1.25468 6.4389 0
M  V30 1226 H 108.317 2.89832 6.98236 0
M  V30 1227 H 109.585 1.86385 7.56889 0
M  V30 1228 N 113.814 -1.1601 1.06675 0
M  V30 1229 C 114.762 -2.22586 0.675157 0
M  V30 1230 C 115.756 -1.66525 -0.310766 0
M  V30 1231 O 116.962 -1.79145 -0.175215 0
M  V30 1232 H 113.337 -0.724855 0.200223 0
M  V30 1233 H 115.308 -2.52899 1.58381 0
M  V30 1234 C 114.057 -3.47604 0.0817162 0
M  V30 1235 H 113.38 -3.91058 0.831484 0
M  V30 1236 H 114.82 -4.23718 -0.154708 0
M  V30 1237 C 113.279 -3.15718 -1.17576 0
M  V30 1238 O 113.809 -3.31878 -2.26318 0
M  V30 1239 N 112.015 -2.69816 -1.07923 0
M  V30 1240 H 111.562 -2.56866 -0.194293 0
M  V30 1241 H 111.52 -2.48855 -1.92141 0
M  V30 1242 N 115.292 -0.849877 -1.32721 0
M  V30 1243 C 116.517 -0.463856 -2.02146 0
M  V30 1244 C 116.942 0.930449 -1.63476 0
M  V30 1245 O 116.3 1.61033 -0.832952 0
M  V30 1246 C 116.348 -0.604955 -3.55489 0
M  V30 1247 O 115.452 0.36425 -4.10788 0
M  V30 1248 H 114.793 -0.187046 -0.637111 0
M  V30 1249 H 117.323 -1.14775 -1.69375 0
M  V30 1250 H 117.333 -0.490696 -4.05038 0
M  V30 1251 H 116.008 -1.62174 -3.82978 0
M  V30 1252 H 114.585 0.206628 -3.72327 0
M  V30 1253 N 116.77 1.45427 -0.607355 0
M  V30 1254 C 118.047 1.9557 -0.0344566 0
M  V30 1255 C 118.427 1.54979 1.43334 0
M  V30 1256 O 117.775 0.812241 2.13576 0
M  V30 1257 C 117.985 3.48226 -0.232321 0
M  V30 1258 C 119.333 4.2445 -0.113001 0
M  V30 1259 O 120.357 3.55829 -0.162431 0
M  V30 1260 O 119.216 5.465 0.00209442 0
M  V30 1261 H 116.31 0.826222 0.0358667 0
M  V30 1262 H 118.856 1.55594 -0.6774 0
M  V30 1263 H 117.628 3.70739 -1.25174 0
M  V30 1264 H 117.251 3.95092 0.445896 0
M  V30 1265 N 118.248 0.346503 1.53744 0
M  V30 1266 C 119.496 -0.248612 2.00565 0
M  V30 1267 C 119.817 -1.5083 1.23593 0
M  V30 1268 O 119.087 -1.92858 0.343912 0
M  V30 1269 H 117.667 -0.0948564 0.740953 0
M  V30 1270 H 120.329 0.468341 1.89189 0
M  V30 1271 H 119.425 -0.488994 3.08245 0
M  V30 1272 N 119.726 -1.57421 0.075193 0
M  V30 1273 C 120.673 -2.12915 -0.890843 0
M  V30 1274 C 121.643 -1.04252 -1.29309 0
M  V30 1275 O 122.828 -1.31933 -1.37834 0
M  V30 1276 C 119.968 -2.69795 -2.15186 0
M  V30 1277 C 119.081 -3.92624 -1.80194 0
M  V30 1278 C 118.216 -4.37736 -3.00933 0
M  V30 1279 C 117.255 -5.53205 -2.61974 0
M  V30 1280 N 116.392 -5.9326 -3.75483 0
M  V30 1281 H 121.232 -2.95156 -0.410735 0
M  V30 1282 H 118.769 -1.45854 -0.191086 0
M  V30 1283 H 120.727 -3.00883 -2.89008 0
M  V30 1284 H 119.357 -1.90313 -2.60731 0
M  V30 1285 H 118.409 -3.67977 -0.964218 0
M  V30 1286 H 119.721 -4.76482 -1.47534 0
M  V30 1287 H 118.875 -4.70503 -3.8303 0
M  V30 1288 H 117.614 -3.52739 -3.36789 0
M  V30 1289 H 116.619 -5.20086 -1.783 0
M  V30 1290 H 117.844 -6.39936 -2.27284 0
M  V30 1291 H 115.79 -5.11212 -4.11094 0
M  V30 1292 H 115.707 -6.71865 -3.46602 0
M  V30 1293 H 116.975 -6.30651 -4.58148 0
M  V30 1294 N 121.204 0.198386 -1.56346 0
M  V30 1295 C 122.453 0.917451 -1.79627 0
M  V30 1296 C 122.766 1.8456 -0.64784 0
M  V30 1297 O 123.972 2.60504 -0.764859 0
M  V30 1298 C 122.428 1.68175 -3.18191 0
M  V30 1299 C 122.036 0.798589 -4.40825 0
M  V30 1300 C 123.78 2.39065 -3.50782 0
M  V30 1301 C 121.687 1.56157 -5.70411 0
M  V30 1302 H 120.617 0.346317 -0.669762 0
M  V30 1303 H 123.268 0.170801 -1.82703 0
M  V30 1304 H 121.65 2.47216 -3.09354 0
M  V30 1305 H 122.824 0.0470665 -4.60776 0
M  V30 1306 H 121.139 0.200686 -4.15916 0
M  V30 1307 H 123.736 2.96692 -4.44835 0
M  V30 1308 H 124.079 3.13091 -2.74371 0
M  V30 1309 H 124.612 1.66993 -3.61052 0
M  V30 1310 H 121.351 0.864142 -6.49779 0
M  V30 1311 H 120.871 2.2871 -5.54483 0
M  V30 1312 H 122.55 2.11622 -6.11412 0
M  V30 1313 N 122.682 1.50554 0.465978 0
M  V30 1314 C 123.592 1.72585 1.58907 0
M  V30 1315 C 124.608 0.60911 1.6299 0
M  V30 1316 O 125.784 0.88804 1.80765 0
M  V30 1317 C 122.849 1.81995 2.95091 0
M  V30 1318 C 121.91 3.05751 3.01355 0
M  V30 1319 C 121.143 3.14702 4.31043 0
M  V30 1320 O 121.366 2.30313 5.21835 0
M  V30 1321 O 120.3 4.07468 4.43005 0
M  V30 1322 H 124.126 2.67799 1.43239 0
M  V30 1323 H 121.711 1.34711 0.646013 0
M  V30 1324 H 123.593 1.90335 3.75966 0
M  V30 1325 H 122.268 0.899659 3.10947 0
M  V30 1326 H 121.175 3.02908 2.19539 0
M  V30 1327 H 122.508 3.97375 2.90437 0
M  V30 1328 N 124.16 -0.719506 1.40217 0
M  V30 1329 C 125.093 -1.84298 1.34571 0
M  V30 1330 C 126.071 -1.61149 0.216741 0
M  V30 1331 O 127.255 -1.84212 0.399756 0
M  V30 1332 C 124.382 -3.20568 1.09335 0
M  V30 1333 C 123.428 -3.62551 2.24631 0
M  V30 1334 S 124.261 -3.7012 3.87004 0
M  V30 1335 C 125.417 -5.09154 3.64024 0
M  V30 1336 H 125.65 -1.88807 2.2965 0
M  V30 1337 H 123.183 -0.885901 1.26456 0
M  V30 1338 H 125.141 -3.99246 0.954602 0
M  V30 1339 H 123.802 -3.13696 0.159164 0
M  V30 1340 H 122.995 -4.61483 2.02606 0
M  V30 1341 H 122.597 -2.91119 2.34789 0
M  V30 1342 H 124.889 -5.95955 3.22248 0
M  V30 1343 H 125.832 -5.36213 4.62473 0
M  V30 1344 H 126.24 -4.79562 2.97793 0
M  V30 1345 N 125.638 -1.25649 -0.95132 0
M  V30 1346 C 126.601 -1.06399 -2.03007 0
M  V30 1347 C 127.601 -0.0156794 -1.60792 0
M  V30 1348 O 128.791 -0.25817 -1.72276 0
M  V30 1349 C 125.923 -0.616184 -3.35285 0
M  V30 1350 H 127.116 -2.02164 -2.21517 0
M  V30 1351 H 124.669 -1.08103 -1.12887 0
M  V30 1352 H 125.404 0.343917 -3.22471 0
M  V30 1353 H 125.189 -1.37301 -3.67275 0
M  V30 1354 H 126.679 -0.503032 -4.14559 0
M  V30 1355 N 127.117 1.15442 -1.07289 0
M  V30 1356 C 128.027 2.23786 -0.704057 0
M  V30 1357 C 129.043 1.7166 0.284413 0
M  V30 1358 O 130.219 2.00972 0.131205 0
M  V30 1359 C 127.284 3.46535 -0.106792 0
M  V30 1360 C 126.345 4.13654 -1.14842 0
M  V30 1361 C 125.578 5.30544 -0.57956 0
M  V30 1362 O 125.801 5.67187 0.604585 0
M  V30 1363 O 124.735 5.87154 -1.32414 0
M  V30 1364 H 128.561 2.57664 -1.60757 0
M  V30 1365 H 126.146 1.23152 -0.845803 0
M  V30 1366 H 128.028 4.20804 0.224048 0
M  V30 1367 H 126.703 3.14407 0.770049 0
M  V30 1368 H 125.61 3.4131 -1.5316 0
M  V30 1369 H 126.943 4.49861 -1.99714 0
M  V30 1370 N 128.595 0.856903 1.32268 0
M  V30 1371 C 129.525 0.31858 2.31316 0
M  V30 1372 C 130.506 -0.583487 1.59779 0
M  V30 1373 O 131.691 -0.503259 1.87566 0
M  V30 1374 C 128.821 -0.491979 3.43798 0
M  V30 1375 C 127.775 0.315849 4.26833 0
M  V30 1376 C 127.101 -0.619586 5.31098 0
M  V30 1377 C 128.401 1.54282 4.98993 0
M  V30 1378 H 130.095 1.14621 2.76591 0
M  V30 1379 H 127.641 0.552613 1.32974 0
M  V30 1380 H 129.594 -0.879012 4.1213 0
M  V30 1381 H 128.318 -1.35299 2.97257 0
M  V30 1382 H 126.977 0.684664 3.6015 0
M  V30 1383 H 126.625 -1.47751 4.8081 0
M  V30 1384 H 126.325 -0.0830621 5.87541 0
M  V30 1385 H 127.849 -1.00375 6.02293 0
M  V30 1386 H 129.263 1.22796 5.59995 0
M  V30 1387 H 127.66 2.01745 5.65172 0
M  V30 1388 H 128.73 2.30285 4.26728 0
M  V30 1389 N 130.073 -1.45103 0.615059 0
M  V30 1390 C 131.036 -2.29025 -0.0895485 0
M  V30 1391 C 132.036 -1.40174 -0.787906 0
M  V30 1392 O 133.226 -1.62217 -0.634933 0
M  V30 1393 C 130.358 -3.21376 -1.13711 0
M  V30 1394 H 131.551 -2.92807 0.648382 0
M  V30 1395 H 129.104 -1.51749 0.374444 0
M  V30 1396 H 129.839 -2.6241 -1.90556 0
M  V30 1397 H 129.624 -3.86834 -0.640475 0
M  V30 1398 H 131.114 -3.84459 -1.63036 0
M  V30 1399 N 131.551 -0.354651 -1.53558 0
M  V30 1400 C 132.483 0.5315 -2.22952 0
M  V30 1401 C 133.496 1.05503 -1.23988 0
M  V30 1402 O 134.685 0.963279 -1.50277 0
M  V30 1403 C 131.785 1.74538 -2.90499 0
M  V30 1404 C 130.958 1.35524 -4.15875 0
M  V30 1405 C 130.017 2.42999 -4.66731 0
M  V30 1406 O 129.043 2.05844 -5.30676 0
M  V30 1407 N 130.245 3.74423 -4.43608 0
M  V30 1408 H 133.01 -0.0628615 -2.99634 0
M  V30 1409 H 130.571 -0.179302 -1.60904 0
M  V30 1410 H 132.563 2.45892 -3.21433 0
M  V30 1411 H 131.133 2.24686 -2.17336 0
M  V30 1412 H 130.353 0.471998 -3.91364 0
M  V30 1413 H 131.641 1.07071 -4.97406 0
M  V30 1414 H 131.039 4.07391 -3.92491 0
M  V30 1415 H 129.596 4.41913 -4.7912 0
M  V30 1416 N 133.029 1.57378 -0.0835403 0
M  V30 1417 C 134.278 1.93106 0.582498 0
M  V30 1418 C 134.591 0.96651 1.70053 0
M  V30 1419 O 135.797 1.21705 2.42693 0
M  V30 1420 C 134.253 3.43076 1.08751 0
M  V30 1421 C 133.861 4.48 -0.000146404 0
M  V30 1422 C 135.605 3.87785 1.72694 0
M  V30 1423 C 133.512 5.89113 0.519568 0
M  V30 1424 H 132.442 0.720775 0.221358 0
M  V30 1425 H 135.093 1.82821 -0.157675 0
M  V30 1426 H 133.475 3.48474 1.88101 0
M  V30 1427 H 134.649 4.54233 -0.775199 0
M  V30 1428 H 132.964 4.1283 -0.54406 0
M  V30 1429 H 135.561 4.90604 2.1263 0
M  V30 1430 H 135.904 3.25796 2.59158 0
M  V30 1431 H 136.437 3.8504 0.999457 0
M  V30 1432 H 133.176 6.54775 -0.308186 0
M  V30 1433 H 132.696 5.86376 1.26188 0
M  V30 1434 H 134.375 6.39346 0.992237 0
M  V30 1435 N 134.507 -0.190092 1.56449 0
M  V30 1436 C 135.437 -1.23816 1.97969 0
M  V30 1437 C 136.418 -1.47201 0.852395 0
M  V30 1438 O 137.603 -1.58854 1.1171 0
M  V30 1439 C 134.733 -2.5813 2.3235 0
M  V30 1440 C 133.687 -2.49348 3.47864 0
M  V30 1441 C 133.013 -3.8798 3.67934 0
M  V30 1442 C 134.313 -2.01424 4.81898 0
M  V30 1443 H 136.007 -0.89311 2.85769 0
M  V30 1444 H 133.553 -0.428177 1.37487 0
M  V30 1445 H 135.506 -3.31637 2.59991 0
M  V30 1446 H 134.23 -2.94386 1.41438 0
M  V30 1447 H 132.889 -1.78297 3.20321 0
M  V30 1448 H 132.537 -4.21597 2.74344 0
M  V30 1449 H 132.237 -3.82978 4.45648 0
M  V30 1450 H 133.761 -4.63101 3.97957 0
M  V30 1451 H 135.175 -2.64693 5.08538 0
M  V30 1452 H 133.572 -2.07413 5.63116 0
M  V30 1453 H 134.642 -0.967677 4.75146 0
M  V30 1454 N 135.985 -1.50799 -0.457987 0
M  V30 1455 C 137.396 -1.55152 -1.0385 0
M  V30 1456 C 137.747 -0.362719 -1.92818 0
M  V30 1457 O 136.872 0.522915 -2.09987 0
M  V30 1458 C 137.467 -2.81173 -1.89017 0
M  V30 1459 C 136.026 -2.88164 -2.42154 0
M  V30 1460 C 135.173 -2.49591 -1.20829 0
M  V30 1461 H 138.124 -1.56874 -0.240068 0
M  V30 1462 H 138.145 -2.63769 -2.74238 0
M  V30 1463 H 137.657 -3.67677 -1.24238 0
M  V30 1464 H 135.758 -2.06042 -3.10447 0
M  V30 1465 H 135.871 -3.91356 -2.76364 0
M  V30 1466 H 134.235 -2.02322 -1.54719 0
M  V30 1467 H 135.018 -3.38418 -0.576927 0
M  V30 1468 N 137.463 0.71206 -1.40597 0
M  V30 1469 C 138.691 1.50111 -1.42388 0
M  V30 1470 C 139.106 1.88784 -0.0245395 0
M  V30 1471 O 138.463 1.55681 0.952351 0
M  V30 1472 C 138.514 2.7742 -2.31776 0
M  V30 1473 O 138.235 2.40382 -3.66262 0
M  V30 1474 C 139.736 3.7129 -2.42196 0
M  V30 1475 H 136.956 0.46314 -0.485533 0
M  V30 1476 H 139.5 0.878068 -1.8469 0
M  V30 1477 H 137.655 3.36001 -1.92827 0
M  V30 1478 H 138.069 3.22324 -4.13772 0
M  V30 1479 H 139.543 4.57448 -3.08943 0
M  V30 1480 H 140.02 4.14641 -1.44809 0
M  V30 1481 H 140.626 3.18619 -2.81712 0
M  V30 1482 N 138.941 1.26152 0.944643 0
M  V30 1483 C 139.851 1.09176 2.07648 0
M  V30 1484 C 140.867 0.0261935 1.7398 0
M  V30 1485 O 142.043 0.229208 2.00091 0
M  V30 1486 C 139.108 0.722915 3.39079 0
M  V30 1487 C 138.169 1.86752 3.86552 0
M  V30 1488 C 137.402 1.51617 5.11711 0
M  V30 1489 O 137.625 0.416331 5.68879 0
M  V30 1490 O 136.559 2.34975 5.54139 0
M  V30 1491 H 140.385 2.0412 2.24875 0
M  V30 1492 H 137.97 1.05182 1.061 0
M  V30 1493 H 139.852 0.529787 4.18056 0
M  V30 1494 H 138.527 -0.197159 3.23099 0
M  V30 1495 H 137.434 2.11558 3.08535 0
M  V30 1496 H 138.767 2.76719 4.07047 0
M  V30 1497 N 140.419 -1.14872 1.07899 0
M  V30 1498 C 141.329 -2.2341 0.715915 0
M  V30 1499 C 142.345 -1.71808 -0.275306 0
M  V30 1500 O 143.521 -2.01039 -0.120545 0
M  V30 1501 C 140.586 -3.46474 0.125168 0
M  V30 1502 C 139.647 -4.13039 1.17034 0
M  V30 1503 C 138.88 -5.30229 0.607688 0
M  V30 1504 O 139.103 -5.675 -0.574497 0
M  V30 1505 O 138.037 -5.86444 1.35526 0
M  V30 1506 H 141.863 -2.56808 1.62121 0
M  V30 1507 H 139.448 -1.22702 0.852322 0
M  V30 1508 H 141.33 -4.20917 -0.201729 0
M  V30 1509 H 140.005 -3.14811 -0.753364 0
M  V30 1510 H 138.912 -3.40493 1.54968 0
M  V30 1511 H 140.245 -4.48796 2.02097 0
M  V30 1512 N 141.898 -0.863906 -1.31812 0
M  V30 1513 C 142.846 -0.30422 -2.30602 0
M  V30 1514 C 143.84 0.577419 -1.59255 0
M  V30 1515 O 145.046 0.464194 -1.73912 0
M  V30 1516 H 141.421 -0.0796877 -0.747766 0
M  V30 1517 H 143.392 -1.15148 -2.75288 0
M  V30 1518 C 142.141 0.484617 -3.44306 0
M  V30 1519 H 141.464 -0.18451 -3.99374 0
M  V30 1520 H 142.904 0.841664 -4.15562 0
M  V30 1521 C 141.363 1.6735 -2.92396 0
M  V30 1522 O 141.893 2.77273 -2.90659 0
M  V30 1523 N 140.099 1.50362 -2.48676 0
M  V30 1524 H 139.646 0.609402 -2.50288 0
M  V30 1525 H 139.604 2.30051 -2.14299 0
M  V30 1526 N 143.376 1.44774 -0.622745 0
M  V30 1527 C 144.623 2.02121 -0.1239 0
M  V30 1528 C 144.951 1.48915 1.25118 0
M  V30 1529 O 144.206 0.660045 1.84233 0
M  V30 1530 C 144.505 3.57364 -0.0508323 0
M  V30 1531 C 144.171 4.29787 -1.36358 0
M  V30 1532 C 142.833 4.4929 -1.72314 0
M  V30 1533 C 145.185 4.71062 -2.23048 0
M  V30 1534 C 142.513 5.07325 -2.94682 0
M  V30 1535 C 144.865 5.30452 -3.44679 0
M  V30 1536 C 143.529 5.48175 -3.80868 0
M  V30 1537 H 142.799 0.739612 -0.0453381 0
M  V30 1538 H 145.446 1.73648 -0.807389 0
M  V30 1539 H 143.751 3.85202 0.715991 0
M  V30 1540 H 145.448 3.99456 0.351533 0
M  V30 1541 H 142.038 4.14932 -1.07375 0
M  V30 1542 H 146.222 4.55715 -1.96565 0
M  V30 1543 H 141.478 5.19235 -3.22809 0
M  V30 1544 H 145.652 5.61385 -4.12092 0
M  V30 1545 H 143.279 5.92912 -4.75773 0
M  V30 1546 N 144.854 0.36279 1.53368 0
M  V30 1547 C 145.784 -0.476976 2.28576 0
M  V30 1548 C 146.765 -1.08631 1.30894 0
M  V30 1549 O 147.95 -1.10409 1.59761 0
M  V30 1550 C 145.08 -1.61828 3.07293 0
M  V30 1551 C 144.034 -1.13633 4.1264 0
M  V30 1552 C 143.36 -2.36766 4.79423 0
M  V30 1553 C 144.66 -0.223061 5.21823 0
M  V30 1554 H 146.354 0.150474 2.99022 0
M  V30 1555 H 143.9 0.0738103 1.43811 0
M  V30 1556 H 145.853 -2.21237 3.58653 0
M  V30 1557 H 144.577 -2.27292 2.34533 0
M  V30 1558 H 143.236 -0.564945 3.62221 0
M  V30 1559 H 142.884 -3.0068 4.03238 0
M  V30 1560 H 142.584 -2.05192 5.50609 0
M  V30 1561 H 144.108 -2.96865 5.33576 0
M  V30 1562 H 145.522 -0.724545 5.68703 0
M  V30 1563 H 143.919 0.001678 6.001 0
M  V30 1564 H 144.989 0.735553 4.79289 0
M  V30 1565 N 146.332 -1.57332 0.0918853 0
M  V30 1566 C 147.262 -2.16872 -0.865371 0
M  V30 1567 C 148.243 -1.10118 -1.29646 0
M  V30 1568 O 149.428 -1.38242 -1.36392 0
M  V30 1569 C 146.558 -2.74649 -2.12569 0
M  V30 1570 C 145.512 -3.86747 -1.83333 0
M  V30 1571 C 144.838 -4.31212 -3.16166 0
M  V30 1572 C 146.138 -5.10089 -1.1228 0
M  V30 1573 H 147.832 -2.97114 -0.369307 0
M  V30 1574 H 145.378 -1.42918 -0.176194 0
M  V30 1575 H 147.331 -3.14952 -2.7997 0
M  V30 1576 H 146.055 -1.91657 -2.64452 0
M  V30 1577 H 144.714 -3.46978 -1.18331 0
M  V30 1578 H 144.362 -3.45115 -3.6593 0
M  V30 1579 H 144.062 -5.06788 -2.97388 0
M  V30 1580 H 145.586 -4.74146 -3.84731 0
M  V30 1581 H 147 -5.47582 -1.69785 0
M  V30 1582 H 145.397 -5.91073 -1.03693 0
M  V30 1583 H 146.467 -4.84786 -0.105041 0
M  V30 1584 N 147.81 0.181792 -1.56548 0
M  V30 1585 C 149.05 0.906711 -1.83189 0
M  V30 1586 C 149.414 1.79882 -0.671312 0
M  V30 1587 O 150.615 2.56054 -0.81792 0
M  V30 1588 C 148.886 1.69023 -3.14906 0
M  V30 1589 S 150.445 2.46535 -3.62996 0
M  V30 1590 H 147.263 0.303877 -0.642791 0
M  V30 1591 H 149.865 0.169107 -1.94767 0
M  V30 1592 H 148.569 1.02571 -3.97376 0
M  V30 1593 H 148.1 2.46941 -3.06241 0
M  V30 1594 H 150.115 3.71014 -3.29489 0
M  V30 1595 N 149.288 1.51039 0.449983 0
M  V30 1596 C 150.535 1.63081 1.20045 0
M  V30 1597 C 150.863 0.341024 1.91487 0
M  V30 1598 O 150.118 -0.674276 1.83717 0
M  V30 1599 C 150.417 2.77556 2.25161 0
M  V30 1600 C 150.083 4.17289 1.70823 0
M  V30 1601 C 148.745 4.55305 1.55725 0
M  V30 1602 C 151.097 5.04536 1.3074 0
M  V30 1603 C 148.425 5.78287 0.989999 0
M  V30 1604 C 150.777 6.28085 0.754482 0
M  V30 1605 C 149.441 6.64885 0.590308 0
M  V30 1606 H 148.711 0.596755 0.439277 0
M  V30 1607 H 151.358 1.85037 0.49333 0
M  V30 1608 H 149.663 2.49771 3.01863 0
M  V30 1609 H 151.36 2.84073 2.83026 0
M  V30 1610 H 147.95 3.8731 1.83546 0
M  V30 1611 H 152.134 4.75782 1.41229 0
M  V30 1612 H 147.39 6.05456 0.850451 0
M  V30 1613 H 151.564 6.95038 0.435324 0
M  V30 1614 H 149.191 7.60055 0.14862 0
M  V30 1615 N 150.766 -0.704594 1.40972 0
M  V30 1616 C 152.182 -1.01406 1.23244 0
M  V30 1617 C 152.382 -2.01169 0.115399 0
M  V30 1618 O 151.438 -2.47021 -0.523147 0
M  V30 1619 C 152.751 -1.54728 2.57836 0
M  V30 1620 C 154.299 -1.66658 2.64942 0
M  V30 1621 C 154.774 -2.23383 3.9983 0
M  V30 1622 N 156.265 -2.30756 4.01629 0
M  V30 1623 C 157 -2.75655 5.02794 0
M  V30 1624 N 156.496 -3.20225 6.14352 0
M  V30 1625 N 158.289 -2.75138 4.90159 0
M  V30 1626 H 150.44 -0.0435285 2.12355 0
M  V30 1627 H 152.703 -0.0818951 0.944456 0
M  V30 1628 H 152.409 -0.888832 3.40283 0
M  V30 1629 H 152.283 -2.53084 2.79693 0
M  V30 1630 H 154.67 -2.31617 1.8286 0
M  V30 1631 H 154.751 -0.668717 2.46904 0
M  V30 1632 H 154.395 -1.59043 4.82357 0
M  V30 1633 H 154.325 -3.23904 4.15203 0
M  V30 1634 H 156.816 -1.99291 3.21079 0
M  V30 1635 H 157.129 -3.53084 6.87424 0
M  V30 1636 H 155.474 -3.18156 6.17901 0
M  V30 1637 H 158.665 -2.39661 4.02095 0
M  V30 1638 H 158.838 -3.09812 5.6914 0
M  V30 1639 N 152.244 -1.26651 -0.937939 0
M  V30 1640 C 153.176 -1.04283 -2.04102 0
M  V30 1641 C 154.189 -0.00221014 -1.628 0
M  V30 1642 O 155.378 -0.242645 -1.76843 0
M  V30 1643 C 152.478 -0.557846 -3.34277 0
M  V30 1644 C 151.651 -1.66843 -4.04329 0
M  V30 1645 C 150.71 -1.18095 -5.12777 0
M  V30 1646 O 149.736 -1.87865 -5.37304 0
M  V30 1647 N 150.938 -0.0311006 -5.80492 0
M  V30 1648 H 153.703 -1.9927 -2.23856 0
M  V30 1649 H 151.264 -1.1808 -1.10764 0
M  V30 1650 H 153.256 -0.215836 -4.04124 0
M  V30 1651 H 151.826 0.298523 -3.11171 0
M  V30 1652 H 151.046 -2.18123 -3.28353 0
M  V30 1653 H 152.334 -2.41408 -4.47883 0
M  V30 1654 H 151.732 0.551486 -5.63005 0
M  V30 1655 H 150.289 0.251809 -6.51313 0
M  V30 1656 N 153.722 1.14298 -1.08507 0
M  V30 1657 C 154.672 2.17449 -0.685569 0
M  V30 1658 C 155.656 1.58167 0.295315 0
M  V30 1659 O 156.848 1.76675 0.107172 0
M  V30 1660 C 153.977 3.43161 -0.0975318 0
M  V30 1661 C 153.063 4.09471 -1.10426 0
M  V30 1662 N 153.454 4.51089 -2.28806 0
M  V30 1663 C 151.752 4.35976 -0.940258 0
M  V30 1664 C 152.453 5.02654 -2.9277 0
M  V30 1665 N 151.429 4.96927 -2.20374 0
M  V30 1666 H 155.231 2.47369 -1.587 0
M  V30 1667 H 152.745 1.30992 -0.959936 0
M  V30 1668 H 154.742 4.16388 0.20664 0
M  V30 1669 H 153.402 3.14719 0.798872 0
M  V30 1670 H 154.413 4.44097 -2.66455 0
M  V30 1671 H 151.09 4.17386 -0.0977441 0
M  V30 1672 H 152.48 5.44723 -3.93352 0
M  V30 1673 N 155.201 0.870884 1.31352 0
M  V30 1674 C 156.447 0.482987 1.96965 0
M  V30 1675 C 156.78 -0.962462 1.68672 0
M  V30 1676 O 156.055 -1.6779 0.98371 0
M  V30 1677 C 156.338 0.741752 3.52378 0
M  V30 1678 C 156.191 2.2368 3.9024 0
M  V30 1679 C 157.51 0.208838 4.39604 0
M  V30 1680 H 154.629 0.176955 0.715441 0
M  V30 1681 H 157.271 1.09229 1.55464 0
M  V30 1682 H 155.421 0.223149 3.87859 0
M  V30 1683 H 157.093 2.82273 3.64856 0
M  V30 1684 H 155.336 2.70901 3.38814 0
M  V30 1685 H 156.007 2.3685 4.98604 0
M  V30 1686 H 158.483 0.652529 4.10952 0
M  V30 1687 H 157.359 0.419336 5.47296 0
M  V30 1688 H 157.62 -0.889275 4.33064 0
M  V30 1689 N 156.679 -1.44442 0.630414 0
M  V30 1690 C 157.927 -2.01653 0.134351 0
M  V30 1691 C 158.248 -1.49836 -1.24796 0
M  V30 1692 O 157.518 -0.701684 -1.82902 0
M  V30 1693 H 156.098 -0.74554 0.0466769 0
M  V30 1694 H 158.76 -1.76952 0.816955 0
M  V30 1695 H 157.856 -3.11935 0.101498 0
M  V30 1696 N 158.157 -0.370918 -1.53173 0
M  V30 1697 C 159.382 0.220293 -2.06227 0
M  V30 1698 C 159.807 1.41243 -1.24225 0
M  V30 1699 O 159.165 1.79387 -0.262645 0
M  V30 1700 C 159.213 0.586663 -3.55796 0
M  V30 1701 O 158.317 1.68317 -3.76488 0
M  V30 1702 H 157.658 0.0308099 -0.663285 0
M  V30 1703 H 160.188 -0.533068 -1.97534 0
M  V30 1704 H 160.198 0.85617 -3.98916 0
M  V30 1705 H 158.873 -0.285013 -4.14922 0
M  V30 1706 H 157.45 1.40881 -3.45264 0
M  V30 1707 N 159.635 1.57281 -0.100228 0
M  V30 1708 C 160.86 1.99302 0.573881 0
M  V30 1709 C 161.285 0.979059 1.60611 0
M  V30 1710 O 160.643 -0.0517803 1.81226 0
M  V30 1711 C 160.691 3.40274 1.19358 0
M  V30 1712 O 159.795 3.41676 2.30935 0
M  V30 1713 H 159.136 0.647944 0.145138 0
M  V30 1714 H 161.666 2.03779 -0.183156 0
M  V30 1715 H 161.676 3.78078 1.53365 0
M  V30 1716 H 160.351 4.13594 0.437385 0
M  V30 1717 H 158.928 3.15672 1.98509 0
M  V30 1718 N 161.113 -0.173488 1.56642 0
M  V30 1719 C 162.076 -1.19859 1.95362 0
M  V30 1720 C 163.076 -1.37296 0.83704 0
M  V30 1721 O 164.266 -1.34739 1.10413 0
M  V30 1722 C 161.398 -2.56405 2.24654 0
M  V30 1723 H 162.591 -0.867062 2.87092 0
M  V30 1724 H 160.144 -0.415853 1.50666 0
M  V30 1725 H 160.879 -2.94576 1.35631 0
M  V30 1726 H 160.664 -2.45115 3.06041 0
M  V30 1727 H 162.154 -3.30287 2.5554 0
M  V30 1728 N 162.591 -1.51276 -0.441967 0
M  V30 1729 C 163.501 -1.75092 -1.56141 0
M  V30 1730 C 164.517 -0.634963 -1.62001 0
M  V30 1731 O 165.693 -0.916686 -1.79329 0
M  V30 1732 C 162.758 -1.86666 -2.92158 0
M  V30 1733 C 161.819 -3.10506 -2.96453 0
M  V30 1734 C 161.052 -3.21519 -4.25982 0
M  V30 1735 O 161.275 -2.38586 -5.18105 0
M  V30 1736 O 160.209 -4.14465 -4.36466 0
M  V30 1737 H 164.035 -2.70044 -1.38961 0
M  V30 1738 H 161.62 -1.35722 -0.624499 0
M  V30 1739 H 163.502 -1.96292 -3.72891 0
M  V30 1740 H 162.177 -0.949014 -3.09476 0
M  V30 1741 H 161.084 -3.06363 -2.14692 0
M  V30 1742 H 162.417 -4.01945 -2.84079 0
M  V30 1743 N 164.069 0.697108 -1.41344 0
M  V30 1744 C 165.316 1.45714 -1.40619 0
M  V30 1745 C 165.644 1.94494 -0.0147907 0
M  V30 1746 O 164.899 1.69794 0.973066 0
M  V30 1747 C 165.198 2.68553 -2.35826 0
M  V30 1748 C 164.864 2.38438 -3.82698 0
M  V30 1749 C 163.526 2.29936 -4.22709 0
M  V30 1750 C 165.878 2.13567 -4.75435 0
M  V30 1751 C 163.206 1.94656 -5.53467 0
M  V30 1752 C 165.558 1.79797 -6.06511 0
M  V30 1753 C 164.222 1.69789 -6.45545 0
M  V30 1754 H 163.492 0.533206 -0.51456 0
M  V30 1755 H 166.139 0.796901 -1.74131 0
M  V30 1756 H 164.444 3.39503 -1.95563 0
M  V30 1757 H 166.141 3.2669 -2.32539 0
M  V30 1758 H 162.731 2.4595 -3.51008 0
M  V30 1759 H 166.915 2.19082 -4.45328 0
M  V30 1760 H 162.171 1.8546 -5.82593 0
M  V30 1761 H 166.345 1.59572 -6.77872 0
M  V30 1762 H 163.972 1.4222 -7.46778 0
M  V30 1763 N 165.547 1.27147 0.931209 0
M  V30 1764 C 166.48 1.0389 2.0318 0
M  V30 1765 C 167.458 -0.0395716 1.62552 0
M  V30 1766 O 168.642 0.104867 1.88208 0
M  V30 1767 C 165.769 0.575227 3.3378 0
M  V30 1768 C 164.815 1.64774 3.93385 0
M  V30 1769 S 165.648 3.23933 4.26413 0
M  V30 1770 C 166.804 2.79358 5.60098 0
M  V30 1771 H 167.037 1.97075 2.22596 0
M  V30 1772 H 164.57 1.10938 1.07387 0
M  V30 1773 H 166.528 0.314385 4.09294 0
M  V30 1774 H 165.189 -0.336505 3.12292 0
M  V30 1775 H 164.382 1.27454 4.87618 0
M  V30 1776 H 163.984 1.86048 3.24441 0
M  V30 1777 H 166.276 2.24443 6.39243 0
M  V30 1778 H 167.219 3.72322 6.02314 0
M  V30 1779 H 167.627 2.1861 5.20452 0
M  V30 1780 N 167.025 -1.13721 1.09112 0
M  V30 1781 C 167.935 -2.22638 0.73957 0
M  V30 1782 C 168.951 -1.72091 -0.257068 0
M  V30 1783 O 170.127 -2.01155 -0.0992154 0
M  V30 1784 C 167.192 -3.46322 0.16191 0
M  V30 1785 C 166.253 -4.11775 1.21408 0
M  V30 1786 C 165.486 -5.29555 0.663891 0
M  V30 1787 O 165.709 -5.68077 -0.514274 0
M  V30 1788 O 164.643 -5.84973 1.41738 0
M  V30 1789 H 168.469 -2.55074 1.64836 0
M  V30 1790 H 166.054 -1.21791 0.865289 0
M  V30 1791 H 167.936 -4.21107 -0.157073 0
M  V30 1792 H 166.611 -3.15593 -0.719932 0
M  V30 1793 H 165.518 -3.3883 1.58571 0
M  V30 1794 H 166.851 -4.46627 2.06845 0
M  V30 1795 N 168.503 -0.877838 -1.30888 0
M  V30 1796 C 169.466 -0.344265 -2.266 0
M  V30 1797 C 170.466 0.50922 -1.52524 0
M  V30 1798 O 171.656 0.317398 -1.71284 0
M  V30 1799 C 168.788 0.510198 -3.37061 0
M  V30 1800 H 169.981 -1.1893 -2.7531 0
M  V30 1801 H 167.534 -0.654088 -1.41956 0
M  V30 1802 H 168.269 1.37612 -2.93655 0
M  V30 1803 H 168.054 -0.101047 -3.9197 0
M  V30 1804 H 169.544 0.875537 -4.08319 0
M  V30 1805 N 169.982 1.44106 -0.638065 0
M  V30 1806 C 171.228 2.02815 -0.15409 0
M  V30 1807 C 171.583 1.49342 1.21304 0
M  V30 1808 O 170.876 0.670699 1.79478 0
M  V30 1809 C 171.07 3.5729 -0.0887327 0
M  V30 1810 C 170.899 4.2575 -1.44799 0
M  V30 1811 C 169.669 4.62443 -2.03653 0
M  V30 1812 C 171.867 4.55746 -2.38327 0
M  V30 1813 N 169.849 5.15903 -3.32741 0
M  V30 1814 C 171.22 5.10364 -3.52036 0
M  V30 1815 C 173.275 4.37703 -2.3732 0
M  V30 1816 C 171.978 5.48837 -4.64941 0
M  V30 1817 C 174.004 4.77229 -3.49294 0
M  V30 1818 C 173.366 5.31966 -4.61726 0
M  V30 1819 H 169.465 0.775519 -0.100466 0
M  V30 1820 H 172.049 1.755 -0.843071 0
M  V30 1821 H 170.22 3.84201 0.569548 0
M  V30 1822 H 171.952 4.02671 0.404711 0
M  V30 1823 H 168.707 4.46987 -1.56523 0
M  V30 1824 H 169.131 5.47102 -3.98758 0
M  V30 1825 H 173.773 3.94671 -1.51641 0
M  V30 1826 H 171.491 5.9082 -5.51323 0
M  V30 1827 H 175.077 4.64976 -3.49698 0
M  V30 1828 H 173.957 5.61986 -5.46939 0
M  V30 1829 N 171.46 0.379036 1.52974 0
M  V30 1830 C 172.876 0.0285448 1.59574 0
M  V30 1831 C 173.076 -1.45542 1.39355 0
M  V30 1832 O 172.132 -2.2187 1.20541 0
M  V30 1833 C 173.445 0.496535 2.96572 0
M  V30 1834 C 174.993 0.451909 3.0972 0
M  V30 1835 C 175.468 0.895924 4.49152 0
M  V30 1836 N 176.959 0.851522 4.55306 0
M  V30 1837 C 177.694 1.16661 5.61407 0
M  V30 1838 N 177.19 1.55166 6.752 0
M  V30 1839 N 178.983 1.08853 5.51459 0
M  V30 1840 H 171.134 1.34525 1.64367 0
M  V30 1841 H 173.397 0.550733 0.771619 0
M  V30 1842 H 173.103 1.53258 3.16552 0
M  V30 1843 H 172.977 -0.109802 3.7704 0
M  V30 1844 H 175.364 -0.575029 2.89443 0
M  V30 1845 H 175.445 1.09392 2.3123 0
M  V30 1846 H 175.089 1.92104 4.70168 0
M  V30 1847 H 175.019 0.23103 5.26093 0
M  V30 1848 H 177.51 0.568038 3.73606 0
M  V30 1849 H 177.823 1.776 7.52116 0
M  V30 1850 H 176.168 1.59044 6.76557 0
M  V30 1851 H 179.359 0.786803 4.6144 0
M  V30 1852 H 179.532 1.33742 6.34048 0
M  V30 1853 N 172.938 -1.57226 0.108567 0
M  V30 1854 C 173.885 -2.14756 -0.845481 0
M  V30 1855 C 174.855 -1.06971 -1.27068 0
M  V30 1856 O 176.04 -1.34827 -1.35005 0
M  V30 1857 C 173.18 -2.74298 -2.09415 0
M  V30 1858 C 172.293 -3.96358 -1.71826 0
M  V30 1859 C 171.428 -4.44021 -2.9158 0
M  V30 1860 C 170.467 -5.58637 -2.50181 0
M  V30 1861 N 169.604 -6.01091 -3.62814 0
M  V30 1862 H 174.444 -2.95961 -0.348035 0
M  V30 1863 H 171.981 -1.46226 -0.160106 0
M  V30 1864 H 173.939 -3.06945 -2.82561 0
M  V30 1865 H 172.569 -1.95801 -2.56636 0
M  V30 1866 H 171.621 -3.69939 -0.885947 0
M  V30 1867 H 172.933 -4.79504 -1.37394 0
M  V30 1868 H 172.087 -4.78522 -3.72963 0
M  V30 1869 H 170.826 -3.59803 -3.29231 0
M  V30 1870 H 169.831 -5.23751 -1.67228 0
M  V30 1871 H 171.056 -6.44613 -2.13659 0
M  V30 1872 H 169.002 -5.19817 -4.00158 0
M  V30 1873 H 168.919 -6.79066 -3.32273 0
M  V30 1874 H 170.187 -6.40227 -4.44668 0
M  V30 1875 N 174.416 0.165178 -1.56732 0
M  V30 1876 C 175.646 0.894919 -1.86212 0
M  V30 1877 C 176.054 1.76066 -0.692627 0
M  V30 1878 O 175.397 1.80387 0.347303 0
M  V30 1879 C 175.459 1.8174 -3.10179 0
M  V30 1880 C 175.123 1.13064 -4.42793 0
M  V30 1881 C 176.12 0.493169 -5.17556 0
M  V30 1882 C 173.805 1.12556 -4.89527 0
M  V30 1883 C 175.799 -0.140209 -6.37246 0
M  V30 1884 C 173.486 0.488366 -6.09145 0
M  V30 1885 C 174.484 -0.143411 -6.82849 0
M  V30 1886 O 174.172 -0.77055 -8.00199 0
M  V30 1887 H 173.904 0.265114 -0.621844 0
M  V30 1888 H 176.458 0.168242 -2.0471 0
M  V30 1889 H 174.688 2.58455 -2.87642 0
M  V30 1890 H 176.377 2.4175 -3.26055 0
M  V30 1891 H 177.143 0.489023 -4.82528 0
M  V30 1892 H 173.022 1.60672 -4.32094 0
M  V30 1893 H 176.566 -0.633932 -6.94714 0
M  V30 1894 H 172.463 0.490116 -6.43637 0
M  V30 1895 H 173.231 -0.670408 -8.1575 0
M  V30 1896 N 175.894 1.51508 0.433938 0
M  V30 1897 C 177.171 1.54888 1.19453 0
M  V30 1898 C 177.551 0.315154 2.08734 0
M  V30 1899 O 176.899 -0.699558 2.17528 0
M  V30 1900 C 177.109 2.86467 1.99342 0
M  V30 1901 C 178.457 3.38545 2.56267 0
M  V30 1902 O 179.481 2.88041 2.0955 0
M  V30 1903 O 178.34 4.26675 3.41483 0
M  V30 1904 H 175.434 0.622863 0.544032 0
M  V30 1905 H 177.98 1.63823 0.442732 0
M  V30 1906 H 176.752 3.67718 1.33788 0
M  V30 1907 H 176.375 2.8071 2.8158 0
M  V30 1908 N 177.372 -0.689602 1.41712 0
M  V30 1909 C 178.6 -1.47827 1.44758 0
M  V30 1910 C 179.015 -1.88721 0.0545703 0
M  V30 1911 O 178.372 -1.57176 -0.927463 0
M  V30 1912 C 178.423 -2.73698 2.3616 0
M  V30 1913 O 178.144 -2.34524 3.7004 0
M  V30 1914 C 179.645 -3.67389 2.48072 0
M  V30 1915 H 176.865 -0.455357 0.49284 0
M  V30 1916 H 179.409 -0.848574 1.86063 0
M  V30 1917 H 177.564 -3.32891 1.98148 0
M  V30 1918 H 177.978 -3.15701 4.18847 0
M  V30 1919 H 179.452 -4.52475 3.16181 0
M  V30 1920 H 179.929 -4.12284 1.51388 0
M  V30 1921 H 180.535 -3.14097 2.86746 0
M  V30 1922 N 178.85 -1.27639 -0.924453 0
M  V30 1923 C 180.127 -1.04887 -1.651 0
M  V30 1924 C 180.507 0.415327 -2.06974 0
M  V30 1925 O 179.855 1.39923 -1.80648 0
M  V30 1926 C 180.065 -2.01348 -2.85061 0
M  V30 1927 C 181.413 -2.30899 -3.56329 0
M  V30 1928 O 182.437 -1.99348 -2.95193 0
M  V30 1929 O 181.296 -2.84699 -4.66485 0
M  V30 1930 H 178.39 -0.400083 -0.723784 0
M  V30 1931 H 180.936 -1.38916 -0.974703 0
M  V30 1932 H 179.708 -3.0008 -2.51133 0
M  V30 1933 H 179.331 -1.679 -3.6041 0
M  V30 1934 N 180.328 1.1314 -1.09713 0
M  V30 1935 C 181.744 1.36477 -0.827423 0
M  V30 1936 C 181.944 1.93654 0.556817 0
M  V30 1937 O 181 2.15791 1.31112 0
M  V30 1938 C 182.313 2.31334 -1.92106 0
M  V30 1939 C 183.861 2.44943 -1.94864 0
M  V30 1940 C 184.336 3.4311 -3.0338 0
M  V30 1941 N 185.827 3.50662 -3.02639 0
M  V30 1942 C 186.562 4.2651 -3.83246 0
M  V30 1943 N 186.058 5.05485 -4.73768 0
M  V30 1944 N 187.851 4.2184 -3.71493 0
M  V30 1945 H 180.002 0.743807 -1.9895 0
M  V30 1946 H 182.265 0.389823 -0.864143 0
M  V30 1947 H 181.971 1.96483 -2.91698 0
M  V30 1948 H 181.845 3.31381 -1.80184 0
M  V30 1949 H 184.232 2.79079 -0.959099 0
M  V30 1950 H 184.313 1.4481 -2.10864 0
M  V30 1951 H 183.957 3.09704 -4.02549 0
M  V30 1952 H 183.887 4.43055 -2.84622 0
M  V30 1953 H 186.378 2.94315 -2.37039 0
M  V30 1954 H 186.691 5.60675 -5.3185 0
M  V30 1955 H 185.036 5.04708 -4.77802 0
M  V30 1956 H 188.227 3.5922 -3.00131 0
M  V30 1957 H 188.4 4.80697 -4.3455 0
M  V30 1958 N 181.806 0.884767 1.30421 0
M  V30 1959 C 183.031 0.517288 2.00845 0
M  V30 1960 C 183.456 -0.886779 1.65885 0
M  V30 1961 O 182.814 -1.58768 0.875354 0
M  V30 1962 C 182.862 0.698994 3.5376 0
M  V30 1963 O 181.966 -0.255208 4.1161 0
M  V30 1964 H 181.307 0.203872 0.631927 0
M  V30 1965 H 183.837 1.19225 1.66272 0
M  V30 1966 H 183.847 0.597912 4.03595 0
M  V30 1967 H 182.522 1.72271 3.78544 0
M  V30 1968 H 181.099 -0.10784 3.72744 0
M  V30 1969 N 183.284 -1.43765 0.645699 0
M  V30 1970 C 184.532 -2.01499 0.155731 0
M  V30 1971 C 184.853 -1.51151 -1.232 0
M  V30 1972 O 184.123 -0.721044 -1.82148 0
M  V30 1973 H 182.703 -0.745003 0.0545817 0
M  V30 1974 H 185.365 -1.76075 0.835677 0
M  V30 1975 H 184.461 -3.1181 0.134577 0
M  V30 1976 N 184.763 -0.387143 -1.52771 0
M  V30 1977 C 185.993 0.195585 -2.05672 0
M  V30 1978 C 186.401 1.41241 -1.25887 0
M  V30 1979 O 185.744 1.81265 -0.298081 0
M  V30 1980 C 185.806 0.632327 -3.53895 0
M  V30 1981 C 185.47 -0.470739 -4.54569 0
M  V30 1982 C 186.467 -1.32746 -5.02667 0
M  V30 1983 C 184.152 -0.637151 -4.98243 0
M  V30 1984 C 186.146 -2.33574 -5.93061 0
M  V30 1985 C 183.833 -1.64877 -5.88438 0
M  V30 1986 C 184.831 -2.49649 -6.35739 0
M  V30 1987 O 184.519 -3.49082 -7.24153 0
M  V30 1988 H 184.251 0.033658 -0.675162 0
M  V30 1989 H 186.805 -0.550221 -1.97893 0
M  V30 1990 H 185.035 1.43008 -3.59285 0
M  V30 1991 H 186.724 1.14048 -3.89548 0
M  V30 1992 H 187.49 -1.21019 -4.69659 0
M  V30 1993 H 183.369 0.0129567 -4.60998 0
M  V30 1994 H 186.913 -2.99777 -6.29904 0
M  V30 1995 H 182.81 -1.76643 -6.2086 0
M  V30 1996 H 183.578 -3.45065 -7.42208 0
M  V30 1997 N 186.241 1.57166 -0.116904 0
M  V30 1998 C 187.49 1.94298 0.541407 0
M  V30 1999 C 187.803 1.00236 1.67964 0
M  V30 2000 O 189.009 1.26826 2.40057 0
M  V30 2001 C 187.465 3.45306 1.01449 0
M  V30 2002 C 187.073 4.47899 -0.0951738 0
M  V30 2003 C 188.817 3.91361 1.6443 0
M  V30 2004 C 186.724 5.90083 0.394491 0
M  V30 2005 H 185.654 0.725308 0.206019 0
M  V30 2006 H 188.305 1.82446 -0.196419 0
M  V30 2007 H 186.687 3.52385 1.80667 0
M  V30 2008 H 187.861 4.52486 -0.871374 0
M  V30 2009 H 186.176 4.11583 -0.631505 0
M  V30 2010 H 188.773 4.95004 2.02176 0
M  V30 2011 H 189.116 3.3122 2.52189 0
M  V30 2012 H 189.649 3.87073 0.917559 0
M  V30 2013 H 186.388 6.53974 -0.447004 0
M  V30 2014 H 185.908 5.88921 1.13722 0
M  V30 2015 H 187.587 6.41307 0.856399 0
M  V30 2016 N 187.719 -0.156864 1.56817 0
M  V30 2017 C 188.629 -1.2136 2.00771 0
M  V30 2018 C 189.645 -1.47598 0.921459 0
M  V30 2019 O 190.821 -1.59462 1.2302 0
M  V30 2020 C 187.886 -2.52943 2.37109 0
M  V30 2021 C 186.947 -2.34439 3.59634 0
M  V30 2022 C 186.18 -3.59748 3.94229 0
M  V30 2023 O 186.403 -4.65526 3.29609 0
M  V30 2024 O 185.337 -3.52998 4.8752 0
M  V30 2025 H 189.163 -0.870468 2.90958 0
M  V30 2026 H 186.748 -0.36484 1.44877 0
M  V30 2027 H 188.63 -3.30538 2.61386 0
M  V30 2028 H 187.305 -2.86806 1.5008 0
M  V30 2029 H 186.212 -1.54828 3.40557 0
M  V30 2030 H 187.545 -2.05496 4.4725 0
M  V30 2031 N 189.197 -1.51736 -0.425897 0
M  V30 2032 C 190.16 -1.73271 -1.50032 0
M  V30 2033 C 191.16 -0.602639 -1.4908 0
M  V30 2034 O 192.35 -0.87033 -1.509 0
M  V30 2035 C 189.482 -1.79969 -2.89523 0
M  V30 2036 H 190.675 -2.69172 -1.32237 0
M  V30 2037 H 188.228 -1.41899 -0.65532 0
M  V30 2038 H 188.963 -0.859241 -3.1271 0
M  V30 2039 H 188.748 -2.62109 -2.91619 0
M  V30 2040 H 190.238 -1.9843 -3.67444 0
M  V30 2041 N 190.675 0.682077 -1.42076 0
M  V30 2042 C 191.623 1.81707 -1.45208 0
M  V30 2043 C 192.617 1.66183 -0.328591 0
M  V30 2044 O 193.823 1.7288 -0.501264 0
M  V30 2045 H 190.198 0.599014 -0.454628 0
M  V30 2046 H 192.169 1.76183 -2.40836 0
M  V30 2047 C 190.918 3.19816 -1.36428 0
M  V30 2048 H 190.241 3.32385 -2.22171 0
M  V30 2049 H 191.681 3.99272 -1.42681 0
M  V30 2050 C 190.14 3.36809 -0.078191 0
M  V30 2051 O 190.67 3.92124 0.87188 0
M  V30 2052 N 188.876 2.906 0.00229266 0
M  V30 2053 H 188.423 2.45772 -0.771616 0
M  V30 2054 H 188.381 3.02347 0.862179 0
M  V30 2055 N 192.153 1.28127 0.917671 0
M  V30 2056 C 193.063 1.13556 2.05286 0
M  V30 2057 C 194.079 0.0630914 1.73886 0
M  V30 2058 O 195.255 0.271598 1.9956 0
M  V30 2059 C 192.32 0.794676 3.3747 0
M  V30 2060 C 191.381 1.94909 3.82504 0
M  V30 2061 C 190.614 1.62437 5.0838 0
M  V30 2062 O 190.837 0.536905 5.67867 0
M  V30 2063 O 189.771 2.46677 5.4903 0
M  V30 2064 H 193.597 2.08844 2.20495 0
M  V30 2065 H 191.182 1.07409 1.03845 0
M  V30 2066 H 193.064 0.618344 4.16839 0
M  V30 2067 H 191.739 -0.128581 3.23445 0
M  V30 2068 H 190.646 2.18055 3.03978 0
M  V30 2069 H 191.979 2.85291 4.01086 0
M  V30 2070 N 193.631 -1.12557 1.10312 0
M  V30 2071 C 194.561 -2.20341 0.772798 0
M  V30 2072 C 195.542 -1.68198 -0.25365 0
M  V30 2073 O 196.727 -1.93831 -0.119699 0
M  V30 2074 C 193.857 -3.46709 0.202443 0
M  V30 2075 C 192.811 -4.11996 1.15943 0
M  V30 2076 C 192.137 -5.328 0.450345 0
M  V30 2077 C 193.437 -4.5828 2.50552 0
M  V30 2078 H 195.131 -2.48229 1.674 0
M  V30 2079 H 192.677 -1.19308 0.806326 0
M  V30 2080 H 194.63 -4.2138 -0.0407752 0
M  V30 2081 H 193.354 -3.18245 -0.734001 0
M  V30 2082 H 192.013 -3.39305 1.38808 0
M  V30 2083 H 191.661 -5.00602 -0.490531 0
M  V30 2084 H 191.361 -5.7743 1.08851 0
M  V30 2085 H 192.885 -6.10219 0.215642 0
M  V30 2086 H 194.299 -5.2433 2.31843 0
M  V30 2087 H 192.696 -5.13683 3.10242 0
M  V30 2088 H 193.766 -3.72329 3.10643 0
M  V30 2089 N 195.109 -0.891671 -1.2995 0
M  V30 2090 C 196.056 -0.361736 -2.27948 0
M  V30 2091 C 197.026 0.551761 -1.56668 0
M  V30 2092 O 198.211 0.478736 -1.84696 0
M  V30 2093 C 195.351 0.411825 -3.42634 0
M  V30 2094 C 194.464 -0.531651 -4.28716 0
M  V30 2095 C 193.599 0.258167 -5.30572 0
M  V30 2096 C 192.638 -0.680349 -6.08307 0
M  V30 2097 N 191.775 0.0745613 -7.0206 0
M  V30 2098 H 196.615 -1.20254 -2.72659 0
M  V30 2099 H 194.152 -0.604352 -1.34112 0
M  V30 2100 H 196.11 0.876304 -4.07893 0
M  V30 2101 H 194.74 1.21715 -2.98974 0
M  V30 2102 H 193.792 -1.11463 -3.63703 0
M  V30 2103 H 195.104 -1.25038 -4.82874 0
M  V30 2104 H 194.258 0.784204 -6.0161 0
M  V30 2105 H 192.997 1.01008 -4.77126 0
M  V30 2106 H 192.002 -1.21796 -5.3614 0
M  V30 2107 H 193.227 -1.43145 -6.63842 0
M  V30 2108 H 191.173 0.808883 -6.50994 0
M  V30 2109 H 191.09 -0.584409 -7.53738 0
M  V30 2110 H 192.358 0.581123 -7.77331 0
M  V30 2111 N 196.587 1.43421 -0.653314 0
M  V30 2112 C 197.835 2.01414 -0.166415 0
M  V30 2113 C 198.156 1.51803 1.22397 0
M  V30 2114 O 197.426 0.730693 1.81763 0
M  V30 2115 H 196.006 0.744703 -0.0585319 0
M  V30 2116 H 198.668 1.75629 -0.845003 0
M  V30 2117 H 197.764 3.11734 -0.151111 0
M  V30 2118 N 198.065 0.39524 1.52563 0
M  V30 2119 C 199.312 -0.185044 2.01653 0
M  V30 2120 C 199.64 -1.46317 1.28146 0
M  V30 2121 O 198.895 -1.9213 0.372074 0
M  V30 2122 C 199.194 -0.493444 3.53977 0
M  V30 2123 C 198.86 0.69384 4.4553 0
M  V30 2124 C 197.522 1.01954 4.70275 0
M  V30 2125 C 199.874 1.48785 4.99512 0
M  V30 2126 C 197.202 2.14069 5.46252 0
M  V30 2127 C 199.554 2.59965 5.76716 0
M  V30 2128 C 198.218 2.93037 5.99738 0
M  V30 2129 H 197.488 -0.0677123 0.7379 0
M  V30 2130 H 200.135 0.533807 1.8391 0
M  V30 2131 H 198.44 -1.29369 3.69825 0
M  V30 2132 H 200.137 -0.955163 3.89458 0
M  V30 2133 H 196.727 0.429987 4.26438 0
M  V30 2134 H 200.911 1.24946 4.80315 0
M  V30 2135 H 196.167 2.40056 5.62302 0
M  V30 2136 H 200.341 3.21887 6.17545 0
M  V30 2137 H 197.968 3.8003 6.58393 0
M  V30 2138 N 199.544 -1.57102 0.125237 0
M  V30 2139 C 200.474 -2.18659 -0.819174 0
M  V30 2140 C 201.455 -1.12843 -1.27281 0
M  V30 2141 O 202.64 -1.41104 -1.33429 0
M  V30 2142 C 199.77 -2.79096 -2.06695 0
M  V30 2143 C 198.724 -3.90548 -1.75088 0
M  V30 2144 C 198.05 -4.37821 -3.06948 0
M  V30 2145 C 199.35 -5.12356 -1.01435 0
M  V30 2146 H 201.044 -2.9783 -0.306202 0
M  V30 2147 H 198.59 -1.4326 -0.145839 0
M  V30 2148 H 200.543 -3.2082 -2.73226 0
M  V30 2149 H 199.267 -1.97223 -2.60328 0
M  V30 2150 H 197.926 -3.49409 -1.10944 0
M  V30 2151 H 197.574 -3.52799 -3.58527 0
M  V30 2152 H 197.274 -5.12982 -2.86571 0
M  V30 2153 H 198.798 -4.822 -3.74587 0
M  V30 2154 H 200.212 -5.5106 -1.58132 0
M  V30 2155 H 198.609 -5.9314 -0.911319 0
M  V30 2156 H 199.679 -4.849 -0.00218681 0
M  V30 2157 N 201.022 0.148545 -1.56898 0
M  V30 2158 C 202.247 0.880385 -1.87787 0
M  V30 2159 C 202.672 1.74018 -0.714093 0
M  V30 2160 O 202.03 1.78153 0.336343 0
M  V30 2161 C 202.078 1.71422 -3.17249 0
M  V30 2162 O 201.182 2.8183 -3.01074 0
M  V30 2163 H 200.523 0.245301 -0.617028 0
M  V30 2164 H 203.053 0.139826 -2.04122 0
M  V30 2165 H 203.063 2.10954 -3.49231 0
M  V30 2166 H 201.738 1.08284 -4.01556 0
M  V30 2167 H 200.315 2.45715 -2.80497 0
M  V30 2168 N 202.5 1.5196 0.417844 0
M  V30 2169 C 203.777 1.56146 1.17803 0
M  V30 2170 C 204.157 0.337275 2.08388 0
M  V30 2171 O 203.505 -0.676447 2.18258 0
M  V30 2172 C 203.715 2.88566 1.96293 0
M  V30 2173 C 205.063 3.41244 2.52662 0
M  V30 2174 O 206.087 2.90247 2.06483 0
M  V30 2175 O 204.946 4.30273 3.36938 0
M  V30 2176 H 202.04 0.628598 0.537395 0
M  V30 2177 H 204.586 1.64283 0.425331 0
M  V30 2178 H 203.358 3.69116 1.2988 0
M  V30 2179 H 202.981 2.83681 2.78587 0
M  V30 2180 N 203.978 -0.674533 1.42435 0
M  V30 2181 C 204.908 -1.80009 1.48724 0
M  V30 2182 C 205.889 -1.6659 0.343793 0
M  V30 2183 O 207.074 -1.86007 0.558137 0
M  V30 2184 C 204.204 -3.18306 1.38919 0
M  V30 2185 C 203.158 -3.46461 2.51294 0
M  V30 2186 C 202.484 -4.84335 2.26547 0
M  V30 2187 C 203.784 -3.43328 3.93603 0
M  V30 2188 H 205.478 -1.75004 2.42928 0
M  V30 2189 H 203.024 -0.840533 1.16923 0
M  V30 2190 H 204.977 -3.9678 1.41927 0
M  V30 2191 H 203.701 -3.2399 0.412094 0
M  V30 2192 H 202.36 -2.70348 2.47604 0
M  V30 2193 H 202.008 -4.86669 1.2713 0
M  V30 2194 H 201.708 -5.04136 3.01861 0
M  V30 2195 H 203.232 -5.65094 2.31304 0
M  V30 2196 H 204.646 -4.11772 3.98894 0
M  V30 2197 H 203.043 -3.74664 4.68771 0
M  V30 2198 H 204.113 -2.41897 4.20255 0
M  V30 2199 N 205.456 -1.28612 -0.910864 0
M  V30 2200 C 206.386 -1.15326 -2.03032 0
M  V30 2201 C 207.367 -0.0502924 -1.70026 0
M  V30 2202 O 208.552 -0.227797 -1.92859 0
M  V30 2203 C 205.682 -0.817343 -3.37545 0
M  V30 2204 C 204.636 -1.8754 -3.84724 0
M  V30 2205 C 203.962 -1.39305 -5.16235 0
M  V30 2206 C 205.262 -3.28244 -4.06267 0
M  V30 2207 H 206.956 -2.08975 -2.14406 0
M  V30 2208 H 204.502 -1.00612 -1.03021 0
M  V30 2209 H 206.455 -0.711151 -4.15356 0
M  V30 2210 H 205.179 0.154846 -3.26233 0
M  V30 2211 H 203.838 -1.97079 -3.09121 0
M  V30 2212 H 203.486 -0.409846 -5.01328 0
M  V30 2213 H 203.186 -2.10057 -5.48771 0
M  V30 2214 H 204.71 -1.30014 -5.96598 0
M  V30 2215 H 206.124 -3.21611 -4.74594 0
M  V30 2216 H 204.521 -3.96855 -4.5014 0
M  V30 2217 H 205.591 -3.72048 -3.10979 0
M  V30 2218 N 206.934 1.1197 -1.10907 0
M  V30 2219 C 207.881 2.17846 -0.762345 0
M  V30 2220 C 208.851 1.63995 0.263599 0
M  V30 2221 O 210.036 1.90273 0.141773 0
M  V30 2222 C 207.176 3.44487 -0.205651 0
M  V30 2223 C 206.289 4.12369 -1.28748 0
M  V30 2224 C 205.424 5.26674 -0.691919 0
M  V30 2225 C 204.463 5.86431 -1.75399 0
M  V30 2226 N 203.6 6.92142 -1.17833 0
M  V30 2227 H 208.44 2.46851 -1.6694 0
M  V30 2228 H 205.977 1.21188 -0.833776 0
M  V30 2229 H 207.935 4.16981 0.135037 0
M  V30 2230 H 206.565 3.15884 0.664613 0
M  V30 2231 H 205.617 3.38003 -1.74522 0
M  V30 2232 H 206.929 4.52844 -2.09125 0
M  V30 2233 H 206.083 6.05953 -0.300963 0
M  V30 2234 H 204.822 4.8749 0.143232 0
M  V30 2235 H 203.827 5.05835 -2.15432 0
M  V30 2236 H 205.052 6.27685 -2.59208 0
M  V30 2237 H 202.998 6.54985 -0.364725 0
M  V30 2238 H 202.915 7.31242 -1.91887 0
M  V30 2239 H 204.183 7.75237 -0.81408 0
M  V30 2240 N 208.412 0.89855 1.29475 0
M  V30 2241 C 209.359 0.373819 2.27753 0
M  V30 2242 C 210.329 -0.543444 1.56958 0
M  V30 2243 O 211.514 -0.468934 1.84948 0
M  V30 2244 C 208.654 -0.393648 3.42848 0
M  V30 2245 C 207.767 0.554379 4.28428 0
M  V30 2246 C 206.902 -0.230026 5.30702 0
M  V30 2247 C 205.941 0.712599 6.07938 0
M  V30 2248 N 205.078 -0.0373283 7.0209 0
M  V30 2249 H 209.918 1.21699 2.72017 0
M  V30 2250 H 207.455 0.611456 1.33789 0
M  V30 2251 H 209.413 -0.85466 4.08352 0
M  V30 2252 H 208.043 -1.20128 2.99615 0
M  V30 2253 H 207.095 1.13391 3.63107 0
M  V30 2254 H 208.407 1.27597 4.82204 0
M  V30 2255 H 207.561 -0.752288 6.02018 0
M  V30 2256 H 206.3 -0.984758 4.77654 0
M  V30 2257 H 205.305 1.24637 5.35486 0
M  V30 2258 H 206.53 1.46664 6.63074 0
M  V30 2259 H 204.476 -0.774348 6.51414 0
M  V30 2260 H 204.393 0.624374 7.53417 0
M  V30 2261 H 205.661 -0.539891 7.77628 0
M  V30 2262 N 209.89 -1.43072 0.660911 0
M  V30 2263 C 210.853 -2.29194 -0.0166406 0
M  V30 2264 C 211.853 -1.42609 -0.742912 0
M  V30 2265 O 213.043 -1.64155 -0.583004 0
M  V30 2266 C 210.175 -3.24831 -1.0343 0
M  V30 2267 H 211.368 -2.90596 0.741208 0
M  V30 2268 H 208.921 -1.5048 0.422532 0
M  V30 2269 H 209.656 -2.68339 -1.82111 0
M  V30 2270 H 209.441 -3.88676 -0.517082 0
M  V30 2271 H 210.931 -3.89451 -1.50723 0
M  V30 2272 N 211.368 -0.403325 -1.52352 0
M  V30 2273 C 212.316 0.439752 -2.28405 0
M  V30 2274 C 213.31 1.05089 -1.32863 0
M  V30 2275 O 214.516 0.989759 -1.50345 0
M  V30 2276 H 210.891 0.160587 -0.734653 0
M  V30 2277 H 212.862 -0.222983 -2.97566 0
M  V30 2278 C 211.611 1.54736 -3.11371 0
M  V30 2279 H 210.934 1.08643 -3.84755 0
M  V30 2280 H 212.374 2.1112 -3.67701 0
M  V30 2281 C 210.833 2.51141 -2.24566 0
M  V30 2282 O 211.363 3.54887 -1.88196 0
M  V30 2283 N 209.569 2.21213 -1.8845 0
M  V30 2284 H 209.116 1.36878 -2.18225 0
M  V30 2285 H 209.074 2.85963 -1.30662 0
M  V30 2286 N 212.846 1.57033 -0.133567 0
M  V30 2287 C 214.262 1.58035 0.222944 0
M  V30 2288 C 214.462 1.14713 1.6566 0
M  V30 2289 O 213.518 0.841218 2.38075 0
M  V30 2290 C 214.831 3.00691 -0.0236116 0
M  V30 2291 C 216.379 3.12973 0.0411512 0
M  V30 2292 C 216.854 4.57654 -0.177899 0
M  V30 2293 N 218.345 4.63033 -0.124365 0
M  V30 2294 C 219.08 5.72771 -0.268553 0
M  V30 2295 N 218.576 6.91206 -0.46972 0
M  V30 2296 N 220.369 5.61718 -0.2071 0
M  V30 2297 H 212.52 1.8349 -1.06981 0
M  V30 2298 H 214.783 0.848677 -0.422436 0
M  V30 2299 H 214.489 3.36726 -1.0153 0
M  V30 2300 H 214.363 3.70614 0.701808 0
M  V30 2301 H 216.75 2.76787 1.02338 0
M  V30 2302 H 216.831 2.45564 -0.716383 0
M  V30 2303 H 216.475 4.94542 -1.15717 0
M  V30 2304 H 216.405 5.23173 0.599797 0
M  V30 2305 H 218.896 3.7789 0.027011 0
M  V30 2306 H 219.209 7.70693 -0.570212 0
M  V30 2307 H 217.554 6.93156 -0.505876 0
M  V30 2308 H 220.745 4.68072 -0.0507986 0
M  V30 2309 H 220.918 6.47195 -0.322909 0
M  V30 2310 N 214.325 -0.140222 1.56975 0
M  V30 2311 C 215.736 -0.699596 1.73097 0
M  V30 2312 C 216.087 -1.8134 0.749022 0
M  V30 2313 O 215.212 -2.16241 -0.0828503 0
M  V30 2314 C 215.807 -1.27582 3.1386 0
M  V30 2315 C 214.366 -1.78169 3.31561 0
M  V30 2316 C 213.513 -0.672855 2.69013 0
M  V30 2317 H 216.464 0.0855115 1.58469 0
M  V30 2318 H 216.485 -2.14561 3.14235 0
M  V30 2319 H 215.997 -0.464955 3.85305 0
M  V30 2320 H 214.098 -2.61801 2.65124 0
M  V30 2321 H 214.211 -1.90574 4.39566 0
M  V30 2322 H 212.575 -1.10118 2.29665 0
M  V30 2323 H 213.358 0.126679 3.43066 0
M  V30 2324 N 215.803 -1.52179 -0.40978 0
M  V30 2325 C 217.033 -1.69807 -1.17682 0
M  V30 2326 C 217.441 -0.406908 -1.84773 0
M  V30 2327 O 216.784 0.626863 -1.72673 0
M  V30 2328 C 216.846 -2.77712 -2.2829 0
M  V30 2329 C 216.51 -4.19481 -1.81341 0
M  V30 2330 C 217.507 -5.03345 -1.30154 0
M  V30 2331 C 215.192 -4.65713 -1.88194 0
M  V30 2332 C 217.186 -6.31511 -0.864416 0
M  V30 2333 C 214.873 -5.93869 -1.44093 0
M  V30 2334 C 215.871 -6.76597 -0.933023 0
M  V30 2335 O 215.559 -8.02354 -0.49838 0
M  V30 2336 H 215.291 -0.572372 -0.359675 0
M  V30 2337 H 217.845 -1.99511 -0.488311 0
M  V30 2338 H 216.075 -2.43383 -3.00502 0
M  V30 2339 H 217.764 -2.83946 -2.90051 0
M  V30 2340 H 218.53 -4.68819 -1.24232 0
M  V30 2341 H 214.409 -4.01424 -2.26671 0
M  V30 2342 H 217.953 -6.96033 -0.467286 0
M  V30 2343 H 213.85 -6.27903 -1.49694 0
M  V30 2344 H 214.618 -8.16135 -0.621747 0
M  V30 2345 N 217.281 0.66697 -1.42791 0
M  V30 2346 C 218.558 1.4234 -1.34159 0
M  V30 2347 C 218.938 2.11093 0.0172729 0
M  V30 2348 O 218.286 2.03808 1.03318 0
M  V30 2349 C 218.496 2.41942 -2.51526 0
M  V30 2350 C 219.844 3.06353 -2.93995 0
M  V30 2351 O 220.868 2.52269 -2.51473 0
M  V30 2352 O 219.727 4.04376 -3.67617 0
M  V30 2353 H 216.821 0.635277 -0.529483 0
M  V30 2354 H 219.367 0.695034 -1.54814 0
M  V30 2355 H 218.139 1.89991 -3.42081 0
M  V30 2356 H 217.762 3.22249 -2.32898 0
M  V30 2357 N 218.759 1.29093 0.90403 0
M  V30 2358 C 219.669 1.15727 2.0407 0
M  V30 2359 C 220.685 0.0815308 1.73809 0
M  V30 2360 O 221.861 0.292749 1.99261 0
M  V30 2361 C 218.926 0.830424 3.36608 0
M  V30 2362 C 217.987 1.98955 3.80415 0
M  V30 2363 C 217.22 1.6782 5.06628 0
M  V30 2364 O 217.443 0.597105 5.67266 0
M  V30 2365 O 216.377 2.52486 5.46383 0
M  V30 2366 H 220.203 2.11171 2.18267 0
M  V30 2367 H 217.788 1.08504 1.027 0
M  V30 2368 H 219.67 0.662521 4.16159 0
M  V30 2369 H 218.345 -0.0942678 3.23563 0
M  V30 2370 H 217.252 2.21267 3.01648 0
M  V30 2371 H 218.585 2.89529 3.98037 0
M  V30 2372 N 220.237 -1.11381 1.11499 0
M  V30 2373 C 221.648 -1.6465 0.880191 0
M  V30 2374 C 221.999 -1.87199 -0.587434 0
M  V30 2375 O 221.124 -1.60667 -1.44966 0
M  V30 2376 C 221.719 -2.99105 1.59128 0
M  V30 2377 C 220.278 -3.49279 1.40289 0
M  V30 2378 C 219.425 -2.24077 1.63354 0
M  V30 2379 H 222.376 -0.950123 1.27116 0
M  V30 2380 H 222.397 -3.66107 1.03664 0
M  V30 2381 H 221.909 -2.82661 2.65941 0
M  V30 2382 H 220.01 -3.70887 0.356888 0
M  V30 2383 H 220.123 -4.2803 2.15238 0
M  V30 2384 H 218.487 -2.31733 1.05698 0
M  V30 2385 H 219.27 -2.10175 2.71443 0
M  V30 2386 N 221.715 -0.905404 -1.28997 0
M  V30 2387 C 222.662 -0.385892 -2.27551 0
M  V30 2388 C 223.632 0.535113 -1.57244 0
M  V30 2389 O 224.817 0.459119 -1.85194 0
M  V30 2390 C 221.957 0.375461 -3.43051 0
M  V30 2391 C 221.07 -0.577092 -4.28128 0
M  V30 2392 C 220.205 0.201879 -5.30816 0
M  V30 2393 C 219.244 -0.744829 -6.07551 0
M  V30 2394 N 218.381 9.42587e-05 -7.021 0
M  V30 2395 H 223.221 -1.23139 -2.71368 0
M  V30 2396 H 220.758 -0.618542 -1.33463 0
M  V30 2397 H 222.716 0.832992 -4.088 0
M  V30 2398 H 221.346 1.18537 -3.00248 0
M  V30 2399 H 220.398 -1.15315 -3.62501 0
M  V30 2400 H 221.71 -1.30152 -4.8152 0
M  V30 2401 H 220.864 0.720351 -6.02408 0
M  V30 2402 H 219.603 0.959413 -4.7817 0
M  V30 2403 H 218.608 -1.27475 -5.34818 0
M  V30 2404 H 219.833 -1.50178 -6.62286 0
M  V30 2405 H 217.779 0.739791 -6.51815 0
M  V30 2406 H 217.696 -0.664321 -7.53076 0
M  V30 2407 H 218.964 0.498644 -7.77903 0
M  V30 2408 N 223.193 1.4272 -0.668489 0
M  V30 2409 C 224.123 2.335 -0.000100175 0
M  V30 2410 C 225.104 1.50328 0.795964 0
M  V30 2411 O 226.289 1.78949 0.754385 0
M  V30 2412 C 223.419 3.33874 0.956302 0
M  V30 2413 C 222.373 4.27152 0.269278 0
M  V30 2414 C 221.699 5.17684 1.33818 0
M  V30 2415 C 222.999 5.15373 -0.847805 0
M  V30 2416 H 224.693 2.89639 -0.758244 0
M  V30 2417 H 222.239 1.39269 -0.366079 0
M  V30 2418 H 224.192 3.9629 1.43292 0
M  V30 2419 H 222.916 2.76025 1.74579 0
M  V30 2420 H 221.575 3.66123 -0.187042 0
M  V30 2421 H 221.223 4.56165 2.1195 0
M  V30 2422 H 220.923 5.80918 0.883659 0
M  V30 2423 H 222.447 5.82974 1.81586 0
M  V30 2424 H 223.861 5.7151 -0.452681 0
M  V30 2425 H 222.258 5.87407 -1.22773 0
M  V30 2426 H 223.328 4.5415 -1.69929 0
M  V30 2427 N 224.671 0.411399 1.52136 0
M  V30 2428 C 225.603 -0.448386 2.24771 0
M  V30 2429 C 226.616 -1.00828 1.27818 0
M  V30 2430 O 227.805 -0.906841 1.53749 0
M  V30 2431 C 224.905 -1.63636 2.96777 0
M  V30 2432 C 224.078 -1.19995 4.20618 0
M  V30 2433 C 223.137 -2.25509 4.75428 0
M  V30 2434 O 222.163 -1.86007 5.3795 0
M  V30 2435 N 223.365 -3.577 4.57199 0
M  V30 2436 H 226.13 0.174025 2.99194 0
M  V30 2437 H 223.691 0.238897 1.60128 0
M  V30 2438 H 225.683 -2.33793 3.30338 0
M  V30 2439 H 224.253 -2.16465 2.25526 0
M  V30 2440 H 223.473 -0.326421 3.92846 0
M  V30 2441 H 224.761 -0.885365 5.01038 0
M  V30 2442 H 224.159 -3.92543 4.07341 0
M  V30 2443 H 222.716 -4.23827 4.95191 0
M  V30 2444 N 226.149 -1.5696 0.141893 0
M  V30 2445 C 227.059 -2.20066 -0.812905 0
M  V30 2446 C 228.075 -1.18344 -1.27557 0
M  V30 2447 O 229.251 -1.50902 -1.33381 0
M  V30 2448 C 226.316 -2.80583 -2.03652 0
M  V30 2449 C 225.377 -3.97414 -1.62359 0
M  V30 2450 C 224.61 -4.55036 -2.78887 0
M  V30 2451 O 224.833 -4.11538 -3.94959 0
M  V30 2452 O 223.767 -5.45376 -2.54653 0
M  V30 2453 H 227.593 -3.02157 -0.305746 0
M  V30 2454 H 225.178 -1.49159 -0.0848799 0
M  V30 2455 H 227.06 -3.19067 -2.75272 0
M  V30 2456 H 225.735 -2.01508 -2.5333 0
M  V30 2457 H 224.642 -3.63656 -0.877775 0
M  V30 2458 H 225.975 -4.77994 -1.17401 0
M  V30 2459 N 227.627 0.131896 -1.57047 0
M  V30 2460 C 228.857 0.855219 -1.88068 0
M  V30 2461 C 229.265 1.74557 -0.729817 0
M  V30 2462 O 228.608 1.81083 0.308962 0
M  V30 2463 C 228.67 1.75119 -3.13964 0
M  V30 2464 C 228.334 1.03646 -4.45091 0
M  V30 2465 C 229.331 0.383276 -5.18485 0
M  V30 2466 C 227.016 1.02148 -4.91804 0
M  V30 2467 C 229.01 -0.275347 -6.36805 0
M  V30 2468 C 226.697 0.359047 -6.10044 0
M  V30 2469 C 227.695 -0.288222 -6.82392 0
M  V30 2470 O 227.383 -0.94011 -7.98384 0
M  V30 2471 H 227.115 0.251864 -0.627328 0
M  V30 2472 H 229.669 0.124782 -2.05021 0
M  V30 2473 H 227.899 2.52295 -2.9306 0
M  V30 2474 H 229.588 2.3478 -3.31109 0
M  V30 2475 H 230.354 0.386562 -4.83457 0
M  V30 2476 H 226.233 1.5147 -4.35405 0
M  V30 2477 H 229.777 -0.781148 -6.93213 0
M  V30 2478 H 225.674 0.35348 -6.44531 0
M  V30 2479 H 226.442 -0.84329 -8.14144 0
M  V30 2480 N 229.106 1.52395 0.401703 0
M  V30 2481 C 230.334 1.70676 1.16949 0
M  V30 2482 C 230.749 0.419503 1.8408 0
M  V30 2483 O 230.106 -0.605061 1.72178 0
M  V30 2484 C 230.157 2.84753 2.22706 0
M  V30 2485 O 229.878 4.08495 1.58314 0
M  V30 2486 C 231.379 3.14608 3.12309 0
M  V30 2487 H 228.599 0.571787 0.351142 0
M  V30 2488 H 231.143 1.98987 0.471652 0
M  V30 2489 H 229.298 2.58941 2.88147 0
M  V30 2490 H 229.712 4.72117 2.28485 0
M  V30 2491 H 231.186 3.97923 3.82572 0
M  V30 2492 H 231.663 2.28464 3.75101 0
M  V30 2493 H 232.269 3.42212 2.52529 0
M  V30 2494 N 230.584 -0.659388 1.43143 0
M  V30 2495 C 231.516 -1.7849 1.43784 0
M  V30 2496 C 232.529 -1.5932 0.334787 0
M  V30 2497 O 233.718 -1.68155 0.598842 0
M  V30 2498 C 230.818 -3.15828 1.22906 0
M  V30 2499 C 229.991 -3.61711 2.45934 0
M  V30 2500 C 229.05 -4.77831 2.20371 0
M  V30 2501 O 228.076 -4.87586 2.93681 0
M  V30 2502 N 229.278 -5.67611 1.21647 0
M  V30 2503 H 232.043 -1.7842 2.40803 0
M  V30 2504 H 229.604 -0.84302 1.3822 0
M  V30 2505 H 231.596 -3.91189 1.03697 0
M  V30 2506 H 230.166 -3.10707 0.343542 0
M  V30 2507 H 229.386 -2.76861 2.80609 0
M  V30 2508 H 230.674 -3.89112 3.27825 0
M  V30 2509 H 230.072 -5.62397 0.610449 0
M  V30 2510 H 228.629 -6.42719 1.08423 0
M  V30 2511 N 232.062 -1.29571 -0.897171 0
M  V30 2512 C 233.29 -1.20583 -1.68129 0
M  V30 2513 C 233.705 0.233181 -1.87354 0
M  V30 2514 O 233.062 1.15579 -1.41236 0
M  V30 2515 C 233.113 -1.91772 -3.06441 0
M  V30 2516 O 232.834 -3.30053 -2.88091 0
M  V30 2517 C 234.335 -1.89291 -4.00854 0
M  V30 2518 H 231.555 -0.417826 -0.525036 0
M  V30 2519 H 234.099 -1.70987 -1.12177 0
M  V30 2520 H 232.254 -1.45196 -3.59161 0
M  V30 2521 H 232.668 -3.65942 -3.75748 0
M  V30 2522 H 234.142 -2.43662 -4.95311 0
M  V30 2523 H 234.619 -0.869014 -4.30517 0
M  V30 2524 H 235.225 -2.35622 -3.54066 0
M  V30 2525 N 233.54 1.10788 -1.12088 0
M  V30 2526 C 234.789 1.82036 -0.868659 0
M  V30 2527 C 235.102 1.85929 0.607426 0
M  V30 2528 O 236.308 2.53346 0.97613 0
M  V30 2529 C 234.764 3.26951 -1.50435 0
M  V30 2530 C 234.372 3.31367 -3.01496 0
M  V30 2531 C 236.116 4.03053 -1.33225 0
M  V30 2532 C 234.023 4.7072 -3.58017 0
M  V30 2533 H 232.953 0.682108 -0.321318 0
M  V30 2534 H 235.604 1.24618 -1.34694 0
M  V30 2535 H 233.986 3.84343 -0.953735 0
M  V30 2536 H 235.16 2.83819 -3.6302 0
M  V30 2537 H 233.475 2.6875 -3.18061 0
M  V30 2538 H 236.072 5.05981 -1.72878 0
M  V30 2539 H 236.415 4.15387 -0.275529 0
M  V30 2540 H 236.948 3.52066 -1.85188 0
M  V30 2541 H 233.687 4.63585 -4.63432 0
M  V30 2542 H 233.207 5.1865 -3.01268 0
M  V30 2543 H 234.886 5.39685 -3.56859 0
M  V30 2544 N 235.018 0.912232 1.28515 0
M  V30 2545 C 235.948 0.416403 2.29757 0
M  V30 2546 C 236.929 -0.515194 1.6211 0
M  V30 2547 O 238.114 -0.423253 1.89532 0
M  V30 2548 C 235.244 -0.34572 3.45575 0
M  V30 2549 C 234.198 0.496599 4.25109 0
M  V30 2550 C 233.524 -0.393771 5.33248 0
M  V30 2551 C 234.824 1.75307 4.92001 0
M  V30 2552 H 236.518 1.26249 2.7148 0
M  V30 2553 H 234.064 0.608515 1.30511 0
M  V30 2554 H 236.017 -0.703422 4.15488 0
M  V30 2555 H 234.741 -1.2257 3.02728 0
M  V30 2556 H 233.4 0.8368 3.56922 0
M  V30 2557 H 233.048 -1.27225 4.86644 0
M  V30 2558 H 232.748 0.166209 5.87365 0
M  V30 2559 H 234.272 -0.747389 6.06009 0
M  V30 2560 H 235.686 1.46437 5.54283 0
M  V30 2561 H 234.083 2.25534 5.56106 0
M  V30 2562 H 235.153 2.48176 4.16577 0
M  V30 2563 N 236.496 -1.42363 0.676048 0
M  V30 2564 C 237.912 -1.55811 0.345718 0
M  V30 2565 C 238.112 -1.65544 -1.14879 0
M  V30 2566 O 237.168 -1.62306 -1.93424 0
M  V30 2567 C 238.481 -2.80746 1.07713 0
M  V30 2568 C 240.029 -2.9452 1.05958 0
M  V30 2569 C 240.504 -4.22318 1.77233 0
M  V30 2570 N 241.995 -4.29233 1.74108 0
M  V30 2571 C 242.73 -5.26935 2.26113 0
M  V30 2572 N 242.226 -6.30783 2.86505 0
M  V30 2573 N 244.019 -5.18741 2.1648 0
M  V30 2574 H 236.17 -1.34289 1.6456 0
M  V30 2575 H 238.433 -0.646506 0.69335 0
M  V30 2576 H 238.139 -2.79696 2.13221 0
M  V30 2577 H 238.013 -3.71676 0.64316 0
M  V30 2578 H 240.4 -2.95097 0.0128255 0
M  V30 2579 H 240.481 -2.04817 1.53244 0
M  V30 2580 H 240.125 -4.22502 2.81877 0
M  V30 2581 H 240.055 -5.10958 1.27396 0
M  V30 2582 H 242.546 -3.54814 1.30059 0
M  V30 2583 H 242.859 -7.01691 3.23805 0
M  V30 2584 H 241.204 -6.31341 2.90575 0
M  V30 2585 H 244.395 -4.36533 1.68987 0
M  V30 2586 H 244.568 -5.94721 2.57316 0
M  V30 2587 N 237.974 -0.419461 -1.51915 0
M  V30 2588 C 238.907 0.445751 -2.23804 0
M  V30 2589 C 239.885 1.03951 -1.25031 0
M  V30 2590 O 241.069 1.08541 -1.54114 0
M  V30 2591 C 238.196 1.61964 -2.97465 0
M  V30 2592 C 237.242 1.14828 -4.10751 0
M  V30 2593 S 238.075 0.104938 -5.35397 0
M  V30 2594 C 239.231 1.28391 -6.1259 0
M  V30 2595 H 239.464 -0.164627 -2.96844 0
M  V30 2596 H 236.997 -0.203833 -1.53049 0
M  V30 2597 H 238.955 2.29271 -3.40507 0
M  V30 2598 H 237.616 2.20139 -2.24048 0
M  V30 2599 H 236.809 2.02561 -4.61503 0
M  V30 2600 H 236.411 0.553712 -3.69878 0
M  V30 2601 H 238.703 2.20563 -6.40592 0
M  V30 2602 H 239.646 0.816724 -7.03374 0
M  V30 2603 H 240.054 1.51439 -5.43807 0
M  V30 2604 N 239.452 1.56882 -0.150215 0
M  V30 2605 C 240.699 1.96228 0.500093 0
M  V30 2606 C 241.027 1.03522 1.64661 0
M  V30 2607 O 240.282 0.0650683 1.95592 0
M  V30 2608 C 240.581 3.41801 1.04437 0
M  V30 2609 C 240.247 4.50897 0.0159671 0
M  V30 2610 C 238.909 4.8046 -0.266731 0
M  V30 2611 C 241.261 5.16703 -0.683192 0
M  V30 2612 C 238.589 5.73135 -1.25434 0
M  V30 2613 C 240.941 6.10441 -1.65964 0
M  V30 2614 C 239.605 6.38382 -1.95 0
M  V30 2615 H 238.875 0.718048 0.182997 0
M  V30 2616 H 241.522 1.90019 -0.237724 0
M  V30 2617 H 239.827 3.44857 1.85959 0
M  V30 2618 H 241.524 3.69573 1.55618 0
M  V30 2619 H 238.114 4.27891 0.246485 0
M  V30 2620 H 242.298 4.93993 -0.477983 0
M  V30 2621 H 237.554 5.93074 -1.48571 0
M  V30 2622 H 241.728 6.60507 -2.20689 0
M  V30 2623 H 239.355 7.09996 -2.71679 0
M  V30 2624 N 240.93 -0.123565 1.57115 0
M  V30 2625 C 242.207 -0.862196 1.75572 0
M  V30 2626 C 242.587 -1.98279 0.724475 0
M  V30 2627 O 241.935 -2.27102 -0.252407 0
M  V30 2628 C 242.145 -1.38309 3.20424 0
M  V30 2629 C 243.493 -1.83724 3.82793 0
M  V30 2630 O 244.517 -1.47999 3.23998 0
M  V30 2631 O 243.376 -2.49685 4.86127 0
M  V30 2632 H 240.47 -0.409113 0.718718 0
M  V30 2633 H 243.016 -0.107661 1.69358 0
M  V30 2634 H 241.788 -0.578889 3.86994 0
M  V30 2635 H 241.411 -2.20046 3.31158 0
M  V30 2636 N 242.408 -1.52605 -0.393616 0
M  V30 2637 C 243.338 -1.80022 -1.48709 0
M  V30 2638 C 244.319 -0.651995 -1.57108 0
M  V30 2639 O 245.504 -0.89913 -1.72132 0
M  V30 2640 C 242.634 -1.96492 -2.86371 0
M  V30 2641 C 241.588 -3.12161 -2.92813 0
M  V30 2642 C 240.914 -3.13877 -4.3288 0
M  V30 2643 C 242.214 -4.51322 -2.6288 0
M  V30 2644 H 243.908 -2.71589 -1.26015 0
M  V30 2645 H 241.454 -1.30684 -0.604778 0
M  V30 2646 H 243.407 -2.14255 -3.62867 0
M  V30 2647 H 242.131 -1.01611 -3.10391 0
M  V30 2648 H 240.79 -2.94173 -2.18764 0
M  V30 2649 H 240.438 -2.16687 -4.53933 0
M  V30 2650 H 240.138 -3.91576 -4.38112 0
M  V30 2651 H 241.662 -3.33789 -5.1129 0
M  V30 2652 H 243.076 -4.69435 -3.29096 0
M  V30 2653 H 241.473 -5.31053 -2.79468 0
M  V30 2654 H 242.543 -4.58353 -1.58242 0
M  V30 2655 N 243.887 0.651787 -1.4349 0
M  V30 2656 C 244.835 1.78586 -1.49029 0
M  V30 2657 C 245.829 1.65448 -0.363767 0
M  V30 2658 O 247.035 1.71777 -0.537821 0
M  V30 2659 H 243.41 0.589236 -0.467231 0
M  V30 2660 H 245.381 1.71035 -2.44519 0
M  V30 2661 C 244.13 3.16851 -1.43181 0
M  V30 2662 H 243.453 3.27598 -2.29171 0
M  V30 2663 H 244.893 3.96156 -1.51118 0
M  V30 2664 C 243.352 3.36568 -0.149616 0
M  V30 2665 O 243.882 3.93885 0.788509 0
M  V30 2666 N 242.088 2.90539 -0.0593484 0
M  V30 2667 H 241.635 2.4408 -0.823575 0
M  V30 2668 H 241.593 3.04108 0.797853 0
M  V30 2669 N 245.365 1.30045 0.890287 0
M  V30 2670 C 246.613 1.18327 1.63839 0
M  V30 2671 C 246.934 -0.263455 1.93212 0
M  V30 2672 O 246.204 -1.17856 1.56482 0
M  V30 2673 H 244.784 0.434933 0.607324 0
M  V30 2674 H 247.446 1.631 1.06698 0
M  V30 2675 H 246.542 1.74024 2.59079 0
M  V30 2676 N 246.843 -1.10192 1.12674 0
M  V30 2677 C 248.12 -1.78717 0.794965 0
M  V30 2678 C 248.5 -1.98628 -0.714853 0
M  V30 2679 O 247.848 -1.58135 -1.64941 0
M  V30 2680 C 248.058 -3.11546 1.5729 0
M  V30 2681 C 249.406 -3.86382 1.76052 0
M  V30 2682 O 250.43 -3.21274 1.53823 0
M  V30 2683 O 249.289 -5.03246 2.13087 0
M  V30 2684 H 246.383 -0.774702 0.289423 0
M  V30 2685 H 248.929 -1.16819 1.23091 0
M  V30 2686 H 247.701 -2.92489 2.59935 0
M  V30 2687 H 247.324 -3.81164 1.13137 0
M  V30 2688 N 248.321 -0.919034 -1.28029 0
M  V30 2689 C 249.569 -0.553838 -1.94363 0
M  V30 2690 C 249.89 0.906357 -1.72656 0
M  V30 2691 O 249.16 1.64143 -1.0693 0
M  V30 2692 H 247.74 -0.201834 -0.719216 0
M  V30 2693 H 250.402 -1.16954 -1.55909 0
M  V30 2694 H 249.498 -0.752758 -3.02886 0
M  V30 2695 N 249.799 1.42003 -0.683588 0
M  V30 2696 C 250.746 2.30798 -0.0107309 0
M  V30 2697 C 251.716 1.4645 0.783688 0
M  V30 2698 O 252.901 1.75263 0.754156 0
M  V30 2699 C 250.041 3.3238 0.928306 0
M  V30 2700 C 249.154 4.31814 0.126776 0
M  V30 2701 C 248.289 5.20468 1.06236 0
M  V30 2702 C 247.328 6.11577 0.253035 0
M  V30 2703 N 246.465 6.92754 1.14179 0
M  V30 2704 H 251.305 2.8778 -0.773727 0
M  V30 2705 H 248.842 1.41745 -0.393283 0
M  V30 2706 H 250.8 3.89813 1.48666 0
M  V30 2707 H 249.43 2.76976 1.65783 0
M  V30 2708 H 248.482 3.76427 -0.54833 0
M  V30 2709 H 249.794 4.96276 -0.501192 0
M  V30 2710 H 248.948 5.82677 1.69035 0
M  V30 2711 H 247.687 4.56204 1.7242 0
M  V30 2712 H 246.692 5.48428 -0.388108 0
M  V30 2713 H 247.917 6.77892 -0.404839 0
M  V30 2714 H 245.863 6.3111 1.78987 0
M  V30 2715 H 245.78 7.53855 0.569111 0
M  V30 2716 H 247.048 7.59441 1.75697 0
M  V30 2717 N 251.277 0.427512 1.51691 0
M  V30 2718 C 252.207 -0.3796 2.30394 0
M  V30 2719 C 253.188 -1.02982 1.35384 0
M  V30 2720 O 254.373 -1.03534 1.643 0
M  V30 2721 C 251.503 -1.48649 3.1388 0
M  V30 2722 C 250.457 -0.960294 4.17088 0
M  V30 2723 C 249.783 -2.16219 4.89033 0
M  V30 2724 C 251.083 -0.00153679 5.223 0
M  V30 2725 H 252.777 0.277164 2.98114 0
M  V30 2726 H 250.323 0.134739 1.43368 0
M  V30 2727 H 252.276 -2.05826 3.67714 0
M  V30 2728 H 251 -2.1714 2.43962 0
M  V30 2729 H 249.659 -0.410806 3.64291 0
M  V30 2730 H 249.307 -2.83307 4.15628 0
M  V30 2731 H 249.007 -1.81654 5.58816 0
M  V30 2732 H 250.531 -2.73968 5.45687 0
M  V30 2733 H 251.945 -0.482687 5.71264 0
M  V30 2734 H 250.342 0.256199 5.99553 0
M  V30 2735 H 251.412 0.938174 4.75738 0
M  V30 2736 N 252.755 -1.56801 0.158532 0
M  V30 2737 C 254.003 -1.96102 -0.488712 0
M  V30 2738 C 254.324 -1.04498 -1.64636 0
M  V30 2739 O 253.594 -0.108783 -1.95598 0
M  V30 2740 H 252.174 -0.724102 -0.183535 0
M  V30 2741 H 254.836 -1.93457 0.236728 0
M  V30 2742 H 253.932 -3.00097 -0.857219 0
M  V30 2743 N 254.233 0.115231 -1.57178 0
M  V30 2744 C 255.163 1.1423 -2.03651 0
M  V30 2745 C 256.144 1.42967 -0.921655 0
M  V30 2746 O 257.329 1.53343 -1.19162 0
M  V30 2747 C 254.459 2.4675 -2.44401 0
M  V30 2748 C 253.413 2.32467 -3.59365 0
M  V30 2749 C 252.739 3.69984 -3.86026 0
M  V30 2750 C 254.039 1.78203 -4.90959 0
M  V30 2751 H 255.733 0.755749 -2.89705 0
M  V30 2752 H 253.279 0.362093 -1.39373 0
M  V30 2753 H 255.232 3.18854 -2.75517 0
M  V30 2754 H 253.956 2.87302 -1.55322 0
M  V30 2755 H 252.615 1.62811 -3.28463 0
M  V30 2756 H 252.263 4.08028 -2.94147 0
M  V30 2757 H 251.963 3.61279 -4.63412 0
M  V30 2758 H 253.487 4.43587 -4.19599 0
M  V30 2759 H 254.901 2.40128 -5.20587 0
M  V30 2760 H 253.298 1.8031 -5.72371 0
M  V30 2761 H 254.368 0.739876 -4.79222 0
M  V30 2762 N 255.711 1.52812 0.385517 0
M  V30 2763 C 256.936 1.72207 1.15583 0
M  V30 2764 C 257.361 0.441034 1.82857 0
M  V30 2765 O 256.719 -0.603465 1.70962 0
M  V30 2766 C 256.767 2.87476 2.17692 0
M  V30 2767 O 255.871 2.54693 3.24354 0
M  V30 2768 H 255.212 0.572526 0.336319 0
M  V30 2769 H 257.742 1.99618 0.448744 0
M  V30 2770 H 257.752 3.13072 2.6163 0
M  V30 2771 H 256.427 3.80408 1.68115 0
M  V30 2772 H 255.004 2.3985 2.85529 0
M  V30 2773 N 257.189 -0.644168 1.43834 0
M  V30 2774 C 258.099 -1.78563 1.52159 0
M  V30 2775 C 259.115 -1.69147 0.408069 0
M  V30 2776 O 260.291 -1.90156 0.663524 0
M  V30 2777 C 257.356 -3.14888 1.45073 0
M  V30 2778 C 256.417 -3.36034 2.6717 0
M  V30 2779 C 255.65 -4.65855 2.60413 0
M  V30 2780 O 255.873 -5.45805 1.65689 0
M  V30 2781 O 254.807 -4.88918 3.5106 0
M  V30 2782 H 258.633 -1.74494 2.48567 0
M  V30 2783 H 256.218 -0.80378 1.25935 0
M  V30 2784 H 258.1 -3.96179 1.43597 0
M  V30 2785 H 256.775 -3.19528 0.518037 0
M  V30 2786 H 255.682 -2.54472 2.74217 0
M  V30 2787 H 257.015 -3.36247 3.59442 0
M  V30 2788 N 258.668 -1.30515 -0.883378 0
M  V30 2789 C 259.601 -1.11359 -1.99184 0
M  V30 2790 C 260.579 -0.0207858 -1.62587 0
M  V30 2791 O 261.763 -0.174646 -1.87689 0
M  V30 2792 C 258.89 -0.69871 -3.31415 0
M  V30 2793 C 257.936 -1.79261 -3.86998 0
M  V30 2794 S 258.769 -3.39536 -4.14096 0
M  V30 2795 C 259.925 -2.99954 -5.49344 0
M  V30 2796 H 260.158 -2.052 -2.15128 0
M  V30 2797 H 257.691 -1.14847 -1.03196 0
M  V30 2798 H 259.649 -0.466075 -4.07846 0
M  V30 2799 H 258.31 0.220368 -3.13326 0
M  V30 2800 H 257.503 -1.45464 -4.82552 0
M  V30 2801 H 257.105 -1.97961 -3.17313 0
M  V30 2802 H 259.397 -2.48013 -6.30473 0
M  V30 2803 H 260.34 -3.9442 -5.8808 0
M  V30 2804 H 260.748 -2.37775 -5.1198 0
M  V30 2805 N 260.146 1.09593 -1.13257 0
M  V30 2806 C 261.371 1.8604 -0.916732 0
M  V30 2807 C 261.796 1.80504 0.529146 0
M  V30 2808 O 261.154 1.18127 1.37534 0
M  V30 2809 C 261.202 3.32017 -1.40703 0
M  V30 2810 O 260.306 4.08141 -0.591153 0
M  V30 2811 H 259.647 0.576943 -0.328683 0
M  V30 2812 H 262.177 1.38405 -1.50682 0
M  V30 2813 H 262.187 3.82865 -1.4099 0
M  V30 2814 H 260.862 3.35361 -2.45979 0
M  V30 2815 H 259.439 3.67084 -0.656005 0
M  V30 2816 N 261.624 0.925811 1.2754 0
M  V30 2817 C 263.04 0.625767 1.46821 0
M  V30 2818 C 263.24 -0.825506 1.83814 0
M  V30 2819 O 262.296 -1.60356 1.95044 0
M  V30 2820 C 263.609 1.57402 2.56213 0
M  V30 2821 C 265.157 1.58204 2.70075 0
M  V30 2822 C 265.632 2.51721 3.82623 0
M  V30 2823 N 267.123 2.49917 3.89994 0
M  V30 2824 C 267.858 3.18968 4.76494 0
M  V30 2825 N 267.354 3.97391 5.67496 0
M  V30 2826 N 269.147 3.07996 4.70208 0
M  V30 2827 H 261.298 1.86409 1.01811 0
M  V30 2828 H 263.561 0.800213 0.508295 0
M  V30 2829 H 263.267 2.60925 2.35819 0
M  V30 2830 H 263.141 1.31428 3.53563 0
M  V30 2831 H 265.528 0.554124 2.89851 0
M  V30 2832 H 265.609 1.88226 1.73218 0
M  V30 2833 H 265.253 3.54622 3.63601 0
M  V30 2834 H 265.183 2.18996 4.78903 0
M  V30 2835 H 267.674 1.9296 3.24923 0
M  V30 2836 H 267.987 4.4707 6.30356 0
M  V30 2837 H 266.332 4.01495 5.67298 0
M  V30 2838 H 269.523 2.46223 3.9811 0
M  V30 2839 H 269.696 3.6208 5.37403 0
M  V30 2840 N 263.102 -1.41638 0.69111 0
M  V30 2841 C 264.032 -2.3347 0.037248 0
M  V30 2842 C 265.013 -1.51575 -0.771947 0
M  V30 2843 O 266.198 -1.80126 -0.72582 0
M  V30 2844 C 263.328 -3.35354 -0.903064 0
M  V30 2845 C 262.282 -4.27526 -0.201288 0
M  V30 2846 C 261.608 -5.19747 -1.25565 0
M  V30 2847 C 262.908 -5.13959 0.929689 0
M  V30 2848 H 264.602 -2.88397 0.804227 0
M  V30 2849 H 262.148 -1.38669 0.388189 0
M  V30 2850 H 264.101 -3.98519 -1.36969 0
M  V30 2851 H 262.825 -2.78767 -1.70166 0
M  V30 2852 H 261.484 -3.65779 0.245265 0
M  V30 2853 H 261.132 -4.59479 -2.04666 0
M  V30 2854 H 260.832 -5.8225 -0.791128 0
M  V30 2855 H 262.356 -5.85789 -1.72288 0
M  V30 2856 H 263.77 -5.70718 0.543546 0
M  V30 2857 H 262.167 -5.85379 1.32103 0
M  V30 2858 H 263.237 -4.51389 1.77133 0
M  V30 2859 N 264.58 -0.43555 -1.51462 0
M  V30 2860 C 265.51 0.367376 -2.30592 0
M  V30 2861 C 266.491 1.02263 -1.35928 0
M  V30 2862 O 267.676 1.02661 -1.64847 0
M  V30 2863 C 264.806 1.46983 -3.14664 0
M  V30 2864 C 263.76 0.938161 -4.17591 0
M  V30 2865 C 263.086 2.13622 -4.90173 0
M  V30 2866 C 264.386 -0.0261621 -5.22293 0
M  V30 2867 H 266.08 -0.292969 -2.97963 0
M  V30 2868 H 263.626 -0.14234 -1.43295 0
M  V30 2869 H 265.579 2.03873 -3.688 0
M  V30 2870 H 264.303 2.15843 -2.4511 0
M  V30 2871 H 262.962 0.391481 -3.64504 0
M  V30 2872 H 262.61 2.81098 -4.17124 0
M  V30 2873 H 262.31 1.78688 -5.59772 0
M  V30 2874 H 263.834 2.7107 -5.47132 0
M  V30 2875 H 265.248 0.452384 -5.71512 0
M  V30 2876 H 263.645 -0.287992 -5.99409 0
M  V30 2877 H 264.715 -0.963391 -4.75233 0
M  V30 2878 N 266.058 1.56714 -0.166846 0
M  V30 2879 C 267.469 1.83378 0.350646 0
M  V30 2880 C 267.82 1.08646 1.63372 0
M  V30 2881 O 266.945 0.338058 2.13743 0
M  V30 2882 C 267.54 3.32643 0.642963 0
M  V30 2883 C 266.099 3.59818 1.10491 0
M  V30 2884 C 265.246 2.76954 0.138411 0
M  V30 2885 H 268.197 1.53803 -0.391193 0
M  V30 2886 H 268.218 3.49878 1.49551 0
M  V30 2887 H 267.73 3.87007 -0.291055 0
M  V30 2888 H 265.831 3.1086 2.05418 0
M  V30 2889 H 265.944 4.68178 1.01716 0
M  V30 2890 H 264.308 2.4666 0.634911 0
M  V30 2891 H 265.091 3.34097 -0.789549 0
M  V30 2892 N 267.536 -0.106894 1.57237 0
M  V30 2893 C 268.782 -0.81373 1.85759 0
M  V30 2894 C 269.115 -1.78952 0.754315 0
M  V30 2895 O 268.39 -1.93029 -0.23879 0
M  V30 2896 C 268.673 -1.55293 3.24894 0
M  V30 2897 C 268.526 -0.595929 4.45835 0
M  V30 2898 C 269.845 -2.5063 3.61763 0
M  V30 2899 H 266.964 -0.294369 0.67566 0
M  V30 2900 H 269.606 -0.0776472 1.89841 0
M  V30 2901 H 267.756 -2.1804 3.21544 0
M  V30 2902 H 269.428 0.0236262 4.61294 0
M  V30 2903 H 267.671 0.0916191 4.33703 0
M  V30 2904 H 268.342 -1.15004 5.39887 0
M  V30 2905 H 270.818 -1.97982 3.65981 0
M  V30 2906 H 269.694 -2.99376 4.60071 0
M  V30 2907 H 269.955 -3.3385 2.89821 0
M  V30 2908 N 269.014 -1.53014 -0.377408 0
M  V30 2909 C 269.946 -1.74884 -1.48149 0
M  V30 2910 C 270.959 -0.629433 -1.5014 0
M  V30 2911 O 272.148 -0.905416 -1.53833 0
M  V30 2912 C 269.248 -1.80299 -2.86959 0
M  V30 2913 C 268.421 -3.09776 -3.08801 0
M  V30 2914 C 267.48 -3.06586 -4.27658 0
M  V30 2915 O 266.506 -3.80419 -4.23403 0
M  V30 2916 N 267.708 -2.26578 -5.34455 0
M  V30 2917 H 270.473 -2.70147 -1.29771 0
M  V30 2918 H 268.034 -1.51646 -0.56703 0
M  V30 2919 H 270.026 -1.75657 -3.64591 0
M  V30 2920 H 268.596 -0.92372 -2.98641 0
M  V30 2921 H 267.816 -3.27815 -2.18931 0
M  V30 2922 H 269.104 -3.95366 -3.20255 0
M  V30 2923 H 268.502 -1.66081 -5.40771 0
M  V30 2924 H 267.059 -2.27766 -6.10709 0
M  V30 2925 N 270.492 0.636531 -1.44174 0
M  V30 2926 C 271.402 1.77754 -1.53103 0
M  V30 2927 C 272.418 1.68928 -0.417034 0
M  V30 2928 O 273.594 1.89801 -0.6736 0
M  V30 2929 C 270.659 3.14115 -1.46741 0
M  V30 2930 C 269.72 3.34612 -2.68948 0
M  V30 2931 C 268.953 4.64467 -2.6288 0
M  V30 2932 O 269.176 5.44919 -1.68581 0
M  V30 2933 O 268.11 4.87049 -3.53648 0
M  V30 2934 H 271.936 1.73174 -2.49489 0
M  V30 2935 H 269.521 0.79709 -1.2636 0
M  V30 2936 H 271.403 3.95412 -1.45696 0
M  V30 2937 H 270.078 3.19249 -0.534975 0
M  V30 2938 H 268.985 2.53014 -2.75562 0
M  V30 2939 H 270.318 3.34336 -3.61221 0
M  V30 2940 N 271.97 1.30982 0.876444 0
M  V30 2941 C 272.918 1.18006 2.00443 0
M  V30 2942 C 273.912 0.0898871 1.69161 0
M  V30 2943 O 275.118 0.251333 1.78237 0
M  V30 2944 H 271.493 0.365196 0.65737 0
M  V30 2945 H 273.464 2.13453 2.0852 0
M  V30 2946 C 272.213 0.897521 3.35916 0
M  V30 2947 H 271.536 1.7285 3.60504 0
M  V30 2948 H 272.976 0.846874 4.15456 0
M  V30 2949 C 271.435 -0.399674 3.34521 0
M  V30 2950 O 271.965 -1.41852 3.7582 0
M  V30 2951 N 270.171 -0.413893 2.87637 0
M  V30 2952 H 269.718 0.41571 2.54224 0
M  V30 2953 H 269.676 -1.28175 2.87086 0
M  V30 2954 N 273.449 -1.08991 1.13837 0
M  V30 2955 C 274.696 -1.81258 0.902882 0
M  V30 2956 C 275.024 -1.85936 -0.570803 0
M  V30 2957 O 274.279 -1.3267 -1.43865 0
M  V30 2958 C 274.578 -3.27042 1.44147 0
M  V30 2959 C 274.244 -3.4249 2.93276 0
M  V30 2960 C 272.906 -3.46414 3.33992 0
M  V30 2961 C 275.258 -3.4666 3.892 0
M  V30 2962 C 272.586 -3.52091 4.69307 0
M  V30 2963 C 274.938 -3.53872 5.24364 0
M  V30 2964 C 273.602 -3.56066 5.646 0
M  V30 2965 H 272.872 -0.663268 0.330388 0
M  V30 2966 H 275.519 -1.28368 1.42105 0
M  V30 2967 H 273.824 -3.82599 0.844097 0
M  V30 2968 H 275.521 -3.81499 1.23528 0
M  V30 2969 H 272.111 -3.40124 2.60794 0
M  V30 2970 H 276.295 -3.42865 3.58828 0
M  V30 2971 H 271.551 -3.52079 4.9985 0
M  V30 2972 H 275.725 -3.56043 5.98503 0
M  V30 2973 H 273.352 -3.60218 6.69438 0
M  V30 2974 N 274.927 -0.932562 -1.27047 0
M  V30 2975 C 275.857 -0.452902 -2.29066 0
M  V30 2976 C 276.838 0.489338 -1.62909 0
M  V30 2977 O 278.023 0.393046 -1.90181 0
M  V30 2978 C 275.153 0.290698 -3.46081 0
M  V30 2979 C 274.107 -0.564168 -4.24265 0
M  V30 2980 C 273.433 0.308886 -5.33807 0
M  V30 2981 C 274.733 -1.83112 -4.89149 0
M  V30 2982 H 276.427 -1.30552 -2.69437 0
M  V30 2983 H 273.973 -0.629201 -1.29526 0
M  V30 2984 H 275.926 0.637233 -4.16554 0
M  V30 2985 H 274.65 1.17738 -3.0464 0
M  V30 2986 H 273.309 -0.893477 -3.55545 0
M  V30 2987 H 272.957 1.19467 -4.88607 0
M  V30 2988 H 272.657 -0.259633 -5.87026 0
M  V30 2989 H 274.181 0.650884 -6.07121 0
M  V30 2990 H 275.595 -1.55236 -5.51883 0
M  V30 2991 H 273.992 -2.34353 -5.52448 0
M  V30 2992 H 275.062 -2.54772 -4.12576 0
M  V30 2993 N 276.405 1.4127 -0.698611 0
M  V30 2994 C 277.335 2.33447 -0.049629 0
M  V30 2995 C 278.316 1.51982 0.763898 0
M  V30 2996 O 279.501 1.80509 0.716257 0
M  V30 2997 C 276.631 3.35828 0.885267 0
M  V30 2998 C 275.585 4.27627 0.178613 0
M  V30 2999 C 274.911 5.20406 1.22807 0
M  V30 3000 C 276.211 5.13459 -0.956933 0
M  V30 3001 H 277.905 2.87966 -0.81951 0
M  V30 3002 H 275.451 1.38461 -0.395538 0
M  V30 3003 H 277.404 3.9924 1.34854 0
M  V30 3004 H 276.128 2.79666 1.68685 0
M  V30 3005 H 274.787 3.65643 -0.26466 0
M  V30 3006 H 274.435 4.60558 2.02226 0
M  V30 3007 H 274.135 5.82661 0.760239 0
M  V30 3008 H 275.659 5.86695 1.69179 0
M  V30 3009 H 277.073 5.70421 -0.573805 0
M  V30 3010 H 275.47 5.8467 -1.35205 0
M  V30 3011 H 276.54 4.50443 -1.79524 0
M  V30 3012 N 277.883 0.443576 1.51229 0
M  V30 3013 C 278.83 -0.364716 2.279 0
M  V30 3014 C 279.8 -1.0114 1.31757 0
M  V30 3015 O 280.985 -1.02912 1.60667 0
M  V30 3016 C 278.125 -1.45644 3.12861 0
M  V30 3017 C 277.238 -0.827269 4.24005 0
M  V30 3018 C 276.373 -1.89456 4.96266 0
M  V30 3019 C 275.412 -1.24416 5.99322 0
M  V30 3020 N 274.549 -2.25309 6.64966 0
M  V30 3021 H 279.389 0.295464 2.96532 0
M  V30 3022 H 276.926 0.157554 1.46254 0
M  V30 3023 H 278.884 -2.10076 3.6045 0
M  V30 3024 H 277.514 -2.08616 2.46331 0
M  V30 3025 H 276.566 -0.0710839 3.80334 0
M  V30 3026 H 277.878 -0.312481 4.9782 0
M  V30 3027 H 277.032 -2.61535 5.47434 0
M  V30 3028 H 275.771 -2.4431 4.22095 0
M  V30 3029 H 274.776 -0.508868 5.4744 0
M  V30 3030 H 276.001 -0.702882 6.75453 0
M  V30 3031 H 273.947 -2.79231 5.93604 0
M  V30 3032 H 273.864 -1.78739 7.34567 0
M  V30 3033 H 275.132 -2.96853 7.20763 0
M  V30 3034 N 279.361 -1.56624 0.175154 0
M  V30 3035 C 280.608 -1.96999 -0.468811 0
M  V30 3036 C 280.936 -1.06129 -1.62994 0
M  V30 3037 O 280.191 -0.0961771 -1.95464 0
M  V30 3038 C 280.49 -3.43419 -0.989864 0
M  V30 3039 C 280.156 -4.50866 0.0557687 0
M  V30 3040 C 278.818 -4.79975 0.343134 0
M  V30 3041 C 281.17 -5.15551 0.765308 0
M  V30 3042 C 278.498 -5.71066 1.34536 0
M  V30 3043 C 280.85 -6.07724 1.75654 0
M  V30 3044 C 279.514 -6.35199 2.05132 0
M  V30 3045 H 278.784 -0.720869 -0.17155 0
M  V30 3046 H 281.431 -1.89616 0.267924 0
M  V30 3047 H 279.736 -3.47772 -1.80449 0
M  V30 3048 H 281.433 -3.72002 -1.49719 0
M  V30 3049 H 278.023 -4.28229 -0.178381 0
M  V30 3050 H 282.207 -4.9317 0.556513 0
M  V30 3051 H 277.463 -5.90635 1.57988 0
M  V30 3052 H 281.637 -6.56912 2.31169 0
M  V30 3053 H 279.264 -7.05584 2.8294 0
M  V30 3054 N 280.839 0.0985539 -1.57292 0
M  V30 3055 C 281.771 1.14595 -1.98496 0
M  V30 3056 C 282.784 1.36512 -0.887031 0
M  V30 3057 O 283.973 1.35225 -1.16518 0
M  V30 3058 C 281.073 2.50216 -2.28572 0
M  V30 3059 C 280.246 2.48624 -3.59868 0
M  V30 3060 C 279.305 3.66146 -3.7792 0
M  V30 3061 O 278.331 3.48795 -4.49812 0
M  V30 3062 N 279.533 4.85496 -3.18235 0
M  V30 3063 H 282.298 0.795277 -2.88956 0
M  V30 3064 H 279.859 0.287579 -1.59325 0
M  V30 3065 H 281.851 3.27432 -2.37845 0
M  V30 3066 H 280.421 2.77387 -1.44136 0
M  V30 3067 H 279.641 1.56978 -3.61596 0
M  V30 3068 H 280.929 2.44635 -4.46129 0
M  V30 3069 H 280.327 5.02497 -2.59833 0
M  V30 3070 H 278.884 5.60317 -3.32999 0
M  V30 3071 N 282.317 1.53212 0.369288 0
M  V30 3072 C 283.565 1.68881 1.11012 0
M  V30 3073 C 283.886 0.441285 1.89941 0
M  V30 3074 O 283.156 -0.544623 1.88177 0
M  V30 3075 H 281.736 0.622569 0.412816 0
M  V30 3076 H 284.398 1.90391 0.416802 0
M  V30 3077 H 283.494 2.54822 1.80201 0
M  V30 3078 N 283.795 -0.628877 1.44509 0
M  V30 3079 C 284.728 -1.75367 1.46019 0
M  V30 3080 C 285.706 -1.59444 0.318787 0
M  V30 3081 O 286.89 -1.81297 0.516099 0
M  V30 3082 C 284.017 -3.12965 1.29501 0
M  V30 3083 C 283.063 -3.47532 2.47233 0
M  V30 3084 S 283.896 -3.44758 4.09758 0
M  V30 3085 C 285.052 -4.84973 3.95667 0
M  V30 3086 H 285.285 -1.7382 2.41193 0
M  V30 3087 H 282.818 -0.803686 1.31834 0
M  V30 3088 H 284.776 -3.92367 1.20658 0
M  V30 3089 H 283.437 -3.12049 0.358341 0
M  V30 3090 H 282.63 -4.47664 2.31544 0
M  V30 3091 H 282.232 -2.75598 2.52828 0
M  V30 3092 H 284.524 -5.74255 3.59496 0
M  V30 3093 H 285.467 -5.05716 4.95638 0
M  V30 3094 H 285.875 -4.59653 3.27688 0
M  V30 3095 N 285.273 -1.31445 -0.869486 0
M  V30 3096 C 286.22 -1.19135 -1.97675 0
M  V30 3097 C 287.19 -0.0770266 -1.65921 0
M  V30 3098 O 288.375 -0.249972 -1.89155 0
M  V30 3099 C 285.515 -0.905149 -3.33018 0
M  V30 3100 C 284.628 -2.10285 -3.77365 0
M  V30 3101 C 283.763 -1.75339 -5.01427 0
M  V30 3102 C 282.802 -2.91515 -5.38224 0
M  V30 3103 N 281.939 -2.56762 -6.53466 0
M  V30 3104 H 286.779 -2.13853 -2.07535 0
M  V30 3105 H 284.316 -1.06379 -1.01597 0
M  V30 3106 H 286.274 -0.719765 -4.10944 0
M  V30 3107 H 284.904 0.00519624 -3.228 0
M  V30 3108 H 283.956 -2.39899 -2.95216 0
M  V30 3109 H 285.268 -2.97237 -4.00564 0
M  V30 3110 H 284.422 -1.53266 -5.87022 0
M  V30 3111 H 283.161 -0.855801 -4.80133 0
M  V30 3112 H 282.166 -3.14237 -4.51149 0
M  V30 3113 H 283.391 -3.81985 -5.61484 0
M  V30 3114 H 281.337 -1.69526 -6.33717 0
M  V30 3115 H 281.254 -3.37243 -6.76612 0
M  V30 3116 H 282.522 -2.38083 -7.42251 0
M  V30 3117 N 286.751 1.08385 -1.14413 0
M  V30 3118 C 287.681 2.17321 -0.854044 0
M  V30 3119 C 288.662 1.69024 0.191049 0
M  V30 3120 O 289.847 1.94141 0.0476779 0
M  V30 3121 C 286.977 3.45719 -0.330983 0
M  V30 3122 C 285.931 4.07409 -1.31155 0
M  V30 3123 C 285.257 5.30762 -0.64778 0
M  V30 3124 C 286.557 4.48665 -2.67388 0
M  V30 3125 H 288.251 2.41845 -1.76498 0
M  V30 3126 H 285.797 1.16233 -0.850051 0
M  V30 3127 H 287.75 4.21241 -0.115645 0
M  V30 3128 H 286.474 3.2075 0.615381 0
M  V30 3129 H 285.133 3.33919 -1.51306 0
M  V30 3130 H 284.781 5.02078 0.304398 0
M  V30 3131 H 284.481 5.72992 -1.30207 0
M  V30 3132 H 286.005 6.08998 -0.441972 0
M  V30 3133 H 287.419 5.15364 -2.51143 0
M  V30 3134 H 285.816 5.01814 -3.29093 0
M  V30 3135 H 286.886 3.60543 -3.24248 0
M  V30 3136 N 288.23 0.939286 1.26551 0
M  V30 3137 C 289.458 0.602536 1.97932 0
M  V30 3138 C 289.873 -0.82206 1.69964 0
M  V30 3139 O 289.23 -1.54789 0.966784 0
M  V30 3140 C 289.281 0.832946 3.51773 0
M  V30 3141 O 289.002 2.20151 3.78768 0
M  V30 3142 C 290.503 0.506483 4.40397 0
M  V30 3143 H 287.723 0.227248 0.631347 0
M  V30 3144 H 290.267 1.25948 1.61113 0
M  V30 3145 H 288.422 0.222644 3.8676 0
M  V30 3146 H 288.836 2.26013 4.73306 0
M  V30 3147 H 290.31 0.718333 5.47306 0
M  V30 3148 H 290.787 -0.558451 4.35635 0
M  V30 3149 H 291.393 1.09543 4.10951 0
M  V30 3150 N 289.708 -1.40897 0.706093 0
M  V30 3151 C 290.933 -2.05895 0.249435 0
M  V30 3152 C 291.358 -1.52823 -1.09666 0
M  V30 3153 O 290.716 -0.659589 -1.68876 0
M  V30 3154 C 290.764 -3.59872 0.22904 0
M  V30 3155 O 289.868 -4.04708 -0.792784 0
M  V30 3156 H 289.209 -0.653206 0.119241 0
M  V30 3157 H 291.739 -1.80471 0.96391 0
M  V30 3158 H 291.749 -4.07951 0.0634791 0
M  V30 3159 H 290.424 -3.97866 1.21141 0
M  V30 3160 H 289.001 -3.68111 -0.59572 0
M  V30 3161 N 291.186 -0.45159 -1.50991 0
M  V30 3162 C 292.096 0.358431 -2.31846 0
M  V30 3163 C 293.112 1.01438 -1.41373 0
M  V30 3164 O 294.288 1.00663 -1.74439 0
M  V30 3165 C 291.353 1.43704 -3.15515 0
M  V30 3166 C 290.414 0.799742 -4.21785 0
M  V30 3167 C 289.647 1.82696 -5.01456 0
M  V30 3168 O 289.87 3.05105 -4.81941 0
M  V30 3169 O 288.804 1.40958 -5.85162 0
M  V30 3170 H 292.63 -0.302032 -3.02194 0
M  V30 3171 H 290.215 -0.213825 -1.47862 0
M  V30 3172 H 292.097 2.06227 -3.67489 0
M  V30 3173 H 290.772 2.08133 -2.47916 0
M  V30 3174 H 289.679 0.136084 -3.73852 0
M  V30 3175 H 291.012 0.198718 -4.91799 0
M  V30 3176 N 292.664 1.56529 -0.183458 0
M  V30 3177 C 293.574 2.22144 0.754272 0
M  V30 3178 C 294.59 1.21684 1.24374 0
M  V30 3179 O 295.766 1.54385 1.29333 0
M  V30 3180 C 292.831 2.85884 1.96141 0
M  V30 3181 C 291.892 4.01579 1.51765 0
M  V30 3182 C 291.125 4.6227 2.66725 0
M  V30 3183 O 291.348 4.21865 3.83909 0
M  V30 3184 O 290.282 5.51936 2.40104 0
M  V30 3185 H 294.108 3.02861 0.225527 0
M  V30 3186 H 291.693 1.49331 0.0453032 0
M  V30 3187 H 293.575 3.26253 2.66715 0
M  V30 3188 H 292.25 2.08154 2.47899 0
M  V30 3189 H 291.157 3.65856 0.781049 0
M  V30 3190 H 292.49 4.80938 1.04686 0
M  V30 3191 N 294.142 -0.090211 1.57342 0
M  V30 3192 C 295.389 -0.792807 1.86335 0
M  V30 3193 C 295.717 -1.78494 0.772662 0
M  V30 3194 O 294.972 -1.94305 -0.233258 0
M  V30 3195 C 295.271 -1.55222 3.21933 0
M  V30 3196 C 294.937 -0.701765 4.45406 0
M  V30 3197 C 293.599 -0.467334 4.78925 0
M  V30 3198 C 295.951 -0.11086 5.21082 0
M  V30 3199 C 293.279 0.367785 5.85546 0
M  V30 3200 C 295.631 0.711609 6.28585 0
M  V30 3201 C 294.295 0.956086 6.60617 0
M  V30 3202 H 293.565 -0.290109 0.681849 0
M  V30 3203 H 296.212 -0.0541332 1.91423 0
M  V30 3204 H 294.517 -2.3626 3.12551 0
M  V30 3205 H 296.214 -2.10032 3.41595 0
M  V30 3206 H 292.804 -0.894598 4.1916 0
M  V30 3207 H 296.988 -0.279129 4.95514 0
M  V30 3208 H 292.244 0.566128 6.08773 0
M  V30 3209 H 296.418 1.17632 6.86393 0
M  V30 3210 H 294.045 1.60499 7.43064 0
M  V30 3211 N 295.62 -1.53406 -0.361157 0
M  V30 3212 C 296.568 -1.80832 -1.46296 0
M  V30 3213 C 297.562 -0.677699 -1.55253 0
M  V30 3214 O 298.768 -0.860723 -1.58087 0
M  V30 3215 H 295.143 -0.572627 -0.487445 0
M  V30 3216 H 297.114 -2.73045 -1.20371 0
M  V30 3217 C 295.863 -2.01907 -2.8307 0
M  V30 3218 H 295.186 -2.88349 -2.76938 0
M  V30 3219 H 296.626 -2.25072 -3.59331 0
M  V30 3220 C 295.085 -0.799449 -3.27277 0
M  V30 3221 O 295.615 0.00971761 -4.01699 0
M  V30 3222 N 293.821 -0.621637 -2.83873 0
M  V30 3223 H 293.368 -1.28126 -2.23476 0
M  V30 3224 H 293.326 0.19298 -3.13807 0
M  V30 3225 N 297.098 0.621204 -1.44841 0
M  V30 3226 C 298.061 1.71459 -1.521 0
M  V30 3227 C 299.061 1.55696 -0.401933 0
M  V30 3228 O 300.251 1.61011 -0.664925 0
M  V30 3229 C 297.383 3.10624 -1.40447 0
M  V30 3230 H 298.576 1.66394 -2.49506 0
M  V30 3231 H 296.129 0.835745 -1.3208 0
M  V30 3232 H 296.864 3.21277 -0.441737 0
M  V30 3233 H 296.649 3.23473 -2.21602 0
M  V30 3234 H 298.139 3.90293 -1.4853 0
M  V30 3235 N 298.576 1.31904 0.862503 0
M  V30 3236 C 299.825 1.21373 1.61094 0
M  V30 3237 C 300.138 -0.22504 1.94301 0
M  V30 3238 O 301.344 -0.452121 2.67709 0
M  V30 3239 C 299.8 2.12525 2.9045 0
M  V30 3240 C 299.408 3.61441 2.64697 0
M  V30 3241 C 301.152 2.10813 3.68454 0
M  V30 3242 C 299.059 4.44578 3.90006 0
M  V30 3243 H 297.989 0.450705 0.604468 0
M  V30 3244 H 300.64 1.56811 0.953027 0
M  V30 3245 H 299.022 1.69994 3.57656 0
M  V30 3246 H 300.196 4.12264 2.05851 0
M  V30 3247 H 298.511 3.65205 2.00036 0
M  V30 3248 H 301.108 2.70167 4.61426 0
M  V30 3249 H 301.451 1.09713 4.01583 0
M  V30 3250 H 301.984 2.51583 3.08141 0
M  V30 3251 H 298.723 5.46461 3.62023 0
M  V30 3252 H 298.243 3.98508 4.48276 0
M  V30 3253 H 299.922 4.57176 4.5782 0
M  V30 3254 N 300.054 -1.07777 1.14986 0
M  V30 3255 C 301.301 -1.8029 0.922056 0
M  V30 3256 C 301.629 -1.86531 -0.55105 0
M  V30 3257 O 300.884 -1.34189 -1.42449 0
M  V30 3258 C 301.183 -3.25495 1.47608 0
M  V30 3259 C 300.849 -3.39361 2.96893 0
M  V30 3260 C 299.511 -3.42852 3.37647 0
M  V30 3261 C 301.863 -3.42512 3.92854 0
M  V30 3262 C 299.191 -3.47094 4.73015 0
M  V30 3263 C 301.543 -3.4829 5.28088 0
M  V30 3264 C 300.207 -3.50058 5.68345 0
M  V30 3265 H 299.477 -0.659727 0.337404 0
M  V30 3266 H 302.124 -1.26854 1.43459 0
M  V30 3267 H 300.429 -3.81683 0.88463 0
M  V30 3268 H 302.126 -3.80168 1.27568 0
M  V30 3269 H 298.716 -3.37339 2.64387 0
M  V30 3270 H 302.9 -3.3904 3.62444 0
M  V30 3271 H 298.156 -3.46758 5.03556 0
M  V30 3272 H 302.33 -3.49675 6.02246 0
M  V30 3273 H 299.957 -3.53097 6.73221 0
M  V30 3274 N 301.532 -0.945985 -1.26051 0
M  V30 3275 C 302.76 -0.613025 -1.9761 0
M  V30 3276 C 303.175 0.813035 -1.70397 0
M  V30 3277 O 302.532 1.54274 -0.974979 0
M  V30 3278 C 302.583 -0.85159 -3.51326 0
M  V30 3279 O 302.304 -2.22157 -3.77595 0
M  V30 3280 C 303.805 -0.529831 -4.40122 0
M  V30 3281 H 301.025 -0.230593 -0.630133 0
M  V30 3282 H 303.569 -1.268 -1.60443 0
M  V30 3283 H 301.724 -0.243151 -3.86636 0
M  V30 3284 H 302.138 -2.2852 -4.721 0
M  V30 3285 H 303.612 -0.747348 -5.46917 0
M  V30 3286 H 304.089 0.535341 -4.35925 0
M  V30 3287 H 304.695 -1.11721 -4.10364 0
M  V30 3288 N 303.011 1.40521 -0.713556 0
M  V30 3289 C 304.258 2.00923 -0.25219 0
M  V30 3290 C 304.586 1.56571 1.15395 0
M  V30 3291 O 303.841 0.775874 1.79663 0
M  V30 3292 C 304.14 3.56317 -0.278 0
M  V30 3293 C 303.806 4.20246 -1.63415 0
M  V30 3294 C 302.468 4.37422 -2.00538 0
M  V30 3295 C 304.82 4.55923 -2.52554 0
M  V30 3296 C 302.148 4.87558 -3.2635 0
M  V30 3297 C 304.5 5.07458 -3.77716 0
M  V30 3298 C 303.164 5.22843 -4.14959 0
M  V30 3299 H 302.434 0.735231 -0.0922829 0
M  V30 3300 H 305.081 1.68161 -0.916188 0
M  V30 3301 H 303.386 3.88976 0.469567 0
M  V30 3302 H 305.083 4.00883 0.0967819 0
M  V30 3303 H 301.673 4.07263 -1.33546 0
M  V30 3304 H 305.857 4.42291 -2.25149 0
M  V30 3305 H 301.113 4.97654 -3.55176 0
M  V30 3306 H 305.287 5.34041 -4.4696 0
M  V30 3307 H 302.914 5.61454 -5.12516 0
M  V30 3308 N 304.489 0.459591 1.5075 0
M  V30 3309 C 305.719 -0.0972338 2.06371 0
M  V30 3310 C 306.127 -1.35074 1.32483 0
M  V30 3311 O 305.47 -1.79637 0.384226 0
M  V30 3312 C 305.532 -0.462759 3.56509 0
M  V30 3313 C 305.196 0.687084 4.51805 0
M  V30 3314 C 306.193 1.56578 4.95761 0
M  V30 3315 C 303.878 0.874144 4.94635 0
M  V30 3316 C 305.872 2.61604 5.81242 0
M  V30 3317 C 303.559 1.92765 5.79901 0
M  V30 3318 C 304.557 2.79697 6.23104 0
M  V30 3319 O 304.245 3.83235 7.06673 0
M  V30 3320 H 303.977 -0.00140687 0.675999 0
M  V30 3321 H 306.531 0.644011 1.95043 0
M  V30 3322 H 304.761 -1.25703 3.65699 0
M  V30 3323 H 306.45 -0.953323 3.94546 0
M  V30 3324 H 307.216 1.4329 4.6335 0
M  V30 3325 H 303.095 0.207006 4.60535 0
M  V30 3326 H 306.639 3.29489 6.14884 0
M  V30 3327 H 302.536 2.06064 6.11725 0
M  V30 3328 H 303.304 3.80084 7.24899 0
M  V30 3329 N 305.967 -1.56429 0.191757 0
M  V30 3330 C 307.244 -1.89224 -0.495332 0
M  V30 3331 C 307.624 -1.10478 -1.79883 0
M  V30 3332 O 306.972 -0.204852 -2.2758 0
M  V30 3333 C 307.182 -3.41548 -0.717367 0
M  V30 3334 C 308.53 -4.11711 -1.03823 0
M  V30 3335 O 309.554 -3.4698 -0.805204 0
M  V30 3336 O 308.413 -5.2611 -1.47887 0
M  V30 3337 H 305.507 -0.785788 -0.25781 0
M  V30 3338 H 308.053 -1.68111 0.231721 0
M  V30 3339 H 306.825 -3.90772 0.203287 0
M  V30 3340 H 306.448 -3.68342 -1.497 0
M  V30 3341 N 307.445 0.0818655 -1.57387 0
M  V30 3342 C 308.392 1.09834 -2.0299 0
M  V30 3343 C 309.362 1.39043 -0.908639 0
M  V30 3344 O 310.547 1.50282 -1.17559 0
M  V30 3345 C 307.687 2.40971 -2.47037 0
M  V30 3346 C 306.8 2.18379 -3.7274 0
M  V30 3347 C 305.935 3.43008 -4.0561 0
M  V30 3348 C 304.974 3.15736 -5.24383 0
M  V30 3349 N 304.111 4.32667 -5.52941 0
M  V30 3350 H 308.951 0.702472 -2.89602 0
M  V30 3351 H 306.488 0.33531 -1.43227 0
M  V30 3352 H 308.446 3.1752 -2.70623 0
M  V30 3353 H 307.076 2.78379 -1.63417 0
M  V30 3354 H 306.128 1.32569 -3.56552 0
M  V30 3355 H 307.44 1.94227 -4.59431 0
M  V30 3356 H 306.594 4.27958 -4.30043 0
M  V30 3357 H 305.333 3.70225 -3.17466 0
M  V30 3358 H 304.338 2.2918 -4.99757 0
M  V30 3359 H 305.563 2.8985 -6.14136 0
M  V30 3360 H 303.509 4.59935 -4.67756 0
M  V30 3361 H 303.426 4.11753 -6.34031 0
M  V30 3362 H 304.694 5.18644 -5.81918 0
M  V30 3363 N 308.923 1.53595 0.353017 0
M  V30 3364 C 310.2 1.61002 1.11075 0
M  V30 3365 C 310.58 0.425356 2.0677 0
M  V30 3366 O 309.928 -0.583267 2.2093 0
M  V30 3367 C 310.138 2.96631 1.83877 0
M  V30 3368 C 311.486 3.51653 2.37961 0
M  V30 3369 O 312.51 2.98743 1.93987 0
M  V30 3370 O 311.369 4.44177 3.18386 0
M  V30 3371 H 308.463 0.650825 0.510251 0
M  V30 3372 H 311.009 1.6594 0.35527 0
M  V30 3373 H 309.781 3.74293 1.14108 0
M  V30 3374 H 309.404 2.95242 2.66304 0
M  V30 3375 N 310.401 -0.613514 1.45168 0
M  V30 3376 C 311.817 -0.933629 1.29443 0
M  V30 3377 C 312.017 -2.00028 0.243101 0
M  V30 3378 O 311.073 -2.49848 -0.364992 0
M  V30 3379 C 312.386 -1.38018 2.67155 0
M  V30 3380 C 313.934 -1.49471 2.75004 0
M  V30 3381 C 314.409 -1.97503 4.13227 0
M  V30 3382 N 315.9 -2.04746 4.15491 0
M  V30 3383 C 316.635 -2.43121 5.19307 0
M  V30 3384 N 316.131 -2.80506 6.33473 0
M  V30 3385 N 317.924 -2.43408 5.06664 0
M  V30 3386 H 310.075 0.0916097 2.12202 0
M  V30 3387 H 312.338 -0.0216655 0.947752 0
M  V30 3388 H 312.044 -0.670625 3.45247 0
M  V30 3389 H 311.918 -2.34784 2.95222 0
M  V30 3390 H 314.305 -2.19519 1.9722 0
M  V30 3391 H 314.386 -0.510342 2.50657 0
M  V30 3392 H 314.03 -1.28045 4.91495 0
M  V30 3393 H 313.96 -2.96843 4.34962 0
M  V30 3394 H 316.451 -1.78468 3.33103 0
M  V30 3395 H 316.764 -3.08652 7.08487 0
M  V30 3396 H 315.109 -2.78216 6.36884 0
M  V30 3397 H 318.3 -2.13604 4.16523 0
M  V30 3398 H 318.473 -2.72989 5.87691 0
M  V30 3399 N 311.879 -1.3236 -0.855495 0
M  V30 3400 C 313.104 -1.2601 -1.64731 0
M  V30 3401 C 313.529 0.169068 -1.87339 0
M  V30 3402 O 312.887 1.12016 -1.42556 0
M  V30 3403 C 312.935 -2.02417 -2.98429 0
M  V30 3404 O 312.039 -1.3714 -3.8893 0
M  V30 3405 H 311.38 -0.434325 -0.502253 0
M  V30 3406 H 313.91 -1.74661 -1.06558 0
M  V30 3407 H 313.92 -2.12559 -3.48257 0
M  V30 3408 H 312.595 -3.06343 -2.81295 0
M  V30 3409 H 311.172 -1.3554 -3.47395 0
M  V30 3410 N 313.357 1.07166 -1.15556 0
M  V30 3411 C 314.605 1.79443 -0.929764 0
M  V30 3412 C 314.926 1.87246 0.544414 0
M  V30 3413 O 314.196 1.37473 1.39564 0
M  V30 3414 H 312.776 0.664625 -0.341003 0
M  V30 3415 H 315.438 1.29499 -1.45657 0
M  V30 3416 H 314.534 2.81832 -1.34079 0
M  V30 3417 N 314.835 0.952656 1.25548 0
M  V30 3418 C 316.065 0.622592 1.96996 0
M  V30 3419 C 316.473 -0.809112 1.71026 0
M  V30 3420 O 315.816 -1.55258 0.981861 0
M  V30 3421 C 315.878 0.798946 3.5051 0
M  V30 3422 C 315.542 2.20744 4.00151 0
M  V30 3423 C 316.539 3.18394 4.11001 0
M  V30 3424 C 314.224 2.5311 4.33867 0
M  V30 3425 C 316.218 4.46504 4.54877 0
M  V30 3426 C 313.905 3.8145 4.7743 0
M  V30 3427 C 314.903 4.77959 4.87897 0
M  V30 3428 O 314.591 6.04012 5.30494 0
M  V30 3429 H 314.323 0.232503 0.634758 0
M  V30 3430 H 316.877 1.2789 1.60728 0
M  V30 3431 H 315.107 0.0854903 3.86605 0
M  V30 3432 H 316.796 0.47023 4.03167 0
M  V30 3433 H 317.562 2.94715 3.85186 0
M  V30 3434 H 313.441 1.78719 4.24948 0
M  V30 3435 H 316.985 5.21835 4.62962 0
M  V30 3436 H 312.882 4.04936 5.0269 0
M  V30 3437 H 313.65 6.0736 5.48685 0
M  V30 3438 N 316.313 -1.40141 0.720998 0
M  V30 3439 C 317.562 -2.0002 0.259804 0
M  V30 3440 C 317.875 -1.57839 -1.15526 0
M  V30 3441 O 319.081 -2.10455 -1.71525 0
M  V30 3442 C 317.537 -3.57516 0.413566 0
M  V30 3443 C 317.145 -4.08667 1.83562 0
M  V30 3444 C 318.889 -4.24498 0.0134387 0
M  V30 3445 C 316.796 -5.58686 1.93968 0
M  V30 3446 H 315.726 -0.748195 0.0933806 0
M  V30 3447 H 318.377 -1.60313 0.892866 0
M  V30 3448 H 316.759 -3.9495 -0.288169 0
M  V30 3449 H 317.933 -3.82598 2.56817 0
M  V30 3450 H 316.248 -3.543 2.1877 0
M  V30 3451 H 318.845 -5.34654 0.0703954 0
M  V30 3452 H 319.188 -4.03375 -1.02927 0
M  V30 3453 H 319.721 -3.92188 0.665815 0
M  V30 3454 H 316.46 -5.8467 2.96379 0
M  V30 3455 H 315.98 -5.86602 1.25131 0
M  V30 3456 H 317.659 -6.23875 1.71431 0
M  V30 3457 N 317.792 -0.46758 -1.50504 0
M  V30 3458 C 319.069 0.15003 -1.95024 0
M  V30 3459 C 319.449 1.57304 -1.40779 0
M  V30 3460 O 318.797 2.20281 -0.607319 0
M  V30 3461 C 319.007 0.0969324 -3.48865 0
M  V30 3462 C 320.355 0.287565 -4.23625 0
M  V30 3463 O 321.379 0.173678 -3.55776 0
M  V30 3464 O 320.238 0.517186 -5.44047 0
M  V30 3465 H 317.332 0.113582 -0.819163 0
M  V30 3466 H 319.878 -0.52773 -1.61286 0
M  V30 3467 H 318.65 -0.896732 -3.80886 0
M  V30 3468 H 318.273 0.816303 -3.8913 0
M  V30 3469 N 319.27 1.56325 -0.20005 0
M  V30 3470 C 320.18 2.22931 0.730668 0
M  V30 3471 C 321.196 1.22997 1.23076 0
M  V30 3472 O 322.372 1.55748 1.27689 0
M  V30 3473 C 319.437 2.87948 1.93098 0
M  V30 3474 C 318.498 4.03166 1.47497 0
M  V30 3475 C 317.731 4.65073 2.61807 0
M  V30 3476 O 317.954 4.25913 3.79413 0
M  V30 3477 O 316.888 5.54452 2.34237 0
M  V30 3478 H 320.714 3.03084 0.193391 0
M  V30 3479 H 318.299 1.49371 0.0294621 0
M  V30 3480 H 320.181 3.29063 2.6324 0
M  V30 3481 H 318.856 2.10771 2.45677 0
M  V30 3482 H 317.763 3.66664 0.742201 0
M  V30 3483 H 319.096 4.82022 0.995796 0
M  V30 3484 N 320.748 -0.0735177 1.57428 0
M  V30 3485 C 321.698 -1.09442 2.00016 0
M  V30 3486 C 322.682 -1.34575 0.881947 0
M  V30 3487 O 323.874 -1.34905 1.14585 0
M  V30 3488 C 321.003 -2.40865 2.4462 0
M  V30 3489 C 320.089 -2.19014 3.63172 0
M  V30 3490 N 320.48 -1.67087 4.77405 0
M  V30 3491 C 318.778 -2.49494 3.69688 0
M  V30 3492 C 319.479 -1.6001 5.5926 0
M  V30 3493 N 318.455 -2.05999 5.03056 0
M  V30 3494 H 322.257 -0.686227 2.85776 0
M  V30 3495 H 319.771 -0.280617 1.59957 0
M  V30 3496 H 321.768 -3.14763 2.73368 0
M  V30 3497 H 320.428 -2.82403 1.60246 0
M  V30 3498 H 321.439 -1.35975 4.99731 0
M  V30 3499 H 318.116 -2.94409 2.96023 0
M  V30 3500 H 319.506 -1.2073 6.60964 0
M  V30 3501 N 322.226 -1.5378 -0.344866 0
M  V30 3502 C 323.136 -1.84667 -1.4469 0
M  V30 3503 C 324.152 -0.736704 -1.57635 0
M  V30 3504 O 325.328 -1.02888 -1.73136 0
M  V30 3505 C 322.393 -2.04869 -2.79696 0
M  V30 3506 C 321.454 -3.28731 -2.76106 0
M  V30 3507 C 320.687 -3.4796 -4.04673 0
M  V30 3508 O 320.91 -2.71052 -5.01883 0
M  V30 3509 O 319.844 -4.41383 -4.09224 0
M  V30 3510 H 323.67 -2.78334 -1.21506 0
M  V30 3511 H 321.255 -1.39418 -0.536921 0
M  V30 3512 H 323.137 -2.19609 -3.59652 0
M  V30 3513 H 321.812 -1.14391 -3.02814 0
M  V30 3514 H 320.719 -3.19396 -1.94774 0
M  V30 3515 H 322.052 -4.19198 -2.57941 0
M  V30 3516 N 323.704 0.605807 -1.45491 0
M  V30 3517 C 324.634 1.72709 -1.57143 0
M  V30 3518 C 325.615 1.6476 -0.422884 0
M  V30 3519 O 326.8 1.83132 -0.646247 0
M  V30 3520 C 323.93 3.11316 -1.53948 0
M  V30 3521 C 322.884 3.34077 -2.67537 0
M  V30 3522 C 322.21 4.72975 -2.49397 0
M  V30 3523 C 323.51 3.24158 -4.09535 0
M  V30 3524 H 325.204 1.63214 -2.51001 0
M  V30 3525 H 322.75 0.78379 -1.208 0
M  V30 3526 H 324.703 3.89557 -1.60696 0
M  V30 3527 H 323.427 3.21655 -0.566205 0
M  V30 3528 H 322.086 2.58227 -2.6022 0
M  V30 3529 H 321.734 4.8005 -1.50205 0
M  V30 3530 H 321.434 4.8916 -3.25571 0
M  V30 3531 H 322.958 5.53414 -2.58002 0
M  V30 3532 H 324.372 3.92271 -4.18086 0
M  V30 3533 H 322.769 3.51872 -4.86113 0
M  V30 3534 H 323.839 2.2157 -4.31317 0
M  V30 3535 N 325.182 1.32811 0.848464 0
M  V30 3536 C 326.459 1.14334 1.58704 0
M  V30 3537 C 326.839 -0.293948 2.09043 0
M  V30 3538 O 326.187 -1.29153 1.88499 0
M  V30 3539 C 326.397 2.17626 2.72837 0
M  V30 3540 C 327.745 2.51282 3.42261 0
M  V30 3541 O 328.769 2.16219 2.83068 0
M  V30 3542 O 327.628 3.11413 4.49093 0
M  V30 3543 H 324.722 0.441601 0.699226 0
M  V30 3544 H 327.268 1.44362 0.892053 0
M  V30 3545 H 326.04 3.14211 2.3321 0
M  V30 3546 H 325.663 1.88628 3.50008 0
M  V30 3547 N 326.66 -1.06551 1.16123 0
M  V30 3548 C 327.623 -2.12132 0.867906 0
M  V30 3549 C 328.623 -1.60224 -0.135944 0
M  V30 3550 O 329.813 -1.73943 0.0946422 0
M  V30 3551 C 326.945 -3.396 0.297419 0
M  V30 3552 H 328.138 -2.39586 1.80385 0
M  V30 3553 H 325.691 -1.22574 0.969812 0
M  V30 3554 H 326.426 -3.17794 -0.64633 0
M  V30 3555 H 326.211 -3.78581 1.02073 0
M  V30 3556 H 327.701 -4.17455 0.110052 0
M  V30 3557 N 328.138 -0.959301 -1.25041 0
M  V30 3558 C 329.068 -0.501388 -2.28053 0
M  V30 3559 C 330.049 0.454673 -1.63911 0
M  V30 3560 O 331.234 0.352618 -1.90972 0
M  V30 3561 C 328.364 0.217224 -3.4662 0
M  V30 3562 C 327.318 -0.654034 -4.22973 0
M  V30 3563 C 326.644 0.195589 -5.34342 0
M  V30 3564 C 327.944 -1.93447 -4.85155 0
M  V30 3565 H 329.638 -1.36238 -2.66608 0
M  V30 3566 H 327.184 -0.656534 -1.28163 0
M  V30 3567 H 329.137 0.548732 -4.17812 0
M  V30 3568 H 327.861 1.1125 -3.07068 0
M  V30 3569 H 326.52 -0.968693 -3.5357 0
M  V30 3570 H 326.168 1.09076 -4.91031 0
M  V30 3571 H 325.868 -0.384091 -5.86343 0
M  V30 3572 H 327.392 0.521958 -6.08365 0
M  V30 3573 H 328.806 -1.66908 -5.48466 0
M  V30 3574 H 327.203 -2.46018 -5.47353 0
M  V30 3575 H 328.273 -2.63466 -4.07079 0
M  V30 3576 N 329.616 1.39756 -0.72842 0
M  V30 3577 C 330.546 2.33289 -0.0991354 0
M  V30 3578 C 331.527 1.53568 0.731489 0
M  V30 3579 O 332.712 1.81987 0.677807 0
M  V30 3580 C 329.842 3.3763 0.813834 0
M  V30 3581 C 328.796 4.2791 0.0878663 0
M  V30 3582 C 328.122 5.22894 1.11741 0
M  V30 3583 C 329.422 5.11314 -1.06563 0
M  V30 3584 H 331.116 2.86163 -0.880408 0
M  V30 3585 H 328.662 1.37591 -0.424819 0
M  V30 3586 H 330.615 4.0201 1.26355 0
M  V30 3587 H 329.339 2.83181 1.62715 0
M  V30 3588 H 327.998 3.65 -0.342159 0
M  V30 3589 H 327.646 4.64744 1.92412 0
M  V30 3590 H 327.346 5.84143 0.636477 0
M  V30 3591 H 328.87 5.90151 1.56697 0
M  V30 3592 H 330.284 5.69076 -0.694671 0
M  V30 3593 H 328.681 5.81671 -1.47577 0
M  V30 3594 H 329.751 4.46534 -1.89038 0
M  V30 3595 N 331.094 0.475555 1.50254 0
M  V30 3596 C 332.041 -0.316293 2.28622 0
M  V30 3597 C 333.011 -0.983227 1.33873 0
M  V30 3598 O 334.196 -0.994805 1.62814 0
M  V30 3599 C 331.336 -1.38975 3.1588 0
M  V30 3600 C 330.449 -0.737146 4.25664 0
M  V30 3601 C 329.584 -1.78887 5.00173 0
M  V30 3602 C 328.623 -1.11676 6.01826 0
M  V30 3603 N 327.76 -2.11154 6.69596 0
M  V30 3604 H 332.6 0.358297 2.95838 0
M  V30 3605 H 330.137 0.188541 1.45887 0
M  V30 3606 H 332.095 -2.02383 3.64825 0
M  V30 3607 H 330.725 -2.03344 2.50701 0
M  V30 3608 H 329.777 0.0096065 3.80399 0
M  V30 3609 H 331.089 -0.206816 4.98371 0
M  V30 3610 H 330.243 -2.49865 5.52859 0
M  V30 3611 H 328.982 -2.35302 4.27182 0
M  V30 3612 H 327.987 -0.392633 5.48396 0
M  V30 3613 H 329.212 -0.55945 6.76792 0
M  V30 3614 H 327.158 -2.66577 5.99394 0
M  V30 3615 H 327.075 -1.63118 7.38193 0
M  V30 3616 H 328.343 -2.81497 7.26897 0
M  V30 3617 N 332.573 -1.56217 0.208337 0
M  V30 3618 C 333.85 -1.89739 -0.475234 0
M  V30 3619 C 334.23 -1.1238 -1.78701 0
M  V30 3620 O 333.578 -0.228979 -2.2735 0
M  V30 3621 C 333.788 -3.42289 -0.681101 0
M  V30 3622 C 335.136 -4.12789 -0.994507 0
M  V30 3623 O 336.16 -3.47814 -0.768357 0
M  V30 3624 O 335.019 -5.27649 -1.42299 0
M  V30 3625 H 332.113 -0.788478 -0.249461 0
M  V30 3626 H 334.659 -1.67855 0.249538 0
M  V30 3627 H 333.431 -3.90534 0.244722 0
M  V30 3628 H 333.054 -3.69909 -1.45785 0
M  V30 3629 N 334.051 0.0651679 -1.57465 0
M  V30 3630 C 334.981 1.07693 -2.07182 0
M  V30 3631 C 335.962 1.39962 -0.966673 0
M  V30 3632 O 337.147 1.49475 -1.2398 0
M  V30 3633 C 334.277 2.3885 -2.52127 0
M  V30 3634 C 333.231 2.20917 -3.66579 0
M  V30 3635 C 332.557 3.57515 -3.97601 0
M  V30 3636 C 333.857 1.62493 -4.9638 0
M  V30 3637 H 335.551 0.663199 -2.91962 0
M  V30 3638 H 333.097 0.317569 -1.40455 0
M  V30 3639 H 335.05 3.09928 -2.85522 0
M  V30 3640 H 333.774 2.82215 -1.64384 0
M  V30 3641 H 332.433 1.52279 -3.33477 0
M  V30 3642 H 332.081 3.98463 -3.06979 0
M  V30 3643 H 331.781 3.46353 -4.74672 0
M  V30 3644 H 333.305 4.30013 -4.33499 0
M  V30 3645 H 334.719 2.23445 -5.27963 0
M  V30 3646 H 333.116 1.62009 -5.77818 0
M  V30 3647 H 334.186 0.587041 -4.81333 0
M  V30 3648 N 335.529 1.53961 0.336706 0
M  V30 3649 C 336.759 1.75229 1.09446 0
M  V30 3650 C 337.167 0.494602 1.82621 0
M  V30 3651 O 336.51 -0.543764 1.75468 0
M  V30 3652 C 336.572 2.88288 2.1478 0
M  V30 3653 C 336.236 4.27656 1.6112 0
M  V30 3654 C 337.233 5.08981 1.0599 0
M  V30 3655 C 334.918 4.74161 1.6576 0
M  V30 3656 C 336.912 6.34916 0.562129 0
M  V30 3657 C 334.599 6.00067 1.15595 0
M  V30 3658 C 335.597 6.80278 0.609147 0
M  V30 3659 O 335.285 8.03818 0.114999 0
M  V30 3660 H 335.017 0.588881 0.331956 0
M  V30 3661 H 337.571 2.01614 0.392566 0
M  V30 3662 H 335.801 2.57443 2.88548 0
M  V30 3663 H 337.49 2.97461 2.76174 0
M  V30 3664 H 338.256 4.74213 1.01722 0
M  V30 3665 H 334.135 4.11781 2.07261 0
M  V30 3666 H 337.679 6.9747 0.134668 0
M  V30 3667 H 333.576 6.3433 1.19566 0
M  V30 3668 H 334.344 8.18172 0.231651 0
M  V30 3669 N 337.007 -0.598083 1.45811 0
M  V30 3670 C 337.917 -1.73632 1.57763 0
M  V30 3671 C 338.933 -1.67763 0.461676 0
M  V30 3672 O 340.109 -1.87949 0.723685 0
M  V30 3673 C 337.174 -3.10114 1.55018 0
M  V30 3674 C 336.235 -3.27364 2.77726 0
M  V30 3675 C 335.468 -4.57334 2.75102 0
M  V30 3676 O 335.691 -5.40258 1.8297 0
M  V30 3677 O 334.625 -4.77502 3.66437 0
M  V30 3678 H 338.451 -1.66498 2.53992 0
M  V30 3679 H 336.036 -0.763308 1.28429 0
M  V30 3680 H 337.918 -3.9141 1.56129 0
M  V30 3681 H 336.593 -3.17718 0.619431 0
M  V30 3682 H 335.5 -2.45619 2.82174 0
M  V30 3683 H 336.833 -3.24641 3.69958 0
M  V30 3684 N 338.485 -1.33259 -0.841409 0
M  V30 3685 C 339.432 -1.23302 -1.95103 0
M  V30 3686 C 340.402 -0.112204 -1.65721 0
M  V30 3687 O 341.587 -0.290038 -1.88583 0
M  V30 3688 C 338.727 -0.975583 -3.31023 0
M  V30 3689 C 337.84 -2.18243 -3.72819 0
M  V30 3690 C 336.975 -1.85936 -4.97595 0
M  V30 3691 C 336.014 -3.02866 -5.3192 0
M  V30 3692 N 335.151 -2.70565 -6.47873 0
M  V30 3693 H 339.991 -2.18207 -2.02952 0
M  V30 3694 H 337.528 -1.0851 -0.993173 0
M  V30 3695 H 339.486 -0.80677 -4.09325 0
M  V30 3696 H 338.116 -0.0632755 -3.22738 0
M  V30 3697 H 337.168 -2.46107 -2.90061 0
M  V30 3698 H 338.48 -3.05666 -3.94169 0
M  V30 3699 H 337.634 -1.65684 -5.83638 0
M  V30 3700 H 336.373 -0.957452 -4.78209 0
M  V30 3701 H 335.378 -3.23736 -4.44382 0
M  V30 3702 H 336.603 -3.93809 -5.53255 0
M  V30 3703 H 334.549 -1.8293 -6.29978 0
M  V30 3704 H 334.466 -3.51519 -6.69306 0
M  V30 3705 H 335.734 -2.53774 -7.37034 0
M  V30 3706 N 339.963 1.05934 -1.16686 0
M  V30 3707 C 340.911 2.15603 -0.872817 0
M  V30 3708 C 341.905 1.68647 0.159576 0
M  V30 3709 O 343.111 1.79995 0.0132125 0
M  V30 3710 H 339.486 0.703885 -0.264671 0
M  V30 3711 H 341.457 2.37613 -1.80507 0
M  V30 3712 C 340.206 3.45457 -0.394344 0
M  V30 3713 H 339.529 3.81984 -1.18019 0
M  V30 3714 H 340.969 4.2339 -0.227408 0
M  V30 3715 C 339.428 3.25021 0.88673 0
M  V30 3716 O 339.958 3.50906 1.95519 0
M  V30 3717 N 338.164 2.78437 0.831925 0
M  V30 3718 H 337.711 2.57572 -0.0377619 0
M  V30 3719 H 337.669 2.65144 1.68956 0
M  V30 3720 N 341.441 0.965919 1.2453 0
M  V30 3721 C 342.388 0.49402 2.25451 0
M  V30 3722 C 343.358 -0.45948 1.59618 0
M  V30 3723 O 344.543 -0.370238 1.87173 0
M  V30 3724 C 341.683 -0.211359 3.44452 0
M  V30 3725 C 340.796 0.7807 4.24887 0
M  V30 3726 C 339.931 0.0516105 5.31175 0
M  V30 3727 C 338.97 1.03385 6.03306 0
M  V30 3728 N 338.107 0.334887 7.01301 0
M  V30 3729 H 342.947 1.35946 2.65184 0
M  V30 3730 H 340.484 0.681515 1.3036 0
M  V30 3731 H 342.442 -0.637 4.12308 0
M  V30 3732 H 341.072 -1.04077 3.05562 0
M  V30 3733 H 340.124 1.32479 3.56586 0
M  V30 3734 H 341.436 1.52978 4.74762 0
M  V30 3735 H 340.59 -0.432114 6.05159 0
M  V30 3736 H 339.329 -0.730179 4.82203 0
M  V30 3737 H 338.334 1.52847 5.28127 0
M  V30 3738 H 339.559 1.81606 6.54367 0
M  V30 3739 H 337.505 -0.427959 6.54603 0
M  V30 3740 H 337.422 1.02287 7.49048 0
M  V30 3741 H 338.69 -0.126928 7.79397 0
M  V30 3742 N 342.919 -1.39368 0.735821 0
M  V30 3743 C 343.866 -2.30599 0.0963825 0
M  V30 3744 C 344.836 -1.49257 -0.728794 0
M  V30 3745 O 346.021 -1.77941 -0.688588 0
M  V30 3746 C 343.161 -3.35596 -0.804305 0
M  V30 3747 C 342.274 -4.31987 0.0335761 0
M  V30 3748 C 341.409 -5.24053 -0.868461 0
M  V30 3749 C 340.448 -6.12095 -0.0258776 0
M  V30 3750 N 339.585 -6.96514 -0.883893 0
M  V30 3751 H 344.425 -2.8471 0.880002 0
M  V30 3752 H 341.962 -1.40188 0.445619 0
M  V30 3753 H 343.92 -3.95062 -1.34096 0
M  V30 3754 H 342.55 -2.82938 -1.55389 0
M  V30 3755 H 341.602 -3.74133 0.68766 0
M  V30 3756 H 342.914 -4.94074 0.685036 0
M  V30 3757 H 342.068 -5.88549 -1.47293 0
M  V30 3758 H 340.807 -4.62289 -1.5537 0
M  V30 3759 H 339.812 -5.4661 0.591386 0
M  V30 3760 H 341.037 -6.75923 0.656156 0
M  V30 3761 H 338.983 -6.37318 -1.55441 0
M  V30 3762 H 338.9 -7.55448 -0.288931 0
M  V30 3763 H 340.168 -7.65439 -1.4739 0
M  V30 3764 N 344.397 -0.483516 -1.5 0
M  V30 3765 C 345.307 0.309172 -2.32554 0
M  V30 3766 C 346.323 0.984159 -1.43493 0
M  V30 3767 O 347.499 0.969399 -1.76535 0
M  V30 3768 C 344.564 1.36979 -3.18493 0
M  V30 3769 C 343.625 0.710095 -4.23387 0
M  V30 3770 C 342.858 1.72018 -5.05218 0
M  V30 3771 O 343.081 2.94813 -4.88305 0
M  V30 3772 O 342.015 1.28515 -5.8802 0
M  V30 3773 H 345.841 -0.366064 -3.01486 0
M  V30 3774 H 343.426 -0.24514 -1.47375 0
M  V30 3775 H 345.308 1.98385 -3.71781 0
M  V30 3776 H 343.983 2.02828 -2.52275 0
M  V30 3777 H 342.89 0.0567539 -3.74057 0
M  V30 3778 H 344.223 0.0943557 -4.9211 0
M  V30 3779 N 345.875 1.56104 -0.216619 0
M  V30 3780 C 346.808 2.16026 0.735395 0
M  V30 3781 C 347.786 1.1032 1.1945 0
M  V30 3782 O 348.97 1.38549 1.27814 0
M  V30 3783 C 346.097 2.73656 1.99575 0
M  V30 3784 C 345.143 3.92146 1.67702 0
M  V30 3785 S 345.976 5.29397 0.806145 0
M  V30 3786 C 347.132 5.90463 2.07617 0
M  V30 3787 H 347.365 2.96439 0.226072 0
M  V30 3788 H 344.898 1.544 -0.00136639 0
M  V30 3789 H 346.856 3.075 2.71945 0
M  V30 3790 H 345.517 1.93245 2.47619 0
M  V30 3791 H 344.71 4.30954 2.61332 0
M  V30 3792 H 344.312 3.59423 1.03398 0
M  V30 3793 H 346.604 6.06136 3.02664 0
M  V30 3794 H 347.547 6.86589 1.73207 0
M  V30 3795 H 347.955 5.19252 2.21445 0
M  V30 3796 N 347.353 -0.0568162 1.57498 0
M  V30 3797 C 348.301 -1.08452 2.05769 0
M  V30 3798 C 349.295 -1.39164 0.965903 0
M  V30 3799 O 350.501 -1.38395 1.15095 0
M  V30 3800 H 346.876 -0.367148 0.656282 0
M  V30 3801 H 348.847 -0.651368 2.91204 0
M  V30 3802 C 347.596 -2.38543 2.52968 0
M  V30 3803 H 346.919 -2.15765 3.36579 0
M  V30 3804 H 348.359 -3.08863 2.90481 0
M  V30 3805 C 346.818 -3.05562 1.41893 0
M  V30 3806 O 347.348 -3.94262 0.769442 0
M  V30 3807 N 345.554 -2.6643 1.16032 0
M  V30 3808 H 345.101 -1.94387 1.6903 0
M  V30 3809 H 345.059 -3.11593 0.419219 0
M  V30 3810 N 348.832 -1.54138 -0.328536 0
M  V30 3811 C 350.081 -1.71318 -1.06456 0
M  V30 3812 C 350.394 -0.491109 -1.89334 0
M  V30 3813 O 351.6 -0.54416 -2.65991 0
M  V30 3814 C 350.056 -3.03 -1.94214 0
M  V30 3815 C 349.664 -4.32595 -1.16471 0
M  V30 3816 C 351.408 -3.29544 -2.67583 0
M  V30 3817 C 349.315 -5.55341 -2.03347 0
M  V30 3818 H 348.245 -0.638429 -0.401155 0
M  V30 3819 H 350.896 -1.80633 -0.323106 0
M  V30 3820 H 349.278 -2.87579 -2.72239 0
M  V30 3821 H 350.452 -4.58766 -0.432525 0
M  V30 3822 H 348.767 -4.12777 -0.548063 0
M  V30 3823 H 351.364 -4.18444 -3.3288 0
M  V30 3824 H 351.707 -2.47206 -3.34955 0
M  V30 3825 H 352.24 -3.45809 -1.96623 0
M  V30 3826 H 348.979 -6.40268 -1.40491 0
M  V30 3827 H 348.499 -5.33397 -2.74313 0
M  V30 3828 H 350.178 -5.91557 -2.62049 0
M  V30 3829 N 350.31 0.590341 -1.46126 0
M  V30 3830 C 351.242 1.71427 -1.52136 0
M  V30 3831 C 352.255 1.57542 -0.41042 0
M  V30 3832 O 353.444 1.65106 -0.678389 0
M  V30 3833 C 350.544 3.09605 -1.37834 0
M  V30 3834 C 349.717 3.49566 -2.62912 0
M  V30 3835 C 348.776 4.66773 -2.42918 0
M  V30 3836 O 347.802 4.73019 -3.1661 0
M  V30 3837 N 349.004 5.61161 -1.4859 0
M  V30 3838 H 351.769 1.66728 -2.49042 0
M  V30 3839 H 349.33 0.776113 -1.42085 0
M  V30 3840 H 351.322 3.85796 -1.22243 0
M  V30 3841 H 349.892 3.08714 -0.491393 0
M  V30 3842 H 349.112 2.63158 -2.93499 0
M  V30 3843 H 350.4 3.73028 -3.46017 0
M  V30 3844 H 349.798 5.58844 -0.87808 0
M  V30 3845 H 348.355 6.36814 -1.38965 0
M  V30 3846 N 351.788 1.33704 0.83433 0
M  V30 3847 C 352.72 1.20172 1.9517 0
M  V30 3848 C 353.733 0.131572 1.62267 0
M  V30 3849 O 354.922 0.382406 1.74356 0
M  V30 3850 C 352.022 0.821716 3.28787 0
M  V30 3851 C 351.195 1.98446 3.89792 0
M  V30 3852 C 350.254 1.58469 5.01771 0
M  V30 3853 O 349.28 2.29968 5.20676 0
M  V30 3854 N 350.482 0.492291 5.78409 0
M  V30 3855 H 353.247 2.16429 2.07313 0
M  V30 3856 H 350.808 1.26509 1.0103 0
M  V30 3857 H 352.8 0.536291 4.01131 0
M  V30 3858 H 351.37 -0.0503058 3.1256 0
M  V30 3859 H 350.59 2.43526 3.09982 0
M  V30 3860 H 351.878 2.76236 4.27283 0
M  V30 3861 H 351.276 -0.102349 5.65607 0
M  V30 3862 H 349.833 0.266555 6.51255 0
M  V30 3863 N 353.266 -1.05314 1.17247 0
M  V30 3864 C 354.196 -2.1498 0.911362 0
M  V30 3865 C 355.177 -1.69471 -0.146169 0
M  V30 3866 O 356.362 -1.942 0.003812 0
M  V30 3867 C 353.492 -3.4472 0.422528 0
M  V30 3868 C 352.446 -4.03789 1.4191 0
M  V30 3869 C 351.772 -5.28858 0.788274 0
M  V30 3870 C 353.072 -4.41418 2.7919 0
M  V30 3871 H 354.766 -2.3708 1.82848 0
M  V30 3872 H 352.312 -1.13938 0.880569 0
M  V30 3873 H 354.265 -4.20787 0.227289 0
M  V30 3874 H 352.989 -3.22269 -0.530123 0
M  V30 3875 H 351.648 -3.2979 1.60106 0
M  V30 3876 H 351.296 -5.02709 -0.171173 0
M  V30 3877 H 350.996 -5.69338 1.45353 0
M  V30 3878 H 352.52 -6.07612 0.603282 0
M  V30 3879 H 353.934 -5.08524 2.64719 0
M  V30 3880 H 352.331 -4.92913 3.42282 0
M  V30 3881 H 353.401 -3.51819 3.33693 0
M  V30 3882 N 354.744 -0.972509 -1.24016 0
M  V30 3883 C 355.972 -0.654803 -1.96265 0
M  V30 3884 C 356.387 0.776708 -1.72083 0
M  V30 3885 O 355.744 1.52171 -1.00748 0
M  V30 3886 C 355.795 -0.92592 -3.49441 0
M  V30 3887 O 355.516 -2.30116 -3.72798 0
M  V30 3888 C 357.017 -0.623068 -4.38899 0
M  V30 3889 H 354.237 -0.243907 -0.6251 0
M  V30 3890 H 356.781 -1.30175 -1.57717 0
M  V30 3891 H 354.936 -0.325108 -3.86033 0
M  V30 3892 H 355.35 -2.38483 -4.67147 0
M  V30 3893 H 356.824 -0.863189 -5.45209 0
M  V30 3894 H 357.301 0.442754 -4.36963 0
M  V30 3895 H 357.907 -1.204 -4.07902 0
M  V30 3896 N 356.222 1.38976 -0.743202 0
M  V30 3897 C 357.17 2.32394 -0.0978389 0
M  V30 3898 C 358.164 1.53486 0.716824 0
M  V30 3899 O 359.37 1.69092 0.617088 0
M  V30 3900 H 355.745 0.75189 -0.0128402 0
M  V30 3901 H 357.716 2.84441 -0.901981 0
M  V30 3902 C 356.465 3.38629 0.789036 0
M  V30 3903 H 355.788 3.99432 0.171559 0
M  V30 3904 H 357.228 4.06426 1.20807 0
M  V30 3905 C 355.687 2.76347 1.92702 0
M  V30 3906 O 356.217 2.64836 3.02034 0
M  V30 3907 N 354.423 2.34311 1.71891 0
M  V30 3908 H 353.97 2.43873 0.829675 0
M  V30 3909 H 353.928 1.9298 2.48205 0
M  V30 3910 N 357.7 0.491464 1.49741 0
M  V30 3911 C 358.93 -0.0534375 2.06531 0
M  V30 3912 C 359.338 -1.32233 1.35318 0
M  V30 3913 O 358.681 -1.78781 0.422243 0
M  V30 3914 C 358.743 -0.387034 3.57411 0
M  V30 3915 C 358.407 0.782764 4.50246 0
M  V30 3916 C 359.404 1.67059 4.92329 0
M  V30 3917 C 357.089 0.978866 4.9267 0
M  V30 3918 C 359.083 2.73874 5.75562 0
M  V30 3919 C 356.77 2.05022 5.75682 0
M  V30 3920 C 357.768 2.92851 6.17031 0
M  V30 3921 O 357.456 3.98138 6.98385 0
M  V30 3922 H 357.188 0.0129324 0.675876 0
M  V30 3923 H 359.742 0.685238 1.93633 0
M  V30 3924 H 357.972 -1.17918 3.68283 0
M  V30 3925 H 359.661 -0.869419 3.96479 0
M  V30 3926 H 360.427 1.53086 4.60206 0
M  V30 3927 H 356.306 0.304646 4.59992 0
M  V30 3928 H 359.85 3.42458 6.07757 0
M  V30 3929 H 355.747 2.18993 6.07217 0
M  V30 3930 H 356.515 3.95374 7.16674 0
M  V30 3931 N 359.178 -1.55987 0.224894 0
M  V30 3932 C 360.594 -1.59066 -0.130426 0
M  V30 3933 C 360.794 -1.24176 -1.5869 0
M  V30 3934 O 359.85 -0.978592 -2.32766 0
M  V30 3935 C 361.163 -3.00042 0.198883 0
M  V30 3936 C 362.711 -3.1268 0.141391 0
M  V30 3937 C 363.186 -4.55839 0.444422 0
M  V30 3938 N 364.677 -4.6152 0.394115 0
M  V30 3939 C 365.412 -5.70231 0.602038 0
M  V30 3940 N 364.908 -6.87291 0.871914 0
M  V30 3941 N 366.701 -5.59555 0.534245 0
M  V30 3942 H 358.852 -1.76941 1.17497 0
M  V30 3943 H 361.115 -0.822604 0.471197 0
M  V30 3944 H 360.821 -3.30234 1.2099 0
M  V30 3945 H 360.695 -3.74075 -0.484535 0
M  V30 3946 H 363.082 -2.82283 -0.860265 0
M  V30 3947 H 363.163 -2.40969 0.858335 0
M  V30 3948 H 362.807 -4.86954 1.44353 0
M  V30 3949 H 362.737 -5.2578 -0.293752 0
M  V30 3950 H 365.228 -3.77405 0.193356 0
M  V30 3951 H 365.541 -7.66058 1.01858 0
M  V30 3952 H 363.886 -6.89028 0.909145 0
M  V30 3953 H 367.077 -4.6698 0.323612 0
M  V30 3954 H 367.25 -6.44211 0.699693 0
M  V30 3955 N 360.656 0.0484629 -1.57525 0
M  V30 3956 C 361.603 1.05504 -2.05275 0
M  V30 3957 C 362.573 1.37084 -0.937927 0
M  V30 3958 O 363.758 1.47754 -1.2072 0
M  V30 3959 C 360.898 2.35676 -2.52093 0
M  V30 3960 C 360.011 2.10423 -3.77288 0
M  V30 3961 C 359.146 3.34327 -4.12794 0
M  V30 3962 C 358.185 3.04542 -5.30962 0
M  V30 3963 N 357.322 4.20841 -5.61994 0
M  V30 3964 H 362.162 0.640885 -2.91027 0
M  V30 3965 H 359.699 0.304854 -1.43906 0
M  V30 3966 H 361.657 3.11709 -2.77297 0
M  V30 3967 H 360.287 2.7485 -1.69285 0
M  V30 3968 H 359.339 1.24976 -3.59284 0
M  V30 3969 H 360.651 1.84438 -4.63448 0
M  V30 3970 H 359.805 4.1874 -4.39024 0
M  V30 3971 H 358.544 3.63408 -3.25247 0
M  V30 3972 H 357.549 2.18528 -5.04505 0
M  V30 3973 H 358.774 2.76758 -6.20146 0
M  V30 3974 H 356.72 4.4991 -4.77406 0
M  V30 3975 H 356.637 3.98212 -6.42622 0
M  V30 3976 H 357.905 5.06184 -5.92789 0
M  V30 3977 N 362.134 1.5431 0.320358 0
M  V30 3978 C 363.359 1.76954 1.08175 0
M  V30 3979 C 363.784 0.518193 1.80821 0
M  V30 3980 O 363.142 -0.530411 1.73368 0
M  V30 3981 C 363.19 2.96451 2.05303 0
M  V30 3982 O 362.294 2.68221 3.13259 0
M  V30 3983 H 361.635 0.586275 0.311733 0
M  V30 3984 H 364.165 2.01342 0.363676 0
M  V30 3985 H 364.175 3.23887 2.48116 0
M  V30 3986 H 362.85 3.87196 1.51829 0
M  V30 3987 H 361.427 2.51744 2.75099 0
M  V30 3988 N 363.613 -0.582584 1.46437 0
M  V30 3989 C 364.859 -1.34278 1.51978 0
M  V30 3990 C 365.192 -1.93446 0.170973 0
M  V30 3991 O 364.467 -1.76481 -0.817608 0
M  V30 3992 C 364.75 -2.47203 2.61845 0
M  V30 3993 C 364.603 -1.93069 4.06257 0
M  V30 3994 C 365.922 -3.49247 2.67795 0
M  V30 3995 H 363.041 -0.486876 0.553282 0
M  V30 3996 H 365.683 -0.654437 1.78374 0
M  V30 3997 H 363.833 -3.0592 2.39469 0
M  V30 3998 H 365.505 -1.38808 4.3992 0
M  V30 3999 H 363.748 -1.23898 4.1573 0
M  V30 4000 H 364.419 -2.74586 4.7886 0
M  V30 4001 H 366.895 -3.00411 2.8791 0
M  V30 4002 H 365.771 -4.25719 3.46489 0
M  V30 4003 H 366.032 -4.06482 1.73852 0
M  V30 4004 N 365.091 -1.34144 -0.827227 0
M  V30 4005 C 366.024 -1.19707 -1.94282 0
M  V30 4006 C 367.002 -0.0897256 -1.62352 0
M  V30 4007 O 368.186 -0.254095 -1.8678 0
M  V30 4008 C 365.313 -0.838646 -3.28153 0
M  V30 4009 C 364.359 -1.95514 -3.79047 0
M  V30 4010 S 365.192 -3.56793 -3.99323 0
M  V30 4011 C 366.348 -3.22983 -5.36127 0
M  V30 4012 H 366.581 -2.1414 -2.06231 0
M  V30 4013 H 364.114 -1.19121 -0.982321 0
M  V30 4014 H 366.072 -0.638637 -4.05502 0
M  V30 4015 H 364.733 0.0872776 -3.13979 0
M  V30 4016 H 363.926 -1.658 -4.75948 0
M  V30 4017 H 363.528 -2.11241 -3.08631 0
M  V30 4018 H 365.82 -2.74531 -6.19386 0
M  V30 4019 H 366.763 -4.19008 -5.70822 0
M  V30 4020 H 367.171 -2.59276 -5.01434 0
M  V30 4021 N 366.569 1.04691 -1.17803 0
M  V30 4022 C 367.794 1.81984 -0.994813 0
M  V30 4023 C 368.219 1.82586 0.452112 0
M  V30 4024 O 367.577 1.23854 1.324 0
M  V30 4025 C 367.625 3.2575 -1.54659 0
M  V30 4026 O 366.729 4.05267 -0.763728 0
M  V30 4027 H 366.07 0.562483 -0.352857 0
M  V30 4028 H 368.6 1.3189 -1.56417 0
M  V30 4029 H 368.61 3.76541 -1.57102 0
M  V30 4030 H 367.285 3.24627 -2.59981 0
M  V30 4031 H 365.862 3.63972 -0.811108 0
M  V30 4032 N 368.047 0.979072 1.23499 0
M  V30 4033 C 368.977 0.537606 2.27227 0
M  V30 4034 C 369.958 -0.428539 1.64613 0
M  V30 4035 O 371.143 -0.322191 1.91509 0
M  V30 4036 C 368.273 -0.162052 3.46922 0
M  V30 4037 C 367.227 0.721242 4.21879 0
M  V30 4038 C 366.553 -0.110555 5.34586 0
M  V30 4039 C 367.853 2.01141 4.82016 0
M  V30 4040 H 369.547 1.40462 2.64406 0
M  V30 4041 H 367.093 0.67684 1.27102 0
M  V30 4042 H 369.046 -0.482192 4.18632 0
M  V30 4043 H 367.77 -1.06351 3.08799 0
M  V30 4044 H 366.429 1.02482 3.51984 0
M  V30 4045 H 366.077 -1.0125 4.92704 0
M  V30 4046 H 365.777 0.477325 5.85658 0
M  V30 4047 H 367.301 -0.425107 6.09118 0
M  V30 4048 H 368.715 1.75612 5.45741 0
M  V30 4049 H 367.112 2.54695 5.43369 0
M  V30 4050 H 368.182 2.69909 4.02836 0
M  V30 4051 N 369.525 -1.3858 0.750561 0
M  V30 4052 C 370.488 -2.28836 0.129152 0
M  V30 4053 C 371.488 -1.47045 -0.650714 0
M  V30 4054 O 372.678 -1.6753 -0.477428 0
M  V30 4055 C 369.81 -3.30751 -0.825622 0
M  V30 4056 H 371.003 -2.85294 0.924516 0
M  V30 4057 H 368.556 -1.47489 0.517376 0
M  V30 4058 H 369.291 -2.79378 -1.64677 0
M  V30 4059 H 369.076 -3.91177 -0.268852 0
M  V30 4060 H 370.566 -3.98249 -1.2565 0
M  V30 4061 N 371.003 -0.499398 -1.49478 0
M  V30 4062 C 371.913 0.284489 -2.32869 0
M  V30 4063 C 372.929 0.968885 -1.44529 0
M  V30 4064 O 374.105 0.95062 -1.77553 0
M  V30 4065 C 371.17 1.33594 -3.19928 0
M  V30 4066 C 370.231 0.665149 -4.24116 0
M  V30 4067 C 369.464 1.6665 -5.07014 0
M  V30 4068 O 369.687 2.89618 -4.91404 0
M  V30 4069 O 368.621 1.22271 -5.8935 0
M  V30 4070 H 372.447 -0.39802 -3.01081 0
M  V30 4071 H 370.032 -0.260758 -1.47107 0
M  V30 4072 H 371.914 1.94431 -3.73864 0
M  V30 4073 H 370.589 2.0014 -2.54412 0
M  V30 4074 H 369.496 0.0170769 -3.74096 0
M  V30 4075 H 370.829 0.0421555 -4.92182 0
M  V30 4076 N 372.481 1.55866 -0.233164 0
M  V30 4077 C 373.444 2.1953 0.658715 0
M  V30 4078 C 374.444 1.16053 1.11303 0
M  V30 4079 O 375.634 1.41218 1.01996 0
M  V30 4080 C 372.766 2.82791 1.90373 0
M  V30 4081 H 373.959 2.99721 0.10347 0
M  V30 4082 H 371.512 1.56291 0.0164245 0
M  V30 4083 H 372.247 2.06501 2.50056 0
M  V30 4084 H 372.032 3.58578 1.58632 0
M  V30 4085 H 373.522 3.31556 2.53891 0
M  V30 4086 N 373.959 -0.0401083 1.57549 0
M  V30 4087 C 375.207 -0.731677 1.8839 0
M  V30 4088 C 375.528 -1.76481 0.829425 0
M  V30 4089 O 374.798 -1.95411 -0.1383 0
M  V30 4090 H 373.378 -0.273225 0.695239 0
M  V30 4091 H 376.04 -0.00867725 1.94898 0
M  V30 4092 H 375.136 -1.22816 2.86919 0
M  V30 4093 N 375.437 -1.54477 -0.31217 0
M  V30 4094 C 376.384 -1.84655 -1.38461 0
M  V30 4095 C 377.354 -0.694536 -1.50882 0
M  V30 4096 O 378.539 -0.942081 -1.6592 0
M  V30 4097 C 375.679 -2.0896 -2.74645 0
M  V30 4098 C 374.792 -3.36618 -2.70763 0
M  V30 4099 C 373.927 -3.50824 -3.98868 0
M  V30 4100 C 372.966 -4.72315 -3.89339 0
M  V30 4101 N 372.103 -4.83387 -5.09197 0
M  V30 4102 H 376.943 -2.76142 -1.12026 0
M  V30 4103 H 374.48 -1.36748 -0.542065 0
M  V30 4104 H 376.438 -2.21045 -3.53829 0
M  V30 4105 H 375.068 -1.20752 -2.99364 0
M  V30 4106 H 374.12 -3.33211 -1.83506 0
M  V30 4107 H 375.432 -4.25917 -2.59608 0
M  V30 4108 H 374.586 -3.62513 -4.86486 0
M  V30 4109 H 373.325 -2.59638 -4.12843 0
M  V30 4110 H 372.33 -4.6067 -3.00105 0
M  V30 4111 H 373.555 -5.64897 -3.76919 0
M  V30 4112 H 371.501 -3.9512 -5.23657 0
M  V30 4113 H 371.418 -5.66669 -5.00422 0
M  V30 4114 H 372.686 -4.9942 -5.98498 0
M  V30 4115 N 376.915 0.57481 -1.46744 0
M  V30 4116 C 377.845 1.69337 -1.60771 0
M  V30 4117 C 378.826 1.63825 -0.457736 0
M  V30 4118 O 380.011 1.8172 -0.684947 0
M  V30 4119 C 377.141 3.0798 -1.60517 0
M  V30 4120 C 376.095 3.28327 -2.74564 0
M  V30 4121 C 375.421 4.67578 -2.59373 0
M  V30 4122 C 376.721 3.15398 -4.16319 0
M  V30 4123 H 378.415 1.57853 -2.54407 0
M  V30 4124 H 375.961 0.75799 -1.22436 0
M  V30 4125 H 377.914 3.86061 -1.68923 0
M  V30 4126 H 376.638 3.20381 -0.634305 0
M  V30 4127 H 375.297 2.52649 -2.65639 0
M  V30 4128 H 374.945 4.76755 -1.60353 0
M  V30 4129 H 374.645 4.82144 -3.35873 0
M  V30 4130 H 376.169 5.47817 -2.69682 0
M  V30 4131 H 377.583 3.83315 -4.26313 0
M  V30 4132 H 375.98 3.41482 -4.93468 0
M  V30 4133 H 377.05 2.12372 -4.3592 0
M  V30 4134 N 378.394 1.34581 0.820102 0
M  V30 4135 C 379.624 1.29991 1.6058 0
M  V30 4136 C 380.032 -0.127588 1.88769 0
M  V30 4137 O 379.375 -1.08595 1.48165 0
M  V30 4138 C 379.437 2.02548 2.9701 0
M  V30 4139 C 379.101 3.51794 2.91701 0
M  V30 4140 C 380.098 4.46647 2.66087 0
M  V30 4141 C 377.783 3.94249 3.11245 0
M  V30 4142 C 379.777 5.81929 2.60071 0
M  V30 4143 C 377.464 5.2963 3.04853 0
M  V30 4144 C 378.462 6.23282 2.793 0
M  V30 4145 O 378.15 7.56181 2.72847 0
M  V30 4146 H 377.882 0.448539 0.505756 0
M  V30 4147 H 380.436 1.77811 1.02822 0
M  V30 4148 H 378.666 1.49345 3.56697 0
M  V30 4149 H 380.355 1.91211 3.58041 0
M  V30 4150 H 381.121 4.15168 2.5072 0
M  V30 4151 H 377 3.21749 3.30149 0
M  V30 4152 H 380.544 6.54999 2.40046 0
M  V30 4153 H 376.441 5.60727 3.19774 0
M  V30 4154 H 377.209 7.6595 2.88553 0
M  V30 4155 N 379.872 -1.04064 1.18357 0
M  V30 4156 C 381.288 -1.2947 0.933258 0
M  V30 4157 C 381.488 -1.97466 -0.401169 0
M  V30 4158 O 380.544 -2.25528 -1.13549 0
M  V30 4159 C 381.857 -2.15337 2.09882 0
M  V30 4160 C 383.405 -2.28683 2.13712 0
M  V30 4161 C 383.88 -3.17917 3.29686 0
M  V30 4162 N 385.371 -3.25504 3.29547 0
M  V30 4163 C 386.106 -3.94706 4.15926 0
M  V30 4164 N 385.602 -4.66239 5.12439 0
M  V30 4165 N 387.395 -3.90986 4.0384 0
M  V30 4166 H 379.546 -0.583359 2.04232 0
M  V30 4167 H 381.809 -0.319921 0.892387 0
M  V30 4168 H 381.515 -1.72682 3.06389 0
M  V30 4169 H 381.389 -3.16015 2.05947 0
M  V30 4170 H 383.776 -2.70575 1.17784 0
M  V30 4171 H 383.857 -1.27596 2.21705 0
M  V30 4172 H 383.501 -2.76736 4.25887 0
M  V30 4173 H 383.431 -4.19036 3.1893 0
M  V30 4174 H 385.922 -2.74547 2.59677 0
M  V30 4175 H 386.235 -5.16638 5.74722 0
M  V30 4176 H 384.58 -4.65143 5.16398 0
M  V30 4177 H 387.771 -3.34234 3.27727 0
M  V30 4178 H 387.944 -4.44646 4.71375 0
M  V30 4179 N 381.35 -0.985608 -1.22978 0
M  V30 4180 C 382.297 -0.529825 -2.24636 0
M  V30 4181 C 383.267 0.434028 -1.60329 0
M  V30 4182 O 384.452 0.340414 -1.87739 0
M  V30 4183 C 381.592 0.156533 -3.44745 0
M  V30 4184 C 380.705 -0.848197 -4.23591 0
M  V30 4185 C 379.84 -0.136109 -5.31026 0
M  V30 4186 C 378.879 -1.1297 -6.01585 0
M  V30 4187 N 378.016 -0.446415 -7.00679 0
M  V30 4188 H 382.856 -1.40148 -2.62988 0
M  V30 4189 H 380.393 -0.702168 -1.29259 0
M  V30 4190 H 382.351 0.571324 -4.1327 0
M  V30 4191 H 380.981 0.992025 -3.07179 0
M  V30 4192 H 380.033 -1.38135 -3.54433 0
M  V30 4193 H 381.345 -1.60512 -4.72268 0
M  V30 4194 H 380.499 0.335784 -6.0577 0
M  V30 4195 H 379.238 0.653373 -4.83304 0
M  V30 4196 H 378.243 -1.6123 -5.25628 0
M  V30 4197 H 379.468 -1.91993 -6.51395 0
M  V30 4198 H 377.414 0.323763 -6.55201 0
M  V30 4199 H 377.331 -1.1419 -7.47326 0
M  V30 4200 H 378.599 0.00291697 -7.795 0
M  V30 4201 N 382.828 1.3818 -0.7579 0
M  V30 4202 C 384.105 1.94106 -0.241306 0
M  V30 4203 C 384.485 1.69282 1.26122 0
M  V30 4204 O 383.833 1.03378 2.03777 0
M  V30 4205 C 384.043 3.43809 -0.59967 0
M  V30 4206 C 385.391 4.20868 -0.561717 0
M  V30 4207 O 386.415 3.5211 -0.538222 0
M  V30 4208 O 385.274 5.43451 -0.576478 0
M  V30 4209 H 382.368 0.825376 -0.0518042 0
M  V30 4210 H 384.914 1.47548 -0.838315 0
M  V30 4211 H 383.686 3.55403 -1.6372 0
M  V30 4212 H 383.309 3.97592 0.0251197 0
M  V30 4213 N 384.306 0.507319 1.49211 0
M  V30 4214 C 385.236 -0.256939 2.32082 0
M  V30 4215 C 386.217 -0.956609 1.40652 0
M  V30 4216 O 387.402 -0.946788 1.69557 0
M  V30 4217 C 384.532 -1.31802 3.21318 0
M  V30 4218 C 383.486 -0.737855 4.21592 0
M  V30 4219 C 382.812 -1.89992 4.99807 0
M  V30 4220 C 384.112 0.275325 5.21574 0
M  V30 4221 H 385.806 0.434798 2.96226 0
M  V30 4222 H 383.352 0.210546 1.42452 0
M  V30 4223 H 385.305 -1.86045 3.78107 0
M  V30 4224 H 384.029 -2.03903 2.5513 0
M  V30 4225 H 382.688 -0.217126 3.65956 0
M  V30 4226 H 382.336 -2.60877 4.30061 0
M  V30 4227 H 382.036 -1.51777 5.6766 0
M  V30 4228 H 383.56 -2.44657 5.59442 0
M  V30 4229 H 384.974 -0.179193 5.7302 0
M  V30 4230 H 383.371 0.573649 5.97352 0
M  V30 4231 H 384.441 1.18903 4.70096 0
M  V30 4232 N 385.784 -1.5574 0.241426 0
M  V30 4233 C 386.694 -2.2479 -0.671305 0
M  V30 4234 C 387.71 -1.26217 -1.19772 0
M  V30 4235 O 388.886 -1.59079 -1.23514 0
M  V30 4236 C 385.951 -2.92966 -1.85396 0
M  V30 4237 C 385.012 -4.06935 -1.36756 0
M  V30 4238 C 384.245 -4.71851 -2.49384 0
M  V30 4239 O 384.468 -4.35823 -3.67987 0
M  V30 4240 O 383.402 -5.60467 -2.19454 0
M  V30 4241 H 387.228 -3.0349 -0.112966 0
M  V30 4242 H 384.813 -1.49397 0.0101513 0
M  V30 4243 H 386.695 -3.35927 -2.54423 0
M  V30 4244 H 385.37 -2.17211 -2.40002 0
M  V30 4245 H 384.277 -3.68503 -0.644726 0
M  V30 4246 H 385.61 -4.84492 -0.867647 0
M  V30 4247 N 387.262 0.0317525 -1.57568 0
M  V30 4248 C 388.511 0.722131 -1.8833 0
M  V30 4249 C 388.824 1.76664 -0.839587 0
M  V30 4250 O 390.03 2.50942 -1.03635 0
M  V30 4251 C 388.486 1.33544 -3.34207 0
M  V30 4252 C 388.094 0.327415 -4.46802 0
M  V30 4253 C 389.838 2.00585 -3.7412 0
M  V30 4254 C 387.745 0.948915 -5.83738 0
M  V30 4255 H 386.675 0.273466 -0.702661 0
M  V30 4256 H 389.326 -0.0235811 -1.83485 0
M  V30 4257 H 387.708 2.13077 -3.33788 0
M  V30 4258 H 388.882 -0.441006 -4.58685 0
M  V30 4259 H 387.197 -0.240758 -4.15703 0
M  V30 4260 H 389.794 2.47932 -4.73744 0
M  V30 4261 H 390.137 2.82285 -3.05975 0
M  V30 4262 H 390.67 1.27831 -3.76702 0
M  V30 4263 H 387.409 0.171387 -6.55276 0
M  V30 4264 H 386.929 1.68724 -5.7558 0
M  V30 4265 H 388.608 1.45705 -6.3038 0
M  V30 4266 N 388.74 1.54641 0.303973 0
M  V30 4267 C 389.986 1.74038 1.04109 0
M  V30 4268 C 390.319 0.523051 1.87024 0
M  V30 4269 O 389.594 -0.479874 1.88487 0
M  V30 4270 C 389.877 3.02761 1.94955 0
M  V30 4271 C 389.73 4.34787 1.1524 0
M  V30 4272 C 391.049 3.27336 2.94175 0
M  V30 4273 H 388.168 0.63323 0.377079 0
M  V30 4274 H 390.81 1.87354 0.316001 0
M  V30 4275 H 388.96 2.9154 2.56782 0
M  V30 4276 H 390.632 4.57922 0.557236 0
M  V30 4277 H 388.875 4.31407 0.455053 0
M  V30 4278 H 389.546 5.21116 1.8205 0
M  V30 4279 H 392.022 3.38148 2.42477 0
M  V30 4280 H 390.898 4.18726 3.54908 0
M  V30 4281 H 391.159 2.45491 3.67677 0
M  V30 4282 N 390.218 -0.567019 1.47046 0
M  V30 4283 C 391.148 -1.68482 1.61667 0
M  V30 4284 C 392.129 -1.6358 0.466418 0
M  V30 4285 O 393.314 -1.81354 0.694574 0
M  V30 4286 C 390.444 -3.07124 1.62148 0
M  V30 4287 C 389.398 -3.26867 2.76301 0
M  V30 4288 C 388.724 -4.66196 2.61849 0
M  V30 4289 C 390.024 -3.13186 4.17986 0
M  V30 4290 H 391.718 -1.56502 2.5524 0
M  V30 4291 H 389.264 -0.751486 1.22836 0
M  V30 4292 H 391.217 -3.8516 1.70968 0
M  V30 4293 H 389.941 -3.2004 0.651287 0
M  V30 4294 H 388.6 -2.51237 2.66975 0
M  V30 4295 H 388.248 -4.75898 1.62879 0
M  V30 4296 H 387.948 -4.80356 3.38425 0
M  V30 4297 H 389.472 -5.46379 2.72584 0
M  V30 4298 H 390.886 -3.81049 4.2834 0
M  V30 4299 H 389.283 -3.3886 4.95272 0
M  V30 4300 H 390.353 -2.10057 4.3704 0
M  V30 4301 N 391.696 -1.35014 -0.812953 0
M  V30 4302 C 392.936 -1.29289 -1.58315 0
M  V30 4303 C 393.3 0.132727 -1.91541 0
M  V30 4304 O 394.501 0.314269 -2.66957 0
M  V30 4305 C 392.772 -2.1681 -2.84127 0
M  V30 4306 S 394.331 -2.28538 -3.74588 0
M  V30 4307 H 391.149 -0.459569 -0.542511 0
M  V30 4308 H 393.751 -1.70336 -0.959467 0
M  V30 4309 H 392.455 -3.19379 -2.57731 0
M  V30 4310 H 391.986 -1.76697 -3.51485 0
M  V30 4311 H 394.001 -1.4655 -4.74065 0
M  V30 4312 N 393.175 1.03435 -1.18907 0
M  V30 4313 C 394.4 1.80919 -1.01406 0
M  V30 4314 C 394.825 1.83055 0.432721 0
M  V30 4315 O 394.183 1.25252 1.31079 0
M  V30 4316 C 394.231 3.24091 -1.58105 0
M  V30 4317 O 393.335 4.04434 -0.806669 0
M  V30 4318 H 392.676 0.558709 -0.358803 0
M  V30 4319 H 395.206 1.30223 -1.57807 0
M  V30 4320 H 395.216 3.74853 -1.61087 0
M  V30 4321 H 393.891 3.21851 -2.6341 0
M  V30 4322 H 392.468 3.63091 -0.849666 0
M  V30 4323 N 394.653 0.992116 1.22453 0
M  V30 4324 C 395.563 0.55065 2.28046 0
M  V30 4325 C 396.579 -0.400189 1.69335 0
M  V30 4326 O 397.755 -0.267215 1.99619 0
M  V30 4327 C 394.82 -0.128496 3.46462 0
M  V30 4328 C 393.881 0.865208 4.20491 0
M  V30 4329 C 393.114 0.218377 5.33253 0
M  V30 4330 O 393.337 -0.987894 5.6178 0
M  V30 4331 O 392.271 0.922845 5.94783 0
M  V30 4332 H 396.097 1.4291 2.67975 0
M  V30 4333 H 393.682 0.760326 1.28606 0
M  V30 4334 H 395.564 -0.508947 4.18315 0
M  V30 4335 H 394.239 -0.981526 3.0846 0
M  V30 4336 H 393.146 1.29658 3.50913 0
M  V30 4337 H 394.479 1.68741 4.62371 0
M  V30 4338 N 396.131 -1.37776 0.765217 0
M  V30 4339 C 397.542 -1.82521 0.392819 0
M  V30 4340 C 397.893 -1.63789 -1.08017 0
M  V30 4341 O 397.018 -1.14542 -1.83601 0
M  V30 4342 C 397.613 -3.31358 0.706214 0
M  V30 4343 C 396.172 -3.74406 0.386952 0
M  V30 4344 C 395.319 -2.60394 0.953422 0
M  V30 4345 H 398.27 -1.2634 0.960412 0
M  V30 4346 H 398.291 -3.80498 -0.0114706 0
M  V30 4347 H 397.803 -3.44959 1.77833 0
M  V30 4348 H 395.904 -3.66377 -0.678112 0
M  V30 4349 H 396.017 -4.70749 0.890636 0
M  V30 4350 H 394.381 -2.51878 0.378064 0
M  V30 4351 H 395.164 -2.76791 2.03081 0
M  V30 4352 N 397.609 -0.515225 -1.4894 0
M  V30 4353 C 399.02 -0.0710067 -1.86565 0
M  V30 4354 C 399.371 1.34733 -1.42623 0
M  V30 4355 O 398.496 2.00653 -0.810379 0
M  V30 4356 C 399.091 -0.122083 -3.3858 0
M  V30 4357 C 397.65 0.266863 -3.75453 0
M  V30 4358 C 396.797 -0.488376 -2.72966 0
M  V30 4359 H 399.748 -0.727266 -1.41055 0
M  V30 4360 H 399.769 0.669818 -3.74558 0
M  V30 4361 H 399.281 -1.15448 -3.70531 0
M  V30 4362 H 397.382 1.30196 -3.49113 0
M  V30 4363 H 397.495 -0.0624811 -4.79059 0
M  V30 4364 H 395.859 0.0635622 -2.54621 0
M  V30 4365 H 396.642 -1.52113 -3.07761 0
M  V30 4366 N 399.087 1.5561 -0.249682 0
M  V30 4367 C 400.02 2.17537 0.689408 0
M  V30 4368 C 400.998 1.12829 1.17083 0
M  V30 4369 O 402.182 1.41229 1.24846 0
M  V30 4370 C 399.309 2.77828 1.93725 0
M  V30 4371 C 398.355 3.95615 1.59346 0
M  V30 4372 S 399.188 5.30988 0.69367 0
M  V30 4373 C 400.344 5.94734 1.95046 0
M  V30 4374 H 400.577 2.96852 0.163142 0
M  V30 4375 H 398.11 1.54362 -0.0341166 0
M  V30 4376 H 400.068 3.13199 2.65361 0
M  V30 4377 H 398.729 1.98454 2.43465 0
M  V30 4378 H 397.922 4.364 2.52132 0
M  V30 4379 H 397.524 3.61535 0.957512 0
M  V30 4380 H 399.816 6.12419 2.89739 0
M  V30 4381 H 400.759 6.90109 1.58604 0
M  V30 4382 H 401.167 5.23832 2.10381 0
M  V30 4383 O 400.604 0.114399 1.61094 0
M  V30 4384 H 401.295 -0.485048 1.87529 0
M  V30 END ATOM
M  V30 BEGIN BOND
M  V30 END BOND
M  V30 END CTAB
M  END
$$$$
