drugbank_target|P22792 Carboxypeptidase N subunit 2 (DB01593; DB12271; DB14487; DB14533; DB14548)
 OpenBabel12092120333D

  0  0  0     0  0            999 V3000
M  V30 BEGIN CTAB
M  V30 COUNTS 8534 8636 0 0 0
M  V30 BEGIN ATOM
M  V30 1 H -0.908 1.98254 -0.117106 0
M  V30 2 N 0 1.576 0 0
M  V30 3 C 0.933 2.03868 1.02534 0
M  V30 4 C 1.911 0.928543 1.3348 0
M  V30 5 O 3.095 1.19667 1.45644 0
M  V30 6 C 0.222 2.43627 2.35294 0
M  V30 7 C -0.732 3.65373 2.2001 0
M  V30 8 S 0.101 5.13292 1.52614 0
M  V30 9 C 1.257 5.56322 2.86805 0
M  V30 10 H 1.49 2.90518 0.631377 0
M  V30 11 H -0.977 1.52953 0.210867 0
M  V30 12 H 0.981 2.67203 3.11629 0
M  V30 13 H -0.358 1.57376 2.7183 0
M  V30 14 H -1.165 3.90944 3.18086 0
M  V30 15 H -1.563 3.418 1.51819 0
M  V30 16 H 0.729 5.58782 3.83104 0
M  V30 17 H 1.672 6.56266 2.65933 0
M  V30 18 H 2.08 4.83886 2.90714 0
M  V30 19 N 1.4781 -0.272755 1.55222 0
M  V30 20 C 2.4081 -1.34136 1.91127 0
M  V30 21 C 3.3891 -1.51513 0.773168 0
M  V30 22 O 4.5741 -1.64552 1.03132 0
M  V30 23 C 1.7041 -2.70083 2.1834 0
M  V30 24 C 0.6581 -2.67437 3.34158 0
M  V30 25 C -0.0159 -4.06938 3.46851 0
M  V30 26 C 1.2841 -2.26686 4.70543 0
M  V30 27 H 2.9781 -1.04333 2.80633 0
M  V30 28 H 0.5241 -0.500454 1.35024 0
M  V30 29 H 2.4771 -3.44952 2.42046 0
M  V30 30 H 1.2011 -3.01469 1.25634 0
M  V30 31 H -0.1399 -1.95026 3.1042 0
M  V30 32 H -0.4919 -4.35547 2.51611 0
M  V30 33 H -0.7919 -4.06062 4.2472 0
M  V30 34 H 0.7321 -4.83545 3.72849 0
M  V30 35 H 2.1461 -2.91277 4.93792 0
M  V30 36 H 0.5431 -2.36971 5.5133 0
M  V30 37 H 1.6131 -1.21818 4.69349 0
M  V30 38 N 2.9562 -1.48159 -0.537278 0
M  V30 39 C 4.3672 -1.49429 -1.11928 0
M  V30 40 C 4.7182 -0.26 -1.9447 0
M  V30 41 O 3.8432 0.633489 -2.0692 0
M  V30 42 C 4.4382 -2.70758 -2.03656 0
M  V30 43 C 2.9972 -2.74923 -2.57088 0
M  V30 44 C 2.1442 -2.42835 -1.3389 0
M  V30 45 H 5.0952 -1.55381 -0.322886 0
M  V30 46 H 5.1162 -2.48861 -2.87834 0
M  V30 47 H 4.6282 -3.60575 -1.43553 0
M  V30 48 H 2.7292 -1.89296 -3.20933 0
M  V30 49 H 2.8422 -3.76157 -2.9672 0
M  V30 50 H 1.2062 -1.93836 -1.65226 0
M  V30 51 H 1.9892 -3.34884 -0.755504 0
M  V30 52 N 4.4343 0.785586 -1.36625 0
M  V30 53 C 5.6823 1.54057 -1.30808 0
M  V30 54 C 6.0033 1.94683 0.111157 0
M  V30 55 O 5.2733 1.65241 1.05224 0
M  V30 56 H 3.8533 0.571354 -0.481211 0
M  V30 57 H 6.5153 0.935821 -1.70963 0
M  V30 58 H 5.6113 2.44637 -1.93801 0
M  V30 59 N 5.9124 1.20967 1.01018 0
M  V30 60 C 6.8754 0.965918 2.07853 0
M  V30 61 C 7.8754 -0.0610545 1.60684 0
M  V30 62 O 9.0654 0.175681 1.73312 0
M  V30 63 C 6.1974 0.455513 3.37843 0
M  V30 64 H 7.3904 1.91365 2.3091 0
M  V30 65 H 4.9434 1.02594 1.17916 0
M  V30 66 H 5.6784 -0.497381 3.20463 0
M  V30 67 H 5.4634 1.19622 3.73407 0
M  V30 68 H 6.9534 0.304667 4.16487 0
M  V30 69 N 7.3905 -1.2043 1.01659 0
M  V30 70 C 8.6365 -1.90356 0.716674 0
M  V30 71 C 8.9915 -1.77367 -0.745557 0
M  V30 72 O 8.2845 -1.1471 -1.53467 0
M  V30 73 C 8.4785 -3.40464 1.08714 0
M  V30 74 C 8.3075 -3.6806 2.58384 0
M  V30 75 C 7.0775 -3.86775 3.25167 0
M  V30 76 C 9.2755 -3.70623 3.56572 0
M  V30 77 N 7.2575 -4.01889 4.64067 0
M  V30 78 C 8.6285 -3.91161 4.81034 0
M  V30 79 C 10.6835 -3.53586 3.50544 0
M  V30 80 C 9.3865 -3.96428 6.00198 0
M  V30 81 C 11.4125 -3.60125 4.6911 0
M  V30 82 C 10.7745 -3.81135 5.92381 0
M  V30 83 H 6.8735 -0.716226 0.313918 0
M  V30 84 H 9.4575 -1.44815 1.30141 0
M  V30 85 H 7.6285 -3.84757 0.530745 0
M  V30 86 H 9.3605 -3.97863 0.740763 0
M  V30 87 H 6.1155 -3.85156 2.75594 0
M  V30 88 H 6.5395 -4.13323 5.36184 0
M  V30 89 H 11.1815 -3.36308 2.56235 0
M  V30 90 H 8.8995 -4.12502 6.94887 0
M  V30 91 H 12.4855 -3.4825 4.66062 0
M  V30 92 H 11.3655 -3.86054 6.82592 0
M  V30 93 N 8.8686 -0.792821 -1.36206 0
M  V30 94 C 9.7986 -0.207853 -2.32573 0
M  V30 95 C 10.7796 0.659055 -1.56813 0
M  V30 96 O 11.9646 0.592176 -1.84951 0
M  V30 97 C 9.0946 0.655449 -3.41059 0
M  V30 98 C 8.0486 -0.111842 -4.27854 0
M  V30 99 C 7.3746 0.872274 -5.27537 0
M  V30 100 C 8.6746 -1.30299 -5.05786 0
M  V30 101 H 10.3686 -1.01294 -2.81744 0
M  V30 102 H 7.9146 -0.48854 -1.3546 0
M  V30 103 H 9.8676 1.07464 -4.07467 0
M  V30 104 H 8.5916 1.49328 -2.90463 0
M  V30 105 H 7.2506 -0.512053 -3.63006 0
M  V30 106 H 6.8986 1.70523 -4.73214 0
M  V30 107 H 6.5986 0.363291 -5.86476 0
M  V30 108 H 8.1226 1.28996 -5.96818 0
M  V30 109 H 9.5366 -0.959379 -5.65216 0
M  V30 110 H 7.9336 -1.7455 -5.74154 0
M  V30 111 H 9.0036 -2.09663 -4.37229 0
M  V30 112 N 10.3467 1.47872 -0.545128 0
M  V30 113 C 11.2767 2.32661 0.197793 0
M  V30 114 C 12.2577 1.43041 0.920504 0
M  V30 115 O 13.4427 1.71912 0.90333 0
M  V30 116 C 10.5727 3.24569 1.23582 0
M  V30 117 C 9.5267 4.23333 0.630323 0
M  V30 118 C 8.8527 5.0448 1.77211 0
M  V30 119 C 10.1527 5.20704 -0.407974 0
M  V30 120 H 11.8467 2.95024 -0.510045 0
M  V30 121 H 9.3927 1.4187 -0.246731 0
M  V30 122 H 11.3457 3.8272 1.76362 0
M  V30 123 H 10.0697 2.60236 1.97344 0
M  V30 124 H 8.7287 3.6639 0.123922 0
M  V30 125 H 8.3767 4.36561 2.49847 0
M  V30 126 H 8.0767 5.71339 1.37281 0
M  V30 127 H 9.6007 5.65487 2.3034 0
M  V30 128 H 11.0147 5.7329 0.033305 0
M  V30 129 H 9.4117 5.95699 -0.725486 0
M  V30 130 H 10.4817 4.66917 -1.30828 0
M  V30 131 N 11.8248 0.280983 1.55075 0
M  V30 132 C 13.0708 -0.327573 2.00745 0
M  V30 133 C 13.4258 -1.53045 1.16598 0
M  V30 134 O 12.7188 -1.90221 0.229451 0
M  V30 135 C 12.9128 -0.754656 3.49342 0
M  V30 136 C 12.7418 0.40529 4.4787 0
M  V30 137 C 11.5118 0.890947 4.97383 0
M  V30 138 C 13.7098 1.24371 4.99035 0
M  V30 139 N 11.6918 2.01975 5.79724 0
M  V30 140 C 13.0628 2.22031 5.7888 0
M  V30 141 C 15.1178 1.27638 4.81262 0
M  V30 142 C 13.8208 3.22709 6.42846 0
M  V30 143 C 15.8468 2.27164 5.46031 0
M  V30 144 C 15.2088 3.23556 6.25692 0
M  V30 145 H 11.3078 -0.0848774 0.77738 0
M  V30 146 H 13.8918 0.406342 1.90413 0
M  V30 147 H 12.0628 -1.45778 3.60005 0
M  V30 148 H 13.7948 -1.34105 3.81835 0
M  V30 149 H 10.5498 0.469262 4.71269 0
M  V30 150 H 10.9738 2.58794 6.25584 0
M  V30 151 H 15.6158 0.544936 4.19274 0
M  V30 152 H 13.3338 3.96784 7.0398 0
M  V30 153 H 16.9198 2.30441 5.34217 0
M  V30 154 H 15.7998 3.99309 6.74924 0
M  V30 155 N 13.3029 -1.57598 0.00835791 0
M  V30 156 C 14.5309 -1.95214 -0.68549 0
M  V30 157 C 14.9459 -0.883706 -1.66841 0
M  V30 158 O 14.3029 0.136565 -1.81988 0
M  V30 159 C 14.3539 -3.32865 -1.41007 0
M  V30 160 O 14.0749 -4.35609 -0.466552 0
M  V30 161 C 15.5759 -3.84991 -2.19765 0
M  V30 162 H 12.7959 -0.643422 -0.190392 0
M  V30 163 H 15.3399 -2.04406 0.0619607 0
M  V30 164 H 13.4949 -3.24956 -2.10908 0
M  V30 165 H 13.9089 -5.15288 -0.978699 0
M  V30 166 H 15.3829 -4.8371 -2.65948 0
M  V30 167 H 15.8599 -3.18137 -3.02796 0
M  V30 168 H 16.4659 -3.96103 -1.54864 0
M  V30 169 N 14.781 0.264519 -1.55364 0
M  V30 170 C 16.006 1.01726 -1.80739 0
M  V30 171 C 16.431 1.78836 -0.583044 0
M  V30 172 O 15.789 1.75167 0.467566 0
M  V30 173 C 15.837 1.94482 -3.03659 0
M  V30 174 O 14.941 3.03386 -2.7934 0
M  V30 175 H 14.282 0.290395 -0.597132 0
M  V30 176 H 16.812 0.290854 -2.02522 0
M  V30 177 H 16.822 2.36278 -3.32621 0
M  V30 178 H 15.497 1.37772 -3.92418 0
M  V30 179 H 14.074 2.65844 -2.61498 0
M  V30 180 N 16.2591 1.48442 0.529413 0
M  V30 181 C 17.1891 1.65902 1.64313 0
M  V30 182 C 18.1701 0.507897 1.6234 0
M  V30 183 O 19.3551 0.740503 1.79528 0
M  V30 184 C 16.4851 1.69911 3.02898 0
M  V30 185 C 15.4391 2.8453 3.19729 0
M  V30 186 C 14.7651 2.73629 4.59381 0
M  V30 187 C 16.0651 4.25821 3.02447 0
M  V30 188 H 17.7591 2.5914 1.49955 0
M  V30 189 H 15.3051 1.24709 0.719982 0
M  V30 190 H 17.2581 1.80715 3.80684 0
M  V30 191 H 15.9821 0.732524 3.18279 0
M  V30 192 H 14.6411 2.73283 2.44361 0
M  V30 193 H 14.2891 1.74938 4.71599 0
M  V30 194 H 13.9891 3.50541 4.71588 0
M  V30 195 H 15.5131 2.86401 5.39265 0
M  V30 196 H 16.9271 4.37898 3.70024 0
M  V30 197 H 15.3241 5.03735 3.26146 0
M  V30 198 H 16.3941 4.42244 1.98867 0
M  V30 199 N 17.7372 -0.778329 1.37039 0
M  V30 200 C 18.6672 -1.90546 1.34962 0
M  V30 201 C 19.6482 -1.68681 0.219274 0
M  V30 202 O 20.8332 -1.89634 0.418624 0
M  V30 203 C 17.9632 -3.27734 1.14925 0
M  V30 204 C 16.9172 -3.64147 2.24902 0
M  V30 205 C 16.2432 -4.99806 1.89996 0
M  V30 206 C 17.5432 -3.71579 3.67051 0
M  V30 207 H 19.2372 -1.92541 2.29277 0
M  V30 208 H 16.7832 -0.924948 1.10366 0
M  V30 209 H 18.7362 -4.06215 1.12104 0
M  V30 210 H 17.4602 -3.26154 0.170631 0
M  V30 211 H 16.1192 -2.8797 2.26868 0
M  V30 212 H 15.7672 -4.94759 0.906796 0
M  V30 213 H 15.4672 -5.25139 2.63634 0
M  V30 214 H 16.9912 -5.80694 1.88749 0
M  V30 215 H 18.4052 -4.40227 3.67251 0
M  V30 216 H 16.8022 -4.08405 4.39688 0
M  V30 217 H 17.8722 -2.72404 4.01154 0
M  V30 218 N 19.2153 -1.21501 -1.00376 0
M  V30 219 C 20.1453 -0.999478 -2.11028 0
M  V30 220 C 21.1263 0.0759671 -1.6993 0
M  V30 221 O 22.3113 -0.0841106 -1.94018 0
M  V30 222 C 19.4413 -0.564709 -3.42678 0
M  V30 223 C 18.3953 -1.58486 -3.97576 0
M  V30 224 C 17.7213 -1.00628 -5.25146 0
M  V30 225 C 19.0213 -2.97204 -4.29496 0
M  V30 226 H 20.7153 -1.92495 -2.29317 0
M  V30 227 H 18.2613 -0.92693 -1.102 0
M  V30 228 H 20.2143 -0.401091 -4.19487 0
M  V30 229 H 18.9383 0.396411 -3.24185 0
M  V30 230 H 17.5973 -1.73606 -3.22888 0
M  V30 231 H 17.2453 -0.0368439 -5.02987 0
M  V30 232 H 16.9453 -1.68771 -5.62841 0
M  V30 233 H 18.4693 -0.854015 -6.04598 0
M  V30 234 H 19.8833 -2.8552 -4.97143 0
M  V30 235 H 18.2803 -3.62372 -4.78338 0
M  V30 236 H 19.3503 -3.47956 -3.3772 0
M  V30 237 N 20.6934 1.19889 -1.02296 0
M  V30 238 C 21.6234 2.25141 -0.619174 0
M  V30 239 C 22.6044 1.66051 0.368915 0
M  V30 240 O 23.7894 1.92546 0.252941 0
M  V30 241 C 20.9194 3.4728 0.0368783 0
M  V30 242 C 19.8734 4.19005 -0.872865 0
M  V30 243 C 19.1994 5.34637 -0.0822402 0
M  V30 244 C 20.4994 4.74452 -2.18387 0
M  V30 245 H 22.1934 2.59171 -1.49903 0
M  V30 246 H 19.7394 1.24579 -0.722222 0
M  V30 247 H 21.6924 4.20098 0.330958 0
M  V30 248 H 20.4164 3.12433 0.95149 0
M  V30 249 H 19.0754 3.48061 -1.15105 0
M  V30 250 H 18.7234 4.96034 0.83422 0
M  V30 251 H 18.4234 5.83557 -0.688149 0
M  V30 252 H 19.9474 6.10255 0.205238 0
M  V30 253 H 21.3614 5.39055 -1.95172 0
M  V30 254 H 19.7584 5.33834 -2.74119 0
M  V30 255 H 20.8284 3.92844 -2.84257 0
M  V30 256 N 22.1715 0.800033 1.35784 0
M  V30 257 C 23.1345 0.211565 2.28221 0
M  V30 258 C 24.1345 -0.59728 1.49296 0
M  V30 259 O 25.3245 -0.416721 1.69142 0
M  V30 260 C 22.4565 -0.705846 3.33513 0
M  V30 261 H 23.6495 1.02677 2.81776 0
M  V30 262 H 21.2025 0.570211 1.45528 0
M  V30 263 H 21.9375 -1.54498 2.85133 0
M  V30 264 H 21.7225 -0.127655 3.91892 0
M  V30 265 H 23.2125 -1.11211 4.02519 0
M  V30 266 N 23.6496 -1.47581 0.552962 0
M  V30 267 C 25.0656 -1.5818 0.212424 0
M  V30 268 C 25.2656 -1.55213 -1.28496 0
M  V30 269 O 24.3216 -1.45329 -2.06484 0
M  V30 270 C 25.6346 -2.88865 0.835318 0
M  V30 271 C 27.1826 -3.0244 0.806156 0
M  V30 272 C 27.6576 -4.35819 1.40804 0
M  V30 273 N 29.1486 -4.42444 1.37103 0
M  V30 274 C 29.8836 -5.44202 1.80641 0
M  V30 275 N 29.3796 -6.52795 2.32015 0
M  V30 276 N 31.1726 -5.35222 1.71738 0
M  V30 277 H 23.3236 -1.47753 1.52587 0
M  V30 278 H 25.5866 -0.702941 0.636064 0
M  V30 279 H 25.2926 -2.9676 1.88749 0
M  V30 280 H 25.1666 -3.7579 0.325848 0
M  V30 281 H 27.5536 -2.94144 -0.237317 0
M  V30 282 H 27.6346 -2.17068 1.35334 0
M  V30 283 H 27.2786 -4.44871 2.45056 0
M  V30 284 H 27.2086 -5.19916 0.836338 0
M  V30 285 H 29.6996 -3.6456 0.995202 0
M  V30 286 H 30.0126 -7.26609 2.63171 0
M  V30 287 H 28.3576 -6.53696 2.36023 0
M  V30 288 H 31.5486 -4.49284 1.31382 0
M  V30 289 H 31.7216 -6.14389 2.05987 0
M  V30 290 N 25.1277 -0.289203 -1.54924 0
M  V30 291 C 26.5387 0.205791 -1.85562 0
M  V30 292 C 26.8897 1.54351 -1.2112 0
M  V30 293 O 26.0147 2.10435 -0.504601 0
M  V30 294 C 26.6097 0.380177 -3.3666 0
M  V30 295 C 25.1687 0.819395 -3.67373 0
M  V30 296 C 24.3157 -0.079159 -2.77187 0
M  V30 297 H 27.2667 -0.510577 -1.50262 0
M  V30 298 H 27.2877 1.21659 -3.60526 0
M  V30 299 H 26.7997 -0.593589 -3.83534 0
M  V30 300 H 24.9007 1.80413 -3.26009 0
M  V30 301 H 25.0137 0.646957 -4.74712 0
M  V30 302 H 23.3777 0.439565 -2.50878 0
M  V30 303 H 24.1607 -1.04906 -3.26878 0
M  V30 304 N 26.6058 1.57591 -0.0167156 0
M  V30 305 C 27.5688 2.08393 0.954204 0
M  V30 306 C 28.5688 0.996531 1.26198 0
M  V30 307 O 29.7588 1.25858 1.20438 0
M  V30 308 C 26.8908 2.5394 2.27436 0
M  V30 309 H 28.0838 2.95455 0.514451 0
M  V30 310 H 25.6368 1.54582 0.231089 0
M  V30 311 H 26.3718 1.70171 2.76066 0
M  V30 312 H 26.1568 3.33371 2.06412 0
M  V30 313 H 27.6468 2.93512 2.97053 0
M  V30 314 N 28.0839 -0.256276 1.55502 0
M  V30 315 C 29.0159 -1.33981 1.85962 0
M  V30 316 C 30.0289 -1.44743 0.745212 0
M  V30 317 O 31.2179 -1.4626 1.02324 0
M  V30 318 C 28.3179 -2.7194 2.02242 0
M  V30 319 C 27.4909 -2.83562 3.33033 0
M  V30 320 C 26.5499 -4.02304 3.39172 0
M  V30 321 O 25.5759 -3.92273 4.12444 0
M  V30 322 N 26.7779 -5.15045 2.67784 0
M  V30 323 H 29.5429 -1.08191 2.7949 0
M  V30 324 H 27.1039 -0.446388 1.55624 0
M  V30 325 H 29.0959 -3.49697 2.03701 0
M  V30 326 H 27.6659 -2.90479 1.15502 0
M  V30 327 H 26.8859 -1.92555 3.43971 0
M  V30 328 H 28.1739 -2.88271 4.19258 0
M  V30 329 H 27.5719 -5.26085 2.07968 0
M  V30 330 H 26.1289 -5.90972 2.74947 0
M  V30 331 N 29.562 -1.4872 -0.521534 0
M  V30 332 C 30.973 -1.50607 -1.10337 0
M  V30 333 C 31.324 -0.280612 -1.94183 0
M  V30 334 O 30.449 0.611507 -2.0758 0
M  V30 335 C 31.044 -2.72903 -2.00772 0
M  V30 336 C 29.603 -2.77634 -2.54158 0
M  V30 337 C 28.75 -2.44241 -1.31307 0
M  V30 338 H 31.701 -1.55714 -0.306388 0
M  V30 339 H 31.722 -2.519 -2.85178 0
M  V30 340 H 31.234 -3.62077 -1.39721 0
M  V30 341 H 29.335 -1.92689 -3.18907 0
M  V30 342 H 29.448 -3.79283 -2.92714 0
M  V30 343 H 27.812 -1.95577 -1.63161 0
M  V30 344 H 28.595 -3.35666 -0.719943 0
M  V30 345 N 31.0401 0.771051 -1.3745 0
M  V30 346 C 32.2801 1.54264 -1.34096 0
M  V30 347 C 32.6441 1.91858 0.0737639 0
M  V30 348 O 33.8451 2.67797 0.23203 0
M  V30 349 C 32.1161 2.77326 -2.25445 0
M  V30 350 S 33.6751 3.67383 -2.39948 0
M  V30 351 H 30.4931 0.528122 -0.476034 0
M  V30 352 H 33.0951 0.906633 -1.73206 0
M  V30 353 H 31.7991 2.47788 -3.27153 0
M  V30 354 H 31.3301 3.45886 -1.87421 0
M  V30 355 H 33.3451 4.69334 -1.61059 0
M  V30 356 N 32.5182 1.22032 0.997298 0
M  V30 357 C 33.9292 1.0397 1.55071 0
M  V30 358 C 34.2802 -0.398192 1.92117 0
M  V30 359 O 33.4052 -1.28254 1.74298 0
M  V30 360 C 34.0002 1.88109 2.81781 0
M  V30 361 C 32.5592 1.74357 3.33581 0
M  V30 362 C 31.7062 1.84846 2.06706 0
M  V30 363 H 34.6572 1.35941 0.818883 0
M  V30 364 H 34.6782 1.39589 3.53971 0
M  V30 365 H 34.1902 2.92754 2.54787 0
M  V30 366 H 32.2912 0.72427 3.65493 0
M  V30 367 H 32.4042 2.56772 4.04481 0
M  V30 368 H 30.7682 1.28238 2.20062 0
M  V30 369 H 31.5512 2.91014 1.82114 0
M  V30 370 N 33.9963 -1.19345 1.0293 0
M  V30 371 C 34.9293 -2.21347 0.555029 0
M  V30 372 C 35.9073 -1.57492 -0.404351 0
M  V30 373 O 37.0913 -1.85741 -0.321352 0
M  V30 374 C 34.2183 -3.38163 -0.19064 0
M  V30 375 C 33.2643 -4.20375 0.720236 0
M  V30 376 S 34.0973 -4.88371 2.19668 0
M  V30 377 C 35.2533 -6.08597 1.46153 0
M  V30 378 H 35.4863 -2.61235 1.41929 0
M  V30 379 H 33.0193 -1.29598 0.839272 0
M  V30 380 H 34.9773 -4.05871 -0.614724 0
M  V30 381 H 33.6383 -2.9671 -1.03063 0
M  V30 382 H 32.8313 -5.03793 0.14455 0
M  V30 383 H 32.4333 -3.57987 1.08266 0
M  V30 384 H 34.7253 -6.73354 0.748357 0
M  V30 385 H 35.6683 -6.7065 2.27233 0
M  V30 386 H 36.0763 -5.56297 0.958842 0
M  V30 387 N 35.4744 -0.807222 -1.35358 0
M  V30 388 C 36.7224 -0.387122 -1.98358 0
M  V30 389 C 37.0434 1.04942 -1.64354 0
M  V30 390 O 36.3134 1.72615 -0.926339 0
M  V30 391 H 34.8934 -0.140154 -0.733734 0
M  V30 392 H 37.5554 -1.0332 -1.6526 0
M  V30 393 H 36.6514 -0.493352 -3.08176 0
M  V30 394 N 36.9525 1.47285 -0.560781 0
M  V30 395 C 38.1925 2.0436 -0.0404627 0
M  V30 396 C 38.5565 1.42534 1.28639 0
M  V30 397 O 39.7575 1.90677 1.89462 0
M  V30 398 C 38.0285 3.57369 0.0471856 0
M  V30 399 S 39.5875 4.3579 0.513109 0
M  V30 400 H 36.4055 0.710492 -0.0268674 0
M  V30 401 H 39.0075 1.80611 -0.748323 0
M  V30 402 H 37.7115 3.9989 -0.922817 0
M  V30 403 H 37.2425 3.8562 0.778491 0
M  V30 404 H 39.2575 4.63476 1.77212 0
M  V30 405 N 38.4306 0.297415 1.54768 0
M  V30 406 C 39.7076 -0.365847 1.92148 0
M  V30 407 C 40.0876 -1.71975 1.22424 0
M  V30 408 O 39.4356 -2.25666 0.358739 0
M  V30 409 C 39.6456 -0.484056 3.45627 0
M  V30 410 C 40.9936 -0.756594 4.17805 0
M  V30 411 O 42.0176 -0.568007 3.51642 0
M  V30 412 O 40.8766 -1.11863 5.34929 0
M  V30 413 H 37.9706 -0.203919 0.801465 0
M  V30 414 H 40.5166 0.34521 1.66152 0
M  V30 415 H 39.2886 0.467865 3.88493 0
M  V30 416 H 38.9116 -1.24372 3.77647 0
M  V30 417 N 39.9087 -1.5758 0.0250728 0
M  V30 418 C 41.1487 -1.93497 -0.65865 0
M  V30 419 C 41.5127 -0.901409 -1.69525 0
M  V30 420 O 42.7137 -1.14664 -2.43116 0
M  V30 421 C 40.9847 -3.34352 -1.26267 0
M  V30 422 S 42.5437 -3.92191 -1.96803 0
M  V30 423 H 39.3617 -0.67709 -0.216958 0
M  V30 424 H 41.9637 -1.95303 0.0877692 0
M  V30 425 H 40.6677 -4.07395 -0.495741 0
M  V30 426 H 40.1987 -3.3598 -2.04648 0
M  V30 427 H 42.2137 -3.75298 -3.24601 0
M  V30 428 N 41.3868 0.248026 -1.55636 0
M  V30 429 C 42.6338 0.976224 -1.77415 0
M  V30 430 C 42.9618 1.85361 -0.589193 0
M  V30 431 O 42.2168 1.90973 0.427529 0
M  V30 432 C 42.5158 1.86819 -3.04686 0
M  V30 433 C 42.1818 1.14625 -4.36087 0
M  V30 434 C 40.8438 0.946723 -4.71795 0
M  V30 435 C 43.1958 0.634463 -5.17324 0
M  V30 436 C 40.5238 0.223091 -5.86276 0
M  V30 437 C 42.8758 -0.0756959 -6.32555 0
M  V30 438 C 41.5398 -0.286711 -6.66884 0
M  V30 439 H 40.8098 0.357226 -0.649208 0
M  V30 440 H 43.4568 0.246415 -1.89908 0
M  V30 441 H 41.7618 2.66502 -2.872 0
M  V30 442 H 43.4588 2.43329 -3.18735 0
M  V30 443 H 40.0488 1.3117 -4.08035 0
M  V30 444 H 44.2328 0.77616 -4.90193 0
M  V30 445 H 39.4888 0.0491185 -6.1138 0
M  V30 446 H 43.6628 -0.479899 -6.94745 0
M  V30 447 H 41.2898 -0.849389 -7.5544 0
M  V30 448 N 42.8649 1.48995 0.513639 0
M  V30 449 C 44.1109 1.58076 1.27042 0
M  V30 450 C 44.4439 0.261026 1.92438 0
M  V30 451 O 43.7189 -0.734393 1.80103 0
M  V30 452 C 44.0019 2.73091 2.34719 0
M  V30 453 C 43.8549 4.14821 1.73907 0
M  V30 454 C 45.1739 2.83796 3.36375 0
M  V30 455 H 42.2929 0.575391 0.460536 0
M  V30 456 H 44.9349 1.81232 0.570516 0
M  V30 457 H 43.0849 2.53479 2.94416 0
M  V30 458 H 44.7569 4.45917 1.18135 0
M  V30 459 H 42.9999 4.21058 1.0437 0
M  V30 460 H 43.6709 4.91147 2.51949 0
M  V30 461 H 46.1469 3.01611 2.86653 0
M  V30 462 H 45.0229 3.65971 4.09093 0
M  V30 463 H 45.2839 1.92624 3.9793 0
M  V30 464 N 44.343 -0.763751 1.37857 0
M  V30 465 C 45.275 -1.88664 1.30148 0
M  V30 466 C 46.288 -1.61365 0.215685 0
M  V30 467 O 47.477 -1.72134 0.472459 0
M  V30 468 C 44.577 -3.24075 0.991396 0
M  V30 469 C 43.75 -3.78958 2.18426 0
M  V30 470 C 42.809 -4.92862 1.8432 0
M  V30 471 O 41.835 -5.08027 2.56704 0
M  V30 472 N 43.037 -5.75071 0.792081 0
M  V30 473 H 45.802 -1.95791 2.26905 0
M  V30 474 H 43.363 -0.943226 1.31586 0
M  V30 475 H 45.355 -3.97804 0.743935 0
M  V30 476 H 43.925 -3.12399 0.112122 0
M  V30 477 H 43.145 -2.96913 2.59299 0
M  V30 478 H 44.433 -4.12357 2.98058 0
M  V30 479 H 43.831 -5.65375 0.191595 0
M  V30 480 H 42.388 -6.48991 0.60449 0
M  V30 481 N 45.8211 -1.22559 -0.990812 0
M  V30 482 C 46.7311 -1.01394 -2.11557 0
M  V30 483 C 47.7471 0.0383962 -1.73958 0
M  V30 484 O 48.9231 -0.154787 -2.00804 0
M  V30 485 C 45.9881 -0.596569 -3.41529 0
M  V30 486 C 45.0491 -1.72276 -3.93217 0
M  V30 487 C 44.2821 -1.32521 -5.16985 0
M  V30 488 O 44.5051 -0.204909 -5.70032 0
M  V30 489 O 43.4391 -2.14247 -5.62478 0
M  V30 490 H 47.2651 -1.95633 -2.32296 0
M  V30 491 H 44.8501 -1.01172 -1.0993 0
M  V30 492 H 46.7321 -0.374263 -4.19735 0
M  V30 493 H 45.4071 0.316939 -3.22145 0
M  V30 494 H 44.3141 -1.99961 -3.16174 0
M  V30 495 H 45.6471 -2.61421 -4.17037 0
M  V30 496 N 47.2992 1.18797 -1.03562 0
M  V30 497 C 48.5452 1.8893 -0.737113 0
M  V30 498 C 48.8782 1.79837 0.732956 0
M  V30 499 O 48.1532 1.19525 1.5344 0
M  V30 500 C 48.4362 3.39607 -1.19745 0
M  V30 501 C 48.2892 3.57537 -2.72924 0
M  V30 502 C 49.6082 4.33069 -0.783526 0
M  V30 503 H 46.7272 0.686057 -0.269249 0
M  V30 504 H 49.3692 1.39797 -1.28673 0
M  V30 505 H 47.5192 3.81583 -0.729855 0
M  V30 506 H 49.1912 3.24688 -3.27682 0
M  V30 507 H 47.4342 3.00363 -3.12993 0
M  V30 508 H 48.1052 4.63238 -3.00191 0
M  V30 509 H 50.5812 3.98846 -1.18581 0
M  V30 510 H 49.4572 5.3707 -1.13343 0
M  V30 511 H 49.7182 4.40986 0.313681 0
M  V30 512 N 48.7773 0.814389 1.34928 0
M  V30 513 C 50.0243 0.398423 1.98542 0
M  V30 514 C 50.3523 -1.03638 1.64589 0
M  V30 515 O 49.6073 -1.73509 0.90516 0
M  V30 516 C 49.9063 0.537781 3.53331 0
M  V30 517 C 49.5723 1.93704 4.07172 0
M  V30 518 C 48.2343 2.31984 4.21589 0
M  V30 519 C 50.5863 2.85213 4.36237 0
M  V30 520 C 47.9143 3.61125 4.62391 0
M  V30 521 C 50.2663 4.13809 4.78482 0
M  V30 522 C 48.9303 4.52077 4.91104 0
M  V30 523 H 48.2003 0.145793 0.726516 0
M  V30 524 H 50.8473 1.03669 1.61012 0
M  V30 525 H 49.1523 -0.183906 3.91368 0
M  V30 526 H 50.8493 0.196588 4.00518 0
M  V30 527 H 47.4393 1.62966 3.96409 0
M  V30 528 H 51.6233 2.56885 4.24645 0
M  V30 529 H 46.8793 3.90612 4.70353 0
M  V30 530 H 51.0533 4.84811 4.99932 0
M  V30 531 H 48.6803 5.52196 5.22478 0
M  V30 532 N 50.2554 -1.46986 0.568584 0
M  V30 533 C 51.4954 -2.04336 0.0512999 0
M  V30 534 C 51.8594 -1.43214 -1.27881 0
M  V30 535 O 53.0604 -1.91679 -1.88448 0
M  V30 536 C 51.3314 -3.57389 -0.0282328 0
M  V30 537 S 52.8904 -4.36056 -0.489991 0
M  V30 538 H 49.7084 -0.71034 0.0306349 0
M  V30 539 H 52.3104 -1.80212 0.757891 0
M  V30 540 H 51.0144 -3.99395 0.944011 0
M  V30 541 H 50.5454 -3.86028 -0.75803 0
M  V30 542 H 52.5604 -4.6441 -1.74752 0
M  V30 543 N 51.7335 -0.305618 -1.54608 0
M  V30 544 C 52.9585 0.307562 -2.05107 0
M  V30 545 C 53.3835 1.46385 -1.18123 0
M  V30 546 O 52.7415 1.8034 -0.186324 0
M  V30 547 C 52.7895 0.73704 -3.52987 0
M  V30 548 O 51.8935 1.84134 -3.6901 0
M  V30 549 H 51.2345 0.0589143 -0.661381 0
M  V30 550 H 53.7645 -0.448807 -1.99617 0
M  V30 551 H 53.7745 1.02459 -3.94925 0
M  V30 552 H 52.4495 -0.108773 -4.15758 0
M  V30 553 H 51.0265 1.55398 -3.38978 0
M  V30 554 N 53.2116 1.57565 -0.0334293 0
M  V30 555 C 54.4886 1.83282 0.683163 0
M  V30 556 C 54.8686 0.91823 1.90084 0
M  V30 557 O 54.2166 -0.025113 2.28486 0
M  V30 558 C 54.4266 3.32599 1.0573 0
M  V30 559 C 55.7746 3.99179 1.44711 0
M  V30 560 O 56.7986 3.3712 1.15015 0
M  V30 561 O 55.6576 5.08565 2.0006 0
M  V30 562 H 52.7516 0.755869 0.335546 0
M  V30 563 H 55.2976 1.69589 -0.0614402 0
M  V30 564 H 54.0696 3.90834 0.190828 0
M  V30 565 H 53.6926 3.51415 1.85993 0
M  V30 566 N 54.6897 -0.239769 1.55765 0
M  V30 567 C 55.5997 -1.31831 1.94056 0
M  V30 568 C 56.6157 -1.52275 0.841925 0
M  V30 569 O 57.7917 -1.65759 1.14394 0
M  V30 570 C 54.8567 -2.65156 2.23368 0
M  V30 571 C 53.9177 -2.53173 3.46701 0
M  V30 572 C 53.1507 -3.8014 3.74606 0
M  V30 573 O 53.3737 -4.82343 3.04469 0
M  V30 574 O 52.3077 -3.78344 4.68123 0
M  V30 575 H 56.1337 -1.02347 2.85935 0
M  V30 576 H 53.7187 -0.441123 1.42739 0
M  V30 577 H 55.6007 -3.43929 2.43497 0
M  V30 578 H 54.2757 -2.94358 1.34666 0
M  V30 579 H 53.1827 -1.72662 3.31871 0
M  V30 580 H 54.5157 -2.28915 4.35728 0
M  V30 581 N 56.1678 -1.49265 -0.50573 0
M  V30 582 C 57.0778 -1.68312 -1.63427 0
M  V30 583 C 58.0938 -0.565682 -1.64548 0
M  V30 584 O 59.2698 -0.839801 -1.83055 0
M  V30 585 C 56.3348 -1.74107 -2.99813 0
M  V30 586 C 55.3958 -2.97653 -3.09356 0
M  V30 587 C 54.6288 -3.03163 -4.39236 0
M  V30 588 O 54.8518 -2.16396 -5.27758 0
M  V30 589 O 53.7858 -3.9558 -4.53652 0
M  V30 590 H 57.6118 -2.63907 -1.50289 0
M  V30 591 H 55.1968 -1.32951 -0.681502 0
M  V30 592 H 57.0788 -1.803 -3.80881 0
M  V30 593 H 55.7538 -0.816901 -3.13223 0
M  V30 594 H 54.6608 -2.96981 -2.27493 0
M  V30 595 H 55.9938 -3.89535 -3.00871 0
M  V30 596 N 57.6459 0.756429 -1.3826 0
M  V30 597 C 58.5759 1.88374 -1.37976 0
M  V30 598 C 59.5569 1.68311 -0.246082 0
M  V30 599 O 60.7419 1.88944 -0.44874 0
M  V30 600 C 57.8719 3.25864 -1.20125 0
M  V30 601 C 56.8259 3.60523 -2.30666 0
M  V30 602 C 56.1519 4.9672 -1.97923 0
M  V30 603 C 57.4519 3.65692 -3.72916 0
M  V30 604 H 59.1459 1.88869 -2.32312 0
M  V30 605 H 56.6919 0.907272 -1.11824 0
M  V30 606 H 58.6449 4.0438 -1.18552 0
M  V30 607 H 57.3689 3.25841 -0.222498 0
M  V30 608 H 56.0279 2.84324 -2.3142 0
M  V30 609 H 55.6759 4.93253 -0.985393 0
M  V30 610 H 55.3759 5.20878 -2.71955 0
M  V30 611 H 56.8999 5.77618 -1.97964 0
M  V30 612 H 58.3139 4.34328 -3.74208 0
M  V30 613 H 56.7109 4.01358 -4.4613 0
M  V30 614 H 57.7809 2.65987 -4.05436 0
M  V30 615 N 59.124 1.23083 0.984299 0
M  V30 616 C 60.087 1.00979 2.05757 0
M  V30 617 C 61.087 -0.0269573 1.60777 0
M  V30 618 O 62.277 0.212403 1.729 0
M  V30 619 C 59.409 0.527072 3.36801 0
M  V30 620 H 60.602 1.9622 2.26799 0
M  V30 621 H 58.155 1.05072 1.15714 0
M  V30 622 H 58.89 -0.429294 3.21446 0
M  V30 623 H 58.675 1.27515 3.70786 0
M  V30 624 H 60.165 0.392942 4.15747 0
M  V30 625 N 60.6021 -1.18246 1.0419 0
M  V30 626 C 61.8301 -1.92195 0.766072 0
M  V30 627 C 62.2451 -1.76247 -0.676933 0
M  V30 628 O 61.6021 -1.09293 -1.46155 0
M  V30 629 C 61.6531 -3.43568 1.12442 0
M  V30 630 O 61.3741 -3.59015 2.51078 0
M  V30 631 C 62.8751 -4.34613 0.873275 0
M  V30 632 H 60.0951 -0.610114 0.279288 0
M  V30 633 H 62.6391 -1.50007 1.38989 0
M  V30 634 H 60.7941 -3.8354 0.545542 0
M  V30 635 H 61.2081 -4.5273 2.64831 0
M  V30 636 H 62.6821 -5.39374 1.17385 0
M  V30 637 H 63.1591 -4.38781 -0.191909 0
M  V30 638 H 63.7651 -4.00341 1.43551 0
M  V30 639 N 62.0802 -0.821533 -1.34494 0
M  V30 640 C 63.3262 -0.409552 -1.98622 0
M  V30 641 C 63.6592 1.0244 -1.64984 0
M  V30 642 O 62.9342 1.71325 -0.920758 0
M  V30 643 C 63.2172 -0.610458 -3.54888 0
M  V30 644 C 63.0702 -2.09043 -3.98273 0
M  V30 645 C 64.3892 -0.0455379 -4.40076 0
M  V30 646 H 61.5082 -0.15028 -0.721516 0
M  V30 647 H 64.1502 -1.03384 -1.59411 0
M  V30 648 H 62.3002 -0.079044 -3.8842 0
M  V30 649 H 63.9722 -2.68537 -3.75081 0
M  V30 650 H 62.2152 -2.58139 -3.48635 0
M  V30 651 H 62.8862 -2.18182 -5.07051 0
M  V30 652 H 65.3622 -0.499557 -4.1309 0
M  V30 653 H 64.2382 -0.215922 -5.48475 0
M  V30 654 H 64.4992 1.04939 -4.29465 0
M  V30 655 N 63.5583 1.46682 -0.576371 0
M  V30 656 C 64.9693 1.86112 -0.148091 0
M  V30 657 C 65.3203 1.48073 1.2872 0
M  V30 658 O 64.4453 0.892656 1.97131 0
M  V30 659 C 65.0403 3.37786 -0.261982 0
M  V30 660 C 63.5993 3.76235 0.111384 0
M  V30 661 C 62.7463 2.70713 -0.60083 0
M  V30 662 H 65.6973 1.37927 -0.78497 0
M  V30 663 H 65.7183 3.77007 0.514364 0
M  V30 664 H 65.2303 3.6544 -1.30671 0
M  V30 665 H 63.3313 3.54198 1.15649 0
M  V30 666 H 63.4443 4.78391 -0.26052 0
M  V30 667 H 61.8083 2.54666 -0.0417783 0
M  V30 668 H 62.5913 3.01208 -1.64708 0
M  V30 669 N 65.0364 0.313813 1.54444 0
M  V30 670 C 65.9664 -0.549454 2.26943 0
M  V30 671 C 66.9474 -1.12741 1.27372 0
M  V30 672 O 68.1324 -1.15436 1.56167 0
M  V30 673 C 65.2624 -1.71523 3.01989 0
M  V30 674 C 64.2164 -1.26703 4.08816 0
M  V30 675 C 63.5424 -2.51898 4.71647 0
M  V30 676 C 64.8424 -0.388962 5.2085 0
M  V30 677 H 66.5364 0.0552661 2.99349 0
M  V30 678 H 64.0824 0.0280207 1.43973 0
M  V30 679 H 66.0354 -2.32535 3.51433 0
M  V30 680 H 64.7594 -2.34639 2.27183 0
M  V30 681 H 63.4184 -0.679896 3.6024 0
M  V30 682 H 63.0664 -3.13356 3.93468 0
M  V30 683 H 62.7664 -2.22605 5.43802 0
M  V30 684 H 64.2904 -3.1369 5.23861 0
M  V30 685 H 65.7044 -0.905107 5.6611 0
M  V30 686 H 64.1014 -0.18924 5.99802 0
M  V30 687 H 65.1714 0.582699 4.81386 0
M  V30 688 N 66.5145 -1.57545 0.0417849 0
M  V30 689 C 67.7915 -1.83642 -0.673433 0
M  V30 690 C 68.1715 -0.928298 -1.89594 0
M  V30 691 O 67.5195 0.0129955 -2.28496 0
M  V30 692 C 67.7295 -3.33155 -1.03964 0
M  V30 693 C 69.0775 -3.99941 -1.42592 0
M  V30 694 O 70.1015 -3.37725 -1.13226 0
M  V30 695 O 68.9605 -5.09619 -1.9736 0
M  V30 696 H 66.0545 -0.757638 -0.331533 0
M  V30 697 H 68.6005 -1.69554 0.070433 0
M  V30 698 H 67.3725 -3.9093 -0.170098 0
M  V30 699 H 66.9955 -3.52396 -1.84126 0
M  V30 700 N 67.9926 0.231505 -1.5589 0
M  V30 701 C 69.2416 0.955346 -1.7764 0
M  V30 702 C 69.5546 1.85893 -0.608546 0
M  V30 703 O 70.7606 2.62067 -0.70943 0
M  V30 704 C 69.2166 1.74886 -3.14552 0
M  V30 705 C 68.8246 0.891915 -4.39032 0
M  V30 706 C 70.5686 2.46452 -3.45633 0
M  V30 707 C 68.4756 1.68221 -5.66971 0
M  V30 708 H 67.4056 0.360446 -0.662265 0
M  V30 709 H 70.0566 0.209516 -1.823 0
M  V30 710 H 68.4386 2.53723 -3.04041 0
M  V30 711 H 69.6126 0.144793 -4.60572 0
M  V30 712 H 67.9276 0.288863 -4.15397 0
M  V30 713 H 70.5246 3.06061 -4.38441 0
M  V30 714 H 70.8676 3.18841 -2.67668 0
M  V30 715 H 71.4006 1.74613 -3.57428 0
M  V30 716 H 68.1396 1.00178 -6.478 0
M  V30 717 H 67.6596 2.4042 -5.49507 0
M  V30 718 H 69.3386 2.24544 -6.06786 0
M  V30 719 N 69.4707 1.49531 0.497807 0
M  V30 720 C 70.8817 1.52344 1.07927 0
M  V30 721 C 71.2327 0.311469 1.93712 0
M  V30 722 O 70.3577 -0.578405 2.08527 0
M  V30 723 C 70.9527 2.76062 1.96405 0
M  V30 724 C 69.5117 2.81643 2.49709 0
M  V30 725 C 68.6587 2.46299 1.27404 0
M  V30 726 H 71.6097 1.56182 0.281576 0
M  V30 727 H 71.6307 2.56405 2.81135 0
M  V30 728 H 71.1427 3.64254 1.33943 0
M  V30 729 H 69.2437 1.97739 3.15801 0
M  V30 730 H 69.3567 3.83891 2.86643 0
M  V30 731 H 67.7207 1.98148 1.60029 0
M  V30 732 H 68.5037 3.36769 0.66645 0
M  V30 733 N 70.9488 -0.749086 1.3866 0
M  V30 734 C 72.3598 -1.32664 1.31366 0
M  V30 735 C 72.7108 -1.96179 -0.028484 0
M  V30 736 O 71.8358 -1.9537 -0.93057 0
M  V30 737 C 72.4308 -2.41219 2.37905 0
M  V30 738 C 70.9898 -2.94684 2.34176 0
M  V30 739 C 70.1368 -1.68108 2.20533 0
M  V30 740 H 73.0878 -0.547628 1.48952 0
M  V30 741 H 73.1088 -3.21268 2.0388 0
M  V30 742 H 72.6208 -1.94962 3.35576 0
M  V30 743 H 70.7218 -3.45258 1.401 0
M  V30 744 H 70.8348 -3.48757 3.2849 0
M  V30 745 H 69.1988 -1.91907 1.67463 0
M  V30 746 H 69.9818 -1.23923 3.20153 0
M  V30 747 N 72.4269 -1.23603 -0.977757 0
M  V30 748 C 73.6569 -1.09487 -1.75203 0
M  V30 749 C 74.0649 0.356321 -1.85814 0
M  V30 750 O 73.4079 1.25816 -1.33851 0
M  V30 751 C 73.4699 -1.64905 -3.19447 0
M  V30 752 C 73.1339 -3.13688 -3.32338 0
M  V30 753 C 74.1309 -4.10953 -3.18455 0
M  V30 754 C 71.8159 -3.53449 -3.56902 0
M  V30 755 C 73.8099 -5.45962 -3.28944 0
M  V30 756 C 71.4969 -4.88602 -3.6703 0
M  V30 757 C 72.4949 -5.84668 -3.53062 0
M  V30 758 O 72.1829 -7.17365 -3.62826 0
M  V30 759 H 71.9149 -0.38367 -0.556573 0
M  V30 760 H 74.4689 -1.6398 -1.23693 0
M  V30 761 H 72.6989 -1.04835 -3.72218 0
M  V30 762 H 74.3879 -1.46226 -3.78646 0
M  V30 763 H 75.1539 -3.81577 -2.99372 0
M  V30 764 H 71.0329 -2.79188 -3.66844 0
M  V30 765 H 74.5769 -6.20925 -3.17958 0
M  V30 766 H 70.4739 -5.17653 -3.85623 0
M  V30 767 H 71.2419 -7.2515 -3.79605 0
M  V30 768 N 73.905 1.17692 -1.04816 0
M  V30 769 C 75.133 1.91786 -0.776254 0
M  V30 770 C 75.548 1.76604 0.667577 0
M  V30 771 O 74.905 1.10067 1.45573 0
M  V30 772 C 74.956 3.42967 -1.14263 0
M  V30 773 O 74.677 3.57678 -2.52978 0
M  V30 774 C 76.178 4.34144 -0.896311 0
M  V30 775 H 73.398 0.608624 -0.282519 0
M  V30 776 H 75.942 1.49268 -1.39783 0
M  V30 777 H 74.097 3.83245 -0.565874 0
M  V30 778 H 74.511 4.51319 -2.67229 0
M  V30 779 H 75.985 5.38744 -1.20244 0
M  V30 780 H 76.462 4.38876 0.168636 0
M  V30 781 H 77.068 3.99574 -1.45672 0
M  V30 782 N 75.3831 0.828654 1.34056 0
M  V30 783 C 76.3301 0.252567 2.29414 0
M  V30 784 C 77.3001 -0.62588 1.53857 0
M  V30 785 O 78.4851 -0.566312 1.82202 0
M  V30 786 C 75.6251 -0.574831 3.40279 0
M  V30 787 C 74.7381 0.326499 4.30764 0
M  V30 788 C 73.8731 -0.511016 5.28736 0
M  V30 789 C 72.9121 0.389342 6.1086 0
M  V30 790 N 72.0491 -0.409439 7.00905 0
M  V30 791 H 76.8891 1.07108 2.78086 0
M  V30 792 H 74.4261 0.539677 1.36843 0
M  V30 793 H 76.3841 -1.06992 4.03248 0
M  V30 794 H 75.0141 -1.35841 2.92826 0
M  V30 795 H 74.0661 0.939837 3.68607 0
M  V30 796 H 75.3781 1.01857 4.88289 0
M  V30 797 H 74.5321 -1.07035 5.97184 0
M  V30 798 H 73.2711 -1.23657 4.71763 0
M  V30 799 H 72.2761 0.960769 5.4134 0
M  V30 800 H 73.5011 1.1131 6.69916 0
M  V30 801 H 71.4471 -1.11856 6.46393 0
M  V30 802 H 71.3641 0.224126 7.55668 0
M  V30 803 H 72.6321 -0.951336 7.73673 0
M  V30 804 N 76.8612 -1.46375 0.584142 0
M  V30 805 C 77.8092 -2.32042 -0.161047 0
M  V30 806 C 78.8032 -1.44569 -0.882966 0
M  V30 807 O 80.0092 -1.61186 -0.801191 0
M  V30 808 H 76.3842 -0.748659 -0.0708033 0
M  V30 809 H 78.3552 -2.92704 0.580269 0
M  V30 810 C 77.1042 -3.27762 -1.1605 0
M  V30 811 H 76.4272 -3.95051 -0.614419 0
M  V30 812 H 77.8672 -3.90481 -1.65228 0
M  V30 813 C 76.3262 -2.53218 -2.22221 0
M  V30 814 O 76.8562 -2.29628 -3.29597 0
M  V30 815 N 75.0622 -2.13756 -1.96868 0
M  V30 816 H 74.6092 -2.33142 -1.09557 0
M  V30 817 H 74.5672 -1.642 -2.68115 0
M  V30 818 N 78.3393 -0.321999 -1.54275 0
M  V30 819 C 79.5883 0.281931 -1.9972 0
M  V30 820 C 79.9013 1.53369 -1.21397 0
M  V30 821 O 81.1073 2.21352 -1.57211 0
M  V30 822 C 79.5633 0.5529 -3.55628 0
M  V30 823 C 79.1713 -0.681721 -4.42783 0
M  V30 824 C 80.9153 1.11687 -4.09544 0
M  V30 825 C 78.8223 -0.382742 -5.9016 0
M  V30 826 H 77.7523 0.109124 -0.746062 0
M  V30 827 H 80.4033 -0.43398 -1.78294 0
M  V30 828 H 78.7853 1.32896 -3.73035 0
M  V30 829 H 79.9593 -1.45723 -4.37151 0
M  V30 830 H 78.2743 -1.1658 -3.99748 0
M  V30 831 H 80.8713 1.35515 -5.17242 0
M  V30 832 H 81.2143 2.06575 -3.61431 0
M  V30 833 H 81.7473 0.402032 -3.95763 0
M  V30 834 H 78.4863 -1.30076 -6.42464 0
M  V30 835 H 78.0063 0.355094 -5.98748 0
M  V30 836 H 79.6853 0.00800157 -6.47 0
M  V30 837 N 79.8174 1.5752 -0.0501392 0
M  V30 838 C 81.0664 1.91827 0.623328 0
M  V30 839 C 81.3794 0.930222 1.72065 0
M  V30 840 O 82.5854 1.1653 2.4522 0
M  V30 841 C 81.0414 3.40692 1.16003 0
M  V30 842 C 80.6494 4.479 0.0948811 0
M  V30 843 C 82.3934 3.84034 1.80881 0
M  V30 844 C 80.3004 5.87879 0.644411 0
M  V30 845 H 79.2304 0.715918 0.236596 0
M  V30 846 H 81.8814 1.83115 -0.118861 0
M  V30 847 H 80.2634 3.44405 1.9545 0
M  V30 848 H 81.4374 4.55775 -0.678675 0
M  V30 849 H 79.7524 4.13892 -0.45637 0
M  V30 850 H 82.3494 4.85984 2.22988 0
M  V30 851 H 82.6924 3.20225 2.6601 0
M  V30 852 H 83.2254 3.82833 1.0809 0
M  V30 853 H 79.9644 6.55282 -0.169229 0
M  V30 854 H 79.4844 5.83567 1.38598 0
M  V30 855 H 81.1634 6.37098 1.12763 0
M  V30 856 N 81.2955 -0.223234 1.56011 0
M  V30 857 C 82.5425 -0.947875 1.78946 0
M  V30 858 C 82.8705 -1.844 0.618608 0
M  V30 859 O 82.1255 -1.91629 -0.397093 0
M  V30 860 C 82.4245 -1.81948 3.0762 0
M  V30 861 C 82.0905 -1.07672 4.37856 0
M  V30 862 C 80.7525 -0.871544 4.73242 0
M  V30 863 C 83.1045 -0.552081 5.18268 0
M  V30 864 C 80.4325 -0.129791 5.86556 0
M  V30 865 C 82.7845 0.17632 6.32354 0
M  V30 866 C 81.4485 0.39277 6.66343 0
M  V30 867 H 80.7185 -0.346852 0.654809 0
M  V30 868 H 83.3655 -0.216171 1.90276 0
M  V30 869 H 81.6705 -2.61899 2.91404 0
M  V30 870 H 83.3675 -2.38227 3.22566 0
M  V30 871 H 79.9575 -1.24662 4.1007 0
M  V30 872 H 84.1415 -0.698076 4.91366 0
M  V30 873 H 79.3975 0.048153 6.11381 0
M  V30 874 H 83.5715 0.590367 6.93893 0
M  V30 875 H 81.1985 0.969466 7.53993 0
M  V30 876 N 82.7736 -1.49793 -0.48987 0
M  V30 877 C 84.0196 -1.60078 -1.24511 0
M  V30 878 C 84.3526 -0.291608 -1.91998 0
M  V30 879 O 83.6276 0.705647 -1.81248 0
M  V30 880 C 83.9106 -2.76791 -2.30345 0
M  V30 881 C 83.7636 -4.17535 -1.67286 0
M  V30 882 C 85.0826 -2.89111 -3.31817 0
M  V30 883 H 82.2016 -0.582645 -0.451324 0
M  V30 884 H 84.8436 -1.82117 -0.541612 0
M  V30 885 H 82.9936 -2.5813 -2.90346 0
M  V30 886 H 84.6656 -4.4774 -1.11026 0
M  V30 887 H 82.9086 -4.22665 -0.976577 0
M  V30 888 H 83.5796 -4.95094 -2.44103 0
M  V30 889 H 86.0556 -3.06133 -2.81819 0
M  V30 890 H 84.9316 -3.72433 -4.03219 0
M  V30 891 H 85.1926 -1.9893 -3.94815 0
M  V30 892 N 84.2517 0.741722 -1.39055 0
M  V30 893 C 85.1617 1.88621 -1.39496 0
M  V30 894 C 86.1777 1.71557 -0.290578 0
M  V30 895 O 87.3537 1.94275 -0.530954 0
M  V30 896 C 84.4187 3.24134 -1.23037 0
M  V30 897 C 83.4797 3.5364 -2.43387 0
M  V30 898 C 82.7127 4.82687 -2.27703 0
M  V30 899 O 82.9357 5.55922 -1.27696 0
M  V30 900 O 81.8697 5.1194 -3.16545 0
M  V30 901 H 85.6957 1.91203 -2.35956 0
M  V30 902 H 83.2807 0.888625 -1.20099 0
M  V30 903 H 85.1627 4.0513 -1.15964 0
M  V30 904 H 83.8377 3.22337 -0.296691 0
M  V30 905 H 82.7447 2.72758 -2.56035 0
M  V30 906 H 84.0777 3.60209 -3.35425 0
M  V30 907 N 85.7298 1.2412 0.971189 0
M  V30 908 C 86.9578 1.10575 1.74874 0
M  V30 909 C 87.3728 -0.342017 1.85676 0
M  V30 910 O 86.7298 -1.23617 1.34258 0
M  V30 911 C 86.7808 1.73579 3.171 0
M  V30 912 O 86.5018 3.12695 3.06844 0
M  V30 913 C 88.0028 1.65598 4.11208 0
M  V30 914 H 85.2228 0.386504 0.548503 0
M  V30 915 H 87.7668 1.64156 1.21955 0
M  V30 916 H 85.9218 1.24009 3.67016 0
M  V30 917 H 86.3358 3.43412 3.96445 0
M  V30 918 H 87.8098 2.1437 5.08674 0
M  V30 919 H 88.2868 0.616532 4.34851 0
M  V30 920 H 88.8928 2.14578 3.67201 0
M  V30 921 N 87.2079 -1.17134 1.05439 0
M  V30 922 C 88.4329 -1.91913 0.786396 0
M  V30 923 C 88.8579 -1.7643 -0.652234 0
M  V30 924 O 88.2159 -1.08372 -1.45345 0
M  V30 925 C 88.2639 -3.40921 1.17497 0
M  V30 926 O 87.3679 -4.11244 0.308589 0
M  V30 927 H 86.7089 -0.598215 0.288158 0
M  V30 928 H 89.2389 -1.48457 1.4079 0
M  V30 929 H 89.2489 -3.91668 1.14281 0
M  V30 930 H 87.9239 -3.5151 2.22292 0
M  V30 931 H 86.5009 -3.70731 0.40157 0
M  V30 932 N 88.686 -0.835752 -1.33615 0
M  V30 933 C 89.933 -0.429959 -1.97883 0
M  V30 934 C 90.261 1.01006 -1.66217 0
M  V30 935 O 89.516 1.72047 -0.93265 0
M  V30 936 C 89.815 -0.593925 -3.52431 0
M  V30 937 C 89.481 -2.00158 -4.04039 0
M  V30 938 C 88.143 -2.38662 -4.17844 0
M  V30 939 C 90.495 -2.92117 -4.31644 0
M  V30 940 C 87.823 -3.68435 -4.56588 0
M  V30 941 C 90.175 -4.21368 -4.71838 0
M  V30 942 C 88.839 -4.59833 -4.83849 0
M  V30 943 H 88.109 -0.157333 -0.724104 0
M  V30 944 H 90.756 -1.06217 -1.59343 0
M  V30 945 H 89.061 0.121619 -3.91611 0
M  V30 946 H 90.758 -0.260282 -4.00154 0
M  V30 947 H 87.348 -1.69252 -3.93766 0
M  V30 948 H 91.532 -2.63608 -4.20505 0
M  V30 949 H 86.788 -3.98046 -4.64079 0
M  V30 950 H 90.962 -4.92703 -4.92155 0
M  V30 951 H 88.589 -5.60438 -5.13627 0
M  V30 952 N 90.1641 1.46063 -0.591896 0
M  V30 953 C 91.3921 2.06717 -0.0868936 0
M  V30 954 C 91.8071 1.43916 1.22203 0
M  V30 955 O 91.1641 0.547698 1.74088 0
M  V30 956 C 91.2151 3.6142 0.0758725 0
M  V30 957 O 90.9361 4.21874 -1.18126 0
M  V30 958 C 92.4371 4.39025 0.61416 0
M  V30 959 H 89.6571 0.668162 -0.0616518 0
M  V30 960 H 92.2011 1.8755 -0.815175 0
M  V30 961 H 90.3561 3.79983 0.754413 0
M  V30 962 H 90.7701 5.14861 -1.00092 0
M  V30 963 H 92.2441 5.4783 0.677193 0
M  V30 964 H 92.7211 4.07708 1.63312 0
M  V30 965 H 93.3271 4.2529 -0.0298142 0
M  V30 966 N 91.6422 0.330177 1.54103 0
M  V30 967 C 92.8702 -0.272179 2.05102 0
M  V30 968 C 93.2852 -1.45267 1.20595 0
M  V30 969 O 92.6422 -1.8094 0.238144 0
M  V30 970 C 92.6932 -0.70023 3.54653 0
M  V30 971 O 92.4142 0.433301 4.35952 0
M  V30 972 C 93.9152 -1.3647 4.21771 0
M  V30 973 H 91.1352 -0.0549159 0.668749 0
M  V30 974 H 93.6792 0.478285 1.98828 0
M  V30 975 H 91.8342 -1.40066 3.61193 0
M  V30 976 H 92.2482 0.0947539 5.24414 0
M  V30 977 H 93.7222 -1.61509 5.27843 0
M  V30 978 H 94.1992 -2.31409 3.73292 0
M  V30 979 H 94.8052 -0.706675 4.19388 0
M  V30 980 N 93.1203 -1.57491 0.0584922 0
M  V30 981 C 94.0503 -2.14988 -0.911178 0
M  V30 982 C 95.0313 -1.07343 -1.31952 0
M  V30 983 O 96.2163 -1.35318 -1.39294 0
M  V30 984 C 93.3463 -2.70078 -2.18347 0
M  V30 985 C 92.3003 -3.82771 -1.91495 0
M  V30 986 C 91.6263 -4.24408 -3.25241 0
M  V30 987 C 92.9263 -5.07592 -1.23075 0
M  V30 988 H 94.6203 -2.96263 -0.432246 0
M  V30 989 H 92.1663 -1.42512 -0.206469 0
M  V30 990 H 94.1193 -3.08943 -2.86587 0
M  V30 991 H 92.8433 -1.86005 -2.68458 0
M  V30 992 H 91.5023 -3.44389 -1.25664 0
M  V30 993 H 91.1503 -3.37275 -3.73168 0
M  V30 994 H 90.8503 -5.00366 -3.08071 0
M  V30 995 H 92.3743 -4.65879 -3.94701 0
M  V30 996 H 93.7883 -5.43857 -1.81362 0
M  V30 997 H 92.1853 -5.88741 -1.16207 0
M  V30 998 H 93.2553 -4.84454 -0.207847 0
M  V30 999 N 94.5984 0.214957 -1.56127 0
M  V30 1000 C 95.5084 1.28727 -1.96129 0
M  V30 1001 C 96.5244 1.50916 -0.866044 0
M  V30 1002 O 97.7004 1.63918 -1.17016 0
M  V30 1003 C 94.7654 2.61569 -2.27558 0
M  V30 1004 C 93.8264 2.47625 -3.50685 0
M  V30 1005 C 93.0594 3.74132 -3.80606 0
M  V30 1006 O 93.2824 4.77438 -3.12104 0
M  V30 1007 O 92.2164 3.70849 -4.74083 0
M  V30 1008 H 96.0424 0.977855 -2.87527 0
M  V30 1009 H 93.6274 0.418358 -1.43423 0
M  V30 1010 H 95.5094 3.40012 -2.48938 0
M  V30 1011 H 94.1844 2.92178 -1.39332 0
M  V30 1012 H 93.0914 1.67361 -3.34576 0
M  V30 1013 H 94.4244 2.21954 -4.39315 0
M  V30 1014 N 96.0765 1.50051 0.48192 0
M  V30 1015 C 97.3045 1.64237 1.25832 0
M  V30 1016 C 97.7195 0.321336 1.86045 0
M  V30 1017 O 97.0765 -0.695478 1.68729 0
M  V30 1018 C 97.1275 2.72548 2.37487 0
M  V30 1019 O 96.8485 3.99529 1.79745 0
M  V30 1020 C 98.3495 2.9761 3.28547 0
M  V30 1021 H 95.5695 0.55237 0.380957 0
M  V30 1022 H 98.1135 1.96207 0.576467 0
M  V30 1023 H 96.2685 2.43303 3.01467 0
M  V30 1024 H 96.6825 4.59342 2.5319 0
M  V30 1025 H 98.1565 3.77084 4.03127 0
M  V30 1026 H 98.6335 2.0826 3.86684 0
M  V30 1027 H 99.2395 3.28345 2.70314 0
M  V30 1028 N 97.5546 -0.734337 1.39446 0
M  V30 1029 C 98.9706 -1.03997 1.21065 0
M  V30 1030 C 99.1706 -2.01369 0.0727019 0
M  V30 1031 O 98.2266 -2.45856 -0.575426 0
M  V30 1032 C 99.5396 -1.60163 2.54496 0
M  V30 1033 C 101.088 -1.7224 2.61347 0
M  V30 1034 C 101.563 -2.31814 3.95002 0
M  V30 1035 N 103.054 -2.39223 3.96644 0
M  V30 1036 C 103.789 -2.86258 4.96834 0
M  V30 1037 N 103.285 -3.33184 6.07421 0
M  V30 1038 N 105.078 -2.85473 4.84213 0
M  V30 1039 H 97.2286 -0.0885624 2.12215 0
M  V30 1040 H 99.4916 -0.10191 0.942506 0
M  V30 1041 H 99.1976 -0.960811 3.38321 0
M  V30 1042 H 99.0716 -2.5896 2.74262 0
M  V30 1043 H 101.459 -2.35443 1.77906 0
M  V30 1044 H 101.54 -0.720939 2.4543 0
M  V30 1045 H 101.184 -1.69238 4.78875 0
M  V30 1046 H 101.114 -3.32638 4.08239 0
M  V30 1047 H 103.605 -2.06057 3.16779 0
M  V30 1048 H 103.918 -3.67586 6.7978 0
M  V30 1049 H 102.263 -3.31191 6.11013 0
M  V30 1050 H 105.454 -2.48136 3.96921 0
M  V30 1051 H 105.627 -3.21814 5.62441 0
M  V30 1052 N 99.0327 -1.24633 -0.964593 0
M  V30 1053 C 99.9957 -1.0424 -2.04124 0
M  V30 1054 C 100.996 0.00137563 -1.608 0
M  V30 1055 O 102.186 -0.239883 -1.7254 0
M  V30 1056 C 99.3177 -0.580588 -3.3592 0
M  V30 1057 H 100.511 -1.99803 -2.23649 0
M  V30 1058 H 98.0637 -1.06899 -1.14027 0
M  V30 1059 H 98.7987 0.3781 -3.22088 0
M  V30 1060 H 98.5837 -1.33398 -3.6871 0
M  V30 1061 H 100.074 -0.459034 -4.15069 0
M  V30 1062 N 100.511 1.16574 -1.06058 0
M  V30 1063 C 101.758 1.87047 -0.775873 0
M  V30 1064 C 102.086 1.81562 0.697534 0
M  V30 1065 O 101.341 1.22445 1.52662 0
M  V30 1066 C 101.64 3.36195 -1.21275 0
M  V30 1067 C 101.306 3.6188 -2.68986 0
M  V30 1068 C 99.9678 3.68599 -3.09335 0
M  V30 1069 C 102.32 3.72648 -3.64394 0
M  V30 1070 C 99.6478 3.83584 -4.43937 0
M  V30 1071 C 102 3.89154 -4.98741 0
M  V30 1072 C 100.664 3.94114 -5.3873 0
M  V30 1073 H 99.9338 0.684452 -0.283912 0
M  V30 1074 H 102.581 1.37853 -1.32925 0
M  V30 1075 H 100.886 3.87505 -0.578528 0
M  V30 1076 H 102.583 3.89103 -0.969542 0
M  V30 1077 H 99.1728 3.57281 -2.36744 0
M  V30 1078 H 103.357 3.66769 -3.34356 0
M  V30 1079 H 98.6128 3.85677 -4.74409 0
M  V30 1080 H 102.787 3.96427 -5.72554 0
M  V30 1081 H 100.414 4.05478 -6.43033 0
M  V30 1082 N 101.989 0.842826 1.3317 0
M  V30 1083 C 103.237 0.439577 1.97262 0
M  V30 1084 C 103.558 -1.00548 1.67078 0
M  V30 1085 O 102.828 -1.70098 0.971779 0
M  V30 1086 H 101.408 0.159558 0.72976 0
M  V30 1087 H 104.07 1.07665 1.62463 0
M  V30 1088 H 103.166 0.574886 3.0676 0
M  V30 1089 N 103.467 -1.45747 0.599634 0
M  V30 1090 C 104.692 -2.07178 0.0960198 0
M  V30 1091 C 105.117 -1.44268 -1.207 0
M  V30 1092 O 104.475 -0.532503 -1.73303 0
M  V30 1093 C 104.523 -3.60579 -0.0385348 0
M  V30 1094 O 103.627 -3.97713 -1.0908 0
M  V30 1095 H 102.968 -0.660251 0.0704593 0
M  V30 1096 H 105.498 -1.87124 0.827385 0
M  V30 1097 H 105.508 -4.07298 -0.239304 0
M  V30 1098 H 104.183 -4.05756 0.912947 0
M  V30 1099 H 102.76 -3.62678 -0.867135 0
M  V30 1100 N 104.945 -0.338344 -1.53925 0
M  V30 1101 C 105.893 0.536231 -2.26335 0
M  V30 1102 C 106.887 1.1063 -1.28286 0
M  V30 1103 O 108.093 1.05264 -1.46012 0
M  V30 1104 H 104.468 0.191602 -0.727181 0
M  V30 1105 H 106.439 -0.0965747 -2.98244 0
M  V30 1106 C 105.188 1.67803 -3.04528 0
M  V30 1107 H 104.511 1.24864 -3.79801 0
M  V30 1108 H 105.951 2.26526 -3.58416 0
M  V30 1109 C 104.41 2.60439 -2.13712 0
M  V30 1110 O 104.94 3.6255 -1.72975 0
M  V30 1111 N 103.146 2.29006 -1.78898 0
M  V30 1112 H 102.693 1.46011 -2.12223 0
M  V30 1113 H 102.651 2.91248 -1.18416 0
M  V30 1114 N 106.423 1.57458 -0.0668435 0
M  V30 1115 C 107.834 1.80776 0.466558 0
M  V30 1116 C 108.185 0.980361 1.69951 0
M  V30 1117 O 107.31 0.201441 2.1546 0
M  V30 1118 C 107.905 3.27881 0.85321 0
M  V30 1119 C 106.464 3.52062 1.3315 0
M  V30 1120 C 105.611 2.75513 0.314264 0
M  V30 1121 H 108.562 1.5598 -0.292588 0
M  V30 1122 H 108.583 3.39659 1.715 0
M  V30 1123 H 108.095 3.88075 -0.0443439 0
M  V30 1124 H 106.196 2.97167 2.24772 0
M  V30 1125 H 106.309 4.60762 1.31285 0
M  V30 1126 H 104.673 2.42123 0.790492 0
M  V30 1127 H 105.456 3.38442 -0.575477 0
M  V30 1128 N 107.901 -0.206675 1.56239 0
M  V30 1129 C 108.849 -1.27571 1.94495 0
M  V30 1130 C 109.843 -1.47737 0.828862 0
M  V30 1131 O 111.049 -1.48735 1.0138 0
M  V30 1132 H 107.424 -0.428029 0.6183 0
M  V30 1133 H 109.395 -0.925961 2.8367 0
M  V30 1134 C 108.144 -2.61568 2.29079 0
M  V30 1135 H 107.467 -2.46863 3.14482 0
M  V30 1136 H 108.907 -3.35144 2.5972 0
M  V30 1137 C 107.366 -3.17695 1.12123 0
M  V30 1138 O 107.896 -3.99801 0.390153 0
M  V30 1139 N 106.102 -2.76276 0.901097 0
M  V30 1140 H 105.649 -2.09613 1.49733 0
M  V30 1141 H 105.607 -3.1417 0.120319 0
M  V30 1142 N 109.379 -1.50304 -0.473955 0
M  V30 1143 C 110.309 -1.71886 -1.58042 0
M  V30 1144 C 111.29 -0.567799 -1.60344 0
M  V30 1145 O 112.475 -0.806623 -1.76656 0
M  V30 1146 C 109.605 -1.81036 -2.96384 0
M  V30 1147 C 108.559 -2.962 -3.08949 0
M  V30 1148 C 107.885 -2.9049 -4.48909 0
M  V30 1149 C 109.185 -4.36752 -2.86434 0
M  V30 1150 H 110.879 -2.64527 -1.40234 0
M  V30 1151 H 108.425 -1.27295 -0.673201 0
M  V30 1152 H 110.378 -1.94719 -3.73714 0
M  V30 1153 H 109.102 -0.850147 -3.15341 0
M  V30 1154 H 107.761 -2.82164 -2.3405 0
M  V30 1155 H 107.409 -1.92321 -4.64781 0
M  V30 1156 H 107.109 -3.67802 -4.58253 0
M  V30 1157 H 108.633 -3.06218 -5.28264 0
M  V30 1158 H 110.047 -4.5133 -3.53517 0
M  V30 1159 H 108.444 -5.15493 -3.07225 0
M  V30 1160 H 109.514 -4.49321 -1.82316 0
M  V30 1161 N 110.857 0.726932 -1.39834 0
M  V30 1162 C 112.085 1.51613 -1.40787 0
M  V30 1163 C 112.5 1.88799 -0.00451505 0
M  V30 1164 O 111.857 1.54662 0.968809 0
M  V30 1165 C 111.908 2.79863 -2.28821 0
M  V30 1166 O 111.629 2.44253 -3.63692 0
M  V30 1167 C 113.13 3.73837 -2.38245 0
M  V30 1168 H 110.35 0.468264 -0.480593 0
M  V30 1169 H 112.894 0.897607 -1.83748 0
M  V30 1170 H 111.049 3.38027 -1.89252 0
M  V30 1171 H 111.463 3.26695 -4.1033 0
M  V30 1172 H 112.937 4.60699 -3.04073 0
M  V30 1173 H 113.414 4.16153 -1.40403 0
M  V30 1174 H 114.02 3.21589 -2.78317 0
M  V30 1175 N 112.336 1.25143 0.95797 0
M  V30 1176 C 113.283 1.05235 2.05412 0
M  V30 1177 C 114.253 -0.0374561 1.66058 0
M  V30 1178 O 115.438 0.119073 1.90428 0
M  V30 1179 C 112.578 0.673589 3.38462 0
M  V30 1180 C 111.691 1.8379 3.90954 0
M  V30 1181 C 110.826 1.40381 5.12315 0
M  V30 1182 C 109.865 2.53746 5.57027 0
M  V30 1183 N 109.002 2.11136 6.69601 0
M  V30 1184 H 113.842 1.99048 2.21774 0
M  V30 1185 H 111.379 0.991277 1.08683 0
M  V30 1186 H 113.337 0.434964 4.14926 0
M  V30 1187 H 111.967 -0.227554 3.21997 0
M  V30 1188 H 111.019 2.18992 3.11041 0
M  V30 1189 H 112.331 2.68937 4.20089 0
M  V30 1190 H 111.485 1.12464 5.96185 0
M  V30 1191 H 110.224 0.523015 4.84887 0
M  V30 1192 H 109.229 2.82412 4.71724 0
M  V30 1193 H 110.454 3.42398 5.86464 0
M  V30 1194 H 108.4 1.25468 6.4389 0
M  V30 1195 H 108.317 2.89832 6.98236 0
M  V30 1196 H 109.585 1.86385 7.56889 0
M  V30 1197 N 113.814 -1.1601 1.06675 0
M  V30 1198 C 115.06 -1.86909 0.786945 0
M  V30 1199 C 115.393 -1.81717 -0.685018 0
M  V30 1200 O 114.668 -1.23551 -1.50218 0
M  V30 1201 C 114.951 -3.36313 1.28707 0
M  V30 1202 C 114.804 -3.50175 2.82308 0
M  V30 1203 C 116.123 -4.3084 0.898071 0
M  V30 1204 H 113.242 -0.678677 0.287343 0
M  V30 1205 H 115.884 -1.36336 1.32334 0
M  V30 1206 H 114.034 -3.79513 0.830768 0
M  V30 1207 H 115.706 -3.15886 3.36175 0
M  V30 1208 H 113.949 -2.91959 3.20847 0
M  V30 1209 H 114.62 -4.55116 3.12368 0
M  V30 1210 H 117.096 -3.95561 1.29114 0
M  V30 1211 H 115.972 -5.33876 1.27543 0
M  V30 1212 H 116.233 -4.41662 -0.196651 0
M  V30 1213 N 115.292 -0.849877 -1.32721 0
M  V30 1214 C 116.538 -0.451591 -1.97708 0
M  V30 1215 C 116.871 0.989175 -1.6712 0
M  V30 1216 O 116.146 1.69334 -0.956891 0
M  V30 1217 C 116.429 -0.685598 -3.53513 0
M  V30 1218 C 116.282 -2.17444 -3.93749 0
M  V30 1219 C 117.601 -0.138874 -4.39881 0
M  V30 1220 H 114.72 -0.16555 -0.718166 0
M  V30 1221 H 117.362 -1.06742 -1.57182 0
M  V30 1222 H 115.512 -0.161416 -3.88165 0
M  V30 1223 H 117.184 -2.76433 -3.693 0
M  V30 1224 H 115.427 -2.65476 -3.43081 0
M  V30 1225 H 116.098 -2.28888 -5.02309 0
M  V30 1226 H 118.574 -0.587068 -4.11938 0
M  V30 1227 H 117.45 -0.332213 -5.47894 0
M  V30 1228 H 117.711 0.95806 -4.31594 0
M  V30 1229 N 116.77 1.45427 -0.607355 0
M  V30 1230 C 118.017 2.02241 -0.102455 0
M  V30 1231 C 118.345 1.4758 1.26691 0
M  V30 1232 O 117.6 0.640468 1.84923 0
M  V30 1233 C 117.899 3.57398 -0.0129263 0
M  V30 1234 C 117.565 4.3121 -1.31792 0
M  V30 1235 C 116.227 4.51092 -1.67539 0
M  V30 1236 C 118.579 4.73401 -2.18039 0
M  V30 1237 C 115.907 5.10422 -2.89285 0
M  V30 1238 C 118.259 5.34078 -3.39034 0
M  V30 1239 C 116.923 5.52184 -3.75033 0
M  V30 1240 H 116.193 0.740051 -0.037491 0
M  V30 1241 H 118.84 1.74494 -0.788926 0
M  V30 1242 H 117.145 3.84421 0.756806 0
M  V30 1243 H 118.842 3.99061 0.393881 0
M  V30 1244 H 115.432 4.16047 -1.02968 0
M  V30 1245 H 119.616 4.57774 -1.91721 0
M  V30 1246 H 114.872 5.22629 -3.17283 0
M  V30 1247 H 119.046 5.65724 -4.06115 0
M  V30 1248 H 116.673 5.97925 -4.69457 0
M  V30 1249 N 118.248 0.346503 1.53744 0
M  V30 1250 C 119.178 -0.501193 2.28058 0
M  V30 1251 C 120.159 -1.10014 1.29734 0
M  V30 1252 O 121.344 -1.12097 1.58581 0
M  V30 1253 C 118.474 -1.65078 3.05559 0
M  V30 1254 C 117.428 -1.18003 4.11411 0
M  V30 1255 C 116.754 -2.41837 4.76884 0
M  V30 1256 C 118.054 -0.278394 5.21558 0
M  V30 1257 H 119.748 0.11875 2.99164 0
M  V30 1258 H 117.294 0.0585531 1.43881 0
M  V30 1259 H 119.247 -2.25028 3.56287 0
M  V30 1260 H 117.971 -2.29767 2.32109 0
M  V30 1261 H 116.63 -0.603331 3.61601 0
M  V30 1262 H 116.278 -3.0494 4.00026 0
M  V30 1263 H 115.978 -2.1102 5.48402 0
M  V30 1264 H 117.502 -3.02508 5.30397 0
M  V30 1265 H 118.916 -0.784823 5.67903 0
M  V30 1266 H 117.313 -0.0619707 6.00068 0
M  V30 1267 H 118.383 0.684677 4.80042 0
M  V30 1268 N 119.726 -1.57421 0.075193 0
M  V30 1269 C 120.674 -2.14124 -0.908508 0
M  V30 1270 C 121.668 -1.07898 -1.30592 0
M  V30 1271 O 122.874 -1.26273 -1.28277 0
M  V30 1272 H 119.249 -0.684707 -0.310935 0
M  V30 1273 H 121.22 -2.95634 -0.405374 0
M  V30 1274 C 119.969 -2.72044 -2.16535 0
M  V30 1275 H 119.292 -3.53456 -1.86839 0
M  V30 1276 H 120.732 -3.15311 -2.83469 0
M  V30 1277 C 119.191 -1.66968 -2.92615 0
M  V30 1278 O 119.721 -1.0967 -3.86439 0
M  V30 1279 N 117.927 -1.37923 -2.55784 0
M  V30 1280 H 117.474 -1.84706 -1.79559 0
M  V30 1281 H 117.432 -0.67852 -3.06991 0
M  V30 1282 N 121.204 0.198386 -1.56346 0
M  V30 1283 C 122.432 0.935572 -1.84539 0
M  V30 1284 C 122.847 1.76989 -0.657281 0
M  V30 1285 O 122.204 1.78626 0.374043 0
M  V30 1286 C 122.255 1.8344 -3.11499 0
M  V30 1287 O 121.976 1.03377 -4.25728 0
M  V30 1288 C 123.477 2.68355 -3.52846 0
M  V30 1289 H 120.697 0.273126 -0.612897 0
M  V30 1290 H 123.241 0.20663 -2.03453 0
M  V30 1291 H 121.396 2.51701 -2.94492 0
M  V30 1292 H 121.81 1.64599 -4.98003 0
M  V30 1293 H 123.284 3.27085 -4.44657 0
M  V30 1294 H 123.761 3.41901 -2.75681 0
M  V30 1295 H 124.367 2.05471 -3.72373 0
M  V30 1296 N 122.682 1.50554 0.465978 0
M  V30 1297 C 123.614 1.65949 1.58093 0
M  V30 1298 C 124.627 0.540827 1.53554 0
M  V30 1299 O 125.816 0.814187 1.5885 0
M  V30 1300 C 122.916 1.63261 2.96983 0
M  V30 1301 C 122.089 2.91245 3.26336 0
M  V30 1302 C 121.148 2.8113 4.44806 0
M  V30 1303 O 120.174 3.55086 4.44862 0
M  V30 1304 N 121.376 1.95032 5.46756 0
M  V30 1305 H 124.141 2.62122 1.45301 0
M  V30 1306 H 121.702 1.48082 0.65448 0
M  V30 1307 H 123.694 1.54101 3.74212 0
M  V30 1308 H 122.264 0.748032 3.03518 0
M  V30 1309 H 121.484 3.14493 2.37672 0
M  V30 1310 H 122.772 3.76022 3.42761 0
M  V30 1311 H 122.17 1.3427 5.49534 0
M  V30 1312 H 120.727 1.91772 6.2295 0
M  V30 1313 N 124.16 -0.719506 1.40217 0
M  V30 1314 C 125.09 -1.8465 1.42922 0
M  V30 1315 C 126.071 -1.67599 0.29062 0
M  V30 1316 O 127.256 -1.87688 0.498677 0
M  V30 1317 C 124.386 -3.22565 1.28722 0
M  V30 1318 C 123.34 -3.54281 2.40144 0
M  V30 1319 C 122.666 -4.91298 2.11023 0
M  V30 1320 C 123.966 -3.55676 3.82481 0
M  V30 1321 H 125.66 -1.82644 2.37237 0
M  V30 1322 H 123.206 -0.877305 1.1419 0
M  V30 1323 H 125.159 -4.01095 1.29232 0
M  V30 1324 H 123.883 -3.25137 0.308811 0
M  V30 1325 H 122.542 -2.78088 2.38877 0
M  V30 1326 H 122.19 -4.90468 1.11582 0
M  V30 1327 H 121.89 -5.13485 2.8567 0
M  V30 1328 H 123.414 -5.72166 2.13209 0
M  V30 1329 H 124.828 -4.24254 3.85592 0
M  V30 1330 H 123.225 -3.89388 4.56614 0
M  V30 1331 H 124.295 -2.55144 4.12346 0
M  V30 1332 N 125.638 -1.25649 -0.95132 0
M  V30 1333 C 126.878 -1.11802 -1.71113 0
M  V30 1334 C 127.242 0.334758 -1.89059 0
M  V30 1335 O 128.443 0.595121 -2.62129 0
M  V30 1336 C 126.714 -1.85512 -3.05483 0
M  V30 1337 S 128.273 -1.87597 -3.96677 0
M  V30 1338 H 125.091 -0.399552 -0.588115 0
M  V30 1339 H 127.693 -1.59222 -1.1344 0
M  V30 1340 H 126.397 -2.90299 -2.90094 0
M  V30 1341 H 125.928 -1.38493 -3.68216 0
M  V30 1342 H 127.943 -0.955389 -4.86916 0
M  V30 1343 N 127.117 1.15442 -1.07289 0
M  V30 1344 C 128.049 2.19773 -0.650585 0
M  V30 1345 C 129.062 1.60076 0.296572 0
M  V30 1346 O 130.251 1.78293 0.0859905 0
M  V30 1347 C 127.351 3.38838 0.0650398 0
M  V30 1348 C 126.524 4.2808 -0.898141 0
M  V30 1349 C 125.583 5.2574 -0.219926 0
M  V30 1350 O 124.609 5.62654 -0.860773 0
M  V30 1351 N 125.811 5.71205 1.03466 0
M  V30 1352 H 128.576 2.56622 -1.54808 0
M  V30 1353 H 126.137 1.30551 -0.957494 0
M  V30 1354 H 128.129 4.01222 0.529415 0
M  V30 1355 H 126.699 3.00409 0.864466 0
M  V30 1356 H 125.919 3.62804 -1.54165 0
M  V30 1357 H 127.207 4.84577 -1.5512 0
M  V30 1358 H 126.605 5.43325 1.57526 0
M  V30 1359 H 125.162 6.35633 1.44272 0
M  V30 1360 N 128.595 0.856903 1.32268 0
M  V30 1361 C 129.842 0.461386 1.97174 0
M  V30 1362 C 130.17 -0.983491 1.67803 0
M  V30 1363 O 129.425 -1.70541 0.959903 0
M  V30 1364 C 129.724 0.649919 3.51441 0
M  V30 1365 C 129.39 2.0656 4.00804 0
M  V30 1366 C 128.052 2.45279 4.13995 0
M  V30 1367 C 130.404 2.98947 4.26943 0
M  V30 1368 C 127.732 3.75653 4.50668 0
M  V30 1369 C 130.084 4.28822 4.65075 0
M  V30 1370 C 128.748 4.67472 4.76472 0
M  V30 1371 H 128.018 0.168833 0.72151 0
M  V30 1372 H 130.665 1.08739 1.57633 0
M  V30 1373 H 128.97 -0.0593018 3.91755 0
M  V30 1374 H 130.667 0.32391 3.9969 0
M  V30 1375 H 127.257 1.75495 3.91024 0
M  V30 1376 H 131.441 2.70265 4.16258 0
M  V30 1377 H 126.697 4.05379 4.57688 0
M  V30 1378 H 130.871 5.0047 4.84255 0
M  V30 1379 H 128.498 5.68539 5.04646 0
M  V30 1380 N 130.073 -1.45103 0.615059 0
M  V30 1381 C 131.489 -1.57137 0.279322 0
M  V30 1382 C 131.689 -1.60523 -1.21797 0
M  V30 1383 O 130.745 -1.53956 -2.00134 0
M  V30 1384 C 132.058 -2.85062 0.957083 0
M  V30 1385 C 133.606 -2.98749 0.933706 0
M  V30 1386 C 134.081 -4.29455 1.59162 0
M  V30 1387 N 135.572 -4.36231 1.55746 0
M  V30 1388 C 136.307 -5.36051 2.0356 0
M  V30 1389 N 135.803 -6.42367 2.59494 0
M  V30 1390 N 137.596 -5.27456 1.94284 0
M  V30 1391 H 129.747 -1.41148 1.58717 0
M  V30 1392 H 132.01 -0.675331 0.665306 0
M  V30 1393 H 131.716 -2.88488 2.01166 0
M  V30 1394 H 131.59 -3.7407 0.48494 0
M  V30 1395 H 133.977 -2.94886 -0.112347 0
M  V30 1396 H 134.058 -2.11132 1.44419 0
M  V30 1397 H 133.702 -4.34077 2.63704 0
M  V30 1398 H 133.632 -5.15901 1.0561 0
M  V30 1399 H 136.123 -3.60011 1.14893 0
M  V30 1400 H 136.436 -7.14793 2.93752 0
M  V30 1401 H 134.781 -6.43097 2.63537 0
M  V30 1402 H 137.972 -4.43308 1.5032 0
M  V30 1403 H 138.145 -6.05099 2.3186 0
M  V30 1404 N 131.551 -0.354651 -1.53558 0
M  V30 1405 C 132.962 0.126902 -1.86268 0
M  V30 1406 C 133.313 1.49075 -1.27558 0
M  V30 1407 O 132.438 2.08105 -0.5934 0
M  V30 1408 C 133.033 0.237046 -3.3797 0
M  V30 1409 C 131.592 0.662842 -3.70518 0
M  V30 1410 C 130.739 -0.196652 -2.76602 0
M  V30 1411 H 133.69 -0.573849 -1.47962 0
M  V30 1412 H 133.711 1.06259 -3.65362 0
M  V30 1413 H 133.223 -0.755725 -3.80671 0
M  V30 1414 H 131.324 1.66424 -3.33367 0
M  V30 1415 H 131.437 0.445034 -4.77029 0
M  V30 1416 H 129.801 0.332763 -2.52517 0
M  V30 1417 H 130.584 -1.18676 -3.22135 0
M  V30 1418 N 133.029 1.57378 -0.0835403 0
M  V30 1419 C 134.306 1.85363 0.624507 0
M  V30 1420 C 134.686 0.978239 1.87066 0
M  V30 1421 O 134.034 0.0475908 2.2845 0
M  V30 1422 C 134.244 3.35795 0.950947 0
M  V30 1423 C 135.592 4.03581 1.31939 0
M  V30 1424 O 136.616 3.40609 1.04232 0
M  V30 1425 O 135.475 5.14672 1.83779 0
M  V30 1426 H 132.569 0.766162 0.311329 0
M  V30 1427 H 135.115 1.69307 -0.115362 0
M  V30 1428 H 133.887 3.91244 0.0663899 0
M  V30 1429 H 133.51 3.57154 1.74719 0
M  V30 1430 N 134.507 -0.190092 1.56449 0
M  V30 1431 C 135.47 -1.21925 1.9408 0
M  V30 1432 C 136.47 -1.38176 0.822431 0
M  V30 1433 O 137.66 -1.35903 1.08977 0
M  V30 1434 C 134.792 -2.58773 2.21922 0
M  V30 1435 H 135.985 -0.897464 2.86157 0
M  V30 1436 H 133.538 -0.43181 1.50217 0
M  V30 1437 H 134.273 -2.95998 1.32499 0
M  V30 1438 H 134.058 -2.48348 3.03424 0
M  V30 1439 H 135.548 -3.32978 2.52022 0
M  V30 1440 N 135.985 -1.50799 -0.457987 0
M  V30 1441 C 137.232 -1.62442 -1.20908 0
M  V30 1442 C 137.56 -0.330865 -1.91665 0
M  V30 1443 O 136.815 0.68401 -1.83357 0
M  V30 1444 C 137.114 -2.76358 -2.2663 0
M  V30 1445 C 136.78 -4.16378 -1.73033 0
M  V30 1446 C 135.442 -4.54473 -1.58138 0
M  V30 1447 C 137.794 -5.03836 -1.33413 0
M  V30 1448 C 135.122 -5.77754 -1.02065 0
M  V30 1449 C 137.474 -6.27676 -0.78778 0
M  V30 1450 C 136.138 -6.64562 -0.625561 0
M  V30 1451 H 135.408 -0.594417 -0.442435 0
M  V30 1452 H 138.055 -1.84772 -0.503136 0
M  V30 1453 H 136.36 -2.48167 -3.03184 0
M  V30 1454 H 138.057 -2.82568 -2.84528 0
M  V30 1455 H 134.647 -3.86331 -1.85598 0
M  V30 1456 H 138.831 -4.75026 -1.4375 0
M  V30 1457 H 134.087 -6.04997 -0.882547 0
M  V30 1458 H 138.261 -6.94797 -0.472177 0
M  V30 1459 H 135.888 -7.59965 -0.188926 0
M  V30 1460 N 137.463 0.71206 -1.40597 0
M  V30 1461 C 138.711 1.46907 -1.38791 0
M  V30 1462 C 139.032 1.94998 0.00780391 0
M  V30 1463 O 138.302 1.70587 0.963174 0
M  V30 1464 H 136.882 0.545043 -0.51082 0
M  V30 1465 H 139.544 0.843882 -1.75683 0
M  V30 1466 H 138.64 2.34021 -2.06496 0
M  V30 1467 N 138.941 1.26152 0.944643 0
M  V30 1468 C 140.189 1.11271 1.6871 0
M  V30 1469 C 140.51 -0.345166 1.91921 0
M  V30 1470 O 139.78 -1.24387 1.51343 0
M  V30 1471 H 138.36 0.408783 0.625224 0
M  V30 1472 H 141.022 1.58427 1.1352 0
M  V30 1473 H 140.118 1.62879 2.66227 0
M  V30 1474 N 140.419 -1.14872 1.07899 0
M  V30 1475 C 141.349 -2.2193 0.725887 0
M  V30 1476 C 142.33 -1.67622 -0.28927 0
M  V30 1477 O 143.515 -1.93533 -0.160787 0
M  V30 1478 C 140.645 -3.47061 0.128856 0
M  V30 1479 C 139.599 -4.14363 1.07178 0
M  V30 1480 C 138.925 -5.33636 0.337229 0
M  V30 1481 C 140.225 -4.63492 2.40775 0
M  V30 1482 H 141.919 -2.51724 1.62097 0
M  V30 1483 H 139.465 -1.20991 0.780838 0
M  V30 1484 H 141.418 -4.21199 -0.130147 0
M  V30 1485 H 140.142 -3.16617 -0.80134 0
M  V30 1486 H 138.801 -3.42173 1.3158 0
M  V30 1487 H 138.449 -4.99449 -0.596606 0
M  V30 1488 H 138.149 -5.79609 0.965788 0
M  V30 1489 H 139.673 -6.10539 0.0861567 0
M  V30 1490 H 141.087 -5.2913 2.20669 0
M  V30 1491 H 139.484 -5.20148 2.99276 0
M  V30 1492 H 140.554 -3.78834 3.02676 0
M  V30 1493 N 141.898 -0.863906 -1.31812 0
M  V30 1494 C 143.309 -0.52522 -1.7916 0
M  V30 1495 C 143.66 0.957518 -1.71248 0
M  V30 1496 O 142.785 1.74734 -1.27659 0
M  V30 1497 C 143.38 -0.9466 -3.25307 0
M  V30 1498 C 141.939 -0.659668 -3.70574 0
M  V30 1499 C 141.086 -1.14126 -2.52726 0
M  V30 1500 H 144.037 -1.05022 -1.1898 0
M  V30 1501 H 144.058 -0.266766 -3.79564 0
M  V30 1502 H 143.57 -2.02579 -3.31034 0
M  V30 1503 H 141.671 0.408416 -3.70355 0
M  V30 1504 H 141.784 -1.23245 -4.62977 0
M  V30 1505 H 140.148 -0.561216 -2.4844 0
M  V30 1506 H 140.931 -2.22775 -2.61201 0
M  V30 1507 N 143.376 1.44774 -0.622745 0
M  V30 1508 C 144.792 1.56986 -0.287652 0
M  V30 1509 C 144.992 1.61167 1.20944 0
M  V30 1510 O 144.048 1.55015 1.99315 0
M  V30 1511 C 145.361 2.84551 -0.972188 0
M  V30 1512 C 146.909 2.9825 -0.949536 0
M  V30 1513 C 147.384 4.28605 -1.61437 0
M  V30 1514 N 148.875 4.35399 -1.58057 0
M  V30 1515 C 149.61 5.34964 -2.064 0
M  V30 1516 N 149.106 6.40981 -2.62897 0
M  V30 1517 N 150.899 5.26419 -1.97078 0
M  V30 1518 H 143.05 1.40304 -1.59463 0
M  V30 1519 H 145.313 0.671794 -0.668878 0
M  V30 1520 H 145.019 2.87417 -2.02693 0
M  V30 1521 H 144.893 3.73807 -0.504771 0
M  V30 1522 H 147.28 2.94941 0.0967067 0
M  V30 1523 H 147.361 2.10364 -1.45536 0
M  V30 1524 H 147.005 4.32672 -2.66002 0
M  V30 1525 H 146.935 5.15334 -1.08344 0
M  V30 1526 H 149.426 3.59397 -1.16801 0
M  V30 1527 H 149.739 7.13225 -2.97539 0
M  V30 1528 H 148.084 6.4169 -2.66943 0
M  V30 1529 H 151.275 4.42504 -1.52669 0
M  V30 1530 H 151.448 6.03861 -2.35066 0
M  V30 1531 N 144.854 0.36279 1.53368 0
M  V30 1532 C 145.784 -0.476976 2.28576 0
M  V30 1533 C 146.765 -1.08631 1.30894 0
M  V30 1534 O 147.95 -1.10409 1.59761 0
M  V30 1535 C 145.08 -1.61828 3.07293 0
M  V30 1536 C 144.034 -1.13633 4.1264 0
M  V30 1537 C 143.36 -2.36766 4.79423 0
M  V30 1538 C 144.66 -0.223061 5.21823 0
M  V30 1539 H 146.354 0.150474 2.99022 0
M  V30 1540 H 143.9 0.0738103 1.43811 0
M  V30 1541 H 145.853 -2.21237 3.58653 0
M  V30 1542 H 144.577 -2.27292 2.34533 0
M  V30 1543 H 143.236 -0.564945 3.62221 0
M  V30 1544 H 142.884 -3.0068 4.03238 0
M  V30 1545 H 142.584 -2.05192 5.50609 0
M  V30 1546 H 144.108 -2.96865 5.33576 0
M  V30 1547 H 145.522 -0.724545 5.68703 0
M  V30 1548 H 143.919 0.001678 6.001 0
M  V30 1549 H 144.989 0.735553 4.79289 0
M  V30 1550 N 146.332 -1.57332 0.0918853 0
M  V30 1551 C 147.242 -2.17368 -0.882505 0
M  V30 1552 C 148.258 -1.14226 -1.31257 0
M  V30 1553 O 149.434 -1.46582 -1.38115 0
M  V30 1554 C 146.499 -2.73962 -2.12476 0
M  V30 1555 C 145.56 -3.92048 -1.7492 0
M  V30 1556 C 144.793 -4.45933 -2.93223 0
M  V30 1557 O 145.016 -3.98764 -4.07852 0
M  V30 1558 O 143.95 -5.36999 -2.71875 0
M  V30 1559 H 147.776 -3.01031 -0.40172 0
M  V30 1560 H 145.361 -1.48813 -0.132291 0
M  V30 1561 H 147.243 -3.10147 -2.85283 0
M  V30 1562 H 145.918 -1.93347 -2.59613 0
M  V30 1563 H 144.825 -3.6068 -0.993025 0
M  V30 1564 H 146.158 -4.74017 -1.32548 0
M  V30 1565 N 147.81 0.181792 -1.56548 0
M  V30 1566 C 149.087 0.926765 -1.72251 0
M  V30 1567 C 149.467 2.00831 -0.650386 0
M  V30 1568 O 148.815 2.26008 0.336521 0
M  V30 1569 C 149.025 1.50106 -3.1507 0
M  V30 1570 C 150.373 1.97805 -3.75711 0
M  V30 1571 O 151.397 1.59922 -3.18282 0
M  V30 1572 O 150.256 2.67555 -4.76525 0
M  V30 1573 H 147.35 0.435506 -0.703039 0
M  V30 1574 H 149.896 0.170443 -1.68842 0
M  V30 1575 H 148.668 0.72212 -3.84579 0
M  V30 1576 H 148.291 2.32186 -3.22763 0
M  V30 1577 N 149.288 1.51039 0.449983 0
M  V30 1578 C 150.218 1.74379 1.55288 0
M  V30 1579 C 151.199 0.593236 1.5942 0
M  V30 1580 O 152.384 0.834625 1.7535 0
M  V30 1581 C 149.514 1.85728 2.93466 0
M  V30 1582 C 148.468 3.01078 3.04197 0
M  V30 1583 C 147.794 2.97595 4.44231 0
M  V30 1584 C 149.094 4.41254 2.7945 0
M  V30 1585 H 150.788 2.66725 1.36008 0
M  V30 1586 H 148.334 1.2835 0.652864 0
M  V30 1587 H 150.287 2.0064 3.70569 0
M  V30 1588 H 149.011 0.900207 3.13949 0
M  V30 1589 H 147.67 2.85851 2.29531 0
M  V30 1590 H 147.318 1.99691 4.61663 0
M  V30 1591 H 147.018 3.75046 4.52343 0
M  V30 1592 H 148.542 3.14583 5.23326 0
M  V30 1593 H 149.956 4.56897 3.46292 0
M  V30 1594 H 148.353 5.20315 2.98985 0
M  V30 1595 H 149.423 4.52164 1.75144 0
M  V30 1596 N 150.766 -0.704594 1.40972 0
M  V30 1597 C 151.676 -1.84856 1.44448 0
M  V30 1598 C 152.692 -1.70726 0.335961 0
M  V30 1599 O 153.868 -1.92799 0.582276 0
M  V30 1600 C 150.933 -3.20758 1.31587 0
M  V30 1601 C 149.994 -3.47063 2.52677 0
M  V30 1602 C 149.227 -4.76481 2.4042 0
M  V30 1603 O 149.45 -5.52341 1.42391 0
M  V30 1604 O 148.384 -5.03367 3.30007 0
M  V30 1605 H 152.21 -1.8488 2.40942 0
M  V30 1606 H 149.795 -0.85647 1.22413 0
M  V30 1607 H 151.677 -4.01913 1.26665 0
M  V30 1608 H 150.352 -3.21438 0.382049 0
M  V30 1609 H 149.259 -2.65873 2.63177 0
M  V30 1610 H 150.592 -3.5119 3.44858 0
M  V30 1611 N 152.244 -1.26651 -0.937939 0
M  V30 1612 C 153.49 -1.12553 -1.687 0
M  V30 1613 C 153.823 0.329782 -1.91379 0
M  V30 1614 O 153.098 1.24202 -1.4968 0
M  V30 1615 C 153.381 -1.89862 -3.05981 0
M  V30 1616 C 153.234 -3.43318 -2.90607 0
M  V30 1617 C 154.553 -1.69499 -4.0615 0
M  V30 1618 H 151.672 -0.410257 -0.612257 0
M  V30 1619 H 154.314 -1.55685 -1.08913 0
M  V30 1620 H 152.464 -1.53204 -3.57017 0
M  V30 1621 H 154.136 -3.89747 -2.46769 0
M  V30 1622 H 152.379 -3.70179 -2.26164 0
M  V30 1623 H 153.05 -3.92642 -3.8799 0
M  V30 1624 H 155.526 -2.01442 -3.64088 0
M  V30 1625 H 154.402 -2.26002 -5.00214 0
M  V30 1626 H 154.663 -0.640365 -4.37438 0
M  V30 1627 N 153.722 1.14298 -1.08507 0
M  V30 1628 C 154.95 1.89219 -0.836876 0
M  V30 1629 C 155.365 1.78638 0.611054 0
M  V30 1630 O 154.722 1.14643 1.41998 0
M  V30 1631 C 154.773 3.39158 -1.25116 0
M  V30 1632 O 154.494 3.49449 -2.64229 0
M  V30 1633 C 155.995 4.31073 -1.03398 0
M  V30 1634 H 153.215 0.599328 -0.301739 0
M  V30 1635 H 155.759 1.44746 -1.44461 0
M  V30 1636 H 153.914 3.81251 -0.687514 0
M  V30 1637 H 154.328 4.42589 -2.81452 0
M  V30 1638 H 155.802 5.34646 -1.37323 0
M  V30 1639 H 156.279 4.3919 0.0289259 0
M  V30 1640 H 156.885 3.94738 -1.58311 0
M  V30 1641 N 155.201 0.870884 1.31352 0
M  V30 1642 C 156.449 0.48132 1.96285 0
M  V30 1643 C 156.77 -0.969813 1.69173 0
M  V30 1644 O 156.04 -1.67998 1.00764 0
M  V30 1645 H 154.62 0.175002 0.726212 0
M  V30 1646 H 157.282 1.11087 1.60143 0
M  V30 1647 H 156.378 0.639825 3.05471 0
M  V30 1648 N 156.679 -1.44442 0.630414 0
M  V30 1649 C 157.904 -2.06927 0.139944 0
M  V30 1650 C 158.329 -1.46795 -1.17613 0
M  V30 1651 O 157.687 -0.569144 -1.72135 0
M  V30 1652 C 157.735 -3.6058 0.0379581 0
M  V30 1653 O 156.839 -3.99937 -1.0062 0
M  V30 1654 H 156.18 -0.658608 0.0844483 0
M  V30 1655 H 158.71 -1.85327 0.866891 0
M  V30 1656 H 158.72 -4.07714 -0.152856 0
M  V30 1657 H 157.395 -4.03728 0.998809 0
M  V30 1658 H 155.972 -3.64436 -0.79001 0
M  V30 1659 N 158.157 -0.370918 -1.53173 0
M  V30 1660 C 159.382 0.220293 -2.06227 0
M  V30 1661 C 159.807 1.41243 -1.24225 0
M  V30 1662 O 159.165 1.79387 -0.262645 0
M  V30 1663 C 159.213 0.586663 -3.55796 0
M  V30 1664 O 158.317 1.68317 -3.76488 0
M  V30 1665 H 157.658 0.0308099 -0.663285 0
M  V30 1666 H 160.188 -0.533068 -1.97534 0
M  V30 1667 H 160.198 0.85617 -3.98916 0
M  V30 1668 H 158.873 -0.285013 -4.14922 0
M  V30 1669 H 157.45 1.40881 -3.45264 0
M  V30 1670 N 159.635 1.57281 -0.100228 0
M  V30 1671 C 160.882 1.94537 0.562268 0
M  V30 1672 C 161.21 0.982315 1.67871 0
M  V30 1673 O 160.465 0.00280936 1.957 0
M  V30 1674 C 160.764 3.38305 1.15259 0
M  V30 1675 C 160.43 4.50618 0.159409 0
M  V30 1676 C 159.092 4.81066 -0.113741 0
M  V30 1677 C 161.444 5.18615 -0.518461 0
M  V30 1678 C 158.772 5.76835 -1.07137 0
M  V30 1679 C 161.124 6.15412 -1.46459 0
M  V30 1680 C 159.788 6.44262 -1.74592 0
M  V30 1681 H 159.058 0.711863 0.205748 0
M  V30 1682 H 161.705 1.90679 -0.17715 0
M  V30 1683 H 160.01 3.38766 1.96836 0
M  V30 1684 H 161.707 3.64435 1.67297 0
M  V30 1685 H 158.297 4.2689 0.382491 0
M  V30 1686 H 162.481 4.95264 -0.320581 0
M  V30 1687 H 157.737 5.975 -1.29628 0
M  V30 1688 H 161.911 6.67194 -1.99564 0
M  V30 1689 H 159.538 7.1828 -2.48953 0
M  V30 1690 N 161.113 -0.173488 1.56642 0
M  V30 1691 C 162.043 -1.2171 1.99271 0
M  V30 1692 C 163.024 -1.46289 0.867959 0
M  V30 1693 O 164.209 -1.5766 1.13388 0
M  V30 1694 C 161.339 -2.55651 2.35074 0
M  V30 1695 C 160.293 -2.45645 3.50489 0
M  V30 1696 C 159.619 -3.84056 3.72028 0
M  V30 1697 C 160.919 -1.96302 4.84007 0
M  V30 1698 H 162.613 -0.86275 2.867 0
M  V30 1699 H 160.159 -0.413571 1.37933 0
M  V30 1700 H 162.112 -3.2886 2.63494 0
M  V30 1701 H 160.836 -2.92869 1.44552 0
M  V30 1702 H 159.495 -1.7489 3.22194 0
M  V30 1703 H 159.143 -4.18664 2.788 0
M  V30 1704 H 158.843 -3.7823 4.49684 0
M  V30 1705 H 160.367 -4.58854 4.02846 0
M  V30 1706 H 161.781 -2.59284 5.11317 0
M  V30 1707 H 160.178 -2.01429 5.65284 0
M  V30 1708 H 161.248 -0.917226 4.76146 0
M  V30 1709 N 162.591 -1.51276 -0.441967 0
M  V30 1710 C 163.539 -1.72823 -1.55676 0
M  V30 1711 C 164.533 -0.59445 -1.58627 0
M  V30 1712 O 165.739 -0.775715 -1.62427 0
M  V30 1713 H 162.114 -0.545983 -0.517113 0
M  V30 1714 H 164.085 -2.6628 -1.34675 0
M  V30 1715 C 162.834 -1.86619 -2.93375 0
M  V30 1716 H 162.157 -2.73264 -2.91834 0
M  V30 1717 H 163.597 -2.05709 -3.70756 0
M  V30 1718 C 162.056 -0.624842 -3.31055 0
M  V30 1719 O 162.586 0.222636 -4.01083 0
M  V30 1720 N 160.792 -0.470288 -2.86769 0
M  V30 1721 H 160.339 -1.161 -2.29953 0
M  V30 1722 H 160.297 0.359051 -3.12343 0
M  V30 1723 N 164.069 0.697108 -1.41344 0
M  V30 1724 C 164.999 1.82353 -1.45841 0
M  V30 1725 C 165.98 1.67115 -0.317247 0
M  V30 1726 O 167.165 1.86871 -0.528474 0
M  V30 1727 C 164.295 3.20476 -1.33838 0
M  V30 1728 C 163.249 3.50415 -2.4575 0
M  V30 1729 C 162.575 4.87878 -2.18813 0
M  V30 1730 C 163.875 3.49546 -3.88091 0
M  V30 1731 H 165.569 1.78846 -2.40113 0
M  V30 1732 H 163.115 0.859028 -1.15571 0
M  V30 1733 H 165.068 3.98988 -1.35596 0
M  V30 1734 H 163.792 3.24604 -0.360498 0
M  V30 1735 H 162.451 2.74253 -2.43271 0
M  V30 1736 H 162.099 4.8863 -1.19371 0
M  V30 1737 H 161.799 5.08875 -2.93803 0
M  V30 1738 H 163.323 5.68702 -2.22284 0
M  V30 1739 H 164.737 4.18066 -3.92293 0
M  V30 1740 H 163.134 3.82075 -4.62751 0
M  V30 1741 H 164.204 2.48552 -4.16353 0
M  V30 1742 N 165.547 1.27147 0.931209 0
M  V30 1743 C 166.772 1.16191 1.71797 0
M  V30 1744 C 167.197 -0.278004 1.86034 0
M  V30 1745 O 166.555 -1.20137 1.35782 0
M  V30 1746 C 166.603 1.84673 3.09723 0
M  V30 1747 O 165.707 1.14231 3.96264 0
M  V30 1748 H 165.048 0.404303 0.526721 0
M  V30 1749 H 167.578 1.68152 1.1656 0
M  V30 1750 H 167.588 1.91893 3.60057 0
M  V30 1751 H 166.263 2.89421 2.98677 0
M  V30 1752 H 164.84 1.15056 3.54706 0
M  V30 1753 N 167.025 -1.13721 1.09112 0
M  V30 1754 C 168.253 -1.88773 0.846899 0
M  V30 1755 C 168.668 -1.7896 -0.601572 0
M  V30 1756 O 168.025 -1.15394 -1.41388 0
M  V30 1757 C 168.076 -3.3849 1.26913 0
M  V30 1758 O 167.797 -3.48043 2.66079 0
M  V30 1759 C 169.298 -4.30518 1.05682 0
M  V30 1760 H 166.518 -0.59772 0.304914 0
M  V30 1761 H 169.062 -1.43977 1.45227 0
M  V30 1762 H 167.217 -3.80881 0.707723 0
M  V30 1763 H 167.631 -4.4109 2.83795 0
M  V30 1764 H 169.105 -5.3391 1.40156 0
M  V30 1765 H 169.582 -4.392 -0.00563416 0
M  V30 1766 H 170.188 -3.93893 1.60402 0
M  V30 1767 N 168.503 -0.877838 -1.30888 0
M  V30 1768 C 169.451 -0.328662 -2.30266 0
M  V30 1769 C 170.445 0.560496 -1.59859 0
M  V30 1770 O 171.651 0.445722 -1.74394 0
M  V30 1771 H 168.026 -0.0876142 -0.746879 0
M  V30 1772 H 169.997 -1.18061 -2.74051 0
M  V30 1773 C 168.746 0.448071 -3.44801 0
M  V30 1774 H 168.069 -0.226859 -3.99156 0
M  V30 1775 H 169.509 0.797541 -4.16432 0
M  V30 1776 C 167.968 1.64239 -2.94155 0
M  V30 1777 O 168.498 2.74175 -2.93583 0
M  V30 1778 N 166.704 1.47716 -2.50256 0
M  V30 1779 H 166.251 0.582821 -2.5092 0
M  V30 1780 H 166.209 2.27765 -2.16727 0
M  V30 1781 N 169.982 1.44106 -0.638065 0
M  V30 1782 C 171.231 2.01194 -0.142744 0
M  V30 1783 C 171.544 1.50835 1.24532 0
M  V30 1784 O 172.75 2.00096 1.83504 0
M  V30 1785 C 171.206 3.59319 -0.20442 0
M  V30 1786 C 170.814 4.18674 -1.59423 0
M  V30 1787 C 172.558 4.23854 0.234079 0
M  V30 1788 C 170.465 5.69045 -1.61065 0
M  V30 1789 H 169.395 0.752367 -0.0495998 0
M  V30 1790 H 172.046 1.65246 -0.797881 0
M  V30 1791 H 170.428 3.92598 0.517946 0
M  V30 1792 H 171.602 3.96921 -2.34074 0
M  V30 1793 H 169.917 3.66453 -1.97741 0
M  V30 1794 H 172.514 5.34155 0.241443 0
M  V30 1795 H 172.857 3.96688 1.2627 0
M  V30 1796 H 173.39 3.95403 -0.436025 0
M  V30 1797 H 170.129 6.00956 -2.61787 0
M  V30 1798 H 169.649 5.929 -0.90718 0
M  V30 1799 H 171.328 6.32809 -1.34766 0
M  V30 1800 N 171.46 0.379036 1.52974 0
M  V30 1801 C 172.707 -0.206421 2.01445 0
M  V30 1802 C 173.035 -1.47668 1.26587 0
M  V30 1803 O 172.29 -1.92514 0.351675 0
M  V30 1804 C 172.589 -0.53096 3.53434 0
M  V30 1805 C 172.255 0.646546 4.46241 0
M  V30 1806 C 170.917 0.969604 4.7133 0
M  V30 1807 C 173.269 1.43479 5.01062 0
M  V30 1808 C 170.597 2.08263 5.48492 0
M  V30 1809 C 172.949 2.53834 5.7944 0
M  V30 1810 C 171.613 2.86659 6.02812 0
M  V30 1811 H 170.883 -0.0755349 0.73714 0
M  V30 1812 H 173.53 0.514271 1.84465 0
M  V30 1813 H 171.835 -1.33285 3.68432 0
M  V30 1814 H 173.532 -0.996417 3.88423 0
M  V30 1815 H 170.122 0.384734 4.2687 0
M  V30 1816 H 174.306 1.19844 4.81613 0
M  V30 1817 H 169.562 2.34078 5.64816 0
M  V30 1818 H 173.736 3.15319 6.20924 0
M  V30 1819 H 171.363 3.73026 6.62387 0
M  V30 1820 N 172.938 -1.57226 0.108567 0
M  V30 1821 C 174.163 -1.99604 -0.563303 0
M  V30 1822 C 174.588 -0.987563 -1.6009 0
M  V30 1823 O 173.946 0.0421687 -1.81251 0
M  V30 1824 C 173.994 -3.40902 -1.17552 0
M  V30 1825 O 173.098 -3.42896 -2.2912 0
M  V30 1826 H 172.439 -0.648704 -0.1417 0
M  V30 1827 H 174.969 -2.03679 0.193961 0
M  V30 1828 H 174.979 -3.78886 -1.51357 0
M  V30 1829 H 173.654 -4.1382 -0.415445 0
M  V30 1830 H 172.231 -3.1672 -1.96832 0
M  V30 1831 N 174.416 0.165178 -1.56732 0
M  V30 1832 C 175.364 1.22369 -1.97809 0
M  V30 1833 C 176.358 1.45488 -0.867741 0
M  V30 1834 O 177.564 1.45995 -1.05288 0
M  V30 1835 H 173.939 0.411486 -0.629431 0
M  V30 1836 H 175.91 0.850425 -2.86025 0
M  V30 1837 C 174.659 2.55403 -2.35934 0
M  V30 1838 H 173.982 2.38438 -3.20916 0
M  V30 1839 H 175.422 3.2814 -2.68514 0
M  V30 1840 C 173.881 3.14611 -1.20506 0
M  V30 1841 O 174.411 3.98626 -0.496016 0
M  V30 1842 N 172.617 2.7379 -0.97403 0
M  V30 1843 H 172.164 2.0557 -1.55238 0
M  V30 1844 H 172.122 3.1374 -0.203573 0
M  V30 1845 N 175.894 1.51508 0.433938 0
M  V30 1846 C 176.824 1.76016 1.53429 0
M  V30 1847 C 177.805 0.610112 1.58782 0
M  V30 1848 O 178.99 0.853177 1.74455 0
M  V30 1849 C 176.12 1.88831 2.9148 0
M  V30 1850 C 175.074 3.04288 3.00987 0
M  V30 1851 C 174.4 3.0229 4.4105 0
M  V30 1852 C 175.7 4.44193 2.74754 0
M  V30 1853 H 177.394 2.68152 1.33171 0
M  V30 1854 H 174.94 1.29035 0.639214 0
M  V30 1855 H 176.893 2.04559 3.6842 0
M  V30 1856 H 175.617 0.933455 3.12976 0
M  V30 1857 H 174.276 2.8827 2.26486 0
M  V30 1858 H 173.924 2.04576 4.59519 0
M  V30 1859 H 173.624 3.79822 4.4834 0
M  V30 1860 H 175.148 3.20116 5.1996 0
M  V30 1861 H 176.562 4.60544 3.41426 0
M  V30 1862 H 174.959 5.23457 2.9345 0
M  V30 1863 H 176.029 4.53996 1.70339 0
M  V30 1864 N 177.372 -0.689602 1.41712 0
M  V30 1865 C 178.6 -1.47827 1.44758 0
M  V30 1866 C 179.015 -1.88721 0.0545703 0
M  V30 1867 O 178.372 -1.57176 -0.927463 0
M  V30 1868 C 178.423 -2.73698 2.3616 0
M  V30 1869 O 178.144 -2.34524 3.7004 0
M  V30 1870 C 179.645 -3.67389 2.48072 0
M  V30 1871 H 176.865 -0.455357 0.49284 0
M  V30 1872 H 179.409 -0.848574 1.86063 0
M  V30 1873 H 177.564 -3.32891 1.98148 0
M  V30 1874 H 177.978 -3.15701 4.18847 0
M  V30 1875 H 179.452 -4.52475 3.16181 0
M  V30 1876 H 179.929 -4.12284 1.51388 0
M  V30 1877 H 180.535 -3.14097 2.86746 0
M  V30 1878 N 178.85 -1.27639 -0.924453 0
M  V30 1879 C 180.075 -1.17101 -1.71179 0
M  V30 1880 C 180.5 0.268134 -1.86179 0
M  V30 1881 O 179.858 1.19415 -1.36418 0
M  V30 1882 C 179.906 -1.86313 -3.08739 0
M  V30 1883 O 179.01 -1.16331 -3.95652 0
M  V30 1884 H 178.351 -0.407091 -0.524569 0
M  V30 1885 H 180.881 -1.68767 -1.15666 0
M  V30 1886 H 180.891 -1.938 -3.59034 0
M  V30 1887 H 179.566 -2.91001 -2.97138 0
M  V30 1888 H 178.143 -1.16935 -3.54091 0
M  V30 1889 N 180.328 1.1314 -1.09713 0
M  V30 1890 C 181.258 2.20748 -0.761102 0
M  V30 1891 C 182.239 1.68061 0.262566 0
M  V30 1892 O 183.424 1.93765 0.129977 0
M  V30 1893 C 180.554 3.46812 -0.184054 0
M  V30 1894 C 179.508 4.12606 -1.13757 0
M  V30 1895 C 178.834 5.33031 -0.422083 0
M  V30 1896 C 180.134 4.59603 -2.48118 0
M  V30 1897 H 181.828 2.49113 -1.66082 0
M  V30 1898 H 179.374 1.19734 -0.799987 0
M  V30 1899 H 181.327 4.21353 0.0631215 0
M  V30 1900 H 180.051 3.17851 0.750868 0
M  V30 1901 H 178.71 3.40036 -1.37007 0
M  V30 1902 H 178.358 5.00335 0.517072 0
M  V30 1903 H 178.058 5.77999 -1.05788 0
M  V30 1904 H 179.582 6.10325 -0.183277 0
M  V30 1905 H 180.996 5.25552 -2.29059 0
M  V30 1906 H 179.393 5.15321 -3.07514 0
M  V30 1907 H 180.463 3.73971 -3.08665 0
M  V30 1908 N 181.806 0.884767 1.30421 0
M  V30 1909 C 183.054 0.502112 1.95763 0
M  V30 1910 C 183.375 -0.951815 1.70192 0
M  V30 1911 O 182.645 -1.6692 1.0254 0
M  V30 1912 H 181.225 0.182694 0.724315 0
M  V30 1913 H 183.887 1.1278 1.58955 0
M  V30 1914 H 182.983 0.672188 3.04775 0
M  V30 1915 N 183.284 -1.43765 0.645699 0
M  V30 1916 C 184.231 -2.30745 -0.0504648 0
M  V30 1917 C 185.201 -1.4432 -0.822241 0
M  V30 1918 O 186.386 -1.73202 -0.800358 0
M  V30 1919 C 183.526 -3.29802 -1.0161 0
M  V30 1920 C 182.639 -4.31326 -0.241219 0
M  V30 1921 C 181.774 -5.17469 -1.19998 0
M  V30 1922 C 180.813 -6.10691 -0.415094 0
M  V30 1923 N 179.95 -6.89483 -1.32506 0
M  V30 1924 H 184.79 -2.8973 0.697155 0
M  V30 1925 H 182.327 -1.42738 0.355563 0
M  V30 1926 H 184.285 -3.85734 -1.58949 0
M  V30 1927 H 182.915 -2.72483 -1.73069 0
M  V30 1928 H 181.967 -3.77749 0.448334 0
M  V30 1929 H 183.279 -4.9743 0.369437 0
M  V30 1930 H 182.433 -5.7799 -1.84424 0
M  V30 1931 H 181.172 -4.51473 -1.84455 0
M  V30 1932 H 180.177 -5.49265 0.242565 0
M  V30 1933 H 181.402 -6.78727 0.224966 0
M  V30 1934 H 179.348 -6.26142 -1.95657 0
M  V30 1935 H 179.265 -7.52081 -0.768783 0
M  V30 1936 H 180.533 -7.54516 -1.9577 0
M  V30 1937 N 184.763 -0.387143 -1.52771 0
M  V30 1938 C 185.693 0.440551 -2.29306 0
M  V30 1939 C 186.674 1.06535 -1.32606 0
M  V30 1940 O 187.859 1.07853 -1.61497 0
M  V30 1941 C 184.989 1.56919 -3.09829 0
M  V30 1942 C 183.943 1.07054 -4.14395 0
M  V30 1943 C 183.269 2.29109 -4.83129 0
M  V30 1944 C 184.569 0.140015 -5.22112 0
M  V30 1945 H 186.263 -0.198026 -2.98744 0
M  V30 1946 H 183.809 -0.09668 -1.43675 0
M  V30 1947 H 185.762 2.15503 -3.62128 0
M  V30 1948 H 184.486 2.23532 -2.3812 0
M  V30 1949 H 183.145 0.507247 -3.63074 0
M  V30 1950 H 182.793 2.94227 -4.0797 0
M  V30 1951 H 182.493 1.96406 -5.53804 0
M  V30 1952 H 184.017 2.88339 -5.38231 0
M  V30 1953 H 185.431 0.633978 -5.69784 0
M  V30 1954 H 183.828 -0.0971485 -6.00021 0
M  V30 1955 H 184.898 -0.811711 -4.78058 0
M  V30 1956 N 186.241 1.57166 -0.116904 0
M  V30 1957 C 187.469 1.99473 0.549383 0
M  V30 1958 C 187.884 0.996541 1.60357 0
M  V30 1959 O 187.241 -0.0108731 1.82497 0
M  V30 1960 C 187.292 3.41788 1.17741 0
M  V30 1961 O 187.013 4.37788 0.165362 0
M  V30 1962 C 188.514 3.99216 1.92722 0
M  V30 1963 H 185.734 0.655009 0.145616 0
M  V30 1964 H 188.278 2.03494 -0.202625 0
M  V30 1965 H 186.433 3.38713 1.88021 0
M  V30 1966 H 186.847 5.20806 0.621403 0
M  V30 1967 H 188.321 5.00882 2.31995 0
M  V30 1968 H 188.798 3.3824 2.80161 0
M  V30 1969 H 189.404 4.0583 1.27209 0
M  V30 1970 N 187.719 -0.156864 1.56817 0
M  V30 1971 C 188.649 -1.19589 2.00551 0
M  V30 1972 C 189.63 -1.4536 0.883426 0
M  V30 1973 O 190.815 -1.56449 1.15054 0
M  V30 1974 C 187.945 -2.53143 2.37773 0
M  V30 1975 C 186.899 -2.41913 3.53075 0
M  V30 1976 C 186.225 -3.80088 3.76081 0
M  V30 1977 C 187.525 -1.91157 4.86062 0
M  V30 1978 H 189.219 -0.832293 2.87599 0
M  V30 1979 H 186.765 -0.398918 1.38364 0
M  V30 1980 H 188.718 -3.26047 2.66967 0
M  V30 1981 H 187.442 -2.91319 1.4765 0
M  V30 1982 H 186.101 -1.71462 3.24031 0
M  V30 1983 H 185.749 -4.15683 2.83225 0
M  V30 1984 H 185.449 -3.73439 4.53671 0
M  V30 1985 H 186.973 -4.54556 4.0769 0
M  V30 1986 H 188.387 -2.53846 5.14038 0
M  V30 1987 H 186.784 -1.95422 5.67389 0
M  V30 1988 H 187.854 -0.866673 4.77092 0
M  V30 1989 N 189.197 -1.51736 -0.425897 0
M  V30 1990 C 190.145 -1.74464 -1.53834 0
M  V30 1991 C 191.139 -0.611241 -1.57988 0
M  V30 1992 O 192.345 -0.792899 -1.61596 0
M  V30 1993 H 188.72 -0.551437 -0.511293 0
M  V30 1994 H 190.691 -2.67694 -1.31843 0
M  V30 1995 C 189.44 -1.8972 -2.91379 0
M  V30 1996 H 188.763 -2.76344 -2.88919 0
M  V30 1997 H 190.203 -2.09629 -3.68553 0
M  V30 1998 C 188.662 -0.65992 -3.30374 0
M  V30 1999 O 189.192 0.180083 -4.01296 0
M  V30 2000 N 187.398 -0.500677 -2.86254 0
M  V30 2001 H 186.945 -1.18532 -2.28709 0
M  V30 2002 H 186.903 0.325903 -3.12706 0
M  V30 2003 N 190.675 0.682077 -1.42076 0
M  V30 2004 C 191.922 1.44215 -1.42156 0
M  V30 2005 C 192.25 1.94468 -0.0354186 0
M  V30 2006 O 191.505 1.70816 0.955002 0
M  V30 2007 C 191.804 2.66036 -2.38662 0
M  V30 2008 C 191.47 2.34366 -3.85206 0
M  V30 2009 C 190.132 2.25439 -4.25124 0
M  V30 2010 C 192.484 2.08513 -4.77673 0
M  V30 2011 C 189.812 1.88775 -5.55501 0
M  V30 2012 C 192.164 1.73354 -6.08384 0
M  V30 2013 C 190.828 1.62933 -6.47309 0
M  V30 2014 H 190.098 0.527718 -0.520187 0
M  V30 2015 H 192.745 0.778387 -1.74967 0
M  V30 2016 H 191.05 3.3741 -1.99152 0
M  V30 2017 H 192.747 3.24205 -2.35991 0
M  V30 2018 H 189.337 2.42213 -3.53597 0
M  V30 2019 H 193.521 2.14346 -4.47626 0
M  V30 2020 H 188.777 1.7927 -5.84527 0
M  V30 2021 H 192.951 1.52373 -6.79526 0
M  V30 2022 H 190.578 1.34292 -7.48244 0
M  V30 2023 N 192.153 1.28127 0.917671 0
M  V30 2024 C 193.101 1.11569 2.04096 0
M  V30 2025 C 194.095 0.0360242 1.69362 0
M  V30 2026 O 195.301 0.194501 1.78946 0
M  V30 2027 H 191.676 0.344097 0.668656 0
M  V30 2028 H 193.647 2.06711 2.15205 0
M  V30 2029 C 192.396 0.790197 3.38602 0
M  V30 2030 H 191.719 1.61293 3.6582 0
M  V30 2031 H 193.159 0.714271 4.1794 0
M  V30 2032 C 191.618 -0.505897 3.3308 0
M  V30 2033 O 192.148 -1.53736 3.71117 0
M  V30 2034 N 190.354 -0.505193 2.86175 0
M  V30 2035 H 189.901 0.334621 2.55417 0
M  V30 2036 H 189.859 -1.37243 2.82863 0
M  V30 2037 N 193.631 -1.12557 1.10312 0
M  V30 2038 C 194.564 -2.1737 0.694674 0
M  V30 2039 C 195.542 -1.59745 -0.303373 0
M  V30 2040 O 196.726 -1.87408 -0.202578 0
M  V30 2041 C 193.853 -3.38691 0.0248052 0
M  V30 2042 C 192.899 -4.14943 0.986121 0
M  V30 2043 S 193.732 -4.73413 2.50281 0
M  V30 2044 C 194.888 -5.9807 1.84562 0
M  V30 2045 H 195.121 -2.5168 1.58255 0
M  V30 2046 H 192.654 -1.23998 0.919992 0
M  V30 2047 H 194.612 -4.08959 -0.355361 0
M  V30 2048 H 193.273 -3.02664 -0.839851 0
M  V30 2049 H 192.466 -5.01854 0.464651 0
M  V30 2050 H 192.068 -3.50377 1.30813 0
M  V30 2051 H 194.36 -6.67232 1.17507 0
M  V30 2052 H 195.303 -6.54841 2.69423 0
M  V30 2053 H 195.711 -5.49073 1.31069 0
M  V30 2054 N 195.109 -0.891671 -1.2995 0
M  V30 2055 C 196.039 -0.379797 -2.30391 0
M  V30 2056 C 197.02 0.540919 -1.6127 0
M  V30 2057 O 198.205 0.453352 -1.88834 0
M  V30 2058 C 195.335 0.400654 -3.44981 0
M  V30 2059 C 194.289 -0.428905 -4.25846 0
M  V30 2060 C 193.615 0.478557 -5.32554 0
M  V30 2061 C 194.915 -1.67458 -4.94727 0
M  V30 2062 H 196.609 -1.21914 -2.73454 0
M  V30 2063 H 194.155 -0.587675 -1.31462 0
M  V30 2064 H 196.108 0.769434 -4.14316 0
M  V30 2065 H 194.832 1.27371 -3.0074 0
M  V30 2066 H 193.491 -0.779911 -3.58208 0
M  V30 2067 H 193.139 1.34951 -4.84559 0
M  V30 2068 H 192.839 -0.0727433 -5.87555 0
M  V30 2069 H 194.363 0.843705 -6.04743 0
M  V30 2070 H 195.777 -1.376 -5.56542 0
M  V30 2071 H 194.174 -2.16659 -5.59624 0
M  V30 2072 H 195.244 -2.41518 -4.20473 0
M  V30 2073 N 196.587 1.43421 -0.653314 0
M  V30 2074 C 197.497 2.34568 0.0388565 0
M  V30 2075 C 198.513 1.53888 0.81207 0
M  V30 2076 O 199.689 1.86539 0.759294 0
M  V30 2077 C 196.754 3.32167 0.993269 0
M  V30 2078 C 195.815 4.28751 0.216977 0
M  V30 2079 C 195.048 5.21688 1.12593 0
M  V30 2080 O 195.271 5.19052 2.36519 0
M  V30 2081 O 194.205 5.98919 0.598284 0
M  V30 2082 H 198.031 2.95251 -0.711386 0
M  V30 2083 H 195.616 1.43564 -0.413502 0
M  V30 2084 H 197.498 3.92183 1.54176 0
M  V30 2085 H 196.173 2.73987 1.72374 0
M  V30 2086 H 195.08 3.72215 -0.375101 0
M  V30 2087 H 196.413 4.89913 -0.473924 0
M  V30 2088 N 198.065 0.39524 1.52563 0
M  V30 2089 C 199.028 -0.425001 2.25225 0
M  V30 2090 C 200.028 -0.985266 1.27079 0
M  V30 2091 O 201.218 -0.866332 1.5113 0
M  V30 2092 C 198.35 -1.59686 3.01186 0
M  V30 2093 H 199.543 0.211233 2.99155 0
M  V30 2094 H 197.096 0.147472 1.55603 0
M  V30 2095 H 197.831 -2.27035 2.31572 0
M  V30 2096 H 197.616 -1.20176 3.73229 0
M  V30 2097 H 199.106 -2.17743 3.5634 0
M  V30 2098 N 199.544 -1.57102 0.125237 0
M  V30 2099 C 200.474 -2.18659 -0.819174 0
M  V30 2100 C 201.455 -1.12843 -1.27281 0
M  V30 2101 O 202.64 -1.41104 -1.33429 0
M  V30 2102 C 199.77 -2.79096 -2.06695 0
M  V30 2103 C 198.724 -3.90548 -1.75088 0
M  V30 2104 C 198.05 -4.37821 -3.06948 0
M  V30 2105 C 199.35 -5.12356 -1.01435 0
M  V30 2106 H 201.044 -2.9783 -0.306202 0
M  V30 2107 H 198.59 -1.4326 -0.145839 0
M  V30 2108 H 200.543 -3.2082 -2.73226 0
M  V30 2109 H 199.267 -1.97223 -2.60328 0
M  V30 2110 H 197.926 -3.49409 -1.10944 0
M  V30 2111 H 197.574 -3.52799 -3.58527 0
M  V30 2112 H 197.274 -5.12982 -2.86571 0
M  V30 2113 H 198.798 -4.822 -3.74587 0
M  V30 2114 H 200.212 -5.5106 -1.58132 0
M  V30 2115 H 198.609 -5.9314 -0.911319 0
M  V30 2116 H 199.679 -4.849 -0.00218681 0
M  V30 2117 N 201.022 0.148545 -1.56898 0
M  V30 2118 C 202.433 0.708766 -1.72723 0
M  V30 2119 C 202.784 1.81734 -0.739395 0
M  V30 2120 O 201.909 2.16194 0.0943169 0
M  V30 2121 C 202.504 1.29245 -3.13179 0
M  V30 2122 C 201.063 1.79925 -3.30611 0
M  V30 2123 C 200.21 0.687111 -2.68652 0
M  V30 2124 H 203.161 -0.0771063 -1.58513 0
M  V30 2125 H 203.182 2.16224 -3.13093 0
M  V30 2126 H 202.694 0.485382 -3.85053 0
M  V30 2127 H 200.795 2.63203 -2.63732 0
M  V30 2128 H 200.908 1.92903 -4.38549 0
M  V30 2129 H 199.272 1.11335 -2.29078 0
M  V30 2130 H 200.055 -0.108483 -3.43129 0
M  V30 2131 N 202.5 1.5196 0.417844 0
M  V30 2132 C 203.41 1.77554 1.53336 0
M  V30 2133 C 204.426 0.660655 1.6097 0
M  V30 2134 O 205.602 0.945099 1.77848 0
M  V30 2135 C 202.667 1.91291 2.89152 0
M  V30 2136 C 201.728 3.15183 2.91475 0
M  V30 2137 C 200.961 3.28256 4.20813 0
M  V30 2138 O 201.184 2.46798 5.14244 0
M  V30 2139 O 200.118 4.21356 4.29817 0
M  V30 2140 H 203.944 2.7222 1.34647 0
M  V30 2141 H 201.529 1.36698 0.602828 0
M  V30 2142 H 203.411 2.02199 3.69721 0
M  V30 2143 H 202.086 0.998129 3.07927 0
M  V30 2144 H 200.993 3.09739 2.09791 0
M  V30 2145 H 202.326 4.06414 2.77648 0
M  V30 2146 N 203.978 -0.674533 1.42435 0
M  V30 2147 C 205.226 -1.43175 1.42637 0
M  V30 2148 C 205.547 -1.94951 0.0438992 0
M  V30 2149 O 204.817 -1.7308 -0.917607 0
M  V30 2150 H 203.397 -0.531307 0.525092 0
M  V30 2151 H 206.059 -0.797006 1.77859 0
M  V30 2152 H 205.155 -2.28463 2.12629 0
M  V30 2153 N 205.456 -1.28612 -0.910864 0
M  V30 2154 C 206.386 -1.15326 -2.03032 0
M  V30 2155 C 207.367 -0.0502924 -1.70026 0
M  V30 2156 O 208.552 -0.227797 -1.92859 0
M  V30 2157 C 205.682 -0.817343 -3.37545 0
M  V30 2158 C 204.636 -1.8754 -3.84724 0
M  V30 2159 C 203.962 -1.39305 -5.16235 0
M  V30 2160 C 205.262 -3.28244 -4.06267 0
M  V30 2161 H 206.956 -2.08975 -2.14406 0
M  V30 2162 H 204.502 -1.00612 -1.03021 0
M  V30 2163 H 206.455 -0.711151 -4.15356 0
M  V30 2164 H 205.179 0.154846 -3.26233 0
M  V30 2165 H 203.838 -1.97079 -3.09121 0
M  V30 2166 H 203.486 -0.409846 -5.01328 0
M  V30 2167 H 203.186 -2.10057 -5.48771 0
M  V30 2168 H 204.71 -1.30014 -5.96598 0
M  V30 2169 H 206.124 -3.21611 -4.74594 0
M  V30 2170 H 204.521 -3.96855 -4.5014 0
M  V30 2171 H 205.591 -3.72048 -3.10979 0
M  V30 2172 N 206.934 1.1197 -1.10907 0
M  V30 2173 C 208.181 1.83588 -0.854507 0
M  V30 2174 C 208.509 1.84357 0.6199 0
M  V30 2175 O 207.764 1.28809 1.47332 0
M  V30 2176 C 208.063 3.30749 -1.35425 0
M  V30 2177 C 207.729 3.50146 -2.84093 0
M  V30 2178 C 206.391 3.55148 -3.2469 0
M  V30 2179 C 208.743 3.56857 -3.79872 0
M  V30 2180 C 206.071 3.6441 -4.59806 0
M  V30 2181 C 208.423 3.6765 -5.14797 0
M  V30 2182 C 207.087 3.7091 -5.54961 0
M  V30 2183 H 206.357 0.671795 -0.312686 0
M  V30 2184 H 209.004 1.32091 -1.38652 0
M  V30 2185 H 207.309 3.84703 -0.742361 0
M  V30 2186 H 209.006 3.8464 -1.1337 0
M  V30 2187 H 205.596 3.46919 -2.51685 0
M  V30 2188 H 209.78 3.52258 -3.49611 0
M  V30 2189 H 205.036 3.65208 -4.9034 0
M  V30 2190 H 209.21 3.71786 -5.88853 0
M  V30 2191 H 206.837 3.7784 -6.59652 0
M  V30 2192 N 208.412 0.89855 1.29475 0
M  V30 2193 C 209.344 0.332726 2.26772 0
M  V30 2194 C 210.357 -0.520323 1.54261 0
M  V30 2195 O 211.546 -0.337668 1.75277 0
M  V30 2196 C 208.646 -0.544334 3.345 0
M  V30 2197 C 207.819 0.282728 4.36485 0
M  V30 2198 C 206.878 -0.526982 5.23555 0
M  V30 2199 O 205.904 0.0551165 5.69173 0
M  V30 2200 N 207.106 -1.83331 5.5079 0
M  V30 2201 H 209.871 1.16897 2.75962 0
M  V30 2202 H 207.432 0.762919 1.42798 0
M  V30 2203 H 209.424 -1.09239 3.89678 0
M  V30 2204 H 207.994 -1.28127 2.85136 0
M  V30 2205 H 207.214 1.01221 3.80983 0
M  V30 2206 H 208.502 0.84918 5.01664 0
M  V30 2207 H 207.9 -2.32898 5.15534 0
M  V30 2208 H 206.457 -2.32852 6.08788 0
M  V30 2209 N 209.89 -1.43072 0.660911 0
M  V30 2210 C 210.84 -2.27948 -0.04847 0
M  V30 2211 C 211.824 -1.40325 -0.787246 0
M  V30 2212 O 213.016 -1.63893 -0.668446 0
M  V30 2213 C 210.145 -3.28143 -1.00881 0
M  V30 2214 C 209.231 -4.23252 -0.268108 0
M  V30 2215 N 209.622 -5.00656 0.719528 0
M  V30 2216 C 207.92 -4.43092 -0.508493 0
M  V30 2217 C 208.621 -5.70019 1.15988 0
M  V30 2218 N 207.597 -5.41364 0.492584 0
M  V30 2219 H 211.399 -2.85213 0.709279 0
M  V30 2220 H 208.913 -1.54869 0.488822 0
M  V30 2221 H 210.91 -3.87736 -1.53188 0
M  V30 2222 H 209.57 -2.7244 -1.76654 0
M  V30 2223 H 210.581 -5.06115 1.09855 0
M  V30 2224 H 207.258 -3.98449 -1.24679 0
M  V30 2225 H 208.648 -6.4214 1.97751 0
M  V30 2226 N 211.368 -0.403325 -1.52352 0
M  V30 2227 C 212.298 0.416205 -2.29761 0
M  V30 2228 C 213.279 1.05123 -1.33728 0
M  V30 2229 O 214.464 1.06134 -1.62632 0
M  V30 2230 C 211.594 1.53624 -3.11475 0
M  V30 2231 C 210.548 1.02653 -4.15507 0
M  V30 2232 C 209.874 2.23971 -4.85532 0
M  V30 2233 C 211.174 0.08463 -5.22231 0
M  V30 2234 H 212.868 -0.229701 -2.98518 0
M  V30 2235 H 210.414 -0.111913 -1.43564 0
M  V30 2236 H 212.367 2.1165 -3.64393 0
M  V30 2237 H 211.091 2.20994 -2.40477 0
M  V30 2238 H 209.75 0.46871 -3.63591 0
M  V30 2239 H 209.398 2.89883 -4.11068 0
M  V30 2240 H 209.098 1.90521 -5.55856 0
M  V30 2241 H 210.622 2.82614 -5.41259 0
M  V30 2242 H 212.036 0.573509 -5.70424 0
M  V30 2243 H 210.433 -0.160783 -5.99885 0
M  V30 2244 H 211.503 -0.86237 -4.7717 0
M  V30 2245 N 212.846 1.57033 -0.133567 0
M  V30 2246 C 213.809 2.14897 0.796995 0
M  V30 2247 C 214.809 1.0874 1.18458 0
M  V30 2248 O 215.999 1.34446 1.1077 0
M  V30 2249 C 213.131 2.70112 2.07973 0
M  V30 2250 H 214.324 2.98457 0.293873 0
M  V30 2251 H 211.877 1.55871 0.115787 0
M  V30 2252 H 212.612 1.9018 2.62682 0
M  V30 2253 H 212.397 3.47764 1.81115 0
M  V30 2254 H 213.887 3.14738 2.74462 0
M  V30 2255 N 214.325 -0.140222 1.56975 0
M  V30 2256 C 215.288 -1.15689 1.97861 0
M  V30 2257 C 216.288 -1.3549 0.865974 0
M  V30 2258 O 217.478 -1.32367 1.13246 0
M  V30 2259 C 214.61 -2.51582 2.30042 0
M  V30 2260 H 215.803 -0.805971 2.88867 0
M  V30 2261 H 213.356 -0.383801 1.51515 0
M  V30 2262 H 214.091 -2.91632 1.41849 0
M  V30 2263 H 213.876 -2.38569 3.11171 0
M  V30 2264 H 215.366 -3.24792 2.62488 0
M  V30 2265 N 215.803 -1.52179 -0.40978 0
M  V30 2266 C 216.733 -1.78435 -1.5061 0
M  V30 2267 C 217.714 -0.635295 -1.57791 0
M  V30 2268 O 218.899 -0.880823 -1.73076 0
M  V30 2269 C 216.029 -1.93444 -2.88439 0
M  V30 2270 C 214.983 -3.09038 -2.96108 0
M  V30 2271 C 214.309 -3.09268 -4.36185 0
M  V30 2272 C 215.609 -4.48508 -2.67652 0
M  V30 2273 H 217.303 -2.70237 -1.28889 0
M  V30 2274 H 214.849 -1.30036 -0.618605 0
M  V30 2275 H 216.802 -2.10394 -3.65119 0
M  V30 2276 H 215.526 -0.983129 -3.11452 0
M  V30 2277 H 214.185 -2.91837 -2.21872 0
M  V30 2278 H 213.833 -2.11861 -4.56206 0
M  V30 2279 H 213.533 -3.86907 -4.42241 0
M  V30 2280 H 215.057 -3.28348 -5.14801 0
M  V30 2281 H 216.471 -4.65918 -3.34056 0
M  V30 2282 H 214.868 -5.28059 -2.85085 0
M  V30 2283 H 215.938 -4.56649 -1.63095 0
M  V30 2284 N 217.281 0.66697 -1.42791 0
M  V30 2285 C 218.191 1.80962 -1.49299 0
M  V30 2286 C 219.207 1.69775 -0.381108 0
M  V30 2287 O 220.383 1.91188 -0.633188 0
M  V30 2288 C 217.448 3.17156 -1.40045 0
M  V30 2289 C 216.509 3.40242 -2.6179 0
M  V30 2290 C 215.742 4.69939 -2.52969 0
M  V30 2291 O 215.965 5.48372 -1.56985 0
M  V30 2292 O 214.899 4.94441 -3.43237 0
M  V30 2293 H 218.725 1.78427 -2.45759 0
M  V30 2294 H 216.31 0.823713 -1.24641 0
M  V30 2295 H 218.192 3.98413 -1.37276 0
M  V30 2296 H 216.867 3.20312 -0.467138 0
M  V30 2297 H 215.774 2.58802 -2.70134 0
M  V30 2298 H 217.107 3.41923 -3.54047 0
M  V30 2299 N 218.759 1.29093 0.90403 0
M  V30 2300 C 219.984 1.19809 1.69294 0
M  V30 2301 C 220.409 -0.238481 1.86582 0
M  V30 2302 O 219.767 -1.1723 1.383 0
M  V30 2303 C 219.815 1.91202 3.05736 0
M  V30 2304 O 218.919 1.22611 3.93752 0
M  V30 2305 H 218.26 0.415385 0.518027 0
M  V30 2306 H 220.79 1.70586 1.12967 0
M  V30 2307 H 220.8 1.99487 3.55906 0
M  V30 2308 H 219.475 2.95692 2.92471 0
M  V30 2309 H 218.052 1.22554 3.52186 0
M  V30 2310 N 220.237 -1.11381 1.11499 0
M  V30 2311 C 221.167 -2.19509 0.796125 0
M  V30 2312 C 222.148 -1.68458 -0.235796 0
M  V30 2313 O 223.333 -1.93947 -0.0991344 0
M  V30 2314 C 220.463 -3.46475 0.239205 0
M  V30 2315 C 219.417 -4.10744 1.20307 0
M  V30 2316 C 218.743 -5.32293 0.50683 0
M  V30 2317 C 220.043 -4.55597 2.55399 0
M  V30 2318 H 221.737 -2.46439 1.70024 0
M  V30 2319 H 219.283 -1.18446 0.818935 0
M  V30 2320 H 221.236 -4.214 0.00392006 0
M  V30 2321 H 219.96 -3.19006 -0.700206 0
M  V30 2322 H 218.619 -3.37813 1.42399 0
M  V30 2323 H 218.267 -5.01095 -0.437408 0
M  V30 2324 H 217.967 -5.76243 1.1497 0
M  V30 2325 H 219.491 -6.09956 0.280351 0
M  V30 2326 H 220.905 -5.21841 2.37391 0
M  V30 2327 H 219.302 -5.10363 3.15673 0
M  V30 2328 H 220.372 -3.69013 3.14575 0
M  V30 2329 N 221.715 -0.905404 -1.28997 0
M  V30 2330 C 222.665 -0.358713 -2.25161 0
M  V30 2331 C 223.649 0.524449 -1.52113 0
M  V30 2332 O 224.841 0.365534 -1.73184 0
M  V30 2333 C 221.97 0.407609 -3.40872 0
M  V30 2334 C 221.056 -0.490797 -4.21251 0
M  V30 2335 N 221.447 -1.60061 -4.79806 0
M  V30 2336 C 219.745 -0.289636 -4.45059 0
M  V30 2337 C 220.446 -2.15757 -5.40207 0
M  V30 2338 N 219.422 -1.44988 -5.23908 0
M  V30 2339 H 223.224 -1.20642 -2.67998 0
M  V30 2340 H 220.738 -0.757103 -1.43672 0
M  V30 2341 H 222.735 0.816046 -4.08835 0
M  V30 2342 H 221.395 1.25251 -2.9957 0
M  V30 2343 H 222.406 -1.98329 -4.7842 0
M  V30 2344 H 219.083 0.51643 -4.14294 0
M  V30 2345 H 220.473 -3.09069 -5.96595 0
M  V30 2346 N 223.193 1.4272 -0.668489 0
M  V30 2347 C 224.123 2.335 -0.000100175 0
M  V30 2348 C 225.104 1.50328 0.795964 0
M  V30 2349 O 226.289 1.78949 0.754385 0
M  V30 2350 C 223.419 3.33874 0.956302 0
M  V30 2351 C 222.373 4.27152 0.269278 0
M  V30 2352 C 221.699 5.17684 1.33818 0
M  V30 2353 C 222.999 5.15373 -0.847805 0
M  V30 2354 H 224.693 2.89639 -0.758244 0
M  V30 2355 H 222.239 1.39269 -0.366079 0
M  V30 2356 H 224.192 3.9629 1.43292 0
M  V30 2357 H 222.916 2.76025 1.74579 0
M  V30 2358 H 221.575 3.66123 -0.187042 0
M  V30 2359 H 221.223 4.56165 2.1195 0
M  V30 2360 H 220.923 5.80918 0.883659 0
M  V30 2361 H 222.447 5.82974 1.81586 0
M  V30 2362 H 223.861 5.7151 -0.452681 0
M  V30 2363 H 222.258 5.87407 -1.22773 0
M  V30 2364 H 223.328 4.5415 -1.69929 0
M  V30 2365 N 224.671 0.411399 1.52136 0
M  V30 2366 C 225.603 -0.448386 2.24771 0
M  V30 2367 C 226.616 -1.00828 1.27818 0
M  V30 2368 O 227.805 -0.906841 1.53749 0
M  V30 2369 C 224.905 -1.63636 2.96777 0
M  V30 2370 C 224.078 -1.19995 4.20618 0
M  V30 2371 C 223.137 -2.25509 4.75428 0
M  V30 2372 O 222.163 -1.86007 5.3795 0
M  V30 2373 N 223.365 -3.577 4.57199 0
M  V30 2374 H 226.13 0.174025 2.99194 0
M  V30 2375 H 223.691 0.238897 1.60128 0
M  V30 2376 H 225.683 -2.33793 3.30338 0
M  V30 2377 H 224.253 -2.16465 2.25526 0
M  V30 2378 H 223.473 -0.326421 3.92846 0
M  V30 2379 H 224.761 -0.885365 5.01038 0
M  V30 2380 H 224.159 -3.92543 4.07341 0
M  V30 2381 H 222.716 -4.23827 4.95191 0
M  V30 2382 N 226.149 -1.5696 0.141893 0
M  V30 2383 C 227.397 -1.95573 -0.509484 0
M  V30 2384 C 227.718 -1.02746 -1.65736 0
M  V30 2385 O 226.988 -0.0880311 -1.95702 0
M  V30 2386 H 225.568 -0.722115 -0.191205 0
M  V30 2387 H 228.23 -1.93697 0.216196 0
M  V30 2388 H 227.326 -2.99171 -0.889 0
M  V30 2389 N 227.627 0.131896 -1.57047 0
M  V30 2390 C 228.575 1.18146 -2.0036 0
M  V30 2391 C 229.569 1.43614 -0.898406 0
M  V30 2392 O 230.775 1.43729 -1.08361 0
M  V30 2393 H 227.15 0.398042 -0.638018 0
M  V30 2394 H 229.121 0.789564 -2.87765 0
M  V30 2395 C 227.87 2.50341 -2.41298 0
M  V30 2396 H 227.193 2.31578 -3.25902 0
M  V30 2397 H 228.633 3.22371 -2.75414 0
M  V30 2398 C 227.092 3.11984 -1.27153 0
M  V30 2399 O 227.622 3.97484 -0.580459 0
M  V30 2400 N 225.828 2.71662 -1.03189 0
M  V30 2401 H 225.375 2.02231 -1.59564 0
M  V30 2402 H 225.333 3.13238 -0.270077 0
M  V30 2403 N 229.106 1.52395 0.401703 0
M  V30 2404 C 230.038 1.72505 1.50912 0
M  V30 2405 C 231.051 0.605468 1.51122 0
M  V30 2406 O 232.24 0.880828 1.55254 0
M  V30 2407 C 229.34 1.75711 2.89791 0
M  V30 2408 C 228.513 3.04824 3.1369 0
M  V30 2409 C 227.572 2.99743 4.32482 0
M  V30 2410 O 226.598 3.73635 4.29402 0
M  V30 2411 N 227.8 2.18047 5.37992 0
M  V30 2412 H 230.565 2.68049 1.34052 0
M  V30 2413 H 228.126 1.50724 0.591084 0
M  V30 2414 H 230.118 1.69834 3.6734 0
M  V30 2415 H 228.688 0.876092 3.00072 0
M  V30 2416 H 227.908 3.2429 2.24119 0
M  V30 2417 H 229.196 3.90221 3.26504 0
M  V30 2418 H 228.594 1.57456 5.43345 0
M  V30 2419 H 227.151 2.18021 6.14256 0
M  V30 2420 N 230.584 -0.659388 1.43143 0
M  V30 2421 C 231.514 -1.78422 1.50625 0
M  V30 2422 C 232.495 -1.66216 0.361443 0
M  V30 2423 O 233.68 -1.85404 0.577834 0
M  V30 2424 C 230.81 -3.16815 1.42287 0
M  V30 2425 C 229.764 -3.43777 2.54954 0
M  V30 2426 C 229.09 -4.81905 2.31671 0
M  V30 2427 C 230.39 -3.39134 3.97222 0
M  V30 2428 H 232.084 -1.72417 2.44771 0
M  V30 2429 H 229.63 -0.828084 1.17808 0
M  V30 2430 H 231.583 -3.95253 1.46127 0
M  V30 2431 H 230.307 -3.23534 0.446435 0
M  V30 2432 H 228.966 -2.67707 2.50457 0
M  V30 2433 H 228.614 -4.85294 1.32284 0
M  V30 2434 H 228.314 -5.00906 3.07192 0
M  V30 2435 H 229.838 -5.62609 2.37284 0
M  V30 2436 H 231.252 -4.07518 4.03239 0
M  V30 2437 H 229.649 -3.69671 4.72719 0
M  V30 2438 H 230.719 -2.37426 4.22797 0
M  V30 2439 N 232.062 -1.29571 -0.897171 0
M  V30 2440 C 232.994 -1.10724 -2.00681 0
M  V30 2441 C 234.007 -0.0540026 -1.6271 0
M  V30 2442 O 235.196 -0.298783 -1.75982 0
M  V30 2443 C 232.296 -0.663912 -3.32333 0
M  V30 2444 C 231.469 -1.79622 -3.98816 0
M  V30 2445 C 230.528 -1.34349 -5.0876 0
M  V30 2446 O 229.554 -2.04864 -5.31055 0
M  V30 2447 N 230.756 -0.215764 -5.80099 0
M  V30 2448 H 233.521 -2.06291 -2.17403 0
M  V30 2449 H 231.082 -1.21544 -1.06951 0
M  V30 2450 H 233.074 -0.344295 -4.03233 0
M  V30 2451 H 231.644 0.199375 -3.11964 0
M  V30 2452 H 230.864 -2.28459 -3.21248 0
M  V30 2453 H 232.152 -2.55535 -4.39976 0
M  V30 2454 H 231.55 0.372091 -5.64475 0
M  V30 2455 H 230.107 0.0444707 -6.51785 0
M  V30 2456 N 233.54 1.10788 -1.12088 0
M  V30 2457 C 234.503 2.15207 -0.788577 0
M  V30 2458 C 235.503 1.59609 0.195317 0
M  V30 2459 O 236.693 1.74174 -0.0300193 0
M  V30 2460 C 233.825 3.4047 -0.171174 0
M  V30 2461 H 235.018 2.46116 -1.71368 0
M  V30 2462 H 232.571 1.26089 -0.923652 0
M  V30 2463 H 233.306 3.15176 0.763832 0
M  V30 2464 H 233.091 3.82109 -0.879514 0
M  V30 2465 H 234.581 4.17576 0.04496 0
M  V30 2466 N 235.018 0.912232 1.28515 0
M  V30 2467 C 235.948 0.416403 2.29757 0
M  V30 2468 C 236.929 -0.515194 1.6211 0
M  V30 2469 O 238.114 -0.423253 1.89532 0
M  V30 2470 C 235.244 -0.34572 3.45575 0
M  V30 2471 C 234.198 0.496599 4.25109 0
M  V30 2472 C 233.524 -0.393771 5.33248 0
M  V30 2473 C 234.824 1.75307 4.92001 0
M  V30 2474 H 236.518 1.26249 2.7148 0
M  V30 2475 H 234.064 0.608515 1.30511 0
M  V30 2476 H 236.017 -0.703422 4.15488 0
M  V30 2477 H 234.741 -1.2257 3.02728 0
M  V30 2478 H 233.4 0.8368 3.56922 0
M  V30 2479 H 233.048 -1.27225 4.86644 0
M  V30 2480 H 232.748 0.166209 5.87365 0
M  V30 2481 H 234.272 -0.747389 6.06009 0
M  V30 2482 H 235.686 1.46437 5.54283 0
M  V30 2483 H 234.083 2.25534 5.56106 0
M  V30 2484 H 235.153 2.48176 4.16577 0
M  V30 2485 N 236.496 -1.42363 0.676048 0
M  V30 2486 C 237.907 -1.84649 0.275948 0
M  V30 2487 C 238.258 -1.56588 -1.18214 0
M  V30 2488 O 237.383 -1.02634 -1.90513 0
M  V30 2489 C 237.978 -3.35178 0.494053 0
M  V30 2490 C 236.537 -3.76109 0.148061 0
M  V30 2491 C 235.684 -2.65931 0.785891 0
M  V30 2492 H 238.635 -1.32192 0.878121 0
M  V30 2493 H 238.656 -3.79655 -0.25343 0
M  V30 2494 H 238.168 -3.55571 1.55535 0
M  V30 2495 H 236.269 -3.61323 -0.909742 0
M  V30 2496 H 236.382 -4.7546 0.589454 0
M  V30 2497 H 234.746 -2.53773 0.217113 0
M  V30 2498 H 235.529 -2.89146 1.85067 0
M  V30 2499 N 237.974 -0.419461 -1.51915 0
M  V30 2500 C 239.39 -0.0708431 -1.59443 0
M  V30 2501 C 239.59 1.41796 -1.43164 0
M  V30 2502 O 238.646 2.18596 -1.26381 0
M  V30 2503 C 239.959 -0.574991 -2.95151 0
M  V30 2504 C 241.507 -0.533867 -3.08413 0
M  V30 2505 C 241.982 -1.01469 -4.46618 0
M  V30 2506 N 243.473 -0.971939 -4.52888 0
M  V30 2507 C 244.208 -1.31505 -5.58116 0
M  V30 2508 N 243.704 -1.73014 -6.70849 0
M  V30 2509 N 245.497 -1.23436 -5.48379 0
M  V30 2510 H 237.648 -1.38836 -1.60743 0
M  V30 2511 H 239.911 -0.570998 -0.756747 0
M  V30 2512 H 239.617 -1.61597 -3.12377 0
M  V30 2513 H 239.491 0.00979777 -3.77199 0
M  V30 2514 H 241.878 0.498086 -2.90866 0
M  V30 2515 H 241.959 -1.15484 -2.28248 0
M  V30 2516 H 241.603 -2.04502 -4.6491 0
M  V30 2517 H 241.533 -0.370433 -5.25295 0
M  V30 2518 H 244.024 -0.666893 -3.71969 0
M  V30 2519 H 244.337 -1.97479 -7.47143 0
M  V30 2520 H 242.682 -1.76926 -6.72103 0
M  V30 2521 H 245.873 -0.908869 -4.59192 0
M  V30 2522 H 246.046 -1.50506 -6.30279 0
M  V30 2523 N 239.452 1.56882 -0.150215 0
M  V30 2524 C 240.868 1.58263 0.20617 0
M  V30 2525 C 241.068 1.16464 1.64434 0
M  V30 2526 O 240.124 0.866422 2.3717 0
M  V30 2527 C 241.437 3.00649 -0.0555025 0
M  V30 2528 C 242.985 3.12999 0.00795388 0
M  V30 2529 C 243.46 4.5744 -0.226429 0
M  V30 2530 N 244.951 4.62875 -0.173469 0
M  V30 2531 C 245.686 5.72454 -0.329288 0
M  V30 2532 N 245.182 6.90669 -0.543005 0
M  V30 2533 N 246.975 5.61467 -0.266666 0
M  V30 2534 H 239.126 1.82345 -1.08922 0
M  V30 2535 H 241.389 0.844149 -0.431413 0
M  V30 2536 H 241.095 3.3563 -1.05096 0
M  V30 2537 H 240.969 3.71337 0.66246 0
M  V30 2538 H 243.356 2.77857 0.993966 0
M  V30 2539 H 243.437 2.4479 -0.742388 0
M  V30 2540 H 243.081 4.93287 -1.20956 0
M  V30 2541 H 243.011 5.2378 0.544274 0
M  V30 2542 H 245.502 3.77898 -0.0130709 0
M  V30 2543 H 245.815 7.70045 -0.651922 0
M  V30 2544 H 244.16 6.92581 -0.579366 0
M  V30 2545 H 247.351 4.67992 -0.100441 0
M  V30 2546 H 247.524 6.46816 -0.391535 0
M  V30 2547 N 240.93 -0.123565 1.57115 0
M  V30 2548 C 241.86 -1.15309 2.03042 0
M  V30 2549 C 242.841 -1.43454 0.914061 0
M  V30 2550 O 244.026 -1.53973 1.18347 0
M  V30 2551 C 241.156 -2.48043 2.43089 0
M  V30 2552 C 240.11 -2.3437 3.58127 0
M  V30 2553 C 239.436 -3.72026 3.84059 0
M  V30 2554 C 240.736 -1.80804 4.90007 0
M  V30 2555 H 242.43 -0.771102 2.893 0
M  V30 2556 H 239.976 -0.369479 1.39179 0
M  V30 2557 H 241.929 -3.20311 2.73823 0
M  V30 2558 H 240.653 -2.88122 1.53796 0
M  V30 2559 H 239.312 -1.64551 3.27595 0
M  V30 2560 H 238.96 -4.09582 2.91979 0
M  V30 2561 H 238.66 -3.63732 4.6149 0
M  V30 2562 H 240.184 -4.45806 4.1724 0
M  V30 2563 H 241.598 -2.42886 5.19307 0
M  V30 2564 H 239.995 -1.83343 5.71407 0
M  V30 2565 H 241.065 -0.76528 4.78823 0
M  V30 2566 N 242.408 -1.52605 -0.393616 0
M  V30 2567 C 243.655 -1.67424 -1.1391 0
M  V30 2568 C 243.983 -0.411859 -1.90089 0
M  V30 2569 O 243.238 0.605626 -1.86093 0
M  V30 2570 C 243.537 -2.85721 -2.14705 0
M  V30 2571 C 243.203 -4.23342 -1.55218 0
M  V30 2572 C 241.865 -4.60771 -1.3872 0
M  V30 2573 C 244.217 -5.09041 -1.11924 0
M  V30 2574 C 241.545 -5.81563 -0.774689 0
M  V30 2575 C 243.897 -6.30452 -0.520853 0
M  V30 2576 C 242.561 -6.66617 -0.343134 0
M  V30 2577 H 241.831 -0.612648 -0.416826 0
M  V30 2578 H 244.478 -1.8674 -0.424315 0
M  V30 2579 H 242.783 -2.60803 -2.92385 0
M  V30 2580 H 244.48 -2.94382 -2.72288 0
M  V30 2581 H 241.07 -3.93855 -1.69045 0
M  V30 2582 H 245.254 -4.80695 -1.23473 0
M  V30 2583 H 240.51 -6.08196 -0.625154 0
M  V30 2584 H 244.684 -6.96175 -0.177065 0
M  V30 2585 H 242.311 -7.60083 0.133571 0
M  V30 2586 N 243.887 0.651787 -1.4349 0
M  V30 2587 C 244.819 1.77725 -1.44729 0
M  V30 2588 C 245.832 1.59141 -0.343231 0
M  V30 2589 O 247.021 1.67835 -0.607751 0
M  V30 2590 C 244.121 3.15172 -1.24579 0
M  V30 2591 C 243.294 3.60402 -2.47849 0
M  V30 2592 C 242.353 4.76656 -2.22902 0
M  V30 2593 O 241.379 4.86022 -2.96263 0
M  V30 2594 N 242.581 5.66958 -1.24656 0
M  V30 2595 H 245.346 1.77141 -2.41746 0
M  V30 2596 H 242.907 0.835678 -1.38665 0
M  V30 2597 H 244.899 3.90634 -1.0577 0
M  V30 2598 H 243.469 3.1052 -0.360015 0
M  V30 2599 H 242.689 2.75369 -2.82073 0
M  V30 2600 H 243.977 3.87368 -3.29884 0
M  V30 2601 H 243.375 5.62065 -0.640265 0
M  V30 2602 H 241.932 6.42135 -1.1183 0
M  V30 2603 N 245.365 1.30045 0.890287 0
M  V30 2604 C 246.776 1.16738 1.45702 0
M  V30 2605 C 247.127 -0.233939 1.948 0
M  V30 2606 O 246.252 -1.13021 1.84541 0
M  V30 2607 C 246.847 2.11313 2.64825 0
M  V30 2608 C 245.406 2.02001 3.17604 0
M  V30 2609 C 244.553 2.01699 1.90296 0
M  V30 2610 H 247.504 1.42392 0.700726 0
M  V30 2611 H 247.525 1.69086 3.40867 0
M  V30 2612 H 247.037 3.13294 2.2906 0
M  V30 2613 H 245.138 1.03142 3.5804 0
M  V30 2614 H 245.251 2.90128 3.81264 0
M  V30 2615 H 243.615 1.46427 2.08402 0
M  V30 2616 H 244.398 3.05402 1.56795 0
M  V30 2617 N 246.843 -1.10192 1.12674 0
M  V30 2618 C 247.773 -2.18652 0.819362 0
M  V30 2619 C 248.754 -1.68698 -0.217915 0
M  V30 2620 O 249.939 -1.94041 -0.0785581 0
M  V30 2621 C 247.069 -3.46202 0.27594 0
M  V30 2622 C 246.023 -4.09444 1.24656 0
M  V30 2623 C 245.349 -5.31725 0.563258 0
M  V30 2624 C 246.649 -4.52863 2.60217 0
M  V30 2625 H 248.343 -2.44622 1.72628 0
M  V30 2626 H 245.889 -1.17571 0.831451 0
M  V30 2627 H 247.842 -4.21372 0.0486149 0
M  V30 2628 H 246.566 -3.1973 -0.666331 0
M  V30 2629 H 245.225 -3.36284 1.45974 0
M  V30 2630 H 244.873 -5.0153 -0.384235 0
M  V30 2631 H 244.573 -5.74991 1.21075 0
M  V30 2632 H 246.097 -6.09624 0.34503 0
M  V30 2633 H 247.511 -5.19294 2.42913 0
M  V30 2634 H 245.908 -5.06986 3.21068 0
M  V30 2635 H 246.978 -3.65656 3.18471 0
M  V30 2636 N 248.321 -0.919034 -1.28029 0
M  V30 2637 C 249.549 -0.570971 -1.98866 0
M  V30 2638 C 249.964 0.848996 -1.68634 0
M  V30 2639 O 249.321 1.56307 -0.942036 0
M  V30 2640 C 249.372 -0.776876 -3.53054 0
M  V30 2641 O 249.093 -2.14097 -3.82222 0
M  V30 2642 C 250.594 -0.436356 -4.41147 0
M  V30 2643 H 247.814 -0.217175 -0.634883 0
M  V30 2644 H 250.358 -1.23368 -1.63097 0
M  V30 2645 H 248.513 -0.161085 -3.87065 0
M  V30 2646 H 248.927 -2.18455 -4.76841 0
M  V30 2647 H 250.401 -0.63117 -5.4838 0
M  V30 2648 H 250.878 0.627686 -4.34692 0
M  V30 2649 H 251.484 -1.02991 -4.12641 0
M  V30 2650 N 249.799 1.42003 -0.683588 0
M  V30 2651 C 250.749 2.27997 0.0121992 0
M  V30 2652 C 251.733 1.4156 0.764822 0
M  V30 2653 O 252.925 1.64935 0.642287 0
M  V30 2654 C 250.054 3.29706 0.956482 0
M  V30 2655 C 249.14 4.23625 0.200739 0
M  V30 2656 N 249.531 4.99448 -0.799087 0
M  V30 2657 C 247.829 4.43845 0.437937 0
M  V30 2658 C 248.53 5.68102 -1.25041 0
M  V30 2659 N 247.506 5.40511 -0.578648 0
M  V30 2660 H 251.308 2.84048 -0.754564 0
M  V30 2661 H 248.822 1.54071 -0.513398 0
M  V30 2662 H 250.819 3.90124 1.47 0
M  V30 2663 H 249.479 2.75216 1.72297 0
M  V30 2664 H 250.49 5.04303 -1.17893 0
M  V30 2665 H 247.167 4.00382 1.18325 0
M  V30 2666 H 248.557 6.38913 -2.07942 0
M  V30 2667 N 251.277 0.427512 1.51691 0
M  V30 2668 C 252.207 -0.3796 2.30394 0
M  V30 2669 C 253.188 -1.02982 1.35384 0
M  V30 2670 O 254.373 -1.03534 1.643 0
M  V30 2671 C 251.503 -1.48649 3.1388 0
M  V30 2672 C 250.457 -0.960294 4.17088 0
M  V30 2673 C 249.783 -2.16219 4.89033 0
M  V30 2674 C 251.083 -0.00153679 5.223 0
M  V30 2675 H 252.777 0.277164 2.98114 0
M  V30 2676 H 250.323 0.134739 1.43368 0
M  V30 2677 H 252.276 -2.05826 3.67714 0
M  V30 2678 H 251 -2.1714 2.43962 0
M  V30 2679 H 249.659 -0.410806 3.64291 0
M  V30 2680 H 249.307 -2.83307 4.15628 0
M  V30 2681 H 249.007 -1.81654 5.58816 0
M  V30 2682 H 250.531 -2.73968 5.45687 0
M  V30 2683 H 251.945 -0.482687 5.71264 0
M  V30 2684 H 250.342 0.256199 5.99553 0
M  V30 2685 H 251.412 0.938174 4.75738 0
M  V30 2686 N 252.755 -1.56801 0.158532 0
M  V30 2687 C 253.702 -2.17337 -0.776729 0
M  V30 2688 C 254.672 -1.1096 -1.23601 0
M  V30 2689 O 255.857 -1.39054 -1.30647 0
M  V30 2690 C 252.997 -2.80822 -2.00582 0
M  V30 2691 C 252.11 -4.01624 -1.59129 0
M  V30 2692 C 251.245 -4.53072 -2.77306 0
M  V30 2693 C 250.284 -5.66314 -2.32282 0
M  V30 2694 N 249.421 -6.12329 -3.43508 0
M  V30 2695 H 254.261 -2.96918 -0.253701 0
M  V30 2696 H 251.798 -1.46661 -0.113504 0
M  V30 2697 H 253.756 -3.15779 -2.72652 0
M  V30 2698 H 252.386 -2.03866 -2.50277 0
M  V30 2699 H 251.438 -3.72571 -0.767806 0
M  V30 2700 H 252.75 -4.83633 -1.2207 0
M  V30 2701 H 251.904 -4.90145 -3.57551 0
M  V30 2702 H 250.643 -3.70095 -3.17617 0
M  V30 2703 H 249.648 -5.28806 -1.5048 0
M  V30 2704 H 250.873 -6.51085 -1.93043 0
M  V30 2705 H 248.819 -5.32284 -3.83418 0
M  V30 2706 H 248.736 -6.89293 -3.105 0
M  V30 2707 H 250.004 -6.5405 -4.24075 0
M  V30 2708 N 254.233 0.115231 -1.57178 0
M  V30 2709 C 255.461 0.836437 -1.89239 0
M  V30 2710 C 255.876 1.73256 -0.750175 0
M  V30 2711 O 255.233 1.80357 0.278832 0
M  V30 2712 C 255.284 1.66671 -3.20785 0
M  V30 2713 O 255.005 0.806652 -4.3061 0
M  V30 2714 C 256.506 2.49274 -3.66575 0
M  V30 2715 H 253.726 0.240253 -0.626514 0
M  V30 2716 H 256.27 0.0984932 -2.04263 0
M  V30 2717 H 254.425 2.35737 -3.0742 0
M  V30 2718 H 254.839 1.37969 -5.06028 0
M  V30 2719 H 256.313 3.03055 -4.6137 0
M  V30 2720 H 256.79 3.26807 -2.93417 0
M  V30 2721 H 257.396 1.85443 -3.82741 0
M  V30 2722 N 255.711 1.52812 0.385517 0
M  V30 2723 C 256.641 1.80808 1.47752 0
M  V30 2724 C 257.622 0.660318 1.5676 0
M  V30 2725 O 258.807 0.908246 1.71652 0
M  V30 2726 C 255.937 1.98008 2.85324 0
M  V30 2727 C 254.891 3.13709 2.91154 0
M  V30 2728 C 254.217 3.16169 4.31209 0
M  V30 2729 C 255.517 4.52709 2.60483 0
M  V30 2730 H 257.211 2.72253 1.24573 0
M  V30 2731 H 254.757 1.31003 0.597839 0
M  V30 2732 H 256.71 2.16176 3.61726 0
M  V30 2733 H 255.434 1.03255 3.09848 0
M  V30 2734 H 254.093 2.95329 2.17201 0
M  V30 2735 H 253.741 2.19092 4.52778 0
M  V30 2736 H 253.441 3.93894 4.36029 0
M  V30 2737 H 254.965 3.36496 5.09512 0
M  V30 2738 H 256.379 4.71173 3.26602 0
M  V30 2739 H 254.776 5.32528 2.76648 0
M  V30 2740 H 255.846 4.59186 1.55809 0
M  V30 2741 N 257.189 -0.644168 1.43834 0
M  V30 2742 C 258.137 -1.77793 1.49974 0
M  V30 2743 C 259.131 -1.65253 0.372536 0
M  V30 2744 O 260.337 -1.7149 0.546924 0
M  V30 2745 H 256.712 -0.58675 0.47035 0
M  V30 2746 H 258.683 -1.69736 2.45423 0
M  V30 2747 C 257.432 -3.16087 1.4486 0
M  V30 2748 H 256.755 -3.26378 2.30905 0
M  V30 2749 H 258.195 -3.95349 1.53217 0
M  V30 2750 C 256.654 -3.36484 0.167463 0
M  V30 2751 O 257.184 -3.94298 -0.767609 0
M  V30 2752 N 255.39 -2.90504 0.0747556 0
M  V30 2753 H 254.937 -2.4364 0.836507 0
M  V30 2754 H 254.895 -3.04527 -0.781714 0
M  V30 2755 N 258.668 -1.30515 -0.883378 0
M  V30 2756 C 259.598 -1.19607 -2.00541 0
M  V30 2757 C 260.579 -0.086346 -1.69881 0
M  V30 2758 O 261.764 -0.268654 -1.92333 0
M  V30 2759 C 258.894 -0.888758 -3.35736 0
M  V30 2760 C 257.848 -1.95659 -3.8066 0
M  V30 2761 C 257.174 -1.50224 -5.13164 0
M  V30 2762 C 258.474 -3.36788 -3.99213 0
M  V30 2763 H 260.168 -2.13476 -2.09925 0
M  V30 2764 H 257.714 -1.02775 -1.00863 0
M  V30 2765 H 259.667 -0.799094 -4.13754 0
M  V30 2766 H 258.391 0.0856125 -3.26488 0
M  V30 2767 H 257.05 -2.03591 -3.04871 0
M  V30 2768 H 256.698 -0.516092 -5.00345 0
M  V30 2769 H 256.398 -2.2165 -5.44192 0
M  V30 2770 H 257.922 -1.42639 -5.93706 0
M  V30 2771 H 259.336 -3.31605 -4.67665 0
M  V30 2772 H 257.733 -4.06314 -4.41621 0
M  V30 2773 H 258.803 -3.78561 -3.03017 0
M  V30 2774 N 260.146 1.09593 -1.13257 0
M  V30 2775 C 261.109 2.14359 -0.811358 0
M  V30 2776 C 262.109 1.59808 0.178377 0
M  V30 2777 O 263.299 1.74132 -0.0484911 0
M  V30 2778 C 260.431 3.40269 -0.207276 0
M  V30 2779 H 261.624 2.44284 -1.73969 0
M  V30 2780 H 259.177 1.25102 -0.936973 0
M  V30 2781 H 259.912 3.15969 0.73036 0
M  V30 2782 H 259.697 3.81154 -0.919992 0
M  V30 2783 H 261.187 4.176 0.000667944 0
M  V30 2784 N 261.624 0.925811 1.2754 0
M  V30 2785 C 262.556 0.380753 2.26015 0
M  V30 2786 C 263.569 -0.487485 1.5533 0
M  V30 2787 O 264.758 -0.300413 1.75954 0
M  V30 2788 C 261.858 -0.473259 3.35579 0
M  V30 2789 C 261.031 0.375249 4.35787 0
M  V30 2790 C 260.09 -0.415809 5.24555 0
M  V30 2791 O 259.116 0.175834 5.68928 0
M  V30 2792 N 260.318 -1.71607 5.54555 0
M  V30 2793 H 263.083 1.22725 2.73421 0
M  V30 2794 H 260.644 0.793037 1.41147 0
M  V30 2795 H 262.636 -1.00949 3.91907 0
M  V30 2796 H 261.206 -1.2205 2.87789 0
M  V30 2797 H 260.426 1.09279 3.7875 0
M  V30 2798 H 261.714 0.955399 4.99749 0
M  V30 2799 H 261.112 -2.2191 5.20358 0
M  V30 2800 H 259.669 -2.19887 6.1359 0
M  V30 2801 N 263.102 -1.41638 0.69111 0
M  V30 2802 C 264.05 -2.32597 0.0115199 0
M  V30 2803 C 265.044 -1.5072 -0.773296 0
M  V30 2804 O 266.25 -1.66685 -0.67942 0
M  V30 2805 H 262.625 -0.751849 -0.0150746 0
M  V30 2806 H 264.596 -2.87593 0.795791 0
M  V30 2807 C 263.345 -3.35467 -0.914172 0
M  V30 2808 H 262.668 -3.9852 -0.319687 0
M  V30 2809 H 264.108 -4.01662 -1.35808 0
M  V30 2810 C 262.567 -2.69004 -2.02826 0
M  V30 2811 O 263.097 -2.53444 -3.11655 0
M  V30 2812 N 261.303 -2.2777 -1.80469 0
M  V30 2813 H 260.85 -2.40626 -0.919615 0
M  V30 2814 H 260.808 -1.83635 -2.55197 0
M  V30 2815 N 264.58 -0.43555 -1.51462 0
M  V30 2816 C 265.51 0.367376 -2.30592 0
M  V30 2817 C 266.491 1.02263 -1.35928 0
M  V30 2818 O 267.676 1.02661 -1.64847 0
M  V30 2819 C 264.806 1.46983 -3.14664 0
M  V30 2820 C 263.76 0.938161 -4.17591 0
M  V30 2821 C 263.086 2.13622 -4.90173 0
M  V30 2822 C 264.386 -0.0261621 -5.22293 0
M  V30 2823 H 266.08 -0.292969 -2.97963 0
M  V30 2824 H 263.626 -0.14234 -1.43295 0
M  V30 2825 H 265.579 2.03873 -3.688 0
M  V30 2826 H 264.303 2.15843 -2.4511 0
M  V30 2827 H 262.962 0.391481 -3.64504 0
M  V30 2828 H 262.61 2.81098 -4.17124 0
M  V30 2829 H 262.31 1.78688 -5.59772 0
M  V30 2830 H 263.834 2.7107 -5.47132 0
M  V30 2831 H 265.248 0.452384 -5.71512 0
M  V30 2832 H 263.645 -0.287992 -5.99409 0
M  V30 2833 H 264.715 -0.963391 -4.75233 0
M  V30 2834 N 266.058 1.56714 -0.166846 0
M  V30 2835 C 266.988 2.20754 0.760913 0
M  V30 2836 C 267.969 1.16178 1.24244 0
M  V30 2837 O 269.154 1.44592 1.29641 0
M  V30 2838 C 266.284 2.84478 1.99223 0
M  V30 2839 C 265.238 3.95053 1.64672 0
M  V30 2840 C 264.564 4.45805 2.95232 0
M  V30 2841 C 265.864 5.14865 0.878155 0
M  V30 2842 H 267.558 2.98537 0.22713 0
M  V30 2843 H 265.104 1.43596 0.107805 0
M  V30 2844 H 267.057 3.27951 2.64624 0
M  V30 2845 H 265.781 2.04056 2.55007 0
M  V30 2846 H 264.44 3.52228 1.01641 0
M  V30 2847 H 264.088 3.62181 3.49047 0
M  V30 2848 H 263.788 5.204 2.7287 0
M  V30 2849 H 265.312 4.91962 3.6167 0
M  V30 2850 H 266.726 5.55059 1.43466 0
M  V30 2851 H 265.123 5.95348 0.753738 0
M  V30 2852 H 266.193 4.84735 -0.126377 0
M  V30 2853 N 267.536 -0.106894 1.57237 0
M  V30 2854 C 268.499 -1.11466 2.0027 0
M  V30 2855 C 269.499 -1.33623 0.894519 0
M  V30 2856 O 270.689 -1.29935 1.16028 0
M  V30 2857 C 267.821 -2.46646 2.35327 0
M  V30 2858 H 269.014 -0.744516 2.90512 0
M  V30 2859 H 266.567 -0.351576 1.52295 0
M  V30 2860 H 267.302 -2.88558 1.48003 0
M  V30 2861 H 267.087 -2.31915 3.16161 0
M  V30 2862 H 268.577 -3.19151 2.69318 0
M  V30 2863 N 269.014 -1.53014 -0.377408 0
M  V30 2864 C 269.946 -1.74884 -1.48149 0
M  V30 2865 C 270.959 -0.629433 -1.5014 0
M  V30 2866 O 272.148 -0.905416 -1.53833 0
M  V30 2867 C 269.248 -1.80299 -2.86959 0
M  V30 2868 C 268.421 -3.09776 -3.08801 0
M  V30 2869 C 267.48 -3.06586 -4.27658 0
M  V30 2870 O 266.506 -3.80419 -4.23403 0
M  V30 2871 N 267.708 -2.26578 -5.34455 0
M  V30 2872 H 270.473 -2.70147 -1.29771 0
M  V30 2873 H 268.034 -1.51646 -0.56703 0
M  V30 2874 H 270.026 -1.75657 -3.64591 0
M  V30 2875 H 268.596 -0.92372 -2.98641 0
M  V30 2876 H 267.816 -3.27815 -2.18931 0
M  V30 2877 H 269.104 -3.95366 -3.20255 0
M  V30 2878 H 268.502 -1.66081 -5.40771 0
M  V30 2879 H 267.059 -2.27766 -6.10709 0
M  V30 2880 N 270.492 0.636531 -1.44174 0
M  V30 2881 C 271.422 1.76003 -1.53444 0
M  V30 2882 C 272.403 1.65619 -0.387841 0
M  V30 2883 O 273.588 1.84461 -0.607257 0
M  V30 2884 C 270.718 3.14511 -1.4731 0
M  V30 2885 C 269.672 3.39677 -2.60391 0
M  V30 2886 C 268.998 4.78159 -2.39308 0
M  V30 2887 C 270.298 3.32772 -4.02567 0
M  V30 2888 H 271.992 1.68501 -2.47483 0
M  V30 2889 H 269.538 0.809237 -1.19111 0
M  V30 2890 H 271.491 3.92878 -1.52397 0
M  V30 2891 H 270.215 3.22783 -0.49785 0
M  V30 2892 H 268.874 2.63688 -2.54684 0
M  V30 2893 H 268.522 4.83128 -1.39988 0
M  V30 2894 H 268.222 4.95956 -3.15122 0
M  V30 2895 H 269.746 5.58762 -2.46205 0
M  V30 2896 H 271.16 4.01051 -4.09672 0
M  V30 2897 H 269.557 3.62104 -4.7854 0
M  V30 2898 H 270.627 2.30669 -4.2652 0
M  V30 2899 N 271.97 1.30982 0.876444 0
M  V30 2900 C 273.381 1.18277 1.44456 0
M  V30 2901 C 273.732 -0.213265 1.95037 0
M  V30 2902 O 272.857 -1.11057 1.85729 0
M  V30 2903 C 273.452 2.1411 2.62569 0
M  V30 2904 C 272.011 2.05358 3.15444 0
M  V30 2905 C 271.158 2.03706 1.88146 0
M  V30 2906 H 274.109 1.43127 0.685584 0
M  V30 2907 H 274.13 1.72692 3.39054 0
M  V30 2908 H 273.642 3.15706 2.25724 0
M  V30 2909 H 271.743 1.06934 3.56926 0
M  V30 2910 H 271.856 2.94156 3.78166 0
M  V30 2911 H 270.22 1.48629 2.06837 0
M  V30 2912 H 271.003 3.07047 1.53547 0
M  V30 2913 N 273.449 -1.08991 1.13837 0
M  V30 2914 C 274.359 -2.19301 0.833333 0
M  V30 2915 C 275.375 -1.73026 -0.183847 0
M  V30 2916 O 276.551 -2.01395 -0.0138092 0
M  V30 2917 C 273.616 -3.45323 0.308651 0
M  V30 2918 C 272.677 -4.06255 1.38764 0
M  V30 2919 C 271.91 -5.26262 0.887896 0
M  V30 2920 O 272.133 -5.69747 -0.27287 0
M  V30 2921 O 271.067 -5.78435 1.66421 0
M  V30 2922 H 274.893 -2.47854 1.75506 0
M  V30 2923 H 272.478 -1.18012 0.916166 0
M  V30 2924 H 274.36 -4.21394 0.0216739 0
M  V30 2925 H 273.035 -3.18362 -0.585431 0
M  V30 2926 H 271.942 -3.318 1.72799 0
M  V30 2927 H 273.275 -4.37452 2.25602 0
M  V30 2928 N 274.927 -0.932562 -1.27047 0
M  V30 2929 C 275.837 -0.441219 -2.30414 0
M  V30 2930 C 276.853 0.480525 -1.67233 0
M  V30 2931 O 278.029 0.362151 -1.98117 0
M  V30 2932 C 275.094 0.293651 -3.45454 0
M  V30 2933 C 274.155 -0.663601 -4.2414 0
M  V30 2934 C 273.388 0.0362932 -5.33688 0
M  V30 2935 O 273.611 1.2548 -5.56427 0
M  V30 2936 O 272.545 -0.638015 -5.98509 0
M  V30 2937 H 276.371 -1.29962 -2.74488 0
M  V30 2938 H 273.956 -0.6981 -1.32087 0
M  V30 2939 H 275.838 0.707951 -4.15411 0
M  V30 2940 H 274.513 1.12758 -3.03426 0
M  V30 2941 H 273.42 -1.12768 -3.56699 0
M  V30 2942 H 274.753 -1.46489 -4.69896 0
M  V30 2943 N 276.405 1.4127 -0.698611 0
M  V30 2944 C 277.335 2.33447 -0.049629 0
M  V30 2945 C 278.316 1.51982 0.763898 0
M  V30 2946 O 279.501 1.80509 0.716257 0
M  V30 2947 C 276.631 3.35828 0.885267 0
M  V30 2948 C 275.585 4.27627 0.178613 0
M  V30 2949 C 274.911 5.20406 1.22807 0
M  V30 2950 C 276.211 5.13459 -0.956933 0
M  V30 2951 H 277.905 2.87966 -0.81951 0
M  V30 2952 H 275.451 1.38461 -0.395538 0
M  V30 2953 H 277.404 3.9924 1.34854 0
M  V30 2954 H 276.128 2.79666 1.68685 0
M  V30 2955 H 274.787 3.65643 -0.26466 0
M  V30 2956 H 274.435 4.60558 2.02226 0
M  V30 2957 H 274.135 5.82661 0.760239 0
M  V30 2958 H 275.659 5.86695 1.69179 0
M  V30 2959 H 277.073 5.70421 -0.573805 0
M  V30 2960 H 275.47 5.8467 -1.35205 0
M  V30 2961 H 276.54 4.50443 -1.79524 0
M  V30 2962 N 277.883 0.443576 1.51229 0
M  V30 2963 C 279.13 -0.120796 2.02139 0
M  V30 2964 C 279.458 -1.42166 1.32736 0
M  V30 2965 O 278.713 -1.90849 0.43301 0
M  V30 2966 C 279.012 -0.380579 3.55368 0
M  V30 2967 C 278.678 0.83523 4.43097 0
M  V30 2968 C 277.34 1.16864 4.66794 0
M  V30 2969 C 279.692 1.64601 4.94526 0
M  V30 2970 C 277.02 2.31339 5.39165 0
M  V30 2971 C 279.372 2.78181 5.68153 0
M  V30 2972 C 278.036 3.11969 5.90112 0
M  V30 2973 H 277.306 -0.0442023 0.73968 0
M  V30 2974 H 279.953 0.592046 1.82118 0
M  V30 2975 H 278.258 -1.17538 3.73754 0
M  V30 2976 H 279.955 -0.830777 3.923 0
M  V30 2977 H 276.545 0.565437 4.24854 0
M  V30 2978 H 280.729 1.40163 4.76097 0
M  V30 2979 H 275.985 2.57823 5.5438 0
M  V30 2980 H 280.159 3.41371 6.06992 0
M  V30 2981 H 277.786 4.00784 6.45969 0
M  V30 2982 N 279.361 -1.56624 0.175154 0
M  V30 2983 C 280.311 -2.14747 -0.766004 0
M  V30 2984 C 281.295 -1.08275 -1.19018 0
M  V30 2985 O 282.487 -1.34388 -1.15191 0
M  V30 2986 C 279.616 -2.79478 -1.99366 0
M  V30 2987 C 278.702 -3.93114 -1.5913 0
M  V30 2988 N 279.093 -4.97752 -0.89872 0
M  V30 2989 C 277.391 -4.04345 -1.88204 0
M  V30 2990 C 278.092 -5.77473 -0.700012 0
M  V30 2991 N 277.068 -5.29207 -1.24263 0
M  V30 2992 H 280.87 -2.93015 -0.22793 0
M  V30 2993 H 278.384 -1.6238 -0.0253843 0
M  V30 2994 H 280.381 -3.19498 -2.67818 0
M  V30 2995 H 279.041 -2.02692 -2.53665 0
M  V30 2996 H 280.052 -5.14903 -0.556347 0
M  V30 2997 H 276.729 -3.38667 -2.44153 0
M  V30 2998 H 278.119 -6.71728 -0.152047 0
M  V30 2999 N 280.839 0.0985539 -1.57292 0
M  V30 3000 C 282.25 0.653457 -1.74891 0
M  V30 3001 C 282.601 1.7929 -0.796838 0
M  V30 3002 O 281.726 2.16385 0.0254886 0
M  V30 3003 C 282.321 1.19216 -3.17133 0
M  V30 3004 C 280.88 1.69316 -3.36168 0
M  V30 3005 C 280.027 0.601294 -2.70702 0
M  V30 3006 H 282.978 -0.127497 -1.58187 0
M  V30 3007 H 282.999 2.06154 -3.19814 0
M  V30 3008 H 282.511 0.362635 -3.86402 0
M  V30 3009 H 280.612 2.5468 -2.71972 0
M  V30 3010 H 280.725 1.78853 -4.44464 0
M  V30 3011 H 279.089 1.0399 -2.32504 0
M  V30 3012 H 279.872 -0.217592 -3.4261 0
M  V30 3013 N 282.317 1.53212 0.369288 0
M  V30 3014 C 283.247 1.82365 1.45826 0
M  V30 3015 C 284.228 0.676907 1.56051 0
M  V30 3016 O 285.413 0.926401 1.70679 0
M  V30 3017 C 282.543 2.01023 2.83208 0
M  V30 3018 C 281.497 3.1678 2.8781 0
M  V30 3019 C 280.823 3.20724 4.27832 0
M  V30 3020 C 282.123 4.55447 2.55667 0
M  V30 3021 H 283.817 2.73559 1.21678 0
M  V30 3022 H 281.363 1.3163 0.583911 0
M  V30 3023 H 283.316 2.20001 3.59413 0
M  V30 3024 H 282.04 1.06536 3.08736 0
M  V30 3025 H 280.699 2.97616 2.14056 0
M  V30 3026 H 280.347 2.23882 4.50429 0
M  V30 3027 H 280.047 3.98496 4.31827 0
M  V30 3028 H 281.571 3.41881 5.05915 0
M  V30 3029 H 282.985 4.74611 3.21586 0
M  V30 3030 H 281.382 5.35432 2.70984 0
M  V30 3031 H 282.452 4.60812 1.5093 0
M  V30 3032 N 283.795 -0.628877 1.44509 0
M  V30 3033 C 285.023 -1.41554 1.50897 0
M  V30 3034 C 285.438 -1.8832 0.134564 0
M  V30 3035 O 284.795 -1.60969 -0.859965 0
M  V30 3036 C 284.846 -2.63435 2.47556 0
M  V30 3037 O 284.567 -2.18619 3.79654 0
M  V30 3038 C 286.068 -3.56537 2.63431 0
M  V30 3039 H 283.288 -0.434044 0.511709 0
M  V30 3040 H 285.832 -0.768895 1.89495 0
M  V30 3041 H 283.987 -3.24187 2.12089 0
M  V30 3042 H 284.401 -2.97652 4.31861 0
M  V30 3043 H 285.875 -4.38657 3.35088 0
M  V30 3044 H 286.352 -4.05493 1.68738 0
M  V30 3045 H 286.958 -3.01653 2.9981 0
M  V30 3046 N 285.273 -1.31445 -0.869486 0
M  V30 3047 C 286.498 -1.24256 -1.66058 0
M  V30 3048 C 286.923 0.188928 -1.87149 0
M  V30 3049 O 286.281 1.13522 -1.4136 0
M  V30 3050 C 286.329 -1.9924 -3.00559 0
M  V30 3051 O 285.433 -1.33007 -3.90362 0
M  V30 3052 H 284.774 -0.428973 -0.506831 0
M  V30 3053 H 287.304 -1.73521 -1.08404 0
M  V30 3054 H 287.314 -2.08854 -3.50491 0
M  V30 3055 H 285.989 -3.03342 -2.84528 0
M  V30 3056 H 284.566 -1.31848 -3.48813 0
M  V30 3057 N 286.751 1.08385 -1.14413 0
M  V30 3058 C 287.681 2.17321 -0.854044 0
M  V30 3059 C 288.662 1.69024 0.191049 0
M  V30 3060 O 289.847 1.94141 0.0476779 0
M  V30 3061 C 286.977 3.45719 -0.330983 0
M  V30 3062 C 285.931 4.07409 -1.31155 0
M  V30 3063 C 285.257 5.30762 -0.64778 0
M  V30 3064 C 286.557 4.48665 -2.67388 0
M  V30 3065 H 288.251 2.41845 -1.76498 0
M  V30 3066 H 285.797 1.16233 -0.850051 0
M  V30 3067 H 287.75 4.21241 -0.115645 0
M  V30 3068 H 286.474 3.2075 0.615381 0
M  V30 3069 H 285.133 3.33919 -1.51306 0
M  V30 3070 H 284.781 5.02078 0.304398 0
M  V30 3071 H 284.481 5.72992 -1.30207 0
M  V30 3072 H 286.005 6.08998 -0.441972 0
M  V30 3073 H 287.419 5.15364 -2.51143 0
M  V30 3074 H 285.816 5.01814 -3.29093 0
M  V30 3075 H 286.886 3.60543 -3.24248 0
M  V30 3076 N 288.23 0.939286 1.26551 0
M  V30 3077 C 289.162 0.404704 2.25599 0
M  V30 3078 C 290.175 -0.470983 1.55838 0
M  V30 3079 O 291.364 -0.281734 1.76263 0
M  V30 3080 C 288.464 -0.43764 3.36062 0
M  V30 3081 C 287.637 0.421449 4.35365 0
M  V30 3082 C 286.696 -0.36015 5.24966 0
M  V30 3083 O 285.722 0.236167 5.6871 0
M  V30 3084 N 286.924 -1.65715 5.56344 0
M  V30 3085 H 289.689 1.25618 2.72103 0
M  V30 3086 H 287.25 0.807963 1.40298 0
M  V30 3087 H 289.242 -0.967866 3.92956 0
M  V30 3088 H 287.812 -1.18991 2.89067 0
M  V30 3089 H 287.032 1.1329 3.7757 0
M  V30 3090 H 288.32 1.00835 4.98708 0
M  V30 3091 H 287.718 -2.16378 5.22682 0
M  V30 3092 H 286.275 -2.13366 6.15888 0
M  V30 3093 N 289.708 -1.40897 0.706093 0
M  V30 3094 C 290.936 -2.05373 0.250887 0
M  V30 3095 C 291.351 -1.53172 -1.10381 0
M  V30 3096 O 290.708 -0.684305 -1.69185 0
M  V30 3097 C 290.759 -3.6088 0.211571 0
M  V30 3098 O 290.48 -4.11153 1.51276 0
M  V30 3099 C 291.981 -4.42517 -0.263346 0
M  V30 3100 H 289.201 -0.66115 0.114552 0
M  V30 3101 H 291.745 -1.80479 0.961635 0
M  V30 3102 H 289.9 -3.84777 -0.450073 0
M  V30 3103 H 290.314 -5.05279 1.40689 0
M  V30 3104 H 291.788 -5.51479 -0.239718 0
M  V30 3105 H 292.265 -4.19396 -1.30397 0
M  V30 3106 H 292.871 -4.23708 0.367677 0
M  V30 3107 N 291.186 -0.45159 -1.50991 0
M  V30 3108 C 292.116 0.342898 -2.30969 0
M  V30 3109 C 293.097 1.00815 -1.37005 0
M  V30 3110 O 294.282 1.00907 -1.65926 0
M  V30 3111 C 291.412 1.43637 -3.16205 0
M  V30 3112 C 290.366 0.893818 -4.18563 0
M  V30 3113 C 289.692 2.08411 -4.92411 0
M  V30 3114 C 290.992 -0.0815568 -5.22236 0
M  V30 3115 H 292.686 -0.324556 -2.97636 0
M  V30 3116 H 290.232 -0.157531 -1.43136 0
M  V30 3117 H 292.185 1.9995 -3.70942 0
M  V30 3118 H 290.909 2.13232 -2.47386 0
M  V30 3119 H 289.568 0.352798 -3.64898 0
M  V30 3120 H 289.216 2.76658 -4.20082 0
M  V30 3121 H 288.916 1.72741 -5.61636 0
M  V30 3122 H 290.44 2.65251 -5.49976 0
M  V30 3123 H 291.854 0.391742 -5.7196 0
M  V30 3124 H 290.251 -0.351551 -5.99069 0
M  V30 3125 H 291.321 -1.01374 -4.74185 0
M  V30 3126 N 292.664 1.56529 -0.183458 0
M  V30 3127 C 293.611 2.18546 0.742055 0
M  V30 3128 C 294.581 1.12912 1.2182 0
M  V30 3129 O 295.766 1.41115 1.28418 0
M  V30 3130 C 292.906 2.83977 1.96089 0
M  V30 3131 C 292.019 4.04105 1.52719 0
M  V30 3132 C 291.154 4.57427 2.70063 0
M  V30 3133 C 290.193 5.69938 2.23243 0
M  V30 3134 N 289.33 6.17717 3.33722 0
M  V30 3135 H 294.17 2.97284 0.206432 0
M  V30 3136 H 291.707 1.46823 0.0901571 0
M  V30 3137 H 293.665 3.20077 2.67594 0
M  V30 3138 H 292.295 2.07822 2.47002 0
M  V30 3139 H 291.347 3.73745 0.708436 0
M  V30 3140 H 292.659 4.85513 1.1436 0
M  V30 3141 H 291.813 4.95772 3.49708 0
M  V30 3142 H 290.552 3.75101 3.11689 0
M  V30 3143 H 289.557 5.31133 1.42048 0
M  V30 3144 H 290.782 6.54073 1.82661 0
M  V30 3145 H 288.728 5.38317 3.74902 0
M  V30 3146 H 288.645 6.94146 2.99495 0
M  V30 3147 H 289.913 6.60713 4.13616 0
M  V30 3148 N 294.142 -0.090211 1.57342 0
M  V30 3149 C 295.072 -1.10976 2.05443 0
M  V30 3150 C 296.053 -1.41482 0.944284 0
M  V30 3151 O 297.238 -1.51428 1.21586 0
M  V30 3152 C 294.368 -2.42831 2.48295 0
M  V30 3153 C 293.322 -2.26721 3.63018 0
M  V30 3154 C 292.648 -3.63796 3.91863 0
M  V30 3155 C 293.948 -1.7037 4.93732 0
M  V30 3156 H 295.642 -0.709564 2.9087 0
M  V30 3157 H 293.188 -0.339874 1.39932 0
M  V30 3158 H 295.141 -3.14431 2.80555 0
M  V30 3159 H 293.865 -2.84795 1.59873 0
M  V30 3160 H 292.524 -1.57565 3.31012 0
M  V30 3161 H 292.172 -4.03297 3.00601 0
M  V30 3162 H 291.872 -3.53861 4.69101 0
M  V30 3163 H 293.396 -4.36855 4.26603 0
M  V30 3164 H 294.81 -2.31816 5.24342 0
M  V30 3165 H 293.207 -1.71181 5.75167 0
M  V30 3166 H 294.277 -0.663542 4.80339 0
M  V30 3167 N 295.62 -1.53406 -0.361157 0
M  V30 3168 C 296.845 -1.74024 -1.12829 0
M  V30 3169 C 297.27 -0.470069 -1.82132 0
M  V30 3170 O 296.628 0.57619 -1.719 0
M  V30 3171 C 296.676 -2.90903 -2.13091 0
M  V30 3172 O 295.78 -2.59821 -3.20261 0
M  V30 3173 H 295.121 -0.577804 -0.327168 0
M  V30 3174 H 297.651 -2.00307 -0.41693 0
M  V30 3175 H 297.661 -3.17194 -2.56616 0
M  V30 3176 H 296.336 -3.83034 -1.62042 0
M  V30 3177 H 294.913 -2.44362 -2.81677 0
M  V30 3178 N 297.098 0.621204 -1.44841 0
M  V30 3179 C 298.046 1.75385 -1.52784 0
M  V30 3180 C 299.04 1.64639 -0.398779 0
M  V30 3181 O 300.246 1.70598 -0.574137 0
M  V30 3182 H 296.621 0.579193 -0.479625 0
M  V30 3183 H 298.592 1.6581 -2.48092 0
M  V30 3184 C 297.341 3.13742 -1.4987 0
M  V30 3185 H 296.664 3.22663 -2.36069 0
M  V30 3186 H 298.104 3.92861 -1.59487 0
M  V30 3187 C 296.563 3.36175 -0.220973 0
M  V30 3188 O 297.093 3.95469 0.704782 0
M  V30 3189 N 295.299 2.90348 -0.120963 0
M  V30 3190 H 294.846 2.42278 -0.875162 0
M  V30 3191 H 294.804 3.05732 0.733168 0
M  V30 3192 N 298.576 1.31904 0.862503 0
M  V30 3193 C 299.524 1.20125 1.9918 0
M  V30 3194 C 300.518 0.107824 1.69056 0
M  V30 3195 O 301.724 0.270223 1.7796 0
M  V30 3196 H 298.099 0.372148 0.65346 0
M  V30 3197 H 300.07 2.15652 2.06244 0
M  V30 3198 C 298.819 0.933099 3.34946 0
M  V30 3199 H 298.142 1.76664 3.5865 0
M  V30 3200 H 299.582 0.890892 4.14535 0
M  V30 3201 C 298.041 -0.364172 3.34926 0
M  V30 3202 O 298.571 -1.37858 3.77304 0
M  V30 3203 N 296.777 -0.383362 2.8806 0
M  V30 3204 H 296.324 0.442651 2.53768 0
M  V30 3205 H 296.282 -1.25123 2.8843 0
M  V30 3206 N 300.054 -1.07777 1.14986 0
M  V30 3207 C 301.017 -2.13041 0.845358 0
M  V30 3208 C 302.017 -1.60071 -0.152931 0
M  V30 3209 O 303.207 -1.74033 0.0761879 0
M  V30 3210 C 300.339 -3.39896 0.261383 0
M  V30 3211 H 301.532 -2.41485 1.77834 0
M  V30 3212 H 299.085 -1.23595 0.956757 0
M  V30 3213 H 299.82 -3.17091 -0.68 0
M  V30 3214 H 299.605 -3.79642 0.980514 0
M  V30 3215 H 301.095 -4.17548 0.0657687 0
M  V30 3216 N 301.532 -0.945985 -1.26051 0
M  V30 3217 C 302.462 -0.477172 -2.28572 0
M  V30 3218 C 303.443 0.472032 -1.63419 0
M  V30 3219 O 304.628 0.372853 -1.90587 0
M  V30 3220 C 301.758 0.253975 -3.4637 0
M  V30 3221 C 300.712 -0.609135 -4.23643 0
M  V30 3222 C 300.038 0.252252 -5.34105 0
M  V30 3223 C 301.338 -1.8829 -4.8718 0
M  V30 3224 H 303.032 -1.33402 -2.68038 0
M  V30 3225 H 300.578 -0.642904 -1.28852 0
M  V30 3226 H 302.531 0.593016 -4.17207 0
M  V30 3227 H 301.255 1.145 -3.05871 0
M  V30 3228 H 299.914 -0.931138 -3.54578 0
M  V30 3229 H 299.562 1.14278 -4.89846 0
M  V30 3230 H 299.262 -0.32188 -5.86718 0
M  V30 3231 H 300.786 0.586454 -6.07777 0
M  V30 3232 H 302.2 -1.61081 -5.50205 0
M  V30 3233 H 300.597 -2.40199 -5.49931 0
M  V30 3234 H 301.667 -2.59134 -4.09851 0
M  V30 3235 N 303.011 1.40521 -0.713556 0
M  V30 3236 C 304.236 2.05759 -0.26035 0
M  V30 3237 C 304.661 1.53403 1.08854 0
M  V30 3238 O 304.019 0.668535 1.68524 0
M  V30 3239 C 304.067 3.59745 -0.248122 0
M  V30 3240 O 303.171 4.05123 0.77131 0
M  V30 3241 H 302.512 0.652564 -0.122703 0
M  V30 3242 H 305.042 1.79958 -0.973467 0
M  V30 3243 H 305.052 4.07911 -0.0851129 0
M  V30 3244 H 303.727 3.97218 -1.2325 0
M  V30 3245 H 302.304 3.68422 0.57619 0
M  V30 3246 N 304.489 0.459591 1.5075 0
M  V30 3247 C 305.737 -0.0991532 2.01857 0
M  V30 3248 C 306.058 -1.41247 1.34441 0
M  V30 3249 O 305.328 -1.89775 0.486022 0
M  V30 3250 H 303.908 -0.039633 0.745948 0
M  V30 3251 H 306.57 0.607387 1.85194 0
M  V30 3252 H 305.666 -0.258998 3.11023 0
M  V30 3253 N 305.967 -1.56429 0.191757 0
M  V30 3254 C 306.897 -2.21937 -0.725696 0
M  V30 3255 C 307.878 -1.1814 -1.2238 0
M  V30 3256 O 309.063 -1.46636 -1.27325 0
M  V30 3257 C 306.193 -2.87611 -1.94672 0
M  V30 3258 C 305.147 -3.97623 -1.58366 0
M  V30 3259 C 304.473 -4.50446 -2.88102 0
M  V30 3260 C 305.773 -5.16197 -0.796133 0
M  V30 3261 H 307.467 -2.98861 -0.179606 0
M  V30 3262 H 305.013 -1.43749 -0.0849464 0
M  V30 3263 H 306.966 -3.3212 -2.59373 0
M  V30 3264 H 305.69 -2.08087 -2.51728 0
M  V30 3265 H 304.349 -3.53801 -0.960247 0
M  V30 3266 H 303.997 -3.67688 -3.43241 0
M  V30 3267 H 303.697 -5.24675 -2.64556 0
M  V30 3268 H 305.221 -4.97654 -3.53798 0
M  V30 3269 H 306.635 -5.57271 -1.34618 0
M  V30 3270 H 305.032 -5.96471 -0.658928 0
M  V30 3271 H 306.102 -4.84473 0.203478 0
M  V30 3272 N 307.445 0.0818655 -1.57387 0
M  V30 3273 C 308.856 0.634871 -1.75574 0
M  V30 3274 C 309.207 1.78435 -0.815809 0
M  V30 3275 O 308.332 2.164 0.0025366 0
M  V30 3276 C 308.927 1.15845 -3.18379 0
M  V30 3277 C 307.486 1.65741 -3.37945 0
M  V30 3278 C 306.633 0.572549 -2.71325 0
M  V30 3279 H 309.584 -0.144268 -1.58043 0
M  V30 3280 H 309.605 2.02751 -3.21982 0
M  V30 3281 H 309.117 0.321631 -3.86765 0
M  V30 3282 H 307.218 2.51781 -2.74658 0
M  V30 3283 H 307.331 1.74129 -4.46336 0
M  V30 3284 H 305.695 1.01518 -2.33594 0
M  V30 3285 H 306.478 -0.253918 -3.4236 0
M  V30 3286 N 308.923 1.53595 0.353017 0
M  V30 3287 C 309.855 1.77219 1.45348 0
M  V30 3288 C 310.868 0.65324 1.49119 0
M  V30 3289 O 312.057 0.929775 1.52373 0
M  V30 3290 C 309.157 1.84841 2.84055 0
M  V30 3291 C 308.33 3.14649 3.03833 0
M  V30 3292 C 307.389 3.13351 4.22727 0
M  V30 3293 O 306.415 3.87107 4.17297 0
M  V30 3294 N 307.617 2.35052 5.30783 0
M  V30 3295 H 310.382 2.72178 1.25457 0
M  V30 3296 H 307.943 1.52528 0.542833 0
M  V30 3297 H 309.935 1.81435 3.61751 0
M  V30 3298 H 308.505 0.971114 2.97133 0
M  V30 3299 H 307.725 3.31256 2.13689 0
M  V30 3300 H 309.013 4.00411 3.13925 0
M  V30 3301 H 308.411 1.74663 5.38061 0
M  V30 3302 H 306.968 2.37453 6.07009 0
M  V30 3303 N 310.401 -0.613514 1.45168 0
M  V30 3304 C 311.649 -1.36997 1.48581 0
M  V30 3305 C 311.97 -1.94589 0.126545 0
M  V30 3306 O 311.24 -1.76816 -0.843372 0
M  V30 3307 H 309.82 -0.508558 0.547154 0
M  V30 3308 H 312.482 -0.720853 1.81079 0
M  V30 3309 H 311.578 -2.1924 2.22127 0
M  V30 3310 N 311.879 -1.3236 -0.855495 0
M  V30 3311 C 313.125 -1.23054 -1.612 0
M  V30 3312 C 313.458 0.207404 -1.93089 0
M  V30 3313 O 312.733 1.14432 -1.57275 0
M  V30 3314 C 313.016 -2.08937 -2.93287 0
M  V30 3315 C 312.869 -3.61105 -2.68185 0
M  V30 3316 C 314.188 -1.94986 -3.94549 0
M  V30 3317 H 311.307 -0.448364 -0.584926 0
M  V30 3318 H 313.949 -1.62297 -0.987917 0
M  V30 3319 H 312.099 -1.75599 -3.46551 0
M  V30 3320 H 313.771 -4.04652 -2.21483 0
M  V30 3321 H 312.014 -3.83813 -2.02164 0
M  V30 3322 H 312.685 -4.16522 -3.62234 0
M  V30 3323 H 315.161 -2.24189 -3.5054 0
M  V30 3324 H 314.037 -2.57356 -4.84829 0
M  V30 3325 H 314.298 -0.917263 -4.3248 0
M  V30 3326 N 313.357 1.07166 -1.15556 0
M  V30 3327 C 314.604 1.79798 -0.931604 0
M  V30 3328 C 314.932 1.8682 0.54115 0
M  V30 3329 O 314.187 1.34942 1.41736 0
M  V30 3330 C 314.486 3.24707 -1.49332 0
M  V30 3331 C 314.152 3.37781 -2.98688 0
M  V30 3332 C 312.814 3.41057 -3.39461 0
M  V30 3333 C 315.166 3.40424 -3.94665 0
M  V30 3334 C 312.494 3.4458 -4.74849 0
M  V30 3335 C 314.846 3.45485 -5.29927 0
M  V30 3336 C 313.51 3.47039 -5.70193 0
M  V30 3337 H 312.78 0.657928 -0.340898 0
M  V30 3338 H 315.427 1.26091 -1.44129 0
M  V30 3339 H 313.732 3.81208 -0.904859 0
M  V30 3340 H 315.429 3.79486 -1.29582 0
M  V30 3341 H 312.019 3.35932 -2.66172 0
M  V30 3342 H 316.203 3.37113 -3.64237 0
M  V30 3343 H 311.459 3.44083 -5.05388 0
M  V30 3344 H 315.633 3.46476 -6.04092 0
M  V30 3345 H 313.26 3.49522 -6.75084 0
M  V30 3346 N 314.835 0.952656 1.25548 0
M  V30 3347 C 316.083 0.605176 1.92826 0
M  V30 3348 C 316.404 -0.860261 1.74999 0
M  V30 3349 O 315.674 -1.6125 1.11244 0
M  V30 3350 H 314.254 0.220832 0.713612 0
M  V30 3351 H 316.916 1.21047 1.52754 0
M  V30 3352 H 316.012 0.832798 3.00784 0
M  V30 3353 N 316.313 -1.40141 0.720998 0
M  V30 3354 C 317.26 -2.30688 0.071919 0
M  V30 3355 C 318.23 -1.48476 -0.744584 0
M  V30 3356 O 319.415 -1.77201 -0.707423 0
M  V30 3357 C 316.555 -3.34724 -0.839855 0
M  V30 3358 C 315.668 -4.31998 -0.0122438 0
M  V30 3359 C 314.803 -5.23102 -0.923995 0
M  V30 3360 C 313.842 -6.12033 -0.0907969 0
M  V30 3361 N 312.979 -6.95537 -0.957718 0
M  V30 3362 H 317.819 -2.85628 0.849755 0
M  V30 3363 H 315.356 -1.40653 0.430726 0
M  V30 3364 H 317.314 -3.93618 -1.38279 0
M  V30 3365 H 315.944 -2.81274 -1.58381 0
M  V30 3366 H 314.996 -3.74841 0.64794 0
M  V30 3367 H 316.308 -4.94772 0.632595 0
M  V30 3368 H 315.462 -5.86953 -1.53527 0
M  V30 3369 H 314.201 -4.60615 -1.60264 0
M  V30 3370 H 313.206 -5.47207 0.533377 0
M  V30 3371 H 314.431 -6.76581 0.584428 0
M  V30 3372 H 312.377 -6.35633 -1.62192 0
M  V30 3373 H 312.294 -7.55099 -0.36904 0
M  V30 3374 H 313.562 -7.63832 -1.555 0
M  V30 3375 N 317.792 -0.46758 -1.50504 0
M  V30 3376 C 318.722 0.318381 -2.31319 0
M  V30 3377 C 319.703 0.993564 -1.38066 0
M  V30 3378 O 320.888 0.991411 -1.66987 0
M  V30 3379 C 318.018 1.40275 -3.17711 0
M  V30 3380 C 316.972 0.849373 -4.19487 0
M  V30 3381 C 316.298 2.03177 -4.94594 0
M  V30 3382 C 317.598 -0.136942 -5.2212 0
M  V30 3383 H 319.292 -0.356106 -2.97275 0
M  V30 3384 H 316.838 -0.172703 -1.42961 0
M  V30 3385 H 318.791 1.96004 -3.73042 0
M  V30 3386 H 317.515 2.10596 -2.49634 0
M  V30 3387 H 316.174 0.314076 -3.65252 0
M  V30 3388 H 315.822 2.72187 -4.22993 0
M  V30 3389 H 315.522 1.66774 -5.63436 0
M  V30 3390 H 317.046 2.59403 -5.52759 0
M  V30 3391 H 318.46 0.331056 -5.72343 0
M  V30 3392 H 316.857 -0.41507 -5.98663 0
M  V30 3393 H 317.927 -1.06398 -4.73083 0
M  V30 3394 N 319.27 1.56325 -0.20005 0
M  V30 3395 C 320.518 1.97329 0.436547 0
M  V30 3396 C 320.839 1.08826 1.61808 0
M  V30 3397 O 320.109 0.160604 1.95241 0
M  V30 3398 H 318.689 0.728714 0.164272 0
M  V30 3399 H 321.351 1.92761 -0.287937 0
M  V30 3400 H 320.447 3.02264 0.777353 0
M  V30 3401 N 320.748 -0.0735177 1.57428 0
M  V30 3402 C 321.973 -0.789787 1.91774 0
M  V30 3403 C 322.398 -1.70413 0.796306 0
M  V30 3404 O 321.756 -1.79555 -0.250961 0
M  V30 3405 C 321.804 -1.5609 3.25067 0
M  V30 3406 O 320.908 -2.67144 3.14178 0
M  V30 3407 H 320.249 -0.215582 0.628029 0
M  V30 3408 H 322.779 -0.0422781 2.04556 0
M  V30 3409 H 322.789 -1.94052 3.58898 0
M  V30 3410 H 321.464 -0.890015 4.06265 0
M  V30 3411 H 320.041 -2.32052 2.91901 0
M  V30 3412 N 322.226 -1.5378 -0.344866 0
M  V30 3413 C 323.156 -1.84662 -1.42906 0
M  V30 3414 C 324.137 -0.701648 -1.54955 0
M  V30 3415 O 325.322 -0.953438 -1.69184 0
M  V30 3416 C 322.452 -2.05503 -2.79974 0
M  V30 3417 C 321.406 -3.21318 -2.82734 0
M  V30 3418 C 320.732 -3.2749 -4.22675 0
M  V30 3419 C 322.032 -4.59456 -2.48389 0
M  V30 3420 H 323.726 -2.75461 -1.17311 0
M  V30 3421 H 321.272 -1.32542 -0.562896 0
M  V30 3422 H 323.225 -2.25691 -3.55867 0
M  V30 3423 H 321.949 -1.11434 -3.07002 0
M  V30 3424 H 320.608 -3.00984 -2.09294 0
M  V30 3425 H 320.256 -2.31019 -4.4681 0
M  V30 3426 H 319.956 -4.05316 -4.25433 0
M  V30 3427 H 321.48 -3.49887 -5.00412 0
M  V30 3428 H 322.894 -4.79667 -3.13995 0
M  V30 3429 H 321.291 -5.39675 -2.62432 0
M  V30 3430 H 322.361 -4.63155 -1.4358 0
M  V30 3431 N 323.704 0.605807 -1.45491 0
M  V30 3432 C 324.636 1.73031 -1.5031 0
M  V30 3433 C 325.649 1.57968 -0.393687 0
M  V30 3434 O 326.838 1.65817 -0.660839 0
M  V30 3435 C 323.938 3.11049 -1.34543 0
M  V30 3436 C 323.111 3.52334 -2.59189 0
M  V30 3437 C 322.17 4.69323 -2.37954 0
M  V30 3438 O 321.196 4.7635 -3.11575 0
M  V30 3439 N 322.398 5.62705 -1.4263 0
M  V30 3440 H 325.163 1.6936 -2.4726 0
M  V30 3441 H 322.724 0.79114 -1.41254 0
M  V30 3442 H 324.716 3.87071 -1.18144 0
M  V30 3443 H 323.286 3.09217 -0.458623 0
M  V30 3444 H 322.506 2.66256 -2.90691 0
M  V30 3445 H 323.794 3.76677 -3.42041 0
M  V30 3446 H 323.192 5.59744 -0.818758 0
M  V30 3447 H 321.749 6.38252 -1.32202 0
M  V30 3448 N 325.182 1.32811 0.848464 0
M  V30 3449 C 326.092 1.24278 1.98978 0
M  V30 3450 C 327.108 0.155176 1.73307 0
M  V30 3451 O 328.284 0.376999 1.9784 0
M  V30 3452 C 325.349 0.972444 3.32783 0
M  V30 3453 C 324.41 2.14911 3.71634 0
M  V30 3454 C 323.643 1.89157 4.99054 0
M  V30 3455 O 323.866 0.837165 5.64223 0
M  V30 3456 O 322.8 2.75433 5.35183 0
M  V30 3457 H 326.626 2.20238 2.09115 0
M  V30 3458 H 324.211 1.12762 0.980052 0
M  V30 3459 H 326.093 0.838432 4.12975 0
M  V30 3460 H 324.768 0.043051 3.23671 0
M  V30 3461 H 323.675 2.33862 2.91992 0
M  V30 3462 H 325.008 3.06151 3.85399 0
M  V30 3463 N 326.66 -1.06551 1.16123 0
M  V30 3464 C 327.59 -2.15935 0.88851 0
M  V30 3465 C 328.571 -1.69306 -0.164135 0
M  V30 3466 O 329.756 -1.94193 -0.0167857 0
M  V30 3467 C 326.886 -3.45149 0.385942 0
M  V30 3468 C 325.84 -4.05271 1.3762 0
M  V30 3469 C 325.166 -5.29664 0.732137 0
M  V30 3470 C 326.466 -4.44355 2.74493 0
M  V30 3471 H 328.16 -2.39006 1.80323 0
M  V30 3472 H 325.706 -1.14866 0.868435 0
M  V30 3473 H 327.659 -4.21004 0.182647 0
M  V30 3474 H 326.383 -3.21689 -0.564274 0
M  V30 3475 H 325.042 -3.3147 1.56599 0
M  V30 3476 H 324.69 -5.02499 -0.224483 0
M  V30 3477 H 324.39 -5.70848 1.39307 0
M  V30 3478 H 325.914 -6.08218 0.538802 0
M  V30 3479 H 327.328 -5.11303 2.59311 0
M  V30 3480 H 325.725 -4.96515 3.37035 0
M  V30 3481 H 326.795 -3.55339 3.29943 0
M  V30 3482 N 328.138 -0.959301 -1.25041 0
M  V30 3483 C 329.385 -0.616611 -1.92884 0
M  V30 3484 C 329.713 0.847036 -1.75087 0
M  V30 3485 O 328.968 1.62374 -1.09239 0
M  V30 3486 C 329.267 -0.927136 -3.45165 0
M  V30 3487 C 328.933 -2.37757 -3.83122 0
M  V30 3488 C 327.595 -2.77402 -3.93194 0
M  V30 3489 C 329.947 -3.31929 -4.01836 0
M  V30 3490 C 327.275 -4.10277 -4.19392 0
M  V30 3491 C 329.627 -4.64423 -4.29528 0
M  V30 3492 C 328.291 -5.03857 -4.37818 0
M  V30 3493 H 327.561 -0.225634 -0.705812 0
M  V30 3494 H 330.208 -1.20921 -1.48493 0
M  V30 3495 H 328.513 -0.252195 -3.90987 0
M  V30 3496 H 330.21 -0.6405 -3.95852 0
M  V30 3497 H 326.8 -2.06013 -3.75841 0
M  V30 3498 H 330.984 -3.02488 -3.93465 0
M  V30 3499 H 326.24 -4.40467 -4.24027 0
M  V30 3500 H 330.414 -5.37369 -4.42953 0
M  V30 3501 H 328.041 -6.06843 -4.57871 0
M  V30 3502 N 329.616 1.39756 -0.72842 0
M  V30 3503 C 330.546 2.33289 -0.0991354 0
M  V30 3504 C 331.527 1.53568 0.731489 0
M  V30 3505 O 332.712 1.81987 0.677807 0
M  V30 3506 C 329.842 3.3763 0.813834 0
M  V30 3507 C 328.796 4.2791 0.0878663 0
M  V30 3508 C 328.122 5.22894 1.11741 0
M  V30 3509 C 329.422 5.11314 -1.06563 0
M  V30 3510 H 331.116 2.86163 -0.880408 0
M  V30 3511 H 328.662 1.37591 -0.424819 0
M  V30 3512 H 330.615 4.0201 1.26355 0
M  V30 3513 H 329.339 2.83181 1.62715 0
M  V30 3514 H 327.998 3.65 -0.342159 0
M  V30 3515 H 327.646 4.64744 1.92412 0
M  V30 3516 H 327.346 5.84143 0.636477 0
M  V30 3517 H 328.87 5.90151 1.56697 0
M  V30 3518 H 330.284 5.69076 -0.694671 0
M  V30 3519 H 328.681 5.81671 -1.47577 0
M  V30 3520 H 329.751 4.46534 -1.89038 0
M  V30 3521 N 331.094 0.475555 1.50254 0
M  V30 3522 C 332.371 -0.139685 1.95101 0
M  V30 3523 C 332.751 -1.56555 1.41611 0
M  V30 3524 O 332.099 -2.19956 0.618993 0
M  V30 3525 C 332.309 -0.0784298 3.48912 0
M  V30 3526 C 333.657 -0.265095 4.23772 0
M  V30 3527 O 334.681 -0.154808 3.55863 0
M  V30 3528 O 333.54 -0.488327 5.44314 0
M  V30 3529 H 330.634 -0.109236 0.819754 0
M  V30 3530 H 333.18 0.536276 1.61004 0
M  V30 3531 H 331.952 0.916918 3.80405 0
M  V30 3532 H 331.575 -0.795655 3.89558 0
M  V30 3533 N 332.573 -1.56217 0.208337 0
M  V30 3534 C 333.798 -2.02782 -0.435222 0
M  V30 3535 C 334.223 -1.08738 -1.53485 0
M  V30 3536 O 333.581 -0.0731855 -1.81152 0
M  V30 3537 C 333.629 -3.47687 -0.956335 0
M  V30 3538 O 332.733 -3.56773 -2.06849 0
M  V30 3539 H 332.074 -0.656403 -0.100158 0
M  V30 3540 H 334.604 -2.02033 0.3231 0
M  V30 3541 H 334.614 -3.87745 -1.26955 0
M  V30 3542 H 333.289 -4.15624 -0.15143 0
M  V30 3543 H 331.866 -3.28597 -1.76292 0
M  V30 3544 N 334.051 0.0651679 -1.57465 0
M  V30 3545 C 334.999 1.09542 -2.05191 0
M  V30 3546 C 335.993 1.39675 -0.958509 0
M  V30 3547 O 337.199 1.39003 -1.14359 0
M  V30 3548 H 333.574 0.370623 -0.654326 0
M  V30 3549 H 335.545 0.666802 -2.90854 0
M  V30 3550 C 334.294 2.39881 -2.51699 0
M  V30 3551 H 333.617 2.17547 -3.3543 0
M  V30 3552 H 335.057 3.104 -2.88839 0
M  V30 3553 C 333.516 3.0631 -1.40271 0
M  V30 3554 O 334.046 3.94664 -0.748523 0
M  V30 3555 N 332.252 2.67041 -1.14618 0
M  V30 3556 H 331.799 1.95281 -1.67997 0
M  V30 3557 H 331.757 3.1181 -0.402688 0
M  V30 3558 N 335.529 1.53961 0.336706 0
M  V30 3559 C 336.477 1.83136 1.43401 0
M  V30 3560 C 337.471 0.702313 1.54156 0
M  V30 3561 O 338.677 0.885765 1.56698 0
M  V30 3562 H 335.052 0.580309 0.478273 0
M  V30 3563 H 337.023 2.74925 1.16012 0
M  V30 3564 C 335.772 2.06385 2.79822 0
M  V30 3565 H 335.095 2.92718 2.72316 0
M  V30 3566 H 336.535 2.30761 3.55704 0
M  V30 3567 C 334.994 0.851414 3.25964 0
M  V30 3568 O 335.524 0.0541904 4.01663 0
M  V30 3569 N 333.73 0.66672 2.82848 0
M  V30 3570 H 333.277 1.31665 2.21409 0
M  V30 3571 H 333.235 -0.143032 3.14074 0
M  V30 3572 N 337.007 -0.598083 1.45811 0
M  V30 3573 C 338.256 -1.35295 1.49594 0
M  V30 3574 C 338.569 -1.95057 0.145679 0
M  V30 3575 O 339.775 -2.71431 0.0612099 0
M  V30 3576 C 338.231 -2.45124 2.63519 0
M  V30 3577 C 337.839 -1.91732 4.04899 0
M  V30 3578 C 339.583 -3.2205 2.76558 0
M  V30 3579 C 337.49 -2.991 5.1019 0
M  V30 3580 H 336.42 -0.508552 0.556679 0
M  V30 3581 H 339.071 -0.639977 1.71978 0
M  V30 3582 H 337.453 -3.19149 2.34435 0
M  V30 3583 H 338.627 -1.24352 4.43704 0
M  V30 3584 H 336.942 -1.27522 3.96393 0
M  V30 3585 H 339.539 -4.0215 3.52391 0
M  V30 3586 H 339.882 -3.73663 1.83526 0
M  V30 3587 H 340.415 -2.55127 3.05213 0
M  V30 3588 H 337.154 -2.52393 6.04961 0
M  V30 3589 H 336.674 -3.65017 4.75944 0
M  V30 3590 H 338.353 -3.63318 5.35359 0
M  V30 3591 N 338.485 -1.33259 -0.841409 0
M  V30 3592 C 339.71 -1.2775 -1.63385 0
M  V30 3593 C 340.135 0.149188 -1.87507 0
M  V30 3594 O 339.493 1.10498 -1.43736 0
M  V30 3595 C 339.541 -2.05571 -2.96265 0
M  V30 3596 O 338.645 -1.41257 -3.87453 0
M  V30 3597 H 337.986 -0.439627 -0.497618 0
M  V30 3598 H 340.516 -1.75782 -1.04699 0
M  V30 3599 H 340.526 -2.16241 -3.45982 0
M  V30 3600 H 339.201 -3.09309 -2.7803 0
M  V30 3601 H 337.778 -1.39217 -3.45938 0
M  V30 3602 N 339.963 1.05934 -1.16686 0
M  V30 3603 C 340.873 2.17014 -0.891183 0
M  V30 3604 C 341.889 1.73453 0.137907 0
M  V30 3605 O 343.065 2.01361 -0.039592 0
M  V30 3606 C 340.13 3.44384 -0.400099 0
M  V30 3607 C 339.191 4.02433 -1.49486 0
M  V30 3608 C 338.424 5.23723 -1.02711 0
M  V30 3609 O 338.647 5.7027 0.121716 0
M  V30 3610 O 337.581 5.7382 -1.81699 0
M  V30 3611 H 341.407 2.43113 -1.82015 0
M  V30 3612 H 338.992 1.15541 -0.947132 0
M  V30 3613 H 340.874 4.21189 -0.133392 0
M  V30 3614 H 339.549 3.19802 0.500817 0
M  V30 3615 H 338.456 3.27102 -1.81535 0
M  V30 3616 H 339.789 4.31317 -2.37121 0
M  V30 3617 N 341.441 0.965919 1.2453 0
M  V30 3618 C 342.371 0.513476 2.27784 0
M  V30 3619 C 343.352 -0.445974 1.6415 0
M  V30 3620 O 344.537 -0.342485 1.91156 0
M  V30 3621 C 341.667 -0.198839 3.4673 0
M  V30 3622 C 340.621 0.676456 4.2262 0
M  V30 3623 C 339.947 -0.167248 5.34438 0
M  V30 3624 C 341.247 1.96017 4.84123 0
M  V30 3625 H 342.941 1.3765 2.65881 0
M  V30 3626 H 340.487 0.663321 1.27813 0
M  V30 3627 H 342.44 -0.526567 4.18097 0
M  V30 3628 H 341.164 -1.0962 3.07654 0
M  V30 3629 H 339.823 0.98743 3.53052 0
M  V30 3630 H 339.471 -1.0647 4.91603 0
M  V30 3631 H 339.171 0.415181 5.86131 0
M  V30 3632 H 340.695 -0.489688 6.08633 0
M  V30 3633 H 342.109 1.69814 5.47573 0
M  V30 3634 H 340.506 2.48918 5.4604 0
M  V30 3635 H 341.576 2.65622 4.05676 0
M  V30 3636 N 342.919 -1.39368 0.735821 0
M  V30 3637 C 344.33 -1.83313 0.354015 0
M  V30 3638 C 344.681 -1.61461 -1.11466 0
M  V30 3639 O 343.806 -1.10621 -1.85989 0
M  V30 3640 C 344.401 -3.32781 0.635769 0
M  V30 3641 C 342.96 -3.75142 0.307448 0
M  V30 3642 C 342.107 -2.62358 0.897974 0
M  V30 3643 H 345.058 -1.28349 0.933398 0
M  V30 3644 H 345.079 -3.80388 -0.0921773 0
M  V30 3645 H 344.591 -3.48654 1.70476 0
M  V30 3646 H 342.692 -3.64857 -0.755674 0
M  V30 3647 H 342.805 -4.72532 0.790583 0
M  V30 3648 H 341.169 -2.52624 0.324551 0
M  V30 3649 H 341.952 -2.81036 1.97164 0
M  V30 3650 N 344.397 -0.483516 -1.5 0
M  V30 3651 C 345.808 -0.0314176 -1.86674 0
M  V30 3652 C 346.159 1.37728 -1.39733 0
M  V30 3653 O 345.284 2.02327 -0.767635 0
M  V30 3654 C 345.879 -0.0502376 -3.38763 0
M  V30 3655 C 344.438 0.346442 -3.74802 0
M  V30 3656 C 343.585 -0.430366 -2.7394 0
M  V30 3657 H 346.536 -0.697182 -1.42566 0
M  V30 3658 H 346.557 0.749116 -3.73053 0
M  V30 3659 H 346.069 -1.07563 -3.72897 0
M  V30 3660 H 344.17 1.37572 -3.46273 0
M  V30 3661 H 344.283 0.0391486 -4.79084 0
M  V30 3662 H 342.647 0.117557 -2.54429 0
M  V30 3663 H 343.43 -1.4555 -3.10918 0
M  V30 3664 N 345.875 1.56104 -0.216619 0
M  V30 3665 C 346.807 2.17339 0.72776 0
M  V30 3666 C 347.82 1.14109 1.16116 0
M  V30 3667 O 349.009 1.4111 1.09317 0
M  V30 3668 C 346.109 2.73818 1.99693 0
M  V30 3669 C 345.282 4.02168 1.71988 0
M  V30 3670 C 344.341 4.43259 2.83562 0
M  V30 3671 O 343.367 5.10257 2.52244 0
M  V30 3672 N 344.569 4.08535 4.12407 0
M  V30 3673 H 347.334 2.99005 0.203983 0
M  V30 3674 H 344.895 1.61861 -0.0354289 0
M  V30 3675 H 346.887 2.9828 2.73516 0
M  V30 3676 H 345.457 1.96483 2.43132 0
M  V30 3677 H 344.677 3.85612 0.818337 0
M  V30 3678 H 345.965 4.85907 1.50903 0
M  V30 3679 H 345.363 3.54687 4.40696 0
M  V30 3680 H 343.92 4.37901 4.8279 0
M  V30 3681 N 347.353 -0.0568162 1.57498 0
M  V30 3682 C 348.599 -0.75422 1.88253 0
M  V30 3683 C 348.932 -1.76461 0.810865 0
M  V30 3684 O 348.207 -1.93691 -0.177259 0
M  V30 3685 C 348.49 -1.44878 3.2967 0
M  V30 3686 C 348.343 -0.453789 4.47505 0
M  V30 3687 C 349.662 -2.38994 3.69554 0
M  V30 3688 H 346.781 -0.272724 0.684683 0
M  V30 3689 H 349.423 -0.0172113 1.89992 0
M  V30 3690 H 347.573 -2.077 3.28318 0
M  V30 3691 H 349.245 0.170371 4.60985 0
M  V30 3692 H 347.488 0.229552 4.33192 0
M  V30 3693 H 348.159 -0.977699 5.43273 0
M  V30 3694 H 350.635 -1.86239 3.72095 0
M  V30 3695 H 349.511 -2.84587 4.69363 0
M  V30 3696 H 349.772 -3.24461 3.00296 0
M  V30 3697 N 348.832 -1.54138 -0.328536 0
M  V30 3698 C 350.079 -1.72105 -1.06706 0
M  V30 3699 C 350.407 -0.492111 -1.88171 0
M  V30 3700 O 349.662 0.526153 -1.88494 0
M  V30 3701 C 349.961 -2.9457 -2.02393 0
M  V30 3702 C 349.627 -4.29544 -1.37122 0
M  V30 3703 C 348.289 -4.6624 -1.19052 0
M  V30 3704 C 350.641 -5.1333 -0.902331 0
M  V30 3705 C 347.969 -5.84325 -0.527331 0
M  V30 3706 C 350.321 -6.32094 -0.252988 0
M  V30 3707 C 348.985 -6.67473 -0.0600901 0
M  V30 3708 H 348.255 -0.629775 -0.390466 0
M  V30 3709 H 350.902 -1.88372 -0.34473 0
M  V30 3710 H 349.207 -2.72969 -2.81061 0
M  V30 3711 H 350.904 -3.05665 -2.59557 0
M  V30 3712 H 347.494 -4.0067 -1.52188 0
M  V30 3713 H 351.678 -4.855 -1.02974 0
M  V30 3714 H 346.934 -6.103 -0.366634 0
M  V30 3715 H 351.108 -6.96299 0.118366 0
M  V30 3716 H 348.735 -7.58832 0.455828 0
M  V30 3717 N 350.31 0.590341 -1.46126 0
M  V30 3718 C 351.535 1.37991 -1.54833 0
M  V30 3719 C 351.96 1.87163 -0.187506 0
M  V30 3720 O 351.318 1.61133 0.831008 0
M  V30 3721 C 351.366 2.54867 -2.55098 0
M  V30 3722 O 350.47 3.56061 -2.08073 0
M  V30 3723 H 349.811 0.411265 -0.521303 0
M  V30 3724 H 352.341 0.716819 -1.91632 0
M  V30 3725 H 352.351 3.01886 -2.74461 0
M  V30 3726 H 351.026 2.18429 -3.53923 0
M  V30 3727 H 349.603 3.15574 -1.98664 0
M  V30 3728 N 351.788 1.33704 0.83433 0
M  V30 3729 C 352.72 1.20172 1.9517 0
M  V30 3730 C 353.733 0.131572 1.62267 0
M  V30 3731 O 354.922 0.382406 1.74356 0
M  V30 3732 C 352.022 0.821716 3.28787 0
M  V30 3733 C 351.195 1.98446 3.89792 0
M  V30 3734 C 350.254 1.58469 5.01771 0
M  V30 3735 O 349.28 2.29968 5.20676 0
M  V30 3736 N 350.482 0.492291 5.78409 0
M  V30 3737 H 353.247 2.16429 2.07313 0
M  V30 3738 H 350.808 1.26509 1.0103 0
M  V30 3739 H 352.8 0.536291 4.01131 0
M  V30 3740 H 351.37 -0.0503058 3.1256 0
M  V30 3741 H 350.59 2.43526 3.09982 0
M  V30 3742 H 351.878 2.76236 4.27283 0
M  V30 3743 H 351.276 -0.102349 5.65607 0
M  V30 3744 H 349.833 0.266555 6.51255 0
M  V30 3745 N 353.266 -1.05314 1.17247 0
M  V30 3746 C 354.196 -2.1498 0.911362 0
M  V30 3747 C 355.177 -1.69471 -0.146169 0
M  V30 3748 O 356.362 -1.942 0.003812 0
M  V30 3749 C 353.492 -3.4472 0.422528 0
M  V30 3750 C 352.446 -4.03789 1.4191 0
M  V30 3751 C 351.772 -5.28858 0.788274 0
M  V30 3752 C 353.072 -4.41418 2.7919 0
M  V30 3753 H 354.766 -2.3708 1.82848 0
M  V30 3754 H 352.312 -1.13938 0.880569 0
M  V30 3755 H 354.265 -4.20787 0.227289 0
M  V30 3756 H 352.989 -3.22269 -0.530123 0
M  V30 3757 H 351.648 -3.2979 1.60106 0
M  V30 3758 H 351.296 -5.02709 -0.171173 0
M  V30 3759 H 350.996 -5.69338 1.45353 0
M  V30 3760 H 352.52 -6.07612 0.603282 0
M  V30 3761 H 353.934 -5.08524 2.64719 0
M  V30 3762 H 352.331 -4.92913 3.42282 0
M  V30 3763 H 353.401 -3.51819 3.33693 0
M  V30 3764 N 354.744 -0.972509 -1.24016 0
M  V30 3765 C 355.991 -0.637034 -1.92219 0
M  V30 3766 C 356.319 0.828418 -1.75976 0
M  V30 3767 O 355.574 1.61206 -1.10955 0
M  V30 3768 C 355.873 -0.963694 -3.44162 0
M  V30 3769 C 355.539 -2.41807 -3.80579 0
M  V30 3770 C 354.201 -2.81556 -3.9023 0
M  V30 3771 C 356.553 -3.36172 -3.98293 0
M  V30 3772 C 353.881 -4.14702 -4.15017 0
M  V30 3773 C 356.233 -4.68952 -4.24578 0
M  V30 3774 C 354.897 -5.08472 -4.32449 0
M  V30 3775 H 354.167 -0.233107 -0.703379 0
M  V30 3776 H 356.814 -1.2249 -1.47202 0
M  V30 3777 H 355.119 -0.29365 -3.90698 0
M  V30 3778 H 356.816 -0.682449 -3.9515 0
M  V30 3779 H 353.406 -2.09988 -3.73635 0
M  V30 3780 H 357.59 -3.06644 -3.90234 0
M  V30 3781 H 352.846 -4.4494 -4.19331 0
M  V30 3782 H 357.02 -5.42037 -4.37229 0
M  V30 3783 H 354.647 -6.11665 -4.51409 0
M  V30 3784 N 356.222 1.38976 -0.743202 0
M  V30 3785 C 357.462 2.02193 -0.29954 0
M  V30 3786 C 357.826 1.5771 1.09506 0
M  V30 3787 O 359.027 2.13184 1.63726 0
M  V30 3788 C 357.298 3.55077 -0.406822 0
M  V30 3789 S 358.857 4.38778 -0.0442109 0
M  V30 3790 H 355.675 0.701335 -0.116836 0
M  V30 3791 H 358.277 1.69651 -0.971529 0
M  V30 3792 H 356.981 3.84942 -1.42295 0
M  V30 3793 H 356.512 3.92383 0.282707 0
M  V30 3794 H 358.527 4.82222 1.16947 0
M  V30 3795 N 357.7 0.491464 1.49741 0
M  V30 3796 C 358.63 -0.28154 2.31796 0
M  V30 3797 C 359.611 -0.971473 1.3963 0
M  V30 3798 O 360.796 -0.964719 1.68543 0
M  V30 3799 C 357.926 -1.35203 3.19902 0
M  V30 3800 C 356.88 -0.782529 4.20786 0
M  V30 3801 C 356.206 -1.95283 4.97764 0
M  V30 3802 C 357.506 0.21999 5.21837 0
M  V30 3803 H 359.2 0.403355 2.96671 0
M  V30 3804 H 356.746 0.195425 1.42668 0
M  V30 3805 H 358.699 -1.90045 3.76113 0
M  V30 3806 H 357.423 -2.06598 2.52953 0
M  V30 3807 H 356.082 -0.255928 3.65706 0
M  V30 3808 H 355.73 -2.65423 4.2727 0
M  V30 3809 H 355.43 -1.57789 5.66018 0
M  V30 3810 H 356.954 -2.50577 5.56816 0
M  V30 3811 H 358.368 -0.23996 5.72798 0
M  V30 3812 H 356.765 0.51026 5.97927 0
M  V30 3813 H 357.835 1.13911 4.7133 0
M  V30 3814 N 359.178 -1.55987 0.224894 0
M  V30 3815 C 360.088 -2.24066 -0.69511 0
M  V30 3816 C 361.104 -1.24939 -1.21104 0
M  V30 3817 O 362.28 -1.5776 -1.25195 0
M  V30 3818 C 359.345 -2.90983 -1.88493 0
M  V30 3819 C 358.406 -4.05462 -1.41064 0
M  V30 3820 C 357.639 -4.69179 -2.54375 0
M  V30 3821 O 357.862 -4.31895 -3.72589 0
M  V30 3822 O 356.796 -5.58108 -2.25386 0
M  V30 3823 H 360.622 -3.03353 -0.145149 0
M  V30 3824 H 358.207 -1.49399 -0.00569476 0
M  V30 3825 H 360.089 -3.33209 -2.57972 0
M  V30 3826 H 358.764 -2.14653 -2.42293 0
M  V30 3827 H 357.671 -3.67798 -0.683774 0
M  V30 3828 H 359.004 -4.83545 -0.918985 0
M  V30 3829 N 360.656 0.0484629 -1.57525 0
M  V30 3830 C 362.072 0.40375 -1.54409 0
M  V30 3831 C 362.272 1.77786 -0.948384 0
M  V30 3832 O 361.328 2.46189 -0.560983 0
M  V30 3833 C 362.641 0.323394 -2.98956 0
M  V30 3834 C 364.189 0.401892 -3.10409 0
M  V30 3835 C 364.664 0.351195 -4.56652 0
M  V30 3836 N 366.155 0.410576 -4.61377 0
M  V30 3837 C 366.89 0.393933 -5.72045 0
M  V30 3838 N 366.386 0.330724 -6.9201 0
M  V30 3839 N 368.179 0.442227 -5.60358 0
M  V30 3840 H 360.33 -0.851016 -1.94606 0
M  V30 3841 H 362.593 -0.321721 -0.89174 0
M  V30 3842 H 362.299 -0.62011 -3.4619 0
M  V30 3843 H 362.173 1.12463 -3.60044 0
M  V30 3844 H 364.56 1.33582 -2.63134 0
M  V30 3845 H 364.641 -0.428342 -2.52188 0
M  V30 3846 H 364.285 -0.578987 -5.04589 0
M  V30 3847 H 364.215 1.19928 -5.12762 0
M  V30 3848 H 366.706 0.462729 -3.75056 0
M  V30 3849 H 367.019 0.322592 -7.72126 0
M  V30 3850 H 365.364 0.29706 -6.94365 0
M  V30 3851 H 368.555 0.489464 -4.65534 0
M  V30 3852 H 368.728 0.425788 -6.466 0
M  V30 3853 N 362.134 1.5431 0.320358 0
M  V30 3854 C 363.064 1.86912 1.3995 0
M  V30 3855 C 364.045 0.726211 1.53819 0
M  V30 3856 O 365.23 0.980233 1.67646 0
M  V30 3857 C 362.36 2.09932 2.7667 0
M  V30 3858 C 361.314 3.25776 2.77586 0
M  V30 3859 C 360.64 3.34173 4.17412 0
M  V30 3860 C 361.94 4.6335 2.41048 0
M  V30 3861 H 363.634 2.77292 1.12914 0
M  V30 3862 H 361.18 1.33421 0.541738 0
M  V30 3863 H 363.133 2.31324 3.52232 0
M  V30 3864 H 361.857 1.16304 3.0519 0
M  V30 3865 H 360.516 3.04276 2.04479 0
M  V30 3866 H 360.164 2.38098 4.43078 0
M  V30 3867 H 359.864 4.12033 4.18931 0
M  V30 3868 H 361.388 3.57803 4.94782 0
M  V30 3869 H 362.802 4.84602 3.06324 0
M  V30 3870 H 361.199 5.43782 2.53813 0
M  V30 3871 H 362.269 4.65381 1.36193 0
M  V30 3872 N 363.613 -0.582584 1.46437 0
M  V30 3873 C 364.859 -1.34064 1.52965 0
M  V30 3874 C 365.214 -1.91566 0.178968 0
M  V30 3875 O 364.507 -1.73526 -0.812365 0
M  V30 3876 C 364.701 -2.48964 2.56421 0
M  V30 3877 C 364.53 -2.02717 4.01417 0
M  V30 3878 C 363.3 -1.87728 4.69134 0
M  V30 3879 C 365.498 -1.58675 4.8921 0
M  V30 3880 N 363.48 -1.35554 5.98747 0
M  V30 3881 C 364.851 -1.18093 6.08649 0
M  V30 3882 C 366.906 -1.46494 4.75861 0
M  V30 3883 C 365.609 -0.665427 7.16215 0
M  V30 3884 C 367.635 -0.96347 5.83499 0
M  V30 3885 C 366.997 -0.567432 7.02111 0
M  V30 3886 H 363.096 -0.483551 0.614575 0
M  V30 3887 H 365.68 -0.663309 1.83053 0
M  V30 3888 H 363.851 -3.1426 2.28244 0
M  V30 3889 H 365.583 -3.15913 2.52944 0
M  V30 3890 H 362.338 -2.09678 4.24655 0
M  V30 3891 H 362.762 -1.11628 6.67734 0
M  V30 3892 H 367.404 -1.75731 3.8455 0
M  V30 3893 H 365.122 -0.360639 8.07295 0
M  V30 3894 H 368.708 -0.873129 5.75211 0
M  V30 3895 H 367.588 -0.185389 7.83981 0
M  V30 3896 N 365.091 -1.34144 -0.827227 0
M  V30 3897 C 366.021 -1.28005 -1.95287 0
M  V30 3898 C 367.002 -0.158321 -1.69362 0
M  V30 3899 O 368.187 -0.349987 -1.9102 0
M  V30 3900 C 365.317 -1.03036 -3.31664 0
M  V30 3901 C 364.271 -2.11628 -3.72019 0
M  V30 3902 C 363.597 -1.71854 -5.0633 0
M  V30 3903 C 364.897 -3.53417 -3.8457 0
M  V30 3904 H 366.591 -2.22187 -2.00682 0
M  V30 3905 H 364.137 -1.0696 -0.964135 0
M  V30 3906 H 366.09 -0.973863 -4.09993 0
M  V30 3907 H 364.814 -0.0529391 -3.26557 0
M  V30 3908 H 363.473 -2.16339 -2.95961 0
M  V30 3909 H 363.121 -0.727841 -4.97706 0
M  V30 3910 H 362.821 -2.44531 -5.34302 0
M  V30 3911 H 364.345 -1.67692 -5.87122 0
M  V30 3912 H 365.759 -3.51142 -4.5318 0
M  V30 3913 H 364.156 -4.24679 -4.2399 0
M  V30 3914 H 365.226 -3.91072 -2.86689 0
M  V30 3915 N 366.569 1.04691 -1.17803 0
M  V30 3916 C 367.501 2.12571 -0.857097 0
M  V30 3917 C 368.514 1.62174 0.142647 0
M  V30 3918 O 369.703 1.78301 -0.0843387 0
M  V30 3919 C 366.803 3.37915 -0.258216 0
M  V30 3920 C 365.976 4.1757 -1.30207 0
M  V30 3921 C 365.035 5.2125 -0.720029 0
M  V30 3922 O 364.061 5.51888 -1.39314 0
M  V30 3923 N 365.263 5.78466 0.485507 0
M  V30 3924 H 368.028 2.40698 -1.78562 0
M  V30 3925 H 365.589 1.20831 -1.07757 0
M  V30 3926 H 367.581 4.04442 0.144584 0
M  V30 3927 H 366.151 3.07281 0.574199 0
M  V30 3928 H 365.371 3.46458 -1.88043 0
M  V30 3929 H 366.659 4.67586 -2.00601 0
M  V30 3930 H 366.057 5.55866 1.05022 0
M  V30 3931 H 364.614 6.4649 0.830307 0
M  V30 3932 N 368.047 0.979072 1.23499 0
M  V30 3933 C 369.463 0.687475 1.44034 0
M  V30 3934 C 369.663 -0.746801 1.8715 0
M  V30 3935 O 368.719 -1.51939 2.0167 0
M  V30 3936 C 370.032 1.68127 2.49307 0
M  V30 3937 C 371.58 1.69516 2.63122 0
M  V30 3938 C 372.055 2.67723 3.71603 0
M  V30 3939 N 373.546 2.66233 3.79044 0
M  V30 3940 C 374.281 3.38891 4.62537 0
M  V30 3941 N 373.777 4.21103 5.50131 0
M  V30 3942 N 375.57 3.27661 4.56721 0
M  V30 3943 H 367.721 1.90559 0.938135 0
M  V30 3944 H 369.984 0.821051 0.473897 0
M  V30 3945 H 369.69 2.70693 2.2454 0
M  V30 3946 H 369.564 1.46306 3.4767 0
M  V30 3947 H 371.951 0.676561 2.8724 0
M  V30 3948 H 372.032 1.95404 1.65079 0
M  V30 3949 H 371.676 3.69724 3.48233 0
M  V30 3950 H 371.606 2.39111 4.69184 0
M  V30 3951 H 374.097 2.06568 3.16446 0
M  V30 3952 H 374.41 4.73403 6.10827 0
M  V30 3953 H 372.755 4.25195 5.49759 0
M  V30 3954 H 375.946 2.62887 3.87309 0
M  V30 3955 H 376.119 3.84547 5.21562 0
M  V30 3956 N 369.525 -1.3858 0.750561 0
M  V30 3957 C 370.473 -2.32339 0.110162 0
M  V30 3958 C 371.467 -1.53864 -0.708674 0
M  V30 3959 O 372.673 -1.69417 -0.608112 0
M  V30 3960 H 369.048 -0.751812 0.0168275 0
M  V30 3961 H 371.019 -2.83959 0.917053 0
M  V30 3962 C 369.768 -3.39043 -0.771067 0
M  V30 3963 H 369.091 -3.99517 -0.150374 0
M  V30 3964 H 370.531 -4.07061 -1.1865 0
M  V30 3965 C 368.99 -2.77365 -1.91234 0
M  V30 3966 O 369.52 -2.66434 -3.00626 0
M  V30 3967 N 367.726 -2.35219 -1.70646 0
M  V30 3968 H 367.273 -2.4431 -0.81673 0
M  V30 3969 H 367.231 -1.94294 -2.47178 0
M  V30 3970 N 371.003 -0.499398 -1.49478 0
M  V30 3971 C 371.966 0.268838 -2.27618 0
M  V30 3972 C 372.966 0.895383 -1.33565 0
M  V30 3973 O 374.156 0.760164 -1.56739 0
M  V30 3974 C 371.288 1.38559 -3.11471 0
M  V30 3975 H 372.481 -0.416812 -2.96989 0
M  V30 3976 H 370.034 -0.254313 -1.54217 0
M  V30 3977 H 370.769 2.10544 -2.46661 0
M  V30 3978 H 370.554 0.941797 -3.80621 0
M  V30 3979 H 372.044 1.92678 -3.70493 0
M  V30 3980 N 372.481 1.55866 -0.233164 0
M  V30 3981 C 373.73 1.97779 0.39579 0
M  V30 3982 C 374.043 1.12419 1.60066 0
M  V30 3983 O 375.249 1.44283 2.29988 0
M  V30 3984 C 373.705 3.5188 0.755556 0
M  V30 3985 C 373.313 4.45959 -0.427152 0
M  V30 3986 C 375.057 4.02479 1.34946 0
M  V30 3987 C 372.964 5.91383 -0.0443043 0
M  V30 3988 H 371.894 0.738592 0.15165 0
M  V30 3989 H 374.545 1.80486 -0.331212 0
M  V30 3990 H 372.927 3.64816 1.5403 0
M  V30 3991 H 374.101 4.44776 -1.20462 0
M  V30 3992 H 372.416 4.05765 -0.935068 0
M  V30 3993 H 375.013 5.08637 1.649 0
M  V30 3994 H 375.356 3.49014 2.26925 0
M  V30 3995 H 375.889 3.92813 0.62791 0
M  V30 3996 H 372.628 6.48857 -0.930874 0
M  V30 3997 H 372.148 5.95734 0.697238 0
M  V30 3998 H 373.827 6.45893 0.378334 0
M  V30 3999 N 373.959 -0.0401083 1.57549 0
M  V30 4000 C 375.187 -0.745196 1.93014 0
M  V30 4001 C 375.602 -1.6948 0.831984 0
M  V30 4002 O 374.959 -1.81482 -0.192463 0
M  V30 4003 C 375.01 -1.51176 3.28372 0
M  V30 4004 O 374.731 -0.600284 4.33968 0
M  V30 4005 C 376.232 -2.315 3.78051 0
M  V30 4006 H 373.452 -0.210088 0.637263 0
M  V30 4007 H 375.996 -0.000924689 2.045 0
M  V30 4008 H 374.151 -2.20801 3.18317 0
M  V30 4009 H 374.565 -1.13669 5.12035 0
M  V30 4010 H 376.039 -2.80697 4.75303 0
M  V30 4011 H 376.516 -3.12436 3.08675 0
M  V30 4012 H 377.122 -1.66971 3.91153 0
M  V30 4013 N 375.437 -1.54477 -0.31217 0
M  V30 4014 C 376.387 -1.81037 -1.38598 0
M  V30 4015 C 377.371 -0.666941 -1.46426 0
M  V30 4016 O 378.563 -0.927269 -1.50767 0
M  V30 4017 C 375.692 -2.05127 -2.75277 0
M  V30 4018 C 374.778 -3.25624 -2.71716 0
M  V30 4019 N 375.169 -4.46428 -2.37773 0
M  V30 4020 C 373.467 -3.27427 -3.02833 0
M  V30 4021 C 374.168 -5.28406 -2.43232 0
M  V30 4022 N 373.144 -4.6586 -2.80135 0
M  V30 4023 H 376.946 -2.7201 -1.11301 0
M  V30 4024 H 374.46 -1.53826 -0.520705 0
M  V30 4025 H 376.457 -2.22299 -3.52688 0
M  V30 4026 H 375.117 -1.15416 -3.03495 0
M  V30 4027 H 376.128 -4.73227 -2.1042 0
M  V30 4028 H 372.805 -2.47786 -3.36018 0
M  V30 4029 H 374.195 -6.34903 -2.19882 0
M  V30 4030 N 376.915 0.57481 -1.46744 0
M  V30 4031 C 377.845 1.69337 -1.60771 0
M  V30 4032 C 378.826 1.63825 -0.457736 0
M  V30 4033 O 380.011 1.8172 -0.684947 0
M  V30 4034 C 377.141 3.0798 -1.60517 0
M  V30 4035 C 376.095 3.28327 -2.74564 0
M  V30 4036 C 375.421 4.67578 -2.59373 0
M  V30 4037 C 376.721 3.15398 -4.16319 0
M  V30 4038 H 378.415 1.57853 -2.54407 0
M  V30 4039 H 375.961 0.75799 -1.22436 0
M  V30 4040 H 377.914 3.86061 -1.68923 0
M  V30 4041 H 376.638 3.20381 -0.634305 0
M  V30 4042 H 375.297 2.52649 -2.65639 0
M  V30 4043 H 374.945 4.76755 -1.60353 0
M  V30 4044 H 374.645 4.82144 -3.35873 0
M  V30 4045 H 376.169 5.47817 -2.69682 0
M  V30 4046 H 377.583 3.83315 -4.26313 0
M  V30 4047 H 375.98 3.41482 -4.93468 0
M  V30 4048 H 377.05 2.12372 -4.3592 0
M  V30 4049 N 378.394 1.34581 0.820102 0
M  V30 4050 C 379.805 1.24298 1.39309 0
M  V30 4051 C 380.156 -0.130351 1.95767 0
M  V30 4052 O 379.281 -1.0308 1.90272 0
M  V30 4053 C 379.876 2.25054 2.53251 0
M  V30 4054 C 378.435 2.18552 3.0645 0
M  V30 4055 C 377.582 2.11503 1.79337 0
M  V30 4056 H 380.533 1.45906 0.624262 0
M  V30 4057 H 380.554 1.86917 3.31425 0
M  V30 4058 H 380.066 3.24996 2.1213 0
M  V30 4059 H 378.167 1.21976 3.52069 0
M  V30 4060 H 378.28 3.0993 3.65349 0
M  V30 4061 H 376.644 1.57268 2.00347 0
M  V30 4062 H 377.427 3.13284 1.40386 0
M  V30 4063 N 379.872 -1.04064 1.18357 0
M  V30 4064 C 380.802 -2.14001 0.934113 0
M  V30 4065 C 381.783 -1.69616 -0.128186 0
M  V30 4066 O 382.968 -1.94185 0.0244093 0
M  V30 4067 C 380.098 -3.44253 0.459066 0
M  V30 4068 C 379.052 -4.02261 1.46185 0
M  V30 4069 C 378.378 -5.27992 0.844322 0
M  V30 4070 C 379.678 -4.38432 2.83856 0
M  V30 4071 H 381.372 -2.35127 1.85352 0
M  V30 4072 H 378.918 -1.12998 0.892604 0
M  V30 4073 H 380.871 -4.20522 0.271907 0
M  V30 4074 H 379.595 -3.22813 -0.495912 0
M  V30 4075 H 378.254 -3.28074 1.63595 0
M  V30 4076 H 377.902 -5.02862 -0.117845 0
M  V30 4077 H 377.602 -5.67765 1.51384 0
M  V30 4078 H 379.126 -6.06938 0.667693 0
M  V30 4079 H 380.54 -5.05688 2.70098 0
M  V30 4080 H 378.937 -4.89254 3.47491 0
M  V30 4081 H 380.007 -3.4826 3.37406 0
M  V30 4082 N 381.35 -0.985608 -1.22978 0
M  V30 4083 C 382.575 -0.675254 -1.961 0
M  V30 4084 C 383 0.752154 -1.72407 0
M  V30 4085 O 382.358 1.5131 -0.998751 0
M  V30 4086 C 382.406 -0.977899 -3.47087 0
M  V30 4087 O 381.51 -0.072685 -4.12336 0
M  V30 4088 H 380.851 -0.253443 -0.613728 0
M  V30 4089 H 383.381 -1.32061 -1.56272 0
M  V30 4090 H 383.391 -0.916739 -3.97567 0
M  V30 4091 H 382.066 -2.01807 -3.63657 0
M  V30 4092 H 380.643 -0.188703 -3.72422 0
M  V30 4093 N 382.828 1.3818 -0.7579 0
M  V30 4094 C 384.077 1.99261 -0.312744 0
M  V30 4095 C 384.39 1.60846 1.11301 0
M  V30 4096 O 385.596 2.14929 1.65885 0
M  V30 4097 C 384.052 3.56294 -0.50821 0
M  V30 4098 C 383.66 4.03657 -1.94333 0
M  V30 4099 C 385.404 4.24313 -0.125982 0
M  V30 4100 C 383.311 5.53347 -2.08712 0
M  V30 4101 H 382.241 0.745456 -0.113185 0
M  V30 4102 H 384.892 1.57889 -0.935056 0
M  V30 4103 H 383.274 3.95575 0.183353 0
M  V30 4104 H 384.448 3.75655 -2.66871 0
M  V30 4105 H 382.763 3.48376 -2.28086 0
M  V30 4106 H 385.36 5.34279 -0.212125 0
M  V30 4107 H 385.703 4.05962 0.921964 0
M  V30 4108 H 386.236 3.90285 -0.769563 0
M  V30 4109 H 382.975 5.76607 -3.11777 0
M  V30 4110 H 382.495 5.83078 -1.4064 0
M  V30 4111 H 384.174 6.19111 -1.87912 0
M  V30 4112 N 384.306 0.507319 1.49211 0
M  V30 4113 C 385.553 -0.0349529 2.0247 0
M  V30 4114 C 385.881 -1.36409 1.38647 0
M  V30 4115 O 385.136 -1.88841 0.513566 0
M  V30 4116 C 385.435 -0.229513 3.56662 0
M  V30 4117 C 385.101 1.02241 4.39156 0
M  V30 4118 C 383.763 1.36557 4.61417 0
M  V30 4119 C 386.115 1.85428 4.871 0
M  V30 4120 C 383.443 2.53999 5.28868 0
M  V30 4121 C 385.795 3.02028 5.55843 0
M  V30 4122 C 384.459 3.36717 5.76349 0
M  V30 4123 H 383.729 -0.0127902 0.74089 0
M  V30 4124 H 386.376 0.668756 1.79443 0
M  V30 4125 H 384.681 -1.0158 3.78403 0
M  V30 4126 H 386.378 -0.663641 3.9547 0
M  V30 4127 H 382.968 0.745124 4.22073 0
M  V30 4128 H 387.152 1.6023 4.69723 0
M  V30 4129 H 382.408 2.81105 5.42946 0
M  V30 4130 H 386.582 3.66808 5.91967 0
M  V30 4131 H 384.209 4.27821 6.28389 0
M  V30 4132 N 385.784 -1.5574 0.241426 0
M  V30 4133 C 386.747 -2.19877 -0.647063 0
M  V30 4134 C 387.747 -1.16642 -1.10686 0
M  V30 4135 O 388.937 -1.41757 -1.01245 0
M  V30 4136 C 386.069 -2.83797 -1.88871 0
M  V30 4137 H 387.262 -2.99772 -0.087574 0
M  V30 4138 H 384.815 -1.56298 -0.00813574 0
M  V30 4139 H 385.55 -2.07824 -2.48957 0
M  V30 4140 H 385.335 -3.59414 -1.56728 0
M  V30 4141 H 386.825 -3.32898 -2.52129 0
M  V30 4142 N 387.262 0.0317525 -1.57568 0
M  V30 4143 C 388.487 0.738664 -1.938 0
M  V30 4144 C 388.912 1.68242 -0.841208 0
M  V30 4145 O 388.27 1.80157 0.203267 0
M  V30 4146 C 388.318 1.47417 -3.29091 0
M  V30 4147 O 387.422 2.5872 -3.2115 0
M  V30 4148 H 386.763 0.198856 -0.633524 0
M  V30 4149 H 389.293 -0.0119713 -2.04596 0
M  V30 4150 H 389.303 1.84468 -3.63917 0
M  V30 4151 H 387.978 0.781988 -4.08482 0
M  V30 4152 H 386.555 2.24231 -2.97951 0
M  V30 4153 N 388.74 1.54641 0.303973 0
M  V30 4154 C 389.67 1.88386 1.3796 0
M  V30 4155 C 390.651 0.742485 1.5304 0
M  V30 4156 O 391.836 0.997959 1.66597 0
M  V30 4157 C 388.966 2.12854 2.74427 0
M  V30 4158 C 387.92 3.28702 2.74115 0
M  V30 4159 C 387.246 3.38582 4.13844 0
M  V30 4160 C 388.546 4.65881 2.3612 0
M  V30 4161 H 390.24 2.78474 1.09966 0
M  V30 4162 H 387.786 1.33988 0.527556 0
M  V30 4163 H 389.739 2.35047 3.49758 0
M  V30 4164 H 388.463 1.19535 3.03939 0
M  V30 4165 H 387.122 3.06428 2.0124 0
M  V30 4166 H 386.77 2.42784 4.40528 0
M  V30 4167 H 386.47 4.16453 4.14537 0
M  V30 4168 H 387.994 3.63031 4.90959 0
M  V30 4169 H 389.408 4.87823 3.01167 0
M  V30 4170 H 387.805 5.46444 2.48031 0
M  V30 4171 H 388.875 4.66799 1.3125 0
M  V30 4172 N 390.218 -0.567019 1.47046 0
M  V30 4173 C 391.466 -1.322 1.52864 0
M  V30 4174 C 391.787 -1.94088 0.188388 0
M  V30 4175 O 391.057 -1.7941 -0.786693 0
M  V30 4176 H 389.637 -0.490894 0.563056 0
M  V30 4177 H 392.299 -0.662879 1.83281 0
M  V30 4178 H 391.395 -2.12062 2.2899 0
M  V30 4179 N 391.696 -1.35014 -0.812953 0
M  V30 4180 C 392.644 -1.27435 -1.94585 0
M  V30 4181 C 393.638 -0.170494 -1.6854 0
M  V30 4182 O 394.844 -0.336085 -1.76835 0
M  V30 4183 H 391.219 -0.396144 -0.639198 0
M  V30 4184 H 393.19 -2.23158 -1.98098 0
M  V30 4185 C 391.939 -1.05677 -3.31252 0
M  V30 4186 H 391.262 -1.89853 -3.51846 0
M  V30 4187 H 392.702 -1.04413 -4.10943 0
M  V30 4188 C 391.161 0.239615 -3.36047 0
M  V30 4189 O 391.691 1.23759 -3.8216 0
M  V30 4190 N 389.897 0.276186 -2.89285 0
M  V30 4191 H 389.444 -0.53653 -2.51951 0
M  V30 4192 H 389.402 1.14332 -2.92875 0
M  V30 4193 N 393.175 1.03435 -1.18907 0
M  V30 4194 C 394.105 2.13503 -0.945448 0
M  V30 4195 C 395.086 1.69682 0.119189 0
M  V30 4196 O 396.271 1.94169 -0.034707 0
M  V30 4197 C 393.401 3.44004 -0.477316 0
M  V30 4198 C 392.355 4.0148 -1.48316 0
M  V30 4199 C 391.681 5.27537 -0.872311 0
M  V30 4200 C 392.981 4.36921 -2.86177 0
M  V30 4201 H 394.675 2.34141 -1.86597 0
M  V30 4202 H 392.221 1.12523 -0.898584 0
M  V30 4203 H 394.174 4.20372 -0.294204 0
M  V30 4204 H 392.898 3.23072 0.478786 0
M  V30 4205 H 391.557 3.27201 -1.65332 0
M  V30 4206 H 391.205 5.02917 0.0911752 0
M  V30 4207 H 390.905 5.66954 -1.54393 0
M  V30 4208 H 392.429 6.06576 -0.699871 0
M  V30 4209 H 393.843 5.04248 -2.72776 0
M  V30 4210 H 392.24 4.87405 -3.50081 0
M  V30 4211 H 393.31 3.46466 -3.39248 0
M  V30 4212 N 394.653 0.992116 1.22453 0
M  V30 4213 C 395.881 0.685944 1.95198 0
M  V30 4214 C 396.296 -0.749233 1.73297 0
M  V30 4215 O 395.653 -1.50549 1.03156 0
M  V30 4216 C 395.704 0.981395 3.47924 0
M  V30 4217 O 395.425 2.36018 3.6909 0
M  V30 4218 C 396.926 0.692815 4.37853 0
M  V30 4219 H 394.146 0.253821 0.621141 0
M  V30 4220 H 396.69 1.32668 1.55626 0
M  V30 4221 H 394.845 0.386481 3.85467 0
M  V30 4222 H 395.259 2.45884 4.63294 0
M  V30 4223 H 396.733 0.949818 5.43767 0
M  V30 4224 H 397.21 -0.373181 4.37612 0
M  V30 4225 H 397.816 1.26874 4.05935 0
M  V30 4226 N 396.131 -1.37776 0.765217 0
M  V30 4227 C 397.378 -1.99849 0.326588 0
M  V30 4228 C 397.706 -1.60746 -1.09504 0
M  V30 4229 O 396.961 -0.84202 -1.76659 0
M  V30 4230 C 397.26 -3.5504 0.410053 0
M  V30 4231 C 396.926 -4.13891 1.78899 0
M  V30 4232 C 395.588 -4.29678 2.16635 0
M  V30 4233 C 397.94 -4.46236 2.69301 0
M  V30 4234 C 395.268 -4.7511 3.44221 0
M  V30 4235 C 397.62 -4.93089 3.9629 0
M  V30 4236 C 396.284 -5.07082 4.34078 0
M  V30 4237 H 395.554 -0.7313 0.119507 0
M  V30 4238 H 398.201 -1.64645 0.977968 0
M  V30 4239 H 396.506 -3.90451 -0.324878 0
M  V30 4240 H 398.203 -4.00966 0.0520699 0
M  V30 4241 H 394.793 -4.02026 1.48569 0
M  V30 4242 H 398.977 -4.3363 2.41409 0
M  V30 4243 H 394.233 -4.84129 3.73402 0
M  V30 4244 H 398.407 -5.17084 4.66472 0
M  V30 4245 H 396.034 -5.42046 5.33001 0
M  V30 4246 N 397.609 -0.515225 -1.4894 0
M  V30 4247 C 398.539 0.244628 -2.32215 0
M  V30 4248 C 399.52 0.949136 -1.41157 0
M  V30 4249 O 400.705 0.937783 -1.70057 0
M  V30 4250 C 397.835 1.30096 -3.22013 0
M  V30 4251 C 396.789 0.715486 -4.21977 0
M  V30 4252 C 396.115 1.87339 -5.00808 0
M  V30 4253 C 397.415 -0.302982 -5.2142 0
M  V30 4254 H 399.109 -0.450501 -2.95991 0
M  V30 4255 H 396.655 -0.218098 -1.42339 0
M  V30 4256 H 398.608 1.84037 -3.79089 0
M  V30 4257 H 397.332 2.02547 -2.56207 0
M  V30 4258 H 395.991 0.197715 -3.66066 0
M  V30 4259 H 395.639 2.58592 -4.31438 0
M  V30 4260 H 395.339 1.48764 -5.68457 0
M  V30 4261 H 396.863 2.41686 -5.60732 0
M  V30 4262 H 398.277 0.148802 -5.73107 0
M  V30 4263 H 396.674 -0.60532 -5.97039 0
M  V30 4264 H 397.744 -1.21395 -4.69459 0
M  V30 4265 N 399.087 1.5561 -0.249682 0
M  V30 4266 C 400.312 2.03865 0.381305 0
M  V30 4267 C 400.737 1.12769 1.50548 0
M  V30 4268 O 400.095 0.121189 1.80895 0
M  V30 4269 C 400.143 3.50101 0.863816 0
M  V30 4270 O 399.247 3.62132 1.97318 0
M  V30 4271 H 398.588 0.658827 0.0827194 0
M  V30 4272 H 401.118 2.01105 -0.376552 0
M  V30 4273 H 401.128 3.90975 1.1663 0
M  V30 4274 H 399.803 4.1588 0.0411816 0
M  V30 4275 H 398.38 3.33155 1.67517 0
M  V30 4276 N 400.565 -0.0233959 1.57583 0
M  V30 4277 C 401.495 -1.02162 2.09965 0
M  V30 4278 C 402.476 -1.3735 1.00344 0
M  V30 4279 O 403.661 -1.46135 1.27899 0
M  V30 4280 C 400.791 -2.32081 2.58371 0
M  V30 4281 C 399.745 -2.1112 3.72307 0
M  V30 4282 C 399.071 -3.46848 4.06941 0
M  V30 4283 C 400.371 -1.49276 5.00514 0
M  V30 4284 H 402.065 -0.585557 2.93618 0
M  V30 4285 H 399.611 -0.280218 1.41247 0
M  V30 4286 H 401.564 -3.02249 2.93639 0
M  V30 4287 H 400.288 -2.77758 1.71808 0
M  V30 4288 H 398.947 -1.43384 3.37397 0
M  V30 4289 H 398.595 -3.90184 3.17436 0
M  V30 4290 H 398.295 -3.33646 4.83688 0
M  V30 4291 H 399.819 -4.18369 4.44747 0
M  V30 4292 H 401.233 -2.09368 5.33702 0
M  V30 4293 H 399.63 -1.46632 5.8191 0
M  V30 4294 H 400.7 -0.459217 4.82721 0
M  V30 4295 N 402.043 -1.548 -0.295768 0
M  V30 4296 C 402.975 -1.82492 -1.3867 0
M  V30 4297 C 403.988 -0.708134 -1.46592 0
M  V30 4298 O 405.177 -0.985686 -1.48817 0
M  V30 4299 C 402.277 -1.95256 -2.76999 0
M  V30 4300 C 401.45 -3.25709 -2.91946 0
M  V30 4301 C 400.509 -3.28824 -4.10806 0
M  V30 4302 O 399.535 -4.02328 -4.02643 0
M  V30 4303 N 400.737 -2.5459 -5.21694 0
M  V30 4304 H 403.502 -2.76646 -1.15269 0
M  V30 4305 H 401.063 -1.54438 -0.485849 0
M  V30 4306 H 403.055 -1.94736 -3.54768 0
M  V30 4307 H 401.625 -1.08072 -2.93324 0
M  V30 4308 H 400.845 -3.38959 -2.01247 0
M  V30 4309 H 402.133 -4.11786 -2.98847 0
M  V30 4310 H 401.531 -1.94512 -5.31208 0
M  V30 4311 H 400.088 -2.59818 -5.97778 0
M  V30 4312 N 403.521 0.559213 -1.47345 0
M  V30 4313 C 404.767 1.31614 -1.55079 0
M  V30 4314 C 405.122 1.91257 -0.209422 0
M  V30 4315 O 404.415 1.74796 0.784656 0
M  V30 4316 C 404.609 2.44853 -2.6035 0
M  V30 4317 C 404.438 1.96305 -4.04591 0
M  V30 4318 C 403.208 1.8024 -4.72061 0
M  V30 4319 C 405.406 1.50872 -4.91673 0
M  V30 4320 N 403.388 1.26011 -6.00828 0
M  V30 4321 C 404.759 1.08395 -6.10451 0
M  V30 4322 C 406.814 1.38905 -4.78132 0
M  V30 4323 C 405.517 0.551399 -7.17183 0
M  V30 4324 C 407.543 0.870518 -5.84958 0
M  V30 4325 C 406.905 0.455661 -7.02925 0
M  V30 4326 H 403.004 0.473712 -0.62219 0
M  V30 4327 H 405.588 0.634103 -1.84085 0
M  V30 4328 H 403.759 3.10589 -2.33215 0
M  V30 4329 H 405.491 3.11849 -2.57938 0
M  V30 4330 H 402.246 2.02895 -4.27937 0
M  V30 4331 H 402.67 1.00991 -6.69425 0
M  V30 4332 H 407.312 1.69591 -3.87297 0
M  V30 4333 H 405.03 0.232159 -8.07766 0
M  V30 4334 H 408.616 0.781507 -5.76527 0
M  V30 4335 H 407.496 0.0606414 -7.84177 0
M  V30 4336 N 404.999 1.35443 0.805782 0
M  V30 4337 C 405.947 1.28465 1.93906 0
M  V30 4338 C 406.941 0.17943 1.68447 0
M  V30 4339 O 408.147 0.345459 1.76654 0
M  V30 4340 H 404.522 0.399528 0.637088 0
M  V30 4341 H 406.493 2.24206 1.96912 0
M  V30 4342 C 405.242 1.07432 3.30687 0
M  V30 4343 H 404.565 1.91716 3.50835 0
M  V30 4344 H 406.005 1.06591 4.10383 0
M  V30 4345 C 404.464 -0.22179 3.36169 0
M  V30 4346 O 404.994 -1.21731 3.82811 0
M  V30 4347 N 403.2 -0.260841 2.89427 0
M  V30 4348 H 402.747 0.549884 2.51663 0
M  V30 4349 H 402.705 -1.12777 2.93477 0
M  V30 4350 N 406.477 -1.02803 1.19454 0
M  V30 4351 C 407.41 -2.107 0.876396 0
M  V30 4352 C 408.388 -1.61741 -0.166897 0
M  V30 4353 O 409.572 -1.88451 -0.0430195 0
M  V30 4354 C 406.699 -3.37262 0.311758 0
M  V30 4355 C 405.745 -4.05093 1.33424 0
M  V30 4356 S 406.578 -4.50498 2.89503 0
M  V30 4357 C 407.734 -5.80277 2.34584 0
M  V30 4358 H 407.967 -2.37362 1.79016 0
M  V30 4359 H 405.5 -1.15755 1.02177 0
M  V30 4360 H 407.458 -4.10499 -0.00748752 0
M  V30 4361 H 406.119 -3.08693 -0.58032 0
M  V30 4362 H 405.312 -4.9611 0.888302 0
M  V30 4363 H 404.914 -3.3803 1.60037 0
M  V30 4364 H 407.206 -6.54873 1.73633 0
M  V30 4365 H 408.149 -6.29651 3.23952 0
M  V30 4366 H 408.557 -5.3599 1.77131 0
M  V30 4367 N 407.956 -0.998596 -1.21925 0
M  V30 4368 C 408.886 -0.573688 -2.26343 0
M  V30 4369 C 409.867 0.402296 -1.65274 0
M  V30 4370 O 411.052 0.291683 -1.91997 0
M  V30 4371 C 408.182 0.106839 -3.47136 0
M  V30 4372 C 407.136 -0.788269 -4.20678 0
M  V30 4373 C 406.462 0.0254927 -5.34694 0
M  V30 4374 C 407.762 -2.08784 -4.78755 0
M  V30 4375 H 409.456 -1.44651 -2.62138 0
M  V30 4376 H 407.002 -0.696975 -1.26009 0
M  V30 4377 H 408.955 0.415531 -4.19346 0
M  V30 4378 H 407.679 1.01424 -3.10452 0
M  V30 4379 H 406.338 -1.08069 -3.50309 0
M  V30 4380 H 405.986 0.933989 -4.94253 0
M  V30 4381 H 405.686 -0.570437 -5.84825 0
M  V30 4382 H 407.21 0.328147 -6.09718 0
M  V30 4383 H 408.624 -1.84272 -5.42878 0
M  V30 4384 H 407.021 -2.63307 -5.39249 0
M  V30 4385 H 408.091 -2.76284 -3.98491 0
M  V30 4386 N 409.434 1.37368 -0.772513 0
M  V30 4387 C 410.85 1.53059 -0.452231 0
M  V30 4388 C 411.05 1.73065 1.03203 0
M  V30 4389 O 410.106 1.75245 1.81784 0
M  V30 4390 C 411.419 2.72659 -1.26797 0
M  V30 4391 C 412.967 2.86521 -1.25995 0
M  V30 4392 C 413.442 4.09105 -2.05905 0
M  V30 4393 N 414.933 4.16219 -2.03263 0
M  V30 4394 C 415.668 5.10107 -2.61875 0
M  V30 4395 N 415.164 6.09547 -3.29278 0
M  V30 4396 N 416.957 5.02596 -2.51701 0
M  V30 4397 H 409.108 1.22634 -1.7342 0
M  V30 4398 H 411.371 0.597206 -0.736239 0
M  V30 4399 H 411.077 2.64343 -2.31982 0
M  V30 4400 H 410.951 3.66363 -0.897672 0
M  V30 4401 H 413.338 2.94308 -0.216081 0
M  V30 4402 H 413.419 1.93774 -1.66989 0
M  V30 4403 H 413.063 4.0208 -3.10313 0
M  V30 4404 H 412.993 5.00968 -1.62292 0
M  V30 4405 H 415.484 3.45012 -1.54192 0
M  V30 4406 H 415.797 6.77718 -3.71374 0
M  V30 4407 H 414.142 6.09824 -3.33377 0
M  V30 4408 H 417.333 4.23855 -1.98657 0
M  V30 4409 H 417.506 5.75582 -2.97673 0
M  V30 4410 N 410.912 0.523116 1.48665 0
M  V30 4411 C 412.158 -0.0134963 2.02796 0
M  V30 4412 C 412.491 -1.34582 1.40004 0
M  V30 4413 O 411.766 -1.86756 0.543381 0
M  V30 4414 C 412.049 -0.14276 3.59817 0
M  V30 4415 C 411.902 1.21425 4.331 0
M  V30 4416 C 413.221 -0.872856 4.31357 0
M  V30 4417 H 410.34 -0.00343074 0.736992 0
M  V30 4418 H 412.982 0.678816 1.7746 0
M  V30 4419 H 411.132 -0.732401 3.81534 0
M  V30 4420 H 412.804 1.84447 4.2282 0
M  V30 4421 H 411.047 1.79791 3.94788 0
M  V30 4422 H 411.718 1.07687 5.41394 0
M  V30 4423 H 414.194 -0.372555 4.14429 0
M  V30 4424 H 413.07 -0.932185 5.40927 0
M  V30 4425 H 413.331 -1.92161 3.98154 0
M  V30 4426 N 412.39 -1.55475 0.257931 0
M  V30 4427 C 413.32 -2.24815 -0.630912 0
M  V30 4428 C 414.301 -1.23224 -1.17259 0
M  V30 4429 O 415.486 -1.51904 -1.20991 0
M  V30 4430 C 412.616 -2.95609 -1.82298 0
M  V30 4431 C 411.57 -4.03982 -1.41359 0
M  V30 4432 C 410.896 -4.6226 -2.68738 0
M  V30 4433 C 412.196 -5.19109 -0.57648 0
M  V30 4434 H 413.89 -2.99354 -0.0526878 0
M  V30 4435 H 411.436 -1.4398 -0.023901 0
M  V30 4436 H 413.389 -3.42822 -2.45054 0
M  V30 4437 H 412.113 -2.18577 -2.42676 0
M  V30 4438 H 410.772 -3.57555 -0.809324 0
M  V30 4439 H 410.42 -3.81915 -3.27338 0
M  V30 4440 H 410.12 -5.35424 -2.42065 0
M  V30 4441 H 411.644 -5.12212 -3.32372 0
M  V30 4442 H 413.058 -5.62479 -1.10861 0
M  V30 4443 H 411.455 -5.98729 -0.405351 0
M  V30 4444 H 412.525 -4.83174 0.408776 0
M  V30 4445 N 413.868 0.0150385 -1.57593 0
M  V30 4446 C 415.279 0.559832 -1.78109 0
M  V30 4447 C 415.63 1.74814 -0.890756 0
M  V30 4448 O 414.755 2.16216 -0.0892482 0
M  V30 4449 C 415.35 1.02238 -3.23006 0
M  V30 4450 C 413.909 1.51258 -3.44671 0
M  V30 4451 C 413.056 0.456955 -2.73509 0
M  V30 4452 H 416.007 -0.211169 -1.57289 0
M  V30 4453 H 416.028 1.88912 -3.30292 0
M  V30 4454 H 415.54 0.157302 -3.87781 0
M  V30 4455 H 413.641 2.39905 -2.8509 0
M  V30 4456 H 413.754 1.55042 -4.5332 0
M  V30 4457 H 412.118 0.915196 -2.37689 0
M  V30 4458 H 412.901 -0.398896 -3.40975 0
M  V30 4459 N 415.346 1.54954 0.287554 0
M  V30 4460 C 416.309 1.86076 1.33823 0
M  V30 4461 C 417.309 0.734414 1.43049 0
M  V30 4462 O 418.499 1.00266 1.42452 0
M  V30 4463 C 415.631 2.05305 2.72144 0
M  V30 4464 H 416.824 2.79984 1.07465 0
M  V30 4465 H 414.377 1.47223 0.524902 0
M  V30 4466 H 415.112 1.1373 3.03704 0
M  V30 4467 H 414.897 2.873 2.66836 0
M  V30 4468 H 416.387 2.30706 3.48087 0
M  V30 4469 N 416.824 -0.551391 1.4764 0
M  V30 4470 C 418.072 -1.30572 1.54258 0
M  V30 4471 C 418.393 -1.93877 0.208963 0
M  V30 4472 O 417.663 -1.80234 -0.767619 0
M  V30 4473 H 416.243 -0.484894 0.568231 0
M  V30 4474 H 418.905 -0.643402 1.83974 0
M  V30 4475 H 418.001 -2.09621 2.31226 0
M  V30 4476 N 418.302 -1.35869 -0.798587 0
M  V30 4477 C 419.232 -1.32118 -1.92528 0
M  V30 4478 C 420.213 -0.194209 -1.68988 0
M  V30 4479 O 421.398 -0.390426 -1.90235 0
M  V30 4480 C 418.528 -1.10047 -3.29404 0
M  V30 4481 C 417.482 -2.19471 -3.67446 0
M  V30 4482 C 416.808 -1.82555 -5.02571 0
M  V30 4483 C 418.108 -3.61495 -3.76987 0
M  V30 4484 H 419.802 -2.26394 -1.95924 0
M  V30 4485 H 417.348 -1.08981 -0.94123 0
M  V30 4486 H 419.301 -1.06061 -4.07835 0
M  V30 4487 H 418.025 -0.122195 -3.26371 0
M  V30 4488 H 416.684 -2.22568 -2.91306 0
M  V30 4489 H 416.332 -0.833249 -4.9605 0
M  V30 4490 H 416.032 -2.5581 -5.28995 0
M  V30 4491 H 417.556 -1.80108 -5.83432 0
M  V30 4492 H 418.97 -3.60676 -4.4563 0
M  V30 4493 H 417.367 -4.33577 -4.14887 0
M  V30 4494 H 418.437 -3.97065 -2.78329 0
M  V30 4495 N 419.78 1.02168 -1.19998 0
M  V30 4496 C 421.027 1.75685 -1.00702 0
M  V30 4497 C 421.355 1.88947 0.461426 0
M  V30 4498 O 420.61 1.40832 1.35885 0
M  V30 4499 C 420.909 3.18081 -1.62969 0
M  V30 4500 C 420.575 3.24809 -3.12746 0
M  V30 4501 C 419.237 3.26352 -3.53621 0
M  V30 4502 C 421.589 3.23379 -4.08749 0
M  V30 4503 C 418.917 3.2413 -4.89036 0
M  V30 4504 C 421.269 3.22698 -5.44104 0
M  V30 4505 C 419.933 3.22542 -5.84399 0
M  V30 4506 H 419.203 0.642877 -0.368496 0
M  V30 4507 H 421.85 1.19865 -1.49348 0
M  V30 4508 H 420.155 3.77027 -1.06573 0
M  V30 4509 H 421.852 3.73648 -1.45561 0
M  V30 4510 H 418.442 3.2434 -2.80181 0
M  V30 4511 H 422.626 3.21361 -3.78207 0
M  V30 4512 H 417.882 3.22338 -5.19527 0
M  V30 4513 H 422.056 3.20543 -6.18244 0
M  V30 4514 H 419.683 3.20575 -6.89301 0
M  V30 4515 N 421.258 1.00505 1.21394 0
M  V30 4516 C 422.221 0.570459 2.21987 0
M  V30 4517 C 423.221 -0.353211 1.56873 0
M  V30 4518 O 424.411 -0.14349 1.73608 0
M  V30 4519 C 421.543 -0.168555 3.40483 0
M  V30 4520 H 422.736 1.46021 2.6195 0
M  V30 4521 H 420.289 0.793565 1.34656 0
M  V30 4522 H 421.024 -1.07374 3.06009 0
M  V30 4523 H 420.809 0.494823 3.88965 0
M  V30 4524 H 422.299 -0.460362 4.15055 0
M  V30 4525 N 422.737 -1.36956 0.779787 0
M  V30 4526 C 423.687 -2.27539 0.144892 0
M  V30 4527 C 424.671 -1.46493 -0.665488 0
M  V30 4528 O 425.863 -1.68968 -0.527141 0
M  V30 4529 C 422.992 -3.35512 -0.727082 0
M  V30 4530 C 422.078 -4.24001 0.0915642 0
M  V30 4531 N 422.469 -4.92757 1.14125 0
M  V30 4532 C 420.767 -4.45807 -0.131141 0
M  V30 4533 C 421.468 -5.58138 1.6388 0
M  V30 4534 N 420.444 -5.35241 0.94962 0
M  V30 4535 H 424.246 -2.78176 0.948446 0
M  V30 4536 H 421.76 -1.50169 0.618315 0
M  V30 4537 H 423.757 -3.99324 -1.19776 0
M  V30 4538 H 422.417 -2.86431 -1.52929 0
M  V30 4539 H 423.428 -4.94984 1.52353 0
M  V30 4540 H 420.105 -4.07582 -0.904621 0
M  V30 4541 H 421.495 -6.23071 2.51461 0
M  V30 4542 N 424.215 -0.530993 -1.48385 0
M  V30 4543 C 425.443 -0.00134122 -2.069 0
M  V30 4544 C 425.858 1.2805 -1.3874 0
M  V30 4545 O 425.215 1.76204 -0.475244 0
M  V30 4546 C 425.266 0.225256 -3.60798 0
M  V30 4547 O 424.987 -1.0058 -4.26398 0
M  V30 4548 C 426.488 0.795172 -4.3611 0
M  V30 4549 H 423.708 -0.0339704 -0.67014 0
M  V30 4550 H 426.252 -0.736926 -1.90761 0
M  V30 4551 H 424.407 0.910891 -3.76539 0
M  V30 4552 H 424.821 -0.787165 -5.1856 0
M  V30 4553 H 426.295 0.903143 -5.44562 0
M  V30 4554 H 426.772 1.80031 -4.00606 0
M  V30 4555 H 427.378 0.146069 -4.25049 0
M  V30 4556 N 425.693 1.55336 -0.266172 0
M  V30 4557 C 427.104 1.85236 0.233315 0
M  V30 4558 C 427.455 1.18816 1.56132 0
M  V30 4559 O 426.58 0.473307 2.11161 0
M  V30 4560 C 427.175 3.36059 0.430113 0
M  V30 4561 C 425.734 3.66116 0.873842 0
M  V30 4562 C 424.881 2.77274 -0.0380016 0
M  V30 4563 H 427.832 1.51004 -0.488214 0
M  V30 4564 H 427.853 3.58681 1.26998 0
M  V30 4565 H 427.365 3.84373 -0.536588 0
M  V30 4566 H 425.466 3.23295 1.85233 0
M  V30 4567 H 425.579 4.73699 0.717358 0
M  V30 4568 H 423.943 2.50198 0.476759 0
M  V30 4569 H 424.726 3.284 -1.00042 0
M  V30 4570 N 427.171 -0.0066808 1.57599 0
M  V30 4571 C 428.411 -0.697501 1.92131 0
M  V30 4572 C 428.775 -1.71306 0.867071 0
M  V30 4573 O 429.976 -2.45377 1.09743 0
M  V30 4574 C 428.247 -1.32978 3.3174 0
M  V30 4575 S 429.806 -2.04665 3.88146 0
M  V30 4576 H 426.624 -0.230555 0.672581 0
M  V30 4577 H 429.226 0.0484026 1.9544 0
M  V30 4578 H 427.93 -0.57772 4.06313 0
M  V30 4579 H 427.461 -2.11376 3.31789 0
M  V30 4580 H 429.476 -3.32097 3.68682 0
M  V30 4581 N 428.649 -1.55105 -0.279332 0
M  V30 4582 C 429.579 -1.90557 -1.34945 0
M  V30 4583 C 430.56 -0.766738 -1.51839 0
M  V30 4584 O 431.745 -1.02434 -1.64988 0
M  V30 4585 C 428.875 -2.17193 -2.71006 0
M  V30 4586 C 427.829 -3.33021 -2.68851 0
M  V30 4587 C 427.155 -3.45123 -4.08405 0
M  V30 4588 C 428.455 -4.69578 -2.28678 0
M  V30 4589 H 430.149 -2.80188 -1.05522 0
M  V30 4590 H 427.695 -1.34811 -0.506173 0
M  V30 4591 H 429.648 -2.40581 -3.45975 0
M  V30 4592 H 428.372 -1.24355 -3.01999 0
M  V30 4593 H 427.031 -3.0959 -1.9634 0
M  V30 4594 H 426.679 -2.49762 -4.3661 0
M  V30 4595 H 426.379 -4.22995 -4.07859 0
M  V30 4596 H 427.903 -3.70796 -4.85121 0
M  V30 4597 H 429.317 -4.92553 -2.93368 0
M  V30 4598 H 427.714 -5.5032 -2.39306 0
M  V30 4599 H 428.784 -4.68828 -1.23807 0
M  V30 4600 N 430.127 0.543554 -1.4793 0
M  V30 4601 C 431.373 1.30201 -1.55485 0
M  V30 4602 C 431.706 1.92925 -0.222201 0
M  V30 4603 O 430.981 1.78586 0.77053 0
M  V30 4604 C 431.264 2.40174 -2.68307 0
M  V30 4605 C 431.117 1.8223 -4.11233 0
M  V30 4606 C 432.436 3.42024 -2.76961 0
M  V30 4607 H 429.555 0.472036 -0.565996 0
M  V30 4608 H 432.197 0.606914 -1.80046 0
M  V30 4609 H 430.347 2.99463 -2.47495 0
M  V30 4610 H 432.019 1.27096 -4.43446 0
M  V30 4611 H 430.262 1.12832 -4.18869 0
M  V30 4612 H 430.933 2.61793 -4.85972 0
M  V30 4613 H 433.409 2.92672 -2.95774 0
M  V30 4614 H 432.285 4.16383 -3.57654 0
M  V30 4615 H 432.546 4.0173 -1.84568 0
M  V30 4616 N 431.605 1.3629 0.791371 0
M  V30 4617 C 432.853 1.30154 1.5461 0
M  V30 4618 C 433.174 -0.119409 1.94634 0
M  V30 4619 O 432.444 -1.05924 1.64794 0
M  V30 4620 H 431.024 0.478784 0.573389 0
M  V30 4621 H 433.686 1.70565 0.94306 0
M  V30 4622 H 432.782 1.92762 2.45457 0
M  V30 4623 N 433.083 -1.0153 1.20538 0
M  V30 4624 C 434.013 -2.11972 0.979295 0
M  V30 4625 C 434.994 -1.6985 -0.0921787 0
M  V30 4626 O 436.179 -1.94089 0.0655932 0
M  V30 4627 C 433.309 -3.43201 0.531984 0
M  V30 4628 C 432.263 -3.9907 1.54685 0
M  V30 4629 C 431.589 -5.26082 0.956127 0
M  V30 4630 C 432.889 -4.32313 2.93092 0
M  V30 4631 H 434.583 -2.31143 1.90298 0
M  V30 4632 H 432.129 -1.11079 0.916372 0
M  V30 4633 H 434.082 -4.1985 0.361044 0
M  V30 4634 H 432.806 -3.23792 -0.427327 0
M  V30 4635 H 431.465 -3.2453 1.70517 0
M  V30 4636 H 431.113 -5.02999 -0.0111538 0
M  V30 4637 H 430.813 -5.64426 1.63393 0
M  V30 4638 H 432.337 -6.05386 0.796284 0
M  V30 4639 H 433.751 -4.99845 2.80763 0
M  V30 4640 H 432.148 -4.81774 3.57791 0
M  V30 4641 H 433.218 -3.41025 3.44717 0
M  V30 4642 N 434.561 -1.01147 -1.20859 0
M  V30 4643 C 435.786 -0.716698 -1.94623 0
M  V30 4644 C 436.211 0.715415 -1.73964 0
M  V30 4645 O 435.569 1.49157 -1.03062 0
M  V30 4646 C 435.617 -1.0513 -3.44935 0
M  V30 4647 O 434.721 -0.160131 -4.12089 0
M  V30 4648 H 434.062 -0.266404 -0.608214 0
M  V30 4649 H 436.592 -1.35346 -1.53436 0
M  V30 4650 H 436.602 -1.00086 -3.95533 0
M  V30 4651 H 435.277 -2.09475 -3.59295 0
M  V30 4652 H 433.854 -0.267657 -3.71938 0
M  V30 4653 N 436.039 1.36541 -0.78704 0
M  V30 4654 C 436.969 2.32659 -0.197992 0
M  V30 4655 C 437.95 1.56533 0.665697 0
M  V30 4656 O 439.135 1.84698 0.60001 0
M  V30 4657 C 436.265 3.40778 0.669901 0
M  V30 4658 C 435.219 4.27897 -0.0937039 0
M  V30 4659 C 434.545 5.27163 0.894629 0
M  V30 4660 C 435.845 5.06334 -1.28154 0
M  V30 4661 H 437.539 2.82171 -1.00099 0
M  V30 4662 H 435.085 1.35665 -0.482793 0
M  V30 4663 H 437.038 4.07008 1.09191 0
M  V30 4664 H 435.762 2.89827 1.50558 0
M  V30 4665 H 434.421 3.6322 -0.49666 0
M  V30 4666 H 434.069 4.72486 1.72527 0
M  V30 4667 H 433.769 5.86317 0.388149 0
M  V30 4668 H 435.293 5.96266 1.31525 0
M  V30 4669 H 436.707 5.65617 -0.93541 0
M  V30 4670 H 435.104 5.74888 -1.72115 0
M  V30 4671 H 436.174 4.38114 -2.07807 0
M  V30 4672 N 437.518 0.538854 1.48102 0
M  V30 4673 C 438.746 0.0123136 2.06896 0
M  V30 4674 C 439.161 -1.27312 1.39417 0
M  V30 4675 O 438.518 -1.75949 0.484582 0
M  V30 4676 C 438.569 -0.206118 3.60912 0
M  V30 4677 O 438.29 1.0284 4.25859 0
M  V30 4678 C 439.791 -0.772033 4.36526 0
M  V30 4679 H 437.011 0.0375239 0.66995 0
M  V30 4680 H 439.555 0.747032 1.90367 0
M  V30 4681 H 437.71 -0.89091 3.77017 0
M  V30 4682 H 438.124 0.814654 5.18135 0
M  V30 4683 H 439.598 -0.874251 5.45033 0
M  V30 4684 H 440.075 -1.77904 4.01555 0
M  V30 4685 H 440.681 -0.123526 4.25121 0
M  V30 4686 N 438.996 -1.55193 0.274407 0
M  V30 4687 C 439.946 -2.19184 -0.627882 0
M  V30 4688 C 440.93 -1.15625 -1.11892 0
M  V30 4689 O 442.122 -1.41441 -1.06411 0
M  V30 4690 C 439.251 -2.91591 -1.81189 0
M  V30 4691 C 438.337 -4.02438 -1.33807 0
M  V30 4692 N 438.728 -5.0246 -0.580349 0
M  V30 4693 C 437.026 -4.15496 -1.62109 0
M  V30 4694 C 437.727 -5.80756 -0.331344 0
M  V30 4695 N 436.703 -5.36038 -0.903556 0
M  V30 4696 H 440.505 -2.93871 -0.0411216 0
M  V30 4697 H 438.019 -1.62213 0.0779348 0
M  V30 4698 H 440.016 -3.35883 -2.46957 0
M  V30 4699 H 438.676 -2.18414 -2.40261 0
M  V30 4700 H 439.687 -5.17399 -0.227762 0
M  V30 4701 H 436.364 -3.53509 -2.22121 0
M  V30 4702 H 437.754 -6.71335 0.275454 0
M  V30 4703 N 440.474 -0.00167713 -1.576 0
M  V30 4704 C 441.422 1.0074 -2.09652 0
M  V30 4705 C 442.416 1.35483 -1.01689 0
M  V30 4706 O 443.622 1.34028 -1.20152 0
M  V30 4707 H 439.997 0.342537 -0.669457 0
M  V30 4708 H 441.968 0.542841 -2.93421 0
M  V30 4709 C 440.717 2.2899 -2.61647 0
M  V30 4710 H 440.04 2.03124 -3.44355 0
M  V30 4711 H 441.48 2.9787 -3.01744 0
M  V30 4712 C 439.939 3.00085 -1.53136 0
M  V30 4713 O 440.469 3.91135 -0.91524 0
M  V30 4714 N 438.675 2.6194 -1.25841 0
M  V30 4715 H 438.222 1.8798 -1.76129 0
M  V30 4716 H 438.18 3.09822 -0.534576 0
M  V30 4717 N 441.952 1.55251 0.271103 0
M  V30 4718 C 442.884 1.84675 1.35749 0
M  V30 4719 C 443.897 0.731366 1.45447 0
M  V30 4720 O 445.086 1.00924 1.4723 0
M  V30 4721 C 442.186 1.99638 2.73857 0
M  V30 4722 C 441.359 3.30312 2.86727 0
M  V30 4723 C 440.418 3.35318 4.05522 0
M  V30 4724 O 439.444 4.08682 3.96191 0
M  V30 4725 N 440.646 2.62857 5.17577 0
M  V30 4726 H 443.411 2.78445 1.10853 0
M  V30 4727 H 440.972 1.55191 0.461218 0
M  V30 4728 H 442.964 2.00355 3.51625 0
M  V30 4729 H 441.534 1.12725 2.91568 0
M  V30 4730 H 440.754 3.42118 1.95829 0
M  V30 4731 H 442.042 4.16488 2.92258 0
M  V30 4732 H 441.44 2.02939 5.28046 0
M  V30 4733 H 439.997 2.69295 5.93568 0
M  V30 4734 N 443.43 -0.535701 1.48216 0
M  V30 4735 C 444.36 -1.65014 1.65204 0
M  V30 4736 C 445.341 -1.62554 0.501011 0
M  V30 4737 O 446.526 -1.7984 0.732886 0
M  V30 4738 C 443.656 -3.03616 1.68626 0
M  V30 4739 C 442.61 -3.20932 2.83172 0
M  V30 4740 C 441.936 -4.60537 2.71679 0
M  V30 4741 C 443.236 -3.04249 4.24535 0
M  V30 4742 H 444.93 -1.51053 2.58502 0
M  V30 4743 H 442.476 -0.725262 1.24402 0
M  V30 4744 H 444.429 -3.81446 1.79099 0
M  V30 4745 H 443.153 -3.18587 0.719026 0
M  V30 4746 H 441.812 -2.45517 2.72244 0
M  V30 4747 H 441.46 -4.72336 1.72937 0
M  V30 4748 H 441.16 -4.73069 3.48538 0
M  V30 4749 H 442.684 -5.40475 2.84112 0
M  V30 4750 H 444.098 -3.71877 4.36326 0
M  V30 4751 H 442.495 -3.28278 5.02348 0
M  V30 4752 H 443.565 -2.00739 4.41397 0
M  V30 4753 N 444.908 -1.36708 -0.784132 0
M  V30 4754 C 445.818 -1.3363 -1.92822 0
M  V30 4755 C 446.834 -0.237686 -1.72369 0
M  V30 4756 O 448.01 -0.470962 -1.95816 0
M  V30 4757 C 445.075 -1.13011 -3.27764 0
M  V30 4758 C 444.136 -2.32397 -3.60957 0
M  V30 4759 C 443.369 -2.12752 -4.89461 0
M  V30 4760 O 443.592 -1.10541 -5.59586 0
M  V30 4761 O 442.526 -3.00653 -5.21432 0
M  V30 4762 H 446.352 -2.29964 -1.98369 0
M  V30 4763 H 443.937 -1.1731 -0.925136 0
M  V30 4764 H 445.819 -1.03451 -4.08504 0
M  V30 4765 H 444.494 -0.19743 -3.23097 0
M  V30 4766 H 443.401 -2.47527 -2.80502 0
M  V30 4767 H 444.734 -3.2419 -3.70354 0
M  V30 4768 N 446.386 1.0089 -1.21074 0
M  V30 4769 C 447.614 1.78191 -1.05145 0
M  V30 4770 C 448.029 1.84537 0.398952 0
M  V30 4771 O 447.386 1.30393 1.27687 0
M  V30 4772 C 447.437 3.22288 -1.63746 0
M  V30 4773 O 447.158 3.16315 -3.03111 0
M  V30 4774 C 448.659 4.16106 -1.52875 0
M  V30 4775 H 445.879 0.560129 -0.369454 0
M  V30 4776 H 448.423 1.26945 -1.60328 0
M  V30 4777 H 446.578 3.70655 -1.12664 0
M  V30 4778 H 446.992 4.06817 -3.31059 0
M  V30 4779 H 448.466 5.15026 -1.98626 0
M  V30 4780 H 448.943 4.36541 -0.482521 0
M  V30 4781 H 449.549 3.73625 -2.03185 0
M  V30 4782 N 447.864 1.01787 1.20321 0
M  V30 4783 C 449.11 0.708985 1.90003 0
M  V30 4784 C 449.443 -0.759572 1.78729 0
M  V30 4785 O 448.718 -1.55198 1.17234 0
M  V30 4786 C 449.001 1.1469 3.41348 0
M  V30 4787 C 448.854 2.67586 3.61549 0
M  V30 4788 C 450.173 0.71915 4.34185 0
M  V30 4789 H 447.292 0.259034 0.689978 0
M  V30 4790 H 449.934 1.26584 1.41692 0
M  V30 4791 H 448.084 0.673128 3.82624 0
M  V30 4792 H 449.756 3.22826 3.29517 0
M  V30 4793 H 447.999 3.085 3.04976 0
M  V30 4794 H 448.67 2.93281 4.67643 0
M  V30 4795 H 451.146 1.12647 4.00562 0
M  V30 4796 H 450.022 1.05358 5.38694 0
M  V30 4797 H 450.283 -0.379111 4.40472 0
M  V30 4798 N 449.342 -1.36122 0.79427 0
M  V30 4799 C 450.305 -2.28309 0.201889 0
M  V30 4800 C 451.305 -1.49041 -0.603603 0
M  V30 4801 O 452.495 -1.68964 -0.423888 0
M  V30 4802 C 449.627 -3.3321 -0.719978 0
M  V30 4803 H 450.82 -2.82208 1.01481 0
M  V30 4804 H 448.373 -1.45768 0.564037 0
M  V30 4805 H 449.108 -2.84475 -1.55706 0
M  V30 4806 H 448.893 -3.91835 -0.144266 0
M  V30 4807 H 450.383 -4.02044 -1.12916 0
M  V30 4808 N 450.82 -0.546701 -1.47814 0
M  V30 4809 C 451.73 0.21026 -2.33656 0
M  V30 4810 C 452.746 0.922413 -1.47538 0
M  V30 4811 O 453.922 0.893652 -1.80488 0
M  V30 4812 C 450.987 1.23348 -3.24016 0
M  V30 4813 C 450.048 0.529883 -4.26017 0
M  V30 4814 C 449.281 1.50435 -5.12059 0
M  V30 4815 O 449.504 2.73837 -5.00369 0
M  V30 4816 O 448.438 1.03459 -5.92942 0
M  V30 4817 H 452.264 -0.493605 -2.99662 0
M  V30 4818 H 449.849 -0.307427 -1.46203 0
M  V30 4819 H 451.731 1.82438 -3.79861 0
M  V30 4820 H 450.406 1.91945 -2.60651 0
M  V30 4821 H 449.313 -0.101948 -3.73961 0
M  V30 4822 H 450.646 -0.11445 -4.92067 0
M  V30 4823 N 452.299 1.55045 -0.282633 0
M  V30 4824 C 453.547 1.99365 0.331334 0
M  V30 4825 C 453.868 1.1725 1.55812 0
M  V30 4826 O 453.138 0.263871 1.94115 0
M  V30 4827 H 451.718 0.736397 0.125414 0
M  V30 4828 H 454.38 1.90964 -0.389711 0
M  V30 4829 H 453.476 3.0596 0.616036 0
M  V30 4830 N 453.777 0.010035 1.57597 0
M  V30 4831 C 455.005 -0.683413 1.95287 0
M  V30 4832 C 455.42 -1.66747 0.885481 0
M  V30 4833 O 454.777 -1.82003 -0.134629 0
M  V30 4834 C 454.828 -1.40652 3.33015 0
M  V30 4835 O 454.549 -0.461916 4.35658 0
M  V30 4836 C 456.05 -2.19356 3.85225 0
M  V30 4837 H 453.27 -0.189708 0.643624 0
M  V30 4838 H 455.814 0.0641359 2.04399 0
M  V30 4839 H 453.969 -2.10562 3.2518 0
M  V30 4840 H 454.383 -0.973215 5.15392 0
M  V30 4841 H 455.857 -2.65433 4.83993 0
M  V30 4842 H 456.334 -3.02457 3.18459 0
M  V30 4843 H 456.94 -1.54442 3.96267 0
M  V30 4844 N 455.255 -1.55392 -0.262866 0
M  V30 4845 C 456.502 -1.76476 -0.993109 0
M  V30 4846 C 456.83 -0.571479 -1.85915 0
M  V30 4847 O 456.085 0.445733 -1.90556 0
M  V30 4848 C 456.384 -3.02889 -1.89718 0
M  V30 4849 C 456.05 -4.34974 -1.18781 0
M  V30 4850 C 454.712 -4.7087 -0.991699 0
M  V30 4851 C 457.064 -5.16695 -0.683798 0
M  V30 4852 C 454.392 -5.86036 -0.279024 0
M  V30 4853 C 456.744 -6.32598 0.0153327 0
M  V30 4854 C 455.408 -6.67127 0.223062 0
M  V30 4855 H 454.678 -0.64577 -0.363404 0
M  V30 4856 H 457.325 -1.89664 -0.264525 0
M  V30 4857 H 455.63 -2.84644 -2.6923 0
M  V30 4858 H 457.327 -3.16399 -2.46359 0
M  V30 4859 H 453.917 -4.06765 -1.35058 0
M  V30 4860 H 458.101 -4.8943 -0.8229 0
M  V30 4861 H 453.357 -6.11306 -0.107456 0
M  V30 4862 H 457.531 -6.95171 0.413584 0
M  V30 4863 H 455.158 -7.56216 0.777265 0
M  V30 4864 N 456.733 0.527833 -1.48498 0
M  V30 4865 C 457.696 1.61439 -1.62696 0
M  V30 4866 C 458.696 1.52824 -0.500136 0
M  V30 4867 O 459.886 1.56456 -0.765976 0
M  V30 4868 C 457.018 3.01063 -1.59918 0
M  V30 4869 H 458.211 1.50189 -2.59583 0
M  V30 4870 H 455.764 0.750055 -1.37127 0
M  V30 4871 H 456.499 3.17818 -0.645163 0
M  V30 4872 H 456.284 3.08725 -2.41726 0
M  V30 4873 H 457.774 3.80057 -1.73051 0
M  V30 4874 N 458.211 1.37122 0.776871 0
M  V30 4875 C 459.161 1.28989 1.88005 0
M  V30 4876 C 460.145 0.178765 1.59904 0
M  V30 4877 O 461.337 0.412705 1.72121 0
M  V30 4878 C 458.466 1.09402 3.25402 0
M  V30 4879 C 457.552 2.25036 3.59471 0
M  V30 4880 N 457.943 3.50407 3.64759 0
M  V30 4881 C 456.241 2.17078 3.89607 0
M  V30 4882 C 456.942 4.26628 3.95428 0
M  V30 4883 N 455.918 3.55709 4.11062 0
M  V30 4884 H 459.72 2.2394 1.90337 0
M  V30 4885 H 457.234 1.30021 0.973052 0
M  V30 4886 H 459.231 1.01661 4.04315 0
M  V30 4887 H 457.891 0.153632 3.24336 0
M  V30 4888 H 458.902 3.8438 3.47091 0
M  V30 4889 H 455.579 1.31067 3.96393 0
M  V30 4890 H 456.969 5.35107 4.06338 0
M  V30 4891 N 459.689 -1.00246 1.21608 0
M  V30 4892 C 460.619 -2.10921 1.00172 0
M  V30 4893 C 461.6 -1.69938 -0.0741587 0
M  V30 4894 O 462.785 -1.94009 0.0861753 0
M  V30 4895 C 459.915 -3.42618 0.568355 0
M  V30 4896 C 458.869 -3.97407 1.58909 0
M  V30 4897 C 458.195 -5.25038 1.01187 0
M  V30 4898 C 459.495 -4.2918 2.97661 0
M  V30 4899 H 461.189 -2.29112 1.92739 0
M  V30 4900 H 458.735 -1.10101 0.928102 0
M  V30 4901 H 460.688 -4.19444 0.405555 0
M  V30 4902 H 459.412 -3.24227 -0.392961 0
M  V30 4903 H 458.071 -3.22703 1.73949 0
M  V30 4904 H 457.719 -5.02982 0.0421965 0
M  V30 4905 H 457.419 -5.62661 1.6937 0
M  V30 4906 H 458.943 -6.04507 0.860448 0
M  V30 4907 H 460.357 -4.96839 2.86049 0
M  V30 4908 H 458.754 -4.77952 3.6288 0
M  V30 4909 H 459.824 -3.3735 3.48315 0
M  V30 4910 N 461.167 -1.02423 -1.1978 0
M  V30 4911 C 462.392 -0.7373 -1.93852 0
M  V30 4912 C 462.817 0.696923 -1.74713 0
M  V30 4913 O 462.175 1.48056 -1.04638 0
M  V30 4914 C 462.223 -1.08783 -3.438 0
M  V30 4915 O 461.327 -0.20383 -4.11896 0
M  V30 4916 H 460.668 -0.27284 -0.605355 0
M  V30 4917 H 463.198 -1.36966 -1.51992 0
M  V30 4918 H 463.208 -1.04276 -3.9445 0
M  V30 4919 H 461.883 -2.13274 -3.57053 0
M  V30 4920 H 460.46 -0.307091 -3.71633 0
M  V30 4921 N 462.645 1.35699 -0.801477 0
M  V30 4922 C 463.593 2.3177 -0.196317 0
M  V30 4923 C 464.587 1.56388 0.651081 0
M  V30 4924 O 465.793 1.71557 0.544815 0
M  V30 4925 H 462.168 0.750669 -0.0447189 0
M  V30 4926 H 464.139 2.8036 -1.02181 0
M  V30 4927 C 462.888 3.41671 0.644702 0
M  V30 4928 H 462.211 3.998 0.0019921 0
M  V30 4929 H 463.651 4.11184 1.0346 0
M  V30 4930 C 462.11 2.84271 1.80808 0
M  V30 4931 O 462.64 2.77408 2.9053 0
M  V30 4932 N 460.846 2.41391 1.61799 0
M  V30 4933 H 460.393 2.47173 0.725493 0
M  V30 4934 H 460.351 2.03334 2.39797 0
M  V30 4935 N 464.123 0.554532 1.47522 0
M  V30 4936 C 465.053 -0.182974 2.32782 0
M  V30 4937 C 466.034 -0.911377 1.43624 0
M  V30 4938 O 467.219 -0.892366 1.72483 0
M  V30 4939 C 464.349 -1.21513 3.25349 0
M  V30 4940 C 463.303 -0.603355 4.23726 0
M  V30 4941 C 462.629 -1.73995 5.05598 0
M  V30 4942 C 463.929 0.441121 5.20434 0
M  V30 4943 H 465.623 0.52882 2.94693 0
M  V30 4944 H 463.169 0.255759 1.41711 0
M  V30 4945 H 465.122 -1.73922 3.83835 0
M  V30 4946 H 463.846 -1.95683 2.61487 0
M  V30 4947 H 462.505 -0.10059 3.66462 0
M  V30 4948 H 462.153 -2.47063 4.38143 0
M  V30 4949 H 461.853 -1.3364 5.72201 0
M  V30 4950 H 463.377 -2.26735 5.66942 0
M  V30 4951 H 464.791 0.00319931 5.733 0
M  V30 4952 H 463.188 0.763402 5.95224 0
M  V30 4953 H 464.258 1.33799 4.66075 0
M  V30 4954 N 465.601 -1.54893 0.290851 0
M  V30 4955 C 467.017 -1.59476 -0.0628432 0
M  V30 4956 C 467.217 -1.30795 -1.5328 0
M  V30 4957 O 466.273 -1.07644 -2.28406 0
M  V30 4958 C 467.586 -2.98928 0.325962 0
M  V30 4959 C 469.134 -3.11799 0.273882 0
M  V30 4960 C 469.609 -4.53544 0.637359 0
M  V30 4961 N 471.1 -4.59433 0.589507 0
M  V30 4962 C 471.835 -5.67164 0.84335 0
M  V30 4963 N 471.331 -6.82975 1.16263 0
M  V30 4964 N 473.124 -5.56786 0.771091 0
M  V30 4965 H 465.275 -1.71798 1.24896 0
M  V30 4966 H 467.538 -0.801879 0.505663 0
M  V30 4967 H 467.244 -3.24805 1.34887 0
M  V30 4968 H 467.118 -3.75793 -0.325441 0
M  V30 4969 H 469.505 -2.85677 -0.739765 0
M  V30 4970 H 469.586 -2.37112 0.959766 0
M  V30 4971 H 469.23 -4.80394 1.64877 0
M  V30 4972 H 469.16 -5.26553 -0.0704866 0
M  V30 4973 H 471.651 -3.76245 0.353252 0
M  V30 4974 H 471.964 -7.61048 1.34257 0
M  V30 4975 H 470.309 -6.84552 1.20057 0
M  V30 4976 H 473.5 -4.65187 0.521383 0
M  V30 4977 H 473.673 -6.40664 0.972295 0
M  V30 4978 N 467.08 -0.0183926 -1.57589 0
M  V30 4979 C 468.305 0.676634 -1.96052 0
M  V30 4980 C 468.73 1.6548 -0.894307 0
M  V30 4981 O 468.088 1.80712 0.145849 0
M  V30 4982 C 468.136 1.36872 -3.33614 0
M  V30 4983 O 467.24 2.48372 -3.29219 0
M  V30 4984 H 466.581 0.1786 -0.63953 0
M  V30 4985 H 469.111 -0.077056 -2.04455 0
M  V30 4986 H 469.121 1.72797 -3.69601 0
M  V30 4987 H 467.796 0.651636 -4.10763 0
M  V30 4988 H 466.373 2.14639 -3.04934 0
M  V30 4989 N 468.558 1.5553 0.254621 0
M  V30 4990 C 469.488 1.9268 1.31897 0
M  V30 4991 C 470.469 0.790797 1.506 0
M  V30 4992 O 471.654 1.05045 1.63337 0
M  V30 4993 C 468.784 2.21477 2.67517 0
M  V30 4994 C 467.738 3.37256 2.63519 0
M  V30 4995 C 467.064 3.51576 4.02862 0
M  V30 4996 C 468.364 4.73157 2.21179 0
M  V30 4997 H 470.058 2.81832 1.01051 0
M  V30 4998 H 467.604 1.35599 0.484662 0
M  V30 4999 H 469.557 2.46055 3.42104 0
M  V30 5000 H 468.281 1.29144 2.99982 0
M  V30 5001 H 466.94 3.12675 1.9139 0
M  V30 5002 H 466.588 2.56676 4.32581 0
M  V30 5003 H 466.288 4.2943 4.01078 0
M  V30 5004 H 467.812 3.78467 4.79161 0
M  V30 5005 H 469.226 4.97158 2.85494 0
M  V30 5006 H 467.623 5.54058 2.30521 0
M  V30 5007 H 468.693 4.70739 1.16332 0
M  V30 5008 N 470.036 -0.519951 1.48776 0
M  V30 5009 C 470.969 -1.64053 1.58625 0
M  V30 5010 C 471.947 -1.5664 0.43618 0
M  V30 5011 O 473.131 -1.76969 0.649159 0
M  V30 5012 C 470.258 -3.02497 1.52359 0
M  V30 5013 C 469.304 -3.28235 2.72331 0
M  V30 5014 S 470.137 -3.13414 4.34203 0
M  V30 5015 C 471.293 -4.54287 4.30551 0
M  V30 5016 H 471.526 -1.5545 2.53422 0
M  V30 5017 H 469.059 -0.703681 1.37433 0
M  V30 5018 H 471.017 -3.82336 1.4943 0
M  V30 5019 H 469.678 -3.08531 0.588824 0
M  V30 5020 H 468.871 -4.29256 2.64113 0
M  V30 5021 H 468.473 -2.56085 2.72574 0
M  V30 5022 H 470.765 -5.46006 4.01103 0
M  V30 5023 H 471.708 -4.67558 5.31785 0
M  V30 5024 H 472.116 -4.34079 3.60881 0
M  V30 5025 N 471.514 -1.37532 -0.769588 0
M  V30 5026 C 472.444 -1.36172 -1.89682 0
M  V30 5027 C 473.425 -0.23001 -1.68538 0
M  V30 5028 O 474.61 -0.43069 -1.89364 0
M  V30 5029 C 471.74 -1.1701 -3.26995 0
M  V30 5030 C 470.694 -2.27216 -3.62708 0
M  V30 5031 C 470.02 -1.93174 -4.98586 0
M  V30 5032 C 471.32 -3.6941 -3.69234 0
M  V30 5033 H 473.014 -2.30499 -1.91078 0
M  V30 5034 H 470.56 -1.10953 -0.917902 0
M  V30 5035 H 472.513 -1.14688 -4.05493 0
M  V30 5036 H 471.237 -0.191395 -3.26039 0
M  V30 5037 H 469.896 -2.28697 -2.86519 0
M  V30 5038 H 469.544 -0.938281 -4.94171 0
M  V30 5039 H 469.244 -2.66973 -5.23449 0
M  V30 5040 H 470.768 -1.92443 -5.79481 0
M  V30 5041 H 472.182 -3.70047 -4.37879 0
M  V30 5042 H 470.579 -4.4228 -4.05597 0
M  V30 5043 H 471.649 -4.0288 -2.69844 0
M  V30 5044 N 472.992 0.995999 -1.22138 0
M  V30 5045 C 474.217 1.77601 -1.0711 0
M  V30 5046 C 474.642 1.84339 0.374264 0
M  V30 5047 O 474 1.29359 1.27028 0
M  V30 5048 C 474.048 3.18897 -1.68336 0
M  V30 5049 O 473.152 4.01663 -0.934928 0
M  V30 5050 H 472.493 0.547011 -0.376397 0
M  V30 5051 H 475.023 1.25137 -1.6187 0
M  V30 5052 H 475.033 3.69539 -1.72931 0
M  V30 5053 H 473.708 3.13308 -2.73516 0
M  V30 5054 H 472.285 3.60204 -0.964751 0
M  V30 5055 N 474.47 1.03057 1.19235 0
M  V30 5056 C 475.7 0.746613 1.92638 0
M  V30 5057 C 476.108 -0.698708 1.75826 0
M  V30 5058 O 475.451 -1.487 1.07861 0
M  V30 5059 C 475.513 1.02024 3.44719 0
M  V30 5060 C 475.177 2.45745 3.85303 0
M  V30 5061 C 476.174 3.43887 3.8992 0
M  V30 5062 C 473.859 2.8019 4.16892 0
M  V30 5063 C 475.853 4.74529 4.2556 0
M  V30 5064 C 473.54 4.1104 4.52205 0
M  V30 5065 C 474.538 5.0802 4.56513 0
M  V30 5066 O 474.226 6.36527 4.91008 0
M  V30 5067 H 473.958 0.272401 0.618687 0
M  V30 5068 H 476.512 1.37853 1.52269 0
M  V30 5069 H 474.742 0.331184 3.85279 0
M  V30 5070 H 476.431 0.725677 3.9936 0
M  V30 5071 H 477.197 3.18614 3.65664 0
M  V30 5072 H 473.076 2.05382 4.12722 0
M  V30 5073 H 476.62 5.50222 4.28838 0
M  V30 5074 H 472.517 4.36086 4.7592 0
M  V30 5075 H 473.285 6.41025 5.08949 0
M  V30 5076 N 475.948 -1.35272 0.808662 0
M  V30 5077 C 476.896 -2.31663 0.208606 0
M  V30 5078 C 477.89 -1.56731 -0.642778 0
M  V30 5079 O 479.096 -1.71843 -0.53571 0
M  V30 5080 H 475.471 -0.750421 0.0486993 0
M  V30 5081 H 477.442 -2.79814 1.03666 0
M  V30 5082 C 476.191 -3.42008 -0.626573 0
M  V30 5083 H 475.514 -3.99795 0.0192103 0
M  V30 5084 H 476.954 -4.11727 -1.01278 0
M  V30 5085 C 475.413 -2.85226 -1.79298 0
M  V30 5086 O 475.943 -2.78945 -2.89055 0
M  V30 5087 N 474.149 -2.42245 -1.60516 0
M  V30 5088 H 473.696 -2.47554 -0.712375 0
M  V30 5089 H 473.654 -2.04603 -2.38715 0
M  V30 5090 N 477.426 -0.562348 -1.47226 0
M  V30 5091 C 478.389 0.172056 -2.28553 0
M  V30 5092 C 479.389 0.837928 -1.37242 0
M  V30 5093 O 480.579 0.693001 -1.59822 0
M  V30 5094 C 477.711 1.25223 -3.17068 0
M  V30 5095 H 478.904 -0.542401 -2.94954 0
M  V30 5096 H 476.457 -0.319493 -1.53 0
M  V30 5097 H 477.192 1.99892 -2.55369 0
M  V30 5098 H 476.977 0.779515 -3.84273 0
M  V30 5099 H 478.467 1.76791 -3.78332 0
M  V30 5100 N 478.904 1.54736 -0.299062 0
M  V30 5101 C 480.153 1.99279 0.311549 0
M  V30 5102 C 480.466 1.19107 1.55154 0
M  V30 5103 O 481.672 1.53908 2.23662 0
M  V30 5104 C 480.128 3.54768 0.605632 0
M  V30 5105 C 479.736 4.43746 -0.615914 0
M  V30 5106 C 481.48 4.07841 1.17754 0
M  V30 5107 C 479.387 5.90663 -0.29509 0
M  V30 5108 H 478.317 0.744359 0.120187 0
M  V30 5109 H 480.968 1.78919 -0.407464 0
M  V30 5110 H 479.35 3.71021 1.38419 0
M  V30 5111 H 480.524 4.39267 -1.39218 0
M  V30 5112 H 478.839 4.01434 -1.10633 0
M  V30 5113 H 481.436 5.15174 1.43179 0
M  V30 5114 H 481.779 3.58324 2.11918 0
M  V30 5115 H 482.312 3.95123 0.460739 0
M  V30 5116 H 479.051 6.44325 -1.20524 0
M  V30 5117 H 478.571 5.98155 0.44394 0
M  V30 5118 H 480.25 6.46916 0.104048 0
M  V30 5119 N 480.382 0.0267497 1.57577 0
M  V30 5120 C 481.61 -0.662661 1.96001 0
M  V30 5121 C 482.025 -1.65799 0.903117 0
M  V30 5122 O 481.382 -1.82135 -0.115317 0
M  V30 5123 C 481.433 -1.37112 3.34488 0
M  V30 5124 O 481.154 -0.415683 4.36123 0
M  V30 5125 C 482.655 -2.15257 3.8753 0
M  V30 5126 H 479.875 -0.18287 0.6456 0
M  V30 5127 H 482.419 0.0858116 2.0432 0
M  V30 5128 H 480.574 -2.07101 3.27395 0
M  V30 5129 H 480.988 -0.918496 5.16395 0
M  V30 5130 H 482.462 -2.60285 4.86781 0
M  V30 5131 H 482.939 -2.99063 3.21649 0
M  V30 5132 H 483.545 -1.50231 3.97883 0
M  V30 5133 N 481.861 -1.55662 -0.24637 0
M  V30 5134 C 482.811 -1.86753 -1.30795 0
M  V30 5135 C 483.795 -0.728445 -1.43466 0
M  V30 5136 O 484.987 -0.99038 -1.46699 0
M  V30 5137 C 482.116 -2.16618 -2.66329 0
M  V30 5138 C 481.202 -3.36855 -2.57661 0
M  V30 5139 N 481.593 -4.56111 -2.18624 0
M  V30 5140 C 479.891 -3.39976 -2.88673 0
M  V30 5141 C 480.592 -5.38247 -2.20601 0
M  V30 5142 N 479.568 -4.77322 -2.60124 0
M  V30 5143 H 483.37 -2.76486 -0.996642 0
M  V30 5144 H 480.884 -1.55896 -0.454994 0
M  V30 5145 H 482.881 -2.37057 -3.42942 0
M  V30 5146 H 481.541 -1.28185 -2.98327 0
M  V30 5147 H 482.552 -4.81726 -1.9016 0
M  V30 5148 H 479.229 -2.61815 -3.25206 0
M  V30 5149 H 480.619 -6.43657 -1.92756 0
M  V30 5150 N 483.339 0.512053 -1.4905 0
M  V30 5151 C 484.269 1.62365 -1.67809 0
M  V30 5152 C 485.25 1.61737 -0.526809 0
M  V30 5153 O 486.435 1.78651 -0.761404 0
M  V30 5154 C 483.565 3.00895 -1.73435 0
M  V30 5155 C 482.519 3.16387 -2.88242 0
M  V30 5156 C 481.845 4.56157 -2.78971 0
M  V30 5157 C 483.145 2.97457 -4.29321 0
M  V30 5158 H 484.839 1.46921 -2.60873 0
M  V30 5159 H 482.385 0.705379 -1.2554 0
M  V30 5160 H 484.338 3.78549 -1.85145 0
M  V30 5161 H 483.062 3.17403 -0.769619 0
M  V30 5162 H 481.721 2.41155 -2.76116 0
M  V30 5163 H 481.369 4.69525 -1.8043 0
M  V30 5164 H 481.069 4.67465 -3.5602 0
M  V30 5165 H 482.593 5.35886 -2.92675 0
M  V30 5166 H 484.007 3.64888 -4.42187 0
M  V30 5167 H 482.404 3.20245 -5.07507 0
M  V30 5168 H 483.474 1.93692 -4.44535 0
M  V30 5169 N 484.817 1.37938 0.762283 0
M  V30 5170 C 486.228 1.30094 1.33912 0
M  V30 5171 C 486.579 -0.0472026 1.96143 0
M  V30 5172 O 485.704 -0.94917 1.94473 0
M  V30 5173 C 486.299 2.35592 2.43478 0
M  V30 5174 C 484.858 2.31353 2.96905 0
M  V30 5175 C 484.005 2.18919 1.70205 0
M  V30 5176 H 486.956 1.48423 0.561816 0
M  V30 5177 H 486.977 2.00806 3.23199 0
M  V30 5178 H 486.489 3.33701 1.98155 0
M  V30 5179 H 484.59 1.36799 3.46579 0
M  V30 5180 H 484.703 3.25147 3.51875 0
M  V30 5181 H 483.067 1.65624 1.93496 0
M  V30 5182 H 483.85 3.18956 1.26973 0
M  V30 5183 N 486.295 -0.989507 1.22664 0
M  V30 5184 C 487.258 -2.06183 1.00106 0
M  V30 5185 C 488.258 -1.60765 -0.0337726 0
M  V30 5186 O 489.448 -1.72989 0.205072 0
M  V30 5187 C 486.58 -3.37021 0.51279 0
M  V30 5188 H 487.773 -2.27629 1.95256 0
M  V30 5189 H 485.326 -1.16158 1.0458 0
M  V30 5190 H 486.061 -3.21261 -0.442917 0
M  V30 5191 H 485.846 -3.71323 1.25942 0
M  V30 5192 H 487.336 -4.1591 0.375315 0
M  V30 5193 N 487.773 -1.03688 -1.18687 0
M  V30 5194 C 489.021 -0.736572 -1.88199 0
M  V30 5195 C 489.342 0.737665 -1.80509 0
M  V30 5196 O 488.612 1.53204 -1.22088 0
M  V30 5197 H 487.192 -0.269466 -0.696704 0
M  V30 5198 H 489.854 -1.31282 -1.44052 0
M  V30 5199 H 488.95 -1.03802 -2.94332 0
M  V30 5200 N 489.251 1.34841 -0.815825 0
M  V30 5201 C 490.5 1.97755 -0.396976 0
M  V30 5202 C 490.813 1.65422 1.04379 0
M  V30 5203 O 492.019 2.21771 1.5662 0
M  V30 5204 C 490.475 3.53818 -0.658869 0
M  V30 5205 C 490.083 3.95051 -2.11278 0
M  V30 5206 C 491.827 4.23397 -0.305834 0
M  V30 5207 C 489.734 5.43997 -2.31994 0
M  V30 5208 H 488.664 0.739985 -0.1447 0
M  V30 5209 H 491.315 1.53781 -1.00118 0
M  V30 5210 H 489.697 3.95997 0.0154112 0
M  V30 5211 H 490.871 3.63998 -2.82564 0
M  V30 5212 H 489.186 3.38388 -2.42657 0
M  V30 5213 H 491.783 5.32899 -0.43854 0
M  V30 5214 H 492.126 4.09508 0.748952 0
M  V30 5215 H 492.659 3.8667 -0.934403 0
M  V30 5216 H 489.398 5.62865 -3.35952 0
M  V30 5217 H 488.918 5.76589 -1.65244 0
M  V30 5218 H 490.597 6.10584 -2.14001 0
M  V30 5219 N 490.729 0.570148 1.46925 0
M  V30 5220 C 491.976 0.0509529 2.02436 0
M  V30 5221 C 492.304 -1.30405 1.44308 0
M  V30 5222 O 491.559 -1.86493 0.593198 0
M  V30 5223 C 491.858 -0.0780336 3.57315 0
M  V30 5224 C 491.524 1.20775 4.34424 0
M  V30 5225 C 490.186 1.56004 4.5521 0
M  V30 5226 C 492.538 2.0592 4.78797 0
M  V30 5227 C 489.866 2.76201 5.17619 0
M  V30 5228 C 492.218 3.25332 5.42533 0
M  V30 5229 C 490.882 3.60859 5.61549 0
M  V30 5230 H 490.152 0.018645 0.740765 0
M  V30 5231 H 492.799 0.744262 1.76445 0
M  V30 5232 H 491.104 -0.854394 3.82371 0
M  V30 5233 H 492.801 -0.495312 3.97929 0
M  V30 5234 H 489.391 0.923469 4.18533 0
M  V30 5235 H 493.575 1.80008 4.62505 0
M  V30 5236 H 488.831 3.0388 5.30535 0
M  V30 5237 H 493.005 3.91586 5.75876 0
M  V30 5238 H 490.632 4.54088 6.09678 0
M  V30 5239 N 492.207 -1.54576 0.307264 0
M  V30 5240 C 493.623 -1.59534 -0.0459251 0
M  V30 5241 C 493.823 -1.32414 -1.51884 0
M  V30 5242 O 492.879 -1.1006 -2.27251 0
M  V30 5243 C 494.192 -2.98566 0.357649 0
M  V30 5244 C 495.74 -3.11491 0.306937 0
M  V30 5245 C 496.215 -4.52842 0.685427 0
M  V30 5246 N 497.706 -4.58782 0.638203 0
M  V30 5247 C 498.441 -5.66238 0.903458 0
M  V30 5248 N 497.937 -6.81703 1.23501 0
M  V30 5249 N 499.73 -5.55937 0.830102 0
M  V30 5250 H 491.881 -1.70464 1.26712 0
M  V30 5251 H 494.144 -0.79647 0.514139 0
M  V30 5252 H 493.85 -3.23356 1.38325 0
M  V30 5253 H 493.724 -3.76117 -0.285565 0
M  V30 5254 H 496.111 -2.86446 -0.709424 0
M  V30 5255 H 496.192 -2.36081 0.984861 0
M  V30 5256 H 495.836 -4.78618 1.69963 0
M  V30 5257 H 495.766 -5.26598 -0.0146346 0
M  V30 5258 H 498.257 -3.75849 0.393138 0
M  V30 5259 H 498.57 -7.59582 1.42322 0
M  V30 5260 H 496.915 -6.8324 1.27311 0
M  V30 5261 H 500.106 -4.64608 0.570693 0
M  V30 5262 H 500.279 -6.39597 1.04019 0
M  V30 5263 N 493.685 -0.035106 -1.57561 0
M  V30 5264 C 494.962 0.681212 -1.83354 0
M  V30 5265 C 495.342 1.89986 -0.920252 0
M  V30 5266 O 494.69 2.28489 0.0226815 0
M  V30 5267 C 494.9 1.05376 -3.32712 0
M  V30 5268 C 496.248 1.44286 -3.99333 0
M  V30 5269 O 497.272 1.14656 -3.37242 0
M  V30 5270 O 496.131 1.99518 -5.08778 0
M  V30 5271 H 493.225 0.334741 -0.756226 0
M  V30 5272 H 495.771 -0.0632448 -1.69582 0
M  V30 5273 H 494.543 0.186668 -3.90854 0
M  V30 5274 H 494.166 1.85619 -3.51613 0
M  V30 5275 N 495.163 1.55791 0.238111 0
M  V30 5276 C 496.093 1.94068 1.29846 0
M  V30 5277 C 497.074 0.806726 1.49753 0
M  V30 5278 O 498.259 1.06772 1.62214 0
M  V30 5279 C 495.389 2.24302 2.65153 0
M  V30 5280 C 494.343 3.40032 2.59927 0
M  V30 5281 C 493.669 3.55829 3.99111 0
M  V30 5282 C 494.969 4.75476 2.16148 0
M  V30 5283 H 496.663 2.82887 0.980563 0
M  V30 5284 H 494.209 1.36105 0.470253 0
M  V30 5285 H 496.162 2.4967 3.39475 0
M  V30 5286 H 494.886 1.32318 2.98596 0
M  V30 5287 H 493.545 3.14687 1.88063 0
M  V30 5288 H 493.193 2.6125 4.29834 0
M  V30 5289 H 492.893 4.3366 3.96501 0
M  V30 5290 H 494.417 3.83528 4.7512 0
M  V30 5291 H 495.831 5.00158 2.80205 0
M  V30 5292 H 494.228 5.56472 2.24631 0
M  V30 5293 H 495.298 4.71946 1.11333 0
M  V30 5294 N 496.642 -0.504142 1.49319 0
M  V30 5295 C 497.552 -1.63248 1.68486 0
M  V30 5296 C 498.568 -1.64488 0.567432 0
M  V30 5297 O 499.744 -1.82966 0.841749 0
M  V30 5298 C 496.809 -2.99627 1.74426 0
M  V30 5299 C 495.87 -3.09039 2.97982 0
M  V30 5300 C 495.103 -4.38913 3.0363 0
M  V30 5301 O 495.326 -5.27528 2.16958 0
M  V30 5302 O 494.26 -4.53231 3.96062 0
M  V30 5303 H 498.086 -1.50008 2.64067 0
M  V30 5304 H 495.671 -0.680086 1.33023 0
M  V30 5305 H 497.553 -3.80689 1.80705 0
M  V30 5306 H 496.228 -3.13136 0.820233 0
M  V30 5307 H 495.135 -2.27177 2.97223 0
M  V30 5308 H 496.468 -3.00456 3.89855 0
M  V30 5309 N 498.12 -1.38341 -0.754957 0
M  V30 5310 C 499.03 -1.3769 -1.89944 0
M  V30 5311 C 500.046 -0.274194 -1.71826 0
M  V30 5312 O 501.222 -0.512391 -1.94773 0
M  V30 5313 C 498.287 -1.19938 -3.25293 0
M  V30 5314 C 497.348 -2.40001 -3.55946 0
M  V30 5315 C 496.581 -2.23087 -4.84838 0
M  V30 5316 O 496.804 -1.22386 -5.57116 0
M  V30 5317 O 495.738 -3.11646 -5.14937 0
M  V30 5318 H 499.564 -2.3412 -1.93446 0
M  V30 5319 H 497.149 -1.19246 -0.900044 0
M  V30 5320 H 499.031 -1.12093 -4.06218 0
M  V30 5321 H 497.706 -0.265919 -3.22606 0
M  V30 5322 H 496.613 -2.53421 -2.75188 0
M  V30 5323 H 497.946 -3.31973 -3.63394 0
M  V30 5324 N 499.598 0.982988 -1.23187 0
M  V30 5325 C 500.528 2.09301 -1.03515 0
M  V30 5326 C 501.509 1.70035 0.0471136 0
M  V30 5327 O 502.694 1.93847 -0.117029 0
M  V30 5328 C 499.824 3.4167 -0.622791 0
M  V30 5329 C 498.778 3.94828 -1.65211 0
M  V30 5330 C 498.104 5.23362 -1.09527 0
M  V30 5331 C 499.404 4.2439 -3.04451 0
M  V30 5332 H 501.098 2.26016 -1.96359 0
M  V30 5333 H 498.644 1.08611 -0.945501 0
M  V30 5334 H 500.597 4.18746 -0.472233 0
M  V30 5335 H 499.321 3.24811 0.341329 0
M  V30 5336 H 497.98 3.19895 -1.79061 0
M  V30 5337 H 497.628 5.02852 -0.122211 0
M  V30 5338 H 497.328 5.59895 -1.783 0
M  V30 5339 H 498.852 6.03062 -0.956511 0
M  V30 5340 H 500.266 4.92225 -2.93917 0
M  V30 5341 H 498.663 4.72118 -3.70438 0
M  V30 5342 H 499.733 3.31765 -3.53638 0
M  V30 5343 N 501.076 1.04316 1.18135 0
M  V30 5344 C 502.322 0.749128 1.88457 0
M  V30 5345 C 502.655 -0.72149 1.803 0
M  V30 5346 O 501.93 -1.52676 1.205 0
M  V30 5347 C 502.213 1.21905 3.38838 0
M  V30 5348 C 502.066 2.75195 3.55792 0
M  V30 5349 C 503.385 0.811085 4.32561 0
M  V30 5350 H 500.504 0.273611 0.684329 0
M  V30 5351 H 503.146 1.29561 1.38975 0
M  V30 5352 H 501.296 0.754137 3.8111 0
M  V30 5353 H 502.968 3.29743 3.22595 0
M  V30 5354 H 501.211 3.14899 2.98364 0
M  V30 5355 H 501.882 3.03135 4.61317 0
M  V30 5356 H 504.358 1.21118 3.98082 0
M  V30 5357 H 503.234 1.16761 5.36338 0
M  V30 5358 H 503.495 -0.285596 4.41177 0
M  V30 5359 N 502.554 -1.34406 0.822964 0
M  V30 5360 C 503.501 -2.29519 0.24284 0
M  V30 5361 C 504.471 -1.5359 -0.632397 0
M  V30 5362 O 505.656 -1.8196 -0.57403 0
M  V30 5363 C 502.796 -3.40032 -0.58925 0
M  V30 5364 C 501.909 -4.30899 0.308236 0
M  V30 5365 C 501.044 -5.28515 -0.533425 0
M  V30 5366 C 500.083 -6.1102 0.363444 0
M  V30 5367 N 499.22 -7.00725 -0.439147 0
M  V30 5368 H 504.06 -2.78537 1.05929 0
M  V30 5369 H 501.597 -1.3707 0.533872 0
M  V30 5370 H 503.555 -4.0279 -1.087 0
M  V30 5371 H 502.185 -2.92248 -1.37081 0
M  V30 5372 H 501.237 -3.69002 0.924203 0
M  V30 5373 H 502.549 -4.88717 0.997862 0
M  V30 5374 H 501.703 -5.96725 -1.09565 0
M  V30 5375 H 500.442 -4.71235 -1.25656 0
M  V30 5376 H 499.447 -5.41743 0.937812 0
M  V30 5377 H 500.672 -6.70381 1.08469 0
M  V30 5378 H 498.618 -6.45913 -1.14595 0
M  V30 5379 H 498.535 -7.55756 0.19209 0
M  V30 5380 H 499.803 -7.73263 -0.984124 0
M  V30 5381 N 504.032 -0.577932 -1.46621 0
M  V30 5382 C 504.962 0.145917 -2.33044 0
M  V30 5383 C 505.943 0.888412 -1.45056 0
M  V30 5384 O 507.128 0.864812 -1.73881 0
M  V30 5385 C 504.258 1.16322 -3.27241 0
M  V30 5386 C 503.212 0.535868 -4.24632 0
M  V30 5387 C 502.538 1.65929 -5.08303 0
M  V30 5388 C 503.838 -0.523861 -5.19666 0
M  V30 5389 H 505.532 -0.575636 -2.93814 0
M  V30 5390 H 503.078 -0.278272 -1.41286 0
M  V30 5391 H 505.031 1.67793 -3.86553 0
M  V30 5392 H 503.755 1.91498 -2.64567 0
M  V30 5393 H 502.414 0.0422759 -3.66576 0
M  V30 5394 H 502.062 2.40061 -4.42018 0
M  V30 5395 H 501.762 1.2452 -5.74255 0
M  V30 5396 H 503.286 2.17686 -5.70478 0
M  V30 5397 H 504.7 -0.0944059 -5.73222 0
M  V30 5398 H 503.097 -0.858 -5.93935 0
M  V30 5399 H 504.167 -1.41197 -4.63887 0
M  V30 5400 N 505.51 1.54411 -0.315457 0
M  V30 5401 C 506.74 2.04536 0.291315 0
M  V30 5402 C 507.148 1.19162 1.4696 0
M  V30 5403 O 506.491 0.213199 1.82459 0
M  V30 5404 C 506.553 3.5056 0.796725 0
M  V30 5405 C 506.217 4.5627 -0.258178 0
M  V30 5406 C 507.214 5.08312 -1.09153 0
M  V30 5407 C 504.899 5.00672 -0.404036 0
M  V30 5408 C 506.893 6.03312 -2.05655 0
M  V30 5409 C 504.58 5.95488 -1.37248 0
M  V30 5410 C 505.578 6.46693 -2.19721 0
M  V30 5411 O 505.266 7.39648 -3.14921 0
M  V30 5412 H 504.998 0.672856 0.0651165 0
M  V30 5413 H 507.552 2.00244 -0.457308 0
M  V30 5414 H 505.782 3.52223 1.59612 0
M  V30 5415 H 507.471 3.83804 1.32096 0
M  V30 5416 H 508.237 4.74793 -0.98979 0
M  V30 5417 H 504.116 4.60436 0.22799 0
M  V30 5418 H 507.66 6.43203 -2.70067 0
M  V30 5419 H 503.557 6.28424 -1.47489 0
M  V30 5420 H 504.325 7.57496 -3.10067 0
M  V30 5421 N 506.988 0.0434614 1.5754 0
M  V30 5422 C 507.918 -0.931651 2.14109 0
M  V30 5423 C 508.899 -1.32971 1.06079 0
M  V30 5424 O 510.084 -1.40579 1.33982 0
M  V30 5425 C 507.214 -2.20914 2.67982 0
M  V30 5426 C 506.168 -1.95139 3.80926 0
M  V30 5427 C 505.494 -3.29276 4.21285 0
M  V30 5428 C 506.794 -1.27913 5.06395 0
M  V30 5429 H 508.488 -0.460497 2.95837 0
M  V30 5430 H 506.034 -0.220058 1.42309 0
M  V30 5431 H 507.987 -2.89522 3.06194 0
M  V30 5432 H 506.711 -2.70221 1.83434 0
M  V30 5433 H 505.37 -1.28945 3.43175 0
M  V30 5434 H 505.018 -3.76369 3.33699 0
M  V30 5435 H 504.718 -3.12831 4.97404 0
M  V30 5436 H 506.242 -3.99129 4.62091 0
M  V30 5437 H 507.656 -1.86544 5.42102 0
M  V30 5438 H 506.053 -1.2182 5.87605 0
M  V30 5439 H 507.123 -0.254066 4.84234 0
M  V30 5440 N 508.466 -1.55915 -0.229846 0
M  V30 5441 C 509.714 -1.7819 -0.953565 0
M  V30 5442 C 510.035 -0.610504 -1.85197 0
M  V30 5443 O 509.305 0.372988 -1.92316 0
M  V30 5444 H 507.885 -0.657208 -0.355087 0
M  V30 5445 H 510.547 -1.9337 -0.243693 0
M  V30 5446 H 509.643 -2.70011 -1.56527 0
M  V30 5447 N 509.944 0.496216 -1.49584 0
M  V30 5448 C 511.169 1.27865 -1.63295 0
M  V30 5449 C 511.594 1.85592 -0.306156 0
M  V30 5450 O 510.952 1.66092 0.726851 0
M  V30 5451 C 511 2.38128 -2.7079 0
M  V30 5452 O 510.104 3.42108 -2.30296 0
M  V30 5453 H 509.445 0.377279 -0.546403 0
M  V30 5454 H 511.975 0.593497 -1.95803 0
M  V30 5455 H 511.985 2.8382 -2.93104 0
M  V30 5456 H 510.66 1.95479 -3.67098 0
M  V30 5457 H 509.237 3.02301 -2.18331 0
M  V30 5458 N 511.423 1.38739 0.74761 0
M  V30 5459 C 512.371 1.36573 1.88283 0
M  V30 5460 C 513.365 0.250712 1.67534 0
M  V30 5461 O 514.571 0.420073 1.7503 0
M  V30 5462 H 510.946 0.42619 0.619569 0
M  V30 5463 H 512.917 2.32356 1.87226 0
M  V30 5464 C 511.666 1.21361 3.25832 0
M  V30 5465 H 510.989 2.06424 3.42388 0
M  V30 5466 H 512.429 1.23901 4.05493 0
M  V30 5467 C 510.888 -0.0790099 3.36807 0
M  V30 5468 O 511.418 -1.05385 3.8763 0
M  V30 5469 N 509.624 -0.13785 2.90273 0
M  V30 5470 H 509.171 0.656128 2.49104 0
M  V30 5471 H 509.129 -1.00228 2.97996 0
M  V30 5472 N 512.901 -0.976442 1.23707 0
M  V30 5473 C 513.849 -2.09078 1.01927 0
M  V30 5474 C 514.843 -1.69345 -0.0430193 0
M  V30 5475 O 516.049 -1.79659 0.110814 0
M  V30 5476 H 512.424 -0.68398 0.312531 0
M  V30 5477 H 514.395 -2.24614 1.96447 0
M  V30 5478 C 513.144 -3.41919 0.631385 0
M  V30 5479 H 512.467 -3.72946 1.44053 0
M  V30 5480 H 513.907 -4.20817 0.518532 0
M  V30 5481 C 512.366 -3.30357 -0.660723 0
M  V30 5482 O 512.896 -3.63542 -1.70881 0
M  V30 5483 N 511.102 -2.83507 -0.638139 0
M  V30 5484 H 510.649 -2.567 0.215108 0
M  V30 5485 H 510.607 -2.76153 -1.50289 0
M  V30 5486 N 514.379 -1.04941 -1.1758 0
M  V30 5487 C 515.309 -0.669172 -2.23706 0
M  V30 5488 C 516.29 0.331835 -1.66832 0
M  V30 5489 O 517.475 0.209988 -1.93061 0
M  V30 5490 C 514.605 -0.0404889 -3.47276 0
M  V30 5491 C 513.559 -0.965983 -4.16957 0
M  V30 5492 C 512.885 -0.201312 -5.34321 0
M  V30 5493 C 514.185 -2.28902 -4.69469 0
M  V30 5494 H 515.879 -1.55639 -2.55767 0
M  V30 5495 H 513.425 -0.749793 -1.22939 0
M  V30 5496 H 515.378 0.237298 -4.20731 0
M  V30 5497 H 514.102 0.881658 -3.14475 0
M  V30 5498 H 512.761 -1.22829 -3.45411 0
M  V30 5499 H 512.409 0.723519 -4.97769 0
M  V30 5500 H 512.109 -0.817968 -5.81879 0
M  V30 5501 H 513.633 0.0692499 -6.10561 0
M  V30 5502 H 515.047 -2.07132 -5.34574 0
M  V30 5503 H 513.444 -2.85942 -5.27596 0
M  V30 5504 H 514.514 -2.92937 -3.86414 0
M  V30 5505 N 515.857 1.33968 -0.830081 0
M  V30 5506 C 517.085 2.0228 -0.434773 0
M  V30 5507 C 517.5 1.62487 0.961419 0
M  V30 5508 O 516.857 0.833849 1.62337 0
M  V30 5509 C 516.908 3.5751 -0.535625 0
M  V30 5510 O 516.629 3.95864 -1.87679 0
M  V30 5511 C 518.13 4.43091 -0.136137 0
M  V30 5512 H 515.35 0.648151 -0.173613 0
M  V30 5513 H 517.894 1.71089 -1.12022 0
M  V30 5514 H 516.049 3.87266 0.101817 0
M  V30 5515 H 516.463 4.9056 -1.85609 0
M  V30 5516 H 517.937 5.51398 -0.257772 0
M  V30 5517 H 518.414 4.29433 0.921076 0
M  V30 5518 H 519.02 4.18677 -0.747662 0
M  V30 5519 N 517.335 0.585699 1.46312 0
M  V30 5520 C 518.298 -0.135673 2.28798 0
M  V30 5521 C 519.298 -0.815988 1.38558 0
M  V30 5522 O 520.488 -0.667487 1.60904 0
M  V30 5523 C 517.62 -1.20163 3.1902 0
M  V30 5524 H 518.813 0.589257 2.94054 0
M  V30 5525 H 516.366 0.343794 1.52472 0
M  V30 5526 H 517.101 -1.95804 2.58517 0
M  V30 5527 H 516.886 -0.718282 3.85465 0
M  V30 5528 H 518.376 -1.70749 3.81096 0
M  V30 5529 N 518.813 -1.54241 0.323641 0
M  V30 5530 C 519.743 -2.27289 -0.534993 0
M  V30 5531 C 520.724 -1.28087 -1.11927 0
M  V30 5532 O 521.909 -1.56899 -1.14439 0
M  V30 5533 C 519.039 -3.03075 -1.69596 0
M  V30 5534 C 517.993 -4.09614 -1.24098 0
M  V30 5535 C 517.319 -4.73242 -2.4889 0
M  V30 5536 C 518.619 -5.21087 -0.355789 0
M  V30 5537 H 520.313 -2.99308 0.0743257 0
M  V30 5538 H 517.859 -1.43952 0.0371874 0
M  V30 5539 H 519.812 -3.52907 -2.30293 0
M  V30 5540 H 518.536 -2.28673 -2.33187 0
M  V30 5541 H 517.195 -3.60666 -0.656945 0
M  V30 5542 H 516.843 -3.95455 -3.10845 0
M  V30 5543 H 516.543 -5.45209 -2.19138 0
M  V30 5544 H 518.067 -5.25848 -3.10348 0
M  V30 5545 H 519.481 -5.66675 -0.869042 0
M  V30 5546 H 517.878 -5.9991 -0.151045 0
M  V30 5547 H 518.948 -4.81005 0.613339 0
M  V30 5548 N 520.291 -0.0518155 -1.57515 0
M  V30 5549 C 521.241 0.932017 -2.0808 0
M  V30 5550 C 522.225 1.27141 -0.986098 0
M  V30 5551 O 523.417 1.25373 -1.24943 0
M  V30 5552 C 520.546 2.20665 -2.62986 0
M  V30 5553 C 519.632 1.89462 -3.79427 0
M  V30 5554 N 520.023 1.28621 -4.89173 0
M  V30 5555 C 518.321 2.19327 -3.88345 0
M  V30 5556 C 519.022 1.15062 -5.70207 0
M  V30 5557 N 517.998 1.65372 -5.17835 0
M  V30 5558 H 521.8 0.456964 -2.90326 0
M  V30 5559 H 519.314 0.152619 -1.61681 0
M  V30 5560 H 521.311 2.92044 -2.97516 0
M  V30 5561 H 519.971 2.68776 -1.8218 0
M  V30 5562 H 520.982 0.958341 -5.08956 0
M  V30 5563 H 517.659 2.69955 -3.18482 0
M  V30 5564 H 519.049 0.678243 -6.68468 0
M  V30 5565 N 521.769 1.56035 0.221574 0
M  V30 5566 C 523.18 1.69229 0.788567 0
M  V30 5567 C 523.531 0.653814 1.84986 0
M  V30 5568 O 522.656 -0.195065 2.15519 0
M  V30 5569 C 523.251 3.06809 1.43713 0
M  V30 5570 C 521.81 3.21858 1.95152 0
M  V30 5571 C 520.957 2.65155 0.811685 0
M  V30 5572 H 523.908 1.587 -0.00307894 0
M  V30 5573 H 523.929 3.02666 2.30594 0
M  V30 5574 H 523.441 3.82369 0.664475 0
M  V30 5575 H 521.542 2.51167 2.7522 0
M  V30 5576 H 521.655 4.29073 2.1315 0
M  V30 5577 H 520.019 2.23635 1.21899 0
M  V30 5578 H 520.802 3.43261 0.0516987 0
M  V30 5579 N 523.247 -0.488276 1.49845 0
M  V30 5580 C 524.21 -1.57069 1.66919 0
M  V30 5581 C 525.21 -1.51445 0.540479 0
M  V30 5582 O 526.4 -1.5437 0.807188 0
M  V30 5583 C 523.532 -2.96718 1.67844 0
M  V30 5584 H 524.725 -1.43254 2.63474 0
M  V30 5585 H 522.278 -0.713435 1.39068 0
M  V30 5586 H 523.013 -3.15996 0.7292 0
M  V30 5587 H 522.798 -3.02208 2.49826 0
M  V30 5588 H 524.288 -3.75335 1.83066 0
M  V30 5589 N 524.725 -1.39134 -0.740242 0
M  V30 5590 C 525.655 -1.40165 -1.86751 0
M  V30 5591 C 526.636 -0.265708 -1.68012 0
M  V30 5592 O 527.821 -0.47076 -1.88408 0
M  V30 5593 C 524.951 -1.2392 -3.2444 0
M  V30 5594 C 523.905 -2.34858 -3.57807 0
M  V30 5595 C 523.231 -2.03707 -4.94376 0
M  V30 5596 C 524.531 -3.77159 -3.61315 0
M  V30 5597 H 526.225 -2.345 -1.86145 0
M  V30 5598 H 523.771 -1.12875 -0.89416 0
M  V30 5599 H 525.724 -1.23263 -4.02969 0
M  V30 5600 H 524.448 -0.26051 -3.25559 0
M  V30 5601 H 523.107 -2.34723 -2.81604 0
M  V30 5602 H 522.755 -1.04289 -4.9207 0
M  V30 5603 H 522.455 -2.78016 -5.17669 0
M  V30 5604 H 523.979 -2.04691 -5.75268 0
M  V30 5605 H 525.393 -3.79252 -4.29931 0
M  V30 5606 H 523.79 -4.50784 -3.96124 0
M  V30 5607 H 524.86 -4.08513 -2.61238 0
M  V30 5608 N 526.204 0.969867 -1.24223 0
M  V30 5609 C 527.451 1.71256 -1.08063 0
M  V30 5610 C 527.779 1.90734 0.380872 0
M  V30 5611 O 527.034 1.46469 1.29789 0
M  V30 5612 C 527.333 3.10883 -1.76314 0
M  V30 5613 C 526.999 3.11252 -3.26241 0
M  V30 5614 C 525.661 3.1106 -3.67144 0
M  V30 5615 C 528.013 3.05751 -4.22097 0
M  V30 5616 C 525.341 3.03097 -5.02344 0
M  V30 5617 C 527.693 2.9933 -5.57301 0
M  V30 5618 C 526.357 2.97466 -5.97554 0
M  V30 5619 H 525.627 0.62667 -0.395431 0
M  V30 5620 H 528.274 1.13422 -1.54297 0
M  V30 5621 H 526.579 3.72168 -1.22468 0
M  V30 5622 H 528.276 3.67138 -1.61277 0
M  V30 5623 H 524.866 3.12165 -2.93685 0
M  V30 5624 H 529.05 3.05031 -3.91497 0
M  V30 5625 H 524.306 3.00013 -5.32731 0
M  V30 5626 H 528.48 2.94033 -6.31283 0
M  V30 5627 H 526.107 2.91051 -7.02277 0
M  V30 5628 N 527.682 1.05563 1.17022 0
M  V30 5629 C 528.614 0.617888 2.20714 0
M  V30 5630 C 529.627 -0.320303 1.59618 0
M  V30 5631 O 530.816 -0.112449 1.78145 0
M  V30 5632 C 527.916 -0.115333 3.38704 0
M  V30 5633 C 527.089 0.834493 4.29366 0
M  V30 5634 C 526.148 0.141855 5.26009 0
M  V30 5635 O 525.174 0.777151 5.6387 0
M  V30 5636 N 526.376 -1.11934 5.69606 0
M  V30 5637 H 529.141 1.50981 2.58892 0
M  V30 5638 H 526.702 0.938008 1.31958 0
M  V30 5639 H 528.694 -0.588918 4.00392 0
M  V30 5640 H 527.264 -0.908967 2.99093 0
M  V30 5641 H 526.484 1.48762 3.65053 0
M  V30 5642 H 527.772 1.4791 4.86827 0
M  V30 5643 H 527.17 -1.65574 5.40927 0
M  V30 5644 H 525.727 -1.53692 6.33421 0
M  V30 5645 N 529.16 -1.33526 0.837174 0
M  V30 5646 C 530.108 -2.31168 0.257698 0
M  V30 5647 C 531.102 -1.5806 -0.609388 0
M  V30 5648 O 532.308 -1.72941 -0.499139 0
M  V30 5649 H 528.683 -0.74922 0.0646058 0
M  V30 5650 H 530.654 -2.77552 1.09578 0
M  V30 5651 C 529.403 -3.4326 -0.553887 0
M  V30 5652 H 528.726 -3.99665 0.104008 0
M  V30 5653 H 530.166 -4.13782 -0.925219 0
M  V30 5654 C 528.625 -2.88965 -1.73207 0
M  V30 5655 O 529.155 -2.85013 -2.83073 0
M  V30 5656 N 527.361 -2.45596 -1.55342 0
M  V30 5657 H 526.908 -2.49009 -0.659705 0
M  V30 5658 H 526.866 -2.0962 -2.34322 0
M  V30 5659 N 530.638 -0.59345 -1.46 0
M  V30 5660 C 531.568 0.121192 -2.33185 0
M  V30 5661 C 532.549 0.872977 -1.4599 0
M  V30 5662 O 533.734 0.846321 -1.74789 0
M  V30 5663 C 530.864 1.12844 -3.28456 0
M  V30 5664 C 529.818 0.4908 -4.25177 0
M  V30 5665 C 529.144 1.60529 -5.10034 0
M  V30 5666 C 530.444 -0.578949 -5.19081 0
M  V30 5667 H 532.138 -0.606767 -2.93187 0
M  V30 5668 H 529.684 -0.293242 -1.40983 0
M  V30 5669 H 531.637 1.63684 -3.88311 0
M  V30 5670 H 530.361 1.88681 -2.66584 0
M  V30 5671 H 529.02 0.00339328 -3.666 0
M  V30 5672 H 528.668 2.35359 -4.44539 0
M  V30 5673 H 528.368 1.18422 -5.75543 0
M  V30 5674 H 529.892 2.11623 -5.72755 0
M  V30 5675 H 531.306 -0.155199 -5.7309 0
M  V30 5676 H 529.703 -0.920947 -5.92991 0
M  V30 5677 H 530.773 -1.46109 -4.62364 0
M  V30 5678 N 532.116 1.54067 -0.331816 0
M  V30 5679 C 533.341 2.05599 0.272705 0
M  V30 5680 C 533.766 1.2059 1.44359 0
M  V30 5681 O 533.124 0.216907 1.79998 0
M  V30 5682 C 533.172 3.54188 0.677021 0
M  V30 5683 O 532.276 3.72082 1.77844 0
M  V30 5684 H 531.617 0.662286 0.0476801 0
M  V30 5685 H 534.147 1.98826 -0.482624 0
M  V30 5686 H 534.157 3.96608 0.957415 0
M  V30 5687 H 532.832 4.15513 -0.179325 0
M  V30 5688 H 531.409 3.41566 1.49622 0
M  V30 5689 N 533.594 0.0601682 1.57485 0
M  V30 5690 C 534.541 -0.91112 2.12055 0
M  V30 5691 C 535.511 -1.30298 1.03013 0
M  V30 5692 O 536.696 -1.39087 1.30612 0
M  V30 5693 C 533.836 -2.1775 2.67729 0
M  V30 5694 C 532.949 -1.83933 3.90887 0
M  V30 5695 C 532.084 -3.05096 4.34845 0
M  V30 5696 C 531.123 -2.67241 5.5068 0
M  V30 5697 N 530.26 -3.81127 5.8965 0
M  V30 5698 H 535.1 -0.43888 2.9475 0
M  V30 5699 H 532.637 -0.204995 1.45665 0
M  V30 5700 H 534.595 -2.91866 2.98111 0
M  V30 5701 H 533.225 -2.62535 1.87816 0
M  V30 5702 H 532.277 -0.999287 3.6704 0
M  V30 5703 H 533.589 -1.52074 4.75052 0
M  V30 5704 H 532.743 -3.87502 4.66827 0
M  V30 5705 H 531.482 -3.40139 3.49509 0
M  V30 5706 H 530.487 -1.83254 5.18361 0
M  V30 5707 H 531.712 -2.3338 6.37738 0
M  V30 5708 H 529.658 -4.15954 5.07266 0
M  V30 5709 H 529.575 -3.52997 6.68528 0
M  V30 5710 H 530.843 -4.64145 6.2625 0
M  V30 5711 N 535.072 -1.5615 -0.213296 0
M  V30 5712 C 536.002 -1.96109 -1.26742 0
M  V30 5713 C 536.983 -0.830448 -1.48451 0
M  V30 5714 O 538.168 -1.09339 -1.60495 0
M  V30 5715 C 535.298 -2.28492 -2.61551 0
M  V30 5716 C 534.252 -3.44124 -2.54485 0
M  V30 5717 C 533.578 -3.62134 -3.93399 0
M  V30 5718 C 534.878 -4.78855 -2.08556 0
M  V30 5719 H 536.572 -2.84412 -0.935434 0
M  V30 5720 H 534.118 -1.36836 -0.44854 0
M  V30 5721 H 536.071 -2.55039 -3.3546 0
M  V30 5722 H 534.795 -1.37052 -2.96453 0
M  V30 5723 H 533.454 -3.17639 -1.83033 0
M  V30 5724 H 533.102 -2.68055 -4.25623 0
M  V30 5725 H 532.802 -4.39913 -3.89551 0
M  V30 5726 H 534.326 -3.91038 -4.68958 0
M  V30 5727 H 535.74 -5.04552 -2.72213 0
M  V30 5728 H 534.137 -5.59975 -2.1575 0
M  V30 5729 H 535.207 -4.73657 -1.03811 0
M  V30 5730 N 536.55 0.480323 -1.50102 0
M  V30 5731 C 537.46 1.60547 -1.71061 0
M  V30 5732 C 538.476 1.63564 -0.593529 0
M  V30 5733 O 539.652 1.81604 -0.870751 0
M  V30 5734 C 536.717 2.96814 -1.79171 0
M  V30 5735 C 535.778 3.04259 -3.02861 0
M  V30 5736 C 535.011 4.34027 -3.10574 0
M  V30 5737 O 535.234 5.24009 -2.25323 0
M  V30 5738 O 534.168 4.46873 -4.03223 0
M  V30 5739 H 537.994 1.45788 -2.6642 0
M  V30 5740 H 535.579 0.658838 -1.34088 0
M  V30 5741 H 537.461 3.77765 -1.86738 0
M  V30 5742 H 536.136 3.11791 -0.869947 0
M  V30 5743 H 535.043 2.22419 -3.008 0
M  V30 5744 H 536.376 2.94216 -3.94586 0
M  V30 5745 N 538.028 1.39524 0.732853 0
M  V30 5746 C 538.958 1.41153 1.86005 0
M  V30 5747 C 539.939 0.274614 1.67869 0
M  V30 5748 O 541.124 0.480745 1.88155 0
M  V30 5749 C 538.254 1.25638 3.23778 0
M  V30 5750 C 537.208 2.36752 3.56556 0
M  V30 5751 C 536.534 2.06326 4.93289 0
M  V30 5752 C 537.834 3.79069 3.5931 0
M  V30 5753 H 539.528 2.35484 1.84899 0
M  V30 5754 H 537.074 1.13348 0.888162 0
M  V30 5755 H 539.027 1.25398 4.0231 0
M  V30 5756 H 537.751 0.277772 3.25417 0
M  V30 5757 H 536.41 2.36213 2.80355 0
M  V30 5758 H 536.058 1.06897 4.9151 0
M  V30 5759 H 535.758 2.80757 5.16187 0
M  V30 5760 H 537.282 2.07739 5.74175 0
M  V30 5761 H 538.696 3.81526 4.27914 0
M  V30 5762 H 537.093 4.52878 3.93728 0
M  V30 5763 H 538.163 4.09893 2.59068 0
M  V30 5764 N 539.506 -0.963266 1.24736 0
M  V30 5765 C 540.436 -2.07628 1.06832 0
M  V30 5766 C 541.417 -1.70088 -0.0200566 0
M  V30 5767 O 542.602 -1.93636 0.147854 0
M  V30 5768 C 539.732 -3.40636 0.677069 0
M  V30 5769 C 538.686 -3.9215 1.71471 0
M  V30 5770 C 538.012 -5.21553 1.1784 0
M  V30 5771 C 539.312 -4.19493 3.11164 0
M  V30 5772 H 541.006 -2.22864 1.9993 0
M  V30 5773 H 538.552 -1.07093 0.96266 0
M  V30 5774 H 540.505 -4.17941 0.538792 0
M  V30 5775 H 539.229 -3.25313 -0.289612 0
M  V30 5776 H 537.888 -3.17005 1.84128 0
M  V30 5777 H 537.536 -5.02593 0.202195 0
M  V30 5778 H 537.236 -5.56988 1.87185 0
M  V30 5779 H 538.76 -6.01463 1.05233 0
M  V30 5780 H 540.174 -4.87487 3.01711 0
M  V30 5781 H 538.571 -4.66165 3.77902 0
M  V30 5782 H 539.641 -3.26097 3.58871 0
M  V30 5783 N 540.985 -1.06182 -1.16461 0
M  V30 5784 C 542.21 -0.798599 -1.91408 0
M  V30 5785 C 542.635 0.640987 -1.76842 0
M  V30 5786 O 541.993 1.44652 -1.09296 0
M  V30 5787 C 542.041 -1.19665 -3.40165 0
M  V30 5788 O 541.145 -0.334768 -4.11039 0
M  V30 5789 H 540.486 -0.291961 -0.596368 0
M  V30 5790 H 543.016 -1.41732 -1.47557 0
M  V30 5791 H 543.026 -1.16772 -3.90933 0
M  V30 5792 H 541.701 -2.24526 -3.50087 0
M  V30 5793 H 540.278 -0.425168 -3.70468 0
M  V30 5794 N 542.463 1.3308 -0.844243 0
M  V30 5795 C 543.393 2.3161 -0.296493 0
M  V30 5796 C 544.374 1.59215 0.598707 0
M  V30 5797 O 545.559 1.87077 0.521134 0
M  V30 5798 C 542.689 3.43313 0.524762 0
M  V30 5799 C 541.643 4.27115 -0.275106 0
M  V30 5800 C 540.969 5.30483 0.670236 0
M  V30 5801 C 542.269 5.00443 -1.49514 0
M  V30 5802 H 543.963 2.77672 -1.11976 0
M  V30 5803 H 541.509 1.33496 -0.539899 0
M  V30 5804 H 543.462 4.11273 0.918298 0
M  V30 5805 H 542.186 2.95952 1.3813 0
M  V30 5806 H 540.845 3.60787 -0.650267 0
M  V30 5807 H 540.493 4.79379 1.52332 0
M  V30 5808 H 540.193 5.87435 0.139123 0
M  V30 5809 H 541.717 6.01308 1.06117 0
M  V30 5810 H 543.131 5.61141 -1.17447 0
M  V30 5811 H 541.528 5.67071 -1.96343 0
M  V30 5812 H 542.598 4.28906 -2.26202 0
M  V30 5813 N 543.941 0.601185 1.45683 0
M  V30 5814 C 545.166 0.0982245 2.07167 0
M  V30 5815 C 545.591 -1.20546 1.44396 0
M  V30 5816 O 544.949 -1.73247 0.534347 0
M  V30 5817 C 544.997 -0.0346976 3.60583 0
M  V30 5818 O 544.101 -1.08657 3.97828 0
M  V30 5819 H 543.442 0.0711618 0.660176 0
M  V30 5820 H 545.972 0.829376 1.87036 0
M  V30 5821 H 545.982 -0.234969 4.07323 0
M  V30 5822 H 544.657 0.917265 4.05659 0
M  V30 5823 H 543.234 -0.863275 3.6277 0
M  V30 5824 N 545.419 -1.53889 0.339982 0
M  V30 5825 C 546.366 -2.24902 -0.518452 0
M  V30 5826 C 547.336 -1.24593 -1.09844 0
M  V30 5827 O 548.521 -1.53317 -1.13572 0
M  V30 5828 C 545.661 -3.02262 -1.66529 0
M  V30 5829 C 544.774 -4.17418 -1.11295 0
M  V30 5830 C 543.909 -4.82273 -2.2268 0
M  V30 5831 C 542.948 -5.89503 -1.6478 0
M  V30 5832 N 542.085 -6.48153 -2.69893 0
M  V30 5833 H 546.925 -2.97853 0.0936579 0
M  V30 5834 H 544.462 -1.46986 0.0579924 0
M  V30 5835 H 546.42 -3.45371 -2.3404 0
M  V30 5836 H 545.05 -2.31614 -2.24844 0
M  V30 5837 H 544.102 -3.78976 -0.328886 0
M  V30 5838 H 545.414 -4.94554 -0.649414 0
M  V30 5839 H 544.568 -5.28435 -2.98063 0
M  V30 5840 H 543.307 -4.04552 -2.72376 0
M  V30 5841 H 542.312 -5.42728 -0.879004 0
M  V30 5842 H 543.537 -6.6913 -1.1594 0
M  V30 5843 H 541.483 -5.73298 -3.1885 0
M  V30 5844 H 541.4 -7.20752 -2.28151 0
M  V30 5845 H 542.668 -6.98968 -3.45056 0
M  V30 5846 N 546.897 -0.0685191 -1.57451 0
M  V30 5847 C 547.845 0.917577 -2.13736 0
M  V30 5848 C 548.839 1.31049 -1.07344 0
M  V30 5849 O 550.045 1.28811 -1.25728 0
M  V30 5850 H 546.42 0.313835 -0.683382 0
M  V30 5851 H 548.391 0.417903 -2.95459 0
M  V30 5852 C 547.14 2.17686 -2.71123 0
M  V30 5853 H 546.463 1.88336 -3.52661 0
M  V30 5854 H 547.903 2.84803 -3.14107 0
M  V30 5855 C 546.362 2.9332 -1.65726 0
M  V30 5856 O 546.892 3.86901 -1.08031 0
M  V30 5857 N 545.098 2.56367 -1.36837 0
M  V30 5858 H 544.645 1.80341 -1.83943 0
M  V30 5859 H 544.603 3.07276 -0.665501 0
M  V30 5860 N 548.375 1.56261 0.205012 0
M  V30 5861 C 549.307 1.90266 1.27795 0
M  V30 5862 C 550.32 0.792397 1.42214 0
M  V30 5863 O 551.509 1.07077 1.42817 0
M  V30 5864 C 548.609 2.11074 2.65143 0
M  V30 5865 C 547.782 3.42176 2.7246 0
M  V30 5866 C 546.841 3.52216 3.90936 0
M  V30 5867 O 545.867 4.25119 3.78501 0
M  V30 5868 N 547.069 2.84573 5.05963 0
M  V30 5869 H 549.834 2.82896 0.989434 0
M  V30 5870 H 547.395 1.57008 0.394981 0
M  V30 5871 H 549.387 2.15089 3.4281 0
M  V30 5872 H 547.957 1.2499 2.86524 0
M  V30 5873 H 547.177 3.50116 1.81142 0
M  V30 5874 H 548.465 4.28509 2.74331 0
M  V30 5875 H 547.863 2.25152 5.18963 0
M  V30 5876 H 546.42 2.94228 5.81613 0
M  V30 5877 N 549.853 -0.472356 1.50355 0
M  V30 5878 C 550.783 -1.57859 1.72055 0
M  V30 5879 C 551.764 -1.60283 0.569505 0
M  V30 5880 O 552.949 -1.7657 0.808503 0
M  V30 5881 C 550.079 -2.96191 1.81351 0
M  V30 5882 C 549.033 -3.08633 2.96529 0
M  V30 5883 C 548.359 -4.486 2.90968 0
M  V30 5884 C 549.659 -2.85969 4.37057 0
M  V30 5885 H 551.353 -1.39953 2.64676 0
M  V30 5886 H 548.899 -0.671846 1.27367 0
M  V30 5887 H 550.852 -3.73507 1.95117 0
M  V30 5888 H 549.576 -3.15251 0.853502 0
M  V30 5889 H 548.235 -2.33749 2.82413 0
M  V30 5890 H 547.883 -4.64577 1.92815 0
M  V30 5891 H 547.583 -4.57861 3.68289 0
M  V30 5892 H 549.107 -5.27938 3.0678 0
M  V30 5893 H 550.521 -3.53036 4.51706 0
M  V30 5894 H 548.918 -3.06677 5.15819 0
M  V30 5895 H 549.988 -1.81838 4.49514 0
M  V30 5896 N 551.331 -1.39911 -0.725443 0
M  V30 5897 C 552.559 -1.40949 -1.51463 0
M  V30 5898 C 552.974 -0.0065242 -1.88799 0
M  V30 5899 O 552.331 0.967163 -1.54765 0
M  V30 5900 C 552.382 -2.29119 -2.79619 0
M  V30 5901 O 552.103 -3.63952 -2.43866 0
M  V30 5902 C 553.604 -2.38642 -3.73584 0
M  V30 5903 H 550.824 -0.481091 -0.467752 0
M  V30 5904 H 553.368 -1.83843 -0.895651 0
M  V30 5905 H 551.523 -1.89612 -3.37826 0
M  V30 5906 H 551.937 -4.10677 -3.26258 0
M  V30 5907 H 553.411 -3.04563 -4.60375 0
M  V30 5908 H 553.888 -1.40846 -4.16004 0
M  V30 5909 H 554.494 -2.78659 -3.21293 0
M  V30 5910 N 552.809 0.956637 -1.25245 0
M  V30 5911 C 554.037 1.73571 -1.12608 0
M  V30 5912 C 554.452 1.86063 0.320324 0
M  V30 5913 O 553.809 1.35691 1.22042 0
M  V30 5914 C 553.86 3.15053 -1.77268 0
M  V30 5915 O 553.581 3.03174 -3.16255 0
M  V30 5916 C 555.082 4.09248 -1.70386 0
M  V30 5917 H 552.302 0.543955 -0.392879 0
M  V30 5918 H 554.846 1.20031 -1.65568 0
M  V30 5919 H 553.001 3.65543 -1.28284 0
M  V30 5920 H 553.415 3.9241 -3.48015 0
M  V30 5921 H 554.889 5.06138 -2.20291 0
M  V30 5922 H 555.366 4.34102 -0.667239 0
M  V30 5923 H 555.972 3.64672 -2.18849 0
M  V30 5924 N 554.287 1.06798 1.15896 0
M  V30 5925 C 555.217 0.704677 2.22613 0
M  V30 5926 C 556.198 -0.305252 1.67339 0
M  V30 5927 O 557.383 -0.179247 1.93371 0
M  V30 5928 C 554.513 0.0957325 3.47168 0
M  V30 5929 C 553.467 1.0322 4.15367 0
M  V30 5930 C 552.793 0.286293 5.33933 0
M  V30 5931 C 554.093 2.36341 4.65768 0
M  V30 5932 H 555.787 1.59688 2.53259 0
M  V30 5933 H 553.333 0.769257 1.21731 0
M  V30 5934 H 555.286 -0.170333 4.21056 0
M  V30 5935 H 554.01 -0.831516 3.15838 0
M  V30 5936 H 552.669 1.28309 3.43413 0
M  V30 5937 H 552.317 -0.644237 4.98857 0
M  V30 5938 H 552.017 0.910436 5.80504 0
M  V30 5939 H 553.541 0.0278938 6.10594 0
M  V30 5940 H 554.955 2.1561 5.31211 0
M  V30 5941 H 553.352 2.94299 5.2298 0
M  V30 5942 H 554.422 2.99047 3.81705 0
M  V30 5943 N 555.766 -1.3263 0.851289 0
M  V30 5944 C 557.177 -1.79653 0.5081 0
M  V30 5945 C 557.528 -1.70327 -0.973815 0
M  V30 5946 O 556.653 -1.25986 -1.75944 0
M  V30 5947 C 557.248 -3.26196 0.915515 0
M  V30 5948 C 555.807 -3.71187 0.624277 0
M  V30 5949 C 554.954 -2.53804 1.11709 0
M  V30 5950 H 557.905 -1.19976 1.03882 0
M  V30 5951 H 557.926 -3.79801 0.230535 0
M  V30 5952 H 557.438 -3.32952 1.99411 0
M  V30 5953 H 555.539 -3.69948 -0.443737 0
M  V30 5954 H 555.652 -4.64132 1.18821 0
M  V30 5955 H 554.016 -2.48964 0.537484 0
M  V30 5956 H 554.799 -2.63315 2.20272 0
M  V30 5957 N 557.244 -0.608902 -1.45362 0
M  V30 5958 C 558.154 0.110969 -2.34337 0
M  V30 5959 C 559.17 0.859007 -1.51318 0
M  V30 5960 O 560.346 0.816296 -1.84116 0
M  V30 5961 C 557.411 1.09494 -3.28956 0
M  V30 5962 C 556.472 0.348718 -4.27881 0
M  V30 5963 C 555.705 1.28582 -5.17979 0
M  V30 5964 O 555.928 2.52369 -5.11533 0
M  V30 5965 O 554.862 0.782172 -5.96796 0
M  V30 5966 H 558.688 -0.620258 -2.97299 0
M  V30 5967 H 556.273 -0.36916 -1.44767 0
M  V30 5968 H 558.155 1.66163 -3.87257 0
M  V30 5969 H 556.83 1.80717 -2.68557 0
M  V30 5970 H 555.737 -0.260465 -3.73192 0
M  V30 5971 H 557.07 -0.323049 -4.91139 0
M  V30 5972 N 558.722 1.53707 -0.348139 0
M  V30 5973 C 559.97 2.00591 0.246478 0
M  V30 5974 C 560.291 1.23753 1.50699 0
M  V30 5975 O 559.561 0.345964 1.92821 0
M  V30 5976 H 558.141 0.741053 0.0940679 0
M  V30 5977 H 560.803 1.89139 -0.470354 0
M  V30 5978 H 559.899 3.08297 0.485714 0
M  V30 5979 N 560.2 0.0768682 1.57412 0
M  V30 5980 C 561.449 -0.590679 1.92857 0
M  V30 5981 C 561.762 -1.70461 0.959293 0
M  V30 5982 O 562.968 -2.43207 1.20675 0
M  V30 5983 C 561.424 -1.10204 3.42612 0
M  V30 5984 C 561.032 -0.0188447 4.47996 0
M  V30 5985 C 562.776 -1.74336 3.87049 0
M  V30 5986 C 560.683 -0.544536 5.88888 0
M  V30 5987 H 559.613 -0.224411 0.71983 0
M  V30 5988 H 562.264 0.149924 1.82887 0
M  V30 5989 H 560.646 -1.89577 3.47673 0
M  V30 5990 H 561.82 0.755936 4.54557 0
M  V30 5991 H 560.135 0.526555 4.13057 0
M  V30 5992 H 562.732 -2.14708 4.89699 0
M  V30 5993 H 563.075 -2.60537 3.24694 0
M  V30 5994 H 563.608 -1.01577 3.84613 0
M  V30 5995 H 560.347 0.280426 6.549 0
M  V30 5996 H 559.867 -1.28673 5.85836 0
M  V30 5997 H 561.546 -1.01933 6.3892 0
M  V30 5998 N 561.678 -1.56367 -0.196722 0
M  V30 5999 C 562.925 -1.80529 -0.917366 0
M  V30 6000 C 563.253 -0.649817 -1.83324 0
M  V30 6001 O 562.508 0.36451 -1.92275 0
M  V30 6002 C 562.807 -3.10663 -1.767 0
M  V30 6003 C 562.473 -4.3962 -1.00225 0
M  V30 6004 C 561.135 -4.74653 -0.791095 0
M  V30 6005 C 563.487 -5.1913 -0.464035 0
M  V30 6006 C 560.815 -5.86692 -0.0302155 0
M  V30 6007 C 563.167 -6.31964 0.283625 0
M  V30 6008 C 561.831 -6.65581 0.505813 0
M  V30 6009 H 561.101 -0.660602 -0.335688 0
M  V30 6010 H 563.748 -1.90615 -0.183844 0
M  V30 6011 H 562.053 -2.95807 -2.56915 0
M  V30 6012 H 563.75 -3.26563 -2.32718 0
M  V30 6013 H 560.34 -4.12127 -1.17684 0
M  V30 6014 H 564.524 -4.9248 -0.614575 0
M  V30 6015 H 559.78 -6.11211 0.151917 0
M  V30 6016 H 563.954 -6.92791 0.708057 0
M  V30 6017 H 561.581 -7.52239 1.0973 0
M  V30 6018 N 563.156 0.464375 -1.50603 0
M  V30 6019 C 564.433 1.22549 -1.5245 0
M  V30 6020 C 564.813 2.09327 -0.273035 0
M  V30 6021 O 564.161 2.16074 0.743242 0
M  V30 6022 C 564.371 2.05074 -2.82393 0
M  V30 6023 C 565.719 2.63036 -3.33313 0
M  V30 6024 O 566.743 2.1531 -2.8376 0
M  V30 6025 O 565.602 3.5001 -4.19709 0
M  V30 6026 H 562.696 0.556471 -0.611775 0
M  V30 6027 H 565.242 0.475648 -1.62898 0
M  V30 6028 H 564.014 1.41169 -3.64948 0
M  V30 6029 H 563.637 2.87179 -2.7498 0
M  V30 6030 N 564.634 1.40294 0.718013 0
M  V30 6031 C 565.862 1.4175 1.50714 0
M  V30 6032 C 566.277 0.0165366 1.88793 0
M  V30 6033 O 565.634 -0.958942 1.55276 0
M  V30 6034 C 565.685 2.30598 2.784 0
M  V30 6035 O 565.406 3.6524 2.41932 0
M  V30 6036 C 566.907 2.4062 3.72313 0
M  V30 6037 H 564.127 0.483565 0.465194 0
M  V30 6038 H 566.671 1.84316 0.885889 0
M  V30 6039 H 564.826 1.91401 3.36815 0
M  V30 6040 H 565.24 4.12402 3.24076 0
M  V30 6041 H 566.714 3.07001 4.58753 0
M  V30 6042 H 567.191 1.4305 4.15251 0
M  V30 6043 H 567.797 2.80359 3.19811 0
M  V30 6044 N 566.112 -0.949982 1.2575 0
M  V30 6045 C 567.06 -2.06869 1.06339 0
M  V30 6046 C 568.054 -1.69399 -0.00708901 0
M  V30 6047 O 569.26 -1.79383 0.148897 0
M  V30 6048 H 565.635 -0.677197 0.326969 0
M  V30 6049 H 567.606 -2.20396 2.01167 0
M  V30 6050 C 566.355 -3.40503 0.703769 0
M  V30 6051 H 565.678 -3.69807 1.51931 0
M  V30 6052 H 567.118 -4.19623 0.607677 0
M  V30 6053 C 565.577 -3.31685 -0.5905 0
M  V30 6054 O 566.107 -3.67085 -1.63131 0
M  V30 6055 N 564.313 -2.84797 -0.577859 0
M  V30 6056 H 563.86 -2.56186 0.26951 0
M  V30 6057 H 563.818 -2.79279 -1.44398 0
M  V30 6058 N 567.59 -1.07411 -1.15328 0
M  V30 6059 C 568.82 -0.817595 -1.89734 0
M  V30 6060 C 569.228 0.63297 -1.78298 0
M  V30 6061 O 568.571 1.44594 -1.13306 0
M  V30 6062 C 568.633 -1.14748 -3.40695 0
M  V30 6063 C 568.297 -2.59876 -3.75917 0
M  V30 6064 C 569.294 -3.58122 -3.76888 0
M  V30 6065 C 566.979 -2.95469 -4.06206 0
M  V30 6066 C 568.973 -4.89996 -4.07655 0
M  V30 6067 C 566.66 -4.2754 -4.36638 0
M  V30 6068 C 567.658 -5.24614 -4.37344 0
M  V30 6069 O 567.346 -6.54312 -4.67045 0
M  V30 6070 H 567.078 -0.295175 -0.608151 0
M  V30 6071 H 569.632 -1.43409 -1.47048 0
M  V30 6072 H 567.862 -0.47395 -3.83785 0
M  V30 6073 H 569.551 -0.873397 -3.96392 0
M  V30 6074 H 570.317 -3.31966 -3.53587 0
M  V30 6075 H 566.196 -2.20558 -4.04815 0
M  V30 6076 H 569.74 -5.65759 -4.08121 0
M  V30 6077 H 565.637 -4.53449 -4.59407 0
M  V30 6078 H 566.405 -6.59473 -4.84807 0
M  V30 6079 N 569.068 1.32177 -0.85831 0
M  V30 6080 C 570.016 2.30729 -0.294442 0
M  V30 6081 C 571.01 1.59009 0.584165 0
M  V30 6082 O 572.216 1.73713 0.471562 0
M  V30 6083 H 568.591 0.748097 -0.0765171 0
M  V30 6084 H 570.562 2.75774 -1.1398 0
M  V30 6085 C 569.311 3.44098 0.499208 0
M  V30 6086 H 568.634 3.99449 -0.167579 0
M  V30 6087 H 570.074 4.15202 0.859273 0
M  V30 6088 C 568.533 2.91684 1.68588 0
M  V30 6089 O 569.063 2.89481 2.78503 0
M  V30 6090 N 567.269 2.48036 1.51415 0
M  V30 6091 H 566.816 2.50027 0.620006 0
M  V30 6092 H 566.774 2.13322 2.30957 0
M  V30 6093 N 570.547 0.616602 1.45037 0
M  V30 6094 C 571.477 -0.0840787 2.33349 0
M  V30 6095 C 572.458 -0.849641 1.4736 0
M  V30 6096 O 573.643 -0.818407 1.76113 0
M  V30 6097 C 570.773 -1.07604 3.3021 0
M  V30 6098 C 569.727 -0.423096 4.25904 0
M  V30 6099 C 569.053 -1.52394 5.12523 0
M  V30 6100 C 570.353 0.661457 5.18095 0
M  V30 6101 H 572.047 0.653333 2.92185 0
M  V30 6102 H 569.593 0.315634 1.40498 0
M  V30 6103 H 571.546 -1.57485 3.90866 0
M  V30 6104 H 570.27 -1.84416 2.69552 0
M  V30 6105 H 568.929 0.05493 3.66559 0
M  V30 6106 H 568.577 -2.28257 4.48227 0
M  V30 6107 H 568.277 -1.09251 5.77354 0
M  V30 6108 H 569.801 -2.02485 5.76049 0
M  V30 6109 H 571.215 0.246353 5.7277 0
M  V30 6110 H 569.612 1.01517 5.91451 0
M  V30 6111 H 570.682 1.53446 4.59981 0
M  V30 6112 N 572.025 -1.5352 0.356285 0
M  V30 6113 C 573.272 -2.01117 -0.236303 0
M  V30 6114 C 573.6 -1.24381 -1.49531 0
M  V30 6115 O 572.855 -0.323057 -1.93015 0
M  V30 6116 C 573.154 -3.52607 -0.583369 0
M  V30 6117 C 572.82 -4.47151 0.58023 0
M  V30 6118 C 571.482 -4.72718 0.899528 0
M  V30 6119 C 573.834 -5.03137 1.36024 0
M  V30 6120 C 571.162 -5.51523 2.00098 0
M  V30 6121 C 573.514 -5.83145 2.45204 0
M  V30 6122 C 572.178 -6.07001 2.77679 0
M  V30 6123 H 571.448 -0.735938 -0.0864695 0
M  V30 6124 H 574.095 -1.85209 0.48683 0
M  V30 6125 H 572.4 -3.66413 -1.38739 0
M  V30 6126 H 574.097 -3.86901 -1.05397 0
M  V30 6127 H 570.687 -4.27394 0.321322 0
M  V30 6128 H 574.871 -4.83339 1.12682 0
M  V30 6129 H 570.127 -5.68229 2.25668 0
M  V30 6130 H 574.301 -6.25537 3.06067 0
M  V30 6131 H 571.928 -6.67851 3.63151 0
M  V30 6132 N 573.503 -0.0852151 -1.57369 0
M  V30 6133 C 574.451 0.894856 -2.14698 0
M  V30 6134 C 575.445 1.29903 -1.08727 0
M  V30 6135 O 576.651 1.27471 -1.27088 0
M  V30 6136 H 573.026 0.306569 -0.686673 0
M  V30 6137 H 574.997 0.386542 -2.95886 0
M  V30 6138 C 573.746 2.14798 -2.73417 0
M  V30 6139 H 573.069 1.84585 -3.54638 0
M  V30 6140 H 574.509 2.81456 -3.1711 0
M  V30 6141 C 572.968 2.91546 -1.68828 0
M  V30 6142 O 573.498 3.85733 -1.12129 0
M  V30 6143 N 571.704 2.54901 -1.39549 0
M  V30 6144 H 571.251 1.7838 -1.85845 0
M  V30 6145 H 571.209 3.06553 -0.698054 0
M  V30 6146 N 574.981 1.5647 0.188427 0
M  V30 6147 C 575.911 1.98101 1.23606 0
M  V30 6148 C 576.892 0.853961 1.47111 0
M  V30 6149 O 578.077 1.11879 1.58735 0
M  V30 6150 C 575.207 2.32624 2.57882 0
M  V30 6151 C 574.161 3.48129 2.48978 0
M  V30 6152 C 573.487 3.68347 3.87588 0
M  V30 6153 C 574.787 4.82112 2.00911 0
M  V30 6154 H 576.481 2.85864 0.890068 0
M  V30 6155 H 574.027 1.37532 0.426714 0
M  V30 6156 H 575.98 2.60343 3.3136 0
M  V30 6157 H 574.704 1.41751 2.94235 0
M  V30 6158 H 573.363 3.20511 1.77956 0
M  V30 6159 H 573.011 2.74793 4.21305 0
M  V30 6160 H 572.711 4.46055 3.82503 0
M  V30 6161 H 574.235 3.98449 4.62678 0
M  V30 6162 H 575.649 5.08819 2.64151 0
M  V30 6163 H 574.046 5.63337 2.06814 0
M  V30 6164 H 575.116 4.75249 0.96262 0
M  V30 6165 N 576.459 -0.456382 1.50847 0
M  V30 6166 C 577.422 -1.53493 1.70213 0
M  V30 6167 C 578.422 -1.50264 0.572481 0
M  V30 6168 O 579.612 -1.52623 0.839751 0
M  V30 6169 C 576.744 -2.93091 1.741 0
M  V30 6170 H 577.937 -1.37633 2.66453 0
M  V30 6171 H 575.49 -0.683776 1.4055 0
M  V30 6172 H 576.225 -3.14378 0.796063 0
M  V30 6173 H 576.01 -2.9684 2.5618 0
M  V30 6174 H 577.5 -3.71368 1.90987 0
M  V30 6175 N 577.937 -1.40673 -0.710563 0
M  V30 6176 C 578.867 -1.44095 -1.83736 0
M  V30 6177 C 579.848 -0.301286 -1.67411 0
M  V30 6178 O 581.033 -0.510618 -1.87367 0
M  V30 6179 C 578.163 -1.30773 -3.21738 0
M  V30 6180 C 577.117 -2.42395 -3.52745 0
M  V30 6181 C 576.443 -2.14147 -4.89944 0
M  V30 6182 C 577.743 -3.84738 -3.53234 0
M  V30 6183 H 579.437 -2.38396 -1.81129 0
M  V30 6184 H 576.983 -1.14746 -0.870017 0
M  V30 6185 H 578.936 -1.31783 -4.00264 0
M  V30 6186 H 577.66 -0.329507 -3.24934 0
M  V30 6187 H 576.319 -2.40643 -2.76562 0
M  V30 6188 H 575.967 -1.14703 -4.89747 0
M  V30 6189 H 575.667 -2.88934 -5.11655 0
M  V30 6190 H 577.191 -2.16848 -5.70797 0
M  V30 6191 H 578.605 -3.88286 -4.2179 0
M  V30 6192 H 577.002 -4.59085 -3.86473 0
M  V30 6193 H 578.072 -4.13962 -2.52514 0
M  V30 6194 N 579.415 0.9433 -1.26252 0
M  V30 6195 C 580.365 2.02746 -1.04297 0
M  V30 6196 C 581.349 1.60882 0.0239435 0
M  V30 6197 O 582.541 1.75947 -0.192757 0
M  V30 6198 C 579.67 3.36585 -0.6757 0
M  V30 6199 C 578.756 3.84939 -1.77996 0
M  V30 6200 N 579.147 4.05966 -3.01704 0
M  V30 6201 C 577.445 4.13833 -1.66308 0
M  V30 6202 C 578.146 4.45987 -3.73458 0
M  V30 6203 N 577.122 4.52569 -3.01135 0
M  V30 6204 H 580.924 2.17012 -1.98199 0
M  V30 6205 H 578.438 1.12898 -1.16738 0
M  V30 6206 H 580.435 4.13896 -0.499571 0
M  V30 6207 H 579.095 3.2369 0.255863 0
M  V30 6208 H 580.106 3.92716 -3.37631 0
M  V30 6209 H 576.783 4.09739 -0.801267 0
M  V30 6210 H 578.173 4.70465 -4.79701 0
M  V30 6211 N 580.893 1.08022 1.14757 0
M  V30 6212 C 582.141 0.805913 1.85336 0
M  V30 6213 C 582.462 -0.670162 1.83122 0
M  V30 6214 O 581.732 -1.48567 1.2769 0
M  V30 6215 H 580.312 0.295138 0.686223 0
M  V30 6216 H 582.974 1.36538 1.3908 0
M  V30 6217 H 582.07 1.14655 2.90277 0
M  V30 6218 N 582.371 -1.3172 0.865308 0
M  V30 6219 C 583.319 -2.30569 0.306674 0
M  V30 6220 C 584.313 -1.59317 -0.575724 0
M  V30 6221 O 585.519 -1.73961 -0.462343 0
M  V30 6222 H 581.894 -0.747681 0.0804834 0
M  V30 6223 H 583.865 -2.75165 1.15441 0
M  V30 6224 C 582.614 -3.44358 -0.480952 0
M  V30 6225 H 581.937 -3.99354 0.18876 0
M  V30 6226 H 583.377 -4.15652 -0.837241 0
M  V30 6227 C 581.836 -2.92574 -1.67039 0
M  V30 6228 O 582.366 -2.90954 -2.76964 0
M  V30 6229 N 580.572 -2.48835 -1.50097 0
M  V30 6230 H 580.119 -2.50353 -0.606738 0
M  V30 6231 H 580.077 -2.14543 -2.29823 0
M  V30 6232 N 583.85 -0.624285 -1.44708 0
M  V30 6233 C 585.26 -0.2092 -1.85524 0
M  V30 6234 C 585.611 1.23783 -1.52225 0
M  V30 6235 O 584.736 1.94089 -0.956986 0
M  V30 6236 C 585.332 -0.372897 -3.36742 0
M  V30 6237 C 583.891 -0.012374 -3.76398 0
M  V30 6238 C 583.038 -0.68951 -2.68591 0
M  V30 6239 H 585.989 -0.829894 -1.35272 0
M  V30 6240 H 586.01 0.390134 -3.78495 0
M  V30 6241 H 585.522 -1.42615 -3.60947 0
M  V30 6242 H 583.623 1.03941 -3.57809 0
M  V30 6243 H 583.736 -0.417663 -4.77276 0
M  V30 6244 H 582.1 -0.125484 -2.54391 0
M  V30 6245 H 582.883 -1.74522 -2.9563 0
M  V30 6246 N 585.328 1.53329 -0.364422 0
M  V30 6247 C 586.574 2.02222 0.21855 0
M  V30 6248 C 586.929 1.24702 1.46517 0
M  V30 6249 O 586.222 0.331969 1.88702 0
M  V30 6250 C 586.416 3.52911 0.564661 0
M  V30 6251 C 586.245 4.45023 -0.646862 0
M  V30 6252 C 585.015 4.91838 -1.15858 0
M  V30 6253 C 587.213 4.91581 -1.51172 0
M  V30 6254 N 585.195 5.67955 -2.33025 0
M  V30 6255 C 586.566 5.66028 -2.53006 0
M  V30 6256 C 588.621 4.73656 -1.53473 0
M  V30 6257 C 587.324 6.24457 -3.56996 0
M  V30 6258 C 589.35 5.3295 -2.56356 0
M  V30 6259 C 588.712 6.07282 -3.56914 0
M  V30 6260 H 584.811 0.780832 0.0427199 0
M  V30 6261 H 587.395 1.87937 -0.508704 0
M  V30 6262 H 585.566 3.6736 1.26099 0
M  V30 6263 H 587.298 3.88528 1.13262 0
M  V30 6264 H 584.053 4.68043 -0.723393 0
M  V30 6265 H 584.477 6.10675 -2.92241 0
M  V30 6266 H 589.119 4.15714 -0.770842 0
M  V30 6267 H 586.837 6.81496 -4.34268 0
M  V30 6268 H 590.423 5.20976 -2.58989 0
M  V30 6269 H 589.303 6.52345 -4.35218 0
M  V30 6270 N 586.806 0.0935595 1.57322 0
M  V30 6271 C 587.738 -0.895923 2.10964 0
M  V30 6272 C 588.751 -1.24705 1.04654 0
M  V30 6273 O 589.94 -1.20044 1.32105 0
M  V30 6274 C 587.04 -2.20546 2.57318 0
M  V30 6275 C 586.213 -2.0299 3.87445 0
M  V30 6276 C 585.272 -3.17443 4.19662 0
M  V30 6277 O 584.298 -2.91474 4.88909 0
M  V30 6278 N 585.5 -4.43168 3.74943 0
M  V30 6279 H 588.265 -0.437788 2.96485 0
M  V30 6280 H 585.826 -0.0915863 1.61641 0
M  V30 6281 H 587.818 -2.9606 2.75917 0
M  V30 6282 H 586.388 -2.57789 1.76816 0
M  V30 6283 H 585.608 -1.11815 3.78009 0
M  V30 6284 H 586.896 -1.88535 4.7258 0
M  V30 6285 H 586.294 -4.67149 3.19043 0
M  V30 6286 H 584.851 -5.15637 3.987 0
M  V30 6287 N 588.284 -1.56567 -0.180126 0
M  V30 6288 C 589.524 -1.83285 -0.904761 0
M  V30 6289 C 589.888 -0.673226 -1.7981 0
M  V30 6290 O 591.089 -0.820645 -2.55967 0
M  V30 6291 C 589.36 -3.15086 -1.68688 0
M  V30 6292 S 590.919 -3.63258 -2.46149 0
M  V30 6293 H 587.737 -0.643114 -0.303193 0
M  V30 6294 H 590.339 -1.94785 -0.167034 0
M  V30 6295 H 589.043 -3.97484 -1.02148 0
M  V30 6296 H 588.574 -3.06504 -2.46615 0
M  V30 6297 H 590.589 -3.29884 -3.70663 0
M  V30 6298 N 589.762 0.448376 -1.51087 0
M  V30 6299 C 591.039 1.20926 -1.53741 0
M  V30 6300 C 591.419 2.09025 -0.295222 0
M  V30 6301 O 590.767 2.16851 0.720283 0
M  V30 6302 C 590.977 2.02067 -2.84552 0
M  V30 6303 C 592.325 2.59486 -3.36084 0
M  V30 6304 O 593.349 2.12289 -2.86028 0
M  V30 6305 O 592.208 3.45539 -4.23397 0
M  V30 6306 H 589.302 0.549951 -0.617643 0
M  V30 6307 H 591.848 0.458344 -1.63393 0
M  V30 6308 H 590.62 1.37291 -3.66425 0
M  V30 6309 H 590.243 2.84246 -2.78011 0
M  V30 6310 N 591.24 1.41047 0.703093 0
M  V30 6311 C 592.48 1.41461 1.4754 0
M  V30 6312 C 592.844 0.0199013 1.9199 0
M  V30 6313 O 594.045 -0.101138 2.6861 0
M  V30 6314 C 592.316 2.38703 2.66 0
M  V30 6315 S 593.875 2.57582 3.55242 0
M  V30 6316 H 590.693 0.501226 0.504275 0
M  V30 6317 H 593.295 1.77422 0.821074 0
M  V30 6318 H 591.999 3.3885 2.31536 0
M  V30 6319 H 591.53 2.04069 3.36333 0
M  V30 6320 H 593.545 1.83758 4.6092 0
M  V30 6321 N 592.718 -0.936591 1.26751 0
M  V30 6322 C 593.668 -2.0219 1.05371 0
M  V30 6323 C 594.652 -1.60893 -0.0154112 0
M  V30 6324 O 595.844 -1.75843 0.202085 0
M  V30 6325 C 592.973 -3.36222 0.693541 0
M  V30 6326 C 592.059 -3.8399 1.80035 0
M  V30 6327 N 592.45 -4.0436 3.03852 0
M  V30 6328 C 590.748 -4.12945 1.685 0
M  V30 6329 C 591.449 -4.44 3.75818 0
M  V30 6330 N 590.425 -4.50966 3.03531 0
M  V30 6331 H 594.227 -2.15958 1.99347 0
M  V30 6332 H 591.741 -1.12277 1.17335 0
M  V30 6333 H 593.738 -4.13625 0.521513 0
M  V30 6334 H 592.398 -3.23821 -0.238693 0
M  V30 6335 H 593.409 -3.9092 3.39709 0
M  V30 6336 H 590.086 -4.09308 0.822986 0
M  V30 6337 H 591.476 -4.67914 4.82189 0
M  V30 6338 N 594.196 -1.08629 -1.14182 0
M  V30 6339 C 595.126 -0.740003 -2.21464 0
M  V30 6340 C 596.107 0.278591 -1.67803 0
M  V30 6341 O 597.292 0.148461 -1.93632 0
M  V30 6342 C 594.422 -0.150952 -3.46972 0
M  V30 6343 C 593.376 -1.09815 -4.13672 0
M  V30 6344 C 592.702 -0.3712 -5.3341 0
M  V30 6345 C 594.002 -2.43722 -4.61949 0
M  V30 6346 H 595.696 -1.63697 -2.50686 0
M  V30 6347 H 593.242 -0.788526 -1.20492 0
M  V30 6348 H 595.195 0.103325 -4.21273 0
M  V30 6349 H 593.919 0.781164 -3.1712 0
M  V30 6350 H 592.578 -1.33756 -3.41328 0
M  V30 6351 H 592.226 0.564792 -4.99819 0
M  V30 6352 H 591.926 -1.00267 -5.78982 0
M  V30 6353 H 593.45 -0.12503 -6.10472 0
M  V30 6354 H 594.864 -2.24034 -5.27714 0
M  V30 6355 H 593.261 -3.02582 -5.18232 0
M  V30 6356 H 594.331 -3.05082 -3.76899 0
M  V30 6357 N 595.674 1.31259 -0.872281 0
M  V30 6358 C 596.637 2.26744 -0.334656 0
M  V30 6359 C 597.637 1.52307 0.515681 0
M  V30 6360 O 598.827 1.71148 0.324656 0
M  V30 6361 C 595.959 3.36841 0.524482 0
M  V30 6362 H 597.152 2.75812 -1.17762 0
M  V30 6363 H 594.705 1.42232 -0.648064 0
M  V30 6364 H 595.44 2.93069 1.38855 0
M  V30 6365 H 595.225 3.92009 -0.0844299 0
M  V30 6366 H 596.715 4.07944 0.892838 0
M  V30 6367 N 597.152 0.631951 1.44375 0
M  V30 6368 C 598.382 0.143658 2.061 0
M  V30 6369 C 598.79 -1.18733 1.47306 0
M  V30 6370 O 598.133 -1.73943 0.590724 0
M  V30 6371 C 598.195 -0.0446102 3.59472 0
M  V30 6372 C 597.859 1.20835 4.40736 0
M  V30 6373 C 598.856 2.13224 4.74164 0
M  V30 6374 C 596.541 1.44399 4.81097 0
M  V30 6375 C 598.535 3.27487 5.46838 0
M  V30 6376 C 596.222 2.58959 5.53519 0
M  V30 6377 C 597.22 3.50329 5.86309 0
M  V30 6378 O 596.908 4.62891 6.57257 0
M  V30 6379 H 596.64 0.0772939 0.671567 0
M  V30 6380 H 599.194 0.866677 1.8622 0
M  V30 6381 H 597.424 -0.822783 3.77845 0
M  V30 6382 H 599.113 -0.487561 4.02961 0
M  V30 6383 H 599.879 1.96253 4.4352 0
M  V30 6384 H 595.758 0.741696 4.54994 0
M  V30 6385 H 599.302 3.98826 5.72349 0
M  V30 6386 H 595.199 2.75873 5.83579 0
M  V30 6387 H 595.967 4.61883 6.75726 0
M  V30 6388 N 598.631 -1.53133 0.372548 0
M  V30 6389 C 599.561 -2.28876 -0.462412 0
M  V30 6390 C 600.542 -1.31583 -1.07796 0
M  V30 6391 O 601.727 -1.60461 -1.09389 0
M  V30 6392 C 598.857 -3.08317 -1.59868 0
M  V30 6393 C 597.811 -4.13355 -1.11003 0
M  V30 6394 C 597.137 -4.8092 -2.33708 0
M  V30 6395 C 598.437 -5.21955 -0.18983 0
M  V30 6396 H 600.131 -2.9892 0.169511 0
M  V30 6397 H 597.677 -1.43761 0.0829658 0
M  V30 6398 H 599.63 -3.60055 -2.18949 0
M  V30 6399 H 598.354 -2.35976 -2.25794 0
M  V30 6400 H 597.013 -3.62573 -0.541869 0
M  V30 6401 H 596.661 -4.05144 -2.98106 0
M  V30 6402 H 596.361 -5.51904 -2.01682 0
M  V30 6403 H 597.885 -5.35455 -2.93462 0
M  V30 6404 H 599.299 -5.69153 -0.688319 0
M  V30 6405 H 597.696 -6.00087 0.0398887 0
M  V30 6406 H 598.766 -4.78811 0.766057 0
M  V30 6407 N 600.109 -0.101901 -1.5727 0
M  V30 6408 C 601.356 0.560197 -1.94597 0
M  V30 6409 C 601.684 1.67767 -0.984101 0
M  V30 6410 O 600.939 1.95699 -0.00489193 0
M  V30 6411 C 601.238 1.14898 -3.38427 0
M  V30 6412 C 600.904 0.154613 -4.50635 0
M  V30 6413 C 599.566 -0.118861 -4.81053 0
M  V30 6414 C 601.918 -0.523979 -5.18559 0
M  V30 6415 C 599.246 -1.0775 -5.76721 0
M  V30 6416 C 601.598 -1.47114 -6.15256 0
M  V30 6417 C 600.262 -1.75278 -6.44076 0
M  V30 6418 H 599.532 0.204991 -0.712081 0
M  V30 6419 H 602.179 -0.17918 -1.9066 0
M  V30 6420 H 600.484 1.96476 -3.38976 0
M  V30 6421 H 602.181 1.66909 -3.64613 0
M  V30 6422 H 598.771 0.377948 -4.2693 0
M  V30 6423 H 602.955 -0.325851 -4.95229 0
M  V30 6424 H 598.211 -1.30263 -5.97362 0
M  V30 6425 H 602.385 -2.00274 -6.66981 0
M  V30 6426 H 600.012 -2.49717 -7.18015 0
M  V30 6427 N 601.587 1.56661 0.17182 0
M  V30 6428 C 602.535 1.97289 1.23207 0
M  V30 6429 C 603.529 0.861566 1.45854 0
M  V30 6430 O 604.735 1.04668 1.4644 0
M  V30 6431 H 601.11 0.627681 0.41415 0
M  V30 6432 H 603.081 2.85662 0.862542 0
M  V30 6433 C 601.83 2.34849 2.564 0
M  V30 6434 H 601.153 3.19903 2.39797 0
M  V30 6435 H 602.593 2.67121 3.29276 0
M  V30 6436 C 601.052 1.19172 3.15119 0
M  V30 6437 O 601.582 0.479113 3.98833 0
M  V30 6438 N 599.788 0.962415 2.74201 0
M  V30 6439 H 599.335 1.54365 2.06226 0
M  V30 6440 H 599.293 0.190272 3.13824 0
M  V30 6441 N 603.065 -0.440357 1.51323 0
M  V30 6442 C 604.311 -1.18874 1.65047 0
M  V30 6443 C 604.666 -1.88988 0.360742 0
M  V30 6444 O 603.959 -1.80479 -0.643272 0
M  V30 6445 C 604.153 -2.2339 2.78984 0
M  V30 6446 C 603.982 -1.63534 4.18911 0
M  V30 6447 C 602.752 -1.42158 4.84891 0
M  V30 6448 C 604.95 -1.11324 5.02107 0
M  V30 6449 N 602.932 -0.778679 6.08942 0
M  V30 6450 C 604.303 -0.595421 6.17134 0
M  V30 6451 C 606.358 -1.00471 4.87658 0
M  V30 6452 C 605.061 0.0202557 7.19297 0
M  V30 6453 C 607.087 -0.402928 5.90026 0
M  V30 6454 C 606.449 0.10436 7.04323 0
M  V30 6455 H 602.548 -0.422771 0.657866 0
M  V30 6456 H 605.132 -0.485814 1.88542 0
M  V30 6457 H 603.303 -2.91074 2.57158 0
M  V30 6458 H 605.035 -2.90366 2.81904 0
M  V30 6459 H 601.79 -1.68247 4.42707 0
M  V30 6460 H 602.214 -0.474755 6.75333 0
M  V30 6461 H 606.856 -1.38278 3.99548 0
M  V30 6462 H 604.574 0.410468 8.07057 0
M  V30 6463 H 608.16 -0.320897 5.80914 0
M  V30 6464 H 607.04 0.562697 7.82179 0
M  V30 6465 N 604.543 -1.41418 -0.695603 0
M  V30 6466 C 605.473 -1.46035 -1.82197 0
M  V30 6467 C 606.454 -0.319025 -1.67082 0
M  V30 6468 O 607.639 -0.530462 -1.86815 0
M  V30 6469 C 604.769 -1.34179 -3.20333 0
M  V30 6470 C 603.723 -2.46123 -3.50154 0
M  V30 6471 C 603.049 -2.19332 -4.87645 0
M  V30 6472 C 604.349 -3.88463 -3.49133 0
M  V30 6473 H 606.043 -2.40303 -1.78591 0
M  V30 6474 H 603.589 -1.15663 -0.857797 0
M  V30 6475 H 605.542 -1.36021 -3.98844 0
M  V30 6476 H 604.266 -0.363952 -3.24566 0
M  V30 6477 H 602.925 -2.43563 -2.73994 0
M  V30 6478 H 602.573 -1.19891 -4.88503 0
M  V30 6479 H 602.273 -2.94344 -5.08562 0
M  V30 6480 H 603.797 -2.22889 -5.68465 0
M  V30 6481 H 605.211 -3.92738 -4.17648 0
M  V30 6482 H 603.608 -4.63158 -3.81582 0
M  V30 6483 H 604.678 -4.16617 -2.48109 0
M  V30 6484 N 606.021 0.929856 -1.27246 0
M  V30 6485 C 606.953 2.03434 -1.0558 0
M  V30 6486 C 607.966 1.62795 -0.0125762 0
M  V30 6487 O 609.155 1.76685 -0.2539 0
M  V30 6488 C 606.255 3.33915 -0.57912 0
M  V30 6489 C 605.428 4.03259 -1.69415 0
M  V30 6490 C 604.487 5.12014 -1.21357 0
M  V30 6491 O 603.513 5.36097 -1.91282 0
M  V30 6492 N 604.715 5.8046 -0.0680622 0
M  V30 6493 H 607.48 2.22583 -2.00691 0
M  V30 6494 H 605.041 1.1001 -1.18783 0
M  V30 6495 H 607.033 4.03978 -0.241563 0
M  V30 6496 H 605.603 3.11355 0.278703 0
M  V30 6497 H 604.823 3.26958 -2.20209 0
M  V30 6498 H 606.111 4.46337 -2.44255 0
M  V30 6499 H 605.509 5.63345 0.515626 0
M  V30 6500 H 604.066 6.51461 0.210332 0
M  V30 6501 N 607.499 1.09233 1.13605 0
M  V30 6502 C 608.431 0.687794 2.18637 0
M  V30 6503 C 609.444 -0.26936 1.60556 0
M  V30 6504 O 610.633 -0.0557162 1.78413 0
M  V30 6505 C 607.733 -0.00751901 3.38899 0
M  V30 6506 C 606.906 0.97067 4.26494 0
M  V30 6507 C 605.965 0.309129 5.25291 0
M  V30 6508 O 604.991 0.956149 5.61112 0
M  V30 6509 N 606.193 -0.937555 5.72879 0
M  V30 6510 H 608.958 1.59141 2.53957 0
M  V30 6511 H 606.519 0.979515 1.28907 0
M  V30 6512 H 608.511 -0.461238 4.02063 0
M  V30 6513 H 607.081 -0.813353 3.01833 0
M  V30 6514 H 606.301 1.603 3.60135 0
M  V30 6515 H 607.589 1.63323 4.81875 0
M  V30 6516 H 606.987 -1.48281 5.4592 0
M  V30 6517 H 605.544 -1.33463 6.3799 0
M  V30 6518 N 608.977 -1.30795 0.87923 0
M  V30 6519 C 610.207 -2.00237 0.50881 0
M  V30 6520 C 610.615 -1.66115 -0.905682 0
M  V30 6521 O 609.958 -0.89138 -1.60624 0
M  V30 6522 C 610.02 -3.54508 0.597003 0
M  V30 6523 C 609.684 -4.12131 1.97477 0
M  V30 6524 C 610.681 -4.28552 2.94346 0
M  V30 6525 C 608.366 -4.47644 2.2786 0
M  V30 6526 C 610.36 -4.79689 4.19735 0
M  V30 6527 C 608.047 -4.98481 3.53496 0
M  V30 6528 C 609.045 -5.14456 4.49248 0
M  V30 6529 O 608.733 -5.64199 5.72656 0
M  V30 6530 H 608.465 -0.647026 0.195788 0
M  V30 6531 H 611.019 -1.67785 1.1848 0
M  V30 6532 H 609.249 -3.86461 -0.135945 0
M  V30 6533 H 610.938 -4.05198 0.238684 0
M  V30 6534 H 611.704 -4.01424 2.72183 0
M  V30 6535 H 607.583 -4.34481 1.54102 0
M  V30 6536 H 611.127 -4.92073 4.9448 0
M  V30 6537 H 607.024 -5.25044 3.75498 0
M  V30 6538 H 607.792 -5.82551 5.74957 0
M  V30 6539 N 610.455 -0.639598 -1.44038 0
M  V30 6540 C 611.683 -0.154811 -2.0632 0
M  V30 6541 C 612.098 1.17406 -1.47856 0
M  V30 6542 O 611.455 1.72193 -0.604638 0
M  V30 6543 C 611.506 -0.0429958 -3.61474 0
M  V30 6544 O 611.227 -1.31932 -4.17763 0
M  V30 6545 C 612.728 0.469486 -4.40807 0
M  V30 6546 H 609.948 -0.0835862 -0.665773 0
M  V30 6547 H 612.492 -0.876397 -1.84769 0
M  V30 6548 H 610.647 0.629075 -3.82258 0
M  V30 6549 H 611.061 -1.16965 -5.11292 0
M  V30 6550 H 612.535 0.496712 -5.49761 0
M  V30 6551 H 613.012 1.49819 -4.12857 0
M  V30 6552 H 613.618 -0.169624 -4.24962 0
M  V30 6553 N 611.933 1.52934 -0.380664 0
M  V30 6554 C 613.21 1.93845 0.261417 0
M  V30 6555 C 613.59 1.31544 1.65104 0
M  V30 6556 O 612.938 0.480234 2.23397 0
M  V30 6557 C 613.148 3.47739 0.296466 0
M  V30 6558 C 614.496 4.21284 0.529578 0
M  V30 6559 O 615.52 3.54199 0.377041 0
M  V30 6560 O 614.379 5.40195 0.827753 0
M  V30 6561 H 611.473 0.811318 0.160285 0
M  V30 6562 H 614.019 1.64042 -0.434544 0
M  V30 6563 H 612.791 3.85395 -0.67724 0
M  V30 6564 H 612.414 3.8382 1.0377 0
M  V30 6565 N 613.412 0.11024 1.57214 0
M  V30 6566 C 614.828 -0.24638 1.57687 0
M  V30 6567 C 615.028 -1.67344 1.12241 0
M  V30 6568 O 614.084 -2.39298 0.805783 0
M  V30 6569 C 615.397 -0.0210288 3.00693 0
M  V30 6570 C 616.945 -0.0876077 3.12877 0
M  V30 6571 C 617.42 0.10994 4.57868 0
M  V30 6572 N 618.911 0.0556135 4.63167 0
M  V30 6573 C 619.646 0.183495 5.73106 0
M  V30 6574 N 619.142 0.367058 6.91827 0
M  V30 6575 N 620.935 0.123689 5.61964 0
M  V30 6576 H 613.086 1.04246 1.85058 0
M  V30 6577 H 615.349 0.40979 0.854854 0
M  V30 6578 H 615.055 0.965203 3.38196 0
M  V30 6579 H 614.929 -0.756748 3.69531 0
M  V30 6580 H 617.316 -1.06436 2.75237 0
M  V30 6581 H 617.397 0.67985 2.466 0
M  V30 6582 H 617.041 1.08362 4.96206 0
M  V30 6583 H 616.971 -0.677397 5.22225 0
M  V30 6584 H 619.462 -0.0831062 3.77809 0
M  V30 6585 H 619.775 0.455739 7.71455 0
M  V30 6586 H 618.12 0.40292 6.93831 0
M  V30 6587 H 621.311 -0.0186928 4.68096 0
M  V30 6588 H 621.484 0.226797 6.47603 0
M  V30 6589 N 614.89 -1.56749 -0.16351 0
M  V30 6590 C 615.82 -2.00042 -1.20438 0
M  V30 6591 C 616.801 -0.877256 -1.45733 0
M  V30 6592 O 617.986 -1.1439 -1.56935 0
M  V30 6593 C 615.116 -2.36697 -2.54149 0
M  V30 6594 C 614.07 -3.52046 -2.43408 0
M  V30 6595 C 613.396 -3.74466 -3.81679 0
M  V30 6596 C 614.696 -4.85247 -1.93216 0
M  V30 6597 H 616.39 -2.87244 -0.844477 0
M  V30 6598 H 613.936 -1.38194 -0.40478 0
M  V30 6599 H 615.889 -2.65582 -3.27176 0
M  V30 6600 H 614.613 -1.46414 -2.91943 0
M  V30 6601 H 613.272 -3.23301 -1.72834 0
M  V30 6602 H 612.92 -2.81461 -4.1688 0
M  V30 6603 H 612.62 -4.52084 -3.75359 0
M  V30 6604 H 614.144 -4.0576 -4.5628 0
M  V30 6605 H 615.558 -5.12957 -2.56023 0
M  V30 6606 H 613.955 -5.66556 -1.97825 0
M  V30 6607 H 615.025 -4.7672 -0.88689 0
M  V30 6608 N 616.368 0.432326 -1.51554 0
M  V30 6609 C 617.298 1.53242 -1.76179 0
M  V30 6610 C 618.279 1.58717 -0.611801 0
M  V30 6611 O 619.464 1.74364 -0.855033 0
M  V30 6612 C 616.594 2.91278 -1.89141 0
M  V30 6613 C 615.548 3.00663 -3.04608 0
M  V30 6614 C 614.874 4.40728 -3.02759 0
M  V30 6615 C 616.174 2.74281 -4.44485 0
M  V30 6616 H 617.868 1.32886 -2.68294 0
M  V30 6617 H 615.414 0.637841 -1.29103 0
M  V30 6618 H 617.367 3.68203 -2.04951 0
M  V30 6619 H 616.091 3.12877 -0.936785 0
M  V30 6620 H 614.75 2.26179 -2.88511 0
M  V30 6621 H 614.398 4.59301 -2.05065 0
M  V30 6622 H 614.098 4.47936 -3.80299 0
M  V30 6623 H 615.622 5.19619 -3.20669 0
M  V30 6624 H 617.036 3.40936 -4.60907 0
M  V30 6625 H 615.433 2.92893 -5.23769 0
M  V30 6626 H 616.503 1.69856 -4.54177 0
M  V30 6627 N 617.846 1.41785 0.688094 0
M  V30 6628 C 618.794 1.44436 1.82321 0
M  V30 6629 C 619.788 0.321544 1.6632 0
M  V30 6630 O 620.994 0.493931 1.73091 0
M  V30 6631 H 617.369 0.452084 0.600936 0
M  V30 6632 H 619.34 2.40087 1.77202 0
M  V30 6633 C 618.089 1.35071 3.20392 0
M  V30 6634 H 617.412 2.2076 3.33324 0
M  V30 6635 H 618.852 1.40988 3.99873 0
M  V30 6636 C 617.311 0.0639127 3.36839 0
M  V30 6637 O 617.841 -0.888495 3.91751 0
M  V30 6638 N 616.047 -0.0146114 2.90596 0
M  V30 6639 H 615.594 0.761191 2.46097 0
M  V30 6640 H 615.552 -0.874988 3.01979 0
M  V30 6641 N 619.324 -0.923095 1.27737 0
M  V30 6642 C 620.573 -1.66581 1.13727 0
M  V30 6643 C 620.886 -1.9304 -0.315433 0
M  V30 6644 O 622.092 -2.65309 -0.57651 0
M  V30 6645 C 620.548 -3.00047 1.98745 0
M  V30 6646 C 620.156 -2.8127 3.48699 0
M  V30 6647 C 621.9 -3.77887 1.93395 0
M  V30 6648 C 619.807 -4.1032 4.25901 0
M  V30 6649 H 618.737 -0.624834 0.422017 0
M  V30 6650 H 621.388 -1.02514 1.52194 0
M  V30 6651 H 619.77 -3.65197 1.53125 0
M  V30 6652 H 620.944 -2.24859 4.02213 0
M  V30 6653 H 619.259 -2.16854 3.55476 0
M  V30 6654 H 621.856 -4.73526 2.48348 0
M  V30 6655 H 622.199 -4.06264 0.908605 0
M  V30 6656 H 622.732 -3.19541 2.36935 0
M  V30 6657 H 619.471 -3.8712 5.28978 0
M  V30 6658 H 618.991 -4.66377 3.77163 0
M  V30 6659 H 620.67 -4.78648 4.35321 0
M  V30 6660 N 620.802 -1.09834 -1.13024 0
M  V30 6661 C 621.734 -0.699379 -2.18269 0
M  V30 6662 C 622.747 0.260841 -1.60697 0
M  V30 6663 O 623.936 0.0462538 -1.7844 0
M  V30 6664 C 621.036 -0.0104537 -3.38898 0
M  V30 6665 C 620.209 -0.993275 -4.25973 0
M  V30 6666 C 619.268 -0.336982 -5.2512 0
M  V30 6667 O 618.294 -0.985892 -5.60597 0
M  V30 6668 N 619.496 0.90716 -5.73368 0
M  V30 6669 H 622.261 -1.60486 -2.5311 0
M  V30 6670 H 619.822 -0.986337 -1.28386 0
M  V30 6671 H 621.814 0.43991 -4.02302 0
M  V30 6672 H 620.384 0.797335 -3.0226 0
M  V30 6673 H 619.604 -1.62208 -3.5928 0
M  V30 6674 H 620.892 -1.65876 -4.81002 0
M  V30 6675 H 620.29 1.45384 -5.46699 0
M  V30 6676 H 618.847 1.30077 -6.38689 0
M  V30 6677 N 622.28 1.30327 -0.886154 0
M  V30 6678 C 623.508 2.00254 -0.520176 0
M  V30 6679 C 623.923 1.66419 0.891637 0
M  V30 6680 O 623.28 0.901951 1.58654 0
M  V30 6681 C 623.331 3.54916 -0.686775 0
M  V30 6682 O 623.052 3.87547 -2.04301 0
M  V30 6683 C 624.553 4.42115 -0.323945 0
M  V30 6684 H 621.773 0.640204 -0.200947 0
M  V30 6685 H 624.317 1.66183 -1.19178 0
M  V30 6686 H 622.472 3.8735 -0.0625273 0
M  V30 6687 H 622.886 4.82247 -2.06249 0
M  V30 6688 H 624.36 5.49808 -0.491407 0
M  V30 6689 H 624.837 4.32953 0.73811 0
M  V30 6690 H 625.443 4.15129 -0.924565 0
M  V30 6691 N 623.758 0.647228 1.43697 0
M  V30 6692 C 624.988 0.16551 2.05936 0
M  V30 6693 C 625.396 -1.17164 1.48557 0
M  V30 6694 O 624.739 -1.73307 0.60914 0
M  V30 6695 C 624.801 -0.00648082 3.59499 0
M  V30 6696 C 624.465 1.25503 4.39429 0
M  V30 6697 C 625.462 2.18241 4.71876 0
M  V30 6698 C 623.147 1.49494 4.79538 0
M  V30 6699 C 625.141 3.33268 5.43333 0
M  V30 6700 C 622.828 2.64815 5.50742 0
M  V30 6701 C 623.826 3.56528 5.82561 0
M  V30 6702 O 623.514 4.69836 6.52311 0
M  V30 6703 H 623.246 0.0844124 0.670709 0
M  V30 6704 H 625.8 0.88638 1.8529 0
M  V30 6705 H 624.03 -0.782661 3.78697 0
M  V30 6706 H 625.719 -0.444794 4.03456 0
M  V30 6707 H 626.485 2.00946 4.41413 0
M  V30 6708 H 622.364 0.789912 4.54182 0
M  V30 6709 H 625.908 4.04874 5.68087 0
M  V30 6710 H 621.805 2.82047 5.8062 0
M  V30 6711 H 622.573 4.69024 6.70789 0
M  V30 6712 N 625.236 -1.5273 0.388769 0
M  V30 6713 C 626.476 -2.03483 -0.193372 0
M  V30 6714 C 626.84 -1.26897 -1.44087 0
M  V30 6715 O 628.041 -1.67773 -2.10014 0
M  V30 6716 C 626.312 -3.54488 -0.455325 0
M  V30 6717 S 627.871 -4.27069 -1.00783 0
M  V30 6718 H 624.689 -0.708907 -0.0545131 0
M  V30 6719 H 627.291 -1.8798 0.536993 0
M  V30 6720 H 625.995 -4.07817 0.459722 0
M  V30 6721 H 625.526 -3.74196 -1.21413 0
M  V30 6722 H 627.541 -4.40185 -2.29023 0
M  V30 6723 N 626.714 -0.118576 -1.57153 0
M  V30 6724 C 627.677 0.817464 -2.14127 0
M  V30 6725 C 628.677 1.1949 -1.07604 0
M  V30 6726 O 629.867 1.12048 -1.33382 0
M  V30 6727 C 626.999 2.10541 -2.68115 0
M  V30 6728 H 628.192 0.322339 -2.98163 0
M  V30 6729 H 625.745 0.130655 -1.55753 0
M  V30 6730 H 626.48 2.64485 -1.87665 0
M  V30 6731 H 626.265 1.84425 -3.4602 0
M  V30 6732 H 627.755 2.77453 -3.12105 0
M  V30 6733 N 628.193 1.56834 0.155195 0
M  V30 6734 C 629.441 1.82536 0.867462 0
M  V30 6735 C 629.762 0.698168 1.82073 0
M  V30 6736 O 629.032 -0.280807 1.93877 0
M  V30 6737 H 627.612 0.673401 0.323327 0
M  V30 6738 H 630.274 1.94313 0.151156 0
M  V30 6739 H 629.37 2.77171 1.43466 0
M  V30 6740 N 629.671 -0.424282 1.51781 0
M  V30 6741 C 631.082 -1.00368 1.57427 0
M  V30 6742 C 631.433 -1.91962 0.40558 0
M  V30 6743 O 630.558 -2.111 -0.47601 0
M  V30 6744 C 631.153 -1.82707 2.85313 0
M  V30 6745 C 629.712 -2.35675 2.93487 0
M  V30 6746 C 628.859 -1.1524 2.5222 0
M  V30 6747 H 631.81 -0.205064 1.5737 0
M  V30 6748 H 631.831 -2.68294 2.69812 0
M  V30 6749 H 631.343 -1.16017 3.70353 0
M  V30 6750 H 629.444 -3.05781 2.12906 0
M  V30 6751 H 629.557 -2.67578 3.97415 0
M  V30 6752 H 627.921 -1.50174 2.05718 0
M  V30 6753 H 628.704 -0.5014 3.39619 0
M  V30 6754 N 631.149 -1.42148 -0.680565 0
M  V30 6755 C 632.112 -1.4488 -1.77602 0
M  V30 6756 C 633.112 -0.337209 -1.57224 0
M  V30 6757 O 634.302 -0.597778 -1.63622 0
M  V30 6758 C 631.434 -1.27483 -3.16166 0
M  V30 6759 H 632.627 -2.42412 -1.76568 0
M  V30 6760 H 630.18 -1.28511 -0.889645 0
M  V30 6761 H 630.915 -0.30851 -3.22829 0
M  V30 6762 H 630.7 -2.08037 -3.3236 0
M  V30 6763 H 632.19 -1.32265 -3.96101 0
M  V30 6764 N 632.627 0.916307 -1.28225 0
M  V30 6765 C 633.857 1.69654 -1.17902 0
M  V30 6766 C 634.265 1.87331 0.265268 0
M  V30 6767 O 633.608 1.39828 1.19137 0
M  V30 6768 C 633.67 3.11024 -1.80289 0
M  V30 6769 C 633.334 3.16643 -3.29525 0
M  V30 6770 C 634.331 2.98032 -4.25997 0
M  V30 6771 C 632.016 3.39238 -3.70436 0
M  V30 6772 C 634.01 3.01924 -5.61356 0
M  V30 6773 C 631.697 3.42762 -5.05922 0
M  V30 6774 C 632.695 3.24125 -6.01192 0
M  V30 6775 O 632.383 3.27406 -7.34208 0
M  V30 6776 H 632.115 0.537197 -0.41036 0
M  V30 6777 H 634.669 1.15547 -1.69817 0
M  V30 6778 H 632.899 3.66662 -1.22865 0
M  V30 6779 H 634.588 3.71063 -1.6452 0
M  V30 6780 H 635.354 2.80405 -3.95725 0
M  V30 6781 H 631.233 3.52791 -2.96749 0
M  V30 6782 H 634.777 2.87295 -6.35694 0
M  V30 6783 H 630.674 3.59916 -5.35846 0
M  V30 6784 H 631.442 3.43784 -7.42802 0
M  V30 6785 N 634.105 1.10431 1.1244 0
M  V30 6786 C 635.035 0.775143 2.20258 0
M  V30 6787 C 636.016 -0.25186 1.68225 0
M  V30 6788 O 637.201 -0.117637 1.93843 0
M  V30 6789 C 634.331 0.206133 3.46688 0
M  V30 6790 C 633.285 1.16382 4.11873 0
M  V30 6791 C 632.611 0.456014 5.32752 0
M  V30 6792 C 633.911 2.5104 4.58013 0
M  V30 6793 H 635.605 1.67665 2.4805 0
M  V30 6794 H 633.151 0.807595 1.19222 0
M  V30 6795 H 635.104 -0.036291 4.21384 0
M  V30 6796 H 633.828 -0.730614 3.18323 0
M  V30 6797 H 632.487 1.39169 3.39157 0
M  V30 6798 H 632.135 -0.485203 5.00654 0
M  V30 6799 H 631.835 1.09466 5.77314 0
M  V30 6800 H 633.359 0.222135 6.10196 0
M  V30 6801 H 634.773 2.32401 5.24083 0
M  V30 6802 H 633.17 3.10789 5.13352 0
M  V30 6803 H 634.24 3.11039 3.71998 0
M  V30 6804 N 635.583 -1.29855 0.893053 0
M  V30 6805 C 636.53 -2.27909 0.364161 0
M  V30 6806 C 637.5 -1.56726 -0.550093 0
M  V30 6807 O 638.685 -1.84747 -0.47677 0
M  V30 6808 C 635.825 -3.42678 -0.408178 0
M  V30 6809 C 634.938 -4.28659 0.536212 0
M  V30 6810 C 634.073 -5.30599 -0.252521 0
M  V30 6811 C 633.112 -6.08234 0.686822 0
M  V30 6812 N 632.249 -7.02068 -0.0670902 0
M  V30 6813 H 637.089 -2.72531 1.20544 0
M  V30 6814 H 634.626 -1.34047 0.605779 0
M  V30 6815 H 636.584 -4.07986 -0.871962 0
M  V30 6816 H 635.214 -2.99103 -1.21397 0
M  V30 6817 H 634.266 -3.63584 1.1185 0
M  V30 6818 H 635.578 -4.8274 1.25552 0
M  V30 6819 H 634.732 -6.01694 -0.777801 0
M  V30 6820 H 633.471 -4.77233 -1.005 0
M  V30 6821 H 632.476 -5.3601 1.22366 0
M  V30 6822 H 633.701 -6.63689 1.43852 0
M  V30 6823 H 631.647 -6.5108 -0.801955 0
M  V30 6824 H 631.564 -7.53675 0.59243 0
M  V30 6825 H 632.832 -7.77392 -0.572851 0
M  V30 6826 N 637.061 -0.65484 -1.43351 0
M  V30 6827 C 638.309 -0.168559 -2.01396 0
M  V30 6828 C 638.63 1.22235 -1.51933 0
M  V30 6829 O 637.9 1.81685 -0.732627 0
M  V30 6830 H 636.48 -0.0593244 -0.744641 0
M  V30 6831 H 639.142 -0.846871 -1.75539 0
M  V30 6832 H 638.238 -0.154428 -3.11718 0
M  V30 6833 N 638.539 1.52521 -0.396863 0
M  V30 6834 C 639.471 2.24333 0.469814 0
M  V30 6835 C 640.484 1.2685 1.02043 0
M  V30 6836 O 641.673 1.52876 0.92147 0
M  V30 6837 C 638.773 2.95202 1.66461 0
M  V30 6838 C 637.946 4.19454 1.24003 0
M  V30 6839 C 637.005 4.73255 2.30036 0
M  V30 6840 O 636.031 5.36151 1.91131 0
M  V30 6841 N 637.233 4.53765 3.62047 0
M  V30 6842 H 639.998 2.99347 -0.145468 0
M  V30 6843 H 637.559 1.60348 -0.223606 0
M  V30 6844 H 639.551 3.28092 2.36934 0
M  V30 6845 H 638.121 2.2345 2.18607 0
M  V30 6846 H 637.341 3.92517 0.363892 0
M  V30 6847 H 638.629 5.0017 0.933135 0
M  V30 6848 H 638.027 4.03576 3.96412 0
M  V30 6849 H 636.584 4.91124 4.28533 0
M  V30 6850 N 640.017 0.126909 1.57088 0
M  V30 6851 C 641.263 -0.529952 1.95753 0
M  V30 6852 C 641.596 -1.65823 1.01077 0
M  V30 6853 O 640.871 -1.94437 0.0494162 0
M  V30 6854 C 641.154 -1.05517 3.44294 0
M  V30 6855 C 641.007 0.0702253 4.49745 0
M  V30 6856 C 642.326 -1.9435 3.94862 0
M  V30 6857 H 639.445 -0.191168 0.711775 0
M  V30 6858 H 642.087 0.204071 1.88901 0
M  V30 6859 H 640.237 -1.68069 3.50264 0
M  V30 6860 H 641.909 0.705834 4.55868 0
M  V30 6861 H 640.152 0.732259 4.27575 0
M  V30 6862 H 640.823 -0.338642 5.5096 0
M  V30 6863 H 643.299 -1.41658 3.91244 0
M  V30 6864 H 642.175 -2.28015 4.993 0
M  V30 6865 H 642.436 -2.87299 3.36024 0
M  V30 6866 N 641.495 -1.56914 -0.146875 0
M  V30 6867 C 642.741 -1.83628 -0.860741 0
M  V30 6868 C 643.074 -0.708528 -1.80813 0
M  V30 6869 O 642.349 0.287838 -1.92358 0
M  V30 6870 C 642.632 -3.20836 -1.63511 0
M  V30 6871 C 642.485 -4.44174 -0.709199 0
M  V30 6872 C 643.804 -3.55268 -2.59756 0
M  V30 6873 H 640.923 -0.667949 -0.311468 0
M  V30 6874 H 643.565 -1.89582 -0.125936 0
M  V30 6875 H 641.715 -3.15891 -2.26153 0
M  V30 6876 H 643.387 -4.61205 -0.0937781 0
M  V30 6877 H 641.63 -4.33796 -0.0187856 0
M  V30 6878 H 642.301 -5.36785 -1.28707 0
M  V30 6879 H 644.777 -3.60824 -2.07232 0
M  V30 6880 H 643.653 -4.52303 -3.10987 0
M  V30 6881 H 643.914 -2.81231 -3.41118 0
M  V30 6882 N 642.974 0.416227 -1.52004 0
M  V30 6883 C 644.385 0.995319 -1.57957 0
M  V30 6884 C 644.736 1.91744 -0.415754 0
M  V30 6885 O 643.861 2.11349 0.464808 0
M  V30 6886 C 644.456 1.81191 -2.86278 0
M  V30 6887 C 643.015 2.34115 -2.94732 0
M  V30 6888 C 642.162 1.139 -2.52828 0
M  V30 6889 H 645.113 0.196716 -1.57476 0
M  V30 6890 H 645.134 2.66859 -2.71231 0
M  V30 6891 H 644.646 1.14051 -3.70963 0
M  V30 6892 H 642.747 3.04647 -2.14525 0
M  V30 6893 H 642.86 2.65466 -3.98829 0
M  V30 6894 H 641.224 1.49081 -2.06511 0
M  V30 6895 H 642.007 0.483383 -3.3988 0
M  V30 6896 N 644.452 1.42507 0.673017 0
M  V30 6897 C 645.415 1.4582 1.76831 0
M  V30 6898 C 646.415 0.345542 1.57043 0
M  V30 6899 O 647.605 0.606447 1.63303 0
M  V30 6900 C 644.737 1.29158 3.15485 0
M  V30 6901 H 645.93 2.43345 1.7528 0
M  V30 6902 H 643.483 1.28981 0.882817 0
M  V30 6903 H 644.218 0.325626 3.22661 0
M  V30 6904 H 644.003 2.09797 3.31252 0
M  V30 6905 H 645.493 1.34363 3.95394 0
M  V30 6906 N 645.93 -0.909495 1.28709 0
M  V30 6907 C 646.86 -2.0291 1.15542 0
M  V30 6908 C 647.841 -1.7002 0.0521017 0
M  V30 6909 O 649.026 -1.92835 0.229849 0
M  V30 6910 C 646.156 -3.37458 0.820935 0
M  V30 6911 C 645.11 -3.84524 1.87949 0
M  V30 6912 C 644.436 -5.16086 1.39854 0
M  V30 6913 C 645.736 -4.05918 3.28676 0
M  V30 6914 H 647.43 -2.14183 2.09203 0
M  V30 6915 H 644.976 -1.02913 1.00722 0
M  V30 6916 H 646.929 -4.1528 0.715571 0
M  V30 6917 H 645.653 -3.26249 -0.151374 0
M  V30 6918 H 644.312 -3.08911 1.97408 0
M  V30 6919 H 643.96 -5.01284 0.41518 0
M  V30 6920 H 643.66 -5.48547 2.1064 0
M  V30 6921 H 645.184 -5.96459 1.30649 0
M  V30 6922 H 646.598 -4.74252 3.22115 0
M  V30 6923 H 644.995 -4.49717 3.97334 0
M  V30 6924 H 646.065 -3.10583 3.72379 0
M  V30 6925 N 647.408 -1.11026 -1.11852 0
M  V30 6926 C 648.356 -0.759643 -2.19846 0
M  V30 6927 C 649.35 0.246964 -1.6759 0
M  V30 6928 O 650.556 0.106693 -1.79684 0
M  V30 6929 H 646.931 -0.22775 -0.716683 0
M  V30 6930 H 648.902 -1.6792 -2.46669 0
M  V30 6931 C 647.651 -0.214364 -3.47039 0
M  V30 6932 H 646.974 -0.980175 -3.87599 0
M  V30 6933 H 648.414 -0.00717047 -4.23999 0
M  V30 6934 C 646.873 1.05436 -3.19976 0
M  V30 6935 O 647.403 2.13483 -3.40276 0
M  V30 6936 N 645.609 0.975436 -2.7374 0
M  V30 6937 H 645.156 0.0960853 -2.57421 0
M  V30 6938 H 645.114 1.82501 -2.5601 0
M  V30 6939 N 648.886 1.2938 -0.899927 0
M  V30 6940 C 649.796 2.31462 -0.382437 0
M  V30 6941 C 650.812 1.65956 0.522929 0
M  V30 6942 O 651.988 1.97131 0.412454 0
M  V30 6943 C 649.053 3.44595 0.381472 0
M  V30 6944 C 648.114 4.25692 -0.555444 0
M  V30 6945 C 647.347 5.33422 0.172102 0
M  V30 6946 O 647.57 5.53053 1.396 0
M  V30 6947 O 646.504 5.99939 -0.485491 0
M  V30 6948 H 650.33 2.77706 -1.22934 0
M  V30 6949 H 647.915 1.33821 -0.664259 0
M  V30 6950 H 649.797 4.13474 0.813442 0
M  V30 6951 H 648.472 3.00458 1.20443 0
M  V30 6952 H 647.379 3.59453 -1.03653 0
M  V30 6953 H 648.712 4.73471 -1.34483 0
M  V30 6954 N 650.364 0.662433 1.43002 0
M  V30 6955 C 651.311 -0.0235324 2.30788 0
M  V30 6956 C 652.281 -0.805342 1.4527 0
M  V30 6957 O 653.466 -0.78009 1.74124 0
M  V30 6958 C 650.606 -0.977545 3.30965 0
M  V30 6959 C 649.719 -0.190865 4.31578 0
M  V30 6960 C 648.854 -1.13951 5.18834 0
M  V30 6961 C 647.893 -0.343796 6.11134 0
M  V30 6962 N 647.03 -1.2445 6.90982 0
M  V30 6963 H 651.87 0.730921 2.88897 0
M  V30 6964 H 649.407 0.372197 1.42313 0
M  V30 6965 H 651.365 -1.54437 3.87563 0
M  V30 6966 H 649.995 -1.69877 2.74484 0
M  V30 6967 H 649.047 0.492388 3.772 0
M  V30 6968 H 650.359 0.427464 4.96965 0
M  V30 6969 H 649.513 -1.77666 5.80103 0
M  V30 6970 H 648.252 -1.79174 4.53595 0
M  V30 6971 H 647.257 0.30665 5.48944 0
M  V30 6972 H 648.482 0.304161 6.78419 0
M  V30 6973 H 646.428 -1.88336 6.28383 0
M  V30 6974 H 646.345 -0.680959 7.52927 0
M  V30 6975 H 647.613 -1.86952 7.56749 0
M  V30 6976 N 651.842 -1.52309 0.404946 0
M  V30 6977 C 652.774 -2.24579 -0.45791 0
M  V30 6978 C 653.787 -1.2739 -1.01369 0
M  V30 6979 O 654.976 -1.53363 -0.91335 0
M  V30 6980 C 652.076 -2.9608 -1.64893 0
M  V30 6981 C 651.249 -4.20106 -1.21777 0
M  V30 6982 C 650.308 -4.74468 -2.27523 0
M  V30 6983 O 649.334 -5.37157 -1.88285 0
M  V30 6984 N 650.536 -4.55678 -3.59635 0
M  V30 6985 H 653.301 -2.99265 0.161341 0
M  V30 6986 H 650.862 -1.60228 0.232107 0
M  V30 6987 H 652.854 -3.29344 -2.35191 0
M  V30 6988 H 651.424 -2.24606 -2.17419 0
M  V30 6989 H 650.644 -3.92704 -0.343071 0
M  V30 6990 H 651.932 -5.00658 -0.906596 0
M  V30 6991 H 651.33 -4.05673 -3.94266 0
M  V30 6992 H 649.887 -4.9339 -4.25922 0
M  V30 6993 N 653.32 -0.135238 -1.57019 0
M  V30 6994 C 654.25 0.805235 -2.19176 0
M  V30 6995 C 655.231 1.2656 -1.13651 0
M  V30 6996 O 656.416 1.32528 -1.4195 0
M  V30 6997 C 653.546 2.04914 -2.80406 0
M  V30 6998 C 652.5 1.72598 -3.91655 0
M  V30 6999 C 651.826 3.04154 -4.39766 0
M  V30 7000 C 653.126 0.981709 -5.12991 0
M  V30 7001 H 654.82 0.287232 -2.98019 0
M  V30 7002 H 652.366 0.136714 -1.4335 0
M  V30 7003 H 654.319 2.71178 -3.22553 0
M  V30 7004 H 653.043 2.59067 -1.98877 0
M  V30 7005 H 651.702 1.08717 -3.50109 0
M  V30 7006 H 651.35 3.56274 -3.55075 0
M  V30 7007 H 651.05 2.83299 -5.14796 0
M  V30 7008 H 652.574 3.71509 -4.84576 0
M  V30 7009 H 653.988 1.5462 -5.52056 0
M  V30 7010 H 652.385 0.873533 -5.93708 0
M  V30 7011 H 653.455 -0.0286887 -4.84892 0
M  V30 7012 N 654.798 1.5699 0.138552 0
M  V30 7013 C 656.044 1.84081 0.85099 0
M  V30 7014 C 656.377 0.718107 1.80435 0
M  V30 7015 O 655.652 -0.277633 1.92508 0
M  V30 7016 C 655.935 3.21699 1.61808 0
M  V30 7017 C 655.788 4.44544 0.685633 0
M  V30 7018 C 657.107 3.5664 2.57868 0
M  V30 7019 H 654.226 0.669592 0.307922 0
M  V30 7020 H 656.868 1.89646 0.11588 0
M  V30 7021 H 655.018 3.17086 2.24474 0
M  V30 7022 H 656.69 4.61248 0.0693179 0
M  V30 7023 H 654.933 4.338 -0.00421993 0
M  V30 7024 H 655.604 5.3746 1.25858 0
M  V30 7025 H 658.08 3.61918 2.05316 0
M  V30 7026 H 656.956 4.53946 3.08584 0
M  V30 7027 H 657.217 2.83036 3.39622 0
M  V30 7028 N 656.276 -0.40816 1.52223 0
M  V30 7029 C 657.516 -1.16418 1.68006 0
M  V30 7030 C 657.88 -1.87749 0.401793 0
M  V30 7031 O 659.081 -2.65245 0.435743 0
M  V30 7032 C 657.352 -2.13143 2.86889 0
M  V30 7033 S 658.911 -2.96839 3.2316 0
M  V30 7034 H 655.729 -0.394373 0.5916 0
M  V30 7035 H 658.331 -0.451349 1.90219 0
M  V30 7036 H 657.035 -1.59428 3.78168 0
M  V30 7037 H 656.566 -2.88963 2.66953 0
M  V30 7038 H 658.581 -4.151 2.71857 0
M  V30 7039 N 657.755 -1.42862 -0.66545 0
M  V30 7040 C 659.166 -1.3901 -1.24632 0
M  V30 7041 C 659.517 -0.0880285 -1.96002 0
M  V30 7042 O 658.642 0.812947 -2.0055 0
M  V30 7043 C 659.237 -2.51806 -2.2667 0
M  V30 7044 C 657.796 -2.51257 -2.80262 0
M  V30 7045 C 656.943 -2.30124 -1.5472 0
M  V30 7046 H 659.894 -1.5194 -0.458237 0
M  V30 7047 H 659.915 -2.22593 -3.08598 0
M  V30 7048 H 659.427 -3.46558 -1.74697 0
M  V30 7049 H 657.528 -1.60349 -3.36332 0
M  V30 7050 H 657.641 -3.48614 -3.28641 0
M  V30 7051 H 656.005 -1.7856 -1.81627 0
M  V30 7052 H 656.788 -3.26945 -1.04699 0
M  V30 7053 N 659.233 0.902656 -1.29189 0
M  V30 7054 C 660.479 1.65532 -1.17163 0
M  V30 7055 C 660.812 1.92216 0.276879 0
M  V30 7056 O 660.087 1.53048 1.20027 0
M  V30 7057 C 660.37 3.00629 -1.98228 0
M  V30 7058 C 660.223 2.81029 -3.51202 0
M  V30 7059 C 661.542 4.01321 -1.80635 0
M  V30 7060 H 658.661 0.60071 -0.426985 0
M  V30 7061 H 661.303 1.04578 -1.5863 0
M  V30 7062 H 659.453 3.52656 -1.62991 0
M  V30 7063 H 661.125 2.35927 -3.96404 0
M  V30 7064 H 659.368 2.1587 -3.76275 0
M  V30 7065 H 660.039 3.77014 -4.03192 0
M  V30 7066 H 662.515 3.58394 -2.11406 0
M  V30 7067 H 661.391 4.93792 -2.3971 0
M  V30 7068 H 661.652 4.35505 -0.760754 0
M  V30 7069 N 660.711 1.11618 1.11262 0
M  V30 7070 C 661.939 0.888739 1.8684 0
M  V30 7071 C 662.354 -0.561558 1.80255 0
M  V30 7072 O 661.711 -1.38782 1.18515 0
M  V30 7073 C 661.762 1.34422 3.35579 0
M  V30 7074 O 661.483 2.73766 3.42029 0
M  V30 7075 C 662.984 1.15246 4.28058 0
M  V30 7076 H 660.204 0.318152 0.590779 0
M  V30 7077 H 662.748 1.48398 1.40707 0
M  V30 7078 H 660.903 0.79239 3.7921 0
M  V30 7079 H 661.317 2.9355 4.34659 0
M  V30 7080 H 662.791 1.52015 5.30656 0
M  V30 7081 H 663.268 0.0922007 4.39103 0
M  V30 7082 H 663.874 1.69136 3.90222 0
M  V30 7083 N 662.189 -1.289 0.906776 0
M  V30 7084 C 663.605 -1.47733 0.603902 0
M  V30 7085 C 663.805 -1.82568 -0.852702 0
M  V30 7086 O 662.861 -1.92642 -1.63234 0
M  V30 7087 C 664.174 -2.58522 1.53581 0
M  V30 7088 C 665.722 -2.72394 1.54177 0
M  V30 7089 C 666.197 -3.86318 2.46013 0
M  V30 7090 N 667.688 -3.93661 2.441 0
M  V30 7091 C 668.423 -4.81177 3.11859 0
M  V30 7092 N 667.919 -5.73333 3.88923 0
M  V30 7093 N 669.712 -4.74728 3.00981 0
M  V30 7094 H 661.863 -1.04567 1.84877 0
M  V30 7095 H 664.126 -0.520118 0.792579 0
M  V30 7096 H 663.832 -2.39667 2.57396 0
M  V30 7097 H 663.706 -3.55475 1.26165 0
M  V30 7098 H 666.093 -2.90641 0.511034 0
M  V30 7099 H 666.174 -1.75993 1.85634 0
M  V30 7100 H 665.818 -3.68826 3.49185 0
M  V30 7101 H 665.748 -4.82102 2.11862 0
M  V30 7102 H 668.239 -3.27751 1.88115 0
M  V30 7103 H 668.552 -6.36923 4.37663 0
M  V30 7104 H 666.897 -5.73196 3.93029 0
M  V30 7105 H 670.088 -4.01722 2.40286 0
M  V30 7106 H 670.261 -5.42719 3.54062 0
M  V30 7107 N 663.667 -0.670007 -1.42649 0
M  V30 7108 C 664.944 -0.119451 -1.95235 0
M  V30 7109 C 665.324 1.36461 -1.61064 0
M  V30 7110 O 664.672 2.09843 -0.904329 0
M  V30 7111 C 664.882 -0.383498 -3.46887 0
M  V30 7112 C 666.23 -0.297431 -4.23557 0
M  V30 7113 O 667.254 -0.31698 -3.54787 0
M  V30 7114 O 666.113 -0.235507 -5.45992 0
M  V30 7115 H 663.207 -8.85474e-05 -0.827 0
M  V30 7116 H 665.753 -0.744406 -1.52501 0
M  V30 7117 H 664.525 -1.41174 -3.64946 0
M  V30 7118 H 664.148 0.273702 -3.96657 0
M  V30 7119 N 665.145 1.52092 -0.413018 0
M  V30 7120 C 666.095 2.23947 0.427993 0
M  V30 7121 C 667.079 1.25229 1.01027 0
M  V30 7122 O 668.271 1.50448 0.932444 0
M  V30 7123 C 665.4 3.0672 1.542 0
M  V30 7124 C 664.486 4.12851 0.970307 0
M  V30 7125 N 664.877 5.05644 0.125611 0
M  V30 7126 C 663.175 4.28404 1.24042 0
M  V30 7127 C 663.876 5.8138 -0.192876 0
M  V30 7128 N 662.852 5.41996 0.417273 0
M  V30 7129 H 666.654 2.93048 -0.223628 0
M  V30 7130 H 664.168 1.60852 -0.223664 0
M  V30 7131 H 666.165 3.56754 2.15714 0
M  V30 7132 H 664.825 2.39159 2.19621 0
M  V30 7133 H 665.836 5.17348 -0.238995 0
M  V30 7134 H 662.513 3.72071 1.89391 0
M  V30 7135 H 663.903 6.66129 -0.878762 0
M  V30 7136 N 666.623 0.143563 1.56945 0
M  V30 7137 C 667.553 -0.7936 2.196 0
M  V30 7138 C 668.534 -1.25955 1.14321 0
M  V30 7139 O 669.719 -1.31773 1.42651 0
M  V30 7140 C 666.849 -2.03424 2.81489 0
M  V30 7141 C 665.803 -1.70519 3.92565 0
M  V30 7142 C 665.129 -3.01817 4.41373 0
M  V30 7143 C 666.429 -0.95449 5.13504 0
M  V30 7144 H 668.123 -0.271423 2.98167 0
M  V30 7145 H 665.669 -0.12911 1.4342 0
M  V30 7146 H 667.622 -2.69463 3.23987 0
M  V30 7147 H 666.346 -2.58008 2.00248 0
M  V30 7148 H 665.005 -1.06859 3.5068 0
M  V30 7149 H 664.653 -3.54386 3.56959 0
M  V30 7150 H 664.353 -2.80565 5.16292 0
M  V30 7151 H 665.877 -3.68934 4.86539 0
M  V30 7152 H 667.291 -1.5169 5.52868 0
M  V30 7153 H 665.688 -0.842035 5.94163 0
M  V30 7154 H 666.758 0.0544033 4.84869 0
M  V30 7155 N 668.101 -1.57061 -0.130224 0
M  V30 7156 C 669.349 -1.83893 -0.838313 0
M  V30 7157 C 669.67 -0.727046 -1.80939 0
M  V30 7158 O 668.94 0.249927 -1.94299 0
M  V30 7159 H 667.52 -0.67846 -0.312573 0
M  V30 7160 H 670.182 -1.94529 -0.120224 0
M  V30 7161 H 669.278 -2.79419 -1.39038 0
M  V30 7162 N 669.579 0.400081 -1.52437 0
M  V30 7163 C 670.826 1.14619 -1.6694 0
M  V30 7164 C 671.154 1.90262 -0.403797 0
M  V30 7165 O 670.409 1.85835 0.61351 0
M  V30 7166 C 670.708 2.15914 -2.84808 0
M  V30 7167 C 670.374 1.57011 -4.2268 0
M  V30 7168 C 669.036 1.40672 -4.60179 0
M  V30 7169 C 671.388 1.14081 -5.08562 0
M  V30 7170 C 668.716 0.799335 -5.81229 0
M  V30 7171 C 671.068 0.547573 -6.30226 0
M  V30 7172 C 669.732 0.371389 -6.66466 0
M  V30 7173 H 669.002 0.419419 -0.610875 0
M  V30 7174 H 671.649 0.432227 -1.86558 0
M  V30 7175 H 669.954 2.93488 -2.59561 0
M  V30 7176 H 671.651 2.73533 -2.93225 0
M  V30 7177 H 668.241 1.70713 -3.93135 0
M  V30 7178 H 672.425 1.2551 -4.80168 0
M  V30 7179 H 667.681 0.65093 -6.07925 0
M  V30 7180 H 671.855 0.206575 -6.96094 0
M  V30 7181 H 669.482 -0.10135 -7.60132 0
M  V30 7182 N 671.057 1.43213 0.657864 0
M  V30 7183 C 671.989 1.43974 1.78337 0
M  V30 7184 C 673.002 0.336482 1.59285 0
M  V30 7185 O 674.191 0.600631 1.68091 0
M  V30 7186 C 671.291 1.23242 3.15697 0
M  V30 7187 C 670.464 2.46319 3.61449 0
M  V30 7188 C 669.523 2.2088 4.77597 0
M  V30 7189 O 668.549 2.942 4.87273 0
M  V30 7190 N 669.751 1.22251 5.67481 0
M  V30 7191 H 672.516 2.40993 1.78164 0
M  V30 7192 H 670.077 1.3831 0.841549 0
M  V30 7193 H 672.069 1.04113 3.91079 0
M  V30 7194 H 670.639 0.346849 3.1067 0
M  V30 7195 H 669.859 2.80904 2.76563 0
M  V30 7196 H 671.147 3.28239 3.88763 0
M  V30 7197 H 670.545 0.616433 5.62331 0
M  V30 7198 H 669.102 1.09107 6.42603 0
M  V30 7199 N 672.536 -0.895792 1.29666 0
M  V30 7200 C 673.782 -1.64908 1.18039 0
M  V30 7201 C 674.115 -1.9236 -0.266682 0
M  V30 7202 O 673.39 -1.53682 -1.19214 0
M  V30 7203 C 673.673 -2.99574 1.99819 0
M  V30 7204 C 673.526 -2.79163 3.52687 0
M  V30 7205 C 674.845 -4.00358 1.82761 0
M  V30 7206 H 671.964 -0.598437 0.430165 0
M  V30 7207 H 674.606 -1.03736 1.59182 0
M  V30 7208 H 672.756 -3.51786 1.64859 0
M  V30 7209 H 674.428 -2.33821 3.9765 0
M  V30 7210 H 672.671 -2.13871 3.77414 0
M  V30 7211 H 673.342 -3.74871 4.05186 0
M  V30 7212 H 675.818 -3.57268 2.13304 0
M  V30 7213 H 674.694 -4.92514 2.42325 0
M  V30 7214 H 674.955 -4.35096 0.783839 0
M  V30 7215 N 674.014 -1.12206 -1.10668 0
M  V30 7216 C 675.242 -0.898635 -1.86366 0
M  V30 7217 C 675.657 0.551991 -1.80551 0
M  V30 7218 O 675.014 1.38152 -1.19249 0
M  V30 7219 C 675.065 -1.36199 -3.34861 0
M  V30 7220 O 674.786 -2.75576 -3.40573 0
M  V30 7221 C 676.287 -1.17515 -4.2744 0
M  V30 7222 H 673.507 -0.321281 -0.589084 0
M  V30 7223 H 676.051 -1.49142 -1.39918 0
M  V30 7224 H 674.206 -0.81249 -3.78784 0
M  V30 7225 H 674.62 -2.95851 -4.33096 0
M  V30 7226 H 676.094 -1.54827 -5.29842 0
M  V30 7227 H 676.571 -0.115486 -4.39048 0
M  V30 7228 H 677.177 -1.71203 -3.89319 0
M  V30 7229 N 675.492 1.28418 -0.913599 0
M  V30 7230 C 676.738 1.95627 -0.556933 0
M  V30 7231 C 677.093 1.706 0.889565 0
M  V30 7232 O 676.386 1.01637 1.6242 0
M  V30 7233 C 676.58 3.48283 -0.802099 0
M  V30 7234 C 676.409 3.88151 -2.27088 0
M  V30 7235 C 675.179 4.1232 -2.92096 0
M  V30 7236 C 677.377 3.98819 -3.24728 0
M  V30 7237 N 675.359 4.3886 -4.29272 0
M  V30 7238 C 676.73 4.29571 -4.47067 0
M  V30 7239 C 678.785 3.81342 -3.20129 0
M  V30 7240 C 677.488 4.44667 -5.65388 0
M  V30 7241 C 679.514 3.97656 -4.37749 0
M  V30 7242 C 678.876 4.2878 -5.58862 0
M  V30 7243 H 674.975 0.739715 -0.253664 0
M  V30 7244 H 677.559 1.55074 -1.1773 0
M  V30 7245 H 675.73 3.87826 -0.211007 0
M  V30 7246 H 677.462 4.02623 -0.409478 0
M  V30 7247 H 674.217 4.06611 -2.42826 0
M  V30 7248 H 674.641 4.56214 -5.00198 0
M  V30 7249 H 679.283 3.56331 -2.2757 0
M  V30 7250 H 677.001 4.68509 -6.58426 0
M  V30 7251 H 680.587 3.85569 -4.35692 0
M  V30 7252 H 679.467 4.41136 -6.48359 0
M  V30 7253 N 676.97 0.677563 1.42291 0
M  V30 7254 C 678.381 0.277912 1.8462 0
M  V30 7255 C 678.732 -1.18048 1.56714 0
M  V30 7256 O 677.857 -1.90404 1.02836 0
M  V30 7257 C 678.452 0.497619 3.35126 0
M  V30 7258 C 677.011 0.152063 3.76093 0
M  V30 7259 C 676.158 0.78872 2.65847 0
M  V30 7260 H 679.109 0.879527 1.32098 0
M  V30 7261 H 679.13 -0.24939 3.79682 0
M  V30 7262 H 678.642 1.55913 3.55405 0
M  V30 7263 H 676.743 -0.905896 3.6142 0
M  V30 7264 H 676.856 0.594514 4.75397 0
M  V30 7265 H 675.22 0.219813 2.5375 0
M  V30 7266 H 676.003 1.85374 2.88949 0
M  V30 7267 N 678.448 -1.51871 0.421078 0
M  V30 7268 C 679.725 -1.9447 -0.20993 0
M  V30 7269 C 680.105 -1.35875 -1.61558 0
M  V30 7270 O 679.453 -0.539294 -2.22045 0
M  V30 7271 C 679.663 -3.48402 -0.204165 0
M  V30 7272 C 681.011 -4.2254 -0.417696 0
M  V30 7273 O 682.035 -3.55074 -0.282999 0
M  V30 7274 O 680.894 -5.422 -0.684239 0
M  V30 7275 H 677.988 -0.815283 -0.138718 0
M  V30 7276 H 680.534 -1.62832 0.477884 0
M  V30 7277 H 679.306 -3.83464 0.779183 0
M  V30 7278 H 678.929 -3.86436 -0.935576 0
M  V30 7279 N 679.926 -0.151884 -1.56866 0
M  V30 7280 C 680.836 0.798876 -2.20579 0
M  V30 7281 C 681.852 1.268 -1.19154 0
M  V30 7282 O 683.028 1.32418 -1.51748 0
M  V30 7283 C 680.093 2.01861 -2.81874 0
M  V30 7284 C 679.154 1.59825 -3.9844 0
M  V30 7285 C 678.387 2.75984 -4.56802 0
M  V30 7286 O 678.61 3.92331 -4.14044 0
M  V30 7287 O 677.544 2.51175 -5.46987 0
M  V30 7288 H 681.37 0.2865 -3.02346 0
M  V30 7289 H 678.955 0.0753806 -1.4921 0
M  V30 7290 H 680.837 2.73235 -3.20813 0
M  V30 7291 H 679.512 2.52042 -2.03117 0
M  V30 7292 H 678.419 0.854601 -3.64208 0
M  V30 7293 H 679.752 1.14355 -4.78731 0
M  V30 7294 N 681.404 1.57128 0.121893 0
M  V30 7295 C 682.629 1.89254 0.848385 0
M  V30 7296 C 683.054 0.743527 1.72781 0
M  V30 7297 O 682.412 -0.306056 1.78698 0
M  V30 7298 C 682.46 3.20113 1.66012 0
M  V30 7299 O 681.564 3.05815 2.76679 0
M  V30 7300 H 680.905 0.621103 0.234793 0
M  V30 7301 H 683.435 2.0433 0.10516 0
M  V30 7302 H 683.445 3.52761 2.04996 0
M  V30 7303 H 682.12 4.03336 1.01452 0
M  V30 7304 H 680.697 2.84627 2.40918 0
M  V30 7305 N 682.882 -0.391992 1.52647 0
M  V30 7306 C 683.829 -1.47866 1.77213 0
M  V30 7307 C 684.799 -1.54286 0.615223 0
M  V30 7308 O 685.984 -1.7059 0.854622 0
M  V30 7309 C 683.124 -2.85129 1.94411 0
M  V30 7310 C 682.237 -2.87883 3.22098 0
M  V30 7311 C 681.372 -4.16553 3.29631 0
M  V30 7312 C 680.411 -4.13348 4.51453 0
M  V30 7313 N 679.548 -5.33619 4.56284 0
M  V30 7314 H 684.388 -1.26219 2.6995 0
M  V30 7315 H 681.925 -0.612367 1.33748 0
M  V30 7316 H 683.883 -3.64833 2.02367 0
M  V30 7317 H 682.513 -3.05232 1.05038 0
M  V30 7318 H 681.565 -2.00567 3.23229 0
M  V30 7319 H 682.877 -2.81382 4.11856 0
M  V30 7320 H 682.031 -5.0466 3.36753 0
M  V30 7321 H 680.77 -4.25773 2.37842 0
M  V30 7322 H 679.775 -3.23629 4.44459 0
M  V30 7323 H 681 -4.05754 5.44555 0
M  V30 7324 H 678.946 -5.43474 3.67385 0
M  V30 7325 H 678.863 -5.29182 5.3991 0
M  V30 7326 H 680.131 -6.23632 4.67657 0
M  V30 7327 N 684.36 -1.4356 -0.65026 0
M  V30 7328 C 685.323 -1.48615 -1.74489 0
M  V30 7329 C 686.323 -0.370483 -1.56474 0
M  V30 7330 O 687.513 -0.632351 -1.62317 0
M  V30 7331 C 684.645 -1.34161 -3.13391 0
M  V30 7332 H 685.838 -2.46103 -1.71387 0
M  V30 7333 H 683.391 -1.30369 -0.862186 0
M  V30 7334 H 684.126 -0.376918 -3.22102 0
M  V30 7335 H 683.911 -2.1504 -3.27872 0
M  V30 7336 H 685.401 -1.40637 -3.93206 0
M  V30 7337 N 685.838 0.888903 -1.30139 0
M  V30 7338 C 687.086 1.63713 -1.18501 0
M  V30 7339 C 687.407 1.9324 0.261399 0
M  V30 7340 O 686.677 1.56608 1.17689 0
M  V30 7341 H 685.257 0.606861 -0.435579 0
M  V30 7342 H 687.919 1.06525 -1.63213 0
M  V30 7343 H 687.015 2.58894 -1.743 0
M  V30 7344 N 687.317 1.12792 1.10072 0
M  V30 7345 C 688.565 0.883796 1.81751 0
M  V30 7346 C 688.886 -0.591891 1.858 0
M  V30 7347 O 688.156 -1.43017 1.33876 0
M  V30 7348 H 686.736 0.323978 0.673088 0
M  V30 7349 H 689.398 1.42314 1.33164 0
M  V30 7350 H 688.494 1.26863 2.85153 0
M  V30 7351 N 688.795 -1.27931 0.920396 0
M  V30 7352 C 690.02 -1.99343 0.572478 0
M  V30 7353 C 690.445 -1.68267 -0.840696 0
M  V30 7354 O 689.803 -0.918805 -1.56294 0
M  V30 7355 C 689.851 -3.51698 0.796284 0
M  V30 7356 O 688.955 -4.12157 -0.141602 0
M  V30 7357 H 688.296 -0.626065 0.221221 0
M  V30 7358 H 690.826 -1.62921 1.23765 0
M  V30 7359 H 690.836 -4.01793 0.708984 0
M  V30 7360 H 689.511 -3.73649 1.82644 0
M  V30 7361 H 688.088 -3.729 -0.005007 0
M  V30 7362 N 690.273 -0.685099 -1.4193 0
M  V30 7363 C 691.519 -0.220688 -2.02199 0
M  V30 7364 C 691.874 1.16329 -1.5325 0
M  V30 7365 O 691.167 1.77175 -0.729345 0
M  V30 7366 C 691.361 -0.206154 -3.56805 0
M  V30 7367 C 691.19 -1.58718 -4.2076 0
M  V30 7368 C 689.96 -2.18747 -4.55497 0
M  V30 7369 C 692.158 -2.53182 -4.47664 0
M  V30 7370 N 690.14 -3.49523 -5.04685 0
M  V30 7371 C 691.511 -3.68625 -4.98514 0
M  V30 7372 C 693.566 -2.51582 -4.29664 0
M  V30 7373 C 692.269 -4.82734 -5.33255 0
M  V30 7374 C 694.295 -3.64795 -4.65487 0
M  V30 7375 C 693.657 -4.78967 -5.16498 0
M  V30 7376 H 689.756 -0.12591 -0.771797 0
M  V30 7377 H 692.34 -0.900316 -1.72634 0
M  V30 7378 H 690.511 0.442923 -3.85866 0
M  V30 7379 H 692.243 0.272103 -4.03784 0
M  V30 7380 H 688.998 -1.71135 -4.41599 0
M  V30 7381 H 689.422 -4.1653 -5.33696 0
M  V30 7382 H 694.064 -1.64535 -3.89472 0
M  V30 7383 H 691.782 -5.7045 -5.72375 0
M  V30 7384 H 695.368 -3.64796 -4.53227 0
M  V30 7385 H 694.248 -5.6512 -5.437 0
M  V30 7386 N 691.751 1.51645 -0.429126 0
M  V30 7387 C 693.028 1.94579 0.199614 0
M  V30 7388 C 693.408 1.3673 1.60836 0
M  V30 7389 O 692.756 0.551062 2.21756 0
M  V30 7390 C 692.966 3.48506 0.185685 0
M  V30 7391 C 694.314 4.22756 0.395282 0
M  V30 7392 O 695.338 3.55219 0.264165 0
M  V30 7393 O 694.197 5.42555 0.655475 0
M  V30 7394 H 691.291 0.816007 0.134393 0
M  V30 7395 H 693.837 1.62577 -0.486513 0
M  V30 7396 H 692.609 3.83045 -0.799508 0
M  V30 7397 H 692.232 3.86927 0.91507 0
M  V30 7398 N 693.229 0.160201 1.56784 0
M  V30 7399 C 694.159 -0.770264 2.2043 0
M  V30 7400 C 695.14 -1.24736 1.15651 0
M  V30 7401 O 696.325 -1.30253 1.44041 0
M  V30 7402 C 693.455 -2.00427 2.83631 0
M  V30 7403 C 692.409 -1.66345 3.94352 0
M  V30 7404 C 691.735 -2.97119 4.4455 0
M  V30 7405 C 693.035 -0.899972 5.14488 0
M  V30 7406 H 694.729 -0.239783 2.98438 0
M  V30 7407 H 692.275 -0.113891 1.43549 0
M  V30 7408 H 694.228 -2.66012 3.26827 0
M  V30 7409 H 692.952 -2.5587 2.02973 0
M  V30 7410 H 691.611 -1.03133 3.51794 0
M  V30 7411 H 691.259 -3.5058 3.60698 0
M  V30 7412 H 690.959 -2.75073 5.19238 0
M  V30 7413 H 692.483 -3.63753 4.90425 0
M  V30 7414 H 693.897 -1.45818 5.54446 0
M  V30 7415 H 692.294 -0.778968 5.95023 0
M  V30 7416 H 693.364 0.105827 4.84785 0
M  V30 7417 N 694.707 -1.5719 -0.113559 0
M  V30 7418 C 695.67 -1.99796 -1.12314 0
M  V30 7419 C 696.67 -0.888847 -1.34001 0
M  V30 7420 O 697.86 -1.15476 -1.30426 0
M  V30 7421 C 694.992 -2.34279 -2.47641 0
M  V30 7422 H 696.185 -2.90193 -0.756825 0
M  V30 7423 H 693.738 -1.52144 -0.358029 0
M  V30 7424 H 694.473 -1.46778 -2.89183 0
M  V30 7425 H 694.258 -3.15175 -2.33253 0
M  V30 7426 H 695.748 -2.67963 -3.2029 0
M  V30 7427 N 696.185 0.383891 -1.52853 0
M  V30 7428 C 697.431 1.13009 -1.68395 0
M  V30 7429 C 697.764 1.89488 -0.425195 0
M  V30 7430 O 697.039 1.8574 0.577136 0
M  V30 7431 C 697.322 2.10419 -2.92226 0
M  V30 7432 C 697.175 1.3767 -4.28214 0
M  V30 7433 C 698.494 3.10781 -3.11614 0
M  V30 7434 H 695.613 0.409463 -0.612788 0
M  V30 7435 H 698.255 0.412895 -1.85459 0
M  V30 7436 H 696.405 2.71579 -2.77808 0
M  V30 7437 H 698.077 0.794352 -4.54409 0
M  V30 7438 H 696.32 0.678533 -4.2846 0
M  V30 7439 H 696.991 2.08874 -5.10956 0
M  V30 7440 H 699.467 2.59715 -3.25096 0
M  V30 7441 H 698.343 3.76179 -3.99725 0
M  V30 7442 H 698.604 3.79933 -2.2606 0
M  V30 7443 N 697.663 1.43903 0.642637 0
M  V30 7444 C 698.595 1.45857 1.768 0
M  V30 7445 C 699.608 0.353358 1.58919 0
M  V30 7446 O 700.797 0.618426 1.67445 0
M  V30 7447 C 697.897 1.26583 3.14372 0
M  V30 7448 C 697.07 2.50139 3.58817 0
M  V30 7449 C 696.129 2.25933 4.75227 0
M  V30 7450 O 695.155 2.99351 4.84125 0
M  V30 7451 N 696.357 1.28263 5.66153 0
M  V30 7452 H 699.122 2.42869 1.75598 0
M  V30 7453 H 696.683 1.39194 0.826832 0
M  V30 7454 H 698.675 1.08255 3.89953 0
M  V30 7455 H 697.245 0.37978 3.10284 0
M  V30 7456 H 696.465 2.83821 2.73568 0
M  V30 7457 H 697.753 3.32344 3.8526 0
M  V30 7458 H 697.151 0.676041 5.61646 0
M  V30 7459 H 695.708 1.15916 6.4141 0
M  V30 7460 N 699.141 -0.881989 1.30609 0
M  V30 7461 C 700.051 -2.02076 1.19174 0
M  V30 7462 C 701.067 -1.73645 0.11102 0
M  V30 7463 O 702.243 -1.98735 0.326528 0
M  V30 7464 C 699.308 -3.3515 0.887438 0
M  V30 7465 C 698.369 -3.76983 2.05383 0
M  V30 7466 C 697.602 -5.03707 1.76395 0
M  V30 7467 O 697.825 -5.66171 0.693302 0
M  V30 7468 O 696.759 -5.42019 2.61723 0
M  V30 7469 H 700.585 -2.14652 2.14845 0
M  V30 7470 H 698.17 -1.00843 1.10232 0
M  V30 7471 H 700.052 -4.14975 0.73306 0
M  V30 7472 H 698.727 -3.23676 -0.0393354 0
M  V30 7473 H 697.634 -2.97849 2.26355 0
M  V30 7474 H 698.967 -3.93066 2.96243 0
M  V30 7475 N 700.619 -1.13374 -1.09472 0
M  V30 7476 C 702.035 -0.871846 -1.33682 0
M  V30 7477 C 702.235 0.492847 -1.9538 0
M  V30 7478 O 701.291 1.23946 -2.19985 0
M  V30 7479 C 702.604 -1.99608 -2.24893 0
M  V30 7480 C 704.152 -2.02812 -2.38404 0
M  V30 7481 C 704.627 -3.14497 -3.3295 0
M  V30 7482 N 706.118 -3.14004 -3.40523 0
M  V30 7483 C 706.853 -3.97061 -4.13679 0
M  V30 7484 N 706.349 -4.90131 -4.89636 0
M  V30 7485 N 708.142 -3.85162 -4.09398 0
M  V30 7486 H 700.293 -2.01288 -0.677995 0
M  V30 7487 H 702.556 -0.876492 -0.361201 0
M  V30 7488 H 702.262 -2.98 -1.86786 0
M  V30 7489 H 702.136 -1.90981 -3.25278 0
M  V30 7490 H 704.523 -1.05034 -2.75775 0
M  V30 7491 H 704.604 -2.15511 -1.37799 0
M  V30 7492 H 704.248 -4.12514 -2.96302 0
M  V30 7493 H 704.178 -2.99035 -4.33458 0
M  V30 7494 H 706.669 -2.46587 -2.86362 0
M  V30 7495 H 706.982 -5.49996 -5.42885 0
M  V30 7496 H 705.327 -4.94138 -4.88726 0
M  V30 7497 H 708.518 -3.11779 -3.49158 0
M  V30 7498 H 708.691 -4.5012 -4.6615 0
M  V30 7499 N 702.098 1.27442 -0.927168 0
M  V30 7500 C 703.061 2.2512 -0.430525 0
M  V30 7501 C 704.061 1.54357 0.450619 0
M  V30 7502 O 705.251 1.72371 0.251774 0
M  V30 7503 C 702.383 3.38763 0.381144 0
M  V30 7504 H 703.576 2.70569 -1.29354 0
M  V30 7505 H 701.129 1.39355 -0.707806 0
M  V30 7506 H 701.864 2.98695 1.263 0
M  V30 7507 H 701.649 3.91298 -0.250618 0
M  V30 7508 H 703.139 4.11364 0.719012 0
M  V30 7509 N 703.576 0.692616 1.41565 0
M  V30 7510 C 704.539 0.0344174 2.29174 0
M  V30 7511 C 705.539 -0.710961 1.44229 0
M  V30 7512 O 706.729 -0.546293 1.65412 0
M  V30 7513 C 703.861 -0.961682 3.27054 0
M  V30 7514 H 705.054 0.805755 2.88873 0
M  V30 7515 H 702.607 0.455947 1.49502 0
M  V30 7516 H 703.342 -1.76089 2.72329 0
M  V30 7517 H 703.127 -0.430375 3.89731 0
M  V30 7518 H 704.617 -1.4201 3.92712 0
M  V30 7519 N 705.054 -1.51416 0.437162 0
M  V30 7520 C 706.47 -1.59349 0.0894459 0
M  V30 7521 C 706.67 -1.44809 -1.40116 0
M  V30 7522 O 705.726 -1.28924 -2.17106 0
M  V30 7523 C 707.039 -2.9446 0.609398 0
M  V30 7524 C 708.587 -3.07769 0.569824 0
M  V30 7525 C 709.062 -4.45404 1.06675 0
M  V30 7526 N 710.553 -4.51723 1.02473 0
M  V30 7527 C 711.288 -5.56544 1.3801 0
M  V30 7528 N 710.784 -6.68784 1.80831 0
M  V30 7529 N 712.577 -5.46901 1.29828 0
M  V30 7530 H 704.728 -1.59112 1.40703 0
M  V30 7531 H 706.991 -0.750031 0.579791 0
M  V30 7532 H 706.697 -3.1047 1.65231 0
M  V30 7533 H 706.571 -3.77184 0.0342236 0
M  V30 7534 H 708.958 -2.91428 -0.464107 0
M  V30 7535 H 709.039 -2.26885 1.1814 0
M  V30 7536 H 708.683 -4.62492 2.09914 0
M  V30 7537 H 708.613 -5.24827 0.431712 0
M  V30 7538 H 711.104 -3.71165 0.710258 0
M  V30 7539 H 711.417 -7.44787 2.06185 0
M  V30 7540 H 709.762 -6.69992 1.84757 0
M  V30 7541 H 712.953 -4.581 0.962397 0
M  V30 7542 H 713.126 -6.2848 1.57851 0
M  V30 7543 N 706.532 -0.168513 -1.56696 0
M  V30 7544 C 707.757 0.486688 -2.01609 0
M  V30 7545 C 708.182 1.56203 -1.04796 0
M  V30 7546 O 707.54 1.8128 -0.0270596 0
M  V30 7547 C 707.588 1.04451 -3.45141 0
M  V30 7548 O 706.692 2.15862 -3.51393 0
M  V30 7549 H 706.033 0.116831 -0.653641 0
M  V30 7550 H 708.563 -0.271579 -2.0279 0
M  V30 7551 H 708.573 1.36782 -3.84389 0
M  V30 7552 H 707.248 0.257155 -4.15104 0
M  V30 7553 H 705.825 1.84597 -3.24004 0
M  V30 7554 N 708.01 1.57248 0.105221 0
M  V30 7555 C 708.942 1.98008 1.15436 0
M  V30 7556 C 709.955 0.881236 1.36887 0
M  V30 7557 O 711.144 1.15943 1.35718 0
M  V30 7558 C 708.244 2.27509 2.51183 0
M  V30 7559 C 707.417 3.58811 2.50147 0
M  V30 7560 C 706.476 3.76365 3.67745 0
M  V30 7561 O 705.502 4.48329 3.50699 0
M  V30 7562 N 706.704 3.16174 4.86841 0
M  V30 7563 H 709.469 2.88616 0.807519 0
M  V30 7564 H 707.03 1.59202 0.29433 0
M  V30 7565 H 709.022 2.36455 3.28438 0
M  V30 7566 H 707.592 1.42959 2.77995 0
M  V30 7567 H 706.812 3.60927 1.5851 0
M  V30 7568 H 708.1 4.45088 2.46524 0
M  V30 7569 H 707.498 2.57701 5.03594 0
M  V30 7570 H 706.055 3.30621 5.61723 0
M  V30 7571 N 709.488 -0.375779 1.53054 0
M  V30 7572 C 710.728 -1.12828 1.70438 0
M  V30 7573 C 711.092 -1.86854 0.441527 0
M  V30 7574 O 712.293 -2.64261 0.491908 0
M  V30 7575 C 710.564 -2.07009 2.91345 0
M  V30 7576 S 712.123 -2.89917 3.29383 0
M  V30 7577 H 708.941 -0.381736 0.599832 0
M  V30 7578 H 711.543 -0.4109 1.91133 0
M  V30 7579 H 710.247 -1.51371 3.81464 0
M  V30 7580 H 709.778 -2.83236 2.73022 0
M  V30 7581 H 711.793 -4.0924 2.80601 0
M  V30 7582 N 710.966 -1.44241 -0.634997 0
M  V30 7583 C 712.194 -1.50296 -1.42193 0
M  V30 7584 C 712.609 -0.12658 -1.88375 0
M  V30 7585 O 711.966 0.86678 -1.60603 0
M  V30 7586 C 712.017 -2.46437 -2.64482 0
M  V30 7587 O 711.738 -3.78724 -2.20226 0
M  V30 7588 C 713.239 -2.61918 -3.57651 0
M  V30 7589 H 710.459 -0.509865 -0.43621 0
M  V30 7590 H 713.003 -1.89167 -0.776921 0
M  V30 7591 H 711.158 -2.10712 -3.25083 0
M  V30 7592 H 711.572 -4.30595 -2.9948 0
M  V30 7593 H 713.046 -3.33225 -4.40074 0
M  V30 7594 H 713.523 -1.67017 -4.06204 0
M  V30 7595 H 714.129 -2.98528 -3.02921 0
M  V30 7596 N 712.444 0.87505 -1.31075 0
M  V30 7597 C 713.674 1.65818 -1.2324 0
M  V30 7598 C 714.082 1.8808 0.205536 0
M  V30 7599 O 713.425 1.43548 1.14628 0
M  V30 7600 C 713.487 3.05131 -1.90093 0
M  V30 7601 C 713.151 3.05999 -3.39432 0
M  V30 7602 C 714.148 2.84328 -4.35263 0
M  V30 7603 C 711.833 3.27281 -3.81041 0
M  V30 7604 C 713.827 2.83912 -5.70678 0
M  V30 7605 C 711.514 3.26493 -5.16571 0
M  V30 7606 C 712.512 3.04834 -6.112 0
M  V30 7607 O 712.2 3.03882 -7.44252 0
M  V30 7608 H 711.932 0.52387 -0.427242 0
M  V30 7609 H 714.486 1.10086 -1.73408 0
M  V30 7610 H 712.716 3.62568 -1.34468 0
M  V30 7611 H 714.405 3.65641 -1.76242 0
M  V30 7612 H 715.171 2.67673 -4.04445 0
M  V30 7613 H 711.05 3.43171 -3.07822 0
M  V30 7614 H 714.594 2.66925 -6.44513 0
M  V30 7615 H 710.491 3.42687 -5.47025 0
M  V30 7616 H 711.259 3.19979 -7.53363 0
M  V30 7617 N 713.922 1.13953 1.08869 0
M  V30 7618 C 715.147 0.928559 1.85452 0
M  V30 7619 C 715.572 -0.517642 1.80837 0
M  V30 7620 O 714.93 -1.36779 1.19001 0
M  V30 7621 C 714.978 1.42814 3.31114 0
M  V30 7622 O 714.082 0.617129 4.07756 0
M  V30 7623 H 713.423 0.33235 0.574839 0
M  V30 7624 H 715.953 1.5156 1.37443 0
M  V30 7625 H 715.963 1.43425 3.8196 0
M  V30 7626 H 714.638 2.48109 3.33788 0
M  V30 7627 H 713.215 0.679365 3.66659 0
M  V30 7628 N 715.4 -1.26948 0.933913 0
M  V30 7629 C 716.348 -2.2862 0.428463 0
M  V30 7630 C 717.342 -1.62144 -0.490464 0
M  V30 7631 O 718.548 -1.76167 -0.36948 0
M  V30 7632 H 714.923 -0.742363 0.120003 0
M  V30 7633 H 716.894 -2.68659 1.29865 0
M  V30 7634 C 715.643 -3.46423 -0.29774 0
M  V30 7635 H 714.966 -3.97792 0.400183 0
M  V30 7636 H 716.406 -4.19505 -0.615736 0
M  V30 7637 C 714.865 -3.01017 -1.51295 0
M  V30 7638 O 715.395 -3.05226 -2.61151 0
M  V30 7639 N 713.601 -2.56442 -1.36696 0
M  V30 7640 H 713.148 -2.53217 -0.473178 0
M  V30 7641 H 713.106 -2.26424 -2.18127 0
M  V30 7642 N 716.879 -0.700114 -1.41195 0
M  V30 7643 C 718.29 -0.307249 -1.84154 0
M  V30 7644 C 718.641 1.15539 -1.58572 0
M  V30 7645 O 717.766 1.88744 -1.05852 0
M  V30 7646 C 718.361 -0.550872 -3.34292 0
M  V30 7647 C 716.92 -0.211877 -3.75803 0
M  V30 7648 C 716.067 -0.830915 -2.64558 0
M  V30 7649 H 719.018 -0.900431 -1.30683 0
M  V30 7650 H 719.039 0.188954 -3.80031 0
M  V30 7651 H 718.551 -1.61548 -3.5288 0
M  V30 7652 H 716.652 0.848283 -3.62815 0
M  V30 7653 H 716.765 -0.67007 -4.74391 0
M  V30 7654 H 715.129 -0.260155 -2.53368 0
M  V30 7655 H 715.912 -1.89948 -2.85963 0
M  V30 7656 N 718.357 1.51182 -0.445186 0
M  V30 7657 C 719.267 2.31692 0.368255 0
M  V30 7658 C 720.283 1.40942 1.02036 0
M  V30 7659 O 721.459 1.74011 1.01401 0
M  V30 7660 C 718.524 3.14903 1.45041 0
M  V30 7661 C 717.585 4.21442 0.817615 0
M  V30 7662 C 716.818 5.00677 1.8482 0
M  V30 7663 O 717.041 4.80644 3.07145 0
M  V30 7664 O 715.975 5.84559 1.43438 0
M  V30 7665 H 719.801 3.0232 -0.289219 0
M  V30 7666 H 717.386 1.47951 -0.207555 0
M  V30 7667 H 719.268 3.66612 2.07783 0
M  V30 7668 H 717.943 2.47031 2.09182 0
M  V30 7669 H 716.85 3.73791 0.151931 0
M  V30 7670 H 718.183 4.9171 0.219564 0
M  V30 7671 N 719.835 0.176821 1.56605 0
M  V30 7672 C 721.083 -0.465793 1.96659 0
M  V30 7673 C 721.404 -1.63406 1.06412 0
M  V30 7674 O 720.674 -1.95457 0.131603 0
M  V30 7675 H 719.254 -0.175072 0.726195 0
M  V30 7676 H 721.916 0.25929 1.93168 0
M  V30 7677 H 721.012 -0.822138 3.01077 0
M  V30 7678 N 721.313 -1.57302 -0.09688 0
M  V30 7679 C 722.541 -1.90202 -0.814295 0
M  V30 7680 C 722.956 -0.770344 -1.72369 0
M  V30 7681 O 722.313 0.257764 -1.8067 0
M  V30 7682 C 722.364 -3.22708 -1.62916 0
M  V30 7683 O 722.085 -4.31522 -0.756343 0
M  V30 7684 C 723.586 -3.69459 -2.44979 0
M  V30 7685 H 720.806 -0.629275 -0.232925 0
M  V30 7686 H 723.35 -2.04364 -0.0746482 0
M  V30 7687 H 721.505 -3.1015 -2.32133 0
M  V30 7688 H 721.919 -5.07604 -1.32054 0
M  V30 7689 H 723.393 -4.64875 -2.9765 0
M  V30 7690 H 723.87 -2.97211 -3.23361 0
M  V30 7691 H 724.476 -3.84879 -1.80964 0
M  V30 7692 N 722.791 0.367657 -1.53252 0
M  V30 7693 C 724.037 1.11216 -1.69584 0
M  V30 7694 C 724.37 1.89026 -0.445269 0
M  V30 7695 O 723.645 1.86342 0.557404 0
M  V30 7696 C 723.928 2.07308 -2.94441 0
M  V30 7697 C 723.781 1.3312 -4.2965 0
M  V30 7698 C 725.1 3.07459 -3.14892 0
M  V30 7699 H 722.219 0.40294 -0.617096 0
M  V30 7700 H 724.861 0.393201 -1.85887 0
M  V30 7701 H 723.011 2.68617 -2.80673 0
M  V30 7702 H 724.683 0.746111 -4.55226 0
M  V30 7703 H 722.926 0.633051 -4.29156 0
M  V30 7704 H 723.597 2.03443 -5.13142 0
M  V30 7705 H 726.073 2.56252 -3.27832 0
M  V30 7706 H 724.949 3.71919 -4.03693 0
M  V30 7707 H 725.21 3.77514 -2.30077 0
M  V30 7708 N 724.269 1.44576 0.627338 0
M  V30 7709 C 725.515 1.47777 1.38888 0
M  V30 7710 C 725.848 0.111406 1.9388 0
M  V30 7711 O 725.123 -0.87149 1.73883 0
M  V30 7712 C 725.406 2.54119 2.55138 0
M  V30 7713 C 725.259 4.00128 2.0547 0
M  V30 7714 C 726.578 2.56929 3.57317 0
M  V30 7715 H 723.697 0.538048 0.50366 0
M  V30 7716 H 726.339 1.76277 0.708978 0
M  V30 7717 H 724.489 2.29948 3.13139 0
M  V30 7718 H 726.161 4.35444 1.5227 0
M  V30 7719 H 724.404 4.11724 1.36623 0
M  V30 7720 H 725.075 4.7019 2.89181 0
M  V30 7721 H 727.551 2.78536 3.09122 0
M  V30 7722 H 726.427 3.33234 4.36173 0
M  V30 7723 H 726.688 1.6127 4.11636 0
M  V30 7724 N 725.747 -0.868086 1.31537 0
M  V30 7725 C 726.677 -1.99131 1.21939 0
M  V30 7726 C 727.658 -1.69768 0.106166 0
M  V30 7727 O 728.843 -1.92006 0.291081 0
M  V30 7728 C 725.973 -3.34676 0.927879 0
M  V30 7729 C 724.927 -3.7835 2.00088 0
M  V30 7730 C 724.253 -5.11375 1.56203 0
M  V30 7731 C 725.553 -3.95256 3.41424 0
M  V30 7732 H 727.247 -2.07419 2.15911 0
M  V30 7733 H 724.793 -0.996569 1.03945 0
M  V30 7734 H 726.746 -4.12793 0.847327 0
M  V30 7735 H 725.47 -3.26565 -0.0475042 0
M  V30 7736 H 724.129 -3.02474 2.07135 0
M  V30 7737 H 723.777 -4.99709 0.57445 0
M  V30 7738 H 723.477 -5.41568 2.27985 0
M  V30 7739 H 725.001 -5.92001 1.49558 0
M  V30 7740 H 726.415 -4.63764 3.3704 0
M  V30 7741 H 724.812 -4.36849 4.1144 0
M  V30 7742 H 725.882 -2.98579 3.82072 0
M  V30 7743 N 727.225 -1.14528 -1.08264 0
M  V30 7744 C 728.188 -0.83632 -2.13397 0
M  V30 7745 C 729.188 0.159715 -1.60005 0
M  V30 7746 O 730.378 -0.0688098 -1.74064 0
M  V30 7747 C 727.51 -0.246973 -3.40004 0
M  V30 7748 H 728.703 -1.76808 -2.42237 0
M  V30 7749 H 726.256 -0.951509 -1.24 0
M  V30 7750 H 726.991 0.693436 -3.168 0
M  V30 7751 H 726.776 -0.964412 -3.80055 0
M  V30 7752 H 728.266 -0.0480679 -4.17572 0
M  V30 7753 N 728.703 1.26451 -0.940633 0
M  V30 7754 C 729.943 1.95537 -0.595381 0
M  V30 7755 C 730.307 1.72175 0.849683 0
M  V30 7756 O 731.508 2.3506 1.30384 0
M  V30 7757 C 729.779 3.45151 -0.927669 0
M  V30 7758 S 731.338 4.33295 -0.69288 0
M  V30 7759 H 728.156 0.676331 -0.219311 0
M  V30 7760 H 730.758 1.53411 -1.21183 0
M  V30 7761 H 729.462 3.59654 -1.9768 0
M  V30 7762 H 728.993 3.92247 -0.300921 0
M  V30 7763 H 731.008 4.94217 0.443175 0
M  V30 7764 N 730.181 0.707592 1.40822 0
M  V30 7765 C 731.458 0.171172 1.9485 0
M  V30 7766 C 731.838 -1.32143 1.64625 0
M  V30 7767 O 731.186 -2.07372 0.959647 0
M  V30 7768 C 731.396 0.475334 3.45748 0
M  V30 7769 C 732.744 0.409625 4.22619 0
M  V30 7770 O 733.768 0.410934 3.53822 0
M  V30 7771 O 732.627 0.380185 5.45176 0
M  V30 7772 H 729.721 0.022015 0.826707 0
M  V30 7773 H 732.267 0.784577 1.50474 0
M  V30 7774 H 731.039 1.50801 3.61075 0
M  V30 7775 H 730.662 -0.168439 3.97243 0
M  V30 7776 N 731.66 -1.50943 0.453197 0
M  V30 7777 C 732.592 -2.25922 -0.38623 0
M  V30 7778 C 733.605 -1.3055 -0.972652 0
M  V30 7779 O 734.794 -1.56191 -0.864097 0
M  V30 7780 C 731.894 -3.01176 -1.5539 0
M  V30 7781 C 731.067 -4.23768 -1.0835 0
M  V30 7782 C 730.126 -4.81466 -2.12313 0
M  V30 7783 O 729.152 -5.42875 -1.71101 0
M  V30 7784 N 730.354 -4.66889 -3.44956 0
M  V30 7785 H 733.119 -2.98601 0.256468 0
M  V30 7786 H 730.68 -1.59408 0.282965 0
M  V30 7787 H 732.672 -3.36659 -2.24594 0
M  V30 7788 H 731.242 -2.31409 -2.10163 0
M  V30 7789 H 730.462 -3.93597 -0.217961 0
M  V30 7790 H 731.75 -5.03289 -0.746857 0
M  V30 7791 H 731.148 -4.18011 -3.81161 0
M  V30 7792 H 729.705 -5.06691 -4.1001 0
M  V30 7793 N 733.138 -0.185124 -1.56509 0
M  V30 7794 C 734.101 0.72591 -2.17401 0
M  V30 7795 C 735.101 1.14819 -1.12575 0
M  V30 7796 O 736.291 1.0629 -1.38015 0
M  V30 7797 C 733.423 1.98979 -2.76803 0
M  V30 7798 H 734.616 0.195588 -2.99262 0
M  V30 7799 H 732.169 0.0644772 -1.56167 0
M  V30 7800 H 732.904 2.56287 -1.98714 0
M  V30 7801 H 732.689 1.69583 -3.53531 0
M  V30 7802 H 734.179 2.63966 -3.23592 0
M  V30 7803 N 734.616 1.57351 0.0885366 0
M  V30 7804 C 735.548 1.99221 1.13329 0
M  V30 7805 C 736.561 0.895705 1.35945 0
M  V30 7806 O 737.75 1.17376 1.34481 0
M  V30 7807 C 734.85 2.3016 2.48756 0
M  V30 7808 C 734.023 3.61444 2.46327 0
M  V30 7809 C 733.082 3.80244 3.63732 0
M  V30 7810 O 732.108 4.52024 3.45924 0
M  V30 7811 N 733.31 3.2132 4.8346 0
M  V30 7812 H 736.075 2.89456 0.776862 0
M  V30 7813 H 733.636 1.59505 0.277428 0
M  V30 7814 H 735.628 2.39925 3.25911 0
M  V30 7815 H 734.198 1.459 2.76464 0
M  V30 7816 H 733.418 3.62588 1.54673 0
M  V30 7817 H 734.706 4.47678 2.41789 0
M  V30 7818 H 734.104 2.63028 5.00832 0
M  V30 7819 H 732.661 3.3656 5.58185 0
M  V30 7820 N 736.094 -0.359525 1.53444 0
M  V30 7821 C 737.334 -1.11014 1.71625 0
M  V30 7822 C 737.698 -1.86376 0.46132 0
M  V30 7823 O 738.899 -2.63724 0.519908 0
M  V30 7824 C 737.17 -2.03907 2.93524 0
M  V30 7825 S 738.729 -2.86408 3.3244 0
M  V30 7826 H 735.547 -0.375352 0.603847 0
M  V30 7827 H 738.149 -0.390604 1.91558 0
M  V30 7828 H 736.853 -1.47316 3.83048 0
M  V30 7829 H 736.384 -2.80324 2.76011 0
M  V30 7830 H 738.399 -4.06241 2.84926 0
M  V30 7831 N 737.572 -1.44907 -0.619662 0
M  V30 7832 C 738.988 -1.29046 -0.939107 0
M  V30 7833 C 739.188 -0.23462 -2.00129 0
M  V30 7834 O 738.244 0.37558 -2.49691 0
M  V30 7835 C 739.557 -2.66567 -1.39149 0
M  V30 7836 C 741.105 -2.74368 -1.50635 0
M  V30 7837 C 741.58 -4.12386 -1.99253 0
M  V30 7838 N 743.071 -4.1462 -2.06506 0
M  V30 7839 C 743.806 -5.18272 -2.4532 0
M  V30 7840 N 743.302 -6.32278 -2.83189 0
M  V30 7841 N 745.095 -5.05628 -2.45554 0
M  V30 7842 H 737.246 -2.12239 0.0826135 0
M  V30 7843 H 739.509 -0.947652 -0.0256829 0
M  V30 7844 H 739.215 -3.4496 -0.685254 0
M  V30 7845 H 739.089 -2.94224 -2.36034 0
M  V30 7846 H 741.476 -1.96287 -2.20353 0
M  V30 7847 H 741.557 -2.50439 -0.520963 0
M  V30 7848 H 741.201 -4.90947 -1.30127 0
M  V30 7849 H 741.131 -4.33699 -2.98684 0
M  V30 7850 H 743.622 -3.32343 -1.79878 0
M  V30 7851 H 743.935 -7.07172 -3.11652 0
M  V30 7852 H 742.28 -6.35699 -2.80913 0
M  V30 7853 H 745.471 -4.15613 -2.15367 0
M  V30 7854 H 745.644 -5.86529 -2.75478 0
M  V30 7855 N 739.05 0.861098 -1.31996 0
M  V30 7856 C 740.296 1.61707 -1.23379 0
M  V30 7857 C 740.651 1.91315 0.204026 0
M  V30 7858 O 739.944 1.53997 1.13998 0
M  V30 7859 C 740.138 2.94822 -2.02027 0
M  V30 7860 C 739.967 2.78212 -3.5331 0
M  V30 7861 C 738.737 2.76933 -4.22654 0
M  V30 7862 C 740.935 2.52432 -4.48088 0
M  V30 7863 N 738.917 2.51466 -5.60034 0
M  V30 7864 C 740.288 2.36312 -5.73198 0
M  V30 7865 C 742.343 2.37848 -4.37416 0
M  V30 7866 C 741.046 2.0709 -6.88844 0
M  V30 7867 C 743.072 2.10016 -5.52854 0
M  V30 7868 C 742.434 1.94691 -6.7696 0
M  V30 7869 H 738.533 0.595703 -0.506618 0
M  V30 7870 H 741.117 1.01275 -1.66287 0
M  V30 7871 H 739.288 3.53243 -1.61474 0
M  V30 7872 H 741.02 3.59756 -1.85358 0
M  V30 7873 H 737.775 2.89638 -3.74709 0
M  V30 7874 H 738.199 2.41679 -6.32392 0
M  V30 7875 H 742.841 2.4842 -3.42122 0
M  V30 7876 H 740.559 1.95256 -7.84156 0
M  V30 7877 H 744.145 1.99519 -5.46519 0
M  V30 7878 H 743.025 1.7346 -7.64775 0
M  V30 7879 N 740.528 1.15101 1.07655 0
M  V30 7880 C 741.458 0.867864 2.16773 0
M  V30 7881 C 742.439 -0.180283 1.69142 0
M  V30 7882 O 743.624 -0.0353152 1.94168 0
M  V30 7883 C 740.754 0.35299 3.45501 0
M  V30 7884 C 739.708 1.33746 4.06566 0
M  V30 7885 C 739.034 0.681562 5.30338 0
M  V30 7886 C 740.334 2.7024 4.46954 0
M  V30 7887 H 742.028 1.78034 2.40716 0
M  V30 7888 H 739.574 0.857435 1.15689 0
M  V30 7889 H 741.527 0.142465 4.21159 0
M  V30 7890 H 740.251 -0.594945 3.21135 0
M  V30 7891 H 738.91 1.53429 3.32949 0
M  V30 7892 H 738.558 -0.272422 5.02262 0
M  V30 7893 H 738.258 1.33853 5.72151 0
M  V30 7894 H 739.782 0.48074 6.08705 0
M  V30 7895 H 741.196 2.5442 5.13754 0
M  V30 7896 H 739.593 3.32282 4.99709 0
M  V30 7897 H 740.663 3.26537 3.58471 0
M  V30 7898 N 742.006 -1.2595 0.947325 0
M  V30 7899 C 742.954 -2.28152 0.452687 0
M  V30 7900 C 743.948 -1.62655 -0.473239 0
M  V30 7901 O 745.154 -1.76549 -0.350774 0
M  V30 7902 H 741.529 -0.741049 0.12787 0
M  V30 7903 H 743.5 -2.67267 1.32707 0
M  V30 7904 C 742.249 -3.46719 -0.26098 0
M  V30 7905 H 741.572 -3.97345 0.442352 0
M  V30 7906 H 743.012 -4.20135 -0.571208 0
M  V30 7907 C 741.471 -3.02605 -1.48094 0
M  V30 7908 O 742.001 -3.07979 -2.57899 0
M  V30 7909 N 740.207 -2.57877 -1.33969 0
M  V30 7910 H 739.754 -2.53704 -0.446295 0
M  V30 7911 H 739.712 -2.28725 -2.15713 0
M  V30 7912 N 743.484 -0.715051 -1.40445 0
M  V30 7913 C 744.73 -0.254705 -2.01194 0
M  V30 7914 C 745.063 1.14894 -1.56567 0
M  V30 7915 O 744.338 1.77933 -0.785491 0
M  V30 7916 C 744.621 -0.334148 -3.58546 0
M  V30 7917 C 744.474 -1.77613 -4.13248 0
M  V30 7918 C 745.793 0.294968 -4.3911 0
M  V30 7919 H 742.912 -0.094025 -0.730978 0
M  V30 7920 H 745.554 -0.907449 -1.66929 0
M  V30 7921 H 743.704 0.221609 -3.87867 0
M  V30 7922 H 745.376 -2.38723 -3.94727 0
M  V30 7923 H 743.619 -2.30402 -3.67556 0
M  V30 7924 H 744.29 -1.78311 -5.22407 0
M  V30 7925 H 746.766 -0.178563 -4.15717 0
M  V30 7926 H 745.642 0.208934 -5.48502 0
M  V30 7927 H 745.903 1.37841 -4.20062 0
M  V30 7928 N 744.962 1.50701 -0.461195 0
M  V30 7929 C 745.894 2.26124 0.374244 0
M  V30 7930 C 746.907 1.31064 0.965715 0
M  V30 7931 O 748.096 1.56647 0.855801 0
M  V30 7932 C 745.196 3.01996 1.5379 0
M  V30 7933 C 744.369 4.24336 1.06101 0
M  V30 7934 C 743.428 4.82585 2.09756 0
M  V30 7935 O 742.454 5.43775 1.68219 0
M  V30 7936 N 743.656 4.68712 3.42475 0
M  V30 7937 H 746.421 2.9846 -0.2723 0
M  V30 7938 H 743.982 1.59256 -0.291415 0
M  V30 7939 H 745.974 3.37846 2.22806 0
M  V30 7940 H 744.544 2.32521 2.08933 0
M  V30 7941 H 743.764 3.93707 0.197085 0
M  V30 7942 H 745.052 5.03678 0.720156 0
M  V30 7943 H 744.45 4.20026 3.78938 0
M  V30 7944 H 743.007 5.08858 4.07317 0
M  V30 7945 N 746.441 0.193421 1.56409 0
M  V30 7946 C 747.371 -0.723334 2.22014 0
M  V30 7947 C 748.352 -1.22254 1.1827 0
M  V30 7948 O 749.537 -1.27168 1.46771 0
M  V30 7949 C 746.667 -1.94366 2.87818 0
M  V30 7950 C 745.621 -1.57943 3.97791 0
M  V30 7951 C 744.947 -2.87623 4.50752 0
M  V30 7952 C 746.247 -0.790639 5.16281 0
M  V30 7953 H 747.941 -0.176426 2.9888 0
M  V30 7954 H 745.487 -0.0834166 1.43758 0
M  V30 7955 H 747.44 -2.5902 3.32396 0
M  V30 7956 H 746.164 -2.51507 2.08355 0
M  V30 7957 H 744.823 -0.956482 3.53903 0
M  V30 7958 H 744.471 -3.4285 3.68053 0
M  V30 7959 H 744.171 -2.63998 5.24956 0
M  V30 7960 H 745.695 -3.53268 4.9803 0
M  V30 7961 H 747.109 -1.34024 5.57414 0
M  V30 7962 H 745.506 -0.65258 5.96541 0
M  V30 7963 H 746.576 0.208633 4.84451 0
M  V30 7964 N 747.919 -1.57396 -0.0801906 0
M  V30 7965 C 749.144 -1.91437 -0.797909 0
M  V30 7966 C 749.569 -0.789075 -1.70749 0
M  V30 7967 O 748.927 0.25857 -1.79447 0
M  V30 7968 C 748.975 -3.24402 -1.57467 0
M  V30 7969 O 748.079 -3.13043 -2.68473 0
M  V30 7970 H 747.42 -0.627109 -0.218243 0
M  V30 7971 H 749.95 -2.04537 -0.050949 0
M  V30 7972 H 749.96 -3.58072 -1.95571 0
M  V30 7973 H 748.635 -4.05884 -0.907229 0
M  V30 7974 H 747.212 -2.90915 -2.33287 0
M  V30 7975 N 749.397 0.351382 -1.53633 0
M  V30 7976 C 750.808 0.927429 -1.62036 0
M  V30 7977 C 751.159 1.89809 -0.496706 0
M  V30 7978 O 750.284 2.1313 0.374749 0
M  V30 7979 C 750.879 1.68886 -2.93706 0
M  V30 7980 C 749.438 2.21404 -3.04397 0
M  V30 7981 C 748.585 1.03075 -2.57431 0
M  V30 7982 H 751.536 0.129748 -1.58169 0
M  V30 7983 H 751.557 2.55116 -2.82305 0
M  V30 7984 H 751.069 0.982149 -3.75467 0
M  V30 7985 H 749.17 2.95274 -2.27253 0
M  V30 7986 H 749.283 2.48312 -4.09729 0
M  V30 7987 H 747.647 1.40188 -2.12649 0
M  V30 7988 H 748.43 0.338793 -3.41624 0
M  V30 7989 N 750.875 1.45233 0.611969 0
M  V30 7990 C 751.807 1.49575 1.73666 0
M  V30 7991 C 752.82 0.386987 1.58134 0
M  V30 7992 O 754.009 0.653804 1.66095 0
M  V30 7993 C 751.109 1.33223 3.11617 0
M  V30 7994 C 750.282 2.57694 3.5343 0
M  V30 7995 C 749.341 2.35962 4.70328 0
M  V30 7996 O 748.367 3.09553 4.77667 0
M  V30 7997 N 749.569 1.40243 5.63305 0
M  V30 7998 H 752.334 2.46539 1.70407 0
M  V30 7999 H 749.895 1.40917 0.79712 0
M  V30 8000 H 751.887 1.16502 3.87569 0
M  V30 8001 H 750.457 0.44551 3.09409 0
M  V30 8002 H 749.677 2.8956 2.67486 0
M  V30 8003 H 750.965 3.40441 3.78124 0
M  V30 8004 H 750.363 0.795023 5.60086 0
M  V30 8005 H 748.92 1.29496 6.38807 0
M  V30 8006 N 752.353 -0.854086 1.3245 0
M  V30 8007 C 753.285 -1.96932 1.17262 0
M  V30 8008 C 754.298 -1.62445 0.107469 0
M  V30 8009 O 755.487 -1.74904 0.356481 0
M  V30 8010 C 752.587 -3.29971 0.772817 0
M  V30 8011 C 751.76 -3.92695 1.92638 0
M  V30 8012 C 750.819 -5.04068 1.51003 0
M  V30 8013 O 749.845 -5.24032 2.22213 0
M  V30 8014 N 751.047 -5.79076 0.406371 0
M  V30 8015 H 753.812 -2.10503 2.13327 0
M  V30 8016 H 751.373 -1.02897 1.24995 0
M  V30 8017 H 753.365 -4.01883 0.476684 0
M  V30 8018 H 751.935 -3.1245 -0.0967 0
M  V30 8019 H 751.155 -3.13563 2.38897 0
M  V30 8020 H 752.443 -4.31337 2.69863 0
M  V30 8021 H 751.841 -5.65393 -0.186302 0
M  V30 8022 H 750.398 -6.51579 0.169846 0
M  V30 8023 N 753.831 -1.1567 -1.07043 0
M  V30 8024 C 755.079 -0.931673 -1.79344 0
M  V30 8025 C 755.4 0.542421 -1.87304 0
M  V30 8026 O 754.67 1.39418 -1.37621 0
M  V30 8027 H 753.25 -0.34171 -0.664262 0
M  V30 8028 H 755.912 -1.45795 -1.29344 0
M  V30 8029 H 755.008 -1.34379 -2.81689 0
M  V30 8030 N 755.309 1.25446 -0.953992 0
M  V30 8031 C 756.534 1.97755 -0.625129 0
M  V30 8032 C 756.959 1.70437 0.795787 0
M  V30 8033 O 756.317 0.95992 1.53803 0
M  V30 8034 C 756.365 3.49463 -0.889251 0
M  V30 8035 O 755.469 4.12387 0.0322757 0
M  V30 8036 H 754.81 0.61998 -0.237742 0
M  V30 8037 H 757.34 1.59582 -1.28041 0
M  V30 8038 H 757.35 3.99772 -0.815263 0
M  V30 8039 H 756.025 3.68676 -1.92487 0
M  V30 8040 H 754.602 3.72782 -0.0938625 0
M  V30 8041 N 756.787 0.722489 1.40064 0
M  V30 8042 C 757.717 0.0892452 2.33329 0
M  V30 8043 C 758.698 -0.737992 1.53257 0
M  V30 8044 O 759.883 -0.685516 1.81698 0
M  V30 8045 C 757.013 -0.828139 3.37282 0
M  V30 8046 C 755.967 -0.106005 4.27869 0
M  V30 8047 C 755.293 -1.13957 5.22415 0
M  V30 8048 C 756.593 1.04395 5.11761 0
M  V30 8049 H 758.287 0.868269 2.86534 0
M  V30 8050 H 755.833 0.418982 1.3777 0
M  V30 8051 H 757.786 -1.28058 4.01471 0
M  V30 8052 H 756.51 -1.63914 2.82489 0
M  V30 8053 H 755.169 0.326683 3.65142 0
M  V30 8054 H 754.817 -1.9438 4.63924 0
M  V30 8055 H 754.517 -0.661233 5.83868 0
M  V30 8056 H 756.041 -1.59197 5.89482 0
M  V30 8057 H 757.455 0.670541 5.69365 0
M  V30 8058 H 755.852 1.4511 5.82291 0
M  V30 8059 H 756.922 1.87144 4.47331 0
M  V30 8060 N 758.265 -1.50454 0.469181 0
M  V30 8061 C 759.513 -2.01916 -0.0862982 0
M  V30 8062 C 759.834 -1.35337 -1.40388 0
M  V30 8063 O 759.104 -0.498096 -1.89462 0
M  V30 8064 H 757.684 -0.746185 -0.0348825 0
M  V30 8065 H 760.346 -1.84804 0.619167 0
M  V30 8066 H 759.442 -3.11182 -0.239189 0
M  V30 8067 N 759.743 -0.201713 -1.56304 0
M  V30 8068 C 760.673 0.71155 -2.22394 0
M  V30 8069 C 761.654 1.21625 -1.18917 0
M  V30 8070 O 762.839 1.26388 -1.47444 0
M  V30 8071 C 759.969 1.92837 -2.88845 0
M  V30 8072 C 758.923 1.55831 -3.98623 0
M  V30 8073 C 758.249 2.85228 -4.52271 0
M  V30 8074 C 759.549 0.763249 -5.16693 0
M  V30 8075 H 761.243 0.160573 -2.98969 0
M  V30 8076 H 758.789 0.0757916 -1.438 0
M  V30 8077 H 760.742 2.57253 -3.33764 0
M  V30 8078 H 759.466 2.50398 -2.09686 0
M  V30 8079 H 758.125 0.9377 -3.54405 0
M  V30 8080 H 757.773 3.40893 -3.69866 0
M  V30 8081 H 757.473 2.6121 -5.26349 0
M  V30 8082 H 758.997 3.50622 -4.99897 0
M  V30 8083 H 760.411 1.31066 -5.58117 0
M  V30 8084 H 758.808 0.620935 -5.96879 0
M  V30 8085 H 759.878 -0.234322 -4.84334 0
M  V30 8086 N 761.222 1.57436 0.0718424 0
M  V30 8087 C 762.154 2.00412 1.1121 0
M  V30 8088 C 763.167 0.910074 1.34987 0
M  V30 8089 O 764.356 1.18796 1.33228 0
M  V30 8090 C 761.456 2.32786 2.46301 0
M  V30 8091 C 760.629 3.64036 2.4248 0
M  V30 8092 C 759.688 3.8408 3.59679 0
M  V30 8093 O 758.714 4.55667 3.4111 0
M  V30 8094 N 759.916 3.2643 4.80025 0
M  V30 8095 H 762.681 2.90264 0.746118 0
M  V30 8096 H 760.242 1.59791 0.260495 0
M  V30 8097 H 762.234 2.43368 3.23348 0
M  V30 8098 H 760.804 1.48824 2.74901 0
M  V30 8099 H 760.024 3.64208 1.50818 0
M  V30 8100 H 761.312 4.50217 2.37027 0
M  V30 8101 H 760.71 2.68325 4.98014 0
M  V30 8102 H 759.267 3.42461 5.54584 0
M  V30 8103 N 762.7 -0.34323 1.53817 0
M  V30 8104 C 763.93 -1.10188 1.74763 0
M  V30 8105 C 764.338 -1.82829 0.486856 0
M  V30 8106 O 763.681 -1.75236 -0.551198 0
M  V30 8107 C 763.743 -2.16 2.87375 0
M  V30 8108 C 763.407 -1.62931 4.26969 0
M  V30 8109 C 764.404 -1.08147 5.08528 0
M  V30 8110 C 762.089 -1.67769 4.73454 0
M  V30 8111 C 764.083 -0.589039 6.34672 0
M  V30 8112 C 761.77 -1.18138 5.99572 0
M  V30 8113 C 762.768 -0.637979 6.80014 0
M  V30 8114 O 762.456 -0.149073 8.03762 0
M  V30 8115 H 762.188 -0.33445 0.587469 0
M  V30 8116 H 764.742 -0.401109 2.01445 0
M  V30 8117 H 762.972 -2.89637 2.56218 0
M  V30 8118 H 764.661 -2.77432 2.96287 0
M  V30 8119 H 765.427 -1.03732 4.73777 0
M  V30 8120 H 761.306 -2.09004 4.10899 0
M  V30 8121 H 764.85 -0.164233 6.97407 0
M  V30 8122 H 760.747 -1.22254 6.33817 0
M  V30 8123 H 761.515 -0.266332 8.18067 0
M  V30 8124 N 764.178 -1.45556 -0.604258 0
M  V30 8125 C 765.126 -1.5482 -1.7359 0
M  V30 8126 C 766.12 -0.417966 -1.64163 0
M  V30 8127 O 767.326 -0.594007 -1.69916 0
M  V30 8128 H 763.701 -0.486352 -0.573556 0
M  V30 8129 H 765.672 -2.5001 -1.62903 0
M  V30 8130 C 764.421 -1.53521 -3.11972 0
M  V30 8131 H 763.744 -2.39818 -3.19886 0
M  V30 8132 H 765.184 -1.64061 -3.90973 0
M  V30 8133 C 763.643 -0.260191 -3.35894 0
M  V30 8134 O 764.173 0.658582 -3.96265 0
M  V30 8135 N 762.379 -0.154839 -2.90187 0
M  V30 8136 H 761.926 -0.903378 -2.4124 0
M  V30 8137 H 761.884 0.697437 -3.06567 0
M  V30 8138 N 765.656 0.84705 -1.32902 0
M  V30 8139 C 766.619 1.9378 -1.224 0
M  V30 8140 C 767.619 1.60144 -0.145108 0
M  V30 8141 O 768.809 1.69638 -0.396058 0
M  V30 8142 C 765.941 3.29234 -0.884174 0
M  V30 8143 H 767.134 2.04518 -2.19345 0
M  V30 8144 H 764.687 1.03816 -1.16842 0
M  V30 8145 H 765.422 3.24193 0.0831277 0
M  V30 8146 H 765.207 3.55026 -1.6643 0
M  V30 8147 H 766.697 4.09162 -0.835226 0
M  V30 8148 N 767.134 1.16236 1.06428 0
M  V30 8149 C 768.359 0.967688 1.83441 0
M  V30 8150 C 768.784 -0.479167 1.81894 0
M  V30 8151 O 768.142 -1.34224 1.21875 0
M  V30 8152 C 768.19 1.49806 3.2801 0
M  V30 8153 O 767.294 0.703481 4.06356 0
M  V30 8154 H 766.635 0.344468 0.56766 0
M  V30 8155 H 769.165 1.54442 1.34197 0
M  V30 8156 H 769.175 1.51495 3.78831 0
M  V30 8157 H 767.85 2.55133 3.2845 0
M  V30 8158 H 766.427 0.756986 3.65136 0
M  V30 8159 N 768.612 -1.24939 0.960631 0
M  V30 8160 C 769.544 -2.24879 0.442937 0
M  V30 8161 C 770.557 -1.56615 -0.444464 0
M  V30 8162 O 771.746 -1.76715 -0.251776 0
M  V30 8163 C 768.846 -3.36757 -0.380537 0
M  V30 8164 C 768.019 -4.34587 0.495283 0
M  V30 8165 C 767.078 -5.25502 -0.270995 0
M  V30 8166 O 766.104 -5.68227 0.332661 0
M  V30 8167 N 767.306 -5.59077 -1.56249 0
M  V30 8168 H 770.071 -2.69932 1.30218 0
M  V30 8169 H 767.632 -1.38907 0.83166 0
M  V30 8170 H 769.624 -3.94542 -0.90103 0
M  V30 8171 H 768.194 -2.91045 -1.14067 0
M  V30 8172 H 767.414 -3.75593 1.19682 0
M  V30 8173 H 768.702 -4.96925 1.09285 0
M  V30 8174 H 768.1 -5.2628 -2.07476 0
M  V30 8175 H 766.657 -6.19421 -2.02882 0
M  V30 8176 N 770.09 -0.729906 -1.39679 0
M  V30 8177 C 771 -0.0880322 -2.34435 0
M  V30 8178 C 772.016 0.727674 -1.58053 0
M  V30 8179 O 773.192 0.657321 -1.90371 0
M  V30 8180 C 770.257 0.812211 -3.37052 0
M  V30 8181 C 769.318 -0.0151681 -4.29297 0
M  V30 8182 C 768.551 0.842202 -5.27013 0
M  V30 8183 O 768.774 2.08108 -5.31081 0
M  V30 8184 O 767.708 0.27357 -6.01278 0
M  V30 8185 H 771.534 -0.869989 -2.90972 0
M  V30 8186 H 769.119 -0.490522 -1.41118 0
M  V30 8187 H 771.001 1.32745 -3.99946 0
M  V30 8188 H 769.676 1.57307 -2.82907 0
M  V30 8189 H 768.583 -0.575811 -3.69642 0
M  V30 8190 H 769.916 -0.738129 -4.86634 0
M  V30 8191 N 771.568 1.50203 -0.477153 0
M  V30 8192 C 772.814 2.03286 0.0679442 0
M  V30 8193 C 773.169 1.35227 1.36863 0
M  V30 8194 O 772.462 0.471029 1.8572 0
M  V30 8195 C 772.656 3.56127 0.301325 0
M  V30 8196 C 772.485 4.38999 -0.975188 0
M  V30 8197 C 771.255 4.81889 -1.52022 0
M  V30 8198 C 773.453 4.79013 -1.8722 0
M  V30 8199 N 771.435 5.49105 -2.74513 0
M  V30 8200 C 772.806 5.45701 -2.94296 0
M  V30 8201 C 774.861 4.60967 -1.88185 0
M  V30 8202 C 773.564 5.96255 -4.02333 0
M  V30 8203 C 775.59 5.12466 -2.95183 0
M  V30 8204 C 774.952 5.79134 -4.00977 0
M  V30 8205 H 771.051 0.78185 -0.015318 0
M  V30 8206 H 773.635 1.83646 -0.64671 0
M  V30 8207 H 771.806 3.75702 0.985021 0
M  V30 8208 H 773.538 3.95859 0.841304 0
M  V30 8209 H 770.293 4.61387 -1.06858 0
M  V30 8210 H 770.717 5.87315 -3.36734 0
M  V30 8211 H 775.359 4.0885 -1.07708 0
M  V30 8212 H 773.077 6.47406 -4.83623 0
M  V30 8213 H 776.663 5.00329 -2.96921 0
M  V30 8214 H 775.543 6.18265 -4.82409 0
M  V30 8215 N 773.046 0.209999 1.56195 0
M  V30 8216 C 774.323 -0.473214 1.89789 0
M  V30 8217 C 774.703 -1.78581 1.1257 0
M  V30 8218 O 774.051 -2.27325 0.231398 0
M  V30 8219 C 774.261 -0.677458 3.42362 0
M  V30 8220 C 775.609 -0.990114 4.12895 0
M  V30 8221 O 776.633 -0.764655 3.47896 0
M  V30 8222 O 775.492 -1.41737 5.278 0
M  V30 8223 H 772.586 -0.248622 0.788743 0
M  V30 8224 H 775.132 0.251324 1.67829 0
M  V30 8225 H 773.904 0.248878 3.90508 0
M  V30 8226 H 773.527 -1.45391 3.70064 0
M  V30 8227 N 774.524 -1.57472 -0.0634922 0
M  V30 8228 C 775.454 -2.07297 -1.07473 0
M  V30 8229 C 776.435 -0.968162 -1.39859 0
M  V30 8230 O 777.62 -1.24139 -1.49343 0
M  V30 8231 C 774.75 -2.52381 -2.38581 0
M  V30 8232 C 773.704 -3.66813 -2.20526 0
M  V30 8233 C 773.03 -3.97982 -3.57092 0
M  V30 8234 C 774.33 -4.96553 -1.61965 0
M  V30 8235 H 776.024 -2.92033 -0.660092 0
M  V30 8236 H 773.57 -1.40488 -0.316074 0
M  V30 8237 H 775.523 -2.85852 -3.09624 0
M  V30 8238 H 774.247 -1.64684 -2.8204 0
M  V30 8239 H 772.906 -3.33639 -1.51924 0
M  V30 8240 H 772.554 -3.07403 -3.98136 0
M  V30 8241 H 772.254 -4.7504 -3.45848 0
M  V30 8242 H 773.778 -4.33956 -4.29552 0
M  V30 8243 H 775.192 -5.28201 -2.22883 0
M  V30 8244 H 773.589 -5.7799 -1.61394 0
M  V30 8245 H 774.659 -4.81396 -0.581918 0
M  V30 8246 N 776.003 0.335068 -1.53997 0
M  V30 8247 C 777.419 0.678704 -1.4445 0
M  V30 8248 C 777.619 1.92106 -0.608078 0
M  V30 8249 O 776.675 2.52292 -0.102373 0
M  V30 8250 C 777.988 0.863435 -2.88037 0
M  V30 8251 C 779.536 0.961513 -2.97866 0
M  V30 8252 C 780.011 1.1785 -4.42578 0
M  V30 8253 N 781.502 1.2455 -4.46141 0
M  V30 8254 C 782.237 1.43106 -5.55255 0
M  V30 8255 N 781.733 1.5878 -6.74359 0
M  V30 8256 N 783.526 1.45722 -5.42883 0
M  V30 8257 H 775.677 -0.481656 -2.06867 0
M  V30 8258 H 777.94 -0.153615 -0.935471 0
M  V30 8259 H 777.646 0.0219511 -3.51693 0
M  V30 8260 H 777.52 1.76268 -3.33481 0
M  V30 8261 H 779.907 1.79351 -2.34344 0
M  V30 8262 H 779.988 0.0389862 -2.5577 0
M  V30 8263 H 779.632 0.351397 -5.06683 0
M  V30 8264 H 779.562 2.11472 -4.82273 0
M  V30 8265 H 782.053 1.13928 -3.60318 0
M  V30 8266 H 782.366 1.72599 -7.53279 0
M  V30 8267 H 780.711 1.559 -6.77289 0
M  V30 8268 H 783.902 1.33065 -4.48789 0
M  V30 8269 H 784.075 1.59841 -6.27977 0
M  V30 8270 N 777.481 1.45874 0.596531 0
M  V30 8271 C 778.706 1.54247 1.38646 0
M  V30 8272 C 779.131 0.179571 1.87241 0
M  V30 8273 O 778.489 -0.837831 1.6078 0
M  V30 8274 C 778.537 2.54015 2.55946 0
M  V30 8275 O 777.641 2.06561 3.5694 0
M  V30 8276 H 776.982 0.519555 0.413471 0
M  V30 8277 H 779.512 1.91327 0.724936 0
M  V30 8278 H 779.522 2.73179 3.03047 0
M  V30 8279 H 778.197 3.52994 2.19928 0
M  V30 8280 H 776.774 1.97324 3.16414 0
M  V30 8281 N 778.959 -0.83999 1.33349 0
M  V30 8282 C 780.184 -1.63249 1.27924 0
M  V30 8283 C 780.609 -1.87523 -0.147193 0
M  V30 8284 O 779.967 -1.43853 -1.10345 0
M  V30 8285 C 780.015 -2.96046 2.05886 0
M  V30 8286 O 779.119 -3.87303 1.4167 0
M  V30 8287 H 778.46 -0.49715 0.440157 0
M  V30 8288 H 780.99 -1.04512 1.75893 0
M  V30 8289 H 781 -3.45752 2.16609 0
M  V30 8290 H 779.675 -2.77701 3.09605 0
M  V30 8291 H 778.252 -3.45789 1.39585 0
M  V30 8292 N 780.437 -1.16799 -1.0581 0
M  V30 8293 C 781.677 -0.963264 -1.80279 0
M  V30 8294 C 782.041 0.499671 -1.85384 0
M  V30 8295 O 783.242 0.823264 -2.55882 0
M  V30 8296 C 781.513 -1.57938 -3.20609 0
M  V30 8297 S 783.072 -1.51997 -4.11634 0
M  V30 8298 H 779.89 -0.346302 -0.620964 0
M  V30 8299 H 782.492 -1.48632 -1.26999 0
M  V30 8300 H 781.196 -2.63672 -3.14492 0
M  V30 8301 H 780.727 -1.05586 -3.78966 0
M  V30 8302 H 782.742 -0.523625 -4.93429 0
M  V30 8303 N 781.915 1.24427 -0.967243 0
M  V30 8304 C 783.163 1.92107 -0.627638 0
M  V30 8305 C 783.484 1.75991 0.83978 0
M  V30 8306 O 782.754 1.13118 1.59941 0
M  V30 8307 H 781.334 0.710986 -0.229145 0
M  V30 8308 H 783.996 1.51331 -1.22821 0
M  V30 8309 H 783.092 2.99791 -0.867844 0
M  V30 8310 N 783.393 0.737304 1.3929 0
M  V30 8311 C 784.618 0.295237 2.05288 0
M  V30 8312 C 785.043 -1.06235 1.55228 0
M  V30 8313 O 784.401 -1.67365 0.697043 0
M  V30 8314 C 784.449 0.309146 3.59272 0
M  V30 8315 O 783.553 -0.702437 4.06374 0
M  V30 8316 H 782.894 0.133762 0.650387 0
M  V30 8317 H 785.424 1.00387 1.78279 0
M  V30 8318 H 785.434 0.154336 4.07708 0
M  V30 8319 H 784.109 1.29974 3.95069 0
M  V30 8320 H 782.686 -0.513574 3.69346 0
M  V30 8321 N 784.871 -1.49948 0.485112 0
M  V30 8322 C 785.801 -2.31675 -0.291364 0
M  V30 8323 C 786.782 -1.39216 -0.977383 0
M  V30 8324 O 787.967 -1.68133 -0.971855 0
M  V30 8325 C 785.097 -3.19326 -1.36558 0
M  V30 8326 C 784.051 -4.2045 -0.800359 0
M  V30 8327 C 783.377 -4.96931 -1.97391 0
M  V30 8328 C 784.677 -5.21925 0.197867 0
M  V30 8329 H 786.371 -2.96839 0.390775 0
M  V30 8330 H 783.917 -1.42749 0.189375 0
M  V30 8331 H 785.87 -3.75304 -1.91638 0
M  V30 8332 H 784.594 -2.52074 -2.07668 0
M  V30 8333 H 783.253 -3.65594 -0.271428 0
M  V30 8334 H 782.901 -4.26141 -2.67232 0
M  V30 8335 H 782.601 -5.65344 -1.60187 0
M  V30 8336 H 784.125 -5.55749 -2.52935 0
M  V30 8337 H 785.539 -5.72691 -0.264239 0
M  V30 8338 H 783.936 -5.98138 0.484908 0
M  V30 8339 H 785.006 -4.71809 1.11912 0
M  V30 8340 N 786.349 -0.21828 -1.56081 0
M  V30 8341 C 787.765 0.137168 -1.59009 0
M  V30 8342 C 787.965 1.59215 -1.23503 0
M  V30 8343 O 787.021 2.33178 -0.968716 0
M  V30 8344 C 788.334 -0.186162 -3.00123 0
M  V30 8345 C 789.882 -0.128135 -3.12738 0
M  V30 8346 C 790.357 -0.425094 -4.56023 0
M  V30 8347 N 791.848 -0.374547 -4.61683 0
M  V30 8348 C 792.583 -0.57786 -5.70481 0
M  V30 8349 N 792.079 -0.842771 -6.87655 0
M  V30 8350 N 793.872 -0.510521 -5.59777 0
M  V30 8351 H 786.023 -1.16746 -1.77437 0
M  V30 8352 H 788.286 -0.467706 -0.824594 0
M  V30 8353 H 787.992 -1.19589 -3.30744 0
M  V30 8354 H 787.866 0.500388 -3.73866 0
M  V30 8355 H 790.253 0.872224 -2.81915 0
M  V30 8356 H 790.334 -0.848112 -2.41331 0
M  V30 8357 H 789.978 -1.42288 -4.87562 0
M  V30 8358 H 789.908 0.316038 -5.25651 0
M  V30 8359 H 792.399 -0.177356 -3.77484 0
M  V30 8360 H 792.712 -0.986095 -7.66483 0
M  V30 8361 H 791.057 -0.879929 -6.89407 0
M  V30 8362 H 794.248 -0.303813 -4.67113 0
M  V30 8363 H 794.421 -0.672378 -6.44502 0
M  V30 8364 N 787.827 1.57504 0.0551401 0
M  V30 8365 C 788.757 2.07864 1.06372 0
M  V30 8366 C 789.738 0.975565 1.39344 0
M  V30 8367 O 790.923 1.24929 1.48682 0
M  V30 8368 C 788.053 2.53643 2.3724 0
M  V30 8369 C 787.007 3.67978 2.18578 0
M  V30 8370 C 786.333 3.9987 3.54976 0
M  V30 8371 C 787.633 4.97405 1.59329 0
M  V30 8372 H 789.327 2.92379 0.644595 0
M  V30 8373 H 786.873 1.40654 0.308619 0
M  V30 8374 H 788.826 2.8749 3.08103 0
M  V30 8375 H 787.55 1.66177 2.81163 0
M  V30 8376 H 786.209 3.3444 1.50152 0
M  V30 8377 H 785.857 3.0951 3.965 0
M  V30 8378 H 785.557 4.76867 3.43324 0
M  V30 8379 H 787.081 4.36228 4.27244 0
M  V30 8380 H 788.495 5.29375 2.20078 0
M  V30 8381 H 786.892 5.78837 1.58327 0
M  V30 8382 H 787.962 4.81697 0.55638 0
M  V30 8383 N 789.305 -0.326896 1.54172 0
M  V30 8384 C 790.533 -1.08486 1.76177 0
M  V30 8385 C 790.948 -1.81815 0.508788 0
M  V30 8386 O 790.305 -1.74924 -0.520362 0
M  V30 8387 C 790.356 -2.08552 2.95276 0
M  V30 8388 O 790.077 -1.38202 4.15731 0
M  V30 8389 C 791.578 -2.96593 3.29466 0
M  V30 8390 H 788.798 -0.322835 0.588233 0
M  V30 8391 H 791.342 -0.374036 2.0105 0
M  V30 8392 H 789.497 -2.75174 2.72687 0
M  V30 8393 H 789.911 -2.05186 4.827 0
M  V30 8394 H 791.385 -3.62708 4.16109 0
M  V30 8395 H 791.862 -3.63511 2.46487 0
M  V30 8396 H 792.468 -2.35537 3.54122 0
M  V30 8397 N 790.784 -1.46188 -0.588786 0
M  V30 8398 C 792.03 -1.51407 -1.34921 0
M  V30 8399 C 792.363 -0.162771 -1.93517 0
M  V30 8400 O 791.638 0.825082 -1.76132 0
M  V30 8401 C 791.921 -2.60795 -2.48311 0
M  V30 8402 C 791.774 -4.05435 -1.94789 0
M  V30 8403 C 793.093 -2.66313 -3.50379 0
M  V30 8404 H 790.212 -0.551213 -0.489217 0
M  V30 8405 H 792.854 -1.78095 -0.661993 0
M  V30 8406 H 791.004 -2.3817 -3.06932 0
M  V30 8407 H 792.676 -4.39328 -1.40672 0
M  V30 8408 H 790.919 -4.15202 -1.25659 0
M  V30 8409 H 791.59 -4.77691 -2.76613 0
M  V30 8410 H 794.066 -2.86634 -3.01629 0
M  V30 8411 H 792.942 -3.44681 -4.27184 0
M  V30 8412 H 793.203 -1.72127 -4.07216 0
M  V30 8413 N 792.262 0.832906 -1.33792 0
M  V30 8414 C 793.487 1.62568 -1.28788 0
M  V30 8415 C 793.912 1.87599 0.137246 0
M  V30 8416 O 793.27 1.44436 1.0958 0
M  V30 8417 C 793.318 2.9495 -2.07453 0
M  V30 8418 O 792.422 3.86546 -1.43722 0
M  V30 8419 H 791.763 0.494809 -0.442787 0
M  V30 8420 H 794.293 1.03578 -1.76445 0
M  V30 8421 H 794.303 3.44599 -2.1844 0
M  V30 8422 H 792.978 2.76055 -3.11073 0
M  V30 8423 H 791.555 3.45044 -1.41417 0
M  V30 8424 N 793.74 1.17359 1.05189 0
M  V30 8425 C 794.989 0.956412 1.77583 0
M  V30 8426 C 795.302 -0.516018 1.88671 0
M  V30 8427 O 796.508 -0.851401 2.57805 0
M  V30 8428 C 794.964 1.66203 3.19225 0
M  V30 8429 C 794.572 3.17299 3.16267 0
M  V30 8430 C 796.316 1.52725 3.96075 0
M  V30 8431 C 794.223 3.8055 4.52698 0
M  V30 8432 H 793.153 0.354204 0.665624 0
M  V30 8433 H 795.804 1.40612 1.17901 0
M  V30 8434 H 794.186 1.14006 3.79234 0
M  V30 8435 H 795.36 3.76431 2.65776 0
M  V30 8436 H 793.675 3.3079 2.52917 0
M  V30 8437 H 796.272 1.97351 4.96947 0
M  V30 8438 H 796.615 0.477803 4.13549 0
M  V30 8439 H 797.148 2.02139 3.42614 0
M  V30 8440 H 793.887 4.85492 4.4043 0
M  V30 8441 H 793.407 3.26206 5.03339 0
M  V30 8442 H 795.086 3.82757 5.21638 0
M  V30 8443 N 795.218 -1.23913 0.973828 0
M  V30 8444 C 796.128 -2.28838 0.516735 0
M  V30 8445 C 797.144 -1.68723 -0.425282 0
M  V30 8446 O 798.32 -1.99201 -0.296819 0
M  V30 8447 C 795.385 -3.46233 -0.179914 0
M  V30 8448 C 794.446 -4.21729 0.80269 0
M  V30 8449 C 793.679 -5.33518 0.139191 0
M  V30 8450 O 793.902 -5.60252 -1.07118 0
M  V30 8451 O 792.836 -5.96088 0.834447 0
M  V30 8452 H 796.662 -2.70067 1.38916 0
M  V30 8453 H 794.247 -1.2972 0.74115 0
M  V30 8454 H 796.129 -4.17514 -0.570991 0
M  V30 8455 H 794.804 -3.06969 -1.02721 0
M  V30 8456 H 793.711 -3.52799 1.24434 0
M  V30 8457 H 795.044 -4.64825 1.61859 0
M  V30 8458 N 796.696 -0.74468 -1.38897 0
M  V30 8459 C 797.659 -0.11945 -2.28889 0
M  V30 8460 C 798.659 0.656942 -1.46768 0
M  V30 8461 O 799.849 0.484525 -1.67326 0
M  V30 8462 C 796.981 0.839635 -3.30398 0
M  V30 8463 H 798.174 -0.912414 -2.85683 0
M  V30 8464 H 795.727 -0.511119 -1.47707 0
M  V30 8465 H 796.462 1.6586 -2.78677 0
M  V30 8466 H 796.247 0.285432 -3.9106 0
M  V30 8467 H 797.737 1.27337 -3.97712 0
M  V30 8468 N 798.174 1.49689 -0.493057 0
M  V30 8469 C 799.59 1.58907 -0.148526 0
M  V30 8470 C 799.79 1.4991 1.34645 0
M  V30 8471 O 798.846 1.36893 2.12171 0
M  V30 8472 C 800.159 2.91996 -0.718265 0
M  V30 8473 C 801.707 3.05443 -0.683658 0
M  V30 8474 C 802.182 4.41138 -1.23132 0
M  V30 8475 N 803.673 4.47608 -1.19167 0
M  V30 8476 C 804.408 5.51038 -1.5857 0
M  V30 8477 N 803.904 6.61612 -2.05528 0
M  V30 8478 N 805.697 5.41706 -1.50036 0
M  V30 8479 H 797.848 1.5378 -1.46511 0
M  V30 8480 H 800.111 0.727996 -0.607228 0
M  V30 8481 H 799.817 3.04123 -1.7664 0
M  V30 8482 H 799.691 3.76798 -0.17419 0
M  V30 8483 H 802.078 2.92949 0.355626 0
M  V30 8484 H 802.159 2.22344 -1.26479 0
M  V30 8485 H 801.803 4.54382 -2.26935 0
M  V30 8486 H 801.733 5.22864 -0.626201 0
M  V30 8487 H 804.224 3.68274 -0.847524 0
M  V30 8488 H 804.537 7.36622 -2.33685 0
M  V30 8489 H 802.882 6.62674 -2.09497 0
M  V30 8490 H 806.073 4.54212 -1.13176 0
M  V30 8491 H 806.246 6.22188 -1.81068 0
M  V30 8492 N 799.652 0.226554 1.55963 0
M  V30 8493 C 800.615 -0.668015 2.19249 0
M  V30 8494 C 801.615 -1.11794 1.1558 0
M  V30 8495 O 802.805 -1.02593 1.40784 0
M  V30 8496 C 799.937 -1.91571 2.81981 0
M  V30 8497 H 801.13 -0.116175 2.99675 0
M  V30 8498 H 798.683 -0.0230497 1.56283 0
M  V30 8499 H 799.418 -2.50929 2.05439 0
M  V30 8500 H 799.203 -1.6015 3.57903 0
M  V30 8501 H 800.693 -2.55294 3.30477 0
M  V30 8502 N 801.13 -1.57531 -0.0467866 0
M  V30 8503 C 802.093 -2.04379 -1.03738 0
M  V30 8504 C 803.093 -0.944881 -1.3011 0
M  V30 8505 O 804.283 -1.20904 -1.25411 0
M  V30 8506 C 801.415 -2.44572 -2.37482 0
M  V30 8507 H 802.608 -2.93142 -0.633063 0
M  V30 8508 H 800.161 -1.53526 -0.293177 0
M  V30 8509 H 800.896 -1.58911 -2.82697 0
M  V30 8510 H 800.681 -3.24785 -2.19675 0
M  V30 8511 H 802.171 -2.81307 -3.08636 0
M  V30 8512 N 802.608 0.318715 -1.54344 0
M  V30 8513 C 803.856 1.054 -1.72439 0
M  V30 8514 C 804.177 1.88388 -0.503495 0
M  V30 8515 O 803.447 1.89866 0.48246 0
M  V30 8516 H 802.027 0.392124 -0.635805 0
M  V30 8517 H 804.689 0.35398 -1.91659 0
M  V30 8518 H 803.785 1.71726 -2.60608 0
M  V30 8519 N 804.086 1.46499 0.581025 0
M  V30 8520 C 805.497 1.4604 1.16315 0
M  V30 8521 C 805.848 0.202154 1.95156 0
M  V30 8522 O 804.973 -0.694638 2.04948 0
M  V30 8523 C 805.568 2.64593 2.11604 0
M  V30 8524 C 804.127 2.6717 2.65136 0
M  V30 8525 C 803.274 2.38753 1.4104 0
M  V30 8526 H 806.225 1.54354 0.368871 0
M  V30 8527 H 806.246 2.40207 2.95095 0
M  V30 8528 H 805.758 3.56154 1.54194 0
M  V30 8529 H 803.859 1.79685 3.26411 0
M  V30 8530 H 803.972 3.67182 3.07757 0
M  V30 8531 H 802.336 1.88845 1.70908 0
M  V30 8532 H 803.119 3.32493 0.854588 0
M  V30 8533 O 805.603 -0.725332 1.44295 0
M  V30 8534 H 806.294 -1.37566 1.36365 0
M  V30 END ATOM
M  V30 BEGIN BOND
M  V30 END BOND
M  V30 END CTAB
M  END
$$$$
