drugbank_target|P22897 Macrophage mannose receptor 1 (DB09266)
 OpenBabel12092121123D

  0  0  0     0  0            999 V3000
M  V30 BEGIN CTAB
M  V30 COUNTS 22808 23156 0 0 0
M  V30 BEGIN ATOM
M  V30 1 H -0.908 1.98254 -0.117106 0
M  V30 2 N 0 1.576 0 0
M  V30 3 C 0.933 2.03868 1.02534 0
M  V30 4 C 1.911 0.928543 1.3348 0
M  V30 5 O 3.095 1.19667 1.45644 0
M  V30 6 C 0.222 2.43627 2.35294 0
M  V30 7 C -0.732 3.65373 2.2001 0
M  V30 8 S 0.101 5.13292 1.52614 0
M  V30 9 C 1.257 5.56322 2.86805 0
M  V30 10 H 1.49 2.90518 0.631377 0
M  V30 11 H -0.977 1.52953 0.210867 0
M  V30 12 H 0.981 2.67203 3.11629 0
M  V30 13 H -0.358 1.57376 2.7183 0
M  V30 14 H -1.165 3.90944 3.18086 0
M  V30 15 H -1.563 3.418 1.51819 0
M  V30 16 H 0.729 5.58782 3.83104 0
M  V30 17 H 1.672 6.56266 2.65933 0
M  V30 18 H 2.08 4.83886 2.90714 0
M  V30 19 N 1.4781 -0.272755 1.55222 0
M  V30 20 C 2.8941 -0.619959 1.47067 0
M  V30 21 C 3.0941 -1.895 0.684978 0
M  V30 22 O 2.1501 -2.51675 0.203931 0
M  V30 23 C 3.4631 -0.746693 2.91282 0
M  V30 24 C 5.0111 -0.840731 3.01497 0
M  V30 25 C 5.4861 -0.99924 4.46967 0
M  V30 26 N 6.9771 -1.06476 4.50796 0
M  V30 27 C 7.7121 -1.20621 5.6057 0
M  V30 28 N 7.2081 -1.31483 6.80209 0
M  V30 29 N 9.0011 -1.23733 5.48312 0
M  V30 30 H 1.1521 0.564606 2.04758 0
M  V30 31 H 3.4151 0.191177 0.928523 0
M  V30 32 H 3.1211 0.119753 3.51496 0
M  V30 33 H 2.9951 -1.6269 3.40311 0
M  V30 34 H 5.3821 -1.69764 2.41379 0
M  V30 35 H 5.4631 0.0640874 2.5572 0
M  V30 36 H 5.1071 -0.146984 5.07687 0
M  V30 37 H 5.0371 -1.91871 4.90401 0
M  V30 38 H 7.5281 -0.993196 3.64615 0
M  V30 39 H 7.8411 -1.42111 7.59621 0
M  V30 40 H 6.1861 -1.28487 6.8302 0
M  V30 41 H 9.3771 -1.14877 4.53785 0
M  V30 42 H 9.5501 -1.34412 6.33906 0
M  V30 43 N 2.9562 -1.48159 -0.537278 0
M  V30 44 C 3.8862 -1.65029 -1.6519 0
M  V30 45 C 4.8672 -0.499281 -1.62607 0
M  V30 46 O 6.0522 -0.730972 -1.79918 0
M  V30 47 C 3.1822 -1.68303 -3.03795 0
M  V30 48 C 2.1362 -2.8283 -3.21234 0
M  V30 49 C 1.4622 -2.71189 -4.60826 0
M  V30 50 C 2.7622 -4.24211 -3.04701 0
M  V30 51 H 4.4562 -2.58341 -1.51328 0
M  V30 52 H 2.0022 -1.24325 -0.726585 0
M  V30 53 H 3.9552 -1.78693 -3.81637 0
M  V30 54 H 2.6792 -0.715635 -3.18663 0
M  V30 55 H 1.3382 -2.71983 -2.45807 0
M  V30 56 H 0.9862 -1.72435 -4.7252 0
M  V30 57 H 0.6862 -3.48035 -4.7344 0
M  V30 58 H 2.2102 -2.83537 -5.40777 0
M  V30 59 H 3.6242 -4.3593 -3.72341 0
M  V30 60 H 2.0212 -5.01998 -3.28813 0
M  V30 61 H 3.0912 -4.41184 -2.01209 0
M  V30 62 N 4.4343 0.785586 -1.36625 0
M  V30 63 C 5.8453 1.36101 -1.27803 0
M  V30 64 C 6.1963 1.96035 0.0804875 0
M  V30 65 O 5.3213 1.92834 0.982042 0
M  V30 66 C 5.9163 2.47442 -2.31426 0
M  V30 67 C 4.4753 3.00789 -2.26281 0
M  V30 68 C 3.6223 1.73896 -2.15999 0
M  V30 69 H 6.5733 0.586928 -1.47448 0
M  V30 70 H 6.5943 3.2656 -1.95291 0
M  V30 71 H 6.1063 2.03791 -3.30289 0
M  V30 72 H 4.2073 3.48851 -1.30896 0
M  V30 73 H 4.3203 3.57343 -3.19128 0
M  V30 74 H 2.6843 1.9628 -1.62316 0
M  V30 75 H 3.4673 1.32368 -3.16755 0
M  V30 76 N 5.9124 1.20967 1.01018 0
M  V30 77 C 6.8424 0.988272 2.11555 0
M  V30 78 C 7.8234 -0.0849778 1.69888 0
M  V30 79 O 9.0084 0.0738202 1.9406 0
M  V30 80 C 6.1384 0.546528 3.42973 0
M  V30 81 C 5.0924 1.56375 3.9841 0
M  V30 82 C 4.4184 0.97842 5.25672 0
M  V30 83 C 5.7184 2.94922 4.31066 0
M  V30 84 H 7.4124 1.91276 2.30334 0
M  V30 85 H 4.9584 0.921073 1.1069 0
M  V30 86 H 6.9114 0.378839 4.19694 0
M  V30 87 H 5.6354 -0.413598 3.23971 0
M  V30 88 H 4.2944 1.71891 3.23804 0
M  V30 89 H 3.9424 0.0101688 5.02999 0
M  V30 90 H 3.6424 1.65784 5.63728 0
M  V30 91 H 5.1664 0.821939 6.05043 0
M  V30 92 H 6.5804 2.8288 4.9865 0
M  V30 93 H 4.9774 3.5983 4.80253 0
M  V30 94 H 6.0474 3.4616 3.39561 0
M  V30 95 N 7.3905 -1.2043 1.01659 0
M  V30 96 C 8.3205 -2.25466 0.607226 0
M  V30 97 C 9.3015 -1.65853 -0.377716 0
M  V30 98 O 10.4865 -1.92409 -0.263149 0
M  V30 99 C 7.6165 -3.47256 -0.0552949 0
M  V30 100 C 6.5705 -4.19462 0.850632 0
M  V30 101 C 5.8965 -5.34673 0.0538859 0
M  V30 102 C 7.1965 -4.75603 2.15868 0
M  V30 103 H 8.8905 -2.59962 1.48526 0
M  V30 104 H 6.4365 -1.2496 0.715605 0
M  V30 105 H 8.3895 -4.19917 -0.353233 0
M  V30 106 H 7.1135 -3.11924 -0.968045 0
M  V30 107 H 5.7725 -3.48667 1.13257 0
M  V30 108 H 5.4205 -4.95585 -0.860514 0
M  V30 109 H 5.1205 -5.83913 0.657192 0
M  V30 110 H 6.6445 -6.10138 -0.237598 0
M  V30 111 H 8.0585 -5.40083 1.92311 0
M  V30 112 H 6.4555 -5.3528 2.71284 0
M  V30 113 H 7.5255 -3.94346 2.82169 0
M  V30 114 N 8.8686 -0.792821 -1.36206 0
M  V30 115 C 9.7986 -0.207853 -2.32573 0
M  V30 116 C 10.7796 0.659055 -1.56813 0
M  V30 117 O 11.9646 0.592176 -1.84951 0
M  V30 118 C 9.0946 0.655449 -3.41059 0
M  V30 119 C 8.0486 -0.111842 -4.27854 0
M  V30 120 C 7.3746 0.872274 -5.27537 0
M  V30 121 C 8.6746 -1.30299 -5.05786 0
M  V30 122 H 10.3686 -1.01294 -2.81744 0
M  V30 123 H 7.9146 -0.48854 -1.3546 0
M  V30 124 H 9.8676 1.07464 -4.07467 0
M  V30 125 H 8.5916 1.49328 -2.90463 0
M  V30 126 H 7.2506 -0.512053 -3.63006 0
M  V30 127 H 6.8986 1.70523 -4.73214 0
M  V30 128 H 6.5986 0.363291 -5.86476 0
M  V30 129 H 8.1226 1.28996 -5.96818 0
M  V30 130 H 9.5366 -0.959379 -5.65216 0
M  V30 131 H 7.9336 -1.7455 -5.74154 0
M  V30 132 H 9.0036 -2.09663 -4.37229 0
M  V30 133 N 10.3467 1.47872 -0.545128 0
M  V30 134 C 11.5927 2.02793 -0.0166104 0
M  V30 135 C 11.9257 1.41987 1.32489 0
M  V30 136 O 11.2007 0.571045 1.85928 0
M  V30 137 C 11.4837 3.59989 0.0893294 0
M  V30 138 C 11.3367 4.3125 -1.27841 0
M  V30 139 C 12.6557 4.32606 0.808724 0
M  V30 140 H 9.7747 0.736962 -0.00751035 0
M  V30 141 H 12.4167 1.76433 -0.705085 0
M  V30 142 H 10.5667 3.82579 0.675681 0
M  V30 143 H 12.2387 4.20035 -1.90704 0
M  V30 144 H 10.4817 3.92076 -1.85632 0
M  V30 145 H 11.1527 5.39736 -1.15713 0
M  V30 146 H 13.6287 4.14936 0.310992 0
M  V30 147 H 12.5047 5.42251 0.851782 0
M  V30 148 H 12.7657 4.00963 1.86229 0
M  V30 149 N 11.8248 0.280983 1.55075 0
M  V30 150 C 13.0718 -0.334115 1.99725 0
M  V30 151 C 13.3998 -1.5542 1.1694 0
M  V30 152 O 12.6548 -1.94361 0.228531 0
M  V30 153 C 12.9538 -0.754656 3.49342 0
M  V30 154 C 12.6198 0.361445 4.49449 0
M  V30 155 C 11.2818 0.667893 4.76542 0
M  V30 156 C 13.6338 1.11322 5.09173 0
M  V30 157 C 10.9618 1.7296 5.60626 0
M  V30 158 C 13.3138 2.1647 5.9441 0
M  V30 159 C 11.9778 2.47742 6.19822 0
M  V30 160 H 11.2478 -0.122261 0.730844 0
M  V30 161 H 13.8948 0.395917 1.87363 0
M  V30 162 H 12.1998 -1.56446 3.5921 0
M  V30 163 H 13.8968 -1.24142 3.813 0
M  V30 164 H 10.4868 0.112481 4.28452 0
M  V30 165 H 14.6708 0.88973 4.8826 0
M  V30 166 H 9.9268 1.97684 5.78559 0
M  V30 167 H 14.1008 2.75193 6.3972 0
M  V30 168 H 11.7278 3.30145 6.84769 0
M  V30 169 N 13.3029 -1.57598 0.00835791 0
M  V30 170 C 14.2659 -2.07884 -0.965242 0
M  V30 171 C 15.2659 -0.989825 -1.26725 0
M  V30 172 O 16.4559 -1.25218 -1.21104 0
M  V30 173 C 13.5879 -2.52731 -2.28779 0
M  V30 174 H 14.7809 -2.95178 -0.530112 0
M  V30 175 H 12.3339 -1.54458 -0.239283 0
M  V30 176 H 13.0689 -1.68705 -2.76964 0
M  V30 177 H 12.8539 -3.32272 -2.08177 0
M  V30 178 H 14.3439 -2.91933 -2.98605 0
M  V30 179 N 14.781 0.264519 -1.55364 0
M  V30 180 C 16.006 1.01726 -1.80739 0
M  V30 181 C 16.431 1.78836 -0.583044 0
M  V30 182 O 15.789 1.75167 0.467566 0
M  V30 183 C 15.837 1.94482 -3.03659 0
M  V30 184 O 14.941 3.03386 -2.7934 0
M  V30 185 H 14.282 0.290395 -0.597132 0
M  V30 186 H 16.812 0.290854 -2.02522 0
M  V30 187 H 16.822 2.36278 -3.32621 0
M  V30 188 H 15.497 1.37772 -3.92418 0
M  V30 189 H 14.074 2.65844 -2.61498 0
M  V30 190 N 16.2591 1.48442 0.529413 0
M  V30 191 C 17.5051 1.5672 1.28711 0
M  V30 192 C 17.8381 0.2406 1.92704 0
M  V30 193 O 17.1131 -0.753454 1.79313 0
M  V30 194 C 17.3961 2.70587 2.37603 0
M  V30 195 C 17.2491 4.12953 1.78297 0
M  V30 196 C 18.5681 2.80212 3.39366 0
M  V30 197 H 15.6871 0.570474 0.466613 0
M  V30 198 H 18.3291 1.80617 0.589706 0
M  V30 199 H 16.4791 2.50342 2.97088 0
M  V30 200 H 18.1511 4.44639 1.22858 0
M  V30 201 H 16.3941 4.19927 1.0883 0
M  V30 202 H 17.0651 4.88448 2.57144 0
M  V30 203 H 19.5411 2.98553 2.89836 0
M  V30 204 H 18.4171 3.61611 4.12951 0
M  V30 205 H 18.6781 1.88393 3.99951 0
M  V30 206 N 17.7372 -0.778329 1.37039 0
M  V30 207 C 18.9862 -1.53189 1.3121 0
M  V30 208 C 19.2992 -1.95328 -0.103095 0
M  V30 209 O 20.5052 -2.70012 -0.283826 0
M  V30 210 C 18.9612 -2.76591 2.30272 0
M  V30 211 C 18.5692 -2.41577 3.77286 0
M  V30 212 C 20.3132 -3.5455 2.33441 0
M  V30 213 C 18.2202 -3.61441 4.68096 0
M  V30 214 H 17.1502 -0.5751 0.487622 0
M  V30 215 H 19.8012 -0.853101 1.62464 0
M  V30 216 H 18.1832 -3.46326 1.92027 0
M  V30 217 H 19.3572 -1.79668 4.2433 0
M  V30 218 H 17.6722 -1.76806 3.76999 0
M  V30 219 H 20.2692 -4.43628 2.98493 0
M  V30 220 H 20.6122 -3.93936 1.34611 0
M  V30 221 H 21.1452 -2.91805 2.7036 0
M  V30 222 H 17.8842 -3.27142 5.6803 0
M  V30 223 H 17.4042 -4.22478 4.25761 0
M  V30 224 H 19.0832 -4.28335 4.8491 0
M  V30 225 N 19.2153 -1.21501 -1.00376 0
M  V30 226 C 20.6263 -1.03146 -1.55621 0
M  V30 227 C 20.9773 0.408375 -1.91903 0
M  V30 228 O 20.1023 1.29177 -1.73616 0
M  V30 229 C 20.6973 -1.86612 -2.82775 0
M  V30 230 C 19.2563 -1.72586 -3.34501 0
M  V30 231 C 18.4033 -1.83747 -2.07683 0
M  V30 232 H 21.3543 -1.35505 -0.826081 0
M  V30 233 H 21.3753 -1.3771 -3.54706 0
M  V30 234 H 20.8873 -2.91399 -2.56336 0
M  V30 235 H 18.9883 -0.704877 -3.65872 0
M  V30 236 H 19.1013 -2.54623 -4.05837 0
M  V30 237 H 17.4653 -1.27069 -2.20739 0
M  V30 238 H 18.2483 -2.90044 -1.83655 0
M  V30 239 N 20.6934 1.19889 -1.02296 0
M  V30 240 C 21.9414 1.89046 -0.714558 0
M  V30 241 C 22.2624 1.79636 0.758681 0
M  V30 242 O 21.5324 1.20292 1.54618 0
M  V30 243 H 20.1124 0.699802 -0.261317 0
M  V30 244 H 22.7744 1.45574 -1.29592 0
M  V30 245 H 21.8704 2.95524 -1.0036 0
M  V30 246 N 22.1715 0.800033 1.35784 0
M  V30 247 C 23.1345 0.211565 2.28221 0
M  V30 248 C 24.1345 -0.59728 1.49296 0
M  V30 249 O 25.3245 -0.416721 1.69142 0
M  V30 250 C 22.4565 -0.705846 3.33513 0
M  V30 251 H 23.6495 1.02677 2.81776 0
M  V30 252 H 21.2025 0.570211 1.45528 0
M  V30 253 H 21.9375 -1.54498 2.85133 0
M  V30 254 H 21.7225 -0.127655 3.91892 0
M  V30 255 H 23.2125 -1.11211 4.02519 0
M  V30 256 N 23.6496 -1.47581 0.552962 0
M  V30 257 C 24.8956 -2.02782 0.0273648 0
M  V30 258 C 25.2286 -1.42687 -1.31734 0
M  V30 259 O 24.5036 -0.580897 -1.85623 0
M  V30 260 C 24.7866 -3.60031 -0.0702371 0
M  V30 261 C 24.6396 -4.30566 1.30126 0
M  V30 262 C 25.9586 -4.33028 -0.785771 0
M  V30 263 H 23.0776 -0.736912 0.0114185 0
M  V30 264 H 25.7196 -1.76056 0.714432 0
M  V30 265 H 23.8696 -3.82932 -0.655382 0
M  V30 266 H 25.5416 -4.19018 1.92929 0
M  V30 267 H 23.7846 -3.91086 1.87709 0
M  V30 268 H 24.4556 -5.39114 1.18573 0
M  V30 269 H 26.9316 -4.15095 -0.288982 0
M  V30 270 H 25.8076 -5.42695 -0.823013 0
M  V30 271 H 26.0686 -4.01945 -1.841 0
M  V30 272 N 25.1277 -0.289203 -1.54924 0
M  V30 273 C 26.0577 0.58549 -2.2604 0
M  V30 274 C 27.0387 1.14753 -1.25562 0
M  V30 275 O 28.2237 1.17906 -1.54311 0
M  V30 276 C 25.3537 1.76305 -2.99222 0
M  V30 277 C 24.3077 1.33191 -4.06748 0
M  V30 278 C 23.6337 2.5937 -4.6758 0
M  V30 279 C 24.9337 0.471775 -5.20165 0
M  V30 280 H 26.6277 -0.00763532 -2.99399 0
M  V30 281 H 24.1737 -0.00511229 -1.43999 0
M  V30 282 H 26.1267 2.38097 -3.47689 0
M  V30 283 H 24.8507 2.38223 -2.23422 0
M  V30 284 H 23.5097 0.737121 -3.59113 0
M  V30 285 H 23.1577 3.19576 -3.88433 0
M  V30 286 H 22.8577 2.31228 -5.40192 0
M  V30 287 H 24.3817 3.21985 -5.18804 0
M  V30 288 H 25.7957 0.995056 -5.64599 0
M  V30 289 H 24.1927 0.284639 -5.99425 0
M  V30 290 H 25.2627 -0.506041 -4.82252 0
M  V30 291 N 26.6058 1.57591 -0.0167156 0
M  V30 292 C 27.5358 2.12496 0.967858 0
M  V30 293 C 28.5168 1.03807 1.34752 0
M  V30 294 O 29.7018 1.31577 1.42833 0
M  V30 295 C 26.8318 2.64194 2.25431 0
M  V30 296 C 25.7858 3.77559 2.01576 0
M  V30 297 C 25.1118 4.15636 3.36379 0
M  V30 298 C 26.4118 5.04151 1.36489 0
M  V30 299 H 28.1058 2.95013 0.510643 0
M  V30 300 H 25.6518 1.41915 0.244181 0
M  V30 301 H 27.6048 3.01236 2.94678 0
M  V30 302 H 26.3288 1.78821 2.73296 0
M  V30 303 H 24.9878 3.40937 1.34751 0
M  V30 304 H 24.6358 3.27263 3.81979 0
M  V30 305 H 24.3358 4.92022 3.21229 0
M  V30 306 H 25.8598 4.5525 4.06915 0
M  V30 307 H 27.2738 5.38857 1.95718 0
M  V30 308 H 25.6708 5.85453 1.31776 0
M  V30 309 H 26.7408 4.83733 0.336219 0
M  V30 310 N 28.0839 -0.256276 1.55502 0
M  V30 311 C 29.0139 -1.32102 1.92539 0
M  V30 312 C 29.9949 -1.50684 0.789194 0
M  V30 313 O 31.1799 -1.63449 1.04872 0
M  V30 314 C 28.3099 -2.67752 2.21192 0
M  V30 315 C 27.2639 -2.63878 3.36975 0
M  V30 316 C 26.5899 -4.03236 3.51147 0
M  V30 317 C 27.8899 -2.21682 4.72921 0
M  V30 318 H 29.5839 -1.01351 2.81724 0
M  V30 319 H 27.1299 -0.486105 1.35547 0
M  V30 320 H 29.0829 -3.42365 2.45691 0
M  V30 321 H 27.8069 -3.0012 1.28824 0
M  V30 322 H 26.4659 -1.91722 3.12471 0
M  V30 323 H 26.1139 -4.32854 2.56216 0
M  V30 324 H 25.8139 -4.01535 4.29003 0
M  V30 325 H 27.3379 -4.79563 3.77957 0
M  V30 326 H 28.7519 -2.86023 4.96854 0
M  V30 327 H 27.1489 -2.3111 5.53812 0
M  V30 328 H 28.2189 -1.16833 4.70615 0
M  V30 329 N 29.562 -1.4872 -0.521534 0
M  V30 330 C 30.839 -1.4766 -1.2828 0
M  V30 331 C 31.219 -0.19292 -2.10217 0
M  V30 332 O 30.567 0.825193 -2.13079 0
M  V30 333 C 30.777 -2.74358 -2.15705 0
M  V30 334 C 32.125 -3.23028 -2.75569 0
M  V30 335 O 33.149 -2.75333 -2.25987 0
M  V30 336 O 32.008 -4.0604 -3.65778 0
M  V30 337 H 29.102 -0.590085 -0.579421 0
M  V30 338 H 31.648 -1.60963 -0.537492 0
M  V30 339 H 30.42 -3.59292 -1.54999 0
M  V30 340 H 30.043 -2.63816 -2.97467 0
M  V30 341 N 31.0401 0.771051 -1.3745 0
M  V30 342 C 32.2681 1.56015 -1.35893 0
M  V30 343 C 32.6831 1.88718 0.0555523 0
M  V30 344 O 32.0401 1.51502 1.01752 0
M  V30 345 C 32.0911 2.87001 -2.19801 0
M  V30 346 O 31.8121 2.557 -3.55738 0
M  V30 347 C 33.3131 3.81228 -2.26231 0
M  V30 348 H 30.5331 0.483317 -0.465453 0
M  V30 349 H 33.0771 0.955611 -1.80799 0
M  V30 350 H 31.2321 3.43877 -1.78402 0
M  V30 351 H 31.6461 3.39584 -3.99729 0
M  V30 352 H 33.1201 4.70139 -2.89263 0
M  V30 353 H 33.5971 4.20409 -1.27093 0
M  V30 354 H 34.2031 3.30281 -2.67945 0
M  V30 355 N 32.5182 1.22032 0.997298 0
M  V30 356 C 33.9342 0.979326 1.26021 0
M  V30 357 C 34.1342 -0.32972 1.98784 0
M  V30 358 O 33.1902 -1.05345 2.29475 0
M  V30 359 C 34.5032 2.17509 2.07631 0
M  V30 360 C 36.0512 2.21817 2.2083 0
M  V30 361 C 36.5262 3.40933 3.05825 0
M  V30 362 N 38.0172 3.41067 3.13412 0
M  V30 363 C 38.7522 4.29885 3.79455 0
M  V30 364 N 38.2482 5.28914 4.47462 0
M  V30 365 N 40.0412 4.17673 3.76173 0
M  V30 366 H 32.1922 2.06202 0.509352 0
M  V30 367 H 34.4552 0.90334 0.287541 0
M  V30 368 H 34.1612 3.12415 1.61524 0
M  V30 369 H 34.0352 2.17206 3.08385 0
M  V30 370 H 36.4222 1.27462 2.66153 0
M  V30 371 H 36.5032 2.2616 1.1952 0
M  V30 372 H 36.1472 4.35586 2.61203 0
M  V30 373 H 36.0772 3.33829 4.07266 0
M  V30 374 H 38.5682 2.69406 2.65007 0
M  V30 375 H 38.8812 5.92973 4.95583 0
M  V30 376 H 37.2262 5.32831 4.46224 0
M  V30 377 H 40.4172 3.39564 3.22202 0
M  V30 378 H 40.5902 4.87098 4.27363 0
M  V30 379 N 33.9963 -1.19345 1.0293 0
M  V30 380 C 34.9283 -2.22036 0.56857 0
M  V30 381 C 35.9413 -1.58865 -0.355779 0
M  V30 382 O 37.1303 -1.77851 -0.152103 0
M  V30 383 C 34.2303 -3.38363 -0.190752 0
M  V30 384 C 33.4033 -4.31118 0.738643 0
M  V30 385 C 32.4623 -5.26194 0.0246497 0
M  V30 386 O 31.4883 -5.65461 0.651354 0
M  V30 387 N 32.6903 -5.66971 -1.24594 0
M  V30 388 H 35.4553 -2.6219 1.45177 0
M  V30 389 H 33.0163 -1.34015 0.908381 0
M  V30 390 H 35.0083 -3.98981 -0.677961 0
M  V30 391 H 33.5783 -2.96994 -0.975366 0
M  V30 392 H 32.7983 -3.68276 1.40593 0
M  V30 393 H 34.0863 -4.90001 1.37029 0
M  V30 394 H 33.4843 -5.37104 -1.77583 0
M  V30 395 H 32.0413 -6.2984 -1.67764 0
M  V30 396 N 35.4744 -0.807222 -1.35358 0
M  V30 397 C 36.7214 -0.387888 -1.9875 0
M  V30 398 C 37.0494 1.04509 -1.64037 0
M  V30 399 O 36.3044 1.73986 -0.895946 0
M  V30 400 C 36.6034 -0.519036 -3.53611 0
M  V30 401 C 36.2694 -1.91542 -4.08194 0
M  V30 402 C 34.9314 -2.29745 -4.22813 0
M  V30 403 C 37.2834 -2.82896 -4.37744 0
M  V30 404 C 34.6114 -3.58668 -4.643 0
M  V30 405 C 36.9634 -4.11265 -4.8067 0
M  V30 406 C 35.6274 -4.49466 -4.93494 0
M  V30 407 H 34.8974 -0.141938 -0.727279 0
M  V30 408 H 37.5444 -1.02814 -1.6156 0
M  V30 409 H 35.8494 0.204658 -3.91265 0
M  V30 410 H 37.5464 -0.175345 -4.00616 0
M  V30 411 H 34.1364 -1.60862 -3.97268 0
M  V30 412 H 38.3204 -2.54629 -4.26002 0
M  V30 413 H 33.5764 -3.88113 -4.72418 0
M  V30 414 H 37.7504 -4.82153 -5.02496 0
M  V30 415 H 35.3774 -5.49418 -5.25399 0
M  V30 416 N 36.9525 1.47285 -0.560781 0
M  V30 417 C 37.8825 2.32857 0.173105 0
M  V30 418 C 38.8635 1.44009 0.905281 0
M  V30 419 O 40.0485 1.7286 0.885046 0
M  V30 420 C 37.1785 3.25861 1.20133 0
M  V30 421 C 36.1325 4.23978 0.585388 0
M  V30 422 C 35.4585 5.06332 1.7185 0
M  V30 423 C 36.7585 5.20242 -0.463178 0
M  V30 424 H 38.4525 2.94466 -0.541307 0
M  V30 425 H 35.9985 1.41601 -0.261764 0
M  V30 426 H 37.9515 3.84569 1.72293 0
M  V30 427 H 36.6755 2.62315 1.94573 0
M  V30 428 H 35.3345 3.66501 0.085054 0
M  V30 429 H 34.9825 4.39186 2.45203 0
M  V30 430 H 34.6825 5.72762 1.31213 0
M  V30 431 H 36.2065 5.67899 2.24329 0
M  V30 432 H 37.6205 5.73293 -0.027502 0
M  V30 433 H 36.0175 5.94896 -0.788627 0
M  V30 434 H 37.0875 4.65504 -1.35773 0
M  V30 435 N 38.4306 0.297415 1.54768 0
M  V30 436 C 39.6796 -0.313669 1.99246 0
M  V30 437 C 39.9926 -1.55281 1.18942 0
M  V30 438 O 41.1986 -2.23825 1.5367 0
M  V30 439 C 39.6546 -0.609407 3.54703 0
M  V30 440 C 39.2626 0.611192 4.43811 0
M  V30 441 C 41.0066 -1.18188 4.07715 0
M  V30 442 C 38.9136 0.288805 5.90694 0
M  V30 443 H 37.8436 -0.120979 0.744231 0
M  V30 444 H 40.4946 0.40556 1.78962 0
M  V30 445 H 38.8766 -1.38813 3.70873 0
M  V30 446 H 40.0506 1.3875 4.39414 0
M  V30 447 H 38.3656 1.10205 4.01552 0
M  V30 448 H 40.9626 -1.43727 5.15021 0
M  V30 449 H 41.3056 -2.12299 3.58099 0
M  V30 450 H 41.8386 -0.464944 3.95074 0
M  V30 451 H 38.5776 1.19838 6.44453 0
M  V30 452 H 38.0976 -0.450305 5.98107 0
M  V30 453 H 39.7766 -0.110933 6.46905 0
M  V30 454 N 39.9087 -1.5758 0.0250728 0
M  V30 455 C 41.1387 -1.95646 -0.663783 0
M  V30 456 C 41.5467 -0.899935 -1.66427 0
M  V30 457 O 40.8897 0.127191 -1.83259 0
M  V30 458 C 40.9517 -3.29835 -1.43 0
M  V30 459 C 40.6157 -4.53197 -0.588305 0
M  V30 460 C 41.6127 -5.19726 0.13469 0
M  V30 461 C 39.2977 -4.99529 -0.526897 0
M  V30 462 C 41.2917 -6.30902 0.90781 0
M  V30 463 C 38.9787 -6.10589 0.24993 0
M  V30 464 C 39.9767 -6.76134 0.965994 0
M  V30 465 O 39.6647 -7.85062 1.7301 0
M  V30 466 H 39.3967 -0.649282 -0.188174 0
M  V30 467 H 41.9507 -2.05245 0.0799006 0
M  V30 468 H 40.1807 -3.16716 -2.21873 0
M  V30 469 H 41.8697 -3.52833 -2.00658 0
M  V30 470 H 42.6357 -4.84904 0.0965562 0
M  V30 471 H 38.5147 -4.48319 -1.07381 0
M  V30 472 H 42.0587 -6.81995 1.46724 0
M  V30 473 H 37.9557 -6.44849 0.289795 0
M  V30 474 H 38.7237 -8.01708 1.64944 0
M  V30 475 N 41.3868 0.248026 -1.55636 0
M  V30 476 C 42.3348 1.32683 -1.91045 0
M  V30 477 C 43.3288 1.49883 -0.789401 0
M  V30 478 O 44.5348 1.51371 -0.974007 0
M  V30 479 H 40.9098 0.444272 -0.606734 0
M  V30 480 H 42.8808 1.00085 -2.81115 0
M  V30 481 C 41.6298 2.6755 -2.22064 0
M  V30 482 H 40.9528 2.55114 -3.07826 0
M  V30 483 H 42.3928 3.41912 -2.50743 0
M  V30 484 C 40.8518 3.20556 -1.0366 0
M  V30 485 O 41.3818 4.00695 -0.284016 0
M  V30 486 N 39.5878 2.78568 -0.82753 0
M  V30 487 H 39.1348 2.1351 -1.44123 0
M  V30 488 H 39.0928 3.14378 -0.0369803 0
M  V30 489 N 42.8649 1.48995 0.513639 0
M  V30 490 C 43.7749 1.67443 1.64317 0
M  V30 491 C 44.7909 0.556947 1.64846 0
M  V30 492 O 45.9669 0.830082 1.83498 0
M  V30 493 C 43.0319 1.72515 3.00732 0
M  V30 494 C 42.0929 2.96009 3.1093 0
M  V30 495 C 41.3259 3.00829 4.40837 0
M  V30 496 O 41.5489 2.13594 5.28898 0
M  V30 497 O 40.4829 3.93168 4.55744 0
M  V30 498 H 44.3089 2.63106 1.51687 0
M  V30 499 H 41.8939 1.32588 0.688543 0
M  V30 500 H 43.7759 1.78277 3.81831 0
M  V30 501 H 42.4509 0.800278 3.13651 0
M  V30 502 H 41.3579 2.9577 2.29065 0
M  V30 503 H 42.6909 3.87934 3.02933 0
M  V30 504 N 44.343 -0.763751 1.37857 0
M  V30 505 C 45.62 -1.51244 1.24035 0
M  V30 506 C 46 -2.10472 -0.162649 0
M  V30 507 O 45.348 -1.96206 -1.17112 0
M  V30 508 C 45.558 -2.58694 2.34261 0
M  V30 509 C 46.906 -3.25878 2.72193 0
M  V30 510 O 47.93 -2.68993 2.33497 0
M  V30 511 O 46.789 -4.2874 3.38887 0
M  V30 512 H 43.883 -0.670243 0.484462 0
M  V30 513 H 46.429 -0.800031 1.49658 0
M  V30 514 H 45.201 -2.13105 3.2818 0
M  V30 515 H 44.824 -3.37527 2.10146 0
M  V30 516 N 45.8211 -1.22559 -0.990812 0
M  V30 517 C 46.7711 -0.964807 -2.0658 0
M  V30 518 C 47.7551 0.0853472 -1.60673 0
M  V30 519 O 48.9471 -0.125443 -1.76555 0
M  V30 520 C 46.0761 -0.546707 -3.38919 0
M  V30 521 C 45.1621 -1.6317 -3.91454 0
M  V30 522 N 45.5531 -2.85985 -4.17189 0
M  V30 523 C 43.8511 -1.50387 -4.19881 0
M  V30 524 C 44.5521 -3.56159 -4.59919 0
M  V30 525 N 43.5281 -2.83637 -4.63736 0
M  V30 526 H 47.3301 -1.89769 -2.24421 0
M  V30 527 H 44.8441 -1.12343 -1.17273 0
M  V30 528 H 46.8411 -0.34119 -4.15502 0
M  V30 529 H 45.5011 0.379254 -3.22478 0
M  V30 530 H 46.5121 -3.22392 -4.05319 0
M  V30 531 H 43.1891 -0.644254 -4.12499 0
M  V30 532 H 44.5791 -4.6139 -4.88435 0
M  V30 533 N 47.2992 1.18797 -1.03562 0
M  V30 534 C 48.2462 2.22253 -0.622259 0
M  V30 535 C 49.2162 1.61987 0.36736 0
M  V30 536 O 50.4012 1.88986 0.262492 0
M  V30 537 C 47.5412 3.45097 0.0138462 0
M  V30 538 C 46.6542 4.19722 -1.02263 0
M  V30 539 C 45.7892 5.30009 -0.355573 0
M  V30 540 C 44.8282 5.96399 -1.37749 0
M  V30 541 N 43.9652 6.98234 -0.735766 0
M  V30 542 H 48.8052 2.56968 -1.50903 0
M  V30 543 H 46.3422 1.26245 -0.755017 0
M  V30 544 H 48.3002 4.15279 0.399948 0
M  V30 545 H 46.9302 3.11018 0.864158 0
M  V30 546 H 45.9822 3.48418 -1.52673 0
M  V30 547 H 47.2942 4.65227 -1.79903 0
M  V30 548 H 46.4482 6.0664 0.0850095 0
M  V30 549 H 45.1872 4.85592 0.452967 0
M  V30 550 H 44.1922 5.18512 -1.82826 0
M  V30 551 H 45.4172 6.42899 -2.18764 0
M  V30 552 H 43.3632 6.55979 0.0525597 0
M  V30 553 H 43.2802 7.41965 -1.44995 0
M  V30 554 H 44.5482 7.78845 -0.31941 0
M  V30 555 N 48.7773 0.814389 1.34928 0
M  V30 556 C 50.1933 0.499084 1.51596 0
M  V30 557 C 50.3933 -0.978319 1.76157 0
M  V30 558 O 49.4493 -1.76309 1.80752 0
M  V30 559 C 50.7623 1.35121 2.68631 0
M  V30 560 C 52.3103 1.34746 2.82511 0
M  V30 561 C 52.7853 2.18388 4.0258 0
M  V30 562 N 54.2763 2.15966 4.09772 0
M  V30 563 C 55.0113 2.77437 5.01813 0
M  V30 564 N 54.5073 3.47866 5.99134 0
M  V30 565 N 56.3003 2.67037 4.94619 0
M  V30 566 H 48.4513 1.7711 1.17243 0
M  V30 567 H 50.7143 0.754256 0.574284 0
M  V30 568 H 50.4203 2.40001 2.57085 0
M  V30 569 H 50.2943 1.00991 3.63429 0
M  V30 570 H 52.6813 0.30648 2.93504 0
M  V30 571 H 52.7623 1.72869 1.88547 0
M  V30 572 H 52.4063 3.2253 3.92347 0
M  V30 573 H 52.3363 1.77621 4.9574 0
M  V30 574 H 54.8273 1.64729 3.40107 0
M  V30 575 H 55.1403 3.92038 6.65977 0
M  V30 576 H 53.4853 3.51972 5.99284 0
M  V30 577 H 56.6763 2.11597 4.17546 0
M  V30 578 H 56.8493 3.15232 5.66156 0
M  V30 579 N 50.2554 -1.46986 0.568584 0
M  V30 580 C 51.4954 -2.04336 0.0512999 0
M  V30 581 C 51.8594 -1.43214 -1.27881 0
M  V30 582 O 53.0604 -1.91679 -1.88448 0
M  V30 583 C 51.3314 -3.57389 -0.0282328 0
M  V30 584 S 52.8904 -4.36056 -0.489991 0
M  V30 585 H 49.7084 -0.71034 0.0306349 0
M  V30 586 H 52.3104 -1.80212 0.757891 0
M  V30 587 H 51.0144 -3.99395 0.944011 0
M  V30 588 H 50.5454 -3.86028 -0.75803 0
M  V30 589 H 52.5604 -4.6441 -1.74752 0
M  V30 590 N 51.7335 -0.305618 -1.54608 0
M  V30 591 C 52.9795 0.302746 -2.00528 0
M  V30 592 C 53.3125 1.53184 -1.19367 0
M  V30 593 O 52.5875 1.92598 -0.271321 0
M  V30 594 C 52.8705 0.654756 -3.54097 0
M  V30 595 C 52.7235 -0.583793 -4.45995 0
M  V30 596 C 54.0425 1.47947 -4.14487 0
M  V30 597 H 51.1615 0.108564 -0.72896 0
M  V30 598 H 53.8035 -0.418634 -1.85331 0
M  V30 599 H 51.9535 1.26935 -3.67178 0
M  V30 600 H 53.6255 -1.22224 -4.44814 0
M  V30 601 H 51.8685 -1.21615 -4.16404 0
M  V30 602 H 52.5395 -0.293287 -5.5122 0
M  V30 603 H 55.0155 0.96013 -4.04871 0
M  V30 604 H 53.8915 1.69454 -5.22088 0
M  V30 605 H 54.1525 2.47011 -3.66658 0
M  V30 606 N 53.2116 1.57565 -0.0334293 0
M  V30 607 C 54.4886 1.83282 0.683163 0
M  V30 608 C 54.8686 0.91823 1.90084 0
M  V30 609 O 54.2166 -0.025113 2.28486 0
M  V30 610 C 54.4266 3.32599 1.0573 0
M  V30 611 C 55.7746 3.99179 1.44711 0
M  V30 612 O 56.7986 3.3712 1.15015 0
M  V30 613 O 55.6576 5.08565 2.0006 0
M  V30 614 H 52.7516 0.755869 0.335546 0
M  V30 615 H 55.2976 1.69589 -0.0614402 0
M  V30 616 H 54.0696 3.90834 0.190828 0
M  V30 617 H 53.6926 3.51415 1.85993 0
M  V30 618 N 54.6897 -0.239769 1.55765 0
M  V30 619 C 55.6527 -1.28038 1.90103 0
M  V30 620 C 56.6527 -1.40723 0.778055 0
M  V30 621 O 57.8427 -1.39301 1.04599 0
M  V30 622 C 54.9747 -2.65702 2.13577 0
M  V30 623 H 56.1677 -0.988048 2.83157 0
M  V30 624 H 53.7207 -0.479382 1.48767 0
M  V30 625 H 54.4557 -3.00063 1.23015 0
M  V30 626 H 54.2407 -2.57875 2.95369 0
M  V30 627 H 55.7307 -3.40828 2.41301 0
M  V30 628 N 56.1678 -1.49265 -0.50573 0
M  V30 629 C 57.4138 -1.58748 -1.26202 0
M  V30 630 C 57.7468 -0.271227 -1.92297 0
M  V30 631 O 57.0218 0.724831 -1.80489 0
M  V30 632 C 57.3048 -2.74332 -2.33268 0
M  V30 633 C 57.1578 -4.15737 -1.71705 0
M  V30 634 C 58.4768 -2.85576 -3.34865 0
M  V30 635 H 55.5958 -0.577826 -0.457478 0
M  V30 636 H 58.2378 -1.81532 -0.560897 0
M  V30 637 H 56.3878 -2.55036 -2.93068 0
M  V30 638 H 58.0598 -4.46537 -1.15769 0
M  V30 639 H 56.3028 -4.21605 -1.02135 0
M  V30 640 H 56.9738 -4.92477 -2.49341 0
M  V30 641 H 59.4498 -3.03127 -2.8505 0
M  V30 642 H 58.3258 -3.68135 -4.07146 0
M  V30 643 H 58.5868 -1.94732 -3.96903 0
M  V30 644 N 57.6459 0.756429 -1.3826 0
M  V30 645 C 58.8709 1.55077 -1.37717 0
M  V30 646 C 59.2959 1.88073 0.03164 0
M  V30 647 O 58.6539 1.50364 1.01293 0
M  V30 648 C 58.7019 2.8283 -2.23695 0
M  V30 649 O 57.8059 3.77862 -1.6521 0
M  V30 650 H 57.1469 0.469152 -0.469885 0
M  V30 651 H 59.6769 0.935019 -1.81985 0
M  V30 652 H 59.6869 3.31783 -2.37453 0
M  V30 653 H 58.3619 2.58144 -3.2609 0
M  V30 654 H 56.9389 3.36555 -1.60578 0
M  V30 655 N 59.124 1.23083 0.984299 0
M  V30 656 C 60.535 1.05609 1.5396 0
M  V30 657 C 60.886 -0.377793 1.92528 0
M  V30 658 O 60.011 -1.26398 1.75649 0
M  V30 659 C 60.606 1.91087 2.7977 0
M  V30 660 C 59.165 1.77885 3.31713 0
M  V30 661 C 58.312 1.87028 2.04733 0
M  V30 662 H 61.263 1.36802 0.804419 0
M  V30 663 H 61.284 1.43336 3.5247 0
M  V30 664 H 60.796 2.9544 2.51668 0
M  V30 665 H 58.897 0.762995 3.64704 0
M  V30 666 H 59.01 2.61047 4.01735 0
M  V30 667 H 57.374 1.30565 2.18689 0
M  V30 668 H 58.157 2.92929 1.79017 0
M  V30 669 N 60.6021 -1.18246 1.0419 0
M  V30 670 C 61.8271 -1.92736 0.765996 0
M  V30 671 C 62.2521 -1.75728 -0.67091 0
M  V30 672 O 61.6101 -1.06825 -1.46486 0
M  V30 673 C 61.6581 -3.42148 1.13875 0
M  V30 674 O 60.7621 -4.11548 0.264954 0
M  V30 675 H 60.1031 -0.601238 0.281797 0
M  V30 676 H 62.6331 -1.49942 1.39207 0
M  V30 677 H 62.6431 -3.92858 1.1012 0
M  V30 678 H 61.3181 -3.53848 2.18551 0
M  V30 679 H 59.8951 -3.71137 0.362226 0
M  V30 680 N 62.0802 -0.821533 -1.34494 0
M  V30 681 C 63.0432 -0.247847 -2.27856 0
M  V30 682 C 64.0432 0.573453 -1.50227 0
M  V30 683 O 65.2332 0.389759 -1.69784 0
M  V30 684 C 62.3652 0.652698 -3.34593 0
M  V30 685 H 63.5582 -1.07146 -2.80107 0
M  V30 686 H 61.1112 -0.593291 -1.44602 0
M  V30 687 H 61.8462 1.49943 -2.87555 0
M  V30 688 H 61.6312 0.065292 -3.92046 0
M  V30 689 H 63.1212 1.04793 -4.04238 0
M  V30 690 N 63.5583 1.46682 -0.576371 0
M  V30 691 C 64.8043 2.02712 -0.0596221 0
M  V30 692 C 65.1373 1.44765 1.29448 0
M  V30 693 O 64.4123 0.610355 1.84675 0
M  V30 694 C 64.6953 3.60098 0.0129503 0
M  V30 695 C 64.5483 4.28441 -1.3696 0
M  V30 696 C 65.8673 4.34224 0.71678 0
M  V30 697 H 62.9863 0.736637 -0.0231407 0
M  V30 698 H 65.6283 1.74898 -0.742351 0
M  V30 699 H 63.7783 3.83926 0.594378 0
M  V30 700 H 65.4503 4.15896 -1.9957 0
M  V30 701 H 63.6933 3.8805 -1.93907 0
M  V30 702 H 64.3643 5.3716 -1.27135 0
M  V30 703 H 66.8403 4.15503 0.222908 0
M  V30 704 H 65.7163 5.43936 0.73657 0
M  V30 705 H 65.9773 4.04823 1.77682 0
M  V30 706 N 65.0364 0.313813 1.54444 0
M  V30 707 C 65.9684 -0.590425 2.21465 0
M  V30 708 C 66.9814 -1.08753 1.21147 0
M  V30 709 O 68.1704 -1.00278 1.4767 0
M  V30 710 C 65.2704 -1.82179 2.85769 0
M  V30 711 C 64.4434 -1.46502 4.12136 0
M  V30 712 C 63.5024 -2.55288 4.60124 0
M  V30 713 O 62.5284 -2.19842 5.25032 0
M  V30 714 N 63.7304 -3.86053 4.33525 0
M  V30 715 H 66.4954 -0.0166033 2.99695 0
M  V30 716 H 64.0564 0.136578 1.61323 0
M  V30 717 H 66.0484 -2.54328 3.14801 0
M  V30 718 H 64.6184 -2.30369 2.11303 0
M  V30 719 H 63.8384 -0.575595 3.89975 0
M  V30 720 H 65.1264 -1.20221 4.94393 0
M  V30 721 H 64.5244 -4.17654 3.81552 0
M  V30 722 H 63.0814 -4.54461 4.67235 0
M  V30 723 N 66.5145 -1.57545 0.0417849 0
M  V30 724 C 67.7425 -1.96624 -0.643928 0
M  V30 725 C 68.1575 -0.918897 -1.64929 0
M  V30 726 O 67.5145 0.0979323 -1.82237 0
M  V30 727 C 67.5655 -3.35781 -1.33914 0
M  V30 728 O 67.2865 -4.365 -0.374048 0
M  V30 729 C 68.7875 -3.89566 -2.1155 0
M  V30 730 H 66.0075 -0.647316 -0.176702 0
M  V30 731 H 68.5515 -2.04229 0.105304 0
M  V30 732 H 66.7065 -3.29357 -2.03968 0
M  V30 733 H 67.1205 -5.17248 -0.869179 0
M  V30 734 H 68.5945 -4.89242 -2.55628 0
M  V30 735 H 69.0715 -3.24488 -2.9598 0
M  V30 736 H 69.6775 -3.99298 -1.46427 0
M  V30 737 N 67.9926 0.231505 -1.5589 0
M  V30 738 C 68.9556 1.27028 -1.90779 0
M  V30 739 C 69.9556 1.40308 -0.785507 0
M  V30 740 O 71.1456 1.38744 -1.05336 0
M  V30 741 C 68.2776 2.64566 -2.14983 0
M  V30 742 H 69.4706 0.973017 -2.83677 0
M  V30 743 H 67.0236 0.471486 -1.49019 0
M  V30 744 H 67.7586 2.99406 -1.24604 0
M  V30 745 H 67.5436 2.56305 -2.96732 0
M  V30 746 H 69.0336 3.39543 -2.43105 0
M  V30 747 N 69.4707 1.49531 0.497807 0
M  V30 748 C 70.4337 1.65916 1.58128 0
M  V30 749 C 71.4337 0.530825 1.51786 0
M  V30 750 O 72.6237 0.797342 1.54881 0
M  V30 751 C 69.7557 1.65951 2.9778 0
M  V30 752 H 70.9487 2.62556 1.44929 0
M  V30 753 H 68.5017 1.38611 0.722275 0
M  V30 754 H 69.2367 0.709065 3.16453 0
M  V30 755 H 69.0217 2.47897 3.03792 0
M  V30 756 H 70.5117 1.80673 3.76493 0
M  V30 757 N 70.9488 -0.749086 1.3866 0
M  V30 758 C 72.1888 -1.52112 1.36534 0
M  V30 759 C 72.5528 -1.91951 -0.0432316 0
M  V30 760 O 73.7538 -2.68132 -0.189396 0
M  V30 761 C 72.0248 -2.73704 2.29828 0
M  V30 762 S 73.5838 -3.63519 2.45763 0
M  V30 763 H 70.4018 -0.520482 0.484375 0
M  V30 764 H 73.0038 -0.878963 1.74627 0
M  V30 765 H 71.7078 -2.42552 3.31054 0
M  V30 766 H 71.2388 -3.4286 1.929 0
M  V30 767 H 73.2538 -4.66712 1.68505 0
M  V30 768 N 72.4269 -1.23603 -0.977757 0
M  V30 769 C 73.3749 -1.01704 -2.09187 0
M  V30 770 C 74.3689 0.0448214 -1.69341 0
M  V30 771 O 75.5749 -0.108902 -1.7967 0
M  V30 772 H 71.9499 -0.311803 -0.684312 0
M  V30 773 H 73.9209 -1.96207 -2.24823 0
M  V30 774 C 72.6699 -0.627746 -3.41986 0
M  V30 775 H 71.9929 -1.43656 -3.73099 0
M  V30 776 H 73.4329 -0.514053 -4.20872 0
M  V30 777 C 71.8919 0.664238 -3.30287 0
M  V30 778 O 72.4219 1.71268 -3.6336 0
M  V30 779 N 70.6279 0.641156 -2.83439 0
M  V30 780 H 70.1749 -0.212376 -2.56723 0
M  V30 781 H 70.1329 1.50583 -2.75993 0
M  V30 782 N 73.905 1.17692 -1.04816 0
M  V30 783 C 74.837 2.21103 -0.603822 0
M  V30 784 C 75.85 1.59411 0.33046 0
M  V30 785 O 77.039 1.7807 0.12379 0
M  V30 786 C 74.139 3.38623 0.136898 0
M  V30 787 C 73.312 4.29888 -0.807137 0
M  V30 788 C 72.371 5.26088 -0.10836 0
M  V30 789 O 71.397 5.64353 -0.741232 0
M  V30 790 N 72.599 5.68882 1.15558 0
M  V30 791 H 75.364 2.59848 -1.49329 0
M  V30 792 H 72.925 1.32553 -0.929587 0
M  V30 793 H 74.917 4.00009 0.614401 0
M  V30 794 H 73.487 2.98508 0.927993 0
M  V30 795 H 72.707 3.65993 -1.46434 0
M  V30 796 H 73.995 4.87759 -1.44807 0
M  V30 797 H 73.393 5.39861 1.69015 0
M  V30 798 H 71.95 6.32429 1.57722 0
M  V30 799 N 75.3831 0.828654 1.34056 0
M  V30 800 C 76.6601 0.341809 1.9259 0
M  V30 801 C 77.0401 -1.17158 1.75605 0
M  V30 802 O 76.3881 -1.98132 1.13824 0
M  V30 803 C 76.5981 0.777453 3.4023 0
M  V30 804 C 77.9461 0.779579 4.17382 0
M  V30 805 O 78.9701 0.7204 3.48839 0
M  V30 806 O 77.8291 0.857996 5.39723 0
M  V30 807 H 74.9231 0.0946085 0.821571 0
M  V30 808 H 77.4691 0.913827 1.42994 0
M  V30 809 H 76.2411 1.8196 3.46419 0
M  V30 810 H 75.8641 0.181444 3.97186 0
M  V30 811 N 76.8612 -1.46375 0.584142 0
M  V30 812 C 77.8242 -2.28784 -0.138108 0
M  V30 813 C 78.8242 -1.38471 -0.817462 0
M  V30 814 O 80.0142 -1.60833 -0.669199 0
M  V30 815 C 77.1462 -3.18892 -1.20503 0
M  V30 816 H 78.3392 -2.94117 0.586127 0
M  V30 817 H 75.8922 -1.52509 0.342171 0
M  V30 818 H 76.6272 -2.58309 -1.96079 0
M  V30 819 H 76.4122 -3.85388 -0.722384 0
M  V30 820 H 77.9022 -3.80914 -1.71155 0
M  V30 821 N 78.3393 -0.321999 -1.54275 0
M  V30 822 C 79.2493 0.553631 -2.27974 0
M  V30 823 C 80.2653 1.13054 -1.32268 0
M  V30 824 O 81.4413 1.15084 -1.6528 0
M  V30 825 C 78.5063 1.69927 -3.02201 0
M  V30 826 C 77.5673 1.15433 -4.1349 0
M  V30 827 C 76.8003 2.24537 -4.84168 0
M  V30 828 O 77.0233 3.44852 -4.5435 0
M  V30 829 O 75.9573 1.90044 -5.7111 0
M  V30 830 H 79.7833 -0.0448345 -3.03667 0
M  V30 831 H 77.3683 -0.0877418 -1.49142 0
M  V30 832 H 79.2503 2.3663 -3.48689 0
M  V30 833 H 77.9253 2.28395 -2.29385 0
M  V30 834 H 76.8323 0.452436 -3.71354 0
M  V30 835 H 78.1653 0.614805 -4.88345 0
M  V30 836 N 79.8174 1.5752 -0.0501392 0
M  V30 837 C 81.0424 1.97376 0.636997 0
M  V30 838 C 81.4674 0.927466 1.63645 0
M  V30 839 O 80.8254 -0.10941 1.8097 0
M  V30 840 C 80.8734 3.36304 1.30123 0
M  V30 841 O 79.9774 3.34156 2.41689 0
M  V30 842 H 79.3184 0.642998 0.165679 0
M  V30 843 H 81.8484 2.04258 -0.118233 0
M  V30 844 H 81.8584 3.73008 1.65315 0
M  V30 845 H 80.5334 4.11993 0.568746 0
M  V30 846 H 79.1104 3.09196 2.08451 0
M  V30 847 N 81.2955 -0.223234 1.56011 0
M  V30 848 C 82.2275 -1.30006 1.88762 0
M  V30 849 C 83.2405 -1.43129 0.775746 0
M  V30 850 O 84.4295 -1.44057 1.05403 0
M  V30 851 C 81.5295 -2.67589 2.07965 0
M  V30 852 C 80.7025 -2.76434 3.38973 0
M  V30 853 C 79.7615 -3.95019 3.47629 0
M  V30 854 O 78.7875 -3.83436 4.20672 0
M  V30 855 N 79.9895 -5.09249 2.78649 0
M  V30 856 H 82.7545 -1.02238 2.81722 0
M  V30 857 H 80.3155 -0.413278 1.56536 0
M  V30 858 H 82.3075 -3.45297 2.11073 0
M  V30 859 H 80.8775 -2.87964 1.21638 0
M  V30 860 H 80.0975 -1.85216 3.47978 0
M  V30 861 H 81.3855 -2.79313 4.25278 0
M  V30 862 H 80.7835 -5.21556 2.19081 0
M  V30 863 H 79.3405 -5.85007 2.8742 0
M  V30 864 N 82.7736 -1.49793 -0.48987 0
M  V30 865 C 83.7206 -1.67281 -1.59014 0
M  V30 866 C 84.6906 -0.514177 -1.57941 0
M  V30 867 O 85.8756 -0.742533 -1.75759 0
M  V30 868 C 83.0156 -1.75569 -2.97102 0
M  V30 869 C 82.1286 -3.0281 -3.08107 0
M  V30 870 C 81.2636 -3.02008 -4.36995 0
M  V30 871 C 80.3026 -4.23782 -4.41673 0
M  V30 872 N 79.4396 -4.20826 -5.62005 0
M  V30 873 H 84.2796 -2.61224 -1.43409 0
M  V30 874 H 81.8166 -1.29508 -0.697565 0
M  V30 875 H 83.7746 -1.78354 -3.77155 0
M  V30 876 H 82.4046 -0.850827 -3.11385 0
M  V30 877 H 81.4566 -3.09584 -2.21047 0
M  V30 878 H 82.7686 -3.92801 -3.07423 0
M  V30 879 H 81.9226 -3.03418 -5.25378 0
M  V30 880 H 80.6616 -2.09815 -4.4026 0
M  V30 881 H 79.6666 -4.22604 -3.5169 0
M  V30 882 H 80.8916 -5.17181 -4.40115 0
M  V30 883 H 78.8376 -3.31476 -5.66091 0
M  V30 884 H 78.7546 -5.04564 -5.62984 0
M  V30 885 H 80.0226 -4.26355 -6.52565 0
M  V30 886 N 84.2517 0.741722 -1.39055 0
M  V30 887 C 85.4987 1.50114 -1.35912 0
M  V30 888 C 85.8267 1.94443 0.0470937 0
M  V30 889 O 85.0817 1.66612 1.02659 0
M  V30 890 C 85.3807 2.7592 -2.27163 0
M  V30 891 C 85.0467 2.50493 -3.74919 0
M  V30 892 C 83.7087 2.43267 -4.1518 0
M  V30 893 C 86.0607 2.28585 -4.684 0
M  V30 894 C 83.3887 2.12166 -5.46994 0
M  V30 895 C 85.7407 1.99002 -6.00484 0
M  V30 896 C 84.4047 1.90241 -6.39816 0
M  V30 897 H 83.6747 0.549306 -0.497336 0
M  V30 898 H 86.3217 0.851896 -1.71508 0
M  V30 899 H 84.6267 3.45553 -1.84663 0
M  V30 900 H 86.3237 3.33923 -2.22028 0
M  V30 901 H 82.9137 2.56992 -3.43006 0
M  V30 902 H 87.0977 2.33139 -4.38132 0
M  V30 903 H 82.3537 2.03901 -5.76398 0
M  V30 904 H 86.5277 1.81057 -6.72452 0
M  V30 905 H 84.1547 1.65907 -7.41875 0
M  V30 906 N 85.7298 1.2412 0.971189 0
M  V30 907 C 87.1458 1.00584 1.23916 0
M  V30 908 C 87.3458 -0.287481 1.99439 0
M  V30 909 O 86.4018 -1.00454 2.31658 0
M  V30 910 C 87.7148 2.21864 2.0297 0
M  V30 911 C 89.2628 2.26452 2.16076 0
M  V30 912 C 89.7378 3.47343 2.98524 0
M  V30 913 N 91.2288 3.47639 3.06107 0
M  V30 914 C 91.9638 4.37837 3.70251 0
M  V30 915 N 91.4598 5.38286 4.36142 0
M  V30 916 N 93.2528 4.25558 3.67228 0
M  V30 917 H 85.4038 2.07236 0.465499 0
M  V30 918 H 87.6668 0.909236 0.268315 0
M  V30 919 H 87.3728 3.15771 1.54861 0
M  V30 920 H 87.2468 2.23698 3.03709 0
M  V30 921 H 89.6338 1.33078 2.6339 0
M  V30 922 H 89.7148 2.28645 1.14696 0
M  V30 923 H 89.3588 4.41029 2.51905 0
M  V30 924 H 89.2888 3.42393 4.00093 0
M  V30 925 H 91.7798 2.74966 2.59233 0
M  V30 926 H 92.0928 6.03352 4.82894 0
M  V30 927 H 90.4378 5.42176 4.34822 0
M  V30 928 H 93.6288 3.46322 3.14927 0
M  V30 929 H 93.8018 4.96054 4.16935 0
M  V30 930 N 87.2079 -1.17134 1.05439 0
M  V30 931 C 88.4539 -1.87979 0.776872 0
M  V30 932 C 88.8089 -1.7965 -0.688751 0
M  V30 933 O 88.1019 -1.19535 -1.4974 0
M  V30 934 C 88.2959 -3.36833 1.19491 0
M  V30 935 C 88.1249 -3.59653 2.69963 0
M  V30 936 C 86.8949 -3.76234 3.37307 0
M  V30 937 C 89.0929 -3.59091 3.68182 0
M  V30 938 N 87.0749 -3.86922 4.76618 0
M  V30 939 C 88.4459 -3.75659 4.93235 0
M  V30 940 C 90.5009 -3.42255 3.61616 0
M  V30 941 C 89.2039 -3.77133 6.12506 0
M  V30 942 C 91.2299 -3.45018 4.8033 0
M  V30 943 C 90.5919 -3.62096 6.04207 0
M  V30 944 H 86.6909 -0.705876 0.336546 0
M  V30 945 H 89.2749 -1.40602 1.34682 0
M  V30 946 H 87.4459 -3.82873 0.652884 0
M  V30 947 H 89.1779 -3.95305 0.866966 0
M  V30 948 H 85.9329 -3.76193 2.87708 0
M  V30 949 H 86.3569 -3.96055 5.49062 0
M  V30 950 H 90.9989 -3.27986 2.66805 0
M  V30 951 H 88.7169 -3.90186 7.07659 0
M  V30 952 H 92.3029 -3.33246 4.76905 0
M  V30 953 H 91.1829 -3.64142 6.94529 0
M  V30 954 N 88.686 -0.835752 -1.33615 0
M  V30 955 C 89.932 -0.430596 -1.98176 0
M  V30 956 C 90.265 1.00684 -1.66061 0
M  V30 957 O 89.54 1.70339 -0.938877 0
M  V30 958 C 89.823 -0.648065 -3.5422 0
M  V30 959 C 89.676 -2.13255 -3.96033 0
M  V30 960 C 90.995 -0.0922113 -4.40003 0
M  V30 961 H 88.114 -0.157924 -0.719881 0
M  V30 962 H 90.756 -1.05069 -1.58305 0
M  V30 963 H 88.906 -0.120237 -3.88314 0
M  V30 964 H 90.578 -2.725 -3.72211 0
M  V30 965 H 88.821 -2.61823 -3.45878 0
M  V30 966 H 89.492 -2.23547 -5.04708 0
M  V30 967 H 91.968 -0.543343 -4.12537 0
M  V30 968 H 90.844 -0.274083 -5.48215 0
M  V30 969 H 91.105 1.00378 -4.30554 0
M  V30 970 N 90.1641 1.46063 -0.591896 0
M  V30 971 C 91.3891 2.07226 -0.0850314 0
M  V30 972 C 91.8141 1.43625 1.21463 0
M  V30 973 O 91.1721 0.523305 1.73583 0
M  V30 974 C 91.2201 3.60554 0.0576567 0
M  V30 975 O 90.3241 3.97128 1.11188 0
M  V30 976 H 89.6651 0.660615 -0.0669568 0
M  V30 977 H 92.1951 1.8756 -0.81745 0
M  V30 978 H 92.2051 4.07165 0.2609 0
M  V30 979 H 90.8801 4.06235 -0.891416 0
M  V30 980 H 89.4571 3.62213 0.886356 0
M  V30 981 N 91.6422 0.330177 1.54103 0
M  V30 982 C 92.5522 -0.541534 2.28264 0
M  V30 983 C 93.5682 -1.12351 1.32866 0
M  V30 984 O 94.7442 -1.14206 1.65888 0
M  V30 985 C 91.8092 -1.68322 3.03098 0
M  V30 986 C 90.8702 -1.13238 4.14096 0
M  V30 987 C 90.1032 -2.21966 4.85352 0
M  V30 988 O 90.3262 -3.42437 4.56172 0
M  V30 989 O 89.2602 -1.87013 5.7211 0
M  V30 990 H 93.0862 0.060938 3.03639 0
M  V30 991 H 90.6712 0.09565 1.49093 0
M  V30 992 H 92.5532 -2.34777 3.49939 0
M  V30 993 H 91.2282 -2.27176 2.30593 0
M  V30 994 H 90.1352 -0.432736 3.71589 0
M  V30 995 H 91.4682 -0.588898 4.88664 0
M  V30 996 N 93.1203 -1.57491 0.0584922 0
M  V30 997 C 94.3453 -1.97711 -0.62652 0
M  V30 998 C 94.7703 -0.936132 -1.63151 0
M  V30 999 O 94.1283 0.099811 -1.81025 0
M  V30 1000 C 94.1763 -3.36989 -1.28338 0
M  V30 1001 O 93.2803 -3.35433 -2.39913 0
M  V30 1002 H 92.6213 -0.643868 -0.162266 0
M  V30 1003 H 95.1513 -2.04193 0.129064 0
M  V30 1004 H 95.1613 -3.73879 -1.63335 0
M  V30 1005 H 93.8363 -4.12289 -0.546889 0
M  V30 1006 H 92.4133 -3.10298 -2.06809 0
M  V30 1007 N 94.5984 0.214957 -1.56127 0
M  V30 1008 C 95.5304 1.29004 -1.89448 0
M  V30 1009 C 96.5434 1.42716 -0.783326 0
M  V30 1010 O 97.7324 1.43496 -1.06166 0
M  V30 1011 C 94.8324 2.66482 -2.09381 0
M  V30 1012 C 94.0054 2.74633 -3.40434 0
M  V30 1013 C 93.0644 3.9317 -3.49719 0
M  V30 1014 O 92.0904 3.812 -4.227 0
M  V30 1015 N 93.2924 5.07765 -2.81346 0
M  V30 1016 H 96.0574 1.00743 -2.82261 0
M  V30 1017 H 93.6184 0.40497 -1.56753 0
M  V30 1018 H 95.6104 3.44173 -2.12901 0
M  V30 1019 H 94.1804 2.87314 -1.23163 0
M  V30 1020 H 93.4004 1.83368 -3.48955 0
M  V30 1021 H 94.6884 2.77054 -4.26754 0
M  V30 1022 H 94.0864 5.20386 -2.21843 0
M  V30 1023 H 92.6434 5.83474 -2.90519 0
M  V30 1024 N 96.0765 1.50051 0.48192 0
M  V30 1025 C 97.3255 1.59741 1.23149 0
M  V30 1026 C 97.6385 0.298163 1.93314 0
M  V30 1027 O 98.8445 0.273835 2.70116 0
M  V30 1028 C 97.3005 2.81926 2.23708 0
M  V30 1029 C 96.9085 4.18685 1.59396 0
M  V30 1030 C 98.6525 3.00956 2.99375 0
M  V30 1031 C 96.5595 5.3207 2.58178 0
M  V30 1032 H 95.4895 0.594838 0.46334 0
M  V30 1033 H 98.1405 1.76467 0.503169 0
M  V30 1034 H 96.5225 2.58736 2.99786 0
M  V30 1035 H 97.6965 4.52088 0.891811 0
M  V30 1036 H 96.0115 4.05171 0.960503 0
M  V30 1037 H 98.6085 3.82836 3.73283 0
M  V30 1038 H 98.9515 2.12258 3.58123 0
M  V30 1039 H 99.4845 3.24277 2.30411 0
M  V30 1040 H 96.2235 6.22888 2.04184 0
M  V30 1041 H 95.7435 5.03098 3.26577 0
M  V30 1042 H 97.4225 5.62196 3.20225 0
M  V30 1043 N 97.5546 -0.734337 1.39446 0
M  V30 1044 C 98.4876 -1.85715 1.32609 0
M  V30 1045 C 99.4656 -1.6137 0.199636 0
M  V30 1046 O 100.65 -1.84626 0.380195 0
M  V30 1047 C 97.7766 -3.21709 1.05929 0
M  V30 1048 C 96.8226 -3.64913 2.20773 0
M  V30 1049 S 97.6556 -3.74203 3.83056 0
M  V30 1050 C 98.8116 -5.12986 3.58603 0
M  V30 1051 H 99.0446 -1.91232 2.27635 0
M  V30 1052 H 96.5776 -0.899263 1.25509 0
M  V30 1053 H 98.5356 -4.00236 0.912203 0
M  V30 1054 H 97.1966 -3.13848 0.125883 0
M  V30 1055 H 96.3896 -4.63606 1.97699 0
M  V30 1056 H 95.9916 -2.93593 2.31688 0
M  V30 1057 H 98.2836 -5.99339 3.15909 0
M  V30 1058 H 99.2266 -5.41088 4.5676 0
M  V30 1059 H 99.6346 -4.82694 2.9269 0
M  V30 1060 N 99.0327 -1.24633 -0.964593 0
M  V30 1061 C 100.258 -1.11596 -1.74818 0
M  V30 1062 C 100.683 0.32723 -1.85232 0
M  V30 1063 O 100.041 1.23695 -1.32549 0
M  V30 1064 C 100.089 -1.76397 -3.1451 0
M  V30 1065 O 99.1927 -1.03685 -3.99153 0
M  V30 1066 H 98.5337 -0.390196 -0.537255 0
M  V30 1067 H 101.064 -1.65002 -1.20977 0
M  V30 1068 H 101.074 -1.8228 -3.65018 0
M  V30 1069 H 99.7487 -2.81401 -3.06246 0
M  V30 1070 H 98.3257 -1.05611 -3.57632 0
M  V30 1071 N 100.511 1.16574 -1.06058 0
M  V30 1072 C 101.757 1.87324 -0.777022 0
M  V30 1073 C 102.09 1.81351 0.694645 0
M  V30 1074 O 101.365 1.22753 1.50871 0
M  V30 1075 C 101.648 3.36991 -1.26922 0
M  V30 1076 C 101.501 3.51667 -2.80447 0
M  V30 1077 C 102.82 4.3131 -0.87521 0
M  V30 1078 H 99.9388 0.680191 -0.28374 0
M  V30 1079 H 102.581 1.37036 -1.3161 0
M  V30 1080 H 100.731 3.79949 -0.81063 0
M  V30 1081 H 102.403 3.17664 -3.34495 0
M  V30 1082 H 100.646 2.93656 -3.19294 0
M  V30 1083 H 101.317 4.56766 -3.0995 0
M  V30 1084 H 103.793 3.9624 -1.27014 0
M  V30 1085 H 102.669 5.34545 -1.2471 0
M  V30 1086 H 102.93 4.41552 0.220071 0
M  V30 1087 N 101.989 0.842826 1.3317 0
M  V30 1088 C 102.952 0.284065 2.27433 0
M  V30 1089 C 103.952 -0.54948 1.5112 0
M  V30 1090 O 105.142 -0.362699 1.70382 0
M  V30 1091 C 102.274 -0.599384 3.35589 0
M  V30 1092 H 103.467 1.11589 2.78366 0
M  V30 1093 H 101.02 0.616221 1.4364 0
M  V30 1094 H 101.755 -1.45349 2.89904 0
M  V30 1095 H 101.54 -0.00291266 3.921 0
M  V30 1096 H 103.03 -0.983488 4.05854 0
M  V30 1097 N 103.467 -1.45747 0.599634 0
M  V30 1098 C 104.714 -2.02292 0.0917284 0
M  V30 1099 C 105.042 -1.46906 -1.27472 0
M  V30 1100 O 104.297 -0.630652 -1.8526 0
M  V30 1101 C 104.596 -3.57399 -0.00602758 0
M  V30 1102 C 104.262 -4.31902 1.29503 0
M  V30 1103 C 102.924 -4.51974 1.65144 0
M  V30 1104 C 105.276 -4.74551 2.15525 0
M  V30 1105 C 102.604 -5.11949 2.86574 0
M  V30 1106 C 104.956 -5.35868 3.36196 0
M  V30 1107 C 103.62 -5.54165 3.72099 0
M  V30 1108 H 102.89 -0.740239 0.0335658 0
M  V30 1109 H 105.537 -1.7491 0.779661 0
M  V30 1110 H 103.842 -3.84014 -0.777183 0
M  V30 1111 H 105.539 -3.98846 -0.415038 0
M  V30 1112 H 102.129 -4.16588 1.00761 0
M  V30 1113 H 106.313 -4.58784 1.8929 0
M  V30 1114 H 101.569 -5.24305 3.14507 0
M  V30 1115 H 105.743 -5.6787 4.03109 0
M  V30 1116 H 103.37 -6.00406 4.6628 0
M  V30 1117 N 104.945 -0.338344 -1.53925 0
M  V30 1118 C 105.892 0.520845 -2.24846 0
M  V30 1119 C 106.862 1.09976 -1.24477 0
M  V30 1120 O 108.047 1.13735 -1.53196 0
M  V30 1121 C 105.187 1.6685 -3.02084 0
M  V30 1122 C 104.3 1.11739 -4.17299 0
M  V30 1123 C 103.435 2.23193 -4.82036 0
M  V30 1124 C 102.474 1.65407 -5.89328 0
M  V30 1125 N 101.611 2.70582 -6.47866 0
M  V30 1126 H 106.451 -0.0904881 -2.97863 0
M  V30 1127 H 103.988 -0.0564282 -1.46992 0
M  V30 1128 H 105.946 2.34407 -3.45122 0
M  V30 1129 H 104.576 2.2509 -2.31375 0
M  V30 1130 H 103.628 0.332919 -3.7894 0
M  V30 1131 H 104.94 0.654677 -4.94485 0
M  V30 1132 H 104.094 2.98626 -5.28117 0
M  V30 1133 H 102.833 2.72807 -4.04262 0
M  V30 1134 H 101.838 0.884779 -5.42634 0
M  V30 1135 H 103.063 1.16652 -6.69006 0
M  V30 1136 H 101.009 3.1946 -5.72959 0
M  V30 1137 H 100.926 2.28917 -7.20509 0
M  V30 1138 H 102.194 3.45799 -6.98601 0
M  V30 1139 N 106.423 1.57458 -0.0668435 0
M  V30 1140 C 107.353 2.15468 0.899764 0
M  V30 1141 C 108.334 1.08042 1.31381 0
M  V30 1142 O 109.519 1.36054 1.38574 0
M  V30 1143 C 106.649 2.71232 2.16911 0
M  V30 1144 C 105.603 3.83781 1.89463 0
M  V30 1145 C 104.929 4.26127 3.22986 0
M  V30 1146 C 106.229 5.08238 1.20381 0
M  V30 1147 H 107.923 2.96488 0.416529 0
M  V30 1148 H 105.469 1.4262 0.198908 0
M  V30 1149 H 107.422 3.10458 2.84945 0
M  V30 1150 H 106.146 1.87426 2.67468 0
M  V30 1151 H 104.805 3.45051 1.23836 0
M  V30 1152 H 104.453 3.39249 3.71374 0
M  V30 1153 H 104.153 5.01993 3.05413 0
M  V30 1154 H 105.677 4.67966 3.92225 0
M  V30 1155 H 107.091 5.44811 1.78475 0
M  V30 1156 H 105.488 5.89349 1.13083 0
M  V30 1157 H 106.558 4.84558 0.182153 0
M  V30 1158 N 107.901 -0.206675 1.56239 0
M  V30 1159 C 109.141 -0.93574 1.81723 0
M  V30 1160 C 109.505 -1.80927 0.642609 0
M  V30 1161 O 110.706 -2.57323 0.777081 0
M  V30 1162 C 108.977 -1.74012 3.12177 0
M  V30 1163 S 110.536 -2.52279 3.59028 0
M  V30 1164 H 107.354 -0.314065 0.637875 0
M  V30 1165 H 109.956 -0.200071 1.94474 0
M  V30 1166 H 108.66 -1.0888 3.95693 0
M  V30 1167 H 108.191 -2.51782 3.02274 0
M  V30 1168 H 110.206 -3.76209 3.23545 0
M  V30 1169 N 109.379 -1.50304 -0.473955 0
M  V30 1170 C 110.309 -1.71886 -1.58042 0
M  V30 1171 C 111.29 -0.567799 -1.60344 0
M  V30 1172 O 112.475 -0.806623 -1.76656 0
M  V30 1173 C 109.605 -1.81036 -2.96384 0
M  V30 1174 C 108.559 -2.962 -3.08949 0
M  V30 1175 C 107.885 -2.9049 -4.48909 0
M  V30 1176 C 109.185 -4.36752 -2.86434 0
M  V30 1177 H 110.879 -2.64527 -1.40234 0
M  V30 1178 H 108.425 -1.27295 -0.673201 0
M  V30 1179 H 110.378 -1.94719 -3.73714 0
M  V30 1180 H 109.102 -0.850147 -3.15341 0
M  V30 1181 H 107.761 -2.82164 -2.3405 0
M  V30 1182 H 107.409 -1.92321 -4.64781 0
M  V30 1183 H 107.109 -3.67802 -4.58253 0
M  V30 1184 H 108.633 -3.06218 -5.28264 0
M  V30 1185 H 110.047 -4.5133 -3.53517 0
M  V30 1186 H 108.444 -5.15493 -3.07225 0
M  V30 1187 H 109.514 -4.49321 -1.82316 0
M  V30 1188 N 110.857 0.726932 -1.39834 0
M  V30 1189 C 112.105 1.4837 -1.37225 0
M  V30 1190 C 112.426 1.94979 0.0284857 0
M  V30 1191 O 111.696 1.69555 0.981213 0
M  V30 1192 H 110.276 0.55043 -0.505011 0
M  V30 1193 H 112.938 0.862468 -1.74778 0
M  V30 1194 H 112.034 2.36198 -2.04003 0
M  V30 1195 N 112.336 1.25143 0.95797 0
M  V30 1196 C 113.582 1.09855 1.70469 0
M  V30 1197 C 113.915 -0.360187 1.90831 0
M  V30 1198 O 113.19 -1.26568 1.47685 0
M  V30 1199 C 113.473 1.8497 3.08963 0
M  V30 1200 C 113.326 3.38652 2.96032 0
M  V30 1201 C 114.645 1.63016 4.08795 0
M  V30 1202 H 111.764 0.400465 0.618706 0
M  V30 1203 H 114.406 1.53933 1.11376 0
M  V30 1204 H 112.556 1.47505 3.59409 0
M  V30 1205 H 114.228 3.85772 2.52938 0
M  V30 1206 H 112.471 3.66534 2.32025 0
M  V30 1207 H 113.142 3.8642 3.94187 0
M  V30 1208 H 115.618 1.95625 3.67247 0
M  V30 1209 H 114.494 2.18015 5.03747 0
M  V30 1210 H 114.755 0.570692 4.38401 0
M  V30 1211 N 113.814 -1.1601 1.06675 0
M  V30 1212 C 115.225 -1.68235 0.809565 0
M  V30 1213 C 115.576 -1.8454 -0.666303 0
M  V30 1214 O 114.701 -1.54374 -1.5165 0
M  V30 1215 C 115.296 -3.05585 1.46299 0
M  V30 1216 C 113.855 -3.54915 1.25349 0
M  V30 1217 C 113.002 -2.30804 1.53703 0
M  V30 1218 H 115.953 -1.00318 1.22971 0
M  V30 1219 H 115.974 -3.70174 0.880431 0
M  V30 1220 H 115.486 -2.93686 2.53713 0
M  V30 1221 H 113.587 -3.72067 0.199261 0
M  V30 1222 H 113.7 -4.36774 1.9689 0
M  V30 1223 H 112.064 -2.36007 0.957739 0
M  V30 1224 H 112.847 -2.21499 2.62284 0
M  V30 1225 N 115.292 -0.849877 -1.32721 0
M  V30 1226 C 116.517 -0.463856 -2.02146 0
M  V30 1227 C 116.942 0.930449 -1.63476 0
M  V30 1228 O 116.3 1.61033 -0.832952 0
M  V30 1229 C 116.348 -0.604955 -3.55489 0
M  V30 1230 O 115.452 0.36425 -4.10788 0
M  V30 1231 H 114.793 -0.187046 -0.637111 0
M  V30 1232 H 117.323 -1.14775 -1.69375 0
M  V30 1233 H 117.333 -0.490696 -4.05038 0
M  V30 1234 H 116.008 -1.62174 -3.82978 0
M  V30 1235 H 114.585 0.206628 -3.72327 0
M  V30 1236 N 116.77 1.45427 -0.607355 0
M  V30 1237 C 117.717 2.3053 0.111625 0
M  V30 1238 C 118.687 1.4209 0.860216 0
M  V30 1239 O 119.872 1.71019 0.845998 0
M  V30 1240 C 117.012 3.26992 1.10319 0
M  V30 1241 C 116.125 4.30535 0.355493 0
M  V30 1242 C 115.26 5.14105 1.33676 0
M  V30 1243 C 114.299 6.09376 0.576862 0
M  V30 1244 N 113.436 6.85727 1.5074 0
M  V30 1245 H 118.276 2.91477 -0.620093 0
M  V30 1246 H 115.813 1.43631 -0.317594 0
M  V30 1247 H 117.771 3.81385 1.6912 0
M  V30 1248 H 116.401 2.67799 1.80232 0
M  V30 1249 H 115.453 3.78805 -0.348023 0
M  V30 1250 H 116.765 4.98235 -0.237423 0
M  V30 1251 H 115.919 5.72897 1.99684 0
M  V30 1252 H 114.658 4.46423 1.9636 0
M  V30 1253 H 113.663 5.49715 -0.0968519 0
M  V30 1254 H 114.888 6.79085 -0.0449341 0
M  V30 1255 H 112.834 6.20735 2.12189 0
M  V30 1256 H 112.751 7.49778 0.967913 0
M  V30 1257 H 114.019 7.4906 2.15706 0
M  V30 1258 N 118.248 0.346503 1.53744 0
M  V30 1259 C 119.476 -0.25041 2.05379 0
M  V30 1260 C 119.891 -1.43979 1.22129 0
M  V30 1261 O 119.248 -1.80677 0.257321 0
M  V30 1262 C 119.299 -0.662575 3.55376 0
M  V30 1263 O 119.02 0.479515 4.35468 0
M  V30 1264 C 120.521 -1.31989 4.23195 0
M  V30 1265 H 117.741 -0.0478198 0.669294 0
M  V30 1266 H 120.285 0.499346 1.9831 0
M  V30 1267 H 118.44 -1.36227 3.62658 0
M  V30 1268 H 118.854 0.15037 5.24284 0
M  V30 1269 H 120.328 -1.55902 5.29527 0
M  V30 1270 H 120.805 -2.27436 3.75725 0
M  V30 1271 H 121.411 -0.662154 4.20114 0
M  V30 1272 N 119.726 -1.57421 0.075193 0
M  V30 1273 C 121.003 -1.85029 -0.634329 0
M  V30 1274 C 121.383 -0.968305 -1.87582 0
M  V30 1275 O 120.731 -0.0354749 -2.28472 0
M  V30 1276 C 120.941 -3.35286 -0.968742 0
M  V30 1277 C 122.289 -4.02875 -1.34077 0
M  V30 1278 O 123.313 -3.40051 -1.06037 0
M  V30 1279 O 122.172 -5.13691 -1.86506 0
M  V30 1280 H 119.266 -0.7645 -0.315387 0
M  V30 1281 H 121.812 -1.69366 0.106382 0
M  V30 1282 H 120.584 -3.91203 -0.0871376 0
M  V30 1283 H 120.207 -3.56223 -1.7661 0
M  V30 1284 N 121.204 0.198386 -1.56346 0
M  V30 1285 C 122.45 0.916115 -1.81601 0
M  V30 1286 C 122.805 1.81025 -0.651744 0
M  V30 1287 O 122.098 1.88316 0.353229 0
M  V30 1288 C 122.292 1.77031 -3.10475 0
M  V30 1289 C 122.121 0.960365 -4.39326 0
M  V30 1290 C 120.891 0.646093 -5.01152 0
M  V30 1291 C 123.089 0.314628 -5.13337 0
M  V30 1292 N 121.071 -0.182828 -6.13628 0
M  V30 1293 C 122.442 -0.37664 -6.18855 0
M  V30 1294 C 124.497 0.230019 -4.97368 0
M  V30 1295 C 123.2 -1.14445 -7.10137 0
M  V30 1296 C 125.226 -0.524389 -5.89071 0
M  V30 1297 C 124.588 -1.20412 -6.94032 0
M  V30 1298 H 120.687 0.314732 -0.715868 0
M  V30 1299 H 123.271 0.185102 -1.93818 0
M  V30 1300 H 121.442 2.47295 -2.99499 0
M  V30 1301 H 123.174 2.42727 -3.2383 0
M  V30 1302 H 119.929 0.969724 -4.63566 0
M  V30 1303 H 120.353 -0.586802 -6.74452 0
M  V30 1304 H 124.995 0.741184 -4.16253 0
M  V30 1305 H 122.713 -1.66706 -7.90718 0
M  V30 1306 H 126.299 -0.591167 -5.78789 0
M  V30 1307 H 125.179 -1.77853 -7.63766 0
M  V30 1308 N 122.682 1.50554 0.465978 0
M  V30 1309 C 123.928 1.62038 1.21949 0
M  V30 1310 C 124.261 0.322116 1.9151 0
M  V30 1311 O 123.536 -0.676723 1.82348 0
M  V30 1312 C 123.819 2.80421 2.25912 0
M  V30 1313 C 123.672 4.20144 1.60622 0
M  V30 1314 C 124.991 2.94354 3.27176 0
M  V30 1315 H 122.11 0.589752 0.441998 0
M  V30 1316 H 124.752 1.82956 0.51257 0
M  V30 1317 H 122.902 2.62717 2.86203 0
M  V30 1318 H 124.574 4.49449 1.03889 0
M  V30 1319 H 122.817 4.24165 0.909211 0
M  V30 1320 H 123.488 4.98914 2.36196 0
M  V30 1321 H 125.964 3.10578 2.76913 0
M  V30 1322 H 124.84 3.788 3.97242 0
M  V30 1323 H 125.101 2.05186 3.916 0
M  V30 1324 N 124.16 -0.719506 1.40217 0
M  V30 1325 C 125.123 -1.8153 1.39927 0
M  V30 1326 C 126.123 -1.58095 0.293723 0
M  V30 1327 O 127.313 -1.65209 0.552429 0
M  V30 1328 C 124.445 -3.19561 1.18716 0
M  V30 1329 H 125.638 -1.83186 2.37451 0
M  V30 1330 H 123.191 -0.924746 1.26008 0
M  V30 1331 H 123.926 -3.23557 0.219366 0
M  V30 1332 H 123.711 -3.3797 1.98793 0
M  V30 1333 H 125.201 -3.99598 1.21291 0
M  V30 1334 N 125.638 -1.25649 -0.95132 0
M  V30 1335 C 126.887 -1.09988 -1.69073 0
M  V30 1336 C 127.2 0.358355 -1.92289 0
M  V30 1337 O 128.406 0.635466 -2.63958 0
M  V30 1338 C 126.862 -1.92012 -3.044 0
M  V30 1339 C 126.47 -3.42347 -2.88968 0
M  V30 1340 C 128.214 -1.8493 -3.82101 0
M  V30 1341 C 126.121 -4.16655 -4.19705 0
M  V30 1342 H 125.051 -0.407993 -0.63408 0
M  V30 1343 H 127.702 -1.49873 -1.05879 0
M  V30 1344 H 126.084 -1.44952 -3.68517 0
M  V30 1345 H 127.258 -3.97104 -2.33762 0
M  V30 1346 H 125.573 -3.50557 -2.24719 0
M  V30 1347 H 128.17 -2.37739 -4.78941 0
M  V30 1348 H 128.513 -0.817883 -4.08187 0
M  V30 1349 H 129.046 -2.29758 -3.2474 0
M  V30 1350 H 125.785 -5.20224 -3.98807 0
M  V30 1351 H 125.305 -3.66681 -4.74663 0
M  V30 1352 H 126.984 -4.24551 -4.88227 0
M  V30 1353 N 127.117 1.15442 -1.07289 0
M  V30 1354 C 128.345 1.90096 -0.81676 0
M  V30 1355 C 128.76 1.7798 0.629966 0
M  V30 1356 O 128.117 1.1313 1.43206 0
M  V30 1357 C 128.168 3.40466 -1.21512 0
M  V30 1358 O 127.889 3.52232 -2.60508 0
M  V30 1359 C 129.39 4.32145 -0.988198 0
M  V30 1360 H 126.61 0.602495 -0.295366 0
M  V30 1361 H 129.154 1.4627 -1.42918 0
M  V30 1362 H 127.309 3.81958 -0.647039 0
M  V30 1363 H 127.723 4.45549 -2.76742 0
M  V30 1364 H 129.197 5.36072 -1.31645 0
M  V30 1365 H 129.674 4.39135 0.0755063 0
M  V30 1366 H 130.28 3.96395 -1.54115 0
M  V30 1367 N 128.595 0.856903 1.32268 0
M  V30 1368 C 129.525 0.31858 2.31316 0
M  V30 1369 C 130.506 -0.583487 1.59779 0
M  V30 1370 O 131.691 -0.503259 1.87566 0
M  V30 1371 C 128.821 -0.491979 3.43798 0
M  V30 1372 C 127.775 0.315849 4.26833 0
M  V30 1373 C 127.101 -0.619586 5.31098 0
M  V30 1374 C 128.401 1.54282 4.98993 0
M  V30 1375 H 130.095 1.14621 2.76591 0
M  V30 1376 H 127.641 0.552613 1.32974 0
M  V30 1377 H 129.594 -0.879012 4.1213 0
M  V30 1378 H 128.318 -1.35299 2.97257 0
M  V30 1379 H 126.977 0.684664 3.6015 0
M  V30 1380 H 126.625 -1.47751 4.8081 0
M  V30 1381 H 126.325 -0.0830621 5.87541 0
M  V30 1382 H 127.849 -1.00375 6.02293 0
M  V30 1383 H 129.263 1.22796 5.59995 0
M  V30 1384 H 127.66 2.01745 5.65172 0
M  V30 1385 H 128.73 2.30285 4.26728 0
M  V30 1386 N 130.073 -1.45103 0.615059 0
M  V30 1387 C 131.303 -2.06254 0.119596 0
M  V30 1388 C 131.711 -1.4591 -1.20445 0
M  V30 1389 O 131.054 -0.570384 -1.7462 0
M  V30 1390 C 131.116 -3.59396 -0.0865591 0
M  V30 1391 C 130.78 -4.42116 1.15683 0
M  V30 1392 C 131.777 -4.7662 2.07676 0
M  V30 1393 C 129.462 -4.82749 1.38775 0
M  V30 1394 C 131.456 -5.50622 3.21082 0
M  V30 1395 C 129.143 -5.56504 2.52481 0
M  V30 1396 C 130.141 -5.90358 3.43463 0
M  V30 1397 O 129.829 -6.62615 4.55189 0
M  V30 1398 H 129.561 -0.672423 0.0694512 0
M  V30 1399 H 132.115 -1.87219 0.844885 0
M  V30 1400 H 130.345 -3.76859 -0.866823 0
M  V30 1401 H 132.034 -4.02365 -0.534555 0
M  V30 1402 H 132.8 -4.4578 1.91063 0
M  V30 1403 H 128.679 -4.55829 0.688545 0
M  V30 1404 H 132.223 -5.76965 3.92119 0
M  V30 1405 H 128.12 -5.86759 2.69043 0
M  V30 1406 H 128.888 -6.81071 4.53966 0
M  V30 1407 N 131.551 -0.354651 -1.53558 0
M  V30 1408 C 132.514 0.484566 -2.24019 0
M  V30 1409 C 133.514 1.01861 -1.24422 0
M  V30 1410 O 134.704 0.906097 -1.4878 0
M  V30 1411 C 131.836 1.67615 -2.96847 0
M  V30 1412 H 133.029 -0.131843 -2.9961 0
M  V30 1413 H 130.582 -0.106165 -1.55939 0
M  V30 1414 H 131.317 2.33095 -2.25471 0
M  V30 1415 H 131.102 1.30029 -3.69912 0
M  V30 1416 H 132.592 2.27114 -3.50441 0
M  V30 1417 N 133.029 1.57378 -0.0835403 0
M  V30 1418 C 134.269 1.95808 0.586381 0
M  V30 1419 C 134.633 0.963706 1.66062 0
M  V30 1420 O 135.834 1.23608 2.38693 0
M  V30 1421 C 134.105 3.38808 1.13771 0
M  V30 1422 S 135.664 3.99225 1.82112 0
M  V30 1423 H 132.482 0.684675 0.191679 0
M  V30 1424 H 135.084 1.94843 -0.160194 0
M  V30 1425 H 133.788 4.08954 0.344197 0
M  V30 1426 H 133.319 3.43344 1.92038 0
M  V30 1427 H 135.334 3.87087 3.10449 0
M  V30 1428 N 134.507 -0.190092 1.56449 0
M  V30 1429 C 135.784 -0.935886 1.71757 0
M  V30 1430 C 136.164 -2.01173 0.639726 0
M  V30 1431 O 135.512 -2.25827 -0.348502 0
M  V30 1432 C 135.722 -1.51775 3.1427 0
M  V30 1433 C 137.07 -1.99794 3.74656 0
M  V30 1434 O 138.094 -1.61607 3.1743 0
M  V30 1435 O 136.953 -2.70079 4.751 0
M  V30 1436 H 134.047 -0.439229 0.700719 0
M  V30 1437 H 136.593 -0.179395 1.68749 0
M  V30 1438 H 135.365 -0.742505 3.84191 0
M  V30 1439 H 134.988 -2.33894 3.21527 0
M  V30 1440 N 135.985 -1.50799 -0.457987 0
M  V30 1441 C 137.21 -1.66496 -1.23668 0
M  V30 1442 C 137.635 -0.353288 -1.84752 0
M  V30 1443 O 136.993 0.684346 -1.67888 0
M  V30 1444 C 137.041 -2.76763 -2.3116 0
M  V30 1445 O 136.145 -2.38928 -3.36136 0
M  V30 1446 H 135.486 -0.555828 -0.363252 0
M  V30 1447 H 138.016 -1.9725 -0.543474 0
M  V30 1448 H 138.026 -3.00232 -2.76269 0
M  V30 1449 H 136.701 -3.71954 -1.86073 0
M  V30 1450 H 135.278 -2.25953 -2.96647 0
M  V30 1451 N 137.463 0.71206 -1.40597 0
M  V30 1452 C 138.41 1.82613 -1.41142 0
M  V30 1453 C 139.38 1.63925 -0.267903 0
M  V30 1454 O 140.565 1.85009 -0.466495 0
M  V30 1455 C 137.705 3.20354 -1.28324 0
M  V30 1456 C 136.818 3.50589 -2.52411 0
M  V30 1457 C 135.953 4.77855 -2.32009 0
M  V30 1458 C 134.992 5.01005 -3.51654 0
M  V30 1459 N 134.129 6.19487 -3.30425 0
M  V30 1460 H 138.969 1.81482 -2.36365 0
M  V30 1461 H 136.506 0.886475 -1.17388 0
M  V30 1462 H 138.464 3.99899 -1.18899 0
M  V30 1463 H 137.094 3.20705 -0.367189 0
M  V30 1464 H 136.146 2.65573 -2.72351 0
M  V30 1465 H 137.458 3.63604 -3.41458 0
M  V30 1466 H 136.612 5.65424 -2.19956 0
M  V30 1467 H 135.351 4.67056 -1.40392 0
M  V30 1468 H 134.356 4.1189 -3.64179 0
M  V30 1469 H 135.581 5.13674 -4.44202 0
M  V30 1470 H 133.527 6.09932 -2.41494 0
M  V30 1471 H 133.444 6.33194 -4.13039 0
M  V30 1472 H 134.712 7.09834 -3.22113 0
M  V30 1473 N 138.941 1.26152 0.944643 0
M  V30 1474 C 140.166 1.14363 1.7302 0
M  V30 1475 C 140.591 -0.29772 1.85729 0
M  V30 1476 O 139.949 -1.2157 1.34501 0
M  V30 1477 C 139.997 1.81378 3.11664 0
M  V30 1478 O 139.101 1.10022 3.97453 0
M  V30 1479 H 138.442 0.398694 0.53098 0
M  V30 1480 H 140.972 1.66906 1.18337 0
M  V30 1481 H 140.982 1.88064 3.62072 0
M  V30 1482 H 139.657 2.86237 3.0173 0
M  V30 1483 H 138.234 1.11287 3.55907 0
M  V30 1484 N 140.419 -1.14872 1.07899 0
M  V30 1485 C 141.329 -2.2341 0.715915 0
M  V30 1486 C 142.345 -1.71808 -0.275306 0
M  V30 1487 O 143.521 -2.01039 -0.120545 0
M  V30 1488 C 140.586 -3.46474 0.125168 0
M  V30 1489 C 139.647 -4.13039 1.17034 0
M  V30 1490 C 138.88 -5.30229 0.607688 0
M  V30 1491 O 139.103 -5.675 -0.574497 0
M  V30 1492 O 138.037 -5.86444 1.35526 0
M  V30 1493 H 141.863 -2.56808 1.62121 0
M  V30 1494 H 139.448 -1.22702 0.852322 0
M  V30 1495 H 141.33 -4.20917 -0.201729 0
M  V30 1496 H 140.005 -3.14811 -0.753364 0
M  V30 1497 H 138.912 -3.40493 1.54968 0
M  V30 1498 H 140.245 -4.48796 2.02097 0
M  V30 1499 N 141.898 -0.863906 -1.31812 0
M  V30 1500 C 143.145 -0.471836 -1.96926 0
M  V30 1501 C 143.473 0.974578 -1.68322 0
M  V30 1502 O 142.728 1.7003 -0.968933 0
M  V30 1503 C 143.027 -0.668547 -3.51091 0
M  V30 1504 C 142.693 -2.08683 -3.99703 0
M  V30 1505 C 141.355 -2.47471 -4.12688 0
M  V30 1506 C 143.707 -3.01207 -4.25351 0
M  V30 1507 C 141.035 -3.78037 -4.4867 0
M  V30 1508 C 143.387 -4.31282 -4.62794 0
M  V30 1509 C 142.051 -4.69992 -4.73987 0
M  V30 1510 H 141.321 -0.172657 -0.720604 0
M  V30 1511 H 143.968 -1.09573 -1.57054 0
M  V30 1512 H 142.273 0.0385252 -3.91781 0
M  V30 1513 H 143.97 -0.345102 -3.99512 0
M  V30 1514 H 140.56 -1.77566 -3.90087 0
M  V30 1515 H 144.744 -2.72469 -4.14819 0
M  V30 1516 H 140 -4.078 -4.55532 0
M  V30 1517 H 144.174 -5.03031 -4.81594 0
M  V30 1518 H 141.801 -5.71207 -5.01624 0
M  V30 1519 N 143.376 1.44774 -0.622745 0
M  V30 1520 C 144.308 2.28856 0.125485 0
M  V30 1521 C 145.321 1.40811 0.817069 0
M  V30 1522 O 146.51 1.65044 0.679918 0
M  V30 1523 C 143.61 3.16963 1.19949 0
M  V30 1524 C 142.783 4.33374 0.592064 0
M  V30 1525 C 141.842 5.02577 1.55893 0
M  V30 1526 O 140.868 5.58873 1.07933 0
M  V30 1527 N 142.07 5.03256 2.89334 0
M  V30 1528 H 144.835 2.93713 -0.596068 0
M  V30 1529 H 142.396 1.55129 -0.463303 0
M  V30 1530 H 144.388 3.60123 1.84644 0
M  V30 1531 H 142.958 2.53913 1.82337 0
M  V30 1532 H 142.178 3.93509 -0.233322 0
M  V30 1533 H 143.466 5.08527 0.166738 0
M  V30 1534 H 142.864 4.58836 3.30887 0
M  V30 1535 H 141.421 5.50232 3.49412 0
M  V30 1536 N 144.854 0.36279 1.53368 0
M  V30 1537 C 145.801 -0.485008 2.25646 0
M  V30 1538 C 146.771 -1.07982 1.2621 0
M  V30 1539 O 147.956 -1.11284 1.54986 0
M  V30 1540 C 145.096 -1.62023 3.04701 0
M  V30 1541 C 144.209 -1.05086 4.19024 0
M  V30 1542 C 143.344 -2.15496 4.85525 0
M  V30 1543 C 142.383 -1.5601 5.91884 0
M  V30 1544 N 141.52 -2.60241 6.52088 0
M  V30 1545 H 146.36 0.137864 2.97681 0
M  V30 1546 H 143.897 0.0798061 1.46883 0
M  V30 1547 H 145.855 -2.28887 3.48807 0
M  V30 1548 H 144.485 -2.2138 2.34927 0
M  V30 1549 H 143.537 -0.27259 3.79422 0
M  V30 1550 H 144.849 -0.575926 4.95464 0
M  V30 1551 H 144.003 -2.90186 5.32801 0
M  V30 1552 H 142.742 -2.66341 4.08551 0
M  V30 1553 H 141.747 -0.798338 5.43973 0
M  V30 1554 H 142.972 -1.05994 6.70777 0
M  V30 1555 H 140.918 -3.10304 5.77968 0
M  V30 1556 H 140.835 -2.17426 7.24059 0
M  V30 1557 H 142.103 -3.34641 7.04014 0
M  V30 1558 N 146.332 -1.57332 0.0918853 0
M  V30 1559 C 147.578 -1.95328 -0.567313 0
M  V30 1560 C 147.933 -0.972866 -1.65991 0
M  V30 1561 O 147.226 0.00166256 -1.916 0
M  V30 1562 C 147.42 -3.37689 -1.17051 0
M  V30 1563 C 147.249 -4.49489 -0.137875 0
M  V30 1564 C 146.019 -5.04498 0.284515 0
M  V30 1565 C 148.217 -5.10393 0.63271 0
M  V30 1566 N 146.199 -5.99853 1.30576 0
M  V30 1567 C 147.57 -6.01435 1.50587 0
M  V30 1568 C 149.625 -4.93143 0.68658 0
M  V30 1569 C 148.328 -6.77077 2.42815 0
M  V30 1570 C 150.354 -5.69445 1.59645 0
M  V30 1571 C 149.716 -6.60151 2.45725 0
M  V30 1572 H 145.815 -0.761467 -0.178023 0
M  V30 1573 H 148.399 -1.93924 0.173706 0
M  V30 1574 H 146.57 -3.39793 -1.88136 0
M  V30 1575 H 148.302 -3.62872 -1.79181 0
M  V30 1576 H 145.057 -4.73489 -0.102593 0
M  V30 1577 H 145.481 -6.52231 1.81449 0
M  V30 1578 H 150.123 -4.22785 0.035244 0
M  V30 1579 H 147.841 -7.46699 3.08975 0
M  V30 1580 H 151.427 -5.58112 1.64323 0
M  V30 1581 H 150.307 -7.18159 3.14987 0
M  V30 1582 N 147.81 0.181792 -1.56548 0
M  V30 1583 C 148.72 1.24538 -1.98815 0
M  V30 1584 C 149.736 1.49045 -0.897861 0
M  V30 1585 O 150.912 1.61399 -1.20467 0
M  V30 1586 C 147.977 2.56683 -2.33055 0
M  V30 1587 C 147.038 2.40131 -3.55859 0
M  V30 1588 C 146.271 3.65975 -3.88456 0
M  V30 1589 O 146.494 4.70711 -3.22161 0
M  V30 1590 O 145.428 3.6071 -4.81842 0
M  V30 1591 H 149.254 0.916647 -2.89536 0
M  V30 1592 H 146.839 0.387842 -1.44278 0
M  V30 1593 H 148.721 3.34655 -2.56094 0
M  V30 1594 H 147.396 2.89157 -1.45498 0
M  V30 1595 H 146.303 1.60226 -3.38051 0
M  V30 1596 H 147.636 2.12585 -4.43924 0
M  V30 1597 N 149.288 1.51039 0.449983 0
M  V30 1598 C 150.528 1.64732 1.21007 0
M  V30 1599 C 150.892 0.349865 1.88785 0
M  V30 1600 O 152.093 0.362431 2.66345 0
M  V30 1601 C 150.364 2.80902 2.20973 0
M  V30 1602 S 151.923 3.14851 3.05638 0
M  V30 1603 H 148.741 0.5805 0.410538 0
M  V30 1604 H 151.343 1.88901 0.503634 0
M  V30 1605 H 150.047 3.73627 1.69796 0
M  V30 1606 H 149.578 2.58882 2.96215 0
M  V30 1607 H 151.593 2.60306 4.22439 0
M  V30 1608 N 150.766 -0.704594 1.40972 0
M  V30 1609 C 151.713 -1.81862 1.42109 0
M  V30 1610 C 152.683 -1.63781 0.276593 0
M  V30 1611 O 153.868 -1.84759 0.4763 0
M  V30 1612 C 151.008 -3.19669 1.30022 0
M  V30 1613 C 150.121 -3.49246 2.54267 0
M  V30 1614 C 149.256 -4.76618 2.3454 0
M  V30 1615 C 148.295 -4.99133 3.54306 0
M  V30 1616 N 147.432 -6.17726 3.33706 0
M  V30 1617 H 152.272 -1.80226 2.37324 0
M  V30 1618 H 149.809 -0.880238 1.17857 0
M  V30 1619 H 151.767 -3.99263 1.21018 0
M  V30 1620 H 150.397 -3.20506 0.384192 0
M  V30 1621 H 149.449 -2.64125 2.73756 0
M  V30 1622 H 150.761 -3.61788 3.43381 0
M  V30 1623 H 149.915 -5.64249 2.22952 0
M  V30 1624 H 148.654 -4.66305 1.42867 0
M  V30 1625 H 147.659 -4.09953 3.66359 0
M  V30 1626 H 148.884 -5.11311 4.4692 0
M  V30 1627 H 146.83 -6.08642 2.44725 0
M  V30 1628 H 146.747 -6.30995 4.16391 0
M  V30 1629 H 148.015 -7.08115 3.25873 0
M  V30 1630 N 152.244 -1.26651 -0.937939 0
M  V30 1631 C 153.192 -1.08308 -2.05845 0
M  V30 1632 C 154.186 -0.0090757 -1.69398 0
M  V30 1633 O 155.392 -0.166007 -1.79233 0
M  V30 1634 H 151.767 -0.333416 -0.674046 0
M  V30 1635 H 153.738 -2.03261 -2.18467 0
M  V30 1636 C 152.487 -0.736229 -3.39816 0
M  V30 1637 H 151.81 -1.55453 -3.6834 0
M  V30 1638 H 153.25 -0.64769 -4.19024 0
M  V30 1639 C 151.709 0.558824 -3.32233 0
M  V30 1640 O 152.239 1.59621 -3.68624 0
M  V30 1641 N 150.445 0.550657 -2.85335 0
M  V30 1642 H 149.992 -0.293943 -2.55917 0
M  V30 1643 H 149.95 1.41726 -2.80644 0
M  V30 1644 N 153.722 1.14298 -1.08507 0
M  V30 1645 C 154.999 1.81544 -0.728088 0
M  V30 1646 C 155.379 1.95838 0.78808 0
M  V30 1647 O 154.727 1.51904 1.70697 0
M  V30 1648 C 154.937 3.17169 -1.45619 0
M  V30 1649 C 156.285 3.9265 -1.61591 0
M  V30 1650 O 157.309 3.26762 -1.41793 0
M  V30 1651 O 156.168 5.10807 -1.94263 0
M  V30 1652 H 153.262 0.78491 -0.260471 0
M  V30 1653 H 155.808 1.21307 -1.18671 0
M  V30 1654 H 154.58 3.01934 -2.489 0
M  V30 1655 H 154.203 3.851 -0.989124 0
M  V30 1656 N 155.201 0.870884 1.31352 0
M  V30 1657 C 156.429 0.49677 2.00848 0
M  V30 1658 C 156.844 -0.910998 1.65367 0
M  V30 1659 O 156.201 -1.59696 0.883374 0
M  V30 1660 C 156.252 0.645308 3.55694 0
M  V30 1661 O 155.973 1.99764 3.89905 0
M  V30 1662 C 157.474 0.272326 4.42463 0
M  V30 1663 H 154.694 0.193462 0.642506 0
M  V30 1664 H 157.238 1.1723 1.67563 0
M  V30 1665 H 155.393 0.0173176 3.87396 0
M  V30 1666 H 155.807 2.00607 4.84621 0
M  V30 1667 H 157.281 0.427208 5.50344 0
M  V30 1668 H 157.758 -0.788587 4.32062 0
M  V30 1669 H 158.364 0.876054 4.1618 0
M  V30 1670 N 156.679 -1.44442 0.630414 0
M  V30 1671 C 157.609 -2.33418 -0.0618083 0
M  V30 1672 C 158.59 -1.48165 -0.835541 0
M  V30 1673 O 159.775 -1.76886 -0.801564 0
M  V30 1674 C 156.905 -3.31222 -1.04449 0
M  V30 1675 C 155.859 -4.26288 -0.382436 0
M  V30 1676 C 155.185 -5.13954 -1.47497 0
M  V30 1677 C 156.485 -5.1744 0.710865 0
M  V30 1678 H 158.179 -2.91548 0.681184 0
M  V30 1679 H 155.725 -1.40191 0.329026 0
M  V30 1680 H 157.678 -3.92351 -1.53748 0
M  V30 1681 H 156.402 -2.71299 -1.81836 0
M  V30 1682 H 155.061 -3.6649 0.0899054 0
M  V30 1683 H 154.709 -4.50385 -2.2397 0
M  V30 1684 H 154.409 -5.7837 -1.03737 0
M  V30 1685 H 155.933 -5.77955 -1.96979 0
M  V30 1686 H 157.347 -5.72509 0.300996 0
M  V30 1687 H 155.744 -5.90455 1.07156 0
M  V30 1688 H 156.814 -4.58496 1.57829 0
M  V30 1689 N 158.157 -0.370918 -1.53173 0
M  V30 1690 C 159.087 0.464847 -2.28826 0
M  V30 1691 C 160.068 1.07936 -1.31468 0
M  V30 1692 O 161.253 1.0956 -1.60344 0
M  V30 1693 C 158.383 1.60196 -3.08147 0
M  V30 1694 C 157.337 1.11443 -4.13237 0
M  V30 1695 C 156.663 2.3422 -4.80672 0
M  V30 1696 C 157.963 0.195384 -5.21934 0
M  V30 1697 H 159.657 -0.166329 -2.98938 0
M  V30 1698 H 157.203 -0.0814359 -1.4377 0
M  V30 1699 H 159.156 2.19332 -3.59822 0
M  V30 1700 H 157.88 2.26045 -2.35735 0
M  V30 1701 H 156.539 0.545727 -3.62515 0
M  V30 1702 H 156.187 2.98537 -4.04827 0
M  V30 1703 H 155.887 2.02269 -5.51689 0
M  V30 1704 H 157.411 2.94032 -5.35143 0
M  V30 1705 H 158.825 0.694375 -5.69079 0
M  V30 1706 H 157.222 -0.0335027 -6.00091 0
M  V30 1707 H 158.292 -0.760961 -4.78892 0
M  V30 1708 N 159.635 1.57281 -0.100228 0
M  V30 1709 C 160.883 1.94153 0.561157 0
M  V30 1710 C 161.204 0.983157 1.68401 0
M  V30 1711 O 160.474 0.0361132 1.95867 0
M  V30 1712 H 159.054 0.716791 0.210283 0
M  V30 1713 H 161.716 1.94202 -0.164765 0
M  V30 1714 H 160.812 2.96709 0.968008 0
M  V30 1715 N 161.113 -0.173488 1.56642 0
M  V30 1716 C 162.362 -0.888758 1.81063 0
M  V30 1717 C 162.675 -1.83506 0.67712 0
M  V30 1718 O 163.881 -2.59254 0.806206 0
M  V30 1719 C 162.337 -1.63091 3.20826 0
M  V30 1720 C 161.945 -0.728357 4.4204 0
M  V30 1721 C 163.689 -2.33454 3.54541 0
M  V30 1722 C 161.596 -1.47062 5.72823 0
M  V30 1723 H 160.526 -0.335618 0.675186 0
M  V30 1724 H 163.177 -0.141712 1.82952 0
M  V30 1725 H 161.559 -2.42263 3.13248 0
M  V30 1726 H 162.733 0.0262449 4.60793 0
M  V30 1727 H 161.048 -0.134492 4.16183 0
M  V30 1728 H 163.645 -2.89578 4.49498 0
M  V30 1729 H 163.988 -3.08687 2.79317 0
M  V30 1730 H 164.521 -1.61227 3.63663 0
M  V30 1731 H 161.26 -0.760658 6.51072 0
M  V30 1732 H 160.78 -2.1986 5.58052 0
M  V30 1733 H 162.459 -2.01868 6.14702 0
M  V30 1734 N 162.591 -1.51276 -0.441967 0
M  V30 1735 C 163.538 -1.72256 -1.53612 0
M  V30 1736 C 164.508 -0.564164 -1.56225 0
M  V30 1737 O 165.693 -0.798074 -1.73307 0
M  V30 1738 C 162.833 -1.84932 -2.91366 0
M  V30 1739 C 161.946 -3.12459 -2.98317 0
M  V30 1740 C 161.081 -3.15758 -4.27166 0
M  V30 1741 C 160.12 -4.37619 -4.27967 0
M  V30 1742 N 159.257 -4.38493 -5.48333 0
M  V30 1743 H 164.097 -2.65654 -1.35026 0
M  V30 1744 H 161.634 -1.31662 -0.656009 0
M  V30 1745 H 163.592 -1.90263 -3.7129 0
M  V30 1746 H 162.222 -0.949461 -3.08521 0
M  V30 1747 H 161.274 -3.1646 -2.11086 0
M  V30 1748 H 162.586 -4.02382 -2.94771 0
M  V30 1749 H 161.74 -3.19979 -5.15459 0
M  V30 1750 H 160.479 -2.23715 -4.33362 0
M  V30 1751 H 159.484 -4.33579 -3.38067 0
M  V30 1752 H 160.709 -5.30921 -4.23438 0
M  V30 1753 H 158.655 -3.49318 -5.55259 0
M  V30 1754 H 158.572 -5.22219 -5.46647 0
M  V30 1755 H 159.84 -4.469 -6.38671 0
M  V30 1756 N 164.069 0.697108 -1.41344 0
M  V30 1757 C 165.317 1.45426 -1.40341 0
M  V30 1758 C 165.638 1.94996 -0.0128787 0
M  V30 1759 O 164.908 1.71599 0.945027 0
M  V30 1760 H 163.488 0.539594 -0.516573 0
M  V30 1761 H 166.15 0.825201 -1.76569 0
M  V30 1762 H 165.246 2.31817 -2.08967 0
M  V30 1763 N 165.547 1.27147 0.931209 0
M  V30 1764 C 166.457 1.11372 2.06478 0
M  V30 1765 C 167.473 0.044645 1.73943 0
M  V30 1766 O 168.649 0.250417 1.99837 0
M  V30 1767 C 165.714 0.758838 3.38294 0
M  V30 1768 C 164.775 1.90841 3.84549 0
M  V30 1769 C 164.008 1.57036 5.10074 0
M  V30 1770 O 164.231 0.476645 5.68405 0
M  V30 1771 O 163.165 2.40839 5.51616 0
M  V30 1772 H 166.991 2.06493 2.22698 0
M  V30 1773 H 164.576 1.06301 1.04978 0
M  V30 1774 H 166.458 0.574098 4.17471 0
M  V30 1775 H 165.133 -0.162879 3.2329 0
M  V30 1776 H 164.04 2.14819 3.06274 0
M  V30 1777 H 165.373 2.81021 4.04089 0
M  V30 1778 N 167.025 -1.13721 1.09112 0
M  V30 1779 C 168.302 -1.81155 0.737706 0
M  V30 1780 C 168.682 -1.96253 -0.777683 0
M  V30 1781 O 168.03 -1.52807 -1.69889 0
M  V30 1782 C 168.24 -3.16392 1.47299 0
M  V30 1783 C 169.588 -3.91787 1.63671 0
M  V30 1784 O 170.612 -3.26005 1.43524 0
M  V30 1785 O 169.471 -5.0977 1.96969 0
M  V30 1786 H 166.565 -0.783518 0.26463 0
M  V30 1787 H 169.111 -1.20676 1.19312 0
M  V30 1788 H 167.883 -3.0061 2.50498 0
M  V30 1789 H 167.506 -3.8457 1.00953 0
M  V30 1790 N 168.503 -0.877838 -1.30888 0
M  V30 1791 C 169.433 -0.35534 -2.3078 0
M  V30 1792 C 170.414 0.557994 -1.60687 0
M  V30 1793 O 171.599 0.473355 -1.88343 0
M  V30 1794 C 168.729 0.437221 -3.44537 0
M  V30 1795 C 167.683 -0.383715 -4.26276 0
M  V30 1796 C 167.009 0.535014 -5.32017 0
M  V30 1797 C 168.309 -1.62201 -4.96476 0
M  V30 1798 H 170.003 -1.19007 -2.74732 0
M  V30 1799 H 167.549 -0.573698 -1.32078 0
M  V30 1800 H 169.502 0.813334 -4.13477 0
M  V30 1801 H 168.226 1.30553 -2.99372 0
M  V30 1802 H 166.885 -0.741874 -3.59015 0
M  V30 1803 H 166.533 1.40083 -4.831 0
M  V30 1804 H 166.233 -0.0104211 -5.87599 0
M  V30 1805 H 167.757 0.907799 -6.03814 0
M  V30 1806 H 169.171 -1.31689 -5.5797 0
M  V30 1807 H 167.568 -2.10711 -5.61891 0
M  V30 1808 H 168.638 -2.37044 -4.23011 0
M  V30 1809 N 169.982 1.44106 -0.638065 0
M  V30 1810 C 171.229 2.01978 -0.14533 0
M  V30 1811 C 171.557 1.50234 1.23532 0
M  V30 1812 O 170.812 0.679548 1.83523 0
M  V30 1813 C 171.111 3.5729 -0.0887327 0
M  V30 1814 C 170.777 4.28317 -1.40909 0
M  V30 1815 C 169.439 4.47437 -1.77069 0
M  V30 1816 C 171.791 4.6867 -2.28031 0
M  V30 1817 C 169.119 5.04171 -3.00047 0
M  V30 1818 C 171.471 5.26766 -3.50286 0
M  V30 1819 C 170.135 5.44104 -3.86661 0
M  V30 1820 H 169.405 0.739089 -0.0531801 0
M  V30 1821 H 172.052 1.72781 -0.825761 0
M  V30 1822 H 170.357 3.8594 0.675095 0
M  V30 1823 H 172.054 3.99807 0.309145 0
M  V30 1824 H 168.644 4.1377 -1.1177 0
M  V30 1825 H 172.828 4.53604 -2.01388 0
M  V30 1826 H 168.084 5.15782 -3.28298 0
M  V30 1827 H 172.258 5.56983 -4.18023 0
M  V30 1828 H 169.885 5.87832 -4.82034 0
M  V30 1829 N 171.46 0.379036 1.52974 0
M  V30 1830 C 172.707 -0.206421 2.01445 0
M  V30 1831 C 173.035 -1.47668 1.26587 0
M  V30 1832 O 172.29 -1.92514 0.351675 0
M  V30 1833 C 172.589 -0.53096 3.53434 0
M  V30 1834 C 172.255 0.646546 4.46241 0
M  V30 1835 C 170.917 0.969604 4.7133 0
M  V30 1836 C 173.269 1.43479 5.01062 0
M  V30 1837 C 170.597 2.08263 5.48492 0
M  V30 1838 C 172.949 2.53834 5.7944 0
M  V30 1839 C 171.613 2.86659 6.02812 0
M  V30 1840 H 170.883 -0.0755349 0.73714 0
M  V30 1841 H 173.53 0.514271 1.84465 0
M  V30 1842 H 171.835 -1.33285 3.68432 0
M  V30 1843 H 173.532 -0.996417 3.88423 0
M  V30 1844 H 170.122 0.384734 4.2687 0
M  V30 1845 H 174.306 1.19844 4.81613 0
M  V30 1846 H 169.562 2.34078 5.64816 0
M  V30 1847 H 173.736 3.15319 6.20924 0
M  V30 1848 H 171.363 3.73026 6.62387 0
M  V30 1849 N 172.938 -1.57226 0.108567 0
M  V30 1850 C 173.886 -2.16002 -0.862885 0
M  V30 1851 C 174.88 -1.10644 -1.28274 0
M  V30 1852 O 176.086 -1.28966 -1.2557 0
M  V30 1853 H 172.461 -0.691148 -0.296342 0
M  V30 1854 H 174.432 -2.96427 -0.342575 0
M  V30 1855 C 173.181 -2.76576 -2.10716 0
M  V30 1856 H 172.504 -3.5734 -1.793 0
M  V30 1857 H 173.944 -3.21253 -2.76717 0
M  V30 1858 C 172.403 -1.73137 -2.89007 0
M  V30 1859 O 172.933 -1.17842 -3.84026 0
M  V30 1860 N 171.139 -1.43317 -2.52801 0
M  V30 1861 H 170.686 -1.88473 -1.75601 0
M  V30 1862 H 170.644 -0.743485 -3.05483 0
M  V30 1863 N 174.416 0.165178 -1.56732 0
M  V30 1864 C 175.646 0.894919 -1.86212 0
M  V30 1865 C 176.054 1.76066 -0.692627 0
M  V30 1866 O 175.397 1.80387 0.347303 0
M  V30 1867 C 175.459 1.8174 -3.10179 0
M  V30 1868 C 175.123 1.13064 -4.42793 0
M  V30 1869 C 176.12 0.493169 -5.17556 0
M  V30 1870 C 173.805 1.12556 -4.89527 0
M  V30 1871 C 175.799 -0.140209 -6.37246 0
M  V30 1872 C 173.486 0.488366 -6.09145 0
M  V30 1873 C 174.484 -0.143411 -6.82849 0
M  V30 1874 O 174.172 -0.77055 -8.00199 0
M  V30 1875 H 173.904 0.265114 -0.621844 0
M  V30 1876 H 176.458 0.168242 -2.0471 0
M  V30 1877 H 174.688 2.58455 -2.87642 0
M  V30 1878 H 176.377 2.4175 -3.26055 0
M  V30 1879 H 177.143 0.489023 -4.82528 0
M  V30 1880 H 173.022 1.60672 -4.32094 0
M  V30 1881 H 176.566 -0.633932 -6.94714 0
M  V30 1882 H 172.463 0.490116 -6.43637 0
M  V30 1883 H 173.231 -0.670408 -8.1575 0
M  V30 1884 N 175.894 1.51508 0.433938 0
M  V30 1885 C 177.142 1.6402 1.18075 0
M  V30 1886 C 177.463 0.360328 1.91642 0
M  V30 1887 O 176.733 -0.623945 1.85698 0
M  V30 1888 H 175.313 0.6045 0.43885 0
M  V30 1889 H 177.975 1.88452 0.497178 0
M  V30 1890 H 177.071 2.46949 1.90847 0
M  V30 1891 N 177.372 -0.689602 1.41712 0
M  V30 1892 C 178.32 -1.82475 1.44242 0
M  V30 1893 C 179.314 -1.66354 0.319774 0
M  V30 1894 O 180.52 -1.73143 0.492089 0
M  V30 1895 H 176.895 -0.601416 0.451445 0
M  V30 1896 H 178.866 -1.77458 2.39899 0
M  V30 1897 C 177.615 -3.20535 1.3473 0
M  V30 1898 H 176.938 -3.33559 2.20405 0
M  V30 1899 H 178.378 -4.00023 1.40562 0
M  V30 1900 C 176.837 -3.36846 0.0603281 0
M  V30 1901 O 177.367 -3.91656 -0.892663 0
M  V30 1902 N 175.573 -2.90595 -0.0177039 0
M  V30 1903 H 175.12 -2.46178 0.758572 0
M  V30 1904 H 175.078 -3.01886 -0.878201 0
M  V30 1905 N 178.85 -1.27639 -0.924453 0
M  V30 1906 C 180.266 -1.05113 -1.20097 0
M  V30 1907 C 180.466 0.213262 -2.00368 0
M  V30 1908 O 179.522 0.91787 -2.35226 0
M  V30 1909 C 180.835 -2.29244 -1.94596 0
M  V30 1910 C 182.383 -2.34315 -2.07522 0
M  V30 1911 C 182.858 -3.58183 -2.85427 0
M  V30 1912 N 184.349 -3.5876 -2.92994 0
M  V30 1913 C 185.084 -4.51277 -3.53746 0
M  V30 1914 N 184.58 -5.54102 -4.15863 0
M  V30 1915 N 186.373 -4.38894 -3.51181 0
M  V30 1916 H 178.524 -2.08821 -0.388264 0
M  V30 1917 H 180.787 -0.918568 -0.234385 0
M  V30 1918 H 180.493 -3.21301 -1.43034 0
M  V30 1919 H 180.367 -2.34816 -2.95197 0
M  V30 1920 H 182.754 -1.42762 -2.58269 0
M  V30 1921 H 182.835 -2.32744 -1.06131 0
M  V30 1922 H 182.479 -4.50074 -2.35363 0
M  V30 1923 H 182.409 -3.57006 -3.8711 0
M  V30 1924 H 184.9 -2.84398 -2.4885 0
M  V30 1925 H 185.213 -6.20859 -4.60168 0
M  V30 1926 H 183.558 -5.57941 -4.144 0
M  V30 1927 H 186.749 -3.57772 -3.01856 0
M  V30 1928 H 186.922 -5.11186 -3.98237 0
M  V30 1929 N 180.328 1.1314 -1.09713 0
M  V30 1930 C 181.26 2.18343 -0.697056 0
M  V30 1931 C 182.273 1.60669 0.262551 0
M  V30 1932 O 183.462 1.78435 0.0481527 0
M  V30 1933 C 180.562 3.38899 -0.00684728 0
M  V30 1934 C 179.735 4.26078 -0.988741 0
M  V30 1935 C 178.794 5.25155 -0.331394 0
M  V30 1936 O 177.82 5.60701 -0.979926 0
M  V30 1937 N 179.022 5.73271 0.913261 0
M  V30 1938 H 181.787 2.5328 -1.60216 0
M  V30 1939 H 179.348 1.28491 -0.984971 0
M  V30 1940 H 181.34 4.02255 0.444191 0
M  V30 1941 H 179.91 3.02175 0.800551 0
M  V30 1942 H 179.13 3.59453 -1.61826 0
M  V30 1943 H 180.418 4.81178 -1.65364 0
M  V30 1944 H 179.816 5.46544 1.45966 0
M  V30 1945 H 178.373 6.3855 1.30757 0
M  V30 1946 N 181.806 0.884767 1.30421 0
M  V30 1947 C 182.716 0.355398 2.31892 0
M  V30 1948 C 183.732 -0.542261 1.65335 0
M  V30 1949 O 184.908 -0.435432 1.96637 0
M  V30 1950 C 181.973 -0.421661 3.44126 0
M  V30 1951 C 181.034 0.505727 4.26311 0
M  V30 1952 C 180.267 -0.234343 5.33185 0
M  V30 1953 O 180.49 -1.46045 5.51386 0
M  V30 1954 O 179.424 0.415443 6.00465 0
M  V30 1955 H 183.25 1.19685 2.79122 0
M  V30 1956 H 180.835 0.648596 1.34587 0
M  V30 1957 H 182.717 -0.861641 4.12497 0
M  V30 1958 H 181.392 -1.23942 2.99032 0
M  V30 1959 H 180.299 0.994513 3.60639 0
M  V30 1960 H 181.632 1.28948 4.75009 0
M  V30 1961 N 183.284 -1.43765 0.645699 0
M  V30 1962 C 184.231 -2.30745 -0.0504648 0
M  V30 1963 C 185.201 -1.4432 -0.822241 0
M  V30 1964 O 186.386 -1.73202 -0.800358 0
M  V30 1965 C 183.526 -3.29802 -1.0161 0
M  V30 1966 C 182.639 -4.31326 -0.241219 0
M  V30 1967 C 181.774 -5.17469 -1.19998 0
M  V30 1968 C 180.813 -6.10691 -0.415094 0
M  V30 1969 N 179.95 -6.89483 -1.32506 0
M  V30 1970 H 184.79 -2.8973 0.697155 0
M  V30 1971 H 182.327 -1.42738 0.355563 0
M  V30 1972 H 184.285 -3.85734 -1.58949 0
M  V30 1973 H 182.915 -2.72483 -1.73069 0
M  V30 1974 H 181.967 -3.77749 0.448334 0
M  V30 1975 H 183.279 -4.9743 0.369437 0
M  V30 1976 H 182.433 -5.7799 -1.84424 0
M  V30 1977 H 181.172 -4.51473 -1.84455 0
M  V30 1978 H 180.177 -5.49265 0.242565 0
M  V30 1979 H 181.402 -6.78727 0.224966 0
M  V30 1980 H 179.348 -6.26142 -1.95657 0
M  V30 1981 H 179.265 -7.52081 -0.768783 0
M  V30 1982 H 180.533 -7.54516 -1.9577 0
M  V30 1983 N 184.763 -0.387143 -1.52771 0
M  V30 1984 C 185.711 0.463953 -2.27926 0
M  V30 1985 C 186.705 1.06493 -1.31741 0
M  V30 1986 O 187.911 1.00565 -1.49287 0
M  V30 1987 H 184.286 0.16837 -0.732909 0
M  V30 1988 H 186.257 -0.19141 -2.97785 0
M  V30 1989 C 185.006 1.5803 -3.09713 0
M  V30 1990 H 184.329 1.12718 -3.83581 0
M  V30 1991 H 185.769 2.15008 -3.65442 0
M  V30 1992 C 184.228 2.53509 -2.2189 0
M  V30 1993 O 184.758 3.56863 -1.84422 0
M  V30 1994 N 182.964 2.23199 -1.86093 0
M  V30 1995 H 182.511 1.39185 -2.16761 0
M  V30 1996 H 182.469 2.87333 -1.27621 0
M  V30 1997 N 186.241 1.57166 -0.116904 0
M  V30 1998 C 187.49 1.94298 0.541407 0
M  V30 1999 C 187.803 1.00236 1.67964 0
M  V30 2000 O 189.009 1.26826 2.40057 0
M  V30 2001 C 187.465 3.45306 1.01449 0
M  V30 2002 C 187.073 4.47899 -0.0951738 0
M  V30 2003 C 188.817 3.91361 1.6443 0
M  V30 2004 C 186.724 5.90083 0.394491 0
M  V30 2005 H 185.654 0.725308 0.206019 0
M  V30 2006 H 188.305 1.82446 -0.196419 0
M  V30 2007 H 186.687 3.52385 1.80667 0
M  V30 2008 H 187.861 4.52486 -0.871374 0
M  V30 2009 H 186.176 4.11583 -0.631505 0
M  V30 2010 H 188.773 4.95004 2.02176 0
M  V30 2011 H 189.116 3.3122 2.52189 0
M  V30 2012 H 189.649 3.87073 0.917559 0
M  V30 2013 H 186.388 6.53974 -0.447004 0
M  V30 2014 H 185.908 5.88921 1.13722 0
M  V30 2015 H 187.587 6.41307 0.856399 0
M  V30 2016 N 187.719 -0.156864 1.56817 0
M  V30 2017 C 188.652 -1.22316 1.9265 0
M  V30 2018 C 189.63 -1.42059 0.791076 0
M  V30 2019 O 190.814 -1.56831 1.04576 0
M  V30 2020 C 187.941 -2.58375 2.18998 0
M  V30 2021 C 186.987 -2.55284 3.41661 0
M  V30 2022 S 187.82 -2.02946 4.95553 0
M  V30 2023 C 188.976 -3.40753 5.25013 0
M  V30 2024 H 189.209 -0.917403 2.82791 0
M  V30 2025 H 186.742 -0.362059 1.50095 0
M  V30 2026 H 188.7 -3.36677 2.34859 0
M  V30 2027 H 187.361 -2.86145 1.29538 0
M  V30 2028 H 186.554 -3.55418 3.57343 0
M  V30 2029 H 186.156 -1.85086 3.24991 0
M  V30 2030 H 188.448 -4.36819 5.17876 0
M  V30 2031 H 189.391 -3.29933 6.26538 0
M  V30 2032 H 189.799 -3.37433 4.52548 0
M  V30 2033 N 189.197 -1.51736 -0.425897 0
M  V30 2034 C 190.127 -1.76827 -1.52494 0
M  V30 2035 C 191.108 -0.618524 -1.58456 0
M  V30 2036 O 192.293 -0.862416 -1.74 0
M  V30 2037 C 189.423 -1.90374 -2.90474 0
M  V30 2038 C 188.377 -3.0588 -2.99369 0
M  V30 2039 C 187.703 -3.04625 -4.3944 0
M  V30 2040 C 189.003 -4.45644 -2.72394 0
M  V30 2041 H 190.697 -2.68855 -1.31748 0
M  V30 2042 H 188.243 -1.29372 -0.632362 0
M  V30 2043 H 190.196 -2.0651 -3.6733 0
M  V30 2044 H 188.92 -0.95004 -3.12477 0
M  V30 2045 H 187.579 -2.89467 -2.24954 0
M  V30 2046 H 187.227 -2.0701 -4.58428 0
M  V30 2047 H 186.927 -3.82195 -4.46319 0
M  V30 2048 H 188.451 -3.22869 -5.18255 0
M  V30 2049 H 189.865 -4.62348 -3.38979 0
M  V30 2050 H 188.262 -5.25006 -2.9067 0
M  V30 2051 H 189.332 -4.54893 -1.67929 0
M  V30 2052 N 190.675 0.682077 -1.42076 0
M  V30 2053 C 191.905 1.46844 -1.45329 0
M  V30 2054 C 192.313 1.89102 -0.0609328 0
M  V30 2055 O 191.656 1.58238 0.933082 0
M  V30 2056 C 191.718 2.75375 -2.31104 0
M  V30 2057 C 191.382 2.55238 -3.79081 0
M  V30 2058 C 192.379 2.20309 -4.70914 0
M  V30 2059 C 190.064 2.70459 -4.2327 0
M  V30 2060 C 192.058 2.00859 -6.04925 0
M  V30 2061 C 189.745 2.50624 -5.57343 0
M  V30 2062 C 190.743 2.15876 -6.47986 0
M  V30 2063 O 190.431 1.96227 -7.79583 0
M  V30 2064 H 190.163 0.4586 -0.496651 0
M  V30 2065 H 192.717 0.846131 -1.87162 0
M  V30 2066 H 190.947 3.40061 -1.84107 0
M  V30 2067 H 192.636 3.37231 -2.25898 0
M  V30 2068 H 193.402 2.08153 -4.38061 0
M  V30 2069 H 189.281 2.96485 -3.53012 0
M  V30 2070 H 192.825 1.7366 -6.75639 0
M  V30 2071 H 188.722 2.62375 -5.89771 0
M  V30 2072 H 189.49 2.10883 -7.90867 0
M  V30 2073 N 192.153 1.28127 0.917671 0
M  V30 2074 C 193.1 1.11717 2.0196 0
M  V30 2075 C 194.07 0.0153929 1.66093 0
M  V30 2076 O 195.255 0.179596 1.89953 0
M  V30 2077 C 192.395 0.780927 3.36148 0
M  V30 2078 C 191.508 1.96135 3.84909 0
M  V30 2079 C 190.643 1.56609 5.0759 0
M  V30 2080 C 189.682 2.71339 5.48673 0
M  V30 2081 N 188.819 2.32332 6.62545 0
M  V30 2082 H 193.659 2.06003 2.15329 0
M  V30 2083 H 191.196 1.02535 1.05475 0
M  V30 2084 H 193.154 0.56675 4.13333 0
M  V30 2085 H 191.784 -0.124998 3.22558 0
M  V30 2086 H 190.836 2.28777 3.03916 0
M  V30 2087 H 192.148 2.82165 4.1132 0
M  V30 2088 H 191.302 1.31374 5.92305 0
M  V30 2089 H 190.041 0.677014 4.82978 0
M  V30 2090 H 189.046 2.97276 4.62501 0
M  V30 2091 H 190.271 3.60882 5.75274 0
M  V30 2092 H 188.217 1.45889 6.39572 0
M  V30 2093 H 188.134 3.11899 6.88662 0
M  V30 2094 H 189.402 2.10371 7.50576 0
M  V30 2095 N 193.631 -1.12557 1.10312 0
M  V30 2096 C 194.879 -1.83675 0.843091 0
M  V30 2097 C 195.2 -1.84435 -0.633131 0
M  V30 2098 O 194.47 -1.30657 -1.45964 0
M  V30 2099 H 193.05 -0.680138 0.308904 0
M  V30 2100 H 195.712 -1.36301 1.39313 0
M  V30 2101 H 194.808 -2.87908 1.2048 0
M  V30 2102 N 195.109 -0.891671 -1.2995 0
M  V30 2103 C 196.334 -0.527932 -2.00568 0
M  V30 2104 C 196.759 0.877969 -1.66353 0
M  V30 2105 O 196.117 1.58301 -0.883762 0
M  V30 2106 C 196.165 -0.717745 -3.53385 0
M  V30 2107 O 195.269 0.233376 -4.11739 0
M  V30 2108 H 194.61 -0.20722 -0.630837 0
M  V30 2109 H 197.14 -1.20105 -1.65638 0
M  V30 2110 H 197.15 -0.619307 -4.03272 0
M  V30 2111 H 195.825 -1.74276 -3.77625 0
M  V30 2112 H 194.402 0.0880706 -3.72796 0
M  V30 2113 N 196.587 1.43421 -0.653314 0
M  V30 2114 C 197.835 2.01414 -0.166415 0
M  V30 2115 C 198.156 1.51803 1.22397 0
M  V30 2116 O 197.426 0.730693 1.81763 0
M  V30 2117 H 196.006 0.744703 -0.0585319 0
M  V30 2118 H 198.668 1.75629 -0.845003 0
M  V30 2119 H 197.764 3.11734 -0.151111 0
M  V30 2120 N 198.065 0.39524 1.52563 0
M  V30 2121 C 198.995 -0.428384 2.29537 0
M  V30 2122 C 199.976 -1.05831 1.33169 0
M  V30 2123 O 201.161 -1.06995 1.62067 0
M  V30 2124 C 198.291 -1.55274 3.10656 0
M  V30 2125 C 197.245 -1.04855 4.14957 0
M  V30 2126 C 196.571 -2.26543 4.84337 0
M  V30 2127 C 197.871 -0.112324 5.22179 0
M  V30 2128 H 199.565 0.213867 2.98635 0
M  V30 2129 H 197.111 0.104298 1.43622 0
M  V30 2130 H 199.064 -2.1358 3.63265 0
M  V30 2131 H 197.788 -2.22266 2.39302 0
M  V30 2132 H 196.447 -0.487985 3.63338 0
M  V30 2133 H 196.095 -2.92059 4.09525 0
M  V30 2134 H 195.795 -1.93466 5.54837 0
M  V30 2135 H 197.319 -2.85481 5.39753 0
M  V30 2136 H 198.733 -0.603752 5.70112 0
M  V30 2137 H 197.13 0.128968 5.99961 0
M  V30 2138 H 198.2 0.837052 4.77621 0
M  V30 2139 N 199.544 -1.57102 0.125237 0
M  V30 2140 C 200.79 -1.96488 -0.525753 0
M  V30 2141 C 201.145 -1.00786 -1.6389 0
M  V30 2142 O 200.438 -0.038979 -1.9156 0
M  V30 2143 C 200.632 -3.40096 -1.09862 0
M  V30 2144 C 200.461 -4.4968 -0.0425004 0
M  V30 2145 C 199.231 -5.03781 0.391463 0
M  V30 2146 C 201.429 -5.08936 0.740829 0
M  V30 2147 N 199.411 -5.96948 1.4327 0
M  V30 2148 C 200.782 -5.98105 1.6331 0
M  V30 2149 C 202.837 -4.91576 0.791029 0
M  V30 2150 C 201.54 -6.71774 2.57122 0
M  V30 2151 C 203.566 -5.6593 1.71688 0
M  V30 2152 C 202.928 -6.5479 2.59672 0
M  V30 2153 H 199.027 -0.765072 -0.161831 0
M  V30 2154 H 201.611 -1.93511 0.214801 0
M  V30 2155 H 199.782 -3.43707 -1.80887 0
M  V30 2156 H 201.514 -3.66591 -1.71444 0
M  V30 2157 H 198.269 -4.736 -0.00213584 0
M  V30 2158 H 198.693 -6.48236 1.95243 0
M  V30 2159 H 203.335 -4.22615 0.124915 0
M  V30 2160 H 201.053 -7.39977 3.24744 0
M  V30 2161 H 204.639 -5.54501 1.76125 0
M  V30 2162 H 203.519 -7.11316 3.30149 0
M  V30 2163 N 201.022 0.148545 -1.56898 0
M  V30 2164 C 202.247 0.880385 -1.87787 0
M  V30 2165 C 202.672 1.74018 -0.714093 0
M  V30 2166 O 202.03 1.78153 0.336343 0
M  V30 2167 C 202.078 1.71422 -3.17249 0
M  V30 2168 O 201.182 2.8183 -3.01074 0
M  V30 2169 H 200.523 0.245301 -0.617028 0
M  V30 2170 H 203.053 0.139826 -2.04122 0
M  V30 2171 H 203.063 2.10954 -3.49231 0
M  V30 2172 H 201.738 1.08284 -4.01556 0
M  V30 2173 H 200.315 2.45715 -2.80497 0
M  V30 2174 N 202.5 1.5196 0.417844 0
M  V30 2175 C 203.916 1.40569 0.755816 0
M  V30 2176 C 204.116 0.503316 1.95113 0
M  V30 2177 O 203.172 -0.0341925 2.52477 0
M  V30 2178 C 204.485 2.82947 1.01791 0
M  V30 2179 C 206.033 2.92231 1.12116 0
M  V30 2180 C 206.508 4.35559 1.41608 0
M  V30 2181 N 207.999 4.38753 1.48491 0
M  V30 2182 C 208.734 5.46705 1.7292 0
M  V30 2183 N 208.23 6.64788 1.95011 0
M  V30 2184 N 210.023 5.34209 1.74863 0
M  V30 2185 H 202.174 2.09168 -0.369098 0
M  V30 2186 H 204.437 0.942409 -0.102809 0
M  V30 2187 H 204.143 3.5106 0.212081 0
M  V30 2188 H 204.017 3.23462 1.94042 0
M  V30 2189 H 206.404 2.24304 1.9176 0
M  V30 2190 H 206.485 2.55185 0.177225 0
M  V30 2191 H 206.129 5.04042 0.624848 0
M  V30 2192 H 206.059 4.70133 2.37239 0
M  V30 2193 H 208.55 3.5363 1.33244 0
M  V30 2194 H 208.863 7.42845 2.13076 0
M  V30 2195 H 207.208 6.67869 1.92293 0
M  V30 2196 H 210.399 4.40937 1.57137 0
M  V30 2197 H 210.572 6.18415 1.93563 0
M  V30 2198 N 203.978 -0.674533 1.42435 0
M  V30 2199 C 205.224 -1.43521 1.4413 0
M  V30 2200 C 205.579 -1.92316 0.0567773 0
M  V30 2201 O 204.872 -1.68008 -0.921076 0
M  V30 2202 C 205.066 -2.64767 2.40069 0
M  V30 2203 C 204.895 -2.27836 3.87713 0
M  V30 2204 C 203.665 -2.17183 4.56245 0
M  V30 2205 C 205.863 -1.89466 4.78129 0
M  V30 2206 N 203.845 -1.73358 5.88915 0
M  V30 2207 C 205.216 -1.56561 5.99907 0
M  V30 2208 C 207.271 -1.7646 4.65582 0
M  V30 2209 C 205.974 -1.11957 7.10534 0
M  V30 2210 C 208 -1.3326 5.76191 0
M  V30 2211 C 207.362 -1.0128 6.97081 0
M  V30 2212 H 203.461 -0.521656 0.582579 0
M  V30 2213 H 206.045 -0.778381 1.78464 0
M  V30 2214 H 204.216 -3.28139 2.07796 0
M  V30 2215 H 205.948 -3.3136 2.32342 0
M  V30 2216 H 202.703 -2.3626 4.10461 0
M  V30 2217 H 203.127 -1.53867 6.59283 0
M  V30 2218 H 207.769 -1.99831 3.72595 0
M  V30 2219 H 205.487 -0.873318 8.03367 0
M  V30 2220 H 209.073 -1.23717 5.68494 0
M  V30 2221 H 207.953 -0.683597 7.81215 0
M  V30 2222 N 205.456 -1.28612 -0.910864 0
M  V30 2223 C 206.403 -1.12786 -2.01365 0
M  V30 2224 C 207.373 -0.024201 -1.66082 0
M  V30 2225 O 208.558 -0.189667 -1.89855 0
M  V30 2226 C 205.698 -0.798743 -3.35729 0
M  V30 2227 C 204.811 -1.98173 -3.83864 0
M  V30 2228 C 203.946 -1.59298 -5.06752 0
M  V30 2229 C 202.985 -2.74245 -5.47226 0
M  V30 2230 N 202.122 -2.35842 -6.61304 0
M  V30 2231 H 206.962 -2.07142 -2.14234 0
M  V30 2232 H 204.499 -1.03093 -1.0493 0
M  V30 2233 H 206.457 -0.588662 -4.13026 0
M  V30 2234 H 205.087 0.10789 -3.2262 0
M  V30 2235 H 204.139 -2.30386 -3.02699 0
M  V30 2236 H 205.451 -2.84343 -4.09818 0
M  V30 2237 H 204.605 -1.34513 -5.916 0
M  V30 2238 H 203.344 -0.702618 -4.82612 0
M  V30 2239 H 202.349 -2.99725 -4.60918 0
M  V30 2240 H 203.574 -3.63928 -5.73353 0
M  V30 2241 H 201.52 -1.49279 -6.38789 0
M  V30 2242 H 201.437 -3.15546 -6.86998 0
M  V30 2243 H 202.705 -2.14348 -7.4945 0
M  V30 2244 N 206.934 1.1197 -1.10907 0
M  V30 2245 C 208.183 1.82947 -0.849302 0
M  V30 2246 C 208.496 1.85275 0.627112 0
M  V30 2247 O 209.702 2.52296 1.00295 0
M  V30 2248 C 208.158 3.28529 -1.46959 0
M  V30 2249 C 207.766 3.34546 -2.97965 0
M  V30 2250 C 209.51 4.04443 -1.28942 0
M  V30 2251 C 207.417 4.74491 -3.53004 0
M  V30 2252 H 206.347 0.685477 -0.314065 0
M  V30 2253 H 208.998 1.2604 -1.33365 0
M  V30 2254 H 207.38 3.85333 -0.912917 0
M  V30 2255 H 208.554 2.87654 -3.59989 0
M  V30 2256 H 206.869 2.72108 -3.15192 0
M  V30 2257 H 209.466 5.07787 -1.67502 0
M  V30 2258 H 209.809 4.15656 -0.231456 0
M  V30 2259 H 210.342 3.5401 -1.81443 0
M  V30 2260 H 207.081 4.68474 -4.58489 0
M  V30 2261 H 206.601 5.21816 -2.9575 0
M  V30 2262 H 208.28 5.4344 -3.51115 0
M  V30 2263 N 208.412 0.89855 1.29475 0
M  V30 2264 C 209.642 0.538479 1.99459 0
M  V30 2265 C 210.05 -0.880922 1.67441 0
M  V30 2266 O 209.393 -1.59283 0.915127 0
M  V30 2267 C 209.455 0.649564 3.53583 0
M  V30 2268 C 209.119 2.03573 4.09154 0
M  V30 2269 C 210.116 3.00675 4.24135 0
M  V30 2270 C 207.801 2.3448 4.44212 0
M  V30 2271 C 209.795 4.26809 4.73405 0
M  V30 2272 C 207.482 3.60857 4.93179 0
M  V30 2273 C 208.48 4.56836 5.0773 0
M  V30 2274 O 208.168 5.80969 5.55635 0
M  V30 2275 H 207.9 0.205372 0.644048 0
M  V30 2276 H 210.454 1.20958 1.66007 0
M  V30 2277 H 208.684 -0.0785592 3.8662 0
M  V30 2278 H 210.373 0.29881 4.04799 0
M  V30 2279 H 211.139 2.78112 3.97339 0
M  V30 2280 H 207.018 1.60534 4.32145 0
M  V30 2281 H 210.562 5.0173 4.84678 0
M  V30 2282 H 206.459 3.83251 5.19412 0
M  V30 2283 H 207.227 5.83542 5.73952 0
M  V30 2284 N 209.89 -1.43072 0.660911 0
M  V30 2285 C 211.138 -2.01323 0.177094 0
M  V30 2286 C 211.459 -1.5245 -1.2159 0
M  V30 2287 O 210.729 -0.740322 -1.81373 0
M  V30 2288 H 209.309 -0.744382 0.0624804 0
M  V30 2289 H 211.971 -1.75179 0.854305 0
M  V30 2290 H 211.067 -3.11649 0.167641 0
M  V30 2291 N 211.368 -0.403325 -1.52352 0
M  V30 2292 C 212.596 0.174012 -2.06167 0
M  V30 2293 C 213.011 1.39347 -1.27388 0
M  V30 2294 O 212.368 1.79597 -0.324201 0
M  V30 2295 C 212.419 0.530223 -3.5759 0
M  V30 2296 O 212.14 -0.640806 -4.33388 0
M  V30 2297 C 213.641 1.16192 -4.27802 0
M  V30 2298 H 210.861 0.0229464 -0.670608 0
M  V30 2299 H 213.405 -0.572604 -1.9632 0
M  V30 2300 H 211.56 1.22673 -3.67464 0
M  V30 2301 H 211.974 -0.344851 -5.23365 0
M  V30 2302 H 213.448 1.36141 -5.34948 0
M  V30 2303 H 213.925 2.13335 -3.83907 0
M  V30 2304 H 214.531 0.505775 -4.22282 0
M  V30 2305 N 212.846 1.57033 -0.133567 0
M  V30 2306 C 214.074 2.00044 0.528195 0
M  V30 2307 C 214.489 1.01349 1.59291 0
M  V30 2308 O 213.846 0.00848369 1.82498 0
M  V30 2309 C 213.897 3.43018 1.1411 0
M  V30 2310 O 213.618 4.37939 0.11892 0
M  V30 2311 C 215.119 4.01237 1.88477 0
M  V30 2312 H 212.339 0.656517 0.138661 0
M  V30 2313 H 214.883 2.03267 -0.224196 0
M  V30 2314 H 213.038 3.40688 1.84418 0
M  V30 2315 H 213.452 5.21436 0.56613 0
M  V30 2316 H 214.926 5.03314 2.26669 0
M  V30 2317 H 215.403 3.41193 2.76558 0
M  V30 2318 H 216.009 4.07156 1.22898 0
M  V30 2319 N 214.325 -0.140222 1.56975 0
M  V30 2320 C 215.602 -0.880769 1.74648 0
M  V30 2321 C 215.982 -1.99036 0.703404 0
M  V30 2322 O 215.33 -2.26821 -0.27648 0
M  V30 2323 C 215.54 -1.417 3.18939 0
M  V30 2324 C 216.888 -1.87774 3.80823 0
M  V30 2325 O 217.912 -1.51427 3.2241 0
M  V30 2326 O 216.771 -2.54827 4.83452 0
M  V30 2327 H 213.865 -0.416713 0.714338 0
M  V30 2328 H 216.411 -0.125618 1.69234 0
M  V30 2329 H 215.183 -0.619902 3.86359 0
M  V30 2330 H 214.806 -2.23546 3.28805 0
M  V30 2331 N 215.803 -1.52179 -0.40978 0
M  V30 2332 C 216.751 -1.76086 -1.51975 0
M  V30 2333 C 217.745 -0.627964 -1.57331 0
M  V30 2334 O 218.951 -0.809993 -1.60745 0
M  V30 2335 H 215.326 -0.556829 -0.505416 0
M  V30 2336 H 217.297 -2.69077 -1.28996 0
M  V30 2337 C 216.046 -1.92799 -2.8935 0
M  V30 2338 H 215.369 -2.79392 -2.85972 0
M  V30 2339 H 216.809 -2.13527 -3.66309 0
M  V30 2340 C 215.268 -0.694923 -3.29655 0
M  V30 2341 O 215.798 0.13751 -4.01465 0
M  V30 2342 N 214.004 -0.53101 -2.85707 0
M  V30 2343 H 213.551 -1.20952 -2.27439 0
M  V30 2344 H 213.509 0.292718 -3.13034 0
M  V30 2345 N 217.281 0.66697 -1.42791 0
M  V30 2346 C 218.211 1.79218 -1.49677 0
M  V30 2347 C 219.192 1.66405 -0.352623 0
M  V30 2348 O 220.377 1.85708 -0.567993 0
M  V30 2349 C 217.507 3.17565 -1.40605 0
M  V30 2350 C 216.461 3.45124 -2.53127 0
M  V30 2351 C 215.787 4.83127 -2.29112 0
M  V30 2352 C 217.087 3.41236 -3.95418 0
M  V30 2353 H 218.781 1.73713 -2.43853 0
M  V30 2354 H 216.327 0.83432 -1.17367 0
M  V30 2355 H 218.28 3.96022 -1.44029 0
M  V30 2356 H 217.004 3.23767 -0.429271 0
M  V30 2357 H 215.663 2.69031 -2.49034 0
M  V30 2358 H 215.311 4.85988 -1.29709 0
M  V30 2359 H 215.011 5.02528 -3.04531 0
M  V30 2360 H 216.535 5.63859 -2.34297 0
M  V30 2361 H 217.949 4.09651 -4.01073 0
M  V30 2362 H 216.346 3.72173 -4.70752 0
M  V30 2363 H 217.416 2.39665 -4.21532 0
M  V30 2364 N 218.759 1.29093 0.90403 0
M  V30 2365 C 219.999 1.18076 1.66845 0
M  V30 2366 C 220.363 -0.26436 1.90171 0
M  V30 2367 O 221.564 -0.497423 2.64157 0
M  V30 2368 C 219.835 1.96722 2.98388 0
M  V30 2369 S 221.394 2.0219 3.89441 0
M  V30 2370 H 218.212 0.421104 0.572881 0
M  V30 2371 H 220.814 1.63322 1.07453 0
M  V30 2372 H 219.518 3.00866 2.7912 0
M  V30 2373 H 219.049 1.52064 3.62823 0
M  V30 2374 H 221.064 1.13545 4.83034 0
M  V30 2375 N 220.237 -1.11381 1.11499 0
M  V30 2376 C 221.462 -1.87475 0.887019 0
M  V30 2377 C 221.887 -1.79639 -0.557796 0
M  V30 2378 O 221.245 -1.15924 -1.39396 0
M  V30 2379 C 221.293 -3.34213 1.35403 0
M  V30 2380 O 220.397 -4.0903 0.526146 0
M  V30 2381 H 219.738 -0.582099 0.319463 0
M  V30 2382 H 222.268 -1.40785 1.48461 0
M  V30 2383 H 222.278 -3.8506 1.34881 0
M  V30 2384 H 220.953 -3.39232 2.40612 0
M  V30 2385 H 219.53 -3.68082 0.597522 0
M  V30 2386 N 221.715 -0.905404 -1.28997 0
M  V30 2387 C 223.131 -0.60233 -1.47798 0
M  V30 2388 C 223.331 0.854645 -1.82478 0
M  V30 2389 O 222.387 1.63439 -1.92468 0
M  V30 2390 C 223.7 -1.53306 -2.58685 0
M  V30 2391 C 225.248 -1.53887 -2.72558 0
M  V30 2392 C 225.723 -2.45602 -3.86579 0
M  V30 2393 N 227.214 -2.43681 -3.93921 0
M  V30 2394 C 227.949 -3.11347 -4.81509 0
M  V30 2395 N 227.445 -3.88313 -5.73746 0
M  V30 2396 N 229.238 -3.00476 -4.75048 0
M  V30 2397 H 221.389 -1.84765 -1.04764 0
M  V30 2398 H 223.652 -0.792025 -0.520961 0
M  V30 2399 H 223.358 -2.57141 -2.39941 0
M  V30 2400 H 223.232 -1.25787 -3.55609 0
M  V30 2401 H 225.619 -0.507941 -2.90696 0
M  V30 2402 H 225.7 -1.85447 -1.76191 0
M  V30 2403 H 225.344 -3.48792 -3.69197 0
M  V30 2404 H 225.274 -2.11349 -4.82327 0
M  V30 2405 H 227.765 -1.87767 -3.27951 0
M  V30 2406 H 228.078 -4.36985 -6.37389 0
M  V30 2407 H 226.423 -3.92419 -5.73614 0
M  V30 2408 H 229.614 -2.39858 -4.01977 0
M  V30 2409 H 229.787 -3.53485 -5.43095 0
M  V30 2410 N 223.193 1.4272 -0.668489 0
M  V30 2411 C 224.441 2.01226 -0.187769 0
M  V30 2412 C 224.762 1.53092 1.2078 0
M  V30 2413 O 224.032 0.74993 1.80977 0
M  V30 2414 H 222.612 0.744041 -0.0664272 0
M  V30 2415 H 225.274 1.74723 -0.863583 0
M  V30 2416 H 224.37 3.11556 -0.184166 0
M  V30 2417 N 224.671 0.411399 1.52136 0
M  V30 2418 C 225.901 -0.16284 2.05957 0
M  V30 2419 C 226.309 -1.3922 1.28119 0
M  V30 2420 O 225.652 -1.80768 0.326881 0
M  V30 2421 C 225.714 -0.575946 3.54856 0
M  V30 2422 C 225.378 0.542998 4.53763 0
M  V30 2423 C 226.375 1.40726 5.00492 0
M  V30 2424 C 224.06 0.716337 4.97166 0
M  V30 2425 C 226.054 2.4298 5.8927 0
M  V30 2426 C 223.741 1.74218 5.8574 0
M  V30 2427 C 224.739 2.59731 6.31687 0
M  V30 2428 O 224.427 3.60558 7.18507 0
M  V30 2429 H 224.159 -0.0229125 0.675612 0
M  V30 2430 H 226.713 0.581634 1.96993 0
M  V30 2431 H 224.943 -1.37274 3.61515 0
M  V30 2432 H 226.632 -1.07836 3.91313 0
M  V30 2433 H 227.398 1.28476 4.67674 0
M  V30 2434 H 223.277 0.0603857 4.6096 0
M  V30 2435 H 226.821 3.0976 6.25055 0
M  V30 2436 H 222.718 1.86498 6.17971 0
M  V30 2437 H 223.486 3.56829 7.36624 0
M  V30 2438 N 226.149 -1.5696 0.141893 0
M  V30 2439 C 227.059 -2.20066 -0.812905 0
M  V30 2440 C 228.075 -1.18344 -1.27557 0
M  V30 2441 O 229.251 -1.50902 -1.33381 0
M  V30 2442 C 226.316 -2.80583 -2.03652 0
M  V30 2443 C 225.377 -3.97414 -1.62359 0
M  V30 2444 C 224.61 -4.55036 -2.78887 0
M  V30 2445 O 224.833 -4.11538 -3.94959 0
M  V30 2446 O 223.767 -5.45376 -2.54653 0
M  V30 2447 H 227.593 -3.02157 -0.305746 0
M  V30 2448 H 225.178 -1.49159 -0.0848799 0
M  V30 2449 H 227.06 -3.19067 -2.75272 0
M  V30 2450 H 225.735 -2.01508 -2.5333 0
M  V30 2451 H 224.642 -3.63656 -0.877775 0
M  V30 2452 H 225.975 -4.77994 -1.17401 0
M  V30 2453 N 227.627 0.131896 -1.57047 0
M  V30 2454 C 228.59 1.14638 -1.98471 0
M  V30 2455 C 229.59 1.35029 -0.873148 0
M  V30 2456 O 230.78 1.31764 -1.13946 0
M  V30 2457 C 227.912 2.50358 -2.31373 0
M  V30 2458 H 229.105 0.79064 -2.8929 0
M  V30 2459 H 226.658 0.375761 -1.51716 0
M  V30 2460 H 227.393 2.90876 -1.43393 0
M  V30 2461 H 227.178 2.36915 -3.12432 0
M  V30 2462 H 228.668 3.23395 -2.64207 0
M  V30 2463 N 229.106 1.52395 0.401703 0
M  V30 2464 C 230.039 1.70999 1.51111 0
M  V30 2465 C 231.017 0.55765 1.52738 0
M  V30 2466 O 232.201 0.785912 1.71335 0
M  V30 2467 C 229.328 1.75607 2.8962 0
M  V30 2468 C 228.374 2.97227 3.05873 0
M  V30 2469 S 229.207 4.57439 2.78405 0
M  V30 2470 C 230.363 4.64844 4.19131 0
M  V30 2471 H 230.596 2.6483 1.35102 0
M  V30 2472 H 228.129 1.42527 0.593762 0
M  V30 2473 H 230.087 1.78947 3.69443 0
M  V30 2474 H 228.748 0.828914 3.02965 0
M  V30 2475 H 227.941 2.96955 4.07227 0
M  V30 2476 H 227.543 2.91813 2.33925 0
M  V30 2477 H 229.835 4.42677 5.12877 0
M  V30 2478 H 230.778 5.66807 4.24424 0
M  V30 2479 H 231.186 3.93804 4.04448 0
M  V30 2480 N 230.584 -0.659388 1.43143 0
M  V30 2481 C 231.814 -1.44513 1.47646 0
M  V30 2482 C 232.222 -1.88981 0.0910095 0
M  V30 2483 O 231.565 -1.59702 -0.907789 0
M  V30 2484 C 231.627 -2.71663 2.35456 0
M  V30 2485 C 231.291 -2.49175 3.83094 0
M  V30 2486 C 232.288 -2.1279 4.74359 0
M  V30 2487 C 229.973 -2.63691 4.27519 0
M  V30 2488 C 231.967 -1.9121 6.08044 0
M  V30 2489 C 229.654 -2.41726 5.61259 0
M  V30 2490 C 230.652 -2.0554 6.51339 0
M  V30 2491 O 230.34 -1.838 7.82606 0
M  V30 2492 H 230.072 -0.45064 0.503884 0
M  V30 2493 H 232.626 -0.816248 1.88485 0
M  V30 2494 H 230.856 -3.37089 1.89493 0
M  V30 2495 H 232.545 -3.33595 2.31235 0
M  V30 2496 H 233.311 -2.01157 4.41317 0
M  V30 2497 H 229.19 -2.90832 3.57684 0
M  V30 2498 H 232.734 -1.62889 6.78316 0
M  V30 2499 H 228.631 -2.52959 5.9387 0
M  V30 2500 H 229.399 -1.98275 7.94122 0
M  V30 2501 N 232.062 -1.29571 -0.897171 0
M  V30 2502 C 233.29 -1.20583 -1.68129 0
M  V30 2503 C 233.705 0.233181 -1.87354 0
M  V30 2504 O 233.062 1.15579 -1.41236 0
M  V30 2505 C 233.113 -1.91772 -3.06441 0
M  V30 2506 O 232.834 -3.30053 -2.88091 0
M  V30 2507 C 234.335 -1.89291 -4.00854 0
M  V30 2508 H 231.555 -0.417826 -0.525036 0
M  V30 2509 H 234.099 -1.70987 -1.12177 0
M  V30 2510 H 232.254 -1.45196 -3.59161 0
M  V30 2511 H 232.668 -3.65942 -3.75748 0
M  V30 2512 H 234.142 -2.43662 -4.95311 0
M  V30 2513 H 234.619 -0.869014 -4.30517 0
M  V30 2514 H 235.225 -2.35622 -3.54066 0
M  V30 2515 N 233.54 1.10788 -1.12088 0
M  V30 2516 C 234.47 2.19083 -0.807755 0
M  V30 2517 C 235.451 1.6858 0.226859 0
M  V30 2518 O 236.636 1.93997 0.0888475 0
M  V30 2519 C 233.766 3.46344 -0.257576 0
M  V30 2520 C 232.72 4.101 -1.22483 0
M  V30 2521 C 232.046 5.32016 -0.535052 0
M  V30 2522 C 233.346 4.54236 -2.57811 0
M  V30 2523 H 235.04 2.45534 -1.71328 0
M  V30 2524 H 232.586 1.1801 -0.825205 0
M  V30 2525 H 234.539 4.21392 -0.0262679 0
M  V30 2526 H 233.263 3.19373 0.683278 0
M  V30 2527 H 231.922 3.37054 -1.44189 0
M  V30 2528 H 231.57 5.01319 0.410827 0
M  V30 2529 H 231.27 5.75625 -1.18024 0
M  V30 2530 H 232.794 6.09799 -0.312695 0
M  V30 2531 H 234.208 5.20575 -2.40155 0
M  V30 2532 H 232.605 5.08682 -3.18375 0
M  V30 2533 H 233.675 3.6734 -3.16528 0
M  V30 2534 N 235.018 0.912232 1.28515 0
M  V30 2535 C 235.948 0.416403 2.29757 0
M  V30 2536 C 236.929 -0.515194 1.6211 0
M  V30 2537 O 238.114 -0.423253 1.89532 0
M  V30 2538 C 235.244 -0.34572 3.45575 0
M  V30 2539 C 234.198 0.496599 4.25109 0
M  V30 2540 C 233.524 -0.393771 5.33248 0
M  V30 2541 C 234.824 1.75307 4.92001 0
M  V30 2542 H 236.518 1.26249 2.7148 0
M  V30 2543 H 234.064 0.608515 1.30511 0
M  V30 2544 H 236.017 -0.703422 4.15488 0
M  V30 2545 H 234.741 -1.2257 3.02728 0
M  V30 2546 H 233.4 0.8368 3.56922 0
M  V30 2547 H 233.048 -1.27225 4.86644 0
M  V30 2548 H 232.748 0.166209 5.87365 0
M  V30 2549 H 234.272 -0.747389 6.06009 0
M  V30 2550 H 235.686 1.46437 5.54283 0
M  V30 2551 H 234.083 2.25534 5.56106 0
M  V30 2552 H 235.153 2.48176 4.16577 0
M  V30 2553 N 236.496 -1.42363 0.676048 0
M  V30 2554 C 237.744 -2.01123 0.198437 0
M  V30 2555 C 238.065 -1.53731 -1.19966 0
M  V30 2556 O 237.335 -0.759518 -1.80577 0
M  V30 2557 H 235.915 -0.743678 0.0703721 0
M  V30 2558 H 238.577 -1.74263 0.872837 0
M  V30 2559 H 237.673 -3.11454 0.200686 0
M  V30 2560 N 237.974 -0.419461 -1.51915 0
M  V30 2561 C 238.922 0.415502 -2.28859 0
M  V30 2562 C 239.916 1.03674 -1.3397 0
M  V30 2563 O 241.122 0.973757 -1.51387 0
M  V30 2564 H 237.497 0.152786 -0.736315 0
M  V30 2565 H 239.468 -0.254531 -2.97312 0
M  V30 2566 C 238.217 1.51425 -3.12995 0
M  V30 2567 H 237.54 1.04556 -3.85886 0
M  V30 2568 H 238.98 2.07208 -3.6992 0
M  V30 2569 C 237.439 2.48745 -2.27217 0
M  V30 2570 O 237.969 3.52871 -1.9195 0
M  V30 2571 N 236.175 2.19202 -1.90785 0
M  V30 2572 H 235.722 1.34556 -2.19664 0
M  V30 2573 H 235.68 2.84561 -1.33687 0
M  V30 2574 N 239.452 1.56882 -0.150215 0
M  V30 2575 C 240.415 2.1573 0.774157 0
M  V30 2576 C 241.415 1.0999 1.17298 0
M  V30 2577 O 242.605 1.35613 1.09338 0
M  V30 2578 C 239.737 2.72302 2.05096 0
M  V30 2579 H 240.93 2.98752 0.262201 0
M  V30 2580 H 238.483 1.55985 0.099248 0
M  V30 2581 H 239.218 1.92956 2.6065 0
M  V30 2582 H 239.003 3.49665 1.77416 0
M  V30 2583 H 240.493 3.17632 2.71109 0
M  V30 2584 N 240.93 -0.123565 1.57115 0
M  V30 2585 C 241.878 -1.17082 2.00984 0
M  V30 2586 C 242.872 -1.43136 0.906009 0
M  V30 2587 O 244.078 -1.43152 1.09121 0
M  V30 2588 H 240.453 -0.394653 0.64012 0
M  V30 2589 H 242.424 -0.774292 2.88179 0
M  V30 2590 C 241.173 -2.49057 2.42623 0
M  V30 2591 H 240.496 -2.29846 3.27125 0
M  V30 2592 H 241.936 -3.20906 2.7712 0
M  V30 2593 C 240.395 -3.11305 1.28805 0
M  V30 2594 O 240.925 -3.97171 0.60153 0
M  V30 2595 N 239.131 -2.71111 1.04628 0
M  V30 2596 H 238.678 -2.01382 1.60634 0
M  V30 2597 H 238.636 -3.1309 0.286685 0
M  V30 2598 N 242.408 -1.52605 -0.393616 0
M  V30 2599 C 243.656 -1.67093 -1.13685 0
M  V30 2600 C 243.977 -0.411011 -1.90619 0
M  V30 2601 O 243.247 0.574491 -1.87287 0
M  V30 2602 H 241.827 -0.615923 -0.422668 0
M  V30 2603 H 244.489 -1.89704 -0.447039 0
M  V30 2604 H 243.585 -2.51922 -1.84232 0
M  V30 2605 N 243.887 0.651787 -1.4349 0
M  V30 2606 C 244.85 1.74647 -1.48429 0
M  V30 2607 C 245.85 1.56513 -0.368817 0
M  V30 2608 O 247.04 1.62385 -0.630623 0
M  V30 2609 C 244.172 3.13533 -1.33827 0
M  V30 2610 H 245.365 1.71649 -2.4592 0
M  V30 2611 H 242.918 0.863573 -1.30277 0
M  V30 2612 H 243.653 3.22142 -0.37349 0
M  V30 2613 H 243.438 3.28101 -2.14691 0
M  V30 2614 H 244.928 3.93356 -1.40218 0
M  V30 2615 N 245.365 1.30045 0.890287 0
M  V30 2616 C 246.593 1.21472 1.67487 0
M  V30 2617 C 247.008 -0.223241 1.87476 0
M  V30 2618 O 246.365 -1.14828 1.41847 0
M  V30 2619 C 246.416 1.93394 3.05419 0
M  V30 2620 O 246.137 3.31576 2.86337 0
M  V30 2621 C 247.638 1.91414 3.99844 0
M  V30 2622 H 244.858 0.420604 0.522813 0
M  V30 2623 H 247.402 1.7158 1.11268 0
M  V30 2624 H 245.557 1.47099 3.58386 0
M  V30 2625 H 245.971 3.67929 3.73802 0
M  V30 2626 H 247.445 2.46285 4.94012 0
M  V30 2627 H 247.922 0.891833 4.3005 0
M  V30 2628 H 248.528 2.37496 3.52811 0
M  V30 2629 N 246.843 -1.10192 1.12674 0
M  V30 2630 C 248.083 -1.83825 0.893736 0
M  V30 2631 C 248.447 -1.83341 -0.570082 0
M  V30 2632 O 249.648 -2.52553 -0.920354 0
M  V30 2633 C 247.919 -3.26405 1.45582 0
M  V30 2634 S 249.478 -4.17136 1.36171 0
M  V30 2635 H 246.296 -0.633732 0.322342 0
M  V30 2636 H 248.898 -1.32581 1.43675 0
M  V30 2637 H 247.602 -3.24329 2.51473 0
M  V30 2638 H 247.133 -3.82721 0.910405 0
M  V30 2639 H 249.148 -4.95069 0.334863 0
M  V30 2640 N 248.321 -0.919034 -1.28029 0
M  V30 2641 C 249.284 -0.416182 -2.2539 0
M  V30 2642 C 250.284 0.460438 -1.54067 0
M  V30 2643 O 251.474 0.262744 -1.72207 0
M  V30 2644 C 248.606 0.402707 -3.38513 0
M  V30 2645 H 249.799 -1.27629 -2.71387 0
M  V30 2646 H 247.352 -0.698919 -1.39803 0
M  V30 2647 H 248.087 1.282 -2.97885 0
M  V30 2648 H 247.872 -0.225698 -3.9145 0
M  V30 2649 H 249.362 0.745191 -4.10897 0
M  V30 2650 N 249.799 1.42003 -0.683588 0
M  V30 2651 C 251.046 2.01413 -0.209514 0
M  V30 2652 C 251.374 1.54088 1.1869 0
M  V30 2653 O 250.629 0.737591 1.81268 0
M  V30 2654 C 250.928 3.56827 -0.202357 0
M  V30 2655 C 250.594 4.23617 -1.54464 0
M  V30 2656 C 249.256 4.41577 -1.91215 0
M  V30 2657 C 251.608 4.61178 -2.42826 0
M  V30 2658 C 248.936 4.9437 -3.15935 0
M  V30 2659 C 251.288 5.15355 -3.66867 0
M  V30 2660 C 249.952 5.31528 -4.03776 0
M  V30 2661 H 249.222 0.737023 -0.0766668 0
M  V30 2662 H 251.869 1.70067 -0.880312 0
M  V30 2663 H 250.174 3.87892 0.551969 0
M  V30 2664 H 251.871 4.00588 0.181793 0
M  V30 2665 H 248.461 4.10004 -1.24877 0
M  V30 2666 H 252.645 4.46968 -2.15717 0
M  V30 2667 H 247.901 5.05076 -3.44541 0
M  V30 2668 H 252.075 5.43402 -4.35531 0
M  V30 2669 H 249.702 5.72199 -5.00492 0
M  V30 2670 N 251.277 0.427512 1.51691 0
M  V30 2671 C 252.688 -0.0378867 1.86662 0
M  V30 2672 C 253.039 -1.42819 1.34525 0
M  V30 2673 O 252.164 -2.05037 0.692014 0
M  V30 2674 C 252.759 -0.0755266 3.38716 0
M  V30 2675 C 251.318 -0.485309 3.73258 0
M  V30 2676 C 250.465 0.328399 2.75349 0
M  V30 2677 H 253.416 0.64379 1.45055 0
M  V30 2678 H 253.437 -0.887056 3.70016 0
M  V30 2679 H 252.949 0.936487 3.76632 0
M  V30 2680 H 251.05 -1.50329 3.40928 0
M  V30 2681 H 251.163 -0.21693 4.78609 0
M  V30 2682 H 249.527 -0.211905 2.53817 0
M  V30 2683 H 250.31 1.3391 3.16106 0
M  V30 2684 N 252.755 -1.56801 0.158532 0
M  V30 2685 C 254.002 -1.9649 -0.489679 0
M  V30 2686 C 254.33 -1.04394 -1.6411 0
M  V30 2687 O 253.585 -0.0754401 -1.95555 0
M  V30 2688 C 253.884 -3.4235 -1.02623 0
M  V30 2689 C 253.55 -4.50899 0.00794526 0
M  V30 2690 C 252.212 -4.80312 0.292207 0
M  V30 2691 C 254.564 -5.16333 0.710584 0
M  V30 2692 C 251.892 -5.72461 1.28472 0
M  V30 2693 C 254.244 -6.09553 1.69199 0
M  V30 2694 C 252.908 -6.37339 1.98383 0
M  V30 2695 H 252.178 -0.719009 -0.179186 0
M  V30 2696 H 254.825 -1.8989 0.247798 0
M  V30 2697 H 253.13 -3.45838 -1.84128 0
M  V30 2698 H 254.827 -3.70393 -1.53656 0
M  V30 2699 H 251.417 -4.28015 -0.22379 0
M  V30 2700 H 255.601 -4.93732 0.504174 0
M  V30 2701 H 250.857 -5.92278 1.51714 0
M  V30 2702 H 255.031 -6.59327 2.24189 0
M  V30 2703 H 252.658 -7.08546 2.7544 0
M  V30 2704 N 254.233 0.115231 -1.57178 0
M  V30 2705 C 255.18 1.14115 -2.00615 0
M  V30 2706 C 256.15 1.40939 -0.878941 0
M  V30 2707 O 257.335 1.52741 -1.14345 0
M  V30 2708 C 254.475 2.46156 -2.4187 0
M  V30 2709 C 253.588 2.26236 -3.68024 0
M  V30 2710 C 252.723 3.51534 -3.98243 0
M  V30 2711 C 251.762 3.26787 -5.17568 0
M  V30 2712 N 250.899 4.44298 -5.43639 0
M  V30 2713 H 255.739 0.763743 -2.88047 0
M  V30 2714 H 253.276 0.365615 -1.42484 0
M  V30 2715 H 255.234 3.23189 -2.63827 0
M  V30 2716 H 253.864 2.81783 -1.57475 0
M  V30 2717 H 252.916 1.40102 -3.5366 0
M  V30 2718 H 254.228 2.03929 -4.55208 0
M  V30 2719 H 253.382 4.36984 -4.20868 0
M  V30 2720 H 252.121 3.76876 -3.09541 0
M  V30 2721 H 251.126 2.39729 -4.94783 0
M  V30 2722 H 252.351 3.02812 -6.0785 0
M  V30 2723 H 250.297 4.69754 -4.57895 0
M  V30 2724 H 250.214 4.25109 -6.25154 0
M  V30 2725 H 251.482 5.3087 -5.70786 0
M  V30 2726 N 255.711 1.52812 0.385517 0
M  V30 2727 C 256.958 1.68026 1.1302 0
M  V30 2728 C 257.286 0.421934 1.89868 0
M  V30 2729 O 256.541 -0.595749 1.86412 0
M  V30 2730 C 256.84 2.86856 2.13187 0
M  V30 2731 C 256.506 4.24159 1.5297 0
M  V30 2732 C 255.168 4.61501 1.36274 0
M  V30 2733 C 257.52 5.09627 1.09223 0
M  V30 2734 C 254.848 5.81966 0.743837 0
M  V30 2735 C 257.2 6.30719 0.487411 0
M  V30 2736 C 255.864 6.6679 0.307777 0
M  V30 2737 H 255.134 0.614849 0.413571 0
M  V30 2738 H 257.781 1.86962 0.414405 0
M  V30 2739 H 256.086 2.6235 2.90998 0
M  V30 2740 H 257.783 2.95821 2.70722 0
M  V30 2741 H 254.373 3.94746 1.66954 0
M  V30 2742 H 258.557 4.81343 1.20922 0
M  V30 2743 H 253.813 6.08519 0.592891 0
M  V30 2744 H 257.987 6.96259 0.140143 0
M  V30 2745 H 255.614 7.60001 -0.173879 0
M  V30 2746 N 257.189 -0.644168 1.43834 0
M  V30 2747 C 258.099 -1.78563 1.52159 0
M  V30 2748 C 259.115 -1.69147 0.408069 0
M  V30 2749 O 260.291 -1.90156 0.663524 0
M  V30 2750 C 257.356 -3.14888 1.45073 0
M  V30 2751 C 256.417 -3.36034 2.6717 0
M  V30 2752 C 255.65 -4.65855 2.60413 0
M  V30 2753 O 255.873 -5.45805 1.65689 0
M  V30 2754 O 254.807 -4.88918 3.5106 0
M  V30 2755 H 258.633 -1.74494 2.48567 0
M  V30 2756 H 256.218 -0.80378 1.25935 0
M  V30 2757 H 258.1 -3.96179 1.43597 0
M  V30 2758 H 256.775 -3.19528 0.518037 0
M  V30 2759 H 255.682 -2.54472 2.74217 0
M  V30 2760 H 257.015 -3.36247 3.59442 0
M  V30 2761 N 258.668 -1.30515 -0.883378 0
M  V30 2762 C 259.616 -1.16941 -2.01066 0
M  V30 2763 C 260.61 -0.0809148 -1.69207 0
M  V30 2764 O 261.816 -0.241877 -1.78367 0
M  V30 2765 H 258.191 -0.361705 -0.659298 0
M  V30 2766 H 260.162 -2.12344 -2.09649 0
M  V30 2767 C 258.911 -0.879694 -3.36388 0
M  V30 2768 H 258.234 -1.70936 -3.61415 0
M  V30 2769 H 259.674 -0.82483 -4.159 0
M  V30 2770 C 258.133 0.417409 -3.34304 0
M  V30 2771 O 258.663 1.43843 -3.75063 0
M  V30 2772 N 256.869 0.429141 -2.87414 0
M  V30 2773 H 256.416 -0.402222 -2.5444 0
M  V30 2774 H 256.374 1.29696 -2.86403 0
M  V30 2775 N 260.146 1.09593 -1.13257 0
M  V30 2776 C 261.093 2.1618 -0.808381 0
M  V30 2777 C 262.063 1.64517 0.228754 0
M  V30 2778 O 263.248 1.9053 0.101381 0
M  V30 2779 C 260.388 3.43973 -0.278675 0
M  V30 2780 C 259.501 4.09545 -1.37466 0
M  V30 2781 C 258.636 5.25088 -0.803479 0
M  V30 2782 C 257.675 5.82579 -1.87799 0
M  V30 2783 N 256.812 6.89486 -1.32488 0
M  V30 2784 H 261.652 2.43254 -1.72138 0
M  V30 2785 H 259.189 1.19392 -0.859294 0
M  V30 2786 H 261.147 4.17174 0.0465583 0
M  V30 2787 H 259.777 3.17223 0.597459 0
M  V30 2788 H 258.829 3.34226 -1.81652 0
M  V30 2789 H 260.141 4.48307 -2.18684 0
M  V30 2790 H 259.295 6.05178 -0.429427 0
M  V30 2791 H 258.034 4.87684 0.0397956 0
M  V30 2792 H 257.039 5.01152 -2.26113 0
M  V30 2793 H 258.264 6.22045 -2.72463 0
M  V30 2794 H 256.21 6.54064 -0.503575 0
M  V30 2795 H 256.127 7.27007 -2.07355 0
M  V30 2796 H 257.395 7.73336 -0.978336 0
M  V30 2797 N 261.624 0.925811 1.2754 0
M  V30 2798 C 262.87 0.575575 1.95086 0
M  V30 2799 C 263.225 -0.873246 1.71441 0
M  V30 2800 O 262.518 -1.61443 1.03183 0
M  V30 2801 C 262.712 0.835296 3.47502 0
M  V30 2802 C 262.541 2.30781 3.85967 0
M  V30 2803 C 261.311 2.96017 4.09514 0
M  V30 2804 C 263.509 3.28519 3.95702 0
M  V30 2805 N 261.491 4.3344 4.34744 0
M  V30 2806 C 262.862 4.51146 4.25285 0
M  V30 2807 C 264.917 3.23753 3.7827 0
M  V30 2808 C 263.62 5.69606 4.39251 0
M  V30 2809 C 265.646 4.41523 3.9346 0
M  V30 2810 C 265.008 5.62928 4.23428 0
M  V30 2811 H 261.107 0.260711 0.737261 0
M  V30 2812 H 263.691 1.19204 1.53943 0
M  V30 2813 H 261.862 0.248005 3.87607 0
M  V30 2814 H 263.594 0.447878 4.02214 0
M  V30 2815 H 260.349 2.46695 4.04275 0
M  V30 2816 H 260.773 5.04528 4.5142 0
M  V30 2817 H 265.415 2.3096 3.54143 0
M  V30 2818 H 263.133 6.62866 4.62205 0
M  V30 2819 H 266.719 4.39351 3.81394 0
M  V30 2820 H 265.599 6.52538 4.34929 0
M  V30 2821 N 263.102 -1.41638 0.69111 0
M  V30 2822 C 264.332 -2.0533 0.228758 0
M  V30 2823 C 264.74 -1.52089 -1.12541 0
M  V30 2824 O 264.083 -0.662145 -1.71351 0
M  V30 2825 C 264.145 -3.59349 0.10407 0
M  V30 2826 C 263.809 -4.35362 1.38956 0
M  V30 2827 C 264.806 -4.64942 2.32648 0
M  V30 2828 C 262.491 -4.74714 1.64169 0
M  V30 2829 C 264.485 -5.32828 3.49818 0
M  V30 2830 C 262.172 -5.42338 2.81625 0
M  V30 2831 C 263.17 -5.71322 3.74273 0
M  V30 2832 O 262.858 -6.37554 4.89673 0
M  V30 2833 H 262.59 -0.667796 0.104997 0
M  V30 2834 H 265.144 -1.82477 0.942938 0
M  V30 2835 H 263.374 -3.80924 -0.665839 0
M  V30 2836 H 265.063 -4.04633 -0.320519 0
M  V30 2837 H 265.829 -4.35025 2.14425 0
M  V30 2838 H 261.708 -4.51538 0.929202 0
M  V30 2839 H 265.252 -5.55368 4.22152 0
M  V30 2840 H 261.149 -5.71673 2.99768 0
M  V30 2841 H 261.917 -6.56049 4.8943 0
M  V30 2842 N 264.58 -0.43555 -1.51462 0
M  V30 2843 C 265.543 0.365137 -2.26273 0
M  V30 2844 C 266.543 0.951227 -1.29647 0
M  V30 2845 O 267.733 0.825958 -1.53374 0
M  V30 2846 C 264.865 1.51645 -3.05314 0
M  V30 2847 H 266.058 -0.290474 -2.9849 0
M  V30 2848 H 263.611 -0.188676 -1.55157 0
M  V30 2849 H 264.346 2.20816 -2.3751 0
M  V30 2850 H 264.131 1.10238 -3.76284 0
M  V30 2851 H 265.621 2.08218 -3.61987 0
M  V30 2852 N 266.058 1.56714 -0.166846 0
M  V30 2853 C 267.335 1.88412 0.525373 0
M  V30 2854 C 267.715 1.07602 1.81618 0
M  V30 2855 O 267.063 0.168621 2.27877 0
M  V30 2856 C 267.273 3.40363 0.771613 0
M  V30 2857 C 268.621 4.10007 1.1036 0
M  V30 2858 O 269.645 3.45655 0.860304 0
M  V30 2859 O 268.504 5.2369 1.56239 0
M  V30 2860 H 265.598 0.781587 0.270278 0
M  V30 2861 H 268.144 1.68458 -0.204946 0
M  V30 2862 H 266.916 3.91046 -0.141093 0
M  V30 2863 H 266.539 3.65914 1.55541 0
M  V30 2864 N 267.536 -0.106894 1.57237 0
M  V30 2865 C 268.776 -0.818277 1.87306 0
M  V30 2866 C 269.14 -1.76474 0.756371 0
M  V30 2867 O 270.341 -2.5186 0.939155 0
M  V30 2868 C 268.612 -1.53806 3.22612 0
M  V30 2869 S 270.171 -2.28935 3.74345 0
M  V30 2870 H 266.989 -0.272862 0.656557 0
M  V30 2871 H 269.591 -0.075988 1.95352 0
M  V30 2872 H 268.295 -0.834951 4.01817 0
M  V30 2873 H 267.826 -2.32049 3.17674 0
M  V30 2874 H 269.841 -3.54871 3.46815 0
M  V30 2875 N 269.014 -1.53014 -0.377408 0
M  V30 2876 C 270.242 -1.72515 -1.14219 0
M  V30 2877 C 270.657 -0.448735 -1.8339 0
M  V30 2878 O 270.014 0.577592 -1.73119 0
M  V30 2879 C 270.065 -2.8826 -2.18148 0
M  V30 2880 O 269.786 -4.10962 -1.51795 0
M  V30 2881 C 271.287 -3.19536 -3.07264 0
M  V30 2882 H 268.507 -0.577301 -0.342001 0
M  V30 2883 H 271.051 -1.99712 -0.439935 0
M  V30 2884 H 269.206 -2.63492 -2.83991 0
M  V30 2885 H 269.62 -4.75693 -2.20945 0
M  V30 2886 H 271.094 -4.03959 -3.76193 0
M  V30 2887 H 271.571 -2.34403 -3.71419 0
M  V30 2888 H 272.177 -3.46186 -2.47053 0
M  V30 2889 N 270.492 0.636531 -1.44174 0
M  V30 2890 C 271.717 1.42847 -1.50364 0
M  V30 2891 C 272.142 1.87665 -0.127867 0
M  V30 2892 O 271.5 1.58408 0.88185 0
M  V30 2893 C 271.548 2.62854 -2.4686 0
M  V30 2894 O 270.652 3.62501 -1.9664 0
M  V30 2895 H 269.993 0.427642 -0.507955 0
M  V30 2896 H 272.523 0.777422 -1.89255 0
M  V30 2897 H 272.533 3.10465 -2.64718 0
M  V30 2898 H 271.208 2.29578 -3.46795 0
M  V30 2899 H 269.785 3.21735 -1.88523 0
M  V30 2900 N 271.97 1.30982 0.876444 0
M  V30 2901 C 272.933 1.18054 1.96459 0
M  V30 2902 C 273.933 0.109399 1.60427 0
M  V30 2903 O 275.123 0.358173 1.70478 0
M  V30 2904 C 272.255 0.810616 3.31122 0
M  V30 2905 H 273.448 2.14735 2.09354 0
M  V30 2906 H 271.001 1.145 1.06392 0
M  V30 2907 H 271.736 -0.155322 3.23928 0
M  V30 2908 H 271.521 1.58481 3.58645 0
M  V30 2909 H 273.011 0.743876 4.10921 0
M  V30 2910 N 273.449 -1.08991 1.13837 0
M  V30 2911 C 274.697 -1.80899 0.901098 0
M  V30 2912 C 275.018 -1.86356 -0.574134 0
M  V30 2913 O 274.288 -1.35235 -1.41733 0
M  V30 2914 H 272.868 -0.669966 0.330386 0
M  V30 2915 H 275.53 -1.318 1.43578 0
M  V30 2916 H 274.626 -2.83929 1.29578 0
M  V30 2917 N 274.927 -0.932562 -1.27047 0
M  V30 2918 C 276.343 -0.633544 -1.46487 0
M  V30 2919 C 276.543 0.815746 -1.84249 0
M  V30 2920 O 275.599 1.59319 -1.95892 0
M  V30 2921 C 276.912 -1.58758 -2.55375 0
M  V30 2922 C 278.46 -1.59634 -2.69232 0
M  V30 2923 C 278.935 -2.53747 -3.81283 0
M  V30 2924 N 280.426 -2.51982 -3.88664 0
M  V30 2925 C 281.161 -3.21491 -4.74796 0
M  V30 2926 N 280.657 -4.00395 -5.65381 0
M  V30 2927 N 282.45 -3.10485 -4.68568 0
M  V30 2928 H 274.601 -1.86946 -1.00821 0
M  V30 2929 H 276.864 -0.802897 -0.504044 0
M  V30 2930 H 276.57 -2.62172 -2.34432 0
M  V30 2931 H 276.444 -1.33301 -3.52861 0
M  V30 2932 H 278.831 -0.569488 -2.89553 0
M  V30 2933 H 278.912 -1.89142 -1.72218 0
M  V30 2934 H 278.556 -3.56545 -3.61715 0
M  V30 2935 H 278.486 -2.21532 -4.77735 0
M  V30 2936 H 280.977 -1.94681 -3.23895 0
M  V30 2937 H 281.29 -4.50406 -6.27976 0
M  V30 2938 H 279.635 -4.04498 -5.65161 0
M  V30 2939 H 282.826 -2.48331 -3.96799 0
M  V30 2940 H 282.999 -3.64925 -5.35475 0
M  V30 2941 N 276.405 1.4127 -0.698611 0
M  V30 2942 C 277.63 2.06024 -0.238512 0
M  V30 2943 C 278.055 1.5224 1.10475 0
M  V30 2944 O 277.413 0.650623 1.69223 0
M  V30 2945 C 277.461 3.59988 -0.209952 0
M  V30 2946 O 276.565 4.04282 0.814235 0
M  V30 2947 H 275.906 0.653829 -0.115775 0
M  V30 2948 H 278.436 1.8098 -0.954326 0
M  V30 2949 H 278.446 4.07979 -0.0418436 0
M  V30 2950 H 277.121 3.98503 -1.1903 0
M  V30 2951 H 275.698 3.6779 0.615234 0
M  V30 2952 N 277.883 0.443576 1.51229 0
M  V30 2953 C 279.16 -0.181038 1.9476 0
M  V30 2954 C 279.54 -1.59523 1.38259 0
M  V30 2955 O 278.888 -2.2122 0.572198 0
M  V30 2956 C 279.098 -0.152422 3.48667 0
M  V30 2957 C 280.446 -0.354923 4.23114 0
M  V30 2958 O 281.47 -0.230257 3.55455 0
M  V30 2959 O 280.329 -0.603674 5.43156 0
M  V30 2960 H 277.423 -0.1266 0.817252 0
M  V30 2961 H 279.969 0.502004 1.62105 0
M  V30 2962 H 278.741 0.836022 3.82265 0
M  V30 2963 H 278.364 -0.878107 3.87782 0
M  V30 2964 N 279.361 -1.56624 0.175154 0
M  V30 2965 C 280.609 -1.96609 -0.467885 0
M  V30 2966 C 280.93 -1.06238 -1.63519 0
M  V30 2967 O 280.2 -0.129523 -1.95471 0
M  V30 2968 H 278.78 -0.726008 -0.175845 0
M  V30 2969 H 281.442 -1.93195 0.257234 0
M  V30 2970 H 280.538 -3.00989 -0.825342 0
M  V30 2971 N 280.839 0.0985539 -1.57292 0
M  V30 2972 C 282.085 0.798769 -1.87059 0
M  V30 2973 C 282.44 1.76514 -0.76555 0
M  V30 2974 O 281.733 1.90181 0.232752 0
M  V30 2975 C 281.927 1.56927 -3.21105 0
M  V30 2976 C 281.756 0.679026 -4.44544 0
M  V30 2977 C 280.526 0.326071 -5.04247 0
M  V30 2978 C 282.724 -0.0124715 -5.14298 0
M  V30 2979 N 280.706 -0.572702 -6.11223 0
M  V30 2980 C 282.077 -0.769446 -6.15207 0
M  V30 2981 C 284.132 -0.0867545 -4.97824 0
M  V30 2982 C 282.835 -1.59376 -7.01421 0
M  V30 2983 C 284.861 -0.897955 -5.84543 0
M  V30 2984 C 284.223 -1.64306 -6.84969 0
M  V30 2985 H 280.322 0.268568 -0.734435 0
M  V30 2986 H 282.906 0.0614664 -1.94603 0
M  V30 2987 H 281.077 2.27748 -3.1462 0
M  V30 2988 H 282.809 2.21641 -3.38611 0
M  V30 2989 H 279.564 0.67295 -4.68795 0
M  V30 2990 H 279.988 -1.01454 -6.69355 0
M  V30 2991 H 284.63 0.474963 -4.20124 0
M  V30 2992 H 282.348 -2.16655 -7.78515 0
M  V30 2993 H 285.934 -0.958059 -5.73858 0
M  V30 2994 H 284.814 -2.26065 -7.50909 0
M  V30 2995 N 282.317 1.53212 0.369288 0
M  V30 2996 C 283.247 1.82365 1.45826 0
M  V30 2997 C 284.228 0.676907 1.56051 0
M  V30 2998 O 285.413 0.926401 1.70679 0
M  V30 2999 C 282.543 2.01023 2.83208 0
M  V30 3000 C 281.497 3.1678 2.8781 0
M  V30 3001 C 280.823 3.20724 4.27832 0
M  V30 3002 C 282.123 4.55447 2.55667 0
M  V30 3003 H 283.817 2.73559 1.21678 0
M  V30 3004 H 281.363 1.3163 0.583911 0
M  V30 3005 H 283.316 2.20001 3.59413 0
M  V30 3006 H 282.04 1.06536 3.08736 0
M  V30 3007 H 280.699 2.97616 2.14056 0
M  V30 3008 H 280.347 2.23882 4.50429 0
M  V30 3009 H 280.047 3.98496 4.31827 0
M  V30 3010 H 281.571 3.41881 5.05915 0
M  V30 3011 H 282.985 4.74611 3.21586 0
M  V30 3012 H 281.382 5.35432 2.70984 0
M  V30 3013 H 282.452 4.60812 1.5093 0
M  V30 3014 N 283.795 -0.628877 1.44509 0
M  V30 3015 C 285.041 -1.38863 1.48623 0
M  V30 3016 C 285.396 -1.92038 0.117933 0
M  V30 3017 O 284.689 -1.70853 -0.86716 0
M  V30 3018 C 284.883 -2.56995 2.48371 0
M  V30 3019 C 284.712 -2.15385 3.94765 0
M  V30 3020 C 283.482 -2.02558 4.62924 0
M  V30 3021 C 285.68 -1.74158 4.83915 0
M  V30 3022 N 283.662 -1.54534 5.94132 0
M  V30 3023 C 285.033 -1.37396 6.04584 0
M  V30 3024 C 287.088 -1.61559 4.7096 0
M  V30 3025 C 285.791 -0.892948 7.13736 0
M  V30 3026 C 287.817 -1.14862 5.80139 0
M  V30 3027 C 287.179 -0.790516 6.9995 0
M  V30 3028 H 283.278 -0.502858 0.59888 0
M  V30 3029 H 285.862 -0.72121 1.8085 0
M  V30 3030 H 284.033 -3.21362 2.1813 0
M  V30 3031 H 285.765 -3.23801 2.42766 0
M  V30 3032 H 282.52 -2.23082 4.1777 0
M  V30 3033 H 282.944 -1.32815 6.63844 0
M  V30 3034 H 287.586 -1.87876 3.78764 0
M  V30 3035 H 285.304 -0.617291 8.05739 0
M  V30 3036 H 288.89 -1.05569 5.72142 0
M  V30 3037 H 287.77 -0.434713 7.82994 0
M  V30 3038 N 285.273 -1.31445 -0.869486 0
M  V30 3039 C 286.513 -1.22458 -1.63656 0
M  V30 3040 C 286.877 0.213846 -1.90805 0
M  V30 3041 O 288.078 0.427212 -2.65383 0
M  V30 3042 C 286.349 -2.04564 -2.93067 0
M  V30 3043 S 287.908 -2.12445 -3.83944 0
M  V30 3044 H 284.726 -0.436145 -0.561514 0
M  V30 3045 H 287.328 -1.66114 -1.03085 0
M  V30 3046 H 286.032 -3.0816 -2.71045 0
M  V30 3047 H 285.563 -1.6163 -3.58663 0
M  V30 3048 H 287.578 -1.26312 -4.79854 0
M  V30 3049 N 286.751 1.08385 -1.14413 0
M  V30 3050 C 287.999 1.80419 -0.910679 0
M  V30 3051 C 288.32 1.86658 0.564243 0
M  V30 3052 O 287.59 1.35985 1.41014 0
M  V30 3053 H 286.17 0.668204 -0.333934 0
M  V30 3054 H 288.832 1.31037 -1.44275 0
M  V30 3055 H 287.928 2.83238 -1.31082 0
M  V30 3056 N 288.23 0.939286 1.26551 0
M  V30 3057 C 289.458 0.602536 1.97932 0
M  V30 3058 C 289.873 -0.82206 1.69964 0
M  V30 3059 O 289.23 -1.54789 0.966784 0
M  V30 3060 C 289.281 0.832946 3.51773 0
M  V30 3061 O 289.002 2.20151 3.78768 0
M  V30 3062 C 290.503 0.506483 4.40397 0
M  V30 3063 H 287.723 0.227248 0.631347 0
M  V30 3064 H 290.267 1.25948 1.61113 0
M  V30 3065 H 288.422 0.222644 3.8676 0
M  V30 3066 H 288.836 2.26013 4.73306 0
M  V30 3067 H 290.31 0.718333 5.47306 0
M  V30 3068 H 290.787 -0.558451 4.35635 0
M  V30 3069 H 291.393 1.09543 4.10951 0
M  V30 3070 N 289.708 -1.40897 0.706093 0
M  V30 3071 C 290.936 -2.05373 0.250887 0
M  V30 3072 C 291.351 -1.53172 -1.10381 0
M  V30 3073 O 290.708 -0.684305 -1.69185 0
M  V30 3074 C 290.759 -3.6088 0.211571 0
M  V30 3075 O 290.48 -4.11153 1.51276 0
M  V30 3076 C 291.981 -4.42517 -0.263346 0
M  V30 3077 H 289.201 -0.66115 0.114552 0
M  V30 3078 H 291.745 -1.80479 0.961635 0
M  V30 3079 H 289.9 -3.84777 -0.450073 0
M  V30 3080 H 290.314 -5.05279 1.40689 0
M  V30 3081 H 291.788 -5.51479 -0.239718 0
M  V30 3082 H 292.265 -4.19396 -1.30397 0
M  V30 3083 H 292.871 -4.23708 0.367677 0
M  V30 3084 N 291.186 -0.45159 -1.50991 0
M  V30 3085 C 292.414 0.108334 -2.06616 0
M  V30 3086 C 292.829 1.35224 -1.31757 0
M  V30 3087 O 292.186 1.78475 -0.381174 0
M  V30 3088 C 292.237 0.41619 -3.59096 0
M  V30 3089 O 291.958 -0.778361 -4.3113 0
M  V30 3090 C 293.459 1.02523 -4.31282 0
M  V30 3091 H 290.679 0.00159995 -0.670998 0
M  V30 3092 H 293.223 -0.634771 -1.94399 0
M  V30 3093 H 291.378 1.10921 -3.71181 0
M  V30 3094 H 291.792 -0.511181 -5.22003 0
M  V30 3095 H 293.266 1.19053 -5.39009 0
M  V30 3096 H 293.743 2.01013 -3.905 0
M  V30 3097 H 294.349 0.371173 -4.23677 0
M  V30 3098 N 292.664 1.56529 -0.183458 0
M  V30 3099 C 293.941 1.88959 0.50536 0
M  V30 3100 C 294.321 1.09523 1.80466 0
M  V30 3101 O 293.669 0.19278 2.27685 0
M  V30 3102 C 293.879 3.41162 0.73547 0
M  V30 3103 C 295.227 4.11155 1.06005 0
M  V30 3104 O 296.251 3.46548 0.823594 0
M  V30 3105 O 295.11 5.25318 1.50675 0
M  V30 3106 H 292.204 0.78441 0.261973 0
M  V30 3107 H 294.75 1.68231 -0.222802 0
M  V30 3108 H 293.522 3.90874 -0.182561 0
M  V30 3109 H 293.145 3.67543 1.51651 0
M  V30 3110 N 294.142 -0.090211 1.57342 0
M  V30 3111 C 295.372 -0.805055 1.90269 0
M  V30 3112 C 295.78 -1.72561 0.775842 0
M  V30 3113 O 295.123 -1.81839 -0.260843 0
M  V30 3114 C 295.185 -1.66734 3.18497 0
M  V30 3115 C 294.849 -0.918092 4.47683 0
M  V30 3116 C 295.846 -0.245674 5.19319 0
M  V30 3117 C 293.531 -0.890724 4.94339 0
M  V30 3118 C 295.525 0.444088 6.35851 0
M  V30 3119 C 293.212 -0.197179 6.10782 0
M  V30 3120 C 294.21 0.469044 6.81388 0
M  V30 3121 O 293.898 1.15146 7.95611 0
M  V30 3122 H 293.63 -0.235143 0.633785 0
M  V30 3123 H 296.184 -0.0703805 2.05279 0
M  V30 3124 H 294.414 -2.44437 2.99646 0
M  V30 3125 H 296.103 -2.25919 3.37217 0
M  V30 3126 H 296.869 -0.258246 4.84312 0
M  V30 3127 H 292.748 -1.39873 4.39268 0
M  V30 3128 H 296.292 0.964667 6.90898 0
M  V30 3129 H 292.189 -0.18247 6.45242 0
M  V30 3130 H 292.957 1.05885 8.11622 0
M  V30 3131 N 295.62 -1.53406 -0.361157 0
M  V30 3132 C 296.897 -1.60411 -1.11927 0
M  V30 3133 C 297.277 -0.414385 -2.06993 0
M  V30 3134 O 296.625 0.594976 -2.20618 0
M  V30 3135 C 296.835 -2.95652 -1.85448 0
M  V30 3136 C 298.183 -3.50386 -2.39823 0
M  V30 3137 O 299.207 -2.97711 -1.95568 0
M  V30 3138 O 298.066 -4.42482 -3.20737 0
M  V30 3139 H 295.16 -0.64811 -0.513695 0
M  V30 3140 H 297.706 -1.65749 -0.364065 0
M  V30 3141 H 296.478 -3.73682 -1.16091 0
M  V30 3142 H 296.101 -2.93825 -2.67866 0
M  V30 3143 N 297.098 0.621204 -1.44841 0
M  V30 3144 C 298.326 1.40752 -1.51646 0
M  V30 3145 C 298.741 1.88246 -0.144549 0
M  V30 3146 O 298.098 1.61422 0.851416 0
M  V30 3147 C 298.149 2.62119 -2.4895 0
M  V30 3148 O 297.87 2.16602 -3.80808 0
M  V30 3149 C 299.371 3.55135 -2.65319 0
M  V30 3150 H 296.591 0.431325 -0.514004 0
M  V30 3151 H 299.135 0.758835 -1.899 0
M  V30 3152 H 297.29 3.23058 -2.13805 0
M  V30 3153 H 297.704 2.95358 -4.33433 0
M  V30 3154 H 299.178 4.36874 -3.37409 0
M  V30 3155 H 299.655 4.04592 -1.70886 0
M  V30 3156 H 300.261 3.00058 -3.01405 0
M  V30 3157 N 298.576 1.31904 0.862503 0
M  V30 3158 C 299.853 1.12644 1.59908 0
M  V30 3159 C 300.233 -0.316104 2.0872 0
M  V30 3160 O 299.581 -1.31145 1.87118 0
M  V30 3161 C 299.791 2.1472 2.7513 0
M  V30 3162 C 301.139 2.47637 3.44907 0
M  V30 3163 O 302.163 2.13205 2.85346 0
M  V30 3164 O 301.022 3.06632 4.52371 0
M  V30 3165 H 298.116 0.43416 0.703871 0
M  V30 3166 H 300.662 1.43408 0.907314 0
M  V30 3167 H 299.434 3.1172 2.3653 0
M  V30 3168 H 299.057 1.84905 3.51989 0
M  V30 3169 N 300.054 -1.07777 1.14986 0
M  V30 3170 C 301.001 -2.14867 0.842672 0
M  V30 3171 C 301.971 -1.6486 -0.202552 0
M  V30 3172 O 303.156 -1.90668 -0.0710568 0
M  V30 3173 C 300.296 -3.43486 0.333363 0
M  V30 3174 C 299.409 -4.07306 1.43965 0
M  V30 3175 C 298.544 -5.23744 0.886914 0
M  V30 3176 C 297.583 -5.79517 1.97043 0
M  V30 3177 N 296.72 -6.87291 1.4344 0
M  V30 3178 H 301.56 -2.40485 1.75986 0
M  V30 3179 H 299.097 -1.1801 0.878179 0
M  V30 3180 H 301.055 -4.17195 0.0198163 0
M  V30 3181 H 299.685 -3.18133 -0.546916 0
M  V30 3182 H 298.737 -3.31293 1.86946 0
M  V30 3183 H 300.049 -4.44771 2.25788 0
M  V30 3184 H 299.203 -6.04419 0.525651 0
M  V30 3185 H 297.942 -4.87685 0.0377957 0
M  V30 3186 H 296.947 -4.97491 2.34057 0
M  V30 3187 H 298.172 -6.17632 2.82325 0
M  V30 3188 H 296.118 -6.5318 0.607567 0
M  V30 3189 H 296.035 -7.23617 2.18895 0
M  V30 3190 H 297.303 -7.71682 1.10124 0
M  V30 3191 N 301.532 -0.945985 -1.26051 0
M  V30 3192 C 302.462 -0.477172 -2.28572 0
M  V30 3193 C 303.443 0.472032 -1.63419 0
M  V30 3194 O 304.628 0.372853 -1.90587 0
M  V30 3195 C 301.758 0.253975 -3.4637 0
M  V30 3196 C 300.712 -0.609135 -4.23643 0
M  V30 3197 C 300.038 0.252252 -5.34105 0
M  V30 3198 C 301.338 -1.8829 -4.8718 0
M  V30 3199 H 303.032 -1.33402 -2.68038 0
M  V30 3200 H 300.578 -0.642904 -1.28852 0
M  V30 3201 H 302.531 0.593016 -4.17207 0
M  V30 3202 H 301.255 1.145 -3.05871 0
M  V30 3203 H 299.914 -0.931138 -3.54578 0
M  V30 3204 H 299.562 1.14278 -4.89846 0
M  V30 3205 H 299.262 -0.32188 -5.86718 0
M  V30 3206 H 300.786 0.586454 -6.07777 0
M  V30 3207 H 302.2 -1.61081 -5.50205 0
M  V30 3208 H 300.597 -2.40199 -5.49931 0
M  V30 3209 H 301.667 -2.59134 -4.09851 0
M  V30 3210 N 303.011 1.40521 -0.713556 0
M  V30 3211 C 304.258 2.00923 -0.25219 0
M  V30 3212 C 304.586 1.56571 1.15395 0
M  V30 3213 O 303.841 0.775874 1.79663 0
M  V30 3214 C 304.14 3.56317 -0.278 0
M  V30 3215 C 303.806 4.20246 -1.63415 0
M  V30 3216 C 302.468 4.37422 -2.00538 0
M  V30 3217 C 304.82 4.55923 -2.52554 0
M  V30 3218 C 302.148 4.87558 -3.2635 0
M  V30 3219 C 304.5 5.07458 -3.77716 0
M  V30 3220 C 303.164 5.22843 -4.14959 0
M  V30 3221 H 302.434 0.735231 -0.0922829 0
M  V30 3222 H 305.081 1.68161 -0.916188 0
M  V30 3223 H 303.386 3.88976 0.469567 0
M  V30 3224 H 305.083 4.00883 0.0967819 0
M  V30 3225 H 301.673 4.07263 -1.33546 0
M  V30 3226 H 305.857 4.42291 -2.25149 0
M  V30 3227 H 301.113 4.97654 -3.55176 0
M  V30 3228 H 305.287 5.34041 -4.4696 0
M  V30 3229 H 302.914 5.61454 -5.12516 0
M  V30 3230 N 304.489 0.459591 1.5075 0
M  V30 3231 C 305.737 -0.0991532 2.01857 0
M  V30 3232 C 306.058 -1.41247 1.34441 0
M  V30 3233 O 305.328 -1.89775 0.486022 0
M  V30 3234 H 303.908 -0.039633 0.745948 0
M  V30 3235 H 306.57 0.607387 1.85194 0
M  V30 3236 H 305.666 -0.258998 3.11023 0
M  V30 3237 N 305.967 -1.56429 0.191757 0
M  V30 3238 C 307.197 -2.01574 -0.452928 0
M  V30 3239 C 307.605 -1.07107 -1.55964 0
M  V30 3240 O 306.948 -0.067534 -1.83576 0
M  V30 3241 C 307.01 -3.43121 -1.07278 0
M  V30 3242 C 306.674 -4.56879 -0.105214 0
M  V30 3243 C 307.671 -5.15379 0.684149 0
M  V30 3244 C 305.356 -5.023 0.00489824 0
M  V30 3245 C 307.35 -6.17746 1.57062 0
M  V30 3246 C 305.037 -6.04511 0.894935 0
M  V30 3247 C 306.035 -6.62108 1.67637 0
M  V30 3248 O 305.723 -7.62335 2.55149 0
M  V30 3249 H 305.455 -0.665554 -0.118379 0
M  V30 3250 H 308.009 -2.03245 0.296737 0
M  V30 3251 H 306.239 -3.38425 -1.87097 0
M  V30 3252 H 307.928 -3.72093 -1.62177 0
M  V30 3253 H 308.694 -4.81157 0.609365 0
M  V30 3254 H 304.573 -4.57168 -0.593156 0
M  V30 3255 H 308.117 -6.6263 2.181 0
M  V30 3256 H 304.014 -6.38157 0.970847 0
M  V30 3257 H 304.782 -7.79741 2.48892 0
M  V30 3258 N 307.445 0.0818655 -1.57387 0
M  V30 3259 C 308.685 0.788375 -1.88584 0
M  V30 3260 C 309.049 1.75248 -0.784351 0
M  V30 3261 O 310.25 2.50334 -0.979105 0
M  V30 3262 C 308.521 1.48654 -3.25018 0
M  V30 3263 S 310.08 2.22951 -3.7794 0
M  V30 3264 H 306.898 0.262383 -0.660815 0
M  V30 3265 H 309.5 0.0448995 -1.95448 0
M  V30 3266 H 308.204 0.770919 -4.03094 0
M  V30 3267 H 307.735 2.26965 -3.21326 0
M  V30 3268 H 309.75 3.49309 -3.52417 0
M  V30 3269 N 308.923 1.53595 0.353017 0
M  V30 3270 C 310.334 1.61937 0.929153 0
M  V30 3271 C 310.685 0.494686 1.89861 0
M  V30 3272 O 309.81 -0.377017 2.1309 0
M  V30 3273 C 310.405 2.93526 1.69199 0
M  V30 3274 C 308.964 3.04161 2.21727 0
M  V30 3275 C 308.111 2.57322 1.03348 0
M  V30 3276 H 311.062 1.58155 0.131431 0
M  V30 3277 H 311.083 2.82034 2.55416 0
M  V30 3278 H 310.595 3.75362 0.986144 0
M  V30 3279 H 308.696 2.26938 2.95516 0
M  V30 3280 H 308.809 4.09465 2.48748 0
M  V30 3281 H 307.173 2.12499 1.40414 0
M  V30 3282 H 307.956 3.41588 0.342428 0
M  V30 3283 N 310.401 -0.613514 1.45168 0
M  V30 3284 C 311.331 -1.7354 1.56225 0
M  V30 3285 C 312.312 -1.64981 0.41414 0
M  V30 3286 O 313.497 -1.83472 0.636526 0
M  V30 3287 C 310.627 -3.12128 1.52295 0
M  V30 3288 C 309.581 -3.35491 2.65762 0
M  V30 3289 C 308.907 -4.74291 2.46885 0
M  V30 3290 C 310.207 -3.26325 4.0781 0
M  V30 3291 H 311.901 -1.64543 2.50132 0
M  V30 3292 H 309.447 -0.790185 1.20383 0
M  V30 3293 H 311.4 -3.90404 1.58628 0
M  V30 3294 H 310.124 -3.2195 0.549139 0
M  V30 3295 H 308.783 -2.59603 2.58847 0
M  V30 3296 H 308.431 -4.80839 1.47657 0
M  V30 3297 H 308.131 -4.9088 3.22972 0
M  V30 3298 H 309.655 -5.54775 2.55063 0
M  V30 3299 H 311.069 -3.94483 4.16 0
M  V30 3300 H 309.466 -3.54445 4.8424 0
M  V30 3301 H 310.536 -2.23855 4.30136 0
M  V30 3302 N 311.879 -1.3236 -0.855495 0
M  V30 3303 C 312.826 -1.21225 -1.964 0
M  V30 3304 C 313.796 -0.0946204 -1.6583 0
M  V30 3305 O 314.981 -0.27002 -1.8888 0
M  V30 3306 C 312.121 -0.940419 -3.32039 0
M  V30 3307 C 311.234 -2.14276 -3.75113 0
M  V30 3308 C 310.369 -1.80648 -4.9954 0
M  V30 3309 C 309.408 -2.97208 -5.35102 0
M  V30 3310 N 308.545 -2.63678 -6.50706 0
M  V30 3311 H 313.385 -2.16042 -2.05255 0
M  V30 3312 H 310.922 -1.07451 -1.00463 0
M  V30 3313 H 312.88 -0.763311 -4.10158 0
M  V30 3314 H 311.51 -0.0290413 -3.22787 0
M  V30 3315 H 310.562 -2.43017 -2.92655 0
M  V30 3316 H 311.874 -3.01468 -3.97389 0
M  V30 3317 H 311.028 -1.59484 -5.85363 0
M  V30 3318 H 309.767 -0.906678 -4.79198 0
M  V30 3319 H 308.772 -3.19004 -4.47791 0
M  V30 3320 H 309.997 -3.87918 -5.57401 0
M  V30 3321 H 307.943 -1.76238 -6.31883 0
M  V30 3322 H 307.86 -3.444 -6.72997 0
M  V30 3323 H 309.128 -2.45942 -7.39684 0
M  V30 3324 N 313.357 1.07166 -1.15556 0
M  V30 3325 C 314.604 1.79798 -0.931604 0
M  V30 3326 C 314.932 1.8682 0.54115 0
M  V30 3327 O 314.187 1.34942 1.41736 0
M  V30 3328 C 314.486 3.24707 -1.49332 0
M  V30 3329 C 314.152 3.37781 -2.98688 0
M  V30 3330 C 312.814 3.41057 -3.39461 0
M  V30 3331 C 315.166 3.40424 -3.94665 0
M  V30 3332 C 312.494 3.4458 -4.74849 0
M  V30 3333 C 314.846 3.45485 -5.29927 0
M  V30 3334 C 313.51 3.47039 -5.70193 0
M  V30 3335 H 312.78 0.657928 -0.340898 0
M  V30 3336 H 315.427 1.26091 -1.44129 0
M  V30 3337 H 313.732 3.81208 -0.904859 0
M  V30 3338 H 315.429 3.79486 -1.29582 0
M  V30 3339 H 312.019 3.35932 -2.66172 0
M  V30 3340 H 316.203 3.37113 -3.64237 0
M  V30 3341 H 311.459 3.44083 -5.05388 0
M  V30 3342 H 315.633 3.46476 -6.04092 0
M  V30 3343 H 313.26 3.49522 -6.75084 0
M  V30 3344 N 314.835 0.952656 1.25548 0
M  V30 3345 C 315.745 0.47782 2.29682 0
M  V30 3346 C 316.761 -0.453859 1.67977 0
M  V30 3347 O 317.937 -0.330587 1.98668 0
M  V30 3348 C 315.002 -0.238655 3.45878 0
M  V30 3349 C 314.063 0.730994 4.23031 0
M  V30 3350 C 313.296 0.0486165 5.33678 0
M  V30 3351 O 313.519 -1.16612 5.58353 0
M  V30 3352 O 312.453 0.733152 5.97418 0
M  V30 3353 H 316.279 1.34312 2.72386 0
M  V30 3354 H 313.864 0.719026 1.30959 0
M  V30 3355 H 315.746 -0.641774 4.16484 0
M  V30 3356 H 314.421 -1.07916 3.05181 0
M  V30 3357 H 313.328 1.18428 3.5486 0
M  V30 3358 H 314.661 1.53946 4.67506 0
M  V30 3359 N 316.313 -1.40141 0.720998 0
M  V30 3360 C 317.561 -2.0039 0.262323 0
M  V30 3361 C 317.882 -1.57469 -1.15015 0
M  V30 3362 O 317.152 -0.816582 -1.78069 0
M  V30 3363 H 315.732 -0.741063 0.093996 0
M  V30 3364 H 318.394 -1.71398 0.927835 0
M  V30 3365 H 317.49 -3.10658 0.299671 0
M  V30 3366 N 317.792 -0.46758 -1.50504 0
M  V30 3367 C 319.017 0.0886943 -2.0721 0
M  V30 3368 C 319.442 1.33057 -1.32956 0
M  V30 3369 O 318.8 1.77354 -0.376197 0
M  V30 3370 C 318.848 0.359202 -3.58806 0
M  V30 3371 O 317.952 1.44034 -3.8643 0
M  V30 3372 H 317.293 -0.0114349 -0.663902 0
M  V30 3373 H 319.823 -0.657613 -1.93744 0
M  V30 3374 H 319.833 0.600742 -4.03553 0
M  V30 3375 H 318.508 -0.548311 -4.1227 0
M  V30 3376 H 317.085 1.18638 -3.53524 0
M  V30 3377 N 319.27 1.56325 -0.20005 0
M  V30 3378 C 320.18 2.22931 0.730668 0
M  V30 3379 C 321.196 1.22997 1.23076 0
M  V30 3380 O 322.372 1.55748 1.27689 0
M  V30 3381 C 319.437 2.87948 1.93098 0
M  V30 3382 C 318.498 4.03166 1.47497 0
M  V30 3383 C 317.731 4.65073 2.61807 0
M  V30 3384 O 317.954 4.25913 3.79413 0
M  V30 3385 O 316.888 5.54452 2.34237 0
M  V30 3386 H 320.714 3.03084 0.193391 0
M  V30 3387 H 318.299 1.49371 0.0294621 0
M  V30 3388 H 320.181 3.29063 2.6324 0
M  V30 3389 H 318.856 2.10771 2.45677 0
M  V30 3390 H 317.763 3.66664 0.742201 0
M  V30 3391 H 319.096 4.82022 0.995796 0
M  V30 3392 N 320.748 -0.0735177 1.57428 0
M  V30 3393 C 321.973 -0.789787 1.91774 0
M  V30 3394 C 322.398 -1.70413 0.796306 0
M  V30 3395 O 321.756 -1.79555 -0.250961 0
M  V30 3396 C 321.804 -1.5609 3.25067 0
M  V30 3397 O 320.908 -2.67144 3.14178 0
M  V30 3398 H 320.249 -0.215582 0.628029 0
M  V30 3399 H 322.779 -0.0422781 2.04556 0
M  V30 3400 H 322.789 -1.94052 3.58898 0
M  V30 3401 H 321.464 -0.890015 4.06265 0
M  V30 3402 H 320.041 -2.32052 2.91901 0
M  V30 3403 N 322.226 -1.5378 -0.344866 0
M  V30 3404 C 323.156 -1.84662 -1.42906 0
M  V30 3405 C 324.137 -0.701648 -1.54955 0
M  V30 3406 O 325.322 -0.953438 -1.69184 0
M  V30 3407 C 322.452 -2.05503 -2.79974 0
M  V30 3408 C 321.406 -3.21318 -2.82734 0
M  V30 3409 C 320.732 -3.2749 -4.22675 0
M  V30 3410 C 322.032 -4.59456 -2.48389 0
M  V30 3411 H 323.726 -2.75461 -1.17311 0
M  V30 3412 H 321.272 -1.32542 -0.562896 0
M  V30 3413 H 323.225 -2.25691 -3.55867 0
M  V30 3414 H 321.949 -1.11434 -3.07002 0
M  V30 3415 H 320.608 -3.00984 -2.09294 0
M  V30 3416 H 320.256 -2.31019 -4.4681 0
M  V30 3417 H 319.956 -4.05316 -4.25433 0
M  V30 3418 H 321.48 -3.49887 -5.00412 0
M  V30 3419 H 322.894 -4.79667 -3.13995 0
M  V30 3420 H 321.291 -5.39675 -2.62432 0
M  V30 3421 H 322.361 -4.63155 -1.4358 0
M  V30 3422 N 323.704 0.605807 -1.45491 0
M  V30 3423 C 324.95 1.36481 -1.50813 0
M  V30 3424 C 325.305 1.91826 -0.148469 0
M  V30 3425 O 324.598 1.72211 0.839869 0
M  V30 3426 C 324.792 2.53012 -2.52428 0
M  V30 3427 C 324.621 2.09078 -3.98141 0
M  V30 3428 C 323.391 1.95167 -4.66088 0
M  V30 3429 C 325.589 1.66438 -4.86624 0
M  V30 3430 N 323.571 1.45062 -5.96515 0
M  V30 3431 C 324.942 1.27761 -6.06694 0
M  V30 3432 C 326.997 1.54046 -4.7347 0
M  V30 3433 C 325.7 0.779286 -7.15066 0
M  V30 3434 C 327.726 1.05618 -5.81892 0
M  V30 3435 C 327.088 0.67906 -7.01119 0
M  V30 3436 H 323.187 0.493267 -0.606805 0
M  V30 3437 H 325.771 0.692347 -1.81974 0
M  V30 3438 H 323.942 3.17851 -2.23215 0
M  V30 3439 H 325.674 3.19897 -2.47887 0
M  V30 3440 H 322.429 2.16407 -4.21266 0
M  V30 3441 H 322.853 1.22237 -6.65873 0
M  V30 3442 H 327.495 1.81827 -3.81705 0
M  V30 3443 H 325.213 0.489026 -8.06619 0
M  V30 3444 H 328.799 0.964529 -5.73749 0
M  V30 3445 H 327.679 0.310091 -7.83587 0
M  V30 3446 N 325.182 1.32811 0.848464 0
M  V30 3447 C 326.13 1.22231 1.97895 0
M  V30 3448 C 327.124 0.125749 1.68933 0
M  V30 3449 O 328.33 0.289083 1.77663 0
M  V30 3450 H 324.705 0.379058 0.649476 0
M  V30 3451 H 326.676 2.17828 2.03945 0
M  V30 3452 C 325.425 0.968572 3.33937 0
M  V30 3453 H 324.748 1.80458 3.56756 0
M  V30 3454 H 326.188 0.934808 4.13567 0
M  V30 3455 C 324.647 -0.328628 3.35293 0
M  V30 3456 O 325.177 -1.33848 3.78745 0
M  V30 3457 N 323.383 -0.352788 2.88451 0
M  V30 3458 H 322.93 0.469541 2.53285 0
M  V30 3459 H 322.888 -1.22057 2.89741 0
M  V30 3460 N 326.66 -1.06551 1.16123 0
M  V30 3461 C 327.607 -2.13961 0.865414 0
M  V30 3462 C 328.577 -1.65066 -0.185055 0
M  V30 3463 O 329.762 -1.90732 -0.05083 0
M  V30 3464 C 326.902 -3.43113 0.369776 0
M  V30 3465 C 326.015 -4.05756 1.48276 0
M  V30 3466 C 325.15 -5.22773 0.942414 0
M  V30 3467 C 324.189 -5.77395 2.03179 0
M  V30 3468 N 323.326 -6.85731 1.50721 0
M  V30 3469 H 328.166 -2.38605 1.78527 0
M  V30 3470 H 325.703 -1.17072 0.890646 0
M  V30 3471 H 327.661 -4.17151 0.0640643 0
M  V30 3472 H 326.291 -3.18695 -0.513143 0
M  V30 3473 H 325.343 -3.29292 1.9045 0
M  V30 3474 H 326.655 -4.42351 2.30493 0
M  V30 3475 H 325.809 -6.03827 0.589729 0
M  V30 3476 H 324.548 -4.87618 0.0895191 0
M  V30 3477 H 323.553 -4.94981 2.3932 0
M  V30 3478 H 324.778 -6.14603 2.8886 0
M  V30 3479 H 322.724 -6.52499 0.676811 0
M  V30 3480 H 322.641 -7.21254 2.26557 0
M  V30 3481 H 323.909 -7.7047 1.18303 0
M  V30 3482 N 328.138 -0.959301 -1.25041 0
M  V30 3483 C 329.415 -0.533805 -1.88175 0
M  V30 3484 C 329.795 0.988994 -1.865 0
M  V30 3485 O 329.143 1.85677 -1.33177 0
M  V30 3486 C 329.353 -1.11575 -3.30684 0
M  V30 3487 C 330.701 -1.19548 -4.07423 0
M  V30 3488 O 331.725 -1.06765 -3.39823 0
M  V30 3489 O 330.584 -1.39656 -5.28354 0
M  V30 3490 H 327.678 -0.176772 -0.807887 0
M  V30 3491 H 330.224 -1.05303 -1.33076 0
M  V30 3492 H 328.996 -2.15884 -3.26358 0
M  V30 3493 H 328.619 -0.580059 -3.93346 0
M  V30 3494 N 329.616 1.39756 -0.72842 0
M  V30 3495 C 331.027 1.83498 -0.344289 0
M  V30 3496 C 331.378 1.60868 1.12321 0
M  V30 3497 O 330.503 1.09634 1.86573 0
M  V30 3498 C 331.098 3.33114 -0.618112 0
M  V30 3499 C 329.657 3.753 -0.287549 0
M  V30 3500 C 328.804 2.62831 -0.884048 0
M  V30 3501 H 331.755 1.28842 -0.926578 0
M  V30 3502 H 331.776 3.80334 0.112349 0
M  V30 3503 H 331.288 3.49553 -1.68625 0
M  V30 3504 H 329.389 3.64451 0.775012 0
M  V30 3505 H 329.502 4.72945 -0.765512 0
M  V30 3506 H 327.866 2.52792 -0.311149 0
M  V30 3507 H 328.649 2.82078 -1.95671 0
M  V30 3508 N 331.094 0.475555 1.50254 0
M  V30 3509 C 332.024 -0.30611 2.31485 0
M  V30 3510 C 333.005 -0.986228 1.38591 0
M  V30 3511 O 334.19 -0.982541 1.67511 0
M  V30 3512 C 331.32 -1.38588 3.1845 0
M  V30 3513 C 330.274 -0.827115 4.19932 0
M  V30 3514 C 329.6 -2.00551 4.95665 0
M  V30 3515 C 330.9 0.16463 5.2204 0
M  V30 3516 H 332.594 0.371866 2.97082 0
M  V30 3517 H 330.14 0.180282 1.42867 0
M  V30 3518 H 332.093 -1.94023 3.74076 0
M  V30 3519 H 330.817 -2.09269 2.50747 0
M  V30 3520 H 329.476 -0.294702 3.65414 0
M  V30 3521 H 329.124 -2.6994 4.2443 0
M  V30 3522 H 328.824 -1.63784 5.64313 0
M  V30 3523 H 330.348 -2.56468 5.54127 0
M  V30 3524 H 331.762 -0.300699 5.72511 0
M  V30 3525 H 330.159 0.446813 5.98434 0
M  V30 3526 H 331.229 1.08905 4.72512 0
M  V30 3527 N 332.573 -1.56217 0.208337 0
M  V30 3528 C 333.801 -2.02337 -0.43215 0
M  V30 3529 C 334.216 -1.08834 -1.54275 0
M  V30 3530 O 333.573 -0.0955462 -1.8225 0
M  V30 3531 C 333.624 -3.48072 -0.976138 0
M  V30 3532 O 333.345 -4.38007 0.0901621 0
M  V30 3533 C 334.846 -4.09773 -1.69119 0
M  V30 3534 H 332.066 -0.662385 -0.10718 0
M  V30 3535 H 334.61 -2.01966 0.320923 0
M  V30 3536 H 332.765 -3.49099 -1.67954 0
M  V30 3537 H 333.179 -5.23543 -0.316701 0
M  V30 3538 H 334.653 -5.13556 -2.02397 0
M  V30 3539 H 335.13 -3.53999 -2.59964 0
M  V30 3540 H 335.736 -4.12556 -1.03332 0
M  V30 3541 N 334.051 0.0651679 -1.57465 0
M  V30 3542 C 335.276 0.779605 -1.9219 0
M  V30 3543 C 335.701 1.69988 -0.805333 0
M  V30 3544 O 335.059 1.79685 0.241435 0
M  V30 3545 C 335.107 1.54364 -3.2589 0
M  V30 3546 O 334.211 2.65474 -3.1559 0
M  V30 3547 H 333.552 0.212249 -0.629163 0
M  V30 3548 H 336.082 0.0314294 -2.04576 0
M  V30 3549 H 336.092 1.92146 -3.59922 0
M  V30 3550 H 334.767 0.868457 -4.06732 0
M  V30 3551 H 333.344 2.30501 -2.93128 0
M  V30 3552 N 335.529 1.53961 0.336706 0
M  V30 3553 C 336.775 1.7179 1.07777 0
M  V30 3554 C 337.108 0.483263 1.88091 0
M  V30 3555 O 336.383 -0.519747 1.87427 0
M  V30 3556 C 336.666 2.98558 2.01334 0
M  V30 3557 C 336.519 4.32245 1.24437 0
M  V30 3558 C 337.838 3.21023 3.01052 0
M  V30 3559 H 334.957 0.625089 0.390426 0
M  V30 3560 H 337.599 1.86641 0.35567 0
M  V30 3561 H 335.749 2.86028 2.62908 0
M  V30 3562 H 337.421 4.56637 0.654243 0
M  V30 3563 H 335.664 4.30344 0.546458 0
M  V30 3564 H 336.335 5.17137 1.93063 0
M  V30 3565 H 338.811 3.32929 2.49595 0
M  V30 3566 H 337.687 4.11104 3.6371 0
M  V30 3567 H 337.948 2.37637 3.72802 0
M  V30 3568 N 337.007 -0.598083 1.45811 0
M  V30 3569 C 338.232 -1.3881 1.54099 0
M  V30 3570 C 338.657 -1.8726 0.177578 0
M  V30 3571 O 338.015 -1.6069 -0.839541 0
M  V30 3572 C 338.063 -2.56217 2.53743 0
M  V30 3573 O 337.167 -3.5716 2.06182 0
M  V30 3574 H 336.508 -0.414024 0.519115 0
M  V30 3575 H 339.038 -0.726971 1.91249 0
M  V30 3576 H 339.048 -3.03337 2.72856 0
M  V30 3577 H 337.723 -2.20303 3.5276 0
M  V30 3578 H 336.3 -3.16624 1.96987 0
M  V30 3579 N 338.485 -1.33259 -0.841409 0
M  V30 3580 C 339.715 -1.2742 -1.62628 0
M  V30 3581 C 340.123 0.157604 -1.88542 0
M  V30 3582 O 339.466 1.10938 -1.46419 0
M  V30 3583 C 339.528 -1.97797 -3.00194 0
M  V30 3584 C 339.192 -3.47109 -2.97261 0
M  V30 3585 C 340.189 -4.42358 -2.73159 0
M  V30 3586 C 337.874 -3.89247 -3.17478 0
M  V30 3587 C 339.868 -5.77718 -2.69296 0
M  V30 3588 C 337.555 -5.24713 -3.13241 0
M  V30 3589 C 338.553 -6.1876 -2.89181 0
M  V30 3590 O 338.241 -7.51745 -2.84843 0
M  V30 3591 H 337.973 -0.440436 -0.512827 0
M  V30 3592 H 340.527 -1.76153 -1.05638 0
M  V30 3593 H 338.757 -1.43652 -3.59028 0
M  V30 3594 H 340.446 -1.8549 -3.61038 0
M  V30 3595 H 341.212 -4.11127 -2.57294 0
M  V30 3596 H 337.091 -3.16456 -3.35226 0
M  V30 3597 H 340.635 -6.51097 -2.50436 0
M  V30 3598 H 336.532 -5.55569 -3.28654 0
M  V30 3599 H 337.3 -7.61262 -3.00702 0
M  V30 3600 N 339.963 1.05934 -1.16686 0
M  V30 3601 C 340.895 2.13468 -0.834503 0
M  V30 3602 C 341.908 1.62013 0.15984 0
M  V30 3603 O 343.097 1.7838 -0.0654228 0
M  V30 3604 C 340.197 3.3817 -0.222361 0
M  V30 3605 C 339.37 4.18928 -1.25771 0
M  V30 3606 C 338.429 5.21985 -0.664703 0
M  V30 3607 O 337.455 5.53334 -1.33453 0
M  V30 3608 N 338.657 5.77919 0.546834 0
M  V30 3609 H 341.422 2.42578 -1.75999 0
M  V30 3610 H 338.983 1.21967 -1.06469 0
M  V30 3611 H 340.975 4.04266 0.187472 0
M  V30 3612 H 339.545 3.06655 0.606758 0
M  V30 3613 H 338.765 3.48433 -1.84358 0
M  V30 3614 H 340.053 4.69687 -1.95631 0
M  V30 3615 H 339.451 5.54721 1.10912 0
M  V30 3616 H 338.008 6.45573 0.898829 0
M  V30 3617 N 341.441 0.965919 1.2453 0
M  V30 3618 C 342.69 0.622437 1.91856 0
M  V30 3619 C 343.003 -0.846006 1.76358 0
M  V30 3620 O 344.209 -1.29993 2.38357 0
M  V30 3621 C 342.665 1.0626 3.43856 0
M  V30 3622 C 342.273 2.55437 3.68043 0
M  V30 3623 C 344.017 0.792183 4.17043 0
M  V30 3624 C 341.924 2.93196 5.13605 0
M  V30 3625 H 340.854 0.229092 0.718354 0
M  V30 3626 H 343.505 1.17189 1.41206 0
M  V30 3627 H 341.887 0.441476 3.93531 0
M  V30 3628 H 343.061 3.22665 3.28974 0
M  V30 3629 H 341.376 2.8007 3.08139 0
M  V30 3630 H 343.973 1.05031 5.24283 0
M  V30 3631 H 344.316 -0.271584 4.15413 0
M  V30 3632 H 344.849 1.37419 3.73311 0
M  V30 3633 H 341.588 3.98636 5.20355 0
M  V30 3634 H 341.108 2.30651 5.53679 0
M  V30 3635 H 342.787 2.83004 5.81823 0
M  V30 3636 N 342.919 -1.39368 0.735821 0
M  V30 3637 C 343.867 -2.32443 0.0855131 0
M  V30 3638 C 344.861 -1.53104 -0.724954 0
M  V30 3639 O 346.067 -1.68762 -0.626047 0
M  V30 3640 H 342.442 -0.751948 0.00885257 0
M  V30 3641 H 344.413 -2.84916 0.886883 0
M  V30 3642 C 343.162 -3.38206 -0.806983 0
M  V30 3643 H 342.485 -3.99335 -0.19274 0
M  V30 3644 H 343.925 -4.05779 -1.2296 0
M  V30 3645 C 342.384 -2.75321 -1.94165 0
M  V30 3646 O 342.914 -2.63231 -3.03435 0
M  V30 3647 N 341.12 -2.33396 -1.73132 0
M  V30 3648 H 340.667 -2.4343 -0.842596 0
M  V30 3649 H 340.625 -1.91661 -2.49225 0
M  V30 3650 N 344.397 -0.483516 -1.5 0
M  V30 3651 C 345.622 0.0667119 -2.07293 0
M  V30 3652 C 346.047 1.3164 -1.3436 0
M  V30 3653 O 345.405 1.76945 -0.394987 0
M  V30 3654 C 345.453 0.321126 -3.59167 0
M  V30 3655 O 344.557 1.39927 -3.87936 0
M  V30 3656 H 343.898 -0.0184758 -0.663743 0
M  V30 3657 H 346.428 -0.678125 -1.93035 0
M  V30 3658 H 346.438 0.557906 -4.04168 0
M  V30 3659 H 345.113 -0.592007 -4.11665 0
M  V30 3660 H 343.69 1.14882 -3.54763 0
M  V30 3661 N 345.875 1.56104 -0.216619 0
M  V30 3662 C 346.822 2.2007 0.695531 0
M  V30 3663 C 347.792 1.15471 1.19397 0
M  V30 3664 O 348.977 1.43807 1.25396 0
M  V30 3665 C 346.117 2.88073 1.90021 0
M  V30 3666 C 345.23 4.07253 1.44113 0
M  V30 3667 C 344.365 4.63052 2.603 0
M  V30 3668 C 343.404 5.74545 2.11103 0
M  V30 3669 N 342.541 6.24656 3.20545 0
M  V30 3670 H 347.381 2.97655 0.143327 0
M  V30 3671 H 344.918 1.46982 0.0589934 0
M  V30 3672 H 346.876 3.25681 2.60745 0
M  V30 3673 H 345.506 2.13015 2.42538 0
M  V30 3674 H 344.558 3.75164 0.628999 0
M  V30 3675 H 345.87 4.8783 1.04036 0
M  V30 3676 H 345.024 5.03078 3.39113 0
M  V30 3677 H 343.763 3.81628 3.03663 0
M  V30 3678 H 342.768 5.34027 1.3075 0
M  V30 3679 H 343.993 6.57801 1.68746 0
M  V30 3680 H 341.939 5.46148 3.63399 0
M  V30 3681 H 341.856 7.00343 2.84704 0
M  V30 3682 H 343.124 6.69338 3.99508 0
M  V30 3683 N 347.353 -0.0568162 1.57498 0
M  V30 3684 C 348.578 -0.769402 1.92601 0
M  V30 3685 C 349.003 -1.69559 0.814336 0
M  V30 3686 O 348.361 -1.79811 -0.231903 0
M  V30 3687 C 348.409 -1.52634 3.26704 0
M  V30 3688 O 347.513 -2.63797 3.16994 0
M  V30 3689 H 346.854 -0.208909 0.63028 0
M  V30 3690 H 349.384 -0.0205798 2.0459 0
M  V30 3691 H 349.394 -1.90234 3.60936 0
M  V30 3692 H 348.069 -0.846875 4.07186 0
M  V30 3693 H 346.646 -2.28943 2.94346 0
M  V30 3694 N 348.832 -1.54138 -0.328536 0
M  V30 3695 C 349.795 -1.82462 -1.38709 0
M  V30 3696 C 350.795 -0.696229 -1.44946 0
M  V30 3697 O 351.985 -0.964535 -1.4506 0
M  V30 3698 C 349.117 -1.98018 -2.77492 0
M  V30 3699 H 350.31 -2.77037 -1.14851 0
M  V30 3700 H 347.863 -1.45779 -0.563751 0
M  V30 3701 H 348.598 -1.05637 -3.06613 0
M  V30 3702 H 348.383 -2.80124 -2.74359 0
M  V30 3703 H 349.873 -2.21396 -3.54081 0
M  V30 3704 N 350.31 0.590341 -1.46126 0
M  V30 3705 C 351.24 1.71032 -1.58966 0
M  V30 3706 C 352.221 1.64302 -0.440335 0
M  V30 3707 O 353.406 1.82436 -0.665634 0
M  V30 3708 C 350.536 3.09665 -1.57241 0
M  V30 3709 C 349.49 3.31221 -2.71066 0
M  V30 3710 C 348.816 4.70303 -2.54399 0
M  V30 3711 C 350.116 3.19796 -4.1295 0
M  V30 3712 H 351.81 1.60543 -2.52718 0
M  V30 3713 H 349.356 0.770933 -1.21625 0
M  V30 3714 H 351.309 3.87831 -1.64819 0
M  V30 3715 H 350.033 3.21036 -0.600289 0
M  V30 3716 H 348.692 2.55452 -2.62944 0
M  V30 3717 H 348.34 4.78429 -1.55288 0
M  V30 3718 H 348.04 4.85679 -3.30741 0
M  V30 3719 H 349.564 5.50647 -2.63857 0
M  V30 3720 H 350.978 3.87815 -4.22223 0
M  V30 3721 H 349.375 3.46696 -4.89818 0
M  V30 3722 H 350.445 2.16983 -4.33643 0
M  V30 3723 N 351.788 1.33704 0.83433 0
M  V30 3724 C 353.016 1.28467 1.62185 0
M  V30 3725 C 353.431 -0.143526 1.88254 0
M  V30 3726 O 352.788 -1.08709 1.4659 0
M  V30 3727 C 352.839 2.06174 2.96942 0
M  V30 3728 O 352.56 3.43422 2.72016 0
M  V30 3729 C 354.061 2.08201 3.91366 0
M  V30 3730 H 351.281 0.4424 0.504503 0
M  V30 3731 H 353.825 1.76145 1.03891 0
M  V30 3732 H 351.98 1.62167 3.51825 0
M  V30 3733 H 352.394 3.83453 3.57861 0
M  V30 3734 H 353.868 2.67017 4.83121 0
M  V30 3735 H 354.345 1.07343 4.2588 0
M  V30 3736 H 354.951 2.52246 3.42421 0
M  V30 3737 N 353.266 -1.05314 1.17247 0
M  V30 3738 C 354.512 -1.78699 0.971513 0
M  V30 3739 C 354.867 -1.85932 -0.494692 0
M  V30 3740 O 354.16 -1.34716 -1.36243 0
M  V30 3741 C 354.354 -3.2229 1.54479 0
M  V30 3742 C 354.183 -3.29052 3.06521 0
M  V30 3743 C 352.953 -3.3841 3.75242 0
M  V30 3744 C 355.151 -3.18095 4.04129 0
M  V30 3745 N 353.133 -3.34289 5.14902 0
M  V30 3746 C 354.504 -3.21331 5.30232 0
M  V30 3747 C 356.559 -3.02049 3.95817 0
M  V30 3748 C 355.262 -3.10169 6.4899 0
M  V30 3749 C 357.288 -2.92228 5.14156 0
M  V30 3750 C 356.65 -2.96096 6.39145 0
M  V30 3751 H 352.749 -0.66628 0.409383 0
M  V30 3752 H 355.333 -1.25553 1.4881 0
M  V30 3753 H 353.504 -3.7381 1.05455 0
M  V30 3754 H 355.236 -3.83905 1.28059 0
M  V30 3755 H 351.991 -3.43621 3.25917 0
M  V30 3756 H 352.415 -3.35702 5.87906 0
M  V30 3757 H 357.057 -2.97897 3.00029 0
M  V30 3758 H 354.775 -3.13076 7.44989 0
M  V30 3759 H 358.361 -2.80885 5.09505 0
M  V30 3760 H 357.241 -2.88568 7.29176 0
M  V30 3761 N 354.744 -0.972509 -1.24016 0
M  V30 3762 C 355.694 -0.477561 -2.22942 0
M  V30 3763 C 356.678 0.44308 -1.54679 0
M  V30 3764 O 357.87 0.273219 -1.74879 0
M  V30 3765 C 354.999 0.226348 -3.42553 0
M  V30 3766 C 354.085 -0.713403 -4.18057 0
M  V30 3767 N 354.476 -1.8527 -4.70647 0
M  V30 3768 C 352.774 -0.525145 -4.42898 0
M  V30 3769 C 353.475 -2.44089 -5.28011 0
M  V30 3770 N 352.451 -1.72556 -5.15486 0
M  V30 3771 H 356.253 -1.34678 -2.61226 0
M  V30 3772 H 353.767 -0.832196 -1.39457 0
M  V30 3773 H 355.764 0.598184 -4.12586 0
M  V30 3774 H 354.424 1.09195 -3.05788 0
M  V30 3775 H 355.435 -2.2341 -4.67235 0
M  V30 3776 H 352.112 0.296096 -4.16449 0
M  V30 3777 H 353.502 -3.40259 -5.79374 0
M  V30 3778 N 356.222 1.38976 -0.743202 0
M  V30 3779 C 357.154 2.29096 -0.0689228 0
M  V30 3780 C 358.167 1.47229 0.694791 0
M  V30 3781 O 359.356 1.70212 0.537597 0
M  V30 3782 C 356.456 3.25988 0.926548 0
M  V30 3783 C 355.629 4.36833 0.222647 0
M  V30 3784 C 354.688 5.13981 1.12739 0
M  V30 3785 O 353.714 5.6601 0.601795 0
M  V30 3786 N 354.916 5.25966 2.45641 0
M  V30 3787 H 357.681 2.87604 -0.842846 0
M  V30 3788 H 355.242 1.50645 -0.593109 0
M  V30 3789 H 357.234 3.74476 1.5346 0
M  V30 3790 H 355.804 2.68453 1.60162 0
M  V30 3791 H 355.024 3.90116 -0.565983 0
M  V30 3792 H 356.312 5.0811 -0.264841 0
M  V30 3793 H 355.71 4.85228 2.9081 0
M  V30 3794 H 354.267 5.77865 3.01522 0
M  V30 3795 N 357.7 0.491464 1.49741 0
M  V30 3796 C 358.663 -0.280906 2.27472 0
M  V30 3797 C 359.663 -0.902454 1.33088 0
M  V30 3798 O 360.853 -0.768465 1.56334 0
M  V30 3799 C 357.985 -1.40209 3.10732 0
M  V30 3800 H 359.178 0.401056 2.97206 0
M  V30 3801 H 356.731 0.246131 1.5435 0
M  V30 3802 H 357.466 -2.11849 2.45541 0
M  V30 3803 H 357.251 -0.961969 3.80117 0
M  V30 3804 H 358.741 -1.9464 3.69466 0
M  V30 3805 N 359.178 -1.55987 0.224894 0
M  V30 3806 C 360.594 -1.59066 -0.130426 0
M  V30 3807 C 360.794 -1.24176 -1.5869 0
M  V30 3808 O 359.85 -0.978592 -2.32766 0
M  V30 3809 C 361.163 -3.00042 0.198883 0
M  V30 3810 C 362.711 -3.1268 0.141391 0
M  V30 3811 C 363.186 -4.55839 0.444422 0
M  V30 3812 N 364.677 -4.6152 0.394115 0
M  V30 3813 C 365.412 -5.70231 0.602038 0
M  V30 3814 N 364.908 -6.87291 0.871914 0
M  V30 3815 N 366.701 -5.59555 0.534245 0
M  V30 3816 H 358.852 -1.76941 1.17497 0
M  V30 3817 H 361.115 -0.822604 0.471197 0
M  V30 3818 H 360.821 -3.30234 1.2099 0
M  V30 3819 H 360.695 -3.74075 -0.484535 0
M  V30 3820 H 363.082 -2.82283 -0.860265 0
M  V30 3821 H 363.163 -2.40969 0.858335 0
M  V30 3822 H 362.807 -4.86954 1.44353 0
M  V30 3823 H 362.737 -5.2578 -0.293752 0
M  V30 3824 H 365.228 -3.77405 0.193356 0
M  V30 3825 H 365.541 -7.66058 1.01858 0
M  V30 3826 H 363.886 -6.89028 0.909145 0
M  V30 3827 H 367.077 -4.6698 0.323612 0
M  V30 3828 H 367.25 -6.44211 0.699693 0
M  V30 3829 N 360.656 0.0484629 -1.57525 0
M  V30 3830 C 361.603 1.05504 -2.05275 0
M  V30 3831 C 362.573 1.37084 -0.937927 0
M  V30 3832 O 363.758 1.47754 -1.2072 0
M  V30 3833 C 360.898 2.35676 -2.52093 0
M  V30 3834 C 360.011 2.10423 -3.77288 0
M  V30 3835 C 359.146 3.34327 -4.12794 0
M  V30 3836 C 358.185 3.04542 -5.30962 0
M  V30 3837 N 357.322 4.20841 -5.61994 0
M  V30 3838 H 362.162 0.640885 -2.91027 0
M  V30 3839 H 359.699 0.304854 -1.43906 0
M  V30 3840 H 361.657 3.11709 -2.77297 0
M  V30 3841 H 360.287 2.7485 -1.69285 0
M  V30 3842 H 359.339 1.24976 -3.59284 0
M  V30 3843 H 360.651 1.84438 -4.63448 0
M  V30 3844 H 359.805 4.1874 -4.39024 0
M  V30 3845 H 358.544 3.63408 -3.25247 0
M  V30 3846 H 357.549 2.18528 -5.04505 0
M  V30 3847 H 358.774 2.76758 -6.20146 0
M  V30 3848 H 356.72 4.4991 -4.77406 0
M  V30 3849 H 356.637 3.98212 -6.42622 0
M  V30 3850 H 357.905 5.06184 -5.92789 0
M  V30 3851 N 362.134 1.5431 0.320358 0
M  V30 3852 C 363.359 1.76954 1.08175 0
M  V30 3853 C 363.784 0.518193 1.80821 0
M  V30 3854 O 363.142 -0.530411 1.73368 0
M  V30 3855 C 363.19 2.96451 2.05303 0
M  V30 3856 O 362.294 2.68221 3.13259 0
M  V30 3857 H 361.635 0.586275 0.311733 0
M  V30 3858 H 364.165 2.01342 0.363676 0
M  V30 3859 H 364.175 3.23887 2.48116 0
M  V30 3860 H 362.85 3.87196 1.51829 0
M  V30 3861 H 361.427 2.51744 2.75099 0
M  V30 3862 N 363.613 -0.582584 1.46437 0
M  V30 3863 C 364.853 -1.35184 1.53312 0
M  V30 3864 C 365.217 -1.9115 0.180508 0
M  V30 3865 O 366.418 -2.68514 0.124017 0
M  V30 3866 C 364.689 -2.45089 2.60127 0
M  V30 3867 S 366.248 -3.32439 2.86408 0
M  V30 3868 H 363.066 -0.460559 0.54167 0
M  V30 3869 H 365.668 -0.669709 1.83671 0
M  V30 3870 H 364.372 -2.02366 3.57038 0
M  V30 3871 H 363.903 -3.18074 2.315 0
M  V30 3872 H 365.918 -4.43924 2.21688 0
M  V30 3873 N 365.091 -1.34144 -0.827227 0
M  V30 3874 C 366.023 -1.21206 -1.9453 0
M  V30 3875 C 367.036 -0.140176 -1.62195 0
M  V30 3876 O 368.225 -0.391647 -1.7415 0
M  V30 3877 C 365.325 -0.839141 -3.28347 0
M  V30 3878 C 364.498 -2.0051 -3.88734 0
M  V30 3879 C 363.557 -1.61128 -5.00923 0
M  V30 3880 O 362.583 -2.32726 -5.19449 0
M  V30 3881 N 363.785 -0.522958 -5.7814 0
M  V30 3882 H 366.55 -2.17525 -2.06162 0
M  V30 3883 H 364.111 -1.27043 -1.00358 0
M  V30 3884 H 366.103 -0.557556 -4.00841 0
M  V30 3885 H 364.673 0.0337293 -3.12582 0
M  V30 3886 H 363.893 -2.45166 -3.08686 0
M  V30 3887 H 365.181 -2.78498 -4.25812 0
M  V30 3888 H 364.579 0.0723518 -5.65654 0
M  V30 3889 H 363.136 -0.301089 -6.51104 0
M  V30 3890 N 366.569 1.04691 -1.17803 0
M  V30 3891 C 367.501 2.12571 -0.857097 0
M  V30 3892 C 368.514 1.62174 0.142647 0
M  V30 3893 O 369.703 1.78301 -0.0843387 0
M  V30 3894 C 366.803 3.37915 -0.258216 0
M  V30 3895 C 365.976 4.1757 -1.30207 0
M  V30 3896 C 365.035 5.2125 -0.720029 0
M  V30 3897 O 364.061 5.51888 -1.39314 0
M  V30 3898 N 365.263 5.78466 0.485507 0
M  V30 3899 H 368.028 2.40698 -1.78562 0
M  V30 3900 H 365.589 1.20831 -1.07757 0
M  V30 3901 H 367.581 4.04442 0.144584 0
M  V30 3902 H 366.151 3.07281 0.574199 0
M  V30 3903 H 365.371 3.46458 -1.88043 0
M  V30 3904 H 366.659 4.67586 -2.00601 0
M  V30 3905 H 366.057 5.55866 1.05022 0
M  V30 3906 H 364.614 6.4649 0.830307 0
M  V30 3907 N 368.047 0.979072 1.23499 0
M  V30 3908 C 368.979 0.476271 2.24197 0
M  V30 3909 C 369.992 -0.421166 1.57258 0
M  V30 3910 O 371.181 -0.225515 1.7707 0
M  V30 3911 C 368.281 -0.330503 3.37285 0
M  V30 3912 C 367.454 0.559744 4.33804 0
M  V30 3913 C 366.513 -0.192954 5.25846 0
M  V30 3914 O 365.539 0.416978 5.67671 0
M  V30 3915 N 366.741 -1.47932 5.61334 0
M  V30 3916 H 369.506 1.34211 2.67969 0
M  V30 3917 H 367.067 0.852189 1.37657 0
M  V30 3918 H 369.059 -0.842361 3.95836 0
M  V30 3919 H 367.629 -1.09734 2.92707 0
M  V30 3920 H 366.849 1.25245 3.73775 0
M  V30 3921 H 368.137 1.1665 4.95248 0
M  V30 3922 H 367.535 -1.9964 5.29302 0
M  V30 3923 H 366.092 -1.93664 6.22364 0
M  V30 3924 N 369.525 -1.3858 0.750561 0
M  V30 3925 C 370.473 -2.32339 0.110162 0
M  V30 3926 C 371.467 -1.53864 -0.708674 0
M  V30 3927 O 372.673 -1.69417 -0.608112 0
M  V30 3928 H 369.048 -0.751812 0.0168275 0
M  V30 3929 H 371.019 -2.83959 0.917053 0
M  V30 3930 C 369.768 -3.39043 -0.771067 0
M  V30 3931 H 369.091 -3.99517 -0.150374 0
M  V30 3932 H 370.531 -4.07061 -1.1865 0
M  V30 3933 C 368.99 -2.77365 -1.91234 0
M  V30 3934 O 369.52 -2.66434 -3.00626 0
M  V30 3935 N 367.726 -2.35219 -1.70646 0
M  V30 3936 H 367.273 -2.4431 -0.81673 0
M  V30 3937 H 367.231 -1.94294 -2.47178 0
M  V30 3938 N 371.003 -0.499398 -1.49478 0
M  V30 3939 C 371.966 0.268838 -2.27618 0
M  V30 3940 C 372.966 0.895383 -1.33565 0
M  V30 3941 O 374.156 0.760164 -1.56739 0
M  V30 3942 C 371.288 1.38559 -3.11471 0
M  V30 3943 H 372.481 -0.416812 -2.96989 0
M  V30 3944 H 370.034 -0.254313 -1.54217 0
M  V30 3945 H 370.769 2.10544 -2.46661 0
M  V30 3946 H 370.554 0.941797 -3.80621 0
M  V30 3947 H 372.044 1.92678 -3.70493 0
M  V30 3948 N 372.481 1.55866 -0.233164 0
M  V30 3949 C 373.391 2.24431 0.683217 0
M  V30 3950 C 374.407 1.2558 1.2044 0
M  V30 3951 O 375.583 1.58422 1.24356 0
M  V30 3952 C 372.648 2.91979 1.86947 0
M  V30 3953 C 371.709 4.06204 1.38912 0
M  V30 3954 C 370.942 4.70522 2.51883 0
M  V30 3955 O 371.165 4.33865 3.70293 0
M  V30 3956 O 370.099 5.59296 2.22423 0
M  V30 3957 H 373.925 3.03426 0.129059 0
M  V30 3958 H 371.51 1.494 -0.0022283 0
M  V30 3959 H 373.392 3.34573 2.56201 0
M  V30 3960 H 372.067 2.15935 2.41151 0
M  V30 3961 H 370.974 3.68155 0.664259 0
M  V30 3962 H 372.307 4.84025 0.893328 0
M  V30 3963 N 373.959 -0.0401083 1.57549 0
M  V30 3964 C 374.889 -1.04384 2.08869 0
M  V30 3965 C 375.87 -1.38407 0.988817 0
M  V30 3966 O 377.055 -1.47483 1.26342 0
M  V30 3967 C 374.185 -2.34808 2.55895 0
M  V30 3968 C 373.139 -2.15057 3.70047 0
M  V30 3969 C 372.465 -3.51145 4.03239 0
M  V30 3970 C 373.765 -1.54576 4.98902 0
M  V30 3971 H 375.459 -0.616666 2.92981 0
M  V30 3972 H 373.005 -0.295184 1.40942 0
M  V30 3973 H 374.958 -3.05346 2.90417 0
M  V30 3974 H 373.682 -2.79565 1.68853 0
M  V30 3975 H 372.341 -1.46954 3.35857 0
M  V30 3976 H 371.989 -3.93529 3.13279 0
M  V30 3977 H 371.689 -3.38758 4.80122 0
M  V30 3978 H 373.213 -4.23062 4.40285 0
M  V30 3979 H 374.627 -2.15017 5.31451 0
M  V30 3980 H 373.024 -1.52796 5.80322 0
M  V30 3981 H 374.094 -0.51039 4.82206 0
M  V30 3982 N 375.437 -1.54477 -0.31217 0
M  V30 3983 C 376.367 -1.87652 -1.38957 0
M  V30 3984 C 377.348 -0.734358 -1.53431 0
M  V30 3985 O 378.533 -0.98911 -1.67123 0
M  V30 3986 C 375.663 -2.11396 -2.75552 0
M  V30 3987 C 374.617 -3.27243 -2.75855 0
M  V30 3988 C 373.943 -3.36382 -4.15633 0
M  V30 3989 C 375.243 -4.64622 -2.38587 0
M  V30 3990 H 376.937 -2.77887 -1.11442 0
M  V30 3991 H 374.483 -1.33707 -0.534655 0
M  V30 3992 H 376.436 -2.33189 -3.51 0
M  V30 3993 H 375.16 -1.17921 -3.04569 0
M  V30 3994 H 373.819 -3.05356 -2.02863 0
M  V30 3995 H 373.467 -2.40445 -4.41809 0
M  V30 3996 H 373.167 -4.14249 -4.1674 0
M  V30 3997 H 374.691 -3.60422 -4.92877 0
M  V30 3998 H 376.105 -4.86219 -3.03749 0
M  V30 3999 H 374.502 -5.45121 -2.50925 0
M  V30 4000 H 375.572 -4.66097 -1.33723 0
M  V30 4001 N 376.915 0.57481 -1.46744 0
M  V30 4002 C 378.14 1.36341 -1.56288 0
M  V30 4003 C 378.565 1.86954 -0.207347 0
M  V30 4004 O 377.923 1.62006 0.813871 0
M  V30 4005 C 377.971 2.52147 -2.57787 0
M  V30 4006 O 377.075 3.53834 -2.11838 0
M  V30 4007 H 376.416 0.405713 -0.525636 0
M  V30 4008 H 378.946 0.696453 -1.92382 0
M  V30 4009 H 378.956 2.98958 -2.77648 0
M  V30 4010 H 377.631 2.14663 -3.5622 0
M  V30 4011 H 376.208 3.1345 -2.01999 0
M  V30 4012 N 378.394 1.34581 0.820102 0
M  V30 4013 C 379.643 1.26437 1.57151 0
M  V30 4014 C 379.956 -0.163111 1.94919 0
M  V30 4015 O 381.162 -0.366722 2.69012 0
M  V30 4016 C 379.618 2.21658 2.83541 0
M  V30 4017 C 379.226 3.69679 2.53065 0
M  V30 4018 C 380.97 2.22428 3.61561 0
M  V30 4019 C 378.877 4.56761 3.75664 0
M  V30 4020 H 377.807 0.469707 0.589823 0
M  V30 4021 H 380.458 1.59763 0.902656 0
M  V30 4022 H 378.84 1.81287 3.52067 0
M  V30 4023 H 380.014 4.18605 1.92631 0
M  V30 4024 H 378.329 3.71384 1.88316 0
M  V30 4025 H 380.926 2.8471 4.52597 0
M  V30 4026 H 381.269 1.22434 3.97889 0
M  V30 4027 H 381.802 2.61259 2.99981 0
M  V30 4028 H 378.541 5.57702 3.44454 0
M  V30 4029 H 378.061 4.12568 4.35371 0
M  V30 4030 H 379.74 4.71509 4.43044 0
M  V30 4031 N 379.872 -1.04064 1.18357 0
M  V30 4032 C 381.1 -1.80916 1.00384 0
M  V30 4033 C 381.515 -1.83414 -0.447738 0
M  V30 4034 O 380.872 -1.26962 -1.31099 0
M  V30 4035 C 380.923 -3.26516 1.55144 0
M  V30 4036 O 380.644 -3.2424 2.94618 0
M  V30 4037 C 382.145 -4.20013 1.41789 0
M  V30 4038 H 379.365 -0.569728 0.354474 0
M  V30 4039 H 381.909 -1.31151 1.56906 0
M  V30 4040 H 380.064 -3.73512 1.02798 0
M  V30 4041 H 380.478 -4.15452 3.20156 0
M  V30 4042 H 381.952 -5.20111 1.84901 0
M  V30 4043 H 382.429 -4.37667 0.36661 0
M  V30 4044 H 383.035 -3.78881 1.93207 0
M  V30 4045 N 381.35 -0.985608 -1.22978 0
M  V30 4046 C 382.26 -0.538548 -2.28335 0
M  V30 4047 C 383.276 0.409163 -1.69121 0
M  V30 4048 O 384.452 0.277797 -1.99475 0
M  V30 4049 C 381.517 0.146867 -3.46389 0
M  V30 4050 C 380.578 -0.842896 -4.20944 0
M  V30 4051 C 379.811 -0.190095 -5.33361 0
M  V30 4052 O 380.034 1.01767 -5.61248 0
M  V30 4053 O 378.968 -0.891289 -5.95264 0
M  V30 4054 H 382.794 -1.41487 -2.68729 0
M  V30 4055 H 380.379 -0.753495 -1.29007 0
M  V30 4056 H 382.261 0.531125 -4.1804 0
M  V30 4057 H 380.936 0.997871 -3.07935 0
M  V30 4058 H 379.843 -1.27795 -3.51595 0
M  V30 4059 H 381.176 -1.66287 -4.6326 0
M  V30 4060 N 382.828 1.3818 -0.7579 0
M  V30 4061 C 384.077 1.99261 -0.312744 0
M  V30 4062 C 384.39 1.60846 1.11301 0
M  V30 4063 O 385.596 2.14929 1.65885 0
M  V30 4064 C 384.052 3.56294 -0.50821 0
M  V30 4065 C 383.66 4.03657 -1.94333 0
M  V30 4066 C 385.404 4.24313 -0.125982 0
M  V30 4067 C 383.311 5.53347 -2.08712 0
M  V30 4068 H 382.241 0.745456 -0.113185 0
M  V30 4069 H 384.892 1.57889 -0.935056 0
M  V30 4070 H 383.274 3.95575 0.183353 0
M  V30 4071 H 384.448 3.75655 -2.66871 0
M  V30 4072 H 382.763 3.48376 -2.28086 0
M  V30 4073 H 385.36 5.34279 -0.212125 0
M  V30 4074 H 385.703 4.05962 0.921964 0
M  V30 4075 H 386.236 3.90285 -0.769563 0
M  V30 4076 H 382.975 5.76607 -3.11777 0
M  V30 4077 H 382.495 5.83078 -1.4064 0
M  V30 4078 H 384.174 6.19111 -1.87912 0
M  V30 4079 N 384.306 0.507319 1.49211 0
M  V30 4080 C 385.256 -0.287112 2.26185 0
M  V30 4081 C 386.24 -0.929983 1.31302 0
M  V30 4082 O 387.432 -0.836538 1.55984 0
M  V30 4083 C 384.561 -1.34718 3.15763 0
M  V30 4084 C 383.647 -0.710235 4.18111 0
M  V30 4085 N 384.038 0.190836 5.0544 0
M  V30 4086 C 382.336 -0.97009 4.35322 0
M  V30 4087 C 383.037 0.55606 5.79036 0
M  V30 4088 N 382.013 -0.0775232 5.43545 0
M  V30 4089 H 385.815 0.406445 2.91076 0
M  V30 4090 H 383.329 0.323814 1.59139 0
M  V30 4091 H 385.326 -1.92982 3.69545 0
M  V30 4092 H 383.986 -2.04235 2.52424 0
M  V30 4093 H 384.997 0.562047 5.14841 0
M  V30 4094 H 381.674 -1.65753 3.83187 0
M  V30 4095 H 383.064 1.2936 6.5933 0
M  V30 4096 N 385.784 -1.5574 0.241426 0
M  V30 4097 C 386.694 -2.2479 -0.671305 0
M  V30 4098 C 387.71 -1.26217 -1.19772 0
M  V30 4099 O 388.886 -1.59079 -1.23514 0
M  V30 4100 C 385.951 -2.92966 -1.85396 0
M  V30 4101 C 385.012 -4.06935 -1.36756 0
M  V30 4102 C 384.245 -4.71851 -2.49384 0
M  V30 4103 O 384.468 -4.35823 -3.67987 0
M  V30 4104 O 383.402 -5.60467 -2.19454 0
M  V30 4105 H 387.228 -3.0349 -0.112966 0
M  V30 4106 H 384.813 -1.49397 0.0101513 0
M  V30 4107 H 386.695 -3.35927 -2.54423 0
M  V30 4108 H 385.37 -2.17211 -2.40002 0
M  V30 4109 H 384.277 -3.68503 -0.644726 0
M  V30 4110 H 385.61 -4.84492 -0.867647 0
M  V30 4111 N 387.262 0.0317525 -1.57568 0
M  V30 4112 C 388.194 1.06073 -2.03178 0
M  V30 4113 C 389.207 1.32627 -0.944132 0
M  V30 4114 O 390.396 1.30162 -1.22148 0
M  V30 4115 C 387.496 2.40297 -2.38978 0
M  V30 4116 C 386.669 2.33137 -3.70089 0
M  V30 4117 C 385.728 3.49787 -3.9311 0
M  V30 4118 O 384.754 3.29403 -4.64201 0
M  V30 4119 N 385.956 4.71562 -3.38541 0
M  V30 4120 H 388.721 0.672006 -2.92069 0
M  V30 4121 H 386.282 0.219745 -1.60402 0
M  V30 4122 H 388.274 3.1705 -2.51518 0
M  V30 4123 H 386.844 2.71024 -1.55771 0
M  V30 4124 H 386.064 1.415 -3.67928 0
M  V30 4125 H 387.352 2.25493 -4.56104 0
M  V30 4126 H 386.75 4.91024 -2.80912 0
M  V30 4127 H 385.307 5.45689 -3.56464 0
M  V30 4128 N 388.74 1.54641 0.303973 0
M  V30 4129 C 389.968 1.77768 1.05858 0
M  V30 4130 C 390.383 0.535722 1.8104 0
M  V30 4131 O 389.74 -0.494337 1.75677 0
M  V30 4132 C 389.791 2.9834 2.04146 0
M  V30 4133 O 389.512 4.17736 1.32015 0
M  V30 4134 C 391.013 3.33832 2.91669 0
M  V30 4135 H 388.233 0.592961 0.314067 0
M  V30 4136 H 390.777 2.01583 0.344149 0
M  V30 4137 H 388.932 2.76742 2.71096 0
M  V30 4138 H 389.346 4.85693 1.97998 0
M  V30 4139 H 390.82 4.21448 3.56491 0
M  V30 4140 H 391.297 2.51857 3.59812 0
M  V30 4141 H 391.903 3.57579 2.30254 0
M  V30 4142 N 390.218 -0.567019 1.47046 0
M  V30 4143 C 391.448 -1.34831 1.56538 0
M  V30 4144 C 391.856 -1.8802 0.21101 0
M  V30 4145 O 391.199 -1.65152 -0.804387 0
M  V30 4146 C 391.261 -2.56139 2.52256 0
M  V30 4147 C 390.925 -2.24307 3.98165 0
M  V30 4148 C 391.922 -1.82192 4.86931 0
M  V30 4149 C 389.607 -2.35968 4.43423 0
M  V30 4150 C 391.601 -1.52153 6.18973 0
M  V30 4151 C 389.288 -2.05542 5.75496 0
M  V30 4152 C 390.286 -1.63701 6.63092 0
M  V30 4153 O 389.974 -1.33657 7.92711 0
M  V30 4154 H 389.706 -0.417683 0.531523 0
M  V30 4155 H 392.26 -0.694726 1.93294 0
M  V30 4156 H 390.49 -3.24356 2.10548 0
M  V30 4157 H 392.179 -3.18214 2.51982 0
M  V30 4158 H 392.945 -1.72684 4.53217 0
M  V30 4159 H 388.824 -2.67495 3.75456 0
M  V30 4160 H 392.368 -1.19421 6.87302 0
M  V30 4161 H 388.265 -2.14679 6.08755 0
M  V30 4162 H 389.033 -1.4737 8.05124 0
M  V30 4163 N 391.696 -1.35014 -0.812953 0
M  V30 4164 C 392.626 -1.30069 -1.93919 0
M  V30 4165 C 393.607 -0.176275 -1.69184 0
M  V30 4166 O 394.792 -0.370227 -1.90638 0
M  V30 4167 C 391.922 -1.06547 -3.30552 0
M  V30 4168 C 390.876 -2.15561 -3.69753 0
M  V30 4169 C 390.202 -1.77214 -5.04479 0
M  V30 4170 C 391.502 -3.57476 -3.808 0
M  V30 4171 H 393.196 -2.24303 -1.98314 0
M  V30 4172 H 390.742 -1.07977 -0.952736 0
M  V30 4173 H 392.695 -1.01729 -4.08937 0
M  V30 4174 H 391.419 -0.0875719 -3.26483 0
M  V30 4175 H 390.078 -2.19466 -2.9365 0
M  V30 4176 H 389.726 -0.780589 -4.96906 0
M  V30 4177 H 389.426 -2.50184 -5.31678 0
M  V30 4178 H 390.95 -1.7391 -5.8531 0
M  V30 4179 H 392.364 -3.55929 -4.4943 0
M  V30 4180 H 390.761 -4.29152 -4.19462 0
M  V30 4181 H 391.831 -3.94091 -2.82525 0
M  V30 4182 N 393.175 1.03435 -1.18907 0
M  V30 4183 C 394.403 1.80381 -1.01342 0
M  V30 4184 C 394.818 1.83649 0.438005 0
M  V30 4185 O 394.175 1.27655 1.30424 0
M  V30 4186 C 394.226 3.25689 -1.56873 0
M  V30 4187 O 393.947 3.22673 -2.96334 0
M  V30 4188 C 395.448 4.19255 -1.44014 0
M  V30 4189 H 392.668 0.56784 -0.35749 0
M  V30 4190 H 395.212 1.30317 -1.576 0
M  V30 4191 H 393.367 3.72962 -1.04777 0
M  V30 4192 H 393.781 4.13748 -3.22355 0
M  V30 4193 H 395.255 5.19123 -1.87657 0
M  V30 4194 H 395.732 4.37467 -0.389815 0
M  V30 4195 H 396.338 3.77851 -1.95214 0
M  V30 4196 N 394.653 0.992116 1.22453 0
M  V30 4197 C 395.901 0.666215 1.90804 0
M  V30 4198 C 396.222 -0.804152 1.77647 0
M  V30 4199 O 395.492 -1.57629 1.16318 0
M  V30 4200 H 394.072 0.243423 0.706225 0
M  V30 4201 H 396.734 1.25845 1.48825 0
M  V30 4202 H 395.83 0.928069 2.97982 0
M  V30 4203 N 396.131 -1.37776 0.765217 0
M  V30 4204 C 397.061 -2.32945 0.160953 0
M  V30 4205 C 398.042 -1.55454 -0.690516 0
M  V30 4206 O 399.227 -1.83721 -0.629318 0
M  V30 4207 C 396.357 -3.39669 -0.724031 0
M  V30 4208 C 395.311 -4.27992 0.0256173 0
M  V30 4209 C 394.637 -5.25673 -0.978383 0
M  V30 4210 C 395.937 -5.08309 1.20082 0
M  V30 4211 H 397.631 -2.83728 0.955969 0
M  V30 4212 H 395.177 -1.36416 0.461149 0
M  V30 4213 H 397.13 -4.05219 -1.15652 0
M  V30 4214 H 395.854 -2.87396 -1.5515 0
M  V30 4215 H 394.513 -3.63964 0.438812 0
M  V30 4216 H 394.161 -4.69682 -1.80022 0
M  V30 4217 H 393.861 -5.85625 -0.481378 0
M  V30 4218 H 395.385 -5.94098 -1.40995 0
M  V30 4219 H 396.799 -5.67034 0.845307 0
M  V30 4220 H 395.196 -5.77554 1.62947 0
M  V30 4221 H 396.266 -4.41365 2.00811 0
M  V30 4222 N 397.609 -0.515225 -1.4894 0
M  V30 4223 C 398.837 0.0206034 -2.0689 0
M  V30 4224 C 399.252 1.29514 -1.37374 0
M  V30 4225 O 398.609 1.76698 -0.456529 0
M  V30 4226 C 398.66 0.26351 -3.60538 0
M  V30 4227 O 398.381 -0.960517 -4.27441 0
M  V30 4228 C 399.882 0.841383 -4.35242 0
M  V30 4229 H 397.102 -0.0268608 -0.670462 0
M  V30 4230 H 399.646 -0.716651 -1.91532 0
M  V30 4231 H 397.801 0.950777 -3.75552 0
M  V30 4232 H 398.215 -0.73212 -5.19365 0
M  V30 4233 H 399.689 0.96085 -5.43573 0
M  V30 4234 H 400.166 1.8427 -3.98674 0
M  V30 4235 H 400.772 0.191143 -4.2487 0
M  V30 4236 N 399.087 1.5561 -0.249682 0
M  V30 4237 C 400.312 2.03865 0.381305 0
M  V30 4238 C 400.737 1.12769 1.50548 0
M  V30 4239 O 400.095 0.121189 1.80895 0
M  V30 4240 C 400.143 3.50101 0.863816 0
M  V30 4241 O 399.247 3.62132 1.97318 0
M  V30 4242 H 398.588 0.658827 0.0827194 0
M  V30 4243 H 401.118 2.01105 -0.376552 0
M  V30 4244 H 401.128 3.90975 1.1663 0
M  V30 4245 H 399.803 4.1588 0.0411816 0
M  V30 4246 H 398.38 3.33155 1.67517 0
M  V30 4247 N 400.565 -0.0233959 1.57583 0
M  V30 4248 C 401.79 -0.728376 1.94189 0
M  V30 4249 C 402.215 -1.67793 0.850119 0
M  V30 4250 O 401.573 -1.80262 -0.19371 0
M  V30 4251 C 401.621 -1.45669 3.29868 0
M  V30 4252 O 400.725 -2.57013 3.22518 0
M  V30 4253 H 400.066 -0.195493 0.63457 0
M  V30 4254 H 402.596 0.0228214 2.04587 0
M  V30 4255 H 402.606 -1.82535 3.6489 0
M  V30 4256 H 401.281 -0.760314 4.08891 0
M  V30 4257 H 399.858 -2.22648 2.99136 0
M  V30 4258 N 402.043 -1.548 -0.295768 0
M  V30 4259 C 402.973 -1.89115 -1.36959 0
M  V30 4260 C 403.954 -0.75059 -1.52644 0
M  V30 4261 O 405.139 -1.00678 -1.66065 0
M  V30 4262 C 402.269 -2.14307 -2.73295 0
M  V30 4263 C 401.223 -3.30151 -2.72368 0
M  V30 4264 C 400.549 -3.40772 -4.12042 0
M  V30 4265 C 401.849 -4.67126 -2.33646 0
M  V30 4266 H 403.543 -2.79053 -1.08488 0
M  V30 4267 H 401.089 -1.34266 -0.520443 0
M  V30 4268 H 403.042 -2.36898 -3.48507 0
M  V30 4269 H 401.766 -1.21145 -3.03301 0
M  V30 4270 H 400.425 -3.0749 -1.99613 0
M  V30 4271 H 400.073 -2.45117 -4.39234 0
M  V30 4272 H 399.773 -4.18645 -4.12322 0
M  V30 4273 H 401.297 -3.6563 -4.89027 0
M  V30 4274 H 402.711 -4.89414 -2.98575 0
M  V30 4275 H 401.108 -5.47751 -2.45129 0
M  V30 4276 H 402.178 -4.67489 -1.28772 0
M  V30 4277 N 403.521 0.559213 -1.47345 0
M  V30 4278 C 404.749 1.34194 -1.57479 0
M  V30 4279 C 405.164 1.87463 -0.224261 0
M  V30 4280 O 404.521 1.64888 0.782185 0
M  V30 4281 C 404.572 2.51324 -2.59843 0
M  V30 4282 O 404.293 2.00256 -3.89653 0
M  V30 4283 C 405.794 3.43563 -2.80142 0
M  V30 4284 H 403.014 0.409136 -0.531835 0
M  V30 4285 H 405.558 0.677609 -1.92947 0
M  V30 4286 H 403.713 3.13699 -2.27314 0
M  V30 4287 H 404.127 2.76708 -4.4557 0
M  V30 4288 H 405.601 4.2217 -3.55635 0
M  V30 4289 H 406.078 3.9698 -1.87892 0
M  V30 4290 H 406.684 2.87005 -3.1386 0
M  V30 4291 N 404.999 1.35443 0.805782 0
M  V30 4292 C 406.224 1.32037 1.59941 0
M  V30 4293 C 406.649 -0.0994215 1.87837 0
M  V30 4294 O 406.007 -1.06648 1.46615 0
M  V30 4295 C 406.055 2.13354 2.90711 0
M  V30 4296 O 405.159 1.5148 3.83572 0
M  V30 4297 H 404.5 0.452666 0.485787 0
M  V30 4298 H 407.03 1.78496 1.00002 0
M  V30 4299 H 407.04 2.25338 3.40128 0
M  V30 4300 H 405.715 3.16572 2.69732 0
M  V30 4301 H 404.292 1.4834 3.42125 0
M  V30 4302 N 406.477 -1.02803 1.19454 0
M  V30 4303 C 407.725 -1.75869 0.995722 0
M  V30 4304 C 408.046 -1.89138 -0.474543 0
M  V30 4305 O 407.316 -1.42558 -1.34366 0
M  V30 4306 H 405.896 -0.651511 0.365435 0
M  V30 4307 H 408.558 -1.24004 1.50363 0
M  V30 4308 H 407.654 -2.76661 1.44447 0
M  V30 4309 N 407.956 -0.998596 -1.21925 0
M  V30 4310 C 408.886 -0.573688 -2.26343 0
M  V30 4311 C 409.867 0.402296 -1.65274 0
M  V30 4312 O 411.052 0.291683 -1.91997 0
M  V30 4313 C 408.182 0.106839 -3.47136 0
M  V30 4314 C 407.136 -0.788269 -4.20678 0
M  V30 4315 C 406.462 0.0254927 -5.34694 0
M  V30 4316 C 407.762 -2.08784 -4.78755 0
M  V30 4317 H 409.456 -1.44651 -2.62138 0
M  V30 4318 H 407.002 -0.696975 -1.26009 0
M  V30 4319 H 408.955 0.415531 -4.19346 0
M  V30 4320 H 407.679 1.01424 -3.10452 0
M  V30 4321 H 406.338 -1.08069 -3.50309 0
M  V30 4322 H 405.986 0.933989 -4.94253 0
M  V30 4323 H 405.686 -0.570437 -5.84825 0
M  V30 4324 H 407.21 0.328147 -6.09718 0
M  V30 4325 H 408.624 -1.84272 -5.42878 0
M  V30 4326 H 407.021 -2.63307 -5.39249 0
M  V30 4327 H 408.091 -2.76284 -3.98491 0
M  V30 4328 N 409.434 1.37368 -0.772513 0
M  V30 4329 C 410.68 2.00423 -0.3467 0
M  V30 4330 C 411.035 1.60224 1.06518 0
M  V30 4331 O 410.328 0.838712 1.72268 0
M  V30 4332 C 410.522 3.54817 -0.428876 0
M  V30 4333 C 410.351 4.10011 -1.84719 0
M  V30 4334 C 409.121 4.40927 -2.46803 0
M  V30 4335 C 411.319 4.30955 -2.80681 0
M  V30 4336 N 409.301 4.8184 -3.80399 0
M  V30 4337 C 410.672 4.74486 -3.99078 0
M  V30 4338 C 412.727 4.1309 -2.77958 0
M  V30 4339 C 411.43 5.02023 -5.15136 0
M  V30 4340 C 413.456 4.41764 -3.9319 0
M  V30 4341 C 412.818 4.85535 -5.10328 0
M  V30 4342 H 408.917 0.762413 -0.173927 0
M  V30 4343 H 411.501 1.66666 -1.00651 0
M  V30 4344 H 409.672 3.87881 0.200757 0
M  V30 4345 H 411.404 4.04696 0.0190668 0
M  V30 4346 H 408.159 4.30033 -1.98415 0
M  V30 4347 H 408.583 5.06604 -4.49089 0
M  V30 4348 H 413.225 3.7842 -1.88568 0
M  V30 4349 H 410.943 5.35582 -6.05126 0
M  V30 4350 H 414.529 4.29528 -3.92425 0
M  V30 4351 H 413.409 5.07296 -5.98013 0
M  V30 4352 N 410.912 0.523116 1.48665 0
M  V30 4353 C 412.161 -0.01544 2.01694 0
M  V30 4354 C 412.474 -1.35975 1.40606 0
M  V30 4355 O 413.68 -1.98627 1.85093 0
M  V30 4356 C 412.136 -0.0779303 3.59816 0
M  V30 4357 C 411.744 1.26107 4.29885 0
M  V30 4358 C 413.488 -0.565678 4.20714 0
M  V30 4359 C 411.395 1.15954 5.79921 0
M  V30 4360 H 410.325 -0.00954163 0.75394 0
M  V30 4361 H 412.976 0.665865 1.70993 0
M  V30 4362 H 411.358 -0.824165 3.87329 0
M  V30 4363 H 412.532 2.02233 4.14051 0
M  V30 4364 H 410.847 1.68401 3.80828 0
M  V30 4365 H 413.444 -0.6595 5.30617 0
M  V30 4366 H 413.787 -1.56984 3.85567 0
M  V30 4367 H 414.32 0.12467 3.97605 0
M  V30 4368 H 411.059 2.13864 6.19631 0
M  V30 4369 H 410.579 0.439529 5.98187 0
M  V30 4370 H 412.258 0.847361 6.41427 0
M  V30 4371 N 412.39 -1.55475 0.257931 0
M  V30 4372 C 413.638 -1.98813 -0.363009 0
M  V30 4373 C 413.959 -1.14757 -1.57657 0
M  V30 4374 O 413.229 -0.232956 -1.9451 0
M  V30 4375 H 411.809 -0.734308 -0.137113 0
M  V30 4376 H 414.471 -1.9156 0.359281 0
M  V30 4377 H 413.567 -3.04941 -0.664634 0
M  V30 4378 N 413.868 0.0150385 -1.57593 0
M  V30 4379 C 414.798 1.01047 -2.10503 0
M  V30 4380 C 415.779 1.36816 -1.01071 0
M  V30 4381 O 416.964 1.45455 -1.28672 0
M  V30 4382 C 414.094 2.30708 -2.59598 0
M  V30 4383 C 413.048 2.09142 -3.73421 0
M  V30 4384 C 412.374 3.44685 -4.08774 0
M  V30 4385 C 413.674 1.46619 -5.01298 0
M  V30 4386 H 415.368 0.569978 -2.93925 0
M  V30 4387 H 412.914 0.272724 -1.41394 0
M  V30 4388 H 414.867 3.00687 -2.95238 0
M  V30 4389 H 413.591 2.76843 -1.73279 0
M  V30 4390 H 412.25 1.41592 -3.38153 0
M  V30 4391 H 411.898 3.88495 -3.195 0
M  V30 4392 H 411.598 3.31077 -4.8545 0
M  V30 4393 H 413.122 4.16004 -4.4696 0
M  V30 4394 H 414.536 2.06535 -5.34805 0
M  V30 4395 H 412.933 1.43544 -5.82679 0
M  V30 4396 H 414.003 0.433611 -4.82957 0
M  V30 4397 N 415.346 1.54954 0.287554 0
M  V30 4398 C 416.294 1.87606 1.37502 0
M  V30 4399 C 417.288 0.751001 1.51843 0
M  V30 4400 O 418.494 0.935169 1.53801 0
M  V30 4401 H 414.869 0.595231 0.459569 0
M  V30 4402 H 416.84 2.78477 1.07206 0
M  V30 4403 C 415.589 2.15183 2.73115 0
M  V30 4404 H 414.912 3.01234 2.62866 0
M  V30 4405 H 416.352 2.4196 3.48183 0
M  V30 4406 C 414.811 0.954686 3.2309 0
M  V30 4407 O 415.341 0.181949 4.01288 0
M  V30 4408 N 413.547 0.756368 2.80584 0
M  V30 4409 H 413.094 1.38643 2.17108 0
M  V30 4410 H 413.052 -0.0430391 3.14371 0
M  V30 4411 N 416.824 -0.551391 1.4764 0
M  V30 4412 C 418.049 -1.33837 1.58437 0
M  V30 4413 C 418.474 -1.866 0.237063 0
M  V30 4414 O 417.832 -1.6328 -0.787994 0
M  V30 4415 C 417.88 -2.48014 2.61766 0
M  V30 4416 O 416.984 -3.50419 2.1744 0
M  V30 4417 H 416.325 -0.397299 0.532024 0
M  V30 4418 H 418.855 -0.665759 1.93465 0
M  V30 4419 H 418.865 -2.94503 2.82369 0
M  V30 4420 H 417.54 -2.08969 3.5959 0
M  V30 4421 H 416.117 -3.10196 2.06961 0
M  V30 4422 N 418.302 -1.35869 -0.798587 0
M  V30 4423 C 419.232 -1.32118 -1.92528 0
M  V30 4424 C 420.213 -0.194209 -1.68988 0
M  V30 4425 O 421.398 -0.390426 -1.90235 0
M  V30 4426 C 418.528 -1.10047 -3.29404 0
M  V30 4427 C 417.482 -2.19471 -3.67446 0
M  V30 4428 C 416.808 -1.82555 -5.02571 0
M  V30 4429 C 418.108 -3.61495 -3.76987 0
M  V30 4430 H 419.802 -2.26394 -1.95924 0
M  V30 4431 H 417.348 -1.08981 -0.94123 0
M  V30 4432 H 419.301 -1.06061 -4.07835 0
M  V30 4433 H 418.025 -0.122195 -3.26371 0
M  V30 4434 H 416.684 -2.22568 -2.91306 0
M  V30 4435 H 416.332 -0.833249 -4.9605 0
M  V30 4436 H 416.032 -2.5581 -5.28995 0
M  V30 4437 H 417.556 -1.80108 -5.83432 0
M  V30 4438 H 418.97 -3.60676 -4.4563 0
M  V30 4439 H 417.367 -4.33577 -4.14887 0
M  V30 4440 H 418.437 -3.97065 -2.78329 0
M  V30 4441 N 419.78 1.02168 -1.19998 0
M  V30 4442 C 421.005 1.79833 -1.03319 0
M  V30 4443 C 421.43 1.83504 0.413281 0
M  V30 4444 O 420.788 1.26635 1.29743 0
M  V30 4445 C 420.836 3.22396 -1.61533 0
M  V30 4446 O 419.94 4.03555 -0.849519 0
M  V30 4447 H 419.281 0.554872 -0.364709 0
M  V30 4448 H 421.811 1.28542 -1.59179 0
M  V30 4449 H 421.821 3.73124 -1.65054 0
M  V30 4450 H 420.496 3.19039 -2.66809 0
M  V30 4451 H 419.073 3.62169 -0.888129 0
M  V30 4452 N 421.258 1.00505 1.21394 0
M  V30 4453 C 422.505 0.687774 1.90462 0
M  V30 4454 C 422.833 -0.78147 1.7811 0
M  V30 4455 O 422.088 -1.58208 1.1519 0
M  V30 4456 C 422.387 1.0546 3.41486 0
M  V30 4457 C 422.053 2.51812 3.74034 0
M  V30 4458 C 420.715 2.91804 3.82628 0
M  V30 4459 C 423.067 3.46614 3.8924 0
M  V30 4460 C 420.395 4.2556 4.03876 0
M  V30 4461 C 422.747 4.80044 4.11995 0
M  V30 4462 C 421.411 5.19759 4.18816 0
M  V30 4463 H 420.681 0.251674 0.696951 0
M  V30 4464 H 423.328 1.26349 1.43903 0
M  V30 4465 H 421.633 0.397133 3.89782 0
M  V30 4466 H 423.33 0.786976 3.93202 0
M  V30 4467 H 419.92 2.1982 3.67936 0
M  V30 4468 H 424.104 3.16883 3.81967 0
M  V30 4469 H 419.36 4.55901 4.07387 0
M  V30 4470 H 423.534 5.53439 4.22704 0
M  V30 4471 H 421.161 6.23418 4.35033 0
M  V30 4472 N 422.737 -1.36956 0.779787 0
M  V30 4473 C 423.685 -2.32053 0.15942 0
M  V30 4474 C 424.679 -1.55333 -0.675878 0
M  V30 4475 O 425.885 -1.70668 -0.57204 0
M  V30 4476 H 422.26 -0.751286 0.0327707 0
M  V30 4477 H 424.231 -2.8195 0.977078 0
M  V30 4478 C 422.98 -3.40602 -0.698977 0
M  V30 4479 H 422.303 -3.99746 -0.0655966 0
M  V30 4480 H 423.743 -4.09486 -1.09989 0
M  V30 4481 C 422.202 -2.81359 -1.85307 0
M  V30 4482 O 422.732 -2.72751 -2.94906 0
M  V30 4483 N 420.938 -2.38786 -1.65619 0
M  V30 4484 H 420.485 -2.45987 -0.764725 0
M  V30 4485 H 420.443 -1.99493 -2.43002 0
M  V30 4486 N 424.215 -0.530993 -1.48385 0
M  V30 4487 C 425.44 0.000729535 -2.074 0
M  V30 4488 C 425.865 1.27298 -1.3848 0
M  V30 4489 O 425.223 1.75599 -0.451081 0
M  V30 4490 C 425.271 0.206697 -3.60007 0
M  V30 4491 O 424.375 1.27514 -3.92191 0
M  V30 4492 H 423.716 -0.039583 -0.662819 0
M  V30 4493 H 426.246 -0.739194 -1.9078 0
M  V30 4494 H 426.256 0.42904 -4.05738 0
M  V30 4495 H 424.931 -0.722675 -4.09573 0
M  V30 4496 H 423.508 1.03537 -3.58238 0
M  V30 4497 N 425.693 1.55336 -0.266172 0
M  V30 4498 C 426.941 1.99003 0.35246 0
M  V30 4499 C 427.262 1.15591 1.57047 0
M  V30 4500 O 426.532 0.243268 1.94384 0
M  V30 4501 H 425.112 0.735025 0.133217 0
M  V30 4502 H 427.774 1.91367 -0.369434 0
M  V30 4503 H 426.87 3.05289 0.648453 0
M  V30 4504 N 427.171 -0.0066808 1.57599 0
M  V30 4505 C 428.417 -0.68835 1.91398 0
M  V30 4506 C 428.772 -1.7175 0.86716 0
M  V30 4507 O 428.065 -1.91215 -0.121475 0
M  V30 4508 C 428.259 -1.37939 3.29708 0
M  V30 4509 C 428.088 -0.418689 4.47747 0
M  V30 4510 C 426.858 -0.031526 5.0529 0
M  V30 4511 C 429.056 0.312301 5.13351 0
M  V30 4512 N 427.038 0.928088 6.06844 0
M  V30 4513 C 428.409 1.12682 6.09674 0
M  V30 4514 C 430.464 0.376853 4.96472 0
M  V30 4515 C 429.167 2 6.90936 0
M  V30 4516 C 431.193 1.23723 5.78314 0
M  V30 4517 C 430.555 2.03962 6.74225 0
M  V30 4518 H 426.654 -0.225292 0.748844 0
M  V30 4519 H 429.238 0.0520973 1.9463 0
M  V30 4520 H 427.409 -2.09017 3.27363 0
M  V30 4521 H 429.141 -2.01522 3.50957 0
M  V30 4522 H 425.896 -0.398485 4.71921 0
M  V30 4523 H 426.32 1.40307 6.62301 0
M  V30 4524 H 430.962 -0.22921 4.22178 0
M  V30 4525 H 428.68 2.61676 7.64559 0
M  V30 4526 H 432.266 1.291 5.67296 0
M  V30 4527 H 431.146 2.69461 7.36451 0
M  V30 4528 N 428.649 -1.55105 -0.279332 0
M  V30 4529 C 429.581 -1.83952 -1.36727 0
M  V30 4530 C 430.594 -0.723642 -1.45833 0
M  V30 4531 O 431.783 -1.00141 -1.47763 0
M  V30 4532 C 428.883 -1.98183 -2.74912 0
M  V30 4533 C 428.056 -3.28787 -2.88475 0
M  V30 4534 C 427.115 -3.33162 -4.07295 0
M  V30 4535 O 426.141 -4.06576 -3.98353 0
M  V30 4536 N 427.343 -2.60109 -5.18964 0
M  V30 4537 H 430.108 -2.77853 -1.12328 0
M  V30 4538 H 427.669 -1.54945 -0.469442 0
M  V30 4539 H 429.661 -1.98488 -3.52682 0
M  V30 4540 H 428.231 -1.11177 -2.92162 0
M  V30 4541 H 427.451 -3.41075 -1.97641 0
M  V30 4542 H 428.739 -4.14933 -2.94463 0
M  V30 4543 H 428.137 -2.00136 -5.29115 0
M  V30 4544 H 426.694 -2.66143 -5.94988 0
M  V30 4545 N 430.127 0.543554 -1.4793 0
M  V30 4546 C 431.373 1.29961 -1.56466 0
M  V30 4547 C 431.728 1.91024 -0.229696 0
M  V30 4548 O 431.021 1.75619 0.766072 0
M  V30 4549 C 431.215 2.42078 -2.62932 0
M  V30 4550 C 431.044 1.92003 -4.06651 0
M  V30 4551 C 429.814 1.75223 -4.73946 0
M  V30 4552 C 432.012 1.45648 -4.93245 0
M  V30 4553 N 429.994 1.19632 -6.02131 0
M  V30 4554 C 431.365 1.01914 -6.11566 0
M  V30 4555 C 433.42 1.33826 -4.79578 0
M  V30 4556 C 432.123 0.475301 -7.17728 0
M  V30 4557 C 434.149 0.808427 -5.85848 0
M  V30 4558 C 433.511 0.381081 -7.03368 0
M  V30 4559 H 429.61 0.467086 -0.62718 0
M  V30 4560 H 432.194 0.614543 -1.84747 0
M  V30 4561 H 430.365 3.08098 -2.36496 0
M  V30 4562 H 432.097 3.09096 -2.61231 0
M  V30 4563 H 428.852 1.98345 -4.30065 0
M  V30 4564 H 429.276 0.93885 -6.70458 0
M  V30 4565 H 433.918 1.65474 -3.89074 0
M  V30 4566 H 431.636 0.146472 -8.07967 0
M  V30 4567 H 435.222 0.720315 -5.77324 0
M  V30 4568 H 434.102 -0.0225344 -7.84197 0
M  V30 4569 N 431.605 1.3629 0.791371 0
M  V30 4570 C 432.83 1.33726 1.58531 0
M  V30 4571 C 433.255 -0.0794933 1.87932 0
M  V30 4572 O 432.613 -1.05087 1.47738 0
M  V30 4573 C 432.661 2.16425 2.88431 0
M  V30 4574 O 431.765 1.5554 3.81944 0
M  V30 4575 H 431.106 0.457793 0.480959 0
M  V30 4576 H 433.636 1.79547 0.981031 0
M  V30 4577 H 433.646 2.28933 3.37718 0
M  V30 4578 H 432.321 3.19415 2.66359 0
M  V30 4579 H 430.898 1.51961 3.40532 0
M  V30 4580 N 433.083 -1.0153 1.20538 0
M  V30 4581 C 434.36 -1.72327 0.925343 0
M  V30 4582 C 434.74 -2.03383 -0.565547 0
M  V30 4583 O 434.088 -1.69934 -1.52757 0
M  V30 4584 C 434.298 -2.9902 1.79967 0
M  V30 4585 C 435.646 -3.72258 2.04228 0
M  V30 4586 O 436.67 -3.08979 1.77231 0
M  V30 4587 O 435.529 -4.86053 2.4983 0
M  V30 4588 H 432.623 -0.751099 0.346092 0
M  V30 4589 H 435.169 -1.07366 1.31417 0
M  V30 4590 H 433.941 -2.72402 2.80915 0
M  V30 4591 H 433.564 -3.71721 1.41099 0
M  V30 4592 N 434.561 -1.01147 -1.20859 0
M  V30 4593 C 435.977 -0.725422 -1.42161 0
M  V30 4594 C 436.177 0.696919 -1.89064 0
M  V30 4595 O 435.233 1.46539 -2.05627 0
M  V30 4596 C 436.546 -1.74678 -2.44761 0
M  V30 4597 C 438.094 -1.76433 -2.58535 0
M  V30 4598 C 438.569 -2.77481 -3.64374 0
M  V30 4599 N 440.06 -2.76189 -3.71852 0
M  V30 4600 C 440.795 -3.51035 -4.53389 0
M  V30 4601 N 440.291 -4.35541 -5.38773 0
M  V30 4602 N 442.084 -3.39655 -4.47873 0
M  V30 4603 H 434.235 -1.92979 -0.887282 0
M  V30 4604 H 436.498 -0.833327 -0.451962 0
M  V30 4605 H 436.204 -2.76551 -2.17285 0
M  V30 4606 H 436.078 -1.55472 -3.43669 0
M  V30 4607 H 438.465 -0.75248 -2.85345 0
M  V30 4608 H 438.546 -1.99712 -1.5984 0
M  V30 4609 H 438.19 -3.78827 -3.38308 0
M  V30 4610 H 438.12 -2.51466 -4.6268 0
M  V30 4611 H 440.611 -2.14885 -3.10858 0
M  V30 4612 H 440.924 -4.89432 -5.98061 0
M  V30 4613 H 439.269 -4.39621 -5.38292 0
M  V30 4614 H 442.46 -2.73063 -3.80203 0
M  V30 4615 H 442.633 -3.9824 -5.11184 0
M  V30 4616 N 436.039 1.36541 -0.78704 0
M  V30 4617 C 437.264 2.0409 -0.369053 0
M  V30 4618 C 437.689 1.58957 1.00569 0
M  V30 4619 O 437.047 0.756926 1.64743 0
M  V30 4620 C 437.095 3.57924 -0.438466 0
M  V30 4621 O 436.199 4.08642 0.555479 0
M  V30 4622 H 435.54 0.645142 -0.157122 0
M  V30 4623 H 438.07 1.74545 -1.06749 0
M  V30 4624 H 438.08 4.06887 -0.301218 0
M  V30 4625 H 436.755 3.90127 -1.44132 0
M  V30 4626 H 435.332 3.70958 0.380088 0
M  V30 4627 N 437.518 0.538854 1.48102 0
M  V30 4628 C 438.929 0.100679 1.86428 0
M  V30 4629 C 439.28 -1.32447 1.44749 0
M  V30 4630 O 438.405 -1.99339 0.842199 0
M  V30 4631 C 439 0.175933 3.38343 0
M  V30 4632 C 437.559 -0.207098 3.7583 0
M  V30 4633 C 436.706 0.531741 2.72154 0
M  V30 4634 H 439.657 0.749614 1.3988 0
M  V30 4635 H 439.678 -0.610144 3.75576 0
M  V30 4636 H 439.19 1.21328 3.68648 0
M  V30 4637 H 437.291 -1.24626 3.5114 0
M  V30 4638 H 437.404 0.138687 4.78899 0
M  V30 4639 H 435.768 -0.0230462 2.5469 0
M  V30 4640 H 436.551 1.56989 3.05302 0
M  V30 4641 N 438.996 -1.55193 0.274407 0
M  V30 4642 C 440.243 -1.99581 -0.342579 0
M  V30 4643 C 440.571 -1.1628 -1.55914 0
M  V30 4644 O 439.826 -0.22029 -1.94456 0
M  V30 4645 C 440.125 -3.49019 -0.769458 0
M  V30 4646 C 439.791 -4.49598 0.342389 0
M  V30 4647 C 438.453 -4.76821 0.647686 0
M  V30 4648 C 440.805 -5.0964 1.09163 0
M  V30 4649 C 438.133 -5.61354 1.70581 0
M  V30 4650 C 440.485 -5.95323 2.13948 0
M  V30 4651 C 439.149 -6.20867 2.45113 0
M  V30 4652 H 438.419 -0.730319 -0.125358 0
M  V30 4653 H 441.066 -1.87529 0.387971 0
M  V30 4654 H 439.371 -3.58544 -1.57967 0
M  V30 4655 H 441.068 -3.8077 -1.25757 0
M  V30 4656 H 437.658 -4.28496 0.094318 0
M  V30 4657 H 441.842 -4.88632 0.869024 0
M  V30 4658 H 437.098 -5.79392 1.9523 0
M  V30 4659 H 441.272 -6.40881 2.72478 0
M  V30 4660 H 438.899 -6.86162 3.27239 0
M  V30 4661 N 440.474 -0.00167713 -1.576 0
M  V30 4662 C 441.89 0.354422 -1.55615 0
M  V30 4663 C 442.09 1.74679 -1.00447 0
M  V30 4664 O 441.146 2.4428 -0.639022 0
M  V30 4665 C 442.459 0.22812 -2.99833 0
M  V30 4666 C 444.007 0.302934 -3.11531 0
M  V30 4667 C 444.482 0.205737 -4.57538 0
M  V30 4668 N 445.973 0.263584 -4.62449 0
M  V30 4669 C 446.708 0.211742 -5.73009 0
M  V30 4670 N 446.204 0.110399 -6.92712 0
M  V30 4671 N 447.997 0.263729 -5.61481 0
M  V30 4672 H 440.148 -0.912498 -1.918 0
M  V30 4673 H 442.411 -0.349928 -0.881053 0
M  V30 4674 H 442.117 -0.729934 -3.44042 0
M  V30 4675 H 441.991 1.00951 -3.6344 0
M  V30 4676 H 444.378 1.25143 -2.67251 0
M  V30 4677 H 444.459 -0.508357 -2.50698 0
M  V30 4678 H 444.103 -0.739225 -5.02492 0
M  V30 4679 H 444.033 1.03554 -5.16318 0
M  V30 4680 H 446.524 0.343173 -3.76339 0
M  V30 4681 H 446.837 0.0767828 -7.72762 0
M  V30 4682 H 445.182 0.0760025 -6.94958 0
M  V30 4683 H 448.373 0.34111 -4.66855 0
M  V30 4684 H 448.546 0.219862 -6.47627 0
M  V30 4685 N 441.952 1.55251 0.271103 0
M  V30 4686 C 443.182 1.79713 1.01916 0
M  V30 4687 C 443.59 0.571613 1.80359 0
M  V30 4688 O 442.933 -0.468853 1.77616 0
M  V30 4689 C 442.995 2.97138 2.02359 0
M  V30 4690 C 442.659 4.34104 1.42837 0
M  V30 4691 C 443.656 5.13019 0.843071 0
M  V30 4692 C 441.341 4.80765 1.455 0
M  V30 4693 C 443.335 6.36729 0.292333 0
M  V30 4694 C 441.022 6.0443 0.900402 0
M  V30 4695 C 442.02 6.8225 0.32007 0
M  V30 4696 O 441.708 8.03582 -0.226031 0
M  V30 4697 H 441.44 0.602431 0.306681 0
M  V30 4698 H 443.994 2.03097 0.306701 0
M  V30 4699 H 442.224 2.6945 2.77369 0
M  V30 4700 H 443.913 3.08907 2.63309 0
M  V30 4701 H 444.679 4.781 0.815178 0
M  V30 4702 H 440.558 4.20202 1.89609 0
M  V30 4703 H 444.102 6.97414 -0.161274 0
M  V30 4704 H 439.999 6.3883 0.925541 0
M  V30 4705 H 440.767 8.18418 -0.115572 0
M  V30 4706 N 443.43 -0.535701 1.48216 0
M  V30 4707 C 444.36 -1.65014 1.65204 0
M  V30 4708 C 445.341 -1.62554 0.501011 0
M  V30 4709 O 446.526 -1.7984 0.732886 0
M  V30 4710 C 443.656 -3.03616 1.68626 0
M  V30 4711 C 442.61 -3.20932 2.83172 0
M  V30 4712 C 441.936 -4.60537 2.71679 0
M  V30 4713 C 443.236 -3.04249 4.24535 0
M  V30 4714 H 444.93 -1.51053 2.58502 0
M  V30 4715 H 442.476 -0.725262 1.24402 0
M  V30 4716 H 444.429 -3.81446 1.79099 0
M  V30 4717 H 443.153 -3.18587 0.719026 0
M  V30 4718 H 441.812 -2.45517 2.72244 0
M  V30 4719 H 441.46 -4.72336 1.72937 0
M  V30 4720 H 441.16 -4.73069 3.48538 0
M  V30 4721 H 442.684 -5.40475 2.84112 0
M  V30 4722 H 444.098 -3.71877 4.36326 0
M  V30 4723 H 442.495 -3.28278 5.02348 0
M  V30 4724 H 443.565 -2.00739 4.41397 0
M  V30 4725 N 444.908 -1.36708 -0.784132 0
M  V30 4726 C 445.856 -1.31533 -1.91838 0
M  V30 4727 C 446.85 -0.206205 -1.6814 0
M  V30 4728 O 448.056 -0.373519 -1.76082 0
M  V30 4729 H 444.431 -0.409613 -0.630651 0
M  V30 4730 H 446.402 -2.2731 -1.9332 0
M  V30 4731 C 445.151 -1.12679 -3.28936 0
M  V30 4732 H 444.474 -1.97274 -3.4774 0
M  V30 4733 H 445.914 -1.13106 -4.08636 0
M  V30 4734 C 444.373 0.168281 -3.36479 0
M  V30 4735 O 444.903 1.15625 -3.84699 0
M  V30 4736 N 443.109 0.214762 -2.89805 0
M  V30 4737 H 442.656 -0.589852 -2.50756 0
M  V30 4738 H 442.614 1.08094 -2.95234 0
M  V30 4739 N 446.386 1.0089 -1.21074 0
M  V30 4740 C 447.632 1.7497 -1.03717 0
M  V30 4741 C 447.987 1.8764 0.425344 0
M  V30 4742 O 447.28 1.39679 1.3115 0
M  V30 4743 C 447.474 3.16335 -1.66334 0
M  V30 4744 C 447.303 3.17449 -3.18522 0
M  V30 4745 C 446.073 3.2425 -3.87543 0
M  V30 4746 C 448.271 3.02877 -4.15656 0
M  V30 4747 N 446.253 3.14949 -5.26954 0
M  V30 4748 C 447.624 3.0143 -5.41793 0
M  V30 4749 C 449.679 2.8715 -4.06755 0
M  V30 4750 C 448.382 2.85869 -6.60054 0
M  V30 4751 C 450.408 2.72944 -5.24648 0
M  V30 4752 C 449.77 2.72171 -6.49694 0
M  V30 4753 H 445.869 0.650627 -0.43383 0
M  V30 4754 H 448.453 1.19944 -1.53367 0
M  V30 4755 H 446.624 3.69638 -1.19256 0
M  V30 4756 H 448.356 3.78888 -1.42219 0
M  V30 4757 H 445.111 3.31288 -3.38446 0
M  V30 4758 H 445.535 3.13651 -5.9996 0
M  V30 4759 H 450.177 2.86557 -3.10878 0
M  V30 4760 H 447.895 2.8521 -7.56096 0
M  V30 4761 H 451.481 2.61782 -5.19578 0
M  V30 4762 H 450.361 2.61307 -7.39384 0
M  V30 4763 N 447.864 1.01787 1.20321 0
M  V30 4764 C 448.794 0.609625 2.25401 0
M  V30 4765 C 449.775 -0.375951 1.65893 0
M  V30 4766 O 450.96 -0.261101 1.92437 0
M  V30 4767 C 448.09 -0.0515995 3.47262 0
M  V30 4768 C 447.044 0.855095 4.19371 0
M  V30 4769 C 446.37 0.0595757 5.34667 0
M  V30 4770 C 447.67 2.16374 4.75373 0
M  V30 4771 H 449.364 1.48803 2.59804 0
M  V30 4772 H 446.91 0.716934 1.24884 0
M  V30 4773 H 448.863 -0.348764 4.19954 0
M  V30 4774 H 447.587 -0.964726 3.12027 0
M  V30 4775 H 446.246 1.13628 3.48546 0
M  V30 4776 H 445.894 -0.85524 4.95676 0
M  V30 4777 H 445.594 0.663406 5.83843 0
M  V30 4778 H 447.118 -0.231105 6.10162 0
M  V30 4779 H 448.532 1.92885 5.39878 0
M  V30 4780 H 446.929 2.71853 5.34991 0
M  V30 4781 H 447.999 2.82589 3.94045 0
M  V30 4782 N 449.342 -1.36122 0.79427 0
M  V30 4783 C 450.753 -1.81646 0.431446 0
M  V30 4784 C 451.104 -1.66043 -1.04518 0
M  V30 4785 O 450.229 -1.1841 -1.8113 0
M  V30 4786 C 450.824 -3.29785 0.776341 0
M  V30 4787 C 449.383 -3.73501 0.466282 0
M  V30 4788 C 448.53 -2.58313 1.00844 0
M  V30 4789 H 451.481 -1.24274 0.986995 0
M  V30 4790 H 451.502 -3.80437 0.0692413 0
M  V30 4791 H 451.014 -3.4111 1.8511 0
M  V30 4792 H 449.115 -3.67733 -0.600245 0
M  V30 4793 H 449.228 -4.68754 0.990288 0
M  V30 4794 H 447.592 -2.5102 0.431406 0
M  V30 4795 H 448.375 -2.72421 2.08906 0
M  V30 4796 N 450.82 -0.546701 -1.47814 0
M  V30 4797 C 452.068 -0.0187037 -2.02091 0
M  V30 4798 C 452.389 1.33168 -1.42447 0
M  V30 4799 O 451.659 1.86619 -0.595839 0
M  V30 4800 H 450.239 -0.00392531 -0.74699 0
M  V30 4801 H 452.901 -0.714327 -1.81338 0
M  V30 4802 H 451.997 0.0772219 -3.12004 0
M  V30 4803 N 452.299 1.55045 -0.282633 0
M  V30 4804 C 453.524 2.04628 0.337977 0
M  V30 4805 C 453.949 1.15937 1.48123 0
M  V30 4806 O 453.307 0.159532 1.80597 0
M  V30 4807 C 453.355 3.51854 0.78936 0
M  V30 4808 O 452.459 3.66236 1.89592 0
M  V30 4809 H 451.8 0.660434 0.0687261 0
M  V30 4810 H 454.33 2.00261 -0.419124 0
M  V30 4811 H 454.34 3.93361 1.08311 0
M  V30 4812 H 453.015 4.15873 -0.0470419 0
M  V30 4813 H 451.592 3.36633 1.60413 0
M  V30 4814 N 453.777 0.010035 1.57597 0
M  V30 4815 C 455.188 -0.531426 1.78977 0
M  V30 4816 C 455.539 -1.73375 0.918454 0
M  V30 4817 O 454.664 -2.16047 0.123635 0
M  V30 4818 C 455.259 -0.97086 3.24592 0
M  V30 4819 C 453.818 -1.45756 3.47033 0
M  V30 4820 C 452.965 -0.413384 2.74201 0
M  V30 4821 H 455.916 0.236166 1.56933 0
M  V30 4822 H 455.937 -1.83633 3.33255 0
M  V30 4823 H 455.449 -0.0955893 3.87982 0
M  V30 4824 H 453.55 -2.35339 2.88871 0
M  V30 4825 H 453.663 -1.4781 4.55729 0
M  V30 4826 H 452.027 -0.877266 2.39115 0
M  V30 4827 H 452.81 0.453092 3.40297 0
M  V30 4828 N 455.255 -1.55392 -0.262866 0
M  V30 4829 C 456.48 -1.80847 -1.01533 0
M  V30 4830 C 456.905 -0.584946 -1.78774 0
M  V30 4831 O 456.263 0.465701 -1.75217 0
M  V30 4832 C 456.311 -3.03866 -1.94159 0
M  V30 4833 O 455.415 -2.79662 -3.03089 0
M  V30 4834 H 454.756 -0.597441 -0.289759 0
M  V30 4835 H 457.286 -2.02553 -0.288698 0
M  V30 4836 H 457.296 -3.32872 -2.35924 0
M  V30 4837 H 455.971 -3.92564 -1.37354 0
M  V30 4838 H 454.548 -2.61781 -2.65566 0
M  V30 4839 N 456.733 0.527833 -1.48498 0
M  V30 4840 C 457.696 1.61439 -1.62696 0
M  V30 4841 C 458.696 1.52824 -0.500136 0
M  V30 4842 O 459.886 1.56456 -0.765976 0
M  V30 4843 C 457.018 3.01063 -1.59918 0
M  V30 4844 H 458.211 1.50189 -2.59583 0
M  V30 4845 H 455.764 0.750055 -1.37127 0
M  V30 4846 H 456.499 3.17818 -0.645163 0
M  V30 4847 H 456.284 3.08725 -2.41726 0
M  V30 4848 H 457.774 3.80057 -1.73051 0
M  V30 4849 N 458.211 1.37122 0.776871 0
M  V30 4850 C 459.121 1.34651 1.9211 0
M  V30 4851 C 460.137 0.246824 1.7224 0
M  V30 4852 O 461.313 0.48134 1.95563 0
M  V30 4853 C 458.378 1.14748 3.2716 0
M  V30 4854 C 457.439 2.34308 3.5972 0
M  V30 4855 C 456.672 2.15345 4.88326 0
M  V30 4856 O 456.895 1.13507 5.58992 0
M  V30 4857 O 455.829 3.03414 5.1983 0
M  V30 4858 H 459.655 2.31013 1.97146 0
M  V30 4859 H 457.24 1.17799 0.918901 0
M  V30 4860 H 459.122 1.05616 4.0795 0
M  V30 4861 H 457.797 0.214562 3.22988 0
M  V30 4862 H 456.704 2.49011 2.79185 0
M  V30 4863 H 458.037 3.26149 3.68629 0
M  V30 4864 N 459.689 -1.00246 1.21608 0
M  V30 4865 C 461.1 -1.55511 1.03312 0
M  V30 4866 C 461.451 -1.91946 -0.406332 0
M  V30 4867 O 460.576 -1.73753 -1.28992 0
M  V30 4868 C 461.171 -2.82576 1.86913 0
M  V30 4869 C 459.73 -3.34318 1.72941 0
M  V30 4870 C 458.877 -2.07487 1.83968 0
M  V30 4871 H 461.828 -0.824638 1.35593 0
M  V30 4872 H 461.849 -3.54559 1.38087 0
M  V30 4873 H 461.361 -2.56026 2.91672 0
M  V30 4874 H 459.462 -3.65797 0.70877 0
M  V30 4875 H 459.575 -4.05566 2.55055 0
M  V30 4876 H 457.939 -2.20603 1.27304 0
M  V30 4877 H 458.722 -1.83346 2.9024 0
M  V30 4878 N 461.167 -1.02423 -1.1978 0
M  V30 4879 C 462.415 -0.716569 -1.8897 0
M  V30 4880 C 462.736 0.756769 -1.79716 0
M  V30 4881 O 462.006 1.5449 -1.20456 0
M  V30 4882 H 460.586 -0.262062 -0.699523 0
M  V30 4883 H 463.248 -1.29747 -1.45436 0
M  V30 4884 H 462.344 -1.00675 -2.95417 0
M  V30 4885 N 462.645 1.35699 -0.801477 0
M  V30 4886 C 463.592 2.29876 -0.206294 0
M  V30 4887 C 464.562 1.52565 0.656752 0
M  V30 4888 O 465.747 1.81024 0.602906 0
M  V30 4889 C 462.887 3.39052 0.643272 0
M  V30 4890 C 462 4.31335 -0.239644 0
M  V30 4891 C 461.135 5.27599 0.61744 0
M  V30 4892 C 460.174 6.11521 -0.26619 0
M  V30 4893 N 459.311 6.99938 0.550571 0
M  V30 4894 H 464.151 2.80187 -1.01484 0
M  V30 4895 H 461.688 1.37902 -0.511997 0
M  V30 4896 H 463.646 4.0101 1.15094 0
M  V30 4897 H 462.276 2.9003 1.41713 0
M  V30 4898 H 461.328 3.70426 -0.865381 0
M  V30 4899 H 462.64 4.90243 -0.919985 0
M  V30 4900 H 461.794 5.94906 1.19045 0
M  V30 4901 H 460.533 4.69176 1.33137 0
M  V30 4902 H 459.538 5.43166 -0.851507 0
M  V30 4903 H 460.763 6.72022 -0.9779 0
M  V30 4904 H 458.709 6.44008 1.24856 0
M  V30 4905 H 458.626 7.55966 -0.071832 0
M  V30 4906 H 459.894 7.71599 1.10702 0
M  V30 4907 N 464.123 0.554532 1.47522 0
M  V30 4908 C 465.348 0.0322661 2.07375 0
M  V30 4909 C 465.773 -1.25079 1.40488 0
M  V30 4910 O 465.131 -1.74859 0.47896 0
M  V30 4911 C 465.179 -0.149397 3.6029 0
M  V30 4912 O 464.283 -1.21259 3.9417 0
M  V30 4913 H 463.624 0.0501228 0.662106 0
M  V30 4914 H 466.154 0.769452 1.8958 0
M  V30 4915 H 466.164 -0.364437 4.06369 0
M  V30 4916 H 464.839 0.787743 4.08372 0
M  V30 4917 H 463.416 -0.97825 3.5984 0
M  V30 4918 N 465.601 -1.54893 0.290851 0
M  V30 4919 C 466.841 -2.01842 -0.322388 0
M  V30 4920 C 467.205 -1.17477 -1.51865 0
M  V30 4921 O 468.406 -1.54077 -2.20258 0
M  V30 4922 C 466.677 -3.50874 -0.679844 0
M  V30 4923 S 468.236 -4.19796 -1.27739 0
M  V30 4924 H 465.054 -0.704005 -0.0994866 0
M  V30 4925 H 467.656 -1.91015 0.416358 0
M  V30 4926 H 466.36 -4.09915 0.199435 0
M  V30 4927 H 465.891 -3.65717 -1.44964 0
M  V30 4928 H 467.906 -4.24729 -2.56554 0
M  V30 4929 N 467.08 -0.0183926 -1.57589 0
M  V30 4930 C 468.326 0.663543 -1.91638 0
M  V30 4931 C 468.659 1.72392 -0.894134 0
M  V30 4932 O 467.934 1.94316 0.0846449 0
M  V30 4933 C 468.217 1.28984 -3.36207 0
M  V30 4934 C 468.07 0.239761 -4.49161 0
M  V30 4935 C 469.389 2.2109 -3.80536 0
M  V30 4936 H 466.508 0.239746 -0.696915 0
M  V30 4937 H 469.15 -0.073456 -1.89858 0
M  V30 4938 H 467.3 1.91799 -3.37854 0
M  V30 4939 H 468.972 -0.390119 -4.59647 0
M  V30 4940 H 467.215 -0.435972 -4.31604 0
M  V30 4941 H 467.886 0.717383 -5.47319 0
M  V30 4942 H 470.362 1.68273 -3.80557 0
M  V30 4943 H 469.238 2.61869 -4.82406 0
M  V30 4944 H 469.499 3.09764 -3.15434 0
M  V30 4945 N 468.558 1.5553 0.254621 0
M  V30 4946 C 469.783 1.81383 1.00573 0
M  V30 4947 C 470.208 0.594419 1.78461 0
M  V30 4948 O 469.566 -0.456403 1.75461 0
M  V30 4949 C 469.614 3.04892 1.92545 0
M  V30 4950 O 468.718 2.81266 3.01601 0
M  V30 4951 H 468.059 0.598969 0.286587 0
M  V30 4952 H 470.589 2.02703 0.277952 0
M  V30 4953 H 470.599 3.34119 2.34155 0
M  V30 4954 H 469.274 3.93287 1.3527 0
M  V30 4955 H 467.851 2.63185 2.64174 0
M  V30 4956 N 470.036 -0.519951 1.48776 0
M  V30 4957 C 470.966 -1.63253 1.66945 0
M  V30 4958 C 471.947 -1.62014 0.518224 0
M  V30 4959 O 473.132 -1.79053 0.751919 0
M  V30 4960 C 470.262 -3.0181 1.71836 0
M  V30 4961 C 469.216 -3.17911 2.8656 0
M  V30 4962 C 468.542 -4.5763 2.76548 0
M  V30 4963 C 469.842 -2.99729 4.27738 0
M  V30 4964 H 471.536 -1.48302 2.6009 0
M  V30 4965 H 469.082 -0.712026 1.25165 0
M  V30 4966 H 471.035 -3.79525 1.83135 0
M  V30 4967 H 469.759 -3.17806 0.752775 0
M  V30 4968 H 468.418 -2.42616 2.74833 0
M  V30 4969 H 468.066 -4.70476 1.77937 0
M  V30 4970 H 467.766 -4.69346 3.53536 0
M  V30 4971 H 469.29 -5.37431 2.89828 0
M  V30 4972 H 470.704 -3.67228 4.40246 0
M  V30 4973 H 469.101 -3.22932 5.05801 0
M  V30 4974 H 470.171 -1.96047 4.43502 0
M  V30 4975 N 471.514 -1.37532 -0.769588 0
M  V30 4976 C 472.462 -1.33561 -1.90432 0
M  V30 4977 C 473.456 -0.224027 -1.67912 0
M  V30 4978 O 474.662 -0.392174 -1.75676 0
M  V30 4979 H 471.037 -0.416279 -0.626271 0
M  V30 4980 H 473.008 -2.29348 -1.90899 0
M  V30 4981 C 471.757 -1.16162 -3.27722 0
M  V30 4982 H 471.08 -2.00951 -3.45628 0
M  V30 4983 H 472.52 -1.17434 -4.07413 0
M  V30 4984 C 470.979 0.132583 -3.36639 0
M  V30 4985 O 471.509 1.11539 -3.85904 0
M  V30 4986 N 469.715 0.184013 -2.90017 0
M  V30 4987 H 469.262 -0.616415 -2.50116 0
M  V30 4988 H 469.22 1.04956 -2.96364 0
M  V30 4989 N 472.992 0.995999 -1.22138 0
M  V30 4990 C 474.403 1.54961 -1.04135 0
M  V30 4991 C 474.754 1.92159 0.396147 0
M  V30 4992 O 473.879 1.74435 1.28069 0
M  V30 4993 C 474.474 2.81581 -1.88408 0
M  V30 4994 C 473.033 3.33396 -1.74712 0
M  V30 4995 C 472.18 2.06509 -1.85066 0
M  V30 4996 H 475.131 0.817436 -1.36028 0
M  V30 4997 H 475.152 3.53822 -1.39966 0
M  V30 4998 H 474.664 2.54476 -2.93025 0
M  V30 4999 H 472.765 3.65416 -0.728159 0
M  V30 5000 H 472.878 4.04208 -2.57202 0
M  V30 5001 H 471.242 2.19925 -1.28472 0
M  V30 5002 H 472.025 1.81804 -2.91208 0
M  V30 5003 N 474.47 1.03057 1.19235 0
M  V30 5004 C 475.718 0.726581 1.88587 0
M  V30 5005 C 476.039 -0.747227 1.80115 0
M  V30 5006 O 475.309 -1.53849 1.21274 0
M  V30 5007 H 473.889 0.265768 0.698124 0
M  V30 5008 H 476.551 1.30516 1.44746 0
M  V30 5009 H 475.647 1.0224 2.94879 0
M  V30 5010 N 475.948 -1.35272 0.808662 0
M  V30 5011 C 476.895 -2.29764 0.218482 0
M  V30 5012 C 477.865 -1.52911 -0.648652 0
M  V30 5013 O 479.05 -1.81341 -0.593297 0
M  V30 5014 C 476.19 -3.39388 -0.625282 0
M  V30 5015 C 475.303 -4.31202 0.262516 0
M  V30 5016 C 474.438 -5.27919 -0.589451 0
M  V30 5017 C 473.477 -6.11371 0.298617 0
M  V30 5018 N 472.614 -7.0022 -0.513443 0
M  V30 5019 H 477.454 -2.79645 1.02968 0
M  V30 5020 H 474.991 -1.37629 0.519303 0
M  V30 5021 H 476.949 -4.01615 -1.12966 0
M  V30 5022 H 475.579 -2.90777 -1.40173 0
M  V30 5023 H 474.631 -3.69962 0.885013 0
M  V30 5024 H 475.943 -4.89748 0.945971 0
M  V30 5025 H 475.097 -5.95529 -1.15888 0
M  V30 5026 H 473.836 -4.69875 -1.30647 0
M  V30 5027 H 472.841 -5.42707 0.880301 0
M  V30 5028 H 474.066 -6.71494 1.01352 0
M  V30 5029 H 472.012 -6.44662 -1.21439 0
M  V30 5030 H 471.929 -7.55917 0.111922 0
M  V30 5031 H 473.197 -7.72175 -1.06608 0
M  V30 5032 N 477.426 -0.562348 -1.47226 0
M  V30 5033 C 478.374 0.195476 -2.31777 0
M  V30 5034 C 479.368 0.90433 -1.43242 0
M  V30 5035 O 480.574 0.825031 -1.59979 0
M  V30 5036 H 476.949 0.0819095 -0.747526 0
M  V30 5037 H 478.92 -0.536753 -2.93533 0
M  V30 5038 C 477.669 1.20902 -3.26003 0
M  V30 5039 H 476.992 0.672997 -3.94095 0
M  V30 5040 H 478.432 1.71006 -3.87986 0
M  V30 5041 C 476.891 2.25955 -2.49891 0
M  V30 5042 O 477.421 3.32969 -2.2471 0
M  V30 5043 N 475.627 2.00019 -2.1081 0
M  V30 5044 H 475.174 1.13006 -2.31489 0
M  V30 5045 H 475.132 2.70523 -1.60201 0
M  V30 5046 N 478.904 1.54736 -0.299062 0
M  V30 5047 C 479.867 2.22127 0.565012 0
M  V30 5048 C 480.867 1.20669 1.06281 0
M  V30 5049 O 482.057 1.45417 0.959145 0
M  V30 5050 C 479.189 2.90611 1.78208 0
M  V30 5051 H 480.382 2.99891 -0.0237448 0
M  V30 5052 H 477.935 1.5622 -0.0498788 0
M  V30 5053 H 478.67 2.16921 2.41072 0
M  V30 5054 H 478.455 3.64984 1.43281 0
M  V30 5055 H 479.945 3.42026 2.396 0
M  V30 5056 N 480.382 0.0267497 1.57577 0
M  V30 5057 C 481.329 -0.955894 2.10075 0
M  V30 5058 C 482.299 -1.32453 1.00226 0
M  V30 5059 O 483.484 -1.41826 1.27632 0
M  V30 5060 C 480.624 -2.2338 2.6305 0
M  V30 5061 C 479.737 -1.92183 3.86898 0
M  V30 5062 C 478.872 -3.14251 4.28275 0
M  V30 5063 C 477.911 -2.78862 5.44888 0
M  V30 5064 N 477.048 -3.93548 5.81433 0
M  V30 5065 H 481.888 -0.501303 2.93753 0
M  V30 5066 H 479.425 -0.235847 1.45197 0
M  V30 5067 H 481.383 -2.98124 2.91853 0
M  V30 5068 H 480.013 -2.6646 1.82205 0
M  V30 5069 H 479.065 -1.07692 3.64838 0
M  V30 5070 H 480.377 -1.62117 4.7172 0
M  V30 5071 H 479.531 -3.97317 4.58502 0
M  V30 5072 H 478.27 -3.47476 3.42215 0
M  V30 5073 H 477.275 -1.94208 5.14357 0
M  V30 5074 H 478.5 -2.46855 6.32645 0
M  V30 5075 H 476.446 -4.2662 4.98328 0
M  V30 5076 H 476.363 -3.67098 6.6089 0
M  V30 5077 H 477.631 -4.77325 6.16264 0
M  V30 5078 N 481.861 -1.55662 -0.24637 0
M  V30 5079 C 483.107 -1.78698 -0.971525 0
M  V30 5080 C 483.462 -0.59577 -1.82944 0
M  V30 5081 O 482.755 0.41097 -1.87141 0
M  V30 5082 C 482.949 -3.04885 -1.86494 0
M  V30 5083 C 482.778 -4.36165 -1.09501 0
M  V30 5084 C 481.548 -4.98929 -0.799895 0
M  V30 5085 C 483.746 -5.12126 -0.472334 0
M  V30 5086 N 481.728 -6.139 -0.00595299 0
M  V30 5087 C 483.099 -6.1972 0.18616 0
M  V30 5088 C 485.154 -4.96426 -0.382854 0
M  V30 5089 C 483.857 -7.13321 0.925542 0
M  V30 5090 C 485.883 -5.90405 0.342999 0
M  V30 5091 C 485.245 -6.97407 0.990128 0
M  V30 5092 H 481.344 -0.705852 -0.336597 0
M  V30 5093 H 483.928 -1.93157 -0.244615 0
M  V30 5094 H 482.099 -2.91753 -2.56388 0
M  V30 5095 H 483.831 -3.16212 -2.5257 0
M  V30 5096 H 480.586 -4.60365 -1.11181 0
M  V30 5097 H 481.01 -6.75938 0.379127 0
M  V30 5098 H 485.652 -4.13777 -0.868834 0
M  V30 5099 H 483.37 -7.9547 1.42312 0
M  V30 5100 H 486.956 -5.80333 0.412907 0
M  V30 5101 H 485.836 -7.68874 1.54282 0
M  V30 5102 N 483.339 0.512053 -1.4905 0
M  V30 5103 C 484.249 1.64139 -1.67617 0
M  V30 5104 C 485.265 1.64786 -0.558701 0
M  V30 5105 O 486.441 1.8341 -0.832034 0
M  V30 5106 C 483.506 3.00548 -1.72835 0
M  V30 5107 C 482.567 3.10615 -2.96339 0
M  V30 5108 C 481.8 4.40517 -3.01298 0
M  V30 5109 O 482.023 5.28671 -2.14157 0
M  V30 5110 O 480.957 4.55325 -3.93653 0
M  V30 5111 H 484.783 1.51407 -2.63267 0
M  V30 5112 H 482.368 0.687131 -1.32661 0
M  V30 5113 H 484.25 3.81641 -1.78683 0
M  V30 5114 H 482.925 3.13566 -0.803616 0
M  V30 5115 H 481.832 2.2875 -2.96014 0
M  V30 5116 H 483.165 3.0252 -3.88256 0
M  V30 5117 N 484.817 1.37938 0.762283 0
M  V30 5118 C 485.765 1.34569 1.89721 0
M  V30 5119 C 486.759 0.232929 1.67791 0
M  V30 5120 O 487.965 0.401485 1.75465 0
M  V30 5121 H 484.34 0.419594 0.624055 0
M  V30 5122 H 486.311 2.30357 1.8968 0
M  V30 5123 C 485.06 1.17898 3.27101 0
M  V30 5124 H 484.383 2.02781 3.44558 0
M  V30 5125 H 485.823 1.19593 4.06784 0
M  V30 5126 C 484.282 -0.114728 3.36705 0
M  V30 5127 O 484.812 -1.0949 3.8649 0
M  V30 5128 N 483.018 -0.16863 2.9011 0
M  V30 5129 H 482.565 0.62967 2.49786 0
M  V30 5130 H 482.523 -1.03383 2.96916 0
M  V30 5131 N 486.295 -0.989507 1.22664 0
M  V30 5132 C 487.225 -2.09847 1.02404 0
M  V30 5133 C 488.206 -1.70007 -0.0561303 0
M  V30 5134 O 489.391 -1.93906 0.106748 0
M  V30 5135 C 486.521 -3.41996 0.604663 0
M  V30 5136 C 485.475 -3.95699 1.63115 0
M  V30 5137 C 484.801 -5.23936 1.0675 0
M  V30 5138 C 486.101 -4.25999 3.02196 0
M  V30 5139 H 487.795 -2.27054 1.95158 0
M  V30 5140 H 485.341 -1.09111 0.939727 0
M  V30 5141 H 487.294 -4.1899 0.45002 0
M  V30 5142 H 486.018 -3.24626 -0.35855 0
M  V30 5143 H 484.677 -3.2084 1.77362 0
M  V30 5144 H 484.325 -5.02909 0.0955422 0
M  V30 5145 H 484.025 -5.60833 1.75328 0
M  V30 5146 H 485.549 -6.0356 0.924516 0
M  V30 5147 H 486.963 -4.93777 2.91303 0
M  V30 5148 H 485.36 -4.74076 3.67929 0
M  V30 5149 H 486.43 -3.33636 3.51873 0
M  V30 5150 N 487.773 -1.03688 -1.18687 0
M  V30 5151 C 488.683 -0.634908 -2.25845 0
M  V30 5152 C 489.699 0.337065 -1.70704 0
M  V30 5153 O 490.875 0.192943 -2.00474 0
M  V30 5154 C 487.94 -0.000180054 -3.467 0
M  V30 5155 C 487.001 -1.02067 -4.1699 0
M  V30 5156 C 486.234 -0.41614 -5.32075 0
M  V30 5157 O 486.457 0.778712 -5.65059 0
M  V30 5158 O 485.391 -1.14296 -5.90948 0
M  V30 5159 H 489.217 -1.52757 -2.62486 0
M  V30 5160 H 486.802 -0.807533 -1.25695 0
M  V30 5161 H 488.684 0.353342 -4.19916 0
M  V30 5162 H 487.359 0.866367 -3.11891 0
M  V30 5163 H 486.266 -1.42592 -3.45859 0
M  V30 5164 H 487.599 -1.85786 -4.5579 0
M  V30 5165 N 489.251 1.34841 -0.815825 0
M  V30 5166 C 490.491 2.00321 -0.406297 0
M  V30 5167 C 490.855 1.63293 1.00992 0
M  V30 5168 O 492.056 2.21563 1.52195 0
M  V30 5169 C 490.327 3.52421 -0.594469 0
M  V30 5170 S 491.886 4.37926 -0.276735 0
M  V30 5171 H 488.704 0.694155 -0.153848 0
M  V30 5172 H 491.306 1.64263 -1.06009 0
M  V30 5173 H 490.01 3.76858 -1.625 0
M  V30 5174 H 489.541 3.9333 0.0743157 0
M  V30 5175 H 491.556 4.87743 0.912215 0
M  V30 5176 N 490.729 0.570148 1.46925 0
M  V30 5177 C 491.975 0.0510284 2.02736 0
M  V30 5178 C 492.308 -1.3006 1.44215 0
M  V30 5179 O 491.583 -1.84932 0.602521 0
M  V30 5180 C 491.866 -0.028215 3.60089 0
M  V30 5181 C 491.719 1.35142 4.29018 0
M  V30 5182 C 493.038 -0.735181 4.33916 0
M  V30 5183 H 490.157 0.0200178 0.736728 0
M  V30 5184 H 492.799 0.73493 1.75211 0
M  V30 5185 H 490.949 -0.610648 3.83671 0
M  V30 5186 H 492.621 1.97806 4.16738 0
M  V30 5187 H 490.864 1.9226 3.88868 0
M  V30 5188 H 491.535 1.24857 5.37694 0
M  V30 5189 H 494.011 -0.240519 4.15404 0
M  V30 5190 H 492.887 -0.759622 5.43618 0
M  V30 5191 H 493.148 -1.79397 4.04066 0
M  V30 5192 N 492.207 -1.54576 0.307264 0
M  V30 5193 C 493.139 -2.21212 -0.599807 0
M  V30 5194 C 494.152 -1.20685 -1.09266 0
M  V30 5195 O 495.341 -1.47244 -1.00903 0
M  V30 5196 C 492.441 -2.84994 -1.83389 0
M  V30 5197 C 491.614 -4.11511 -1.48248 0
M  V30 5198 C 490.673 -4.59038 -2.57237 0
M  V30 5199 O 489.699 -5.24095 -2.22065 0
M  V30 5200 N 490.901 -4.31884 -3.87887 0
M  V30 5201 H 493.666 -2.99686 -0.0293075 0
M  V30 5202 H 491.227 -1.61379 0.129738 0
M  V30 5203 H 493.219 -3.1372 -2.5566 0
M  V30 5204 H 491.789 -2.10324 -2.31263 0
M  V30 5205 H 491.009 -3.89728 -0.592122 0
M  V30 5206 H 492.297 -4.93879 -1.22316 0
M  V30 5207 H 491.695 -3.79778 -4.19268 0
M  V30 5208 H 490.252 -4.65304 -4.56438 0
M  V30 5209 N 493.685 -0.035106 -1.57561 0
M  V30 5210 C 494.632 0.94474 -2.10578 0
M  V30 5211 C 495.602 1.3192 -1.00927 0
M  V30 5212 O 496.787 1.41147 -1.28382 0
M  V30 5213 C 493.927 2.21982 -2.64231 0
M  V30 5214 C 493.04 1.90128 -3.87911 0
M  V30 5215 C 492.175 3.11975 -4.29936 0
M  V30 5216 C 491.214 2.75968 -5.46359 0
M  V30 5217 N 490.351 3.90459 -5.83512 0
M  V30 5218 H 495.191 0.485717 -2.94015 0
M  V30 5219 H 492.728 0.228143 -1.4532 0
M  V30 5220 H 494.686 2.96572 -2.9343 0
M  V30 5221 H 493.316 2.6549 -1.83616 0
M  V30 5222 H 492.368 1.05755 -3.65404 0
M  V30 5223 H 493.68 1.59613 -4.72573 0
M  V30 5224 H 492.834 3.9488 -4.60603 0
M  V30 5225 H 491.573 3.45657 -3.44053 0
M  V30 5226 H 490.578 1.91478 -5.1538 0
M  V30 5227 H 491.803 2.43497 -6.33945 0
M  V30 5228 H 489.749 4.23971 -5.00584 0
M  V30 5229 H 489.666 3.63588 -6.62827 0
M  V30 5230 H 490.934 4.7405 -6.18787 0
M  V30 5231 N 495.163 1.55791 0.238111 0
M  V30 5232 C 496.093 1.94068 1.29846 0
M  V30 5233 C 497.074 0.806726 1.49753 0
M  V30 5234 O 498.259 1.06772 1.62214 0
M  V30 5235 C 495.389 2.24302 2.65153 0
M  V30 5236 C 494.343 3.40032 2.59927 0
M  V30 5237 C 493.669 3.55829 3.99111 0
M  V30 5238 C 494.969 4.75476 2.16148 0
M  V30 5239 H 496.663 2.82887 0.980563 0
M  V30 5240 H 494.209 1.36105 0.470253 0
M  V30 5241 H 496.162 2.4967 3.39475 0
M  V30 5242 H 494.886 1.32318 2.98596 0
M  V30 5243 H 493.545 3.14687 1.88063 0
M  V30 5244 H 493.193 2.6125 4.29834 0
M  V30 5245 H 492.893 4.3366 3.96501 0
M  V30 5246 H 494.417 3.83528 4.7512 0
M  V30 5247 H 495.831 5.00158 2.80205 0
M  V30 5248 H 494.228 5.56472 2.24631 0
M  V30 5249 H 495.298 4.71946 1.11333 0
M  V30 5250 N 496.642 -0.504142 1.49319 0
M  V30 5251 C 497.89 -1.25598 1.58334 0
M  V30 5252 C 498.211 -1.93114 0.270538 0
M  V30 5253 O 497.481 -1.82585 -0.709891 0
M  V30 5254 H 496.061 -0.466571 0.58337 0
M  V30 5255 H 498.723 -0.584547 1.85928 0
M  V30 5256 H 497.819 -2.02159 2.37778 0
M  V30 5257 N 498.12 -1.38341 -0.754957 0
M  V30 5258 C 499.35 -1.37504 -1.54195 0
M  V30 5259 C 499.758 0.0373787 -1.89163 0
M  V30 5260 O 499.101 1.01402 -1.53178 0
M  V30 5261 C 499.163 -2.16488 -2.87008 0
M  V30 5262 C 498.827 -3.65311 -2.74585 0
M  V30 5263 C 499.824 -4.58834 -2.44474 0
M  V30 5264 C 497.509 -4.08649 -2.9208 0
M  V30 5265 C 499.503 -5.93675 -2.32011 0
M  V30 5266 C 497.19 -5.43571 -2.79237 0
M  V30 5267 C 498.188 -6.35898 -2.49245 0
M  V30 5268 O 497.876 -7.68338 -2.36458 0
M  V30 5269 H 497.608 -0.472159 -0.483779 0
M  V30 5270 H 500.162 -1.82515 -0.94221 0
M  V30 5271 H 498.392 -1.66194 -3.49166 0
M  V30 5272 H 500.081 -2.08076 -3.4851 0
M  V30 5273 H 500.847 -4.26657 -2.30627 0
M  V30 5274 H 496.726 -3.37134 -3.14422 0
M  V30 5275 H 500.27 -6.65706 -2.08522 0
M  V30 5276 H 496.167 -5.75345 -2.92657 0
M  V30 5277 H 496.935 -7.78845 -2.5168 0
M  V30 5278 N 499.598 0.982988 -1.23187 0
M  V30 5279 C 500.847 1.71817 -1.05649 0
M  V30 5280 C 501.16 1.91315 0.407176 0
M  V30 5281 O 502.366 2.62256 0.702436 0
M  V30 5282 C 500.822 3.09188 -1.84203 0
M  V30 5283 C 500.43 2.97586 -3.34882 0
M  V30 5284 C 502.174 3.86684 -1.75146 0
M  V30 5285 C 500.081 4.30173 -4.05839 0
M  V30 5286 H 499.011 0.644258 -0.391724 0
M  V30 5287 H 501.662 1.09659 -1.4713 0
M  V30 5288 H 500.044 3.72087 -1.35527 0
M  V30 5289 H 501.218 2.43793 -3.91026 0
M  V30 5290 H 499.533 2.33567 -3.44725 0
M  V30 5291 H 502.13 4.84836 -2.25473 0
M  V30 5292 H 502.473 4.10136 -0.713737 0
M  V30 5293 H 503.006 3.30482 -2.21419 0
M  V30 5294 H 499.745 4.11918 -5.09906 0
M  V30 5295 H 499.265 4.83841 -3.54482 0
M  V30 5296 H 500.944 4.98873 -4.11989 0
M  V30 5297 N 501.076 1.04316 1.18135 0
M  V30 5298 C 502.316 0.756937 1.89868 0
M  V30 5299 C 502.68 -0.702609 1.78682 0
M  V30 5300 O 503.881 -1.10255 2.45148 0
M  V30 5301 C 502.152 1.21327 3.36176 0
M  V30 5302 S 503.711 1.05307 4.25976 0
M  V30 5303 H 500.529 0.275143 0.655604 0
M  V30 5304 H 503.131 1.33597 1.42731 0
M  V30 5305 H 501.835 2.27086 3.41848 0
M  V30 5306 H 501.366 0.628137 3.88353 0
M  V30 5307 H 503.381 -0.0280093 4.96192 0
M  V30 5308 N 502.554 -1.34406 0.822964 0
M  V30 5309 C 503.501 -2.29519 0.24284 0
M  V30 5310 C 504.471 -1.5359 -0.632397 0
M  V30 5311 O 505.656 -1.8196 -0.57403 0
M  V30 5312 C 502.796 -3.40032 -0.58925 0
M  V30 5313 C 501.909 -4.30899 0.308236 0
M  V30 5314 C 501.044 -5.28515 -0.533425 0
M  V30 5315 C 500.083 -6.1102 0.363444 0
M  V30 5316 N 499.22 -7.00725 -0.439147 0
M  V30 5317 H 504.06 -2.78537 1.05929 0
M  V30 5318 H 501.597 -1.3707 0.533872 0
M  V30 5319 H 503.555 -4.0279 -1.087 0
M  V30 5320 H 502.185 -2.92248 -1.37081 0
M  V30 5321 H 501.237 -3.69002 0.924203 0
M  V30 5322 H 502.549 -4.88717 0.997862 0
M  V30 5323 H 501.703 -5.96725 -1.09565 0
M  V30 5324 H 500.442 -4.71235 -1.25656 0
M  V30 5325 H 499.447 -5.41743 0.937812 0
M  V30 5326 H 500.672 -6.70381 1.08469 0
M  V30 5327 H 498.618 -6.45913 -1.14595 0
M  V30 5328 H 498.535 -7.55756 0.19209 0
M  V30 5329 H 499.803 -7.73263 -0.984124 0
M  V30 5330 N 504.032 -0.577932 -1.46621 0
M  V30 5331 C 504.979 0.158048 -2.30258 0
M  V30 5332 C 505.949 0.888669 -1.40328 0
M  V30 5333 O 507.134 0.880283 -1.6928 0
M  V30 5334 C 504.274 1.16884 -3.24703 0
M  V30 5335 C 503.387 0.442163 -4.29731 0
M  V30 5336 C 502.522 1.44007 -5.11308 0
M  V30 5337 C 501.561 0.69952 -6.0809 0
M  V30 5338 N 500.698 1.64525 -6.82551 0
M  V30 5339 H 505.538 -0.561242 -2.92667 0
M  V30 5340 H 503.075 -0.288591 -1.44241 0
M  V30 5341 H 505.033 1.7677 -3.779 0
M  V30 5342 H 503.663 1.85591 -2.64113 0
M  V30 5343 H 502.715 -0.271632 -3.79429 0
M  V30 5344 H 504.027 -0.136992 -4.98612 0
M  V30 5345 H 503.181 2.11186 -5.68758 0
M  V30 5346 H 501.92 2.05315 -4.42377 0
M  V30 5347 H 500.925 0.0139217 -5.49798 0
M  V30 5348 H 502.15 0.091894 -6.79038 0
M  V30 5349 H 500.096 2.24653 -6.16334 0
M  V30 5350 H 500.013 1.11878 -7.47676 0
M  V30 5351 H 501.281 2.30754 -7.44562 0
M  V30 5352 N 505.51 1.54411 -0.315457 0
M  V30 5353 C 506.758 2.00023 0.288971 0
M  V30 5354 C 507.079 1.20529 1.5329 0
M  V30 5355 O 506.349 0.304986 1.93511 0
M  V30 5356 H 504.929 0.738891 0.109766 0
M  V30 5357 H 507.591 1.90094 -0.430129 0
M  V30 5358 H 506.687 3.07198 0.550999 0
M  V30 5359 N 506.988 0.0434614 1.5754 0
M  V30 5360 C 507.936 -0.951465 2.1225 0
M  V30 5361 C 508.93 -1.3274 1.05245 0
M  V30 5362 O 510.136 -1.30795 1.23663 0
M  V30 5363 H 506.511 -0.324667 0.678303 0
M  V30 5364 H 508.482 -0.464855 2.94757 0
M  V30 5365 C 507.231 -2.21972 2.67626 0
M  V30 5366 H 506.554 -1.93923 3.4962 0
M  V30 5367 H 507.994 -2.89765 3.09536 0
M  V30 5368 C 506.453 -2.95919 1.61038 0
M  V30 5369 O 506.983 -3.8857 1.01862 0
M  V30 5370 N 505.189 -2.58511 1.32741 0
M  V30 5371 H 504.736 -1.83244 1.81051 0
M  V30 5372 H 504.694 -3.08296 0.616531 0
M  V30 5373 N 508.466 -1.55915 -0.229846 0
M  V30 5374 C 509.694 -1.82617 -0.972562 0
M  V30 5375 C 510.109 -0.621488 -1.78278 0
M  V30 5376 O 509.466 0.409956 -1.77836 0
M  V30 5377 C 509.517 -3.0774 -1.89679 0
M  V30 5378 O 509.238 -4.23559 -1.11934 0
M  V30 5379 C 510.739 -3.47368 -2.75409 0
M  V30 5380 H 507.959 -0.60727 -0.285419 0
M  V30 5381 H 510.503 -2.02996 -0.247579 0
M  V30 5382 H 508.658 -2.89361 -2.57583 0
M  V30 5383 H 509.072 -4.94586 -1.74599 0
M  V30 5384 H 510.546 -4.37977 -3.35977 0
M  V30 5385 H 511.023 -2.68737 -3.47386 0
M  V30 5386 H 511.629 -3.68158 -2.12931 0
M  V30 5387 N 509.944 0.496216 -1.49584 0
M  V30 5388 C 511.172 1.27394 -1.63029 0
M  V30 5389 C 511.587 1.86344 -0.303569 0
M  V30 5390 O 510.944 1.68057 0.711547 0
M  V30 5391 C 510.995 2.40077 -2.70269 0
M  V30 5392 O 510.716 1.83549 -3.97796 0
M  V30 5393 C 512.217 3.31372 -2.94462 0
M  V30 5394 H 509.437 0.386211 -0.54871 0
M  V30 5395 H 511.981 0.595163 -1.95648 0
M  V30 5396 H 510.136 3.03775 -2.40415 0
M  V30 5397 H 510.55 2.57561 -4.56905 0
M  V30 5398 H 512.024 4.06707 -3.73221 0
M  V30 5399 H 512.501 3.88654 -2.0456 0
M  V30 5400 H 513.107 2.73435 -3.25751 0
M  V30 5401 N 511.423 1.38739 0.74761 0
M  V30 5402 C 512.353 1.39173 1.87492 0
M  V30 5403 C 513.334 0.256794 1.6815 0
M  V30 5404 O 514.519 0.460762 1.88655 0
M  V30 5405 C 511.649 1.22197 3.25093 0
M  V30 5406 C 510.603 2.32957 3.59047 0
M  V30 5407 C 509.929 2.01082 4.95449 0
M  V30 5408 C 511.229 3.75237 3.6331 0
M  V30 5409 H 512.923 2.3351 1.87386 0
M  V30 5410 H 510.469 1.12399 0.900134 0
M  V30 5411 H 512.422 1.21124 4.03617 0
M  V30 5412 H 511.146 0.243241 3.25693 0
M  V30 5413 H 509.805 2.33226 2.82845 0
M  V30 5414 H 509.453 1.01678 4.92616 0
M  V30 5415 H 509.153 2.75267 5.19136 0
M  V30 5416 H 510.677 2.01638 5.76346 0
M  V30 5417 H 512.091 3.76966 4.31937 0
M  V30 5418 H 510.488 4.48677 3.98509 0
M  V30 5419 H 511.558 4.07122 2.634 0
M  V30 5420 N 512.901 -0.976442 1.23707 0
M  V30 5421 C 513.849 -2.09078 1.01927 0
M  V30 5422 C 514.843 -1.69345 -0.0430193 0
M  V30 5423 O 516.049 -1.79659 0.110814 0
M  V30 5424 H 512.424 -0.68398 0.312531 0
M  V30 5425 H 514.395 -2.24614 1.96447 0
M  V30 5426 C 513.144 -3.41919 0.631385 0
M  V30 5427 H 512.467 -3.72946 1.44053 0
M  V30 5428 H 513.907 -4.20817 0.518532 0
M  V30 5429 C 512.366 -3.30357 -0.660723 0
M  V30 5430 O 512.896 -3.63542 -1.70881 0
M  V30 5431 N 511.102 -2.83507 -0.638139 0
M  V30 5432 H 510.649 -2.567 0.215108 0
M  V30 5433 H 510.607 -2.76153 -1.50289 0
M  V30 5434 N 514.379 -1.04941 -1.1758 0
M  V30 5435 C 515.604 -0.778253 -1.92245 0
M  V30 5436 C 516.029 0.659707 -1.76152 0
M  V30 5437 O 515.387 1.45803 -1.07755 0
M  V30 5438 C 515.435 -1.16051 -3.41416 0
M  V30 5439 O 514.539 -0.291153 -4.11371 0
M  V30 5440 H 513.88 -0.285619 -0.599431 0
M  V30 5441 H 516.41 -1.40159 -1.49052 0
M  V30 5442 H 516.42 -1.12619 -3.92149 0
M  V30 5443 H 515.095 -2.208 -3.52449 0
M  V30 5444 H 513.672 -0.385851 -3.70898 0
M  V30 5445 N 515.857 1.33968 -0.830081 0
M  V30 5446 C 517.104 1.98063 -0.421566 0
M  V30 5447 C 517.432 1.65787 1.0171 0
M  V30 5448 O 516.687 0.925348 1.72441 0
M  V30 5449 C 516.986 3.52679 -0.57898 0
M  V30 5450 C 516.652 4.04884 -1.98443 0
M  V30 5451 C 515.314 4.18852 -2.36888 0
M  V30 5452 C 517.666 4.32879 -2.90285 0
M  V30 5453 C 514.994 4.58145 -3.66497 0
M  V30 5454 C 517.346 4.7362 -4.19364 0
M  V30 5455 C 516.01 4.85794 -4.57778 0
M  V30 5456 H 515.28 0.724765 -0.154262 0
M  V30 5457 H 517.927 1.59792 -1.05541 0
M  V30 5458 H 516.232 3.91556 0.138219 0
M  V30 5459 H 517.929 4.00261 -0.243317 0
M  V30 5460 H 514.519 3.9448 -1.67581 0
M  V30 5461 H 518.703 4.21619 -2.61823 0
M  V30 5462 H 513.959 4.65762 -3.96075 0
M  V30 5463 H 518.133 4.9424 -4.90612 0
M  V30 5464 H 515.76 5.15998 -5.58256 0
M  V30 5465 N 517.335 0.585699 1.46312 0
M  V30 5466 C 518.581 0.0725284 2.0267 0
M  V30 5467 C 518.914 -1.28523 1.45586 0
M  V30 5468 O 518.189 -1.84283 0.622101 0
M  V30 5469 C 518.472 0.0099788 3.60099 0
M  V30 5470 C 518.325 1.39685 4.27561 0
M  V30 5471 C 519.644 -0.689117 4.34671 0
M  V30 5472 H 516.763 0.0278307 0.736474 0
M  V30 5473 H 519.405 0.753472 1.74421 0
M  V30 5474 H 517.555 -0.56992 3.84297 0
M  V30 5475 H 519.227 2.02215 4.14617 0
M  V30 5476 H 517.47 1.96374 3.86807 0
M  V30 5477 H 518.141 1.30553 5.36339 0
M  V30 5478 H 520.617 -0.196446 4.15636 0
M  V30 5479 H 519.493 -0.701921 5.44393 0
M  V30 5480 H 519.754 -1.75101 4.05946 0
M  V30 5481 N 518.813 -1.54241 0.323641 0
M  V30 5482 C 520.062 -1.9975 -0.279806 0
M  V30 5483 C 520.375 -1.2156 -1.5324 0
M  V30 5484 O 521.581 -1.57447 -2.21185 0
M  V30 5485 C 520.037 -3.55686 -0.549115 0
M  V30 5486 C 519.645 -4.4271 0.686432 0
M  V30 5487 C 521.389 -4.09663 -1.11251 0
M  V30 5488 C 519.296 -5.90119 0.389022 0
M  V30 5489 H 518.226 -0.746177 -0.10833 0
M  V30 5490 H 520.877 -1.78248 0.435877 0
M  V30 5491 H 519.259 -3.73176 -1.32499 0
M  V30 5492 H 520.433 -4.36996 1.46188 0
M  V30 5493 H 518.748 -3.99623 1.17005 0
M  V30 5494 H 521.345 -5.17386 -1.34965 0
M  V30 5495 H 521.688 -3.61651 -2.06191 0
M  V30 5496 H 522.221 -3.95806 -0.39782 0
M  V30 5497 H 518.96 -6.42326 1.30759 0
M  V30 5498 H 518.48 -5.98785 -0.348722 0
M  V30 5499 H 520.159 -6.47 -0.0011164 0
M  V30 5500 N 520.291 -0.0518155 -1.57515 0
M  V30 5501 C 521.702 0.483787 -1.80323 0
M  V30 5502 C 522.053 1.70879 -0.964099 0
M  V30 5503 O 521.178 2.15643 -0.180872 0
M  V30 5504 C 521.773 0.884459 -3.27052 0
M  V30 5505 C 520.332 1.36504 -3.50776 0
M  V30 5506 C 519.479 0.340539 -2.75201 0
M  V30 5507 H 522.43 -0.277691 -1.56252 0
M  V30 5508 H 522.451 1.74733 -3.38007 0
M  V30 5509 H 521.963 -0.00731093 -3.88099 0
M  V30 5510 H 520.064 2.27598 -2.95009 0
M  V30 5511 H 520.177 1.35675 -4.59488 0
M  V30 5512 H 518.541 0.81356 -2.41357 0
M  V30 5513 H 519.324 -0.543156 -3.38976 0
M  V30 5514 N 521.769 1.56035 0.221574 0
M  V30 5515 C 522.994 1.83476 0.967026 0
M  V30 5516 C 523.419 0.632139 1.7716 0
M  V30 5517 O 522.777 -0.419082 1.7639 0
M  V30 5518 C 522.825 3.08907 1.86034 0
M  V30 5519 O 521.929 2.876 2.95567 0
M  V30 5520 H 521.27 0.604913 0.273817 0
M  V30 5521 H 523.8 2.03247 0.234893 0
M  V30 5522 H 523.81 3.3901 2.27016 0
M  V30 5523 H 522.485 3.96068 1.26898 0
M  V30 5524 H 521.062 2.6873 2.58532 0
M  V30 5525 N 523.247 -0.488276 1.49845 0
M  V30 5526 C 524.157 -1.61451 1.70207 0
M  V30 5527 C 525.173 -1.63877 0.584846 0
M  V30 5528 O 526.349 -1.82063 0.861107 0
M  V30 5529 C 523.414 -2.9776 1.77594 0
M  V30 5530 C 522.475 -3.05861 3.01243 0
M  V30 5531 C 521.708 -4.35668 3.08268 0
M  V30 5532 O 521.931 -5.25197 2.22541 0
M  V30 5533 O 520.865 -4.49005 4.00847 0
M  V30 5534 H 524.691 -1.47199 2.65643 0
M  V30 5535 H 522.276 -0.665939 1.33737 0
M  V30 5536 H 524.158 -3.7875 1.84732 0
M  V30 5537 H 522.833 -3.12248 0.8534 0
M  V30 5538 H 521.74 -2.24012 2.99616 0
M  V30 5539 H 523.073 -2.96304 3.9302 0
M  V30 5540 N 524.725 -1.39134 -0.740242 0
M  V30 5541 C 525.95 -1.39518 -1.53459 0
M  V30 5542 C 526.375 0.00968883 -1.88098 0
M  V30 5543 O 525.733 0.995312 -1.51536 0
M  V30 5544 C 525.781 -2.26981 -2.802 0
M  V30 5545 O 524.885 -1.69609 -3.75908 0
M  V30 5546 H 524.226 -0.475328 -0.463637 0
M  V30 5547 H 526.756 -1.83064 -0.913717 0
M  V30 5548 H 526.766 -2.41309 -3.28989 0
M  V30 5549 H 525.441 -3.29081 -2.5432 0
M  V30 5550 H 524.018 -1.64495 -3.34658 0
M  V30 5551 N 526.204 0.969867 -1.24223 0
M  V30 5552 C 527.481 1.68774 -0.988664 0
M  V30 5553 C 527.861 2.05342 0.489673 0
M  V30 5554 O 527.209 1.75486 1.46345 0
M  V30 5555 C 527.419 2.92135 -1.90941 0
M  V30 5556 C 528.767 3.64422 -2.17903 0
M  V30 5557 O 529.791 3.02188 -1.88576 0
M  V30 5558 O 528.65 4.76446 -2.67697 0
M  V30 5559 H 525.744 0.737736 -0.37373 0
M  V30 5560 H 528.29 1.02415 -1.35312 0
M  V30 5561 H 527.062 2.61788 -2.90831 0
M  V30 5562 H 526.685 3.66228 -1.54798 0
M  V30 5563 N 527.682 1.05563 1.17022 0
M  V30 5564 C 528.928 0.769074 1.87652 0
M  V30 5565 C 529.261 -0.702326 1.81055 0
M  V30 5566 O 528.536 -1.5139 1.22112 0
M  V30 5567 C 528.819 1.25492 3.37526 0
M  V30 5568 C 528.672 2.78953 3.52853 0
M  V30 5569 C 529.991 0.856919 4.31677 0
M  V30 5570 H 527.11 0.280854 0.681388 0
M  V30 5571 H 529.752 1.31027 1.37593 0
M  V30 5572 H 527.902 0.794516 3.80289 0
M  V30 5573 H 529.574 3.33146 3.19079 0
M  V30 5574 H 527.817 3.18046 2.95007 0
M  V30 5575 H 528.488 3.08011 4.58076 0
M  V30 5576 H 530.964 1.25334 3.96775 0
M  V30 5577 H 529.84 1.22443 5.35069 0
M  V30 5578 H 530.101 -0.238787 4.41455 0
M  V30 5579 N 529.16 -1.33526 0.837174 0
M  V30 5580 C 530.571 -1.80182 0.489017 0
M  V30 5581 C 530.922 -1.69285 -0.991826 0
M  V30 5582 O 530.047 -1.24113 -1.77271 0
M  V30 5583 C 530.642 -3.27149 0.880866 0
M  V30 5584 C 529.201 -3.71828 0.584872 0
M  V30 5585 C 528.348 -2.54974 1.09011 0
M  V30 5586 H 531.299 -1.21071 1.02603 0
M  V30 5587 H 531.32 -3.80024 0.190239 0
M  V30 5588 H 530.832 -3.35048 1.95869 0
M  V30 5589 H 528.933 -3.69457 -0.48295 0
M  V30 5590 H 529.046 -4.65366 1.13892 0
M  V30 5591 H 527.41 -2.4952 0.511047 0
M  V30 5592 H 528.193 -2.65637 2.17467 0
M  V30 5593 N 530.638 -0.59345 -1.46 0
M  V30 5594 C 531.866 -0.0890934 -2.06708 0
M  V30 5595 C 532.281 1.2205 -1.44046 0
M  V30 5596 O 531.638 1.74029 -0.549551 0
M  V30 5597 C 531.689 0.0720263 -3.61428 0
M  V30 5598 O 531.41 -1.18574 -4.21748 0
M  V30 5599 C 532.911 0.609487 -4.3909 0
M  V30 5600 H 530.131 -0.0623628 -0.668096 0
M  V30 5601 H 532.675 -0.817171 -1.87464 0
M  V30 5602 H 530.83 0.750369 -3.80063 0
M  V30 5603 H 531.244 -1.0064 -5.14754 0
M  V30 5604 H 532.718 0.671363 -5.47902 0
M  V30 5605 H 533.195 1.62878 -4.07882 0
M  V30 5606 H 533.801 -0.03434 -4.25286 0
M  V30 5607 N 532.116 1.54067 -0.331816 0
M  V30 5608 C 533.066 2.21363 0.546101 0
M  V30 5609 C 534.05 1.19698 1.07523 0
M  V30 5610 O 535.242 1.45293 1.01088 0
M  V30 5611 C 532.371 2.98115 1.70242 0
M  V30 5612 C 531.457 4.07127 1.18779 0
M  V30 5613 N 531.848 5.04267 0.393465 0
M  V30 5614 C 530.146 4.21226 1.46576 0
M  V30 5615 C 530.847 5.81585 0.115572 0
M  V30 5616 N 529.823 5.39022 0.703987 0
M  V30 5617 H 533.625 2.93821 -0.0679751 0
M  V30 5618 H 531.139 1.61812 -0.138085 0
M  V30 5619 H 533.136 3.44818 2.34321 0
M  V30 5620 H 531.796 2.27181 2.31989 0
M  V30 5621 H 532.807 5.17888 0.0355757 0
M  V30 5622 H 529.484 3.61509 2.08848 0
M  V30 5623 H 530.874 6.6985 -0.524426 0
M  V30 5624 N 533.594 0.0601682 1.57485 0
M  V30 5625 C 534.834 -0.615384 1.94916 0
M  V30 5626 C 535.198 -1.67475 0.938948 0
M  V30 5627 O 536.399 -2.40502 1.20051 0
M  V30 5628 C 534.67 -1.18788 3.37082 0
M  V30 5629 S 536.229 -1.88018 3.96478 0
M  V30 5630 H 533.047 -0.201821 0.681754 0
M  V30 5631 H 535.649 0.131252 1.95059 0
M  V30 5632 H 534.353 -0.404869 4.08398 0
M  V30 5633 H 533.884 -1.97114 3.40455 0
M  V30 5634 H 535.899 -3.16161 3.82435 0
M  V30 5635 N 535.072 -1.5615 -0.213296 0
M  V30 5636 C 536.483 -1.69645 -0.779582 0
M  V30 5637 C 536.834 -0.663615 -1.84636 0
M  V30 5638 O 535.959 0.183633 -2.15619 0
M  V30 5639 C 536.554 -3.07567 -1.42084 0
M  V30 5640 C 535.113 -3.22889 -1.93442 0
M  V30 5641 C 534.26 -2.65581 -0.797612 0
M  V30 5642 H 537.211 -1.58696 0.0114951 0
M  V30 5643 H 537.232 -3.03884 -2.28986 0
M  V30 5644 H 536.744 -3.82716 -0.644187 0
M  V30 5645 H 534.845 -2.52623 -2.73884 0
M  V30 5646 H 534.958 -4.30197 -2.10872 0
M  V30 5647 H 533.322 -2.24278 -1.20712 0
M  V30 5648 H 534.105 -3.43284 -0.033494 0
M  V30 5649 N 536.55 0.480323 -1.50102 0
M  V30 5650 C 537.775 1.26126 -1.64642 0
M  V30 5651 C 538.2 1.85257 -0.325823 0
M  V30 5652 O 537.558 1.66854 0.709194 0
M  V30 5653 C 537.606 2.35243 -2.73301 0
M  V30 5654 O 536.71 3.39646 -2.33911 0
M  V30 5655 H 536.051 0.371463 -0.550374 0
M  V30 5656 H 538.581 0.572696 -1.96421 0
M  V30 5657 H 538.591 2.80695 -2.96098 0
M  V30 5658 H 537.266 1.91574 -3.6915 0
M  V30 5659 H 535.843 2.99969 -2.21525 0
M  V30 5660 N 538.028 1.39524 0.732853 0
M  V30 5661 C 538.96 1.34318 1.85718 0
M  V30 5662 C 539.973 0.251576 1.60844 0
M  V30 5663 O 541.162 0.510685 1.71039 0
M  V30 5664 C 538.262 1.06334 3.21786 0
M  V30 5665 C 537.435 2.26813 3.73998 0
M  V30 5666 C 536.494 1.95253 4.88634 0
M  V30 5667 O 535.52 2.67957 5.02183 0
M  V30 5668 N 536.722 0.919984 5.73164 0
M  V30 5669 H 539.487 2.3121 1.90688 0
M  V30 5670 H 537.048 1.33654 0.91368 0
M  V30 5671 H 539.04 0.832363 3.96048 0
M  V30 5672 H 537.61 0.181682 3.12072 0
M  V30 5673 H 536.83 2.65849 2.91064 0
M  V30 5674 H 538.118 3.0717 4.05616 0
M  V30 5675 H 537.516 0.317487 5.64808 0
M  V30 5676 H 536.073 0.748905 6.47483 0
M  V30 5677 N 539.506 -0.963266 1.24736 0
M  V30 5678 C 540.752 -1.71 1.10139 0
M  V30 5679 C 541.107 -1.89089 -0.35541 0
M  V30 5680 O 540.4 -1.44451 -1.25875 0
M  V30 5681 C 540.594 -3.09944 1.7796 0
M  V30 5682 C 540.423 -3.05408 3.30085 0
M  V30 5683 C 539.193 -3.09643 3.99311 0
M  V30 5684 C 541.391 -2.87241 4.26611 0
M  V30 5685 N 539.373 -2.95174 5.3828 0
M  V30 5686 C 540.744 -2.81114 5.52607 0
M  V30 5687 C 542.799 -2.71856 4.17132 0
M  V30 5688 C 541.502 -2.61174 6.70209 0
M  V30 5689 C 543.528 -2.53284 5.34417 0
M  V30 5690 C 542.89 -2.4787 6.59348 0
M  V30 5691 H 538.989 -0.634078 0.457678 0
M  V30 5692 H 541.573 -1.14169 1.57713 0
M  V30 5693 H 539.744 -3.64958 1.32893 0
M  V30 5694 H 541.476 -3.73348 1.56183 0
M  V30 5695 H 538.231 -3.18498 3.50508 0
M  V30 5696 H 538.655 -2.91168 6.11188 0
M  V30 5697 H 543.297 -2.74821 3.21299 0
M  V30 5698 H 541.015 -2.56952 7.6616 0
M  V30 5699 H 544.601 -2.42317 5.28936 0
M  V30 5700 H 543.481 -2.33685 7.48573 0
M  V30 5701 N 540.985 -1.06182 -1.16461 0
M  V30 5702 C 542.231 -0.788825 -1.87481 0
M  V30 5703 C 542.586 0.677298 -1.80085 0
M  V30 5704 O 541.879 1.48976 -1.20486 0
M  V30 5705 C 542.073 -1.21633 -3.36066 0
M  V30 5706 C 541.902 -2.72247 -3.57927 0
M  V30 5707 C 540.672 -3.39696 -3.74079 0
M  V30 5708 C 542.87 -3.70461 -3.56739 0
M  V30 5709 N 540.852 -4.79072 -3.83879 0
M  V30 5710 C 542.223 -4.95616 -3.72511 0
M  V30 5711 C 544.278 -3.63788 -3.39945 0
M  V30 5712 C 542.981 -6.14895 -3.73225 0
M  V30 5713 C 545.007 -4.82517 -3.41953 0
M  V30 5714 C 544.369 -6.065 -3.58242 0
M  V30 5715 H 540.468 -0.341034 -0.703719 0
M  V30 5716 H 543.052 -1.35575 -1.39741 0
M  V30 5717 H 541.223 -0.67725 -3.8245 0
M  V30 5718 H 542.955 -0.892119 -3.94745 0
M  V30 5719 H 539.71 -2.90097 -3.74354 0
M  V30 5720 H 540.134 -5.51573 -3.92551 0
M  V30 5721 H 544.776 -2.68888 -3.26281 0
M  V30 5722 H 542.494 -7.10129 -3.85672 0
M  V30 5723 H 546.08 -4.79017 -3.30203 0
M  V30 5724 H 544.96 -6.96833 -3.59712 0
M  V30 5725 N 542.463 1.3308 -0.844243 0
M  V30 5726 C 543.874 1.7992 -0.498566 0
M  V30 5727 C 544.225 1.69808 0.982834 0
M  V30 5728 O 543.35 1.25051 1.7661 0
M  V30 5729 C 543.945 3.26677 -0.898204 0
M  V30 5730 C 542.504 3.71513 -0.604583 0
M  V30 5731 C 541.651 2.54393 -1.10362 0
M  V30 5732 H 544.602 1.20526 -1.03244 0
M  V30 5733 H 544.623 3.79918 -0.21039 0
M  V30 5734 H 544.135 3.34004 -1.97643 0
M  V30 5735 H 542.236 3.69708 0.46335 0
M  V30 5736 H 542.349 4.64755 -1.16358 0
M  V30 5737 H 540.713 2.49246 -0.524273 0
M  V30 5738 H 541.496 2.6448 -2.18873 0
M  V30 5739 N 543.941 0.601185 1.45683 0
M  V30 5740 C 545.171 0.0999093 2.06358 0
M  V30 5741 C 545.579 -1.21831 1.44754 0
M  V30 5742 O 544.922 -1.75157 0.553695 0
M  V30 5743 C 544.984 -0.12085 3.59297 0
M  V30 5744 C 544.648 1.11459 4.432 0
M  V30 5745 C 545.645 2.03118 4.7858 0
M  V30 5746 C 543.33 1.34162 4.84051 0
M  V30 5747 C 545.324 3.15814 5.53661 0
M  V30 5748 C 543.011 2.4716 5.58888 0
M  V30 5749 C 544.009 3.37814 5.93608 0
M  V30 5750 O 543.697 4.48846 6.66928 0
M  V30 5751 H 543.429 0.0630316 0.673055 0
M  V30 5752 H 545.983 0.826982 1.88016 0
M  V30 5753 H 544.213 -0.902744 3.76015 0
M  V30 5754 H 545.902 -0.572925 4.01836 0
M  V30 5755 H 546.668 1.86801 4.47583 0
M  V30 5756 H 542.547 0.645018 4.56465 0
M  V30 5757 H 546.091 3.86596 5.8068 0
M  V30 5758 H 541.988 2.63432 5.89299 0
M  V30 5759 H 542.756 4.47446 6.85371 0
M  V30 5760 N 545.419 -1.53889 0.339982 0
M  V30 5761 C 546.382 -2.23547 -0.50592 0
M  V30 5762 C 547.382 -1.23445 -1.03044 0
M  V30 5763 O 548.572 -1.47909 -0.920253 0
M  V30 5764 C 545.704 -2.95234 -1.7044 0
M  V30 5765 H 546.897 -2.99722 0.103247 0
M  V30 5766 H 544.45 -1.56033 0.0912804 0
M  V30 5767 H 545.185 -2.23236 -2.35236 0
M  V30 5768 H 544.97 -3.68654 -1.33553 0
M  V30 5769 H 546.46 -3.48258 -2.30447 0
M  V30 5770 N 546.897 -0.0685191 -1.57451 0
M  V30 5771 C 548.145 0.60016 -1.92983 0
M  V30 5772 C 548.466 1.70348 -0.949028 0
M  V30 5773 O 547.736 1.959 0.00335647 0
M  V30 5774 H 546.316 0.224682 -0.712409 0
M  V30 5775 H 548.978 -0.125605 -1.94495 0
M  V30 5776 H 548.074 1.02759 -2.94698 0
M  V30 5777 N 548.375 1.56261 0.205012 0
M  V30 5778 C 549.325 1.90155 1.25798 0
M  V30 5779 C 550.309 0.766227 1.41484 0
M  V30 5780 O 551.501 1.02893 1.44021 0
M  V30 5781 C 548.63 2.23603 2.60493 0
M  V30 5782 C 547.716 3.43568 2.48639 0
M  V30 5783 N 548.107 4.61747 2.06455 0
M  V30 5784 C 546.405 3.4751 2.79558 0
M  V30 5785 C 547.106 5.43907 2.06253 0
M  V30 5786 N 546.082 4.84051 2.47377 0
M  V30 5787 H 549.884 2.79031 0.922986 0
M  V30 5788 H 547.398 1.57048 0.413501 0
M  V30 5789 H 549.395 2.46067 3.36537 0
M  V30 5790 H 548.055 1.36049 2.94823 0
M  V30 5791 H 549.066 4.86598 1.77321 0
M  V30 5792 H 545.743 2.70345 3.18151 0
M  V30 5793 H 547.133 6.48542 1.75622 0
M  V30 5794 N 549.853 -0.472356 1.50355 0
M  V30 5795 C 551.093 -1.23439 1.62918 0
M  V30 5796 C 551.457 -1.89284 0.321801 0
M  V30 5797 O 552.658 -2.66854 0.322852 0
M  V30 5798 C 550.929 -2.25119 2.7759 0
M  V30 5799 S 552.488 -3.10278 3.10279 0
M  V30 5800 H 549.306 -0.41911 0.574341 0
M  V30 5801 H 551.908 -0.531621 1.88133 0
M  V30 5802 H 550.612 -1.75324 3.71066 0
M  V30 5803 H 550.143 -3.00026 2.54457 0
M  V30 5804 H 552.158 -4.26257 2.54007 0
M  V30 5805 N 551.331 -1.39911 -0.725443 0
M  V30 5806 C 552.561 -1.40744 -1.51244 0
M  V30 5807 C 552.969 -0.00275403 -1.892 0
M  V30 5808 O 552.312 0.981299 -1.55294 0
M  V30 5809 C 552.374 -2.22527 -2.82351 0
M  V30 5810 C 552.038 -3.71053 -2.66774 0
M  V30 5811 C 553.035 -4.63916 -2.34686 0
M  V30 5812 C 550.72 -4.14753 -2.83347 0
M  V30 5813 C 552.714 -5.98463 -2.19366 0
M  V30 5814 C 550.401 -5.49372 -2.67644 0
M  V30 5815 C 551.399 -6.41042 -2.357 0
M  V30 5816 O 551.087 -7.73181 -2.20107 0
M  V30 5817 H 550.819 -0.482314 -0.473655 0
M  V30 5818 H 553.373 -1.84472 -0.903284 0
M  V30 5819 H 551.603 -1.73563 -3.45562 0
M  V30 5820 H 553.292 -2.15421 -3.44018 0
M  V30 5821 H 554.058 -4.31453 -2.21525 0
M  V30 5822 H 549.937 -3.43728 -3.072 0
M  V30 5823 H 553.481 -6.69979 -1.94354 0
M  V30 5824 H 549.378 -5.81424 -2.80387 0
M  V30 5825 H 550.146 -7.84008 -2.35103 0
M  V30 5826 N 552.809 0.956637 -1.25245 0
M  V30 5827 C 553.756 2.053 -1.05454 0
M  V30 5828 C 554.726 1.66062 0.0356889 0
M  V30 5829 O 555.911 1.90415 -0.121099 0
M  V30 5830 C 553.051 3.38391 -0.677191 0
M  V30 5831 C 552.164 3.90758 -1.84206 0
M  V30 5832 C 551.299 5.12165 -1.40926 0
M  V30 5833 C 550.338 5.56757 -2.54338 0
M  V30 5834 N 549.475 6.69376 -2.11848 0
M  V30 5835 H 554.315 2.21562 -1.99284 0
M  V30 5836 H 551.852 1.08578 -0.992434 0
M  V30 5837 H 553.81 4.1488 -0.43938 0
M  V30 5838 H 552.44 3.22021 0.224127 0
M  V30 5839 H 551.492 3.10808 -2.19323 0
M  V30 5840 H 552.804 4.19802 -2.69383 0
M  V30 5841 H 551.958 5.96065 -1.13098 0
M  V30 5842 H 550.697 4.84832 -0.528175 0
M  V30 5843 H 549.702 4.71423 -2.82913 0
M  V30 5844 H 550.927 5.861 -3.43022 0
M  V30 5845 H 548.873 6.43756 -1.26153 0
M  V30 5846 H 548.79 6.97927 -2.90574 0
M  V30 5847 H 550.058 7.5669 -1.87191 0
M  V30 5848 N 554.287 1.06798 1.15896 0
M  V30 5849 C 555.536 0.782796 1.8589 0
M  V30 5850 C 555.849 -0.693498 1.82893 0
M  V30 5851 O 557.055 -1.09325 2.48516 0
M  V30 5852 C 555.511 1.3502 3.33613 0
M  V30 5853 C 555.119 2.8571 3.45071 0
M  V30 5854 C 556.863 1.14278 4.08829 0
M  V30 5855 C 554.77 3.35669 4.86909 0
M  V30 5856 H 553.7 0.289149 0.696354 0
M  V30 5857 H 556.351 1.28734 1.30766 0
M  V30 5858 H 554.733 0.773407 3.88374 0
M  V30 5859 H 555.907 3.49385 3.00445 0
M  V30 5860 H 554.222 3.05178 2.83294 0
M  V30 5861 H 556.819 1.49087 5.13495 0
M  V30 5862 H 557.162 0.0814575 4.1622 0
M  V30 5863 H 557.695 1.68563 3.60321 0
M  V30 5864 H 554.434 4.41302 4.84698 0
M  V30 5865 H 553.954 2.76745 5.32139 0
M  V30 5866 H 555.633 3.31296 5.55745 0
M  V30 5867 N 555.766 -1.3263 0.851289 0
M  V30 5868 C 556.716 -2.26451 0.265302 0
M  V30 5869 C 557.7 -1.49814 -0.586899 0
M  V30 5870 O 558.892 -1.71525 -0.436834 0
M  V30 5871 C 556.021 -3.38895 -0.548212 0
M  V30 5872 C 555.107 -4.2292 0.316189 0
M  V30 5873 N 555.498 -4.86014 1.40084 0
M  V30 5874 C 553.796 -4.45876 0.105356 0
M  V30 5875 C 554.497 -5.48667 1.93235 0
M  V30 5876 N 553.473 -5.29455 1.232 0
M  V30 5877 H 557.275 -2.72757 1.09457 0
M  V30 5878 H 554.789 -1.4668 0.697047 0
M  V30 5879 H 556.786 -4.05111 -0.984402 0
M  V30 5880 H 555.446 -2.94135 -1.37531 0
M  V30 5881 H 556.457 -4.86212 1.78377 0
M  V30 5882 H 553.134 -4.11804 -0.687299 0
M  V30 5883 H 554.524 -6.08865 2.84135 0
M  V30 5884 N 557.244 -0.608902 -1.45362 0
M  V30 5885 C 558.66 -0.272659 -1.57254 0
M  V30 5886 C 558.86 1.22477 -1.60005 0
M  V30 5887 O 557.916 2.00785 -1.53106 0
M  V30 5888 C 559.229 -0.944991 -2.85465 0
M  V30 5889 C 560.777 -0.921033 -2.99142 0
M  V30 5890 C 561.252 -1.5734 -4.30126 0
M  V30 5891 N 562.743 -1.53895 -4.36887 0
M  V30 5892 C 563.478 -2.01286 -5.36909 0
M  V30 5893 N 562.974 -2.56768 -6.43461 0
M  V30 5894 N 564.767 -1.92046 -5.28275 0
M  V30 5895 H 556.918 -1.58117 -1.4182 0
M  V30 5896 H 559.181 -0.662437 -0.678146 0
M  V30 5897 H 558.887 -1.99941 -2.89338 0
M  V30 5898 H 558.761 -0.469079 -3.74272 0
M  V30 5899 H 561.148 0.124846 -2.94836 0
M  V30 5900 H 561.229 -1.43522 -2.11743 0
M  V30 5901 H 560.873 -2.61862 -4.35191 0
M  V30 5902 H 560.803 -1.03422 -5.16344 0
M  V30 5903 H 563.294 -1.13366 -3.60495 0
M  V30 5904 H 563.607 -2.9072 -7.16032 0
M  V30 5905 H 561.952 -2.60808 -6.44208 0
M  V30 5906 H 565.143 -1.48439 -4.43941 0
M  V30 5907 H 565.316 -2.29293 -6.06077 0
M  V30 5908 N 558.722 1.53707 -0.348139 0
M  V30 5909 C 559.999 1.93247 0.302475 0
M  V30 5910 C 560.379 1.28012 1.67857 0
M  V30 5911 O 559.727 0.43274 2.24365 0
M  V30 5912 C 559.937 3.47031 0.370159 0
M  V30 5913 C 561.285 4.20066 0.61882 0
M  V30 5914 O 562.309 3.53319 0.452087 0
M  V30 5915 O 561.168 5.38318 0.94215 0
M  V30 5916 H 558.262 0.807736 0.177458 0
M  V30 5917 H 560.808 1.64927 -0.399651 0
M  V30 5918 H 559.58 3.86745 -0.59534 0
M  V30 5919 H 559.203 3.81532 1.11888 0
M  V30 5920 N 560.2 0.0768682 1.57412 0
M  V30 5921 C 561.11 -0.903207 2.16516 0
M  V30 5922 C 562.126 -1.32341 1.12968 0
M  V30 5923 O 563.302 -1.39507 1.45258 0
M  V30 5924 C 560.367 -2.1508 2.71922 0
M  V30 5925 C 559.428 -1.78653 3.90361 0
M  V30 5926 C 558.661 -2.97465 4.43114 0
M  V30 5927 O 558.884 -4.11638 3.94854 0
M  V30 5928 O 557.818 -2.76987 5.3438 0
M  V30 5929 H 561.644 -0.430427 3.00634 0
M  V30 5930 H 559.229 -0.146485 1.4868 0
M  V30 5931 H 561.111 -2.8823 3.07411 0
M  V30 5932 H 559.786 -2.61446 1.9086 0
M  V30 5933 H 558.693 -1.0274 3.59716 0
M  V30 5934 H 560.026 -1.37066 4.7273 0
M  V30 5935 N 561.678 -1.56367 -0.196722 0
M  V30 5936 C 562.625 -1.94417 -1.24382 0
M  V30 5937 C 563.595 -0.804543 -1.45315 0
M  V30 5938 O 564.78 -1.06256 -1.58475 0
M  V30 5939 C 561.92 -2.28757 -2.58388 0
M  V30 5940 C 561.033 -3.55775 -2.45047 0
M  V30 5941 C 560.168 -3.79445 -3.71746 0
M  V30 5942 C 559.207 -4.99894 -3.53231 0
M  V30 5943 N 558.344 -5.19826 -4.71938 0
M  V30 5944 H 563.184 -2.83691 -0.912338 0
M  V30 5945 H 560.721 -1.40392 -0.439135 0
M  V30 5946 H 562.679 -2.46682 -3.36457 0
M  V30 5947 H 561.309 -1.42625 -2.89582 0
M  V30 5948 H 560.361 -3.45905 -1.58284 0
M  V30 5949 H 561.673 -4.44 -2.27299 0
M  V30 5950 H 560.827 -3.97601 -4.58256 0
M  V30 5951 H 559.566 -2.89546 -3.92446 0
M  V30 5952 H 558.571 -4.81662 -2.65107 0
M  V30 5953 H 559.796 -5.913 -3.33978 0
M  V30 5954 H 557.742 -4.32875 -4.92905 0
M  V30 5955 H 557.659 -6.02228 -4.57009 0
M  V30 5956 H 558.927 -5.42439 -5.59803 0
M  V30 5957 N 563.156 0.464375 -1.50603 0
M  V30 5958 C 564.103 1.56152 -1.69956 0
M  V30 5959 C 565.073 1.57046 -0.54091 0
M  V30 5960 O 566.258 1.74473 -0.772258 0
M  V30 5961 C 563.398 2.94079 -1.80586 0
M  V30 5962 C 562.511 3.02923 -3.07996 0
M  V30 5963 C 561.646 4.31806 -3.09382 0
M  V30 5964 C 560.685 4.34417 -4.31218 0
M  V30 5965 N 559.822 5.54782 -4.30304 0
M  V30 5966 H 564.662 1.38955 -2.6362 0
M  V30 5967 H 562.199 0.675482 -1.30674 0
M  V30 5968 H 564.157 3.74073 -1.8473 0
M  V30 5969 H 562.787 3.09896 -0.903556 0
M  V30 5970 H 561.839 2.1576 -3.13292 0
M  V30 5971 H 563.151 3.00712 -3.97962 0
M  V30 5972 H 562.305 5.20153 -3.12292 0
M  V30 5973 H 561.044 4.36636 -2.17257 0
M  V30 5974 H 560.049 3.44467 -4.28512 0
M  V30 5975 H 561.274 4.31273 -5.24576 0
M  V30 5976 H 559.22 5.60384 -3.41037 0
M  V30 5977 H 559.137 5.54339 -5.14047 0
M  V30 5978 H 560.405 6.45235 -4.3737 0
M  V30 5979 N 564.634 1.40294 0.718013 0
M  V30 5980 C 565.883 1.37746 1.4734 0
M  V30 5981 C 566.196 -0.0180754 1.95592 0
M  V30 5982 O 567.402 -0.166166 2.70991 0
M  V30 5983 C 565.858 2.4208 2.66318 0
M  V30 5984 C 565.466 3.87432 2.24945 0
M  V30 5985 C 567.21 2.48635 3.44065 0
M  V30 5986 C 565.117 4.83368 3.40748 0
M  V30 5987 H 564.047 0.512165 0.553356 0
M  V30 5988 H 566.698 1.66019 0.781661 0
M  V30 5989 H 565.08 2.06903 3.3765 0
M  V30 5990 H 566.254 4.3174 1.6105 0
M  V30 5991 H 564.569 3.8433 1.60249 0
M  V30 5992 H 567.166 3.17499 4.30231 0
M  V30 5993 H 567.509 1.51611 3.87711 0
M  V30 5994 H 568.042 2.82791 2.79775 0
M  V30 5995 H 564.781 5.81716 3.02136 0
M  V30 5996 H 564.301 4.43726 4.03568 0
M  V30 5997 H 565.98 5.03074 4.06848 0
M  V30 5998 N 566.112 -0.949982 1.2575 0
M  V30 5999 C 567.044 -2.05088 1.02331 0
M  V30 6000 C 568.057 -1.62795 -0.0133247 0
M  V30 6001 O 569.246 -1.77067 0.225759 0
M  V30 6002 C 566.346 -3.34794 0.525924 0
M  V30 6003 C 565.519 -4.05903 1.62978 0
M  V30 6004 C 564.578 -5.1388 1.13196 0
M  V30 6005 O 563.604 -5.39072 1.82729 0
M  V30 6006 N 564.806 -5.80495 -0.0242926 0
M  V30 6007 H 567.571 -2.25747 1.97125 0
M  V30 6008 H 565.132 -1.11886 1.17018 0
M  V30 6009 H 567.124 -4.04312 0.177263 0
M  V30 6010 H 565.694 -3.10872 -0.328202 0
M  V30 6011 H 564.914 -3.3042 2.1498 0
M  V30 6012 H 566.202 -4.50166 2.37124 0
M  V30 6013 H 565.6 -5.62454 -0.605184 0
M  V30 6014 H 564.157 -6.51043 -0.313947 0
M  V30 6015 N 567.59 -1.07411 -1.15328 0
M  V30 6016 C 569.006 -0.799759 -1.38116 0
M  V30 6017 C 569.206 0.59572 -1.92493 0
M  V30 6018 O 568.262 1.35433 -2.13106 0
M  V30 6019 C 569.575 -1.87407 -2.35158 0
M  V30 6020 C 571.123 -1.89889 -2.48819 0
M  V30 6021 C 571.598 -2.96406 -3.49153 0
M  V30 6022 N 573.089 -2.95512 -3.56689 0
M  V30 6023 C 573.824 -3.74575 -4.34144 0
M  V30 6024 N 573.32 -4.63488 -5.14928 0
M  V30 6025 N 575.113 -3.62919 -4.29239 0
M  V30 6026 H 567.264 -1.97411 -0.78374 0
M  V30 6027 H 569.527 -0.856113 -0.407154 0
M  V30 6028 H 569.233 -2.8768 -2.0232 0
M  V30 6029 H 569.107 -1.73471 -3.34944 0
M  V30 6030 H 571.494 -0.902677 -2.80955 0
M  V30 6031 H 571.575 -2.07904 -1.49029 0
M  V30 6032 H 571.219 -3.96227 -3.17752 0
M  V30 6033 H 571.149 -2.75638 -4.48699 0
M  V30 6034 H 573.64 -2.31061 -2.99031 0
M  V30 6035 H 573.953 -5.20445 -5.71276 0
M  V30 6036 H 572.298 -4.67537 -5.14232 0
M  V30 6037 H 575.489 -2.92833 -3.65194 0
M  V30 6038 H 575.662 -4.24777 -4.89355 0
M  V30 6039 N 569.068 1.32177 -0.85831 0
M  V30 6040 C 570.345 1.91781 -0.384624 0
M  V30 6041 C 570.725 1.78171 1.13217 0
M  V30 6042 O 570.073 1.18209 1.95548 0
M  V30 6043 C 570.283 3.38414 -0.853047 0
M  V30 6044 C 571.631 4.15542 -0.872359 0
M  V30 6045 O 572.655 3.47148 -0.797926 0
M  V30 6046 O 571.514 5.37678 -0.978009 0
M  V30 6047 H 568.608 0.819259 -0.112886 0
M  V30 6048 H 571.154 1.40923 -0.945453 0
M  V30 6049 H 569.926 3.4228 -1.89632 0
M  V30 6050 H 569.549 3.96683 -0.269874 0
M  V30 6051 N 570.547 0.616602 1.45037 0
M  V30 6052 C 571.51 -0.0871112 2.29034 0
M  V30 6053 C 572.51 -0.786414 1.40258 0
M  V30 6054 O 573.7 -0.633207 1.62284 0
M  V30 6055 C 570.832 -1.13369 3.21497 0
M  V30 6056 H 572.025 0.651497 2.92738 0
M  V30 6057 H 569.578 0.376058 1.51709 0
M  V30 6058 H 570.313 -1.90277 2.62612 0
M  V30 6059 H 570.098 -0.636358 3.86902 0
M  V30 6060 H 571.588 -1.62627 3.84633 0
M  V30 6061 N 572.025 -1.5352 0.356285 0
M  V30 6062 C 572.955 -2.28372 -0.486661 0
M  V30 6063 C 573.936 -1.30432 -1.09185 0
M  V30 6064 O 575.121 -1.59291 -1.11085 0
M  V30 6065 C 572.251 -3.06604 -1.63129 0
M  V30 6066 C 571.205 -4.12154 -1.15381 0
M  V30 6067 C 570.531 -4.78415 -2.38796 0
M  V30 6068 C 571.831 -5.21724 -0.245179 0
M  V30 6069 H 573.525 -2.99083 0.137797 0
M  V30 6070 H 571.071 -1.43841 0.0677134 0
M  V30 6071 H 573.024 -3.57712 -2.22755 0
M  V30 6072 H 571.748 -2.33568 -2.28284 0
M  V30 6073 H 570.407 -3.61978 -0.580294 0
M  V30 6074 H 570.055 -4.01959 -3.02387 0
M  V30 6075 H 569.755 -5.49734 -2.07524 0
M  V30 6076 H 571.279 -5.32313 -2.99125 0
M  V30 6077 H 572.693 -5.68391 -0.748646 0
M  V30 6078 H 571.09 -6.00095 -0.0237608 0
M  V30 6079 H 572.16 -4.79596 0.715229 0
M  V30 6080 N 573.503 -0.0852151 -1.57369 0
M  V30 6081 C 574.731 0.58946 -1.98325 0
M  V30 6082 C 575.146 1.62333 -0.96403 0
M  V30 6083 O 574.503 1.82438 0.0476395 0
M  V30 6084 C 574.554 1.24604 -3.39347 0
M  V30 6085 O 574.275 0.253532 -4.37366 0
M  V30 6086 C 575.776 2.00726 -3.95252 0
M  V30 6087 H 572.996 0.158783 -0.651942 0
M  V30 6088 H 575.54 -0.161584 -2.03861 0
M  V30 6089 H 573.695 1.94808 -3.34856 0
M  V30 6090 H 574.109 0.726207 -5.19448 0
M  V30 6091 H 575.583 2.42039 -4.96106 0
M  V30 6092 H 576.06 2.86919 -3.32527 0
M  V30 6093 H 576.666 1.3536 -4.03185 0
M  V30 6094 N 574.981 1.5647 0.188427 0
M  V30 6095 C 576.209 1.85131 0.923803 0
M  V30 6096 C 576.624 0.668537 1.76567 0
M  V30 6097 O 575.981 -0.362662 1.7886 0
M  V30 6098 C 576.032 3.12661 1.81453 0
M  V30 6099 O 575.753 4.26378 1.00665 0
M  V30 6100 C 577.254 3.54548 2.66103 0
M  V30 6101 H 574.474 0.614624 0.269218 0
M  V30 6102 H 577.018 2.03581 0.193671 0
M  V30 6103 H 575.173 2.96088 2.49821 0
M  V30 6104 H 575.587 4.99041 1.61425 0
M  V30 6105 H 577.061 4.4673 3.24247 0
M  V30 6106 H 577.538 2.77853 3.40139 0
M  V30 6107 H 578.144 3.73674 2.03096 0
M  V30 6108 N 576.459 -0.456382 1.50847 0
M  V30 6109 C 577.699 -1.21704 1.64218 0
M  V30 6110 C 578.063 -1.88932 0.341859 0
M  V30 6111 O 579.264 -2.66497 0.351137 0
M  V30 6112 C 577.535 -2.22162 2.79962 0
M  V30 6113 S 579.094 -3.0697 3.13552 0
M  V30 6114 H 575.912 -0.412995 0.578754 0
M  V30 6115 H 578.514 -0.511637 1.88686 0
M  V30 6116 H 577.218 -1.71379 3.72904 0
M  V30 6117 H 576.749 -2.9731 2.57624 0
M  V30 6118 H 578.764 -4.23539 2.58513 0
M  V30 6119 N 577.937 -1.40673 -0.710563 0
M  V30 6120 C 579.353 -1.22813 -1.01928 0
M  V30 6121 C 579.553 -0.10687 -2.01216 0
M  V30 6122 O 578.609 0.533614 -2.46797 0
M  V30 6123 C 579.922 -2.57178 -1.5582 0
M  V30 6124 C 581.47 -2.64233 -1.67779 0
M  V30 6125 C 581.945 -3.98879 -2.25076 0
M  V30 6126 N 583.436 -4.00647 -2.32456 0
M  V30 6127 C 584.171 -5.01621 -2.77784 0
M  V30 6128 N 583.667 -6.12989 -3.22826 0
M  V30 6129 N 585.46 -4.88988 -2.77213 0
M  V30 6130 H 577.611 -2.12335 -0.05253 0
M  V30 6131 H 579.874 -0.9441 -0.085898 0
M  V30 6132 H 579.58 -3.39903 -0.903249 0
M  V30 6133 H 579.454 -2.78618 -2.54267 0
M  V30 6134 H 581.841 -1.81876 -2.3239 0
M  V30 6135 H 581.922 -2.46619 -0.679178 0
M  V30 6136 H 581.566 -4.81678 -1.61086 0
M  V30 6137 H 581.496 -4.13826 -3.25661 0
M  V30 6138 H 583.987 -3.20231 -2.0065 0
M  V30 6139 H 584.3 -6.85921 -3.55995 0
M  V30 6140 H 582.645 -6.16547 -3.20773 0
M  V30 6141 H 585.836 -4.01075 -2.41363 0
M  V30 6142 H 586.009 -5.67822 -3.12221 0
M  V30 6143 N 579.415 0.9433 -1.26252 0
M  V30 6144 C 580.362 2.0417 -1.07625 0
M  V30 6145 C 581.332 1.6609 0.0180738 0
M  V30 6146 O 582.517 1.90276 -0.141289 0
M  V30 6147 C 579.657 3.37653 -0.713043 0
M  V30 6148 C 578.77 3.88783 -1.8834 0
M  V30 6149 C 577.905 5.10642 -1.4635 0
M  V30 6150 C 576.944 5.54028 -2.60229 0
M  V30 6151 N 576.081 6.67092 -2.18936 0
M  V30 6152 H 580.921 2.19436 -2.01623 0
M  V30 6153 H 578.458 1.07519 -1.00389 0
M  V30 6154 H 580.416 4.14391 -0.483358 0
M  V30 6155 H 579.046 3.22241 0.18996 0
M  V30 6156 H 578.098 3.08464 -2.22608 0
M  V30 6157 H 579.41 4.16922 -2.73821 0
M  V30 6158 H 578.564 5.94832 -1.19414 0
M  V30 6159 H 577.303 4.84244 -0.579568 0
M  V30 6160 H 576.308 4.68396 -2.87898 0
M  V30 6161 H 577.533 5.82429 -3.49219 0
M  V30 6162 H 575.479 6.42381 -1.32974 0
M  V30 6163 H 575.396 6.94806 -2.97961 0
M  V30 6164 H 576.664 7.54662 -1.95206 0
M  V30 6165 N 580.893 1.08022 1.14757 0
M  V30 6166 C 581.803 0.718292 2.23333 0
M  V30 6167 C 582.819 -0.273477 1.71837 0
M  V30 6168 O 583.995 -0.118406 2.01052 0
M  V30 6169 C 581.06 0.128855 3.4646 0
M  V30 6170 C 580.121 1.17473 4.12915 0
M  V30 6171 C 579.354 0.61333 5.30164 0
M  V30 6172 O 579.577 -0.568458 5.6756 0
M  V30 6173 O 578.511 1.3615 5.86299 0
M  V30 6174 H 582.337 1.62394 2.56636 0
M  V30 6175 H 579.922 0.853628 1.22611 0
M  V30 6176 H 581.804 -0.197249 4.20938 0
M  V30 6177 H 580.479 -0.750014 3.14891 0
M  V30 6178 H 579.386 1.5533 3.40328 0
M  V30 6179 H 580.719 2.02574 4.48581 0
M  V30 6180 N 582.371 -1.3172 0.865308 0
M  V30 6181 C 583.619 -1.96487 0.472995 0
M  V30 6182 C 583.94 -1.68761 -0.976975 0
M  V30 6183 O 583.21 -1.00051 -1.68424 0
M  V30 6184 H 581.79 -0.726947 0.171922 0
M  V30 6185 H 584.452 -1.60612 1.10407 0
M  V30 6186 H 583.548 -3.0574 0.62687 0
M  V30 6187 N 583.85 -0.624285 -1.44708 0
M  V30 6188 C 585.098 -0.125802 -2.01708 0
M  V30 6189 C 585.418 1.2543 -1.49306 0
M  V30 6190 O 584.689 1.83198 -0.693924 0
M  V30 6191 H 583.269 -0.0435161 -0.745731 0
M  V30 6192 H 585.931 -0.809446 -1.77296 0
M  V30 6193 H 585.027 -0.0882734 -3.11975 0
M  V30 6194 N 585.328 1.53329 -0.364422 0
M  V30 6195 C 586.605 1.93557 0.281962 0
M  V30 6196 C 586.985 1.29786 1.6649 0
M  V30 6197 O 586.333 0.456512 2.23893 0
M  V30 6198 C 586.543 3.47405 0.333331 0
M  V30 6199 C 587.891 4.20699 0.574231 0
M  V30 6200 O 588.915 3.53779 0.414588 0
M  V30 6201 O 587.774 5.39287 0.885002 0
M  V30 6202 H 584.868 0.809573 0.168881 0
M  V30 6203 H 587.414 1.64494 -0.417121 0
M  V30 6204 H 586.186 3.86091 -0.636326 0
M  V30 6205 H 585.809 3.82697 1.07836 0
M  V30 6206 N 586.806 0.0935595 1.57322 0
M  V30 6207 C 587.736 -0.863062 2.16964 0
M  V30 6208 C 588.717 -1.29528 1.10256 0
M  V30 6209 O 589.902 -1.36245 1.38387 0
M  V30 6210 C 587.032 -2.12276 2.74875 0
M  V30 6211 C 585.986 -1.82921 3.86942 0
M  V30 6212 C 585.312 -3.15707 4.31548 0
M  V30 6213 C 586.612 -1.11737 5.10208 0
M  V30 6214 H 588.306 -0.366145 2.97153 0
M  V30 6215 H 585.852 -0.174673 1.42937 0
M  V30 6216 H 587.805 -2.79634 3.1525 0
M  V30 6217 H 586.529 -2.64248 1.91938 0
M  V30 6218 H 585.188 -1.17961 3.47103 0
M  V30 6219 H 584.836 -3.65563 3.45504 0
M  V30 6220 H 584.536 -2.96849 5.07104 0
M  V30 6221 H 586.06 -3.84226 4.74555 0
M  V30 6222 H 587.474 -1.69203 5.47762 0
M  V30 6223 H 585.871 -1.03064 5.91183 0
M  V30 6224 H 586.941 -0.0998818 4.84797 0
M  V30 6225 N 588.284 -1.56567 -0.180126 0
M  V30 6226 C 589.512 -1.85618 -0.913972 0
M  V30 6227 C 589.927 -0.677892 -1.7621 0
M  V30 6228 O 589.284 0.353171 -1.7905 0
M  V30 6229 C 589.335 -3.13619 -1.79793 0
M  V30 6230 O 589.056 -4.26906 -0.98402 0
M  V30 6231 C 590.557 -3.55954 -2.64219 0
M  V30 6232 H 587.777 -0.616043 -0.265954 0
M  V30 6233 H 590.321 -2.03681 -0.182872 0
M  V30 6234 H 588.476 -2.97409 -2.48247 0
M  V30 6235 H 588.89 -4.9989 -1.58776 0
M  V30 6236 H 590.364 -4.48444 -3.21873 0
M  V30 6237 H 590.841 -2.79653 -3.38661 0
M  V30 6238 H 591.447 -3.74746 -2.01111 0
M  V30 6239 N 589.762 0.448376 -1.51087 0
M  V30 6240 C 590.987 1.22605 -1.6728 0
M  V30 6241 C 591.412 1.84524 -0.365045 0
M  V30 6242 O 590.77 1.6832 0.673642 0
M  V30 6243 C 590.818 2.29393 -2.78229 0
M  V30 6244 O 589.922 3.34608 -2.41063 0
M  V30 6245 H 589.263 0.359705 -0.558129 0
M  V30 6246 H 591.793 0.530903 -1.97592 0
M  V30 6247 H 591.803 2.74352 -3.01986 0
M  V30 6248 H 590.478 1.83701 -3.73131 0
M  V30 6249 H 589.055 2.95202 -2.27838 0
M  V30 6250 N 591.24 1.41047 0.703093 0
M  V30 6251 C 592.489 1.39301 1.4587 0
M  V30 6252 C 592.802 0.00267077 1.956 0
M  V30 6253 O 594.008 -0.137414 2.71152 0
M  V30 6254 C 592.464 2.44891 2.63735 0
M  V30 6255 C 592.072 3.89796 2.20824 0
M  V30 6256 C 593.816 2.5227 3.41409 0
M  V30 6257 C 591.723 4.86955 3.35602 0
M  V30 6258 H 590.653 0.518005 0.547893 0
M  V30 6259 H 593.304 1.66839 0.764009 0
M  V30 6260 H 591.686 2.10472 3.35436 0
M  V30 6261 H 592.86 4.33424 1.56461 0
M  V30 6262 H 591.175 3.86008 1.56163 0
M  V30 6263 H 593.772 3.22044 4.26839 0
M  V30 6264 H 594.115 1.55714 3.86081 0
M  V30 6265 H 594.648 2.85742 2.7676 0
M  V30 6266 H 591.387 5.84888 2.9595 0
M  V30 6267 H 590.907 4.47982 3.98839 0
M  V30 6268 H 592.586 5.07361 4.01489 0
M  V30 6269 N 592.718 -0.936591 1.26751 0
M  V30 6270 C 593.668 -2.0219 1.05371 0
M  V30 6271 C 594.652 -1.60893 -0.0154112 0
M  V30 6272 O 595.844 -1.75843 0.202085 0
M  V30 6273 C 592.973 -3.36222 0.693541 0
M  V30 6274 C 592.059 -3.8399 1.80035 0
M  V30 6275 N 592.45 -4.0436 3.03852 0
M  V30 6276 C 590.748 -4.12945 1.685 0
M  V30 6277 C 591.449 -4.44 3.75818 0
M  V30 6278 N 590.425 -4.50966 3.03531 0
M  V30 6279 H 594.227 -2.15958 1.99347 0
M  V30 6280 H 591.741 -1.12277 1.17335 0
M  V30 6281 H 593.738 -4.13625 0.521513 0
M  V30 6282 H 592.398 -3.23821 -0.238693 0
M  V30 6283 H 593.409 -3.9092 3.39709 0
M  V30 6284 H 590.086 -4.09308 0.822986 0
M  V30 6285 H 591.476 -4.67914 4.82189 0
M  V30 6286 N 594.196 -1.08629 -1.14182 0
M  V30 6287 C 595.424 -0.838889 -1.8913 0
M  V30 6288 C 595.839 0.609153 -1.78703 0
M  V30 6289 O 595.196 1.41876 -1.14794 0
M  V30 6290 C 595.247 -1.25477 -3.39025 0
M  V30 6291 O 594.968 -2.64601 -3.49167 0
M  V30 6292 C 596.469 -1.03856 -4.30963 0
M  V30 6293 H 593.689 -0.302377 -0.599007 0
M  V30 6294 H 596.233 -1.44615 -1.44592 0
M  V30 6295 H 594.388 -0.691571 -3.81177 0
M  V30 6296 H 594.802 -2.81922 -4.42289 0
M  V30 6297 H 596.276 -1.37892 -5.345 0
M  V30 6298 H 596.753 0.0242522 -4.39193 0
M  V30 6299 H 597.359 -1.58731 -3.94569 0
M  V30 6300 N 595.674 1.31259 -0.872281 0
M  V30 6301 C 596.923 1.95893 -0.480493 0
M  V30 6302 C 597.236 1.697 0.972688 0
M  V30 6303 O 598.442 2.28214 1.47073 0
M  V30 6304 C 596.898 3.50705 -0.808342 0
M  V30 6305 C 596.506 3.85735 -2.27844 0
M  V30 6306 C 598.25 4.21719 -0.485136 0
M  V30 6307 C 596.157 5.33668 -2.54858 0
M  V30 6308 H 595.087 0.733182 -0.175955 0
M  V30 6309 H 597.738 1.49396 -1.0655 0
M  V30 6310 H 596.12 3.95706 -0.152558 0
M  V30 6311 H 597.294 3.51686 -2.97748 0
M  V30 6312 H 595.609 3.27792 -2.56791 0
M  V30 6313 H 598.206 5.30559 -0.664166 0
M  V30 6314 H 598.549 4.12316 0.574592 0
M  V30 6315 H 599.082 3.82359 -1.09756 0
M  V30 6316 H 595.821 5.48109 -3.59523 0
M  V30 6317 H 595.341 5.69061 -1.8955 0
M  V30 6318 H 597.02 6.00958 -2.39706 0
M  V30 6319 N 597.152 0.631951 1.44375 0
M  V30 6320 C 598.062 -0.073674 2.34484 0
M  V30 6321 C 599.078 -0.834825 1.52665 0
M  V30 6322 O 600.254 -0.786902 1.85391 0
M  V30 6323 C 597.319 -1.04247 3.30656 0
M  V30 6324 C 596.38 -0.280602 4.28382 0
M  V30 6325 C 595.613 -1.20325 5.19959 0
M  V30 6326 O 595.836 -2.44199 5.15484 0
M  V30 6327 O 594.77 -0.687128 5.97965 0
M  V30 6328 H 598.596 0.667477 2.96274 0
M  V30 6329 H 596.181 0.392144 1.44162 0
M  V30 6330 H 598.063 -1.59981 3.89851 0
M  V30 6331 H 596.738 -1.76422 2.71398 0
M  V30 6332 H 595.645 0.319804 3.72731 0
M  V30 6333 H 596.978 0.401144 4.90563 0
M  V30 6334 N 598.631 -1.53133 0.372548 0
M  V30 6335 C 599.541 -2.29671 -0.478379 0
M  V30 6336 C 600.557 -1.35913 -1.08644 0
M  V30 6337 O 601.733 -1.68975 -1.09588 0
M  V30 6338 C 598.798 -3.07625 -1.599 0
M  V30 6339 C 597.859 -4.17061 -1.01776 0
M  V30 6340 C 597.092 -4.91289 -2.08497 0
M  V30 6341 O 597.315 -4.65442 -3.29727 0
M  V30 6342 O 596.249 -5.7705 -1.71164 0
M  V30 6343 H 600.075 -3.03355 0.144649 0
M  V30 6344 H 597.66 -1.48773 0.136729 0
M  V30 6345 H 599.542 -3.56281 -2.25038 0
M  V30 6346 H 598.217 -2.3677 -2.2073 0
M  V30 6347 H 597.124 -3.72641 -0.330098 0
M  V30 6348 H 598.457 -4.90102 -0.453915 0
M  V30 6349 N 600.109 -0.101901 -1.5727 0
M  V30 6350 C 601.039 0.851544 -2.17419 0
M  V30 6351 C 602.02 1.28942 -1.10941 0
M  V30 6352 O 603.205 1.35509 -1.39107 0
M  V30 6353 C 600.335 2.10816 -2.75996 0
M  V30 6354 C 599.289 1.80867 -3.87906 0
M  V30 6355 C 598.615 3.13413 -4.33216 0
M  V30 6356 C 599.915 1.0903 -5.10793 0
M  V30 6357 H 601.609 0.350381 -2.97343 0
M  V30 6358 H 599.155 0.16709 -1.43027 0
M  V30 6359 H 601.108 2.77959 -3.16729 0
M  V30 6360 H 599.832 2.63227 -1.93337 0
M  V30 6361 H 598.491 1.16119 -3.47724 0
M  V30 6362 H 598.139 3.63725 -3.47438 0
M  V30 6363 H 597.839 2.94155 -5.08671 0
M  V30 6364 H 599.363 3.81704 -4.76586 0
M  V30 6365 H 600.777 1.66295 -5.48652 0
M  V30 6366 H 599.174 0.99927 -5.91722 0
M  V30 6367 H 600.244 0.0741704 -4.84843 0
M  V30 6368 N 601.587 1.56661 0.17182 0
M  V30 6369 C 602.864 1.72838 0.915778 0
M  V30 6370 C 603.244 0.66316 2.00413 0
M  V30 6371 O 602.592 -0.322123 2.26218 0
M  V30 6372 C 602.802 3.16019 1.48097 0
M  V30 6373 C 604.15 3.76962 1.95408 0
M  V30 6374 O 605.174 3.19294 1.57892 0
M  V30 6375 O 604.033 4.78219 2.64516 0
M  V30 6376 H 601.127 0.705797 0.431021 0
M  V30 6377 H 603.673 1.68947 0.159689 0
M  V30 6378 H 602.445 3.85031 0.697618 0
M  V30 6379 H 602.068 3.24234 2.30126 0
M  V30 6380 N 603.065 -0.440357 1.51323 0
M  V30 6381 C 604.312 -1.19004 1.63842 0
M  V30 6382 C 604.64 -1.91266 0.35321 0
M  V30 6383 O 603.895 -1.84143 -0.662565 0
M  V30 6384 C 604.194 -2.2339 2.78984 0
M  V30 6385 C 603.86 -1.68162 4.18369 0
M  V30 6386 C 602.522 -1.52823 4.56288 0
M  V30 6387 C 604.874 -1.27524 5.05358 0
M  V30 6388 C 602.202 -0.953157 5.78906 0
M  V30 6389 C 604.554 -0.714474 6.28552 0
M  V30 6390 C 603.218 -0.547961 6.65247 0
M  V30 6391 H 602.488 -0.435468 0.59954 0
M  V30 6392 H 605.135 -0.481538 1.85347 0
M  V30 6393 H 603.44 -3.00267 2.51688 0
M  V30 6394 H 605.137 -2.81211 2.85869 0
M  V30 6395 H 601.727 -1.81077 3.8847 0
M  V30 6396 H 605.911 -1.38197 4.76671 0
M  V30 6397 H 601.167 -0.811882 6.05986 0
M  V30 6398 H 605.341 -0.391059 6.95301 0
M  V30 6399 H 602.968 -0.100222 7.60134 0
M  V30 6400 N 604.543 -1.41418 -0.695603 0
M  V30 6401 C 605.792 -1.40073 -1.4513 0
M  V30 6402 C 606.105 -0.0130439 -1.95596 0
M  V30 6403 O 607.311 0.123032 -2.71221 0
M  V30 6404 C 605.767 -2.46286 -2.62433 0
M  V30 6405 C 605.375 -3.90962 -2.18753 0
M  V30 6406 C 607.119 -2.54077 -3.40066 0
M  V30 6407 C 605.026 -4.88728 -3.33015 0
M  V30 6408 H 603.956 -0.520903 -0.545138 0
M  V30 6409 H 606.607 -1.67242 -0.75515 0
M  V30 6410 H 604.989 -2.12248 -3.34315 0
M  V30 6411 H 606.163 -4.34248 -1.54161 0
M  V30 6412 H 604.478 -3.86831 -1.54114 0
M  V30 6413 H 607.075 -3.24303 -4.25125 0
M  V30 6414 H 607.418 -1.5776 -3.8525 0
M  V30 6415 H 607.951 -2.87206 -2.75241 0
M  V30 6416 H 604.69 -5.86449 -2.92844 0
M  V30 6417 H 604.21 -4.50091 -3.96457 0
M  V30 6418 H 605.889 -5.09483 -3.98793 0
M  V30 6419 N 606.021 0.929856 -1.27246 0
M  V30 6420 C 607.27 1.67182 -1.12842 0
M  V30 6421 C 607.583 1.9287 0.325666 0
M  V30 6422 O 608.789 2.64999 0.590572 0
M  V30 6423 C 607.245 3.01097 -1.97151 0
M  V30 6424 C 606.853 2.83115 -3.47203 0
M  V30 6425 C 608.597 3.78907 -1.91389 0
M  V30 6426 C 606.504 4.12573 -4.23719 0
M  V30 6427 H 605.434 0.627064 -0.418697 0
M  V30 6428 H 608.085 1.0332 -1.51649 0
M  V30 6429 H 606.467 3.66004 -1.51186 0
M  V30 6430 H 607.641 2.26989 -4.01015 0
M  V30 6431 H 605.956 2.18736 -3.54321 0
M  V30 6432 H 608.553 4.74837 -2.45834 0
M  V30 6433 H 608.896 4.0674 -0.887047 0
M  V30 6434 H 609.429 3.20794 -2.35237 0
M  V30 6435 H 606.168 3.8992 -5.26918 0
M  V30 6436 H 605.688 4.68371 -3.74685 0
M  V30 6437 H 607.367 4.8095 -4.32777 0
M  V30 6438 N 607.499 1.09233 1.13605 0
M  V30 6439 C 608.724 0.849067 1.89224 0
M  V30 6440 C 609.149 -0.593875 1.78479 0
M  V30 6441 O 608.507 -1.41703 1.13092 0
M  V30 6442 C 608.555 1.28642 3.36873 0
M  V30 6443 O 607.659 0.44363 4.10007 0
M  V30 6444 H 607 0.30767 0.588417 0
M  V30 6445 H 609.53 1.45595 1.43748 0
M  V30 6446 H 609.54 1.27096 3.87699 0
M  V30 6447 H 608.215 2.33729 3.44011 0
M  V30 6448 H 606.792 0.523241 3.69211 0
M  V30 6449 N 608.977 -1.30795 0.87923 0
M  V30 6450 C 609.909 -2.27241 0.299025 0
M  V30 6451 C 610.922 -1.53472 -0.543166 0
M  V30 6452 O 612.111 -1.74756 -0.363651 0
M  V30 6453 C 609.211 -3.33655 -0.593931 0
M  V30 6454 C 608.384 -4.36857 0.2179 0
M  V30 6455 C 607.443 -5.22715 -0.604646 0
M  V30 6456 O 606.469 -5.69192 -0.0293838 0
M  V30 6457 N 607.671 -5.48008 -1.91488 0
M  V30 6458 H 610.436 -2.77667 1.12788 0
M  V30 6459 H 607.997 -1.43914 0.741637 0
M  V30 6460 H 609.989 -3.88013 -1.15012 0
M  V30 6461 H 608.559 -2.83202 -1.32346 0
M  V30 6462 H 607.779 -3.82444 0.955536 0
M  V30 6463 H 609.067 -5.02869 0.774614 0
M  V30 6464 H 608.465 -5.1202 -2.40525 0
M  V30 6465 H 607.022 -6.05264 -2.41864 0
M  V30 6466 N 610.455 -0.639598 -1.44038 0
M  V30 6467 C 611.385 0.0469443 -2.33453 0
M  V30 6468 C 612.366 0.82609 -1.48694 0
M  V30 6469 O 613.551 0.790285 -1.77393 0
M  V30 6470 C 610.681 1.02338 -3.3188 0
M  V30 6471 C 609.635 0.355284 -4.26523 0
M  V30 6472 C 608.961 1.44221 -5.14883 0
M  V30 6473 C 610.261 -0.743798 -5.16977 0
M  V30 6474 H 611.955 -0.699735 -2.91108 0
M  V30 6475 H 609.501 -0.337946 -1.39978 0
M  V30 6476 H 611.454 1.51247 -3.93322 0
M  V30 6477 H 610.178 1.80105 -2.72451 0
M  V30 6478 H 608.837 -0.113239 -3.66425 0
M  V30 6479 H 608.485 2.21097 -4.51802 0
M  V30 6480 H 608.185 1.00052 -5.79019 0
M  V30 6481 H 609.709 1.93295 -5.79197 0
M  V30 6482 H 611.123 -0.337444 -5.72306 0
M  V30 6483 H 609.52 -1.10914 -5.89761 0
M  V30 6484 H 610.59 -1.60745 -4.57481 0
M  V30 6485 N 611.933 1.52934 -0.380664 0
M  V30 6486 C 613.181 2.01069 0.203874 0
M  V30 6487 C 613.502 1.26922 1.4804 0
M  V30 6488 O 612.772 0.386787 1.92044 0
M  V30 6489 H 611.352 0.742882 0.0783279 0
M  V30 6490 H 614.014 1.88099 -0.510368 0
M  V30 6491 H 613.11 3.09258 0.42021 0
M  V30 6492 N 613.412 0.11024 1.57214 0
M  V30 6493 C 614.642 -0.557025 1.98949 0
M  V30 6494 C 615.05 -1.61317 0.988606 0
M  V30 6495 O 614.393 -1.83679 -0.0279159 0
M  V30 6496 C 614.455 -1.24956 3.37085 0
M  V30 6497 C 614.119 -0.342398 4.55716 0
M  V30 6498 C 615.116 0.415511 5.18237 0
M  V30 6499 C 612.801 -0.256029 5.01647 0
M  V30 6500 C 614.795 1.24761 6.25071 0
M  V30 6501 C 612.482 0.579713 6.08344 0
M  V30 6502 C 613.48 1.33017 6.69922 0
M  V30 6503 O 613.168 2.15205 7.74559 0
M  V30 6504 H 612.9 -0.152792 0.658506 0
M  V30 6505 H 615.454 0.19076 2.04512 0
M  V30 6506 H 613.684 -2.04424 3.2825 0
M  V30 6507 H 615.373 -1.81286 3.63167 0
M  V30 6508 H 616.139 0.358605 4.83672 0
M  V30 6509 H 612.018 -0.829831 4.5347 0
M  V30 6510 H 615.562 1.83386 6.73064 0
M  V30 6511 H 611.459 0.638044 6.42339 0
M  V30 6512 H 612.227 2.08052 7.91617 0
M  V30 6513 N 614.89 -1.56749 -0.16351 0
M  V30 6514 C 615.8 -2.00255 -1.2221 0
M  V30 6515 C 616.816 -0.915194 -1.47987 0
M  V30 6516 O 617.992 -1.22342 -1.59982 0
M  V30 6517 C 615.057 -2.36035 -2.53946 0
M  V30 6518 C 614.118 -3.58637 -2.35962 0
M  V30 6519 C 613.351 -3.92701 -3.61416 0
M  V30 6520 O 613.574 -3.27632 -4.66919 0
M  V30 6521 O 612.508 -4.86019 -3.55062 0
M  V30 6522 H 616.334 -2.90586 -0.882794 0
M  V30 6523 H 613.919 -1.44721 -0.370978 0
M  V30 6524 H 615.801 -2.59982 -3.31643 0
M  V30 6525 H 614.476 -1.48863 -2.8744 0
M  V30 6526 H 613.383 -3.39898 -1.5627 0
M  V30 6527 H 614.716 -4.46374 -2.0739 0
M  V30 6528 N 616.368 0.432326 -1.51554 0
M  V30 6529 C 617.779 1.01202 -1.56892 0
M  V30 6530 C 618.13 1.92175 -0.395394 0
M  V30 6531 O 617.255 2.10844 0.487198 0
M  V30 6532 C 617.85 1.84217 -2.8434 0
M  V30 6533 C 616.409 2.37228 -2.92233 0
M  V30 6534 C 615.556 1.16576 -2.51606 0
M  V30 6535 H 618.507 0.213407 -1.57259 0
M  V30 6536 H 618.528 2.69721 -2.68385 0
M  V30 6537 H 618.04 1.17979 -3.69733 0
M  V30 6538 H 616.141 3.06905 -2.11282 0
M  V30 6539 H 616.254 2.69682 -3.95991 0
M  V30 6540 H 614.618 1.51263 -2.04919 0
M  V30 6541 H 615.401 0.519404 -3.39348 0
M  V30 6542 N 617.846 1.41785 0.688094 0
M  V30 6543 C 618.794 1.44436 1.82321 0
M  V30 6544 C 619.788 0.321544 1.6632 0
M  V30 6545 O 620.994 0.493931 1.73091 0
M  V30 6546 H 617.369 0.452084 0.600936 0
M  V30 6547 H 619.34 2.40087 1.77202 0
M  V30 6548 C 618.089 1.35071 3.20392 0
M  V30 6549 H 617.412 2.2076 3.33324 0
M  V30 6550 H 618.852 1.40988 3.99873 0
M  V30 6551 C 617.311 0.0639127 3.36839 0
M  V30 6552 O 617.841 -0.888495 3.91751 0
M  V30 6553 N 616.047 -0.0146114 2.90596 0
M  V30 6554 H 615.594 0.761191 2.46097 0
M  V30 6555 H 615.552 -0.874988 3.01979 0
M  V30 6556 N 619.324 -0.923095 1.27737 0
M  V30 6557 C 620.601 -1.64989 1.05062 0
M  V30 6558 C 620.981 -2.07018 -0.413124 0
M  V30 6559 O 620.329 -1.80797 -1.39731 0
M  V30 6560 C 620.539 -2.84847 2.01652 0
M  V30 6561 C 621.887 -3.56083 2.31279 0
M  V30 6562 O 622.911 -2.94981 1.99662 0
M  V30 6563 O 621.77 -4.66182 2.85196 0
M  V30 6564 H 618.864 -0.723357 0.400853 0
M  V30 6565 H 621.41 -0.973224 1.3902 0
M  V30 6566 H 620.182 -2.50814 3.00347 0
M  V30 6567 H 619.805 -3.60231 1.68284 0
M  V30 6568 N 620.802 -1.09834 -1.13024 0
M  V30 6569 C 621.712 -0.753731 -2.22162 0
M  V30 6570 C 622.728 0.246105 -1.72251 0
M  V30 6571 O 623.904 0.0864051 -2.01215 0
M  V30 6572 C 620.969 -0.183958 -3.46212 0
M  V30 6573 C 620.03 -1.24028 -4.10993 0
M  V30 6574 C 619.263 -0.697597 -5.29121 0
M  V30 6575 O 619.486 0.478092 -5.68393 0
M  V30 6576 O 618.42 -1.4546 -5.84059 0
M  V30 6577 H 622.246 -1.66456 -2.5402 0
M  V30 6578 H 619.831 -0.873026 -1.21238 0
M  V30 6579 H 621.713 0.130257 -4.21199 0
M  V30 6580 H 620.388 0.699823 -3.16045 0
M  V30 6581 H 619.295 -1.60725 -3.37814 0
M  V30 6582 H 620.628 -2.09685 -4.45301 0
M  V30 6583 N 622.28 1.30327 -0.886154 0
M  V30 6584 C 623.21 2.30549 -0.370028 0
M  V30 6585 C 624.191 1.61039 0.547751 0
M  V30 6586 O 625.376 1.8864 0.461353 0
M  V30 6587 C 622.506 3.44808 0.415275 0
M  V30 6588 C 621.46 4.26024 -0.41085 0
M  V30 6589 C 620.786 5.32347 0.501128 0
M  V30 6590 C 622.086 4.95433 -1.65359 0
M  V30 6591 H 623.78 2.73969 -1.20754 0
M  V30 6592 H 621.326 1.3171 -0.582097 0
M  V30 6593 H 623.279 4.13986 0.78699 0
M  V30 6594 H 622.003 3.00197 1.28644 0
M  V30 6595 H 620.662 3.58535 -0.764719 0
M  V30 6596 H 620.31 4.83982 1.37004 0
M  V30 6597 H 620.01 5.87581 -0.0478356 0
M  V30 6598 H 621.534 6.0438 0.869333 0
M  V30 6599 H 622.948 5.5712 -1.35239 0
M  V30 6600 H 621.345 5.60537 -2.14284 0
M  V30 6601 H 622.415 4.21493 -2.39733 0
M  V30 6602 N 623.758 0.647228 1.43697 0
M  V30 6603 C 625.004 0.167001 2.02713 0
M  V30 6604 C 625.359 -1.20351 1.50111 0
M  V30 6605 O 624.652 -1.79047 0.682113 0
M  V30 6606 C 624.846 0.111481 3.57226 0
M  V30 6607 C 624.675 1.47507 4.2482 0
M  V30 6608 C 623.445 2.06594 4.61137 0
M  V30 6609 C 625.643 2.41224 4.54219 0
M  V30 6610 N 623.625 3.3602 5.13774 0
M  V30 6611 C 624.996 3.55278 5.08112 0
M  V30 6612 C 627.051 2.40102 4.36183 0
M  V30 6613 C 625.754 4.68426 5.45866 0
M  V30 6614 C 627.78 3.52326 4.74995 0
M  V30 6615 C 627.142 4.65104 5.29015 0
M  V30 6616 H 623.241 0.105402 0.774864 0
M  V30 6617 H 625.825 0.854229 1.7496 0
M  V30 6618 H 623.996 -0.545073 3.84556 0
M  V30 6619 H 625.728 -0.379063 4.02921 0
M  V30 6620 H 622.483 1.59366 4.45981 0
M  V30 6621 H 622.907 4.02233 5.44552 0
M  V30 6622 H 627.549 1.54151 3.93697 0
M  V30 6623 H 625.267 5.55074 5.87298 0
M  V30 6624 H 628.853 3.52652 4.6274 0
M  V30 6625 H 627.733 5.50506 5.58492 0
M  V30 6626 N 625.236 -1.5273 0.388769 0
M  V30 6627 C 626.485 -2.00757 -0.194833 0
M  V30 6628 C 626.798 -1.27951 -1.47946 0
M  V30 6629 O 628.004 -1.66686 -2.14308 0
M  V30 6630 C 626.46 -3.57695 -0.397762 0
M  V30 6631 C 626.068 -4.394 0.873583 0
M  V30 6632 C 627.812 -4.14012 -0.937759 0
M  V30 6633 C 625.719 -5.87938 0.638962 0
M  V30 6634 H 624.649 -0.750101 -0.0765845 0
M  V30 6635 H 627.3 -1.76239 0.511086 0
M  V30 6636 H 625.682 -3.7846 -1.16552 0
M  V30 6637 H 626.856 -4.30403 1.64591 0
M  V30 6638 H 625.171 -3.94301 1.33849 0
M  V30 6639 H 627.768 -5.22645 -1.12899 0
M  V30 6640 H 628.111 -3.7007 -1.90666 0
M  V30 6641 H 628.644 -3.97137 -0.229588 0
M  V30 6642 H 625.383 -6.36202 1.57885 0
M  V30 6643 H 624.903 -5.99726 -0.094443 0
M  V30 6644 H 626.582 -6.46423 0.273299 0
M  V30 6645 N 626.714 -0.118576 -1.57153 0
M  V30 6646 C 627.962 0.538461 -1.94795 0
M  V30 6647 C 628.283 1.67243 -1.00274 0
M  V30 6648 O 627.553 1.95811 -0.0589692 0
M  V30 6649 H 626.133 0.201904 -0.719197 0
M  V30 6650 H 628.795 -0.187418 -1.93997 0
M  V30 6651 H 627.891 0.933315 -2.97818 0
M  V30 6652 N 628.193 1.56834 0.155195 0
M  V30 6653 C 629.123 2.00678 1.19376 0
M  V30 6654 C 630.104 0.884973 1.45266 0
M  V30 6655 O 631.289 1.1522 1.56326 0
M  V30 6656 C 628.419 2.38042 2.5289 0
M  V30 6657 C 627.373 3.53332 2.41538 0
M  V30 6658 C 626.699 3.76485 3.79688 0
M  V30 6659 C 627.999 4.86265 1.9064 0
M  V30 6660 H 629.693 2.87688 0.829232 0
M  V30 6661 H 627.239 1.38407 0.397445 0
M  V30 6662 H 629.192 2.67314 3.25763 0
M  V30 6663 H 627.916 1.4796 2.91162 0
M  V30 6664 H 626.575 3.24213 1.71117 0
M  V30 6665 H 626.223 2.83667 4.15382 0
M  V30 6666 H 625.923 4.54068 3.72956 0
M  V30 6667 H 627.447 4.08174 4.54122 0
M  V30 6668 H 628.861 5.14308 2.53299 0
M  V30 6669 H 627.258 5.67597 1.94818 0
M  V30 6670 H 628.328 4.77184 0.861596 0
M  V30 6671 N 629.671 -0.424282 1.51781 0
M  V30 6672 C 630.619 -1.53649 1.74628 0
M  V30 6673 C 631.613 -1.57923 0.612922 0
M  V30 6674 O 632.819 -1.61511 0.794618 0
M  V30 6675 H 629.194 -0.510706 0.551981 0
M  V30 6676 H 631.165 -1.31558 2.67834 0
M  V30 6677 C 629.914 -2.91177 1.9003 0
M  V30 6678 H 629.237 -2.88625 2.76651 0
M  V30 6679 H 630.677 -3.6833 2.10021 0
M  V30 6680 C 629.136 -3.30303 0.663435 0
M  V30 6681 O 629.666 -4.01315 -0.175812 0
M  V30 6682 N 627.872 -2.86201 0.503723 0
M  V30 6683 H 627.419 -2.28583 1.18776 0
M  V30 6684 H 627.377 -3.12741 -0.322575 0
M  V30 6685 N 631.149 -1.42148 -0.680565 0
M  V30 6686 C 632.426 -1.32795 -1.43614 0
M  V30 6687 C 632.806 0.037415 -2.11067 0
M  V30 6688 O 632.154 1.05258 -2.02813 0
M  V30 6689 C 632.364 -2.49206 -2.44331 0
M  V30 6690 C 633.712 -2.91059 -3.09144 0
M  V30 6691 O 634.736 -2.49054 -2.54657 0
M  V30 6692 O 633.595 -3.63741 -4.07866 0
M  V30 6693 H 630.689 -0.523397 -0.640301 0
M  V30 6694 H 633.235 -1.54144 -0.709775 0
M  V30 6695 H 632.007 -3.40252 -1.93247 0
M  V30 6696 H 631.63 -2.29813 -3.24456 0
M  V30 6697 N 632.627 0.916307 -1.28225 0
M  V30 6698 C 633.876 1.65975 -1.14608 0
M  V30 6699 C 634.189 1.93204 0.305191 0
M  V30 6700 O 635.395 2.65611 0.562432 0
M  V30 6701 C 633.851 2.98989 -2.00333 0
M  V30 6702 C 633.459 2.79417 -3.50186 0
M  V30 6703 C 635.203 3.76856 -1.95397 0
M  V30 6704 C 633.11 4.08056 -4.28071 0
M  V30 6705 H 632.04 0.622587 -0.425324 0
M  V30 6706 H 634.691 1.01705 -1.52736 0
M  V30 6707 H 633.073 3.6438 -1.5506 0
M  V30 6708 H 634.247 2.22723 -4.034 0
M  V30 6709 H 632.562 2.14966 -3.56621 0
M  V30 6710 H 635.159 4.72203 -2.50856 0
M  V30 6711 H 635.502 4.05776 -0.930137 0
M  V30 6712 H 636.035 3.1828 -2.38626 0
M  V30 6713 H 632.774 3.8431 -5.31024 0
M  V30 6714 H 632.294 4.64371 -3.79631 0
M  V30 6715 H 633.973 4.76333 -4.37854 0
M  V30 6716 N 634.105 1.10431 1.1244 0
M  V30 6717 C 635.052 0.753103 2.18167 0
M  V30 6718 C 636.022 -0.270549 1.63882 0
M  V30 6719 O 637.207 -0.149837 1.90211 0
M  V30 6720 C 634.347 0.191046 3.44571 0
M  V30 6721 C 633.46 1.26999 4.12911 0
M  V30 6722 C 632.595 0.669586 5.26963 0
M  V30 6723 C 631.634 1.72912 5.87169 0
M  V30 6724 N 630.771 1.14898 6.92635 0
M  V30 6725 H 635.611 1.65892 2.47556 0
M  V30 6726 H 633.148 0.828631 1.21541 0
M  V30 6727 H 635.106 -0.152712 4.1692 0
M  V30 6728 H 633.736 -0.677997 3.15599 0
M  V30 6729 H 632.788 1.73087 3.3874 0
M  V30 6730 H 634.1 2.07204 4.53727 0
M  V30 6731 H 633.254 0.275274 6.06075 0
M  V30 6732 H 631.993 -0.163895 4.87425 0
M  V30 6733 H 630.998 2.13286 5.06744 0
M  V30 6734 H 632.223 2.56544 6.28778 0
M  V30 6735 H 630.169 0.336956 6.55134 0
M  V30 6736 H 630.086 1.88786 7.32049 0
M  V30 6737 H 631.354 0.78121 7.75576 0
M  V30 6738 N 635.583 -1.29855 0.893053 0
M  V30 6739 C 636.832 -1.95104 0.511597 0
M  V30 6740 C 637.145 -1.71226 -0.945567 0
M  V30 6741 O 638.351 -2.30525 -1.43424 0
M  V30 6742 C 636.807 -3.49374 0.864034 0
M  V30 6743 C 636.415 -3.82061 2.33952 0
M  V30 6744 C 638.159 -4.20894 0.552167 0
M  V30 6745 C 636.066 -5.29546 2.63316 0
M  V30 6746 H 634.996 -0.73029 0.187597 0
M  V30 6747 H 637.647 -1.47682 1.08914 0
M  V30 6748 H 636.029 -3.95413 0.215493 0
M  V30 6749 H 637.203 -3.46904 3.03305 0
M  V30 6750 H 635.518 -3.23665 2.61973 0
M  V30 6751 H 638.115 -5.29435 0.748489 0
M  V30 6752 H 638.458 -4.13178 -0.508924 0
M  V30 6753 H 638.991 -3.80564 1.15825 0
M  V30 6754 H 635.73 -5.4232 3.68197 0
M  V30 6755 H 635.25 -5.65974 1.9858 0
M  V30 6756 H 636.929 -5.97068 2.49236 0
M  V30 6757 N 637.061 -0.65484 -1.43351 0
M  V30 6758 C 637.993 0.0744757 -2.29079 0
M  V30 6759 C 639.006 0.7855 -1.42596 0
M  V30 6760 O 640.195 0.642986 -1.66517 0
M  V30 6761 C 637.295 1.12859 -3.19556 0
M  V30 6762 C 636.468 0.495381 -4.34586 0
M  V30 6763 C 635.527 1.44659 -5.05925 0
M  V30 6764 O 634.553 0.954567 -5.61139 0
M  V30 6765 N 635.755 2.78051 -5.09576 0
M  V30 6766 H 638.52 -0.661346 -2.92312 0
M  V30 6767 H 636.081 -0.497744 -1.54059 0
M  V30 6768 H 638.073 1.76577 -3.64147 0
M  V30 6769 H 636.643 1.76636 -2.57912 0
M  V30 6770 H 635.863 -0.32092 -3.92892 0
M  V30 6771 H 637.151 0.0534203 -5.08772 0
M  V30 6772 H 636.549 3.20584 -4.66093 0
M  V30 6773 H 635.106 3.37068 -5.57878 0
M  V30 6774 N 638.539 1.52521 -0.396863 0
M  V30 6775 C 639.472 2.23118 0.478926 0
M  V30 6776 C 640.45 1.23475 1.05796 0
M  V30 6777 O 641.634 1.52486 1.10817 0
M  V30 6778 C 638.761 2.95028 1.66362 0
M  V30 6779 C 637.807 4.09002 1.20913 0
M  V30 6780 S 638.64 5.35182 0.184407 0
M  V30 6781 C 639.796 6.10616 1.37471 0
M  V30 6782 H 640.029 2.97056 -0.120542 0
M  V30 6783 H 637.562 1.53334 -0.18109 0
M  V30 6784 H 639.52 3.37066 2.34301 0
M  V30 6785 H 638.181 2.20756 2.23441 0
M  V30 6786 H 637.374 4.58445 2.09389 0
M  V30 6787 H 636.976 3.69016 0.608559 0
M  V30 6788 H 639.268 6.37247 2.30048 0
M  V30 6789 H 640.211 7.02084 0.921051 0
M  V30 6790 H 640.619 5.41499 1.59495 0
M  V30 6791 N 640.017 0.126909 1.57088 0
M  V30 6792 C 641.247 -0.535892 1.99529 0
M  V30 6793 C 641.655 -1.60259 1.00566 0
M  V30 6794 O 640.998 -1.83698 -0.00843269 0
M  V30 6795 C 641.06 -1.21374 3.38391 0
M  V30 6796 C 640.724 -0.294044 4.56053 0
M  V30 6797 C 641.721 0.470454 5.17767 0
M  V30 6798 C 639.406 -0.202808 5.0189 0
M  V30 6799 C 641.4 1.31384 6.23712 0
M  V30 6800 C 639.087 0.644203 6.07695 0
M  V30 6801 C 640.085 1.40115 6.68473 0
M  V30 6802 O 639.773 2.23408 7.72233 0
M  V30 6803 H 639.505 -0.145799 0.66009 0
M  V30 6804 H 642.059 0.212441 2.04298 0
M  V30 6805 H 640.289 -2.00931 3.30399 0
M  V30 6806 H 641.978 -1.77424 3.65069 0
M  V30 6807 H 642.744 0.409884 4.83265 0
M  V30 6808 H 638.623 -0.781688 4.54324 0
M  V30 6809 H 642.167 1.90514 6.71081 0
M  V30 6810 H 638.064 0.706137 6.41626 0
M  V30 6811 H 638.832 2.16436 7.89365 0
M  V30 6812 N 641.495 -1.56914 -0.146875 0
M  V30 6813 C 642.742 -1.83356 -0.859467 0
M  V30 6814 C 643.07 -0.707811 -1.81164 0
M  V30 6815 O 642.325 0.303155 -1.93338 0
M  V30 6816 C 642.624 -3.16128 -1.66727 0
M  V30 6817 C 642.29 -4.42586 -0.861881 0
M  V30 6818 C 640.952 -4.76929 -0.639687 0
M  V30 6819 C 643.304 -5.20344 -0.298643 0
M  V30 6820 C 640.632 -5.86491 0.156451 0
M  V30 6821 C 642.984 -6.30742 0.484536 0
M  V30 6822 C 641.648 -6.63635 0.717306 0
M  V30 6823 H 640.918 -0.670947 -0.314501 0
M  V30 6824 H 643.565 -1.91104 -0.123108 0
M  V30 6825 H 641.87 -3.03831 -2.47374 0
M  V30 6826 H 643.567 -3.33802 -2.2221 0
M  V30 6827 H 640.157 -4.15662 -1.04513 0
M  V30 6828 H 644.341 -4.94186 -0.457585 0
M  V30 6829 H 639.597 -6.10419 0.346292 0
M  V30 6830 H 643.771 -6.90188 0.928105 0
M  V30 6831 H 641.398 -7.48367 1.33607 0
M  V30 6832 N 642.974 0.416227 -1.52004 0
M  V30 6833 C 643.884 1.53147 -1.77717 0
M  V30 6834 C 644.9 1.609 -0.662368 0
M  V30 6835 O 646.076 1.77747 -0.946991 0
M  V30 6836 C 643.141 2.88948 -1.91598 0
M  V30 6837 C 642.202 2.9114 -3.15493 0
M  V30 6838 C 641.435 4.20464 -3.28703 0
M  V30 6839 O 641.658 5.13981 -2.47345 0
M  V30 6840 O 640.592 4.29368 -4.21813 0
M  V30 6841 H 644.418 1.34357 -2.72363 0
M  V30 6842 H 642.003 0.601373 -1.36762 0
M  V30 6843 H 643.885 3.69505 -2.02593 0
M  V30 6844 H 642.56 3.07821 -1.00141 0
M  V30 6845 H 641.467 2.09461 -3.09962 0
M  V30 6846 H 642.8 2.77216 -4.06709 0
M  V30 6847 N 644.452 1.42507 0.673017 0
M  V30 6848 C 645.698 1.44282 1.43367 0
M  V30 6849 C 646.053 0.0588239 1.9231 0
M  V30 6850 O 645.346 -0.919288 1.68106 0
M  V30 6851 C 645.54 2.40351 2.64511 0
M  V30 6852 C 645.369 3.87955 2.27423 0
M  V30 6853 C 644.139 4.56476 2.16697 0
M  V30 6854 C 646.337 4.7833 1.88957 0
M  V30 6855 N 644.319 5.89099 1.72731 0
M  V30 6856 C 645.69 6.00073 1.55923 0
M  V30 6857 C 647.745 4.65769 1.75965 0
M  V30 6858 C 646.448 7.10652 1.112 0
M  V30 6859 C 648.474 5.76332 1.32647 0
M  V30 6860 C 647.836 6.97188 1.00538 0
M  V30 6861 H 643.935 0.583134 0.521036 0
M  V30 6862 H 646.519 1.78547 0.776481 0
M  V30 6863 H 644.69 2.08145 3.27918 0
M  V30 6864 H 646.422 2.32694 3.31113 0
M  V30 6865 H 643.177 4.10712 2.35823 0
M  V30 6866 H 643.601 6.59446 1.53166 0
M  V30 6867 H 648.243 3.72808 1.99435 0
M  V30 6868 H 645.961 8.0346 0.864768 0
M  V30 6869 H 649.547 5.68625 1.23112 0
M  V30 6870 H 648.427 7.81287 0.675283 0
M  V30 6871 N 645.93 -0.909495 1.28709 0
M  V30 6872 C 647.155 -1.69801 1.1909 0
M  V30 6873 C 647.58 -1.86479 -0.246388 0
M  V30 6874 O 646.938 -1.37802 -1.17815 0
M  V30 6875 C 646.986 -3.06543 1.89904 0
M  V30 6876 O 646.09 -3.94268 1.2094 0
M  V30 6877 H 645.431 -0.519783 0.413185 0
M  V30 6878 H 647.961 -1.13689 1.70106 0
M  V30 6879 H 647.971 -3.56748 1.97977 0
M  V30 6880 H 646.646 -2.93722 2.94449 0
M  V30 6881 H 645.223 -3.52702 1.2106 0
M  V30 6882 N 647.408 -1.11026 -1.11852 0
M  V30 6883 C 648.685 -0.768347 -1.79877 0
M  V30 6884 C 649.065 0.744261 -1.97545 0
M  V30 6885 O 648.413 1.67271 -1.55669 0
M  V30 6886 C 648.623 -1.52648 -3.13846 0
M  V30 6887 C 649.971 -1.70297 -3.88953 0
M  V30 6888 O 650.995 -1.49037 -3.23522 0
M  V30 6889 O 649.854 -2.05593 -5.06353 0
M  V30 6890 H 646.948 -0.277891 -0.778913 0
M  V30 6891 H 649.494 -1.21343 -1.18633 0
M  V30 6892 H 648.266 -2.55564 -2.96315 0
M  V30 6893 H 647.889 -1.07466 -3.82801 0
M  V30 6894 N 648.886 1.2938 -0.899927 0
M  V30 6895 C 650.134 1.95164 -0.524924 0
M  V30 6896 C 650.455 1.71292 0.931888 0
M  V30 6897 O 649.725 1.04481 1.65712 0
M  V30 6898 H 648.305 0.722133 -0.191135 0
M  V30 6899 H 650.967 1.57628 -1.14627 0
M  V30 6900 H 650.063 3.0397 -0.707711 0
M  V30 6901 N 650.364 0.662433 1.43002 0
M  V30 6902 C 651.592 0.187615 2.06048 0
M  V30 6903 C 652.007 -1.15039 1.49705 0
M  V30 6904 O 651.364 -1.71209 0.631956 0
M  V30 6905 C 651.415 0.100498 3.6136 0
M  V30 6906 O 651.136 1.38562 4.15611 0
M  V30 6907 C 652.637 -0.399298 4.41498 0
M  V30 6908 H 649.857 0.0941675 0.664359 0
M  V30 6909 H 652.401 0.905681 1.83351 0
M  V30 6910 H 650.556 -0.568181 3.83211 0
M  V30 6911 H 650.97 1.25084 5.09366 0
M  V30 6912 H 652.444 -0.409187 5.50481 0
M  V30 6913 H 652.921 -1.43232 4.15188 0
M  V30 6914 H 653.527 0.23721 4.24638 0
M  V30 6915 N 651.842 -1.52309 0.404946 0
M  V30 6916 C 653.253 -1.86585 -0.0655926 0
M  V30 6917 C 653.604 -1.3239 -1.44801 0
M  V30 6918 O 652.729 -0.6615 -2.06042 0
M  V30 6919 C 653.324 -3.38566 -0.125801 0
M  V30 6920 C 651.883 -3.72497 -0.540666 0
M  V30 6921 C 651.03 -2.75806 0.287487 0
M  V30 6922 H 653.981 -1.45995 0.622185 0
M  V30 6923 H 654.002 -3.68658 -0.941888 0
M  V30 6924 H 653.514 -3.77981 0.880473 0
M  V30 6925 H 651.615 -3.38659 -1.55373 0
M  V30 6926 H 651.728 -4.78234 -0.287956 0
M  V30 6927 H 650.092 -2.53474 -0.249561 0
M  V30 6928 H 650.875 -3.18059 1.29203 0
M  V30 6929 N 653.32 -0.135238 -1.57019 0
M  V30 6930 C 654.566 0.519563 -1.96032 0
M  V30 6931 C 654.899 1.65284 -1.01955 0
M  V30 6932 O 654.174 1.94408 -0.059727 0
M  V30 6933 C 654.457 1.0369 -3.44848 0
M  V30 6934 C 654.31 -0.0940754 -4.49702 0
M  V30 6935 C 655.629 1.92254 -3.95887 0
M  V30 6936 H 652.748 0.18739 -0.712779 0
M  V30 6937 H 655.39 -0.214086 -1.8879 0
M  V30 6938 H 653.54 1.66209 -3.5115 0
M  V30 6939 H 655.212 -0.73 -4.55487 0
M  V30 6940 H 653.455 -0.754924 -4.27181 0
M  V30 6941 H 654.126 0.309419 -5.51132 0
M  V30 6942 H 656.602 1.39581 -3.9199 0
M  V30 6943 H 655.478 2.25364 -5.00502 0
M  V30 6944 H 655.739 2.85513 -3.37543 0
M  V30 6945 N 654.798 1.5699 0.138552 0
M  V30 6946 C 656.026 1.87976 0.864437 0
M  V30 6947 C 656.441 0.724372 1.74351 0
M  V30 6948 O 655.798 -0.305575 1.79924 0
M  V30 6949 C 655.849 3.18276 1.71414 0
M  V30 6950 O 655.57 4.29365 0.870487 0
M  V30 6951 C 657.071 3.62834 2.54688 0
M  V30 6952 H 654.291 0.622878 0.249528 0
M  V30 6953 H 656.835 2.04094 0.128805 0
M  V30 6954 H 654.99 3.03886 2.40274 0
M  V30 6955 H 655.404 5.03924 1.45466 0
M  V30 6956 H 656.878 4.5682 3.0987 0
M  V30 6957 H 657.355 2.88533 3.31127 0
M  V30 6958 H 657.961 3.79946 1.91105 0
M  V30 6959 N 656.276 -0.40816 1.52223 0
M  V30 6960 C 657.523 -1.15502 1.66329 0
M  V30 6961 C 657.851 -1.90474 0.393701 0
M  V30 6962 O 657.106 -1.85507 -0.623356 0
M  V30 6963 C 657.405 -2.17422 2.83659 0
M  V30 6964 C 657.071 -1.5925 4.21841 0
M  V30 6965 C 655.733 -1.4311 4.59427 0
M  V30 6966 C 658.085 -1.16776 5.0795 0
M  V30 6967 C 655.413 -0.830148 5.80797 0
M  V30 6968 C 657.765 -0.580988 6.29926 0
M  V30 6969 C 656.429 -0.406729 6.6626 0
M  V30 6970 H 655.699 -0.422653 0.608642 0
M  V30 6971 H 658.346 -0.442114 1.86327 0
M  V30 6972 H 656.651 -2.94861 2.58001 0
M  V30 6973 H 658.348 -2.75084 2.9177 0
M  V30 6974 H 654.938 -1.72796 3.92224 0
M  V30 6975 H 659.122 -1.28055 4.79495 0
M  V30 6976 H 654.378 -0.68316 6.07571 0
M  V30 6977 H 658.552 -0.243488 6.95974 0
M  V30 6978 H 656.179 0.0610366 7.60175 0
M  V30 6979 N 657.755 -1.42862 -0.66545 0
M  V30 6980 C 658.983 -1.47246 -1.45349 0
M  V30 6981 C 659.398 -0.0865944 -1.88601 0
M  V30 6982 O 658.755 0.900652 -1.58728 0
M  V30 6983 C 658.806 -2.40772 -2.6965 0
M  V30 6984 O 658.527 -3.73968 -2.2821 0
M  V30 6985 C 660.028 -2.54272 -3.63126 0
M  V30 6986 H 657.248 -0.500497 -0.446927 0
M  V30 6987 H 659.792 -1.87477 -0.816871 0
M  V30 6988 H 657.947 -2.0377 -3.29479 0
M  V30 6989 H 658.361 -4.24146 -3.08546 0
M  V30 6990 H 659.835 -3.23815 -4.47043 0
M  V30 6991 H 660.312 -1.58364 -4.09656 0
M  V30 6992 H 660.918 -2.92036 -3.09185 0
M  V30 6993 N 659.233 0.902656 -1.29189 0
M  V30 6994 C 660.18 2.00643 -1.14066 0
M  V30 6995 C 661.15 1.66064 -0.0347756 0
M  V30 6996 O 662.335 1.8973 -0.201752 0
M  V30 6997 C 659.475 3.35214 -0.820104 0
M  V30 6998 C 658.588 3.82594 -2.00614 0
M  V30 6999 C 657.723 5.05727 -1.62522 0
M  V30 7000 C 656.762 5.45469 -2.77724 0
M  V30 7001 N 655.899 6.59789 -2.40048 0
M  V30 7002 H 660.739 2.1291 -2.08502 0
M  V30 7003 H 658.276 1.04271 -1.03759 0
M  V30 7004 H 660.234 4.12643 -0.614949 0
M  V30 7005 H 658.864 3.22682 0.0873452 0
M  V30 7006 H 657.916 3.01226 -2.32308 0
M  V30 7007 H 659.228 4.07999 -2.86946 0
M  V30 7008 H 658.382 5.90732 -1.38277 0
M  V30 7009 H 657.121 4.82155 -0.733333 0
M  V30 7010 H 656.126 4.59 -3.02653 0
M  V30 7011 H 657.351 5.71024 -3.67572 0
M  V30 7012 H 655.297 6.37826 -1.53343 0
M  V30 7013 H 655.214 6.84975 -3.19914 0
M  V30 7014 H 656.482 7.4807 -2.19116 0
M  V30 7015 N 660.711 1.11618 1.11262 0
M  V30 7016 C 661.957 0.877377 1.83504 0
M  V30 7017 C 662.312 -0.590606 1.83111 0
M  V30 7018 O 661.605 -1.43057 1.27456 0
M  V30 7019 C 661.799 1.37529 3.2988 0
M  V30 7020 C 661.628 2.89014 3.4453 0
M  V30 7021 C 660.398 3.57157 3.57445 0
M  V30 7022 C 662.596 3.8706 3.38658 0
M  V30 7023 N 660.578 4.96842 3.60585 0
M  V30 7024 C 661.949 5.12825 3.4844 0
M  V30 7025 C 664.004 3.79593 3.22201 0
M  V30 7026 C 662.707 6.32002 3.43462 0
M  V30 7027 C 664.733 4.98282 3.18542 0
M  V30 7028 C 664.095 6.22901 3.28897 0
M  V30 7029 H 660.194 0.37422 0.686646 0
M  V30 7030 H 662.778 1.42087 1.33114 0
M  V30 7031 H 660.949 0.85895 3.78783 0
M  V30 7032 H 662.681 1.07944 3.90039 0
M  V30 7033 H 659.436 3.07628 3.60086 0
M  V30 7034 H 659.86 5.69674 3.65788 0
M  V30 7035 H 664.502 2.84149 3.1308 0
M  V30 7036 H 662.22 7.27721 3.51352 0
M  V30 7037 H 665.806 4.94226 3.06972 0
M  V30 7038 H 664.686 7.13202 3.26056 0
M  V30 7039 N 662.189 -1.289 0.906776 0
M  V30 7040 C 663.119 -2.29932 0.406659 0
M  V30 7041 C 664.1 -1.6189 -0.522061 0
M  V30 7042 O 665.285 -1.8935 -0.431283 0
M  V30 7043 C 662.415 -3.45425 -0.360366 0
M  V30 7044 C 661.369 -4.25316 0.478574 0
M  V30 7045 C 660.695 -5.33076 -0.416373 0
M  V30 7046 C 661.995 -4.92739 1.7322 0
M  V30 7047 H 663.689 -2.72013 1.25097 0
M  V30 7048 H 661.235 -1.30768 0.602977 0
M  V30 7049 H 663.188 -4.15186 -0.721029 0
M  V30 7050 H 661.912 -3.02206 -1.23852 0
M  V30 7051 H 660.571 -3.57273 0.821662 0
M  V30 7052 H 660.219 -4.86101 -1.29287 0
M  V30 7053 H 659.919 -5.8743 0.141309 0
M  V30 7054 H 661.443 -6.05686 -0.773072 0
M  V30 7055 H 662.857 -5.54898 1.44086 0
M  V30 7056 H 661.254 -5.57057 2.23175 0
M  V30 7057 H 662.324 -4.17625 2.46408 0
M  V30 7058 N 663.667 -0.670007 -1.42649 0
M  V30 7059 C 665.083 -0.33911 -1.55956 0
M  V30 7060 C 665.283 1.1558 -1.65056 0
M  V30 7061 O 664.339 1.94111 -1.61485 0
M  V30 7062 C 665.652 -1.06522 -2.812 0
M  V30 7063 C 667.2 -1.04708 -2.94966 0
M  V30 7064 C 667.675 -1.75442 -4.23065 0
M  V30 7065 N 669.166 -1.72286 -4.29967 0
M  V30 7066 C 669.901 -2.23877 -5.27889 0
M  V30 7067 N 669.397 -2.83829 -6.31991 0
M  V30 7068 N 671.19 -2.14279 -5.19654 0
M  V30 7069 H 663.341 -1.6399 -1.34986 0
M  V30 7070 H 665.604 -0.690603 -0.649439 0
M  V30 7071 H 665.31 -2.12033 -2.80597 0
M  V30 7072 H 665.184 -0.627398 -3.71946 0
M  V30 7073 H 667.571 -0.000315966 -2.951 0
M  V30 7074 H 667.652 -1.52374 -2.05465 0
M  V30 7075 H 667.296 -2.80084 -4.23693 0
M  V30 7076 H 667.226 -1.25229 -5.11493 0
M  V30 7077 H 669.717 -1.28554 -3.55362 0
M  V30 7078 H 670.03 -3.20827 -7.03057 0
M  V30 7079 H 668.375 -2.87896 -6.32567 0
M  V30 7080 H 671.566 -1.67135 -4.37245 0
M  V30 7081 H 671.739 -2.54792 -5.95806 0
M  V30 7082 N 665.145 1.52092 -0.413018 0
M  V30 7083 C 666.393 2.01456 0.161178 0
M  V30 7084 C 666.714 1.30034 1.45314 0
M  V30 7085 O 665.984 0.427435 1.9118 0
M  V30 7086 H 664.564 0.744376 0.0625526 0
M  V30 7087 H 667.226 1.86974 -0.550151 0
M  V30 7088 H 666.322 3.1008 0.354517 0
M  V30 7089 N 666.623 0.143563 1.56945 0
M  V30 7090 C 667.533 -0.810562 2.20152 0
M  V30 7091 C 668.549 -1.27431 1.1848 0
M  V30 7092 O 669.725 -1.33221 1.51044 0
M  V30 7093 C 666.79 -2.03353 2.80799 0
M  V30 7094 C 665.851 -1.61936 3.97587 0
M  V30 7095 C 665.084 -2.78403 4.55332 0
M  V30 7096 O 665.307 -3.94521 4.11958 0
M  V30 7097 O 664.241 -2.54073 5.45647 0
M  V30 7098 H 668.067 -0.30253 3.02189 0
M  V30 7099 H 665.652 -0.0832925 1.49168 0
M  V30 7100 H 667.534 -2.74932 3.19359 0
M  V30 7101 H 666.209 -2.53116 2.01777 0
M  V30 7102 H 665.116 -0.873904 3.6375 0
M  V30 7103 H 666.449 -1.16892 4.78118 0
M  V30 7104 N 668.101 -1.57061 -0.130224 0
M  V30 7105 C 669.512 -1.73539 -0.68856 0
M  V30 7106 C 669.863 -0.760554 -1.80859 0
M  V30 7107 O 668.988 0.0690796 -2.1629 0
M  V30 7108 C 669.583 -3.14666 -1.25581 0
M  V30 7109 C 668.142 -3.32689 -1.76055 0
M  V30 7110 C 667.289 -2.69436 -0.655712 0
M  V30 7111 H 670.24 -1.58412 0.0956002 0
M  V30 7112 H 670.261 -3.15595 -2.12556 0
M  V30 7113 H 669.773 -3.85593 -0.440412 0
M  V30 7114 H 667.874 -2.66786 -2.60108 0
M  V30 7115 H 667.987 -4.4077 -1.87772 0
M  V30 7116 H 666.351 -2.30362 -1.08654 0
M  V30 7117 H 667.134 -3.42979 0.14852 0
M  V30 7118 N 669.579 0.400081 -1.52437 0
M  V30 7119 C 670.804 1.17221 -1.71096 0
M  V30 7120 C 671.229 1.83269 -0.423565 0
M  V30 7121 O 670.587 1.70378 0.619751 0
M  V30 7122 C 670.635 2.20425 -2.85386 0
M  V30 7123 O 669.739 3.26769 -2.51586 0
M  V30 7124 H 669.08 0.341766 -0.569291 0
M  V30 7125 H 671.61 0.467772 -1.99181 0
M  V30 7126 H 671.62 2.64605 -3.10561 0
M  V30 7127 H 670.295 1.71737 -3.78786 0
M  V30 7128 H 668.872 2.87804 -2.37114 0
M  V30 7129 N 671.057 1.43213 0.657864 0
M  V30 7130 C 672.007 1.44459 1.76396 0
M  V30 7131 C 672.991 0.313641 1.57814 0
M  V30 7132 O 674.183 0.557094 1.68004 0
M  V30 7133 C 671.312 1.36586 3.14959 0
M  V30 7134 C 670.398 2.54692 3.39106 0
M  V30 7135 N 670.789 3.80059 3.33749 0
M  V30 7136 C 669.087 2.49316 3.69807 0
M  V30 7137 C 669.788 4.58606 3.57849 0
M  V30 7138 N 668.764 3.89267 3.79437 0
M  V30 7139 H 672.566 2.39265 1.70673 0
M  V30 7140 H 670.08 1.378 0.859357 0
M  V30 7141 H 672.077 1.35561 3.94245 0
M  V30 7142 H 670.737 0.427956 3.21867 0
M  V30 7143 H 671.748 4.12414 3.13266 0
M  V30 7144 H 668.425 1.6419 3.83859 0
M  V30 7145 H 669.815 5.67619 3.59525 0
M  V30 7146 N 672.536 -0.895792 1.29666 0
M  V30 7147 C 673.446 -2.03329 1.17024 0
M  V30 7148 C 674.462 -1.73753 0.0925962 0
M  V30 7149 O 675.638 -1.99071 0.305431 0
M  V30 7150 C 672.703 -3.36072 0.851841 0
M  V30 7151 C 671.764 -3.7914 2.01373 0
M  V30 7152 C 670.997 -5.05549 1.71043 0
M  V30 7153 O 671.22 -5.66874 0.633213 0
M  V30 7154 O 670.154 -5.44764 2.5596 0
M  V30 7155 H 673.98 -2.16918 2.12556 0
M  V30 7156 H 671.565 -1.02007 1.09156 0
M  V30 7157 H 673.447 -4.15729 0.689006 0
M  V30 7158 H 672.122 -3.23616 -0.0736634 0
M  V30 7159 H 671.029 -3.00233 2.23183 0
M  V30 7160 H 672.362 -3.96186 2.92058 0
M  V30 7161 N 674.014 -1.12206 -1.10668 0
M  V30 7162 C 674.962 -0.782918 -2.19028 0
M  V30 7163 C 675.956 0.229175 -1.67843 0
M  V30 7164 O 677.162 0.0876295 -1.79787 0
M  V30 7165 H 673.537 -0.235339 -0.714227 0
M  V30 7166 H 675.508 -1.70527 -2.44874 0
M  V30 7167 C 674.257 -0.25116 -3.46792 0
M  V30 7168 H 673.58 -1.02123 -3.86537 0
M  V30 7169 H 675.02 -0.0521409 -4.23968 0
M  V30 7170 C 673.479 1.02037 -3.21076 0
M  V30 7171 O 674.009 2.09862 -3.42522 0
M  V30 7172 N 672.215 0.946348 -2.74759 0
M  V30 7173 H 671.762 0.068777 -2.57508 0
M  V30 7174 H 671.72 1.79775 -2.57931 0
M  V30 7175 N 675.492 1.28418 -0.913599 0
M  V30 7176 C 676.44 2.29272 -0.392037 0
M  V30 7177 C 677.434 1.61344 0.516198 0
M  V30 7178 O 678.64 1.75557 0.39746 0
M  V30 7179 H 675.015 0.744178 -0.108178 0
M  V30 7180 H 676.986 2.70691 -1.25574 0
M  V30 7181 C 675.735 3.45905 0.352815 0
M  V30 7182 H 675.058 3.98378 -0.336848 0
M  V30 7183 H 676.498 4.18473 0.682398 0
M  V30 7184 C 674.957 2.98572 1.56065 0
M  V30 7185 O 675.487 3.01033 2.65974 0
M  V30 7186 N 673.693 2.54235 1.40759 0
M  V30 7187 H 673.24 2.52432 0.513403 0
M  V30 7188 H 673.198 2.22925 2.21702 0
M  V30 7189 N 676.97 0.677563 1.42291 0
M  V30 7190 C 678.386 0.347376 1.55774 0
M  V30 7191 C 678.586 -1.14703 1.65667 0
M  V30 7192 O 677.642 -1.93252 1.62512 0
M  V30 7193 C 678.955 1.08011 2.80631 0
M  V30 7194 C 680.503 1.06271 2.94407 0
M  V30 7195 C 680.978 1.77683 4.22129 0
M  V30 7196 N 682.469 1.74564 4.29047 0
M  V30 7197 C 683.204 2.26673 5.26694 0
M  V30 7198 N 682.7 2.87176 6.30477 0
M  V30 7199 N 684.493 2.17032 5.18511 0
M  V30 7200 H 676.644 1.64703 1.34114 0
M  V30 7201 H 678.907 0.694038 0.645768 0
M  V30 7202 H 678.613 2.13518 2.79469 0
M  V30 7203 H 678.487 0.647115 3.71608 0
M  V30 7204 H 680.874 0.0159658 2.95096 0
M  V30 7205 H 680.955 1.53461 2.04654 0
M  V30 7206 H 680.599 2.82327 4.22201 0
M  V30 7207 H 680.529 1.2794 5.10822 0
M  V30 7208 H 683.02 1.30436 3.54676 0
M  V30 7209 H 683.333 3.24551 7.01346 0
M  V30 7210 H 681.678 2.91247 6.31031 0
M  V30 7211 H 684.869 1.69451 4.36353 0
M  V30 7212 H 685.042 2.57948 5.94446 0
M  V30 7213 N 678.448 -1.51871 0.421078 0
M  V30 7214 C 679.38 -2.25052 -0.434065 0
M  V30 7215 C 680.393 -1.28458 -1.00013 0
M  V30 7216 O 681.582 -1.54323 -0.897033 0
M  V30 7217 C 678.682 -2.97813 -1.61743 0
M  V30 7218 C 677.855 -4.21374 -1.17315 0
M  V30 7219 C 676.914 -4.76854 -2.22478 0
M  V30 7220 O 675.94 -5.39123 -1.82577 0
M  V30 7221 N 677.142 -4.59467 -3.54782 0
M  V30 7222 H 679.907 -2.99077 0.193073 0
M  V30 7223 H 677.468 -1.59972 0.249088 0
M  V30 7224 H 679.46 -3.3182 -2.31685 0
M  V30 7225 H 678.03 -2.26899 -2.15024 0
M  V30 7226 H 677.25 -3.93046 -0.3014 0
M  V30 7227 H 678.538 -5.01591 -0.853444 0
M  V30 7228 H 677.936 -4.09832 -3.89941 0
M  V30 7229 H 676.493 -4.9788 -4.20665 0
M  V30 7230 N 679.926 -0.151884 -1.56866 0
M  V30 7231 C 680.836 0.798876 -2.20579 0
M  V30 7232 C 681.852 1.268 -1.19154 0
M  V30 7233 O 683.028 1.32418 -1.51748 0
M  V30 7234 C 680.093 2.01861 -2.81874 0
M  V30 7235 C 679.154 1.59825 -3.9844 0
M  V30 7236 C 678.387 2.75984 -4.56802 0
M  V30 7237 O 678.61 3.92331 -4.14044 0
M  V30 7238 O 677.544 2.51175 -5.46987 0
M  V30 7239 H 681.37 0.2865 -3.02346 0
M  V30 7240 H 678.955 0.0753806 -1.4921 0
M  V30 7241 H 680.837 2.73235 -3.20813 0
M  V30 7242 H 679.512 2.52042 -2.03117 0
M  V30 7243 H 678.419 0.854601 -3.64208 0
M  V30 7244 H 679.752 1.14355 -4.78731 0
M  V30 7245 N 681.404 1.57128 0.121893 0
M  V30 7246 C 682.681 1.75664 0.860327 0
M  V30 7247 C 683.061 0.726585 1.98202 0
M  V30 7248 O 682.409 -0.24999 2.27128 0
M  V30 7249 C 682.619 3.20571 1.37968 0
M  V30 7250 C 683.967 3.82988 1.83317 0
M  V30 7251 O 684.991 3.24156 1.47654 0
M  V30 7252 O 683.85 4.86393 2.49168 0
M  V30 7253 H 680.944 0.719153 0.408348 0
M  V30 7254 H 683.49 1.6937 0.105859 0
M  V30 7255 H 682.262 3.87056 0.57477 0
M  V30 7256 H 681.885 3.31392 2.19694 0
M  V30 7257 N 682.882 -0.391992 1.52647 0
M  V30 7258 C 684.122 -1.1463 1.69232 0
M  V30 7259 C 684.486 -1.87312 0.421684 0
M  V30 7260 O 685.687 -2.64768 0.463852 0
M  V30 7261 C 683.958 -2.10088 2.89133 0
M  V30 7262 S 685.517 -2.93395 3.2629 0
M  V30 7263 H 682.335 -0.388076 0.59575 0
M  V30 7264 H 684.937 -0.431149 1.90687 0
M  V30 7265 H 683.641 -1.55408 3.79837 0
M  V30 7266 H 683.172 -2.86116 2.70003 0
M  V30 7267 H 685.187 -4.12193 2.76244 0
M  V30 7268 N 684.36 -1.4356 -0.65026 0
M  V30 7269 C 685.606 -1.45549 -1.41221 0
M  V30 7270 C 685.939 -0.0805472 -1.94033 0
M  V30 7271 O 685.214 0.899043 -1.72475 0
M  V30 7272 C 685.497 -2.50028 -2.59148 0
M  V30 7273 C 685.35 -3.96808 -2.1181 0
M  V30 7274 C 686.669 -2.51212 -3.61359 0
M  V30 7275 H 683.788 -0.529967 -0.512156 0
M  V30 7276 H 686.43 -1.75127 -0.736933 0
M  V30 7277 H 684.58 -2.24937 -3.16758 0
M  V30 7278 H 686.252 -4.32966 -1.59178 0
M  V30 7279 H 684.495 -4.09498 -1.43156 0
M  V30 7280 H 685.166 -4.6553 -2.96625 0
M  V30 7281 H 687.642 -2.73583 -3.13515 0
M  V30 7282 H 686.518 -3.26252 -4.41419 0
M  V30 7283 H 686.779 -1.54701 -4.1415 0
M  V30 7284 N 685.838 0.888903 -1.30139 0
M  V30 7285 C 687.084 1.6428 -1.18912 0
M  V30 7286 C 687.417 1.92499 0.256477 0
M  V30 7287 O 686.692 1.54312 1.18397 0
M  V30 7288 C 686.975 2.9851 -2.01405 0
M  V30 7289 C 686.828 2.77288 -3.54163 0
M  V30 7290 C 688.147 3.99383 -1.84882 0
M  V30 7291 H 685.266 0.596148 -0.433333 0
M  V30 7292 H 687.908 1.0289 -1.5973 0
M  V30 7293 H 686.058 3.50907 -1.66722 0
M  V30 7294 H 687.73 2.31709 -3.98884 0
M  V30 7295 H 685.973 2.11867 -3.78543 0
M  V30 7296 H 686.644 3.72717 -4.07168 0
M  V30 7297 H 689.12 3.56132 -2.15196 0
M  V30 7298 H 687.996 4.91222 -2.44934 0
M  V30 7299 H 688.257 4.34674 -0.806902 0
M  V30 7300 N 687.317 1.12792 1.10072 0
M  V30 7301 C 688.25 0.742921 2.15768 0
M  V30 7302 C 689.228 -0.267714 1.60381 0
M  V30 7303 O 690.412 -0.160782 1.87813 0
M  V30 7304 C 687.539 0.100244 3.38552 0
M  V30 7305 C 686.585 1.07831 4.12644 0
M  V30 7306 S 687.418 2.60765 4.6772 0
M  V30 7307 C 688.574 1.97838 5.9381 0
M  V30 7308 H 688.807 1.63822 2.48092 0
M  V30 7309 H 686.34 0.947385 1.21918 0
M  V30 7310 H 688.298 -0.264175 4.09649 0
M  V30 7311 H 686.959 -0.772223 3.04459 0
M  V30 7312 H 686.152 0.576325 5.00694 0
M  V30 7313 H 685.754 1.38586 3.47376 0
M  V30 7314 H 688.046 1.32341 6.64449 0
M  V30 7315 H 688.989 2.83943 6.48677 0
M  V30 7316 H 689.397 1.43267 5.46017 0
M  V30 7317 N 688.795 -1.27931 0.920396 0
M  V30 7318 C 689.742 -2.27085 0.412422 0
M  V30 7319 C 690.712 -1.57858 -0.516725 0
M  V30 7320 O 691.897 -1.85717 -0.437475 0
M  V30 7321 C 689.037 -3.43466 -0.335399 0
M  V30 7322 C 688.15 -4.27425 0.627017 0
M  V30 7323 C 687.285 -5.31016 -0.139916 0
M  V30 7324 C 686.324 -6.06641 0.815683 0
M  V30 7325 N 685.461 -7.02052 0.0818439 0
M  V30 7326 H 690.301 -2.69913 1.26298 0
M  V30 7327 H 687.838 -1.32732 0.634076 0
M  V30 7328 H 689.796 -4.09744 -0.785226 0
M  V30 7329 H 688.426 -3.01611 -1.15025 0
M  V30 7330 H 687.478 -3.6113 1.19537 0
M  V30 7331 H 688.79 -4.79969 1.35763 0
M  V30 7332 H 687.944 -6.03208 -0.649998 0
M  V30 7333 H 686.683 -4.79257 -0.903543 0
M  V30 7334 H 685.688 -5.33294 1.33708 0
M  V30 7335 H 686.913 -6.60489 1.57897 0
M  V30 7336 H 684.859 -6.52634 -0.663671 0
M  V30 7337 H 684.776 -7.52249 0.752163 0
M  V30 7338 H 686.044 -7.78432 -0.407825 0
M  V30 7339 N 690.273 -0.685099 -1.4193 0
M  V30 7340 C 691.521 -0.21124 -2.00993 0
M  V30 7341 C 691.842 1.18985 -1.54491 0
M  V30 7342 O 691.112 1.8009 -0.771 0
M  V30 7343 H 689.692 -0.0751059 -0.743215 0
M  V30 7344 H 692.354 -0.883915 -1.73704 0
M  V30 7345 H 691.45 -0.220513 -3.1132 0
M  V30 7346 N 691.751 1.51645 -0.429126 0
M  V30 7347 C 692.698 2.27542 0.386446 0
M  V30 7348 C 693.668 1.30786 1.02393 0
M  V30 7349 O 694.853 1.59678 1.0444 0
M  V30 7350 C 691.993 3.11457 1.48623 0
M  V30 7351 C 691.106 4.23196 0.867691 0
M  V30 7352 C 690.241 4.94435 1.94183 0
M  V30 7353 C 689.28 5.98108 1.30129 0
M  V30 7354 N 688.417 6.62786 2.31644 0
M  V30 7355 H 693.257 2.968 -0.267155 0
M  V30 7356 H 690.794 1.46397 -0.143591 0
M  V30 7357 H 692.752 3.58429 2.13506 0
M  V30 7358 H 691.382 2.44329 2.10957 0
M  V30 7359 H 690.434 3.80248 0.107373 0
M  V30 7360 H 691.746 4.97499 0.35997 0
M  V30 7361 H 690.9 5.44914 2.66747 0
M  V30 7362 H 689.639 4.19744 2.48326 0
M  V30 7363 H 688.644 5.4693 0.561082 0
M  V30 7364 H 689.869 6.74751 0.767303 0
M  V30 7365 H 687.815 5.90913 2.84883 0
M  V30 7366 H 687.732 7.32828 1.85741 0
M  V30 7367 H 689 7.17897 3.03717 0
M  V30 7368 N 693.229 0.160201 1.56784 0
M  V30 7369 C 694.506 -0.533355 1.88188 0
M  V30 7370 C 694.886 -1.82072 1.06831 0
M  V30 7371 O 694.234 -2.27946 0.158959 0
M  V30 7372 C 694.444 -0.786034 3.40033 0
M  V30 7373 C 695.792 -1.12097 4.09536 0
M  V30 7374 O 696.816 -0.874949 3.45287 0
M  V30 7375 O 695.675 -1.58457 5.23023 0
M  V30 7376 H 692.769 -0.273589 0.780434 0
M  V30 7377 H 695.315 0.197803 1.68543 0
M  V30 7378 H 694.087 0.124515 3.91102 0
M  V30 7379 H 693.71 -1.57091 3.65251 0
M  V30 7380 N 694.707 -1.5719 -0.113559 0
M  V30 7381 C 695.955 -1.84772 -0.818761 0
M  V30 7382 C 696.276 -0.746196 -1.80158 0
M  V30 7383 O 695.546 0.229305 -1.94553 0
M  V30 7384 H 694.126 -0.681737 -0.305359 0
M  V30 7385 H 696.788 -1.94645 -0.0995845 0
M  V30 7386 H 695.884 -2.80878 -1.36067 0
M  V30 7387 N 696.185 0.383891 -1.52853 0
M  V30 7388 C 697.415 1.14783 -1.7178 0
M  V30 7389 C 697.823 1.84055 -0.438211 0
M  V30 7390 O 697.166 1.73713 0.597465 0
M  V30 7391 C 697.228 2.23543 -2.81547 0
M  V30 7392 C 696.892 1.74195 -4.22499 0
M  V30 7393 C 697.889 1.21591 -5.05481 0
M  V30 7394 C 695.574 1.80262 -4.6884 0
M  V30 7395 C 697.568 0.757104 -6.32888 0
M  V30 7396 C 695.255 1.33993 -5.96229 0
M  V30 7397 C 696.253 0.818049 -6.78083 0
M  V30 7398 O 695.941 0.362123 -8.03084 0
M  V30 7399 H 695.673 0.349908 -0.578395 0
M  V30 7400 H 698.227 0.454377 -2.00311 0
M  V30 7401 H 696.457 2.96328 -2.48449 0
M  V30 7402 H 698.146 2.8519 -2.88828 0
M  V30 7403 H 698.912 1.16257 -4.7086 0
M  V30 7404 H 694.791 2.19825 -4.05213 0
M  V30 7405 H 698.335 0.34908 -6.96726 0
M  V30 7406 H 694.232 1.39015 -6.30353 0
M  V30 7407 H 695 0.483134 -8.17073 0
M  V30 7408 N 697.663 1.43903 0.642637 0
M  V30 7409 C 698.909 1.47291 1.40275 0
M  V30 7410 C 699.264 0.0996024 1.92142 0
M  V30 7411 O 698.557 -0.883423 1.70018 0
M  V30 7412 C 698.751 2.45907 2.59354 0
M  V30 7413 C 698.58 3.92691 2.19143 0
M  V30 7414 C 697.35 4.6097 2.06966 0
M  V30 7415 C 699.548 4.82231 1.78768 0
M  V30 7416 N 697.53 5.9263 1.60196 0
M  V30 7417 C 698.901 6.03246 1.43159 0
M  V30 7418 C 700.956 4.69397 1.66045 0
M  V30 7419 C 699.659 7.12851 0.961014 0
M  V30 7420 C 701.685 5.79016 1.20392 0
M  V30 7421 C 701.047 6.99164 0.857271 0
M  V30 7422 H 697.146 0.594055 0.50855 0
M  V30 7423 H 699.73 1.80153 0.738434 0
M  V30 7424 H 697.901 2.15054 3.23429 0
M  V30 7425 H 699.633 2.39665 3.26102 0
M  V30 7426 H 696.388 4.15622 2.27058 0
M  V30 7427 H 696.812 6.62547 1.39143 0
M  V30 7428 H 701.454 3.76954 1.91482 0
M  V30 7429 H 699.172 8.05113 0.694148 0
M  V30 7430 H 702.758 5.71109 1.11023 0
M  V30 7431 H 701.638 7.82544 0.509408 0
M  V30 7432 N 699.141 -0.881989 1.30609 0
M  V30 7433 C 700.104 -1.96957 1.1722 0
M  V30 7434 C 701.104 -1.60472 0.102598 0
M  V30 7435 O 702.294 -1.70628 0.350943 0
M  V30 7436 C 699.426 -3.31463 0.796572 0
M  V30 7437 H 700.619 -2.10262 2.13846 0
M  V30 7438 H 698.172 -1.06877 1.14048 0
M  V30 7439 H 698.907 -3.23859 -0.169053 0
M  V30 7440 H 698.692 -3.59314 1.56959 0
M  V30 7441 H 700.182 -4.11233 0.72645 0
M  V30 7442 N 700.619 -1.13374 -1.09472 0
M  V30 7443 C 701.896 -0.806329 -1.78207 0
M  V30 7444 C 702.276 0.702191 -1.99079 0
M  V30 7445 O 701.624 1.63931 -1.59182 0
M  V30 7446 C 701.834 -1.59271 -3.10538 0
M  V30 7447 C 703.182 -1.78509 -3.85253 0
M  V30 7448 O 704.206 -1.55866 -3.20288 0
M  V30 7449 O 703.065 -2.16287 -5.01879 0
M  V30 7450 H 700.159 -0.29435 -0.772843 0
M  V30 7451 H 702.705 -1.23833 -1.16033 0
M  V30 7452 H 701.477 -2.61792 -2.90828 0
M  V30 7453 H 701.1 -1.15562 -3.80436 0
M  V30 7454 N 702.098 1.27442 -0.927168 0
M  V30 7455 C 703.514 1.46754 -0.627329 0
M  V30 7456 C 703.714 1.83902 0.823549 0
M  V30 7457 O 702.77 1.95215 1.60148 0
M  V30 7458 C 704.083 2.56045 -1.57674 0
M  V30 7459 C 705.631 2.69906 -1.58491 0
M  V30 7460 C 706.106 3.82355 -2.52128 0
M  V30 7461 N 707.597 3.89728 -2.50332 0
M  V30 7462 C 708.332 4.76155 -3.19475 0
M  V30 7463 N 707.828 5.67073 -3.97995 0
M  V30 7464 N 709.621 4.6988 -3.08496 0
M  V30 7465 H 701.772 1.01613 -1.86517 0
M  V30 7466 H 704.035 0.507443 -0.800753 0
M  V30 7467 H 703.741 2.35542 -2.61176 0
M  V30 7468 H 703.615 3.53423 -1.31804 0
M  V30 7469 H 706.002 2.89792 -0.557208 0
M  V30 7470 H 706.083 1.73018 -1.8841 0
M  V30 7471 H 705.727 3.63224 -3.55008 0
M  V30 7472 H 705.657 4.7867 -2.19505 0
M  V30 7473 H 708.148 3.24717 -1.93306 0
M  V30 7474 H 708.461 6.2988 -4.4774 0
M  V30 7475 H 706.806 5.6687 -4.02098 0
M  V30 7476 H 709.997 3.97848 -2.46646 0
M  V30 7477 H 710.17 5.37017 -3.62652 0
M  V30 7478 N 703.576 0.692616 1.41565 0
M  V30 7479 C 704.824 0.221896 2.00878 0
M  V30 7480 C 705.145 -1.18164 1.5512 0
M  V30 7481 O 704.415 -1.79679 0.78054 0
M  V30 7482 H 702.995 0.0790463 0.742806 0
M  V30 7483 H 705.657 0.893115 1.73232 0
M  V30 7484 H 704.753 0.23702 3.11199 0
M  V30 7485 N 705.054 -1.51416 0.437162 0
M  V30 7486 C 706.294 -2.03995 -0.128538 0
M  V30 7487 C 706.658 -1.31417 -1.39977 0
M  V30 7488 O 707.859 -1.74369 -2.0457 0
M  V30 7489 C 706.13 -3.55757 -0.342317 0
M  V30 7490 S 707.689 -4.3006 -0.871446 0
M  V30 7491 H 704.507 -0.710283 -0.0319322 0
M  V30 7492 H 707.109 -1.86177 0.596526 0
M  V30 7493 H 705.813 -4.06148 0.589233 0
M  V30 7494 H 705.344 -3.77869 -1.09447 0
M  V30 7495 H 707.359 -4.47248 -2.14903 0
M  V30 7496 N 706.532 -0.168513 -1.56696 0
M  V30 7497 C 707.442 0.775435 -2.21414 0
M  V30 7498 C 708.458 1.25529 -1.20492 0
M  V30 7499 O 709.634 1.30801 -1.53144 0
M  V30 7500 C 706.699 1.9886 -2.83999 0
M  V30 7501 C 705.76 1.5559 -4.00113 0
M  V30 7502 C 704.993 2.71124 -4.59704 0
M  V30 7503 O 705.216 3.87917 -4.18182 0
M  V30 7504 O 704.15 2.4536 -5.4962 0
M  V30 7505 H 707.976 0.254416 -3.02632 0
M  V30 7506 H 705.561 0.0595507 -1.49281 0
M  V30 7507 H 707.443 2.69816 -3.23693 0
M  V30 7508 H 706.118 2.49874 -2.05779 0
M  V30 7509 H 705.025 0.815924 -3.65094 0
M  V30 7510 H 706.358 1.09271 -4.79917 0
M  V30 7511 N 708.01 1.57248 0.105221 0
M  V30 7512 C 709.256 1.86719 0.806692 0
M  V30 7513 C 709.611 0.758061 1.76837 0
M  V30 7514 O 708.904 -0.240812 1.90081 0
M  V30 7515 C 709.098 3.20437 1.58287 0
M  V30 7516 C 708.927 4.44252 0.697864 0
M  V30 7517 C 707.697 5.04104 0.347444 0
M  V30 7518 C 709.895 5.14299 0.00933014 0
M  V30 7519 N 707.877 6.1146 -0.546786 0
M  V30 7520 C 709.248 6.15528 -0.74336 0
M  V30 7521 C 711.303 4.97857 -0.0656505 0
M  V30 7522 C 710.006 7.02091 -1.56401 0
M  V30 7523 C 712.032 5.84919 -0.873167 0
M  V30 7524 C 711.394 6.8566 -1.61401 0
M  V30 7525 H 707.493 0.73329 0.271679 0
M  V30 7526 H 710.077 1.94575 0.0697152 0
M  V30 7527 H 708.248 3.13651 2.29079 0
M  V30 7528 H 709.98 3.37668 2.23075 0
M  V30 7529 H 706.735 4.68505 0.692817 0
M  V30 7530 H 707.159 6.69779 -0.986157 0
M  V30 7531 H 711.801 4.19919 0.492768 0
M  V30 7532 H 709.519 7.79427 -2.13353 0
M  V30 7533 H 713.105 5.74259 -0.933724 0
M  V30 7534 H 711.985 7.5186 -2.2288 0
M  V30 7535 N 709.488 -0.375779 1.53054 0
M  V30 7536 C 710.899 -0.95309 1.6054 0
M  V30 7537 C 711.25 -1.90575 0.466446 0
M  V30 7538 O 710.375 -2.12507 -0.408609 0
M  V30 7539 C 710.97 -1.73537 2.90982 0
M  V30 7540 C 709.529 -2.26218 3.00836 0
M  V30 7541 C 708.676 -1.07157 2.55759 0
M  V30 7542 H 711.627 -0.154895 1.57942 0
M  V30 7543 H 711.648 -2.59574 2.78211 0
M  V30 7544 H 711.16 -1.04176 3.73857 0
M  V30 7545 H 709.261 -2.98852 2.22527 0
M  V30 7546 H 709.374 -2.54799 4.05727 0
M  V30 7547 H 707.738 -1.43553 2.10391 0
M  V30 7548 H 708.521 -0.393099 3.41042 0
M  V30 7549 N 710.966 -1.44241 -0.634997 0
M  V30 7550 C 711.896 -1.53632 -1.7584 0
M  V30 7551 C 712.877 -0.389603 -1.65578 0
M  V30 7552 O 714.062 -0.609219 -1.84397 0
M  V30 7553 C 711.192 -1.47644 -3.14354 0
M  V30 7554 C 710.146 -2.60752 -3.394 0
M  V30 7555 C 709.472 -2.39817 -4.77904 0
M  V30 7556 C 710.772 -4.02921 -3.32343 0
M  V30 7557 H 712.466 -2.47662 -1.68238 0
M  V30 7558 H 710.012 -1.19197 -0.807969 0
M  V30 7559 H 711.965 -1.52815 -3.92716 0
M  V30 7560 H 710.689 -0.501284 -3.2273 0
M  V30 7561 H 709.348 -2.54965 -2.63417 0
M  V30 7562 H 708.996 -1.40502 -4.82978 0
M  V30 7563 H 708.696 -3.15649 -4.9562 0
M  V30 7564 H 710.22 -2.46799 -5.585 0
M  V30 7565 H 711.634 -4.10098 -4.00615 0
M  V30 7566 H 710.031 -4.78925 -3.61595 0
M  V30 7567 H 711.101 -4.26766 -2.30215 0
M  V30 7568 N 712.444 0.87505 -1.31075 0
M  V30 7569 C 713.692 1.62447 -1.20231 0
M  V30 7570 C 714.013 1.93506 0.240888 0
M  V30 7571 O 713.283 1.57847 1.16022 0
M  V30 7572 H 711.863 0.602207 -0.441991 0
M  V30 7573 H 714.525 1.04788 -1.64334 0
M  V30 7574 H 713.621 2.57031 -1.77036 0
M  V30 7575 N 713.922 1.13953 1.08869 0
M  V30 7576 C 715.152 0.926825 1.84644 0
M  V30 7577 C 715.56 -0.527941 1.81685 0
M  V30 7578 O 714.903 -1.37742 1.21543 0
M  V30 7579 C 714.965 1.34416 3.33426 0
M  V30 7580 C 714.629 2.81351 3.60126 0
M  V30 7581 C 715.626 3.79486 3.55368 0
M  V30 7582 C 713.311 3.1865 3.88288 0
M  V30 7583 C 715.305 5.1293 3.78393 0
M  V30 7584 C 712.992 4.5227 4.10968 0
M  V30 7585 C 713.99 5.4922 4.06013 0
M  V30 7586 O 713.678 6.80429 4.28102 0
M  V30 7587 H 713.41 0.33013 0.589907 0
M  V30 7588 H 715.964 1.51738 1.38436 0
M  V30 7589 H 714.194 0.696901 3.80368 0
M  V30 7590 H 715.883 1.10302 3.90626 0
M  V30 7591 H 716.649 3.52017 3.3363 0
M  V30 7592 H 712.528 2.43785 3.91267 0
M  V30 7593 H 716.072 5.88591 3.74442 0
M  V30 7594 H 711.969 4.79462 4.32188 0
M  V30 7595 H 712.737 6.86617 4.45533 0
M  V30 7596 N 715.4 -1.26948 0.933913 0
M  V30 7597 C 716.649 -1.93378 0.573409 0
M  V30 7598 C 716.962 -1.74148 -0.890614 0
M  V30 7599 O 718.168 -2.34971 -1.36017 0
M  V30 7600 C 716.624 -3.46449 0.974747 0
M  V30 7601 C 716.232 -3.74425 2.45988 0
M  V30 7602 C 717.976 -4.18924 0.685791 0
M  V30 7603 C 715.883 -5.209 2.8003 0
M  V30 7604 H 714.813 -0.723952 0.210736 0
M  V30 7605 H 717.464 -1.44143 1.13557 0
M  V30 7606 H 715.846 -3.94528 0.341181 0
M  V30 7607 H 717.02 -3.37079 3.14188 0
M  V30 7608 H 715.335 -3.15167 2.72138 0
M  V30 7609 H 717.932 -5.26786 0.916546 0
M  V30 7610 H 718.275 -4.14587 -0.377217 0
M  V30 7611 H 718.808 -3.76687 1.27874 0
M  V30 7612 H 715.547 -5.30332 3.85264 0
M  V30 7613 H 715.067 -5.59369 2.16485 0
M  V30 7614 H 716.746 -5.88837 2.68105 0
M  V30 7615 N 716.879 -0.700114 -1.41195 0
M  V30 7616 C 718.119 -0.237223 -2.03019 0
M  V30 7617 C 718.483 1.14304 -1.54268 0
M  V30 7618 O 719.684 1.70204 -2.08048 0
M  V30 7619 C 717.955 -0.297442 -3.5616 0
M  V30 7620 S 719.514 0.0907367 -4.38706 0
M  V30 7621 H 716.332 -0.0952147 -0.704596 0
M  V30 7622 H 718.934 -0.918901 -1.72559 0
M  V30 7623 H 717.638 -1.30391 -3.89135 0
M  V30 7624 H 717.169 0.403233 -3.91328 0
M  V30 7625 H 719.184 1.31721 -4.78397 0
M  V30 7626 N 718.357 1.51182 -0.445186 0
M  V30 7627 C 719.304 2.27939 0.362291 0
M  V30 7628 C 720.274 1.31864 1.01 0
M  V30 7629 O 721.459 1.60776 1.02741 0
M  V30 7630 C 718.599 3.13016 1.45311 0
M  V30 7631 C 717.712 4.24093 0.822757 0
M  V30 7632 C 716.847 4.96467 1.88928 0
M  V30 7633 C 715.886 5.99454 1.23778 0
M  V30 7634 N 715.023 6.65206 2.24602 0
M  V30 7635 H 719.863 2.965 -0.29862 0
M  V30 7636 H 717.4 1.46237 -0.15911 0
M  V30 7637 H 719.358 3.60673 2.09692 0
M  V30 7638 H 717.988 2.46553 2.08354 0
M  V30 7639 H 717.04 3.80341 0.0670364 0
M  V30 7640 H 718.352 4.97853 0.307184 0
M  V30 7641 H 717.506 5.47712 2.60953 0
M  V30 7642 H 716.245 4.22355 2.4386 0
M  V30 7643 H 715.25 5.47494 0.503042 0
M  V30 7644 H 716.475 6.75527 0.695694 0
M  V30 7645 H 714.421 5.93901 2.78599 0
M  V30 7646 H 714.338 7.34756 1.77958 0
M  V30 7647 H 715.606 7.21078 2.96085 0
M  V30 7648 N 719.835 0.176821 1.56605 0
M  V30 7649 C 720.768 -0.790135 2.14084 0
M  V30 7650 C 721.746 -1.22219 1.07244 0
M  V30 7651 O 722.93 -1.31298 1.35252 0
M  V30 7652 C 720.057 -2.06475 2.68488 0
M  V30 7653 C 719.103 -1.77628 3.87751 0
M  V30 7654 S 719.936 -0.940612 5.27174 0
M  V30 7655 C 721.092 -2.22577 5.84988 0
M  V30 7656 H 721.325 -0.30144 2.95768 0
M  V30 7657 H 718.858 -0.0379279 1.54353 0
M  V30 7658 H 720.816 -2.79683 3.00479 0
M  V30 7659 H 719.477 -2.52457 1.8688 0
M  V30 7660 H 718.67 -2.72215 4.24164 0
M  V30 7661 H 718.272 -1.12512 3.56675 0
M  V30 7662 H 720.564 -3.17992 5.98237 0
M  V30 7663 H 721.507 -1.90624 6.81959 0
M  V30 7664 H 721.915 -2.34588 5.13448 0
M  V30 7665 N 721.313 -1.57302 -0.09688 0
M  V30 7666 C 722.26 -2.01933 -1.11766 0
M  V30 7667 C 723.23 -0.895329 -1.39904 0
M  V30 7668 O 724.415 -1.16119 -1.51397 0
M  V30 7669 C 721.555 -2.44726 -2.43317 0
M  V30 7670 C 720.668 -3.70639 -2.21925 0
M  V30 7671 C 719.803 -4.02318 -3.46862 0
M  V30 7672 C 718.842 -5.21346 -3.20725 0
M  V30 7673 N 717.979 -5.48787 -4.37924 0
M  V30 7674 H 722.819 -2.88919 -0.730075 0
M  V30 7675 H 720.356 -1.42901 -0.348962 0
M  V30 7676 H 722.314 -2.6758 -3.20088 0
M  V30 7677 H 720.944 -1.60753 -2.79926 0
M  V30 7678 H 719.996 -3.55271 -1.35965 0
M  V30 7679 H 721.308 -4.57557 -1.98603 0
M  V30 7680 H 720.462 -4.25939 -4.32042 0
M  V30 7681 H 719.201 -3.13918 -3.73238 0
M  V30 7682 H 718.206 -4.97547 -2.33938 0
M  V30 7683 H 719.431 -6.11343 -2.95697 0
M  V30 7684 H 717.377 -4.63346 -4.64378 0
M  V30 7685 H 717.294 -6.30073 -4.17785 0
M  V30 7686 H 718.562 -5.76943 -5.24173 0
M  V30 7687 N 722.791 0.367657 -1.53252 0
M  V30 7688 C 724.016 1.13566 -1.73544 0
M  V30 7689 C 724.441 1.82329 -0.462344 0
M  V30 7690 O 723.799 1.71655 0.583472 0
M  V30 7691 C 723.847 2.14322 -2.89997 0
M  V30 7692 O 722.951 3.21359 -2.58461 0
M  V30 7693 H 722.292 0.329614 -0.576412 0
M  V30 7694 H 724.822 0.425417 -2.00128 0
M  V30 7695 H 724.832 2.57958 -3.16104 0
M  V30 7696 H 723.507 1.63664 -3.82344 0
M  V30 7697 H 722.084 2.8271 -2.43165 0
M  V30 7698 N 724.269 1.44576 0.627338 0
M  V30 7699 C 725.685 1.28546 0.945938 0
M  V30 7700 C 725.885 0.224003 2.00251 0
M  V30 7701 O 724.941 -0.388817 2.49488 0
M  V30 7702 C 726.254 2.65825 1.40561 0
M  V30 7703 C 727.802 2.73566 1.52088 0
M  V30 7704 C 728.277 4.11323 2.01438 0
M  V30 7705 N 729.768 4.13519 2.08702 0
M  V30 7706 C 730.503 5.16964 2.48065 0
M  V30 7707 N 729.999 6.30768 2.86538 0
M  V30 7708 N 731.792 5.04319 2.48232 0
M  V30 7709 H 723.943 2.1228 -0.0713567 0
M  V30 7710 H 726.206 0.947503 0.0307081 0
M  V30 7711 H 725.912 3.44591 0.703539 0
M  V30 7712 H 725.786 2.92969 2.37591 0
M  V30 7713 H 728.173 1.95116 2.21391 0
M  V30 7714 H 728.254 2.50159 0.534237 0
M  V30 7715 H 727.898 4.9025 1.32729 0
M  V30 7716 H 727.828 4.32109 3.0098 0
M  V30 7717 H 730.319 3.31385 1.81638 0
M  V30 7718 H 730.632 7.0551 3.15398 0
M  V30 7719 H 728.977 6.342 2.84281 0
M  V30 7720 H 732.168 4.14465 2.17569 0
M  V30 7721 H 732.341 5.85059 2.78585 0
M  V30 7722 N 725.747 -0.868086 1.31537 0
M  V30 7723 C 726.972 -1.65926 1.24432 0
M  V30 7724 C 727.397 -1.87169 -0.186936 0
M  V30 7725 O 726.755 -1.4148 -1.13371 0
M  V30 7726 C 726.803 -3.00347 1.9956 0
M  V30 7727 O 725.907 -3.90221 1.33422 0
M  V30 7728 H 725.248 -0.506375 0.429512 0
M  V30 7729 H 727.778 -1.0822 1.73637 0
M  V30 7730 H 727.788 -3.50269 2.09226 0
M  V30 7731 H 726.463 -2.84205 3.03645 0
M  V30 7732 H 725.04 -3.48672 1.32219 0
M  V30 7733 N 727.225 -1.14528 -1.08264 0
M  V30 7734 C 728.157 -0.791325 -2.15106 0
M  V30 7735 C 729.17 0.192449 -1.61659 0
M  V30 7736 O 730.359 -0.0294704 -1.78476 0
M  V30 7737 C 727.459 -0.154183 -3.38549 0
M  V30 7738 C 726.632 -1.17305 -4.21377 0
M  V30 7739 C 725.691 -0.559401 -5.23218 0
M  V30 7740 O 724.717 -1.22277 -5.55911 0
M  V30 7741 N 725.919 0.663159 -5.767 0
M  V30 7742 H 728.684 -1.71076 -2.46075 0
M  V30 7743 H 726.245 -1.0399 -1.24087 0
M  V30 7744 H 728.237 0.268884 -4.03806 0
M  V30 7745 H 726.807 0.668418 -3.0537 0
M  V30 7746 H 726.027 -1.773 -3.52077 0
M  V30 7747 H 727.315 -1.86128 -4.73533 0
M  V30 7748 H 726.713 1.22066 -5.52373 0
M  V30 7749 H 725.27 1.02871 -6.43631 0
M  V30 7750 N 728.703 1.26451 -0.940633 0
M  V30 7751 C 729.951 1.93395 -0.586748 0
M  V30 7752 C 730.272 1.7417 0.876921 0
M  V30 7753 O 729.542 1.097 1.62304 0
M  V30 7754 H 728.122 0.715687 -0.214012 0
M  V30 7755 H 730.784 1.53902 -1.19584 0
M  V30 7756 H 729.88 3.01565 -0.804059 0
M  V30 7757 N 730.181 0.707592 1.40822 0
M  V30 7758 C 731.592 0.317011 1.83989 0
M  V30 7759 C 731.943 -1.14697 1.59182 0
M  V30 7760 O 731.068 -1.8818 1.06852 0
M  V30 7761 C 731.663 0.568593 3.33995 0
M  V30 7762 C 730.222 0.231804 3.75686 0
M  V30 7763 C 729.369 0.844933 2.64114 0
M  V30 7764 H 732.32 0.907349 1.30203 0
M  V30 7765 H 732.341 -0.168798 3.80125 0
M  V30 7766 H 731.853 1.63417 3.52018 0
M  V30 7767 H 729.954 -0.82903 3.6326 0
M  V30 7768 H 730.067 0.695219 4.74029 0
M  V30 7769 H 728.431 0.273588 2.53226 0
M  V30 7770 H 729.214 1.91462 2.84951 0
M  V30 7771 N 731.66 -1.50943 0.453197 0
M  V30 7772 C 732.57 -2.31884 -0.355963 0
M  V30 7773 C 733.586 -1.41481 -1.01287 0
M  V30 7774 O 734.762 -1.74546 -1.00477 0
M  V30 7775 C 731.827 -3.15668 -1.43369 0
M  V30 7776 C 730.888 -4.2187 -0.795253 0
M  V30 7777 C 730.121 -5.0165 -1.82162 0
M  V30 7778 O 730.344 -4.82266 -3.04592 0
M  V30 7779 O 729.278 -5.85311 -1.40336 0
M  V30 7780 H 733.104 -3.02162 0.305248 0
M  V30 7781 H 730.689 -1.47839 0.215398 0
M  V30 7782 H 732.571 -3.67709 -2.05836 0
M  V30 7783 H 731.246 -2.48137 -2.07869 0
M  V30 7784 H 730.153 -3.73867 -0.132106 0
M  V30 7785 H 731.486 -4.9182 -0.193484 0
M  V30 7786 N 733.138 -0.185124 -1.56509 0
M  V30 7787 C 734.387 0.456421 -1.96468 0
M  V30 7788 C 734.7 1.63448 -1.07444 0
M  V30 7789 O 735.906 2.34316 -1.37143 0
M  V30 7790 C 734.362 0.863404 -3.4939 0
M  V30 7791 C 733.97 -0.289815 -4.47062 0
M  V30 7792 C 735.714 1.47259 -3.98139 0
M  V30 7793 C 733.621 0.137571 -5.9124 0
M  V30 7794 H 732.551 0.17429 -0.733579 0
M  V30 7795 H 735.202 -0.275554 -1.81419 0
M  V30 7796 H 733.584 1.65176 -3.59907 0
M  V30 7797 H 734.758 -1.06728 -4.4827 0
M  V30 7798 H 733.073 -0.809851 -4.08449 0
M  V30 7799 H 735.67 1.80463 -5.03326 0
M  V30 7800 H 736.013 2.3755 -3.41871 0
M  V30 7801 H 736.546 0.748405 -3.90696 0
M  V30 7802 H 733.285 -0.730907 -6.51412 0
M  V30 7803 H 732.805 0.8801 -5.93308 0
M  V30 7804 H 734.484 0.576771 -6.44424 0
M  V30 7805 N 734.616 1.57351 0.0885366 0
M  V30 7806 C 735.862 1.86696 0.791996 0
M  V30 7807 C 736.195 0.775148 1.78059 0
M  V30 7808 O 735.47 -0.216247 1.93294 0
M  V30 7809 C 735.753 3.26684 1.51491 0
M  V30 7810 C 735.606 4.465 0.543858 0
M  V30 7811 C 736.925 3.64664 2.46391 0
M  V30 7812 H 734.044 0.679049 0.286463 0
M  V30 7813 H 736.686 1.89919 0.0554866 0
M  V30 7814 H 734.836 3.24067 2.14273 0
M  V30 7815 H 736.508 4.61235 -0.0774597 0
M  V30 7816 H 734.751 4.33567 -0.142228 0
M  V30 7817 H 735.422 5.41192 1.08696 0
M  V30 7818 H 737.898 3.68267 1.93698 0
M  V30 7819 H 736.774 4.63534 2.93986 0
M  V30 7820 H 737.035 2.93698 3.30445 0
M  V30 7821 N 736.094 -0.359525 1.53444 0
M  V30 7822 C 737.004 -1.46445 1.83278 0
M  V30 7823 C 738.02 -1.5833 0.721629 0
M  V30 7824 O 739.196 -1.7411 1.01231 0
M  V30 7825 C 736.261 -2.81638 2.02191 0
M  V30 7826 C 735.322 -2.7923 3.26082 0
M  V30 7827 C 734.555 -4.07974 3.44082 0
M  V30 7828 O 734.778 -5.04447 2.66251 0
M  V30 7829 O 733.712 -4.13417 4.37458 0
M  V30 7830 H 737.538 -1.24156 2.77162 0
M  V30 7831 H 735.123 -0.550201 1.389 0
M  V30 7832 H 737.005 -3.61732 2.16167 0
M  V30 7833 H 735.68 -3.03892 1.11496 0
M  V30 7834 H 734.587 -1.97813 3.17523 0
M  V30 7835 H 735.92 -2.6193 4.16718 0
M  V30 7836 N 737.572 -1.44907 -0.619662 0
M  V30 7837 C 738.818 -1.48512 -1.38102 0
M  V30 7838 C 739.151 -0.121686 -1.93818 0
M  V30 7839 O 738.426 0.862256 -1.74343 0
M  V30 7840 C 738.709 -2.55469 -2.53787 0
M  V30 7841 C 738.562 -4.01212 -2.03345 0
M  V30 7842 C 739.881 -2.58821 -3.55949 0
M  V30 7843 H 737 -0.540712 -0.500799 0
M  V30 7844 H 739.642 -1.7665 -0.69962 0
M  V30 7845 H 737.792 -2.31606 -3.11915 0
M  V30 7846 H 739.464 -4.36245 -1.49959 0
M  V30 7847 H 737.707 -4.12443 -1.34438 0
M  V30 7848 H 738.378 -4.71717 -2.86683 0
M  V30 7849 H 740.854 -2.80172 -3.07641 0
M  V30 7850 H 739.73 -3.35542 -4.34399 0
M  V30 7851 H 739.991 -1.63451 -4.10775 0
M  V30 7852 N 739.05 0.861098 -1.31996 0
M  V30 7853 C 739.96 2.00154 -1.22374 0
M  V30 7854 C 740.976 1.73447 -0.138631 0
M  V30 7855 O 742.152 1.98191 -0.358104 0
M  V30 7856 C 739.217 3.33696 -0.940645 0
M  V30 7857 C 738.278 3.73668 -2.11355 0
M  V30 7858 C 737.511 5.00837 -1.84386 0
M  V30 7859 O 737.734 5.64996 -0.783287 0
M  V30 7860 O 736.668 5.37787 -2.70313 0
M  V30 7861 H 740.494 2.11207 -2.18233 0
M  V30 7862 H 738.079 0.990768 -1.11822 0
M  V30 7863 H 739.961 4.13756 -0.798987 0
M  V30 7864 H 738.636 3.23698 -0.0121636 0
M  V30 7865 H 737.543 2.94211 -2.31065 0
M  V30 7866 H 738.876 3.88303 -3.02459 0
M  V30 7867 N 740.528 1.15101 1.07655 0
M  V30 7868 C 741.475 0.844958 2.14777 0
M  V30 7869 C 742.445 -0.200798 1.64882 0
M  V30 7870 O 743.63 -0.0690278 1.90675 0
M  V30 7871 C 740.77 0.337018 3.4345 0
M  V30 7872 C 739.883 1.44398 4.07153 0
M  V30 7873 C 739.018 0.892487 5.23649 0
M  V30 7874 C 738.057 1.9766 5.79307 0
M  V30 7875 N 737.194 1.44171 6.87138 0
M  V30 7876 H 742.034 1.76242 2.40297 0
M  V30 7877 H 739.571 0.879435 1.17917 0
M  V30 7878 H 741.529 0.024256 4.17193 0
M  V30 7879 H 740.159 -0.543531 3.18191 0
M  V30 7880 H 739.211 1.87299 3.31094 0
M  V30 7881 H 740.523 2.26262 4.4453 0
M  V30 7882 H 739.677 0.532083 6.04362 0
M  V30 7883 H 738.416 0.0429854 4.87681 0
M  V30 7884 H 737.421 2.34586 4.97242 0
M  V30 7885 H 738.646 2.82982 6.17331 0
M  V30 7886 H 736.592 0.614518 6.53115 0
M  V30 7887 H 736.509 2.19665 7.23383 0
M  V30 7888 H 737.777 1.10945 7.71564 0
M  V30 7889 N 742.006 -1.2595 0.947325 0
M  V30 7890 C 743.254 -1.93081 0.596996 0
M  V30 7891 C 743.575 -1.74632 -0.867672 0
M  V30 7892 O 742.845 -1.1056 -1.6172 0
M  V30 7893 H 741.425 -0.714542 0.217805 0
M  V30 7894 H 744.087 -1.53265 1.20398 0
M  V30 7895 H 743.183 -3.01134 0.82004 0
M  V30 7896 N 743.484 -0.715051 -1.40445 0
M  V30 7897 C 744.724 -0.258742 -2.02756 0
M  V30 7898 C 745.088 1.12661 -1.55472 0
M  V30 7899 O 746.289 1.67988 -2.09842 0
M  V30 7900 C 744.56 -0.335201 -3.55825 0
M  V30 7901 S 746.119 0.044201 -4.38778 0
M  V30 7902 H 742.937 -0.102683 -0.703546 0
M  V30 7903 H 745.539 -0.937151 -1.71574 0
M  V30 7904 H 744.243 -1.34511 -3.87731 0
M  V30 7905 H 743.774 0.361705 -3.91734 0
M  V30 7906 H 745.789 1.26639 -4.79768 0
M  V30 7907 N 744.962 1.50701 -0.461195 0
M  V30 7908 C 746.378 1.59187 -0.114786 0
M  V30 7909 C 746.578 1.4702 1.37794 0
M  V30 7910 O 745.634 1.32361 2.15027 0
M  V30 7911 C 746.947 2.93453 -0.656167 0
M  V30 7912 C 748.495 3.06824 -0.618715 0
M  V30 7913 C 748.97 4.4365 -1.13747 0
M  V30 7914 N 750.461 4.50035 -1.09646 0
M  V30 7915 C 751.196 5.54278 -1.46846 0
M  V30 7916 N 750.692 6.65822 -1.91448 0
M  V30 7917 N 752.485 5.44767 -1.38512 0
M  V30 7918 H 744.636 1.56853 -1.43216 0
M  V30 7919 H 746.899 0.740712 -0.59165 0
M  V30 7920 H 746.605 3.07802 -1.7015 0
M  V30 7921 H 746.479 3.77082 -0.0942261 0
M  V30 7922 H 748.866 2.92129 0.417685 0
M  V30 7923 H 748.947 2.24976 -1.21734 0
M  V30 7924 H 748.591 4.59093 -2.17245 0
M  V30 7925 H 748.521 5.24074 -0.515153 0
M  V30 7926 H 751.012 3.69988 -0.769217 0
M  V30 7927 H 751.325 7.41413 -2.18007 0
M  V30 7928 H 749.67 6.66968 -1.95393 0
M  V30 7929 H 752.861 4.56511 -1.03516 0
M  V30 7930 H 753.034 6.25889 -1.6783 0
M  V30 7931 N 746.441 0.193421 1.56409 0
M  V30 7932 C 747.388 -0.728124 2.19014 0
M  V30 7933 C 748.358 -1.21098 1.13686 0
M  V30 7934 O 749.543 -1.27517 1.4193 0
M  V30 7935 C 746.683 -1.94277 2.8522 0
M  V30 7936 C 745.796 -1.50143 4.05069 0
M  V30 7937 C 744.931 -2.67145 4.59137 0
M  V30 7938 C 743.97 -2.19609 5.71348 0
M  V30 7939 N 743.107 -3.29782 6.19829 0
M  V30 7940 H 747.947 -0.187499 2.9741 0
M  V30 7941 H 745.484 -0.0808064 1.46878 0
M  V30 7942 H 747.442 -2.65551 3.21774 0
M  V30 7943 H 746.072 -2.45673 2.09391 0
M  V30 7944 H 745.124 -0.684624 3.74189 0
M  V30 7945 H 746.436 -1.11266 4.86232 0
M  V30 7946 H 745.59 -3.46544 4.97988 0
M  V30 7947 H 744.329 -3.09295 3.77078 0
M  V30 7948 H 743.334 -1.38664 5.32027 0
M  V30 7949 H 744.559 -1.78492 6.55223 0
M  V30 7950 H 742.505 -3.71466 5.40693 0
M  V30 7951 H 742.422 -2.95069 6.96039 0
M  V30 7952 H 743.69 -4.094 6.63334 0
M  V30 7953 N 747.919 -1.57396 -0.0801906 0
M  V30 7954 C 749.167 -1.86467 -0.779384 0
M  V30 7955 C 749.488 -0.784243 -1.78535 0
M  V30 7956 O 748.758 0.187986 -1.94996 0
M  V30 7957 H 747.338 -0.68806 -0.29083 0
M  V30 7958 H 750 -1.94813 -0.0582749 0
M  V30 7959 H 749.096 -2.83701 -1.30078 0
M  V30 7960 N 749.397 0.351382 -1.53633 0
M  V30 7961 C 750.643 1.09049 -1.71697 0
M  V30 7962 C 750.998 1.86563 -0.470314 0
M  V30 7963 O 750.291 1.83922 0.536954 0
M  V30 7964 C 750.485 2.06744 -2.91533 0
M  V30 7965 C 750.314 1.38832 -4.27733 0
M  V30 7966 C 749.084 1.13646 -4.92354 0
M  V30 7967 C 751.282 0.818602 -5.07743 0
M  V30 7968 N 749.264 0.422324 -6.12446 0
M  V30 7969 C 750.635 0.234602 -6.19556 0
M  V30 7970 C 752.69 0.718679 -4.92686 0
M  V30 7971 C 751.393 -0.439592 -7.17955 0
M  V30 7972 C 753.419 0.0582402 -5.91371 0
M  V30 7973 C 752.781 -0.514823 -7.02516 0
M  V30 7974 H 748.88 0.383697 -0.681396 0
M  V30 7975 H 751.464 0.375063 -1.91053 0
M  V30 7976 H 749.635 2.75586 -2.73691 0
M  V30 7977 H 751.367 2.73436 -2.98353 0
M  V30 7978 H 748.122 1.4215 -4.51764 0
M  V30 7979 H 748.546 0.0802092 -6.76952 0
M  V30 7980 H 753.188 1.14748 -4.06931 0
M  V30 7981 H 750.906 -0.880307 -8.03291 0
M  V30 7982 H 754.492 -0.0183382 -5.81797 0
M  V30 7983 H 753.372 -1.01777 -7.77567 0
M  V30 7984 N 750.875 1.45233 0.611969 0
M  V30 7985 C 751.822 1.5357 1.72293 0
M  V30 7986 C 752.792 0.381912 1.6165 0
M  V30 7987 O 753.977 0.594765 1.81293 0
M  V30 7988 C 751.117 1.50419 3.10593 0
M  V30 7989 C 750.23 2.76316 3.32074 0
M  V30 7990 C 749.365 2.64866 4.60456 0
M  V30 7991 C 748.404 3.85838 4.7518 0
M  V30 7992 N 747.541 3.72949 5.94856 0
M  V30 7993 H 752.381 2.4848 1.64504 0
M  V30 7994 H 749.918 1.23302 0.802191 0
M  V30 7995 H 751.876 1.4658 3.90602 0
M  V30 7996 H 750.506 0.590621 3.17351 0
M  V30 7997 H 749.558 2.90261 2.45872 0
M  V30 7998 H 750.87 3.66055 3.38829 0
M  V30 7999 H 750.024 2.58969 5.48653 0
M  V30 8000 H 748.763 1.72719 4.56092 0
M  V30 8001 H 747.768 3.92099 3.85407 0
M  V30 8002 H 748.993 4.79045 4.81344 0
M  V30 8003 H 746.939 2.83567 5.91545 0
M  V30 8004 H 746.856 4.56319 6.02751 0
M  V30 8005 H 748.124 3.70976 6.85563 0
M  V30 8006 N 752.353 -0.854086 1.3245 0
M  V30 8007 C 753.3 -1.96271 1.21434 0
M  V30 8008 C 754.27 -1.6582 0.0963851 0
M  V30 8009 O 755.455 -1.88851 0.27203 0
M  V30 8010 C 752.595 -3.31939 0.943952 0
M  V30 8011 C 751.708 -3.74885 2.14675 0
M  V30 8012 C 750.843 -4.99347 1.81179 0
M  V30 8013 C 749.882 -5.34785 2.97777 0
M  V30 8014 N 749.019 -6.50425 2.6437 0
M  V30 8015 H 753.859 -2.05025 2.16261 0
M  V30 8016 H 751.396 -1.00348 1.07558 0
M  V30 8017 H 753.354 -4.10076 0.767675 0
M  V30 8018 H 751.984 -3.22784 0.0324763 0
M  V30 8019 H 751.036 -2.92396 2.43328 0
M  V30 8020 H 752.348 -3.97068 3.01891 0
M  V30 8021 H 751.502 -5.85193 1.60107 0
M  V30 8022 H 750.241 -4.79101 0.911777 0
M  V30 8023 H 749.246 -4.47451 3.1948 0
M  V30 8024 H 750.471 -5.56988 3.88511 0
M  V30 8025 H 748.417 -6.31695 1.7691 0
M  V30 8026 H 748.334 -6.7263 3.45116 0
M  V30 8027 H 749.602 -7.39422 2.46729 0
M  V30 8028 N 753.831 -1.1567 -1.07043 0
M  V30 8029 C 754.781 -0.824733 -2.12561 0
M  V30 8030 C 755.765 0.19243 -1.59745 0
M  V30 8031 O 756.957 -0.00728759 -1.76998 0
M  V30 8032 C 754.086 -0.31921 -3.41813 0
M  V30 8033 C 753.172 -1.36671 -4.01475 0
M  V30 8034 N 753.563 -2.57493 -4.35351 0
M  V30 8035 C 751.861 -1.22018 -4.28984 0
M  V30 8036 C 752.562 -3.24658 -4.82672 0
M  V30 8037 N 751.538 -2.52043 -4.81638 0
M  V30 8038 H 755.34 -1.74363 -2.3659 0
M  V30 8039 H 752.854 -1.04262 -1.24511 0
M  V30 8040 H 754.851 -0.0630216 -4.16852 0
M  V30 8041 H 753.511 0.593708 -3.19226 0
M  V30 8042 H 754.522 -2.94612 -4.25939 0
M  V30 8043 H 751.199 -0.367414 -4.1588 0
M  V30 8044 H 752.589 -4.2775 -5.1815 0
M  V30 8045 N 755.309 1.25446 -0.953992 0
M  V30 8046 C 756.259 2.23627 -0.444413 0
M  V30 8047 C 757.243 1.54004 0.465993 0
M  V30 8048 O 758.435 1.74454 0.29915 0
M  V30 8049 C 755.564 3.42179 0.277175 0
M  V30 8050 C 754.65 4.1907 -0.651263 0
M  V30 8051 N 755.041 4.73346 -1.78262 0
M  V30 8052 C 753.339 4.43628 -0.459338 0
M  V30 8053 C 754.04 5.31576 -2.36224 0
M  V30 8054 N 753.016 5.17991 -1.64884 0
M  V30 8055 H 756.818 2.63197 -1.30785 0
M  V30 8056 H 754.332 1.40677 -0.811402 0
M  V30 8057 H 756.329 4.11653 0.659367 0
M  V30 8058 H 754.989 3.04134 1.13723 0
M  V30 8059 H 756 4.705 -2.1645 0
M  V30 8060 H 752.677 4.15963 0.357885 0
M  V30 8061 H 754.067 5.84361 -3.3162 0
M  V30 8062 N 756.787 0.722489 1.40064 0
M  V30 8063 C 758.034 0.264979 2.00759 0
M  V30 8064 C 758.362 -1.14395 1.57302 0
M  V30 8065 O 757.617 -1.79165 0.787298 0
M  V30 8066 C 757.916 0.300682 3.56133 0
M  V30 8067 C 757.582 1.66087 4.19197 0
M  V30 8068 C 756.244 2.03319 4.36136 0
M  V30 8069 C 758.596 2.55452 4.54306 0
M  V30 8070 C 755.924 3.29448 4.8547 0
M  V30 8071 C 758.276 3.8094 5.05042 0
M  V30 8072 C 756.94 4.1828 5.2019 0
M  V30 8073 H 756.21 0.0969625 0.734629 0
M  V30 8074 H 758.857 0.926877 1.67575 0
M  V30 8075 H 757.162 -0.44479 3.89267 0
M  V30 8076 H 758.859 -0.0712542 4.00937 0
M  V30 8077 H 755.449 1.36137 4.06405 0
M  V30 8078 H 759.633 2.27961 4.40849 0
M  V30 8079 H 754.889 3.58338 4.95382 0
M  V30 8080 H 759.063 4.50351 5.31184 0
M  V30 8081 H 756.69 5.16081 5.58179 0
M  V30 8082 N 758.265 -1.50454 0.469181 0
M  V30 8083 C 759.495 -2.06429 -0.0840913 0
M  V30 8084 C 759.903 -1.3334 -1.34227 0
M  V30 8085 O 759.246 -0.395656 -1.79389 0
M  V30 8086 C 759.308 -3.56797 -0.440049 0
M  V30 8087 C 758.972 -4.51359 0.715838 0
M  V30 8088 C 759.969 -4.94754 1.59732 0
M  V30 8089 C 757.654 -4.94069 0.905621 0
M  V30 8090 C 759.648 -5.79564 2.653 0
M  V30 8091 C 757.335 -5.78662 1.96453 0
M  V30 8092 C 758.333 -6.21311 2.83658 0
M  V30 8093 O 758.021 -7.04218 3.87727 0
M  V30 8094 H 757.753 -0.675994 0.00289751 0
M  V30 8095 H 760.307 -1.94629 0.656417 0
M  V30 8096 H 758.537 -3.66492 -1.23372 0
M  V30 8097 H 760.226 -3.95145 -0.928181 0
M  V30 8098 H 760.992 -4.62428 1.46237 0
M  V30 8099 H 756.871 -4.60394 0.236326 0
M  V30 8100 H 760.415 -6.12774 3.33398 0
M  V30 8101 H 756.312 -6.10401 2.09955 0
M  V30 8102 H 757.08 -7.22464 3.84692 0
M  V30 8103 N 759.743 -0.201713 -1.56304 0
M  V30 8104 C 760.983 0.437395 -1.99665 0
M  V30 8105 C 761.347 1.58341 -1.08592 0
M  V30 8106 O 762.548 2.28716 -1.41217 0
M  V30 8107 C 760.819 0.879572 -3.46408 0
M  V30 8108 S 762.378 1.51558 -4.11795 0
M  V30 8109 H 759.196 0.139621 -0.697156 0
M  V30 8110 H 761.798 -0.306337 -1.93085 0
M  V30 8111 H 760.502 0.0355295 -4.10385 0
M  V30 8112 H 760.033 1.65661 -3.56819 0
M  V30 8113 H 762.048 2.80445 -4.09347 0
M  V30 8114 N 761.222 1.57436 0.0718424 0
M  V30 8115 C 762.452 1.91196 0.782795 0
M  V30 8116 C 762.86 0.795927 1.71644 0
M  V30 8117 O 762.203 -0.239604 1.82131 0
M  V30 8118 C 762.265 3.20421 1.63005 0
M  V30 8119 C 761.929 4.48724 0.865782 0
M  V30 8120 C 762.926 5.19571 0.185051 0
M  V30 8121 C 760.611 4.95345 0.832971 0
M  V30 8122 C 762.605 6.3529 -0.518264 0
M  V30 8123 C 760.292 6.1097 0.125884 0
M  V30 8124 C 761.29 6.80794 -0.548533 0
M  V30 8125 O 760.978 7.94213 -1.24423 0
M  V30 8126 H 760.71 0.636486 0.227731 0
M  V30 8127 H 763.264 2.05348 0.0464187 0
M  V30 8128 H 761.494 3.02478 2.40923 0
M  V30 8129 H 763.183 3.39831 2.21968 0
M  V30 8130 H 763.949 4.8458 0.201707 0
M  V30 8131 H 759.828 4.40871 1.34737 0
M  V30 8132 H 763.372 6.89725 -1.04523 0
M  V30 8133 H 759.269 6.45411 0.107155 0
M  V30 8134 H 760.037 8.10331 -1.1535 0
M  V30 8135 N 762.7 -0.34323 1.53817 0
M  V30 8136 C 763.633 -1.44472 1.76644 0
M  V30 8137 C 764.611 -1.50498 0.615556 0
M  V30 8138 O 765.795 -1.6821 0.850751 0
M  V30 8139 C 762.922 -2.82705 1.86536 0
M  V30 8140 C 761.968 -2.94302 3.08688 0
M  V30 8141 S 762.801 -2.60739 4.67735 0
M  V30 8142 C 763.957 -4.01079 4.80506 0
M  V30 8143 H 764.19 -1.24893 2.69794 0
M  V30 8144 H 761.723 -0.538915 1.4469 0
M  V30 8145 H 763.681 -3.62342 1.92921 0
M  V30 8146 H 762.342 -2.9958 0.943975 0
M  V30 8147 H 761.535 -3.95593 3.12286 0
M  V30 8148 H 761.137 -2.22614 3.00531 0
M  V30 8149 H 763.429 -4.95603 4.61935 0
M  V30 8150 H 764.372 -4.02475 5.82597 0
M  V30 8151 H 764.78 -3.89119 4.08958 0
M  V30 8152 N 764.178 -1.45556 -0.604258 0
M  V30 8153 C 765.427 -1.49019 -1.35928 0
M  V30 8154 C 765.74 -0.137409 -1.95117 0
M  V30 8155 O 766.946 -0.0497032 -2.71455 0
M  V30 8156 C 765.402 -2.62477 -2.46239 0
M  V30 8157 C 765.01 -4.04082 -1.93447 0
M  V30 8158 C 766.754 -2.7519 -3.23219 0
M  V30 8159 C 764.661 -5.08917 -3.0126 0
M  V30 8160 H 763.591 -0.554518 -0.510907 0
M  V30 8161 H 766.242 -1.71705 -0.647262 0
M  V30 8162 H 764.624 -2.3308 -3.2014 0
M  V30 8163 H 765.798 -4.43173 -1.26232 0
M  V30 8164 H 764.113 -3.95849 -1.29201 0
M  V30 8165 H 766.71 -3.50683 -4.0364 0
M  V30 8166 H 767.053 -1.81941 -3.74437 0
M  V30 8167 H 767.586 -3.04129 -2.56418 0
M  V30 8168 H 764.325 -6.03886 -2.54955 0
M  V30 8169 H 763.845 -4.74393 -3.67031 0
M  V30 8170 H 765.524 -5.33814 -3.65584 0
M  V30 8171 N 765.656 0.84705 -1.32902 0
M  V30 8172 C 766.904 1.5986 -1.2365 0
M  V30 8173 C 767.225 1.93974 0.199789 0
M  V30 8174 O 766.495 1.60273 1.12648 0
M  V30 8175 H 765.075 0.592696 -0.454665 0
M  V30 8176 H 767.737 1.01278 -1.66519 0
M  V30 8177 H 766.833 2.53218 -1.82448 0
M  V30 8178 N 767.134 1.16236 1.06428 0
M  V30 8179 C 768.084 0.835994 2.12121 0
M  V30 8180 C 769.068 -0.183955 1.59845 0
M  V30 8181 O 770.26 0.0166741 1.76992 0
M  V30 8182 C 767.389 0.337333 3.41639 0
M  V30 8183 C 766.475 1.38798 4.00744 0
M  V30 8184 N 766.866 2.59799 4.3398 0
M  V30 8185 C 765.164 1.24292 4.28331 0
M  V30 8186 C 765.865 3.27213 4.80943 0
M  V30 8187 N 764.841 2.54594 4.80294 0
M  V30 8188 H 768.643 1.75615 2.35662 0
M  V30 8189 H 766.157 1.04921 1.23957 0
M  V30 8190 H 768.154 0.0851274 4.16813 0
M  V30 8191 H 766.814 -0.57677 3.19536 0
M  V30 8192 H 767.825 2.96867 4.24371 0
M  V30 8193 H 764.502 0.389464 4.15679 0
M  V30 8194 H 765.892 4.30492 5.15874 0
M  V30 8195 N 768.612 -1.24939 0.960631 0
M  V30 8196 C 769.84 -1.96881 0.636045 0
M  V30 8197 C 770.255 -1.71334 -0.793093 0
M  V30 8198 O 769.612 -0.992917 -1.53125 0
M  V30 8199 C 769.663 -3.50309 0.892533 0
M  V30 8200 O 769.384 -3.74977 2.26548 0
M  V30 8201 C 770.885 -4.39474 0.581159 0
M  V30 8202 H 768.105 -0.627399 0.237931 0
M  V30 8203 H 770.649 -1.58952 1.28664 0
M  V30 8204 H 768.804 -3.86326 0.288257 0
M  V30 8205 H 769.218 -4.69401 2.34014 0
M  V30 8206 H 770.692 -5.46008 0.811125 0
M  V30 8207 H 771.169 -4.3652 -0.48443 0
M  V30 8208 H 771.775 -4.09032 1.16502 0
M  V30 8209 N 770.09 -0.729906 -1.39679 0
M  V30 8210 C 771.02 -0.101618 -2.33279 0
M  V30 8211 C 772.001 0.729854 -1.53646 0
M  V30 8212 O 773.186 0.67587 -1.82059 0
M  V30 8213 C 770.316 0.81024 -3.37716 0
M  V30 8214 C 769.27 0.0833126 -4.27919 0
M  V30 8215 C 768.596 1.11185 -5.23012 0
M  V30 8216 C 769.896 -1.07107 -5.112 0
M  V30 8217 H 771.59 -0.883452 -2.86069 0
M  V30 8218 H 769.136 -0.426283 -1.37546 0
M  V30 8219 H 771.089 1.25927 -4.02145 0
M  V30 8220 H 769.813 1.62413 -2.83354 0
M  V30 8221 H 768.472 -0.346043 -3.64963 0
M  V30 8222 H 768.12 1.91917 -4.64948 0
M  V30 8223 H 767.82 0.63026 -5.8421 0
M  V30 8224 H 769.344 1.56068 -5.90318 0
M  V30 8225 H 770.758 -0.700726 -5.69002 0
M  V30 8226 H 769.155 -1.48196 -5.81514 0
M  V30 8227 H 770.225 -1.89513 -4.46332 0
M  V30 8228 N 771.568 1.50203 -0.477153 0
M  V30 8229 C 772.793 2.07263 0.0754986 0
M  V30 8230 C 773.218 1.33801 1.32208 0
M  V30 8231 O 772.576 0.387482 1.77111 0
M  V30 8232 C 772.624 3.59028 0.336348 0
M  V30 8233 O 771.728 3.87339 1.4157 0
M  V30 8234 H 771.069 0.663815 -0.015662 0
M  V30 8235 H 773.599 1.93321 -0.669936 0
M  V30 8236 H 773.609 4.03927 0.575034 0
M  V30 8237 H 772.284 4.11912 -0.574551 0
M  V30 8238 H 770.861 3.54272 1.16385 0
M  V30 8239 N 773.046 0.209999 1.56195 0
M  V30 8240 C 774.274 -0.429996 2.02382 0
M  V30 8241 C 774.689 -1.54159 1.08998 0
M  V30 8242 O 774.046 -1.82239 0.0974856 0
M  V30 8243 C 774.097 -0.972433 3.48175 0
M  V30 8244 O 773.818 0.0948231 4.37997 0
M  V30 8245 C 775.319 -1.68683 4.09952 0
M  V30 8246 H 772.539 -0.106475 0.662498 0
M  V30 8247 H 775.083 0.323072 2.01932 0
M  V30 8248 H 773.238 -1.67582 3.49278 0
M  V30 8249 H 773.652 -0.31113 5.23576 0
M  V30 8250 H 775.126 -2.01851 5.13771 0
M  V30 8251 H 775.603 -2.59587 3.54276 0
M  V30 8252 H 776.209 -1.02893 4.12666 0
M  V30 8253 N 774.524 -1.57472 -0.0634922 0
M  V30 8254 C 775.771 -1.87654 -0.761066 0
M  V30 8255 C 776.099 -0.802847 -1.77157 0
M  V30 8256 O 775.354 0.200244 -1.94673 0
M  V30 8257 C 775.653 -3.24521 -1.49736 0
M  V30 8258 C 775.319 -4.46532 -0.626065 0
M  V30 8259 C 773.981 -4.7965 -0.385978 0
M  V30 8260 C 776.333 -5.21195 -0.0224001 0
M  V30 8261 C 773.661 -5.84837 0.467118 0
M  V30 8262 C 776.013 -6.27286 0.818198 0
M  V30 8263 C 774.677 -6.58899 1.06808 0
M  V30 8264 H 773.947 -0.686675 -0.278494 0
M  V30 8265 H 776.594 -1.91488 -0.0216348 0
M  V30 8266 H 774.899 -3.16516 -2.30921 0
M  V30 8267 H 776.596 -3.45111 -2.04204 0
M  V30 8268 H 773.186 -4.20618 -0.823325 0
M  V30 8269 H 777.37 -4.95917 -0.194985 0
M  V30 8270 H 772.626 -6.07725 0.669375 0
M  V30 8271 H 776.8 -6.84298 1.29265 0
M  V30 8272 H 774.427 -7.40233 1.73088 0
M  V30 8273 N 776.003 0.335068 -1.53997 0
M  V30 8274 C 776.966 1.39481 -1.81872 0
M  V30 8275 C 777.966 1.4524 -0.690078 0
M  V30 8276 O 779.156 1.45467 -0.958377 0
M  V30 8277 C 776.288 2.78329 -1.9684 0
M  V30 8278 H 777.481 1.16024 -2.76547 0
M  V30 8279 H 775.034 0.569926 -1.45539 0
M  V30 8280 H 775.769 3.07058 -1.04337 0
M  V30 8281 H 775.554 2.75544 -2.78958 0
M  V30 8282 H 777.044 3.55016 -2.19894 0
M  V30 8283 N 777.481 1.45874 0.596531 0
M  V30 8284 C 778.391 1.57947 1.73464 0
M  V30 8285 C 779.407 0.463461 1.67714 0
M  V30 8286 O 780.583 0.725685 1.87872 0
M  V30 8287 C 777.648 1.55348 3.09948 0
M  V30 8288 C 776.709 2.78074 3.27068 0
M  V30 8289 C 775.942 2.75589 4.57041 0
M  V30 8290 O 776.165 1.83545 5.40063 0
M  V30 8291 O 775.099 3.66945 4.77111 0
M  V30 8292 H 778.925 2.54169 1.66228 0
M  V30 8293 H 776.51 1.2851 0.76194 0
M  V30 8294 H 778.392 1.56545 3.91244 0
M  V30 8295 H 777.067 0.622811 3.17652 0
M  V30 8296 H 775.974 2.82435 2.45319 0
M  V30 8297 H 777.307 3.70303 3.24248 0
M  V30 8298 N 778.959 -0.83999 1.33349 0
M  V30 8299 C 779.922 -1.93128 1.23426 0
M  V30 8300 C 780.922 -1.60065 0.153599 0
M  V30 8301 O 782.112 -1.69425 0.405049 0
M  V30 8302 C 779.244 -3.28761 0.901622 0
M  V30 8303 H 780.437 -2.03352 2.20427 0
M  V30 8304 H 777.99 -1.03194 1.17391 0
M  V30 8305 H 778.725 -3.24233 -0.0659337 0
M  V30 8306 H 778.51 -3.54138 1.68311 0
M  V30 8307 H 780 -4.08714 0.856913 0
M  V30 8308 N 780.437 -1.16799 -1.0581 0
M  V30 8309 C 781.385 -0.875111 -2.1551 0
M  V30 8310 C 782.379 0.157781 -1.68664 0
M  V30 8311 O 783.585 0.011297 -1.79996 0
M  V30 8312 H 779.96 -0.26542 -0.703602 0
M  V30 8313 H 781.931 -1.8076 -2.37421 0
M  V30 8314 C 780.68 -0.39802 -3.45414 0
M  V30 8315 H 780.003 -1.18425 -3.81858 0
M  V30 8316 H 781.443 -0.231913 -4.23365 0
M  V30 8317 C 779.902 0.88327 -3.25115 0
M  V30 8318 O 780.432 1.95145 -3.51114 0
M  V30 8319 N 778.638 0.828961 -2.78526 0
M  V30 8320 H 778.185 -0.0405029 -2.57568 0
M  V30 8321 H 778.143 1.68673 -2.65324 0
M  V30 8322 N 781.915 1.24427 -0.967243 0
M  V30 8323 C 782.847 2.24641 -0.454856 0
M  V30 8324 C 783.86 1.56849 0.436152 0
M  V30 8325 O 785.049 1.76846 0.242401 0
M  V30 8326 C 782.149 3.36954 0.362672 0
M  V30 8327 C 781.322 4.34318 -0.518324 0
M  V30 8328 C 780.381 5.25638 0.243122 0
M  V30 8329 O 779.407 5.68043 -0.362791 0
M  V30 8330 N 780.609 5.59897 1.53282 0
M  V30 8331 H 783.374 2.69238 -1.31648 0
M  V30 8332 H 780.935 1.38464 -0.839015 0
M  V30 8333 H 782.927 3.95014 0.880094 0
M  V30 8334 H 781.497 2.91646 1.12522 0
M  V30 8335 H 780.717 3.74953 -1.21672 0
M  V30 8336 H 782.005 4.96338 -1.11919 0
M  V30 8337 H 781.403 5.27373 2.04682 0
M  V30 8338 H 779.96 6.20488 1.99594 0
M  V30 8339 N 783.393 0.737304 1.3929 0
M  V30 8340 C 784.621 0.296573 2.04763 0
M  V30 8341 C 785.036 -1.06941 1.55592 0
M  V30 8342 O 784.393 -1.67619 0.721822 0
M  V30 8343 C 784.444 0.291906 3.6032 0
M  V30 8344 O 784.165 1.60397 4.07682 0
M  V30 8345 C 785.666 -0.164708 4.42994 0
M  V30 8346 H 782.886 0.129251 0.658434 0
M  V30 8347 H 785.43 1.0016 1.78293 0
M  V30 8348 H 783.585 -0.364251 3.85684 0
M  V30 8349 H 783.999 1.51909 5.0202 0
M  V30 8350 H 785.473 -0.116814 5.51876 0
M  V30 8351 H 785.95 -1.21022 4.22197 0
M  V30 8352 H 786.556 0.461968 4.22784 0
M  V30 8353 N 784.871 -1.49948 0.485112 0
M  V30 8354 C 786.111 -2.04301 -0.0635728 0
M  V30 8355 C 786.475 -1.35804 -1.35725 0
M  V30 8356 O 787.676 -1.80789 -1.98919 0
M  V30 8357 C 785.947 -3.56666 -0.228962 0
M  V30 8358 S 787.506 -4.32614 -0.734185 0
M  V30 8359 H 784.324 -0.710939 -0.00931895 0
M  V30 8360 H 786.926 -1.84185 0.655455 0
M  V30 8361 H 785.63 -4.04068 0.718148 0
M  V30 8362 H 785.161 -3.8116 -0.973696 0
M  V30 8363 H 787.176 -4.53859 -2.00565 0
M  V30 8364 N 786.349 -0.21828 -1.56081 0
M  V30 8365 C 787.297 0.709679 -2.21509 0
M  V30 8366 C 788.291 1.20221 -1.19346 0
M  V30 8367 O 789.497 1.16241 -1.37433 0
M  V30 8368 H 785.872 0.247271 -0.710184 0
M  V30 8369 H 787.843 0.134386 -2.98097 0
M  V30 8370 C 786.592 1.90853 -2.90638 0
M  V30 8371 H 785.915 1.53865 -3.69006 0
M  V30 8372 H 787.355 2.53568 -3.39822 0
M  V30 8373 C 785.814 2.76189 -1.92929 0
M  V30 8374 O 786.344 3.74842 -1.44416 0
M  V30 8375 N 784.55 2.42157 -1.6065 0
M  V30 8376 H 784.097 1.61987 -2.00294 0
M  V30 8377 H 784.055 2.99534 -0.955347 0
M  V30 8378 N 787.827 1.57504 0.0551401 0
M  V30 8379 C 788.775 2.05884 1.08233 0
M  V30 8380 C 789.769 0.967383 1.39061 0
M  V30 8381 O 790.975 1.15242 1.38273 0
M  V30 8382 H 787.35 0.656673 0.366449 0
M  V30 8383 H 789.321 2.91273 0.648269 0
M  V30 8384 C 788.07 2.53221 2.38273 0
M  V30 8385 H 787.393 3.36809 2.15406 0
M  V30 8386 H 788.833 2.9081 3.08554 0
M  V30 8387 C 787.292 1.42218 3.05411 0
M  V30 8388 O 787.822 0.773638 3.9418 0
M  V30 8389 N 786.028 1.16316 2.66306 0
M  V30 8390 H 785.575 1.69237 1.94207 0
M  V30 8391 H 785.533 0.422534 3.11548 0
M  V30 8392 N 789.305 -0.326896 1.54172 0
M  V30 8393 C 790.215 -1.42525 1.86343 0
M  V30 8394 C 791.231 -1.56764 0.75505 0
M  V30 8395 O 792.407 -1.71924 1.04901 0
M  V30 8396 C 789.472 -2.77286 2.08119 0
M  V30 8397 C 788.533 -2.7225 3.31931 0
M  V30 8398 C 787.766 -4.00584 3.52659 0
M  V30 8399 O 787.989 -4.98686 2.76891 0
M  V30 8400 O 786.923 -4.04045 4.46129 0
M  V30 8401 H 790.749 -1.18249 2.79734 0
M  V30 8402 H 788.334 -0.520614 1.40036 0
M  V30 8403 H 790.216 -3.57065 2.23791 0
M  V30 8404 H 788.891 -3.01459 1.17917 0
M  V30 8405 H 787.798 -1.91033 3.21647 0
M  V30 8406 H 789.131 -2.53032 4.2218 0
M  V30 8407 N 790.784 -1.46188 -0.588786 0
M  V30 8408 C 791.732 -1.56653 -1.71938 0
M  V30 8409 C 792.726 -0.435354 -1.6371 0
M  V30 8410 O 793.932 -0.611996 -1.69277 0
M  V30 8411 H 790.307 -0.492408 -0.568365 0
M  V30 8412 H 792.278 -2.51724 -1.60242 0
M  V30 8413 C 791.027 -1.56822 -3.10326 0
M  V30 8414 H 790.35 -2.43198 -3.17325 0
M  V30 8415 H 791.79 -1.68199 -3.89211 0
M  V30 8416 C 790.249 -0.295802 -3.35599 0
M  V30 8417 O 790.779 0.616515 -3.96941 0
M  V30 8418 N 788.985 -0.185609 -2.90007 0
M  V30 8419 H 788.532 -0.928914 -2.40269 0
M  V30 8420 H 788.49 0.664883 -3.07289 0
M  V30 8421 N 792.262 0.832906 -1.33792 0
M  V30 8422 C 793.225 1.92471 -1.24449 0
M  V30 8423 C 794.225 1.59981 -0.162085 0
M  V30 8424 O 795.415 1.69208 -0.414029 0
M  V30 8425 C 792.547 3.28278 -0.919044 0
M  V30 8426 H 793.74 2.0218 -2.21502 0
M  V30 8427 H 791.293 1.0257 -1.17936 0
M  V30 8428 H 792.028 3.24263 0.048738 0
M  V30 8429 H 791.813 3.53241 -1.70187 0
M  V30 8430 H 793.303 4.08253 -0.878576 0
M  V30 8431 N 793.74 1.17359 1.05189 0
M  V30 8432 C 794.97 0.985099 1.81602 0
M  V30 8433 C 795.378 -0.469872 1.83273 0
M  V30 8434 O 794.721 -1.33806 1.25864 0
M  V30 8435 C 794.783 1.44956 3.2898 0
M  V30 8436 C 794.447 2.92666 3.50993 0
M  V30 8437 C 795.444 3.906 3.43115 0
M  V30 8438 C 793.129 3.30841 3.77954 0
M  V30 8439 C 795.123 5.24709 3.61883 0
M  V30 8440 C 792.81 4.65116 3.96371 0
M  V30 8441 C 793.808 5.61859 3.88335 0
M  V30 8442 O 793.496 6.93704 4.06238 0
M  V30 8443 H 793.228 0.348731 0.579105 0
M  V30 8444 H 795.782 1.56066 1.33539 0
M  V30 8445 H 794.012 0.817559 3.77959 0
M  V30 8446 H 795.701 1.22674 3.86919 0
M  V30 8447 H 796.467 3.62453 3.22262 0
M  V30 8448 H 792.346 2.5611 3.83313 0
M  V30 8449 H 795.89 6.00205 3.55527 0
M  V30 8450 H 791.787 4.92969 4.16715 0
M  V30 8451 H 792.555 7.00443 4.23463 0
M  V30 8452 N 795.218 -1.23913 0.973828 0
M  V30 8453 C 796.148 -2.27453 0.527969 0
M  V30 8454 C 797.129 -1.6443 -0.435513 0
M  V30 8455 O 798.314 -1.9137 -0.330306 0
M  V30 8456 C 795.444 -3.4685 -0.176757 0
M  V30 8457 C 794.398 -4.22181 0.703352 0
M  V30 8458 C 793.724 -5.34534 -0.133215 0
M  V30 8459 C 795.024 -4.82865 1.99096 0
M  V30 8460 H 796.718 -2.65 1.3934 0
M  V30 8461 H 794.264 -1.27388 0.671446 0
M  V30 8462 H 796.217 -4.18424 -0.499934 0
M  V30 8463 H 794.941 -3.08346 -1.07659 0
M  V30 8464 H 793.6 -3.52416 1.00989 0
M  V30 8465 H 793.248 -4.92271 -1.03338 0
M  V30 8466 H 792.948 -5.85855 0.452494 0
M  V30 8467 H 794.472 -6.08933 -0.450924 0
M  V30 8468 H 795.886 -5.46481 1.73297 0
M  V30 8469 H 794.283 -5.44444 2.52389 0
M  V30 8470 H 795.353 -4.03977 2.68199 0
M  V30 8471 N 796.696 -0.74468 -1.38897 0
M  V30 8472 C 797.924 -0.307428 -2.04603 0
M  V30 8473 C 798.339 1.06115 -1.56157 0
M  V30 8474 O 797.696 1.67233 -0.730701 0
M  V30 8475 C 797.747 -0.31101 -3.6016 0
M  V30 8476 O 797.468 -1.62557 -4.06825 0
M  V30 8477 C 798.969 0.141213 -4.43075 0
M  V30 8478 H 796.189 -0.132741 -0.657739 0
M  V30 8479 H 798.733 -1.01104 -1.77759 0
M  V30 8480 H 796.888 0.343792 -3.85872 0
M  V30 8481 H 797.302 -1.54569 -5.01207 0
M  V30 8482 H 798.776 0.0875449 -5.51931 0
M  V30 8483 H 799.253 1.18782 -4.22833 0
M  V30 8484 H 799.859 -0.484383 -4.22533 0
M  V30 8485 N 798.174 1.49689 -0.493057 0
M  V30 8486 C 799.402 2.06836 0.0513141 0
M  V30 8487 C 799.817 1.35436 1.31539 0
M  V30 8488 O 799.174 0.430248 1.77356 0
M  V30 8489 C 799.225 3.60107 0.317003 0
M  V30 8490 O 798.946 4.2882 -0.896957 0
M  V30 8491 C 800.447 4.33945 0.905902 0
M  V30 8492 H 797.667 0.670787 -0.0169048 0
M  V30 8493 H 800.211 1.92574 -0.688139 0
M  V30 8494 H 798.366 3.74099 1.00642 0
M  V30 8495 H 798.78 5.20395 -0.654939 0
M  V30 8496 H 800.254 5.42087 1.04144 0
M  V30 8497 H 800.731 3.95895 1.90168 0
M  V30 8498 H 801.337 4.2454 0.254195 0
M  V30 8499 N 799.652 0.226554 1.55963 0
M  V30 8500 C 800.901 -0.40417 1.97609 0
M  V30 8501 C 801.214 -1.60541 1.1174 0
M  V30 8502 O 802.42 -2.30598 1.43307 0
M  V30 8503 C 800.876 -0.770466 3.51556 0
M  V30 8504 C 800.484 0.408244 4.46136 0
M  V30 8505 C 802.228 -1.36651 4.01904 0
M  V30 8506 C 800.135 0.0192347 5.91397 0
M  V30 8507 H 799.065 -0.15478 0.737943 0
M  V30 8508 H 801.716 0.323558 1.80625 0
M  V30 8509 H 800.098 -1.55575 3.6416 0
M  V30 8510 H 801.272 1.18575 4.45283 0
M  V30 8511 H 799.587 0.917859 4.06158 0
M  V30 8512 H 802.184 -1.67055 5.07934 0
M  V30 8513 H 802.527 -2.28403 3.48049 0
M  V30 8514 H 803.06 -0.644556 3.92543 0
M  V30 8515 H 799.799 0.90336 6.49245 0
M  V30 8516 H 799.319 -0.722485 5.95433 0
M  V30 8517 H 800.998 -0.405711 6.45727 0
M  V30 8518 N 801.13 -1.57531 -0.0467866 0
M  V30 8519 C 802.04 -2.08768 -1.07018 0
M  V30 8520 C 803.056 -1.02245 -1.40791 0
M  V30 8521 O 804.232 -1.33873 -1.50466 0
M  V30 8522 C 801.297 -2.54221 -2.35738 0
M  V30 8523 C 800.358 -3.75152 -2.08709 0
M  V30 8524 C 799.591 -4.18428 -3.31291 0
M  V30 8525 O 799.814 -3.61365 -4.4133 0
M  V30 8526 O 798.748 -5.11018 -3.18032 0
M  V30 8527 H 802.574 -2.96334 -0.664812 0
M  V30 8528 H 800.159 -1.47074 -0.262605 0
M  V30 8529 H 802.041 -2.83866 -3.11445 0
M  V30 8530 H 800.716 -1.69774 -2.75605 0
M  V30 8531 H 799.623 -3.50553 -1.30627 0
M  V30 8532 H 800.956 -4.60528 -1.73708 0
M  V30 8533 N 802.608 0.318715 -1.54344 0
M  V30 8534 C 803.885 1.07461 -1.63437 0
M  V30 8535 C 804.265 2.05771 -0.47131 0
M  V30 8536 O 803.613 2.22175 0.53391 0
M  V30 8537 C 803.823 1.77224 -3.00654 0
M  V30 8538 C 805.171 2.30069 -3.56866 0
M  V30 8539 O 806.195 1.87284 -3.0299 0
M  V30 8540 O 805.054 3.08412 -4.51159 0
M  V30 8541 H 802.148 0.495627 -0.66203 0
M  V30 8542 H 804.694 0.318218 -1.6669 0
M  V30 8543 H 803.466 1.05742 -3.76742 0
M  V30 8544 H 803.089 2.59662 -3.01101 0
M  V30 8545 N 804.086 1.46499 0.581025 0
M  V30 8546 C 805.502 1.31491 0.904563 0
M  V30 8547 C 805.702 0.287598 1.99437 0
M  V30 8548 O 804.758 -0.309247 2.50599 0
M  V30 8549 C 806.071 2.70163 1.32032 0
M  V30 8550 C 807.619 2.78266 1.43308 0
M  V30 8551 C 808.094 4.17524 1.8825 0
M  V30 8552 N 809.585 4.19949 1.9544 0
M  V30 8553 C 810.32 5.24594 2.31493 0
M  V30 8554 N 809.816 6.39564 2.66326 0
M  V30 8555 N 811.609 5.11961 2.32062 0
M  V30 8556 H 803.76 2.11946 -0.138856 0
M  V30 8557 H 806.023 0.948 0.000548528 0
M  V30 8558 H 805.729 3.46655 0.593554 0
M  V30 8559 H 805.603 3.00379 2.2815 0
M  V30 8560 H 807.99 2.02061 2.15071 0
M  V30 8561 H 808.071 2.51732 0.45438 0
M  V30 8562 H 807.715 4.94225 1.17065 0
M  V30 8563 H 807.645 4.41466 2.87081 0
M  V30 8564 H 810.136 3.36996 1.71004 0
M  V30 8565 H 810.449 7.15187 2.92793 0
M  V30 8566 H 808.794 6.42923 2.6396 0
M  V30 8567 H 811.985 4.21177 2.04272 0
M  V30 8568 H 812.158 5.93626 2.5983 0
M  V30 8569 N 805.565 -0.825799 1.34232 0
M  V30 8570 C 806.795 -1.61129 1.29309 0
M  V30 8571 C 807.203 -1.88714 -0.135589 0
M  V30 8572 O 806.546 -1.47703 -1.09222 0
M  V30 8573 C 806.608 -2.97866 2.01287 0
M  V30 8574 C 806.272 -2.9319 3.50555 0
M  V30 8575 C 807.269 -2.67978 4.45515 0
M  V30 8576 C 804.954 -3.12913 3.92926 0
M  V30 8577 C 806.948 -2.62536 5.80822 0
M  V30 8578 C 804.635 -3.07096 5.28333 0
M  V30 8579 C 805.633 -2.8194 6.22092 0
M  V30 8580 O 805.321 -2.7605 7.55018 0
M  V30 8581 H 805.053 -0.507652 0.446391 0
M  V30 8582 H 807.607 -1.03575 1.77374 0
M  V30 8583 H 805.837 -3.57327 1.47832 0
M  V30 8584 H 807.526 -3.58848 1.89691 0
M  V30 8585 H 808.292 -2.52478 4.14101 0
M  V30 8586 H 804.171 -3.3151 3.20347 0
M  V30 8587 H 807.715 -2.42821 6.53975 0
M  V30 8588 H 803.612 -3.22148 5.59367 0
M  V30 8589 H 804.38 -2.91798 7.6472 0
M  V30 8590 N 807.043 -1.17915 -1.04565 0
M  V30 8591 C 807.953 -0.916449 -2.15959 0
M  V30 8592 C 808.969 0.117655 -1.73602 0
M  V30 8593 O 810.145 -0.063089 -2.01301 0
M  V30 8594 C 807.21 -0.440262 -3.43893 0
M  V30 8595 C 806.271 -1.54172 -4.00661 0
M  V30 8596 C 805.504 -1.08816 -5.22489 0
M  V30 8597 O 805.727 0.0551547 -5.70373 0
M  V30 8598 O 804.661 -1.88383 -5.7166 0
M  V30 8599 H 808.487 -1.8484 -2.40972 0
M  V30 8600 H 806.072 -0.960552 -1.14428 0
M  V30 8601 H 807.954 -0.182537 -4.21004 0
M  V30 8602 H 806.629 0.46346 -3.20365 0
M  V30 8603 H 805.536 -1.85341 -3.24961 0
M  V30 8604 H 806.869 -2.42139 -4.2852 0
M  V30 8605 N 808.521 1.23394 -0.980386 0
M  V30 8606 C 809.453 2.24146 -0.478657 0
M  V30 8607 C 810.466 1.57303 0.419492 0
M  V30 8608 O 811.655 1.77094 0.223631 0
M  V30 8609 C 808.755 3.3732 0.326913 0
M  V30 8610 C 807.928 4.33744 -0.56436 0
M  V30 8611 C 806.987 5.25866 0.187358 0
M  V30 8612 O 806.013 5.67626 -0.423019 0
M  V30 8613 N 807.215 5.61492 1.47335 0
M  V30 8614 H 809.98 2.67826 -1.34496 0
M  V30 8615 H 807.541 1.37566 -0.853653 0
M  V30 8616 H 809.533 3.95926 0.838148 0
M  V30 8617 H 808.103 2.92823 1.09422 0
M  V30 8618 H 807.323 3.73641 -1.25642 0
M  V30 8619 H 808.611 4.95123 -1.17177 0
M  V30 8620 H 808.009 5.29514 1.99077 0
M  V30 8621 H 806.566 6.2257 1.93002 0
M  V30 8622 N 809.999 0.752036 1.385 0
M  V30 8623 C 810.962 0.131587 2.28822 0
M  V30 8624 C 811.962 -0.649149 1.47115 0
M  V30 8625 O 813.152 -0.475645 1.67581 0
M  V30 8626 C 810.284 -0.822101 3.30839 0
M  V30 8627 H 811.477 0.927551 2.85196 0
M  V30 8628 H 809.03 0.518945 1.47434 0
M  V30 8629 H 809.765 -1.6438 2.79553 0
M  V30 8630 H 809.55 -0.264689 3.91206 0
M  V30 8631 H 811.04 -1.25226 3.98382 0
M  V30 8632 N 811.477 -1.49425 0.500989 0
M  V30 8633 C 812.724 -2.02453 -0.0435355 0
M  V30 8634 C 813.052 -1.38067 -1.36995 0
M  V30 8635 O 812.307 -0.505557 -1.89057 0
M  V30 8636 C 812.606 -3.56562 -0.24463 0
M  V30 8637 C 812.272 -4.39585 1.00379 0
M  V30 8638 C 810.934 -4.61992 1.346 0
M  V30 8639 C 813.286 -4.87881 1.83361 0
M  V30 8640 C 810.614 -5.2994 2.51755 0
M  V30 8641 C 812.966 -5.57119 2.99669 0
M  V30 8642 C 811.63 -5.77771 3.3427 0
M  V30 8643 H 810.9 -0.740829 -0.0159308 0
M  V30 8644 H 813.547 -1.79725 0.661143 0
M  V30 8645 H 811.852 -3.77969 -1.03183 0
M  V30 8646 H 813.549 -3.95185 -0.6804 0
M  V30 8647 H 810.139 -4.22385 0.727225 0
M  V30 8648 H 814.323 -4.70398 1.58237 0
M  V30 8649 H 809.579 -5.44133 2.788 0
M  V30 8650 H 813.753 -5.93516 3.64296 0
M  V30 8651 H 811.38 -6.30197 4.25154 0
M  V30 8652 N 812.955 -0.234822 -1.55841 0
M  V30 8653 C 813.885 0.664217 -2.23854 0
M  V30 8654 C 814.866 1.19076 -1.2147 0
M  V30 8655 O 816.051 1.23232 -1.50091 0
M  V30 8656 C 813.181 1.86666 -2.9287 0
M  V30 8657 C 812.135 1.47341 -4.01839 0
M  V30 8658 C 811.461 2.75571 -4.58219 0
M  V30 8659 C 812.761 0.653479 -5.18196 0
M  V30 8660 H 814.455 0.0971213 -2.99242 0
M  V30 8661 H 812.001 0.0452724 -1.43929 0
M  V30 8662 H 813.954 2.50116 -3.39146 0
M  V30 8663 H 812.678 2.45894 -2.1495 0
M  V30 8664 H 811.337 0.862314 -3.56314 0
M  V30 8665 H 810.985 3.32971 -3.77014 0
M  V30 8666 H 810.685 2.49987 -5.31771 0
M  V30 8667 H 812.209 3.39939 -5.07221 0
M  V30 8668 H 813.623 1.19198 -5.60771 0
M  V30 8669 H 812.02 0.494188 -5.98062 0
M  V30 8670 H 813.09 -0.337004 -4.83728 0
M  V30 8671 N 814.433 1.57553 0.0384317 0
M  V30 8672 C 815.661 1.93093 0.743141 0
M  V30 8673 C 816.076 0.833787 1.69391 0
M  V30 8674 O 815.433 -0.190532 1.81503 0
M  V30 8675 C 815.484 3.28533 1.50826 0
M  V30 8676 O 815.205 4.34032 0.595665 0
M  V30 8677 C 816.706 3.78297 2.31098 0
M  V30 8678 H 813.926 0.637486 0.20941 0
M  V30 8679 H 816.47 2.045 -0.00125154 0
M  V30 8680 H 814.625 3.18552 2.20462 0
M  V30 8681 H 815.039 5.12155 1.13124 0
M  V30 8682 H 816.513 4.75602 2.80191 0
M  V30 8683 H 816.99 3.09008 3.12107 0
M  V30 8684 H 817.596 3.91331 1.66555 0
M  V30 8685 N 815.911 -0.310526 1.54511 0
M  V30 8686 C 817.136 -1.07046 1.7764 0
M  V30 8687 C 817.561 -1.80488 0.529696 0
M  V30 8688 O 816.919 -1.73702 -0.519361 0
M  V30 8689 C 816.967 -2.03411 2.97752 0
M  V30 8690 O 816.071 -3.11545 2.7021 0
M  V30 8691 H 815.412 -0.307994 0.588248 0
M  V30 8692 H 817.942 -0.350848 2.01569 0
M  V30 8693 H 817.952 -2.46048 3.2546 0
M  V30 8694 H 816.627 -1.49361 3.88155 0
M  V30 8695 H 815.204 -2.7349 2.53491 0
M  V30 8696 N 817.389 -1.46805 -0.573248 0
M  V30 8697 C 818.636 -1.52604 -1.3311 0
M  V30 8698 C 818.964 -0.181633 -1.9365 0
M  V30 8699 O 818.219 0.823775 -1.77517 0
M  V30 8700 C 818.518 -2.58001 -2.47326 0
M  V30 8701 C 818.184 -4.01747 -2.04719 0
M  V30 8702 C 816.846 -4.40881 -1.92814 0
M  V30 8703 C 819.198 -4.92008 -1.71982 0
M  V30 8704 C 816.526 -5.68129 -1.46445 0
M  V30 8705 C 818.878 -6.19703 -1.27089 0
M  V30 8706 C 817.542 -6.57733 -1.13768 0
M  V30 8707 H 816.812 -0.558417 -0.487084 0
M  V30 8708 H 819.459 -1.80327 -0.644538 0
M  V30 8709 H 817.764 -2.23974 -3.2147 0
M  V30 8710 H 819.461 -2.59715 -3.05531 0
M  V30 8711 H 816.051 -3.70819 -2.14922 0
M  V30 8712 H 820.235 -4.62485 -1.8006 0
M  V30 8713 H 815.491 -5.96359 -1.34783 0
M  V30 8714 H 819.665 -6.89064 -1.00814 0
M  V30 8715 H 817.292 -7.56228 -0.776142 0
M  V30 8716 N 818.867 0.818669 -1.34668 0
M  V30 8717 C 820.113 1.57746 -1.27453 0
M  V30 8718 C 820.446 1.93588 0.154077 0
M  V30 8719 O 819.721 1.60371 1.10051 0
M  V30 8720 C 820.004 2.87414 -2.16945 0
M  V30 8721 C 819.857 2.58125 -3.68363 0
M  V30 8722 C 821.176 3.89021 -2.05792 0
M  V30 8723 H 818.295 0.572339 -0.464324 0
M  V30 8724 H 820.937 0.942784 -1.64959 0
M  V30 8725 H 819.087 3.41576 -1.85089 0
M  V30 8726 H 820.759 2.10239 -4.10606 0
M  V30 8727 H 819.002 1.91503 -3.89242 0
M  V30 8728 H 819.673 3.5061 -4.26353 0
M  V30 8729 H 822.149 3.44224 -2.33771 0
M  V30 8730 H 821.025 4.77548 -2.70628 0
M  V30 8731 H 821.286 4.29786 -1.03618 0
M  V30 8732 N 820.346 1.18468 1.03938 0
M  V30 8733 C 821.594 0.978895 1.76811 0
M  V30 8734 C 821.915 -0.49257 1.88676 0
M  V30 8735 O 821.185 -1.3572 1.41269 0
M  V30 8736 H 819.765 0.359201 0.654968 0
M  V30 8737 H 822.427 1.49173 1.25433 0
M  V30 8738 H 821.523 1.418 2.78027 0
M  V30 8739 N 821.824 -1.22873 0.986916 0
M  V30 8740 C 822.754 -2.2688 0.552064 0
M  V30 8741 C 823.735 -1.64883 -0.418048 0
M  V30 8742 O 824.92 -1.9171 -0.30999 0
M  V30 8743 C 822.05 -3.47018 -0.139959 0
M  V30 8744 C 821.004 -4.21411 0.748091 0
M  V30 8745 C 820.33 -5.34645 -0.0765132 0
M  V30 8746 C 821.63 -4.80726 2.04206 0
M  V30 8747 H 823.324 -2.63507 1.42143 0
M  V30 8748 H 820.87 -1.26668 0.68492 0
M  V30 8749 H 822.823 -4.18931 -0.455527 0
M  V30 8750 H 821.547 -3.0947 -1.04382 0
M  V30 8751 H 820.206 -3.51325 1.04721 0
M  V30 8752 H 819.854 -4.93339 -0.981109 0
M  V30 8753 H 819.554 -5.85342 0.514606 0
M  V30 8754 H 821.078 -6.09377 -0.386313 0
M  V30 8755 H 822.492 -5.44612 1.79083 0
M  V30 8756 H 820.889 -5.41737 2.5815 0
M  V30 8757 H 821.959 -4.01109 2.72469 0
M  V30 8758 N 823.302 -0.75937 -1.38099 0
M  V30 8759 C 824.718 -0.437606 -1.53483 0
M  V30 8760 C 824.918 1.04849 -1.72072 0
M  V30 8761 O 823.974 1.83448 -1.73502 0
M  V30 8762 C 825.287 -1.24189 -2.73857 0
M  V30 8763 C 826.835 -1.23255 -2.8771 0
M  V30 8764 C 827.31 -2.01992 -4.11051 0
M  V30 8765 N 828.801 -1.99282 -4.1814 0
M  V30 8766 C 829.536 -2.56996 -5.12583 0
M  V30 8767 N 829.032 -3.23446 -6.12662 0
M  V30 8768 N 830.825 -2.46894 -5.04975 0
M  V30 8769 H 822.976 -1.72242 -1.24283 0
M  V30 8770 H 825.239 -0.730507 -0.604205 0
M  V30 8771 H 824.945 -2.29449 -2.66545 0
M  V30 8772 H 824.819 -0.862672 -3.67203 0
M  V30 8773 H 827.206 -0.187988 -2.94501 0
M  V30 8774 H 827.287 -1.65132 -1.95359 0
M  V30 8775 H 826.931 -3.06462 -4.05023 0
M  V30 8776 H 826.861 -1.57505 -5.02494 0
M  V30 8777 H 829.352 -1.50893 -3.46467 0
M  V30 8778 H 829.665 -3.6489 -6.81231 0
M  V30 8779 H 828.01 -3.27543 -6.12977 0
M  V30 8780 H 831.201 -1.94604 -4.25731 0
M  V30 8781 H 831.374 -2.92168 -5.78396 0
M  V30 8782 N 824.78 1.49157 -0.508906 0
M  V30 8783 C 826.191 1.86593 -0.0630975 0
M  V30 8784 C 826.542 1.42051 1.35337 0
M  V30 8785 O 825.667 0.801866 2.00995 0
M  V30 8786 C 826.262 3.38629 -0.107729 0
M  V30 8787 C 824.821 3.75336 0.282776 0
M  V30 8788 C 823.968 2.7317 -0.4768 0
M  V30 8789 H 826.919 1.41362 -0.72128 0
M  V30 8790 H 826.94 3.74271 0.685689 0
M  V30 8791 H 826.452 3.71017 -1.13876 0
M  V30 8792 H 824.553 3.48558 1.31675 0
M  V30 8793 H 824.666 4.79081 -0.0421728 0
M  V30 8794 H 823.03 2.54591 0.0743552 0
M  V30 8795 H 823.813 3.08403 -1.50807 0
M  V30 8796 N 826.258 0.243083 1.55714 0
M  V30 8797 C 827.168 -0.668913 2.24862 0
M  V30 8798 C 828.184 -1.19638 1.26344 0
M  V30 8799 O 829.36 -1.23345 1.5921 0
M  V30 8800 C 826.425 -1.85084 2.93163 0
M  V30 8801 C 825.486 -1.36323 4.07081 0
M  V30 8802 C 824.719 -2.48882 4.72116 0
M  V30 8803 O 824.942 -3.67523 4.36214 0
M  V30 8804 O 823.876 -2.18857 5.60701 0
M  V30 8805 H 827.702 -0.109737 3.03502 0
M  V30 8806 H 825.287 0.0117411 1.49395 0
M  V30 8807 H 827.169 -2.54065 3.36197 0
M  V30 8808 H 825.844 -2.39771 2.17466 0
M  V30 8809 H 824.751 -0.640804 3.68571 0
M  V30 8810 H 826.084 -0.86249 4.84584 0
M  V30 8811 N 827.736 -1.57571 -0.0300757 0
M  V30 8812 C 828.683 -2.06492 -1.03101 0
M  V30 8813 C 829.653 -0.953862 -1.3598 0
M  V30 8814 O 830.838 -1.22436 -1.46335 0
M  V30 8815 C 827.978 -2.54826 -2.32718 0
M  V30 8816 C 827.091 -3.79718 -2.06006 0
M  V30 8817 C 826.226 -4.16668 -3.29487 0
M  V30 8818 C 825.265 -5.3448 -2.98324 0
M  V30 8819 N 824.402 -5.66867 -4.14254 0
M  V30 8820 H 829.242 -2.91755 -0.606877 0
M  V30 8821 H 826.779 -1.44252 -0.288038 0
M  V30 8822 H 828.737 -2.80916 -3.08451 0
M  V30 8823 H 827.367 -1.72481 -2.72856 0
M  V30 8824 H 826.419 -3.60718 -1.20774 0
M  V30 8825 H 827.731 -4.65569 -1.79017 0
M  V30 8826 H 826.885 -4.43881 -4.13588 0
M  V30 8827 H 825.624 -3.29466 -3.59588 0
M  V30 8828 H 824.629 -5.07021 -2.12625 0
M  V30 8829 H 825.854 -6.23334 -2.69502 0
M  V30 8830 H 823.8 -4.82625 -4.44308 0
M  V30 8831 H 823.717 -6.47226 -3.90685 0
M  V30 8832 H 824.985 -5.98656 -4.99231 0
M  V30 8833 N 829.214 0.302327 -1.54673 0
M  V30 8834 C 830.444 1.05516 -1.77623 0
M  V30 8835 C 830.852 1.81474 -0.535159 0
M  V30 8836 O 830.195 1.76635 0.504543 0
M  V30 8837 C 830.257 2.08305 -2.93001 0
M  V30 8838 C 829.921 1.51554 -4.31139 0
M  V30 8839 C 830.918 0.946261 -5.11216 0
M  V30 8840 C 828.603 1.55157 -4.77736 0
M  V30 8841 C 830.597 0.420559 -6.36011 0
M  V30 8842 C 828.284 1.022 -6.02494 0
M  V30 8843 C 829.282 0.457461 -6.81466 0
M  V30 8844 O 828.97 -0.064083 -8.03874 0
M  V30 8845 H 828.702 0.318756 -0.59613 0
M  V30 8846 H 831.256 0.347558 -2.02438 0
M  V30 8847 H 829.486 2.82742 -2.63807 0
M  V30 8848 H 831.175 2.69479 -3.03539 0
M  V30 8849 H 831.941 0.911338 -4.76361 0
M  V30 8850 H 827.82 1.98037 -4.16296 0
M  V30 8851 H 831.364 -0.0207298 -6.97597 0
M  V30 8852 H 827.261 1.05406 -6.36836 0
M  V30 8853 H 828.029 0.0493422 -8.18485 0
M  V30 8854 N 830.692 1.47107 0.565454 0
M  V30 8855 C 831.939 1.53308 1.32299 0
M  V30 8856 C 832.267 0.1919 1.93551 0
M  V30 8857 O 831.522 -0.81435 1.77952 0
M  V30 8858 C 831.821 2.59309 2.45954 0
M  V30 8859 C 831.487 4.02827 2.02586 0
M  V30 8860 C 830.149 4.41897 1.90474 0
M  V30 8861 C 832.501 4.92913 1.6937 0
M  V30 8862 C 829.829 5.68898 1.4343 0
M  V30 8863 C 832.181 6.20368 1.238 0
M  V30 8864 C 830.845 6.58327 1.10278 0
M  V30 8865 H 830.115 0.560993 0.484116 0
M  V30 8866 H 832.762 1.80667 0.634965 0
M  V30 8867 H 831.067 2.25676 3.20277 0
M  V30 8868 H 832.764 2.61332 3.04149 0
M  V30 8869 H 829.354 3.71953 2.12952 0
M  V30 8870 H 833.538 4.63433 1.77605 0
M  V30 8871 H 828.794 5.97065 1.31618 0
M  V30 8872 H 832.968 6.89589 0.971586 0
M  V30 8873 H 830.595 7.56628 0.736027 0
M  V30 8874 N 832.17 -0.811516 1.35101 0
M  V30 8875 C 833.416 -1.57016 1.29296 0
M  V30 8876 C 833.771 -1.91941 -0.13288 0
M  V30 8877 O 833.064 -1.58121 -1.08204 0
M  V30 8878 C 833.258 -2.87121 2.1283 0
M  V30 8879 C 833.087 -2.64908 3.63392 0
M  V30 8880 C 831.857 -2.61055 4.32641 0
M  V30 8881 C 834.055 -2.35628 4.57148 0
M  V30 8882 N 832.037 -2.30508 5.68981 0
M  V30 8883 C 833.408 -2.14876 5.81574 0
M  V30 8884 C 835.463 -2.2145 4.45942 0
M  V30 8885 C 834.166 -1.81381 6.96055 0
M  V30 8886 C 836.192 -1.89352 5.60267 0
M  V30 8887 C 835.554 -1.69432 6.83719 0
M  V30 8888 H 831.653 -0.57649 0.528378 0
M  V30 8889 H 834.237 -0.950338 1.69931 0
M  V30 8890 H 832.408 -3.47007 1.74473 0
M  V30 8891 H 834.14 -3.52629 1.98582 0
M  V30 8892 H 830.895 -2.75531 3.85201 0
M  V30 8893 H 831.319 -2.18042 6.40927 0
M  V30 8894 H 835.961 -2.35551 3.51106 0
M  V30 8895 H 833.679 -1.66018 7.90863 0
M  V30 8896 H 837.265 -1.79098 5.53548 0
M  V30 8897 H 836.145 -1.44957 7.70686 0
M  V30 8898 N 833.648 -1.19017 -1.03309 0
M  V30 8899 C 834.876 -1.01534 -1.80273 0
M  V30 8900 C 835.291 0.43605 -1.83696 0
M  V30 8901 O 834.648 1.30288 -1.27794 0
M  V30 8902 C 834.699 -1.5722 -3.25522 0
M  V30 8903 O 834.42 -2.96677 -3.22358 0
M  V30 8904 C 835.921 -1.4446 -4.19102 0
M  V30 8905 H 833.141 -0.358094 -0.567459 0
M  V30 8906 H 835.685 -1.57738 -1.3015 0
M  V30 8907 H 833.84 -1.05174 -3.7285 0
M  V30 8908 H 834.254 -3.22795 -4.13405 0
M  V30 8909 H 835.728 -1.88209 -5.18923 0
M  V30 8910 H 836.205 -0.394471 -4.37425 0
M  V30 8911 H 836.811 -1.95616 -3.77643 0
M  V30 8912 N 835.127 1.22348 -0.993418 0
M  V30 8913 C 836.375 1.90733 -0.668246 0
M  V30 8914 C 836.696 1.77732 0.802261 0
M  V30 8915 O 835.966 1.16486 1.57505 0
M  V30 8916 H 834.546 0.705966 -0.244174 0
M  V30 8917 H 837.208 1.48691 -1.26004 0
M  V30 8918 H 836.304 2.97883 -0.931239 0
M  V30 8919 N 836.605 0.766683 1.37694 0
M  V30 8920 C 837.535 0.163432 2.32927 0
M  V30 8921 C 838.516 -0.688861 1.55527 0
M  V30 8922 O 839.701 -0.627363 1.83787 0
M  V30 8923 C 836.831 -0.720416 3.39746 0
M  V30 8924 C 835.785 0.0301718 4.27989 0
M  V30 8925 C 835.111 -0.972788 5.25776 0
M  V30 8926 C 836.411 1.20623 5.0818 0
M  V30 8927 H 838.105 0.958988 2.83626 0
M  V30 8928 H 835.651 0.462601 1.36367 0
M  V30 8929 H 837.604 -1.15221 4.05342 0
M  V30 8930 H 836.328 -1.54844 2.8756 0
M  V30 8931 H 834.987 0.442685 3.63917 0
M  V30 8932 H 834.635 -1.79522 4.69873 0
M  V30 8933 H 834.335 -0.475145 5.85676 0
M  V30 8934 H 835.859 -1.40362 5.94248 0
M  V30 8935 H 837.273 0.851341 5.66944 0
M  V30 8936 H 835.67 1.63561 5.7738 0
M  V30 8937 H 836.74 2.01281 4.41151 0
M  V30 8938 N 838.083 -1.48885 0.516809 0
M  V30 8939 C 839.308 -2.0739 -0.0205201 0
M  V30 8940 C 839.733 -1.37259 -1.28614 0
M  V30 8941 O 839.091 -0.434304 -1.76021 0
M  V30 8942 C 839.139 -3.59793 -0.24104 0
M  V30 8943 O 838.243 -3.90957 -1.31251 0
M  V30 8944 H 837.584 -0.663167 0.0332564 0
M  V30 8945 H 840.114 -1.91477 0.720956 0
M  V30 8946 H 840.124 -4.0531 -0.467737 0
M  V30 8947 H 838.799 -4.10244 0.68356 0
M  V30 8948 H 837.376 -3.57234 -1.06951 0
M  V30 8949 N 839.561 -0.251338 -1.55583 0
M  V30 8950 C 840.838 0.422729 -1.90977 0
M  V30 8951 C 841.218 1.75534 -1.17265 0
M  V30 8952 O 840.566 2.26632 -0.291588 0
M  V30 8953 C 840.776 0.586448 -3.44037 0
M  V30 8954 C 842.124 0.880294 -4.15375 0
M  V30 8955 O 843.148 0.672148 -3.49801 0
M  V30 8956 O 842.007 1.27694 -5.31372 0
M  V30 8957 H 839.101 0.227622 -0.795058 0
M  V30 8958 H 841.647 -0.295733 -1.67103 0
M  V30 8959 H 840.419 -0.352327 -3.89711 0
M  V30 8960 H 840.042 1.35528 -3.73789 0
M  V30 8961 N 841.039 1.57585 0.0217189 0
M  V30 8962 C 842.288 1.88786 0.710125 0
M  V30 8963 C 842.601 0.850819 1.76126 0
M  V30 8964 O 843.807 1.0523 2.50277 0
M  V30 8965 C 842.263 3.3505 1.31413 0
M  V30 8966 C 841.871 4.47001 0.298959 0
M  V30 8967 C 843.615 3.7539 1.98199 0
M  V30 8968 C 841.522 5.8433 0.911727 0
M  V30 8969 H 840.452 0.704388 0.268986 0
M  V30 8970 H 843.103 1.83466 -0.0352638 0
M  V30 8971 H 841.485 3.35138 2.10947 0
M  V30 8972 H 842.659 4.58395 -0.470203 0
M  V30 8973 H 840.974 4.15542 -0.267222 0
M  V30 8974 H 843.571 4.75314 2.4491 0
M  V30 8975 H 843.914 3.07766 2.80331 0
M  V30 8976 H 844.447 3.77508 1.2543 0
M  V30 8977 H 841.186 6.55372 0.129659 0
M  V30 8978 H 840.706 5.76643 1.65056 0
M  V30 8979 H 842.385 6.31295 1.41688 0
M  V30 8980 N 842.517 -0.29412 1.54831 0
M  V30 8981 C 843.449 -1.38476 1.82639 0
M  V30 8982 C 844.462 -1.46517 0.709694 0
M  V30 8983 O 845.651 -1.48712 0.987269 0
M  V30 8984 C 842.751 -2.76791 1.95551 0
M  V30 8985 C 841.924 -2.91599 3.26019 0
M  V30 8986 C 840.983 -4.10456 3.29261 0
M  V30 8987 O 840.009 -4.02214 4.02756 0
M  V30 8988 N 841.211 -5.21422 2.55145 0
M  V30 8989 H 843.976 -1.14974 2.76769 0
M  V30 8990 H 841.537 -0.484206 1.5449 0
M  V30 8991 H 843.529 -3.5456 1.95113 0
M  V30 8992 H 842.099 -2.93209 1.08384 0
M  V30 8993 H 841.319 -2.00886 3.39173 0
M  V30 8994 H 842.607 -2.98409 4.12104 0
M  V30 8995 H 842.005 -5.31 1.95078 0
M  V30 8996 H 840.562 -5.97501 2.60454 0
M  V30 8997 N 843.995 -1.47404 -0.557645 0
M  V30 8998 C 845.223 -1.57622 -1.34026 0
M  V30 8999 C 845.638 -0.226256 -1.87439 0
M  V30 9000 O 844.995 0.78043 -1.64971 0
M  V30 9001 C 845.046 -2.60111 -2.51047 0
M  V30 9002 O 844.767 -3.89866 -1.99841 0
M  V30 9003 C 846.268 -2.80508 -3.43264 0
M  V30 9004 H 843.488 -0.532271 -0.40857 0
M  V30 9005 H 846.032 -1.93019 -0.675555 0
M  V30 9006 H 844.187 -2.27648 -3.13457 0
M  V30 9007 H 844.601 -4.45864 -2.76234 0
M  V30 9008 H 846.075 -3.56084 -4.21792 0
M  V30 9009 H 846.552 -1.88314 -3.9678 0
M  V30 9010 H 847.158 -3.14166 -2.86671 0
M  V30 9011 N 845.473 0.80434 -1.35529 0
M  V30 9012 C 846.42 1.91629 -1.28635 0
M  V30 9013 C 847.39 1.65348 -0.157862 0
M  V30 9014 O 848.575 1.87711 -0.341934 0
M  V30 9015 C 845.715 3.28207 -1.0665 0
M  V30 9016 C 844.828 3.66659 -2.28441 0
M  V30 9017 C 843.963 4.92279 -1.99588 0
M  V30 9018 C 843.002 5.23365 -3.1742 0
M  V30 9019 N 842.139 6.40165 -2.88328 0
M  V30 9020 H 846.979 1.96858 -2.23721 0
M  V30 9021 H 844.516 0.962871 -1.11208 0
M  V30 9022 H 846.474 4.06945 -0.919343 0
M  V30 9023 H 845.104 3.22441 -0.152253 0
M  V30 9024 H 844.156 2.83164 -2.54013 0
M  V30 9025 H 845.468 3.8559 -3.1642 0
M  V30 9026 H 844.622 5.78847 -1.81715 0
M  V30 9027 H 843.361 4.75387 -1.08896 0
M  V30 9028 H 842.366 4.35285 -3.35867 0
M  V30 9029 H 843.591 5.42185 -4.08916 0
M  V30 9030 H 841.537 6.24694 -2.00233 0
M  V30 9031 H 841.454 6.59357 -3.69843 0
M  V30 9032 H 842.722 7.29755 -2.74002 0
M  V30 9033 N 846.951 1.19563 1.02676 0
M  V30 9034 C 848.199 0.997593 1.75763 0
M  V30 9035 C 848.52 -0.47253 1.89188 0
M  V30 9036 O 847.79 -1.34214 1.42701 0
M  V30 9037 H 846.37 0.366128 0.651122 0
M  V30 9038 H 849.032 1.50495 1.23844 0
M  V30 9039 H 848.128 1.44741 2.76508 0
M  V30 9040 N 848.429 -1.21819 0.999893 0
M  V30 9041 C 849.657 -1.94758 0.698359 0
M  V30 9042 C 850.072 -1.73771 -0.738183 0
M  V30 9043 O 849.429 -1.04113 -1.49889 0
M  V30 9044 C 849.48 -3.47292 1.00353 0
M  V30 9045 O 849.201 -3.67579 2.38363 0
M  V30 9046 C 850.702 -4.37403 0.72068 0
M  V30 9047 H 847.922 -0.619512 0.257771 0
M  V30 9048 H 850.466 -1.54778 1.33656 0
M  V30 9049 H 848.621 -3.85213 0.411018 0
M  V30 9050 H 849.035 -4.61719 2.48829 0
M  V30 9051 H 850.509 -5.43151 0.984422 0
M  V30 9052 H 850.986 -4.3784 -0.345309 0
M  V30 9053 H 851.592 -4.05119 1.29456 0
M  V30 9054 N 849.908 -0.773975 -1.37286 0
M  V30 9055 C 851.155 -0.339306 -1.99637 0
M  V30 9056 C 851.483 1.08478 -1.61439 0
M  V30 9057 O 850.738 1.7612 -0.853252 0
M  V30 9058 C 851.037 -0.432651 -3.54772 0
M  V30 9059 C 850.703 -1.81531 -4.12744 0
M  V30 9060 C 849.365 -2.19366 -4.2829 0
M  V30 9061 C 851.717 -2.72137 -4.44512 0
M  V30 9062 C 849.045 -3.47239 -4.72908 0
M  V30 9063 C 851.397 -3.99421 -4.90556 0
M  V30 9064 C 850.061 -4.37298 -5.04308 0
M  V30 9065 H 849.331 -0.124161 -0.730524 0
M  V30 9066 H 851.978 -0.988432 -1.64019 0
M  V30 9067 H 850.283 0.30001 -3.9065 0
M  V30 9068 H 851.98 -0.0776 -4.00925 0
M  V30 9069 H 848.57 -1.51126 -4.01072 0
M  V30 9070 H 852.754 -2.44165 -4.32084 0
M  V30 9071 H 848.01 -3.76477 -4.81742 0
M  V30 9072 H 852.184 -4.69756 -5.14104 0
M  V30 9073 H 849.811 -5.36442 -5.38641 0
M  V30 9074 N 851.386 1.48609 -0.524698 0
M  V30 9075 C 852.318 2.27508 0.278 0
M  V30 9076 C 853.331 1.35042 0.909258 0
M  V30 9077 O 854.52 1.60136 0.788592 0
M  V30 9078 C 851.62 3.08247 1.40843 0
M  V30 9079 C 850.793 4.28455 0.880083 0
M  V30 9080 C 849.852 4.91048 1.891 0
M  V30 9081 O 848.878 5.5042 1.45005 0
M  V30 9082 N 850.08 4.82816 3.22288 0
M  V30 9083 H 852.845 2.97037 -0.398642 0
M  V30 9084 H 850.406 1.57876 -0.358698 0
M  V30 9085 H 852.398 3.46992 2.08276 0
M  V30 9086 H 850.968 2.41173 1.98883 0
M  V30 9087 H 850.188 3.94189 0.0299228 0
M  V30 9088 H 851.476 5.06279 0.505881 0
M  V30 9089 H 850.874 4.3572 3.60783 0
M  V30 9090 H 849.431 5.25676 3.85368 0
M  V30 9091 N 852.864 0.259585 1.55447 0
M  V30 9092 C 854.11 -0.355207 2.00274 0
M  V30 9093 C 854.465 -1.54637 1.14477 0
M  V30 9094 O 853.758 -1.90519 0.203215 0
M  V30 9095 C 853.952 -0.802727 3.48269 0
M  V30 9096 C 853.781 0.34353 4.48386 0
M  V30 9097 C 852.551 0.822317 4.98564 0
M  V30 9098 C 854.749 1.17482 5.00702 0
M  V30 9099 N 852.731 1.93966 5.82452 0
M  V30 9100 C 854.102 2.14032 5.81885 0
M  V30 9101 C 856.157 1.20994 4.82975 0
M  V30 9102 C 854.86 3.1382 6.47232 0
M  V30 9103 C 856.886 2.19618 5.4911 0
M  V30 9104 C 856.248 3.14903 6.30092 0
M  V30 9105 H 852.347 -0.0955824 0.776137 0
M  V30 9106 H 854.931 0.380062 1.90954 0
M  V30 9107 H 853.102 -1.50726 3.57961 0
M  V30 9108 H 854.834 -1.39354 3.79951 0
M  V30 9109 H 851.589 0.404272 4.71871 0
M  V30 9110 H 852.013 2.50148 6.29091 0
M  V30 9111 H 856.655 0.487104 4.19985 0
M  V30 9112 H 854.373 3.87045 7.09381 0
M  V30 9113 H 857.959 2.23057 5.37342 0
M  V30 9114 H 856.839 3.8997 6.80362 0
M  V30 9115 N 854.342 -1.57594 -0.0133615 0
M  V30 9116 C 855.57 -1.94251 -0.712328 0
M  V30 9117 C 855.985 -0.86063 -1.68043 0
M  V30 9118 O 855.342 0.161632 -1.81783 0
M  V30 9119 C 855.393 -3.30891 -1.45581 0
M  V30 9120 O 855.114 -4.34924 -0.526539 0
M  V30 9121 C 856.615 -3.81926 -2.2505 0
M  V30 9122 H 853.835 -0.640737 -0.199241 0
M  V30 9123 H 856.379 -2.04472 0.0337855 0
M  V30 9124 H 854.534 -3.22019 -2.15366 0
M  V30 9125 H 854.948 -5.1389 -1.04962 0
M  V30 9126 H 856.422 -4.79999 -2.72589 0
M  V30 9127 H 856.899 -3.13934 -3.07152 0
M  V30 9128 H 857.505 -3.93931 -1.60308 0
M  V30 9129 N 855.82 0.285905 -1.54985 0
M  V30 9130 C 857.069 1.01691 -1.74189 0
M  V30 9131 C 857.382 1.87908 -0.543135 0
M  V30 9132 O 858.588 2.64389 -0.617305 0
M  V30 9133 C 857.044 1.85785 -3.0824 0
M  V30 9134 C 856.652 1.04497 -4.35642 0
M  V30 9135 C 858.396 2.58393 -3.36798 0
M  V30 9136 C 856.303 1.87955 -5.60738 0
M  V30 9137 H 855.233 0.383396 -0.649248 0
M  V30 9138 H 857.884 0.27317 -1.81455 0
M  V30 9139 H 856.266 2.64205 -2.94978 0
M  V30 9140 H 857.44 0.305847 -4.59784 0
M  V30 9141 H 855.755 0.434023 -4.14132 0
M  V30 9142 H 858.352 3.21214 -4.27464 0
M  V30 9143 H 858.695 3.28011 -2.56349 0
M  V30 9144 H 859.228 1.87012 -3.511 0
M  V30 9145 H 855.967 1.22781 -6.43898 0
M  V30 9146 H 855.487 2.59499 -5.40759 0
M  V30 9147 H 857.166 2.45636 -5.98558 0
M  V30 9148 N 857.298 1.47698 0.54982 0
M  V30 9149 C 858.208 1.63386 1.68351 0
M  V30 9150 C 859.224 0.516583 1.66155 0
M  V30 9151 O 860.4 0.785088 1.85468 0
M  V30 9152 C 857.465 1.6513 3.04849 0
M  V30 9153 C 856.526 2.88338 3.18056 0
M  V30 9154 C 855.759 2.8999 4.48042 0
M  V30 9155 O 855.982 2.00633 5.3395 0
M  V30 9156 O 854.916 3.81938 4.65196 0
M  V30 9157 H 858.742 2.59329 1.58057 0
M  V30 9158 H 856.327 1.30869 0.72067 0
M  V30 9159 H 858.209 1.68913 3.86065 0
M  V30 9160 H 856.884 0.723555 3.1551 0
M  V30 9161 H 855.791 2.90097 2.36209 0
M  V30 9162 H 857.124 3.80431 3.12302 0
M  V30 9163 N 858.776 -0.797141 1.35954 0
M  V30 9164 C 859.686 -1.94088 1.31784 0
M  V30 9165 C 860.702 -1.72588 0.221227 0
M  V30 9166 O 861.878 -1.96256 0.452255 0
M  V30 9167 C 858.943 -3.28828 1.09878 0
M  V30 9168 C 858.004 -3.63158 2.28942 0
M  V30 9169 C 857.237 -4.91469 2.08072 0
M  V30 9170 O 857.46 -5.60616 1.05196 0
M  V30 9171 O 856.394 -5.24277 2.95664 0
M  V30 9172 H 860.22 -2.00554 2.28061 0
M  V30 9173 H 857.805 -0.936288 1.16422 0
M  V30 9174 H 859.687 -4.09473 0.995485 0
M  V30 9175 H 858.362 -3.23271 0.16659 0
M  V30 9176 H 857.269 -2.82851 2.44839 0
M  V30 9177 H 858.602 -3.7343 3.20641 0
M  V30 9178 N 860.254 -1.20106 -1.0204 0
M  V30 9179 C 861.164 -0.962051 -2.13967 0
M  V30 9180 C 862.18 0.0808053 -1.73812 0
M  V30 9181 O 863.356 -0.105774 -2.01122 0
M  V30 9182 C 860.421 -0.513108 -3.42882 0
M  V30 9183 C 859.482 -1.62636 -3.97301 0
M  V30 9184 C 858.715 -1.19875 -5.20063 0
M  V30 9185 O 858.938 -0.0658423 -5.70362 0
M  V30 9186 O 857.872 -2.00467 -5.67536 0
M  V30 9187 H 861.698 -1.8991 -2.36998 0
M  V30 9188 H 859.283 -0.984608 -1.12365 0
M  V30 9189 H 861.165 -0.271797 -4.20523 0
M  V30 9190 H 859.84 0.395402 -3.21276 0
M  V30 9191 H 858.747 -1.92192 -3.20957 0
M  V30 9192 H 860.08 -2.51174 -4.23288 0
M  V30 9193 N 861.732 1.21287 -1.00634 0
M  V30 9194 C 862.978 1.90671 -0.690822 0
M  V30 9195 C 863.311 1.77996 0.776592 0
M  V30 9196 O 862.586 1.15748 1.5631 0
M  V30 9197 C 862.869 3.42426 -1.11428 0
M  V30 9198 C 862.722 3.64086 -2.64124 0
M  V30 9199 C 864.041 4.34851 -0.677686 0
M  V30 9200 H 861.16 0.692419 -0.252439 0
M  V30 9201 H 863.802 1.42893 -1.25226 0
M  V30 9202 H 861.952 3.83249 -0.636586 0
M  V30 9203 H 863.624 3.32582 -3.19667 0
M  V30 9204 H 861.867 3.07906 -3.05576 0
M  V30 9205 H 862.538 4.7042 -2.88806 0
M  V30 9206 H 865.014 4.01619 -1.0882 0
M  V30 9207 H 863.89 5.39675 -1.00213 0
M  V30 9208 H 864.151 4.4009 0.421125 0
M  V30 9209 N 863.21 0.781244 1.36873 0
M  V30 9210 C 864.626 0.461968 1.52768 0
M  V30 9211 C 864.826 -1.02099 1.73719 0
M  V30 9212 O 863.882 -1.80665 1.76399 0
M  V30 9213 C 865.195 1.2853 2.71846 0
M  V30 9214 C 866.743 1.27817 2.85713 0
M  V30 9215 C 867.218 2.08506 4.07786 0
M  V30 9216 N 868.709 2.05909 4.14917 0
M  V30 9217 C 869.444 2.65118 5.08429 0
M  V30 9218 N 868.94 3.33152 6.07438 0
M  V30 9219 N 870.733 2.54896 5.00983 0
M  V30 9220 H 862.884 1.74198 1.21527 0
M  V30 9221 H 865.147 0.740027 0.592506 0
M  V30 9222 H 864.853 2.3366 2.62861 0
M  V30 9223 H 864.727 0.920981 3.65784 0
M  V30 9224 H 867.114 0.234817 2.94164 0
M  V30 9225 H 867.195 1.68219 1.92707 0
M  V30 9226 H 866.839 3.12867 4.00096 0
M  V30 9227 H 866.769 1.65479 4.99924 0
M  V30 9228 H 869.26 1.56386 3.44023 0
M  V30 9229 H 869.573 3.75681 6.75339 0
M  V30 9230 H 867.918 3.37253 6.07689 0
M  V30 9231 H 871.109 2.01352 4.22581 0
M  V30 9232 H 871.282 3.01332 5.73675 0
M  V30 9233 N 864.689 -1.48329 0.532571 0
M  V30 9234 C 865.936 -2.025 -0.000582356 0
M  V30 9235 C 866.264 -1.40942 -1.34036 0
M  V30 9236 O 865.519 -0.545545 -1.87942 0
M  V30 9237 C 865.818 -3.57 -0.168943 0
M  V30 9238 C 865.484 -4.37357 1.0968 0
M  V30 9239 C 864.146 -4.59033 1.44369 0
M  V30 9240 C 866.498 -4.83882 1.93669 0
M  V30 9241 C 863.826 -5.24481 2.62939 0
M  V30 9242 C 866.178 -5.50637 3.11419 0
M  V30 9243 C 864.842 -5.70551 3.46451 0
M  V30 9244 H 864.112 -0.741 -0.000213099 0
M  V30 9245 H 866.759 -1.78282 0.699117 0
M  V30 9246 H 865.064 -3.80072 -0.951429 0
M  V30 9247 H 866.761 -3.9654 -0.596422 0
M  V30 9248 H 863.351 -4.20748 0.816655 0
M  V30 9249 H 867.535 -4.66936 1.6818 0
M  V30 9250 H 862.791 -5.38096 2.9028 0
M  V30 9251 H 866.965 -5.85655 3.76803 0
M  V30 9252 H 864.592 -6.21037 4.38425 0
M  V30 9253 N 866.167 -0.267825 -1.55308 0
M  V30 9254 C 867.395 0.354587 -2.03839 0
M  V30 9255 C 867.81 1.50007 -1.14644 0
M  V30 9256 O 867.167 1.81752 -0.165055 0
M  V30 9257 C 867.218 0.84254 -3.51544 0
M  V30 9258 O 866.939 -0.257318 -4.37344 0
M  V30 9259 C 868.44 1.53351 -4.15931 0
M  V30 9260 H 865.66 0.0818131 -0.665994 0
M  V30 9261 H 868.204 -0.397795 -2.00594 0
M  V30 9262 H 866.359 1.54503 -3.55257 0
M  V30 9263 H 866.773 0.116593 -5.2437 0
M  V30 9264 H 868.247 1.82643 -5.20908 0
M  V30 9265 H 868.724 2.4626 -3.63666 0
M  V30 9266 H 869.33 0.87506 -4.162 0
M  V30 9267 N 867.645 1.57599 0.00500368 0
M  V30 9268 C 868.595 2.04585 1.00643 0
M  V30 9269 C 869.579 0.939622 1.30614 0
M  V30 9270 O 870.771 1.20342 1.29796 0
M  V30 9271 C 867.9 2.5486 2.30002 0
M  V30 9272 C 866.986 3.7235 2.03017 0
M  V30 9273 N 867.377 4.84218 1.46173 0
M  V30 9274 C 865.675 3.80185 2.33185 0
M  V30 9275 C 866.376 5.65688 1.35544 0
M  V30 9276 N 865.352 5.11536 1.83933 0
M  V30 9277 H 869.154 2.8849 0.561332 0
M  V30 9278 H 866.668 1.61026 0.210808 0
M  V30 9279 H 868.665 2.86794 3.0258 0
M  V30 9280 H 867.325 1.72372 2.75169 0
M  V30 9281 H 868.336 5.0517 1.1412 0
M  V30 9282 H 865.013 3.08543 2.81261 0
M  V30 9283 H 866.403 6.65588 0.918791 0
M  V30 9284 N 869.123 -0.277682 1.55134 0
M  V30 9285 C 870.369 -1.00733 1.76704 0
M  V30 9286 C 870.724 -1.84107 0.55879 0
M  V30 9287 O 870.017 -1.86275 -0.448591 0
M  V30 9288 C 870.211 -1.92599 3.01065 0
M  V30 9289 C 870.04 -1.18266 4.3387 0
M  V30 9290 C 868.81 -0.900254 4.97216 0
M  V30 9291 C 871.008 -0.575419 5.11071 0
M  V30 9292 N 868.99 -0.129637 6.13763 0
M  V30 9293 C 870.361 0.0612637 6.1997 0
M  V30 9294 C 872.416 -0.482794 4.95554 0
M  V30 9295 C 871.119 0.781637 7.15041 0
M  V30 9296 C 873.145 0.223977 5.90976 0
M  V30 9297 C 872.507 0.849416 6.9926 0
M  V30 9298 H 868.606 -0.35075 0.698927 0
M  V30 9299 H 871.19 -0.283482 1.92625 0
M  V30 9300 H 869.361 -2.62214 2.86528 0
M  V30 9301 H 871.093 -2.5889 3.1106 0
M  V30 9302 H 867.848 -1.20434 4.58031 0
M  V30 9303 H 868.272 0.242865 6.76564 0
M  V30 9304 H 872.914 -0.952023 4.11942 0
M  V30 9305 H 870.632 1.26256 7.98176 0
M  V30 9306 H 874.218 0.2959 5.81047 0
M  V30 9307 H 873.098 1.3876 7.71826 0
M  V30 9308 N 870.601 -1.47988 -0.541979 0
M  V30 9309 C 871.549 -1.62044 -1.66867 0
M  V30 9310 C 872.543 -0.487217 -1.62242 0
M  V30 9311 O 873.749 -0.66554 -1.67244 0
M  V30 9312 H 870.124 -0.51024 -0.552412 0
M  V30 9313 H 872.095 -2.56695 -1.52153 0
M  V30 9314 C 870.844 -1.66615 -3.0518 0
M  V30 9315 H 870.167 -2.5317 -3.09427 0
M  V30 9316 H 871.607 -1.80496 -3.83663 0
M  V30 9317 C 870.066 -0.402421 -3.34488 0
M  V30 9318 O 870.596 0.48992 -3.98701 0
M  V30 9319 N 868.802 -0.277778 -2.89269 0
M  V30 9320 H 868.349 -1.00488 -2.37192 0
M  V30 9321 H 868.307 0.566784 -3.09249 0
M  V30 9322 N 872.079 0.78992 -1.36375 0
M  V30 9323 C 873.304 1.58389 -1.33895 0
M  V30 9324 C 873.729 1.8794 0.0774934 0
M  V30 9325 O 873.087 1.4785 1.0493 0
M  V30 9326 C 873.135 2.88201 -2.16732 0
M  V30 9327 O 872.239 3.81778 -1.55946 0
M  V30 9328 H 871.58 0.480471 -0.458305 0
M  V30 9329 H 874.11 0.979119 -1.79651 0
M  V30 9330 H 874.12 3.37475 -2.29292 0
M  V30 9331 H 872.795 2.66019 -3.19698 0
M  V30 9332 H 871.372 3.40371 -1.52323 0
M  V30 9333 N 873.557 1.20646 1.01402 0
M  V30 9334 C 874.834 0.927176 1.72229 0
M  V30 9335 C 875.214 -0.563382 2.03443 0
M  V30 9336 O 874.562 -1.52576 1.70096 0
M  V30 9337 C 874.772 1.80285 2.98828 0
M  V30 9338 C 876.12 2.04624 3.72041 0
M  V30 9339 O 877.144 1.77559 3.0879 0
M  V30 9340 O 876.003 2.50347 4.85787 0
M  V30 9341 H 873.097 0.346891 0.75073 0
M  V30 9342 H 875.643 1.31532 1.07227 0
M  V30 9343 H 874.415 2.81204 2.72102 0
M  V30 9344 H 874.038 1.41495 3.71571 0
M  V30 9345 N 875.035 -1.20752 1.01276 0
M  V30 9346 C 875.968 -2.22091 0.524472 0
M  V30 9347 C 876.946 -1.5692 -0.426017 0
M  V30 9348 O 878.13 -1.8528 -0.346919 0
M  V30 9349 C 875.257 -3.37868 -0.237224 0
M  V30 9350 C 874.303 -4.21327 0.662236 0
M  V30 9351 S 875.136 -4.91352 2.12916 0
M  V30 9352 C 876.292 -6.10553 1.37752 0
M  V30 9353 H 876.525 -2.63166 1.38315 0
M  V30 9354 H 874.058 -1.30742 0.821332 0
M  V30 9355 H 876.016 -4.04985 -0.670599 0
M  V30 9356 H 874.677 -2.95261 -1.07143 0
M  V30 9357 H 873.87 -5.03944 0.0751085 0
M  V30 9358 H 873.472 -3.59445 1.03322 0
M  V30 9359 H 875.764 -6.74322 0.655491 0
M  V30 9360 H 876.707 -6.73717 2.17969 0
M  V30 9361 H 877.115 -5.57566 0.882088 0
M  V30 9362 N 876.513 -0.788492 -1.36457 0
M  V30 9363 C 877.924 -0.423742 -1.81828 0
M  V30 9364 C 878.275 1.05221 -1.65599 0
M  V30 9365 O 877.4 1.8163 -1.17641 0
M  V30 9366 C 877.995 -0.762354 -3.30112 0
M  V30 9367 C 876.554 -0.450445 -3.73695 0
M  V30 9368 C 875.701 -0.997482 -2.58738 0
M  V30 9369 H 878.652 -0.981718 -1.24692 0
M  V30 9370 H 878.673 -0.0531136 -3.80463 0
M  V30 9371 H 878.185 -1.83662 -3.41891 0
M  V30 9372 H 876.286 0.615829 -3.67476 0
M  V30 9373 H 876.399 -0.970408 -4.69169 0
M  V30 9374 H 874.763 -0.420761 -2.51201 0
M  V30 9375 H 875.546 -2.07749 -2.73304 0
M  V30 9376 N 877.991 1.48044 -0.54043 0
M  V30 9377 C 879.239 2.02097 -0.0101367 0
M  V30 9378 C 879.56 1.41881 1.33771 0
M  V30 9379 O 878.83 0.587923 1.8687 0
M  V30 9380 H 877.41 0.747 -0.000758716 0
M  V30 9381 H 880.072 1.81639 -0.706634 0
M  V30 9382 H 879.168 3.11969 0.0904474 0
M  V30 9383 N 879.47 0.276058 1.55163 0
M  V30 9384 C 880.886 -0.0780579 1.59409 0
M  V30 9385 C 881.086 -1.54521 1.29327 0
M  V30 9386 O 880.142 -2.29422 1.05459 0
M  V30 9387 C 881.455 0.297422 2.99225 0
M  V30 9388 C 883.003 0.244117 3.12047 0
M  V30 9389 C 883.478 0.594051 4.54131 0
M  V30 9390 N 884.969 0.54564 4.59975 0
M  V30 9391 C 885.704 0.789192 5.67943 0
M  V30 9392 N 885.2 1.09741 6.84053 0
M  V30 9393 N 886.993 0.717926 5.57496 0
M  V30 9394 H 879.144 1.23251 1.72982 0
M  V30 9395 H 881.407 0.497988 0.806667 0
M  V30 9396 H 881.113 1.31782 3.26077 0
M  V30 9397 H 880.987 -0.361286 3.75466 0
M  V30 9398 H 883.374 -0.766992 2.84958 0
M  V30 9399 H 883.455 0.937097 2.38017 0
M  V30 9400 H 883.099 1.60285 4.81945 0
M  V30 9401 H 883.029 -0.120728 5.26462 0
M  V30 9402 H 885.52 0.317334 3.76565 0
M  V30 9403 H 885.833 1.26989 7.62295 0
M  V30 9404 H 884.178 1.13519 6.85666 0
M  V30 9405 H 887.369 0.47697 4.65664 0
M  V30 9406 H 887.542 0.911118 6.41563 0
M  V30 9407 N 880.948 -1.576 0.00335426 0
M  V30 9408 C 881.895 -2.08632 -0.986975 0
M  V30 9409 C 882.865 -0.982491 -1.33927 0
M  V30 9410 O 884.05 -1.25513 -1.43705 0
M  V30 9411 C 881.19 -2.59705 -2.27261 0
M  V30 9412 C 880.303 -3.84002 -1.97905 0
M  V30 9413 C 879.438 -4.23563 -3.20574 0
M  V30 9414 C 878.477 -5.40688 -2.8692 0
M  V30 9415 N 877.614 -5.75526 -4.02136 0
M  V30 9416 H 882.454 -2.92977 -0.544855 0
M  V30 9417 H 879.991 -1.44831 -0.257376 0
M  V30 9418 H 881.949 -2.87395 -3.02423 0
M  V30 9419 H 880.579 -1.7823 -2.69136 0
M  V30 9420 H 879.631 -3.63199 -1.13096 0
M  V30 9421 H 880.943 -4.69261 -1.69102 0
M  V30 9422 H 880.097 -4.52554 -4.04079 0
M  V30 9423 H 878.836 -3.37019 -3.52518 0
M  V30 9424 H 877.841 -5.11417 -2.01822 0
M  V30 9425 H 879.066 -6.2891 -2.5622 0
M  V30 9426 H 877.012 -4.9194 -4.33971 0
M  V30 9427 H 876.929 -6.55367 -3.76869 0
M  V30 9428 H 878.197 -6.0911 -4.8642 0
M  V30 9429 N 882.426 0.269451 -1.5528 0
M  V30 9430 C 883.837 0.840233 -1.66724 0
M  V30 9431 C 884.188 1.86909 -0.596621 0
M  V30 9432 O 883.313 2.14817 0.261246 0
M  V30 9433 C 883.908 1.5308 -3.02245 0
M  V30 9434 C 882.467 2.04957 -3.15705 0
M  V30 9435 C 881.614 0.892838 -2.62533 0
M  V30 9436 H 884.565 0.0457236 -1.58634 0
M  V30 9437 H 884.586 2.39792 -2.95432 0
M  V30 9438 H 884.098 0.781741 -3.80145 0
M  V30 9439 H 882.199 2.82813 -2.42585 0
M  V30 9440 H 882.312 2.26244 -4.22316 0
M  V30 9441 H 880.676 1.28719 -2.19781 0
M  V30 9442 H 881.459 0.157229 -3.4294 0
M  V30 9443 N 883.904 1.48273 0.534124 0
M  V30 9444 C 885.152 1.55771 1.28762 0
M  V30 9445 C 885.473 0.231575 1.9362 0
M  V30 9446 O 884.743 -0.746533 1.81118 0
M  V30 9447 H 883.323 0.573851 0.47823 0
M  V30 9448 H 885.985 1.84712 0.621888 0
M  V30 9449 H 885.081 2.33657 2.06908 0
M  V30 9450 N 885.382 -0.782676 1.36792 0
M  V30 9451 C 886.622 -1.55396 1.32784 0
M  V30 9452 C 886.986 -1.91789 -0.0900272 0
M  V30 9453 O 888.187 -2.6759 -0.254725 0
M  V30 9454 C 886.458 -2.79227 2.23085 0
M  V30 9455 S 888.017 -3.69404 2.36825 0
M  V30 9456 H 884.835 -0.532139 0.471539 0
M  V30 9457 H 887.437 -0.921285 1.72431 0
M  V30 9458 H 886.141 -2.50553 3.25041 0
M  V30 9459 H 885.672 -3.47462 1.84482 0
M  V30 9460 H 887.687 -4.70683 1.57074 0
M  V30 9461 N 886.86 -1.21182 -1.00761 0
M  V30 9462 C 888.106 -1.02898 -1.74756 0
M  V30 9463 C 888.439 0.436774 -1.89225 0
M  V30 9464 O 887.714 1.32415 -1.42466 0
M  V30 9465 C 887.997 -1.72372 -3.16164 0
M  V30 9466 C 887.85 -3.2645 -3.09435 0
M  V30 9467 C 889.169 -1.46415 -4.15031 0
M  V30 9468 H 886.288 -0.375214 -0.634337 0
M  V30 9469 H 888.93 -1.49321 -1.17487 0
M  V30 9470 H 887.08 -1.32906 -3.65059 0
M  V30 9471 H 888.752 -3.75269 -2.68274 0
M  V30 9472 H 886.995 -3.56889 -2.46603 0
M  V30 9473 H 887.666 -3.70226 -4.09435 0
M  V30 9474 H 890.142 -1.80671 -3.7483 0
M  V30 9475 H 889.018 -1.97544 -5.12121 0
M  V30 9476 H 889.279 -0.39361 -4.40344 0
M  V30 9477 N 888.338 1.20213 -1.01915 0
M  V30 9478 C 889.301 2.21307 -0.596327 0
M  V30 9479 C 890.301 1.57274 0.334879 0
M  V30 9480 O 891.491 1.73764 0.12322 0
M  V30 9481 C 888.623 3.40657 0.128808 0
M  V30 9482 H 889.816 2.60228 -1.49068 0
M  V30 9483 H 887.369 1.33721 -0.809226 0
M  V30 9484 H 888.104 3.07241 1.03796 0
M  V30 9485 H 887.889 3.88361 -0.540183 0
M  V30 9486 H 889.379 4.15564 0.411892 0
M  V30 9487 N 889.816 0.795718 1.36037 0
M  V30 9488 C 890.749 0.144269 2.27744 0
M  V30 9489 C 891.727 -0.683351 1.47543 0
M  V30 9490 O 892.911 -0.652976 1.76829 0
M  V30 9491 C 890.038 -0.800944 3.29094 0
M  V30 9492 C 889.084 -0.0543234 4.26465 0
M  V30 9493 S 889.917 1.27426 5.20118 0
M  V30 9494 C 891.073 0.333213 6.25012 0
M  V30 9495 H 891.306 0.921827 2.82648 0
M  V30 9496 H 888.839 0.590241 1.42673 0
M  V30 9497 H 890.797 -1.34082 3.87985 0
M  V30 9498 H 889.458 -1.5518 2.7309 0
M  V30 9499 H 888.651 -0.771788 4.98056 0
M  V30 9500 H 888.253 0.415264 3.71687 0
M  V30 9501 H 890.545 -0.485604 6.75757 0
M  V30 9502 H 891.488 1.01798 7.00744 0
M  V30 9503 H 891.896 -0.066256 5.64461 0
M  V30 9504 N 891.294 -1.47756 0.548274 0
M  V30 9505 C 892.71 -1.58247 0.207401 0
M  V30 9506 C 892.91 -1.54804 -1.28988 0
M  V30 9507 O 891.966 -1.44673 -2.06944 0
M  V30 9508 C 893.279 -2.89129 0.826142 0
M  V30 9509 C 894.827 -3.02695 0.79655 0
M  V30 9510 C 895.302 -4.36264 1.3942 0
M  V30 9511 N 896.793 -4.42877 1.35698 0
M  V30 9512 C 897.528 -5.44773 1.78913 0
M  V30 9513 N 897.024 -6.53528 2.29942 0
M  V30 9514 N 898.817 -5.35765 1.70038 0
M  V30 9515 H 890.968 -1.48236 1.52117 0
M  V30 9516 H 893.231 -0.704957 0.633829 0
M  V30 9517 H 892.937 -2.97358 1.87806 0
M  V30 9518 H 892.811 -3.75891 0.313916 0
M  V30 9519 H 895.198 -2.94067 -0.246655 0
M  V30 9520 H 895.279 -2.17496 1.34644 0
M  V30 9521 H 894.923 -4.45646 2.43642 0
M  V30 9522 H 894.853 -5.20179 0.819827 0
M  V30 9523 H 897.344 -3.64874 0.983623 0
M  V30 9524 H 897.657 -7.27441 2.60863 0
M  V30 9525 H 896.002 -6.54442 2.33947 0
M  V30 9526 H 899.193 -4.49699 1.29955 0
M  V30 9527 H 899.366 -6.1504 2.04035 0
M  V30 9528 N 892.772 -0.284283 -1.55015 0
M  V30 9529 C 894 0.332948 -2.04203 0
M  V30 9530 C 894.415 1.48783 -1.16229 0
M  V30 9531 O 893.772 1.81567 -0.184323 0
M  V30 9532 C 893.823 0.805207 -3.52418 0
M  V30 9533 O 893.544 -0.303689 -4.37046 0
M  V30 9534 C 895.045 1.48931 -4.17534 0
M  V30 9535 H 892.265 0.0747447 -0.666824 0
M  V30 9536 H 894.809 -0.419048 -2.00161 0
M  V30 9537 H 892.964 1.50727 -3.56876 0
M  V30 9538 H 893.378 0.0609703 -5.24465 0
M  V30 9539 H 894.852 1.77108 -5.22816 0
M  V30 9540 H 895.329 2.42389 -3.66257 0
M  V30 9541 H 895.935 0.830867 -4.17105 0
M  V30 9542 N 894.251 1.57596 -0.0117121 0
M  V30 9543 C 895.499 1.90694 0.669342 0
M  V30 9544 C 895.82 0.886999 1.73659 0
M  V30 9545 O 895.09 -0.0739779 1.9576 0
M  V30 9546 H 893.67 0.703846 0.250219 0
M  V30 9547 H 896.332 1.94821 -0.0554057 0
M  V30 9548 H 895.428 2.90802 1.13316 0
M  V30 9549 N 895.729 -0.261212 1.5542 0
M  V30 9550 C 896.978 -0.989072 1.75785 0
M  V30 9551 C 897.291 -1.8702 0.572961 0
M  V30 9552 O 898.497 -2.63374 0.659289 0
M  V30 9553 C 896.953 -1.80857 3.11157 0
M  V30 9554 C 896.561 -0.975535 4.3725 0
M  V30 9555 C 898.305 -2.53003 3.40866 0
M  V30 9556 C 896.212 -1.7901 5.63657 0
M  V30 9557 H 895.142 -0.373019 0.655266 0
M  V30 9558 H 897.793 -0.244267 1.81867 0
M  V30 9559 H 896.175 -2.59479 2.99144 0
M  V30 9560 H 897.349 -0.232661 4.60212 0
M  V30 9561 H 895.664 -0.368083 4.1477 0
M  V30 9562 H 898.261 -3.14372 4.32521 0
M  V30 9563 H 898.604 -3.23891 2.61535 0
M  V30 9564 H 899.137 -1.81403 3.54031 0
M  V30 9565 H 895.876 -1.12522 6.4577 0
M  V30 9566 H 895.396 -2.50863 5.44819 0
M  V30 9567 H 897.075 -2.36082 6.0239 0
M  V30 9568 N 897.207 -1.48554 -0.526253 0
M  V30 9569 C 898.17 -1.62868 -1.61266 0
M  V30 9570 C 899.17 -0.501762 -1.52771 0
M  V30 9571 O 900.36 -0.76764 -1.56374 0
M  V30 9572 C 897.492 -1.60238 -3.00893 0
M  V30 9573 H 898.685 -2.59742 -1.49913 0
M  V30 9574 H 896.238 -1.37207 -0.748595 0
M  V30 9575 H 896.973 -0.648545 -3.17749 0
M  V30 9576 H 896.758 -2.42054 -3.08468 0
M  V30 9577 H 898.248 -1.73455 -3.79872 0
M  V30 9578 N 898.685 0.775411 -1.37205 0
M  V30 9579 C 899.933 1.53081 -1.3195 0
M  V30 9580 C 900.254 1.9476 0.0966864 0
M  V30 9581 O 899.524 1.66019 1.03993 0
M  V30 9582 H 898.104 0.567762 -0.485444 0
M  V30 9583 H 900.766 0.92309 -1.71654 0
M  V30 9584 H 899.862 2.4319 -1.95614 0
M  V30 9585 N 900.163 1.21714 1.00117 0
M  V30 9586 C 901.411 1.03465 1.73607 0
M  V30 9587 C 901.732 -0.432295 1.90148 0
M  V30 9588 O 901.002 -1.31157 1.45515 0
M  V30 9589 H 899.582 0.379857 0.643209 0
M  V30 9590 H 902.244 1.53088 1.20624 0
M  V30 9591 H 901.34 1.50574 2.73375 0
M  V30 9592 N 901.641 -1.19671 1.02551 0
M  V30 9593 C 902.571 -2.25009 0.623965 0
M  V30 9594 C 903.552 -1.66129 -0.36538 0
M  V30 9595 O 904.737 -1.92599 -0.248842 0
M  V30 9596 C 901.867 -3.47287 -0.0294869 0
M  V30 9597 C 900.821 -4.18818 0.881781 0
M  V30 9598 C 900.147 -5.34618 0.0936189 0
M  V30 9599 C 901.447 -4.73986 2.19396 0
M  V30 9600 H 903.141 -2.58851 1.50454 0
M  V30 9601 H 900.687 -1.24425 0.724872 0
M  V30 9602 H 902.64 -4.20168 -0.322016 0
M  V30 9603 H 901.364 -3.12635 -0.944838 0
M  V30 9604 H 900.023 -3.47815 1.15845 0
M  V30 9605 H 899.671 -4.9621 -0.823661 0
M  V30 9606 H 899.371 -5.83409 0.700568 0
M  V30 9607 H 900.895 -6.10297 -0.192249 0
M  V30 9608 H 902.309 -5.38639 1.96319 0
M  V30 9609 H 900.706 -5.3325 2.75254 0
M  V30 9610 H 901.776 -3.92238 2.85092 0
M  V30 9611 N 903.119 -0.802921 -1.35613 0
M  V30 9612 C 904.365 -0.391259 -1.99601 0
M  V30 9613 C 904.72 1.02922 -1.62557 0
M  V30 9614 O 904.013 1.70357 -0.876878 0
M  V30 9615 C 904.207 -0.507806 -3.53774 0
M  V30 9616 C 904.036 -1.93807 -4.05794 0
M  V30 9617 C 902.806 -2.56564 -4.3532 0
M  V30 9618 C 905.004 -2.90211 -4.24596 0
M  V30 9619 N 902.986 -3.91038 -4.73247 0
M  V30 9620 C 904.357 -4.09548 -4.65479 0
M  V30 9621 C 906.412 -2.87091 -4.06796 0
M  V30 9622 C 905.115 -5.26191 -4.90424 0
M  V30 9623 C 907.141 -4.02933 -4.32896 0
M  V30 9624 C 906.503 -5.21017 -4.74047 0
M  V30 9625 H 902.602 -0.190867 -0.758349 0
M  V30 9626 H 905.186 -1.04338 -1.64382 0
M  V30 9627 H 903.357 0.114306 -3.88232 0
M  V30 9628 H 905.089 -0.0710855 -4.04638 0
M  V30 9629 H 901.844 -2.07945 -4.25507 0
M  V30 9630 H 902.268 -4.60262 -4.96475 0
M  V30 9631 H 906.91 -1.96951 -3.74126 0
M  V30 9632 H 904.628 -6.16906 -5.2197 0
M  V30 9633 H 908.214 -4.01895 -4.2068 0
M  V30 9634 H 907.094 -6.09165 -4.93849 0
M  V30 9635 N 904.597 1.47463 -0.556102 0
M  V30 9636 C 905.874 1.9557 0.0339892 0
M  V30 9637 C 906.254 1.49869 1.48669 0
M  V30 9638 O 905.602 0.737019 2.16288 0
M  V30 9639 C 905.812 3.48826 -0.110343 0
M  V30 9640 C 907.16 4.24585 0.0355716 0
M  V30 9641 O 908.184 3.5618 -0.0378356 0
M  V30 9642 O 907.043 5.46158 0.193299 0
M  V30 9643 H 904.137 0.824461 0.0647521 0
M  V30 9644 H 906.683 1.57868 -0.622547 0
M  V30 9645 H 905.455 3.74891 -1.12126 0
M  V30 9646 H 905.078 3.9329 0.583855 0
M  V30 9647 N 906.075 0.2925 1.54862 0
M  V30 9648 C 907.321 -0.319736 2.00264 0
M  V30 9649 C 907.654 -1.5419 1.18064 0
M  V30 9650 O 906.929 -1.92821 0.254983 0
M  V30 9651 C 907.212 -0.684753 3.5353 0
M  V30 9652 C 907.065 0.545961 4.46474 0
M  V30 9653 C 908.384 -1.51456 4.13218 0
M  V30 9654 H 905.503 -0.11474 0.728014 0
M  V30 9655 H 908.145 0.402907 1.85679 0
M  V30 9656 H 906.295 -1.30044 3.66089 0
M  V30 9657 H 907.967 1.18448 4.45834 0
M  V30 9658 H 906.21 1.1808 4.1742 0
M  V30 9659 H 906.881 0.246544 5.51449 0
M  V30 9660 H 909.357 -0.994421 4.04043 0
M  V30 9661 H 908.233 -1.73875 5.20633 0
M  V30 9662 H 908.494 -2.5011 3.64551 0
M  V30 9663 N 907.553 -1.57587 0.0200696 0
M  V30 9664 C 908.483 -2.12702 -0.963333 0
M  V30 9665 C 909.464 -1.04094 -1.34531 0
M  V30 9666 O 910.649 -1.31881 -1.42552 0
M  V30 9667 C 907.779 -2.64673 -2.24868 0
M  V30 9668 C 906.733 -3.77987 -2.00772 0
M  V30 9669 C 906.059 -4.16351 -3.35494 0
M  V30 9670 C 907.359 -5.0444 -1.35416 0
M  V30 9671 H 909.053 -2.95121 -0.504363 0
M  V30 9672 H 906.599 -1.41966 -0.24116 0
M  V30 9673 H 908.552 -3.01862 -2.94036 0
M  V30 9674 H 907.276 -1.79403 -2.72914 0
M  V30 9675 H 905.935 -3.41223 -1.34025 0
M  V30 9676 H 905.583 -3.28075 -3.81282 0
M  V30 9677 H 905.283 -4.92705 -3.20181 0
M  V30 9678 H 906.807 -4.56115 -4.05945 0
M  V30 9679 H 908.221 -5.39273 -1.94571 0
M  V30 9680 H 906.618 -5.85732 -1.30529 0
M  V30 9681 H 907.688 -4.83803 -0.325923 0
M  V30 9682 N 909.032 0.252966 -1.55557 0
M  V30 9683 C 909.979 1.3131 -1.89806 0
M  V30 9684 C 910.949 1.48121 -0.751633 0
M  V30 9685 O 912.134 1.62202 -1.00474 0
M  V30 9686 C 909.274 2.66467 -2.19293 0
M  V30 9687 C 908.387 2.57714 -3.46709 0
M  V30 9688 C 907.522 3.85184 -3.65796 0
M  V30 9689 C 906.561 3.71023 -4.86835 0
M  V30 9690 N 905.698 4.90371 -5.02474 0
M  V30 9691 H 910.538 1.01402 -2.80217 0
M  V30 9692 H 908.075 0.489462 -1.38718 0
M  V30 9693 H 910.033 3.45132 -2.34392 0
M  V30 9694 H 908.663 2.94536 -1.32093 0
M  V30 9695 H 907.715 1.70651 -3.39974 0
M  V30 9696 H 909.027 2.43158 -4.35517 0
M  V30 9697 H 908.181 4.72292 -3.80822 0
M  V30 9698 H 906.92 4.0263 -2.7521 0
M  V30 9699 H 905.925 2.82299 -4.71792 0
M  V30 9700 H 907.15 3.55078 -5.78875 0
M  V30 9701 H 905.096 5.0819 -4.14824 0
M  V30 9702 H 905.013 4.78423 -5.85361 0
M  V30 9703 H 906.281 5.78995 -5.21905 0
M  V30 9704 N 910.51 1.48831 0.518367 0
M  V30 9705 C 911.75 1.59045 1.28391 0
M  V30 9706 C 912.114 0.263443 1.90184 0
M  V30 9707 O 913.315 0.24064 2.67721 0
M  V30 9708 C 911.586 2.70536 2.33548 0
M  V30 9709 S 913.145 3.00591 3.19673 0
M  V30 9710 H 909.963 0.561182 0.436573 0
M  V30 9711 H 912.565 1.86409 0.589222 0
M  V30 9712 H 911.269 3.65499 1.86652 0
M  V30 9713 H 910.8 2.4511 3.07708 0
M  V30 9714 H 912.815 2.40779 4.33866 0
M  V30 9715 N 911.988 -0.768124 1.37614 0
M  V30 9716 C 913.265 -1.51637 1.23554 0
M  V30 9717 C 913.645 -2.1042 -0.169331 0
M  V30 9718 O 912.993 -1.95834 -1.17735 0
M  V30 9719 C 913.203 -2.59436 2.33439 0
M  V30 9720 C 914.551 -3.2674 2.71157 0
M  V30 9721 O 915.575 -2.69733 2.32642 0
M  V30 9722 O 914.434 -4.29814 3.37524 0
M  V30 9723 H 911.528 -0.671778 0.482332 0
M  V30 9724 H 914.074 -0.804779 1.49403 0
M  V30 9725 H 912.846 -2.14146 3.27502 0
M  V30 9726 H 912.469 -3.38192 2.09073 0
M  V30 9727 N 913.466 -1.22244 -0.994698 0
M  V30 9728 C 914.376 -1.00722 -2.11878 0
M  V30 9729 C 915.392 0.043919 -1.73945 0
M  V30 9730 O 916.568 -0.148411 -2.00852 0
M  V30 9731 C 913.633 -0.585723 -3.41717 0
M  V30 9732 C 912.694 -1.71027 -3.93762 0
M  V30 9733 C 911.927 -1.30879 -5.17403 0
M  V30 9734 O 912.15 -0.18681 -5.70094 0
M  V30 9735 O 911.084 -2.1246 -5.63156 0
M  V30 9736 H 914.91 -1.94894 -2.32916 0
M  V30 9737 H 912.495 -1.00822 -1.10251 0
M  V30 9738 H 914.377 -0.360935 -4.19851 0
M  V30 9739 H 913.052 0.327166 -3.22042 0
M  V30 9740 H 911.959 -1.98956 -3.16808 0
M  V30 9741 H 913.292 -2.60096 -4.17865 0
M  V30 9742 N 914.944 1.19125 -1.03184 0
M  V30 9743 C 915.891 2.2245 -0.6152 0
M  V30 9744 C 916.861 1.61869 0.372502 0
M  V30 9745 O 918.046 1.88901 0.268491 0
M  V30 9746 C 915.186 3.45091 0.0248027 0
M  V30 9747 C 914.299 4.20044 -1.0093 0
M  V30 9748 C 913.434 5.30119 -0.338744 0
M  V30 9749 C 912.473 5.96833 -1.35855 0
M  V30 9750 N 911.61 6.98464 -0.713594 0
M  V30 9751 H 916.45 2.57445 -1.50086 0
M  V30 9752 H 913.987 1.26485 -0.751005 0
M  V30 9753 H 915.945 4.15149 0.413131 0
M  V30 9754 H 914.575 3.10742 0.874028 0
M  V30 9755 H 913.627 3.48901 -1.51566 0
M  V30 9756 H 914.939 4.65796 -1.78425 0
M  V30 9757 H 914.093 6.0661 0.104269 0
M  V30 9758 H 912.832 4.85446 0.468382 0
M  V30 9759 H 911.837 5.1909 -1.81179 0
M  V30 9760 H 913.062 6.4359 -2.16722 0
M  V30 9761 H 911.008 6.55959 0.0733863 0
M  V30 9762 H 910.925 7.42422 -1.42638 0
M  V30 9763 H 912.193 7.78943 -0.294681 0
M  V30 9764 N 916.422 0.810101 1.35185 0
M  V30 9765 C 917.385 0.22852 2.28058 0
M  V30 9766 C 918.385 -0.586168 1.49735 0
M  V30 9767 O 919.575 -0.40414 1.69447 0
M  V30 9768 C 916.707 -0.681041 3.34028 0
M  V30 9769 H 917.9 1.04768 2.81005 0
M  V30 9770 H 915.453 0.58101 1.451 0
M  V30 9771 H 916.188 -1.52375 2.86273 0
M  V30 9772 H 915.973 -0.0985276 3.91976 0
M  V30 9773 H 917.463 -1.08217 4.03335 0
M  V30 9774 N 917.9 -1.47166 0.563914 0
M  V30 9775 C 918.847 -2.30097 -0.180013 0
M  V30 9776 C 919.817 -1.39473 -0.902019 0
M  V30 9777 O 921.002 -1.68432 -0.896396 0
M  V30 9778 C 918.142 -3.23573 -1.19978 0
M  V30 9779 C 917.255 -4.2929 -0.483149 0
M  V30 9780 C 916.39 -5.0991 -1.48879 0
M  V30 9781 C 915.429 -6.07395 -0.757513 0
M  V30 9782 N 914.566 -6.8095 -1.71031 0
M  V30 9783 H 919.406 -2.93189 0.53329 0
M  V30 9784 H 916.943 -1.4451 0.274814 0
M  V30 9785 H 918.901 -3.76196 -1.80368 0
M  V30 9786 H 917.531 -2.6233 -1.88103 0
M  V30 9787 H 916.583 -3.79671 0.235414 0
M  V30 9788 H 917.895 -4.9872 0.0894075 0
M  V30 9789 H 917.049 -5.66717 -2.16603 0
M  V30 9790 H 915.788 -4.40397 -2.09527 0
M  V30 9791 H 914.793 -5.4976 -0.0663841 0
M  V30 9792 H 916.018 -6.78919 -0.156685 0
M  V30 9793 H 913.964 -6.14162 -2.30524 0
M  V30 9794 H 913.881 -7.46574 -1.19007 0
M  V30 9795 H 915.149 -7.42326 -2.37849 0
M  V30 9796 N 919.378 -0.300708 -1.54705 0
M  V30 9797 C 920.625 0.308654 -2.00134 0
M  V30 9798 C 920.953 1.53918 -1.1891 0
M  V30 9799 O 920.208 1.94054 -0.253263 0
M  V30 9800 C 920.507 0.710108 -3.50275 0
M  V30 9801 C 920.173 -0.418651 -4.48952 0
M  V30 9802 C 918.835 -0.728524 -4.75653 0
M  V30 9803 C 921.187 -1.17797 -5.07714 0
M  V30 9804 C 918.515 -1.80085 -5.58378 0
M  V30 9805 C 920.867 -2.24022 -5.91606 0
M  V30 9806 C 919.531 -2.55616 -6.16617 0
M  V30 9807 H 918.801 0.112945 -0.732342 0
M  V30 9808 H 921.448 -0.419744 -1.86843 0
M  V30 9809 H 919.753 1.51859 -3.61173 0
M  V30 9810 H 921.45 1.19277 -3.8285 0
M  V30 9811 H 918.04 -0.167034 -4.28274 0
M  V30 9812 H 922.224 -0.951835 -4.87087 0
M  V30 9813 H 917.48 -2.05036 -5.75995 0
M  V30 9814 H 921.654 -2.83317 -6.36164 0
M  V30 9815 H 919.281 -3.38839 -6.80509 0
M  V30 9816 N 920.856 1.57574 -0.0284266 0
M  V30 9817 C 922.102 1.92056 0.651327 0
M  V30 9818 C 922.435 0.905092 1.71819 0
M  V30 9819 O 921.71 -0.0722703 1.94366 0
M  V30 9820 C 921.993 3.37021 1.26841 0
M  V30 9821 C 921.846 4.49304 0.211157 0
M  V30 9822 C 923.165 3.81936 2.18662 0
M  V30 9823 H 920.284 0.698428 0.235304 0
M  V30 9824 H 922.926 1.89807 -0.0855435 0
M  V30 9825 H 921.076 3.39068 1.89644 0
M  V30 9826 H 922.748 4.5939 -0.419379 0
M  V30 9827 H 920.991 4.31317 -0.463445 0
M  V30 9828 H 921.662 5.47764 0.682518 0
M  V30 9829 H 924.138 3.8162 1.65847 0
M  V30 9830 H 923.014 4.84064 2.58792 0
M  V30 9831 H 923.275 3.174 3.07749 0
M  V30 9832 N 922.334 -0.244713 1.55689 0
M  V30 9833 C 923.574 -0.979776 1.79387 0
M  V30 9834 C 923.938 -1.8244 0.598298 0
M  V30 9835 O 925.139 -2.59141 0.7141 0
M  V30 9836 C 923.41 -1.81573 3.07841 0
M  V30 9837 S 924.969 -2.60959 3.52769 0
M  V30 9838 H 921.787 -0.329526 0.630027 0
M  V30 9839 H 924.389 -0.247435 1.93928 0
M  V30 9840 H 923.093 -1.18497 3.92921 0
M  V30 9841 H 922.624 -2.59078 2.96044 0
M  V30 9842 H 924.639 -3.83987 3.14275 0
M  V30 9843 N 923.813 -1.49104 -0.510467 0
M  V30 9844 C 924.76 -1.65074 -1.61305 0
M  V30 9845 C 925.73 -0.492362 -1.58635 0
M  V30 9846 O 926.915 -0.718241 -1.76765 0
M  V30 9847 C 924.055 -1.71457 -2.99493 0
M  V30 9848 C 923.168 -2.98536 -3.12251 0
M  V30 9849 C 922.303 -2.95957 -4.41116 0
M  V30 9850 C 921.342 -4.17655 -4.47471 0
M  V30 9851 N 920.479 -4.13041 -5.67751 0
M  V30 9852 H 925.319 -2.59222 -1.46996 0
M  V30 9853 H 922.856 -1.28535 -0.715346 0
M  V30 9854 H 924.814 -1.7314 -3.79577 0
M  V30 9855 H 923.444 -0.807834 -3.12528 0
M  V30 9856 H 922.496 -3.06509 -2.25292 0
M  V30 9857 H 923.808 -3.88527 -3.12807 0
M  V30 9858 H 922.962 -2.96149 -5.2951 0
M  V30 9859 H 921.701 -2.03728 -4.4311 0
M  V30 9860 H 920.706 -4.17717 -3.57481 0
M  V30 9861 H 921.931 -5.11066 -4.472 0
M  V30 9862 H 919.877 -3.23643 -5.70606 0
M  V30 9863 H 919.794 -4.96757 -5.69884 0
M  V30 9864 H 921.062 -4.17322 -6.58379 0
M  V30 9865 N 925.291 0.760815 -1.38019 0
M  V30 9866 C 926.241 1.86487 -1.31174 0
M  V30 9867 C 927.225 1.59684 -0.197414 0
M  V30 9868 O 928.417 1.71628 -0.432764 0
M  V30 9869 C 925.546 3.24103 -1.13192 0
M  V30 9870 C 924.632 3.5682 -2.29216 0
M  V30 9871 N 925.023 3.60644 -3.5464 0
M  V30 9872 C 923.321 3.87047 -2.2161 0
M  V30 9873 C 924.022 3.90423 -4.31214 0
M  V30 9874 N 922.998 4.06883 -3.60482 0
M  V30 9875 H 926.8 1.87711 -2.26146 0
M  V30 9876 H 924.314 0.957811 -1.31148 0
M  V30 9877 H 926.311 4.03101 -1.06372 0
M  V30 9878 H 924.971 3.24135 -0.191473 0
M  V30 9879 H 925.982 3.42581 -3.88405 0
M  V30 9880 H 922.659 3.94837 -1.35684 0
M  V30 9881 H 924.049 4.00065 -5.39812 0
M  V30 9882 N 926.769 1.22769 0.988202 0
M  V30 9883 C 928.015 1.06672 1.73184 0
M  V30 9884 C 928.37 -0.393434 1.88334 0
M  V30 9885 O 927.663 -1.2876 1.41885 0
M  V30 9886 C 927.857 1.71679 3.13466 0
M  V30 9887 C 927.686 3.23864 3.11997 0
M  V30 9888 C 926.456 3.92991 3.17626 0
M  V30 9889 C 928.654 4.20737 2.95778 0
M  V30 9890 N 926.636 5.32224 3.05959 0
M  V30 9891 C 928.007 5.46831 2.92191 0
M  V30 9892 C 930.062 4.1157 2.80205 0
M  V30 9893 C 928.765 6.64811 2.74624 0
M  V30 9894 C 930.791 5.29205 2.64 0
M  V30 9895 C 930.153 6.5422 2.61104 0
M  V30 9896 H 926.252 0.44481 0.64317 0
M  V30 9897 H 928.836 1.55381 1.17323 0
M  V30 9898 H 927.007 1.25513 3.67561 0
M  V30 9899 H 928.739 1.48629 3.76419 0
M  V30 9900 H 925.494 3.4402 3.25495 0
M  V30 9901 H 925.918 6.05197 3.03423 0
M  V30 9902 H 930.56 3.15697 2.81239 0
M  V30 9903 H 928.278 7.60828 2.72336 0
M  V30 9904 H 931.864 5.23947 2.52925 0
M  V30 9905 H 930.744 7.43713 2.48719 0
M  V30 9906 N 928.247 -1.18576 1.03814 0
M  V30 9907 C 929.21 -2.2033 0.63146 0
M  V30 9908 C 930.21 -1.57787 -0.309816 0
M  V30 9909 O 931.4 -1.73938 -0.0955598 0
M  V30 9910 C 928.532 -3.40818 -0.0745963 0
M  V30 9911 H 929.725 -2.57824 1.53189 0
M  V30 9912 H 927.278 -1.32416 0.830398 0
M  V30 9913 H 928.013 -3.08853 -0.988947 0
M  V30 9914 H 927.798 -3.87453 0.6019 0
M  V30 9915 H 929.288 -4.16166 -0.345727 0
M  V30 9916 N 929.725 -0.817259 -1.34754 0
M  V30 9917 C 930.635 -0.236946 -2.334 0
M  V30 9918 C 931.651 0.625685 -1.62361 0
M  V30 9919 O 932.827 0.534921 -1.94166 0
M  V30 9920 C 929.892 0.596215 -3.41535 0
M  V30 9921 C 928.953 -0.288154 -4.28332 0
M  V30 9922 C 928.186 0.505337 -5.31302 0
M  V30 9923 O 928.409 1.73912 -5.43241 0
M  V30 9924 O 927.343 -0.109374 -6.01801 0
M  V30 9925 H 931.169 -1.05327 -2.84851 0
M  V30 9926 H 928.754 -0.579275 -1.37713 0
M  V30 9927 H 930.636 1.07041 -4.07578 0
M  V30 9928 H 929.311 1.38997 -2.92338 0
M  V30 9929 H 928.218 -0.809724 -3.65232 0
M  V30 9930 H 929.551 -1.04612 -4.80955 0
M  V30 9931 N 931.203 1.46865 -0.571711 0
M  V30 9932 C 932.451 2.0203 -0.0530022 0
M  V30 9933 C 932.772 1.44687 1.30731 0
M  V30 9934 O 932.042 0.627429 1.85581 0
M  V30 9935 H 930.622 0.746815 -0.0166035 0
M  V30 9936 H 933.284 1.80099 -0.745003 0
M  V30 9937 H 932.38 3.12091 0.0242538 0
M  V30 9938 N 932.681 0.308908 1.54543 0
M  V30 9939 C 933.927 -0.298478 2.00592 0
M  V30 9940 C 934.26 -1.52929 1.19692 0
M  V30 9941 O 933.535 -1.9254 0.27542 0
M  V30 9942 C 933.818 -0.647218 3.54236 0
M  V30 9943 C 933.671 0.593284 4.4587 0
M  V30 9944 C 934.99 -1.47064 4.14801 0
M  V30 9945 H 932.109 -0.107012 0.72919 0
M  V30 9946 H 934.751 0.422578 1.85241 0
M  V30 9947 H 932.901 -1.26153 3.67447 0
M  V30 9948 H 934.573 1.2317 4.44552 0
M  V30 9949 H 932.816 1.22501 4.16144 0
M  V30 9950 H 933.487 0.305018 5.51157 0
M  V30 9951 H 935.963 -0.951511 4.05075 0
M  V30 9952 H 934.839 -1.68343 5.22448 0
M  V30 9953 H 935.1 -2.4623 3.67183 0
M  V30 9954 N 934.159 -1.57557 0.0367827 0
M  V30 9955 C 935.387 -1.96419 -0.650168 0
M  V30 9956 C 935.802 -0.913656 -1.6522 0
M  V30 9957 O 935.159 0.103718 -1.82205 0
M  V30 9958 C 935.21 -3.35355 -1.3498 0
M  V30 9959 O 934.931 -4.36379 -0.387905 0
M  V30 9960 C 936.432 -3.88892 -2.12786 0
M  V30 9961 H 933.652 -0.646751 -0.178756 0
M  V30 9962 H 936.196 -2.04261 0.0988197 0
M  V30 9963 H 934.351 -3.28708 -2.05012 0
M  V30 9964 H 934.765 -5.16969 -0.885596 0
M  V30 9965 H 936.239 -4.88428 -2.5718 0
M  V30 9966 H 936.716 -3.23547 -2.97008 0
M  V30 9967 H 937.322 -3.98831 -1.47694 0
M  V30 9968 N 935.637 0.236453 -1.55816 0
M  V30 9969 C 936.587 1.29603 -1.87582 0
M  V30 9970 C 937.571 1.42999 -0.737566 0
M  V30 9971 O 938.763 1.46065 -0.999701 0
M  V30 9972 C 935.892 2.64945 -2.1831 0
M  V30 9973 C 934.978 2.55511 -3.38489 0
M  V30 9974 N 935.369 2.15716 -4.57494 0
M  V30 9975 C 933.667 2.86502 -3.41808 0
M  V30 9976 C 934.368 2.17169 -5.39641 0
M  V30 9977 N 933.344 2.5708 -4.78969 0
M  V30 9978 H 937.146 0.979016 -2.77115 0
M  V30 9979 H 934.66 0.445058 -1.56183 0
M  V30 9980 H 936.657 3.41426 -2.39236 0
M  V30 9981 H 935.317 2.97504 -1.30082 0
M  V30 9982 H 936.328 1.87089 -4.82927 0
M  V30 9983 H 933.005 3.23533 -2.6388 0
M  V30 9984 H 934.395 1.88653 -6.44872 0
M  V30 9985 N 937.115 1.49373 0.502552 0
M  V30 9986 C 938.526 1.52 1.0841 0
M  V30 9987 C 938.877 0.305317 1.9381 0
M  V30 9988 O 938.002 -0.585023 2.08342 0
M  V30 9989 C 938.597 2.75437 1.97281 0
M  V30 9990 C 937.156 2.80848 2.50602 0
M  V30 9991 C 936.303 2.45894 1.28186 0
M  V30 9992 H 939.254 1.56092 0.286533 0
M  V30 9993 H 939.275 2.55511 2.81947 0
M  V30 9994 H 938.787 3.63827 1.35098 0
M  V30 9995 H 936.888 1.96735 3.16427 0
M  V30 9996 H 937.001 3.82979 2.8786 0
M  V30 9997 H 935.365 1.97639 1.60657 0
M  V30 9998 H 936.148 3.36556 0.677139 0
M  V30 9999 N 938.594 -0.753485 1.38421 0
M  V30 10000 C 940.005 -1.33081 1.30944 0
M  V30 10001 C 940.356 -1.96169 -0.0347124 0
M  V30 10002 O 939.481 -1.95073 -0.936768 0
M  V30 10003 C 940.076 -2.41973 2.37138 0
M  V30 10004 C 938.635 -2.95426 2.33239 0
M  V30 10005 C 937.782 -1.68808 2.19998 0
M  V30 10006 H 940.733 -0.552354 1.48777 0
M  V30 10007 H 940.754 -3.21913 2.02859 0
M  V30 10008 H 940.266 -1.96027 3.34956 0
M  V30 10009 H 938.367 -3.45701 1.39003 0
M  V30 10010 H 938.48 -3.49798 3.27381 0
M  V30 10011 H 936.844 -1.92438 1.66852 0
M  V30 10012 H 937.627 -1.24939 3.19758 0
M  V30 10013 N 940.072 -1.23292 -0.981677 0
M  V30 10014 C 941.019 -1.01296 -2.07383 0
M  V30 10015 C 941.989 0.069139 -1.65956 0
M  V30 10016 O 943.174 -0.0827108 -1.90621 0
M  V30 10017 C 940.314 -0.608876 -3.39686 0
M  V30 10018 C 939.427 -1.76296 -3.9439 0
M  V30 10019 C 938.562 -1.30578 -5.14901 0
M  V30 10020 C 937.601 -2.4307 -5.61768 0
M  V30 10021 N 936.738 -1.98319 -6.73509 0
M  V30 10022 H 941.578 -1.9478 -2.25532 0
M  V30 10023 H 939.115 -0.970356 -1.10555 0
M  V30 10024 H 941.073 -0.355702 -4.15681 0
M  V30 10025 H 939.703 0.288961 -3.21504 0
M  V30 10026 H 938.755 -2.13017 -3.15163 0
M  V30 10027 H 940.067 -2.60871 -4.25145 0
M  V30 10028 H 939.221 -1.01066 -5.98223 0
M  V30 10029 H 937.96 -0.430386 -4.85797 0
M  V30 10030 H 936.965 -2.73358 -4.77028 0
M  V30 10031 H 938.19 -3.31144 -5.92892 0
M  V30 10032 H 936.136 -1.13157 -6.46167 0
M  V30 10033 H 936.053 -2.76454 -7.0364 0
M  V30 10034 H 937.321 -1.71907 -7.60308 0
M  V30 10035 N 941.55 1.18024 -1.04442 0
M  V30 10036 C 942.961 1.69749 -0.777312 0
M  V30 10037 C 943.312 1.83234 0.701399 0
M  V30 10038 O 942.437 1.51452 1.54568 0
M  V30 10039 C 943.032 3.08321 -1.40441 0
M  V30 10040 C 941.591 3.57243 -1.18553 0
M  V30 10041 C 940.738 2.33695 -1.49271 0
M  V30 10042 H 943.689 1.02647 -1.21035 0
M  V30 10043 H 943.71 3.71787 -0.809628 0
M  V30 10044 H 943.222 2.98474 -2.48062 0
M  V30 10045 H 941.323 3.72379 -0.128221 0
M  V30 10046 H 941.436 4.40451 -1.88519 0
M  V30 10047 H 939.8 2.37792 -0.912526 0
M  V30 10048 H 940.583 2.26464 -2.5801 0
M  V30 10049 N 943.028 0.824394 1.34319 0
M  V30 10050 C 944.256 0.426194 2.02463 0
M  V30 10051 C 944.671 -0.968298 1.62078 0
M  V30 10052 O 944.028 -1.62689 0.82696 0
M  V30 10053 C 944.079 0.520465 3.57734 0
M  V30 10054 O 943.8 1.86 3.96656 0
M  V30 10055 C 945.301 0.117353 4.43145 0
M  V30 10056 H 942.521 0.170864 0.648881 0
M  V30 10057 H 945.065 1.11296 1.71562 0
M  V30 10058 H 943.22 -0.118233 3.8722 0
M  V30 10059 H 943.634 1.83528 4.91343 0
M  V30 10060 H 945.108 0.234395 5.51502 0
M  V30 10061 H 945.585 -0.939271 4.29039 0
M  V30 10062 H 946.191 0.729908 4.1899 0
M  V30 10063 N 944.506 -1.46559 0.579492 0
M  V30 10064 C 945.734 -2.06784 0.0693648 0
M  V30 10065 C 946.149 -1.42875 -1.23419 0
M  V30 10066 O 945.506 -0.532919 -1.74546 0
M  V30 10067 C 945.557 -3.61343 -0.106511 0
M  V30 10068 O 945.278 -4.22861 1.14545 0
M  V30 10069 C 946.779 -4.38489 -0.651359 0
M  V30 10070 H 943.999 -0.66866 0.0559848 0
M  V30 10071 H 946.543 -1.88235 0.799245 0
M  V30 10072 H 944.698 -3.7933 -0.786601 0
M  V30 10073 H 945.112 -5.15691 0.95723 0
M  V30 10074 H 946.586 -5.47237 -0.723615 0
M  V30 10075 H 947.063 -4.06309 -1.66763 0
M  V30 10076 H 947.669 -4.253 -0.0062433 0
M  V30 10077 N 945.984 -0.3171 -1.54377 0
M  V30 10078 C 947.212 0.289558 -2.04864 0
M  V30 10079 C 947.627 1.46284 -1.19359 0
M  V30 10080 O 946.984 1.81135 -0.222795 0
M  V30 10081 C 947.035 0.730273 -3.54047 0
M  V30 10082 O 946.756 -0.396325 -4.36304 0
M  V30 10083 C 948.257 1.40041 -4.20599 0
M  V30 10084 H 945.477 0.0605836 -0.668259 0
M  V30 10085 H 948.021 -0.461411 -1.99227 0
M  V30 10086 H 946.176 1.43123 -3.59992 0
M  V30 10087 H 946.59 -0.0502901 -5.24476 0
M  V30 10088 H 948.064 1.65979 -5.26455 0
M  V30 10089 H 948.541 2.34565 -3.71316 0
M  V30 10090 H 949.147 0.742206 -4.18774 0
M  V30 10091 N 947.462 1.57535 -0.0451378 0
M  V30 10092 C 948.873 1.80116 0.491426 0
M  V30 10093 C 949.224 0.956846 1.71286 0
M  V30 10094 O 948.349 0.17173 2.15718 0
M  V30 10095 C 948.944 3.26674 0.898315 0
M  V30 10096 C 947.503 3.50194 1.37989 0
M  V30 10097 C 946.65 2.75054 0.352202 0
M  V30 10098 H 949.601 1.56368 -0.271065 0
M  V30 10099 H 949.622 3.37263 1.76164 0
M  V30 10100 H 949.134 3.88099 0.009141 0
M  V30 10101 H 947.235 2.94041 2.28846 0
M  V30 10102 H 947.348 4.58909 1.37622 0
M  V30 10103 H 945.712 2.4101 0.823784 0
M  V30 10104 H 946.495 3.39203 -0.528782 0
M  V30 10105 N 948.94 -0.228186 1.55939 0
M  V30 10106 C 949.85 -1.30386 1.9503 0
M  V30 10107 C 950.866 -1.51645 0.853218 0
M  V30 10108 O 952.042 -1.64904 1.15623 0
M  V30 10109 C 949.107 -2.63489 2.25332 0
M  V30 10110 C 948.168 -2.5059 3.48573 0
M  V30 10111 C 947.401 -3.77345 3.7742 0
M  V30 10112 O 947.624 -4.80067 3.08045 0
M  V30 10113 O 946.558 -3.74855 4.70922 0
M  V30 10114 H 950.384 -1.0022 2.86687 0
M  V30 10115 H 947.969 -0.430503 1.43063 0
M  V30 10116 H 949.851 -3.4211 2.46046 0
M  V30 10117 H 948.526 -2.93349 1.3685 0
M  V30 10118 H 947.433 -1.70191 3.33145 0
M  V30 10119 H 948.766 -2.2567 4.37417 0
M  V30 10120 N 950.418 -1.49637 -0.494624 0
M  V30 10121 C 951.829 -1.52573 -1.07603 0
M  V30 10122 C 952.18 -0.315591 -1.93645 0
M  V30 10123 O 951.305 0.573966 -2.08649 0
M  V30 10124 C 951.9 -2.7648 -1.95817 0
M  V30 10125 C 950.459 -2.82173 -2.49109 0
M  V30 10126 C 949.606 -2.4657 -1.2688 0
M  V30 10127 H 952.557 -1.56242 -0.278251 0
M  V30 10128 H 952.578 -2.57003 -2.80588 0
M  V30 10129 H 952.09 -3.64538 -1.33167 0
M  V30 10130 H 950.191 -1.9841 -3.15379 0
M  V30 10131 H 950.304 -3.84501 -2.85825 0
M  V30 10132 H 948.668 -1.98489 -1.59607 0
M  V30 10133 H 949.451 -3.3691 -0.659281 0
M  V30 10134 N 951.896 0.746133 -1.38819 0
M  V30 10135 C 952.843 1.86001 -1.36647 0
M  V30 10136 C 953.813 1.6453 -0.227849 0
M  V30 10137 O 954.998 1.86092 -0.421241 0
M  V30 10138 C 952.138 3.23388 -1.20474 0
M  V30 10139 C 951.251 3.5664 -2.43786 0
M  V30 10140 C 950.386 4.8337 -2.20287 0
M  V30 10141 C 949.425 5.09431 -3.39332 0
M  V30 10142 N 948.562 6.2736 -3.1522 0
M  V30 10143 H 953.402 1.87192 -2.31869 0
M  V30 10144 H 950.939 0.914838 -1.15192 0
M  V30 10145 H 952.897 4.02679 -1.09112 0
M  V30 10146 H 951.527 3.21505 -0.288874 0
M  V30 10147 H 950.579 2.72135 -2.65794 0
M  V30 10148 H 951.891 3.71823 -3.3249 0
M  V30 10149 H 951.045 5.70619 -2.06103 0
M  V30 10150 H 949.784 4.70341 -1.28961 0
M  V30 10151 H 948.789 4.20648 -3.54027 0
M  V30 10152 H 950.014 5.24354 -4.31544 0
M  V30 10153 H 947.96 6.15639 -2.26549 0
M  V30 10154 H 947.877 6.43078 -3.97476 0
M  V30 10155 H 949.145 7.17477 -3.04707 0
M  V30 10156 N 953.375 1.23811 0.975125 0
M  V30 10157 C 954.615 1.08517 1.73215 0
M  V30 10158 C 954.979 -0.370777 1.88386 0
M  V30 10159 O 956.18 -0.645036 2.60946 0
M  V30 10160 C 954.451 1.79649 3.08968 0
M  V30 10161 S 956.01 1.79993 4.00185 0
M  V30 10162 H 952.828 0.388256 0.595633 0
M  V30 10163 H 955.43 1.57028 1.16458 0
M  V30 10164 H 954.134 2.8471 2.95581 0
M  V30 10165 H 953.665 1.31441 3.70792 0
M  V30 10166 H 955.68 0.862294 4.8865 0
M  V30 10167 N 954.853 -1.17469 1.05066 0
M  V30 10168 C 956.264 -1.69334 0.786304 0
M  V30 10169 C 956.615 -1.83604 -0.691671 0
M  V30 10170 O 955.74 -1.52269 -1.53763 0
M  V30 10171 C 956.335 -3.07572 1.42074 0
M  V30 10172 C 954.894 -3.56609 1.20446 0
M  V30 10173 C 954.041 -2.329 1.50508 0
M  V30 10174 H 956.992 -1.02003 1.21577 0
M  V30 10175 H 957.013 -3.71352 0.829334 0
M  V30 10176 H 956.525 -2.97154 2.49642 0
M  V30 10177 H 954.626 -3.72306 0.147968 0
M  V30 10178 H 954.739 -4.39446 1.90852 0
M  V30 10179 H 953.103 -2.37305 0.925124 0
M  V30 10180 H 953.886 -2.25093 2.59207 0
M  V30 10181 N 956.331 -0.831506 -1.3388 0
M  V30 10182 C 957.241 -0.261688 -2.33136 0
M  V30 10183 C 958.257 0.608429 -1.63016 0
M  V30 10184 O 959.433 0.514297 -1.94723 0
M  V30 10185 C 956.498 0.559957 -3.42148 0
M  V30 10186 C 955.559 -0.333569 -4.28002 0
M  V30 10187 C 954.792 0.448956 -5.31808 0
M  V30 10188 O 955.015 1.6814 -5.45055 0
M  V30 10189 O 953.949 -0.173197 -6.01651 0
M  V30 10190 H 957.775 -1.08343 -2.83717 0
M  V30 10191 H 955.36 -0.593849 -1.3709 0
M  V30 10192 H 957.242 1.02712 -4.08691 0
M  V30 10193 H 955.917 1.35888 -2.93796 0
M  V30 10194 H 954.824 -0.848416 -3.64352 0
M  V30 10195 H 956.157 -1.09707 -4.79818 0
M  V30 10196 N 957.809 1.4625 -0.587256 0
M  V30 10197 C 959.086 1.95599 -0.00750181 0
M  V30 10198 C 959.466 1.52989 1.45457 0
M  V30 10199 O 958.814 0.782731 2.14676 0
M  V30 10200 C 959.024 3.48513 -0.184309 0
M  V30 10201 C 960.372 4.24565 -0.0544972 0
M  V30 10202 O 961.396 3.5602 -0.113378 0
M  V30 10203 O 960.255 5.46445 0.0774075 0
M  V30 10204 H 957.349 0.825649 0.0472495 0
M  V30 10205 H 959.895 1.56512 -0.655893 0
M  V30 10206 H 958.667 3.72428 -1.20053 0
M  V30 10207 H 958.29 3.9444 0.500301 0
M  V30 10208 N 959.287 0.325282 1.54207 0
M  V30 10209 C 960.533 -0.269944 2.01601 0
M  V30 10210 C 960.888 -1.49643 1.20933 0
M  V30 10211 O 960.181 -1.89486 0.283838 0
M  V30 10212 C 960.375 -0.654292 3.5136 0
M  V30 10213 C 960.204 0.533397 4.46525 0
M  V30 10214 C 958.974 1.03304 4.94628 0
M  V30 10215 C 961.172 1.38613 4.95269 0
M  V30 10216 N 959.154 2.18495 5.73701 0
M  V30 10217 C 960.525 2.38519 5.72284 0
M  V30 10218 C 962.58 1.41369 4.77409 0
M  V30 10219 C 961.283 3.40988 6.3334 0
M  V30 10220 C 963.309 2.4271 5.39301 0
M  V30 10221 C 962.671 3.41343 6.16169 0
M  V30 10222 H 958.77 -0.0625778 0.779492 0
M  V30 10223 H 961.354 0.460711 1.89171 0
M  V30 10224 H 959.525 -1.35408 3.64032 0
M  V30 10225 H 961.257 -1.23114 3.85519 0
M  V30 10226 H 958.012 0.604045 4.69732 0
M  V30 10227 H 958.436 2.76605 6.17915 0
M  V30 10228 H 963.078 0.664796 4.17541 0
M  V30 10229 H 960.796 4.16784 6.92327 0
M  V30 10230 H 964.382 2.45647 5.27398 0
M  V30 10231 H 963.262 4.18476 6.6321 0
M  V30 10232 N 960.765 -1.57509 0.0534917 0
M  V30 10233 C 962.013 -1.92402 -0.618548 0
M  V30 10234 C 962.334 -0.93273 -1.71246 0
M  V30 10235 O 961.604 0.0220495 -1.95888 0
M  V30 10236 H 960.184 -0.710233 -0.23147 0
M  V30 10237 H 962.846 -1.94606 0.10704 0
M  V30 10238 H 961.942 -2.93704 -1.05566 0
M  V30 10239 N 962.243 0.219913 -1.56058 0
M  V30 10240 C 963.206 1.25606 -1.91718 0
M  V30 10241 C 964.206 1.39721 -0.795912 0
M  V30 10242 O 965.396 1.37958 -1.06364 0
M  V30 10243 C 962.528 2.62961 -2.16943 0
M  V30 10244 H 963.721 0.951909 -2.84392 0
M  V30 10245 H 961.274 0.460398 -1.49365 0
M  V30 10246 H 962.009 2.98472 -1.26826 0
M  V30 10247 H 961.794 2.54093 -2.98629 0
M  V30 10248 H 963.284 3.37727 -2.45622 0
M  V30 10249 N 963.721 1.49897 0.486681 0
M  V30 10250 C 964.946 1.64106 1.26823 0
M  V30 10251 C 965.371 0.317967 1.85393 0
M  V30 10252 O 964.729 -0.71626 1.66551 0
M  V30 10253 C 964.777 2.72301 2.36399 0
M  V30 10254 O 963.881 2.32469 3.40634 0
M  V30 10255 H 963.222 0.548794 0.373793 0
M  V30 10256 H 965.752 1.96177 0.581017 0
M  V30 10257 H 965.762 2.94906 2.81948 0
M  V30 10258 H 964.437 3.68335 1.93137 0
M  V30 10259 H 963.014 2.20251 3.00905 0
M  V30 10260 N 965.199 -0.738761 1.39212 0
M  V30 10261 C 966.424 -1.5331 1.39681 0
M  V30 10262 C 966.849 -1.88098 -0.00768715 0
M  V30 10263 O 966.207 -1.51642 -0.993699 0
M  V30 10264 C 966.255 -2.79958 2.27279 0
M  V30 10265 O 965.359 -3.75727 1.70008 0
M  V30 10266 H 964.7 -0.463131 0.475821 0
M  V30 10267 H 967.23 -0.911768 1.83161 0
M  V30 10268 H 967.24 -3.28732 2.41659 0
M  V30 10269 H 965.915 -2.5397 3.29351 0
M  V30 10270 H 964.492 -3.34483 1.64851 0
M  V30 10271 N 966.677 -1.24326 -0.968545 0
M  V30 10272 C 968.093 -1.00847 -1.23701 0
M  V30 10273 C 968.293 0.283235 -1.99499 0
M  V30 10274 O 967.349 0.999607 -2.31871 0
M  V30 10275 C 968.662 -2.22295 -2.02498 0
M  V30 10276 C 970.21 -2.26911 -2.15593 0
M  V30 10277 C 970.685 -3.47978 -2.97784 0
M  V30 10278 N 972.176 -3.48289 -3.05367 0
M  V30 10279 C 972.911 -4.38625 -3.69318 0
M  V30 10280 N 972.407 -5.39213 -4.34995 0
M  V30 10281 N 974.2 -4.26339 -3.66322 0
M  V30 10282 H 966.351 -2.07335 -0.461087 0
M  V30 10283 H 968.614 -0.909805 -0.26638 0
M  V30 10284 H 968.32 -3.161 -1.54188 0
M  V30 10285 H 968.194 -2.24344 -3.03232 0
M  V30 10286 H 970.581 -1.33639 -2.63106 0
M  V30 10287 H 970.662 -2.28888 -1.14209 0
M  V30 10288 H 970.306 -4.41564 -2.50965 0
M  V30 10289 H 970.236 -3.43244 -3.99364 0
M  V30 10290 H 972.727 -2.75517 -2.58648 0
M  V30 10291 H 973.04 -6.04378 -4.81608 0
M  V30 10292 H 971.385 -5.43101 -4.33667 0
M  V30 10293 H 974.576 -3.46991 -3.14189 0
M  V30 10294 H 974.749 -4.9694 -4.15878 0
M  V30 10295 N 968.156 1.1691 -1.05688 0
M  V30 10296 C 969.384 1.91204 -0.790485 0
M  V30 10297 C 969.799 1.77095 0.654434 0
M  V30 10298 O 969.156 1.11146 1.44751 0
M  V30 10299 C 969.207 3.42108 -1.16808 0
M  V30 10300 O 968.928 3.55788 -2.55629 0
M  V30 10301 C 970.429 4.33466 -0.92855 0
M  V30 10302 H 967.649 0.606508 -0.287035 0
M  V30 10303 H 970.193 1.48225 -1.40888 0
M  V30 10304 H 968.348 3.82814 -0.59434 0
M  V30 10305 H 968.762 4.49321 -2.70575 0
M  V30 10306 H 970.236 5.37836 -1.24245 0
M  V30 10307 H 970.713 4.38989 0.136016 0
M  V30 10308 H 971.319 3.98481 -1.48638 0
M  V30 10309 N 969.634 0.838594 1.33437 0
M  V30 10310 C 970.859 0.446701 2.02532 0
M  V30 10311 C 971.284 -0.944275 1.62681 0
M  V30 10312 O 970.642 -1.61733 0.81927 0
M  V30 10313 C 970.69 0.574794 3.55989 0
M  V30 10314 O 969.794 -0.399063 4.10465 0
M  V30 10315 H 969.135 0.181637 0.638674 0
M  V30 10316 H 971.665 1.13335 1.70342 0
M  V30 10317 H 971.675 0.456339 4.0544 0
M  V30 10318 H 970.35 1.58921 3.8434 0
M  V30 10319 H 968.927 -0.238187 3.72139 0
M  V30 10320 N 971.112 -1.45937 0.595003 0
M  V30 10321 C 972.042 -2.33198 -0.11871 0
M  V30 10322 C 973.023 -1.46083 -0.871423 0
M  V30 10323 O 974.208 -1.74879 -0.844461 0
M  V30 10324 C 971.338 -3.28576 -1.12495 0
M  V30 10325 C 970.292 -4.25229 -0.486275 0
M  V30 10326 C 969.618 -5.10204 -1.59986 0
M  V30 10327 C 970.918 -5.19019 0.584473 0
M  V30 10328 H 972.612 -2.93122 0.609886 0
M  V30 10329 H 970.158 -1.40951 0.294742 0
M  V30 10330 H 972.111 -3.88485 -1.6327 0
M  V30 10331 H 970.835 -2.66784 -1.88398 0
M  V30 10332 H 969.494 -3.666 0.000507962 0
M  V30 10333 H 969.142 -4.44789 -2.34886 0
M  V30 10334 H 968.842 -5.75669 -1.1781 0
M  V30 10335 H 970.366 -5.7298 -2.11014 0
M  V30 10336 H 971.78 -5.73073 0.161297 0
M  V30 10337 H 970.177 -5.92893 0.927256 0
M  V30 10338 H 971.247 -4.62208 1.46601 0
M  V30 10339 N 972.59 -0.333456 -1.54032 0
M  V30 10340 C 973.83 0.266604 -2.02654 0
M  V30 10341 C 974.194 1.48568 -1.21621 0
M  V30 10342 O 975.395 2.15925 -1.60093 0
M  V30 10343 C 973.666 0.582825 -3.52616 0
M  V30 10344 S 975.225 1.16113 -4.23159 0
M  V30 10345 H 972.043 0.0800344 -0.706481 0
M  V30 10346 H 974.645 -0.468876 -1.89794 0
M  V30 10347 H 973.349 -0.312401 -4.09209 0
M  V30 10348 H 972.88 1.34824 -3.69576 0
M  V30 10349 H 974.895 2.44743 -4.31642 0
M  V30 10350 N 974.068 1.57479 -0.061844 0
M  V30 10351 C 975.315 1.93108 0.60954 0
M  V30 10352 C 975.643 0.941086 1.70217 0
M  V30 10353 O 974.898 -0.044914 1.95648 0
M  V30 10354 C 975.197 3.35394 1.23474 0
M  V30 10355 C 974.863 4.50095 0.269247 0
M  V30 10356 C 973.525 4.812 0.00360316 0
M  V30 10357 C 975.877 5.19725 -0.391839 0
M  V30 10358 C 973.205 5.79276 -0.930383 0
M  V30 10359 C 975.557 6.18801 -1.31408 0
M  V30 10360 C 974.221 6.48328 -1.58829 0
M  V30 10361 H 973.491 0.706634 0.223046 0
M  V30 10362 H 976.138 1.91054 -0.1306 0
M  V30 10363 H 974.443 3.33866 2.05039 0
M  V30 10364 H 976.14 3.60247 1.76134 0
M  V30 10365 H 972.73 4.2583 0.486477 0
M  V30 10366 H 976.914 4.95898 -0.199713 0
M  V30 10367 H 972.17 6.00484 -1.15019 0
M  V30 10368 H 976.344 6.71862 -1.83234 0
M  V30 10369 H 973.971 7.24137 -2.31363 0
M  V30 10370 N 975.546 -0.211634 1.56173 0
M  V30 10371 C 976.493 -1.26231 1.93221 0
M  V30 10372 C 977.463 -1.46076 0.790641 0
M  V30 10373 O 978.648 -1.59482 1.04739 0
M  V30 10374 C 975.788 -2.60559 2.26281 0
M  V30 10375 C 974.901 -2.48431 3.5342 0
M  V30 10376 C 974.036 -3.7535 3.7588 0
M  V30 10377 C 973.075 -3.57985 4.96501 0
M  V30 10378 N 972.212 -4.76877 5.15299 0
M  V30 10379 H 977.052 -0.939367 2.82807 0
M  V30 10380 H 974.589 -0.452511 1.39967 0
M  V30 10381 H 976.547 -3.38796 2.43461 0
M  V30 10382 H 975.177 -2.9093 1.39855 0
M  V30 10383 H 974.229 -1.61577 3.44379 0
M  V30 10384 H 975.541 -2.31526 4.41811 0
M  V30 10385 H 974.695 -4.62029 3.9321 0
M  V30 10386 H 973.434 -3.95191 2.85788 0
M  V30 10387 H 972.439 -2.69691 4.79111 0
M  V30 10388 H 973.664 -3.39605 5.88086 0
M  V30 10389 H 971.61 -4.97013 4.28152 0
M  V30 10390 H 971.527 -4.62735 5.9784 0
M  V30 10391 H 972.795 -5.64954 5.37073 0
M  V30 10392 N 977.024 -1.50153 -0.478725 0
M  V30 10393 C 977.954 -1.71384 -1.58587 0
M  V30 10394 C 978.935 -0.562705 -1.60523 0
M  V30 10395 O 980.12 -0.80101 -1.76911 0
M  V30 10396 C 977.25 -1.80094 -2.96957 0
M  V30 10397 C 976.204 -2.95218 -3.09888 0
M  V30 10398 C 975.53 -2.89063 -4.49829 0
M  V30 10399 C 976.83 -4.35841 -2.8782 0
M  V30 10400 H 978.524 -2.64081 -1.41073 0
M  V30 10401 H 976.07 -1.27081 -0.677239 0
M  V30 10402 H 978.023 -1.93531 -3.74331 0
M  V30 10403 H 976.747 -0.840131 -3.1561 0
M  V30 10404 H 975.406 -2.81419 -2.34944 0
M  V30 10405 H 975.054 -1.90844 -4.6539 0
M  V30 10406 H 974.754 -3.66345 -4.59418 0
M  V30 10407 H 976.278 -3.04539 -5.29234 0
M  V30 10408 H 977.692 -4.50205 -3.54948 0
M  V30 10409 H 976.089 -5.14515 -3.0886 0
M  V30 10410 H 977.159 -4.48739 -1.83742 0
M  V30 10411 N 978.502 0.731368 -1.39602 0
M  V30 10412 C 979.732 1.51839 -1.40102 0
M  V30 10413 C 980.14 1.89199 0.00526634 0
M  V30 10414 O 979.483 1.54877 0.987874 0
M  V30 10415 C 979.545 2.83292 -2.21328 0
M  V30 10416 C 979.209 2.68345 -3.69919 0
M  V30 10417 C 980.206 2.36651 -4.62917 0
M  V30 10418 C 977.891 2.85102 -4.13548 0
M  V30 10419 C 979.885 2.21901 -5.97527 0
M  V30 10420 C 977.572 2.69971 -5.48233 0
M  V30 10421 C 978.57 2.38416 -6.40037 0
M  V30 10422 O 978.258 2.23383 -7.72241 0
M  V30 10423 H 977.99 0.475695 -0.480302 0
M  V30 10424 H 980.544 0.911096 -1.84087 0
M  V30 10425 H 978.774 3.46294 -1.72096 0
M  V30 10426 H 980.463 3.44928 -2.13961 0
M  V30 10427 H 981.229 2.23352 -4.3051 0
M  V30 10428 H 977.108 3.08655 -3.42423 0
M  V30 10429 H 980.652 1.97193 -6.69149 0
M  V30 10430 H 976.549 2.82849 -5.8023 0
M  V30 10431 H 977.317 2.38425 -7.83004 0
M  V30 10432 N 979.98 1.24838 0.961938 0
M  V30 10433 C 980.943 1.04674 2.03902 0
M  V30 10434 C 981.943 0.00204674 1.608 0
M  V30 10435 O 983.133 0.243555 1.72489 0
M  V30 10436 C 980.265 0.587736 3.35795 0
M  V30 10437 H 981.458 2.00278 2.23223 0
M  V30 10438 H 979.011 1.07142 1.138 0
M  V30 10439 H 979.746 -0.371244 3.22168 0
M  V30 10440 H 979.531 1.34182 3.68426 0
M  V30 10441 H 981.021 0.467867 4.14971 0
M  V30 10442 N 981.458 -1.16348 1.06306 0
M  V30 10443 C 982.405 -2.20741 0.673962 0
M  V30 10444 C 983.375 -1.628 -0.329454 0
M  V30 10445 O 984.56 -1.89547 -0.218313 0
M  V30 10446 C 981.7 -3.45036 0.0667008 0
M  V30 10447 C 980.813 -4.17221 1.12031 0
M  V30 10448 C 979.948 -5.29034 0.479176 0
M  V30 10449 C 978.987 -5.93021 1.51631 0
M  V30 10450 N 978.124 -6.96327 0.898528 0
M  V30 10451 H 982.964 -2.53376 1.56859 0
M  V30 10452 H 980.501 -1.24449 0.784276 0
M  V30 10453 H 982.459 -4.16099 -0.302916 0
M  V30 10454 H 981.089 -3.1295 -0.791333 0
M  V30 10455 H 980.141 -3.4476 1.60763 0
M  V30 10456 H 981.453 -4.60902 1.90712 0
M  V30 10457 H 980.607 -6.06674 0.0565993 0
M  V30 10458 H 979.346 -4.86517 -0.33951 0
M  V30 10459 H 978.351 -5.14104 1.94878 0
M  V30 10460 H 979.576 -6.37618 2.3371 0
M  V30 10461 H 977.522 -6.55923 0.100555 0
M  V30 10462 H 977.439 -7.38379 1.62272 0
M  V30 10463 H 978.707 -7.77888 0.5011 0
M  V30 10464 N 982.937 -0.845659 -1.3299 0
M  V30 10465 C 984.185 -0.443774 -1.97168 0
M  V30 10466 C 984.506 1.00192 -1.67292 0
M  V30 10467 O 983.776 1.69891 -0.975397 0
M  V30 10468 H 982.356 -0.161111 -0.729419 0
M  V30 10469 H 985.018 -1.08011 -1.62233 0
M  V30 10470 H 984.114 -0.581414 -3.06637 0
M  V30 10471 N 984.415 1.45619 -0.602734 0
M  V30 10472 C 985.362 2.30493 0.118944 0
M  V30 10473 C 986.332 1.41816 0.864723 0
M  V30 10474 O 987.517 1.7075 0.851424 0
M  V30 10475 C 984.657 3.2664 1.11356 0
M  V30 10476 C 983.77 4.3042 0.369161 0
M  V30 10477 C 982.905 5.13678 1.35307 0
M  V30 10478 C 981.944 6.09189 0.596207 0
M  V30 10479 N 981.081 6.85245 1.52916 0
M  V30 10480 H 985.921 2.91672 -0.610836 0
M  V30 10481 H 983.458 1.43731 -0.313032 0
M  V30 10482 H 985.416 3.80846 1.7033 0
M  V30 10483 H 984.046 2.67225 1.81081 0
M  V30 10484 H 983.098 3.78913 -0.335994 0
M  V30 10485 H 984.41 4.98307 -0.221603 0
M  V30 10486 H 983.564 5.7226 2.01502 0
M  V30 10487 H 982.303 4.45798 1.97777 0
M  V30 10488 H 981.308 5.49743 -0.0793984 0
M  V30 10489 H 982.533 6.79096 -0.0233734 0
M  V30 10490 H 980.479 6.20058 2.14159 0
M  V30 10491 H 980.396 7.49467 0.991713 0
M  V30 10492 H 981.664 7.48371 2.18083 0
M  V30 10493 N 985.893 0.34162 1.53853 0
M  V30 10494 C 986.843 -0.531995 2.21707 0
M  V30 10495 C 987.827 -1.06759 1.2038 0
M  V30 10496 O 989.019 -1.00161 1.45934 0
M  V30 10497 C 986.148 -1.6834 2.99193 0
M  V30 10498 C 985.234 -1.16184 4.07875 0
M  V30 10499 N 985.625 -0.361348 5.04508 0
M  V30 10500 C 983.923 -1.43891 4.22151 0
M  V30 10501 C 984.624 -0.0785378 5.81647 0
M  V30 10502 N 983.6 -0.669651 5.3946 0
M  V30 10503 H 987.402 0.0866825 2.93772 0
M  V30 10504 H 984.916 0.148386 1.61721 0
M  V30 10505 H 986.913 -2.32121 3.46303 0
M  V30 10506 H 985.573 -2.30538 2.28653 0
M  V30 10507 H 986.584 -0.00259906 5.179 0
M  V30 10508 H 983.261 -2.06542 3.62832 0
M  V30 10509 H 984.651 0.567068 6.69503 0
M  V30 10510 N 987.371 -1.57444 0.0701946 0
M  V30 10511 C 988.281 -2.16132 -0.912377 0
M  V30 10512 C 989.297 -1.12406 -1.32819 0
M  V30 10513 O 990.473 -1.44665 -1.40121 0
M  V30 10514 C 987.538 -2.71008 -2.16231 0
M  V30 10515 C 986.599 -3.896 -1.80306 0
M  V30 10516 C 985.832 -4.4185 -2.9934 0
M  V30 10517 O 986.055 -3.93106 -4.13309 0
M  V30 10518 O 984.989 -5.33201 -2.7925 0
M  V30 10519 H 988.815 -3.00449 -0.443167 0
M  V30 10520 H 986.4 -1.48617 -0.152786 0
M  V30 10521 H 988.282 -3.06186 -2.8953 0
M  V30 10522 H 986.957 -1.8975 -2.62253 0
M  V30 10523 H 985.864 -3.59277 -1.04264 0
M  V30 10524 H 987.197 -4.72145 -1.39068 0
M  V30 10525 N 988.849 0.203349 -1.56283 0
M  V30 10526 C 989.796 1.25205 -1.93888 0
M  V30 10527 C 990.766 1.45654 -0.798376 0
M  V30 10528 O 991.951 1.58924 -1.05583 0
M  V30 10529 C 989.091 2.59355 -2.27659 0
M  V30 10530 C 988.204 2.46553 -3.54733 0
M  V30 10531 C 987.339 3.73351 -3.77865 0
M  V30 10532 C 986.378 3.55347 -4.98392 0
M  V30 10533 N 985.515 4.74137 -5.17821 0
M  V30 10534 H 990.355 0.924356 -2.83301 0
M  V30 10535 H 987.892 0.445082 -1.40205 0
M  V30 10536 H 989.85 3.375 -2.45254 0
M  V30 10537 H 988.48 2.90184 -1.41396 0
M  V30 10538 H 987.532 1.59749 -3.45231 0
M  V30 10539 H 988.844 2.2918 -4.43033 0
M  V30 10540 H 987.998 4.59937 -3.95655 0
M  V30 10541 H 986.737 3.9367 -2.8788 0
M  V30 10542 H 985.742 2.67146 -4.80534 0
M  V30 10543 H 986.967 3.36482 -5.89879 0
M  V30 10544 H 984.913 4.94735 -4.30782 0
M  V30 10545 H 984.83 4.59558 -6.00285 0
M  V30 10546 H 986.098 5.62098 -5.40061 0
M  V30 10547 N 990.327 1.50405 0.470755 0
M  V30 10548 C 991.274 1.69293 1.56871 0
M  V30 10549 C 992.244 0.534248 1.57274 0
M  V30 10550 O 993.429 0.764855 1.74799 0
M  V30 10551 C 990.569 1.79338 2.94842 0
M  V30 10552 C 989.682 3.06709 3.04226 0
M  V30 10553 C 988.817 3.07548 4.33114 0
M  V30 10554 C 987.856 4.29372 4.36241 0
M  V30 10555 N 986.993 4.27949 5.56601 0
M  V30 10556 H 991.833 2.63029 1.40071 0
M  V30 10557 H 989.37 1.30386 0.681016 0
M  V30 10558 H 991.328 1.83143 3.74853 0
M  V30 10559 H 989.958 0.890411 3.10277 0
M  V30 10560 H 989.01 3.12374 2.17086 0
M  V30 10561 H 990.322 3.96684 3.02396 0
M  V30 10562 H 989.476 3.10084 5.21472 0
M  V30 10563 H 988.215 2.15404 4.37553 0
M  V30 10564 H 987.22 4.27048 3.4628 0
M  V30 10565 H 988.445 5.22743 4.33493 0
M  V30 10566 H 986.391 3.38658 5.61824 0
M  V30 10567 H 986.308 5.11692 5.56513 0
M  V30 10568 H 987.576 4.34631 6.47083 0
M  V30 10569 N 991.805 -0.723954 1.39988 0
M  V30 10570 C 993.033 -1.51313 1.4111 0
M  V30 10571 C 993.448 -1.88798 0.00853333 0
M  V30 10572 O 992.805 -1.54868 -0.965516 0
M  V30 10573 C 992.856 -2.79375 2.29416 0
M  V30 10574 O 992.577 -2.43478 3.64211 0
M  V30 10575 C 994.078 -3.7333 2.3904 0
M  V30 10576 H 991.298 -0.46724 0.481589 0
M  V30 10577 H 993.842 -0.893694 1.83938 0
M  V30 10578 H 991.997 -3.37624 1.89971 0
M  V30 10579 H 992.411 -3.25821 4.11024 0
M  V30 10580 H 993.885 -4.60051 3.05053 0
M  V30 10581 H 994.362 -4.15854 1.41289 0
M  V30 10582 H 994.968 -3.20996 2.79001 0
M  V30 10583 N 993.283 -1.25346 -0.955304 0
M  V30 10584 C 994.529 -1.11226 -1.70295 0
M  V30 10585 C 994.884 0.343362 -1.89311 0
M  V30 10586 O 994.177 1.24953 -1.45249 0
M  V30 10587 C 994.371 -1.7993 -3.08804 0
M  V30 10588 C 994.2 -3.32023 -3.033 0
M  V30 10589 C 992.97 -4.01274 -3.07094 0
M  V30 10590 C 995.168 -4.28431 -2.84519 0
M  V30 10591 N 993.15 -5.40149 -2.91741 0
M  V30 10592 C 994.521 -5.54386 -2.7759 0
M  V30 10593 C 996.576 -4.18854 -2.69194 0
M  V30 10594 C 995.279 -6.71859 -2.56902 0
M  V30 10595 C 997.305 -5.36018 -2.49876 0
M  V30 10596 C 996.667 -6.60913 -2.43667 0
M  V30 10597 H 992.766 -0.461707 -0.631151 0
M  V30 10598 H 995.35 -1.58437 -1.13162 0
M  V30 10599 H 993.521 -1.35214 -3.64104 0
M  V30 10600 H 995.253 -1.58557 -3.72346 0
M  V30 10601 H 992.008 -3.52529 -3.1626 0
M  V30 10602 H 992.432 -6.13029 -2.8727 0
M  V30 10603 H 997.074 -3.23043 -2.7277 0
M  V30 10604 H 994.792 -7.67781 -2.52068 0
M  V30 10605 H 998.378 -5.30468 -2.38944 0
M  V30 10606 H 997.258 -7.50045 -2.28914 0
M  V30 10607 N 994.761 1.15782 -1.06922 0
M  V30 10608 C 996.008 1.86465 -0.789752 0
M  V30 10609 C 996.336 1.82075 0.684022 0
M  V30 10610 O 995.591 1.23576 1.51748 0
M  V30 10611 C 995.89 3.35284 -1.2377 0
M  V30 10612 C 995.556 3.59871 -2.71668 0
M  V30 10613 C 994.218 3.6629 -3.12066 0
M  V30 10614 C 996.57 3.69929 -3.67154 0
M  V30 10615 C 993.898 3.80275 -4.46775 0
M  V30 10616 C 996.25 3.85436 -5.01619 0
M  V30 10617 C 994.914 3.901 -5.41644 0
M  V30 10618 H 994.184 0.682324 -0.288991 0
M  V30 10619 H 996.831 1.36861 -1.33945 0
M  V30 10620 H 995.136 3.87065 -0.607309 0
M  V30 10621 H 996.833 3.88371 -0.998431 0
M  V30 10622 H 993.423 3.55512 -2.39393 0
M  V30 10623 H 997.607 3.64274 -3.37073 0
M  V30 10624 H 992.863 3.8214 -4.77262 0
M  V30 10625 H 997.037 3.92161 -5.75485 0
M  V30 10626 H 994.664 4.00688 -6.46029 0
M  V30 10627 N 996.239 0.8527 1.3254 0
M  V30 10628 C 997.149 0.298744 2.3269 0
M  V30 10629 C 998.165 -0.582418 1.63963 0
M  V30 10630 O 999.341 -0.483253 1.95516 0
M  V30 10631 C 996.406 -0.505453 3.42996 0
M  V30 10632 C 995.467 0.401618 4.27417 0
M  V30 10633 C 994.7 -0.364294 5.32455 0
M  V30 10634 O 994.923 -1.59448 5.47661 0
M  V30 10635 O 993.857 0.268892 6.01299 0
M  V30 10636 H 997.683 1.12843 2.81958 0
M  V30 10637 H 995.268 0.615584 1.36128 0
M  V30 10638 H 997.15 -0.961974 4.10273 0
M  V30 10639 H 995.825 -1.31197 2.95921 0
M  V30 10640 H 994.732 0.906274 3.62957 0
M  V30 10641 H 996.065 1.17327 4.78012 0
M  V30 10642 N 997.718 -1.45297 0.610449 0
M  V30 10643 C 998.943 -2.07101 0.111414 0
M  V30 10644 C 999.368 -1.45161 -1.19625 0
M  V30 10645 O 998.726 -0.545368 -1.72903 0
M  V30 10646 C 998.774 -3.60598 -0.0117372 0
M  V30 10647 O 997.878 -3.98512 -1.06122 0
M  V30 10648 H 997.219 -0.659709 0.075364 0
M  V30 10649 H 999.749 -1.86504 0.841269 0
M  V30 10650 H 999.759 -4.07464 -0.209028 0
M  V30 10651 H 998.434 -4.05067 0.943076 0
M  V30 10652 H 997.011 -3.63312 -0.840158 0
M  V30 10653 N 999.196 -0.349774 -1.5367 0
M  V30 10654 C 1000.61 0.00191293 -1.596 0
M  V30 10655 C 1000.81 1.48175 -1.36552 0
M  V30 10656 O 999.868 2.24129 -1.16285 0
M  V30 10657 C 1001.18 -0.439848 -2.97466 0
M  V30 10658 C 1002.73 -0.392721 -3.10526 0
M  V30 10659 C 1003.2 -0.810047 -4.5078 0
M  V30 10660 N 1004.69 -0.764478 -4.56848 0
M  V30 10661 C 1005.43 -1.05927 -5.63531 0
M  V30 10662 N 1004.93 -1.42253 -6.78038 0
M  V30 10663 N 1006.72 -0.983098 -5.53436 0
M  V30 10664 H 998.87 -1.31364 -1.66905 0
M  V30 10665 H 1001.13 -0.535908 -0.781989 0
M  V30 10666 H 1000.84 -1.47189 -3.19419 0
M  V30 10667 H 1000.71 0.181735 -3.76762 0
M  V30 10668 H 1003.1 0.630161 -2.88293 0
M  V30 10669 H 1003.18 -1.04959 -2.33275 0
M  V30 10670 H 1002.82 -1.83097 -4.73749 0
M  V30 10671 H 1002.75 -0.130591 -5.26438 0
M  V30 10672 H 1005.25 -0.496637 -3.74622 0
M  V30 10673 H 1005.56 -1.63215 -7.55368 0
M  V30 10674 H 1003.9 -1.46104 -6.79469 0
M  V30 10675 H 1007.09 -0.698601 -4.62858 0
M  V30 10676 H 1007.27 -1.21618 -6.36485 0
M  V30 10677 N 1000.67 1.57404 -0.0785433 0
M  V30 10678 C 1001.95 1.85163 0.630389 0
M  V30 10679 C 1002.33 0.972295 1.87376 0
M  V30 10680 O 1001.68 0.0403375 2.28464 0
M  V30 10681 C 1001.89 3.35491 0.961604 0
M  V30 10682 C 1003.24 4.0316 1.33219 0
M  V30 10683 O 1004.26 3.40276 1.05313 0
M  V30 10684 O 1003.12 5.14086 1.85412 0
M  V30 10685 H 1000.21 0.765169 0.31376 0
M  V30 10686 H 1002.76 1.69343 -0.109986 0
M  V30 10687 H 1001.53 3.91221 0.0788113 0
M  V30 10688 H 1001.15 3.56598 1.75852 0
M  V30 10689 N 1002.15 -0.195058 1.56388 0
M  V30 10690 C 1003.4 -0.915444 1.80626 0
M  V30 10691 C 1003.73 -1.83255 0.651768 0
M  V30 10692 O 1002.98 -1.92314 -0.362464 0
M  V30 10693 C 1003.28 -1.7637 3.10851 0
M  V30 10694 C 1002.95 -0.997572 4.39726 0
M  V30 10695 C 1001.61 -0.786043 4.74737 0
M  V30 10696 C 1003.96 -0.45851 5.19179 0
M  V30 10697 C 1001.29 -0.023972 5.86695 0
M  V30 10698 C 1003.64 0.29035 6.31933 0
M  V30 10699 C 1002.3 0.512895 6.65527 0
M  V30 10700 H 1001.57 -0.334985 0.660959 0
M  V30 10701 H 1004.22 -0.181815 1.90635 0
M  V30 10702 H 1002.53 -2.566 2.9608 0
M  V30 10703 H 1004.22 -2.3237 3.26811 0
M  V30 10704 H 1000.81 -1.17245 4.12252 0
M  V30 10705 H 1005 -0.609334 4.92545 0
M  V30 10706 H 1000.25 0.158421 6.11195 0
M  V30 10707 H 1004.43 0.715429 6.92715 0
M  V30 10708 H 1002.05 1.10531 7.52122 0
M  V30 10709 N 1003.63 -1.50653 -0.462772 0
M  V30 10710 C 1004.87 -1.637 -1.22399 0
M  V30 10711 C 1005.23 -0.333847 -1.89075 0
M  V30 10712 O 1006.43 -0.339837 -2.66643 0
M  V30 10713 C 1004.71 -2.79018 -2.23347 0
M  V30 10714 S 1006.26 -3.12248 -3.08296 0
M  V30 10715 H 1003.08 -0.576998 -0.415444 0
M  V30 10716 H 1005.68 -1.88468 -0.519631 0
M  V30 10717 H 1004.39 -3.72174 -1.72958 0
M  V30 10718 H 1003.92 -2.56362 -2.98399 0
M  V30 10719 H 1005.93 -2.56716 -4.24631 0
M  V30 10720 N 1005.11 0.71652 -1.4037 0
M  V30 10721 C 1006.52 1.02447 -1.22379 0
M  V30 10722 C 1006.72 2.0126 -0.0983394 0
M  V30 10723 O 1005.78 2.46569 0.544071 0
M  V30 10724 C 1007.09 1.56909 -2.56515 0
M  V30 10725 C 1008.64 1.68898 -2.6352 0
M  V30 10726 C 1009.12 2.26765 -3.97922 0
M  V30 10727 N 1010.61 2.34152 -3.99658 0
M  V30 10728 C 1011.34 2.79907 -5.00439 0
M  V30 10729 N 1010.84 3.25422 -6.11615 0
M  V30 10730 N 1012.63 2.79283 -4.87809 0
M  V30 10731 H 1004.78 0.0615306 -2.12311 0
M  V30 10732 H 1007.05 0.0898994 -0.943728 0
M  V30 10733 H 1006.75 0.917649 -3.39517 0
M  V30 10734 H 1006.63 2.55446 -2.77538 0
M  V30 10735 H 1009.01 2.33159 -1.8089 0
M  V30 10736 H 1009.09 0.689626 -2.46329 0
M  V30 10737 H 1008.74 1.63126 -4.80991 0
M  V30 10738 H 1008.67 3.27413 -4.12442 0
M  V30 10739 H 1011.16 2.02006 -3.19378 0
M  V30 10740 H 1011.47 3.58899 -6.84406 0
M  V30 10741 H 1009.82 3.23383 -6.15181 0
M  V30 10742 H 1013.01 2.43061 -4.00049 0
M  V30 10743 H 1013.18 3.14626 -5.66493 0
M  V30 10744 N 1006.59 1.25851 0.948643 0
M  V30 10745 C 1007.55 1.0683 2.0278 0
M  V30 10746 C 1008.55 0.0191016 1.60789 0
M  V30 10747 O 1009.74 0.261836 1.72221 0
M  V30 10748 C 1006.87 0.623318 3.35153 0
M  V30 10749 H 1008.06 2.02635 2.21086 0
M  V30 10750 H 1005.62 1.08343 1.12657 0
M  V30 10751 H 1006.35 -0.337053 3.22544 0
M  V30 10752 H 1006.14 1.38082 3.66982 0
M  V30 10753 H 1007.63 0.511854 4.14451 0
M  V30 10754 N 1008.06 -1.15214 1.07534 0
M  V30 10755 C 1008.99 -2.2216 0.718837 0
M  V30 10756 C 1009.98 -1.6753 -0.29459 0
M  V30 10757 O 1011.16 -1.93481 -0.166931 0
M  V30 10758 C 1008.29 -3.471 0.117836 0
M  V30 10759 C 1007.24 -4.14701 1.05862 0
M  V30 10760 C 1006.57 -5.3374 0.320284 0
M  V30 10761 C 1007.87 -4.64254 2.39302 0
M  V30 10762 H 1009.56 -2.52237 1.61297 0
M  V30 10763 H 1007.11 -1.21239 0.776992 0
M  V30 10764 H 1009.06 -4.21156 -0.143519 0
M  V30 10765 H 1007.79 -3.16361 -0.811389 0
M  V30 10766 H 1006.45 -3.42589 1.30493 0
M  V30 10767 H 1006.09 -4.99257 -0.61246 0
M  V30 10768 H 1005.79 -5.79912 0.947381 0
M  V30 10769 H 1007.32 -6.10563 0.0667721 0
M  V30 10770 H 1008.73 -5.29827 2.18988 0
M  V30 10771 H 1007.13 -5.21095 2.97623 0
M  V30 10772 H 1008.2 -3.79793 3.01472 0
M  V30 10773 N 1009.54 -0.859717 -1.32086 0
M  V30 10774 C 1010.79 -0.464662 -1.96686 0
M  V30 10775 C 1011.11 0.98412 -1.68345 0
M  V30 10776 O 1010.38 1.68847 -0.993361 0
M  V30 10777 H 1008.96 -0.168838 -0.727669 0
M  V30 10778 H 1011.62 -1.09726 -1.61079 0
M  V30 10779 H 1010.72 -0.613904 -3.06003 0
M  V30 10780 N 1011.02 1.44971 -0.618145 0
M  V30 10781 C 1012.27 2.0176 -0.11725 0
M  V30 10782 C 1012.59 1.48773 1.26062 0
M  V30 10783 O 1011.86 0.686152 1.83491 0
M  V30 10784 H 1010.44 0.745909 -0.0403545 0
M  V30 10785 H 1013.1 1.77638 -0.801923 0
M  V30 10786 H 1012.2 3.1201 -0.0750477 0
M  V30 10787 N 1012.5 0.357919 1.53482 0
M  V30 10788 C 1013.78 -0.290164 1.93436 0
M  V30 10789 C 1014.16 -1.67039 1.29079 0
M  V30 10790 O 1013.5 -2.24085 0.447017 0
M  V30 10791 C 1013.71 -0.348055 3.4726 0
M  V30 10792 C 1015.06 -0.59206 4.20452 0
M  V30 10793 O 1016.09 -0.429581 3.536 0
M  V30 10794 O 1014.94 -0.907855 5.38907 0
M  V30 10795 H 1012.04 -0.172312 0.80885 0
M  V30 10796 H 1014.58 0.410144 1.64669 0
M  V30 10797 H 1013.36 0.619953 3.86358 0
M  V30 10798 H 1012.98 -1.09457 3.82237 0
M  V30 10799 N 1013.98 -1.5736 0.0868897 0
M  V30 10800 C 1014.91 -2.16596 -0.872252 0
M  V30 10801 C 1015.89 -1.09706 -1.29995 0
M  V30 10802 O 1017.07 -1.37808 -1.36831 0
M  V30 10803 C 1014.2 -2.73972 -2.1344 0
M  V30 10804 C 1013.16 -3.86163 -1.8456 0
M  V30 10805 C 1012.48 -4.30206 -3.17533 0
M  V30 10806 C 1013.78 -5.0973 -1.13899 0
M  V30 10807 H 1015.48 -2.96995 -0.378738 0
M  V30 10808 H 1013.02 -1.42861 -0.18073 0
M  V30 10809 H 1014.98 -3.14062 -2.80968 0
M  V30 10810 H 1013.7 -1.90817 -2.6506 0
M  V30 10811 H 1012.36 -3.466 -1.19432 0
M  V30 10812 H 1012.01 -3.43951 -3.67024 0
M  V30 10813 H 1011.71 -5.05841 -2.98996 0
M  V30 10814 H 1013.23 -4.72922 -3.86234 0
M  V30 10815 H 1014.64 -5.4704 -1.71523 0
M  V30 10816 H 1013.04 -5.90741 -1.05569 0
M  V30 10817 H 1014.11 -4.8475 -0.120432 0
M  V30 10818 N 1015.45 0.186762 -1.56489 0
M  V30 10819 C 1016.42 1.21511 -1.94339 0
M  V30 10820 C 1017.42 1.38001 -0.82537 0
M  V30 10821 O 1018.61 1.3567 -1.09266 0
M  V30 10822 C 1015.74 2.583 -2.22472 0
M  V30 10823 H 1016.93 0.891371 -2.86347 0
M  V30 10824 H 1014.49 0.428612 -1.50308 0
M  V30 10825 H 1015.22 2.95715 -1.33129 0
M  V30 10826 H 1015.01 2.47701 -3.03951 0
M  V30 10827 H 1016.5 3.32441 -2.5273 0
M  V30 10828 N 1016.93 1.50896 0.454776 0
M  V30 10829 C 1018.16 1.66759 1.23313 0
M  V30 10830 C 1018.58 0.35722 1.84677 0
M  V30 10831 O 1017.94 -0.680771 1.68033 0
M  V30 10832 C 1017.99 2.77254 2.3057 0
M  V30 10833 O 1017.09 2.39642 3.35627 0
M  V30 10834 H 1016.43 0.556599 0.362068 0
M  V30 10835 H 1018.96 1.97365 0.539274 0
M  V30 10836 H 1018.97 3.0082 2.75629 0
M  V30 10837 H 1017.65 3.72349 1.85281 0
M  V30 10838 H 1016.23 2.26584 2.96165 0
M  V30 10839 N 1018.41 -0.709066 1.40748 0
M  V30 10840 C 1019.66 -1.4646 1.38681 0
M  V30 10841 C 1019.97 -1.95599 -0.0056209 0
M  V30 10842 O 1021.18 -2.71091 -0.148907 0
M  V30 10843 C 1019.63 -2.64771 2.43771 0
M  V30 10844 C 1019.24 -2.22474 3.88856 0
M  V30 10845 C 1020.99 -3.42475 2.50821 0
M  V30 10846 C 1018.89 -3.37663 4.85528 0
M  V30 10847 H 1017.82 -0.550084 0.515678 0
M  V30 10848 H 1020.47 -0.771074 1.66513 0
M  V30 10849 H 1018.86 -3.36325 2.09048 0
M  V30 10850 H 1020.03 -1.58297 4.32757 0
M  V30 10851 H 1018.35 -1.57798 3.85342 0
M  V30 10852 H 1020.94 -4.28201 3.20232 0
M  V30 10853 H 1021.29 -3.86738 1.54076 0
M  V30 10854 H 1021.82 -2.77969 2.84567 0
M  V30 10855 H 1018.56 -2.98426 5.83628 0
M  V30 10856 H 1018.08 -4.00734 4.46287 0
M  V30 10857 H 1019.76 -4.03636 5.05655 0
M  V30 10858 N 1019.89 -1.26353 -0.941956 0
M  V30 10859 C 1020.84 -1.07654 -2.06188 0
M  V30 10860 C 1021.83 -0.00369741 -1.694 0
M  V30 10861 O 1023.04 -0.160316 -1.79285 0
M  V30 10862 H 1019.41 -0.331274 -0.675101 0
M  V30 10863 H 1021.38 -2.02566 -2.19111 0
M  V30 10864 C 1020.13 -0.725436 -3.40048 0
M  V30 10865 H 1019.46 -1.54283 -3.68832 0
M  V30 10866 H 1020.9 -0.634383 -4.19227 0
M  V30 10867 C 1019.35 0.569369 -3.32054 0
M  V30 10868 O 1019.88 1.60791 -3.68116 0
M  V30 10869 N 1018.09 0.559714 -2.85159 0
M  V30 10870 H 1017.64 -0.285817 -2.56009 0
M  V30 10871 H 1017.6 1.42617 -2.80193 0
M  V30 10872 N 1021.37 1.14642 -1.08144 0
M  V30 10873 C 1022.32 2.21708 -0.703448 0
M  V30 10874 C 1023.31 1.66907 0.289535 0
M  V30 10875 O 1024.52 1.79354 0.152387 0
M  V30 10876 H 1020.89 0.722247 -0.209437 0
M  V30 10877 H 1022.86 2.50862 -1.61588 0
M  V30 10878 C 1021.61 3.47472 -0.125975 0
M  V30 10879 H 1020.93 3.89967 -0.881216 0
M  V30 10880 H 1022.37 4.2388 0.100737 0
M  V30 10881 C 1020.83 3.17189 1.13546 0
M  V30 10882 O 1021.36 3.34733 2.22073 0
M  V30 10883 N 1019.57 2.71169 1.04479 0
M  V30 10884 H 1019.12 2.57093 0.161566 0
M  V30 10885 H 1019.07 2.51282 1.88957 0
M  V30 10886 N 1022.85 0.866709 1.31628 0
M  V30 10887 C 1023.79 0.318169 2.28596 0
M  V30 10888 C 1024.76 -0.581558 1.55586 0
M  V30 10889 O 1025.95 -0.513895 1.83749 0
M  V30 10890 C 1023.09 -0.477137 3.41786 0
M  V30 10891 C 1022.2 0.449739 4.29653 0
M  V30 10892 C 1021.34 -0.359373 5.29983 0
M  V30 10893 C 1020.37 0.564138 6.09495 0
M  V30 10894 N 1019.51 -0.208526 7.0179 0
M  V30 10895 H 1024.35 1.15029 2.74904 0
M  V30 10896 H 1021.89 0.578649 1.35241 0
M  V30 10897 H 1023.85 -0.953985 4.06146 0
M  V30 10898 H 1022.48 -1.27398 2.96597 0
M  V30 10899 H 1021.53 1.04502 3.65764 0
M  V30 10900 H 1022.84 1.158 4.85172 0
M  V30 10901 H 1021.99 -0.89887 6.00004 0
M  V30 10902 H 1020.73 -1.10094 4.75111 0
M  V30 10903 H 1019.74 1.11542 5.38366 0
M  V30 10904 H 1020.96 1.30451 6.66453 0
M  V30 10905 H 1018.91 -0.932969 6.49332 0
M  V30 10906 H 1018.83 0.440463 7.54716 0
M  V30 10907 H 1020.09 -0.72936 7.7608 0
M  V30 10908 N 1024.32 -1.44642 0.625825 0
M  V30 10909 C 1025.23 -2.34451 -0.0836134 0
M  V30 10910 C 1026.25 -1.5231 -0.841289 0
M  V30 10911 O 1027.43 -1.85056 -0.794754 0
M  V30 10912 C 1024.49 -3.30211 -1.05648 0
M  V30 10913 C 1023.55 -4.28259 -0.298759 0
M  V30 10914 C 1022.78 -5.19444 -1.22528 0
M  V30 10915 O 1023.01 -5.14444 -2.46382 0
M  V30 10916 O 1021.94 -5.97668 -0.71247 0
M  V30 10917 H 1025.77 -2.96555 0.654912 0
M  V30 10918 H 1023.35 -1.44327 0.386029 0
M  V30 10919 H 1025.23 -3.8917 -1.61632 0
M  V30 10920 H 1023.91 -2.70648 -1.77571 0
M  V30 10921 H 1022.82 -3.72863 0.304001 0
M  V30 10922 H 1024.15 -4.90728 0.380345 0
M  V30 10923 N 1025.8 -0.366053 -1.5329 0
M  V30 10924 C 1026.71 0.488111 -2.29466 0
M  V30 10925 C 1027.73 1.09219 -1.35452 0
M  V30 10926 O 1028.9 1.10303 -1.68509 0
M  V30 10927 C 1025.97 1.61202 -3.06944 0
M  V30 10928 C 1025.03 1.03543 -4.16626 0
M  V30 10929 C 1024.26 2.10578 -4.904 0
M  V30 10930 O 1024.49 3.31697 -4.6404 0
M  V30 10931 O 1023.42 1.73609 -5.76319 0
M  V30 10932 H 1027.25 -0.131789 -3.03414 0
M  V30 10933 H 1024.83 -0.130421 -1.4883 0
M  V30 10934 H 1026.71 2.26546 -3.55324 0
M  V30 10935 H 1025.39 2.21732 -2.35832 0
M  V30 10936 H 1024.29 0.345892 -3.72498 0
M  V30 10937 H 1025.63 0.474687 -4.89906 0
M  V30 10938 N 1027.28 1.57312 -0.0952337 0
M  V30 10939 C 1028.21 2.11059 0.893678 0
M  V30 10940 C 1029.22 1.04787 1.24594 0
M  V30 10941 O 1030.41 1.32233 1.19903 0
M  V30 10942 C 1027.51 2.57552 2.20272 0
M  V30 10943 C 1026.69 3.87661 2.02578 0
M  V30 10944 C 1025.75 4.2 3.16996 0
M  V30 10945 O 1024.77 4.89219 2.90953 0
M  V30 10946 N 1025.97 3.75414 4.42769 0
M  V30 10947 H 1028.74 2.96532 0.434632 0
M  V30 10948 H 1026.3 1.6165 0.0898661 0
M  V30 10949 H 1028.29 2.76232 2.95766 0
M  V30 10950 H 1026.86 1.7709 2.576 0
M  V30 10951 H 1026.08 3.78128 1.11413 0
M  V30 10952 H 1027.37 4.7278 1.88032 0
M  V30 10953 H 1026.77 3.1954 4.66809 0
M  V30 10954 H 1025.32 3.99249 5.15212 0
M  V30 10955 N 1028.76 -0.17846 1.56586 0
M  V30 10956 C 1029.69 -1.24547 1.92408 0
M  V30 10957 C 1030.7 -1.40849 0.816421 0
M  V30 10958 O 1031.89 -1.40979 1.09486 0
M  V30 10959 C 1028.99 -2.61523 2.15544 0
M  V30 10960 C 1028.16 -2.66613 3.46751 0
M  V30 10961 C 1027.22 -3.84901 3.588 0
M  V30 10962 O 1026.25 -3.71231 4.31482 0
M  V30 10963 N 1027.45 -5.0106 2.9312 0
M  V30 10964 H 1030.22 -0.941275 2.84535 0
M  V30 10965 H 1027.78 -0.368275 1.57656 0
M  V30 10966 H 1029.77 -3.3911 2.20876 0
M  V30 10967 H 1028.34 -2.84362 1.29835 0
M  V30 10968 H 1027.56 -1.75174 3.5314 0
M  V30 10969 H 1028.85 -2.67018 4.33104 0
M  V30 10970 H 1028.25 -5.15067 2.33928 0
M  V30 10971 H 1026.8 -5.76535 3.04057 0
M  V30 10972 N 1030.24 -1.51135 -0.446768 0
M  V30 10973 C 1031.46 -1.67129 -1.21965 0
M  V30 10974 C 1031.88 -0.36467 -1.85245 0
M  V30 10975 O 1031.24 0.655908 -1.70306 0
M  V30 10976 C 1031.29 -2.78016 -2.31061 0
M  V30 10977 O 1031.01 -4.03615 -1.70371 0
M  V30 10978 C 1032.51 -3.05197 -3.21511 0
M  V30 10979 H 1029.73 -0.561111 -0.367961 0
M  V30 10980 H 1032.27 -1.97499 -0.530517 0
M  V30 10981 H 1030.43 -2.50272 -2.95707 0
M  V30 10982 H 1030.84 -4.65126 -2.424 0
M  V30 10983 H 1032.32 -3.8639 -3.94216 0
M  V30 10984 H 1032.79 -2.17228 -3.81718 0
M  V30 10985 H 1033.4 -3.34565 -2.62577 0
M  V30 10986 N 1031.71 0.701592 -1.41122 0
M  V30 10987 C 1032.96 1.45722 -1.39456 0
M  V30 10988 C 1033.28 1.95599 -0.00475228 0
M  V30 10989 O 1034.48 2.71166 0.134529 0
M  V30 10990 C 1032.94 2.63475 -2.45172 0
M  V30 10991 C 1032.55 2.20409 -3.90031 0
M  V30 10992 C 1034.29 3.4114 -2.52633 0
M  V30 10993 C 1032.2 3.35084 -4.87312 0
M  V30 10994 H 1031.13 0.547341 -0.518588 0
M  V30 10995 H 1033.78 0.762233 -1.6692 0
M  V30 10996 H 1032.16 3.35212 -2.10829 0
M  V30 10997 H 1033.33 1.56 -4.3359 0
M  V30 10998 H 1031.65 1.55752 -3.86174 0
M  V30 10999 H 1034.25 4.26496 -3.22498 0
M  V30 11000 H 1034.59 3.85915 -1.56125 0
M  V30 11001 H 1035.12 2.76456 -2.86037 0
M  V30 11002 H 1031.86 2.95327 -5.85203 0
M  V30 11003 H 1031.38 3.98362 -4.48406 0
M  V30 11004 H 1033.06 4.00949 -5.07788 0
M  V30 11005 N 1033.19 1.2685 0.935242 0
M  V30 11006 C 1034.44 1.13921 1.68504 0
M  V30 11007 C 1034.79 -0.313201 1.89834 0
M  V30 11008 O 1034.09 -1.22626 1.47219 0
M  V30 11009 C 1034.28 1.8482 3.05903 0
M  V30 11010 C 1034.11 3.36806 2.9798 0
M  V30 11011 C 1032.88 4.06109 3.00672 0
M  V30 11012 C 1035.08 4.32904 2.77667 0
M  V30 11013 N 1033.06 5.44722 2.83111 0
M  V30 11014 C 1034.43 5.58732 2.68735 0
M  V30 11015 C 1036.48 4.23084 2.62496 0
M  V30 11016 C 1035.19 6.75861 2.4618 0
M  V30 11017 C 1037.21 5.39926 2.41317 0
M  V30 11018 C 1036.58 6.64706 2.33121 0
M  V30 11019 H 1032.67 0.471689 0.623725 0
M  V30 11020 H 1035.26 1.60217 1.10628 0
M  V30 11021 H 1033.43 1.40989 3.61907 0
M  V30 11022 H 1035.16 1.64461 3.69777 0
M  V30 11023 H 1031.92 3.57516 3.10611 0
M  V30 11024 H 1032.34 6.17522 2.77481 0
M  V30 11025 H 1036.98 3.27341 2.67596 0
M  V30 11026 H 1034.7 7.71694 2.39821 0
M  V30 11027 H 1038.29 5.34203 2.30475 0
M  V30 11028 H 1037.17 7.53592 2.16952 0
M  V30 11029 N 1034.67 -1.14067 1.0875 0
M  V30 11030 C 1036.09 -1.37173 0.815823 0
M  V30 11031 C 1036.29 -1.93175 -0.573215 0
M  V30 11032 O 1035.34 -2.14672 -1.32937 0
M  V30 11033 C 1036.66 -2.32955 1.90138 0
M  V30 11034 C 1038.2 -2.46586 1.9278 0
M  V30 11035 C 1038.68 -3.4567 3.0046 0
M  V30 11036 N 1040.17 -3.53216 2.99655 0
M  V30 11037 C 1040.9 -4.29743 3.79616 0
M  V30 11038 N 1040.4 -5.09484 4.69466 0
M  V30 11039 N 1042.19 -4.24975 3.67903 0
M  V30 11040 H 1034.34 -0.760648 1.98313 0
M  V30 11041 H 1036.61 -0.397135 0.860807 0
M  V30 11042 H 1036.31 -1.98949 2.90021 0
M  V30 11043 H 1036.19 -3.32897 1.77368 0
M  V30 11044 H 1038.57 -2.79882 0.935404 0
M  V30 11045 H 1038.66 -1.46593 2.09629 0
M  V30 11046 H 1038.3 -3.13106 3.99909 0
M  V30 11047 H 1038.23 -4.45452 2.80856 0
M  V30 11048 H 1040.72 -2.96314 2.34535 0
M  V30 11049 H 1041.03 -5.65163 5.27077 0
M  V30 11050 H 1039.38 -5.08741 4.73506 0
M  V30 11051 H 1042.57 -3.61751 2.97075 0
M  V30 11052 H 1042.74 -4.84364 4.30459 0
M  V30 11053 N 1036.15 -0.873678 -1.31166 0
M  V30 11054 C 1037.08 -0.348011 -2.30892 0
M  V30 11055 C 1038.06 0.563092 -1.60509 0
M  V30 11056 O 1039.24 0.479332 -1.88192 0
M  V30 11057 C 1036.37 0.448158 -3.44396 0
M  V30 11058 C 1035.33 -0.370179 -4.26396 0
M  V30 11059 C 1034.65 0.551903 -5.31844 0
M  V30 11060 C 1035.95 -1.60624 -4.96988 0
M  V30 11061 H 1037.65 -1.18134 -2.75109 0
M  V30 11062 H 1035.19 -0.569502 -1.3226 0
M  V30 11063 H 1037.15 0.826458 -4.13216 0
M  V30 11064 H 1035.87 1.31503 -2.98956 0
M  V30 11065 H 1034.53 -0.730472 -3.59249 0
M  V30 11066 H 1034.18 1.41616 -4.82653 0
M  V30 11067 H 1033.88 0.00823478 -5.87599 0
M  V30 11068 H 1035.4 0.926965 -6.03523 0
M  V30 11069 H 1036.82 -1.29917 -5.58386 0
M  V30 11070 H 1035.21 -2.08926 -5.62557 0
M  V30 11071 H 1036.28 -2.357 -4.23761 0
M  V30 11072 N 1037.63 1.44308 -0.633487 0
M  V30 11073 C 1038.88 2.01239 -0.136356 0
M  V30 11074 C 1039.19 1.50438 1.25011 0
M  V30 11075 O 1040.39 1.99513 1.84138 0
M  V30 11076 C 1038.85 3.59382 -0.193011 0
M  V30 11077 C 1038.46 4.19178 -1.58093 0
M  V30 11078 C 1040.2 4.23778 0.247534 0
M  V30 11079 C 1038.11 5.69553 -1.59258 0
M  V30 11080 H 1037.04 0.752521 -0.0472109 0
M  V30 11081 H 1039.69 1.65498 -0.79263 0
M  V30 11082 H 1038.07 3.92432 0.530408 0
M  V30 11083 H 1039.25 3.97662 -2.32813 0
M  V30 11084 H 1037.56 3.67079 -1.96576 0
M  V30 11085 H 1040.16 5.34075 0.258401 0
M  V30 11086 H 1040.5 3.96285 1.27529 0
M  V30 11087 H 1041.03 3.9554 -0.423469 0
M  V30 11088 H 1037.77 6.01784 -2.59878 0
M  V30 11089 H 1037.29 5.93185 -0.888352 0
M  V30 11090 H 1038.97 6.33234 -1.32756 0
M  V30 11091 N 1039.1 0.374177 1.53094 0
M  V30 11092 C 1040.33 -0.213325 2.05797 0
M  V30 11093 C 1040.75 -1.41753 1.24706 0
M  V30 11094 O 1040.1 -1.80183 0.289868 0
M  V30 11095 C 1040.16 -0.598367 3.56513 0
M  V30 11096 O 1039.88 0.557983 4.34532 0
M  V30 11097 C 1041.38 -1.24334 4.25507 0
M  V30 11098 H 1038.6 -0.0357398 0.670048 0
M  V30 11099 H 1041.14 0.535035 1.97377 0
M  V30 11100 H 1039.3 -1.29663 3.65056 0
M  V30 11101 H 1039.71 0.244911 5.23928 0
M  V30 11102 H 1041.18 -1.46325 5.32253 0
M  V30 11103 H 1041.66 -2.20622 3.79766 0
M  V30 11104 H 1042.27 -0.586269 4.2124 0
M  V30 11105 N 1040.58 -1.57259 0.103575 0
M  V30 11106 C 1041.55 -2.13337 -0.837859 0
M  V30 11107 C 1042.55 -1.06459 -1.20512 0
M  V30 11108 O 1043.74 -1.32307 -1.13316 0
M  V30 11109 C 1040.87 -2.66093 -2.13089 0
M  V30 11110 H 1042.06 -2.97842 -0.350775 0
M  V30 11111 H 1039.61 -1.55621 -0.145511 0
M  V30 11112 H 1040.35 -1.85133 -2.66264 0
M  V30 11113 H 1040.13 -3.44244 -1.87719 0
M  V30 11114 H 1041.62 -3.09443 -2.80419 0
M  V30 11115 N 1042.06 0.170153 -1.56679 0
M  V30 11116 C 1043.29 0.90618 -1.86556 0
M  V30 11117 C 1043.71 1.74986 -0.690044 0
M  V30 11118 O 1043.07 1.77672 0.360862 0
M  V30 11119 C 1043.12 1.75777 -3.14857 0
M  V30 11120 O 1042.22 2.85952 -2.97162 0
M  V30 11121 H 1041.56 0.253781 -0.613589 0
M  V30 11122 H 1044.09 0.167943 -2.0391 0
M  V30 11123 H 1044.1 2.15747 -3.46291 0
M  V30 11124 H 1042.78 1.13807 -4.00026 0
M  V30 11125 H 1041.35 2.49557 -2.77084 0
M  V30 11126 N 1043.54 1.5137 0.438746 0
M  V30 11127 C 1044.79 1.63645 1.18595 0
M  V30 11128 C 1045.11 0.354241 1.91755 0
M  V30 11129 O 1044.38 -0.629838 1.85499 0
M  V30 11130 H 1042.96 0.603103 0.440767 0
M  V30 11131 H 1045.62 1.88293 0.503159 0
M  V30 11132 H 1044.72 2.46342 1.9163 0
M  V30 11133 N 1045.02 -0.694098 1.41492 0
M  V30 11134 C 1046.24 -1.48789 1.44488 0
M  V30 11135 C 1046.67 -1.88028 0.0521588 0
M  V30 11136 O 1046.02 -1.54727 -0.944952 0
M  V30 11137 C 1046.07 -2.72586 2.3607 0
M  V30 11138 O 1045.18 -3.70128 1.81876 0
M  V30 11139 H 1044.52 -0.447758 0.490315 0
M  V30 11140 H 1047.05 -0.853036 1.85969 0
M  V30 11141 H 1047.06 -3.20877 2.51995 0
M  V30 11142 H 1045.73 -2.43363 3.37264 0
M  V30 11143 H 1044.31 -3.29069 1.75408 0
M  V30 11144 N 1046.49 -1.27344 -0.928501 0
M  V30 11145 C 1047.72 -1.16278 -1.70772 0
M  V30 11146 C 1048.13 0.283131 -1.8707 0
M  V30 11147 O 1047.48 1.20466 -1.38685 0
M  V30 11148 C 1047.54 -1.77313 -3.1273 0
M  V30 11149 C 1047.2 -3.26488 -3.19773 0
M  V30 11150 C 1048.2 -4.23133 -3.02083 0
M  V30 11151 C 1045.88 -3.67182 -3.42757 0
M  V30 11152 C 1047.88 -5.5845 -3.07267 0
M  V30 11153 C 1045.56 -5.02629 -3.47574 0
M  V30 11154 C 1046.56 -5.98072 -3.29847 0
M  V30 11155 O 1046.25 -7.3105 -3.34397 0
M  V30 11156 H 1045.98 -0.405215 -0.541089 0
M  V30 11157 H 1048.54 -1.68707 -1.17163 0
M  V30 11158 H 1046.77 -1.19361 -3.67818 0
M  V30 11159 H 1048.46 -1.60972 -3.72616 0
M  V30 11160 H 1049.22 -3.93031 -2.84168 0
M  V30 11161 H 1045.1 -2.93369 -3.55606 0
M  V30 11162 H 1048.64 -6.32924 -2.93348 0
M  V30 11163 H 1044.54 -5.32387 -3.65013 0
M  V30 11164 H 1045.31 -7.39488 -3.50857 0
M  V30 11165 N 1047.97 1.13488 -1.09353 0
M  V30 11166 C 1048.92 2.16933 -0.701709 0
M  V30 11167 C 1049.91 1.58382 0.283553 0
M  V30 11168 O 1051.1 1.7675 0.0940391 0
M  V30 11169 C 1048.23 3.43079 -0.123031 0
M  V30 11170 C 1047.31 4.08639 -1.13466 0
M  V30 11171 N 1047.7 4.49377 -2.32152 0
M  V30 11172 C 1046 4.35265 -0.972632 0
M  V30 11173 C 1046.7 5.00464 -2.96497 0
M  V30 11174 N 1045.68 4.95275 -2.24061 0
M  V30 11175 H 1049.48 2.46183 -1.60534 0
M  V30 11176 H 1047 1.30275 -0.969644 0
M  V30 11177 H 1048.99 4.1653 0.17569 0
M  V30 11178 H 1047.65 3.15304 0.775461 0
M  V30 11179 H 1048.66 4.42105 -2.69748 0
M  V30 11180 H 1045.34 4.17301 -0.12876 0
M  V30 11181 H 1046.73 5.41785 -3.9739 0
M  V30 11182 N 1049.45 0.880621 1.30701 0
M  V30 11183 C 1050.4 0.342397 2.28246 0
M  V30 11184 C 1051.37 -0.565023 1.56194 0
M  V30 11185 O 1052.55 -0.494377 1.84284 0
M  V30 11186 C 1049.69 -0.440859 3.42272 0
M  V30 11187 C 1048.81 0.495284 4.29151 0
M  V30 11188 C 1047.94 -0.303141 5.30334 0
M  V30 11189 C 1046.98 0.628751 6.08862 0
M  V30 11190 N 1046.12 -0.13408 7.01972 0
M  V30 11191 H 1050.96 1.17938 2.73669 0
M  V30 11192 H 1048.49 0.59296 1.34619 0
M  V30 11193 H 1050.45 -0.910854 4.07135 0
M  V30 11194 H 1049.08 -1.24245 2.97931 0
M  V30 11195 H 1048.13 1.08376 3.64635 0
M  V30 11196 H 1049.45 1.2094 4.83916 0
M  V30 11197 H 1048.6 -0.835181 6.00924 0
M  V30 11198 H 1047.34 -1.05049 4.76252 0
M  V30 11199 H 1046.34 1.17246 5.37153 0
M  V30 11200 H 1047.57 1.37512 6.65032 0
M  V30 11201 H 1045.52 -0.864046 6.50285 0
M  V30 11202 H 1045.43 0.520486 7.54206 0
M  V30 11203 H 1046.7 -0.647005 7.7681 0
M  V30 11204 N 1050.93 -1.4397 0.641131 0
M  V30 11205 C 1051.86 -2.33458 -0.04446 0
M  V30 11206 C 1052.84 -1.48781 -0.824507 0
M  V30 11207 O 1054.03 -1.77477 -0.788397 0
M  V30 11208 C 1051.16 -3.31989 -1.01984 0
M  V30 11209 C 1050.11 -4.2656 -0.350745 0
M  V30 11210 C 1049.44 -5.15036 -1.43673 0
M  V30 11211 C 1050.74 -5.16897 0.749299 0
M  V30 11212 H 1052.43 -2.91034 0.702832 0
M  V30 11213 H 1049.98 -1.39942 0.339435 0
M  V30 11214 H 1051.93 -3.93483 -1.50828 0
M  V30 11215 H 1050.65 -2.72643 -1.79815 0
M  V30 11216 H 1049.31 -3.66413 0.117139 0
M  V30 11217 H 1048.96 -4.52037 -2.20617 0
M  V30 11218 H 1048.66 -5.79125 -0.994358 0
M  V30 11219 H 1050.18 -5.79403 -1.92678 0
M  V30 11220 H 1051.6 -5.7227 0.343534 0
M  V30 11221 H 1049.99 -5.89643 1.11541 0
M  V30 11222 H 1051.06 -4.5731 1.61232 0
M  V30 11223 N 1052.41 -0.382291 -1.52893 0
M  V30 11224 C 1053.65 0.202133 -2.01489 0
M  V30 11225 C 1053.98 1.47399 -1.26901 0
M  V30 11226 O 1053.24 1.92439 -0.355771 0
M  V30 11227 C 1053.54 0.523437 -3.53546 0
M  V30 11228 C 1053.2 -0.656042 -4.46102 0
M  V30 11229 C 1051.86 -0.979633 -4.71123 0
M  V30 11230 C 1054.22 -1.44545 -5.00756 0
M  V30 11231 C 1051.54 -2.0943 -5.48047 0
M  V30 11232 C 1053.9 -2.55066 -5.78899 0
M  V30 11233 C 1052.56 -2.87942 -6.02201 0
M  V30 11234 H 1051.83 0.0739659 -0.737299 0
M  V30 11235 H 1054.48 -0.518196 -1.84356 0
M  V30 11236 H 1052.78 1.325 -3.68715 0
M  V30 11237 H 1054.48 0.988148 -3.88634 0
M  V30 11238 H 1051.07 -0.393818 -4.26787 0
M  V30 11239 H 1055.25 -1.20869 -4.81357 0
M  V30 11240 H 1050.51 -2.3528 -5.64317 0
M  V30 11241 H 1054.68 -3.1664 -6.20252 0
M  V30 11242 H 1052.31 -3.74435 -6.61591 0
M  V30 11243 N 1053.89 1.57202 -0.111913 0
M  V30 11244 C 1055.13 1.96035 0.542393 0
M  V30 11245 C 1055.49 0.993925 1.64739 0
M  V30 11246 O 1054.78 0.0227369 1.91587 0
M  V30 11247 C 1054.97 3.39152 1.12741 0
M  V30 11248 C 1054.8 4.49628 0.0806232 0
M  V30 11249 C 1053.57 5.04095 -0.348737 0
M  V30 11250 C 1055.77 5.09546 -0.697655 0
M  V30 11251 N 1053.75 5.98141 -1.38204 0
M  V30 11252 C 1055.12 5.99468 -1.58234 0
M  V30 11253 C 1057.18 4.92229 -0.749324 0
M  V30 11254 C 1055.88 6.7393 -2.51418 0
M  V30 11255 C 1057.91 5.67366 -1.66884 0
M  V30 11256 C 1057.27 6.56968 -2.54112 0
M  V30 11257 H 1053.37 0.763672 0.168311 0
M  V30 11258 H 1055.95 1.93687 -0.198387 0
M  V30 11259 H 1054.12 3.42161 1.83794 0
M  V30 11260 H 1055.86 3.65125 1.74546 0
M  V30 11261 H 1052.61 4.73581 0.042288 0
M  V30 11262 H 1053.03 6.49868 -1.8974 0
M  V30 11263 H 1057.68 4.22706 -0.0890808 0
M  V30 11264 H 1055.39 7.42704 -3.18459 0
M  V30 11265 H 1058.98 5.55974 -1.71417 0
M  V30 11266 H 1057.86 7.1409 -3.24107 0
M  V30 11267 N 1055.36 -0.161842 1.56767 0
M  V30 11268 C 1056.29 -1.20226 2.0017 0
M  V30 11269 C 1057.27 -1.4564 0.878807 0
M  V30 11270 O 1058.46 -1.56813 1.14557 0
M  V30 11271 C 1055.59 -2.53897 2.36968 0
M  V30 11272 C 1054.54 -2.43033 3.52305 0
M  V30 11273 C 1053.87 -3.81281 3.74872 0
M  V30 11274 C 1055.17 -1.927 4.85453 0
M  V30 11275 H 1056.86 -0.84142 2.87333 0
M  V30 11276 H 1054.41 -0.403309 1.38237 0
M  V30 11277 H 1056.36 -3.26893 2.6593 0
M  V30 11278 H 1055.09 -2.91787 1.46724 0
M  V30 11279 H 1053.75 -1.7249 3.23485 0
M  V30 11280 H 1053.39 -4.1658 2.81904 0
M  V30 11281 H 1053.09 -3.74877 4.52483 0
M  V30 11282 H 1054.62 -4.55848 4.06245 0
M  V30 11283 H 1056.03 -2.55477 5.13229 0
M  V30 11284 H 1054.43 -1.97222 5.66766 0
M  V30 11285 H 1055.5 -0.881816 4.76814 0
M  V30 11286 N 1056.84 -1.516 -0.430713 0
M  V30 11287 C 1058.09 -1.64271 -1.17726 0
M  V30 11288 C 1058.41 -0.364406 -1.91565 0
M  V30 11289 O 1057.68 0.619991 -1.8583 0
M  V30 11290 H 1056.26 -0.605432 -0.437562 0
M  V30 11291 H 1058.92 -1.88557 -0.493166 0
M  V30 11292 H 1058.02 -2.47355 -1.90321 0
M  V30 11293 N 1058.32 0.686584 -1.41858 0
M  V30 11294 C 1059.25 1.81264 -1.47193 0
M  V30 11295 C 1060.23 1.66875 -0.329657 0
M  V30 11296 O 1061.42 1.86473 -0.542347 0
M  V30 11297 C 1058.55 3.19472 -1.36216 0
M  V30 11298 C 1057.5 3.4858 -2.48347 0
M  V30 11299 C 1056.83 4.86239 -2.22432 0
M  V30 11300 C 1058.13 3.46653 -3.90678 0
M  V30 11301 H 1059.82 1.77057 -2.41436 0
M  V30 11302 H 1057.37 0.850415 -1.16206 0
M  V30 11303 H 1059.32 3.97969 -1.38558 0
M  V30 11304 H 1058.04 3.24327 -0.384611 0
M  V30 11305 H 1056.7 2.72437 -2.45303 0
M  V30 11306 H 1056.35 4.8773 -1.22999 0
M  V30 11307 H 1056.05 5.06677 -2.97577 0
M  V30 11308 H 1057.57 5.67034 -2.26505 0
M  V30 11309 H 1058.99 4.15139 -3.95389 0
M  V30 11310 H 1057.38 3.78625 -4.65578 0
M  V30 11311 H 1058.45 2.45451 -4.18189 0
M  V30 11312 N 1059.8 1.27835 0.921735 0
M  V30 11313 C 1061.03 1.17352 1.704 0
M  V30 11314 C 1061.44 -0.268892 1.86875 0
M  V30 11315 O 1060.8 -1.18253 1.39005 0
M  V30 11316 C 1060.85 1.85889 3.10045 0
M  V30 11317 O 1060.57 3.24495 2.94338 0
M  V30 11318 C 1062.07 1.81607 4.04393 0
M  V30 11319 H 1059.29 0.40773 0.532914 0
M  V30 11320 H 1061.83 1.68815 1.15419 0
M  V30 11321 H 1059.99 1.38316 3.61867 0
M  V30 11322 H 1060.4 3.58705 3.82663 0
M  V30 11323 H 1061.88 2.34165 4.99871 0
M  V30 11324 H 1062.35 0.786697 4.32097 0
M  V30 11325 H 1062.96 2.28822 3.58498 0
M  V30 11326 N 1061.28 -1.12907 1.09954 0
M  V30 11327 C 1062.51 -1.87866 0.859656 0
M  V30 11328 C 1062.91 -1.79664 -0.593096 0
M  V30 11329 O 1062.26 -1.16499 -1.42034 0
M  V30 11330 C 1062.32 -3.38055 1.22308 0
M  V30 11331 C 1061.98 -3.70035 2.68185 0
M  V30 11332 C 1062.98 -3.68817 3.66428 0
M  V30 11333 C 1060.66 -3.99523 3.04444 0
M  V30 11334 C 1062.66 -3.96639 4.98955 0
M  V30 11335 C 1060.35 -4.27006 4.37161 0
M  V30 11336 C 1061.34 -4.25549 5.34225 0
M  V30 11337 O 1061.03 -4.52354 6.64553 0
M  V30 11338 H 1060.76 -0.601425 0.308649 0
M  V30 11339 H 1063.32 -1.43817 1.46649 0
M  V30 11340 H 1061.55 -3.82634 0.559322 0
M  V30 11341 H 1063.24 -3.94348 0.961479 0
M  V30 11342 H 1064 -3.46104 3.3976 0
M  V30 11343 H 1059.88 -3.99801 2.29521 0
M  V30 11344 H 1063.43 -3.95418 5.74709 0
M  V30 11345 H 1059.32 -4.49192 4.6357 0
M  V30 11346 H 1060.09 -4.69997 6.70108 0
M  V30 11347 N 1062.75 -0.88754 -1.30232 0
M  V30 11348 C 1064 -0.506277 -1.95656 0
M  V30 11349 C 1064.32 0.948191 -1.70395 0
M  V30 11350 O 1063.59 1.66701 -1.02895 0
M  V30 11351 H 1062.17 -0.184235 -0.723924 0
M  V30 11352 H 1064.83 -1.13118 -1.58715 0
M  V30 11353 H 1063.93 -0.678673 -3.04632 0
M  V30 11354 N 1064.23 1.43628 -0.648757 0
M  V30 11355 C 1065.46 2.06732 -0.166284 0
M  V30 11356 C 1065.88 1.48281 1.15734 0
M  V30 11357 O 1065.24 0.591018 1.71396 0
M  V30 11358 C 1065.29 3.60502 -0.0838732 0
M  V30 11359 O 1064.39 4.01186 0.955185 0
M  V30 11360 H 1063.73 0.657479 -0.0928285 0
M  V30 11361 H 1066.26 1.84208 -0.890421 0
M  V30 11362 H 1066.27 4.07875 0.100923 0
M  V30 11363 H 1064.95 4.02424 -1.05014 0
M  V30 11364 H 1063.53 3.65412 0.743537 0
M  V30 11365 N 1065.71 0.390394 1.52688 0
M  V30 11366 C 1067.12 -0.083394 1.86514 0
M  V30 11367 C 1067.47 -1.46057 1.31003 0
M  V30 11368 O 1066.6 -2.06663 0.641809 0
M  V30 11369 C 1067.19 -0.158102 3.38431 0
M  V30 11370 C 1065.75 -0.576186 3.71964 0
M  V30 11371 C 1064.9 0.261156 2.76068 0
M  V30 11372 H 1067.85 0.608226 1.46582 0
M  V30 11373 H 1067.87 -0.977023 3.67742 0
M  V30 11374 H 1067.38 0.844365 3.78803 0
M  V30 11375 H 1065.48 -1.58598 3.37161 0
M  V30 11376 H 1065.6 -0.333577 4.77937 0
M  V30 11377 H 1063.96 -0.273737 2.53225 0
M  V30 11378 H 1064.74 1.26162 3.19277 0
M  V30 11379 N 1067.19 -1.57141 0.120249 0
M  V30 11380 C 1068.41 -2.00017 -0.548454 0
M  V30 11381 C 1068.84 -0.999433 -1.59352 0
M  V30 11382 O 1068.2 0.0286978 -1.81277 0
M  V30 11383 C 1068.24 -3.41766 -1.15015 0
M  V30 11384 O 1067.35 -3.44589 -2.26566 0
M  V30 11385 H 1066.69 -0.649739 -0.136875 0
M  V30 11386 H 1069.22 -2.03529 0.209092 0
M  V30 11387 H 1069.23 -3.80001 -1.48537 0
M  V30 11388 H 1067.9 -4.14117 -0.384681 0
M  V30 11389 H 1066.48 -3.18174 -1.94473 0
M  V30 11390 N 1068.67 0.153526 -1.5685 0
M  V30 11391 C 1069.58 1.20932 -2.01029 0
M  V30 11392 C 1070.59 1.47401 -0.924598 0
M  V30 11393 O 1071.77 1.592 -1.23359 0
M  V30 11394 C 1068.83 2.52438 -2.37647 0
M  V30 11395 C 1067.89 2.33673 -3.60132 0
M  V30 11396 C 1067.13 3.58909 -3.94994 0
M  V30 11397 O 1067.35 4.64823 -3.30599 0
M  V30 11398 O 1066.28 3.5196 -4.8827 0
M  V30 11399 H 1070.11 0.864273 -2.91143 0
M  V30 11400 H 1067.7 0.361755 -1.44954 0
M  V30 11401 H 1069.58 3.29981 -2.62088 0
M  V30 11402 H 1068.25 2.86486 -1.5069 0
M  V30 11403 H 1067.16 1.54102 -3.40886 0
M  V30 11404 H 1068.49 2.04544 -4.47686 0
M  V30 11405 N 1070.14 1.51827 0.422667 0
M  V30 11406 C 1071.39 1.64893 1.16853 0
M  V30 11407 C 1071.71 0.37456 1.91369 0
M  V30 11408 O 1070.98 -0.610128 1.86157 0
M  V30 11409 H 1069.56 0.607744 0.434345 0
M  V30 11410 H 1072.23 1.88816 0.483159 0
M  V30 11411 H 1071.32 2.48361 1.89006 0
M  V30 11412 N 1071.62 -0.679052 1.4222 0
M  V30 11413 C 1072.87 -1.43912 1.42463 0
M  V30 11414 C 1073.2 -1.9446 0.0395574 0
M  V30 11415 O 1072.45 -1.71019 -0.951365 0
M  V30 11416 C 1072.75 -2.65528 2.39227 0
M  V30 11417 C 1072.42 -2.33545 3.85704 0
M  V30 11418 C 1071.08 -2.24534 4.25603 0
M  V30 11419 C 1073.43 -2.07496 4.78116 0
M  V30 11420 C 1070.76 -1.87592 5.55901 0
M  V30 11421 C 1073.11 -1.72059 6.08752 0
M  V30 11422 C 1071.78 -1.61555 6.47654 0
M  V30 11423 H 1071.05 -0.52661 0.521309 0
M  V30 11424 H 1073.69 -0.774661 1.75132 0
M  V30 11425 H 1072 -3.36985 1.9987 0
M  V30 11426 H 1073.69 -3.23702 2.36681 0
M  V30 11427 H 1070.28 -2.4146 3.54112 0
M  V30 11428 H 1074.47 -2.13393 4.48082 0
M  V30 11429 H 1069.72 -1.78026 5.84908 0
M  V30 11430 H 1073.9 -1.50926 6.79849 0
M  V30 11431 H 1071.53 -1.32699 7.48529 0
M  V30 11432 N 1073.1 -1.28322 -0.914942 0
M  V30 11433 C 1074.33 -1.18254 -1.69775 0
M  V30 11434 C 1074.74 0.258978 -1.87015 0
M  V30 11435 O 1074.1 1.17514 -1.3963 0
M  V30 11436 C 1074.15 -1.8753 -3.09054 0
M  V30 11437 O 1073.87 -3.26051 -2.92613 0
M  V30 11438 C 1075.37 -1.83749 -4.03424 0
M  V30 11439 H 1072.59 -0.41055 -0.530744 0
M  V30 11440 H 1075.14 -1.69425 -1.14523 0
M  V30 11441 H 1073.29 -1.40233 -3.61128 0
M  V30 11442 H 1073.71 -3.60729 -3.80756 0
M  V30 11443 H 1075.18 -2.36813 -4.98622 0
M  V30 11444 H 1075.66 -0.809601 -4.31674 0
M  V30 11445 H 1076.26 -2.3072 -3.57279 0
M  V30 11446 N 1074.58 1.12322 -1.10551 0
M  V30 11447 C 1075.82 1.84333 -0.859826 0
M  V30 11448 C 1076.18 1.82539 0.608052 0
M  V30 11449 O 1075.47 1.26086 1.44267 0
M  V30 11450 C 1075.67 3.31177 -1.34375 0
M  V30 11451 C 1075.5 3.47272 -2.85714 0
M  V30 11452 C 1074.27 3.60837 -3.5373 0
M  V30 11453 C 1076.46 3.42336 -3.83811 0
M  V30 11454 N 1074.45 3.65309 -4.93378 0
M  V30 11455 C 1075.82 3.53318 -5.09477 0
M  V30 11456 C 1077.87 3.25809 -3.76501 0
M  V30 11457 C 1076.57 3.49477 -6.28695 0
M  V30 11458 C 1078.6 3.23282 -4.9522 0
M  V30 11459 C 1077.96 3.34826 -6.19735 0
M  V30 11460 H 1074.06 0.690186 -0.367651 0
M  V30 11461 H 1076.65 1.34463 -1.40811 0
M  V30 11462 H 1074.82 3.79585 -0.822767 0
M  V30 11463 H 1076.55 3.91051 -1.04217 0
M  V30 11464 H 1073.3 3.63005 -3.04178 0
M  V30 11465 H 1073.73 3.71207 -5.66157 0
M  V30 11466 H 1078.37 3.15777 -2.81149 0
M  V30 11467 H 1076.09 3.5828 -7.24335 0
M  V30 11468 H 1079.67 3.11674 -4.91274 0
M  V30 11469 H 1078.55 3.32847 -7.10058 0
M  V30 11470 N 1076.06 0.894434 1.2976 0
M  V30 11471 C 1077.28 0.5322 2.00455 0
M  V30 11472 C 1077.71 -0.874427 1.66539 0
M  V30 11473 O 1077.06 -1.58113 0.887129 0
M  V30 11474 C 1077.11 0.725264 3.53231 0
M  V30 11475 O 1076.22 -0.224612 4.11788 0
M  V30 11476 H 1075.56 0.208562 0.630395 0
M  V30 11477 H 1078.09 1.20458 1.65382 0
M  V30 11478 H 1078.1 0.627889 4.0314 0
M  V30 11479 H 1076.77 1.75079 3.77253 0
M  V30 11480 H 1075.35 -0.0801361 3.72814 0
M  V30 11481 N 1077.53 -1.43282 0.656365 0
M  V30 11482 C 1078.81 -1.9534 0.100816 0
M  V30 11483 C 1079.19 -1.59755 -1.37992 0
M  V30 11484 O 1078.54 -0.884264 -2.10697 0
M  V30 11485 C 1078.75 -3.47237 0.35038 0
M  V30 11486 C 1080.1 -4.23822 0.257001 0
M  V30 11487 O 1081.12 -3.55073 0.283111 0
M  V30 11488 O 1079.98 -5.46192 0.183397 0
M  V30 11489 H 1077.07 -0.826963 -0.00780287 0
M  V30 11490 H 1079.62 -1.53205 0.72982 0
M  V30 11491 H 1078.39 -3.66276 1.37685 0
M  V30 11492 H 1078.02 -3.96378 -0.311539 0
M  V30 11493 N 1079.01 -0.398486 -1.52479 0
M  V30 11494 C 1080.26 0.180394 -2.01293 0
M  V30 11495 C 1080.58 1.46548 -1.28641 0
M  V30 11496 O 1079.85 1.91579 -0.409173 0
M  V30 11497 H 1078.43 0.0696528 -0.743746 0
M  V30 11498 H 1081.09 -0.532285 -1.87491 0
M  V30 11499 H 1080.19 0.38409 -3.09728 0
M  V30 11500 N 1080.49 1.57075 -0.12858 0
M  V30 11501 C 1081.72 2.00305 0.537839 0
M  V30 11502 C 1082.14 1.00787 1.58819 0
M  V30 11503 O 1081.5 -0.0190839 1.8129 0
M  V30 11504 C 1081.55 3.42371 1.13201 0
M  V30 11505 O 1080.65 3.45786 2.24735 0
M  V30 11506 H 1079.99 0.650456 0.133428 0
M  V30 11507 H 1082.52 2.03415 -0.219882 0
M  V30 11508 H 1082.53 3.80783 1.4652 0
M  V30 11509 H 1081.21 4.14315 0.362713 0
M  V30 11510 H 1079.78 3.19201 1.92783 0
M  V30 11511 N 1081.97 -0.145205 1.5693 0
M  V30 11512 C 1083.38 -0.705089 1.72874 0
M  V30 11513 C 1083.73 -1.81577 0.743261 0
M  V30 11514 O 1082.86 -2.16214 -0.0897153 0
M  V30 11515 C 1083.45 -1.28578 3.13454 0
M  V30 11516 C 1082.01 -1.79221 3.30994 0
M  V30 11517 C 1081.16 -0.681392 2.68798 0
M  V30 11518 H 1084.11 0.0804798 1.58496 0
M  V30 11519 H 1084.13 -2.15558 3.13552 0
M  V30 11520 H 1083.64 -0.477186 3.85155 0
M  V30 11521 H 1081.74 -2.62642 2.64292 0
M  V30 11522 H 1081.86 -1.91969 4.38959 0
M  V30 11523 H 1080.22 -1.10847 2.29314 0
M  V30 11524 H 1081 0.115786 3.43105 0
M  V30 11525 N 1083.45 -1.52049 -0.414609 0
M  V30 11526 C 1084.69 -1.66084 -1.16379 0
M  V30 11527 C 1085.03 -0.386932 -1.90306 0
M  V30 11528 O 1084.3 0.614441 -1.8454 0
M  V30 11529 C 1084.58 -2.87927 -2.16264 0
M  V30 11530 C 1084.44 -4.25353 -1.46269 0
M  V30 11531 C 1085.76 -3.05289 -3.16996 0
M  V30 11532 H 1082.88 -0.604414 -0.421726 0
M  V30 11533 H 1085.52 -1.8459 -0.450177 0
M  V30 11534 H 1083.67 -2.7228 -2.77121 0
M  V30 11535 H 1085.34 -4.52717 -0.885743 0
M  V30 11536 H 1083.58 -4.27006 -0.76472 0
M  V30 11537 H 1084.25 -5.06644 -2.19126 0
M  V30 11538 H 1086.73 -3.19798 -2.66212 0
M  V30 11539 H 1085.61 -3.92065 -3.84156 0
M  V30 11540 H 1085.87 -2.1836 -3.84411 0
M  V30 11541 N 1084.93 0.6715 -1.42579 0
M  V30 11542 C 1086.15 1.46471 -1.46836 0
M  V30 11543 C 1086.58 1.87921 -0.0820658 0
M  V30 11544 O 1085.93 1.5621 0.920217 0
M  V30 11545 C 1085.98 2.68796 -2.40377 0
M  V30 11546 O 1085.09 3.67188 -1.87741 0
M  V30 11547 H 1084.43 0.439901 -0.497376 0
M  V30 11548 H 1086.96 0.823342 -1.87303 0
M  V30 11549 H 1086.97 3.16828 -2.57068 0
M  V30 11550 H 1085.64 2.37967 -3.41093 0
M  V30 11551 H 1084.22 3.26237 -1.80621 0
M  V30 11552 N 1086.4 1.28806 0.908124 0
M  V30 11553 C 1087.63 1.1898 1.689 0
M  V30 11554 C 1088.04 -0.253334 1.87496 0
M  V30 11555 O 1087.38 -1.18245 1.40584 0
M  V30 11556 C 1087.45 1.82266 3.0987 0
M  V30 11557 C 1087.11 3.31534 3.14538 0
M  V30 11558 C 1088.11 4.27886 2.95313 0
M  V30 11559 C 1085.79 3.72589 3.36872 0
M  V30 11560 C 1087.79 5.63267 2.98343 0
M  V30 11561 C 1085.47 5.08095 3.39534 0
M  V30 11562 C 1086.47 6.03244 3.2029 0
M  V30 11563 O 1086.16 7.36277 3.22724 0
M  V30 11564 H 1085.89 0.413772 0.534574 0
M  V30 11565 H 1088.45 1.7055 1.14464 0
M  V30 11566 H 1086.68 1.25197 3.65872 0
M  V30 11567 H 1088.36 1.6688 3.70008 0
M  V30 11568 H 1089.13 3.97502 2.77879 0
M  V30 11569 H 1085.01 2.98989 3.50894 0
M  V30 11570 H 1088.55 6.37511 2.83241 0
M  V30 11571 H 1084.45 5.38126 3.56497 0
M  V30 11572 H 1085.22 7.44976 3.39048 0
M  V30 11573 N 1087.88 -1.11734 1.11145 0
M  V30 11574 C 1088.79 -2.21267 0.779607 0
M  V30 11575 C 1089.81 -1.72526 -0.225986 0
M  V30 11576 O 1090.98 -2.01302 -0.0629166 0
M  V30 11577 C 1088.05 -3.45973 0.22435 0
M  V30 11578 C 1087.11 -4.09518 1.28816 0
M  V30 11579 C 1086.34 -5.28271 0.7593 0
M  V30 11580 O 1086.57 -5.68912 -0.411725 0
M  V30 11581 O 1085.5 -5.82322 1.52266 0
M  V30 11582 H 1089.33 -2.5206 1.6941 0
M  V30 11583 H 1086.91 -1.20211 0.887115 0
M  V30 11584 H 1088.79 -4.21322 -0.0810921 0
M  V30 11585 H 1087.47 -3.1684 -0.662891 0
M  V30 11586 H 1086.37 -3.35915 1.64657 0
M  V30 11587 H 1087.71 -4.42824 2.14868 0
M  V30 11588 N 1089.36 -0.901303 -1.29284 0
M  V30 11589 C 1090.31 -0.370142 -2.29636 0
M  V30 11590 C 1091.3 0.53157 -1.60844 0
M  V30 11591 O 1092.51 0.414194 -1.7517 0
M  V30 11592 H 1088.88 -0.101072 -0.745177 0
M  V30 11593 H 1090.85 -1.22985 -2.71877 0
M  V30 11594 C 1089.6 0.385806 -3.45553 0
M  V30 11595 H 1088.93 -0.298818 -3.98682 0
M  V30 11596 H 1090.37 0.722299 -4.17802 0
M  V30 11597 C 1088.82 1.58907 -2.97069 0
M  V30 11598 O 1089.35 2.68835 -2.98481 0
M  V30 11599 N 1087.56 1.43178 -2.5288 0
M  V30 11600 H 1087.11 0.537467 -2.51931 0
M  V30 11601 H 1087.07 2.23819 -2.208 0
M  V30 11602 N 1090.84 1.42931 -0.663954 0
M  V30 11603 C 1092.08 2.02505 -0.190647 0
M  V30 11604 C 1092.44 1.51506 1.18591 0
M  V30 11605 O 1091.73 0.702962 1.78239 0
M  V30 11606 C 1091.93 3.57072 -0.153163 0
M  V30 11607 C 1091.75 4.23069 -1.52454 0
M  V30 11608 C 1090.52 4.58694 -2.11961 0
M  V30 11609 C 1092.72 4.51373 -2.46509 0
M  V30 11610 N 1090.7 5.09818 -3.41993 0
M  V30 11611 C 1092.08 5.03931 -3.61184 0
M  V30 11612 C 1094.13 4.33351 -2.45176 0
M  V30 11613 C 1092.83 5.40362 -4.74765 0
M  V30 11614 C 1094.86 4.70851 -3.57845 0
M  V30 11615 C 1094.22 5.23551 -4.71246 0
M  V30 11616 H 1090.32 0.773581 -0.114438 0
M  V30 11617 H 1092.9 1.73951 -0.874589 0
M  V30 11618 H 1091.08 3.85166 0.500156 0
M  V30 11619 H 1092.81 4.03336 0.332015 0
M  V30 11620 H 1089.56 4.44091 -1.6456 0
M  V30 11621 H 1089.99 5.39821 -4.08561 0
M  V30 11622 H 1094.63 3.91871 -1.58735 0
M  V30 11623 H 1092.35 5.8078 -5.6189 0
M  V30 11624 H 1095.93 4.58593 -3.58028 0
M  V30 11625 H 1094.81 5.52029 -5.56986 0
M  V30 11626 N 1092.32 0.406567 1.52266 0
M  V30 11627 C 1093.28 -0.408251 2.25535 0
M  V30 11628 C 1094.28 -0.975795 1.27808 0
M  V30 11629 O 1095.47 -0.855077 1.5177 0
M  V30 11630 C 1092.6 -1.57443 3.02365 0
M  V30 11631 H 1093.79 0.233459 2.9899 0
M  V30 11632 H 1091.35 0.159032 1.55489 0
M  V30 11633 H 1092.08 -2.25308 2.33252 0
M  V30 11634 H 1091.87 -1.17399 3.74112 0
M  V30 11635 H 1093.36 -2.15088 3.57948 0
M  V30 11636 N 1093.79 -1.57004 0.136909 0
M  V30 11637 C 1095.02 -1.99866 -0.523177 0
M  V30 11638 C 1095.43 -1.01584 -1.59616 0
M  V30 11639 O 1094.78 -0.00326426 -1.837 0
M  V30 11640 C 1094.84 -3.39157 -1.19217 0
M  V30 11641 C 1094.5 -4.56231 -0.265 0
M  V30 11642 C 1095.5 -5.17457 0.503412 0
M  V30 11643 C 1093.18 -5.02009 -0.170846 0
M  V30 11644 C 1095.18 -6.22863 1.35353 0
M  V30 11645 C 1092.86 -6.07273 0.682884 0
M  V30 11646 C 1093.86 -6.67568 1.44369 0
M  V30 11647 O 1093.55 -7.70795 2.28321 0
M  V30 11648 H 1093.28 -0.661005 -0.141593 0
M  V30 11649 H 1095.84 -2.04159 0.225445 0
M  V30 11650 H 1094.07 -3.31672 -1.98823 0
M  V30 11651 H 1095.76 -3.66191 -1.75096 0
M  V30 11652 H 1096.52 -4.82994 0.440648 0
M  V30 11653 H 1092.4 -4.54813 -0.752744 0
M  V30 11654 H 1095.94 -6.69855 1.94783 0
M  V30 11655 H 1091.84 -6.41163 0.746978 0
M  V30 11656 H 1092.61 -7.87971 2.21458 0
M  V30 11657 N 1095.27 0.136881 -1.57004 0
M  V30 11658 C 1096.52 0.8461 -1.83536 0
M  V30 11659 C 1096.84 1.81246 -0.71937 0
M  V30 11660 O 1096.11 1.94191 0.258161 0
M  V30 11661 H 1094.69 0.315446 -0.677128 0
M  V30 11662 H 1097.35 0.128469 -1.94476 0
M  V30 11663 H 1096.45 1.40221 -2.78827 0
M  V30 11664 N 1096.75 1.52266 0.40654 0
M  V30 11665 C 1097.66 1.78688 1.52012 0
M  V30 11666 C 1098.68 0.6726 1.60475 0
M  V30 11667 O 1099.85 0.95829 1.77141 0
M  V30 11668 C 1096.92 1.93434 2.87722 0
M  V30 11669 C 1095.98 3.17341 2.89125 0
M  V30 11670 C 1095.21 3.31374 4.18362 0
M  V30 11671 O 1095.43 2.50613 5.12396 0
M  V30 11672 O 1094.37 4.24539 4.26674 0
M  V30 11673 H 1098.19 2.73213 1.3262 0
M  V30 11674 H 1095.78 1.37142 0.592653 0
M  V30 11675 H 1097.66 2.04941 3.68208 0
M  V30 11676 H 1096.34 1.02099 3.07177 0
M  V30 11677 H 1095.24 3.1129 2.07483 0
M  V30 11678 H 1096.58 4.08466 2.7462 0
M  V30 11679 N 1098.23 -0.663929 1.42933 0
M  V30 11680 C 1099.64 -1.24484 1.39143 0
M  V30 11681 C 1099.99 -1.95993 0.0901142 0
M  V30 11682 O 1099.12 -2.00636 -0.810812 0
M  V30 11683 C 1099.71 -2.26402 2.52047 0
M  V30 11684 C 1098.27 -2.79995 2.51555 0
M  V30 11685 C 1097.42 -1.54475 2.30289 0
M  V30 11686 H 1100.37 -0.456619 1.51989 0
M  V30 11687 H 1100.39 -3.08361 2.22921 0
M  V30 11688 H 1099.9 -1.74328 3.46744 0
M  V30 11689 H 1098 -3.36161 1.60707 0
M  V30 11690 H 1098.11 -3.2827 3.48964 0
M  V30 11691 H 1096.48 -1.81437 1.78753 0
M  V30 11692 H 1097.26 -1.04351 3.27056 0
M  V30 11693 N 1099.71 -1.29285 -0.901281 0
M  V30 11694 C 1100.65 -1.14159 -2.02659 0
M  V30 11695 C 1101.65 -0.0575887 -1.69302 0
M  V30 11696 O 1102.85 -0.217273 -1.78684 0
M  V30 11697 H 1099.23 -0.352584 -0.66422 0
M  V30 11698 H 1101.2 -2.09434 -2.12555 0
M  V30 11699 C 1099.95 -0.833253 -3.37568 0
M  V30 11700 H 1099.27 -1.65939 -3.63737 0
M  V30 11701 H 1100.71 -0.767436 -4.16997 0
M  V30 11702 C 1099.17 0.46344 -3.33697 0
M  V30 11703 O 1099.7 1.48998 -3.73045 0
M  V30 11704 N 1097.91 0.468709 -2.86795 0
M  V30 11705 H 1097.45 -0.36712 -2.54971 0
M  V30 11706 H 1097.41 1.3363 -2.84588 0
M  V30 11707 N 1101.18 1.11143 -1.11736 0
M  V30 11708 C 1102.13 2.19358 -0.773626 0
M  V30 11709 C 1103.13 1.67744 0.236288 0
M  V30 11710 O 1104.33 1.79748 0.09525 0
M  V30 11711 H 1100.71 0.715218 -0.232309 0
M  V30 11712 H 1102.68 2.45594 -1.69487 0
M  V30 11713 C 1101.43 3.46895 -0.236457 0
M  V30 11714 H 1100.75 3.86967 -1.00483 0
M  V30 11715 H 1102.19 4.23986 -0.034168 0
M  V30 11716 C 1100.65 3.20641 1.03397 0
M  V30 11717 O 1101.18 3.41629 2.11312 0
M  V30 11718 N 1099.39 2.74356 0.957986 0
M  V30 11719 H 1098.93 2.57477 0.0796924 0
M  V30 11720 H 1098.89 2.57166 1.80867 0
M  V30 11721 N 1102.66 0.908147 1.28804 0
M  V30 11722 C 1103.89 0.553287 1.99054 0
M  V30 11723 C 1104.3 -0.868455 1.68091 0
M  V30 11724 O 1103.64 -1.58599 0.926939 0
M  V30 11725 C 1103.71 0.675823 3.5309 0
M  V30 11726 C 1103.37 2.06608 4.0763 0
M  V30 11727 C 1104.37 3.03819 4.21889 0
M  V30 11728 C 1102.05 2.37775 4.42457 0
M  V30 11729 C 1104.05 4.30316 4.7022 0
M  V30 11730 C 1101.73 3.64512 4.90484 0
M  V30 11731 C 1102.73 4.60597 5.04321 0
M  V30 11732 O 1102.42 5.85082 5.51302 0
M  V30 11733 H 1102.15 0.210152 0.642504 0
M  V30 11734 H 1104.7 1.22188 1.65104 0
M  V30 11735 H 1102.93 -0.0498253 3.86668 0
M  V30 11736 H 1104.62 0.328884 4.04565 0
M  V30 11737 H 1105.39 2.81057 3.95262 0
M  V30 11738 H 1101.27 1.63742 4.3094 0
M  V30 11739 H 1104.81 5.05318 4.80936 0
M  V30 11740 H 1100.71 3.87101 5.1655 0
M  V30 11741 H 1101.48 5.87791 5.69599 0
M  V30 11742 N 1104.14 -1.42577 0.671525 0
M  V30 11743 C 1105.07 -2.2915 -0.0477361 0
M  V30 11744 C 1106.09 -1.43503 -0.768805 0
M  V30 11745 O 1107.27 -1.67256 -0.623509 0
M  V30 11746 C 1104.37 -3.20851 -1.09122 0
M  V30 11747 C 1103.55 -4.35134 -0.44463 0
M  V30 11748 C 1102.61 -5.07579 -1.38745 0
M  V30 11749 O 1101.63 -5.62215 -0.889015 0
M  V30 11750 N 1102.83 -5.12786 -2.72086 0
M  V30 11751 H 1105.6 -2.9152 0.695415 0
M  V30 11752 H 1103.16 -1.53467 0.515689 0
M  V30 11753 H 1105.15 -3.66183 -1.72315 0
M  V30 11754 H 1103.72 -2.59956 -1.73614 0
M  V30 11755 H 1102.94 -3.9249 0.36675 0
M  V30 11756 H 1104.23 -5.088 0.00595927 0
M  V30 11757 H 1103.63 -4.69802 -3.15123 0
M  V30 11758 H 1102.19 -5.61774 -3.30535 0
M  V30 11759 N 1105.62 -0.414636 -1.52048 0
M  V30 11760 C 1106.57 0.422766 -2.28726 0
M  V30 11761 C 1107.56 1.04099 -1.3364 0
M  V30 11762 O 1108.77 0.978559 -1.51077 0
M  V30 11763 H 1105.14 0.155123 -0.735827 0
M  V30 11764 H 1107.11 -0.245091 -2.97392 0
M  V30 11765 C 1105.86 1.52418 -3.12513 0
M  V30 11766 H 1105.18 1.05781 -3.85552 0
M  V30 11767 H 1106.62 2.08382 -3.6926 0
M  V30 11768 C 1105.08 2.49465 -2.26426 0
M  V30 11769 O 1105.61 3.53479 -1.90829 0
M  V30 11770 N 1103.82 2.19806 -1.90088 0
M  V30 11771 H 1103.37 1.35253 -2.19236 0
M  V30 11772 H 1103.32 2.84984 -1.32783 0
M  V30 11773 N 1107.1 1.56929 -0.145233 0
M  V30 11774 C 1108.34 1.96358 0.50707 0
M  V30 11775 C 1108.68 1.03005 1.64632 0
M  V30 11776 O 1107.95 0.0721045 1.94366 0
M  V30 11777 C 1108.23 3.45502 1.01492 0
M  V30 11778 C 1108.09 4.49633 -0.122708 0
M  V30 11779 C 1109.41 3.97103 1.89729 0
M  V30 11780 H 1106.52 0.713958 0.182848 0
M  V30 11781 H 1109.17 1.8865 -0.226102 0
M  V30 11782 H 1107.32 3.52202 1.6397 0
M  V30 11783 H 1108.99 4.55013 -0.758988 0
M  V30 11784 H 1107.23 4.26691 -0.782109 0
M  V30 11785 H 1107.9 5.51318 0.27432 0
M  V30 11786 H 1110.38 3.92871 1.37082 0
M  V30 11787 H 1109.25 5.01927 2.22173 0
M  V30 11788 H 1109.52 3.39354 2.83357 0
M  V30 11789 N 1108.58 -0.128553 1.57075 0
M  V30 11790 C 1109.49 -1.17718 2.02927 0
M  V30 11791 C 1110.5 -1.45912 0.947932 0
M  V30 11792 O 1111.68 -1.57217 1.25876 0
M  V30 11793 C 1108.74 -2.48625 2.41633 0
M  V30 11794 C 1107.8 -2.27914 3.63804 0
M  V30 11795 C 1107.04 -3.52579 4.00654 0
M  V30 11796 O 1107.26 -4.59505 3.37952 0
M  V30 11797 O 1106.19 -3.44147 4.93808 0
M  V30 11798 H 1110.02 -0.817846 2.92481 0
M  V30 11799 H 1107.6 -0.338649 1.45511 0
M  V30 11800 H 1109.49 -3.2577 2.67305 0
M  V30 11801 H 1108.16 -2.84052 1.55229 0
M  V30 11802 H 1107.07 -1.4866 3.43294 0
M  V30 11803 H 1108.4 -1.97395 4.50883 0
M  V30 11804 N 1110.05 -1.5248 -0.398459 0
M  V30 11805 C 1111.28 -1.70677 -1.16417 0
M  V30 11806 C 1111.69 -0.420629 -1.84465 0
M  V30 11807 O 1111.03 0.614013 -1.73135 0
M  V30 11808 C 1111.1 -2.79401 -2.2622 0
M  V30 11809 C 1110.76 -4.20817 -1.78218 0
M  V30 11810 C 1111.76 -5.04298 -1.26409 0
M  V30 11811 C 1109.44 -4.67098 -1.84728 0
M  V30 11812 C 1111.44 -6.32136 -0.817461 0
M  V30 11813 C 1109.12 -5.94923 -1.39676 0
M  V30 11814 C 1110.12 -6.77272 -0.882716 0
M  V30 11815 O 1109.81 -8.02702 -0.438739 0
M  V30 11816 H 1109.54 -0.57503 -0.355411 0
M  V30 11817 H 1112.1 -1.99868 -0.473471 0
M  V30 11818 H 1110.33 -2.4561 -2.98685 0
M  V30 11819 H 1112.01 -2.86093 -2.87933 0
M  V30 11820 H 1112.78 -4.6973 -1.20744 0
M  V30 11821 H 1108.66 -4.03097 -2.23682 0
M  V30 11822 H 1112.2 -6.96361 -0.415548 0
M  V30 11823 H 1108.1 -6.28998 -1.45024 0
M  V30 11824 H 1108.87 -8.16575 -0.561079 0
M  V30 11825 N 1111.53 0.65634 -1.43283 0
M  V30 11826 C 1112.77 1.4281 -1.46235 0
M  V30 11827 C 1113.14 1.9182 -0.0830126 0
M  V30 11828 O 1114.34 2.68797 0.0127701 0
M  V30 11829 C 1112.61 2.58008 -2.47319 0
M  V30 11830 S 1114.17 3.46582 -2.69122 0
M  V30 11831 H 1110.98 0.487523 -0.517534 0
M  V30 11832 H 1113.59 0.762298 -1.80026 0
M  V30 11833 H 1112.29 2.20271 -3.46279 0
M  V30 11834 H 1111.82 3.29441 -2.15016 0
M  V30 11835 H 1113.84 4.54629 -1.98813 0
M  V30 11836 N 1113.01 1.29761 0.894412 0
M  V30 11837 C 1114.26 1.17806 1.64214 0
M  V30 11838 C 1114.58 -0.269588 1.93127 0
M  V30 11839 O 1113.85 -1.18352 1.56107 0
M  V30 11840 H 1112.43 0.433002 0.608702 0
M  V30 11841 H 1115.09 1.6276 1.07216 0
M  V30 11842 H 1114.19 1.73201 2.5963 0
M  V30 11843 N 1114.49 -1.10549 1.12324 0
M  V30 11844 C 1115.4 -2.20428 0.803032 0
M  V30 11845 C 1116.41 -1.72756 -0.207674 0
M  V30 11846 O 1117.59 -2.01357 -0.0415623 0
M  V30 11847 C 1114.65 -3.45716 0.261032 0
M  V30 11848 C 1113.72 -4.08129 1.33152 0
M  V30 11849 C 1112.95 -5.27436 0.815288 0
M  V30 11850 O 1113.17 -5.69317 -0.351361 0
M  V30 11851 O 1112.11 -5.80674 1.58434 0
M  V30 11852 H 1115.93 -2.50249 1.72073 0
M  V30 11853 H 1113.52 -1.19263 0.899815 0
M  V30 11854 H 1115.4 -4.21384 -0.0364007 0
M  V30 11855 H 1114.07 -3.17525 -0.629249 0
M  V30 11856 H 1112.98 -3.3415 1.6821 0
M  V30 11857 H 1114.31 -4.4052 2.19552 0
M  V30 11858 N 1115.97 -0.914965 -1.28321 0
M  V30 11859 C 1116.9 -0.421292 -2.29668 0
M  V30 11860 C 1117.88 0.511743 -1.6222 0
M  V30 11861 O 1119.06 0.419218 -1.89621 0
M  V30 11862 C 1116.19 0.338364 -3.45648 0
M  V30 11863 C 1115.15 -0.505646 -4.25003 0
M  V30 11864 C 1114.47 0.382421 -5.33331 0
M  V30 11865 C 1115.77 -1.76354 -4.91626 0
M  V30 11866 H 1117.47 -1.26826 -2.71211 0
M  V30 11867 H 1115.01 -0.611291 -1.30381 0
M  V30 11868 H 1116.96 0.694578 -4.15636 0
M  V30 11869 H 1115.69 1.21925 -3.02988 0
M  V30 11870 H 1114.35 -0.844395 -3.56743 0
M  V30 11871 H 1114 1.26189 -4.86914 0
M  V30 11872 H 1113.7 -0.17871 -5.87328 0
M  V30 11873 H 1115.22 0.73449 -6.06166 0
M  V30 11874 H 1116.63 -1.47616 -5.5397 0
M  V30 11875 H 1115.03 -2.26717 -5.55625 0
M  V30 11876 H 1116.1 -2.49063 -4.16048 0
M  V30 11877 N 1117.44 1.42219 -0.679077 0
M  V30 11878 C 1118.39 2.308 -0.00340316 0
M  V30 11879 C 1119.36 1.462 0.788334 0
M  V30 11880 O 1120.55 1.75023 0.759716 0
M  V30 11881 C 1117.69 3.32084 0.938854 0
M  V30 11882 C 1116.8 4.31772 0.140485 0
M  V30 11883 C 1115.93 5.20128 1.07888 0
M  V30 11884 C 1114.97 6.11493 0.27245 0
M  V30 11885 N 1114.11 6.92388 1.16378 0
M  V30 11886 H 1118.95 2.88024 -0.764587 0
M  V30 11887 H 1116.49 1.41869 -0.38878 0
M  V30 11888 H 1118.44 3.89339 1.49903 0
M  V30 11889 H 1117.07 2.76448 1.66662 0
M  V30 11890 H 1116.13 3.76599 -0.536376 0
M  V30 11891 H 1117.44 4.96432 -0.485433 0
M  V30 11892 H 1116.59 5.82137 1.70884 0
M  V30 11893 H 1115.33 4.55655 1.73868 0
M  V30 11894 H 1114.34 5.48549 -0.370693 0
M  V30 11895 H 1115.56 6.78017 -0.383315 0
M  V30 11896 H 1113.51 6.30538 1.8099 0
M  V30 11897 H 1113.42 7.5367 0.593043 0
M  V30 11898 H 1114.69 7.58879 1.78107 0
M  V30 11899 N 1118.92 0.422693 1.51826 0
M  V30 11900 C 1120.17 -0.148348 2.01555 0
M  V30 11901 C 1120.49 -1.44483 1.30956 0
M  V30 11902 O 1119.76 -1.90904 0.439599 0
M  V30 11903 H 1118.34 -0.0578116 0.74476 0
M  V30 11904 H 1121 0.562046 1.8662 0
M  V30 11905 H 1120.1 -0.334766 3.10299 0
M  V30 11906 N 1120.4 -1.5685 0.153553 0
M  V30 11907 C 1121.68 -1.8796 -0.541328 0
M  V30 11908 C 1122.06 -1.06059 -1.82523 0
M  V30 11909 O 1121.4 -0.149295 -2.28012 0
M  V30 11910 C 1121.61 -3.39697 -0.800442 0
M  V30 11911 C 1122.96 -4.09057 -1.13832 0
M  V30 11912 O 1123.99 -3.44913 -0.889578 0
M  V30 11913 O 1122.85 -5.22347 -1.60673 0
M  V30 11914 H 1119.94 -0.779268 -0.276895 0
M  V30 11915 H 1122.49 -1.68626 0.190657 0
M  V30 11916 H 1121.26 -3.91151 0.107935 0
M  V30 11917 H 1120.88 -3.64582 -1.58638 0
M  V30 11918 N 1121.88 0.120221 -1.57141 0
M  V30 11919 C 1123.29 0.677497 -1.73974 0
M  V30 11920 C 1123.64 1.80371 -0.772055 0
M  V30 11921 O 1122.76 2.16329 0.0553062 0
M  V30 11922 C 1123.36 1.23575 -3.1546 0
M  V30 11923 C 1121.92 1.73933 -3.33803 0
M  V30 11924 C 1121.07 0.638542 -2.69848 0
M  V30 11925 H 1124.02 -0.105685 -1.58348 0
M  V30 11926 H 1124.04 2.10542 -3.16942 0
M  V30 11927 H 1123.55 0.415851 -3.85866 0
M  V30 11928 H 1121.65 2.58404 -2.68437 0
M  V30 11929 H 1121.76 1.84961 -4.41957 0
M  V30 11930 H 1120.13 1.07185 -2.31049 0
M  V30 11931 H 1120.91 -0.170356 -3.42877 0
M  V30 11932 N 1123.36 1.52689 0.390367 0
M  V30 11933 C 1124.58 1.71541 1.15678 0
M  V30 11934 C 1125 0.433171 1.83764 0
M  V30 11935 O 1124.36 -0.592248 1.72623 0
M  V30 11936 C 1124.41 2.864 2.20584 0
M  V30 11937 O 1124.13 4.0966 1.55274 0
M  V30 11938 C 1125.63 3.1692 3.09962 0
M  V30 11939 H 1122.85 0.574381 0.346883 0
M  V30 11940 H 1125.39 1.99332 0.456851 0
M  V30 11941 H 1123.55 2.61075 2.86214 0
M  V30 11942 H 1123.96 4.73802 2.2497 0
M  V30 11943 H 1125.44 4.00755 3.79604 0
M  V30 11944 H 1125.91 2.31245 3.73393 0
M  V30 11945 H 1126.52 3.4408 2.49979 0
M  V30 11946 N 1124.83 -0.648732 1.43629 0
M  V30 11947 C 1125.77 -1.77363 1.43589 0
M  V30 11948 C 1126.75 -1.59869 0.296783 0
M  V30 11949 O 1127.93 -1.81991 0.491065 0
M  V30 11950 C 1125.06 -3.1472 1.25175 0
M  V30 11951 C 1124.1 -3.50906 2.4242 0
M  V30 11952 S 1124.94 -3.50372 4.04968 0
M  V30 11953 C 1126.09 -4.90379 3.88946 0
M  V30 11954 H 1126.32 -1.77127 2.38774 0
M  V30 11955 H 1123.86 -0.821778 1.30714 0
M  V30 11956 H 1125.82 -3.93993 1.15239 0
M  V30 11957 H 1124.48 -3.12513 0.315303 0
M  V30 11958 H 1123.67 -4.50813 2.25353 0
M  V30 11959 H 1123.27 -2.79056 2.49006 0
M  V30 11960 H 1125.56 -5.79155 3.51548 0
M  V30 11961 H 1126.51 -5.12498 4.88622 0
M  V30 11962 H 1126.91 -4.64125 3.21323 0
M  V30 11963 N 1126.31 -1.30234 -0.887518 0
M  V30 11964 C 1127.54 -1.21955 -1.67755 0
M  V30 11965 C 1127.96 0.214701 -1.86871 0
M  V30 11966 O 1127.32 1.15459 -1.39782 0
M  V30 11967 C 1127.37 -1.95079 -3.03276 0
M  V30 11968 O 1126.47 -1.27615 -3.92158 0
M  V30 11969 H 1125.81 -0.421948 -0.512695 0
M  V30 11970 H 1128.34 -1.72011 -1.10785 0
M  V30 11971 H 1128.35 -2.04004 -3.53336 0
M  V30 11972 H 1127.03 -2.99392 -2.88682 0
M  V30 11973 H 1125.61 -1.27029 -3.50597 0
M  V30 11974 N 1127.79 1.09952 -1.12909 0
M  V30 11975 C 1129.04 1.82467 -0.898733 0
M  V30 11976 C 1129.39 1.83788 0.569196 0
M  V30 11977 O 1128.68 1.29117 1.4156 0
M  V30 11978 C 1128.88 3.28252 -1.41369 0
M  V30 11979 C 1128.71 3.41133 -2.93015 0
M  V30 11980 C 1127.48 3.53253 -3.61304 0
M  V30 11981 C 1129.68 3.34118 -3.90986 0
M  V30 11982 N 1127.66 3.54762 -5.01016 0
M  V30 11983 C 1129.03 3.42431 -5.16857 0
M  V30 11984 C 1131.08 3.1775 -3.83327 0
M  V30 11985 C 1129.79 3.36063 -6.35967 0
M  V30 11986 C 1131.81 3.12705 -5.01966 0
M  V30 11987 C 1131.17 3.21605 -6.26697 0
M  V30 11988 H 1127.27 0.682232 -0.382208 0
M  V30 11989 H 1129.86 1.31446 -1.43631 0
M  V30 11990 H 1128.03 3.77755 -0.903097 0
M  V30 11991 H 1129.76 3.88752 -1.12489 0
M  V30 11992 H 1126.52 3.56472 -3.11809 0
M  V30 11993 H 1126.94 3.59115 -5.73904 0
M  V30 11994 H 1131.58 3.09742 -2.87784 0
M  V30 11995 H 1129.3 3.42835 -7.31772 0
M  V30 11996 H 1132.89 3.01183 -4.97775 0
M  V30 11997 H 1131.77 3.1771 -7.16959 0
M  V30 11998 N 1129.27 0.921757 1.27833 0
M  V30 11999 C 1130.22 0.406628 2.29018 0
M  V30 12000 C 1131.21 -0.505914 1.61669 0
M  V30 12001 O 1132.42 -0.386273 1.75807 0
M  V30 12002 H 1128.79 0.112914 0.743475 0
M  V30 12003 H 1130.76 1.27295 2.69886 0
M  V30 12004 C 1129.51 -0.330783 3.46123 0
M  V30 12005 H 1128.83 0.362207 3.98156 0
M  V30 12006 H 1130.27 -0.655738 4.18899 0
M  V30 12007 C 1128.73 -1.54161 2.9956 0
M  V30 12008 O 1129.26 -2.64052 3.0272 0
M  V30 12009 N 1127.47 -1.39137 2.55126 0
M  V30 12010 H 1127.02 -0.497319 2.52754 0
M  V30 12011 H 1126.97 -2.20278 2.24333 0
M  V30 12012 N 1130.75 -1.41857 0.686609 0
M  V30 12013 C 1132.02 -1.95082 0.142228 0
M  V30 12014 C 1132.4 -1.62646 -1.34572 0
M  V30 12015 O 1131.75 -0.928757 -2.08773 0
M  V30 12016 C 1131.96 -3.46415 0.423955 0
M  V30 12017 C 1133.31 -4.23181 0.346842 0
M  V30 12018 O 1134.33 -3.54393 0.358363 0
M  V30 12019 O 1133.19 -5.4568 0.299211 0
M  V30 12020 H 1130.29 -0.826943 0.00974 0
M  V30 12021 H 1132.83 -1.51622 0.762153 0
M  V30 12022 H 1131.6 -3.63273 1.45424 0
M  V30 12023 H 1131.23 -3.96949 -0.227391 0
M  V30 12024 N 1132.22 -0.430739 -1.51599 0
M  V30 12025 C 1133.47 0.139396 -2.01218 0
M  V30 12026 C 1133.79 1.44361 -1.31982 0
M  V30 12027 O 1134.99 2.0963 -1.72533 0
M  V30 12028 C 1133.45 0.298969 -3.58656 0
M  V30 12029 C 1133.06 -0.994424 -4.36824 0
M  V30 12030 C 1134.8 0.82323 -4.16441 0
M  V30 12031 C 1132.71 -0.800855 -5.85952 0
M  V30 12032 H 1131.64 0.0558698 -0.751927 0
M  V30 12033 H 1134.29 -0.559493 -1.74762 0
M  V30 12034 H 1132.67 1.06071 -3.8153 0
M  V30 12035 H 1133.84 -1.76398 -4.257 0
M  V30 12036 H 1132.16 -1.44672 -3.9046 0
M  V30 12037 H 1134.76 0.984434 -5.2556 0
M  V30 12038 H 1135.1 1.80388 -3.75188 0
M  V30 12039 H 1135.63 0.119982 -3.97619 0
M  V30 12040 H 1132.37 -1.75369 -6.31606 0
M  V30 12041 H 1131.89 -0.0709793 -5.99758 0
M  V30 12042 H 1133.57 -0.451459 -6.45423 0
M  V30 12043 N 1133.7 1.56767 -0.161869 0
M  V30 12044 C 1134.65 2.18807 0.789074 0
M  V30 12045 C 1135.64 1.14934 1.24445 0
M  V30 12046 O 1136.85 1.33154 1.2112 0
M  V30 12047 H 1133.23 0.700808 0.272713 0
M  V30 12048 H 1135.2 2.97419 0.241766 0
M  V30 12049 C 1133.95 2.83568 2.01207 0
M  V30 12050 H 1133.27 3.63219 1.67068 0
M  V30 12051 H 1134.71 3.3046 2.65654 0
M  V30 12052 C 1133.17 1.82846 2.82964 0
M  V30 12053 O 1133.7 1.30809 3.79805 0
M  V30 12054 N 1131.9 1.51815 2.47791 0
M  V30 12055 H 1131.45 1.94325 1.69103 0
M  V30 12056 H 1131.41 0.846742 3.02783 0
M  V30 12057 N 1135.18 -0.111886 1.57202 0
M  V30 12058 C 1136.42 -0.82422 1.87045 0
M  V30 12059 C 1136.78 -1.76713 0.750765 0
M  V30 12060 O 1137.99 -2.52157 0.931154 0
M  V30 12061 C 1136.26 -1.5483 3.22122 0
M  V30 12062 S 1137.82 -2.30123 3.73616 0
M  V30 12063 H 1134.63 -0.274945 0.655687 0
M  V30 12064 H 1137.24 -0.0821899 1.95327 0
M  V30 12065 H 1135.94 -0.847704 4.0155 0
M  V30 12066 H 1135.47 -2.33056 3.16936 0
M  V30 12067 H 1137.49 -3.5597 3.45687 0
M  V30 12068 N 1136.66 -1.52894 -0.382264 0
M  V30 12069 C 1137.57 -1.81084 -1.4915 0
M  V30 12070 C 1138.58 -0.698045 -1.59384 0
M  V30 12071 O 1139.76 -0.98635 -1.75594 0
M  V30 12072 C 1136.83 -1.97987 -2.84608 0
M  V30 12073 C 1135.89 -3.219 -2.8404 0
M  V30 12074 C 1135.12 -3.37988 -4.13037 0
M  V30 12075 O 1135.34 -2.58733 -5.08344 0
M  V30 12076 O 1134.28 -4.31273 -4.19866 0
M  V30 12077 H 1138.1 -2.75289 -1.28257 0
M  V30 12078 H 1135.69 -1.38068 -0.57076 0
M  V30 12079 H 1137.57 -2.10773 -3.64901 0
M  V30 12080 H 1136.24 -1.06972 -3.05514 0
M  V30 12081 H 1135.15 -3.14551 -2.02505 0
M  V30 12082 H 1136.48 -4.12783 -2.68087 0
M  V30 12083 N 1138.14 0.641106 -1.43971 0
M  V30 12084 C 1139.09 1.74699 -1.46507 0
M  V30 12085 C 1140.07 1.57437 -0.332037 0
M  V30 12086 O 1141.26 1.67343 -0.576663 0
M  V30 12087 C 1138.39 3.13344 -1.40252 0
M  V30 12088 C 1137.48 3.3611 -2.58632 0
M  V30 12089 N 1137.87 3.29291 -3.83929 0
M  V30 12090 C 1136.17 3.66873 -2.53615 0
M  V30 12091 C 1136.87 3.52472 -4.62751 0
M  V30 12092 N 1135.84 3.74868 -3.93668 0
M  V30 12093 H 1139.65 1.67869 -2.41241 0
M  V30 12094 H 1137.16 0.843217 -1.38793 0
M  V30 12095 H 1139.16 3.92636 -1.40153 0
M  V30 12096 H 1137.82 3.21346 -0.46549 0
M  V30 12097 H 1138.83 3.08431 -4.16041 0
M  V30 12098 H 1135.51 3.81917 -1.68659 0
M  V30 12099 H 1136.9 3.52876 -5.71776 0
M  V30 12100 N 1139.62 1.30703 0.880598 0
M  V30 12101 C 1140.55 1.20033 2.00286 0
M  V30 12102 C 1141.53 0.0899614 1.69862 0
M  V30 12103 O 1142.71 0.272747 1.92275 0
M  V30 12104 C 1139.84 0.895902 3.35546 0
M  V30 12105 C 1138.8 1.96468 3.80242 0
M  V30 12106 C 1138.12 1.51316 5.12843 0
M  V30 12107 C 1139.42 3.37637 3.98496 0
M  V30 12108 H 1141.12 2.13922 2.0947 0
M  V30 12109 H 1138.66 1.02989 1.00644 0
M  V30 12110 H 1140.61 0.807899 4.13583 0
M  V30 12111 H 1139.34 -0.0786636 3.26505 0
M  V30 12112 H 1138 2.0424 3.04437 0
M  V30 12113 H 1137.65 0.52674 5.00234 0
M  V30 12114 H 1137.35 2.22807 5.43719 0
M  V30 12115 H 1138.87 1.43903 5.93401 0
M  V30 12116 H 1140.28 3.326 4.66959 0
M  V30 12117 H 1138.68 4.07253 4.40755 0
M  V30 12118 H 1139.75 3.79205 3.02211 0
M  V30 12119 N 1141.09 -1.09351 1.1349 0
M  V30 12120 C 1142.04 -2.18099 0.808426 0
M  V30 12121 C 1143.04 -1.68099 -0.209571 0
M  V30 12122 O 1144.24 -1.79877 -0.0666417 0
M  V30 12123 H 1140.62 -0.711432 0.243658 0
M  V30 12124 H 1142.59 -2.42867 1.73373 0
M  V30 12125 C 1141.34 -3.46475 0.291615 0
M  V30 12126 H 1140.66 -3.85319 1.06627 0
M  V30 12127 H 1142.1 -4.23878 0.101616 0
M  V30 12128 C 1140.56 -3.22245 -0.982827 0
M  V30 12129 O 1141.09 -3.44947 -2.0585 0
M  V30 12130 N 1139.29 -2.75845 -0.914218 0
M  V30 12131 H 1138.84 -2.57571 -0.03872 0
M  V30 12132 H 1138.8 -2.60011 -1.76753 0
M  V30 12133 N 1142.57 -0.928524 -1.27343 0
M  V30 12134 C 1143.52 -0.418768 -2.28799 0
M  V30 12135 C 1144.51 0.497334 -1.61935 0
M  V30 12136 O 1145.72 0.376945 -1.76009 0
M  V30 12137 H 1142.09 -0.116855 -0.742865 0
M  V30 12138 H 1144.07 -1.28725 -2.69207 0
M  V30 12139 C 1142.81 0.312422 -3.46294 0
M  V30 12140 H 1142.14 -0.383317 -3.97958 0
M  V30 12141 H 1143.58 0.633514 -4.19241 0
M  V30 12142 C 1142.04 1.5257 -3.00373 0
M  V30 12143 O 1142.57 2.62443 -3.04116 0
M  V30 12144 N 1140.77 1.37782 -2.5586 0
M  V30 12145 H 1140.32 0.483908 -2.53014 0
M  V30 12146 H 1140.28 2.19085 -2.25498 0
M  V30 12147 N 1144.05 1.41491 -0.694123 0
M  V30 12148 C 1145.3 2.02055 -0.233559 0
M  V30 12149 C 1145.65 1.53987 1.1535 0
M  V30 12150 O 1144.94 0.740611 1.76707 0
M  V30 12151 C 1145.14 3.56666 -0.228869 0
M  V30 12152 C 1144.97 4.1974 -1.61394 0
M  V30 12153 C 1143.74 4.54095 -2.21643 0
M  V30 12154 C 1145.93 4.46043 -2.56028 0
M  V30 12155 N 1143.92 5.02449 -3.5273 0
M  V30 12156 C 1145.29 4.96156 -3.71792 0
M  V30 12157 C 1147.34 4.28053 -2.54313 0
M  V30 12158 C 1146.05 5.3017 -4.8612 0
M  V30 12159 C 1148.07 4.63155 -3.67752 0
M  V30 12160 C 1147.43 5.13438 -4.82246 0
M  V30 12161 H 1143.53 0.77098 -0.130821 0
M  V30 12162 H 1146.12 1.72057 -0.91129 0
M  V30 12163 H 1144.29 3.8614 0.418344 0
M  V30 12164 H 1146.02 4.03949 0.246387 0
M  V30 12165 H 1142.77 4.40501 -1.73943 0
M  V30 12166 H 1143.2 5.31033 -4.1992 0
M  V30 12167 H 1147.84 3.88416 -1.67011 0
M  V30 12168 H 1145.56 5.68731 -5.74083 0
M  V30 12169 H 1149.14 4.50895 -3.67675 0
M  V30 12170 H 1148.02 5.4009 -5.6857 0
M  V30 12171 N 1145.53 0.438773 1.51369 0
M  V30 12172 C 1146.78 -0.128723 2.01289 0
M  V30 12173 C 1147.09 -1.43659 1.32745 0
M  V30 12174 O 1148.3 -2.08712 1.73642 0
M  V30 12175 C 1146.75 -0.279945 3.5881 0
M  V30 12176 C 1146.36 1.01758 4.3629 0
M  V30 12177 C 1148.1 -0.801133 4.16872 0
M  V30 12178 C 1146.01 0.831918 5.85519 0
M  V30 12179 H 1144.94 -0.0518814 0.752213 0
M  V30 12180 H 1147.59 0.568753 1.74463 0
M  V30 12181 H 1145.97 -1.04046 3.82087 0
M  V30 12182 H 1147.15 1.78653 4.24758 0
M  V30 12183 H 1145.46 1.46741 3.89687 0
M  V30 12184 H 1148.06 -0.956548 5.26074 0
M  V30 12185 H 1148.4 -1.78396 3.76139 0
M  V30 12186 H 1148.94 -0.0988934 3.97677 0
M  V30 12187 H 1145.67 1.78716 6.30667 0
M  V30 12188 H 1145.19 0.102785 5.99712 0
M  V30 12189 H 1146.87 0.485681 6.45174 0
M  V30 12190 N 1147.01 -1.56678 0.170181 0
M  V30 12191 C 1148.25 -1.98743 -0.477534 0
M  V30 12192 C 1148.61 -1.0538 -1.60497 0
M  V30 12193 O 1149.81 -1.3658 -2.31515 0
M  V30 12194 C 1148.08 -3.44565 -0.949186 0
M  V30 12195 S 1149.64 -4.08658 -1.59824 0
M  V30 12196 H 1146.46 -0.694202 -0.153639 0
M  V30 12197 H 1149.06 -1.93663 0.267373 0
M  V30 12198 H 1147.76 -4.1023 -0.118205 0
M  V30 12199 H 1147.3 -3.53409 -1.72816 0
M  V30 12200 H 1149.31 -4.03614 -2.88635 0
M  V30 12201 N 1148.48 0.103547 -1.57259 0
M  V30 12202 C 1149.42 1.15225 -1.98131 0
M  V30 12203 C 1150.43 1.36793 -0.882692 0
M  V30 12204 O 1151.62 1.35595 -1.16088 0
M  V30 12205 C 1148.72 2.50941 -2.27776 0
M  V30 12206 C 1147.89 2.49765 -3.59077 0
M  V30 12207 C 1146.95 3.67344 -3.76756 0
M  V30 12208 O 1145.98 3.50221 -4.48702 0
M  V30 12209 N 1147.18 4.86504 -3.16692 0
M  V30 12210 H 1149.94 0.804448 -2.88702 0
M  V30 12211 H 1147.5 0.292636 -1.59233 0
M  V30 12212 H 1149.5 3.28186 -2.36804 0
M  V30 12213 H 1148.07 2.77843 -1.43255 0
M  V30 12214 H 1147.29 1.58125 -3.61096 0
M  V30 12215 H 1148.57 2.4605 -4.4535 0
M  V30 12216 H 1147.97 5.03319 -2.58236 0
M  V30 12217 H 1146.53 5.61371 -3.31218 0
M  V30 12218 N 1149.96 1.53094 0.37415 0
M  V30 12219 C 1151.21 1.68082 1.11495 0
M  V30 12220 C 1151.52 0.434685 1.90709 0
M  V30 12221 O 1152.73 0.464956 2.67489 0
M  V30 12222 C 1151.19 2.97101 2.03124 0
M  V30 12223 C 1150.79 4.28947 1.29262 0
M  V30 12224 C 1152.54 3.21456 2.77248 0
M  V30 12225 C 1150.44 5.4906 2.19743 0
M  V30 12226 H 1149.37 0.626238 0.419931 0
M  V30 12227 H 1152.03 1.79594 0.376588 0
M  V30 12228 H 1150.41 2.79371 2.80656 0
M  V30 12229 H 1151.58 4.57279 0.568528 0
M  V30 12230 H 1149.9 4.10968 0.670362 0
M  V30 12231 H 1152.49 4.08377 3.45155 0
M  V30 12232 H 1152.84 2.37153 3.42146 0
M  V30 12233 H 1153.37 3.3982 2.06803 0
M  V30 12234 H 1150.11 6.35815 1.59437 0
M  V30 12235 H 1149.63 5.25019 2.90027 0
M  V30 12236 H 1151.31 5.83517 2.79495 0
M  V30 12237 N 1151.44 -0.633461 1.44309 0
M  V30 12238 C 1152.37 -1.75868 1.4698 0
M  V30 12239 C 1153.38 -1.58691 0.363469 0
M  V30 12240 O 1154.57 -1.67048 0.629075 0
M  V30 12241 C 1151.67 -3.1356 1.28582 0
M  V30 12242 C 1150.85 -3.57217 2.52418 0
M  V30 12243 C 1149.91 -4.73779 2.28954 0
M  V30 12244 O 1148.93 -4.8221 3.02428 0
M  V30 12245 N 1150.13 -5.65324 1.31866 0
M  V30 12246 H 1152.9 -1.74048 2.43983 0
M  V30 12247 H 1150.46 -0.817952 1.39718 0
M  V30 12248 H 1152.45 -3.89255 1.10736 0
M  V30 12249 H 1151.02 -3.10036 0.399529 0
M  V30 12250 H 1150.24 -2.71755 2.85557 0
M  V30 12251 H 1151.53 -3.83136 3.3479 0
M  V30 12252 H 1150.93 -5.61204 0.71179 0
M  V30 12253 H 1149.48 -6.40659 1.19998 0
M  V30 12254 N 1152.92 -1.31168 -0.873655 0
M  V30 12255 C 1153.87 -1.18507 -1.98052 0
M  V30 12256 C 1154.84 -0.0717583 -1.65945 0
M  V30 12257 O 1156.02 -0.243965 -1.89234 0
M  V30 12258 C 1153.16 -0.894571 -3.33304 0
M  V30 12259 C 1152.27 -2.09086 -3.7803 0
M  V30 12260 C 1151.41 -1.73747 -5.01982 0
M  V30 12261 C 1150.45 -2.89805 -5.39147 0
M  V30 12262 N 1149.58 -2.54686 -6.54278 0
M  V30 12263 H 1154.42 -2.13193 -2.08213 0
M  V30 12264 H 1151.96 -1.06056 -1.01934 0
M  V30 12265 H 1153.92 -0.706714 -4.11171 0
M  V30 12266 H 1152.55 0.0154449 -3.22796 0
M  V30 12267 H 1151.6 -2.38961 -2.95976 0
M  V30 12268 H 1152.91 -2.95963 -4.01506 0
M  V30 12269 H 1152.07 -1.51402 -5.87505 0
M  V30 12270 H 1150.81 -0.840553 -4.80402 0
M  V30 12271 H 1149.81 -3.12803 -4.52144 0
M  V30 12272 H 1151.04 -3.802 -5.62694 0
M  V30 12273 H 1148.98 -1.67513 -6.34252 0
M  V30 12274 H 1148.9 -3.35093 -6.77679 0
M  V30 12275 H 1150.17 -2.35725 -7.43003 0
M  V30 12276 N 1154.4 1.08748 -1.14068 0
M  V30 12277 C 1155.64 1.80707 -0.904947 0
M  V30 12278 C 1155.97 1.86478 0.570167 0
M  V30 12279 O 1155.24 1.35536 1.41445 0
M  V30 12280 H 1153.82 0.669261 -0.331811 0
M  V30 12281 H 1156.48 1.31494 -1.43859 0
M  V30 12282 H 1155.57 2.83653 -1.30182 0
M  V30 12283 N 1155.87 0.935264 1.26849 0
M  V30 12284 C 1156.81 0.397539 2.25726 0
M  V30 12285 C 1157.82 -0.475928 1.55688 0
M  V30 12286 O 1159.01 -0.287329 1.76172 0
M  V30 12287 C 1156.11 -0.448308 3.35922 0
M  V30 12288 C 1155.28 0.407624 4.35496 0
M  V30 12289 C 1154.34 -0.376815 5.24849 0
M  V30 12290 O 1153.37 0.218109 5.68782 0
M  V30 12291 N 1154.57 -1.67481 5.55815 0
M  V30 12292 H 1157.33 1.24753 2.72501 0
M  V30 12293 H 1154.89 0.803505 1.40554 0
M  V30 12294 H 1156.89 -0.980338 3.92647 0
M  V30 12295 H 1155.46 -1.19908 2.88688 0
M  V30 12296 H 1154.68 1.12091 3.77928 0
M  V30 12297 H 1155.96 0.992512 4.99026 0
M  V30 12298 H 1155.36 -2.18037 5.21993 0
M  V30 12299 H 1153.92 -2.15321 6.15207 0
M  V30 12300 N 1157.35 -1.41121 0.701616 0
M  V30 12301 C 1158.58 -2.05452 0.244365 0
M  V30 12302 C 1159 -1.5282 -1.10866 0
M  V30 12303 O 1158.35 -0.67893 -1.69401 0
M  V30 12304 C 1158.4 -3.60946 0.200112 0
M  V30 12305 O 1158.12 -4.11632 1.4997 0
M  V30 12306 C 1159.63 -4.42431 -0.277394 0
M  V30 12307 H 1156.85 -0.66151 0.112453 0
M  V30 12308 H 1159.39 -1.80784 0.9559 0
M  V30 12309 H 1157.54 -3.84632 -0.462287 0
M  V30 12310 H 1157.96 -5.05723 1.39084 0
M  V30 12311 H 1159.43 -5.514 -0.257225 0
M  V30 12312 H 1159.91 -4.1898 -1.31728 0
M  V30 12313 H 1160.52 -4.23822 0.354223 0
M  V30 12314 N 1158.83 -0.446794 -1.51134 0
M  V30 12315 C 1160.24 0.0141132 -1.86695 0
M  V30 12316 C 1160.59 1.41095 -1.36333 0
M  V30 12317 O 1159.72 2.04139 -0.718068 0
M  V30 12318 C 1160.31 0.0323866 -3.38785 0
M  V30 12319 C 1158.87 0.437737 -3.73846 0
M  V30 12320 C 1158.02 -0.363436 -2.74908 0
M  V30 12321 H 1160.97 -0.66221 -1.44224 0
M  V30 12322 H 1160.99 0.839865 -3.71115 0
M  V30 12323 H 1160.5 -0.984374 -3.75409 0
M  V30 12324 H 1158.6 1.45975 -3.42815 0
M  V30 12325 H 1158.72 0.155964 -4.78846 0
M  V30 12326 H 1157.08 0.179566 -2.54066 0
M  V30 12327 H 1157.86 -1.37925 -3.14375 0
M  V30 12328 N 1160.31 1.56586 -0.178487 0
M  V30 12329 C 1161.26 2.18309 0.74899 0
M  V30 12330 C 1162.23 1.12525 1.22178 0
M  V30 12331 O 1163.41 1.40706 1.28866 0
M  V30 12332 C 1160.55 2.83353 1.9699 0
M  V30 12333 C 1159.66 4.03618 1.54002 0
M  V30 12334 C 1158.8 4.56567 2.71514 0
M  V30 12335 C 1157.84 5.69226 2.25051 0
M  V30 12336 N 1156.97 6.16654 3.35682 0
M  V30 12337 H 1161.81 2.97217 0.21587 0
M  V30 12338 H 1159.35 1.46794 0.0948182 0
M  V30 12339 H 1161.31 3.19226 2.68609 0
M  V30 12340 H 1159.94 2.07037 2.4766 0
M  V30 12341 H 1158.99 3.73518 0.720298 0
M  V30 12342 H 1160.3 4.85148 1.15901 0
M  V30 12343 H 1159.46 4.94659 3.5128 0
M  V30 12344 H 1158.2 3.7411 3.12879 0
M  V30 12345 H 1157.2 5.30679 1.43734 0
M  V30 12346 H 1158.43 6.5349 1.84736 0
M  V30 12347 H 1156.37 5.37124 3.76609 0
M  V30 12348 H 1156.29 6.93192 3.01697 0
M  V30 12349 H 1157.56 6.59397 4.15711 0
M  V30 12350 N 1161.79 -0.095206 1.57312 0
M  V30 12351 C 1163.2 -0.649733 1.7503 0
M  V30 12352 C 1163.55 -1.7912 0.800652 0
M  V30 12353 O 1162.67 -2.1639 -0.0208831 0
M  V30 12354 C 1163.27 -1.18541 3.17386 0
M  V30 12355 C 1161.83 -1.686 3.36528 0
M  V30 12356 C 1160.97 -0.595531 2.7083 0
M  V30 12357 H 1163.93 0.130863 1.5816 0
M  V30 12358 H 1163.95 -2.05473 3.20252 0
M  V30 12359 H 1163.46 -0.35441 3.86478 0
M  V30 12360 H 1161.56 -2.541 2.72514 0
M  V30 12361 H 1161.67 -1.77907 4.44844 0
M  V30 12362 H 1160.04 -1.03495 2.32725 0
M  V30 12363 H 1160.82 0.224883 3.42563 0
M  V30 12364 N 1163.26 -1.53291 -0.366026 0
M  V30 12365 C 1164.17 -1.82656 -1.47221 0
M  V30 12366 C 1165.19 -0.71491 -1.58635 0
M  V30 12367 O 1166.37 -1.00492 -1.74538 0
M  V30 12368 C 1163.43 -2.00995 -2.82492 0
M  V30 12369 C 1162.49 -3.24895 -2.8061 0
M  V30 12370 C 1161.73 -3.4235 -4.09429 0
M  V30 12371 O 1161.95 -2.6411 -5.05571 0
M  V30 12372 O 1160.88 -4.35702 -4.15268 0
M  V30 12373 H 1164.71 -2.76634 -1.2533 0
M  V30 12374 H 1162.29 -1.38665 -0.556084 0
M  V30 12375 H 1164.18 -2.14632 -3.62645 0
M  V30 12376 H 1162.85 -1.10207 -3.04362 0
M  V30 12377 H 1161.76 -3.16682 -1.99157 0
M  V30 12378 H 1163.09 -4.15604 -2.63694 0
M  V30 12379 N 1164.74 0.6258 -1.44643 0
M  V30 12380 C 1166.15 1.20751 -1.42394 0
M  V30 12381 C 1166.5 1.95685 -0.142047 0
M  V30 12382 O 1165.63 2.02715 0.757332 0
M  V30 12383 C 1166.22 2.1964 -2.57961 0
M  V30 12384 C 1164.78 2.73227 -2.5889 0
M  V30 12385 C 1163.93 1.48315 -2.34303 0
M  V30 12386 H 1166.88 0.416162 -1.53146 0
M  V30 12387 H 1166.9 3.02342 -2.31019 0
M  V30 12388 H 1166.41 1.65073 -3.51244 0
M  V30 12389 H 1164.52 3.31782 -1.69563 0
M  V30 12390 H 1164.63 3.18902 -3.57545 0
M  V30 12391 H 1162.99 1.76634 -1.83501 0
M  V30 12392 H 1163.78 0.956427 -3.29708 0
M  V30 12393 N 1166.22 1.31629 0.866686 0
M  V30 12394 C 1167.45 1.24474 1.65269 0
M  V30 12395 C 1167.86 -0.18939 1.87848 0
M  V30 12396 O 1167.22 -1.12251 1.43895 0
M  V30 12397 C 1167.27 1.98872 3.01881 0
M  V30 12398 O 1166.99 3.36687 2.8031 0
M  V30 12399 C 1168.49 1.98595 3.96327 0
M  V30 12400 H 1165.71 0.429966 0.515141 0
M  V30 12401 H 1168.26 1.73559 1.08156 0
M  V30 12402 H 1166.41 1.53539 3.55675 0
M  V30 12403 H 1166.83 3.74612 3.67105 0
M  V30 12404 H 1168.3 2.55156 4.89489 0
M  V30 12405 H 1168.78 0.969257 4.28371 0
M  V30 12406 H 1169.38 2.43821 3.4847 0
M  V30 12407 N 1167.7 -1.08142 1.14644 0
M  V30 12408 C 1169.11 -1.62061 0.926986 0
M  V30 12409 C 1169.46 -1.88805 -0.533578 0
M  V30 12410 O 1168.59 -1.64753 -1.40305 0
M  V30 12411 C 1169.18 -2.94425 1.67629 0
M  V30 12412 C 1167.74 -3.45118 1.50235 0
M  V30 12413 C 1166.89 -2.19307 1.69705 0
M  V30 12414 H 1169.84 -0.913326 1.29785 0
M  V30 12415 H 1169.86 -3.62987 1.14107 0
M  V30 12416 H 1169.37 -2.74928 2.73927 0
M  V30 12417 H 1167.47 -3.69713 0.462967 0
M  V30 12418 H 1167.59 -4.2169 2.27408 0
M  V30 12419 H 1165.95 -2.28611 1.12291 0
M  V30 12420 H 1166.73 -2.02315 2.77351 0
M  V30 12421 N 1169.18 -0.941978 -1.26351 0
M  V30 12422 C 1170.14 -0.456768 -2.24602 0
M  V30 12423 C 1171.14 0.432574 -1.54872 0
M  V30 12424 O 1172.33 0.23164 -1.72653 0
M  V30 12425 C 1169.46 0.341583 -3.39184 0
M  V30 12426 H 1170.66 -1.32503 -2.69041 0
M  V30 12427 H 1168.21 -0.724021 -1.38519 0
M  V30 12428 H 1168.94 1.22806 -3.00149 0
M  V30 12429 H 1168.73 -0.296268 -3.90979 0
M  V30 12430 H 1170.22 0.670955 -4.12175 0
M  V30 12431 N 1170.66 1.40747 -0.709091 0
M  V30 12432 C 1172.07 1.83955 -0.318968 0
M  V30 12433 C 1172.42 1.59304 1.14527 0
M  V30 12434 O 1171.54 1.07052 1.88066 0
M  V30 12435 C 1172.14 3.33934 -0.572147 0
M  V30 12436 C 1170.7 3.75661 -0.235802 0
M  V30 12437 C 1169.84 2.64024 -0.847743 0
M  V30 12438 H 1172.79 1.30107 -0.908734 0
M  V30 12439 H 1172.82 3.80143 0.164752 0
M  V30 12440 H 1172.33 3.51844 -1.63791 0
M  V30 12441 H 1170.43 3.63348 0.825164 0
M  V30 12442 H 1170.54 4.73955 -0.700263 0
M  V30 12443 H 1168.91 2.53197 -0.276283 0
M  V30 12444 H 1169.69 2.84748 -1.91765 0
M  V30 12445 N 1172.13 0.454803 1.50895 0
M  V30 12446 C 1173.07 -0.383826 2.25963 0
M  V30 12447 C 1174.08 -0.971263 1.30653 0
M  V30 12448 O 1175.27 -0.862434 1.56283 0
M  V30 12449 C 1172.37 -1.55069 3.01342 0
M  V30 12450 C 1171.54 -1.07899 4.23883 0
M  V30 12451 C 1170.6 -2.118 4.81692 0
M  V30 12452 O 1169.63 -1.70523 5.43057 0
M  V30 12453 N 1170.83 -3.44459 4.67256 0
M  V30 12454 H 1173.59 0.259646 2.98573 0
M  V30 12455 H 1171.15 0.284661 1.59378 0
M  V30 12456 H 1173.15 -2.24236 3.36898 0
M  V30 12457 H 1171.72 -2.09917 2.31633 0
M  V30 12458 H 1170.94 -0.213773 3.9362 0
M  V30 12459 H 1172.22 -0.741501 5.03368 0
M  V30 12460 H 1171.62 -3.80716 4.18416 0
M  V30 12461 H 1170.18 -4.0947 5.07127 0
M  V30 12462 N 1173.61 -1.56489 0.186789 0
M  V30 12463 C 1174.89 -1.89066 -0.501337 0
M  V30 12464 C 1175.27 -1.09906 -1.80233 0
M  V30 12465 O 1174.62 -0.197626 -2.27644 0
M  V30 12466 C 1174.83 -3.41318 -0.728207 0
M  V30 12467 C 1176.17 -4.11379 -1.0513 0
M  V30 12468 O 1177.2 -3.46722 -0.816216 0
M  V30 12469 O 1176.06 -5.25638 -1.49557 0
M  V30 12470 H 1173.15 -0.784966 -0.260303 0
M  V30 12471 H 1175.7 -1.68183 0.226382 0
M  V30 12472 H 1174.47 -3.90834 0.19088 0
M  V30 12473 H 1174.09 -3.67865 -1.50869 0
M  V30 12474 N 1175.09 0.086862 -1.5736 0
M  V30 12475 C 1176.04 1.12359 -2.03662 0
M  V30 12476 C 1177.03 1.40982 -0.939169 0
M  V30 12477 O 1178.24 1.40566 -1.12433 0
M  V30 12478 H 1174.61 0.379605 -0.649156 0
M  V30 12479 H 1176.58 0.706822 -2.89908 0
M  V30 12480 C 1175.33 2.43327 -2.48369 0
M  V30 12481 H 1174.66 2.22148 -3.324 0
M  V30 12482 H 1176.1 3.14351 -2.84534 0
M  V30 12483 C 1174.55 3.08214 -1.36036 0
M  V30 12484 O 1175.08 3.95659 -0.694063 0
M  V30 12485 N 1173.29 2.68596 -1.10927 0
M  V30 12486 H 1172.84 1.97578 -1.6529 0
M  V30 12487 H 1172.8 3.12336 -0.359679 0
M  V30 12488 N 1176.57 1.53483 0.357892 0
M  V30 12489 C 1177.98 1.61641 0.934289 0
M  V30 12490 C 1178.33 0.488655 1.90017 0
M  V30 12491 O 1177.45 -0.38378 2.1297 0
M  V30 12492 C 1178.05 2.92987 1.7013 0
M  V30 12493 C 1176.61 3.03456 2.22692 0
M  V30 12494 C 1175.76 2.56992 1.04165 0
M  V30 12495 H 1178.71 1.58112 0.136452 0
M  V30 12496 H 1178.73 2.81221 2.5631 0
M  V30 12497 H 1178.24 3.75047 0.998056 0
M  V30 12498 H 1176.34 2.25999 2.96235 0
M  V30 12499 H 1176.45 4.08673 2.50046 0
M  V30 12500 H 1174.82 2.12052 1.41088 0
M  V30 12501 H 1175.6 3.41477 0.353272 0
M  V30 12502 N 1178.05 -0.61812 1.44973 0
M  V30 12503 C 1179.46 -1.19994 1.43033 0
M  V30 12504 C 1179.81 -1.95607 0.152422 0
M  V30 12505 O 1178.93 -2.03114 -0.746571 0
M  V30 12506 C 1179.53 -2.18269 2.59122 0
M  V30 12507 C 1178.09 -2.7185 2.60336 0
M  V30 12508 C 1177.23 -1.4707 2.35086 0
M  V30 12509 H 1180.18 -0.408034 1.53365 0
M  V30 12510 H 1180.21 -3.01113 2.32619 0
M  V30 12511 H 1179.72 -1.63208 3.52115 0
M  V30 12512 H 1177.82 -3.30878 1.7132 0
M  V30 12513 H 1177.93 -3.17001 3.59231 0
M  V30 12514 H 1176.3 -1.75658 1.84435 0
M  V30 12515 H 1177.08 -0.938928 3.30211 0
M  V30 12516 N 1179.52 -1.32087 -0.859693 0
M  V30 12517 C 1180.77 -1.22542 -1.6159 0
M  V30 12518 C 1181.1 0.213533 -1.93022 0
M  V30 12519 O 1180.38 1.14931 -1.56911 0
M  V30 12520 C 1180.66 -2.08004 -2.93949 0
M  V30 12521 C 1180.51 -3.60252 -2.6933 0
M  V30 12522 C 1181.83 -1.93732 -3.95166 0
M  V30 12523 H 1178.95 -0.446504 -0.586347 0
M  V30 12524 H 1181.59 -1.61982 -0.993064 0
M  V30 12525 H 1179.74 -1.74498 -3.47106 0
M  V30 12526 H 1181.42 -4.03947 -2.22766 0
M  V30 12527 H 1179.66 -3.83169 -2.03382 0
M  V30 12528 H 1180.33 -4.1537 -3.63555 0
M  V30 12529 H 1182.81 -2.23075 -3.5125 0
M  V30 12530 H 1181.68 -2.55815 -4.85644 0
M  V30 12531 H 1181.94 -0.903528 -4.32769 0
M  V30 12532 N 1181 1.07532 -1.15215 0
M  V30 12533 C 1182.23 1.83817 -0.949687 0
M  V30 12534 C 1182.64 1.82004 0.501991 0
M  V30 12535 O 1182 1.23014 1.34811 0
M  V30 12536 C 1182.05 3.30978 -1.45382 0
M  V30 12537 O 1181.77 3.32844 -2.84863 0
M  V30 12538 C 1183.27 4.24037 -1.29257 0
M  V30 12539 H 1180.49 0.58 -0.337404 0
M  V30 12540 H 1183.04 1.35752 -1.52944 0
M  V30 12541 H 1181.19 3.76399 -0.916638 0
M  V30 12542 H 1181.61 4.24773 -3.07682 0
M  V30 12543 H 1183.08 5.25371 -1.69379 0
M  V30 12544 H 1183.56 4.38563 -0.236519 0
M  V30 12545 H 1184.16 3.8445 -1.81874 0
M  V30 12546 N 1182.48 0.948665 1.2585 0
M  V30 12547 C 1183.39 0.470525 2.29833 0
M  V30 12548 C 1184.41 -0.45919 1.67832 0
M  V30 12549 O 1185.58 -0.336893 1.98562 0
M  V30 12550 C 1182.65 -0.249635 3.458 0
M  V30 12551 C 1181.71 0.717559 4.23261 0
M  V30 12552 C 1180.94 0.0316724 5.33691 0
M  V30 12553 O 1181.16 -1.18384 5.5798 0
M  V30 12554 O 1180.1 0.71418 5.97648 0
M  V30 12555 H 1183.92 1.33447 2.72811 0
M  V30 12556 H 1181.51 0.714864 1.31187 0
M  V30 12557 H 1183.39 -0.654993 4.16279 0
M  V30 12558 H 1182.07 -1.08885 3.04837 0
M  V30 12559 H 1180.97 1.17301 3.55234 0
M  V30 12560 H 1182.31 1.52461 4.67992 0
M  V30 12561 N 1183.96 -1.40369 0.716545 0
M  V30 12562 C 1185.24 -1.94737 0.183576 0
M  V30 12563 C 1185.62 -1.65464 -1.31092 0
M  V30 12564 O 1184.96 -0.972832 -2.06756 0
M  V30 12565 C 1185.17 -3.45438 0.497339 0
M  V30 12566 C 1186.52 -4.2235 0.436526 0
M  V30 12567 O 1187.55 -3.53553 0.433454 0
M  V30 12568 O 1186.4 -5.44923 0.41489 0
M  V30 12569 H 1183.5 -0.82655 0.0272785 0
M  V30 12570 H 1186.04 -1.49972 0.794143 0
M  V30 12571 H 1184.82 -3.60107 1.53097 0
M  V30 12572 H 1184.44 -3.97342 -0.143141 0
M  V30 12573 N 1185.44 -0.462799 -1.50652 0
M  V30 12574 C 1186.68 0.0948568 -2.01877 0
M  V30 12575 C 1187.01 1.4096 -1.34741 0
M  V30 12576 O 1186.28 1.89671 -0.49006 0
M  V30 12577 H 1184.86 0.0380453 -0.746031 0
M  V30 12578 H 1187.52 -0.611327 -1.85064 0
M  V30 12579 H 1186.61 0.252378 -3.11078 0
M  V30 12580 N 1186.91 1.56388 -0.195085 0
M  V30 12581 C 1188.16 1.98634 0.437717 0
M  V30 12582 C 1188.52 1.07985 1.59239 0
M  V30 12583 O 1187.81 0.124261 1.91197 0
M  V30 12584 C 1188 3.44651 0.946051 0
M  V30 12585 C 1187.83 4.49423 -0.157828 0
M  V30 12586 C 1186.6 5.01538 -0.615457 0
M  V30 12587 C 1188.8 5.05132 -0.966773 0
M  V30 12588 N 1186.78 5.89974 -1.69716 0
M  V30 12589 C 1188.15 5.90238 -1.89788 0
M  V30 12590 C 1190.21 4.87565 -1.00919 0
M  V30 12591 C 1188.91 6.59655 -2.86788 0
M  V30 12592 C 1190.94 5.57722 -1.96724 0
M  V30 12593 C 1190.3 6.42574 -2.88579 0
M  V30 12594 H 1186.4 0.77152 0.127594 0
M  V30 12595 H 1188.98 1.92363 -0.300777 0
M  V30 12596 H 1187.15 3.51423 1.65399 0
M  V30 12597 H 1188.88 3.73863 1.54946 0
M  V30 12598 H 1185.64 4.73139 -0.208806 0
M  V30 12599 H 1186.06 6.38896 -2.23921 0
M  V30 12600 H 1190.71 4.2164 -0.313023 0
M  V30 12601 H 1188.42 7.24779 -3.57381 0
M  V30 12602 H 1192.01 5.46106 -2.00647 0
M  V30 12603 H 1190.89 6.95906 -3.61503 0
M  V30 12604 N 1188.39 -0.0785156 1.57404 0
M  V30 12605 C 1189.64 -0.780092 1.87196 0
M  V30 12606 C 1189.97 -1.77562 0.78647 0
M  V30 12607 O 1189.25 -1.93428 -0.203935 0
M  V30 12608 C 1189.53 -1.49408 3.27642 0
M  V30 12609 C 1189.38 -0.515416 4.46837 0
M  V30 12610 C 1190.7 -2.44064 3.66225 0
M  V30 12611 H 1187.82 -0.282134 0.680859 0
M  V30 12612 H 1190.46 -0.0433926 1.8995 0
M  V30 12613 H 1188.61 -2.12205 3.25425 0
M  V30 12614 H 1190.28 0.106827 4.61176 0
M  V30 12615 H 1188.53 0.169832 4.33467 0
M  V30 12616 H 1189.2 -1.05247 5.41874 0
M  V30 12617 H 1191.67 -1.91349 3.69493 0
M  V30 12618 H 1190.55 -2.91029 4.65396 0
M  V30 12619 H 1190.81 -3.28569 2.95796 0
M  V30 12620 N 1189.87 -1.5367 -0.349747 0
M  V30 12621 C 1191.12 -1.69835 -1.08807 0
M  V30 12622 C 1191.43 -0.46497 -1.89993 0
M  V30 12623 O 1192.64 -0.507452 -2.66716 0
M  V30 12624 C 1191.09 -3.00294 -1.98372 0
M  V30 12625 C 1190.7 -4.30949 -1.22422 0
M  V30 12626 C 1192.45 -3.25826 -2.72099 0
M  V30 12627 C 1190.35 -5.52486 -2.1098 0
M  V30 12628 H 1189.28 -0.63284 -0.409915 0
M  V30 12629 H 1191.93 -1.80171 -0.347968 0
M  V30 12630 H 1190.32 -2.838 -2.76176 0
M  V30 12631 H 1191.49 -4.58126 -0.495707 0
M  V30 12632 H 1189.81 -4.11983 -0.604896 0
M  V30 12633 H 1192.4 -4.13817 -3.38615 0
M  V30 12634 H 1192.75 -2.42566 -3.3833 0
M  V30 12635 H 1193.28 -3.43067 -2.0137 0
M  V30 12636 H 1190.02 -6.38271 -1.49301 0
M  V30 12637 H 1189.54 -5.29566 -2.81638 0
M  V30 12638 H 1191.22 -5.87889 -2.70176 0
M  V30 12639 N 1191.35 0.610423 -1.45298 0
M  V30 12640 C 1192.58 1.39419 -1.52466 0
M  V30 12641 C 1192.99 1.88563 -0.1551 0
M  V30 12642 O 1192.33 1.62692 0.853061 0
M  V30 12643 C 1192.39 2.63515 -2.44541 0
M  V30 12644 C 1192.06 2.36028 -3.91331 0
M  V30 12645 C 1193.05 1.96567 -4.81308 0
M  V30 12646 C 1190.74 2.49028 -4.36223 0
M  V30 12647 C 1192.73 1.70461 -6.14184 0
M  V30 12648 C 1190.42 2.22536 -5.6914 0
M  V30 12649 C 1191.42 1.83314 -6.5794 0
M  V30 12650 O 1191.1 1.57131 -7.88394 0
M  V30 12651 H 1190.84 0.433278 -0.518889 0
M  V30 12652 H 1193.39 0.751803 -1.91147 0
M  V30 12653 H 1191.62 3.30463 -2.00826 0
M  V30 12654 H 1193.31 3.25554 -2.42424 0
M  V30 12655 H 1194.08 1.86062 -4.4789 0
M  V30 12656 H 1189.95 2.78524 -3.67349 0
M  V30 12657 H 1193.5 1.39773 -6.83454 0
M  V30 12658 H 1189.4 2.32657 -6.02114 0
M  V30 12659 H 1190.16 1.71207 -8.00394 0
M  V30 12660 N 1192.83 1.32541 0.852676 0
M  V30 12661 C 1193.77 1.21643 1.96142 0
M  V30 12662 C 1194.74 0.0981496 1.6581 0
M  V30 12663 O 1195.93 0.27404 1.88822 0
M  V30 12664 C 1193.07 0.947483 3.31838 0
M  V30 12665 C 1192.18 2.15074 3.74656 0
M  V30 12666 C 1191.32 1.81711 4.99154 0
M  V30 12667 C 1190.36 2.98346 5.34468 0
M  V30 12668 N 1189.49 2.65062 6.50143 0
M  V30 12669 H 1194.33 2.16479 2.04795 0
M  V30 12670 H 1191.87 1.07664 1.00234 0
M  V30 12671 H 1193.83 0.772038 4.09994 0
M  V30 12672 H 1192.46 0.0359112 3.2278 0
M  V30 12673 H 1191.51 2.43639 2.92137 0
M  V30 12674 H 1192.82 3.02314 3.96747 0
M  V30 12675 H 1191.98 1.60729 5.85022 0
M  V30 12676 H 1190.71 0.916875 4.79004 0
M  V30 12677 H 1189.72 3.19956 4.47111 0
M  V30 12678 H 1190.94 3.89104 5.56574 0
M  V30 12679 H 1188.89 1.77582 6.31507 0
M  V30 12680 H 1188.81 3.45832 6.72262 0
M  V30 12681 H 1190.08 2.47516 7.39159 0
M  V30 12682 N 1194.3 -1.0692 1.15784 0
M  V30 12683 C 1195.58 -1.76367 0.845825 0
M  V30 12684 C 1195.96 -2.00594 -0.657672 0
M  V30 12685 O 1195.31 -1.62794 -1.60345 0
M  V30 12686 C 1195.52 -3.06913 1.66149 0
M  V30 12687 C 1196.87 -3.81181 1.87046 0
M  V30 12688 O 1197.89 -3.16737 1.62961 0
M  V30 12689 O 1196.75 -4.96936 2.27413 0
M  V30 12690 H 1193.84 -0.766095 0.311493 0
M  V30 12691 H 1196.39 -1.13246 1.26386 0
M  V30 12692 H 1195.16 -2.84924 2.68205 0
M  V30 12693 H 1194.79 -3.77767 1.24007 0
M  V30 12694 N 1195.78 -0.955326 -1.25345 0
M  V30 12695 C 1197.01 -0.626783 -1.96863 0
M  V30 12696 C 1197.42 0.80547 -1.71198 0
M  V30 12697 O 1196.76 1.55049 -0.985163 0
M  V30 12698 C 1196.83 -0.806404 -3.50339 0
M  V30 12699 C 1196.49 -2.21595 -3.99681 0
M  V30 12700 C 1197.49 -3.19268 -4.10322 0
M  V30 12701 C 1195.17 -2.54032 -4.33328 0
M  V30 12702 C 1197.17 -4.47471 -4.53926 0
M  V30 12703 C 1194.85 -3.82465 -4.76617 0
M  V30 12704 C 1195.85 -4.78997 -4.86879 0
M  V30 12705 O 1195.54 -6.0514 -5.29208 0
M  V30 12706 H 1195.27 -0.233854 -0.634262 0
M  V30 12707 H 1197.82 -1.28232 -1.60455 0
M  V30 12708 H 1196.05 -0.0937184 -3.86586 0
M  V30 12709 H 1197.74 -0.47881 -4.03066 0
M  V30 12710 H 1198.51 -2.95534 -3.84558 0
M  V30 12711 H 1194.39 -1.79623 -4.24566 0
M  V30 12712 H 1197.93 -5.22819 -4.6185 0
M  V30 12713 H 1193.83 -4.06005 -5.01827 0
M  V30 12714 H 1194.6 -6.08527 -5.47392 0
M  V30 12715 N 1197.26 1.39987 -0.723979 0
M  V30 12716 C 1198.19 2.2917 -0.0373445 0
M  V30 12717 C 1199.21 1.46258 0.715015 0
M  V30 12718 O 1200.4 1.69455 0.561003 0
M  V30 12719 C 1197.5 3.2468 0.971384 0
M  V30 12720 C 1196.67 4.36485 0.282826 0
M  V30 12721 C 1195.73 5.12379 1.19811 0
M  V30 12722 O 1194.75 5.65127 0.67974 0
M  V30 12723 N 1195.96 5.22531 2.52866 0
M  V30 12724 H 1198.72 2.88738 -0.803131 0
M  V30 12725 H 1196.28 1.51448 -0.572292 0
M  V30 12726 H 1198.27 3.72326 1.58606 0
M  V30 12727 H 1196.84 2.6622 1.63846 0
M  V30 12728 H 1196.06 3.90859 -0.512167 0
M  V30 12729 H 1197.35 5.08427 -0.194793 0
M  V30 12730 H 1196.75 4.81174 2.97469 0
M  V30 12731 H 1195.31 5.73655 3.09457 0
M  V30 12732 N 1198.74 0.470782 1.50404 0
M  V30 12733 C 1199.97 -0.0818945 2.06438 0
M  V30 12734 C 1200.38 -1.34085 1.33483 0
M  V30 12735 O 1199.72 -1.79346 0.397565 0
M  V30 12736 C 1199.78 -0.436252 3.56843 0
M  V30 12737 C 1199.45 0.720641 4.51282 0
M  V30 12738 C 1200.44 1.60258 4.94584 0
M  V30 12739 C 1198.13 0.910879 4.93972 0
M  V30 12740 C 1200.12 2.65916 5.79282 0
M  V30 12741 C 1197.81 1.97069 5.78452 0
M  V30 12742 C 1198.81 2.84319 6.21008 0
M  V30 12743 O 1198.5 3.88476 7.03805 0
M  V30 12744 H 1198.23 0.00361688 0.67599 0
M  V30 12745 H 1200.78 0.658488 1.94559 0
M  V30 12746 H 1199.01 -1.22982 3.66623 0
M  V30 12747 H 1200.7 -0.923976 3.95244 0
M  V30 12748 H 1201.47 1.46729 4.62272 0
M  V30 12749 H 1197.35 0.241225 4.60368 0
M  V30 12750 H 1200.89 3.3405 6.12419 0
M  V30 12751 H 1196.79 2.10605 6.10177 0
M  V30 12752 H 1197.55 3.8546 7.22054 0
M  V30 12753 N 1200.22 -1.56282 0.203376 0
M  V30 12754 C 1201.45 -2.01905 -0.437936 0
M  V30 12755 C 1201.86 -1.08263 -1.55164 0
M  V30 12756 O 1201.2 -0.0811746 -1.83521 0
M  V30 12757 C 1201.26 -3.43908 -1.04725 0
M  V30 12758 C 1200.92 -4.56944 -0.0712582 0
M  V30 12759 C 1201.92 -5.14856 0.72243 0
M  V30 12760 C 1199.61 -5.02282 0.0422267 0
M  V30 12761 C 1201.6 -6.16562 1.61649 0
M  V30 12762 C 1199.29 -6.0383 0.939835 0
M  V30 12763 C 1200.29 -6.60844 1.72552 0
M  V30 12764 O 1199.97 -7.60417 2.60808 0
M  V30 12765 H 1199.71 -0.666416 -0.11343 0
M  V30 12766 H 1202.26 -2.03019 0.311833 0
M  V30 12767 H 1200.49 -3.39806 -1.84577 0
M  V30 12768 H 1202.18 -3.73288 -1.59407 0
M  V30 12769 H 1202.94 -4.80691 0.645105 0
M  V30 12770 H 1198.82 -4.57596 -0.559165 0
M  V30 12771 H 1202.37 -6.6099 2.23019 0
M  V30 12772 H 1198.26 -6.37418 1.01824 0
M  V30 12773 H 1199.03 -7.77869 2.54679 0
M  V30 12774 N 1201.7 0.070167 -1.57444 0
M  V30 12775 C 1202.94 0.769014 -1.8733 0
M  V30 12776 C 1203.27 1.77496 -0.79533 0
M  V30 12777 O 1202.53 1.94586 0.208495 0
M  V30 12778 C 1202.82 1.5111 -3.23883 0
M  V30 12779 C 1202.49 0.644988 -4.46263 0
M  V30 12780 C 1201.15 0.406307 -4.79482 0
M  V30 12781 C 1203.5 0.0444938 -5.21181 0
M  V30 12782 C 1200.83 -0.442322 -5.8503 0
M  V30 12783 C 1203.18 -0.791599 -6.27628 0
M  V30 12784 C 1201.85 -1.04014 -6.59346 0
M  V30 12785 H 1201.12 0.281402 -0.685488 0
M  V30 12786 H 1203.77 0.029752 -1.91477 0
M  V30 12787 H 1202.07 2.32261 -3.15535 0
M  V30 12788 H 1203.77 2.05665 -3.44242 0
M  V30 12789 H 1200.36 0.841148 -4.20265 0
M  V30 12790 H 1204.54 0.216005 -4.9583 0
M  V30 12791 H 1199.8 -0.643607 -6.08003 0
M  V30 12792 H 1203.97 -1.26363 -6.8484 0
M  V30 12793 H 1201.6 -1.69949 -7.4096 0
M  V30 12794 N 1203.17 1.53854 0.341593 0
M  V30 12795 C 1204.4 1.75447 1.10604 0
M  V30 12796 C 1204.82 0.493225 1.81518 0
M  V30 12797 O 1204.18 -0.554253 1.7262 0
M  V30 12798 C 1204.23 2.93593 2.09369 0
M  V30 12799 O 1203.33 2.63878 3.16926 0
M  V30 12800 H 1202.67 0.581923 0.319783 0
M  V30 12801 H 1205.2 2.00822 0.391388 0
M  V30 12802 H 1205.21 3.20437 2.52556 0
M  V30 12803 H 1203.89 3.85067 1.57151 0
M  V30 12804 H 1202.47 2.47929 2.78542 0
M  V30 12805 N 1204.65 -0.602709 1.4562 0
M  V30 12806 C 1205.6 -1.71312 1.54664 0
M  V30 12807 C 1206.57 -1.61403 0.392197 0
M  V30 12808 O 1207.75 -1.80911 0.606297 0
M  V30 12809 C 1204.89 -3.09629 1.52393 0
M  V30 12810 C 1204.01 -3.30308 2.78425 0
M  V30 12811 C 1203.14 -4.5876 2.67793 0
M  V30 12812 C 1202.18 -4.72713 3.88855 0
M  V30 12813 N 1201.32 -5.92469 3.76729 0
M  V30 12814 H 1206.16 -1.62918 2.49523 0
M  V30 12815 H 1203.69 -0.794324 1.2381 0
M  V30 12816 H 1205.65 -3.89661 1.49064 0
M  V30 12817 H 1204.28 -3.16968 0.610816 0
M  V30 12818 H 1203.33 -2.44018 2.9182 0
M  V30 12819 H 1204.65 -3.36491 3.68205 0
M  V30 12820 H 1203.8 -5.46993 2.62457 0
M  V30 12821 H 1202.54 -4.54983 1.75619 0
M  V30 12822 H 1201.54 -3.82903 3.94545 0
M  V30 12823 H 1202.77 -4.78284 4.82101 0
M  V30 12824 H 1200.72 -5.89728 2.87328 0
M  V30 12825 H 1200.63 -5.99833 4.60148 0
M  V30 12826 H 1201.9 -6.83187 3.75334 0
M  V30 12827 N 1206.13 -1.32992 -0.845635 0
M  V30 12828 C 1207.04 -1.24701 -1.98713 0
M  V30 12829 C 1208.06 -0.158864 -1.73273 0
M  V30 12830 O 1209.23 -0.381209 -1.97759 0
M  V30 12831 C 1206.3 -0.979524 -3.32575 0
M  V30 12832 C 1205.36 -2.15701 -3.71176 0
M  V30 12833 C 1204.59 -1.90219 -4.98651 0
M  V30 12834 O 1204.81 -0.849171 -5.64044 0
M  V30 12835 O 1203.75 -2.76571 -5.34595 0
M  V30 12836 H 1207.57 -2.20683 -2.08645 0
M  V30 12837 H 1205.16 -1.12971 -0.97765 0
M  V30 12838 H 1207.04 -0.847219 -4.12796 0
M  V30 12839 H 1205.72 -0.0499398 -3.23661 0
M  V30 12840 H 1204.62 -2.34483 -2.91494 0
M  V30 12841 H 1205.96 -3.0697 -3.84747 0
M  V30 12842 N 1207.61 1.06304 -1.1635 0
M  V30 12843 C 1208.55 2.13776 -0.869965 0
M  V30 12844 C 1209.52 1.65105 0.181541 0
M  V30 12845 O 1210.71 1.90743 0.0467705 0
M  V30 12846 C 1207.85 3.43034 -0.377077 0
M  V30 12847 C 1206.96 4.0544 -1.4914 0
M  V30 12848 C 1206.1 5.22572 -0.953538 0
M  V30 12849 C 1205.14 5.76961 -2.04407 0
M  V30 12850 N 1204.27 6.85409 -1.52181 0
M  V30 12851 H 1209.11 2.38224 -1.79034 0
M  V30 12852 H 1206.65 1.16882 -0.893136 0
M  V30 12853 H 1208.61 4.17136 -0.0729426 0
M  V30 12854 H 1207.24 3.18804 0.506359 0
M  V30 12855 H 1206.29 3.28886 -1.9115 0
M  V30 12856 H 1207.6 4.41859 -2.31434 0
M  V30 12857 H 1206.76 6.037 -0.602579 0
M  V30 12858 H 1205.5 4.87598 -0.099897 0
M  V30 12859 H 1204.5 4.9447 -2.40373 0
M  V30 12860 H 1205.73 6.13987 -2.90167 0
M  V30 12861 H 1203.67 6.52354 -0.690697 0
M  V30 12862 H 1203.59 7.2077 -2.28092 0
M  V30 12863 H 1204.86 7.70217 -1.19942 0
M  V30 12864 N 1209.09 0.96196 1.24836 0
M  V30 12865 C 1210 0.494876 2.29321 0
M  V30 12866 C 1211.01 -0.441363 1.68309 0
M  V30 12867 O 1212.19 -0.315814 1.98908 0
M  V30 12868 C 1209.25 -0.212944 3.46045 0
M  V30 12869 C 1208.31 0.762411 4.22476 0
M  V30 12870 C 1207.55 0.0882756 5.33627 0
M  V30 12871 O 1207.77 -1.12459 5.59204 0
M  V30 12872 O 1206.7 0.777529 5.96857 0
M  V30 12873 H 1210.53 1.36333 2.7138 0
M  V30 12874 H 1208.11 0.728738 1.30421 0
M  V30 12875 H 1210 -0.610805 4.1695 0
M  V30 12876 H 1208.67 -1.05645 3.05975 0
M  V30 12877 H 1207.58 1.21062 3.5397 0
M  V30 12878 H 1208.91 1.57416 4.66349 0
M  V30 12879 N 1210.56 -1.39601 0.731392 0
M  V30 12880 C 1211.79 -2.04887 0.28789 0
M  V30 12881 C 1212.21 -1.55138 -1.076 0
M  V30 12882 O 1211.56 -0.71471 -1.67923 0
M  V30 12883 C 1211.61 -3.6044 0.276629 0
M  V30 12884 O 1211.34 -4.08358 1.58668 0
M  V30 12885 C 1212.84 -4.4292 -0.183485 0
M  V30 12886 H 1210.06 -0.658976 0.126459 0
M  V30 12887 H 1212.6 -1.78716 0.994031 0
M  V30 12888 H 1210.76 -3.85526 -0.380597 0
M  V30 12889 H 1211.17 -5.02659 1.4978 0
M  V30 12890 H 1212.64 -5.51822 -0.140207 0
M  V30 12891 H 1213.12 -4.2168 -1.22811 0
M  V30 12892 H 1213.73 -4.22976 0.444042 0
M  V30 12893 N 1212.04 -0.478751 -1.50152 0
M  V30 12894 C 1212.98 0.357584 -2.25381 0
M  V30 12895 C 1213.95 0.98965 -1.29014 0
M  V30 12896 O 1215.14 1.02409 -1.58255 0
M  V30 12897 C 1212.26 1.50167 -3.03591 0
M  V30 12898 C 1211.31 0.986215 -4.14941 0
M  V30 12899 S 1212.14 -0.105239 -5.35397 0
M  V30 12900 C 1213.3 1.04254 -6.17156 0
M  V30 12901 H 1213.53 -0.280985 -2.95969 0
M  V30 12902 H 1211.07 -0.263734 -1.52131 0
M  V30 12903 H 1213.02 2.15733 -3.49241 0
M  V30 12904 H 1211.68 2.11178 -2.32514 0
M  V30 12905 H 1210.88 1.84295 -4.69096 0
M  V30 12906 H 1210.48 0.408141 -3.71766 0
M  V30 12907 H 1212.77 1.95255 -6.48754 0
M  V30 12908 H 1213.71 0.540083 -7.06037 0
M  V30 12909 H 1214.12 1.29983 -5.49331 0
M  V30 12910 N 1213.52 1.56172 -0.211661 0
M  V30 12911 C 1214.8 1.8984 0.471195 0
M  V30 12912 C 1215.18 1.1276 1.78461 0
M  V30 12913 O 1214.53 0.233817 2.27301 0
M  V30 12914 C 1214.74 3.42434 0.673814 0
M  V30 12915 C 1216.08 4.13 0.985719 0
M  V30 12916 O 1217.11 3.47977 0.760953 0
M  V30 12917 O 1215.97 5.2795 1.41176 0
M  V30 12918 H 1213.06 0.789008 0.247782 0
M  V30 12919 H 1215.61 1.67802 -0.25311 0
M  V30 12920 H 1214.38 3.90481 -0.253034 0
M  V30 12921 H 1214 3.70218 1.44997 0
M  V30 12922 N 1215 -0.0618163 1.57479 0
M  V30 12923 C 1215.95 -1.09105 2.05424 0
M  V30 12924 C 1216.94 -1.3947 0.961479 0
M  V30 12925 O 1218.15 -1.3876 1.14655 0
M  V30 12926 H 1214.52 -0.36923 0.655113 0
M  V30 12927 H 1216.49 -0.66061 2.90996 0
M  V30 12928 C 1215.24 -2.39345 2.52209 0
M  V30 12929 H 1214.56 -2.16832 3.35893 0
M  V30 12930 H 1216 -3.09784 2.89499 0
M  V30 12931 C 1214.46 -3.06011 1.40922 0
M  V30 12932 O 1214.99 -3.94504 0.756921 0
M  V30 12933 N 1213.2 -2.66797 1.15186 0
M  V30 12934 H 1212.75 -1.94923 1.68412 0
M  V30 12935 H 1212.7 -3.11724 0.409324 0
M  V30 12936 N 1216.48 -1.54033 -0.333429 0
M  V30 12937 C 1217.44 -1.82021 -1.39288 0
M  V30 12938 C 1218.44 -0.691623 -1.45166 0
M  V30 12939 O 1219.63 -0.959925 -1.45365 0
M  V30 12940 C 1216.76 -1.97136 -2.78119 0
M  V30 12941 H 1217.95 -2.76671 -1.1573 0
M  V30 12942 H 1215.51 -1.45599 -0.568376 0
M  V30 12943 H 1216.24 -1.04663 -3.06946 0
M  V30 12944 H 1216.03 -2.79251 -2.75247 0
M  V30 12945 H 1217.52 -2.20271 -3.54782 0
M  V30 12946 N 1217.95 0.594978 -1.45938 0
M  V30 12947 C 1219.37 0.917069 -1.30622 0
M  V30 12948 C 1219.57 1.99702 -0.268554 0
M  V30 12949 O 1218.63 2.50293 0.333146 0
M  V30 12950 C 1219.94 1.34604 -2.68891 0
M  V30 12951 C 1221.49 1.45957 -2.76886 0
M  V30 12952 C 1221.96 1.92225 -4.15708 0
M  V30 12953 N 1223.45 1.99439 -4.18065 0
M  V30 12954 C 1224.19 2.36488 -5.22361 0
M  V30 12955 N 1223.68 2.72416 -6.36994 0
M  V30 12956 N 1225.48 2.36936 -5.09723 0
M  V30 12957 H 1217.63 -0.118625 -2.12068 0
M  V30 12958 H 1219.89 0.00959453 -0.947951 0
M  V30 12959 H 1219.6 0.626605 -3.46073 0
M  V30 12960 H 1219.47 2.31006 -2.98188 0
M  V30 12961 H 1221.86 2.16989 -1.99999 0
M  V30 12962 H 1221.94 0.47838 -2.51287 0
M  V30 12963 H 1221.58 1.21775 -4.93085 0
M  V30 12964 H 1221.51 2.9128 -4.38707 0
M  V30 12965 H 1224 1.74212 -3.35349 0
M  V30 12966 H 1224.32 2.99604 -7.1236 0
M  V30 12967 H 1222.66 2.70083 -6.40375 0
M  V30 12968 H 1225.85 2.08282 -4.19209 0
M  V30 12969 H 1226.03 2.65483 -5.9112 0
M  V30 12970 N 1219.43 1.33438 0.838571 0
M  V30 12971 C 1220.4 1.23632 1.92997 0
M  V30 12972 C 1221.4 0.155302 1.60048 0
M  V30 12973 O 1222.59 0.406852 1.69382 0
M  V30 12974 C 1219.72 0.90512 3.28665 0
M  V30 12975 H 1220.91 2.20643 2.03117 0
M  V30 12976 H 1218.46 1.17501 1.03069 0
M  V30 12977 H 1219.2 -0.0624833 3.2424 0
M  V30 12978 H 1218.98 1.68688 3.53959 0
M  V30 12979 H 1220.47 0.861262 4.08622 0
M  V30 12980 N 1220.91 -1.05686 1.16912 0
M  V30 12981 C 1222.16 -1.78597 0.954425 0
M  V30 12982 C 1222.49 -1.87494 -0.517315 0
M  V30 12983 O 1221.74 -1.36736 -1.40006 0
M  V30 12984 C 1222.04 -3.22779 1.53455 0
M  V30 12985 C 1221.71 -3.3395 3.02965 0
M  V30 12986 C 1220.37 -3.36706 3.43777 0
M  V30 12987 C 1222.72 -3.35371 3.98969 0
M  V30 12988 C 1220.05 -3.38506 4.79198 0
M  V30 12989 C 1222.4 -3.38708 5.34284 0
M  V30 12990 C 1221.06 -3.39749 5.74567 0
M  V30 12991 H 1220.33 -0.653534 0.349249 0
M  V30 12992 H 1222.98 -1.24245 1.45723 0
M  V30 12993 H 1221.29 -3.80025 0.953331 0
M  V30 12994 H 1222.98 -3.77805 1.34404 0
M  V30 12995 H 1219.57 -3.32515 2.70429 0
M  V30 12996 H 1223.76 -3.32447 3.685 0
M  V30 12997 H 1219.01 -3.37619 5.09729 0
M  V30 12998 H 1223.19 -3.38755 6.08455 0
M  V30 12999 H 1220.81 -3.40897 6.7948 0
M  V30 13000 N 1222.39 -0.968567 -1.24324 0
M  V30 13001 C 1223.63 -0.63879 -1.94162 0
M  V30 13002 C 1223.99 0.81112 -1.74025 0
M  V30 13003 O 1225.19 1.25116 -2.37906 0
M  V30 13004 C 1223.46 -1.00432 -3.42999 0
M  V30 13005 S 1225.02 -0.789227 -4.31644 0
M  V30 13006 H 1221.84 -0.234322 -0.671278 0
M  V30 13007 H 1224.44 -1.2457 -1.50673 0
M  V30 13008 H 1223.15 -2.05643 -3.55161 0
M  V30 13009 H 1222.68 -0.388221 -3.9148 0
M  V30 13010 H 1224.69 0.332976 -4.95082 0
M  V30 13011 N 1223.87 1.39211 -0.738786 0
M  V30 13012 C 1224.81 2.30578 -0.10129 0
M  V30 13013 C 1225.78 1.49412 0.725616 0
M  V30 13014 O 1226.97 1.78087 0.684799 0
M  V30 13015 C 1224.11 3.35767 0.797161 0
M  V30 13016 C 1223.22 4.31979 -0.0427701 0
M  V30 13017 C 1222.36 5.24236 0.857306 0
M  V30 13018 C 1221.4 6.12099 0.0128501 0
M  V30 13019 N 1220.53 6.96701 0.869067 0
M  V30 13020 H 1225.37 2.84522 -0.88606 0
M  V30 13021 H 1222.91 1.40093 -0.448602 0
M  V30 13022 H 1224.87 3.95347 1.33255 0
M  V30 13023 H 1223.5 2.83268 1.54787 0
M  V30 13024 H 1222.55 3.73986 -0.695622 0
M  V30 13025 H 1223.86 4.93927 -0.69555 0
M  V30 13026 H 1223.02 5.88861 1.4604 0
M  V30 13027 H 1221.75 4.62619 1.54386 0
M  V30 13028 H 1220.76 5.46483 -0.603018 0
M  V30 13029 H 1221.98 6.75781 -0.67054 0
M  V30 13030 H 1219.93 6.37647 1.54084 0
M  V30 13031 H 1219.85 7.55507 0.272852 0
M  V30 13032 H 1221.12 7.65751 1.4576 0
M  V30 13033 N 1225.34 0.486708 1.49896 0
M  V30 13034 C 1226.76 0.141788 1.58969 0
M  V30 13035 C 1226.96 -1.35279 1.49338 0
M  V30 13036 O 1226.02 -2.1275 1.35992 0
M  V30 13037 C 1227.33 0.70588 2.92297 0
M  V30 13038 C 1228.88 0.670704 3.0573 0
M  V30 13039 C 1229.35 1.21261 4.41656 0
M  V30 13040 N 1230.84 1.17269 4.4811 0
M  V30 13041 C 1231.58 1.56233 5.51705 0
M  V30 13042 N 1231.07 2.02721 6.62477 0
M  V30 13043 N 1232.87 1.47738 5.42337 0
M  V30 13044 H 1225.02 1.45858 1.544 0
M  V30 13045 H 1227.28 0.604137 0.730563 0
M  V30 13046 H 1226.99 1.7535 3.04869 0
M  V30 13047 H 1226.86 0.158215 3.76868 0
M  V30 13048 H 1229.25 -0.368041 2.92796 0
M  V30 13049 H 1229.33 1.25535 2.22878 0
M  V30 13050 H 1228.97 2.25006 4.5534 0
M  V30 13051 H 1228.9 0.604031 5.23124 0
M  V30 13052 H 1231.39 0.831905 3.6863 0
M  V30 13053 H 1231.71 2.3056 7.37606 0
M  V30 13054 H 1230.05 2.06686 6.63556 0
M  V30 13055 H 1233.24 1.11249 4.54688 0
M  V30 13056 H 1233.42 1.78429 6.2295 0
M  V30 13057 N 1226.82 -1.56058 0.219941 0
M  V30 13058 C 1227.77 -2.21585 -0.707321 0
M  V30 13059 C 1228.77 -1.19473 -1.20094 0
M  V30 13060 O 1229.97 -1.37557 -1.16095 0
M  V30 13061 H 1226.35 -0.710447 -0.246515 0
M  V30 13062 H 1228.32 -2.98111 -0.131214 0
M  V30 13063 C 1227.07 -2.90841 -1.90544 0
M  V30 13064 H 1226.39 -3.6917 -1.53472 0
M  V30 13065 H 1227.83 -3.40092 -2.53206 0
M  V30 13066 C 1226.29 -1.93223 -2.75983 0
M  V30 13067 O 1226.82 -1.44815 -3.74689 0
M  V30 13068 N 1225.02 -1.60907 -2.41986 0
M  V30 13069 H 1224.57 -2.00467 -1.61774 0
M  V30 13070 H 1224.53 -0.958534 -2.99432 0
M  V30 13071 N 1228.3 0.053464 -1.57509 0
M  V30 13072 C 1229.55 0.749102 -1.88135 0
M  V30 13073 C 1229.88 1.76642 -0.814111 0
M  V30 13074 O 1229.13 1.94796 0.187845 0
M  V30 13075 C 1229.43 1.47666 -3.25468 0
M  V30 13076 C 1229.1 0.597619 -4.46922 0
M  V30 13077 C 1227.76 0.355429 -4.79886 0
M  V30 13078 C 1230.11 -0.0107869 -5.21199 0
M  V30 13079 C 1227.44 -0.504347 -5.84528 0
M  V30 13080 C 1229.79 -0.858123 -6.26753 0
M  V30 13081 C 1228.45 -1.11001 -6.58206 0
M  V30 13082 H 1227.72 0.274116 -0.688434 0
M  V30 13083 H 1230.37 0.00944162 -1.91498 0
M  V30 13084 H 1228.68 2.28901 -3.1798 0
M  V30 13085 H 1230.37 2.02002 -3.46404 0
M  V30 13086 H 1226.96 0.796526 -4.21134 0
M  V30 13087 H 1231.15 0.163404 -4.96031 0
M  V30 13088 H 1226.4 -0.708057 -6.07286 0
M  V30 13089 H 1230.58 -1.3362 -6.83461 0
M  V30 13090 H 1228.2 -1.77798 -7.39116 0
M  V30 13091 N 1229.78 1.54207 0.325255 0
M  V30 13092 C 1231.03 1.71991 1.0613 0
M  V30 13093 C 1231.35 0.495505 1.88599 0
M  V30 13094 O 1230.62 -0.490504 1.8966 0
M  V30 13095 H 1229.2 0.634137 0.394816 0
M  V30 13096 H 1231.86 1.91507 0.362101 0
M  V30 13097 H 1230.96 2.59878 1.72829 0
M  V30 13098 N 1231.26 -0.58723 1.46251 0
M  V30 13099 C 1232.53 -1.34727 1.41802 0
M  V30 13100 C 1232.91 -2.10867 0.0991354 0
M  V30 13101 O 1232.26 -2.09194 -0.919242 0
M  V30 13102 C 1232.47 -2.27706 2.64482 0
M  V30 13103 C 1233.82 -2.89678 3.10438 0
M  V30 13104 O 1234.84 -2.38021 2.64999 0
M  V30 13105 O 1233.7 -3.83493 3.89352 0
M  V30 13106 H 1230.8 -0.605119 0.563702 0
M  V30 13107 H 1233.34 -0.608623 1.5841 0
M  V30 13108 H 1232.12 -1.70842 3.52035 0
M  V30 13109 H 1231.74 -3.08918 2.50311 0
M  V30 13110 N 1232.74 -1.33881 -0.831482 0
M  V30 13111 C 1233.67 -1.27384 -1.95693 0
M  V30 13112 C 1234.65 -0.152943 -1.69411 0
M  V30 13113 O 1235.83 -0.34392 -1.9113 0
M  V30 13114 C 1232.96 -1.01982 -3.31989 0
M  V30 13115 C 1231.92 -2.10445 -3.72689 0
M  V30 13116 C 1231.24 -1.70245 -5.06873 0
M  V30 13117 C 1232.54 -3.52194 -3.8569 0
M  V30 13118 H 1234.24 -2.21549 -2.01386 0
M  V30 13119 H 1231.78 -1.06653 -0.967526 0
M  V30 13120 H 1233.73 -0.960841 -4.103 0
M  V30 13121 H 1232.46 -0.0425709 -3.26572 0
M  V30 13122 H 1231.12 -2.15398 -2.96647 0
M  V30 13123 H 1230.77 -0.712036 -4.97935 0
M  V30 13124 H 1230.47 -2.42834 -5.35075 0
M  V30 13125 H 1231.99 -1.65827 -5.87651 0
M  V30 13126 H 1233.4 -3.49701 -4.54293 0
M  V30 13127 H 1231.8 -4.23331 -4.25336 0
M  V30 13128 H 1232.87 -3.9016 -2.87929 0
M  V30 13129 N 1234.21 1.05064 -1.1747 0
M  V30 13130 C 1235.46 1.78352 -0.965311 0
M  V30 13131 C 1235.79 1.87527 0.504707 0
M  V30 13132 O 1235.07 1.376 1.37465 0
M  V30 13133 C 1235.35 3.22173 -1.60862 0
M  V30 13134 C 1235.2 3.21003 -3.15083 0
M  V30 13135 C 1236.52 4.2004 -1.31358 0
M  V30 13136 H 1233.64 0.647452 -0.352101 0
M  V30 13137 H 1236.28 1.22794 -1.44988 0
M  V30 13138 H 1234.43 3.69613 -1.19658 0
M  V30 13139 H 1236.11 2.81629 -3.65353 0
M  V30 13140 H 1234.35 2.59309 -3.47766 0
M  V30 13141 H 1235.02 4.22516 -3.55224 0
M  V30 13142 H 1237.5 3.81099 -1.6704 0
M  V30 13143 H 1236.37 5.1891 -1.78953 0
M  V30 13144 H 1236.63 4.41477 -0.234606 0
M  V30 13145 N 1235.69 0.975146 1.23809 0
M  V30 13146 C 1236.92 0.658605 1.96665 0
M  V30 13147 C 1237.34 -0.766744 1.71763 0
M  V30 13148 O 1236.7 -1.52151 0.985887 0
M  V30 13149 C 1236.75 0.948438 3.47904 0
M  V30 13150 O 1235.85 0.0377241 4.12383 0
M  V30 13151 H 1235.19 0.248231 0.615855 0
M  V30 13152 H 1237.72 1.30732 1.57386 0
M  V30 13153 H 1237.73 0.883 3.9833 0
M  V30 13154 H 1236.41 1.98717 3.65355 0
M  V30 13155 H 1234.98 0.157122 3.72569 0
M  V30 13156 N 1237.17 -1.38817 0.746158 0
M  V30 13157 C 1238.42 -1.99519 0.295839 0
M  V30 13158 C 1238.73 -1.59897 -1.12661 0
M  V30 13159 O 1239.94 -2.13514 -1.67702 0
M  V30 13160 C 1238.39 -3.56712 0.477984 0
M  V30 13161 C 1238 -4.0529 1.90904 0
M  V30 13162 C 1239.75 -4.24405 0.0900039 0
M  V30 13163 C 1237.65 -5.55097 2.04014 0
M  V30 13164 H 1236.58 -0.746389 0.106861 0
M  V30 13165 H 1239.23 -1.58676 0.921637 0
M  V30 13166 H 1237.62 -3.95406 -0.216884 0
M  V30 13167 H 1238.79 -3.77904 2.63677 0
M  V30 13168 H 1237.1 -3.50297 2.25125 0
M  V30 13169 H 1239.7 -5.3444 0.16682 0
M  V30 13170 H 1240.04 -4.05166 -0.956349 0
M  V30 13171 H 1240.58 -3.90924 0.736446 0
M  V30 13172 H 1237.32 -5.7923 3.06877 0
M  V30 13173 H 1236.84 -5.8425 1.35692 0
M  V30 13174 H 1238.52 -6.20682 1.82656 0
M  V30 13175 N 1238.65 -0.49465 -1.49636 0
M  V30 13176 C 1239.58 0.323781 -2.26902 0
M  V30 13177 C 1240.59 0.936281 -1.33183 0
M  V30 13178 O 1241.78 0.820695 -1.58514 0
M  V30 13179 C 1238.88 1.47025 -3.05347 0
M  V30 13180 C 1238.05 0.966228 -4.26594 0
M  V30 13181 C 1237.11 1.98955 -4.87138 0
M  V30 13182 O 1236.14 1.56065 -5.47387 0
M  V30 13183 N 1237.34 3.3195 -4.76224 0
M  V30 13184 H 1240.11 -0.338716 -2.9778 0
M  V30 13185 H 1237.67 -0.326817 -1.58567 0
M  V30 13186 H 1239.66 2.15225 -3.42725 0
M  V30 13187 H 1238.23 2.03702 -2.37117 0
M  V30 13188 H 1237.45 0.109336 -3.94048 0
M  V30 13189 H 1238.74 0.607781 -5.05157 0
M  V30 13190 H 1238.14 3.69488 -4.28363 0
M  V30 13191 H 1236.69 3.95881 -5.17805 0
M  V30 13192 N 1240.13 1.55939 -0.228214 0
M  V30 13193 C 1241.35 2.0332 0.409364 0
M  V30 13194 C 1241.78 1.10683 1.52088 0
M  V30 13195 O 1241.13 0.0962484 1.81044 0
M  V30 13196 C 1241.18 3.48877 0.911981 0
M  V30 13197 O 1240.29 3.59378 2.02289 0
M  V30 13198 H 1239.63 0.657625 0.0917909 0
M  V30 13199 H 1242.16 2.01605 -0.348802 0
M  V30 13200 H 1242.17 3.89331 1.22007 0
M  V30 13201 H 1240.84 4.15783 0.0984902 0
M  V30 13202 H 1239.42 3.30815 1.72093 0
M  V30 13203 N 1241.6 -0.0451101 1.57535 0
M  V30 13204 C 1242.51 -1.06796 2.08882 0
M  V30 13205 C 1243.53 -1.40682 1.02394 0
M  V30 13206 O 1244.71 -1.50324 1.34033 0
M  V30 13207 C 1241.77 -2.35467 2.54472 0
M  V30 13208 C 1240.83 -2.0831 3.75374 0
M  V30 13209 C 1240.07 -3.30846 4.1878 0
M  V30 13210 O 1240.29 -4.40945 3.61834 0
M  V30 13211 O 1239.22 -3.17488 5.11356 0
M  V30 13212 H 1243.05 -0.661658 2.96405 0
M  V30 13213 H 1240.63 -0.26104 1.47102 0
M  V30 13214 H 1242.52 -3.11143 2.84198 0
M  V30 13215 H 1241.19 -2.75425 1.70068 0
M  V30 13216 H 1240.1 -1.30254 3.50692 0
M  V30 13217 H 1241.43 -1.73218 4.60713 0
M  V30 13218 N 1243.08 -1.54377 -0.317073 0
M  V30 13219 C 1244.31 -1.77184 -1.07798 0
M  V30 13220 C 1244.73 -0.52204 -1.80711 0
M  V30 13221 O 1244.09 0.52672 -1.7348 0
M  V30 13222 C 1244.14 -2.96887 -2.04671 0
M  V30 13223 O 1243.24 -2.68887 -3.12688 0
M  V30 13224 H 1242.58 -0.586937 -0.310485 0
M  V30 13225 H 1245.11 -2.01419 -0.35939 0
M  V30 13226 H 1245.12 -3.24414 -2.47426 0
M  V30 13227 H 1243.8 -3.87518 -1.51005 0
M  V30 13228 H 1242.38 -2.52329 -2.74562 0
M  V30 13229 N 1244.56 0.579466 -1.4656 0
M  V30 13230 C 1245.47 1.71609 -1.59961 0
M  V30 13231 C 1246.49 1.67162 -0.483002 0
M  V30 13232 O 1247.66 1.87012 -0.747561 0
M  V30 13233 C 1244.73 3.08114 -1.58954 0
M  V30 13234 C 1243.79 3.238 -2.81872 0
M  V30 13235 C 1243.02 4.53794 -2.80904 0
M  V30 13236 O 1243.24 5.37884 -1.89835 0
M  V30 13237 O 1242.18 4.72796 -3.72488 0
M  V30 13238 H 1246 1.6325 -2.56092 0
M  V30 13239 H 1243.59 0.746891 -1.2939 0
M  V30 13240 H 1245.47 3.8939 -1.611 0
M  V30 13241 H 1244.15 3.16903 -0.65984 0
M  V30 13242 H 1243.05 2.42006 -2.85279 0
M  V30 13243 H 1244.39 3.19904 -3.74062 0
M  V30 13244 N 1246.04 1.3432 0.824371 0
M  V30 13245 C 1246.99 1.25776 1.93517 0
M  V30 13246 C 1247.96 0.133298 1.65564 0
M  V30 13247 O 1249.14 0.31403 1.88198 0
M  V30 13248 C 1246.28 1.01766 3.29754 0
M  V30 13249 C 1245.39 2.22973 3.7001 0
M  V30 13250 C 1244.53 1.92258 4.95187 0
M  V30 13251 C 1243.57 3.09616 5.2802 0
M  V30 13252 N 1242.7 2.78793 6.44375 0
M  V30 13253 H 1247.54 2.20774 2.00157 0
M  V30 13254 H 1245.08 1.09766 0.979274 0
M  V30 13255 H 1247.04 0.858831 4.08265 0
M  V30 13256 H 1245.67 0.10437 3.22631 0
M  V30 13257 H 1244.72 2.49781 2.86903 0
M  V30 13258 H 1246.03 3.10661 3.90245 0
M  V30 13259 H 1245.19 1.73102 5.81481 0
M  V30 13260 H 1243.93 1.01827 4.76951 0
M  V30 13261 H 1242.93 3.29368 4.40223 0
M  V30 13262 H 1244.16 4.00822 5.48196 0
M  V30 13263 H 1242.1 1.90938 6.27598 0
M  V30 13264 H 1242.02 3.60014 6.64775 0
M  V30 13265 H 1243.29 2.63139 7.33743 0
M  V30 13266 N 1247.52 -1.0444 1.18026 0
M  V30 13267 C 1248.46 -2.12365 0.903865 0
M  V30 13268 C 1249.43 -1.65373 -0.155252 0
M  V30 13269 O 1250.62 -1.90793 -0.016419 0
M  V30 13270 C 1247.76 -3.4239 0.431603 0
M  V30 13271 C 1246.87 -4.03016 1.55571 0
M  V30 13272 C 1246.01 -5.20988 1.03655 0
M  V30 13273 C 1245.05 -5.73636 2.1356 0
M  V30 13274 N 1244.18 -6.82901 1.63066 0
M  V30 13275 H 1249.02 -2.35346 1.82802 0
M  V30 13276 H 1246.56 -1.15447 0.911618 0
M  V30 13277 H 1248.52 -4.16967 0.139296 0
M  V30 13278 H 1247.15 -3.19569 -0.455576 0
M  V30 13279 H 1246.2 -3.25803 1.96358 0
M  V30 13280 H 1247.51 -4.38122 2.38434 0
M  V30 13281 H 1246.67 -6.02665 0.698546 0
M  V30 13282 H 1245.4 -4.87377 0.177457 0
M  V30 13283 H 1244.41 -4.90583 2.4821 0
M  V30 13284 H 1245.63 -6.09293 2.99899 0
M  V30 13285 H 1243.58 -6.51172 0.794394 0
M  V30 13286 H 1243.5 -7.1705 2.3953 0
M  V30 13287 H 1244.77 -7.68211 1.32181 0
M  V30 13288 N 1248.99 -0.981699 -1.2329 0
M  V30 13289 C 1250.24 -0.651302 -1.9174 0
M  V30 13290 C 1250.57 0.815318 -1.76587 0
M  V30 13291 O 1249.82 1.60377 -1.1215 0
M  V30 13292 C 1250.12 -0.989244 -3.43437 0
M  V30 13293 C 1249.79 -2.44629 -3.78771 0
M  V30 13294 C 1248.45 -2.84449 -3.88127 0
M  V30 13295 C 1250.8 -3.39123 -3.95784 0
M  V30 13296 C 1248.13 -4.17775 -4.11923 0
M  V30 13297 C 1250.48 -4.72095 -4.21081 0
M  V30 13298 C 1249.15 -5.11672 -4.28659 0
M  V30 13299 H 1248.42 -0.238328 -0.701627 0
M  V30 13300 H 1251.06 -1.2358 -1.46288 0
M  V30 13301 H 1249.37 -0.322677 -3.90469 0
M  V30 13302 H 1251.07 -0.711796 -3.94632 0
M  V30 13303 H 1247.66 -2.12759 -3.72064 0
M  V30 13304 H 1251.84 -3.09536 -3.87945 0
M  V30 13305 H 1247.1 -4.48043 -4.16013 0
M  V30 13306 H 1251.27 -5.45271 -4.33189 0
M  V30 13307 H 1248.9 -6.15003 -4.46851 0
M  V30 13308 N 1250.47 1.3842 -0.753509 0
M  V30 13309 C 1251.4 2.33073 -0.141198 0
M  V30 13310 C 1252.38 1.54863 0.70367 0
M  V30 13311 O 1253.57 1.8318 0.644872 0
M  V30 13312 C 1250.7 3.39043 0.752802 0
M  V30 13313 C 1249.65 4.27999 0.0106692 0
M  V30 13314 C 1248.98 5.24824 1.02291 0
M  V30 13315 C 1250.28 5.09308 -1.15768 0
M  V30 13316 H 1251.97 2.84528 -0.93188 0
M  V30 13317 H 1249.52 1.36802 -0.449567 0
M  V30 13318 H 1251.47 4.04224 1.19083 0
M  V30 13319 H 1250.2 2.8607 1.57581 0
M  V30 13320 H 1248.85 3.64323 -0.407939 0
M  V30 13321 H 1248.5 4.68139 1.83998 0
M  V30 13322 H 1248.2 5.85196 0.53101 0
M  V30 13323 H 1249.73 5.92882 1.46026 0
M  V30 13324 H 1251.14 5.6773 -0.797203 0
M  V30 13325 H 1249.54 5.78914 -1.58044 0
M  V30 13326 H 1250.61 4.43051 -1.97062 0
M  V30 13327 N 1251.95 0.502579 1.49372 0
M  V30 13328 C 1253.2 -0.0334303 2.03373 0
M  V30 13329 C 1253.55 -1.34548 1.3753 0
M  V30 13330 O 1252.84 -1.84894 0.502484 0
M  V30 13331 C 1253.04 -0.240835 3.56588 0
M  V30 13332 C 1252.87 1.04956 4.37281 0
M  V30 13333 C 1251.64 1.6018 4.7924 0
M  V30 13334 C 1253.84 1.95323 4.75766 0
M  V30 13335 N 1251.82 2.83793 5.44366 0
M  V30 13336 C 1253.19 3.03516 5.40628 0
M  V30 13337 C 1255.24 1.95982 4.57707 0
M  V30 13338 C 1253.95 4.12396 5.89341 0
M  V30 13339 C 1255.97 3.03839 5.07382 0
M  V30 13340 C 1255.33 4.10749 5.72245 0
M  V30 13341 H 1251.43 0.0285863 0.781477 0
M  V30 13342 H 1254.02 0.677787 1.82522 0
M  V30 13343 H 1252.19 -0.921111 3.7732 0
M  V30 13344 H 1253.92 -0.773993 3.9723 0
M  V30 13345 H 1250.68 1.14674 4.59507 0
M  V30 13346 H 1251.1 3.46654 5.81515 0
M  V30 13347 H 1255.74 1.14632 4.06963 0
M  V30 13348 H 1253.46 4.94542 6.39104 0
M  V30 13349 H 1257.05 3.0537 4.95218 0
M  V30 13350 H 1255.93 4.92833 6.09988 0
M  V30 13351 N 1253.43 -1.55816 0.23648 0
M  V30 13352 C 1254.38 -2.20938 -0.66745 0
M  V30 13353 C 1255.35 -1.16982 -1.17917 0
M  V30 13354 O 1256.53 -1.45392 -1.23555 0
M  V30 13355 C 1253.67 -2.90469 -1.86337 0
M  V30 13356 C 1252.78 -4.09056 -1.38915 0
M  V30 13357 C 1251.92 -4.6633 -2.54382 0
M  V30 13358 C 1250.96 -5.77187 -2.0377 0
M  V30 13359 N 1250.09 -6.28688 -3.12564 0
M  V30 13360 H 1254.93 -2.97814 -0.105411 0
M  V30 13361 H 1252.47 -1.47045 -0.0402712 0
M  V30 13362 H 1254.43 -3.28975 -2.56576 0
M  V30 13363 H 1253.06 -2.16086 -2.39806 0
M  V30 13364 H 1252.11 -3.75934 -0.581173 0
M  V30 13365 H 1253.42 -4.89115 -0.978152 0
M  V30 13366 H 1252.58 -5.07355 -3.32679 0
M  V30 13367 H 1251.32 -3.85464 -2.98778 0
M  V30 13368 H 1250.32 -5.35648 -1.23939 0
M  V30 13369 H 1251.55 -6.59896 -1.60355 0
M  V30 13370 H 1249.49 -5.50731 -3.56414 0
M  V30 13371 H 1249.41 -7.03911 -2.75762 0
M  V30 13372 H 1250.68 -6.74371 -3.90952 0
M  V30 13373 N 1254.91 0.036755 -1.57557 0
M  V30 13374 C 1256.14 0.740011 -1.92892 0
M  V30 13375 C 1256.54 1.69828 -0.833964 0
M  V30 13376 O 1255.89 1.82619 0.198974 0
M  V30 13377 C 1255.95 1.55827 -3.23972 0
M  V30 13378 C 1255.61 0.765613 -4.50541 0
M  V30 13379 C 1256.61 0.0692686 -5.19854 0
M  V30 13380 C 1254.3 0.722425 -4.97078 0
M  V30 13381 C 1256.29 -0.659649 -6.33977 0
M  V30 13382 C 1253.98 -0.0102431 -6.11099 0
M  V30 13383 C 1254.97 -0.700047 -6.79403 0
M  V30 13384 O 1254.66 -1.42084 -7.91244 0
M  V30 13385 H 1254.39 0.213496 -0.641401 0
M  V30 13386 H 1256.95 0.000665152 -2.054 0
M  V30 13387 H 1255.18 2.34125 -3.0777 0
M  V30 13388 H 1256.87 2.14343 -3.44691 0
M  V30 13389 H 1257.63 0.0937148 -4.84909 0
M  V30 13390 H 1253.51 1.24883 -4.43763 0
M  V30 13391 H 1257.06 -1.19861 -6.87226 0
M  V30 13392 H 1252.95 -0.0366395 -6.4549 0
M  V30 13393 H 1253.72 -1.33372 -8.07561 0
M  V30 13394 N 1256.39 1.54543 0.308881 0
M  V30 13395 C 1257.63 1.73706 1.04661 0
M  V30 13396 C 1257.96 0.517111 1.87189 0
M  V30 13397 O 1257.24 -0.485856 1.88334 0
M  V30 13398 C 1257.52 3.02141 1.95916 0
M  V30 13399 C 1257.38 4.34419 1.1662 0
M  V30 13400 C 1258.69 3.26401 2.95213 0
M  V30 13401 H 1255.81 0.63203 0.379087 0
M  V30 13402 H 1258.46 1.87253 0.321947 0
M  V30 13403 H 1256.61 2.90723 2.57706 0
M  V30 13404 H 1258.28 4.57743 0.571772 0
M  V30 13405 H 1256.52 4.3126 0.468747 0
M  V30 13406 H 1257.19 5.20535 1.83704 0
M  V30 13407 H 1259.67 3.37377 2.43549 0
M  V30 13408 H 1258.54 4.17597 3.56235 0
M  V30 13409 H 1258.8 2.44322 3.68455 0
M  V30 13410 N 1257.86 -0.571685 1.46866 0
M  V30 13411 C 1258.81 -1.70098 1.58649 0
M  V30 13412 C 1259.81 -1.63191 0.45443 0
M  V30 13413 O 1261.01 -1.68551 0.63171 0
M  V30 13414 H 1257.39 -0.56258 0.499007 0
M  V30 13415 H 1259.36 -1.57293 2.53577 0
M  V30 13416 C 1258.11 -3.08475 1.60433 0
M  V30 13417 H 1257.43 -3.14465 2.46884 0
M  V30 13418 H 1258.87 -3.87221 1.7273 0
M  V30 13419 C 1257.33 -3.35231 0.334948 0
M  V30 13420 O 1257.86 -3.97633 -0.570149 0
M  V30 13421 N 1256.06 -2.8977 0.219441 0
M  V30 13422 H 1255.61 -2.39168 0.956891 0
M  V30 13423 H 1255.57 -3.08044 -0.628975 0
M  V30 13424 N 1259.34 -1.34755 -0.817236 0
M  V30 13425 C 1260.76 -1.14561 -1.11121 0
M  V30 13426 C 1260.96 0.0490776 -2.0144 0
M  V30 13427 O 1260.01 0.722897 -2.41931 0
M  V30 13428 C 1261.33 -2.44356 -1.75244 0
M  V30 13429 C 1262.87 -2.50465 -1.87713 0
M  V30 13430 C 1263.35 -3.80276 -2.55253 0
M  V30 13431 N 1264.84 -3.81468 -2.62747 0
M  V30 13432 C 1265.58 -4.78634 -3.15749 0
M  V30 13433 N 1265.07 -5.86184 -3.6927 0
M  V30 13434 N 1266.86 -4.66083 -3.14203 0
M  V30 13435 H 1259.02 -2.11293 -0.2166 0
M  V30 13436 H 1261.28 -0.934629 -0.158661 0
M  V30 13437 H 1260.98 -3.31899 -1.16344 0
M  V30 13438 H 1260.86 -2.58117 -2.75055 0
M  V30 13439 H 1263.25 -1.63358 -2.45761 0
M  V30 13440 H 1263.33 -2.40627 -0.867887 0
M  V30 13441 H 1262.97 -4.67776 -1.97858 0
M  V30 13442 H 1262.9 -3.87399 -3.56693 0
M  V30 13443 H 1265.39 -3.03753 -2.24817 0
M  V30 13444 H 1265.7 -6.56332 -4.0798 0
M  V30 13445 H 1264.05 -5.8989 -3.67498 0
M  V30 13446 H 1267.24 -3.81206 -2.7166 0
M  V30 13447 H 1267.41 -5.41973 -3.55203 0
M  V30 13448 N 1260.82 1.03812 -1.18578 0
M  V30 13449 C 1261.77 2.13994 -0.911563 0
M  V30 13450 C 1262.76 1.68907 0.129131 0
M  V30 13451 O 1263.97 1.7999 -0.0192557 0
M  V30 13452 H 1260.34 0.698996 -0.277324 0
M  V30 13453 H 1262.31 2.34318 -1.84763 0
M  V30 13454 C 1261.06 3.44689 -0.456591 0
M  V30 13455 H 1260.39 3.79793 -1.2489 0
M  V30 13456 H 1261.83 4.22911 -0.303738 0
M  V30 13457 C 1260.28 3.26568 0.827961 0
M  V30 13458 O 1260.81 3.54376 1.89158 0
M  V30 13459 N 1259.02 2.79893 0.781567 0
M  V30 13460 H 1258.57 2.57462 -0.0842145 0
M  V30 13461 H 1258.53 2.68148 1.64146 0
M  V30 13462 N 1262.3 0.988223 1.22768 0
M  V30 13463 C 1263.57 0.577578 1.86878 0
M  V30 13464 C 1263.95 -0.945197 1.88757 0
M  V30 13465 O 1263.3 -1.82519 1.37474 0
M  V30 13466 C 1263.51 1.19263 3.2799 0
M  V30 13467 C 1264.86 1.29024 4.04522 0
M  V30 13468 O 1265.88 1.14667 3.37239 0
M  V30 13469 O 1264.74 1.51949 5.24951 0
M  V30 13470 H 1261.84 0.195579 0.803541 0
M  V30 13471 H 1264.38 1.0838 1.30582 0
M  V30 13472 H 1263.16 2.23442 3.21231 0
M  V30 13473 H 1262.78 0.671706 3.91885 0
M  V30 13474 N 1263.78 -1.38018 0.760839 0
M  V30 13475 C 1264.74 -2.28734 0.146154 0
M  V30 13476 C 1265.74 -1.47525 -0.639768 0
M  V30 13477 O 1266.93 -1.6788 -0.464964 0
M  V30 13478 C 1264.06 -3.31356 -0.801019 0
M  V30 13479 H 1265.25 -2.84599 0.945692 0
M  V30 13480 H 1262.81 -1.471 0.528323 0
M  V30 13481 H 1263.54 -2.80594 -1.62597 0
M  V30 13482 H 1263.33 -3.91366 -0.239775 0
M  V30 13483 H 1264.82 -3.99171 -1.22687 0
M  V30 13484 N 1265.25 -0.510493 -1.49103 0
M  V30 13485 C 1266.19 0.299697 -2.27232 0
M  V30 13486 C 1267.2 0.922102 -1.34168 0
M  V30 13487 O 1268.39 0.803836 -1.59376 0
M  V30 13488 C 1265.49 1.43778 -3.06889 0
M  V30 13489 C 1264.66 0.920927 -4.27595 0
M  V30 13490 C 1263.72 1.93777 -4.89221 0
M  V30 13491 O 1262.75 1.5025 -5.49011 0
M  V30 13492 N 1263.95 3.2688 -4.79718 0
M  V30 13493 H 1266.71 -0.37028 -2.97404 0
M  V30 13494 H 1264.27 -0.343617 -1.58212 0
M  V30 13495 H 1266.27 2.11577 -3.44988 0
M  V30 13496 H 1264.84 2.01175 -2.39264 0
M  V30 13497 H 1264.06 0.0675358 -3.94142 0
M  V30 13498 H 1265.34 0.554168 -5.05773 0
M  V30 13499 H 1264.74 3.64924 -4.32258 0
M  V30 13500 H 1263.3 3.90366 -5.21974 0
M  V30 13501 N 1266.73 1.55688 -0.24474 0
M  V30 13502 C 1267.96 2.03743 0.387776 0
M  V30 13503 C 1268.38 1.1229 1.50906 0
M  V30 13504 O 1267.74 0.115445 1.80932 0
M  V30 13505 C 1267.79 3.49825 0.874927 0
M  V30 13506 O 1266.89 3.61504 1.98466 0
M  V30 13507 H 1266.23 0.658561 0.0848107 0
M  V30 13508 H 1268.76 2.01224 -0.370165 0
M  V30 13509 H 1268.77 3.90603 1.17871 0
M  V30 13510 H 1267.45 4.15864 0.0543852 0
M  V30 13511 H 1266.02 3.32622 1.68574 0
M  V30 13512 N 1268.21 -0.0283989 1.57574 0
M  V30 13513 C 1269.17 -1.01346 2.05576 0
M  V30 13514 C 1270.17 -1.28999 0.960001 0
M  V30 13515 O 1271.36 -1.23991 1.2236 0
M  V30 13516 C 1268.49 -2.34611 2.47327 0
M  V30 13517 H 1269.69 -0.598809 2.93861 0
M  V30 13518 H 1267.24 -0.27524 1.53857 0
M  V30 13519 H 1267.98 -2.80823 1.622 0
M  V30 13520 H 1267.76 -2.1587 3.27326 0
M  V30 13521 H 1269.25 -3.05332 2.84889 0
M  V30 13522 N 1269.69 -1.54705 -0.300681 0
M  V30 13523 C 1270.92 -1.77735 -1.05327 0
M  V30 13524 C 1271.33 -0.53709 -1.81417 0
M  V30 13525 O 1270.67 0.502663 -1.76689 0
M  V30 13526 C 1270.73 -2.93222 -2.07993 0
M  V30 13527 C 1270.39 -4.313 -1.51095 0
M  V30 13528 C 1271.39 -5.11317 -0.94082 0
M  V30 13529 C 1269.08 -4.77901 -1.54648 0
M  V30 13530 C 1271.07 -6.36055 -0.413791 0
M  V30 13531 C 1268.76 -6.02602 -1.01558 0
M  V30 13532 C 1269.76 -6.81515 -0.450209 0
M  V30 13533 O 1269.44 -8.03867 0.0726375 0
M  V30 13534 H 1269.18 -0.596468 -0.318122 0
M  V30 13535 H 1271.73 -2.02475 -0.345404 0
M  V30 13536 H 1269.96 -2.64108 -2.82461 0
M  V30 13537 H 1271.65 -3.03826 -2.69156 0
M  V30 13538 H 1272.41 -4.76458 -0.906268 0
M  V30 13539 H 1268.29 -4.16507 -1.97594 0
M  V30 13540 H 1271.84 -6.97594 0.0281534 0
M  V30 13541 H 1267.73 -6.36948 -1.04728 0
M  V30 13542 H 1268.5 -8.1849 -0.0406321 0
M  V30 13543 N 1271.17 0.563888 -1.47167 0
M  V30 13544 C 1272.41 1.32136 -1.53448 0
M  V30 13545 C 1272.74 1.9353 -0.19396 0
M  V30 13546 O 1272 1.78038 0.812456 0
M  V30 13547 C 1272.3 2.45678 -2.59571 0
M  V30 13548 C 1271.96 2.02157 -4.03043 0
M  V30 13549 C 1270.62 1.90003 -4.421 0
M  V30 13550 C 1272.98 1.68846 -4.93093 0
M  V30 13551 C 1270.3 1.42825 -5.6905 0
M  V30 13552 C 1272.66 1.2314 -6.20499 0
M  V30 13553 C 1271.32 1.09578 -6.58444 0
M  V30 13554 H 1270.59 0.483519 -0.561507 0
M  V30 13555 H 1273.24 0.633042 -1.80734 0
M  V30 13556 H 1271.54 3.20037 -2.26017 0
M  V30 13557 H 1273.24 3.03871 -2.61655 0
M  V30 13558 H 1269.83 2.12557 -3.7218 0
M  V30 13559 H 1274.01 1.77111 -4.63622 0
M  V30 13560 H 1269.27 1.30983 -5.97205 0
M  V30 13561 H 1273.44 0.964247 -6.89692 0
M  V30 13562 H 1271.07 0.727975 -7.56706 0
M  V30 13563 N 1272.64 1.35187 0.810078 0
M  V30 13564 C 1273.89 1.27602 1.56207 0
M  V30 13565 C 1274.21 -0.148621 1.95035 0
M  V30 13566 O 1275.41 -0.346721 2.69277 0
M  V30 13567 C 1273.87 2.23759 2.81886 0
M  V30 13568 C 1273.48 3.71549 2.5031 0
M  V30 13569 C 1275.22 2.25109 3.59898 0
M  V30 13570 C 1273.13 4.5954 3.7226 0
M  V30 13571 H 1272.06 0.474078 0.586316 0
M  V30 13572 H 1274.71 1.6043 0.890759 0
M  V30 13573 H 1273.09 1.83898 3.5071 0
M  V30 13574 H 1274.26 4.20025 1.89515 0
M  V30 13575 H 1272.58 3.72773 1.85551 0
M  V30 13576 H 1275.18 2.88066 4.50469 0
M  V30 13577 H 1275.52 1.25387 3.96968 0
M  V30 13578 H 1276.05 2.63481 2.98031 0
M  V30 13579 H 1272.79 5.60246 3.403 0
M  V30 13580 H 1272.31 4.15792 4.32293 0
M  V30 13581 H 1273.99 4.74789 4.39528 0
M  V30 13582 N 1274.12 -1.03182 1.19127 0
M  V30 13583 C 1275.37 -1.76184 0.990134 0
M  V30 13584 C 1275.69 -1.88986 -0.480546 0
M  V30 13585 O 1274.96 -1.4213 -1.34817 0
M  V30 13586 H 1273.54 -0.652668 0.363364 0
M  V30 13587 H 1276.2 -1.24481 1.49968 0
M  V30 13588 H 1275.3 -2.77119 1.43568 0
M  V30 13589 N 1275.6 -0.99472 -1.22242 0
M  V30 13590 C 1276.53 -0.566499 -2.26524 0
M  V30 13591 C 1277.51 0.407541 -1.65146 0
M  V30 13592 O 1278.7 0.297777 -1.91903 0
M  V30 13593 C 1275.83 0.11786 -3.471 0
M  V30 13594 C 1274.78 -0.774908 -4.20927 0
M  V30 13595 C 1274.11 0.0424687 -5.34683 0
M  V30 13596 C 1275.41 -2.07263 -4.79416 0
M  V30 13597 H 1277.1 -1.43818 -2.62596 0
M  V30 13598 H 1274.65 -0.692971 -1.2623 0
M  V30 13599 H 1276.6 0.428842 -4.19212 0
M  V30 13600 H 1275.32 1.0241 -3.10129 0
M  V30 13601 H 1273.98 -1.06956 -3.50651 0
M  V30 13602 H 1273.63 0.949677 -4.93954 0
M  V30 13603 H 1273.33 -0.551867 -5.85003 0
M  V30 13604 H 1274.85 0.347504 -6.0961 0
M  V30 13605 H 1276.27 -1.82548 -5.4346 0
M  V30 13606 H 1274.67 -2.61594 -5.40082 0
M  V30 13607 H 1275.74 -2.75017 -3.99366 0
M  V30 13608 N 1277.08 1.37613 -0.768148 0
M  V30 13609 C 1278.01 2.3291 -0.165911 0
M  V30 13610 C 1278.99 1.556 0.687205 0
M  V30 13611 O 1280.17 1.83854 0.625407 0
M  V30 13612 C 1277.3 3.39822 0.7168 0
M  V30 13613 C 1276.26 4.27986 -0.0347264 0
M  V30 13614 C 1275.58 5.2588 0.967192 0
M  V30 13615 C 1276.88 5.08052 -1.21164 0
M  V30 13616 H 1278.58 2.83524 -0.962006 0
M  V30 13617 H 1276.12 1.36318 -0.464051 0
M  V30 13618 H 1278.08 4.05464 1.14789 0
M  V30 13619 H 1276.8 2.87725 1.54538 0
M  V30 13620 H 1275.46 3.6387 -0.446557 0
M  V30 13621 H 1275.11 4.70064 1.79022 0
M  V30 13622 H 1274.81 5.85726 0.468913 0
M  V30 13623 H 1276.33 5.94397 1.3973 0
M  V30 13624 H 1277.75 5.66853 -0.857373 0
M  V30 13625 H 1276.14 5.77206 -1.64176 0
M  V30 13626 H 1277.21 4.40936 -2.0175 0
M  V30 13627 N 1278.56 0.518393 1.4883 0
M  V30 13628 C 1279.81 -0.0218436 2.01688 0
M  V30 13629 C 1280.12 -1.36421 1.40174 0
M  V30 13630 O 1281.32 -1.99214 1.84461 0
M  V30 13631 C 1279.78 -0.0893538 3.59789 0
M  V30 13632 C 1279.39 1.24741 4.30283 0
M  V30 13633 C 1281.13 -0.579032 4.20532 0
M  V30 13634 C 1279.04 1.14112 5.80286 0
M  V30 13635 H 1277.97 -0.0119353 0.753906 0
M  V30 13636 H 1280.62 0.660432 1.71203 0
M  V30 13637 H 1279 -0.836458 3.87065 0
M  V30 13638 H 1280.18 2.00917 4.14691 0
M  V30 13639 H 1278.49 1.67191 3.81361 0
M  V30 13640 H 1281.09 -0.676343 5.30405 0
M  V30 13641 H 1281.43 -1.58207 3.85067 0
M  V30 13642 H 1281.96 0.112046 3.97642 0
M  V30 13643 H 1278.7 2.11895 6.20307 0
M  V30 13644 H 1278.22 0.420535 5.98324 0
M  V30 13645 H 1279.9 0.826992 6.41693 0
M  V30 13646 N 1280.03 -1.55556 0.252993 0
M  V30 13647 C 1281.26 -2.03945 -0.376965 0
M  V30 13648 C 1281.68 -1.13089 -1.50308 0
M  V30 13649 O 1281.04 -0.125039 -1.80868 0
M  V30 13650 C 1281.09 -3.50284 -0.856363 0
M  V30 13651 O 1280.19 -3.62551 -1.96546 0
M  V30 13652 H 1279.54 -0.659002 -0.081317 0
M  V30 13653 H 1282.07 -2.01024 0.380831 0
M  V30 13654 H 1282.08 -3.91222 -1.15798 0
M  V30 13655 H 1280.75 -4.15887 -0.0323302 0
M  V30 13656 H 1279.33 -3.33511 -1.66808 0
M  V30 13657 N 1281.51 0.0200419 -1.57587 0
M  V30 13658 C 1282.44 1.01715 -2.10181 0
M  V30 13659 C 1283.42 1.37136 -1.00636 0
M  V30 13660 O 1284.61 1.45862 -1.2821 0
M  V30 13661 C 1281.74 2.31531 -2.58865 0
M  V30 13662 C 1280.69 2.10327 -3.72755 0
M  V30 13663 C 1280.02 3.45981 -4.07678 0
M  V30 13664 C 1281.32 1.4821 -5.0083 0
M  V30 13665 H 1283.01 0.579307 -2.93742 0
M  V30 13666 H 1280.56 0.277211 -1.41307 0
M  V30 13667 H 1282.51 3.01623 -2.94281 0
M  V30 13668 H 1281.24 2.77392 -1.72399 0
M  V30 13669 H 1279.89 1.42665 -3.37701 0
M  V30 13670 H 1279.54 3.89508 -3.18265 0
M  V30 13671 H 1279.24 3.32616 -4.84397 0
M  V30 13672 H 1280.77 4.17421 -4.45637 0
M  V30 13673 H 1282.18 2.08232 -5.34146 0
M  V30 13674 H 1280.58 1.45393 -5.82221 0
M  V30 13675 H 1281.65 0.448942 -4.82817 0
M  V30 13676 N 1282.99 1.54862 0.292472 0
M  V30 13677 C 1284.27 1.65237 1.04671 0
M  V30 13678 C 1284.65 0.506168 2.04942 0
M  V30 13679 O 1284 -0.496123 2.23049 0
M  V30 13680 C 1284.21 3.03618 1.72095 0
M  V30 13681 C 1285.55 3.6072 2.23979 0
M  V30 13682 O 1286.58 3.06126 1.82114 0
M  V30 13683 O 1285.44 4.56328 3.0071 0
M  V30 13684 H 1282.53 0.670347 0.484319 0
M  V30 13685 H 1285.08 1.67206 0.28988 0
M  V30 13686 H 1283.85 3.78482 0.993324 0
M  V30 13687 H 1283.47 3.05464 2.54514 0
M  V30 13688 N 1284.47 -0.556076 1.47464 0
M  V30 13689 C 1285.42 -1.66304 1.60036 0
M  V30 13690 C 1286.39 -1.60074 0.443348 0
M  V30 13691 O 1287.57 -1.7889 0.663545 0
M  V30 13692 C 1284.71 -3.04624 1.62167 0
M  V30 13693 C 1283.82 -3.21283 2.88793 0
M  V30 13694 C 1282.96 -4.50008 2.82252 0
M  V30 13695 C 1282 -4.60103 4.03698 0
M  V30 13696 N 1281.13 -5.80184 3.95387 0
M  V30 13697 H 1285.97 -1.54897 2.5458 0
M  V30 13698 H 1283.51 -0.754533 1.26274 0
M  V30 13699 H 1285.47 -3.84721 1.61386 0
M  V30 13700 H 1284.1 -3.14865 0.711348 0
M  V30 13701 H 1283.15 -2.34611 2.99436 0
M  V30 13702 H 1284.46 -3.24607 3.78724 0
M  V30 13703 H 1283.62 -5.38366 2.79726 0
M  V30 13704 H 1282.36 -4.49165 1.90005 0
M  V30 13705 H 1281.36 -3.70157 4.06527 0
M  V30 13706 H 1282.59 -4.62704 4.97073 0
M  V30 13707 H 1280.53 -5.80288 3.05944 0
M  V30 13708 H 1280.45 -5.8489 4.78998 0
M  V30 13709 H 1281.72 -6.709 3.96879 0
M  V30 13710 N 1285.95 -1.35615 -0.802897 0
M  V30 13711 C 1286.89 -1.28839 -1.91492 0
M  V30 13712 C 1287.86 -0.159621 -1.65331 0
M  V30 13713 O 1289.05 -0.343931 -1.87675 0
M  V30 13714 C 1286.19 -1.06999 -3.28093 0
M  V30 13715 C 1285.3 -2.28831 -3.66416 0
M  V30 13716 C 1284.44 -2.00111 -4.92066 0
M  V30 13717 C 1283.48 -3.17977 -5.23027 0
M  V30 13718 N 1282.61 -2.89009 -6.39858 0
M  V30 13719 H 1287.45 -2.2393 -1.96619 0
M  V30 13720 H 1284.99 -1.1131 -0.961687 0
M  V30 13721 H 1286.95 -0.923673 -4.06847 0
M  V30 13722 H 1285.58 -0.155684 -3.22424 0
M  V30 13723 H 1284.63 -2.54314 -2.82893 0
M  V30 13724 H 1285.94 -3.1683 -3.85253 0
M  V30 13725 H 1285.1 -1.82331 -5.78654 0
M  V30 13726 H 1283.84 -1.09402 -4.75271 0
M  V30 13727 H 1282.84 -3.3633 -4.34928 0
M  V30 13728 H 1284.07 -4.09493 -5.41749 0
M  V30 13729 H 1282.01 -2.00898 -6.24481 0
M  V30 13730 H 1281.93 -3.70544 -6.58964 0
M  V30 13731 H 1283.2 -2.74779 -7.29463 0
M  V30 13732 N 1287.43 1.02549 -1.19673 0
M  V30 13733 C 1288.67 1.76004 -1.00144 0
M  V30 13734 C 1289 1.888 0.467423 0
M  V30 13735 O 1288.26 1.404 1.36331 0
M  V30 13736 C 1288.55 3.18597 -1.61959 0
M  V30 13737 C 1288.22 3.258 -3.11713 0
M  V30 13738 C 1286.88 3.27473 -3.52583 0
M  V30 13739 C 1289.23 3.24675 -4.0772 0
M  V30 13740 C 1286.56 3.25681 -4.88005 0
M  V30 13741 C 1288.91 3.24424 -5.43076 0
M  V30 13742 C 1287.58 3.24396 -5.83372 0
M  V30 13743 H 1286.85 0.644044 -0.366453 0
M  V30 13744 H 1289.5 1.20338 -1.48966 0
M  V30 13745 H 1287.8 3.77364 -1.05375 0
M  V30 13746 H 1289.5 3.74109 -1.44374 0
M  V30 13747 H 1286.09 3.25228 -2.7915 0
M  V30 13748 H 1290.27 3.2256 -3.77185 0
M  V30 13749 H 1285.53 3.23986 -5.18501 0
M  V30 13750 H 1289.7 3.22504 -6.17223 0
M  V30 13751 H 1287.33 3.22762 -6.8828 0
M  V30 13752 N 1288.9 1.00119 1.21713 0
M  V30 13753 C 1289.87 0.563409 2.22167 0
M  V30 13754 C 1290.87 -0.35819 1.5676 0
M  V30 13755 O 1292.06 -0.149001 1.73562 0
M  V30 13756 C 1289.19 -0.179365 3.40428 0
M  V30 13757 H 1290.38 1.45189 2.62412 0
M  V30 13758 H 1287.93 0.789286 1.34907 0
M  V30 13759 H 1288.67 -1.08345 3.05666 0
M  V30 13760 H 1288.45 0.482471 3.8912 0
M  V30 13761 H 1289.94 -0.473537 4.14906 0
M  V30 13762 N 1290.38 -1.37203 0.775435 0
M  V30 13763 C 1291.63 -2.00349 0.350965 0
M  V30 13764 C 1291.98 -1.6045 -1.06176 0
M  V30 13765 O 1291.28 -0.842377 -1.72089 0
M  V30 13766 C 1291.47 -3.54725 0.436426 0
M  V30 13767 C 1291.3 -4.09617 1.85591 0
M  V30 13768 C 1290.07 -4.404 2.47741 0
M  V30 13769 C 1292.27 -4.30357 2.81598 0
M  V30 13770 N 1290.25 -4.81029 3.81424 0
M  V30 13771 C 1291.62 -4.73636 4.00087 0
M  V30 13772 C 1293.67 -4.12498 2.78837 0
M  V30 13773 C 1292.38 -5.00926 5.16203 0
M  V30 13774 C 1294.4 -4.40926 3.9413 0
M  V30 13775 C 1293.77 -4.84448 5.1136 0
M  V30 13776 H 1289.86 -0.762041 0.175549 0
M  V30 13777 H 1292.45 -1.66451 1.01005 0
M  V30 13778 H 1290.62 -3.87923 -0.192502 0
M  V30 13779 H 1292.35 -4.04699 -0.0104534 0
M  V30 13780 H 1289.11 -4.2961 1.9933 0
M  V30 13781 H 1289.53 -5.05648 4.50166 0
M  V30 13782 H 1294.17 -3.78018 1.89373 0
M  V30 13783 H 1291.89 -5.34293 6.06265 0
M  V30 13784 H 1295.48 -4.28692 3.93338 0
M  V30 13785 H 1294.36 -5.06022 5.99092 0
M  V30 13786 N 1291.86 -0.526279 -1.48553 0
M  V30 13787 C 1292.79 0.2857 -2.26404 0
M  V30 13788 C 1293.77 0.948104 -1.32098 0
M  V30 13789 O 1294.95 0.973228 -1.61433 0
M  V30 13790 C 1292.08 1.40432 -3.08215 0
M  V30 13791 C 1291.13 0.853705 -4.17869 0
M  V30 13792 S 1291.96 -0.275518 -5.34791 0
M  V30 13793 C 1293.12 0.845667 -6.20161 0
M  V30 13794 H 1293.35 -0.375004 -2.94925 0
M  V30 13795 H 1290.88 -0.311999 -1.51215 0
M  V30 13796 H 1292.84 2.04513 -3.55928 0
M  V30 13797 H 1291.5 2.03673 -2.39115 0
M  V30 13798 H 1290.69 1.69278 -4.74722 0
M  V30 13799 H 1290.3 0.289659 -3.72877 0
M  V30 13800 H 1292.59 1.74517 -6.54637 0
M  V30 13801 H 1293.53 0.315189 -7.07398 0
M  V30 13802 H 1293.94 1.1244 -5.53188 0
M  V30 13803 N 1293.34 1.5542 -0.261239 0
M  V30 13804 C 1294.61 1.91243 0.41056 0
M  V30 13805 C 1294.99 1.1838 1.74784 0
M  V30 13806 O 1294.34 0.306013 2.26442 0
M  V30 13807 C 1294.55 3.44404 0.56453 0
M  V30 13808 C 1295.9 4.15927 0.853827 0
M  V30 13809 O 1296.92 3.50222 0.649861 0
M  V30 13810 O 1295.78 5.32175 1.24308 0
M  V30 13811 H 1292.88 0.796491 0.222555 0
M  V30 13812 H 1295.42 1.66912 -0.306367 0
M  V30 13813 H 1294.2 3.89478 -0.377134 0
M  V30 13814 H 1293.82 3.74644 1.33145 0
M  V30 13815 N 1294.82 -0.0116844 1.57596 0
M  V30 13816 C 1296.06 -0.697577 1.89679 0
M  V30 13817 C 1296.38 -1.74956 0.861122 0
M  V30 13818 O 1295.65 -1.95629 -0.103031 0
M  V30 13819 H 1294.23 -0.26064 0.700054 0
M  V30 13820 H 1296.9 0.0264782 1.94882 0
M  V30 13821 H 1295.99 -1.17621 2.89088 0
M  V30 13822 N 1296.29 -1.55015 -0.284256 0
M  V30 13823 C 1297.52 -1.79431 -1.04016 0
M  V30 13824 C 1297.94 -0.560254 -1.79563 0
M  V30 13825 O 1297.3 0.489804 -1.74558 0
M  V30 13826 C 1297.35 -3.01162 -1.98328 0
M  V30 13827 O 1296.45 -2.75459 -3.06914 0
M  V30 13828 H 1295.79 -0.593391 -0.297965 0
M  V30 13829 H 1298.32 -2.02136 -0.316585 0
M  V30 13830 H 1298.33 -3.29589 -2.40489 0
M  V30 13831 H 1297.01 -3.90634 -1.42751 0
M  V30 13832 H 1295.59 -2.58096 -2.69148 0
M  V30 13833 N 1297.77 0.548248 -1.47757 0
M  V30 13834 C 1298.72 1.65453 -1.60916 0
M  V30 13835 C 1299.69 1.59836 -0.451831 0
M  V30 13836 O 1300.87 1.78536 -0.673023 0
M  V30 13837 C 1298.01 3.0376 -1.6378 0
M  V30 13838 C 1297.13 3.19747 -2.90492 0
M  V30 13839 C 1296.26 4.48505 -2.84635 0
M  V30 13840 C 1295.3 4.57956 -4.06132 0
M  V30 13841 N 1294.44 5.78079 -3.98458 0
M  V30 13842 H 1299.28 1.53545 -2.55398 0
M  V30 13843 H 1296.81 0.747826 -1.26673 0
M  V30 13844 H 1298.77 3.8386 -1.63424 0
M  V30 13845 H 1297.4 3.14483 -0.728036 0
M  V30 13846 H 1296.45 2.3302 -3.00676 0
M  V30 13847 H 1297.77 3.22594 -3.8044 0
M  V30 13848 H 1296.92 5.36875 -2.82577 0
M  V30 13849 H 1295.66 4.48151 -1.92385 0
M  V30 13850 H 1294.66 3.67995 -4.08484 0
M  V30 13851 H 1295.89 4.60062 -4.9952 0
M  V30 13852 H 1293.84 5.78657 -3.09017 0
M  V30 13853 H 1293.75 5.82342 -4.82093 0
M  V30 13854 H 1295.02 6.68786 -4.00431 0
M  V30 13855 N 1299.25 1.36039 0.795694 0
M  V30 13856 C 1300.5 1.30112 1.5556 0
M  V30 13857 C 1300.83 -0.121197 1.93821 0
M  V30 13858 O 1300.1 -1.07313 1.62216 0
M  V30 13859 C 1300.39 2.21792 2.8369 0
M  V30 13860 C 1300.24 3.72691 2.51836 0
M  V30 13861 C 1301.56 2.12365 3.85472 0
M  V30 13862 H 1298.68 0.473971 0.564376 0
M  V30 13863 H 1301.32 1.66536 0.91465 0
M  V30 13864 H 1299.47 1.9086 3.38386 0
M  V30 13865 H 1301.14 4.14115 2.0324 0
M  V30 13866 H 1299.38 3.92436 1.84869 0
M  V30 13867 H 1300.06 4.32242 3.43323 0
M  V30 13868 H 1302.53 2.3958 3.40207 0
M  V30 13869 H 1301.41 2.78695 4.72885 0
M  V30 13870 H 1301.67 1.10898 4.27965 0
M  V30 13871 N 1300.73 -1.01913 1.20215 0
M  V30 13872 C 1302.01 -1.7262 0.919867 0
M  V30 13873 C 1302.39 -2.03203 -0.572001 0
M  V30 13874 O 1301.73 -1.69448 -1.53296 0
M  V30 13875 C 1301.94 -2.9959 1.79016 0
M  V30 13876 C 1303.29 -3.72905 2.03045 0
M  V30 13877 O 1304.32 -3.0954 1.76249 0
M  V30 13878 O 1303.17 -4.86844 2.48285 0
M  V30 13879 H 1300.27 -0.752194 0.343705 0
M  V30 13880 H 1302.81 -1.07783 1.31076 0
M  V30 13881 H 1301.59 -2.73292 2.80048 0
M  V30 13882 H 1301.21 -3.72168 1.39918 0
M  V30 13883 N 1302.21 -1.00763 -1.2118 0
M  V30 13884 C 1303.44 -0.709715 -1.94027 0
M  V30 13885 C 1303.84 0.732135 -1.7446 0
M  V30 13886 O 1303.19 1.50731 -1.05004 0
M  V30 13887 C 1303.25 -0.95427 -3.46603 0
M  V30 13888 C 1302.91 -2.38347 -3.89923 0
M  V30 13889 C 1303.91 -3.36383 -3.96412 0
M  V30 13890 C 1301.6 -2.72183 -4.22163 0
M  V30 13891 C 1303.59 -4.66321 -4.34538 0
M  V30 13892 C 1301.28 -4.02336 -4.59966 0
M  V30 13893 C 1302.27 -4.99216 -4.66125 0
M  V30 13894 O 1301.96 -6.27041 -5.03065 0
M  V30 13895 H 1301.69 -0.260545 -0.623773 0
M  V30 13896 H 1304.25 -1.34922 -1.54872 0
M  V30 13897 H 1302.48 -0.257599 -3.85841 0
M  V30 13898 H 1304.17 -0.649333 -4.00673 0
M  V30 13899 H 1304.93 -3.11578 -3.71677 0
M  V30 13900 H 1300.81 -1.97468 -4.16566 0
M  V30 13901 H 1304.36 -5.41938 -4.3926 0
M  V30 13902 H 1300.25 -4.26924 -4.84155 0
M  V30 13903 H 1301.02 -6.31196 -5.21089 0
M  V30 13904 N 1303.68 1.3679 -0.7827 0
M  V30 13905 C 1304.93 1.99712 -0.352533 0
M  V30 13906 C 1305.26 1.61984 1.0712 0
M  V30 13907 O 1304.54 0.871342 1.7389 0
M  V30 13908 C 1304.82 3.5649 -0.508628 0
M  V30 13909 C 1304.67 4.04093 -1.97557 0
M  V30 13910 C 1305.99 4.40026 0.0804447 0
M  V30 13911 H 1303.11 0.725522 -0.129566 0
M  V30 13912 H 1305.75 1.62305 -0.987788 0
M  V30 13913 H 1303.9 3.88487 0.0321664 0
M  V30 13914 H 1305.58 3.82613 -2.57691 0
M  V30 13915 H 1303.82 3.55881 -2.48055 0
M  V30 13916 H 1304.49 5.13088 -2.03579 0
M  V30 13917 H 1306.97 4.14351 -0.381113 0
M  V30 13918 H 1305.84 5.48868 -0.0588424 0
M  V30 13919 H 1306.1 4.26285 1.17189 0
M  V30 13920 N 1305.16 0.53415 1.48272 0
M  V30 13921 C 1306.39 0.00368464 2.074 0
M  V30 13922 C 1306.81 -1.27003 1.38751 0
M  V30 13923 O 1306.17 -1.75502 0.454817 0
M  V30 13924 C 1306.22 -0.199034 3.6005 0
M  V30 13925 O 1305.32 -1.26679 3.92462 0
M  V30 13926 H 1304.66 0.0409936 0.662733 0
M  V30 13927 H 1307.19 0.743253 1.90622 0
M  V30 13928 H 1307.2 -0.420404 4.05828 0
M  V30 13929 H 1305.88 0.731391 4.09418 0
M  V30 13930 H 1304.46 -1.02775 3.58457 0
M  V30 13931 N 1306.64 -1.55279 0.269478 0
M  V30 13932 C 1307.89 -2.00497 -0.342447 0
M  V30 13933 C 1308.24 -1.1546 -1.53905 0
M  V30 13934 O 1307.53 -0.215342 -1.90386 0
M  V30 13935 C 1307.73 -3.48773 -0.780535 0
M  V30 13936 C 1307.56 -4.48158 0.372074 0
M  V30 13937 C 1306.33 -4.9803 0.854046 0
M  V30 13938 C 1308.53 -4.99944 1.20668 0
M  V30 13939 N 1306.51 -5.81205 1.97671 0
M  V30 13940 C 1307.88 -5.80511 2.17733 0
M  V30 13941 C 1309.93 -4.82195 1.24066 0
M  V30 13942 C 1308.64 -6.45221 3.17934 0
M  V30 13943 C 1310.66 -5.47701 2.2311 0
M  V30 13944 C 1310.02 -6.28074 3.18908 0
M  V30 13945 H 1306.12 -0.776729 -0.0906385 0
M  V30 13946 H 1308.71 -1.90709 0.392213 0
M  V30 13947 H 1306.88 -3.58914 -1.48443 0
M  V30 13948 H 1308.61 -3.8083 -1.36932 0
M  V30 13949 H 1305.37 -4.71604 0.43431 0
M  V30 13950 H 1305.79 -6.27485 2.54149 0
M  V30 13951 H 1310.43 -4.19666 0.513836 0
M  V30 13952 H 1308.15 -7.06903 3.91554 0
M  V30 13953 H 1311.74 -5.35911 2.26474 0
M  V30 13954 H 1310.62 -6.77865 3.94294 0
M  V30 13955 N 1308.12 0.00332656 -1.576 0
M  V30 13956 C 1309.08 0.980628 -2.07163 0
M  V30 13957 C 1310.08 1.27455 -0.980402 0
M  V30 13958 O 1311.27 1.22029 -1.24317 0
M  V30 13959 C 1308.4 2.30647 -2.51028 0
M  V30 13960 H 1309.6 0.551982 -2.94776 0
M  V30 13961 H 1307.15 0.250728 -1.54276 0
M  V30 13962 H 1307.88 2.78207 -1.66647 0
M  V30 13963 H 1307.67 2.10635 -3.30719 0
M  V30 13964 H 1309.16 3.00761 -2.89711 0
M  V30 13965 N 1309.6 1.55164 0.276031 0
M  V30 13966 C 1310.82 1.79649 1.02635 0
M  V30 13967 C 1311.24 0.568289 1.80044 0
M  V30 13968 O 1310.6 -0.462569 1.7654 0
M  V30 13969 C 1310.65 3.01974 1.98731 0
M  V30 13970 O 1310.37 4.2005 1.24459 0
M  V30 13971 C 1311.87 3.39039 2.856 0
M  V30 13972 H 1309.09 0.598529 0.303321 0
M  V30 13973 H 1311.63 2.02171 0.307733 0
M  V30 13974 H 1309.79 2.81586 2.6606 0
M  V30 13975 H 1310.2 4.89185 1.89205 0
M  V30 13976 H 1311.68 4.27809 3.48831 0
M  V30 13977 H 1312.15 2.58306 3.55211 0
M  V30 13978 H 1312.76 3.61674 2.23767 0
M  V30 13979 N 1311.07 -0.540404 1.48045 0
M  V30 13980 C 1312.32 -1.29422 1.55224 0
M  V30 13981 C 1312.64 -1.93716 0.223365 0
M  V30 13982 O 1311.91 -1.808 -0.754204 0
M  V30 13983 H 1310.49 -0.480658 0.571819 0
M  V30 13984 H 1313.16 -0.629712 1.84447 0
M  V30 13985 H 1312.25 -2.07897 2.32777 0
M  V30 13986 N 1312.55 -1.36459 -0.788468 0
M  V30 13987 C 1313.46 -1.33017 -1.93245 0
M  V30 13988 C 1314.48 -0.232212 -1.72444 0
M  V30 13989 O 1315.65 -0.464743 -1.95965 0
M  V30 13990 C 1312.72 -1.1197 -3.28121 0
M  V30 13991 C 1311.78 -2.3125 -3.61693 0
M  V30 13992 C 1311.01 -2.11197 -4.90134 0
M  V30 13993 O 1311.24 -1.08764 -5.59934 0
M  V30 13994 O 1310.17 -2.98996 -5.22384 0
M  V30 13995 H 1314 -2.29333 -1.99098 0
M  V30 13996 H 1311.58 -1.17016 -0.928856 0
M  V30 13997 H 1313.46 -1.02154 -4.08831 0
M  V30 13998 H 1312.14 -0.187171 -3.23158 0
M  V30 13999 H 1311.05 -2.46635 -2.81286 0
M  V30 14000 H 1312.38 -3.23012 -3.71381 0
M  V30 14001 N 1314.03 1.01274 -1.20754 0
M  V30 14002 C 1315.44 1.56381 -1.0199 0
M  V30 14003 C 1315.79 1.91595 0.422591 0
M  V30 14004 O 1314.92 1.72653 1.3046 0
M  V30 14005 C 1315.51 2.8415 -1.8451 0
M  V30 14006 C 1314.07 3.35772 -1.70101 0
M  V30 14007 C 1313.22 2.0904 -1.82202 0
M  V30 14008 H 1316.17 0.836105 -1.34889 0
M  V30 14009 H 1316.19 3.55717 -1.35076 0
M  V30 14010 H 1315.7 2.5849 -2.8949 0
M  V30 14011 H 1313.8 3.66384 -0.677732 0
M  V30 14012 H 1313.92 4.07714 -2.51607 0
M  V30 14013 H 1312.28 2.21675 -1.25429 0
M  V30 14014 H 1313.06 1.858 -2.88675 0
M  V30 14015 N 1315.51 1.01404 1.20644 0
M  V30 14016 C 1316.46 0.575388 2.25371 0
M  V30 14017 C 1317.45 -0.384598 1.64976 0
M  V30 14018 O 1318.66 -0.2548 1.78187 0
M  V30 14019 H 1315.03 0.167752 0.733051 0
M  V30 14020 H 1317 1.46964 2.597 0
M  V30 14021 C 1315.75 -0.0731257 3.47623 0
M  V30 14022 H 1315.08 0.656551 3.94372 0
M  V30 14023 H 1316.52 -0.343203 4.22609 0
M  V30 14024 C 1314.97 -1.31515 3.1017 0
M  V30 14025 O 1315.5 -2.40869 3.21473 0
M  V30 14026 N 1313.71 -1.19829 2.64744 0
M  V30 14027 H 1313.26 -0.308463 2.55746 0
M  V30 14028 H 1313.22 -2.0303 2.40054 0
M  V30 14029 N 1316.99 -1.36373 0.789944 0
M  V30 14030 C 1318.23 -1.99227 0.362582 0
M  V30 14031 C 1318.56 -1.62694 -1.06587 0
M  V30 14032 O 1317.82 -0.873748 -1.75112 0
M  V30 14033 C 1318.12 -3.54243 0.474025 0
M  V30 14034 C 1317.78 -4.10597 1.86336 0
M  V30 14035 C 1316.44 -4.257 2.24349 0
M  V30 14036 C 1318.8 -4.41306 2.77306 0
M  V30 14037 C 1316.12 -4.68824 3.52734 0
M  V30 14038 C 1318.48 -4.85861 4.05119 0
M  V30 14039 C 1317.14 -4.9917 4.43154 0
M  V30 14040 H 1316.41 -0.729025 0.132678 0
M  V30 14041 H 1319.06 -1.62854 1.00751 0
M  V30 14042 H 1317.36 -3.90973 -0.254399 0
M  V30 14043 H 1319.06 -4.00807 0.124384 0
M  V30 14044 H 1315.65 -3.99281 1.55797 0
M  V30 14045 H 1319.83 -4.29205 2.49191 0
M  V30 14046 H 1315.09 -4.77315 3.82073 0
M  V30 14047 H 1319.26 -5.08587 4.75723 0
M  V30 14048 H 1316.89 -5.32344 5.42692 0
M  V30 14049 N 1318.47 -0.542005 -1.47987 0
M  V30 14050 C 1319.43 0.203537 -2.28294 0
M  V30 14051 C 1320.43 0.856762 -1.36074 0
M  V30 14052 O 1321.62 0.71496 -1.58852 0
M  V30 14053 C 1318.75 1.29581 -3.15312 0
M  V30 14054 H 1319.94 -0.501701 -2.95674 0
M  V30 14055 H 1317.5 -0.298378 -1.53426 0
M  V30 14056 H 1318.23 2.03393 -2.5259 0
M  V30 14057 H 1318.02 0.832398 -3.83163 0
M  V30 14058 H 1319.51 1.81988 -3.75859 0
M  V30 14059 N 1319.94 1.55134 -0.277709 0
M  V30 14060 C 1320.89 2.24057 0.624594 0
M  V30 14061 C 1321.89 1.23848 1.15577 0
M  V30 14062 O 1323.09 1.41771 1.1091 0
M  V30 14063 H 1319.47 0.719106 0.219977 0
M  V30 14064 H 1321.44 2.98393 0.0204815 0
M  V30 14065 C 1320.19 2.97712 1.79618 0
M  V30 14066 H 1319.51 3.74611 1.39665 0
M  V30 14067 H 1320.95 3.49255 2.4041 0
M  V30 14068 C 1319.41 2.03332 2.68622 0
M  V30 14069 O 1319.94 1.58622 3.69056 0
M  V30 14070 N 1318.14 1.69778 2.35847 0
M  V30 14071 H 1317.69 2.06333 1.54222 0
M  V30 14072 H 1317.65 1.06901 2.95668 0
M  V30 14073 N 1321.42 0.00503138 1.57599 0
M  V30 14074 C 1322.33 -1.00097 2.12174 0
M  V30 14075 C 1323.35 -1.37353 1.06818 0
M  V30 14076 O 1324.52 -1.45984 1.38747 0
M  V30 14077 C 1321.59 -2.27252 2.61835 0
M  V30 14078 C 1320.65 -1.96262 3.81811 0
M  V30 14079 C 1319.88 -3.17355 4.29094 0
M  V30 14080 O 1320.11 -4.2921 3.75679 0
M  V30 14081 O 1319.04 -3.01059 5.21198 0
M  V30 14082 H 1322.87 -0.567024 2.9836 0
M  V30 14083 H 1320.45 -0.214109 1.47858 0
M  V30 14084 H 1322.33 -3.01944 2.93952 0
M  V30 14085 H 1321.01 -2.69875 1.78744 0
M  V30 14086 H 1319.91 -1.19031 3.54658 0
M  V30 14087 H 1321.25 -1.58473 4.65991 0
M  V30 14088 N 1322.9 -1.55308 -0.267798 0
M  V30 14089 C 1324.18 -1.66881 -1.02029 0
M  V30 14090 C 1324.56 -0.538708 -2.04111 0
M  V30 14091 O 1323.9 0.460575 -2.2381 0
M  V30 14092 C 1324.11 -3.06318 -1.67243 0
M  V30 14093 C 1325.46 -3.64237 -2.18212 0
M  V30 14094 O 1326.49 -3.08984 -1.77221 0
M  V30 14095 O 1325.35 -4.61055 -2.93413 0
M  V30 14096 H 1322.44 -0.677967 -0.473593 0
M  V30 14097 H 1324.99 -1.67646 -0.263242 0
M  V30 14098 H 1323.76 -3.80015 -0.932985 0
M  V30 14099 H 1323.38 -3.09475 -2.49622 0
M  V30 14100 N 1324.38 0.532545 -1.4833 0
M  V30 14101 C 1325.29 1.66433 -1.65339 0
M  V30 14102 C 1326.3 1.65541 -0.535939 0
M  V30 14103 O 1327.48 1.84539 -0.806679 0
M  V30 14104 C 1324.54 3.02901 -1.68676 0
M  V30 14105 C 1323.61 3.14669 -2.92031 0
M  V30 14106 C 1322.84 4.44627 -2.95199 0
M  V30 14107 O 1323.06 5.31572 -2.06851 0
M  V30 14108 O 1322 4.60707 -3.87341 0
M  V30 14109 H 1325.82 1.5502 -2.61156 0
M  V30 14110 H 1323.41 0.705348 -1.31701 0
M  V30 14111 H 1325.29 3.84068 -1.73407 0
M  V30 14112 H 1323.96 3.14644 -0.760327 0
M  V30 14113 H 1322.87 2.32807 -2.92834 0
M  V30 14114 H 1324.2 3.07841 -3.8405 0
M  V30 14115 N 1325.86 1.36875 0.78122 0
M  V30 14116 C 1326.8 1.31941 1.91557 0
M  V30 14117 C 1327.8 0.209783 1.68096 0
M  V30 14118 O 1329 0.377266 1.76002 0
M  V30 14119 H 1325.38 0.410955 0.629778 0
M  V30 14120 H 1327.35 2.27721 1.92836 0
M  V30 14121 C 1326.1 1.13379 3.28695 0
M  V30 14122 H 1325.42 1.98013 3.47319 0
M  V30 14123 H 1326.86 1.13976 4.08394 0
M  V30 14124 C 1325.32 -0.161119 3.36515 0
M  V30 14125 O 1325.85 -1.14806 3.84945 0
M  V30 14126 N 1324.06 -0.208594 2.8985 0
M  V30 14127 H 1323.6 0.595187 2.5063 0
M  V30 14128 H 1323.56 -1.07465 2.95463 0
M  V30 14129 N 1327.33 -1.00632 1.21289 0
M  V30 14130 C 1328.57 -1.75921 1.04073 0
M  V30 14131 C 1328.94 -1.87381 -0.4186 0
M  V30 14132 O 1330.14 -2.5922 -0.711236 0
M  V30 14133 C 1328.41 -3.1344 1.71727 0
M  V30 14134 S 1329.97 -4.04636 1.6975 0
M  V30 14135 H 1326.79 -0.605321 0.372972 0
M  V30 14136 H 1329.39 -1.20417 1.54013 0
M  V30 14137 H 1328.09 -3.02731 2.77096 0
M  V30 14138 H 1327.62 -3.74017 1.21962 0
M  V30 14139 H 1329.64 -4.90686 0.737656 0
M  V30 14140 N 1328.81 -1.02043 -1.20104 0
M  V30 14141 C 1330.06 -0.713027 -1.89852 0
M  V30 14142 C 1330.39 0.755767 -1.7889 0
M  V30 14143 O 1329.67 1.54948 -1.17564 0
M  V30 14144 C 1329.95 -1.15417 -3.41103 0
M  V30 14145 C 1329.8 -2.68355 -3.60979 0
M  V30 14146 C 1331.12 -0.728389 -4.34031 0
M  V30 14147 H 1328.24 -0.260502 -0.689426 0
M  V30 14148 H 1330.88 -1.26885 -1.41422 0
M  V30 14149 H 1329.03 -0.68127 -3.8248 0
M  V30 14150 H 1330.7 -3.23526 -3.28829 0
M  V30 14151 H 1328.95 -3.09148 -3.04319 0
M  V30 14152 H 1329.62 -2.94276 -4.67018 0
M  V30 14153 H 1332.09 -1.13499 -4.00321 0
M  V30 14154 H 1330.97 -1.06504 -5.38468 0
M  V30 14155 H 1331.23 0.369736 -4.40551 0
M  V30 14156 N 1330.29 1.35952 -0.797165 0
M  V30 14157 C 1331.52 2.0328 -0.385316 0
M  V30 14158 C 1331.93 1.60095 1.00076 0
M  V30 14159 O 1331.29 0.794014 1.64322 0
M  V30 14160 C 1331.34 3.5871 -0.448284 0
M  V30 14161 O 1331.06 4.00323 -1.7797 0
M  V30 14162 C 1332.56 4.43291 -0.0280465 0
M  V30 14163 H 1329.78 0.652192 -0.157756 0
M  V30 14164 H 1332.33 1.73769 -1.07817 0
M  V30 14165 H 1330.48 3.86903 0.196224 0
M  V30 14166 H 1330.9 4.94941 -1.73592 0
M  V30 14167 H 1332.37 5.51862 -0.123234 0
M  V30 14168 H 1332.85 4.27059 1.02552 0
M  V30 14169 H 1333.45 4.20375 -0.645343 0
M  V30 14170 N 1331.77 0.549846 1.47697 0
M  V30 14171 C 1332.7 -0.249645 2.2683 0
M  V30 14172 C 1333.68 -0.926968 1.33589 0
M  V30 14173 O 1334.86 -0.947423 1.62961 0
M  V30 14174 C 1331.99 -1.35511 3.1041 0
M  V30 14175 C 1331.04 -0.787118 4.19174 0
M  V30 14176 S 1331.87 0.360564 5.34285 0
M  V30 14177 C 1333.03 -0.746898 6.21428 0
M  V30 14178 H 1333.26 0.421876 2.94292 0
M  V30 14179 H 1330.79 0.336017 1.50699 0
M  V30 14180 H 1332.75 -1.98825 3.59137 0
M  V30 14181 H 1331.41 -1.99844 2.42325 0
M  V30 14182 H 1330.6 -1.61704 4.77355 0
M  V30 14183 H 1330.21 -0.230301 3.7329 0
M  V30 14184 H 1332.5 -1.6408 6.57331 0
M  V30 14185 H 1333.44 -0.202608 7.0781 0
M  V30 14186 H 1333.85 -1.03625 5.54907 0
M  V30 14187 N 1333.25 -1.54984 0.285932 0
M  V30 14188 C 1334.48 -2.03943 -0.330295 0
M  V30 14189 C 1334.88 -1.16336 -1.49207 0
M  V30 14190 O 1334.23 -0.178341 -1.82832 0
M  V30 14191 C 1334.29 -3.48976 -0.863479 0
M  V30 14192 C 1333.95 -4.5668 0.171058 0
M  V30 14193 C 1334.95 -5.10303 0.994329 0
M  V30 14194 C 1332.64 -5.01352 0.308416 0
M  V30 14195 C 1334.63 -6.07126 1.94104 0
M  V30 14196 C 1332.32 -5.97999 1.25859 0
M  V30 14197 C 1333.31 -6.50768 2.0734 0
M  V30 14198 O 1333 -7.45524 3.00749 0
M  V30 14199 H 1332.73 -0.671491 -0.0779452 0
M  V30 14200 H 1335.29 -2.01081 0.419011 0
M  V30 14201 H 1333.52 -3.49113 -1.66305 0
M  V30 14202 H 1335.21 -3.81213 -1.39396 0
M  V30 14203 H 1335.97 -4.76595 0.899002 0
M  V30 14204 H 1331.85 -4.59917 -0.315817 0
M  V30 14205 H 1335.4 -6.48239 2.57743 0
M  V30 14206 H 1331.29 -6.31125 1.35469 0
M  V30 14207 H 1332.06 -7.63276 2.95554 0
M  V30 14208 N 1334.72 -0.0133892 -1.57594 0
M  V30 14209 C 1335.95 0.682855 -1.95836 0
M  V30 14210 C 1336.37 1.65763 -0.889049 0
M  V30 14211 O 1335.73 1.80665 0.151585 0
M  V30 14212 C 1335.78 1.37931 -3.33178 0
M  V30 14213 O 1334.88 2.49416 -3.28429 0
M  V30 14214 H 1334.23 0.180629 -0.638959 0
M  V30 14215 H 1336.76 -0.0705644 -2.04478 0
M  V30 14216 H 1336.77 1.73969 -3.69051 0
M  V30 14217 H 1335.44 0.664675 -4.10554 0
M  V30 14218 H 1334.02 2.15606 -3.04251 0
M  V30 14219 N 1336.2 1.55448 0.259558 0
M  V30 14220 C 1337.15 1.90056 1.34096 0
M  V30 14221 C 1338.14 0.778267 1.50464 0
M  V30 14222 O 1339.35 0.962758 1.52089 0
M  V30 14223 H 1335.73 0.603424 0.448758 0
M  V30 14224 H 1337.7 2.80365 1.02166 0
M  V30 14225 C 1336.45 2.20074 2.69189 0
M  V30 14226 H 1335.77 3.05926 2.57389 0
M  V30 14227 H 1337.21 2.48201 3.43762 0
M  V30 14228 C 1335.67 1.01281 3.21316 0
M  V30 14229 O 1336.2 0.2543 4.00894 0
M  V30 14230 N 1334.4 0.806855 2.79174 0
M  V30 14231 H 1333.95 1.42536 2.14572 0
M  V30 14232 H 1333.91 0.0136714 3.14397 0
M  V30 14233 N 1337.68 -0.524672 1.4861 0
M  V30 14234 C 1338.91 -1.30958 1.60825 0
M  V30 14235 C 1339.33 -1.86142 0.270682 0
M  V30 14236 O 1338.69 -1.64675 -0.758415 0
M  V30 14237 C 1338.74 -2.43252 2.66197 0
M  V30 14238 O 1337.84 -3.4644 2.23725 0
M  V30 14239 H 1337.18 -0.387638 0.539104 0
M  V30 14240 H 1339.71 -0.630755 1.94635 0
M  V30 14241 H 1339.72 -2.89362 2.87635 0
M  V30 14242 H 1338.4 -2.02449 3.63301 0
M  V30 14243 H 1336.97 -3.06413 2.12522 0
M  V30 14244 N 1339.16 -1.37287 -0.77395 0
M  V30 14245 C 1340.41 -1.32112 -1.5294 0
M  V30 14246 C 1340.73 0.0946137 -1.9477 0
M  V30 14247 O 1340 1.03817 -1.66129 0
M  V30 14248 H 1338.58 -0.486047 -0.567245 0
M  V30 14249 H 1341.24 -1.71752 -0.921263 0
M  V30 14250 H 1340.34 -1.95873 -2.42982 0
M  V30 14251 N 1340.64 0.999871 -1.21821 0
M  V30 14252 C 1341.88 1.7384 -1.03855 0
M  V30 14253 C 1342.21 1.89749 0.42727 0
M  V30 14254 O 1341.47 1.43261 1.33323 0
M  V30 14255 C 1341.77 3.1509 -1.6868 0
M  V30 14256 C 1341.43 3.19115 -3.18554 0
M  V30 14257 C 1340.09 3.19921 -3.5945 0
M  V30 14258 C 1342.45 3.15954 -4.14515 0
M  V30 14259 C 1339.77 3.15257 -4.94803 0
M  V30 14260 C 1342.13 3.12831 -5.49836 0
M  V30 14261 C 1340.79 3.11949 -5.90122 0
M  V30 14262 H 1340.06 0.636126 -0.380032 0
M  V30 14263 H 1342.71 1.17151 -1.51485 0
M  V30 14264 H 1341.01 3.75044 -1.13356 0
M  V30 14265 H 1342.71 3.70962 -1.52277 0
M  V30 14266 H 1339.3 3.19234 -2.85986 0
M  V30 14267 H 1343.48 3.14487 -3.83942 0
M  V30 14268 H 1338.74 3.12915 -5.25256 0
M  V30 14269 H 1342.91 3.09339 -6.23925 0
M  V30 14270 H 1340.54 3.0809 -6.94971 0
M  V30 14271 N 1342.11 1.02678 1.19562 0
M  V30 14272 C 1343.36 0.73282 1.8974 0
M  V30 14273 C 1343.72 -0.730461 1.77994 0
M  V30 14274 O 1343.01 -1.52487 1.1601 0
M  V30 14275 C 1343.2 1.11603 3.39529 0
M  V30 14276 C 1343.03 2.61501 3.65851 0
M  V30 14277 C 1341.8 3.28441 3.83998 0
M  V30 14278 C 1344 3.59707 3.6758 0
M  V30 14279 N 1341.98 4.67465 3.97932 0
M  V30 14280 C 1343.35 4.84339 3.8706 0
M  V30 14281 C 1345.41 3.53535 3.50595 0
M  V30 14282 C 1344.11 6.03544 3.91315 0
M  V30 14283 C 1346.14 4.72153 3.56126 0
M  V30 14284 C 1345.5 5.95598 3.76089 0
M  V30 14285 H 1341.6 0.319992 0.713533 0
M  V30 14286 H 1344.18 1.31366 1.43704 0
M  V30 14287 H 1342.35 0.563414 3.84292 0
M  V30 14288 H 1344.08 0.774538 3.97219 0
M  V30 14289 H 1340.84 2.78856 3.82801 0
M  V30 14290 H 1341.26 5.39676 4.08753 0
M  V30 14291 H 1345.91 2.59083 3.34119 0
M  V30 14292 H 1343.62 6.98366 4.06583 0
M  V30 14293 H 1347.21 4.69003 3.44278 0
M  V30 14294 H 1346.09 6.85847 3.80241 0
M  V30 14295 N 1343.59 -1.35528 0.804364 0
M  V30 14296 C 1344.54 -2.31728 0.20125 0
M  V30 14297 C 1345.53 -1.56527 -0.647751 0
M  V30 14298 O 1346.74 -1.71672 -0.541163 0
M  V30 14299 H 1343.12 -0.750572 0.0463165 0
M  V30 14300 H 1345.09 -2.80142 1.02777 0
M  V30 14301 C 1343.84 -3.41807 -0.637429 0
M  V30 14302 H 1343.16 -3.99799 0.00651699 0
M  V30 14303 H 1344.6 -4.11403 -1.02585 0
M  V30 14304 C 1343.06 -2.84655 -1.80202 0
M  V30 14305 O 1343.59 -2.78026 -2.89939 0
M  V30 14306 N 1341.79 -2.41735 -1.61285 0
M  V30 14307 H 1341.34 -2.47327 -0.720231 0
M  V30 14308 H 1341.3 -2.03844 -2.39364 0
M  V30 14309 N 1345.07 -0.557671 -1.47404 0
M  V30 14310 C 1346.35 0.031908 -1.95574 0
M  V30 14311 C 1346.73 1.48509 -1.50027 0
M  V30 14312 O 1346.08 2.16209 -0.73932 0
M  V30 14313 C 1346.29 -0.114055 -3.48814 0
M  V30 14314 C 1347.63 0.0310533 -4.24589 0
M  V30 14315 O 1348.66 -0.041626 -3.56176 0
M  V30 14316 O 1347.52 0.187487 -5.46178 0
M  V30 14317 H 1344.61 0.0638747 -0.82453 0
M  V30 14318 H 1347.16 -0.624227 -1.57802 0
M  V30 14319 H 1345.93 -1.12525 -3.74772 0
M  V30 14320 H 1345.55 0.57967 -3.93352 0
M  V30 14321 N 1346.55 1.54831 -0.294147 0
M  V30 14322 C 1347.8 1.99179 0.317874 0
M  V30 14323 C 1348.11 1.18614 1.55532 0
M  V30 14324 O 1349.32 1.53197 2.24149 0
M  V30 14325 C 1347.77 3.54574 0.616893 0
M  V30 14326 C 1347.38 4.43939 -0.601822 0
M  V30 14327 C 1349.13 4.07465 1.19049 0
M  V30 14328 C 1347.03 5.90754 -0.276336 0
M  V30 14329 H 1345.96 0.743974 0.12255 0
M  V30 14330 H 1348.61 1.79047 -0.401781 0
M  V30 14331 H 1347 3.70579 1.39596 0
M  V30 14332 H 1348.17 4.39706 -1.37822 0
M  V30 14333 H 1346.48 4.01783 -1.09357 0
M  V30 14334 H 1349.08 5.14716 1.44814 0
M  V30 14335 H 1349.42 3.5765 2.13055 0
M  V30 14336 H 1349.96 3.94975 0.473282 0
M  V30 14337 H 1346.7 6.44704 -1.18478 0
M  V30 14338 H 1346.22 5.98011 0.462928 0
M  V30 14339 H 1347.9 6.4688 0.124587 0
M  V30 14340 N 1348.03 0.0217466 1.57585 0
M  V30 14341 C 1348.98 -0.980624 2.10918 0
M  V30 14342 C 1349.97 -1.34178 1.03406 0
M  V30 14343 O 1351.18 -1.32487 1.21849 0
M  V30 14344 H 1347.55 -0.333984 0.673764 0
M  V30 14345 H 1349.52 -0.505431 2.94088 0
M  V30 14346 C 1348.27 -2.25639 2.64542 0
M  V30 14347 H 1347.59 -1.98722 3.46914 0
M  V30 14348 H 1349.03 -2.94003 3.05513 0
M  V30 14349 C 1347.49 -2.98111 1.56945 0
M  V30 14350 O 1348.02 -3.89937 0.964975 0
M  V30 14351 N 1346.23 -2.60316 1.29166 0
M  V30 14352 H 1345.78 -1.85722 1.78508 0
M  V30 14353 H 1345.73 -3.09116 0.573987 0
M  V30 14354 N 1349.51 -1.55583 -0.251311 0
M  V30 14355 C 1350.75 -1.7897 -0.987372 0
M  V30 14356 C 1351.11 -0.590559 -1.82692 0
M  V30 14357 O 1352.31 -0.703109 -2.59441 0
M  V30 14358 C 1350.58 -3.07069 -1.82876 0
M  V30 14359 S 1352.14 -3.51659 -2.62452 0
M  V30 14360 H 1348.96 -0.628624 -0.332194 0
M  V30 14361 H 1351.56 -1.93821 -0.255653 0
M  V30 14362 H 1350.26 -3.92415 -1.20161 0
M  V30 14363 H 1349.8 -2.94943 -2.60331 0
M  V30 14364 H 1351.81 -3.12644 -3.85316 0
M  V30 14365 N 1350.98 0.516783 -1.48886 0
M  V30 14366 C 1352.23 1.26936 -1.57263 0
M  V30 14367 C 1352.55 1.93337 -0.254156 0
M  V30 14368 O 1351.82 1.81977 0.725345 0
M  V30 14369 H 1350.4 0.4715 -0.579393 0
M  V30 14370 H 1353.06 0.600289 -1.85425 0
M  V30 14371 H 1352.16 2.04167 -2.36055 0
M  V30 14372 N 1352.46 1.37696 0.766659 0
M  V30 14373 C 1353.69 1.36192 1.55355 0
M  V30 14374 C 1354.1 -0.0534148 1.89125 0
M  V30 14375 O 1353.44 -1.02697 1.52312 0
M  V30 14376 C 1353.5 2.14047 2.88833 0
M  V30 14377 C 1353.17 3.6297 2.77672 0
M  V30 14378 C 1354.17 4.56745 2.48355 0
M  V30 14379 C 1351.85 4.06158 2.95534 0
M  V30 14380 C 1353.84 5.91687 2.37035 0
M  V30 14381 C 1351.53 5.41185 2.83835 0
M  V30 14382 C 1352.53 6.33762 2.54627 0
M  V30 14383 O 1352.22 7.66305 2.42963 0
M  V30 14384 H 1351.95 0.46804 0.487765 0
M  V30 14385 H 1354.5 1.81709 0.95765 0
M  V30 14386 H 1352.73 1.63227 3.50562 0
M  V30 14387 H 1354.42 2.05113 3.50262 0
M  V30 14388 H 1355.19 4.24687 2.34236 0
M  V30 14389 H 1351.07 3.34457 3.17269 0
M  V30 14390 H 1354.61 6.63914 2.14158 0
M  V30 14391 H 1350.51 5.72844 2.97524 0
M  V30 14392 H 1351.28 7.76683 2.58274 0
M  V30 14393 N 1353.94 -0.993397 1.22349 0
M  V30 14394 C 1355.35 -1.54739 1.04465 0
M  V30 14395 C 1355.7 -1.92243 -0.392057 0
M  V30 14396 O 1354.83 -1.74707 -1.27697 0
M  V30 14397 C 1355.42 -2.81179 1.89007 0
M  V30 14398 C 1353.98 -3.33023 1.75421 0
M  V30 14399 C 1353.13 -2.06114 1.85505 0
M  V30 14400 H 1356.08 -0.814539 1.36202 0
M  V30 14401 H 1356.1 -3.53523 1.40718 0
M  V30 14402 H 1355.61 -2.53851 2.93566 0
M  V30 14403 H 1353.71 -3.6526 0.735935 0
M  V30 14404 H 1353.83 -4.03659 2.58062 0
M  V30 14405 H 1352.19 -2.19651 1.2894 0
M  V30 14406 H 1352.97 -1.81184 2.91594 0
M  V30 14407 N 1355.42 -1.03311 -1.19015 0
M  V30 14408 C 1356.37 -0.611169 -2.24427 0
M  V30 14409 C 1357.36 0.358303 -1.65567 0
M  V30 14410 O 1358.57 0.22642 -1.7857 0
M  V30 14411 H 1354.94 -0.179393 -0.730289 0
M  V30 14412 H 1356.91 -1.51077 -2.57329 0
M  V30 14413 C 1355.66 0.0178126 -3.47695 0
M  V30 14414 H 1354.98 -0.71921 -3.93278 0
M  V30 14415 H 1356.42 0.275926 -4.23101 0
M  V30 14416 C 1354.88 1.26564 -3.12223 0
M  V30 14417 O 1355.41 2.35725 -3.25264 0
M  V30 14418 N 1353.62 1.15602 -2.66617 0
M  V30 14419 H 1353.17 0.267736 -2.56205 0
M  V30 14420 H 1353.12 1.99186 -2.43254 0
M  V30 14421 N 1356.9 1.35099 -0.81154 0
M  V30 14422 C 1357.86 2.28033 -0.230947 0
M  V30 14423 C 1358.86 1.49798 0.584575 0
M  V30 14424 O 1360.05 1.6949 0.402336 0
M  V30 14425 C 1357.18 3.341 0.677486 0
M  V30 14426 H 1358.37 2.80893 -1.05067 0
M  V30 14427 H 1355.93 1.45038 -0.582554 0
M  V30 14428 H 1356.66 2.86435 1.5207 0
M  V30 14429 H 1356.45 3.91986 0.0943563 0
M  V30 14430 H 1357.94 4.0345 1.07787 0
M  V30 14431 N 1358.37 0.56548 1.47106 0
M  V30 14432 C 1359.62 0.0445255 2.02451 0
M  V30 14433 C 1359.95 -1.30863 1.43893 0
M  V30 14434 O 1359.2 -1.8668 0.587274 0
M  V30 14435 C 1359.5 -0.0893776 3.57288 0
M  V30 14436 C 1359.17 1.19395 4.34805 0
M  V30 14437 C 1357.83 1.54558 4.55703 0
M  V30 14438 C 1360.18 2.04399 4.79448 0
M  V30 14439 C 1357.51 2.74557 5.18494 0
M  V30 14440 C 1359.86 3.23608 5.43563 0
M  V30 14441 C 1358.53 3.59074 5.62692 0
M  V30 14442 H 1357.8 0.016293 0.740821 0
M  V30 14443 H 1360.44 0.738657 1.76681 0
M  V30 14444 H 1358.75 -0.86653 3.82097 0
M  V30 14445 H 1360.45 -0.507943 3.9777 0
M  V30 14446 H 1357.04 0.910176 4.18824 0
M  V30 14447 H 1361.22 1.78539 4.63074 0
M  V30 14448 H 1356.48 3.02194 5.31497 0
M  V30 14449 H 1360.65 3.89755 5.77117 0
M  V30 14450 H 1358.28 4.5215 6.11117 0
M  V30 14451 N 1359.85 -1.54672 0.302354 0
M  V30 14452 C 1361.1 -1.99345 -0.307307 0
M  V30 14453 C 1361.41 -1.19437 -1.549 0
M  V30 14454 O 1362.62 -1.54384 -2.23334 0
M  V30 14455 C 1361.08 -3.54896 -0.59808 0
M  V30 14456 C 1360.68 -4.43614 0.625357 0
M  V30 14457 C 1362.43 -4.08091 -1.16886 0
M  V30 14458 C 1360.34 -5.90599 0.307661 0
M  V30 14459 H 1359.27 -0.744614 -0.118603 0
M  V30 14460 H 1361.92 -1.78832 0.411271 0
M  V30 14461 H 1360.3 -3.71314 -1.37629 0
M  V30 14462 H 1361.47 -4.38969 1.40152 0
M  V30 14463 H 1359.79 -4.01198 1.11487 0
M  V30 14464 H 1362.38 -5.15477 -1.42082 0
M  V30 14465 H 1362.73 -3.58775 -2.11155 0
M  V30 14466 H 1363.26 -3.9522 -0.452329 0
M  V30 14467 H 1360 -6.44067 1.21895 0
M  V30 14468 H 1359.52 -5.98248 -0.431208 0
M  V30 14469 H 1361.2 -6.46937 -0.0902796 0
M  V30 14470 N 1361.33 -0.0301034 -1.57571 0
M  V30 14471 C 1362.57 0.652469 -1.93706 0
M  V30 14472 C 1362.93 1.69236 -0.906817 0
M  V30 14473 O 1364.14 2.42749 -1.1544 0
M  V30 14474 C 1362.41 1.25199 -3.34753 0
M  V30 14475 S 1363.97 1.9555 -3.92817 0
M  V30 14476 H 1360.78 0.214795 -0.677779 0
M  V30 14477 H 1363.39 -0.0940038 -1.95274 0
M  V30 14478 H 1362.09 0.482732 -4.07551 0
M  V30 14479 H 1361.62 2.03575 -3.36632 0
M  V30 14480 H 1363.64 3.23401 -3.76332 0
M  V30 14481 N 1362.81 1.55714 0.243056 0
M  V30 14482 C 1363.74 1.87093 1.32396 0
M  V30 14483 C 1364.75 0.757482 1.44104 0
M  V30 14484 O 1365.94 1.03563 1.45386 0
M  V30 14485 C 1363.04 2.04546 2.70212 0
M  V30 14486 C 1362.22 3.3543 2.80723 0
M  V30 14487 C 1361.27 3.42578 3.99408 0
M  V30 14488 O 1360.3 4.15762 3.88755 0
M  V30 14489 N 1361.5 2.7215 5.12752 0
M  V30 14490 H 1364.27 2.80399 1.05813 0
M  V30 14491 H 1361.83 1.55998 0.433151 0
M  V30 14492 H 1363.82 2.06665 3.47954 0
M  V30 14493 H 1362.39 1.17966 2.89487 0
M  V30 14494 H 1361.61 3.45594 1.89626 0
M  V30 14495 H 1362.9 4.21692 2.84698 0
M  V30 14496 H 1362.3 2.1243 5.24299 0
M  V30 14497 H 1360.85 2.79957 5.88615 0
M  V30 14498 N 1364.29 -0.50888 1.49158 0
M  V30 14499 C 1365.7 -0.839353 1.35746 0
M  V30 14500 C 1365.9 -1.97797 0.38453 0
M  V30 14501 O 1364.96 -2.51809 -0.186651 0
M  V30 14502 C 1366.27 -1.18698 2.76281 0
M  V30 14503 C 1367.82 -1.29565 2.84924 0
M  V30 14504 C 1368.29 -1.67661 4.26209 0
M  V30 14505 N 1369.79 -1.74725 4.28982 0
M  V30 14506 C 1370.52 -2.05631 5.3526 0
M  V30 14507 N 1370.02 -2.34814 6.51793 0
M  V30 14508 N 1371.81 -2.06815 5.2267 0
M  V30 14509 H 1363.96 0.242065 2.11016 0
M  V30 14510 H 1366.22 0.0456901 0.946898 0
M  V30 14511 H 1365.93 -0.423769 3.49138 0
M  V30 14512 H 1365.8 -2.13227 3.11149 0
M  V30 14513 H 1368.19 -2.0496 2.1231 0
M  V30 14514 H 1368.27 -0.331059 2.53649 0
M  V30 14515 H 1367.92 -0.928198 4.99346 0
M  V30 14516 H 1367.85 -2.65207 4.54943 0
M  V30 14517 H 1370.34 -1.54364 3.44935 0
M  V30 14518 H 1370.65 -2.57562 7.28616 0
M  V30 14519 H 1368.99 -2.32288 6.55032 0
M  V30 14520 H 1372.19 -1.83487 4.30639 0
M  V30 14521 H 1372.36 -2.30568 6.05593 0
M  V30 14522 N 1365.76 -1.381 -0.759346 0
M  V30 14523 C 1366.71 -1.31373 -1.86347 0
M  V30 14524 C 1367.7 -0.199113 -1.59663 0
M  V30 14525 O 1368.89 -0.43459 -1.71582 0
M  V30 14526 C 1366.02 -1.13537 -3.23982 0
M  V30 14527 C 1365.11 -2.29596 -3.56576 0
M  V30 14528 N 1365.5 -3.55023 -3.60267 0
M  V30 14529 C 1363.79 -2.22022 -3.86811 0
M  V30 14530 C 1364.5 -4.31629 -3.89963 0
M  V30 14531 N 1363.47 -3.60915 -4.06499 0
M  V30 14532 H 1367.27 -2.26345 -1.8747 0
M  V30 14533 H 1364.79 -1.3125 -0.956415 0
M  V30 14534 H 1366.78 -1.06801 -4.02988 0
M  V30 14535 H 1365.44 -0.194922 -3.24114 0
M  V30 14536 H 1366.46 -3.88769 -3.42168 0
M  V30 14537 H 1363.13 -1.36104 -3.94692 0
M  V30 14538 H 1364.52 -5.40238 -3.9949 0
M  V30 14539 N 1367.24 0.986894 -1.22875 0
M  V30 14540 C 1368.19 2.09935 -1.00151 0
M  V30 14541 C 1369.18 1.69303 0.0573751 0
M  V30 14542 O 1370.39 1.79746 -0.0955781 0
M  V30 14543 H 1366.77 0.686605 -0.306721 0
M  V30 14544 H 1368.74 2.26271 -1.94535 0
M  V30 14545 C 1367.49 3.42442 -0.602374 0
M  V30 14546 H 1366.81 3.74154 -1.40886 0
M  V30 14547 H 1368.25 4.21242 -0.482836 0
M  V30 14548 C 1366.71 3.29785 0.688707 0
M  V30 14549 O 1367.24 3.6208 1.73957 0
M  V30 14550 N 1365.44 2.82956 0.662152 0
M  V30 14551 H 1364.99 2.56873 -0.193337 0
M  V30 14552 H 1364.95 2.74869 1.52625 0
M  V30 14553 N 1368.72 1.0394 1.18466 0
M  V30 14554 C 1369.95 0.761926 1.92897 0
M  V30 14555 C 1370.37 -0.674618 1.75586 0
M  V30 14556 O 1369.73 -1.46711 1.06515 0
M  V30 14557 C 1369.78 1.13152 3.42387 0
M  V30 14558 O 1368.88 0.256266 4.11603 0
M  V30 14559 H 1368.22 0.280527 0.601831 0
M  V30 14560 H 1370.75 1.3889 1.50235 0
M  V30 14561 H 1370.76 1.0929 3.9309 0
M  V30 14562 H 1369.44 2.17804 3.54308 0
M  V30 14563 H 1368.01 0.354392 3.71212 0
M  V30 14564 N 1370.2 -1.34667 0.818693 0
M  V30 14565 C 1371.42 -2.03173 0.416585 0
M  V30 14566 C 1371.85 -1.61261 -0.968321 0
M  V30 14567 O 1371.21 -0.79517 -1.62932 0
M  V30 14568 C 1371.25 -3.56803 0.521884 0
M  V30 14569 O 1370.36 -4.09827 -0.459953 0
M  V30 14570 H 1369.7 -0.6413 0.172136 0
M  V30 14571 H 1372.23 -1.72006 1.10794 0
M  V30 14572 H 1372.24 -4.06073 0.3961 0
M  V30 14573 H 1370.91 -3.86656 1.53198 0
M  V30 14574 H 1369.49 -3.71744 -0.293405 0
M  V30 14575 N 1371.68 -0.573274 -1.46804 0
M  V30 14576 C 1372.93 -0.0530267 -2.0163 0
M  V30 14577 C 1373.24 1.31124 -1.45141 0
M  V30 14578 O 1374.44 1.92231 -1.91728 0
M  V30 14579 C 1372.9 -0.0442411 -3.59873 0
M  V30 14580 C 1372.51 -1.40625 -4.25357 0
M  V30 14581 C 1374.25 0.422556 -4.22392 0
M  V30 14582 C 1372.16 -1.3557 -5.75652 0
M  V30 14583 H 1371.09 -0.0160537 -0.753829 0
M  V30 14584 H 1373.74 -0.723518 -1.68634 0
M  V30 14585 H 1372.12 0.692225 -3.89903 0
M  V30 14586 H 1373.3 -2.1617 -4.06949 0
M  V30 14587 H 1371.61 -1.81229 -3.74893 0
M  V30 14588 H 1374.21 0.479021 -5.3255 0
M  V30 14589 H 1374.55 1.43806 -3.90673 0
M  V30 14590 H 1375.08 -0.259551 -3.96952 0
M  V30 14591 H 1371.82 -2.34772 -6.12015 0
M  V30 14592 H 1371.34 -0.642309 -5.96351 0
M  V30 14593 H 1373.02 -1.06458 -6.38182 0
M  V30 14594 N 1373.15 1.5451 -0.310553 0
M  V30 14595 C 1374.1 2.25332 0.576928 0
M  V30 14596 C 1375.1 1.26272 1.12924 0
M  V30 14597 O 1376.3 1.44092 1.07878 0
M  V30 14598 H 1372.68 0.723611 0.204674 0
M  V30 14599 H 1374.65 2.98369 -0.0428167 0
M  V30 14600 C 1373.4 3.01455 1.73263 0
M  V30 14601 H 1372.72 3.7749 1.31688 0
M  V30 14602 H 1374.16 3.54276 2.32947 0
M  V30 14603 C 1372.62 2.08984 2.64248 0
M  V30 14604 O 1373.15 1.66414 3.65608 0
M  V30 14605 N 1371.36 1.74742 2.32193 0
M  V30 14606 H 1370.9 2.09558 1.49811 0
M  V30 14607 H 1370.86 1.13148 2.93334 0
M  V30 14608 N 1374.63 0.0384594 1.57553 0
M  V30 14609 C 1375.6 -0.925358 2.0969 0
M  V30 14610 C 1376.6 -1.24811 1.01385 0
M  V30 14611 O 1377.79 -1.1869 1.27508 0
M  V30 14612 C 1374.92 -2.2391 2.57055 0
M  V30 14613 H 1376.11 -0.473633 2.96136 0
M  V30 14614 H 1373.66 -0.209736 1.54886 0
M  V30 14615 H 1374.4 -2.73691 1.73964 0
M  V30 14616 H 1374.18 -2.01793 3.36188 0
M  V30 14617 H 1375.67 -2.92974 2.97583 0
M  V30 14618 N 1376.11 -1.55841 -0.234795 0
M  V30 14619 C 1377.34 -1.82307 -0.978355 0
M  V30 14620 C 1377.75 -0.615825 -1.78474 0
M  V30 14621 O 1377.11 0.4156 -1.77705 0
M  V30 14622 C 1377.16 -3.07136 -1.90655 0
M  V30 14623 O 1376.88 -4.23202 -1.13278 0
M  V30 14624 C 1378.38 -3.46492 -2.76511 0
M  V30 14625 H 1375.6 -0.606361 -0.287345 0
M  V30 14626 H 1378.15 -2.02916 -0.254023 0
M  V30 14627 H 1376.3 -2.88542 -2.58501 0
M  V30 14628 H 1376.72 -4.94029 -1.76168 0
M  V30 14629 H 1378.19 -4.36908 -3.37366 0
M  V30 14630 H 1378.67 -2.67633 -3.48238 0
M  V30 14631 H 1379.27 -3.6748 -2.14099 0
M  V30 14632 N 1377.59 0.500963 -1.49426 0
M  V30 14633 C 1378.82 1.27911 -1.62624 0
M  V30 14634 C 1379.23 1.86439 -0.297651 0
M  V30 14635 O 1378.59 1.67831 0.716879 0
M  V30 14636 C 1378.64 2.40934 -2.69505 0
M  V30 14637 O 1378.36 1.84811 -3.97211 0
M  V30 14638 C 1379.86 3.32305 -2.93408 0
M  V30 14639 H 1377.08 0.387951 -0.547481 0
M  V30 14640 H 1379.63 0.601372 -1.95458 0
M  V30 14641 H 1377.78 3.04537 -2.39449 0
M  V30 14642 H 1378.2 2.59011 -4.56085 0
M  V30 14643 H 1379.67 4.0789 -3.71927 0
M  V30 14644 H 1380.15 3.89301 -2.03325 0
M  V30 14645 H 1380.75 2.74467 -3.24881 0
M  V30 14646 N 1379.07 1.38501 0.752011 0
M  V30 14647 C 1380.31 1.34995 1.51341 0
M  V30 14648 C 1380.65 -0.0594724 1.94109 0
M  V30 14649 O 1379.92 -1.02098 1.65548 0
M  V30 14650 C 1380.2 2.30705 2.76491 0
M  V30 14651 C 1380.06 3.80515 2.39851 0
M  V30 14652 C 1381.38 2.24521 3.78521 0
M  V30 14653 H 1378.5 0.491687 0.549011 0
M  V30 14654 H 1381.14 1.69361 0.861205 0
M  V30 14655 H 1379.29 2.01529 3.32142 0
M  V30 14656 H 1380.96 4.20371 1.89962 0
M  V30 14657 H 1379.2 3.98119 1.7229 0
M  V30 14658 H 1379.87 4.42946 3.29397 0
M  V30 14659 H 1382.35 2.50282 3.32413 0
M  V30 14660 H 1381.23 2.93598 4.63779 0
M  V30 14661 H 1381.49 1.24457 4.2422 0
M  V30 14662 N 1380.55 -0.980364 1.23396 0
M  V30 14663 C 1381.48 -2.07099 0.958403 0
M  V30 14664 C 1382.46 -1.62272 -0.1033 0
M  V30 14665 O 1383.64 -1.88475 0.0309639 0
M  V30 14666 C 1380.77 -3.35779 0.443864 0
M  V30 14667 C 1379.81 -3.99545 1.49218 0
M  V30 14668 S 1380.65 -4.3879 3.06958 0
M  V30 14669 C 1381.8 -5.70624 2.57174 0
M  V30 14670 H 1382.04 -2.30154 1.88192 0
M  V30 14671 H 1379.57 -1.11656 1.06641 0
M  V30 14672 H 1381.53 -4.10213 0.153603 0
M  V30 14673 H 1380.19 -3.10732 -0.458738 0
M  V30 14674 H 1379.38 -4.92242 1.0823 0
M  V30 14675 H 1378.98 -3.31489 1.73179 0
M  V30 14676 H 1381.27 -6.47555 1.99197 0
M  V30 14677 H 1382.22 -6.16454 3.48411 0
M  V30 14678 H 1382.63 -5.28626 1.98028 0
M  V30 14679 N 1382.02 -1.04567 -1.17913 0
M  V30 14680 C 1383.43 -0.779118 -1.69666 0
M  V30 14681 C 1383.79 0.699448 -1.83309 0
M  V30 14682 O 1382.91 1.54407 -1.51616 0
M  V30 14683 C 1383.51 -1.40769 -3.08171 0
M  V30 14684 C 1382.06 -1.18933 -3.57116 0
M  V30 14685 C 1381.21 -1.49519 -2.33536 0
M  V30 14686 H 1384.16 -1.21144 -1.02518 0
M  V30 14687 H 1384.18 -0.813584 -3.717 0
M  V30 14688 H 1383.7 -2.4838 -2.9821 0
M  V30 14689 H 1381.8 -0.132184 -3.72365 0
M  V30 14690 H 1381.91 -1.88987 -4.40251 0
M  V30 14691 H 1380.27 -0.915056 -2.37695 0
M  V30 14692 H 1381.06 -2.5825 -2.26189 0
M  V30 14693 N 1383.5 1.34231 -0.825823 0
M  V30 14694 C 1384.73 2.02417 -0.428348 0
M  V30 14695 C 1385.14 1.62181 0.966573 0
M  V30 14696 O 1384.5 0.828691 1.62601 0
M  V30 14697 C 1384.55 3.57678 -0.524271 0
M  V30 14698 O 1384.27 3.96458 -1.86422 0
M  V30 14699 C 1385.77 4.43132 -0.122069 0
M  V30 14700 H 1382.99 0.648699 -0.171554 0
M  V30 14701 H 1385.54 1.71443 -1.11478 0
M  V30 14702 H 1383.69 3.87232 0.114112 0
M  V30 14703 H 1384.11 4.91147 -1.84051 0
M  V30 14704 H 1385.58 5.51477 -0.240264 0
M  V30 14705 H 1386.06 4.29139 0.934705 0
M  V30 14706 H 1386.66 4.18912 -0.734366 0
M  V30 14707 N 1384.98 0.581051 1.46498 0
M  V30 14708 C 1385.91 -0.201475 2.27309 0
M  V30 14709 C 1386.89 -0.898424 1.35525 0
M  V30 14710 O 1388.07 -0.912643 1.64934 0
M  V30 14711 C 1385.2 -1.28896 3.13215 0
M  V30 14712 C 1384.25 -0.698028 4.20749 0
M  V30 14713 S 1385.08 0.473812 5.334 0
M  V30 14714 C 1386.24 -0.614916 6.22872 0
M  V30 14715 H 1386.47 0.484205 2.9333 0
M  V30 14716 H 1384 0.367907 1.49953 0
M  V30 14717 H 1385.96 -1.91162 3.63273 0
M  V30 14718 H 1384.62 -1.94658 2.46509 0
M  V30 14719 H 1383.81 -1.51542 4.80678 0
M  V30 14720 H 1383.42 -0.151069 3.73695 0
M  V30 14721 H 1385.71 -1.501 6.60663 0
M  V30 14722 H 1386.65 -0.0524259 7.08081 0
M  V30 14723 H 1387.06 -0.918315 5.5698 0
M  V30 14724 N 1386.46 -1.54343 0.318742 0
M  V30 14725 C 1387.87 -1.85922 -0.170309 0
M  V30 14726 C 1388.22 -1.24047 -1.52009 0
M  V30 14727 O 1387.34 -0.544705 -2.09432 0
M  V30 14728 C 1387.94 -3.37325 -0.315802 0
M  V30 14729 C 1386.5 -3.68871 -0.749073 0
M  V30 14730 C 1385.65 -2.76985 0.13209 0
M  V30 14731 H 1388.6 -1.4926 0.539185 0
M  V30 14732 H 1388.62 -3.62784 -1.14751 0
M  V30 14733 H 1388.13 -3.8233 0.66674 0
M  V30 14734 H 1386.23 -3.29396 -1.74153 0
M  V30 14735 H 1386.34 -4.75861 -0.556164 0
M  V30 14736 H 1384.71 -2.51672 -0.391564 0
M  V30 14737 H 1385.49 -3.24815 1.11131 0
M  V30 14738 N 1387.94 -0.0468143 -1.5753 0
M  V30 14739 C 1389.16 0.641161 -1.97241 0
M  V30 14740 C 1389.59 1.6384 -0.92401 0
M  V30 14741 O 1388.94 1.80946 0.113229 0
M  V30 14742 C 1388.99 1.30832 -3.36029 0
M  V30 14743 O 1388.1 2.42394 -3.33645 0
M  V30 14744 H 1387.44 0.167035 -0.642647 0
M  V30 14745 H 1389.97 -0.113921 -2.04283 0
M  V30 14746 H 1389.98 1.66102 -3.72658 0
M  V30 14747 H 1388.65 0.57744 -4.11872 0
M  V30 14748 H 1387.23 2.09104 -3.08756 0
M  V30 14749 N 1389.41 1.55964 0.226527 0
M  V30 14750 C 1390.66 1.7901 0.95306 0
M  V30 14751 C 1390.99 0.615608 1.84184 0
M  V30 14752 O 1390.27 -0.385341 1.90645 0
M  V30 14753 C 1390.55 3.12101 1.79624 0
M  V30 14754 C 1390.4 4.3999 0.934286 0
M  V30 14755 C 1391.72 3.4159 2.77496 0
M  V30 14756 H 1388.84 0.651236 0.345052 0
M  V30 14757 H 1391.48 1.88696 0.222236 0
M  V30 14758 H 1389.63 3.03975 2.41933 0
M  V30 14759 H 1391.31 4.6013 0.328328 0
M  V30 14760 H 1389.55 4.33138 0.239487 0
M  V30 14761 H 1390.22 5.29541 1.55853 0
M  V30 14762 H 1392.7 3.49812 2.25323 0
M  V30 14763 H 1391.57 4.35894 3.33599 0
M  V30 14764 H 1391.83 2.6351 3.54986 0
M  V30 14765 N 1390.89 -0.493031 1.4969 0
M  V30 14766 C 1392.3 -1.0744 1.52688 0
M  V30 14767 C 1392.65 -1.93612 0.317652 0
M  V30 14768 O 1391.78 -2.0871 -0.571745 0
M  V30 14769 C 1392.37 -1.95523 2.76688 0
M  V30 14770 C 1390.93 -2.48808 2.82438 0
M  V30 14771 C 1390.08 -1.26617 2.46705 0
M  V30 14772 H 1393.03 -0.276589 1.56271 0
M  V30 14773 H 1393.05 -2.80315 2.57301 0
M  V30 14774 H 1392.56 -1.32779 3.6468 0
M  V30 14775 H 1390.67 -3.15168 1.98746 0
M  V30 14776 H 1390.78 -2.85416 3.84805 0
M  V30 14777 H 1389.14 -1.59396 1.98658 0
M  V30 14778 H 1389.93 -0.655695 3.3698 0
M  V30 14779 N 1392.37 -1.38898 -0.744656 0
M  V30 14780 C 1393.6 -1.3903 -1.53901 0
M  V30 14781 C 1394.02 0.0156607 -1.88093 0
M  V30 14782 O 1393.38 1.00012 -1.51219 0
M  V30 14783 C 1393.43 -2.2609 -2.80919 0
M  V30 14784 O 1392.53 -1.68414 -3.76444 0
M  V30 14785 H 1391.87 -0.473854 -0.465144 0
M  V30 14786 H 1394.4 -1.82773 -0.919525 0
M  V30 14787 H 1394.41 -2.40264 -3.29754 0
M  V30 14788 H 1393.09 -3.28271 -2.55364 0
M  V30 14789 H 1391.66 -1.63431 -3.35179 0
M  V30 14790 N 1393.85 0.973806 -1.23914 0
M  V30 14791 C 1395.1 1.71259 -1.07307 0
M  V30 14792 C 1395.42 1.91064 0.389831 0
M  V30 14793 O 1394.69 1.48401 1.27883 0
M  V30 14794 H 1393.27 0.634588 -0.39409 0
M  V30 14795 H 1395.93 1.17184 -1.55737 0
M  V30 14796 H 1395.03 2.69953 -1.56626 0
M  V30 14797 N 1395.33 1.05191 1.17357 0
M  V30 14798 C 1396.57 0.771027 1.893 0
M  V30 14799 C 1396.93 -0.68931 1.792 0
M  V30 14800 O 1398.13 -1.0843 2.4596 0
M  V30 14801 C 1396.4 1.23822 3.35265 0
M  V30 14802 S 1397.96 1.0847 4.25182 0
M  V30 14803 H 1394.78 0.280008 0.653542 0
M  V30 14804 H 1397.38 1.34654 1.41734 0
M  V30 14805 H 1396.09 2.2962 3.40151 0
M  V30 14806 H 1395.62 0.656981 3.87875 0
M  V30 14807 H 1397.63 0.00886614 4.96199 0
M  V30 14808 N 1396.8 -1.33791 0.83293 0
M  V30 14809 C 1397.75 -2.29332 0.25989 0
M  V30 14810 C 1398.72 -1.54056 -0.620965 0
M  V30 14811 O 1399.91 -1.82382 -0.560492 0
M  V30 14812 C 1397.05 -3.40461 -0.563964 0
M  V30 14813 C 1396.16 -4.30658 0.34025 0
M  V30 14814 C 1395.29 -5.28897 -0.494134 0
M  V30 14815 C 1394.33 -6.10733 0.408842 0
M  V30 14816 N 1393.47 -7.01032 -0.38706 0
M  V30 14817 H 1398.31 -2.77743 1.07996 0
M  V30 14818 H 1395.85 -1.3667 0.544043 0
M  V30 14819 H 1397.81 -4.03587 -1.05704 0
M  V30 14820 H 1396.44 -2.93258 -1.34905 0
M  V30 14821 H 1395.49 -3.68305 0.9516 0
M  V30 14822 H 1396.8 -4.87962 1.03415 0
M  V30 14823 H 1395.95 -5.97522 -1.05128 0
M  V30 14824 H 1394.69 -4.72155 -1.2215 0
M  V30 14825 H 1393.7 -5.41031 0.978046 0
M  V30 14826 H 1394.92 -6.69557 1.13448 0
M  V30 14827 H 1392.87 -6.46747 -1.09792 0
M  V30 14828 H 1392.79 -7.55592 0.248249 0
M  V30 14829 H 1394.05 -7.73973 -0.926631 0
M  V30 14830 N 1398.28 -0.588812 -1.46187 0
M  V30 14831 C 1399.19 0.143253 -2.34162 0
M  V30 14832 C 1400.21 0.879779 -1.5012 0
M  V30 14833 O 1401.38 0.841592 -1.82973 0
M  V30 14834 C 1398.45 1.14017 -3.27416 0
M  V30 14835 C 1397.51 0.407651 -4.2736 0
M  V30 14836 C 1396.74 1.35708 -5.16158 0
M  V30 14837 O 1396.97 2.59394 -5.08007 0
M  V30 14838 O 1395.9 0.864343 -5.95662 0
M  V30 14839 H 1399.73 -0.579228 -2.98125 0
M  V30 14840 H 1397.31 -0.349174 -1.45262 0
M  V30 14841 H 1399.19 1.71484 -3.8493 0
M  V30 14842 H 1397.87 1.84401 -2.66041 0
M  V30 14843 H 1396.78 -0.209011 -3.73516 0
M  V30 14844 H 1398.11 -0.255334 -4.91537 0
M  V30 14845 N 1399.76 1.54172 -0.326923 0
M  V30 14846 C 1401.01 2.00233 0.274098 0
M  V30 14847 C 1401.33 1.21665 1.5239 0
M  V30 14848 O 1400.6 0.319359 1.93279 0
M  V30 14849 H 1399.18 0.739687 0.104271 0
M  V30 14850 H 1401.84 1.8977 -0.444244 0
M  V30 14851 H 1400.94 3.07599 0.528154 0
M  V30 14852 N 1401.24 0.0551678 1.57503 0
M  V30 14853 C 1402.48 -0.612713 1.93952 0
M  V30 14854 C 1402.84 -1.68215 0.933889 0
M  V30 14855 O 1402.13 -1.91544 -0.0463465 0
M  V30 14856 C 1402.33 -1.24895 3.34867 0
M  V30 14857 C 1402.16 -0.242666 4.49045 0
M  V30 14858 C 1400.93 0.16678 5.05025 0
M  V30 14859 C 1403.12 0.513505 5.1173 0
M  V30 14860 N 1401.11 1.16551 6.02735 0
M  V30 14861 C 1402.48 1.3652 6.04783 0
M  V30 14862 C 1404.53 0.571384 4.94611 0
M  V30 14863 C 1403.23 2.26959 6.82556 0
M  V30 14864 C 1405.26 1.46322 5.73013 0
M  V30 14865 C 1404.62 2.30262 6.65702 0
M  V30 14866 H 1400.72 -0.195733 0.757108 0
M  V30 14867 H 1403.31 0.128432 1.94276 0
M  V30 14868 H 1401.48 -1.9601 3.35313 0
M  V30 14869 H 1403.21 -1.87595 3.58595 0
M  V30 14870 H 1399.96 -0.212991 4.73121 0
M  V30 14871 H 1400.39 1.66188 6.56285 0
M  V30 14872 H 1405.03 -0.0633664 4.22753 0
M  V30 14873 H 1402.75 2.91477 7.53702 0
M  V30 14874 H 1406.33 1.51262 5.61793 0
M  V30 14875 H 1405.21 2.98153 7.2531 0
M  V30 14876 N 1402.72 -1.56081 -0.218252 0
M  V30 14877 C 1403.66 -1.93544 -1.2901 0
M  V30 14878 C 1404.66 -0.817886 -1.48348 0
M  V30 14879 O 1405.86 -1.00274 -1.49483 0
M  V30 14880 H 1402.24 -0.61511 -0.432601 0
M  V30 14881 H 1404.21 -2.82975 -0.946966 0
M  V30 14882 C 1402.96 -2.27134 -2.63259 0
M  V30 14883 H 1402.28 -3.12643 -2.49188 0
M  V30 14884 H 1403.72 -2.57228 -3.3706 0
M  V30 14885 C 1402.18 -1.09764 -3.18518 0
M  V30 14886 O 1402.71 -0.360501 -4.00079 0
M  V30 14887 N 1400.92 -0.880589 -2.76937 0
M  V30 14888 H 1400.46 -1.48175 -2.10718 0
M  V30 14889 H 1400.42 -0.0970234 -3.1425 0
M  V30 14890 N 1404.2 0.485086 -1.49949 0
M  V30 14891 C 1405.44 1.23816 -1.60237 0
M  V30 14892 C 1405.77 1.9223 -0.296274 0
M  V30 14893 O 1405.03 1.82095 0.716939 0
M  V30 14894 C 1405.32 2.31573 -2.72229 0
M  V30 14895 C 1404.99 1.80508 -4.13192 0
M  V30 14896 C 1403.65 1.66301 -4.5155 0
M  V30 14897 C 1406 1.42471 -5.0135 0
M  V30 14898 C 1403.33 1.1246 -5.75821 0
M  V30 14899 C 1405.68 0.900757 -6.26154 0
M  V30 14900 C 1404.35 0.74521 -6.63327 0
M  V30 14901 H 1403.62 0.453075 -0.586348 0
M  V30 14902 H 1406.27 0.536349 -1.83836 0
M  V30 14903 H 1404.57 3.07606 -2.42663 0
M  V30 14904 H 1406.27 2.89574 -2.77395 0
M  V30 14905 H 1402.86 1.92529 -3.82924 0
M  V30 14906 H 1407.04 1.52287 -4.72358 0
M  V30 14907 H 1402.3 0.991422 -6.03308 0
M  V30 14908 H 1406.47 0.5973 -6.93834 0
M  V30 14909 H 1404.1 0.325838 -7.59501 0
M  V30 14910 N 1405.67 1.39291 0.737279 0
M  V30 14911 C 1406.9 1.39457 1.52431 0
M  V30 14912 C 1407.31 -0.0132866 1.89195 0
M  V30 14913 O 1406.65 -0.99443 1.54456 0
M  V30 14914 C 1406.72 2.20125 2.84227 0
M  V30 14915 C 1406.38 3.68778 2.6991 0
M  V30 14916 C 1407.38 4.6191 2.38611 0
M  V30 14917 C 1405.06 4.12336 2.86853 0
M  V30 14918 C 1407.06 5.96581 2.24432 0
M  V30 14919 C 1404.74 5.47083 2.72292 0
M  V30 14920 C 1405.74 6.3902 2.41127 0
M  V30 14921 O 1405.43 7.71287 2.26654 0
M  V30 14922 H 1405.16 0.478281 0.477727 0
M  V30 14923 H 1407.72 1.837 0.918891 0
M  V30 14924 H 1405.95 1.70627 3.47021 0
M  V30 14925 H 1407.63 2.12497 3.45832 0
M  V30 14926 H 1408.4 4.29559 2.25175 0
M  V30 14927 H 1404.28 3.41111 3.10103 0
M  V30 14928 H 1407.82 6.68307 2.00028 0
M  V30 14929 H 1403.72 5.79026 2.85306 0
M  V30 14930 H 1404.49 7.81987 2.41742 0
M  V30 14931 N 1407.15 -0.967221 1.24429 0
M  V30 14932 C 1408.38 -1.75053 1.11226 0
M  V30 14933 C 1408.8 -1.85162 -0.331139 0
M  V30 14934 O 1408.16 -1.32288 -1.23974 0
M  V30 14935 C 1408.21 -3.14882 1.75733 0
M  V30 14936 O 1407.31 -3.99371 1.02842 0
M  V30 14937 H 1406.65 -0.538078 0.389061 0
M  V30 14938 H 1409.18 -1.21325 1.64746 0
M  V30 14939 H 1409.19 -3.65402 1.81509 0
M  V30 14940 H 1407.87 -3.06839 2.80754 0
M  V30 14941 H 1406.44 -3.57854 1.04856 0
M  V30 14942 N 1408.63 -1.05812 -1.16797 0
M  V30 14943 C 1409.58 -0.658636 -2.2308 0
M  V30 14944 C 1410.57 0.323104 -1.6629 0
M  V30 14945 O 1411.78 0.188492 -1.7901 0
M  V30 14946 H 1408.15 -0.194843 -0.72632 0
M  V30 14947 H 1410.12 -1.56501 -2.54067 0
M  V30 14948 C 1408.87 -0.0559428 -3.47655 0
M  V30 14949 H 1408.2 -0.802468 -3.91664 0
M  V30 14950 H 1409.64 0.186118 -4.23591 0
M  V30 14951 C 1408.09 1.19913 -3.14837 0
M  V30 14952 O 1408.62 2.28772 -3.30191 0
M  V30 14953 N 1406.83 1.09921 -2.69009 0
M  V30 14954 H 1406.38 0.213331 -2.56715 0
M  V30 14955 H 1406.34 1.93981 -2.47424 0
M  V30 14956 N 1410.11 1.33347 -0.840014 0
M  V30 14957 C 1411.05 2.29191 -0.272048 0
M  V30 14958 C 1412.02 1.54383 0.612787 0
M  V30 14959 O 1413.21 1.82676 0.550812 0
M  V30 14960 C 1410.35 3.40755 0.545901 0
M  V30 14961 C 1409.46 4.30471 -0.363084 0
M  V30 14962 C 1408.6 5.29151 0.466078 0
M  V30 14963 C 1407.64 6.10508 -0.441225 0
M  V30 14964 N 1406.77 7.01228 0.349877 0
M  V30 14965 H 1411.61 2.77166 -1.09467 0
M  V30 14966 H 1409.15 1.36379 -0.551284 0
M  V30 14967 H 1411.11 4.04142 1.03562 0
M  V30 14968 H 1409.74 2.9397 1.33348 0
M  V30 14969 H 1408.79 3.67795 -0.971119 0
M  V30 14970 H 1410.1 4.87406 -1.06002 0
M  V30 14971 H 1409.26 5.98072 1.01957 0
M  V30 14972 H 1408 4.72796 1.19644 0
M  V30 14973 H 1407 5.40504 -1.00672 0
M  V30 14974 H 1408.23 6.68946 -1.16997 0
M  V30 14975 H 1406.17 6.4732 1.0636 0
M  V30 14976 H 1406.09 7.5545 -0.288317 0
M  V30 14977 H 1407.36 7.74453 0.885573 0
M  V30 14978 N 1411.59 0.596556 1.45873 0
M  V30 14979 C 1412.83 0.090321 2.042 0
M  V30 14980 C 1413.19 -1.25123 1.45631 0
M  V30 14981 O 1414.39 -1.84752 1.95243 0
M  V30 14982 C 1412.66 0.0400377 3.57378 0
M  V30 14983 S 1414.22 -0.40661 4.36912 0
M  V30 14984 H 1411.04 0.0441976 0.709625 0
M  V30 14985 H 1413.64 0.792175 1.78731 0
M  V30 14986 H 1412.34 1.02013 3.97519 0
M  V30 14987 H 1411.88 -0.684156 3.87405 0
M  V30 14988 H 1413.89 -1.65849 4.67663 0
M  V30 14989 N 1413.06 -1.53996 0.335095 0
M  V30 14990 C 1414.31 -2.00772 -0.263997 0
M  V30 14991 C 1414.64 -1.22309 -1.51231 0
M  V30 14992 O 1413.89 -0.296427 -1.93442 0
M  V30 14993 C 1414.19 -3.51769 -0.631907 0
M  V30 14994 C 1413.86 -4.47908 0.518553 0
M  V30 14995 C 1412.52 -4.73912 0.834297 0
M  V30 14996 C 1414.87 -5.04964 1.29078 0
M  V30 14997 C 1412.2 -5.54228 1.92478 0
M  V30 14998 C 1414.55 -5.86469 2.37144 0
M  V30 14999 C 1413.22 -6.1077 2.69288 0
M  V30 15000 H 1412.49 -0.734676 -0.0966033 0
M  V30 15001 H 1415.13 -1.85862 0.46126 0
M  V30 15002 H 1413.44 -3.64466 -1.43776 0
M  V30 15003 H 1415.14 -3.85412 -1.10719 0
M  V30 15004 H 1411.73 -4.27796 0.262392 0
M  V30 15005 H 1415.91 -4.84846 1.0601 0
M  V30 15006 H 1411.17 -5.71285 2.17816 0
M  V30 15007 H 1415.34 -6.29695 2.97417 0
M  V30 15008 H 1412.97 -6.72792 3.53913 0
M  V30 15009 N 1414.54 -0.0635198 -1.57472 0
M  V30 15010 C 1415.49 0.906604 -2.12248 0
M  V30 15011 C 1416.46 1.30078 -1.0329 0
M  V30 15012 O 1417.64 1.38809 -1.30907 0
M  V30 15013 C 1414.78 2.1718 -2.68192 0
M  V30 15014 C 1413.9 1.831 -3.91278 0
M  V30 15015 C 1413.03 3.0417 -4.35493 0
M  V30 15016 C 1412.07 2.66069 -5.51248 0
M  V30 15017 N 1411.21 3.79871 -5.9046 0
M  V30 15018 H 1416.05 0.432606 -2.94843 0
M  V30 15019 H 1413.58 0.201895 -1.45708 0
M  V30 15020 H 1415.54 2.91231 -2.98732 0
M  V30 15021 H 1414.17 2.62135 -1.88375 0
M  V30 15022 H 1413.22 0.991473 -3.67252 0
M  V30 15023 H 1414.54 1.51063 -4.75375 0
M  V30 15024 H 1413.69 3.86507 -4.6765 0
M  V30 15025 H 1412.43 3.39395 -3.50232 0
M  V30 15026 H 1411.43 1.82151 -5.1875 0
M  V30 15027 H 1412.66 2.32023 -6.38234 0
M  V30 15028 H 1410.61 4.14873 -5.0815 0
M  V30 15029 H 1410.52 3.51573 -6.69277 0
M  V30 15030 H 1411.79 4.62811 -6.27237 0
M  V30 15031 N 1416.02 1.56195 0.209972 0
M  V30 15032 C 1417.27 1.78941 0.930744 0
M  V30 15033 C 1417.58 0.634139 1.85035 0
M  V30 15034 O 1418.79 0.745524 2.61064 0
M  V30 15035 C 1417.24 3.16935 1.70529 0
M  V30 15036 C 1416.85 4.40221 0.83125 0
M  V30 15037 C 1418.6 3.49 2.41659 0
M  V30 15038 C 1416.5 5.69238 1.60381 0
M  V30 15039 H 1415.43 0.667176 0.351273 0
M  V30 15040 H 1418.08 1.82572 0.184341 0
M  V30 15041 H 1416.47 3.07513 2.49503 0
M  V30 15042 H 1417.64 4.60728 0.081227 0
M  V30 15043 H 1415.95 4.15756 0.231517 0
M  V30 15044 H 1418.55 4.42623 2.99982 0
M  V30 15045 H 1418.89 2.72042 3.15117 0
M  V30 15046 H 1419.43 3.59804 1.69665 0
M  V30 15047 H 1416.17 6.49121 0.912292 0
M  V30 15048 H 1415.69 5.52772 2.32815 0
M  V30 15049 H 1417.37 6.09827 2.16149 0
M  V30 15050 N 1417.5 -0.477127 1.50204 0
M  V30 15051 C 1418.74 -1.22964 1.60891 0
M  V30 15052 C 1419.07 -1.9207 0.306464 0
M  V30 15053 O 1418.33 -1.82472 -0.707272 0
M  V30 15054 C 1418.63 -2.30126 2.73453 0
M  V30 15055 C 1418.29 -1.78314 4.14143 0
M  V30 15056 C 1416.95 -1.63904 4.52425 0
M  V30 15057 C 1419.31 -1.3981 5.02098 0
M  V30 15058 C 1416.63 -1.09404 5.76409 0
M  V30 15059 C 1418.99 -0.867538 6.26623 0
M  V30 15060 C 1417.65 -0.710022 6.63713 0
M  V30 15061 H 1416.92 -0.449959 0.588743 0
M  V30 15062 H 1419.57 -0.526592 1.84118 0
M  V30 15063 H 1417.87 -3.06315 2.44291 0
M  V30 15064 H 1419.57 -2.88099 2.78927 0
M  V30 15065 H 1416.16 -1.90496 3.83939 0
M  V30 15066 H 1420.34 -1.49779 4.73159 0
M  V30 15067 H 1415.6 -0.959413 6.03825 0
M  V30 15068 H 1419.77 -0.560496 6.94141 0
M  V30 15069 H 1417.4 -0.285555 7.59663 0
M  V30 15070 N 1418.98 -1.3968 -0.729882 0
M  V30 15071 C 1420.22 -1.36911 -1.4866 0
M  V30 15072 C 1420.55 0.0326011 -1.94973 0
M  V30 15073 O 1419.82 0.984789 -1.69348 0
M  V30 15074 H 1418.4 -0.503848 -0.551495 0
M  V30 15075 H 1421.06 -1.74596 -0.866155 0
M  V30 15076 H 1420.15 -2.03504 -2.36628 0
M  V30 15077 N 1420.45 0.960609 -1.2494 0
M  V30 15078 C 1421.7 1.70448 -1.09333 0
M  V30 15079 C 1422.03 1.91012 0.366687 0
M  V30 15080 O 1421.28 1.4743 1.28697 0
M  V30 15081 C 1421.58 3.09564 -1.78619 0
M  V30 15082 C 1421.25 3.08819 -3.28545 0
M  V30 15083 C 1419.91 3.08323 -3.69446 0
M  V30 15084 C 1422.26 3.02606 -4.24357 0
M  V30 15085 C 1419.59 2.99356 -5.04582 0
M  V30 15086 C 1421.94 2.9518 -5.5951 0
M  V30 15087 C 1420.61 2.93017 -5.99748 0
M  V30 15088 H 1419.88 0.623714 -0.400078 0
M  V30 15089 H 1422.52 1.12273 -1.55136 0
M  V30 15090 H 1420.83 3.71247 -1.2523 0
M  V30 15091 H 1422.53 3.6593 -1.64001 0
M  V30 15092 H 1419.12 3.09974 -2.95997 0
M  V30 15093 H 1423.3 3.02113 -3.93753 0
M  V30 15094 H 1418.56 2.96046 -5.34946 0
M  V30 15095 H 1422.73 2.89333 -6.3345 0
M  V30 15096 H 1420.36 2.85824 -7.04421 0
M  V30 15097 N 1421.93 1.0643 1.16234 0
M  V30 15098 C 1422.87 0.620534 2.19601 0
M  V30 15099 C 1423.84 -0.35739 1.58624 0
M  V30 15100 O 1425.03 -0.266037 1.86613 0
M  V30 15101 C 1422.15 -0.0901061 3.3858 0
M  V30 15102 C 1421.2 0.844789 4.1805 0
M  V30 15103 S 1422.03 2.34077 4.81631 0
M  V30 15104 C 1423.19 1.64167 6.03987 0
M  V30 15105 H 1423.42 1.49626 2.56903 0
M  V30 15106 H 1420.96 0.877398 1.27048 0
M  V30 15107 H 1422.91 -0.493891 4.07518 0
M  V30 15108 H 1421.57 -0.942042 2.9964 0
M  V30 15109 H 1420.77 0.294135 5.03141 0
M  V30 15110 H 1420.37 1.18852 3.54613 0
M  V30 15111 H 1422.66 0.948043 6.70834 0
M  V30 15112 H 1423.6 2.47054 6.63604 0
M  V30 15113 H 1424.01 1.12366 5.53203 0
M  V30 15114 N 1423.41 -1.329 0.847073 0
M  V30 15115 C 1424.32 -2.32815 0.288878 0
M  V30 15116 C 1425.34 -1.63715 -0.589363 0
M  V30 15117 O 1426.51 -1.9531 -0.491537 0
M  V30 15118 C 1423.58 -3.42778 -0.519988 0
M  V30 15119 C 1422.64 -4.27584 0.383496 0
M  V30 15120 C 1421.87 -5.32296 -0.386862 0
M  V30 15121 O 1422.09 -5.4698 -1.61768 0
M  V30 15122 O 1421.03 -6.01408 0.2434 0
M  V30 15123 H 1424.85 -2.82434 1.11647 0
M  V30 15124 H 1422.44 -1.36388 0.609807 0
M  V30 15125 H 1424.32 -4.09862 -0.979357 0
M  V30 15126 H 1423 -2.95362 -1.3245 0
M  V30 15127 H 1421.9 -3.63338 0.890879 0
M  V30 15128 H 1423.24 -4.78505 1.15299 0
M  V30 15129 N 1424.89 -0.604284 -1.45555 0
M  V30 15130 C 1425.8 0.118409 -2.34301 0
M  V30 15131 C 1426.81 0.863807 -1.51044 0
M  V30 15132 O 1427.99 0.822138 -1.83856 0
M  V30 15133 C 1425.06 1.10538 -3.28606 0
M  V30 15134 C 1424.12 0.362301 -4.27768 0
M  V30 15135 C 1423.35 1.30226 -5.17568 0
M  V30 15136 O 1423.57 2.53991 -5.10729 0
M  V30 15137 O 1422.51 0.801116 -5.96545 0
M  V30 15138 H 1426.33 -0.610816 -2.97494 0
M  V30 15139 H 1423.92 -0.364562 -1.44884 0
M  V30 15140 H 1425.8 1.67392 -3.86727 0
M  V30 15141 H 1424.47 1.81569 -2.67982 0
M  V30 15142 H 1423.38 -0.248616 -3.73273 0
M  V30 15143 H 1424.71 -0.307454 -4.91239 0
M  V30 15144 N 1426.37 1.53816 -0.343257 0
M  V30 15145 C 1427.28 2.28716 0.522121 0
M  V30 15146 C 1428.29 1.33815 1.11218 0
M  V30 15147 O 1429.47 1.66853 1.12793 0
M  V30 15148 C 1426.53 3.04517 1.65741 0
M  V30 15149 C 1425.59 4.15043 1.09716 0
M  V30 15150 C 1424.83 4.8722 2.17835 0
M  V30 15151 O 1425.05 4.59065 3.38549 0
M  V30 15152 O 1423.98 5.73678 1.82145 0
M  V30 15153 H 1427.81 3.03576 -0.086732 0
M  V30 15154 H 1425.4 1.49007 -0.108313 0
M  V30 15155 H 1427.28 3.51921 2.31796 0
M  V30 15156 H 1425.95 2.32514 2.25208 0
M  V30 15157 H 1424.86 3.71943 0.401152 0
M  V30 15158 H 1426.19 4.89147 0.547362 0
M  V30 15159 N 1427.84 0.0718701 1.57436 0
M  V30 15160 C 1429.26 -0.28476 1.57039 0
M  V30 15161 C 1429.46 -1.70032 1.08127 0
M  V30 15162 O 1428.52 -2.41191 0.747189 0
M  V30 15163 C 1429.83 -0.0943482 3.00552 0
M  V30 15164 C 1431.38 -0.163879 3.12571 0
M  V30 15165 C 1431.85 -0.00174658 4.58 0
M  V30 15166 N 1433.34 -0.0573489 4.63164 0
M  V30 15167 C 1434.08 0.0436849 5.73383 0
M  V30 15168 N 1433.57 0.198243 6.92516 0
M  V30 15169 N 1435.37 -0.0133856 5.62098 0
M  V30 15170 H 1427.52 0.99702 1.87545 0
M  V30 15171 H 1429.78 0.388822 0.864593 0
M  V30 15172 H 1429.49 0.882445 3.40449 0
M  V30 15173 H 1429.36 -0.846636 3.67576 0
M  V30 15174 H 1431.75 -1.13116 2.7256 0
M  V30 15175 H 1431.83 0.619513 2.48185 0
M  V30 15176 H 1431.47 0.9623 4.98701 0
M  V30 15177 H 1431.4 -0.804543 5.20418 0
M  V30 15178 H 1433.89 -0.175212 3.77494 0
M  V30 15179 H 1434.21 0.267479 7.72337 0
M  V30 15180 H 1432.55 0.233606 6.94607 0
M  V30 15181 H 1435.74 -0.132835 4.67911 0
M  V30 15182 H 1435.92 0.0688076 6.47963 0
M  V30 15183 N 1429.32 -1.56304 -0.201686 0
M  V30 15184 C 1430.27 -1.94021 -1.24999 0
M  V30 15185 C 1431.24 -0.799926 -1.45569 0
M  V30 15186 O 1432.42 -1.05752 -1.58811 0
M  V30 15187 C 1429.56 -2.27935 -2.59113 0
M  V30 15188 C 1428.68 -3.54995 -2.46176 0
M  V30 15189 C 1427.81 -3.78262 -3.72949 0
M  V30 15190 C 1426.85 -4.9877 -3.54817 0
M  V30 15191 N 1425.99 -5.18325 -4.73586 0
M  V30 15192 H 1430.83 -2.834 -0.92134 0
M  V30 15193 H 1428.37 -1.40252 -0.44359 0
M  V30 15194 H 1430.32 -2.45613 -3.37239 0
M  V30 15195 H 1428.95 -1.41705 -2.90034 0
M  V30 15196 H 1428.01 -3.45401 -1.59381 0
M  V30 15197 H 1429.32 -4.43277 -2.28708 0
M  V30 15198 H 1428.47 -3.96144 -4.59516 0
M  V30 15199 H 1427.21 -2.88299 -3.93364 0
M  V30 15200 H 1426.22 -4.80818 -2.66635 0
M  V30 15201 H 1427.44 -5.90237 -3.35854 0
M  V30 15202 H 1425.39 -4.31308 -4.94277 0
M  V30 15203 H 1425.3 -6.00774 -4.58919 0
M  V30 15204 H 1426.57 -5.40659 -5.61523 0
M  V30 15205 N 1430.8 0.469154 -1.50455 0
M  V30 15206 C 1431.75 1.58765 -1.6999 0
M  V30 15207 C 1432.74 1.59673 -0.56577 0
M  V30 15208 O 1433.95 1.63799 -0.74632 0
M  V30 15209 H 1430.32 0.526868 -0.536577 0
M  V30 15210 H 1432.29 1.39451 -2.6381 0
M  V30 15211 C 1431.04 2.9669 -1.81302 0
M  V30 15212 H 1430.37 2.96711 -2.67961 0
M  V30 15213 H 1431.81 3.74403 -1.98994 0
M  V30 15214 C 1430.27 3.32127 -0.565086 0
M  V30 15215 O 1430.8 4.00616 0.294873 0
M  V30 15216 N 1429 2.8757 -0.418537 0
M  V30 15217 H 1428.55 2.32008 -1.11938 0
M  V30 15218 H 1428.51 3.11645 0.415276 0
M  V30 15219 N 1432.28 1.40065 0.722464 0
M  V30 15220 C 1433.52 1.39178 1.48328 0
M  V30 15221 C 1433.88 -0.00849644 1.92398 0
M  V30 15222 O 1433.17 -0.977541 1.64787 0
M  V30 15223 C 1433.37 2.30949 2.72759 0
M  V30 15224 C 1433.2 3.7976 2.40857 0
M  V30 15225 C 1431.97 4.48615 2.32535 0
M  V30 15226 C 1434.16 4.71426 2.05576 0
M  V30 15227 N 1432.15 5.82695 1.93236 0
M  V30 15228 C 1433.52 5.94251 1.76822 0
M  V30 15229 C 1435.57 4.59327 1.92153 0
M  V30 15230 C 1434.27 7.06327 1.35996 0
M  V30 15231 C 1436.3 5.71338 1.5273 0
M  V30 15232 C 1435.66 6.93244 1.24869 0
M  V30 15233 H 1431.76 0.564547 0.541119 0
M  V30 15234 H 1434.35 1.7572 0.838475 0
M  V30 15235 H 1432.52 1.96545 3.35 0
M  V30 15236 H 1434.25 2.20967 3.39051 0
M  V30 15237 H 1431 4.0221 2.50048 0
M  V30 15238 H 1431.43 6.53684 1.76144 0
M  V30 15239 H 1436.07 3.65602 2.12356 0
M  V30 15240 H 1433.79 7.99942 1.14535 0
M  V30 15241 H 1437.37 5.6397 1.42932 0
M  V30 15242 H 1436.25 7.78446 0.948221 0
M  V30 15243 N 1433.76 -0.95397 1.25448 0
M  V30 15244 C 1434.69 -2.05412 1.01679 0
M  V30 15245 C 1435.7 -1.62789 -0.0184932 0
M  V30 15246 O 1436.89 -1.77137 0.220136 0
M  V30 15247 C 1433.99 -3.3496 0.515292 0
M  V30 15248 C 1433.16 -4.06418 1.61688 0
M  V30 15249 C 1432.22 -5.14237 1.11564 0
M  V30 15250 O 1431.25 -5.39649 1.81017 0
M  V30 15251 N 1432.45 -5.80484 -0.0427228 0
M  V30 15252 H 1435.22 -2.26372 1.96407 0
M  V30 15253 H 1432.78 -1.12257 1.16662 0
M  V30 15254 H 1434.77 -4.04366 0.164426 0
M  V30 15255 H 1433.34 -3.10767 -0.33807 0
M  V30 15256 H 1432.56 -3.31101 2.1393 0
M  V30 15257 H 1433.85 -4.50917 2.35693 0
M  V30 15258 H 1433.25 -5.62259 -0.623038 0
M  V30 15259 H 1431.8 -6.50941 -0.334615 0
M  V30 15260 N 1435.24 -1.07045 -1.15668 0
M  V30 15261 C 1436.15 -0.699332 -2.23934 0
M  V30 15262 C 1437.16 0.288036 -1.71599 0
M  V30 15263 O 1438.34 0.135447 -2.00944 0
M  V30 15264 C 1435.4 -0.0994775 -3.46557 0
M  V30 15265 C 1434.46 -1.13968 -4.13896 0
M  V30 15266 C 1433.7 -0.56836 -5.30665 0
M  V30 15267 O 1433.92 0.616556 -5.67058 0
M  V30 15268 O 1432.85 -1.31174 -5.87432 0
M  V30 15269 H 1436.68 -1.60212 -2.58003 0
M  V30 15270 H 1434.26 -0.843202 -1.23331 0
M  V30 15271 H 1436.15 0.23293 -4.20756 0
M  V30 15272 H 1434.82 0.776684 -3.14244 0
M  V30 15273 H 1433.73 -1.5244 -3.41633 0
M  V30 15274 H 1435.06 -1.98764 -4.50282 0
M  V30 15275 N 1436.71 1.32449 -0.85411 0
M  V30 15276 C 1437.68 2.27183 -0.303377 0
M  V30 15277 C 1438.68 1.51582 0.536622 0
M  V30 15278 O 1439.87 1.70684 0.348211 0
M  V30 15279 C 1437 3.36086 0.570852 0
M  V30 15280 H 1438.19 2.77408 -1.1395 0
M  V30 15281 H 1435.74 1.43111 -0.628402 0
M  V30 15282 H 1436.48 2.91128 1.42881 0
M  V30 15283 H 1436.26 3.92088 -0.030399 0
M  V30 15284 H 1437.75 4.06675 0.948972 0
M  V30 15285 N 1438.19 0.611994 1.45232 0
M  V30 15286 C 1439.61 0.276005 1.57195 0
M  V30 15287 C 1439.81 -1.22136 1.60266 0
M  V30 15288 O 1438.86 -2.00459 1.53533 0
M  V30 15289 C 1440.18 0.951064 2.85263 0
M  V30 15290 C 1441.72 0.927398 2.98945 0
M  V30 15291 C 1442.2 1.58255 4.2979 0
M  V30 15292 N 1443.69 1.54825 4.36559 0
M  V30 15293 C 1444.43 2.02428 5.3648 0
M  V30 15294 N 1443.92 2.58137 6.42913 0
M  V30 15295 N 1445.71 1.9317 5.27865 0
M  V30 15296 H 1437.87 1.58418 1.41483 0
M  V30 15297 H 1440.13 0.663879 0.676734 0
M  V30 15298 H 1439.83 2.00557 2.88912 0
M  V30 15299 H 1439.71 0.477044 3.74171 0
M  V30 15300 H 1442.1 -0.118571 2.94862 0
M  V30 15301 H 1442.18 1.43973 2.11437 0
M  V30 15302 H 1441.82 2.62787 4.34632 0
M  V30 15303 H 1441.75 1.04521 5.16123 0
M  V30 15304 H 1444.24 1.14133 3.60253 0
M  V30 15305 H 1444.55 2.92243 7.15412 0
M  V30 15306 H 1442.9 2.62179 6.43652 0
M  V30 15307 H 1446.09 1.49384 4.43624 0
M  V30 15308 H 1446.26 2.30582 6.05587 0
M  V30 15309 N 1439.67 -1.53632 0.351409 0
M  V30 15310 C 1440.62 -2.25281 -0.501724 0
M  V30 15311 C 1441.59 -1.25406 -1.08915 0
M  V30 15312 O 1442.77 -1.54157 -1.1243 0
M  V30 15313 C 1439.91 -3.03491 -1.64278 0
M  V30 15314 C 1439.02 -4.18233 -1.0819 0
M  V30 15315 C 1438.16 -4.83914 -2.1909 0
M  V30 15316 C 1437.2 -5.90712 -1.60394 0
M  V30 15317 N 1436.34 -6.50141 -2.65068 0
M  V30 15318 H 1441.18 -2.97775 0.11579 0
M  V30 15319 H 1438.71 -1.46938 0.0689141 0
M  V30 15320 H 1440.67 -3.47101 -2.31467 0
M  V30 15321 H 1439.3 -2.33279 -2.23116 0
M  V30 15322 H 1438.35 -3.7921 -0.300713 0
M  V30 15323 H 1439.66 -4.95023 -0.612644 0
M  V30 15324 H 1438.82 -5.30635 -2.94128 0
M  V30 15325 H 1437.56 -4.06565 -2.69362 0
M  V30 15326 H 1436.56 -5.43366 -0.838646 0
M  V30 15327 H 1437.79 -6.69973 -1.10964 0
M  V30 15328 H 1435.73 -5.75652 -3.14581 0
M  V30 15329 H 1435.65 -7.22427 -2.22788 0
M  V30 15330 H 1436.92 -7.01513 -3.39852 0
M  V30 15331 N 1441.15 -0.0802183 -1.57396 0
M  V30 15332 C 1442.11 0.869437 -2.12069 0
M  V30 15333 C 1443.11 1.22079 -1.04658 0
M  V30 15334 O 1444.3 1.15267 -1.3061 0
M  V30 15335 C 1441.43 2.17016 -2.62901 0
M  V30 15336 H 1442.63 0.394952 -2.97288 0
M  V30 15337 H 1440.18 0.168597 -1.55388 0
M  V30 15338 H 1440.91 2.68983 -1.8116 0
M  V30 15339 H 1440.7 1.92808 -3.4142 0
M  V30 15340 H 1442.19 2.84982 -3.05246 0
M  V30 15341 N 1442.63 1.56409 0.193394 0
M  V30 15342 C 1443.87 1.82511 0.920268 0
M  V30 15343 C 1444.23 0.657957 1.80374 0
M  V30 15344 O 1445.43 0.798914 2.56653 0
M  V30 15345 C 1443.7 3.13644 1.71354 0
M  V30 15346 S 1445.26 3.61158 2.4922 0
M  V30 15347 H 1442.08 0.64052 0.308634 0
M  V30 15348 H 1444.68 1.94637 0.183542 0
M  V30 15349 H 1443.38 3.96604 1.05514 0
M  V30 15350 H 1442.92 3.04402 2.49205 0
M  V30 15351 H 1444.93 3.26729 3.73447 0
M  V30 15352 N 1444.1 -0.461169 1.50702 0
M  V30 15353 C 1445.35 -1.20934 1.61425 0
M  V30 15354 C 1445.67 -1.92884 0.32481 0
M  V30 15355 O 1446.87 -2.69712 0.311081 0
M  V30 15356 C 1445.33 -2.19797 2.84987 0
M  V30 15357 C 1444.94 -1.53604 4.20844 0
M  V30 15358 C 1446.68 -2.95194 3.05059 0
M  V30 15359 C 1444.59 -2.50811 5.35582 0
M  V30 15360 H 1443.52 -0.455088 0.601174 0
M  V30 15361 H 1446.17 -0.478771 1.77144 0
M  V30 15362 H 1444.55 -2.96187 2.62848 0
M  V30 15363 H 1445.72 -0.829345 4.53275 0
M  V30 15364 H 1444.04 -0.904504 4.06457 0
M  V30 15365 H 1446.64 -3.67965 3.87951 0
M  V30 15366 H 1446.98 -3.5516 2.1718 0
M  V30 15367 H 1447.51 -2.25915 3.27425 0
M  V30 15368 H 1444.25 -1.9557 6.25646 0
M  V30 15369 H 1443.77 -3.19604 5.07556 0
M  V30 15370 H 1445.45 -3.12437 5.66561 0
M  V30 15371 N 1445.58 -1.40446 -0.715026 0
M  V30 15372 C 1446.83 -1.3848 -1.47199 0
M  V30 15373 C 1447.15 0.0119198 -1.94996 0
M  V30 15374 O 1446.42 0.966772 -1.70383 0
M  V30 15375 H 1445 -0.509669 -0.54612 0
M  V30 15376 H 1447.66 -1.75505 -0.847588 0
M  V30 15377 H 1446.76 -2.06002 -2.34456 0
M  V30 15378 N 1447.06 0.947303 -1.25952 0
M  V30 15379 C 1448.31 1.69279 -1.11135 0
M  V30 15380 C 1448.63 1.9139 0.346407 0
M  V30 15381 O 1447.89 1.48786 1.27126 0
M  V30 15382 C 1448.19 3.07652 -1.81892 0
M  V30 15383 C 1447.85 3.05317 -3.31802 0
M  V30 15384 C 1446.52 3.04387 -3.72695 0
M  V30 15385 C 1448.87 2.98088 -4.27543 0
M  V30 15386 C 1446.2 2.93987 -5.07729 0
M  V30 15387 C 1448.55 2.89229 -5.62609 0
M  V30 15388 C 1447.21 2.86639 -6.02822 0
M  V30 15389 H 1446.48 0.619435 -0.40667 0
M  V30 15390 H 1449.13 1.10621 -1.56318 0
M  V30 15391 H 1447.43 3.69898 -1.29161 0
M  V30 15392 H 1449.13 3.6417 -1.67873 0
M  V30 15393 H 1445.72 3.06817 -2.99268 0
M  V30 15394 H 1449.91 2.9792 -3.96935 0
M  V30 15395 H 1445.16 2.90355 -5.38056 0
M  V30 15396 H 1449.34 2.82598 -6.36483 0
M  V30 15397 H 1446.96 2.78336 -7.07413 0
M  V30 15398 N 1448.54 1.07657 1.15099 0
M  V30 15399 C 1449.79 0.800025 1.85591 0
M  V30 15400 C 1450.11 -0.675973 1.82909 0
M  V30 15401 O 1449.38 -1.48971 1.27218 0
M  V30 15402 H 1447.96 0.292958 0.687157 0
M  V30 15403 H 1450.62 1.36096 1.39513 0
M  V30 15404 H 1449.72 1.13733 2.90639 0
M  V30 15405 N 1450.02 -1.31994 0.861122 0
M  V30 15406 C 1451.26 -1.96636 0.466754 0
M  V30 15407 C 1451.59 -1.6845 -0.982328 0
M  V30 15408 O 1450.86 -0.995157 -1.68741 0
M  V30 15409 H 1449.44 -0.727489 0.169613 0
M  V30 15410 H 1452.1 -1.60962 1.09897 0
M  V30 15411 H 1451.19 -3.05937 0.61716 0
M  V30 15412 N 1451.49 -0.619688 -1.44906 0
M  V30 15413 C 1452.44 0.104373 -2.32366 0
M  V30 15414 C 1453.44 0.847423 -1.4668 0
M  V30 15415 O 1454.64 0.761618 -1.63093 0
M  V30 15416 H 1451.02 0.0525126 -0.750164 0
M  V30 15417 H 1452.99 -0.651525 -2.912 0
M  V30 15418 C 1451.74 1.08017 -3.30496 0
M  V30 15419 H 1451.06 0.517831 -3.96432 0
M  V30 15420 H 1452.5 1.5565 -3.94397 0
M  V30 15421 C 1450.96 2.15975 -2.58566 0
M  V30 15422 O 1451.49 3.23895 -2.37603 0
M  V30 15423 N 1449.7 1.91593 -2.18496 0
M  V30 15424 H 1449.24 1.03835 -2.35746 0
M  V30 15425 H 1449.2 2.64028 -1.70694 0
M  V30 15426 N 1452.97 1.53444 -0.359552 0
M  V30 15427 C 1453.9 2.28475 0.4818 0
M  V30 15428 C 1454.88 1.30664 1.08908 0
M  V30 15429 O 1456.07 1.59527 1.10746 0
M  V30 15430 C 1453.2 3.06951 1.62477 0
M  V30 15431 C 1452.15 4.12399 1.14504 0
M  V30 15432 C 1451.48 4.78922 2.37777 0
M  V30 15433 C 1452.78 5.21775 0.234075 0
M  V30 15434 H 1454.47 2.99053 -0.144162 0
M  V30 15435 H 1452.02 1.43826 -0.0707746 0
M  V30 15436 H 1453.97 3.58186 2.21993 0
M  V30 15437 H 1452.7 2.34053 2.27787 0
M  V30 15438 H 1451.35 3.62101 0.572589 0
M  V30 15439 H 1451 4.02602 3.0153 0
M  V30 15440 H 1450.7 5.50175 2.06353 0
M  V30 15441 H 1452.23 5.32948 2.97991 0
M  V30 15442 H 1453.64 5.68549 0.736548 0
M  V30 15443 H 1452.04 6.00099 0.0109887 0
M  V30 15444 H 1453.11 4.79443 -0.725435 0
M  V30 15445 N 1454.45 0.0885642 1.57351 0
M  V30 15446 C 1455.7 -0.57753 1.94403 0
M  V30 15447 C 1456.03 -1.68238 0.970029 0
M  V30 15448 O 1455.3 -1.945 0.00198684 0
M  V30 15449 C 1455.59 -1.13882 3.41618 0
M  V30 15450 C 1455.44 -0.0394686 4.49783 0
M  V30 15451 C 1456.76 -2.03922 3.90005 0
M  V30 15452 H 1453.88 -0.208468 0.706902 0
M  V30 15453 H 1456.52 0.157945 1.89342 0
M  V30 15454 H 1454.67 -1.76561 3.46061 0
M  V30 15455 H 1456.34 0.594458 4.57454 0
M  V30 15456 H 1454.59 0.627775 4.29234 0
M  V30 15457 H 1455.26 -0.472897 5.49971 0
M  V30 15458 H 1457.73 -1.51156 3.87674 0
M  V30 15459 H 1456.61 -2.40123 4.93591 0
M  V30 15460 H 1456.87 -2.95407 3.28918 0
M  V30 15461 N 1455.93 -1.56509 -0.185096 0
M  V30 15462 C 1457.15 -1.85683 -0.923941 0
M  V30 15463 C 1457.58 -0.673315 -1.75636 0
M  V30 15464 O 1456.94 0.3778 -1.7732 0
M  V30 15465 C 1456.98 -3.13165 -1.78774 0
M  V30 15466 O 1456.09 -2.9442 -2.88775 0
M  V30 15467 H 1455.43 -0.611139 -0.259624 0
M  V30 15468 H 1457.96 -2.0374 -0.187393 0
M  V30 15469 H 1457.97 -3.44216 -2.19042 0
M  V30 15470 H 1456.64 -3.98922 -1.17619 0
M  V30 15471 H 1455.22 -2.7469 -2.5219 0
M  V30 15472 N 1457.41 0.45317 -1.50944 0
M  V30 15473 C 1458.66 1.20076 -1.62064 0
M  V30 15474 C 1458.97 1.92709 -0.335034 0
M  V30 15475 O 1460.17 2.69543 -0.32538 0
M  V30 15476 C 1458.63 2.18283 -2.86148 0
M  V30 15477 C 1458.24 1.5137 -4.21653 0
M  V30 15478 C 1459.98 2.93572 -3.0662 0
M  V30 15479 C 1457.89 2.47968 -5.36904 0
M  V30 15480 H 1456.82 0.451894 -0.603579 0
M  V30 15481 H 1459.47 0.46937 -1.77396 0
M  V30 15482 H 1457.85 2.94789 -2.64415 0
M  V30 15483 H 1459.03 0.805295 -4.53709 0
M  V30 15484 H 1457.34 0.882935 -4.06931 0
M  V30 15485 H 1459.94 3.65903 -3.89897 0
M  V30 15486 H 1460.28 3.54003 -2.1906 0
M  V30 15487 H 1460.81 2.24175 -3.28619 0
M  V30 15488 H 1457.55 1.92249 -6.26674 0
M  V30 15489 H 1457.07 3.16907 -5.09244 0
M  V30 15490 H 1458.75 3.09428 -5.6821 0
M  V30 15491 N 1458.88 1.40823 0.707568 0
M  V30 15492 C 1459.82 1.37646 1.83265 0
M  V30 15493 C 1460.83 0.280547 1.60365 0
M  V30 15494 O 1462.02 0.541453 1.7009 0
M  V30 15495 C 1459.12 1.12121 3.19816 0
M  V30 15496 C 1458.29 2.33522 3.69846 0
M  V30 15497 C 1457.35 2.04035 4.85032 0
M  V30 15498 O 1456.38 2.76971 4.97268 0
M  V30 15499 N 1457.58 1.02322 5.71411 0
M  V30 15500 H 1460.34 2.34612 1.86486 0
M  V30 15501 H 1457.9 1.35281 0.889424 0
M  V30 15502 H 1459.9 0.903663 3.94482 0
M  V30 15503 H 1458.47 0.237941 3.11693 0
M  V30 15504 H 1457.69 2.71055 2.86221 0
M  V30 15505 H 1458.97 3.14436 4.00009 0
M  V30 15506 H 1458.37 0.419311 5.64144 0
M  V30 15507 H 1456.93 0.865571 6.46027 0
M  V30 15508 N 1460.36 -0.94061 1.26453 0
M  V30 15509 C 1461.31 -2.06073 1.07873 0
M  V30 15510 C 1462.3 -1.69399 0.0055001 0
M  V30 15511 O 1463.51 -1.79267 0.162224 0
M  V30 15512 H 1459.89 -0.674748 0.331993 0
M  V30 15513 H 1461.86 -2.18895 2.02799 0
M  V30 15514 C 1460.61 -3.39971 0.729054 0
M  V30 15515 H 1459.93 -3.68667 1.54675 0
M  V30 15516 H 1461.37 -4.1916 0.638844 0
M  V30 15517 C 1459.83 -3.32114 -0.565835 0
M  V30 15518 O 1460.36 -3.68287 -1.60399 0
M  V30 15519 N 1458.56 -2.85218 -0.556679 0
M  V30 15520 H 1458.11 -2.55979 0.288541 0
M  V30 15521 H 1458.07 -2.80344 -1.42318 0
M  V30 15522 N 1461.84 -1.08266 -1.14527 0
M  V30 15523 C 1462.75 -0.723043 -2.2318 0
M  V30 15524 C 1463.77 0.269819 -1.71895 0
M  V30 15525 O 1464.94 0.114126 -2.01076 0
M  V30 15526 C 1462.01 -0.136229 -3.46432 0
M  V30 15527 C 1461.07 -1.18352 -4.12664 0
M  V30 15528 C 1460.3 -0.624612 -5.30032 0
M  V30 15529 O 1460.52 0.556377 -5.6768 0
M  V30 15530 O 1459.46 -1.37397 -5.86008 0
M  V30 15531 H 1463.28 -1.6294 -2.56289 0
M  V30 15532 H 1460.87 -0.856235 -1.22429 0
M  V30 15533 H 1462.75 0.18829 -4.20979 0
M  V30 15534 H 1461.43 0.74331 -3.1505 0
M  V30 15535 H 1460.33 -1.56054 -3.39997 0
M  V30 15536 H 1461.67 -2.03528 -4.48148 0
M  V30 15537 N 1463.32 1.31536 -0.86811 0
M  V30 15538 C 1464.27 2.28562 -0.320602 0
M  V30 15539 C 1465.24 1.55648 0.579902 0
M  V30 15540 O 1466.42 1.83804 0.51194 0
M  V30 15541 C 1463.56 3.41836 0.473499 0
M  V30 15542 C 1462.67 4.29604 -0.454311 0
M  V30 15543 C 1461.81 5.30021 0.353733 0
M  V30 15544 C 1460.85 6.09434 -0.570624 0
M  V30 15545 N 1459.99 7.01812 0.201058 0
M  V30 15546 H 1464.83 2.74782 -1.15322 0
M  V30 15547 H 1462.36 1.35179 -0.580088 0
M  V30 15548 H 1464.32 4.06248 0.949662 0
M  V30 15549 H 1462.95 2.96732 1.27083 0
M  V30 15550 H 1462 3.65653 -1.04892 0
M  V30 15551 H 1463.31 4.85048 -1.16316 0
M  V30 15552 H 1462.47 6.001 0.892484 0
M  V30 15553 H 1461.21 4.75228 1.09589 0
M  V30 15554 H 1460.21 5.38247 -1.12115 0
M  V30 15555 H 1461.44 6.66314 -1.3116 0
M  V30 15556 H 1459.38 6.49431 0.926058 0
M  V30 15557 H 1459.3 7.54668 -0.448494 0
M  V30 15558 H 1460.57 7.76157 0.7211 0
M  V30 15559 N 1464.8 0.627364 1.44575 0
M  V30 15560 C 1465.71 -0.0811184 2.3446 0
M  V30 15561 C 1466.72 -0.839668 1.52399 0
M  V30 15562 O 1467.9 -0.792784 1.8514 0
M  V30 15563 C 1464.96 -1.05296 3.30323 0
M  V30 15564 C 1464.03 -0.294201 4.28291 0
M  V30 15565 C 1463.26 -1.21975 5.19575 0
M  V30 15566 O 1463.48 -2.45834 5.14706 0
M  V30 15567 O 1462.42 -0.70611 5.97744 0
M  V30 15568 H 1466.24 0.658067 2.96485 0
M  V30 15569 H 1463.83 0.387565 1.44285 0
M  V30 15570 H 1465.71 -1.61218 3.89341 0
M  V30 15571 H 1464.38 -1.77283 2.70837 0
M  V30 15572 H 1463.29 0.307969 3.7283 0
M  V30 15573 H 1464.62 0.385567 4.90687 0
M  V30 15574 N 1466.28 -1.53251 0.367684 0
M  V30 15575 C 1467.21 -2.23396 -0.512539 0
M  V30 15576 C 1468.22 -1.2488 -1.04446 0
M  V30 15577 O 1469.41 -1.5109 -0.950477 0
M  V30 15578 C 1466.51 -2.91971 -1.72064 0
M  V30 15579 C 1465.68 -4.17011 -1.31986 0
M  V30 15580 C 1464.74 -4.68779 -2.39025 0
M  V30 15581 O 1463.77 -5.32405 -2.01328 0
M  V30 15582 N 1464.97 -4.46773 -3.7064 0
M  V30 15583 H 1467.73 -2.9957 0.0883152 0
M  V30 15584 H 1465.3 -1.60746 0.192966 0
M  V30 15585 H 1467.29 -3.23511 -2.43152 0
M  V30 15586 H 1465.86 -2.19237 -2.22831 0
M  V30 15587 H 1465.08 -3.91751 -0.438732 0
M  V30 15588 H 1466.37 -4.98298 -1.02842 0
M  V30 15589 H 1465.76 -3.95938 -4.04042 0
M  V30 15590 H 1464.32 -4.82857 -4.37827 0
M  V30 15591 N 1467.75 -0.0969077 -1.57302 0
M  V30 15592 C 1468.72 0.846895 -2.1298 0
M  V30 15593 C 1469.72 1.20962 -1.05947 0
M  V30 15594 O 1470.91 1.13876 -1.31826 0
M  V30 15595 C 1468.04 2.14215 -2.65188 0
M  V30 15596 H 1469.23 0.363398 -2.9769 0
M  V30 15597 H 1466.78 0.152107 -1.55558 0
M  V30 15598 H 1467.52 2.67046 -1.84002 0
M  V30 15599 H 1467.3 1.89176 -3.43445 0
M  V30 15600 H 1468.79 2.81728 -3.08252 0
M  V30 15601 N 1469.23 1.56605 0.176793 0
M  V30 15602 C 1470.48 1.81682 0.894302 0
M  V30 15603 C 1470.81 0.67311 1.82481 0
M  V30 15604 O 1470.06 -0.339995 1.92724 0
M  V30 15605 C 1470.36 3.12888 1.7273 0
M  V30 15606 C 1470.03 4.40861 0.946186 0
M  V30 15607 C 1468.69 4.75622 0.730586 0
M  V30 15608 C 1471.04 5.19679 0.397889 0
M  V30 15609 C 1468.37 5.86683 -0.0444995 0
M  V30 15610 C 1470.72 6.31551 -0.36408 0
M  V30 15611 C 1469.38 6.64883 -0.59053 0
M  V30 15612 H 1468.65 0.664823 0.327248 0
M  V30 15613 H 1471.3 1.90834 0.159555 0
M  V30 15614 H 1469.61 2.99055 2.53128 0
M  V30 15615 H 1471.3 3.295 2.2854 0
M  V30 15616 H 1467.89 4.13592 1.12426 0
M  V30 15617 H 1472.08 4.93223 0.55181 0
M  V30 15618 H 1467.33 6.10968 -0.229739 0
M  V30 15619 H 1471.51 6.91833 -0.796223 0
M  V30 15620 H 1469.13 7.50781 -1.19301 0
M  V30 15621 N 1470.71 -0.445159 1.51182 0
M  V30 15622 C 1471.64 -1.5473 1.74874 0
M  V30 15623 C 1472.62 -1.5923 0.598323 0
M  V30 15624 O 1473.81 -1.75083 0.840219 0
M  V30 15625 C 1470.94 -2.92872 1.86664 0
M  V30 15626 C 1469.89 -3.03235 3.02048 0
M  V30 15627 C 1469.22 -4.43279 2.99012 0
M  V30 15628 C 1470.52 -2.7804 4.42144 0
M  V30 15629 H 1472.21 -1.35156 2.67158 0
M  V30 15630 H 1469.76 -0.648763 1.28558 0
M  V30 15631 H 1471.71 -3.69927 2.01822 0
M  V30 15632 H 1470.43 -3.1366 0.910225 0
M  V30 15633 H 1469.09 -2.28617 2.86583 0
M  V30 15634 H 1468.74 -4.61023 2.01163 0
M  V30 15635 H 1468.44 -4.51144 3.76488 0
M  V30 15636 H 1469.96 -5.22319 3.16252 0
M  V30 15637 H 1471.38 -3.44831 4.58 0
M  V30 15638 H 1469.77 -2.97323 5.21267 0
M  V30 15639 H 1470.84 -1.737 4.52721 0
M  V30 15640 N 1472.19 -1.41197 -0.700089 0
M  V30 15641 C 1473.42 -1.43658 -1.48896 0
M  V30 15642 C 1473.83 -0.0405771 -1.88756 0
M  V30 15643 O 1473.19 0.93909 -1.56484 0
M  V30 15644 C 1473.24 -2.34125 -2.75441 0
M  V30 15645 O 1472.96 -3.68291 -2.37261 0
M  V30 15646 C 1474.46 -2.45342 -3.69218 0
M  V30 15647 H 1471.68 -0.48945 -0.458999 0
M  V30 15648 H 1474.22 -1.85429 -0.862345 0
M  V30 15649 H 1472.38 -1.95674 -3.34351 0
M  V30 15650 H 1472.79 -4.16495 -3.18798 0
M  V30 15651 H 1474.27 -3.12818 -4.54807 0
M  V30 15652 H 1474.74 -1.48327 -4.13395 0
M  V30 15653 H 1475.35 -2.84409 -3.16214 0
M  V30 15654 N 1473.67 0.933891 -1.2695 0
M  V30 15655 C 1474.9 1.71263 -1.15553 0
M  V30 15656 C 1475.3 1.86948 0.291059 0
M  V30 15657 O 1474.65 1.38173 1.21053 0
M  V30 15658 C 1474.71 3.13479 -1.75986 0
M  V30 15659 C 1474.37 3.21154 -3.2513 0
M  V30 15660 C 1475.37 3.03874 -4.21849 0
M  V30 15661 C 1473.05 3.44311 -3.65726 0
M  V30 15662 C 1475.05 3.09631 -5.57142 0
M  V30 15663 C 1472.74 3.49702 -5.01151 0
M  V30 15664 C 1473.73 3.32379 -5.96668 0
M  V30 15665 O 1473.42 3.37493 -7.29626 0
M  V30 15666 H 1473.15 0.542801 -0.402918 0
M  V30 15667 H 1475.71 1.17877 -1.68209 0
M  V30 15668 H 1473.94 3.6832 -1.178 0
M  V30 15669 H 1475.63 3.73295 -1.59391 0
M  V30 15670 H 1476.39 2.85832 -3.91823 0
M  V30 15671 H 1472.27 3.56847 -2.91859 0
M  V30 15672 H 1475.82 2.96028 -6.31675 0
M  V30 15673 H 1471.71 3.67267 -5.30835 0
M  V30 15674 H 1472.48 3.53988 -7.37994 0
M  V30 15675 N 1475.14 1.08871 1.13951 0
M  V30 15676 C 1476.09 0.692507 2.17229 0
M  V30 15677 C 1477.08 -0.290264 1.5826 0
M  V30 15678 O 1478.27 -0.101531 1.76709 0
M  V30 15679 C 1475.4 0.108487 3.43129 0
M  V30 15680 C 1474.48 1.11733 4.09117 0
M  V30 15681 N 1474.88 2.30244 4.50357 0
M  V30 15682 C 1473.17 0.954172 4.35674 0
M  V30 15683 C 1473.87 2.94373 5.01716 0
M  V30 15684 N 1472.85 2.2196 4.96221 0
M  V30 15685 H 1476.65 1.59489 2.46861 0
M  V30 15686 H 1474.17 0.964113 1.30685 0
M  V30 15687 H 1476.16 -0.193345 4.16451 0
M  V30 15688 H 1474.82 -0.78882 3.14973 0
M  V30 15689 H 1475.83 2.67871 4.43244 0
M  V30 15690 H 1472.51 0.111069 4.17352 0
M  V30 15691 H 1473.9 3.95089 5.43465 0
M  V30 15692 N 1476.62 -1.31073 0.875073 0
M  V30 15693 C 1477.55 -2.26485 0.279215 0
M  V30 15694 C 1478.53 -1.5134 -0.594556 0
M  V30 15695 O 1479.72 -1.80393 -0.546849 0
M  V30 15696 C 1476.84 -3.33268 -0.604165 0
M  V30 15697 C 1475.89 -4.26036 0.198944 0
M  V30 15698 S 1476.72 -5.11636 1.58079 0
M  V30 15699 C 1477.88 -6.21932 0.703665 0
M  V30 15700 H 1478.11 -2.76677 1.088 0
M  V30 15701 H 1475.64 -1.38917 0.673898 0
M  V30 15702 H 1477.6 -3.9526 -1.10813 0
M  V30 15703 H 1476.26 -2.8182 -1.38694 0
M  V30 15704 H 1475.46 -5.01759 -0.474755 0
M  V30 15705 H 1475.06 -3.68567 0.635185 0
M  V30 15706 H 1477.35 -6.77448 -0.0835828 0
M  V30 15707 H 1478.29 -6.93465 1.43219 0
M  V30 15708 H 1478.7 -5.63859 0.268954 0
M  V30 15709 N 1478.1 -0.635022 -1.4424 0
M  V30 15710 C 1479.05 0.0675707 -2.30701 0
M  V30 15711 C 1480.02 0.832919 -1.43707 0
M  V30 15712 O 1481.2 0.813177 -1.72604 0
M  V30 15713 C 1478.34 1.04053 -3.2904 0
M  V30 15714 C 1477.46 0.273191 -4.31135 0
M  V30 15715 C 1476.59 1.23831 -5.16565 0
M  V30 15716 C 1475.63 0.460359 -6.10366 0
M  V30 15717 N 1474.77 1.37614 -6.88481 0
M  V30 15718 H 1479.61 -0.675656 -2.90239 0
M  V30 15719 H 1477.14 -0.344971 -1.42998 0
M  V30 15720 H 1479.1 1.61805 -3.84545 0
M  V30 15721 H 1477.73 1.75084 -2.71193 0
M  V30 15722 H 1476.78 -0.420315 -3.78071 0
M  V30 15723 H 1478.1 -0.332548 -4.9769 0
M  V30 15724 H 1477.25 1.88704 -5.76607 0
M  V30 15725 H 1475.99 1.87797 -4.50093 0
M  V30 15726 H 1474.99 -0.201836 -5.49429 0
M  V30 15727 H 1476.22 -0.174639 -6.78875 0
M  V30 15728 H 1474.16 2.00294 -6.24675 0
M  V30 15729 H 1474.08 0.82452 -7.5149 0
M  V30 15730 H 1475.35 2.01359 -7.53044 0
M  V30 15731 N 1479.58 1.53054 -0.375806 0
M  V30 15732 C 1480.86 1.93761 0.26757 0
M  V30 15733 C 1481.24 1.31019 1.65521 0
M  V30 15734 O 1480.58 0.473138 2.23548 0
M  V30 15735 C 1480.79 3.47643 0.307505 0
M  V30 15736 C 1482.14 4.21114 0.542951 0
M  V30 15737 O 1483.17 3.54077 0.388285 0
M  V30 15738 O 1482.02 5.39929 0.8449 0
M  V30 15739 H 1479.12 0.810805 0.16286 0
M  V30 15740 H 1481.66 1.64179 -0.429334 0
M  V30 15741 H 1480.44 3.85608 -0.665001 0
M  V30 15742 H 1480.06 3.83488 1.04988 0
M  V30 15743 N 1481.06 0.105248 1.57248 0
M  V30 15744 C 1482.28 -0.567515 1.99484 0
M  V30 15745 C 1482.71 -1.60298 0.984182 0
M  V30 15746 O 1482.06 -1.81242 -0.0459944 0
M  V30 15747 C 1482.11 -1.18271 3.40653 0
M  V30 15748 O 1481.22 -2.29843 3.42412 0
M  V30 15749 H 1480.56 -0.143069 0.648404 0
M  V30 15750 H 1483.09 0.189661 2.03719 0
M  V30 15751 H 1483.1 -1.52157 3.78566 0
M  V30 15752 H 1481.77 -0.424179 4.13731 0
M  V30 15753 H 1480.35 -1.975 3.16304 0
M  V30 15754 N 1482.53 -1.56697 -0.168486 0
M  V30 15755 C 1483.76 -1.86292 -0.900152 0
M  V30 15756 C 1484.18 -0.690968 -1.75702 0
M  V30 15757 O 1483.53 0.339855 -1.79308 0
M  V30 15758 C 1483.59 -3.14946 -1.77457 0
M  V30 15759 O 1483.31 -4.27625 -0.952267 0
M  V30 15760 C 1484.81 -3.57908 -2.61566 0
M  V30 15761 H 1482.03 -0.618003 -0.261369 0
M  V30 15762 H 1484.57 -2.03811 -0.16773 0
M  V30 15763 H 1482.73 -2.99246 -2.4603 0
M  V30 15764 H 1483.14 -5.01057 -1.55056 0
M  V30 15765 H 1484.61 -4.50823 -3.18532 0
M  V30 15766 H 1485.09 -2.82162 -3.36573 0
M  V30 15767 H 1485.7 -3.7623 -1.98321 0
M  V30 15768 N 1484.01 0.437135 -1.51416 0
M  V30 15769 C 1485.26 1.18655 -1.64095 0
M  V30 15770 C 1485.59 1.9119 -0.35728 0
M  V30 15771 O 1484.84 1.84283 0.658644 0
M  V30 15772 C 1485.14 2.22795 -2.79458 0
M  V30 15773 C 1484.81 1.67271 -4.18726 0
M  V30 15774 C 1483.47 1.51852 -4.56612 0
M  V30 15775 C 1485.82 1.26448 -5.05629 0
M  V30 15776 C 1483.15 0.940834 -5.79107 0
M  V30 15777 C 1485.5 0.701095 -6.28703 0
M  V30 15778 C 1484.17 0.533801 -6.65362 0
M  V30 15779 H 1483.44 0.434191 -0.600466 0
M  V30 15780 H 1486.08 0.477592 -1.85449 0
M  V30 15781 H 1484.39 2.99731 -2.52327 0
M  V30 15782 H 1486.08 2.80602 -2.86467 0
M  V30 15783 H 1482.67 1.80249 -3.88855 0
M  V30 15784 H 1486.86 1.37182 -4.76964 0
M  V30 15785 H 1482.11 0.798982 -6.06157 0
M  V30 15786 H 1486.29 0.37626 -6.95383 0
M  V30 15787 H 1483.92 0.0840431 -7.60154 0
M  V30 15788 N 1485.49 1.41566 0.692592 0
M  V30 15789 C 1486.72 1.44646 1.48635 0
M  V30 15790 C 1487.14 0.0541597 1.88022 0
M  V30 15791 O 1486.5 -0.943305 1.54827 0
M  V30 15792 C 1486.55 2.3636 2.72335 0
M  V30 15793 O 1485.65 1.8227 3.69934 0
M  V30 15794 H 1484.99 0.490791 0.447236 0
M  V30 15795 H 1487.52 1.8606 0.851056 0
M  V30 15796 H 1487.53 2.52337 3.20609 0
M  V30 15797 H 1486.21 3.37523 2.43004 0
M  V30 15798 H 1484.78 1.75759 3.28882 0
M  V30 15799 N 1486.97 -0.927146 1.27443 0
M  V30 15800 C 1487.93 -2.00938 1.10257 0
M  V30 15801 C 1488.93 -1.60733 0.0463898 0
M  V30 15802 O 1490.12 -1.71752 0.291029 0
M  V30 15803 C 1487.25 -3.34047 0.680115 0
M  V30 15804 H 1488.45 -2.17615 2.06358 0
M  V30 15805 H 1486 -1.10802 1.10239 0
M  V30 15806 H 1486.73 -3.23069 -0.282259 0
M  V30 15807 H 1486.52 -3.64585 1.44291 0
M  V30 15808 H 1488.01 -4.13523 0.582126 0
M  V30 15809 N 1488.45 -1.09474 -1.13372 0
M  V30 15810 C 1489.69 -0.842198 -1.85145 0
M  V30 15811 C 1490.05 0.625443 -1.8195 0
M  V30 15812 O 1489.34 1.45464 -1.24703 0
M  V30 15813 C 1489.53 -1.31208 -3.32444 0
M  V30 15814 C 1489.36 -2.82387 -3.49983 0
M  V30 15815 C 1488.13 -3.5027 -3.64196 0
M  V30 15816 C 1490.33 -3.80526 -3.45983 0
M  V30 15817 N 1488.31 -4.8987 -3.70001 0
M  V30 15818 C 1489.68 -5.06082 -3.58163 0
M  V30 15819 C 1491.74 -3.73375 -3.29387 0
M  V30 15820 C 1490.44 -6.25332 -3.55461 0
M  V30 15821 C 1492.47 -4.92113 -3.27993 0
M  V30 15822 C 1491.83 -6.16512 -3.40724 0
M  V30 15823 H 1487.93 -0.361049 -0.693663 0
M  V30 15824 H 1490.51 -1.39521 -1.35801 0
M  V30 15825 H 1488.68 -0.786508 -3.80353 0
M  V30 15826 H 1490.42 -1.00481 -3.92028 0
M  V30 15827 H 1487.17 -3.007 -3.65891 0
M  V30 15828 H 1487.6 -5.6259 -3.76593 0
M  V30 15829 H 1492.24 -2.78123 -3.18446 0
M  V30 15830 H 1489.96 -7.20883 -3.65175 0
M  V30 15831 H 1493.54 -4.88278 -3.16348 0
M  V30 15832 H 1492.42 -7.0685 -3.39607 0
M  V30 15833 N 1489.92 1.30607 -0.882012 0
M  V30 15834 C 1491.15 2.00418 -0.513815 0
M  V30 15835 C 1491.57 1.66135 0.896916 0
M  V30 15836 O 1490.92 0.89691 1.5894 0
M  V30 15837 C 1490.98 3.55133 -0.675503 0
M  V30 15838 O 1490.7 3.88194 -2.03069 0
M  V30 15839 C 1492.2 4.42215 -0.309906 0
M  V30 15840 H 1489.42 0.640839 -0.198913 0
M  V30 15841 H 1491.96 1.66561 -1.1865 0
M  V30 15842 H 1490.12 3.87367 -0.0502289 0
M  V30 15843 H 1490.53 4.82899 -2.04717 0
M  V30 15844 H 1492 5.49962 -0.473948 0
M  V30 15845 H 1492.48 4.32717 0.751852 0
M  V30 15846 H 1493.09 4.1542 -0.91138 0
M  V30 15847 N 1491.4 0.642663 1.43901 0
M  V30 15848 C 1492.65 0.151478 2.01532 0
M  V30 15849 C 1492.97 -1.23519 1.50891 0
M  V30 15850 O 1492.24 -1.82299 0.717197 0
M  V30 15851 H 1490.82 0.0530091 0.745117 0
M  V30 15852 H 1493.48 0.831958 1.76251 0
M  V30 15853 H 1492.58 0.127995 3.11837 0
M  V30 15854 N 1492.88 -1.52852 0.383918 0
M  V30 15855 C 1493.81 -2.29213 -0.44539 0
M  V30 15856 C 1494.79 -1.3238 -1.06815 0
M  V30 15857 O 1495.98 -1.61269 -1.08194 0
M  V30 15858 C 1493.11 -3.09497 -1.57573 0
M  V30 15859 C 1492.06 -4.14168 -1.07928 0
M  V30 15860 C 1491.39 -4.82644 -2.30128 0
M  V30 15861 C 1492.69 -5.22082 -0.151035 0
M  V30 15862 H 1494.38 -2.98786 0.19172 0
M  V30 15863 H 1491.93 -1.43695 0.0936471 0
M  V30 15864 H 1493.88 -3.61672 -2.16267 0
M  V30 15865 H 1492.6 -2.37647 -2.24034 0
M  V30 15866 H 1491.26 -3.62966 -0.514909 0
M  V30 15867 H 1490.91 -4.07348 -2.95087 0
M  V30 15868 H 1490.61 -5.53388 -1.97574 0
M  V30 15869 H 1492.14 -5.37621 -2.89475 0
M  V30 15870 H 1493.55 -5.69649 -0.646003 0
M  V30 15871 H 1491.95 -6.00041 0.0844833 0
M  V30 15872 H 1493.02 -4.78228 0.801618 0
M  V30 15873 N 1494.36 -0.113586 -1.5719 0
M  V30 15874 C 1495.31 0.855985 -2.16277 0
M  V30 15875 C 1496.3 1.2792 -1.11053 0
M  V30 15876 O 1497.51 1.25158 -1.29366 0
M  V30 15877 H 1493.88 0.294134 -0.692091 0
M  V30 15878 H 1495.85 0.333109 -2.96535 0
M  V30 15879 C 1494.6 2.09832 -2.77247 0
M  V30 15880 H 1493.93 1.78158 -3.5791 0
M  V30 15881 H 1495.37 2.7569 -3.22135 0
M  V30 15882 C 1493.82 2.88453 -1.74059 0
M  V30 15883 O 1494.35 3.83648 -1.19068 0
M  V30 15884 N 1492.56 2.52342 -1.44124 0
M  V30 15885 H 1492.11 1.74998 -1.89033 0
M  V30 15886 H 1492.07 3.05244 -0.753234 0
M  V30 15887 N 1495.84 1.56784 0.160173 0
M  V30 15888 C 1497.11 1.73513 0.902908 0
M  V30 15889 C 1497.49 0.678036 1.99915 0
M  V30 15890 O 1496.84 -0.305302 2.26451 0
M  V30 15891 C 1497.05 3.17111 1.45744 0
M  V30 15892 C 1498.4 3.78404 1.92602 0
M  V30 15893 O 1499.42 3.20459 1.55515 0
M  V30 15894 O 1498.28 4.80172 2.60954 0
M  V30 15895 H 1495.38 0.708981 0.425764 0
M  V30 15896 H 1497.92 1.69061 0.147129 0
M  V30 15897 H 1496.7 3.85539 0.668985 0
M  V30 15898 H 1496.32 3.25936 2.2771 0
M  V30 15899 N 1497.32 -0.429099 1.51646 0
M  V30 15900 C 1498.56 -1.17958 1.64966 0
M  V30 15901 C 1498.89 -1.90667 0.368755 0
M  V30 15902 O 1498.17 -1.83945 -0.632023 0
M  V30 15903 C 1498.45 -2.19002 2.8585 0
M  V30 15904 C 1498.31 -1.50321 4.23938 0
M  V30 15905 C 1499.62 -3.19895 3.0225 0
M  V30 15906 H 1496.74 -0.427474 0.600362 0
M  V30 15907 H 1499.39 -0.46777 1.84152 0
M  V30 15908 H 1497.54 -2.79707 2.69623 0
M  V30 15909 H 1499.21 -0.928902 4.51851 0
M  V30 15910 H 1497.45 -0.805431 4.26257 0
M  V30 15911 H 1498.12 -2.2395 5.0453 0
M  V30 15912 H 1500.6 -2.69251 3.17243 0
M  V30 15913 H 1499.47 -3.8788 3.88381 0
M  V30 15914 H 1499.73 -3.86477 2.14682 0
M  V30 15915 N 1498.79 -1.41931 -0.685074 0
M  V30 15916 C 1499.74 -1.44824 -1.82013 0
M  V30 15917 C 1500.74 -0.325083 -1.66252 0
M  V30 15918 O 1501.94 -0.497614 -1.72985 0
M  V30 15919 H 1498.32 -0.453362 -0.599972 0
M  V30 15920 H 1500.29 -2.40464 -1.76691 0
M  V30 15921 C 1499.04 -1.35753 -3.20104 0
M  V30 15922 H 1498.36 -2.21469 -3.32854 0
M  V30 15923 H 1499.8 -1.41838 -3.99572 0
M  V30 15924 C 1498.26 -0.0710816 -3.36825 0
M  V30 15925 O 1498.79 0.880155 -3.91939 0
M  V30 15926 N 1496.99 0.00842652 -2.90599 0
M  V30 15927 H 1496.54 -0.766427 -2.45934 0
M  V30 15928 H 1496.5 0.868559 -3.02165 0
M  V30 15929 N 1500.27 0.920374 -1.27933 0
M  V30 15930 C 1501.5 1.70804 -1.17647 0
M  V30 15931 C 1501.92 1.86264 0.262189 0
M  V30 15932 O 1501.28 1.36798 1.18979 0
M  V30 15933 C 1501.33 3.08142 -1.87298 0
M  V30 15934 O 1500.43 3.95279 -1.17593 0
M  V30 15935 H 1499.77 0.523267 -0.408763 0
M  V30 15936 H 1502.3 1.15127 -1.69136 0
M  V30 15937 H 1502.31 3.58414 -1.94945 0
M  V30 15938 H 1500.99 2.96208 -2.91948 0
M  V30 15939 H 1499.56 3.53716 -1.18065 0
M  V30 15940 N 1501.75 1.10074 1.1279 0
M  V30 15941 C 1502.66 0.758458 2.22001 0
M  V30 15942 C 1503.68 -0.242438 1.72303 0
M  V30 15943 O 1504.85 -0.0821223 2.01233 0
M  V30 15944 C 1501.92 0.191326 3.46172 0
M  V30 15945 C 1500.98 1.24902 4.10729 0
M  V30 15946 C 1500.21 0.708857 5.28972 0
M  V30 15947 O 1500.43 -0.465993 5.68493 0
M  V30 15948 O 1499.37 1.46703 5.83748 0
M  V30 15949 H 1503.19 1.66997 2.53665 0
M  V30 15950 H 1500.78 0.875604 1.21052 0
M  V30 15951 H 1502.66 -0.121292 4.21225 0
M  V30 15952 H 1501.34 -0.693094 3.16193 0
M  V30 15953 H 1500.24 1.61444 3.37471 0
M  V30 15954 H 1501.58 2.10632 4.44854 0
M  V30 15955 N 1503.23 -1.30138 0.888926 0
M  V30 15956 C 1504.18 -2.25598 0.33005 0
M  V30 15957 C 1505.16 -1.51434 -0.543751 0
M  V30 15958 O 1506.35 -1.72706 -0.387529 0
M  V30 15959 C 1503.48 -3.40326 -0.450925 0
M  V30 15960 C 1502.57 -4.21841 0.437187 0
M  V30 15961 N 1502.96 -4.81803 1.53947 0
M  V30 15962 C 1501.26 -4.45391 0.233015 0
M  V30 15963 C 1501.96 -5.42907 2.0887 0
M  V30 15964 N 1500.93 -5.25709 1.38314 0
M  V30 15965 H 1504.74 -2.6951 1.17224 0
M  V30 15966 H 1502.25 -1.44623 0.738771 0
M  V30 15967 H 1504.25 -4.07764 -0.867971 0
M  V30 15968 H 1502.91 -2.97953 -1.2905 0
M  V30 15969 H 1503.92 -4.80904 1.92229 0
M  V30 15970 H 1500.6 -4.13603 -0.569074 0
M  V30 15971 H 1501.99 -6.00478 3.01457 0
M  V30 15972 N 1504.71 -0.650285 -1.43559 0
M  V30 15973 C 1505.93 -0.170139 -2.06199 0
M  V30 15974 C 1506.35 1.16304 -1.48724 0
M  V30 15975 O 1505.71 1.71739 -0.617418 0
M  V30 15976 C 1505.76 -0.0698577 -3.61432 0
M  V30 15977 O 1505.48 -1.35033 -4.16771 0
M  V30 15978 C 1506.98 0.436714 -4.41144 0
M  V30 15979 H 1504.2 -0.0885316 -0.665134 0
M  V30 15980 H 1506.74 -0.890104 -1.84112 0
M  V30 15981 H 1504.9 0.60065 -3.82715 0
M  V30 15982 H 1505.31 -1.20762 -5.10409 0
M  V30 15983 H 1506.79 0.455843 -5.50115 0
M  V30 15984 H 1507.26 1.46747 -4.13959 0
M  V30 15985 H 1507.87 -0.201201 -4.24824 0
M  V30 15986 N 1506.18 1.52647 -0.392018 0
M  V30 15987 C 1507.43 2.01613 0.1893 0
M  V30 15988 C 1507.76 1.27837 1.46588 0
M  V30 15989 O 1507.01 0.368018 1.92209 0
M  V30 15990 C 1507.31 3.53872 0.500914 0
M  V30 15991 C 1506.98 4.45675 -0.684434 0
M  V30 15992 C 1505.64 4.70489 -1.00961 0
M  V30 15993 C 1507.99 4.99825 -1.4773 0
M  V30 15994 C 1505.32 5.46703 -2.12915 0
M  V30 15995 C 1507.67 5.77263 -2.58747 0
M  V30 15996 C 1506.34 6.00355 -2.9177 0
M  V30 15997 H 1505.61 0.737755 0.0692697 0
M  V30 15998 H 1508.25 1.84022 -0.529924 0
M  V30 15999 H 1506.56 3.69551 1.3015 0
M  V30 16000 H 1508.26 3.89256 0.963382 0
M  V30 16001 H 1504.85 4.26527 -0.420985 0
M  V30 16002 H 1509.03 4.80577 -1.23932 0
M  V30 16003 H 1504.29 5.62807 -2.38868 0
M  V30 16004 H 1508.46 6.18223 -3.20583 0
M  V30 16005 H 1506.09 6.59194 -3.7864 0
M  V30 16006 N 1507.66 0.121921 1.57128 0
M  V30 16007 C 1508.59 -0.823788 2.18486 0
M  V30 16008 C 1509.57 -1.27519 1.12574 0
M  V30 16009 O 1510.76 -1.33727 1.40822 0
M  V30 16010 C 1507.89 -2.07284 2.78659 0
M  V30 16011 C 1506.84 -1.75912 3.90178 0
M  V30 16012 C 1506.17 -3.07871 4.37172 0
M  V30 16013 C 1507.47 -1.02517 5.1214 0
M  V30 16014 H 1509.16 -0.312488 2.97765 0
M  V30 16015 H 1506.71 -0.148862 1.43228 0
M  V30 16016 H 1508.66 -2.73903 3.20242 0
M  V30 16017 H 1507.39 -2.60743 1.96673 0
M  V30 16018 H 1506.04 -1.11681 3.49174 0
M  V30 16019 H 1505.69 -3.59271 3.52041 0
M  V30 16020 H 1505.39 -2.87653 5.12376 0
M  V30 16021 H 1506.92 -3.75604 4.81409 0
M  V30 16022 H 1508.33 -1.59295 5.50725 0
M  V30 16023 H 1506.73 -0.923836 5.92946 0
M  V30 16024 H 1507.8 -0.0124219 4.84898 0
M  V30 16025 N 1509.14 -1.56867 -0.151857 0
M  V30 16026 C 1510.39 -1.84242 -0.861767 0
M  V30 16027 C 1510.74 -0.705229 -1.79009 0
M  V30 16028 O 1510.03 0.297135 -1.89282 0
M  V30 16029 C 1510.23 -3.15597 -1.6773 0
M  V30 16030 C 1510.06 -4.41985 -0.829442 0
M  V30 16031 C 1508.83 -5.0285 -0.496943 0
M  V30 16032 C 1511.03 -5.14045 -0.162006 0
M  V30 16033 N 1509.01 -6.12814 0.365022 0
M  V30 16034 C 1510.38 -6.17463 0.560301 0
M  V30 16035 C 1512.43 -4.97832 -0.0821767 0
M  V30 16036 C 1511.14 -7.06424 1.35489 0
M  V30 16037 C 1513.16 -5.87253 0.699138 0
M  V30 16038 C 1512.52 -6.90149 1.40974 0
M  V30 16039 H 1508.62 -0.724902 -0.293329 0
M  V30 16040 H 1511.21 -1.94282 -0.127448 0
M  V30 16041 H 1509.38 -3.06713 -2.3829 0
M  V30 16042 H 1511.11 -3.30897 -2.33001 0
M  V30 16043 H 1507.87 -4.66242 -0.831596 0
M  V30 16044 H 1508.29 -6.72411 0.786886 0
M  V30 16045 H 1512.93 -4.18271 -0.617211 0
M  V30 16046 H 1510.65 -7.85417 1.9012 0
M  V30 16047 H 1514.24 -5.76777 0.762833 0
M  V30 16048 H 1513.12 -7.58146 2.00461 0
M  V30 16049 N 1510.62 0.421051 -1.51871 0
M  V30 16050 C 1511.85 1.1911 -1.69175 0
M  V30 16051 C 1512.26 1.84599 -0.39606 0
M  V30 16052 O 1511.62 1.71395 0.626907 0
M  V30 16053 C 1511.67 2.26309 -2.81898 0
M  V30 16054 O 1511.39 1.63496 -4.06449 0
M  V30 16055 C 1512.89 3.16285 -3.10611 0
M  V30 16056 H 1510.11 0.358385 -0.567275 0
M  V30 16057 H 1512.66 0.496919 -1.98371 0
M  V30 16058 H 1510.81 2.91416 -2.55255 0
M  V30 16059 H 1511.22 2.3447 -4.69174 0
M  V30 16060 H 1512.7 3.87601 -3.93026 0
M  V30 16061 H 1513.18 3.77976 -2.23676 0
M  V30 16062 H 1513.78 2.5686 -3.38973 0
M  V30 16063 N 1512.1 1.42293 0.677538 0
M  V30 16064 C 1513.37 1.331 1.43331 0
M  V30 16065 C 1513.75 -0.0329227 2.11074 0
M  V30 16066 O 1513.1 -1.04826 2.03036 0
M  V30 16067 C 1513.31 2.49725 2.438 0
M  V30 16068 C 1514.66 2.91716 3.08524 0
M  V30 16069 O 1515.68 2.49596 2.54127 0
M  V30 16070 O 1514.54 3.64609 4.07091 0
M  V30 16071 H 1511.64 0.524758 0.639185 0
M  V30 16072 H 1514.18 1.54294 0.706493 0
M  V30 16073 H 1512.95 3.40663 1.92522 0
M  V30 16074 H 1512.58 2.30503 3.23966 0
M  V30 16075 N 1513.57 -0.913576 1.28419 0
M  V30 16076 C 1514.82 -1.65944 1.15355 0
M  V30 16077 C 1515.14 -1.92706 -0.298228 0
M  V30 16078 O 1514.41 -1.54333 -1.20657 0
M  V30 16079 H 1512.99 -0.615063 0.423919 0
M  V30 16080 H 1515.66 -1.0962 1.6115 0
M  V30 16081 H 1514.75 -2.62173 1.69327 0
M  V30 16082 N 1515.05 -1.1067 -1.12204 0
M  V30 16083 C 1516.47 -0.838988 -1.35769 0
M  V30 16084 C 1516.67 0.540345 -1.9412 0
M  V30 16085 O 1515.72 1.29274 -2.16897 0
M  V30 16086 C 1517.04 -1.94065 -2.29694 0
M  V30 16087 C 1518.59 -1.96938 -2.43279 0
M  V30 16088 C 1519.06 -3.06284 -3.4052 0
M  V30 16089 N 1520.55 -3.05607 -3.48079 0
M  V30 16090 C 1521.29 -3.86855 -4.23238 0
M  V30 16091 N 1520.78 -4.78046 -5.01442 0
M  V30 16092 N 1522.58 -3.75064 -4.18669 0
M  V30 16093 H 1514.73 -1.99575 -0.726878 0
M  V30 16094 H 1516.99 -0.867423 -0.382467 0
M  V30 16095 H 1516.7 -2.93356 -1.93997 0
M  V30 16096 H 1516.57 -1.82992 -3.29839 0
M  V30 16097 H 1518.96 -0.982774 -2.78254 0
M  V30 16098 H 1519.04 -2.12087 -1.43014 0
M  V30 16099 H 1518.68 -4.05165 -3.06273 0
M  V30 16100 H 1518.61 -2.88376 -4.40621 0
M  V30 16101 H 1521.1 -2.39531 -2.9229 0
M  V30 16102 H 1521.42 -5.36594 -5.56136 0
M  V30 16103 H 1519.76 -4.82073 -5.0063 0
M  V30 16104 H 1522.95 -3.03172 -3.56657 0
M  V30 16105 H 1523.12 -4.38618 -4.76988 0
M  V30 16106 N 1516.53 1.29665 -0.895815 0
M  V30 16107 C 1517.78 1.9533 -0.518725 0
M  V30 16108 C 1518.1 1.70995 0.937322 0
M  V30 16109 O 1517.37 1.03955 1.66043 0
M  V30 16110 H 1515.95 0.722736 -0.188841 0
M  V30 16111 H 1518.61 1.57991 -1.14126 0
M  V30 16112 H 1517.71 3.04193 -0.698057 0
M  V30 16113 N 1518.01 0.657889 1.43212 0
M  V30 16114 C 1519.25 0.173443 2.02057 0
M  V30 16115 C 1519.59 -1.21108 1.51811 0
M  V30 16116 O 1518.86 -1.80953 0.71317 0
M  V30 16117 C 1519.15 0.189429 3.59601 0
M  V30 16118 C 1519 1.6082 4.20068 0
M  V30 16119 C 1520.32 -0.471633 4.37566 0
M  V30 16120 H 1517.44 0.0644999 0.734172 0
M  V30 16121 H 1520.08 0.839462 1.7045 0
M  V30 16122 H 1518.23 -0.377689 3.8666 0
M  V30 16123 H 1519.9 2.22627 4.04024 0
M  V30 16124 H 1518.14 2.15407 3.7654 0
M  V30 16125 H 1518.81 1.5712 5.29167 0
M  V30 16126 H 1521.29 0.0109387 4.16099 0
M  V30 16127 H 1520.17 -0.429739 5.47215 0
M  V30 16128 H 1520.43 -1.54652 4.14168 0
M  V30 16129 N 1519.49 -1.52437 0.400108 0
M  V30 16130 C 1520.44 -2.23576 -0.446964 0
M  V30 16131 C 1521.42 -1.24368 -1.02085 0
M  V30 16132 O 1522.61 -1.49652 -0.945165 0
M  V30 16133 C 1519.74 -3.05402 -1.56795 0
M  V30 16134 C 1518.83 -4.12013 -1.00527 0
M  V30 16135 N 1519.22 -5.05519 -0.168475 0
M  V30 16136 C 1517.52 -4.27337 -1.27669 0
M  V30 16137 C 1518.22 -5.81523 0.143579 0
M  V30 16138 N 1517.19 -5.41623 -0.463209 0
M  V30 16139 H 1521 -2.93227 0.198775 0
M  V30 16140 H 1518.51 -1.61036 0.210019 0
M  V30 16141 H 1520.51 -3.54912 -2.1873 0
M  V30 16142 H 1519.17 -2.37288 -2.2164 0
M  V30 16143 H 1520.18 -5.17532 0.195125 0
M  V30 16144 H 1516.85 -3.70452 -1.92539 0
M  V30 16145 H 1518.24 -6.6685 0.822256 0
M  V30 16146 N 1520.96 -0.130252 -1.57061 0
M  V30 16147 C 1522.19 0.531644 -1.99642 0
M  V30 16148 C 1522.6 1.60045 -1.00907 0
M  V30 16149 O 1521.95 1.83699 0.00452296 0
M  V30 16150 C 1522.01 1.20654 -3.38649 0
M  V30 16151 C 1521.67 0.284337 -4.56115 0
M  V30 16152 C 1522.67 -0.481472 -5.17666 0
M  V30 16153 C 1520.35 0.192125 -5.01932 0
M  V30 16154 C 1522.35 -1.32711 -6.23431 0
M  V30 16155 C 1520.03 -0.657135 -6.07557 0
M  V30 16156 C 1521.03 -1.41537 -6.68174 0
M  V30 16157 O 1520.72 -2.25051 -7.71756 0
M  V30 16158 H 1520.45 0.144394 -0.660399 0
M  V30 16159 H 1523.01 -0.216789 -2.04253 0
M  V30 16160 H 1521.24 2.00227 -3.30826 0
M  V30 16161 H 1522.93 1.76647 -3.65446 0
M  V30 16162 H 1523.69 -0.420169 -4.83177 0
M  V30 16163 H 1519.57 0.772017 -4.5449 0
M  V30 16164 H 1523.11 -1.91942 -6.70674 0
M  V30 16165 H 1519.01 -0.719791 -6.41474 0
M  V30 16166 H 1519.78 -2.18116 -7.88903 0
M  V30 16167 N 1522.44 1.56945 0.143535 0
M  V30 16168 C 1523.67 1.87701 0.870401 0
M  V30 16169 C 1524.09 0.718833 1.7458 0
M  V30 16170 O 1523.44 -0.311286 1.79826 0
M  V30 16171 C 1523.49 3.1773 1.72424 0
M  V30 16172 O 1523.22 4.29086 0.884115 0
M  V30 16173 C 1524.72 3.62024 2.55839 0
M  V30 16174 H 1521.94 0.622083 0.251504 0
M  V30 16175 H 1524.48 2.04052 0.135285 0
M  V30 16176 H 1522.64 3.03122 2.41238 0
M  V30 16177 H 1523.05 5.0346 1.47065 0
M  V30 16178 H 1524.52 4.55834 3.11319 0
M  V30 16179 H 1525 2.87481 3.32041 0
M  V30 16180 H 1525.61 3.79338 1.9231 0
M  V30 16181 N 1523.92 -0.412991 1.52093 0
M  V30 16182 C 1524.87 -1.52347 1.75765 0
M  V30 16183 C 1525.86 -1.57463 0.624641 0
M  V30 16184 O 1527.07 -1.60916 0.806599 0
M  V30 16185 H 1523.44 -0.50659 0.555761 0
M  V30 16186 H 1525.42 -1.29564 2.68804 0
M  V30 16187 C 1524.16 -2.89757 1.92188 0
M  V30 16188 H 1523.49 -2.86561 2.78788 0
M  V30 16189 H 1524.93 -3.66759 2.12753 0
M  V30 16190 C 1523.39 -3.29801 0.687963 0
M  V30 16191 O 1523.92 -4.01435 -0.145984 0
M  V30 16192 N 1522.12 -2.85819 0.524978 0
M  V30 16193 H 1521.67 -2.27694 1.20471 0
M  V30 16194 H 1521.63 -3.12972 -0.299325 0
M  V30 16195 N 1525.4 -1.4265 -0.669982 0
M  V30 16196 C 1526.65 -1.44587 -1.4306 0
M  V30 16197 C 1527 -0.0629167 -1.92297 0
M  V30 16198 O 1526.29 0.915708 -1.68301 0
M  V30 16199 C 1526.49 -2.40913 -2.63999 0
M  V30 16200 C 1526.32 -3.88438 -2.26597 0
M  V30 16201 C 1525.09 -4.56936 -2.15725 0
M  V30 16202 C 1527.28 -4.78731 -1.87938 0
M  V30 16203 N 1525.27 -5.89465 -1.71477 0
M  V30 16204 C 1526.64 -6.00404 -1.54645 0
M  V30 16205 C 1528.69 -4.66143 -1.74973 0
M  V30 16206 C 1527.4 -7.10888 -1.09688 0
M  V30 16207 C 1529.42 -5.76613 -1.3142 0
M  V30 16208 C 1528.78 -6.97401 -0.99054 0
M  V30 16209 H 1524.88 -0.584242 -0.519794 0
M  V30 16210 H 1527.47 -1.78711 -0.772679 0
M  V30 16211 H 1525.64 -2.08843 -3.27474 0
M  V30 16212 H 1527.37 -2.33398 -3.30617 0
M  V30 16213 H 1524.12 -4.11213 -2.34948 0
M  V30 16214 H 1524.55 -6.59771 -1.51762 0
M  V30 16215 H 1529.19 -3.73231 -1.98641 0
M  V30 16216 H 1526.91 -8.03642 -0.847666 0
M  V30 16217 H 1530.49 -5.68886 -1.21902 0
M  V30 16218 H 1529.37 -7.81429 -0.658653 0
M  V30 16219 N 1526.88 0.906753 -1.28902 0
M  V30 16220 C 1528.13 1.6533 -1.16234 0
M  V30 16221 C 1528.45 1.92861 0.288004 0
M  V30 16222 O 1527.72 1.54971 1.19837 0
M  V30 16223 H 1526.3 0.612806 -0.427174 0
M  V30 16224 H 1528.96 1.08764 -1.6173 0
M  V30 16225 H 1528.05 2.61271 -1.70715 0
M  V30 16226 N 1528.36 1.11264 1.11616 0
M  V30 16227 C 1529.3 0.769295 2.17602 0
M  V30 16228 C 1530.27 -0.258362 1.64078 0
M  V30 16229 O 1531.46 -0.135698 1.90317 0
M  V30 16230 C 1528.6 0.216647 3.44419 0
M  V30 16231 C 1527.71 1.30064 4.11955 0
M  V30 16232 C 1526.85 0.708729 5.26451 0
M  V30 16233 C 1525.88 1.7727 5.85868 0
M  V30 16234 N 1525.02 1.20042 6.91762 0
M  V30 16235 H 1529.86 1.67727 2.46316 0
M  V30 16236 H 1527.4 0.83764 1.20921 0
M  V30 16237 H 1529.36 -0.121724 4.17022 0
M  V30 16238 H 1527.99 -0.654525 3.16095 0
M  V30 16239 H 1527.04 1.756 3.37445 0
M  V30 16240 H 1528.35 2.1057 4.52174 0
M  V30 16241 H 1527.5 0.320307 6.05854 0
M  V30 16242 H 1526.24 -0.127668 4.87533 0
M  V30 16243 H 1525.25 2.17046 5.05145 0
M  V30 16244 H 1526.47 2.6121 6.26854 0
M  V30 16245 H 1524.42 0.385633 6.54866 0
M  V30 16246 H 1524.34 1.94221 7.30626 0
M  V30 16247 H 1525.6 0.838825 7.74974 0
M  V30 16248 N 1529.83 -1.29188 0.902679 0
M  V30 16249 C 1531.08 -1.95052 0.529076 0
M  V30 16250 C 1531.4 -1.7149 -0.92824 0
M  V30 16251 O 1530.67 -1.04834 -1.65489 0
M  V30 16252 H 1529.25 -0.721725 0.192671 0
M  V30 16253 H 1531.91 -1.57384 1.14962 0
M  V30 16254 H 1531.01 -3.03819 0.714179 0
M  V30 16255 N 1531.31 -0.665475 -1.42861 0
M  V30 16256 C 1532.54 -0.191722 -2.05709 0
M  V30 16257 C 1532.95 1.15263 -1.50037 0
M  V30 16258 O 1532.29 1.72517 -0.63116 0
M  V30 16259 C 1532.35 -0.0393003 -3.59479 0
M  V30 16260 C 1532.02 -1.31088 -4.37795 0
M  V30 16261 C 1533.02 -2.24232 -4.69058 0
M  V30 16262 C 1530.7 -1.55588 -4.77596 0
M  V30 16263 C 1532.69 -3.4016 -5.39045 0
M  V30 16264 C 1530.38 -2.71807 -5.47325 0
M  V30 16265 C 1531.38 -3.63918 -5.77973 0
M  V30 16266 O 1531.07 -4.78105 -6.46275 0
M  V30 16267 H 1530.8 -0.0929467 -0.66958 0
M  V30 16268 H 1533.35 -0.909904 -1.84146 0
M  V30 16269 H 1531.58 0.734372 -3.79663 0
M  V30 16270 H 1533.27 0.39338 -4.03989 0
M  V30 16271 H 1534.04 -2.06551 -4.38819 0
M  V30 16272 H 1529.92 -0.847686 -4.53139 0
M  V30 16273 H 1533.46 -4.12076 -5.62885 0
M  V30 16274 H 1529.36 -2.89418 -5.76981 0
M  V30 16275 H 1530.13 -4.77529 -6.64762 0
M  V30 16276 N 1532.79 1.52222 -0.408187 0
M  V30 16277 C 1534.2 1.86598 0.0616213 0
M  V30 16278 C 1534.55 1.32698 1.44519 0
M  V30 16279 O 1533.68 0.665883 2.059 0
M  V30 16280 C 1534.27 3.38592 0.118595 0
M  V30 16281 C 1532.83 3.72611 0.532737 0
M  V30 16282 C 1531.98 2.75744 -0.293356 0
M  V30 16283 H 1534.93 1.45862 -0.625291 0
M  V30 16284 H 1534.95 3.68858 0.934039 0
M  V30 16285 H 1534.46 3.77792 -0.888516 0
M  V30 16286 H 1532.56 3.38989 1.54652 0
M  V30 16287 H 1532.68 4.78294 0.277777 0
M  V30 16288 H 1531.04 2.53527 0.244166 0
M  V30 16289 H 1531.82 3.17783 -1.2988 0
M  V30 16290 N 1534.27 0.138579 1.5699 0
M  V30 16291 C 1535.52 -0.513611 1.95465 0
M  V30 16292 C 1535.84 -1.65952 1.02396 0
M  V30 16293 O 1535.11 -1.9572 0.0839001 0
M  V30 16294 H 1533.69 -0.192729 0.72171 0
M  V30 16295 H 1536.35 0.212107 1.93742 0
M  V30 16296 H 1535.44 -0.895313 2.98983 0
M  V30 16297 N 1535.75 -1.57019 -0.13521 0
M  V30 16298 C 1536.99 -1.83626 -0.844147 0
M  V30 16299 C 1537.31 -0.721298 -1.81169 0
M  V30 16300 O 1536.58 0.256095 -1.94219 0
M  V30 16301 H 1535.16 -0.677464 -0.314725 0
M  V30 16302 H 1537.83 -1.9449 -0.126399 0
M  V30 16303 H 1536.92 -2.78976 -1.39925 0
M  V30 16304 N 1537.22 0.404919 -1.52309 0
M  V30 16305 C 1538.64 0.743846 -1.41206 0
M  V30 16306 C 1538.84 1.94678 -0.519874 0
M  V30 16307 O 1537.9 2.52497 0.0127417 0
M  V30 16308 C 1539.21 0.99384 -2.83802 0
M  V30 16309 C 1540.76 1.0963 -2.93173 0
M  V30 16310 C 1541.23 1.37902 -4.36746 0
M  V30 16311 N 1542.72 1.44758 -4.39999 0
M  V30 16312 C 1543.46 1.68269 -5.48154 0
M  V30 16313 N 1542.95 1.89356 -6.6642 0
M  V30 16314 N 1544.75 1.70318 -5.35675 0
M  V30 16315 H 1536.9 -0.386855 -2.08847 0
M  V30 16316 H 1539.16 -0.110811 -0.941501 0
M  V30 16317 H 1538.87 0.182249 -3.51227 0
M  V30 16318 H 1538.74 1.91287 -3.25099 0
M  V30 16319 H 1541.13 1.89847 -2.25925 0
M  V30 16320 H 1541.21 0.155539 -2.55327 0
M  V30 16321 H 1540.85 0.582004 -5.04554 0
M  V30 16322 H 1540.78 2.33237 -4.72132 0
M  V30 16323 H 1543.27 1.30235 -3.5475 0
M  V30 16324 H 1543.59 2.06758 -7.44628 0
M  V30 16325 H 1541.93 1.86612 -6.69478 0
M  V30 16326 H 1545.12 1.53385 -4.42256 0
M  V30 16327 H 1545.3 1.88302 -6.20037 0
M  V30 16328 N 1538.7 1.43003 0.662408 0
M  V30 16329 C 1540.12 1.26201 0.977003 0
M  V30 16330 C 1540.32 0.175104 2.00738 0
M  V30 16331 O 1539.37 -0.44954 2.48466 0
M  V30 16332 C 1540.69 2.62319 1.47001 0
M  V30 16333 C 1542.24 2.69776 1.58714 0
M  V30 16334 C 1542.71 4.06289 2.11408 0
M  V30 16335 N 1544.2 4.08307 2.18724 0
M  V30 16336 C 1544.94 5.10761 2.60598 0
M  V30 16337 N 1544.43 6.23593 3.01834 0
M  V30 16338 N 1546.23 4.98115 2.60456 0
M  V30 16339 H 1538.38 2.12391 -0.0195698 0
M  V30 16340 H 1540.64 0.946472 0.0538044 0
M  V30 16341 H 1540.35 3.42773 0.78736 0
M  V30 16342 H 1540.22 2.87088 2.44664 0
M  V30 16343 H 1542.61 1.89659 2.26083 0
M  V30 16344 H 1542.69 2.48782 0.595081 0
M  V30 16345 H 1542.33 4.86868 1.44644 0
M  V30 16346 H 1542.26 4.24641 3.11428 0
M  V30 16347 H 1544.75 3.26857 1.89665 0
M  V30 16348 H 1545.07 6.97609 3.32509 0
M  V30 16349 H 1543.41 6.27079 2.99661 0
M  V30 16350 H 1546.6 4.09037 2.27611 0
M  V30 16351 H 1546.77 5.78092 2.92769 0
M  V30 16352 N 1540.18 -0.899904 1.29381 0
M  V30 16353 C 1541.41 -1.68911 1.20349 0
M  V30 16354 C 1541.83 -1.86657 -0.232523 0
M  V30 16355 O 1541.19 -1.38674 -1.16787 0
M  V30 16356 C 1541.24 -3.05124 1.92177 0
M  V30 16357 O 1540.34 -3.93358 1.23867 0
M  V30 16358 H 1539.68 -0.516698 0.417036 0
M  V30 16359 H 1542.21 -1.12422 1.70946 0
M  V30 16360 H 1542.22 -3.55267 2.00623 0
M  V30 16361 H 1540.9 -2.91525 2.96624 0
M  V30 16362 H 1539.47 -3.51793 1.23677 0
M  V30 16363 N 1541.66 -1.11854 -1.11024 0
M  V30 16364 C 1542.88 -0.892999 -1.8719 0
M  V30 16365 C 1543.31 0.552058 -1.79816 0
M  V30 16366 O 1542.67 1.39025 -1.16369 0
M  V30 16367 C 1542.71 -1.3647 -3.33779 0
M  V30 16368 O 1541.82 -0.539202 -4.0886 0
M  V30 16369 H 1541.16 -0.321319 -0.581076 0
M  V30 16370 H 1543.69 -1.4891 -1.4031 0
M  V30 16371 H 1543.7 -1.3611 -3.84627 0
M  V30 16372 H 1542.37 -2.41694 -3.38462 0
M  V30 16373 H 1540.95 -0.60927 -3.67889 0
M  V30 16374 N 1543.14 1.28707 -0.909517 0
M  V30 16375 C 1544.07 2.29845 -0.411552 0
M  V30 16376 C 1545.05 1.62001 0.518615 0
M  V30 16377 O 1546.23 1.89442 0.427252 0
M  V30 16378 C 1543.36 3.45501 0.353013 0
M  V30 16379 C 1542.32 4.25213 -0.487625 0
M  V30 16380 C 1541.64 5.33164 0.405026 0
M  V30 16381 C 1542.94 4.9237 -1.74268 0
M  V30 16382 H 1544.64 2.71746 -1.25676 0
M  V30 16383 H 1542.18 1.30639 -0.605759 0
M  V30 16384 H 1544.14 4.15338 0.712191 0
M  V30 16385 H 1542.86 3.02469 1.23209 0
M  V30 16386 H 1541.52 3.57098 -0.829265 0
M  V30 16387 H 1541.17 4.86375 1.28252 0
M  V30 16388 H 1540.87 5.87399 -0.153811 0
M  V30 16389 H 1542.39 6.0585 0.760179 0
M  V30 16390 H 1543.8 5.5459 -1.45266 0
M  V30 16391 H 1542.2 5.56581 -2.2436 0
M  V30 16392 H 1543.27 4.171 -2.47297 0
M  V30 16393 N 1544.61 0.673042 1.42506 0
M  V30 16394 C 1545.84 0.201349 2.0642 0
M  V30 16395 C 1546.26 -1.132 1.50224 0
M  V30 16396 O 1545.62 -1.70368 0.620024 0
M  V30 16397 C 1545.67 0.14505 3.60308 0
M  V30 16398 O 1544.77 -0.886953 4.02749 0
M  V30 16399 H 1544.12 0.103975 0.655809 0
M  V30 16400 H 1546.65 0.921559 1.8267 0
M  V30 16401 H 1546.66 -0.0316792 4.07988 0
M  V30 16402 H 1545.33 1.11829 4.00583 0
M  V30 16403 H 1543.91 -0.681408 3.66621 0
M  V30 16404 N 1546.09 -1.52004 0.416254 0
M  V30 16405 C 1547.32 -2.06008 -0.156264 0
M  V30 16406 C 1547.73 -1.28562 -1.3881 0
M  V30 16407 O 1547.07 -0.33265 -1.80663 0
M  V30 16408 C 1547.14 -3.55039 -0.564614 0
M  V30 16409 C 1546.8 -4.53587 0.557481 0
M  V30 16410 C 1547.8 -5.0004 1.42324 0
M  V30 16411 C 1545.48 -4.96935 0.732205 0
M  V30 16412 C 1547.48 -5.88492 2.4486 0
M  V30 16413 C 1545.16 -5.85181 1.76087 0
M  V30 16414 C 1546.16 -6.30855 2.61747 0
M  V30 16415 O 1545.85 -7.17353 3.6285 0
M  V30 16416 H 1545.58 -0.675681 -0.0207555 0
M  V30 16417 H 1548.13 -1.96806 0.58792 0
M  V30 16418 H 1546.36 -3.61951 -1.36119 0
M  V30 16419 H 1548.05 -3.91656 -1.06586 0
M  V30 16420 H 1548.82 -4.67261 1.29968 0
M  V30 16421 H 1544.7 -4.60939 0.0751016 0
M  V30 16422 H 1548.24 -6.24063 3.11754 0
M  V30 16423 H 1544.14 -6.17373 1.8847 0
M  V30 16424 H 1544.91 -7.35481 3.59179 0
M  V30 16425 N 1547.57 -0.146903 -1.56914 0
M  V30 16426 C 1548.48 0.805875 -2.20324 0
M  V30 16427 C 1549.5 1.27178 -1.18751 0
M  V30 16428 O 1550.67 1.32899 -1.51327 0
M  V30 16429 C 1547.74 2.02755 -2.81232 0
M  V30 16430 C 1546.8 1.61089 -3.97931 0
M  V30 16431 C 1546.03 2.77433 -4.55924 0
M  V30 16432 O 1546.25 3.93643 -4.12797 0
M  V30 16433 O 1545.19 2.52911 -5.46187 0
M  V30 16434 H 1549.01 0.296098 -3.02253 0
M  V30 16435 H 1546.6 0.0801175 -1.49185 0
M  V30 16436 H 1548.48 2.74252 -3.19944 0
M  V30 16437 H 1547.16 2.52686 -2.02316 0
M  V30 16438 H 1546.06 0.86616 -3.63935 0
M  V30 16439 H 1547.4 1.15874 -4.78366 0
M  V30 16440 N 1549.05 1.57088 0.126881 0
M  V30 16441 C 1550.33 1.7539 0.8659 0
M  V30 16442 C 1550.71 0.720288 1.98432 0
M  V30 16443 O 1550.05 -0.2572 2.27048 0
M  V30 16444 C 1550.26 3.20131 1.38985 0
M  V30 16445 C 1551.61 3.82404 1.84532 0
M  V30 16446 O 1552.64 3.23685 1.48682 0
M  V30 16447 O 1551.49 4.85599 2.50711 0
M  V30 16448 H 1548.59 0.717853 0.41063 0
M  V30 16449 H 1551.13 1.69335 0.111236 0
M  V30 16450 H 1549.91 3.86871 0.587056 0
M  V30 16451 H 1549.53 3.30692 2.20745 0
M  V30 16452 N 1550.53 -0.396836 1.52522 0
M  V30 16453 C 1551.49 -1.46695 1.76106 0
M  V30 16454 C 1552.49 -1.47902 0.631005 0
M  V30 16455 O 1553.68 -1.4921 0.898995 0
M  V30 16456 C 1550.81 -2.86033 1.85467 0
M  V30 16457 H 1552 -1.27071 2.71649 0
M  V30 16458 H 1549.56 -0.628096 1.43125 0
M  V30 16459 H 1550.29 -3.11012 0.918816 0
M  V30 16460 H 1550.08 -2.86559 2.67631 0
M  V30 16461 H 1551.57 -3.63587 2.05412 0
M  V30 16462 N 1552.01 -1.43353 -0.654814 0
M  V30 16463 C 1553.28 -1.35363 -1.41195 0
M  V30 16464 C 1553.66 -0.000661523 -2.111 0
M  V30 16465 O 1553.01 1.01583 -2.04678 0
M  V30 16466 C 1553.22 -2.53572 -2.39796 0
M  V30 16467 C 1554.57 -2.96587 -3.03844 0
M  V30 16468 O 1555.59 -2.53607 -2.50124 0
M  V30 16469 O 1554.45 -3.71039 -4.01239 0
M  V30 16470 H 1551.55 -0.534861 -0.630756 0
M  V30 16471 H 1554.09 -1.55399 -0.681857 0
M  V30 16472 H 1552.86 -3.43682 -1.87078 0
M  V30 16473 H 1552.49 -2.35628 -3.20258 0
M  V30 16474 N 1553.48 0.89303 -1.29857 0
M  V30 16475 C 1554.72 1.65836 -1.19489 0
M  V30 16476 C 1555.09 1.90389 0.248194 0
M  V30 16477 O 1556.29 2.6457 0.474963 0
M  V30 16478 C 1554.56 2.96706 -1.9925 0
M  V30 16479 S 1556.12 3.8771 -2.05492 0
M  V30 16480 H 1552.94 0.569282 -0.425956 0
M  V30 16481 H 1555.54 1.06061 -1.64229 0
M  V30 16482 H 1554.24 2.76554 -3.03226 0
M  V30 16483 H 1553.77 3.61518 -1.55141 0
M  V30 16484 H 1555.79 4.82052 -1.17644 0
M  V30 16485 N 1554.96 1.12442 1.10429 0
M  V30 16486 C 1556.21 0.881062 1.82661 0
M  V30 16487 C 1556.54 -0.591636 1.84968 0
M  V30 16488 O 1555.82 -1.43734 1.31037 0
M  V30 16489 C 1556.1 1.45658 3.29326 0
M  V30 16490 C 1555.95 2.99766 3.35352 0
M  V30 16491 C 1557.27 1.1162 4.2571 0
M  V30 16492 H 1554.39 0.321516 0.663172 0
M  V30 16493 H 1557.03 1.39102 1.29424 0
M  V30 16494 H 1555.18 1.02286 3.74793 0
M  V30 16495 H 1556.85 3.51818 2.98365 0
M  V30 16496 H 1555.1 3.35292 2.75249 0
M  V30 16497 H 1555.77 3.35128 4.38627 0
M  V30 16498 H 1558.24 1.49081 3.88477 0
M  V30 16499 H 1557.12 1.54552 5.26692 0
M  V30 16500 H 1557.38 0.0284093 4.42091 0
M  V30 16501 N 1556.44 -1.28223 0.91633 0
M  V30 16502 C 1557.69 -1.95153 0.551639 0
M  V30 16503 C 1558.02 -1.71938 -0.902829 0
M  V30 16504 O 1557.29 -1.04184 -1.64243 0
M  V30 16505 C 1557.58 -3.49565 0.864647 0
M  V30 16506 C 1557.43 -3.82171 2.37203 0
M  V30 16507 C 1558.75 -4.38604 0.362593 0
M  V30 16508 H 1555.87 -0.708808 0.20189 0
M  V30 16509 H 1558.51 -1.51545 1.14604 0
M  V30 16510 H 1556.66 -3.8684 0.358782 0
M  V30 16511 H 1558.33 -3.54751 2.94872 0
M  V30 16512 H 1556.57 -3.29124 2.82595 0
M  V30 16513 H 1557.25 -4.90007 2.54159 0
M  V30 16514 H 1559.72 -4.08416 0.795983 0
M  V30 16515 H 1558.6 -5.45493 0.61066 0
M  V30 16516 H 1558.86 -4.35911 -0.737137 0
M  V30 16517 N 1557.92 -0.68059 -1.42147 0
M  V30 16518 C 1559.17 -0.202445 -2.00681 0
M  V30 16519 C 1559.48 1.19997 -1.54467 0
M  V30 16520 O 1560.69 1.77479 -2.05459 0
M  V30 16521 C 1559.14 -0.311064 -3.58553 0
M  V30 16522 C 1558.75 -1.7179 -4.13754 0
M  V30 16523 C 1560.49 0.108072 -4.24362 0
M  V30 16524 C 1558.4 -1.77897 -5.64009 0
M  V30 16525 H 1557.33 -0.0719266 -0.750561 0
M  V30 16526 H 1559.98 -0.846614 -1.62803 0
M  V30 16527 H 1558.36 0.401098 -3.93963 0
M  V30 16528 H 1559.54 -2.45761 -3.89793 0
M  V30 16529 H 1557.85 -2.08539 -3.60417 0
M  V30 16530 H 1560.45 0.0826684 -5.34636 0
M  V30 16531 H 1560.79 1.14431 -4.00264 0
M  V30 16532 H 1561.33 -0.553285 -3.93933 0
M  V30 16533 H 1558.06 -2.79523 -5.92914 0
M  V30 16534 H 1557.58 -1.0829 -5.89944 0
M  V30 16535 H 1559.26 -1.53504 -6.28527 0
M  V30 16536 N 1559.4 1.51781 -0.424309 0
M  V30 16537 C 1560.64 2.01157 0.147925 0
M  V30 16538 C 1560.96 1.31369 1.44919 0
M  V30 16539 O 1562.16 1.71643 2.10359 0
M  V30 16540 C 1560.62 3.58526 0.31417 0
M  V30 16541 C 1560.23 4.37242 -0.975898 0
M  V30 16542 C 1561.97 4.16088 0.840876 0
M  V30 16543 C 1559.88 5.86287 -0.776009 0
M  V30 16544 H 1558.81 0.751684 0.0590568 0
M  V30 16545 H 1561.46 1.74998 -0.552079 0
M  V30 16546 H 1559.84 3.81077 1.07687 0
M  V30 16547 H 1561.02 4.26444 -1.74592 0
M  V30 16548 H 1559.33 3.9107 -1.43015 0
M  V30 16549 H 1561.93 5.25138 1.0067 0
M  V30 16550 H 1562.27 3.7442 1.81977 0
M  V30 16551 H 1562.8 3.97565 0.136836 0
M  V30 16552 H 1559.54 6.32343 -1.7269 0
M  V30 16553 H 1559.06 5.99783 -0.0455544 0
M  V30 16554 H 1560.74 6.45609 -0.424095 0
M  V30 16555 N 1560.87 0.155222 1.56834 0
M  V30 16556 C 1562.12 -0.49285 1.95998 0
M  V30 16557 C 1562.44 -1.64857 1.0415 0
M  V30 16558 O 1561.71 -1.9562 0.104654 0
M  V30 16559 H 1560.29 -0.185063 0.723713 0
M  V30 16560 H 1562.95 0.232644 1.93507 0
M  V30 16561 H 1562.05 -0.863552 2.99915 0
M  V30 16562 N 1562.35 -1.57153 -0.118549 0
M  V30 16563 C 1563.6 -1.84511 -0.824623 0
M  V30 16564 C 1563.92 -0.740473 -1.80394 0
M  V30 16565 O 1563.19 0.235481 -1.9448 0
M  V30 16566 H 1561.77 -0.680764 -0.307522 0
M  V30 16567 H 1564.43 -1.94613 -0.105764 0
M  V30 16568 H 1563.53 -2.80444 -1.36958 0
M  V30 16569 N 1563.83 0.388742 -1.5273 0
M  V30 16570 C 1564.79 1.45759 -1.76881 0
M  V30 16571 C 1565.79 1.47565 -0.63884 0
M  V30 16572 O 1566.98 1.48731 -0.906895 0
M  V30 16573 C 1564.11 2.85045 -1.86981 0
M  V30 16574 H 1565.31 1.25629 -2.72319 0
M  V30 16575 H 1562.86 0.620497 -1.43456 0
M  V30 16576 H 1563.6 3.1052 -0.935296 0
M  V30 16577 H 1563.38 2.85136 -2.69147 0
M  V30 16578 H 1564.87 3.62492 -2.07338 0
M  V30 16579 N 1565.31 1.43698 0.647203 0
M  V30 16580 C 1566.53 1.49301 1.43958 0
M  V30 16581 C 1566.96 0.11395 1.87755 0
M  V30 16582 O 1566.32 -0.893571 1.5775 0
M  V30 16583 C 1566.36 2.44905 2.64677 0
M  V30 16584 O 1565.47 1.93947 3.63948 0
M  V30 16585 H 1564.81 0.504771 0.431396 0
M  V30 16586 H 1567.34 1.88673 0.791432 0
M  V30 16587 H 1567.35 2.62409 3.12419 0
M  V30 16588 H 1566.02 3.45083 2.32143 0
M  V30 16589 H 1564.6 1.86133 3.23124 0
M  V30 16590 N 1566.79 -0.886131 1.30328 0
M  V30 16591 C 1567.73 -2.01312 1.16516 0
M  V30 16592 C 1568.73 -1.69223 0.0773431 0
M  V30 16593 O 1569.93 -1.78418 0.238111 0
M  V30 16594 H 1566.31 -0.66006 0.360312 0
M  V30 16595 H 1568.28 -2.10097 2.11901 0
M  V30 16596 C 1567.03 -3.36573 0.872592 0
M  V30 16597 H 1566.35 -3.61775 1.70172 0
M  V30 16598 H 1567.79 -4.16073 0.816049 0
M  V30 16599 C 1566.25 -3.34215 -0.424465 0
M  V30 16600 O 1566.78 -3.74758 -1.44634 0
M  V30 16601 N 1564.99 -2.87323 -0.435207 0
M  V30 16602 H 1564.53 -2.54525 0.396851 0
M  V30 16603 H 1564.49 -2.86128 -1.303 0
M  V30 16604 N 1568.26 -1.13026 -1.09832 0
M  V30 16605 C 1569.17 -0.817051 -2.19912 0
M  V30 16606 C 1570.19 0.19667 -1.72885 0
M  V30 16607 O 1571.37 0.0287402 -2.01379 0
M  V30 16608 C 1568.43 -0.28304 -3.45543 0
M  V30 16609 C 1567.49 -1.35748 -4.07273 0
M  V30 16610 C 1566.73 -0.848855 -5.26906 0
M  V30 16611 O 1566.95 0.315104 -5.69529 0
M  V30 16612 O 1565.88 -1.62128 -5.79653 0
M  V30 16613 H 1569.71 -1.73663 -2.49148 0
M  V30 16614 H 1567.29 -0.907391 -1.18688 0
M  V30 16615 H 1569.18 0.00956876 -4.21399 0
M  V30 16616 H 1567.85 0.609018 -3.17919 0
M  V30 16617 H 1566.76 -1.70334 -3.33072 0
M  V30 16618 H 1568.09 -2.22353 -4.39113 0
M  V30 16619 N 1569.74 1.27735 -0.923117 0
M  V30 16620 C 1570.71 2.25256 -0.423375 0
M  V30 16621 C 1571.71 1.54213 0.455517 0
M  V30 16622 O 1572.9 1.7229 0.257245 0
M  V30 16623 C 1570.03 3.3864 0.391897 0
M  V30 16624 H 1571.22 2.70978 -1.28495 0
M  V30 16625 H 1568.77 1.39579 -0.703378 0
M  V30 16626 H 1569.51 2.98293 1.27248 0
M  V30 16627 H 1569.29 3.91376 -0.238194 0
M  V30 16628 H 1570.78 4.11133 0.732069 0
M  V30 16629 N 1571.22 0.688118 1.41784 0
M  V30 16630 C 1572.47 0.215517 2.00948 0
M  V30 16631 C 1572.79 -1.18656 1.54744 0
M  V30 16632 O 1572.06 -1.79925 0.774831 0
M  V30 16633 H 1570.64 0.0766876 0.743053 0
M  V30 16634 H 1573.3 0.88761 1.73515 0
M  V30 16635 H 1572.4 0.227139 3.11272 0
M  V30 16636 N 1572.7 -1.51554 0.432352 0
M  V30 16637 C 1573.65 -2.27623 -0.381602 0
M  V30 16638 C 1574.62 -1.31003 -1.02114 0
M  V30 16639 O 1575.8 -1.59899 -1.041 0
M  V30 16640 C 1572.94 -3.11772 -1.47959 0
M  V30 16641 C 1572.05 -4.2338 -0.858682 0
M  V30 16642 C 1571.19 -4.94847 -1.93131 0
M  V30 16643 C 1570.23 -5.98383 -1.28856 0
M  V30 16644 N 1569.36 -6.63278 -2.30233 0
M  V30 16645 H 1574.2 -2.96743 0.273472 0
M  V30 16646 H 1571.74 -1.46367 0.146706 0
M  V30 16647 H 1573.7 -3.58882 -2.12742 0
M  V30 16648 H 1572.33 -2.44778 -2.10437 0
M  V30 16649 H 1571.38 -3.8027 -0.0992797 0
M  V30 16650 H 1572.69 -4.97575 -0.349381 0
M  V30 16651 H 1571.85 -5.4548 -2.65587 0
M  V30 16652 H 1570.59 -4.20272 -2.47432 0
M  V30 16653 H 1569.59 -5.47048 -0.549441 0
M  V30 16654 H 1570.82 -6.74913 -0.752941 0
M  V30 16655 H 1568.76 -5.91518 -2.83624 0
M  V30 16656 H 1568.68 -7.33221 -1.84181 0
M  V30 16657 H 1569.95 -7.18542 -3.02188 0
M  V30 16658 N 1574.18 -0.163538 -1.56749 0
M  V30 16659 C 1575.42 0.477648 -1.97712 0
M  V30 16660 C 1575.78 1.61382 -1.04755 0
M  V30 16661 O 1575.07 1.91408 -0.0857142 0
M  V30 16662 C 1575.26 1.0153 -3.42675 0
M  V30 16663 C 1575.09 -0.0672483 -4.4965 0
M  V30 16664 C 1573.86 -0.514285 -5.02676 0
M  V30 16665 C 1576.06 -0.864805 -5.06977 0
M  V30 16666 N 1574.04 -1.57795 -5.93274 0
M  V30 16667 C 1575.41 -1.77857 -5.93942 0
M  V30 16668 C 1577.47 -0.910753 -4.89499 0
M  V30 16669 C 1576.17 -2.73439 -6.653 0
M  V30 16670 C 1578.2 -1.85448 -5.61572 0
M  V30 16671 C 1577.56 -2.75574 -6.48258 0
M  V30 16672 H 1573.66 0.143112 -0.768793 0
M  V30 16673 H 1576.24 -0.26196 -1.9293 0
M  V30 16674 H 1574.41 1.72445 -3.48019 0
M  V30 16675 H 1576.15 1.62447 -3.70666 0
M  V30 16676 H 1572.9 -0.113438 -4.73464 0
M  V30 16677 H 1573.33 -2.11004 -6.43278 0
M  V30 16678 H 1577.97 -0.228009 -4.22185 0
M  V30 16679 H 1575.69 -3.42706 -7.31832 0
M  V30 16680 H 1579.27 -1.89604 -5.50038 0
M  V30 16681 H 1578.15 -3.47409 -7.03048 0
M  V30 16682 N 1575.65 1.57214 0.110213 0
M  V30 16683 C 1576.59 1.96198 1.1654 0
M  V30 16684 C 1577.57 0.832925 1.39646 0
M  V30 16685 O 1578.75 1.09188 1.53656 0
M  V30 16686 C 1575.88 2.26576 2.51756 0
M  V30 16687 C 1574.92 3.49093 2.45023 0
M  V30 16688 S 1575.76 5.01363 1.88136 0
M  V30 16689 C 1576.91 5.34903 3.25007 0
M  V30 16690 H 1577.14 2.85392 0.832996 0
M  V30 16691 H 1574.68 1.51104 0.317314 0
M  V30 16692 H 1576.64 2.44756 3.29552 0
M  V30 16693 H 1575.3 1.37981 2.8217 0
M  V30 16694 H 1574.49 3.67743 3.44647 0
M  V30 16695 H 1574.09 3.30346 1.7535 0
M  V30 16696 H 1576.38 5.30623 4.21243 0
M  V30 16697 H 1577.33 6.36062 3.11176 0
M  V30 16698 H 1577.73 4.62371 3.23841 0
M  V30 16699 N 1577.13 -0.380637 1.52934 0
M  V30 16700 C 1578.41 -1.13958 1.58975 0
M  V30 16701 C 1578.79 -2.07503 0.388028 0
M  V30 16702 O 1578.14 -2.19844 -0.622984 0
M  V30 16703 C 1578.35 -1.89192 2.9327 0
M  V30 16704 C 1579.7 -2.44259 3.47308 0
M  V30 16705 O 1580.72 -1.99338 2.95199 0
M  V30 16706 O 1579.58 -3.26338 4.38367 0
M  V30 16707 H 1576.67 -0.521896 0.641525 0
M  V30 16708 H 1579.22 -0.385114 1.65272 0
M  V30 16709 H 1577.99 -1.20834 3.72176 0
M  V30 16710 H 1577.61 -2.71581 2.90395 0
M  V30 16711 N 1578.61 -1.44039 -0.639573 0
M  V30 16712 C 1579.89 -1.36853 -1.39752 0
M  V30 16713 C 1580.27 -0.0230515 -2.11087 0
M  V30 16714 O 1579.62 0.994061 -2.05744 0
M  V30 16715 C 1579.83 -2.56101 -2.37093 0
M  V30 16716 C 1581.17 -2.99793 -3.00681 0
M  V30 16717 O 1582.2 -2.56246 -2.4742 0
M  V30 16718 O 1581.06 -3.75274 -3.97281 0
M  V30 16719 H 1578.15 -0.541521 -0.625047 0
M  V30 16720 H 1580.7 -1.56113 -0.665336 0
M  V30 16721 H 1579.47 -3.45647 -1.83422 0
M  V30 16722 H 1579.09 -2.39011 -3.17741 0
M  V30 16723 N 1580.09 0.879207 -1.30796 0
M  V30 16724 C 1581.32 1.66449 -1.22891 0
M  V30 16725 C 1581.73 1.87658 0.207306 0
M  V30 16726 O 1581.09 1.42818 1.13619 0
M  V30 16727 C 1581.14 3.03765 -1.95982 0
M  V30 16728 O 1580.86 2.8351 -3.33997 0
M  V30 16729 C 1582.36 3.98204 -1.94804 0
M  V30 16730 H 1579.58 0.51922 -0.425031 0
M  V30 16731 H 1582.13 1.09807 -1.72519 0
M  V30 16732 H 1580.28 3.57124 -1.50138 0
M  V30 16733 H 1580.69 3.70663 -3.71092 0
M  V30 16734 H 1582.17 4.91901 -2.50474 0
M  V30 16735 H 1582.65 4.29277 -0.928336 0
M  V30 16736 H 1583.25 3.50781 -2.40485 0
M  V30 16737 N 1581.57 1.13606 1.09231 0
M  V30 16738 C 1582.81 0.909321 1.83059 0
M  V30 16739 C 1583.17 -0.554485 1.83819 0
M  V30 16740 O 1584.37 -0.898864 2.53326 0
M  V30 16741 C 1582.64 1.4835 3.25157 0
M  V30 16742 S 1584.2 1.3971 4.15964 0
M  V30 16743 H 1581.02 0.327715 0.630971 0
M  V30 16744 H 1583.62 1.44796 1.31355 0
M  V30 16745 H 1582.33 2.54219 3.22181 0
M  V30 16746 H 1581.86 0.942887 3.81934 0
M  V30 16747 H 1583.87 0.37691 4.94766 0
M  V30 16748 N 1583.05 -1.27244 0.929878 0
M  V30 16749 C 1584.32 -1.89369 0.489774 0
M  V30 16750 C 1584.7 -1.84142 -1.03222 0
M  V30 16751 O 1584.05 -1.2881 -1.88733 0
M  V30 16752 C 1584.26 -3.33196 1.03833 0
M  V30 16753 C 1585.61 -4.101 1.10013 0
M  V30 16754 O 1586.63 -3.42221 0.988106 0
M  V30 16755 O 1585.49 -5.31468 1.27296 0
M  V30 16756 H 1582.59 -0.811789 0.157882 0
M  V30 16757 H 1585.13 -1.35496 1.02171 0
M  V30 16758 H 1583.9 -3.31304 2.08214 0
M  V30 16759 H 1583.53 -3.94592 0.488167 0
M  V30 16760 N 1584.52 -0.695628 -1.41417 0
M  V30 16761 C 1585.75 -0.234163 -2.06074 0
M  V30 16762 C 1586.17 1.10796 -1.52006 0
M  V30 16763 O 1585.53 1.6936 -0.64705 0
M  V30 16764 C 1585.58 -0.202353 -3.60032 0
M  V30 16765 O 1584.68 0.822767 -4.04109 0
M  V30 16766 H 1584.02 -0.114395 -0.654072 0
M  V30 16767 H 1586.55 -0.950503 -1.81181 0
M  V30 16768 H 1586.56 -0.0332321 -4.07986 0
M  V30 16769 H 1585.24 -1.18188 -3.98754 0
M  V30 16770 H 1583.82 0.622995 -3.67659 0
M  V30 16771 N 1586 1.51322 -0.440383 0
M  V30 16772 C 1586.95 2.27823 0.369526 0
M  V30 16773 C 1587.92 1.31543 1.01418 0
M  V30 16774 O 1589.1 1.60449 1.03251 0
M  V30 16775 C 1586.24 3.12553 1.46304 0
M  V30 16776 C 1585.36 4.23829 0.836217 0
M  V30 16777 C 1584.49 4.95865 1.90504 0
M  V30 16778 C 1583.53 5.99058 1.25681 0
M  V30 16779 N 1582.67 6.64489 2.26712 0
M  V30 16780 H 1587.51 2.96593 -0.289205 0
M  V30 16781 H 1585.04 1.46287 -0.154466 0
M  V30 16782 H 1587 3.60006 2.10836 0
M  V30 16783 H 1585.63 2.4589 2.09136 0
M  V30 16784 H 1584.68 3.80318 0.0791116 0
M  V30 16785 H 1586 4.97753 0.322989 0
M  V30 16786 H 1585.15 5.46881 2.6269 0
M  V30 16787 H 1583.89 4.21578 2.452 0
M  V30 16788 H 1582.89 5.47331 0.520422 0
M  V30 16789 H 1584.12 6.75303 0.717138 0
M  V30 16790 H 1582.07 5.93014 2.80483 0
M  V30 16791 H 1581.98 7.34188 1.80289 0
M  V30 16792 H 1583.25 7.20134 2.98373 0
M  V30 16793 N 1587.48 0.171848 1.5666 0
M  V30 16794 C 1588.9 -0.184312 1.58532 0
M  V30 16795 C 1589.1 -1.62811 1.18721 0
M  V30 16796 O 1588.15 -2.35951 0.899066 0
M  V30 16797 C 1589.46 0.0969826 3.00544 0
M  V30 16798 C 1591.01 0.0352364 3.1298 0
M  V30 16799 C 1591.49 0.289528 4.57084 0
M  V30 16800 N 1592.98 0.237322 4.62592 0
M  V30 16801 C 1593.71 0.408247 5.71945 0
M  V30 16802 N 1593.21 0.638256 6.89854 0
M  V30 16803 N 1595 0.344115 5.61046 0
M  V30 16804 H 1587.15 1.11427 1.80825 0
M  V30 16805 H 1589.42 0.44302 0.838115 0
M  V30 16806 H 1589.12 1.09717 3.34148 0
M  V30 16807 H 1589 -0.611157 3.72216 0
M  V30 16808 H 1591.38 -0.955531 2.79202 0
M  V30 16809 H 1591.46 0.776095 2.43743 0
M  V30 16810 H 1591.11 1.27751 4.91571 0
M  V30 16811 H 1591.04 -0.471948 5.24481 0
M  V30 16812 H 1593.53 0.0652142 3.77844 0
M  V30 16813 H 1593.84 0.758116 7.69072 0
M  V30 16814 H 1592.19 0.674877 6.91716 0
M  V30 16815 H 1595.38 0.165008 4.67809 0
M  V30 16816 H 1595.55 0.480749 6.46214 0
M  V30 16817 N 1588.96 -1.5727 -0.101874 0
M  V30 16818 C 1590.21 -1.85375 -0.805007 0
M  V30 16819 C 1590.53 -0.759564 -1.79599 0
M  V30 16820 O 1589.8 0.21484 -1.94718 0
M  V30 16821 H 1588.38 -0.683987 -0.300284 0
M  V30 16822 H 1591.04 -1.94714 -0.0851166 0
M  V30 16823 H 1590.13 -2.81881 -1.33976 0
M  V30 16824 N 1590.44 0.372521 -1.53134 0
M  V30 16825 C 1591.67 1.13503 -1.72628 0
M  V30 16826 C 1592.07 1.83725 -0.451877 0
M  V30 16827 O 1591.42 1.74152 0.584539 0
M  V30 16828 C 1591.48 2.21445 -2.832 0
M  V30 16829 C 1591.14 1.7105 -4.23782 0
M  V30 16830 C 1592.14 1.17832 -5.06371 0
M  V30 16831 C 1589.82 1.76773 -4.70167 0
M  V30 16832 C 1591.82 0.710049 -6.33433 0
M  V30 16833 C 1589.51 1.29558 -5.97208 0
M  V30 16834 C 1590.5 0.767634 -6.78673 0
M  V30 16835 O 1590.19 0.302432 -8.03331 0
M  V30 16836 H 1589.92 0.3456 -0.580979 0
M  V30 16837 H 1592.48 0.439479 -2.00643 0
M  V30 16838 H 1590.71 2.94473 -2.50644 0
M  V30 16839 H 1592.4 2.83036 -2.90939 0
M  V30 16840 H 1593.16 1.12754 -4.71711 0
M  V30 16841 H 1589.04 2.16808 -4.06836 0
M  V30 16842 H 1592.59 0.297293 -6.96966 0
M  V30 16843 H 1588.48 1.34327 -6.31369 0
M  V30 16844 H 1589.25 0.4224 -8.17409 0
M  V30 16845 N 1591.91 1.44376 0.631925 0
M  V30 16846 C 1593.16 1.46398 1.38747 0
M  V30 16847 C 1593.48 0.100149 1.95343 0
M  V30 16848 O 1594.68 -0.00210908 2.715 0
M  V30 16849 C 1593.14 2.57731 2.51203 0
M  V30 16850 C 1592.75 4.00317 2.01123 0
M  V30 16851 C 1594.49 2.68972 3.28412 0
M  V30 16852 C 1592.4 5.03075 3.10917 0
M  V30 16853 H 1591.33 0.544667 0.521396 0
M  V30 16854 H 1593.98 1.70439 0.679912 0
M  V30 16855 H 1592.36 2.26928 3.2453 0
M  V30 16856 H 1593.53 4.40683 1.34666 0
M  V30 16857 H 1591.85 3.93311 1.36732 0
M  V30 16858 H 1594.45 3.42916 4.10259 0
M  V30 16859 H 1594.79 1.74762 3.77841 0
M  V30 16860 H 1595.32 2.9918 2.62176 0
M  V30 16861 H 1592.06 5.98911 2.66433 0
M  V30 16862 H 1591.58 4.67302 3.76017 0
M  V30 16863 H 1593.26 5.2674 3.75705 0
M  V30 16864 N 1593.39 -0.872258 1.31261 0
M  V30 16865 C 1594.63 -1.63914 1.22113 0
M  V30 16866 C 1595 -1.9076 -0.217873 0
M  V30 16867 O 1596.2 -2.65293 -0.432812 0
M  V30 16868 C 1594.47 -2.93498 2.03945 0
M  V30 16869 S 1596.03 -3.84391 2.11634 0
M  V30 16870 H 1592.84 -0.562434 0.434959 0
M  V30 16871 H 1595.45 -1.03435 1.65896 0
M  V30 16872 H 1594.15 -2.71695 3.07587 0
M  V30 16873 H 1593.68 -3.59004 1.60872 0
M  V30 16874 H 1595.7 -4.8012 1.25298 0
M  V30 16875 N 1594.87 -1.14184 -1.08627 0
M  V30 16876 C 1595.8 -0.784492 -2.15356 0
M  V30 16877 C 1596.81 0.197581 -1.61597 0
M  V30 16878 O 1598 -0.0238037 -1.78484 0
M  V30 16879 C 1595.1 -0.143433 -3.38596 0
M  V30 16880 C 1594.28 -1.15967 -4.21747 0
M  V30 16881 C 1593.34 -0.542786 -5.23393 0
M  V30 16882 O 1592.36 -1.20512 -5.56296 0
M  V30 16883 N 1593.56 0.681466 -5.76486 0
M  V30 16884 H 1596.33 -1.70294 -2.46617 0
M  V30 16885 H 1593.89 -1.03596 -1.24417 0
M  V30 16886 H 1595.88 0.281703 -4.03718 0
M  V30 16887 H 1594.45 0.67811 -3.05156 0
M  V30 16888 H 1593.67 -1.76182 -3.52638 0
M  V30 16889 H 1594.96 -1.84623 -4.74122 0
M  V30 16890 H 1594.36 1.23819 -5.51983 0
M  V30 16891 H 1592.91 1.04914 -6.43301 0
M  V30 16892 N 1596.35 1.26749 -0.936613 0
M  V30 16893 C 1597.58 1.98059 -0.598357 0
M  V30 16894 C 1597.99 1.6979 0.825646 0
M  V30 16895 O 1597.35 0.963514 1.54992 0
M  V30 16896 C 1597.4 3.51948 -0.825519 0
M  V30 16897 O 1597.12 3.79232 -2.19351 0
M  V30 16898 C 1598.62 4.40503 -0.497186 0
M  V30 16899 H 1595.84 0.631826 -0.225914 0
M  V30 16900 H 1598.39 1.61379 -1.25607 0
M  V30 16901 H 1596.54 3.86806 -0.214479 0
M  V30 16902 H 1596.95 4.73782 -2.25014 0
M  V30 16903 H 1598.43 5.47457 -0.706779 0
M  V30 16904 H 1598.91 4.35516 0.567645 0
M  V30 16905 H 1599.51 4.11181 -1.08675 0
M  V30 16906 N 1597.83 0.703118 1.41046 0
M  V30 16907 C 1599.24 0.375417 1.55122 0
M  V30 16908 C 1599.44 -1.11696 1.67709 0
M  V30 16909 O 1598.5 -1.90289 1.65971 0
M  V30 16910 C 1599.81 1.13056 2.78638 0
M  V30 16911 C 1601.36 1.11564 2.92442 0
M  V30 16912 C 1601.83 1.85268 4.18855 0
M  V30 16913 N 1603.33 1.82275 4.25829 0
M  V30 16914 C 1604.06 2.36137 5.2252 0
M  V30 16915 N 1603.56 2.98502 6.25195 0
M  V30 16916 N 1605.35 2.26349 5.14512 0
M  V30 16917 H 1597.5 1.67096 1.31121 0
M  V30 16918 H 1599.76 0.705573 0.633144 0
M  V30 16919 H 1599.47 2.18524 2.75572 0
M  V30 16920 H 1599.34 0.714037 3.7038 0
M  V30 16921 H 1601.73 0.0691901 2.95019 0
M  V30 16922 H 1601.81 1.57128 2.01853 0
M  V30 16923 H 1601.46 2.89896 4.1704 0
M  V30 16924 H 1601.39 1.37133 5.08431 0
M  V30 16925 H 1603.88 1.36812 3.52265 0
M  V30 16926 H 1604.19 3.37149 6.95378 0
M  V30 16927 H 1602.53 3.02582 6.25675 0
M  V30 16928 H 1605.73 1.77294 4.33226 0
M  V30 16929 H 1605.9 2.68629 5.89697 0
M  V30 16930 N 1599.3 -1.51086 0.448402 0
M  V30 16931 C 1600.53 -2.07081 -0.115038 0
M  V30 16932 C 1600.95 -1.31253 -1.34737 0
M  V30 16933 O 1600.31 -0.353613 -1.77818 0
M  V30 16934 C 1600.36 -3.58321 -0.404803 0
M  V30 16935 O 1599.46 -3.84567 -1.48936 0
M  V30 16936 H 1598.81 -0.663993 0.00299118 0
M  V30 16937 H 1601.34 -1.94564 0.632921 0
M  V30 16938 H 1601.35 -4.02756 -0.652013 0
M  V30 16939 H 1600.02 -4.12934 0.495838 0
M  V30 16940 H 1598.6 -3.51987 -1.23124 0
M  V30 16941 N 1600.78 -0.180154 -1.56567 0
M  V30 16942 C 1602.06 0.509347 -1.88852 0
M  V30 16943 C 1602.44 1.80697 -1.09141 0
M  V30 16944 O 1601.79 2.27726 -0.187974 0
M  V30 16945 C 1602 0.742669 -3.41006 0
M  V30 16946 C 1603.35 1.06873 -4.1093 0
M  V30 16947 O 1604.37 0.830907 -3.46373 0
M  V30 16948 O 1603.23 1.51784 -5.24999 0
M  V30 16949 H 1600.32 0.263629 -0.783855 0
M  V30 16950 H 1602.87 -0.219251 -1.68278 0
M  V30 16951 H 1601.64 -0.17431 -3.90912 0
M  V30 16952 H 1601.26 1.52427 -3.67222 0
M  V30 16953 N 1602.26 1.57322 0.0935319 0
M  V30 16954 C 1603.67 1.75099 0.64787 0
M  V30 16955 C 1604.02 0.802558 1.79035 0
M  V30 16956 O 1603.15 -0.0185803 2.16392 0
M  V30 16957 C 1603.74 3.17512 1.18203 0
M  V30 16958 C 1602.3 3.36707 1.68242 0
M  V30 16959 C 1601.45 2.70893 0.592649 0
M  V30 16960 H 1604.4 1.58146 -0.132546 0
M  V30 16961 H 1604.42 3.2047 2.05132 0
M  V30 16962 H 1603.93 3.86516 0.350297 0
M  V30 16963 H 1602.03 2.72784 2.5381 0
M  V30 16964 H 1602.15 4.45033 1.77433 0
M  V30 16965 H 1600.51 2.32835 1.03248 0
M  V30 16966 H 1601.29 3.42539 -0.228529 0
M  V30 16967 N 1603.74 -0.364395 1.53329 0
M  V30 16968 C 1604.96 -1.13196 1.73786 0
M  V30 16969 C 1605.39 -1.82231 0.466224 0
M  V30 16970 O 1604.75 -1.71778 -0.579817 0
M  V30 16971 C 1604.79 -2.13704 2.90453 0
M  V30 16972 O 1603.9 -3.20808 2.59144 0
M  V30 16973 H 1603.24 -0.328387 0.577112 0
M  V30 16974 H 1605.77 -0.421157 2.00218 0
M  V30 16975 H 1605.78 -2.57285 3.16652 0
M  V30 16976 H 1604.45 -1.6285 3.82691 0
M  V30 16977 H 1603.03 -2.82192 2.43767 0
M  V30 16978 N 1605.22 -1.44709 -0.62426 0
M  V30 16979 C 1606.15 -1.54934 -1.74693 0
M  V30 16980 C 1607.13 -0.401897 -1.65284 0
M  V30 16981 O 1608.31 -0.622906 -1.83939 0
M  V30 16982 C 1605.44 -1.49976 -3.13248 0
M  V30 16983 C 1604.4 -2.63267 -3.37453 0
M  V30 16984 C 1603.72 -2.43362 -4.76108 0
M  V30 16985 C 1605.02 -4.0538 -3.2934 0
M  V30 16986 H 1606.72 -2.48905 -1.66393 0
M  V30 16987 H 1604.26 -1.19794 -0.799088 0
M  V30 16988 H 1606.22 -1.55729 -3.91569 0
M  V30 16989 H 1604.94 -0.525254 -3.22349 0
M  V30 16990 H 1603.6 -2.56915 -2.61515 0
M  V30 16991 H 1603.25 -1.44088 -4.81921 0
M  V30 16992 H 1602.95 -3.19324 -4.93261 0
M  V30 16993 H 1604.47 -2.50943 -5.56651 0
M  V30 16994 H 1605.88 -4.13064 -3.97556 0
M  V30 16995 H 1604.28 -4.81599 -3.58025 0
M  V30 16996 H 1605.35 -4.28465 -2.27038 0
M  V30 16997 N 1606.69 0.865285 -1.31722 0
M  V30 16998 C 1607.92 1.65137 -1.24649 0
M  V30 16999 C 1608.34 1.87868 0.187391 0
M  V30 17000 O 1607.69 1.44015 1.12098 0
M  V30 17001 C 1607.75 3.0167 -1.99193 0
M  V30 17002 O 1607.47 2.79951 -3.36985 0
M  V30 17003 C 1608.97 3.96115 -1.99017 0
M  V30 17004 H 1606.19 0.514683 -0.430514 0
M  V30 17005 H 1608.73 1.07971 -1.73674 0
M  V30 17006 H 1606.89 3.55511 -1.53918 0
M  V30 17007 H 1607.3 3.66706 -3.75002 0
M  V30 17008 H 1608.77 4.89217 -2.55677 0
M  V30 17009 H 1609.25 4.28268 -0.973815 0
M  V30 17010 H 1609.86 3.4821 -2.44192 0
M  V30 17011 N 1608.17 1.14759 1.0802 0
M  V30 17012 C 1609.12 0.833824 2.17141 0
M  V30 17013 C 1610.11 -0.189939 1.68332 0
M  V30 17014 O 1611.32 -0.0456447 1.79942 0
M  V30 17015 H 1607.7 0.251944 0.70854 0
M  V30 17016 H 1609.67 1.76196 2.40827 0
M  V30 17017 C 1608.42 0.33203 3.46111 0
M  V30 17018 H 1607.74 1.11117 3.84048 0
M  V30 17019 H 1609.18 0.151078 4.23731 0
M  V30 17020 C 1607.64 -0.945153 3.2337 0
M  V30 17021 O 1608.17 -2.0181 3.47326 0
M  V30 17022 N 1606.37 -0.881963 2.76893 0
M  V30 17023 H 1605.92 -0.00865768 2.57599 0
M  V30 17024 H 1605.88 -1.73706 2.62056 0
M  V30 17025 N 1609.65 -1.26251 0.943322 0
M  V30 17026 C 1611.06 -1.75591 0.634391 0
M  V30 17027 C 1611.41 -1.76812 -0.850406 0
M  V30 17028 O 1610.54 -1.38162 -1.66554 0
M  V30 17029 C 1611.13 -3.18871 1.14484 0
M  V30 17030 C 1609.69 -3.65817 0.886285 0
M  V30 17031 C 1608.84 -2.4523 1.2945 0
M  V30 17032 H 1611.79 -1.12297 1.12139 0
M  V30 17033 H 1611.81 -3.77205 0.499654 0
M  V30 17034 H 1611.32 -3.17951 2.22551 0
M  V30 17035 H 1609.42 -3.72165 -0.179913 0
M  V30 17036 H 1609.54 -4.54523 1.5148 0
M  V30 17037 H 1607.9 -2.44519 0.712919 0
M  V30 17038 H 1608.68 -2.47009 2.38415 0
M  V30 17039 N 1611.13 -0.710588 -1.40671 0
M  V30 17040 C 1612.54 -0.320926 -1.83921 0
M  V30 17041 C 1612.89 1.14358 -1.59426 0
M  V30 17042 O 1612.02 1.87952 -1.07252 0
M  V30 17043 C 1612.61 -0.5757 -3.33873 0
M  V30 17044 C 1611.17 -0.239799 -3.75635 0
M  V30 17045 C 1610.32 -0.850552 -2.63934 0
M  V30 17046 H 1613.27 -0.910118 -1.3001 0
M  V30 17047 H 1613.29 0.160707 -3.8016 0
M  V30 17048 H 1612.8 -1.64166 -3.51669 0
M  V30 17049 H 1610.9 0.821297 -3.63436 0
M  V30 17050 H 1611.02 -0.705306 -4.7388 0
M  V30 17051 H 1609.38 -0.278977 -2.53168 0
M  V30 17052 H 1610.16 -1.92068 -2.84543 0
M  V30 17053 N 1612.61 1.50847 -0.456408 0
M  V30 17054 C 1613.57 2.26755 0.33388 0
M  V30 17055 C 1614.57 1.30947 0.933247 0
M  V30 17056 O 1615.76 1.54499 0.804716 0
M  V30 17057 C 1612.89 3.07378 1.47417 0
M  V30 17058 H 1614.09 2.98061 -0.331634 0
M  V30 17059 H 1611.64 1.54882 -0.210067 0
M  V30 17060 H 1612.37 2.40534 2.17518 0
M  V30 17061 H 1612.16 3.7777 1.05036 0
M  V30 17062 H 1613.65 3.64826 2.03204 0
M  V30 17063 N 1614.09 0.188454 1.56469 0
M  V30 17064 C 1615.31 -0.457846 2.01771 0
M  V30 17065 C 1615.73 -1.55646 1.06863 0
M  V30 17066 O 1615.09 -1.82356 0.0723619 0
M  V30 17067 C 1615.14 -1.02032 3.46802 0
M  V30 17068 O 1614.86 0.0344536 4.38086 0
M  V30 17069 C 1616.36 -1.74316 4.07589 0
M  V30 17070 H 1613.58 -0.115594 0.660968 0
M  V30 17071 H 1616.12 0.295213 2.02358 0
M  V30 17072 H 1614.28 -1.7238 3.46935 0
M  V30 17073 H 1614.69 -0.383254 5.23098 0
M  V30 17074 H 1616.17 -2.08912 5.1094 0
M  V30 17075 H 1616.64 -2.64445 3.50665 0
M  V30 17076 H 1617.25 -1.0857 4.11209 0
M  V30 17077 N 1615.56 -1.5737 -0.0851874 0
M  V30 17078 C 1616.81 -1.85772 -0.785604 0
M  V30 17079 C 1617.13 -0.779172 -1.79411 0
M  V30 17080 O 1618.33 -0.950621 -2.54314 0
M  V30 17081 C 1616.79 -3.29484 -1.44805 0
M  V30 17082 C 1616.4 -4.45434 -0.478799 0
M  V30 17083 C 1618.14 -3.671 -2.13161 0
M  V30 17084 C 1616.05 -5.80183 -1.1464 0
M  V30 17085 H 1614.98 -0.69298 -0.297145 0
M  V30 17086 H 1617.63 -1.83459 -0.0386776 0
M  V30 17087 H 1616.01 -3.26367 -2.24278 0
M  V30 17088 H 1617.18 -4.59917 0.285148 0
M  V30 17089 H 1615.5 -4.16281 0.0995964 0
M  V30 17090 H 1618.1 -4.65061 -2.6386 0
M  V30 17091 H 1618.44 -2.96223 -2.92503 0
M  V30 17092 H 1618.97 -3.72148 -1.40536 0
M  V30 17093 H 1615.71 -6.54317 -0.393583 0
M  V30 17094 H 1615.23 -5.69525 -1.88153 0
M  V30 17095 H 1616.91 -6.25074 -1.67006 0
M  V30 17096 N 1617.04 0.356258 -1.53521 0
M  V30 17097 C 1617.97 1.45722 -1.76912 0
M  V30 17098 C 1618.99 1.49257 -0.650091 0
M  V30 17099 O 1620.18 1.52569 -0.926557 0
M  V30 17100 C 1617.28 2.84444 -1.84241 0
M  V30 17101 C 1616.45 3.04497 -3.14007 0
M  V30 17102 C 1615.51 4.23387 -3.12458 0
M  V30 17103 O 1614.53 4.18113 -3.86225 0
M  V30 17104 N 1615.74 5.31278 -2.33931 0
M  V30 17105 H 1618.5 1.26031 -2.71912 0
M  V30 17106 H 1616.06 0.546052 -1.52414 0
M  V30 17107 H 1618.05 3.62133 -1.80671 0
M  V30 17108 H 1616.62 2.97338 -0.96484 0
M  V30 17109 H 1615.84 2.14387 -3.30805 0
M  V30 17110 H 1617.13 3.14769 -3.99747 0
M  V30 17111 H 1616.53 5.38428 -1.73527 0
M  V30 17112 H 1615.09 6.07508 -2.36171 0
M  V30 17113 N 1618.52 1.45038 0.616577 0
M  V30 17114 C 1619.75 1.52094 1.40267 0
M  V30 17115 C 1620.16 0.150558 1.88199 0
M  V30 17116 O 1619.52 -0.846258 1.61693 0
M  V30 17117 C 1619.57 2.49786 2.61322 0
M  V30 17118 O 1619.29 3.81498 2.15385 0
M  V30 17119 C 1620.79 2.66451 3.54286 0
M  V30 17120 H 1618.01 0.515378 0.429681 0
M  V30 17121 H 1620.56 1.90141 0.752768 0
M  V30 17122 H 1618.71 2.14835 3.22373 0
M  V30 17123 H 1619.13 4.34374 2.93972 0
M  V30 17124 H 1620.6 3.38802 4.35795 0
M  V30 17125 H 1621.08 1.72177 4.04044 0
M  V30 17126 H 1621.68 3.02362 2.99095 0
M  V30 17127 N 1620 -0.858287 1.32179 0
M  V30 17128 C 1621.27 -1.59548 1.13154 0
M  V30 17129 C 1621.65 -2.0882 -0.309439 0
M  V30 17130 O 1621 -1.87536 -1.30547 0
M  V30 17131 C 1621.21 -2.74443 2.15597 0
M  V30 17132 C 1622.56 -3.44115 2.48737 0
M  V30 17133 O 1623.58 -2.84664 2.14114 0
M  V30 17134 O 1622.44 -4.51389 3.08074 0
M  V30 17135 H 1619.54 -0.702481 0.436405 0
M  V30 17136 H 1622.08 -0.902731 1.43697 0
M  V30 17137 H 1620.86 -2.35533 3.12473 0
M  V30 17138 H 1620.48 -3.51397 1.86028 0
M  V30 17139 N 1621.48 -1.1533 -1.07409 0
M  V30 17140 C 1622.72 -0.925974 -1.79639 0
M  V30 17141 C 1623.04 0.548365 -1.87131 0
M  V30 17142 O 1622.31 1.39854 -1.37178 0
M  V30 17143 H 1620.89 -0.339599 -0.665343 0
M  V30 17144 H 1623.56 -1.45383 -1.29806 0
M  V30 17145 H 1622.65 -1.33484 -2.82114 0
M  V30 17146 N 1622.95 1.25748 -0.950004 0
M  V30 17147 C 1624.2 1.93336 -0.602294 0
M  V30 17148 C 1624.53 1.74454 0.859994 0
M  V30 17149 O 1623.78 1.08032 1.6318 0
M  V30 17150 C 1624.08 3.45843 -0.901521 0
M  V30 17151 C 1623.75 3.84874 -2.3491 0
M  V30 17152 C 1622.41 3.9524 -2.74479 0
M  V30 17153 C 1624.76 4.04286 -3.28941 0
M  V30 17154 C 1622.09 4.22422 -4.07157 0
M  V30 17155 C 1624.44 4.32959 -4.61225 0
M  V30 17156 C 1623.11 4.41541 -5.00597 0
M  V30 17157 H 1622.38 0.707465 -0.220395 0
M  V30 17158 H 1625.02 1.49386 -1.19817 0
M  V30 17159 H 1623.33 3.91164 -0.2232 0
M  V30 17160 H 1625.03 3.96316 -0.611134 0
M  V30 17161 H 1621.62 3.77358 -2.03221 0
M  V30 17162 H 1625.8 3.95697 -2.99563 0
M  V30 17163 H 1621.06 4.27281 -4.37311 0
M  V30 17164 H 1625.23 4.46925 -5.3407 0
M  V30 17165 H 1622.86 4.62358 -6.03431 0
M  V30 17166 N 1624.43 0.718038 1.40292 0
M  V30 17167 C 1625.68 0.258986 2.0114 0
M  V30 17168 C 1626.01 -1.1456 1.56811 0
M  V30 17169 O 1625.29 -1.77766 0.789276 0
M  V30 17170 C 1625.57 0.341778 3.58474 0
M  V30 17171 C 1625.42 1.78492 4.12869 0
M  V30 17172 C 1626.74 -0.285622 4.39172 0
M  V30 17173 H 1623.86 0.0955806 0.730776 0
M  V30 17174 H 1626.5 0.911 1.66736 0
M  V30 17175 H 1624.65 -0.213354 3.87914 0
M  V30 17176 H 1626.32 2.39562 3.94218 0
M  V30 17177 H 1624.57 2.31183 3.67065 0
M  V30 17178 H 1625.24 1.79423 5.22026 0
M  V30 17179 H 1627.71 0.187411 4.15678 0
M  V30 17180 H 1626.59 -0.19726 5.48545 0
M  V30 17181 H 1626.85 -1.36947 4.20355 0
M  V30 17182 N 1625.91 -1.50602 0.464402 0
M  V30 17183 C 1626.86 -2.28382 -0.333234 0
M  V30 17184 C 1627.83 -1.3314 -0.993125 0
M  V30 17185 O 1629.01 -1.62072 -1.00685 0
M  V30 17186 C 1626.15 -3.14841 -1.41313 0
M  V30 17187 C 1625.27 -4.25106 -0.768684 0
M  V30 17188 C 1624.4 -4.98833 -1.82591 0
M  V30 17189 C 1623.44 -6.00982 -1.16135 0
M  V30 17190 N 1622.58 -6.68012 -2.16112 0
M  V30 17191 H 1627.42 -2.96096 0.336354 0
M  V30 17192 H 1624.95 -1.46022 0.17772 0
M  V30 17193 H 1626.91 -3.63314 -2.05082 0
M  V30 17194 H 1625.54 -2.49186 -2.05197 0
M  V30 17195 H 1624.59 -3.80395 -0.0185964 0
M  V30 17196 H 1625.91 -4.98204 -0.243759 0
M  V30 17197 H 1625.06 -5.50991 -2.53957 0
M  V30 17198 H 1623.8 -4.25426 -2.38462 0
M  V30 17199 H 1622.8 -5.4809 -0.43328 0
M  V30 17200 H 1624.03 -6.76358 -0.609612 0
M  V30 17201 H 1621.97 -5.97401 -2.71013 0
M  V30 17202 H 1621.89 -7.36963 -1.68586 0
M  V30 17203 H 1623.16 -7.2479 -2.86879 0
M  V30 17204 N 1627.39 -0.19675 -1.56367 0
M  V30 17205 C 1628.62 0.446491 -2.01718 0
M  V30 17206 C 1629.03 1.55621 -1.07604 0
M  V30 17207 O 1628.37 1.83553 -0.0733943 0
M  V30 17208 C 1628.43 1.06182 -3.43461 0
M  V30 17209 C 1628.1 0.0906278 -4.5691 0
M  V30 17210 C 1629.09 -0.700599 -5.15158 0
M  V30 17211 C 1626.78 -0.0209341 -5.02296 0
M  V30 17212 C 1628.77 -1.59034 -6.17241 0
M  V30 17213 C 1626.46 -0.91423 -6.04223 0
M  V30 17214 C 1627.46 -1.6975 -6.61569 0
M  V30 17215 O 1627.14 -2.57582 -7.61516 0
M  V30 17216 H 1626.88 0.116254 -0.665929 0
M  V30 17217 H 1629.43 -0.303224 -2.03149 0
M  V30 17218 H 1627.66 1.86015 -3.39021 0
M  V30 17219 H 1629.35 1.60988 -3.72609 0
M  V30 17220 H 1630.12 -0.624723 -4.8096 0
M  V30 17221 H 1625.99 0.578557 -4.57355 0
M  V30 17222 H 1629.54 -2.20215 -6.6193 0
M  V30 17223 H 1625.44 -0.991215 -6.37844 0
M  V30 17224 H 1626.2 -2.5138 -7.78942 0
M  V30 17225 N 1628.87 1.57413 0.0768405 0
M  V30 17226 C 1630.11 1.86633 0.775414 0
M  V30 17227 C 1630.44 0.788041 1.78367 0
M  V30 17228 O 1629.71 -0.183835 1.95036 0
M  V30 17229 H 1628.29 0.688678 0.289365 0
M  V30 17230 H 1630.95 1.94825 0.0541285 0
M  V30 17231 H 1630.04 2.83977 1.29474 0
M  V30 17232 N 1630.34 -0.348112 1.53707 0
M  V30 17233 C 1631.29 -1.42729 1.81375 0
M  V30 17234 C 1632.26 -1.52461 0.659159 0
M  V30 17235 O 1633.45 -1.68072 0.903129 0
M  V30 17236 C 1630.59 -2.79443 2.02498 0
M  V30 17237 C 1629.7 -2.7854 3.30211 0
M  V30 17238 C 1628.83 -4.06942 3.41426 0
M  V30 17239 C 1627.87 -4.00248 4.63106 0
M  V30 17240 N 1627.01 -5.20332 4.7138 0
M  V30 17241 H 1631.85 -1.18436 2.73454 0
M  V30 17242 H 1629.39 -0.573809 1.35447 0
M  V30 17243 H 1631.35 -3.58888 2.12733 0
M  V30 17244 H 1629.98 -3.02099 1.13737 0
M  V30 17245 H 1629.03 -1.91227 3.28841 0
M  V30 17246 H 1630.34 -2.69471 4.19746 0
M  V30 17247 H 1629.49 -4.94808 3.51069 0
M  V30 17248 H 1628.23 -4.18786 2.49939 0
M  V30 17249 H 1627.24 -3.10767 4.53546 0
M  V30 17250 H 1628.46 -3.89991 5.55953 0
M  V30 17251 H 1626.41 -5.32729 3.828 0
M  V30 17252 H 1626.33 -5.13502 5.54844 0
M  V30 17253 H 1627.59 -6.09982 4.85326 0
M  V30 17254 N 1631.82 -1.45363 -0.608876 0
M  V30 17255 C 1633.05 -1.53066 -1.39949 0
M  V30 17256 C 1633.47 -0.16369 -1.87386 0
M  V30 17257 O 1632.83 0.851432 -1.60064 0
M  V30 17258 C 1632.88 -2.51836 -2.58091 0
M  V30 17259 O 1631.98 -2.03528 -3.58678 0
M  V30 17260 H 1631.32 -0.516031 -0.417861 0
M  V30 17261 H 1633.85 -1.90705 -0.74113 0
M  V30 17262 H 1633.86 -2.706 -3.05352 0
M  V30 17263 H 1632.54 -3.51117 -2.22912 0
M  V30 17264 H 1631.12 -1.94634 -3.18075 0
M  V30 17265 N 1633.3 0.851265 -1.32632 0
M  V30 17266 C 1634.53 1.64328 -1.26535 0
M  V30 17267 C 1634.95 1.87392 0.163086 0
M  V30 17268 O 1634.31 1.42913 1.1156 0
M  V30 17269 C 1634.36 2.97781 -2.03369 0
M  V30 17270 O 1633.46 3.8849 -1.38381 0
M  V30 17271 H 1632.8 0.500864 -0.435926 0
M  V30 17272 H 1635.33 1.06 -1.75001 0
M  V30 17273 H 1635.34 3.47576 -2.1367 0
M  V30 17274 H 1634.02 2.80316 -3.07239 0
M  V30 17275 H 1632.59 3.4696 -1.36649 0
M  V30 17276 N 1634.78 1.15898 1.06796 0
M  V30 17277 C 1636.01 0.959978 1.82943 0
M  V30 17278 C 1636.42 -0.495084 1.82608 0
M  V30 17279 O 1635.76 -1.35528 1.24008 0
M  V30 17280 C 1635.82 1.40408 3.30947 0
M  V30 17281 C 1635.49 2.87801 3.54993 0
M  V30 17282 C 1636.48 3.85834 3.48465 0
M  V30 17283 C 1634.17 3.25601 3.82478 0
M  V30 17284 C 1636.16 5.19672 3.6908 0
M  V30 17285 C 1633.85 4.59609 4.02744 0
M  V30 17286 C 1634.85 5.56454 3.96041 0
M  V30 17287 O 1634.53 6.8804 4.1576 0
M  V30 17288 H 1634.27 0.340717 0.583856 0
M  V30 17289 H 1636.82 1.54211 1.35677 0
M  V30 17290 H 1635.05 0.765395 3.7905 0
M  V30 17291 H 1636.74 1.1733 3.88572 0
M  V30 17292 H 1637.51 3.57977 3.27227 0
M  V30 17293 H 1633.38 2.50803 3.86806 0
M  V30 17294 H 1636.93 5.95249 3.63764 0
M  V30 17295 H 1632.83 4.8718 4.23469 0
M  V30 17296 H 1633.59 6.94541 4.33076 0
M  V30 17297 N 1636.26 -1.25243 0.956659 0
M  V30 17298 C 1637.48 -1.97621 0.629337 0
M  V30 17299 C 1637.91 -1.70606 -0.792158 0
M  V30 17300 O 1637.26 -0.963192 -1.53598 0
M  V30 17301 C 1637.31 -3.49273 0.896687 0
M  V30 17302 O 1636.42 -4.12393 -0.0234986 0
M  V30 17303 H 1635.76 -0.619472 0.239061 0
M  V30 17304 H 1638.29 -1.5931 1.28381 0
M  V30 17305 H 1638.3 -3.99597 0.82377 0
M  V30 17306 H 1636.97 -3.68265 1.93271 0
M  V30 17307 H 1635.55 -3.72761 0.101796 0
M  V30 17308 N 1637.73 -0.725468 -1.3991 0
M  V30 17309 C 1638.66 -0.094211 -2.3331 0
M  V30 17310 C 1639.65 0.734728 -1.53414 0
M  V30 17311 O 1640.83 0.681647 -1.81844 0
M  V30 17312 C 1637.96 0.820958 -3.37457 0
M  V30 17313 C 1636.91 0.0968983 -4.2789 0
M  V30 17314 C 1636.24 1.12845 -5.22657 0
M  V30 17315 C 1637.54 -1.05483 -5.11537 0
M  V30 17316 H 1639.23 -0.874365 -2.86348 0
M  V30 17317 H 1636.78 -0.421913 -1.3768 0
M  V30 17318 H 1638.73 1.27203 -4.01743 0
M  V30 17319 H 1637.46 1.63312 -2.82837 0
M  V30 17320 H 1636.12 -0.334454 -3.65071 0
M  V30 17321 H 1635.76 1.93392 -4.64337 0
M  V30 17322 H 1635.46 0.648805 -5.84007 0
M  V30 17323 H 1636.99 1.57942 -5.89819 0
M  V30 17324 H 1638.4 -0.682657 -5.69221 0
M  V30 17325 H 1636.8 -1.46349 -5.81981 0
M  V30 17326 H 1637.87 -1.88095 -4.46932 0
M  V30 17327 N 1639.21 1.50354 -0.472382 0
M  V30 17328 C 1640.15 2.25227 0.367135 0
M  V30 17329 C 1641.12 1.28594 0.99511 0
M  V30 17330 O 1642.31 1.57819 1.03079 0
M  V30 17331 C 1639.43 3.02952 1.51452 0
M  V30 17332 C 1638.48 4.14519 1.0038 0
M  V30 17333 S 1639.31 5.35436 -0.082542 0
M  V30 17334 C 1640.47 6.16709 1.06869 0
M  V30 17335 H 1640.7 2.96086 -0.268437 0
M  V30 17336 H 1638.24 1.52241 -0.257282 0
M  V30 17337 H 1640.19 3.48324 2.17212 0
M  V30 17338 H 1638.85 2.31617 2.12161 0
M  V30 17339 H 1638.05 4.68311 1.86282 0
M  V30 17340 H 1637.65 3.7159 0.423896 0
M  V30 17341 H 1639.94 6.4792 1.98004 0
M  V30 17342 H 1640.88 7.05802 0.570008 0
M  V30 17343 H 1641.29 5.48775 1.3231 0
M  V30 17344 N 1640.69 0.205039 1.56261 0
M  V30 17345 C 1642.11 -0.150644 1.58887 0
M  V30 17346 C 1642.31 -1.60256 1.22148 0
M  V30 17347 O 1641.36 -2.33991 0.948912 0
M  V30 17348 C 1642.68 0.160711 3.0027 0
M  V30 17349 C 1644.22 0.101616 3.12835 0
M  V30 17350 C 1644.7 0.386417 4.56367 0
M  V30 17351 N 1646.19 0.335392 4.61984 0
M  V30 17352 C 1646.93 0.529473 5.7095 0
M  V30 17353 N 1646.42 0.784441 6.88345 0
M  V30 17354 N 1648.21 0.463044 5.6019 0
M  V30 17355 H 1640.37 1.15238 1.78421 0
M  V30 17356 H 1642.63 0.460698 0.82853 0
M  V30 17357 H 1642.33 1.1678 3.31746 0
M  V30 17358 H 1642.21 -0.532067 3.73429 0
M  V30 17359 H 1644.6 -0.896093 2.81166 0
M  V30 17360 H 1644.68 0.827622 2.42041 0
M  V30 17361 H 1644.32 1.38149 4.88751 0
M  V30 17362 H 1644.25 -0.360592 5.25364 0
M  V30 17363 H 1646.74 0.145346 3.7762 0
M  V30 17364 H 1647.05 0.921077 7.67291 0
M  V30 17365 H 1645.4 0.821448 6.90128 0
M  V30 17366 H 1648.59 0.2642 4.67354 0
M  V30 17367 H 1648.76 0.617712 6.45049 0
M  V30 17368 N 1642.17 -1.57451 -0.0684915 0
M  V30 17369 C 1643.1 -2.00648 -1.10783 0
M  V30 17370 C 1644.11 -0.912944 -1.34793 0
M  V30 17371 O 1645.3 -1.19079 -1.32975 0
M  V30 17372 C 1642.4 -2.33309 -2.45805 0
M  V30 17373 C 1641.58 -3.64551 -2.41704 0
M  V30 17374 C 1640.64 -3.84845 -3.5886 0
M  V30 17375 O 1639.66 -4.56392 -3.40139 0
M  V30 17376 N 1640.86 -3.27451 -4.79329 0
M  V30 17377 H 1643.63 -2.90422 -0.739938 0
M  V30 17378 H 1641.19 -1.59846 -0.257093 0
M  V30 17379 H 1643.18 -2.44056 -3.22829 0
M  V30 17380 H 1641.75 -1.49408 -2.74583 0
M  V30 17381 H 1640.97 -3.64528 -1.50043 0
M  V30 17382 H 1642.26 -4.50721 -2.36068 0
M  V30 17383 H 1641.66 -2.69384 -4.97442 0
M  V30 17384 H 1640.21 -3.43641 -5.53854 0
M  V30 17385 N 1643.65 0.339955 -1.5389 0
M  V30 17386 C 1644.59 1.41765 -1.8213 0
M  V30 17387 C 1645.56 1.52109 -0.667235 0
M  V30 17388 O 1646.75 1.67591 -0.91203 0
M  V30 17389 C 1643.89 2.78366 -2.03977 0
M  V30 17390 C 1643 2.76785 -3.31684 0
M  V30 17391 C 1642.14 4.05125 -3.4358 0
M  V30 17392 C 1641.18 3.97787 -4.65223 0
M  V30 17393 N 1640.31 5.17825 -4.74133 0
M  V30 17394 H 1645.15 1.16984 -2.74078 0
M  V30 17395 H 1642.69 0.566618 -1.35749 0
M  V30 17396 H 1644.65 3.57755 -2.14633 0
M  V30 17397 H 1643.28 3.01491 -1.15338 0
M  V30 17398 H 1642.33 1.89481 -3.2985 0
M  V30 17399 H 1643.64 2.67241 -4.2117 0
M  V30 17400 H 1642.8 4.9294 -3.53688 0
M  V30 17401 H 1641.54 4.17455 -2.52157 0
M  V30 17402 H 1640.54 3.08357 -4.55188 0
M  V30 17403 H 1641.77 3.87037 -5.58014 0
M  V30 17404 H 1639.71 5.30691 -3.8562 0
M  V30 17405 H 1639.63 5.10552 -5.5756 0
M  V30 17406 H 1640.9 6.074 -4.88554 0
M  V30 17407 N 1645.13 1.45684 0.601159 0
M  V30 17408 C 1646.37 1.50036 1.35998 0
M  V30 17409 C 1646.7 0.144645 1.93961 0
M  V30 17410 O 1645.96 -0.857502 1.75913 0
M  V30 17411 C 1646.25 2.53235 2.52204 0
M  V30 17412 C 1645.92 3.97767 2.12348 0
M  V30 17413 C 1644.58 4.37121 2.01193 0
M  V30 17414 C 1646.93 4.88636 1.8134 0
M  V30 17415 C 1644.26 5.65231 1.5726 0
M  V30 17416 C 1646.61 6.17164 1.38892 0
M  V30 17417 C 1645.28 6.55442 1.26299 0
M  V30 17418 H 1644.55 0.54902 0.497652 0
M  V30 17419 H 1647.2 1.79065 0.678833 0
M  V30 17420 H 1645.5 2.17799 3.25685 0
M  V30 17421 H 1647.2 2.53837 3.10431 0
M  V30 17422 H 1643.79 3.6665 2.21959 0
M  V30 17423 H 1647.97 4.58964 1.88853 0
M  V30 17424 H 1643.23 5.93678 1.46139 0
M  V30 17425 H 1647.4 6.87015 1.13946 0
M  V30 17426 H 1645.03 7.54609 0.920316 0
M  V30 17427 N 1646.6 -0.84422 1.33082 0
M  V30 17428 C 1647.54 -1.96055 1.18722 0
M  V30 17429 C 1648.55 -1.62361 0.119538 0
M  V30 17430 O 1649.74 -1.74634 0.369469 0
M  V30 17431 C 1646.84 -3.29387 0.797318 0
M  V30 17432 C 1646.01 -3.91253 1.95551 0
M  V30 17433 C 1645.07 -5.02932 1.54745 0
M  V30 17434 O 1644.1 -5.22367 2.26101 0
M  V30 17435 N 1645.3 -5.78758 0.449394 0
M  V30 17436 H 1648.06 -2.08912 2.14886 0
M  V30 17437 H 1645.62 -1.01966 1.25756 0
M  V30 17438 H 1647.62 -4.01517 0.506536 0
M  V30 17439 H 1646.19 -3.12514 -0.0734775 0
M  V30 17440 H 1645.41 -3.11779 2.41221 0
M  V30 17441 H 1646.69 -4.2932 2.73061 0
M  V30 17442 H 1646.09 -5.65516 -0.14428 0
M  V30 17443 H 1644.65 -6.51434 0.218264 0
M  V30 17444 N 1648.08 -1.16463 -1.0618 0
M  V30 17445 C 1649.33 -0.958238 -1.79414 0
M  V30 17446 C 1649.68 0.508463 -1.8556 0
M  V30 17447 O 1648.98 1.37239 -1.33702 0
M  V30 17448 C 1649.17 -1.52085 -3.23427 0
M  V30 17449 C 1649 -3.04073 -3.31315 0
M  V30 17450 C 1647.77 -3.72723 -3.41183 0
M  V30 17451 C 1649.97 -4.01759 -3.21082 0
M  V30 17452 N 1647.95 -5.12409 -3.38098 0
M  V30 17453 C 1649.32 -5.27836 -3.25253 0
M  V30 17454 C 1651.37 -3.93567 -3.04975 0
M  V30 17455 C 1650.08 -6.46672 -3.14972 0
M  V30 17456 C 1652.1 -5.11976 -2.96032 0
M  V30 17457 C 1651.47 -6.36932 -3.00827 0
M  V30 17458 H 1647.56 -0.404432 -0.669297 0
M  V30 17459 H 1650.15 -1.47875 -1.26653 0
M  V30 17460 H 1648.32 -1.02681 -3.74581 0
M  V30 17461 H 1650.05 -1.25209 -3.84844 0
M  V30 17462 H 1646.81 -3.2336 -3.46027 0
M  V30 17463 H 1647.23 -5.85401 -3.40052 0
M  V30 17464 H 1651.87 -2.97812 -3.00113 0
M  V30 17465 H 1649.59 -7.42648 -3.1859 0
M  V30 17466 H 1653.18 -5.07408 -2.84655 0
M  V30 17467 H 1652.06 -7.27017 -2.93966 0
M  V30 17468 N 1649.56 1.24734 -0.963288 0
M  V30 17469 C 1650.51 2.2329 -0.461019 0
M  V30 17470 C 1651.49 1.54346 0.454536 0
M  V30 17471 O 1652.69 1.74671 0.286177 0
M  V30 17472 C 1649.81 3.42376 0.251738 0
M  V30 17473 C 1648.9 4.18574 -0.682388 0
M  V30 17474 N 1649.29 4.72008 -1.81775 0
M  V30 17475 C 1647.59 4.43275 -0.492294 0
M  V30 17476 C 1648.29 5.29806 -2.40168 0
M  V30 17477 N 1647.27 5.16751 -1.68729 0
M  V30 17478 H 1651.07 2.62217 -1.32738 0
M  V30 17479 H 1648.58 1.4007 -0.821834 0
M  V30 17480 H 1650.58 4.12131 0.628756 0
M  V30 17481 H 1649.24 3.0497 1.11459 0
M  V30 17482 H 1650.25 4.68878 -2.1994 0
M  V30 17483 H 1646.93 4.16218 0.326963 0
M  V30 17484 H 1648.32 5.8188 -3.35954 0
M  V30 17485 N 1651.04 0.732878 1.39523 0
M  V30 17486 C 1651.95 0.0930216 2.34416 0
M  V30 17487 C 1652.96 -0.724309 1.58208 0
M  V30 17488 O 1654.14 -0.653267 1.90511 0
M  V30 17489 C 1651.2 -0.805036 3.37224 0
M  V30 17490 C 1650.27 0.0243049 4.29293 0
M  V30 17491 C 1649.5 -0.830984 5.27191 0
M  V30 17492 O 1649.72 -2.06977 5.31523 0
M  V30 17493 O 1648.66 -0.260772 6.01335 0
M  V30 17494 H 1652.48 0.876179 2.90786 0
M  V30 17495 H 1650.07 0.493525 1.41013 0
M  V30 17496 H 1651.95 -1.31894 4.00228 0
M  V30 17497 H 1650.62 -1.56704 2.83241 0
M  V30 17498 H 1649.53 0.583677 3.69519 0
M  V30 17499 H 1650.86 0.748485 4.86476 0
M  V30 17500 N 1652.52 -1.50101 0.480349 0
M  V30 17501 C 1653.48 -2.27258 -0.297763 0
M  V30 17502 C 1654.48 -1.32415 -0.912296 0
M  V30 17503 O 1655.67 -1.5576 -0.780035 0
M  V30 17504 C 1652.8 -3.09684 -1.42508 0
M  V30 17505 H 1653.99 -2.97495 0.379011 0
M  V30 17506 H 1651.55 -1.54528 0.234681 0
M  V30 17507 H 1652.28 -2.43964 -2.13663 0
M  V30 17508 H 1652.07 -3.79393 -0.990125 0
M  V30 17509 H 1653.56 -3.68013 -1.97374 0
M  V30 17510 N 1653.99 -0.213323 -1.5615 0
M  V30 17511 C 1654.9 0.711703 -2.23544 0
M  V30 17512 C 1655.92 1.22027 -1.24038 0
M  V30 17513 O 1657.1 1.26361 -1.56828 0
M  V30 17514 C 1654.16 1.90645 -2.89578 0
M  V30 17515 C 1653.22 1.44066 -4.04405 0
M  V30 17516 C 1652.45 2.57846 -4.6728 0
M  V30 17517 O 1652.68 3.75781 -4.29121 0
M  V30 17518 O 1651.61 2.29518 -5.56422 0
M  V30 17519 H 1655.44 0.167635 -3.03237 0
M  V30 17520 H 1653.02 0.016771 -1.49391 0
M  V30 17521 H 1654.9 2.60435 -3.31288 0
M  V30 17522 H 1653.58 2.43877 -2.12851 0
M  V30 17523 H 1652.49 0.711024 -3.67281 0
M  V30 17524 H 1653.82 0.954809 -4.8285 0
M  V30 17525 N 1655.47 1.57485 0.0601405 0
M  V30 17526 C 1656.7 1.92051 0.769681 0
M  V30 17527 C 1657.12 0.810364 1.70524 0
M  V30 17528 O 1656.47 -0.215527 1.81223 0
M  V30 17529 C 1656.52 3.26423 1.55339 0
M  V30 17530 O 1656.24 4.3317 0.655423 0
M  V30 17531 C 1657.75 3.75076 2.36289 0
M  V30 17532 H 1654.97 0.63454 0.218175 0
M  V30 17533 H 1657.51 2.04482 0.0269308 0
M  V30 17534 H 1655.66 3.15483 2.24831 0
M  V30 17535 H 1656.08 5.10548 1.20171 0
M  V30 17536 H 1657.55 4.71695 2.86719 0
M  V30 17537 H 1658.03 3.04677 3.16336 0
M  V30 17538 H 1658.64 3.88998 1.71932 0
M  V30 17539 N 1656.95 -0.331789 1.54068 0
M  V30 17540 C 1658.18 -1.08886 1.75577 0
M  V30 17541 C 1658.59 -1.82462 0.50043 0
M  V30 17542 O 1657.93 -1.7564 -0.53816 0
M  V30 17543 C 1657.99 -2.13858 2.88972 0
M  V30 17544 C 1657.66 -1.59754 4.28168 0
M  V30 17545 C 1658.65 -1.04365 5.09317 0
M  V30 17546 C 1656.34 -1.64245 4.74688 0
M  V30 17547 C 1658.33 -0.541856 6.35093 0
M  V30 17548 C 1656.02 -1.13679 6.00433 0
M  V30 17549 C 1657.02 -0.587426 6.80469 0
M  V30 17550 O 1656.71 -0.0893367 8.0385 0
M  V30 17551 H 1656.44 -0.330075 0.589938 0
M  V30 17552 H 1658.99 -0.386127 2.01738 0
M  V30 17553 H 1657.22 -2.87724 2.58363 0
M  V30 17554 H 1658.91 -2.75223 2.98341 0
M  V30 17555 H 1659.68 -1.00208 4.74535 0
M  V30 17556 H 1655.56 -2.05945 4.12441 0
M  V30 17557 H 1659.1 -0.1124 6.97509 0
M  V30 17558 H 1655 -1.1754 6.34708 0
M  V30 17559 H 1655.77 -0.205529 8.18242 0
M  V30 17560 N 1658.43 -1.46001 -0.593424 0
M  V30 17561 C 1659.67 -1.52306 -1.36317 0
M  V30 17562 C 1660.03 -0.166331 -1.91278 0
M  V30 17563 O 1661.23 -0.104106 -2.68598 0
M  V30 17564 C 1659.5 -2.58303 -2.47011 0
M  V30 17565 S 1661.06 -2.83936 -3.34553 0
M  V30 17566 H 1657.88 -0.538241 -0.464562 0
M  V30 17567 H 1660.48 -1.8317 -0.683308 0
M  V30 17568 H 1659.19 -3.55528 -2.05007 0
M  V30 17569 H 1658.72 -2.29136 -3.19782 0
M  V30 17570 H 1660.73 -2.18391 -4.45556 0
M  V30 17571 N 1659.91 0.83715 -1.33527 0
M  V30 17572 C 1660.85 1.94709 -1.23924 0
M  V30 17573 C 1661.82 1.65684 -0.117494 0
M  V30 17574 O 1663.01 1.88489 -0.296057 0
M  V30 17575 C 1660.15 3.3071 -0.986146 0
M  V30 17576 C 1659.26 3.72121 -2.19432 0
M  V30 17577 C 1658.4 4.96999 -1.87524 0
M  V30 17578 C 1657.44 5.3095 -3.04563 0
M  V30 17579 N 1656.57 6.47006 -2.72632 0
M  V30 17580 H 1661.41 2.02255 -2.18854 0
M  V30 17581 H 1658.95 0.989703 -1.08827 0
M  V30 17582 H 1660.91 4.09065 -0.819834 0
M  V30 17583 H 1659.54 3.22716 -0.0735786 0
M  V30 17584 H 1658.59 2.89274 -2.47032 0
M  V30 17585 H 1659.9 3.93192 -3.06923 0
M  V30 17586 H 1659.06 5.83107 -1.67546 0
M  V30 17587 H 1657.79 4.77901 -0.972714 0
M  V30 17588 H 1656.8 4.43346 -3.25153 0
M  V30 17589 H 1658.02 5.51995 -3.95573 0
M  V30 17590 H 1655.97 6.29391 -1.8494 0
M  V30 17591 H 1655.89 6.6818 -3.53654 0
M  V30 17592 H 1657.16 7.3622 -2.56125 0
M  V30 17593 N 1661.38 1.17024 1.05561 0
M  V30 17594 C 1662.31 0.906823 2.15172 0
M  V30 17595 C 1663.3 -0.149745 1.6944 0
M  V30 17596 O 1664.48 -0.000287092 1.942 0
M  V30 17597 C 1661.61 0.415251 3.44809 0
M  V30 17598 C 1660.56 1.41058 4.04088 0
M  V30 17599 C 1659.89 0.777109 5.29023 0
M  V30 17600 C 1661.19 2.78258 4.42007 0
M  V30 17601 H 1662.88 1.82347 2.37466 0
M  V30 17602 H 1660.43 0.878162 1.14124 0
M  V30 17603 H 1662.38 0.218407 4.20834 0
M  V30 17604 H 1661.11 -0.536924 3.22156 0
M  V30 17605 H 1659.77 1.5941 3.30127 0
M  V30 17606 H 1659.41 -0.181784 5.02671 0
M  V30 17607 H 1659.11 1.44151 5.69644 0
M  V30 17608 H 1660.64 0.590455 6.07738 0
M  V30 17609 H 1662.05 2.63645 5.09082 0
M  V30 17610 H 1660.45 3.41241 4.93634 0
M  V30 17611 H 1661.52 3.3295 3.52523 0
M  V30 17612 N 1662.86 -1.24221 0.969889 0
M  V30 17613 C 1663.81 -2.23043 0.472854 0
M  V30 17614 C 1664.8 -1.54585 -0.446344 0
M  V30 17615 O 1665.99 -1.74821 -0.27691 0
M  V30 17616 C 1663.12 -3.42504 -0.233578 0
M  V30 17617 C 1662.2 -4.18206 0.704577 0
M  V30 17618 N 1662.59 -4.71037 1.84276 0
M  V30 17619 C 1660.89 -4.43007 0.515795 0
M  V30 17620 C 1661.59 -5.28525 2.42974 0
M  V30 17621 N 1660.57 -5.15849 1.71467 0
M  V30 17622 H 1664.37 -2.6151 1.34126 0
M  V30 17623 H 1661.89 -1.39632 0.829251 0
M  V30 17624 H 1663.88 -4.12459 -0.606891 0
M  V30 17625 H 1662.54 -3.05557 -1.0984 0
M  V30 17626 H 1663.55 -4.67705 2.22424 0
M  V30 17627 H 1660.23 -4.16385 -0.304885 0
M  V30 17628 H 1661.62 -5.8009 3.39035 0
M  V30 17629 N 1664.34 -0.740267 -1.39132 0
M  V30 17630 C 1665.29 -0.0929334 -2.32414 0
M  V30 17631 C 1666.28 0.720062 -1.53334 0
M  V30 17632 O 1667.49 0.620656 -1.68961 0
M  V30 17633 H 1663.86 -0.0112531 -0.751916 0
M  V30 17634 H 1665.83 -0.895975 -2.84631 0
M  V30 17635 C 1664.58 0.796182 -3.38462 0
M  V30 17636 H 1663.91 0.17999 -3.99395 0
M  V30 17637 H 1665.35 1.21664 -4.0617 0
M  V30 17638 C 1663.81 1.93285 -2.75939 0
M  V30 17639 O 1664.34 3.02593 -2.64198 0
M  V30 17640 N 1662.54 1.72386 -2.33948 0
M  V30 17641 H 1662.09 0.834821 -2.43698 0
M  V30 17642 H 1662.05 2.48612 -1.92456 0
M  V30 17643 N 1665.82 1.49844 -0.488302 0
M  V30 17644 C 1667.04 2.07313 0.0600937 0
M  V30 17645 C 1667.47 1.3478 1.3121 0
M  V30 17646 O 1666.83 0.400634 1.76818 0
M  V30 17647 C 1666.87 3.59268 0.309658 0
M  V30 17648 O 1665.98 3.88381 1.38688 0
M  V30 17649 H 1665.32 0.663681 -0.0205947 0
M  V30 17650 H 1667.85 1.92818 -0.684284 0
M  V30 17651 H 1667.86 4.04344 0.545 0
M  V30 17652 H 1666.53 4.11474 -0.605146 0
M  V30 17653 H 1665.11 3.55128 1.13749 0
M  V30 17654 N 1667.3 0.221601 1.56034 0
M  V30 17655 C 1668.23 -0.683171 2.23282 0
M  V30 17656 C 1669.21 -1.20101 1.20456 0
M  V30 17657 O 1670.39 -1.245 1.49041 0
M  V30 17658 C 1667.52 -1.89143 2.91277 0
M  V30 17659 C 1666.48 -1.50742 4.00576 0
M  V30 17660 C 1665.8 -2.79446 4.55867 0
M  V30 17661 C 1667.1 -0.697388 5.17623 0
M  V30 17662 H 1668.8 -0.122488 2.99149 0
M  V30 17663 H 1666.34 -0.0574732 1.43885 0
M  V30 17664 H 1668.3 -2.52982 3.37013 0
M  V30 17665 H 1667.02 -2.47708 2.12858 0
M  V30 17666 H 1665.68 -0.892492 3.5557 0
M  V30 17667 H 1665.33 -3.36155 3.74177 0
M  V30 17668 H 1665.03 -2.54486 5.29633 0
M  V30 17669 H 1666.55 -3.44228 5.04321 0
M  V30 17670 H 1667.96 -1.23948 5.59741 0
M  V30 17671 H 1666.36 -0.544875 5.97621 0
M  V30 17672 H 1667.43 0.295981 4.83996 0
M  V30 17673 N 1668.77 -1.57515 -0.0517878 0
M  V30 17674 C 1670.02 -1.87396 -0.746022 0
M  V30 17675 C 1670.34 -0.817053 -1.77718 0
M  V30 17676 O 1671.54 -1.00435 -2.5224 0
M  V30 17677 C 1670 -3.32481 -1.37783 0
M  V30 17678 C 1669.61 -4.46349 -0.384208 0
M  V30 17679 C 1671.35 -3.71539 -2.05327 0
M  V30 17680 C 1669.26 -5.82484 -1.02307 0
M  V30 17681 H 1668.19 -0.699127 -0.282379 0
M  V30 17682 H 1670.84 -1.835 0.000245524 0
M  V30 17683 H 1669.22 -3.31051 -2.17304 0
M  V30 17684 H 1670.39 -4.59209 0.382639 0
M  V30 17685 H 1668.71 -4.15976 0.187873 0
M  V30 17686 H 1671.31 -4.70553 -2.53936 0
M  V30 17687 H 1671.65 -3.02361 -2.86153 0
M  V30 17688 H 1672.18 -3.75046 -1.32611 0
M  V30 17689 H 1668.92 -6.55005 -0.254704 0
M  V30 17690 H 1668.44 -5.73388 -1.7603 0
M  V30 17691 H 1670.12 -6.28476 -1.5371 0
M  V30 17692 N 1670.25 0.323614 -1.54242 0
M  V30 17693 C 1671.22 1.38126 -1.82904 0
M  V30 17694 C 1672.22 1.44723 -0.700853 0
M  V30 17695 O 1673.41 1.44751 -0.969161 0
M  V30 17696 C 1670.54 2.76858 -1.98903 0
M  V30 17697 H 1671.73 1.13966 -2.77402 0
M  V30 17698 H 1669.28 0.559094 -1.45958 0
M  V30 17699 H 1670.02 3.06274 -1.06616 0
M  V30 17700 H 1669.8 2.73464 -2.80998 0
M  V30 17701 H 1671.29 3.53372 -2.22526 0
M  V30 17702 N 1671.73 1.46313 0.585673 0
M  V30 17703 C 1672.96 1.55273 1.37496 0
M  V30 17704 C 1673.38 0.193481 1.87102 0
M  V30 17705 O 1672.74 -0.825859 1.61398 0
M  V30 17706 C 1672.79 2.5591 2.54052 0
M  V30 17707 O 1671.89 2.09208 3.55395 0
M  V30 17708 H 1671.23 0.522614 0.409598 0
M  V30 17709 H 1673.76 1.9186 0.710697 0
M  V30 17710 H 1673.77 2.75424 3.01008 0
M  V30 17711 H 1672.45 3.54619 2.17298 0
M  V30 17712 H 1671.02 1.9967 3.14939 0
M  V30 17713 N 1673.21 -0.830057 1.33969 0
M  V30 17714 C 1674.46 -1.58084 1.25269 0
M  V30 17715 C 1674.77 -1.94792 -0.177557 0
M  V30 17716 O 1675.98 -2.68733 -0.386657 0
M  V30 17717 C 1674.43 -2.85177 2.1955 0
M  V30 17718 C 1674.04 -2.55798 3.67792 0
M  V30 17719 C 1675.79 -3.632 2.19741 0
M  V30 17720 C 1673.69 -3.79041 4.53963 0
M  V30 17721 H 1672.62 -0.593289 0.465321 0
M  V30 17722 H 1675.27 -0.914476 1.5909 0
M  V30 17723 H 1673.66 -3.53401 1.78672 0
M  V30 17724 H 1674.83 -1.9573 4.17165 0
M  V30 17725 H 1673.14 -1.91064 3.69978 0
M  V30 17726 H 1675.74 -4.54695 2.81347 0
M  V30 17727 H 1676.08 -3.98786 1.1948 0
M  V30 17728 H 1676.62 -3.0191 2.59028 0
M  V30 17729 H 1673.36 -3.4858 5.55133 0
M  V30 17730 H 1672.88 -4.38417 4.09329 0
M  V30 17731 H 1674.56 -4.46527 4.68212 0
M  V30 17732 N 1674.69 -1.17582 -1.04939 0
M  V30 17733 C 1675.62 -0.918221 -2.14688 0
M  V30 17734 C 1676.6 0.140757 -1.69517 0
M  V30 17735 O 1677.78 -0.0100118 -1.94197 0
M  V30 17736 C 1674.91 -0.433531 -3.44584 0
M  V30 17737 C 1673.87 -1.43199 -4.03334 0
M  V30 17738 C 1673.19 -0.805154 -5.28603 0
M  V30 17739 C 1674.49 -2.80598 -4.40525 0
M  V30 17740 H 1676.19 -1.83604 -2.36495 0
M  V30 17741 H 1673.73 -0.884202 -1.13657 0
M  V30 17742 H 1675.69 -0.240722 -4.20712 0
M  V30 17743 H 1674.41 0.519832 -3.22437 0
M  V30 17744 H 1673.07 -1.61158 -3.29277 0
M  V30 17745 H 1672.72 0.155124 -5.02761 0
M  V30 17746 H 1672.42 -1.4717 -5.68871 0
M  V30 17747 H 1673.94 -0.622677 -6.07417 0
M  V30 17748 H 1675.36 -2.66341 -5.07676 0
M  V30 17749 H 1673.75 -3.43854 -4.91817 0
M  V30 17750 H 1674.82 -3.34815 -3.50752 0
M  V30 17751 N 1676.17 1.23705 -0.976463 0
M  V30 17752 C 1677.44 1.87421 -0.559719 0
M  V30 17753 C 1677.82 1.87847 0.963166 0
M  V30 17754 O 1677.17 1.35726 1.83822 0
M  V30 17755 C 1677.38 3.29113 -1.16128 0
M  V30 17756 C 1678.73 4.05735 -1.25158 0
M  V30 17757 O 1679.75 3.38317 -1.11444 0
M  V30 17758 O 1678.61 5.26377 -1.46933 0
M  V30 17759 H 1675.71 0.80537 -0.187903 0
M  V30 17760 H 1678.25 1.31611 -1.07129 0
M  V30 17761 H 1677.02 3.23348 -2.20367 0
M  V30 17762 H 1676.65 3.92508 -0.63428 0
M  V30 17763 N 1677.64 0.747635 1.38738 0
M  V30 17764 C 1679.05 0.369576 1.83006 0
M  V30 17765 C 1679.41 -1.10091 1.62402 0
M  V30 17766 O 1678.53 -1.85042 1.12198 0
M  V30 17767 C 1679.13 0.664018 3.32229 0
M  V30 17768 C 1677.68 0.339308 3.74868 0
M  V30 17769 C 1676.83 0.920231 2.61586 0
M  V30 17770 H 1679.78 0.944268 1.27551 0
M  V30 17771 H 1679.8 -0.0598575 3.80453 0
M  V30 17772 H 1679.32 1.73432 3.47193 0
M  V30 17773 H 1677.42 -0.724649 3.65485 0
M  V30 17774 H 1677.53 0.830699 4.71843 0
M  V30 17775 H 1675.89 0.346002 2.52339 0
M  V30 17776 H 1676.68 1.99544 2.79351 0
M  V30 17777 N 1679.12 -1.49583 0.496242 0
M  V30 17778 C 1680.35 -2.06547 -0.0468437 0
M  V30 17779 C 1680.76 -1.3574 -1.31801 0
M  V30 17780 O 1680.1 -0.427948 -1.78646 0
M  V30 17781 C 1680.16 -3.57532 -0.375622 0
M  V30 17782 C 1679.83 -4.49994 0.797134 0
M  V30 17783 C 1680.83 -4.91793 1.6863 0
M  V30 17784 C 1678.51 -4.92355 0.99459 0
M  V30 17785 C 1680.5 -5.74685 2.7571 0
M  V30 17786 C 1678.19 -5.75024 2.06859 0
M  V30 17787 C 1679.19 -6.16093 2.94819 0
M  V30 17788 O 1678.88 -6.9711 4.00366 0
M  V30 17789 H 1678.61 -0.675832 0.0150901 0
M  V30 17790 H 1681.16 -1.93413 0.691416 0
M  V30 17791 H 1679.39 -3.68658 -1.16741 0
M  V30 17792 H 1681.08 -3.96755 -0.856757 0
M  V30 17793 H 1681.85 -4.59715 1.54554 0
M  V30 17794 H 1677.73 -4.59893 0.31933 0
M  V30 17795 H 1681.27 -6.06661 3.44396 0
M  V30 17796 H 1677.17 -6.06514 2.20931 0
M  V30 17797 H 1677.94 -7.15408 3.9766 0
M  V30 17798 N 1680.6 -0.229873 -1.55915 0
M  V30 17799 C 1681.82 0.4072 -2.03363 0
M  V30 17800 C 1682.25 1.5197 -1.10845 0
M  V30 17801 O 1681.61 1.81034 -0.098175 0
M  V30 17802 C 1681.66 0.908268 -3.48974 0
M  V30 17803 O 1680.76 2.01907 -3.59593 0
M  V30 17804 H 1680.1 0.091091 -0.657722 0
M  V30 17805 H 1682.63 -0.350947 -2.01568 0
M  V30 17806 H 1682.64 1.21593 -3.8946 0
M  V30 17807 H 1681.32 0.0940655 -4.15794 0
M  V30 17808 H 1679.89 1.71741 -3.30998 0
M  V30 17809 N 1682.08 1.5754 0.0434337 0
M  V30 17810 C 1683.03 2.06683 1.067 0
M  V30 17811 C 1684.02 0.977691 1.38339 0
M  V30 17812 O 1685.23 1.16266 1.37412 0
M  V30 17813 H 1681.6 0.659378 0.361559 0
M  V30 17814 H 1683.57 2.91747 0.626605 0
M  V30 17815 C 1682.32 2.54985 2.36385 0
M  V30 17816 H 1681.64 3.384 2.12897 0
M  V30 17817 H 1683.08 2.93095 3.06384 0
M  V30 17818 C 1681.54 1.44484 3.04345 0
M  V30 17819 O 1682.07 0.80291 3.93594 0
M  V30 17820 N 1680.28 1.18292 2.65434 0
M  V30 17821 H 1679.83 1.70676 1.92944 0
M  V30 17822 H 1679.78 0.445676 3.11225 0
M  V30 17823 N 1683.56 -0.31543 1.54411 0
M  V30 17824 C 1684.52 -1.37154 1.83634 0
M  V30 17825 C 1685.52 -1.44349 0.708518 0
M  V30 17826 O 1686.71 -1.44235 0.976824 0
M  V30 17827 C 1683.84 -2.758 2.00368 0
M  V30 17828 H 1685.03 -1.12493 2.78002 0
M  V30 17829 H 1682.59 -0.551346 1.46253 0
M  V30 17830 H 1683.32 -3.05704 1.08238 0
M  V30 17831 H 1683.11 -2.7197 2.82445 0
M  V30 17832 H 1684.6 -3.52187 2.24397 0
M  V30 17833 N 1685.03 -1.46622 -0.577906 0
M  V30 17834 C 1686.28 -1.52181 -1.33594 0
M  V30 17835 C 1686.61 -0.175484 -1.93707 0
M  V30 17836 O 1685.86 0.829407 -1.77255 0
M  V30 17837 C 1686.16 -2.57215 -2.48144 0
M  V30 17838 C 1685.83 -4.01095 -2.05993 0
M  V30 17839 C 1684.49 -4.40267 -1.94213 0
M  V30 17840 C 1686.84 -4.91459 -1.73543 0
M  V30 17841 C 1684.17 -5.67661 -1.48248 0
M  V30 17842 C 1686.52 -6.19296 -1.29055 0
M  V30 17843 C 1685.19 -6.57369 -1.15856 0
M  V30 17844 H 1684.46 -0.556868 -0.488855 0
M  V30 17845 H 1687.1 -1.80122 -0.65026 0
M  V30 17846 H 1685.41 -2.22952 -3.22179 0
M  V30 17847 H 1687.11 -2.58744 -3.06354 0
M  V30 17848 H 1683.7 -3.70134 -2.16098 0
M  V30 17849 H 1687.88 -4.61911 -1.81527 0
M  V30 17850 H 1683.14 -5.95928 -1.36676 0
M  V30 17851 H 1687.31 -6.88741 -1.03001 0
M  V30 17852 H 1684.94 -7.55977 -0.800148 0
M  V30 17853 N 1686.51 0.822941 -1.34408 0
M  V30 17854 C 1687.48 1.91541 -1.25876 0
M  V30 17855 C 1688.48 1.59856 -0.17397 0
M  V30 17856 O 1689.67 1.68896 -0.426592 0
M  V30 17857 C 1686.8 3.27586 -0.943415 0
M  V30 17858 H 1687.99 2.00529 -2.22998 0
M  V30 17859 H 1685.54 1.01691 -1.18695 0
M  V30 17860 H 1686.28 3.24291 0.0246389 0
M  V30 17861 H 1686.06 3.51966 -1.72807 0
M  V30 17862 H 1687.55 4.07589 -0.908891 0
M  V30 17863 N 1687.99 1.18137 1.04314 0
M  V30 17864 C 1689.24 0.98666 1.77867 0
M  V30 17865 C 1689.59 -0.478878 1.86345 0
M  V30 17866 O 1688.88 -1.35094 1.35868 0
M  V30 17867 C 1689.08 1.57211 3.20966 0
M  V30 17868 C 1688.91 3.09305 3.26436 0
M  V30 17869 C 1687.68 3.78104 3.3521 0
M  V30 17870 C 1689.88 4.06817 3.1465 0
M  V30 17871 N 1687.86 5.17723 3.29903 0
M  V30 17872 C 1689.23 5.32943 3.16815 0
M  V30 17873 C 1691.28 3.98369 2.98675 0
M  V30 17874 C 1689.99 6.51601 3.04645 0
M  V30 17875 C 1692.01 5.1662 2.8785 0
M  V30 17876 C 1691.37 6.41638 2.90655 0
M  V30 17877 H 1687.47 0.415029 0.662778 0
M  V30 17878 H 1690.06 1.49871 1.24284 0
M  V30 17879 H 1688.23 1.08627 3.729 0
M  V30 17880 H 1689.96 1.31316 3.82803 0
M  V30 17881 H 1686.72 3.28825 3.40839 0
M  V30 17882 H 1687.14 5.90736 3.30695 0
M  V30 17883 H 1691.78 3.02549 2.95337 0
M  V30 17884 H 1689.5 7.47622 3.06735 0
M  V30 17885 H 1693.09 5.11872 2.76546 0
M  V30 17886 H 1691.97 7.31602 2.82363 0
M  V30 17887 N 1689.47 -1.23186 0.98301 0
M  V30 17888 C 1690.4 -2.27054 0.544858 0
M  V30 17889 C 1691.38 -1.64749 -0.423281 0
M  V30 17890 O 1692.56 -1.91611 -0.316075 0
M  V30 17891 C 1689.69 -3.46972 -0.150976 0
M  V30 17892 C 1688.65 -4.21647 0.734707 0
M  V30 17893 C 1687.97 -5.34618 -0.0934874 0
M  V30 17894 C 1689.27 -4.81372 2.02679 0
M  V30 17895 H 1690.97 -2.63957 1.41305 0
M  V30 17896 H 1688.51 -1.26885 0.680895 0
M  V30 17897 H 1690.47 -4.18784 -0.468825 0
M  V30 17898 H 1689.19 -3.09137 -1.05364 0
M  V30 17899 H 1687.85 -3.51655 1.03605 0
M  V30 17900 H 1687.5 -4.93025 -0.996768 0
M  V30 17901 H 1687.2 -5.85503 0.496019 0
M  V30 17902 H 1688.72 -6.09251 -0.405658 0
M  V30 17903 H 1690.14 -5.45178 1.77353 0
M  V30 17904 H 1688.53 -5.42554 2.56429 0
M  V30 17905 H 1689.6 -4.01972 2.71194 0
M  V30 17906 N 1690.95 -0.754982 -1.38339 0
M  V30 17907 C 1691.88 -0.0883836 -2.2903 0
M  V30 17908 C 1692.89 0.682258 -1.47814 0
M  V30 17909 O 1694.08 0.523117 -1.70663 0
M  V30 17910 C 1691.18 0.898819 -3.26764 0
M  V30 17911 C 1690.35 0.185527 -4.37006 0
M  V30 17912 C 1689.41 1.08368 -5.1492 0
M  V30 17913 O 1688.44 0.553687 -5.66501 0
M  V30 17914 N 1689.64 2.41164 -5.28034 0
M  V30 17915 H 1692.41 -0.86725 -2.86878 0
M  V30 17916 H 1689.97 -0.605886 -1.50135 0
M  V30 17917 H 1691.96 1.50273 -3.75766 0
M  V30 17918 H 1690.53 1.57876 -2.69804 0
M  V30 17919 H 1689.75 -0.599106 -3.89621 0
M  V30 17920 H 1691.04 -0.307999 -5.07867 0
M  V30 17921 H 1690.43 2.86677 -4.87681 0
M  V30 17922 H 1688.99 2.96602 -5.80406 0
M  V30 17923 N 1692.42 1.49318 -0.504168 0
M  V30 17924 C 1693.36 2.25955 0.319279 0
M  V30 17925 C 1694.34 1.30675 0.967609 0
M  V30 17926 O 1695.52 1.5997 0.997086 0
M  V30 17927 C 1692.65 3.06096 1.44992 0
M  V30 17928 C 1691.69 4.16555 0.915644 0
M  V30 17929 S 1692.53 5.35141 -0.196097 0
M  V30 17930 C 1693.68 6.18837 0.937637 0
M  V30 17931 H 1693.91 2.9545 -0.33118 0
M  V30 17932 H 1691.45 1.51661 -0.289517 0
M  V30 17933 H 1693.41 3.52853 2.09774 0
M  V30 17934 H 1692.07 2.36065 2.07201 0
M  V30 17935 H 1691.26 4.72157 1.76306 0
M  V30 17936 H 1690.86 3.72406 0.344981 0
M  V30 17937 H 1693.15 6.51975 1.84216 0
M  V30 17938 H 1694.1 7.06852 0.420168 0
M  V30 17939 H 1694.5 5.51458 1.2064 0
M  V30 17940 N 1693.9 0.238138 1.5579 0
M  V30 17941 C 1694.81 -0.676049 2.24648 0
M  V30 17942 C 1695.83 -1.20038 1.25964 0
M  V30 17943 O 1697 -1.2385 1.58818 0
M  V30 17944 C 1694.07 -1.86014 2.92574 0
M  V30 17945 C 1693.13 -1.37615 4.06646 0
M  V30 17946 C 1692.36 -2.5038 4.71323 0
M  V30 17947 O 1692.59 -3.68906 4.35045 0
M  V30 17948 O 1691.52 -2.20636 5.60003 0
M  V30 17949 H 1695.35 -0.119372 3.03465 0
M  V30 17950 H 1692.93 0.00699789 1.49398 0
M  V30 17951 H 1694.81 -2.55132 3.35389 0
M  V30 17952 H 1693.49 -2.4046 2.16704 0
M  V30 17953 H 1692.4 -0.652503 3.68366 0
M  V30 17954 H 1693.73 -0.877871 4.84308 0
M  V30 17955 N 1695.38 -1.57561 -0.0350783 0
M  V30 17956 C 1696.61 -1.93251 -0.73903 0
M  V30 17957 C 1697.02 -0.83739 -1.69214 0
M  V30 17958 O 1696.38 0.186669 -1.81543 0
M  V30 17959 C 1696.43 -3.28853 -1.50127 0
M  V30 17960 O 1696.15 -4.34157 -0.586426 0
M  V30 17961 C 1697.65 -3.78788 -2.30292 0
M  V30 17962 H 1694.87 -0.63793 -0.208053 0
M  V30 17963 H 1697.42 -2.04499 0.00560398 0
M  V30 17964 H 1695.57 -3.1902 -2.19784 0
M  V30 17965 H 1695.99 -5.12395 -1.12034 0
M  V30 17966 H 1697.46 -4.76197 -2.79178 0
M  V30 17967 H 1697.94 -3.09671 -3.11449 0
M  V30 17968 H 1698.54 -3.91684 -1.65721 0
M  V30 17969 N 1696.86 0.307236 -1.54576 0
M  V30 17970 C 1698.08 1.06668 -1.77867 0
M  V30 17971 C 1698.51 1.80375 -0.533536 0
M  V30 17972 O 1697.87 1.73812 0.515663 0
M  V30 17973 C 1697.91 2.02777 -2.98184 0
M  V30 17974 O 1697.02 3.10969 -2.70872 0
M  V30 17975 H 1696.36 0.306741 -0.588902 0
M  V30 17976 H 1698.89 0.346557 -2.01644 0
M  V30 17977 H 1698.9 2.45355 -3.25983 0
M  V30 17978 H 1697.57 1.48534 -3.88472 0
M  V30 17979 H 1696.15 2.7295 -2.54072 0
M  V30 17980 N 1698.34 1.46926 0.570122 0
M  V30 17981 C 1699.28 1.5883 1.69929 0
M  V30 17982 C 1700.28 0.456167 1.63143 0
M  V30 17983 O 1701.48 0.633503 1.68484 0
M  V30 17984 H 1697.86 0.499606 0.562048 0
M  V30 17985 H 1699.83 2.53744 1.57023 0
M  V30 17986 C 1698.58 1.60761 3.08304 0
M  V30 17987 H 1697.9 2.47219 3.14202 0
M  V30 17988 H 1699.34 1.73142 3.87037 0
M  V30 17989 C 1697.8 0.338515 3.35195 0
M  V30 17990 O 1698.33 -0.565917 3.97694 0
M  V30 17991 N 1696.54 0.222525 2.89747 0
M  V30 17992 H 1696.08 0.959435 2.39066 0
M  V30 17993 H 1696.04 -0.625697 3.08111 0
M  V30 17994 N 1699.82 -0.815801 1.34842 0
M  V30 17995 C 1700.73 -1.95886 1.29097 0
M  V30 17996 C 1701.74 -1.72876 0.197422 0
M  V30 17997 O 1702.92 -1.96861 0.425166 0
M  V30 17998 C 1699.98 -3.30311 1.05336 0
M  V30 17999 C 1699.04 -3.66279 2.23916 0
M  V30 18000 C 1698.28 -4.9429 2.01279 0
M  V30 18001 O 1698.5 -5.62012 0.974603 0
M  V30 18002 O 1697.43 -5.28302 2.88411 0
M  V30 18003 H 1701.26 -2.03678 2.25276 0
M  V30 18004 H 1698.84 -0.952243 1.1512 0
M  V30 18005 H 1700.73 -4.10806 0.938961 0
M  V30 18006 H 1699.4 -3.2347 0.122024 0
M  V30 18007 H 1698.31 -2.86198 2.40918 0
M  V30 18008 H 1699.64 -3.77814 3.15464 0
M  V30 18009 N 1701.29 -1.18689 -1.03686 0
M  V30 18010 C 1702.71 -0.937386 -1.29171 0
M  V30 18011 C 1702.91 0.394863 -1.97593 0
M  V30 18012 O 1701.97 1.12829 -2.25889 0
M  V30 18013 C 1703.28 -2.10568 -2.14666 0
M  V30 18014 C 1704.83 -2.14441 -2.28 0
M  V30 18015 C 1705.3 -3.30699 -3.16863 0
M  V30 18016 N 1706.79 -3.30584 -3.24451 0
M  V30 18017 C 1707.53 -4.17184 -3.93376 0
M  V30 18018 N 1707.02 -5.13924 -4.646 0
M  V30 18019 N 1708.82 -4.05086 -3.89694 0
M  V30 18020 H 1700.97 -2.04417 -0.576836 0
M  V30 18021 H 1703.23 -0.893404 -0.31707 0
M  V30 18022 H 1702.94 -3.06938 -1.71702 0
M  V30 18023 H 1702.81 -2.06955 -3.15356 0
M  V30 18024 H 1705.2 -1.18647 -2.70198 0
M  V30 18025 H 1705.28 -2.22111 -1.26888 0
M  V30 18026 H 1704.92 -4.26768 -2.75375 0
M  V30 18027 H 1704.85 -3.20266 -4.18016 0
M  V30 18028 H 1707.34 -2.60552 -2.73717 0
M  V30 18029 H 1707.66 -5.76368 -5.14801 0
M  V30 18030 H 1706 -5.1788 -4.63492 0
M  V30 18031 H 1709.19 -3.28793 -3.33186 0
M  V30 18032 H 1709.37 -4.72792 -4.43139 0
M  V30 18033 N 1702.77 1.22662 -0.989529 0
M  V30 18034 C 1704.02 1.91605 -0.66448 0
M  V30 18035 C 1704.35 1.76909 0.801048 0
M  V30 18036 O 1703.63 1.13583 1.5789 0
M  V30 18037 C 1703.91 3.43929 -1.06698 0
M  V30 18038 C 1703.76 3.67691 -2.59082 0
M  V30 18039 C 1705.08 4.35744 -0.617695 0
M  V30 18040 H 1702.2 0.695832 -0.242872 0
M  V30 18041 H 1704.84 1.44605 -1.23245 0
M  V30 18042 H 1702.99 3.8409 -0.58371 0
M  V30 18043 H 1704.66 3.36956 -3.15053 0
M  V30 18044 H 1702.91 3.12088 -3.01303 0
M  V30 18045 H 1703.58 4.74356 -2.82295 0
M  V30 18046 H 1706.05 4.0308 -1.03275 0
M  V30 18047 H 1704.93 5.41004 -0.927659 0
M  V30 18048 H 1705.19 4.39468 0.481734 0
M  V30 18049 N 1704.25 0.762308 1.37937 0
M  V30 18050 C 1705.5 0.331831 2.00675 0
M  V30 18051 C 1705.85 -1.07702 1.5943 0
M  V30 18052 O 1705.14 -1.72885 0.825917 0
M  V30 18053 C 1705.34 0.402558 3.55126 0
M  V30 18054 C 1705.17 1.81674 4.11369 0
M  V30 18055 C 1703.94 2.43527 4.42744 0
M  V30 18056 C 1706.13 2.77478 4.33024 0
M  V30 18057 N 1704.12 3.76816 4.84647 0
M  V30 18058 C 1705.49 3.95549 4.77432 0
M  V30 18059 C 1707.54 2.74888 4.1514 0
M  V30 18060 C 1706.25 5.114 5.05829 0
M  V30 18061 C 1708.27 3.89904 4.44667 0
M  V30 18062 C 1707.63 5.06714 4.89306 0
M  V30 18063 H 1703.73 0.16827 0.763681 0
M  V30 18064 H 1706.32 0.994125 1.67407 0
M  V30 18065 H 1704.49 -0.229509 3.87721 0
M  V30 18066 H 1706.22 -0.0490702 4.0467 0
M  V30 18067 H 1702.97 1.95221 4.31492 0
M  V30 18068 H 1703.4 4.45321 5.0992 0
M  V30 18069 H 1708.04 1.85757 3.79808 0
M  V30 18070 H 1705.76 6.01139 5.40054 0
M  V30 18071 H 1709.34 3.89229 4.32425 0
M  V30 18072 H 1708.22 5.94236 5.11716 0
M  V30 18073 N 1705.73 -1.49049 0.51208 0
M  V30 18074 C 1706.98 -2.01677 -0.0303931 0
M  V30 18075 C 1707.29 -1.39594 -1.37014 0
M  V30 18076 O 1708.5 -1.83615 -1.99994 0
M  V30 18077 C 1706.95 -3.59748 -0.104605 0
M  V30 18078 C 1706.56 -4.30808 1.22916 0
M  V30 18079 C 1708.3 -4.20283 -0.596854 0
M  V30 18080 C 1706.21 -5.80765 1.11651 0
M  V30 18081 H 1705.14 -0.753848 -0.015131 0
M  V30 18082 H 1707.79 -1.71482 0.653169 0
M  V30 18083 H 1706.17 -3.86707 -0.852859 0
M  V30 18084 H 1707.35 -4.15539 1.99158 0
M  V30 18085 H 1705.66 -3.82066 1.65573 0
M  V30 18086 H 1708.26 -5.30114 -0.698821 0
M  V30 18087 H 1708.6 -3.84392 -1.59838 0
M  V30 18088 H 1709.14 -3.97686 0.0951882 0
M  V30 18089 H 1705.87 -6.212 2.09264 0
M  V30 18090 H 1705.39 -5.98497 0.395167 0
M  V30 18091 H 1707.07 -6.42038 0.799782 0
M  V30 18092 N 1707.21 -0.246397 -1.55662 0
M  V30 18093 C 1708.17 0.640041 -2.20082 0
M  V30 18094 C 1709.17 1.10313 -1.16994 0
M  V30 18095 O 1710.36 1.00792 -1.42079 0
M  V30 18096 C 1707.49 1.87964 -2.84398 0
M  V30 18097 H 1708.68 0.0780034 -2.99799 0
M  V30 18098 H 1706.24 0.00314588 -1.563 0
M  V30 18099 H 1706.97 2.48292 -2.08618 0
M  V30 18100 H 1706.76 1.5558 -3.59913 0
M  V30 18101 H 1708.25 2.51065 -3.33701 0
M  V30 18102 N 1708.68 1.57577 0.026722 0
M  V30 18103 C 1709.61 2.09748 1.02605 0
M  V30 18104 C 1710.59 1.00054 1.37562 0
M  V30 18105 O 1711.78 1.2759 1.46405 0
M  V30 18106 C 1708.91 2.57881 2.32626 0
M  V30 18107 C 1707.86 3.7186 2.11905 0
M  V30 18108 C 1707.19 4.06208 3.47706 0
M  V30 18109 C 1708.49 5.00198 1.50332 0
M  V30 18110 H 1710.18 2.93494 0.591753 0
M  V30 18111 H 1707.73 1.41188 0.283199 0
M  V30 18112 H 1709.68 2.93 3.02868 0
M  V30 18113 H 1708.41 1.71222 2.7812 0
M  V30 18114 H 1707.07 3.37094 1.44096 0
M  V30 18115 H 1706.71 3.16611 3.90853 0
M  V30 18116 H 1706.41 4.82982 3.34667 0
M  V30 18117 H 1707.94 4.43863 4.19306 0
M  V30 18118 H 1709.35 5.33259 2.10494 0
M  V30 18119 H 1707.75 5.81599 1.4786 0
M  V30 18120 H 1708.82 4.82623 0.469405 0
M  V30 18121 N 1710.16 -0.299034 1.54737 0
M  V30 18122 C 1711.11 -1.38889 1.86581 0
M  V30 18123 C 1712.1 -1.52396 0.739723 0
M  V30 18124 O 1713.31 -1.5449 0.92374 0
M  V30 18125 H 1709.68 -0.463969 0.591808 0
M  V30 18126 H 1711.66 -1.09268 2.77674 0
M  V30 18127 C 1710.4 -2.74702 2.13152 0
M  V30 18128 H 1709.73 -2.65092 2.99277 0
M  V30 18129 H 1711.17 -3.49967 2.39372 0
M  V30 18130 C 1709.63 -3.23789 0.930706 0
M  V30 18131 O 1710.16 -4.01412 0.152193 0
M  V30 18132 N 1708.36 -2.81137 0.735545 0
M  V30 18133 H 1707.91 -2.1813 1.37029 0
M  V30 18134 H 1707.87 -3.1433 -0.0663452 0
M  V30 18135 N 1711.64 -1.47227 -0.562322 0
M  V30 18136 C 1712.86 -1.5744 -1.35008 0
M  V30 18137 C 1713.29 -0.223223 -1.86771 0
M  V30 18138 O 1712.65 0.800078 -1.62691 0
M  V30 18139 C 1712.7 -2.5992 -2.49948 0
M  V30 18140 O 1711.8 -2.14836 -3.52022 0
M  V30 18141 H 1711.14 -0.529064 -0.401232 0
M  V30 18142 H 1713.67 -1.92966 -0.680084 0
M  V30 18143 H 1713.68 -2.80177 -2.96588 0
M  V30 18144 H 1712.36 -3.58031 -2.11629 0
M  V30 18145 H 1710.93 -2.04655 -3.11722 0
M  V30 18146 N 1713.12 0.808639 -1.35273 0
M  V30 18147 C 1714.07 1.94177 -1.28055 0
M  V30 18148 C 1715.06 1.68485 -0.175874 0
M  V30 18149 O 1716.27 1.76726 -0.341729 0
M  V30 18150 H 1712.64 0.63793 -0.398183 0
M  V30 18151 H 1714.61 1.97385 -2.2379 0
M  V30 18152 C 1713.36 3.30913 -1.06734 0
M  V30 18153 H 1712.68 3.51238 -1.90975 0
M  V30 18154 H 1714.12 4.10607 -1.05724 0
M  V30 18155 C 1712.58 3.36122 0.228886 0
M  V30 18156 O 1713.11 3.82553 1.22539 0
M  V30 18157 N 1711.32 2.89371 0.266949 0
M  V30 18158 H 1710.87 2.51778 -0.544571 0
M  V30 18159 H 1710.82 2.93238 1.13396 0
M  V30 18160 N 1714.6 1.19237 1.03055 0
M  V30 18161 C 1715.53 0.95226 2.132 0
M  V30 18162 C 1716.51 -0.113771 1.69719 0
M  V30 18163 O 1717.69 0.0409057 1.94157 0
M  V30 18164 C 1714.82 0.488296 3.4385 0
M  V30 18165 C 1713.78 1.49597 4.01005 0
M  V30 18166 C 1713.1 0.889148 5.27255 0
M  V30 18167 C 1714.4 2.87571 4.36005 0
M  V30 18168 H 1716.1 1.87343 2.33544 0
M  V30 18169 H 1713.64 0.902172 1.12236 0
M  V30 18170 H 1715.6 0.307623 4.20276 0
M  V30 18171 H 1714.32 -0.468469 3.23223 0
M  V30 18172 H 1712.98 1.66376 3.26672 0
M  V30 18173 H 1712.63 -0.0751191 5.02944 0
M  V30 18174 H 1712.33 1.56202 5.66458 0
M  V30 18175 H 1713.85 0.719233 6.06349 0
M  V30 18176 H 1715.26 2.74384 5.03375 0
M  V30 18177 H 1713.66 3.51635 4.86285 0
M  V30 18178 H 1714.73 3.40353 3.45381 0
M  V30 18179 N 1716.07 -1.22136 0.99602 0
M  V30 18180 C 1717.3 -1.94978 0.692172 0
M  V30 18181 C 1717.72 -1.73536 -0.743696 0
M  V30 18182 O 1717.07 -1.03637 -1.50219 0
M  V30 18183 C 1717.13 -3.47609 0.992498 0
M  V30 18184 O 1716.85 -3.68334 2.37195 0
M  V30 18185 C 1718.35 -4.37629 0.70679 0
M  V30 18186 H 1715.57 -0.620327 0.255802 0
M  V30 18187 H 1718.11 -1.55202 1.33164 0
M  V30 18188 H 1716.27 -3.85342 0.398785 0
M  V30 18189 H 1716.68 -4.62506 2.47362 0
M  V30 18190 H 1718.15 -5.43461 0.967173 0
M  V30 18191 H 1718.63 -4.37729 -0.359208 0
M  V30 18192 H 1719.24 -4.05528 1.2817 0
M  V30 18193 N 1717.55 -0.769612 -1.37531 0
M  V30 18194 C 1718.83 -0.257788 -1.93894 0
M  V30 18195 C 1719.21 1.24679 -1.70348 0
M  V30 18196 O 1718.56 2.02892 -1.05106 0
M  V30 18197 C 1718.77 -0.628857 -3.43288 0
M  V30 18198 C 1720.12 -0.597452 -4.20376 0
M  V30 18199 O 1721.14 -0.568117 -3.5164 0
M  V30 18200 O 1720 -0.622627 -5.42942 0
M  V30 18201 H 1717.09 -0.0588144 -0.824906 0
M  V30 18202 H 1719.64 -0.85082 -1.4683 0
M  V30 18203 H 1718.41 -1.66733 -3.54 0
M  V30 18204 H 1718.03 -0.00865929 -3.97599 0
M  V30 18205 N 1719.03 1.48775 -0.519977 0
M  V30 18206 C 1719.98 2.31123 0.261738 0
M  V30 18207 C 1720.97 1.40595 0.94496 0
M  V30 18208 O 1722.18 1.57552 0.870484 0
M  V30 18209 H 1718.55 0.744875 0.103272 0
M  V30 18210 H 1720.52 2.94949 -0.452514 0
M  V30 18211 C 1719.27 3.22409 1.30184 0
M  V30 18212 H 1718.6 3.92007 0.785524 0
M  V30 18213 H 1720.04 3.82932 1.82042 0
M  V30 18214 C 1718.5 2.43321 2.33016 0
M  V30 18215 O 1719.03 2.15087 3.39265 0
M  V30 18216 N 1717.23 2.04998 2.05971 0
M  V30 18217 H 1716.78 2.2816 1.19586 0
M  V30 18218 H 1716.74 1.52393 2.74998 0
M  V30 18219 N 1720.51 0.254649 1.55529 0
M  V30 18220 C 1721.44 -0.674506 2.1905 0
M  V30 18221 C 1722.45 -1.13297 1.16909 0
M  V30 18222 O 1723.64 -1.0584 1.43736 0
M  V30 18223 C 1720.74 -1.92951 2.78609 0
M  V30 18224 C 1719.92 -1.62123 4.06245 0
M  V30 18225 C 1718.97 -2.72661 4.50047 0
M  V30 18226 O 1718 -2.39717 5.1626 0
M  V30 18227 N 1719.2 -4.02315 4.18477 0
M  V30 18228 H 1721.97 -0.130956 2.99414 0
M  V30 18229 H 1719.53 0.0749176 1.61727 0
M  V30 18230 H 1721.52 -2.66155 3.04866 0
M  V30 18231 H 1720.09 -2.38265 2.02358 0
M  V30 18232 H 1719.31 -0.723991 3.87495 0
M  V30 18233 H 1720.6 -1.39 4.89445 0
M  V30 18234 H 1720 -4.3191 3.65336 0
M  V30 18235 H 1718.55 -4.7196 4.49552 0
M  V30 18236 N 1721.99 -1.57589 -0.0183649 0
M  V30 18237 C 1723.22 -1.93743 -0.71745 0
M  V30 18238 C 1723.62 -0.853727 -1.68844 0
M  V30 18239 O 1722.97 0.177648 -1.82839 0
M  V30 18240 C 1723.03 -3.25769 -1.52036 0
M  V30 18241 C 1722.69 -4.51404 -0.71298 0
M  V30 18242 C 1723.69 -5.19899 -0.00859461 0
M  V30 18243 C 1721.38 -4.97887 -0.664364 0
M  V30 18244 C 1723.37 -6.33164 0.733592 0
M  V30 18245 C 1721.06 -6.11046 0.0815603 0
M  V30 18246 C 1722.05 -6.7854 0.779288 0
M  V30 18247 O 1721.74 -7.89532 1.51308 0
M  V30 18248 H 1721.47 -0.643849 -0.205996 0
M  V30 18249 H 1724.03 -2.05387 0.023306 0
M  V30 18250 H 1722.26 -3.10481 -2.30518 0
M  V30 18251 H 1723.95 -3.47169 -2.10305 0
M  V30 18252 H 1724.71 -4.84986 -0.0371173 0
M  V30 18253 H 1720.59 -4.4519 -1.19696 0
M  V30 18254 H 1724.14 -6.8578 1.27873 0
M  V30 18255 H 1720.03 -6.45403 0.111968 0
M  V30 18256 H 1720.8 -8.05949 1.42787 0
M  V30 18257 N 1723.46 0.290824 -1.54893 0
M  V30 18258 C 1724.69 1.04344 -1.78661 0
M  V30 18259 C 1725.11 1.80578 -0.551083 0
M  V30 18260 O 1724.46 1.76091 0.479394 0
M  V30 18261 C 1724.52 2.01604 -3.00064 0
M  V30 18262 O 1724.24 1.28461 -4.18843 0
M  V30 18263 C 1725.74 2.88822 -3.36298 0
M  V30 18264 H 1722.96 0.309018 -0.595608 0
M  V30 18265 H 1725.5 0.327011 -2.01868 0
M  V30 18266 H 1723.66 2.68735 -2.79035 0
M  V30 18267 H 1724.07 1.93864 -4.87357 0
M  V30 18268 H 1725.54 3.52898 -4.24461 0
M  V30 18269 H 1726.02 3.5766 -2.54904 0
M  V30 18270 H 1726.63 2.27208 -3.59523 0
M  V30 18271 N 1724.94 1.47523 0.554506 0
M  V30 18272 C 1726.19 1.55498 1.31118 0
M  V30 18273 C 1726.54 0.215527 1.91189 0
M  V30 18274 O 1725.84 -0.779071 1.75046 0
M  V30 18275 C 1726.03 2.6113 2.4402 0
M  V30 18276 C 1725.86 4.05216 1.95013 0
M  V30 18277 C 1724.63 4.72634 1.78732 0
M  V30 18278 C 1726.83 4.92152 1.49301 0
M  V30 18279 N 1724.81 6.01227 1.24093 0
M  V30 18280 C 1726.18 6.10794 1.06445 0
M  V30 18281 C 1728.24 4.78573 1.37378 0
M  V30 18282 C 1726.94 7.17356 0.5285 0
M  V30 18283 C 1728.96 5.85233 0.851839 0
M  V30 18284 C 1728.33 7.03067 0.433218 0
M  V30 18285 H 1724.43 0.6237 0.471723 0
M  V30 18286 H 1727.01 1.84286 0.628223 0
M  V30 18287 H 1725.18 2.34205 3.09843 0
M  V30 18288 H 1726.91 2.58933 3.11024 0
M  V30 18289 H 1723.67 4.28583 2.01528 0
M  V30 18290 H 1724.09 6.69744 0.988532 0
M  V30 18291 H 1728.73 3.87836 1.68354 0
M  V30 18292 H 1726.45 8.07836 0.20637 0
M  V30 18293 H 1730.04 5.76774 0.763097 0
M  V30 18294 H 1728.92 7.84192 0.0356063 0
M  V30 18295 N 1726.42 -0.801453 1.357 0
M  V30 18296 C 1727.65 -1.59001 1.32386 0
M  V30 18297 C 1728.06 -1.88548 -0.0975432 0
M  V30 18298 O 1727.42 -1.49199 -1.05099 0
M  V30 18299 C 1727.47 -2.91822 2.13359 0
M  V30 18300 O 1727.19 -2.63554 3.49958 0
M  V30 18301 C 1728.69 -3.86169 2.17689 0
M  V30 18302 H 1725.91 -0.493557 0.45458 0
M  V30 18303 H 1728.46 -0.995616 1.78627 0
M  V30 18304 H 1726.61 -3.47763 1.70704 0
M  V30 18305 H 1727.03 -3.48397 3.92071 0
M  V30 18306 H 1728.5 -4.76461 2.78727 0
M  V30 18307 H 1728.98 -4.23134 1.17704 0
M  V30 18308 H 1729.58 -3.36163 2.60527 0
M  V30 18309 N 1727.9 -1.19782 -1.02421 0
M  V30 18310 C 1729.18 -0.912541 -1.73009 0
M  V30 18311 C 1729.56 0.58061 -2.02958 0
M  V30 18312 O 1728.9 1.54013 -1.68797 0
M  V30 18313 C 1729.11 -1.77745 -3.00346 0
M  V30 18314 C 1730.46 -2.01462 -3.73762 0
M  V30 18315 O 1731.49 -1.74935 -3.10284 0
M  V30 18316 O 1730.34 -2.46219 -4.87892 0
M  V30 18317 H 1727.44 -0.340513 -0.753644 0
M  V30 18318 H 1729.98 -1.30618 -1.08338 0
M  V30 18319 H 1728.76 -2.78887 -2.74477 0
M  V30 18320 H 1728.38 -1.38339 -3.72757 0
M  V30 18321 N 1729.38 1.21606 -1.00248 0
M  V30 18322 C 1730.32 2.23884 -0.560771 0
M  V30 18323 C 1731.29 1.60913 0.411864 0
M  V30 18324 O 1732.48 1.88191 0.314476 0
M  V30 18325 C 1729.62 3.44928 0.108948 0
M  V30 18326 C 1728.73 4.22381 -0.906566 0
M  V30 18327 C 1727.87 5.30787 -0.20937 0
M  V30 18328 C 1726.91 5.99969 -1.2126 0
M  V30 18329 N 1726.04 6.99997 -0.543057 0
M  V30 18330 H 1730.88 2.61029 -1.43764 0
M  V30 18331 H 1728.42 1.28278 -0.719937 0
M  V30 18332 H 1730.38 4.14019 0.514244 0
M  V30 18333 H 1729.01 3.08518 0.949544 0
M  V30 18334 H 1728.06 3.52493 -1.43012 0
M  V30 18335 H 1729.37 4.70009 -1.67013 0
M  V30 18336 H 1728.53 6.06176 0.252164 0
M  V30 18337 H 1727.27 4.84159 0.586621 0
M  V30 18338 H 1726.27 5.23353 -1.68467 0
M  V30 18339 H 1727.5 6.48684 -2.00963 0
M  V30 18340 H 1725.44 6.55585 0.233324 0
M  V30 18341 H 1725.36 7.45679 -1.24492 0
M  V30 18342 H 1726.63 7.7943 -0.104643 0
M  V30 18343 N 1730.86 0.776895 1.37121 0
M  V30 18344 C 1732.1 0.353097 2.00312 0
M  V30 18345 C 1732.46 -1.06005 1.60563 0
M  V30 18346 O 1731.75 -1.71999 0.844208 0
M  V30 18347 C 1731.94 0.440201 3.54679 0
M  V30 18348 C 1731.77 1.86027 4.09419 0
M  V30 18349 C 1730.54 2.4821 4.40136 0
M  V30 18350 C 1732.74 2.82056 4.30057 0
M  V30 18351 N 1730.72 3.81936 4.80623 0
M  V30 18352 C 1732.09 4.0059 4.7321 0
M  V30 18353 C 1734.15 2.79276 4.12201 0
M  V30 18354 C 1732.85 5.16736 5.00376 0
M  V30 18355 C 1734.88 3.94599 4.40506 0
M  V30 18356 C 1734.24 5.11876 4.83904 0
M  V30 18357 H 1730.34 0.17636 0.761854 0
M  V30 18358 H 1732.92 1.01182 1.66344 0
M  V30 18359 H 1731.09 -0.188373 3.87943 0
M  V30 18360 H 1732.83 -0.00614674 4.047 0
M  V30 18361 H 1729.58 1.99787 4.29398 0
M  V30 18362 H 1730 4.50704 5.05168 0
M  V30 18363 H 1734.65 1.89775 3.77816 0
M  V30 18364 H 1732.36 6.06833 5.33647 0
M  V30 18365 H 1735.95 3.93794 4.28273 0
M  V30 18366 H 1734.83 5.9963 5.05385 0
M  V30 18367 N 1732.33 -1.48497 0.527859 0
M  V30 18368 C 1733.75 -1.58517 0.185573 0
M  V30 18369 C 1733.95 -1.53012 -1.31109 0
M  V30 18370 O 1733.01 -1.41807 -2.08919 0
M  V30 18371 C 1734.32 -2.9024 0.786219 0
M  V30 18372 C 1735.87 -3.03764 0.75476 0
M  V30 18373 C 1736.34 -4.38144 1.33394 0
M  V30 18374 N 1737.83 -4.44705 1.29582 0
M  V30 18375 C 1738.57 -5.47187 1.71388 0
M  V30 18376 N 1738.06 -6.56635 2.20913 0
M  V30 18377 N 1739.86 -5.38057 1.62638 0
M  V30 18378 H 1732.01 -1.50319 1.5006 0
M  V30 18379 H 1734.27 -0.713625 0.624054 0
M  V30 18380 H 1733.98 -2.99918 1.8369 0
M  V30 18381 H 1733.85 -3.76288 0.262084 0
M  V30 18382 H 1736.24 -2.937 -0.287157 0
M  V30 18383 H 1736.32 -2.19331 1.31634 0
M  V30 18384 H 1735.96 -4.48962 2.37478 0
M  V30 18385 H 1735.89 -5.2126 0.748063 0
M  V30 18386 H 1738.38 -3.66195 0.933246 0
M  V30 18387 H 1738.7 -7.30967 2.50813 0
M  V30 18388 H 1737.04 -6.57604 2.24906 0
M  V30 18389 H 1740.23 -4.51447 1.23746 0
M  V30 18390 H 1740.41 -6.17793 1.9554 0
M  V30 18391 N 1733.81 -0.262893 -1.55392 0
M  V30 18392 C 1735.06 0.357895 -1.99617 0
M  V30 18393 C 1735.39 1.56415 -1.151 0
M  V30 18394 O 1734.67 1.93273 -0.218139 0
M  V30 18395 C 1734.95 0.752095 -3.52158 0
M  V30 18396 C 1734.8 -0.460658 -4.47435 0
M  V30 18397 C 1736.12 1.59314 -4.10253 0
M  V30 18398 H 1733.24 0.128612 -0.725691 0
M  V30 18399 H 1735.88 -0.367399 -1.86414 0
M  V30 18400 H 1734.03 1.37006 -3.6354 0
M  V30 18401 H 1735.7 -1.09918 -4.48013 0
M  V30 18402 H 1733.95 -1.10093 -4.19597 0
M  V30 18403 H 1734.62 -0.141262 -5.51819 0
M  V30 18404 H 1737.09 1.07135 -4.02071 0
M  V30 18405 H 1735.97 1.83779 -5.1722 0
M  V30 18406 H 1736.23 2.57022 -3.59711 0
M  V30 18407 N 1735.29 1.57597 0.0100073 0
M  V30 18408 C 1736.71 1.55348 0.365949 0
M  V30 18409 C 1736.91 0.991487 1.75419 0
M  V30 18410 O 1735.96 0.620894 2.44747 0
M  V30 18411 C 1737.27 2.99656 0.250343 0
M  V30 18412 C 1738.82 3.11297 0.326023 0
M  V30 18413 C 1739.3 4.57373 0.239653 0
M  V30 18414 N 1740.79 4.62241 0.297863 0
M  V30 18415 C 1741.52 5.72836 0.254219 0
M  V30 18416 N 1741.02 6.92611 0.161753 0
M  V30 18417 N 1742.81 5.6127 0.30535 0
M  V30 18418 H 1734.96 1.92471 -0.898253 0
M  V30 18419 H 1737.23 0.883623 -0.343386 0
M  V30 18420 H 1736.93 3.44574 -0.704407 0
M  V30 18421 H 1736.81 3.62682 1.03643 0
M  V30 18422 H 1739.19 2.66316 1.27121 0
M  V30 18423 H 1739.27 2.51068 -0.489756 0
M  V30 18424 H 1738.92 5.03026 -0.70195 0
M  V30 18425 H 1738.85 5.15536 1.07379 0
M  V30 18426 H 1741.34 3.76074 0.371065 0
M  V30 18427 H 1741.65 7.72684 0.134073 0
M  V30 18428 H 1740 6.94883 0.127524 0
M  V30 18429 H 1743.19 4.6659 0.375713 0
M  V30 18430 H 1743.36 6.47446 0.267871 0
M  V30 18431 N 1736.77 -0.282606 1.55045 0
M  V30 18432 C 1738 -1.03245 1.78952 0
M  V30 18433 C 1738.41 -1.80777 0.558225 0
M  V30 18434 O 1737.75 -1.77264 -0.482009 0
M  V30 18435 C 1737.81 -2.04557 2.95629 0
M  V30 18436 C 1737.47 -1.46051 4.33034 0
M  V30 18437 C 1738.47 -0.881083 5.1238 0
M  V30 18438 C 1736.16 -1.4906 4.79673 0
M  V30 18439 C 1738.15 -0.339532 6.36495 0
M  V30 18440 C 1735.84 -0.945189 6.03746 0
M  V30 18441 C 1736.84 -0.370643 6.81994 0
M  V30 18442 O 1736.52 0.166447 8.03728 0
M  V30 18443 H 1736.26 -0.311139 0.60014 0
M  V30 18444 H 1738.81 -0.32175 2.02864 0
M  V30 18445 H 1737.04 -2.79359 2.67386 0
M  V30 18446 H 1738.73 -2.65592 3.06946 0
M  V30 18447 H 1739.49 -0.850602 4.77483 0
M  V30 18448 H 1735.37 -1.92719 4.18784 0
M  V30 18449 H 1738.92 0.109564 6.97514 0
M  V30 18450 H 1734.81 -0.972878 6.38126 0
M  V30 18451 H 1735.58 0.054892 8.18482 0
M  V30 18452 N 1738.25 -1.47815 -0.546675 0
M  V30 18453 C 1739.47 -1.58613 -1.32851 0
M  V30 18454 C 1739.89 -0.240179 -1.87266 0
M  V30 18455 O 1739.25 0.768148 -1.65547 0
M  V30 18456 C 1739.3 -2.61969 -2.49107 0
M  V30 18457 O 1739.02 -3.9134 -1.96938 0
M  V30 18458 C 1740.52 -2.83051 -3.4117 0
M  V30 18459 H 1737.74 -0.535292 -0.404603 0
M  V30 18460 H 1740.28 -1.93516 -0.661192 0
M  V30 18461 H 1738.44 -2.29971 -3.11756 0
M  V30 18462 H 1738.85 -4.47905 -2.72913 0
M  V30 18463 H 1740.33 -3.59209 -4.19134 0
M  V30 18464 H 1740.8 -1.91258 -3.95369 0
M  V30 18465 H 1741.41 -3.16287 -2.84328 0
M  V30 18466 N 1739.72 0.794246 -1.36123 0
M  V30 18467 C 1740.67 1.92808 -1.30108 0
M  V30 18468 C 1741.67 1.68289 -0.193734 0
M  V30 18469 O 1742.87 1.76354 -0.360454 0
M  V30 18470 H 1739.25 0.633671 -0.404926 0
M  V30 18471 H 1741.22 1.95 -2.2587 0
M  V30 18472 C 1739.97 3.29762 -1.10238 0
M  V30 18473 H 1739.29 3.49193 -1.9469 0
M  V30 18474 H 1740.73 4.09463 -1.10073 0
M  V30 18475 C 1739.19 3.36345 0.193222 0
M  V30 18476 O 1739.72 3.83832 1.18474 0
M  V30 18477 N 1737.92 2.89638 0.236243 0
M  V30 18478 H 1737.47 2.51186 -0.571245 0
M  V30 18479 H 1737.43 2.94424 1.1028 0
M  V30 18480 N 1741.2 1.20323 1.01785 0
M  V30 18481 C 1742.45 1.02417 1.75734 0
M  V30 18482 C 1742.8 -0.439244 1.87319 0
M  V30 18483 O 1742.1 -1.32182 1.38703 0
M  V30 18484 C 1742.29 1.63984 3.1756 0
M  V30 18485 C 1742.12 3.1616 3.19802 0
M  V30 18486 C 1740.89 3.85129 3.27114 0
M  V30 18487 C 1743.09 4.13399 3.0595 0
M  V30 18488 N 1741.07 5.24604 3.18847 0
M  V30 18489 C 1742.44 5.39543 3.05439 0
M  V30 18490 C 1744.49 4.04615 2.90158 0
M  V30 18491 C 1743.2 6.57917 2.90755 0
M  V30 18492 C 1745.22 5.2261 2.76827 0
M  V30 18493 C 1744.59 6.47658 2.7698 0
M  V30 18494 H 1740.68 0.428994 0.653826 0
M  V30 18495 H 1743.27 1.52474 1.21078 0
M  V30 18496 H 1741.44 1.16512 3.70512 0
M  V30 18497 H 1743.17 1.39406 3.79932 0
M  V30 18498 H 1739.93 3.3598 3.33788 0
M  V30 18499 H 1740.35 5.97618 3.18091 0
M  V30 18500 H 1744.99 3.08745 2.88853 0
M  V30 18501 H 1742.71 7.5396 2.90808 0
M  V30 18502 H 1746.3 5.17623 2.65626 0
M  V30 18503 H 1745.18 7.37426 2.66781 0
M  V30 18504 N 1742.68 -1.21073 1.00892 0
M  V30 18505 C 1743.64 -2.21804 0.577543 0
M  V30 18506 C 1744.64 -1.56985 -0.348201 0
M  V30 18507 O 1745.83 -1.73653 -0.137947 0
M  V30 18508 C 1742.96 -3.40535 -0.157685 0
M  V30 18509 H 1744.16 -2.61483 1.46856 0
M  V30 18510 H 1741.71 -1.34402 0.79786 0
M  V30 18511 H 1742.45 -3.0635 -1.06397 0
M  V30 18512 H 1742.23 -3.88805 0.507238 0
M  V30 18513 H 1743.72 -4.152 -0.447109 0
M  V30 18514 N 1744.16 -0.784156 -1.36707 0
M  V30 18515 C 1745.12 -0.184957 -2.28453 0
M  V30 18516 C 1746.12 0.614637 -1.4859 0
M  V30 18517 O 1747.31 0.436403 -1.68645 0
M  V30 18518 C 1744.44 0.744662 -3.32667 0
M  V30 18519 H 1745.64 -0.993861 -2.82953 0
M  V30 18520 H 1743.19 -0.553214 -1.46182 0
M  V30 18521 H 1743.92 1.57811 -2.83313 0
M  V30 18522 H 1743.71 0.173313 -3.91717 0
M  V30 18523 H 1745.2 1.15894 -4.01196 0
M  V30 18524 N 1745.64 1.48215 -0.535727 0
M  V30 18525 C 1746.91 1.95505 0.0609376 0
M  V30 18526 C 1747.29 1.47806 1.5072 0
M  V30 18527 O 1746.64 0.707142 2.17283 0
M  V30 18528 C 1746.85 3.48944 -0.0622609 0
M  V30 18529 C 1748.2 4.24496 0.0940805 0
M  V30 18530 O 1749.22 3.56198 0.0112532 0
M  V30 18531 O 1748.08 5.4584 0.268547 0
M  V30 18532 H 1745.18 0.82349 0.0761079 0
M  V30 18533 H 1747.72 1.58711 -0.600732 0
M  V30 18534 H 1746.49 3.76401 -1.06949 0
M  V30 18535 H 1746.12 3.92448 0.637999 0
M  V30 18536 N 1747.11 0.27113 1.5525 0
M  V30 18537 C 1748.02 -0.628245 2.26031 0
M  V30 18538 C 1749.04 -1.17339 1.28481 0
M  V30 18539 O 1750.22 -1.20453 1.61409 0
M  V30 18540 C 1747.28 -1.79766 2.96454 0
M  V30 18541 C 1746.34 -1.28958 4.09473 0
M  V30 18542 C 1745.58 -2.40326 4.76528 0
M  V30 18543 O 1745.8 -3.59595 4.42772 0
M  V30 18544 O 1744.73 -2.08708 5.64557 0
M  V30 18545 H 1748.56 -0.0549756 3.0365 0
M  V30 18546 H 1746.14 0.0386859 1.4935 0
M  V30 18547 H 1748.03 -2.4796 3.40725 0
M  V30 18548 H 1746.7 -2.35809 2.21756 0
M  V30 18549 H 1745.61 -0.57422 3.69667 0
M  V30 18550 H 1746.94 -0.774945 4.86061 0
M  V30 18551 N 1748.59 -1.576 -0.00164943 0
M  V30 18552 C 1750 -1.78578 -0.544681 0
M  V30 18553 C 1750.35 -0.905575 -1.74051 0
M  V30 18554 O 1749.48 -0.107614 -2.16132 0
M  V30 18555 C 1750.07 -3.23863 -0.994898 0
M  V30 18556 C 1748.63 -3.45943 -1.48325 0
M  V30 18557 C 1747.78 -2.73887 -0.433702 0
M  V30 18558 H 1750.73 -1.57104 0.224524 0
M  V30 18559 H 1750.75 -3.31885 -1.86099 0
M  V30 18560 H 1750.26 -3.87901 -0.124352 0
M  V30 18561 H 1748.37 -2.87118 -2.37474 0
M  V30 18562 H 1748.48 -4.54621 -1.51185 0
M  V30 18563 H 1746.84 -2.38458 -0.894969 0
M  V30 18564 H 1747.63 -3.40623 0.42785 0
M  V30 18565 N 1750.07 0.274379 -1.55193 0
M  V30 18566 C 1751.02 1.33913 -1.87978 0
M  V30 18567 C 1751.99 1.49142 -0.731149 0
M  V30 18568 O 1753.17 1.63572 -0.98229 0
M  V30 18569 C 1750.31 2.69464 -2.156 0
M  V30 18570 C 1749.43 2.62468 -3.43125 0
M  V30 18571 C 1748.56 3.90188 -3.60453 0
M  V30 18572 C 1747.6 3.77697 -4.81675 0
M  V30 18573 N 1746.74 4.97249 -4.95669 0
M  V30 18574 H 1751.58 1.05254 -2.78793 0
M  V30 18575 H 1749.11 0.508532 -1.3803 0
M  V30 18576 H 1751.07 3.48329 -2.29614 0
M  V30 18577 H 1749.7 2.96328 -1.28021 0
M  V30 18578 H 1748.75 1.7532 -3.3759 0
M  V30 18579 H 1750.07 2.49137 -4.32125 0
M  V30 18580 H 1749.22 4.77495 -3.74277 0
M  V30 18581 H 1747.96 4.06384 -2.69635 0
M  V30 18582 H 1746.96 2.88774 -4.67857 0
M  V30 18583 H 1748.19 3.63022 -5.73927 0
M  V30 18584 H 1746.13 5.13858 -4.07781 0
M  V30 18585 H 1746.05 4.86444 -5.78712 0
M  V30 18586 H 1747.32 5.86132 -5.13877 0
M  V30 18587 N 1751.55 1.48103 0.538828 0
M  V30 18588 C 1752.48 1.64856 1.65363 0
M  V30 18589 C 1753.46 0.497579 1.6266 0
M  V30 18590 O 1754.64 0.729088 1.79994 0
M  V30 18591 C 1751.77 1.67984 3.03971 0
M  V30 18592 C 1750.73 2.82494 3.21529 0
M  V30 18593 C 1750.05 2.70706 4.6111 0
M  V30 18594 C 1751.35 4.23892 3.05145 0
M  V30 18595 H 1753.05 2.58183 1.51598 0
M  V30 18596 H 1750.59 1.24249 0.727886 0
M  V30 18597 H 1752.55 1.78294 3.81824 0
M  V30 18598 H 1751.27 0.712299 3.18738 0
M  V30 18599 H 1749.93 2.71725 2.46091 0
M  V30 18600 H 1749.58 1.7194 4.727 0
M  V30 18601 H 1749.28 3.47539 4.73804 0
M  V30 18602 H 1750.8 2.82971 5.41073 0
M  V30 18603 H 1752.22 4.3554 3.72797 0
M  V30 18604 H 1750.61 5.01654 3.29338 0
M  V30 18605 H 1751.68 4.40973 2.01671 0
M  V30 18606 N 1753.03 -0.787016 1.36542 0
M  V30 18607 C 1753.97 -1.89975 1.31065 0
M  V30 18608 C 1754.94 -1.65134 0.178905 0
M  V30 18609 O 1756.13 -1.8726 0.36581 0
M  V30 18610 C 1753.27 -3.26822 1.10821 0
M  V30 18611 C 1752.38 -3.6372 2.33091 0
M  V30 18612 C 1751.52 -4.89697 2.0584 0
M  V30 18613 C 1750.56 -5.1928 3.24059 0
M  V30 18614 N 1749.69 -6.36441 2.96457 0
M  V30 18615 H 1754.53 -1.93993 2.2621 0
M  V30 18616 H 1752.07 -0.948631 1.12425 0
M  V30 18617 H 1754.03 -4.05741 0.971091 0
M  V30 18618 H 1752.66 -3.22221 0.193302 0
M  V30 18619 H 1751.71 -2.79906 2.57598 0
M  V30 18620 H 1753.02 -3.81529 3.21305 0
M  V30 18621 H 1752.18 -5.76486 1.89072 0
M  V30 18622 H 1750.91 -4.73962 1.14941 0
M  V30 18623 H 1749.92 -4.30973 3.41383 0
M  V30 18624 H 1751.14 -5.36934 4.15787 0
M  V30 18625 H 1749.09 -6.22093 2.08172 0
M  V30 18626 H 1749.01 -6.54594 3.78209 0
M  V30 18627 H 1750.28 -7.26207 2.83273 0
M  V30 18628 N 1754.5 -1.20861 -1.01145 0
M  V30 18629 C 1755.73 -1.04843 -1.78949 0
M  V30 18630 C 1756.15 0.397676 -1.83848 0
M  V30 18631 O 1755.51 1.28663 -1.27733 0
M  V30 18632 C 1755.56 -1.64267 -3.21012 0
M  V30 18633 O 1754.66 -0.883773 -4.02819 0
M  V30 18634 H 1754.01 -0.36941 -0.551754 0
M  V30 18635 H 1756.54 -1.60266 -1.27185 0
M  V30 18636 H 1756.55 -1.68218 -3.71708 0
M  V30 18637 H 1755.22 -2.69509 -3.16761 0
M  V30 18638 H 1753.8 -0.918866 -3.61402 0
M  V30 18639 N 1755.98 1.20536 -1.01532 0
M  V30 18640 C 1756.95 2.21495 -0.589298 0
M  V30 18641 C 1757.95 1.57167 0.339871 0
M  V30 18642 O 1759.14 1.73724 0.128736 0
M  V30 18643 C 1756.27 3.40614 0.139623 0
M  V30 18644 H 1757.46 2.607 -1.48241 0
M  V30 18645 H 1755.01 1.33977 -0.804977 0
M  V30 18646 H 1755.75 3.0691 1.04771 0
M  V30 18647 H 1755.53 3.88531 -0.52785 0
M  V30 18648 H 1757.02 4.15431 0.425083 0
M  V30 18649 N 1757.46 0.791395 1.36289 0
M  V30 18650 C 1758.7 0.370134 2.01021 0
M  V30 18651 C 1759.06 -1.03918 1.61447 0
M  V30 18652 O 1760.27 -1.56163 2.18784 0
M  V30 18653 C 1758.54 0.530868 3.53435 0
M  V30 18654 S 1760.1 0.197778 4.38354 0
M  V30 18655 H 1756.91 0.141315 0.696815 0
M  V30 18656 H 1759.52 1.03032 1.66147 0
M  V30 18657 H 1758.22 1.55683 3.79725 0
M  V30 18658 H 1757.75 -0.14518 3.93132 0
M  V30 18659 H 1759.77 -0.999956 4.8602 0
M  V30 18660 N 1758.94 -1.47929 0.54358 0
M  V30 18661 C 1760.19 -2.02795 0.014488 0
M  V30 18662 C 1760.52 -1.41848 -1.32638 0
M  V30 18663 O 1759.79 -0.569099 -1.85988 0
M  V30 18664 C 1760.08 -3.5998 -0.093097 0
M  V30 18665 C 1759.93 -4.31384 1.2739 0
M  V30 18666 C 1761.25 -4.32521 -0.813251 0
M  V30 18667 H 1758.37 -0.736969 0.00673905 0
M  V30 18668 H 1761.01 -1.76507 0.703238 0
M  V30 18669 H 1759.16 -3.82508 -0.679685 0
M  V30 18670 H 1760.83 -4.20235 1.90264 0
M  V30 18671 H 1759.07 -3.9227 1.85221 0
M  V30 18672 H 1759.75 -5.39856 1.15148 0
M  V30 18673 H 1762.22 -4.14903 -0.315334 0
M  V30 18674 H 1761.1 -5.42161 -0.857456 0
M  V30 18675 H 1761.36 -4.00768 -1.86649 0
M  V30 18676 N 1760.42 -0.27936 -1.55104 0
M  V30 18677 C 1761.65 0.338937 -2.03801 0
M  V30 18678 C 1762.06 1.49699 -1.15702 0
M  V30 18679 O 1761.4 1.82906 -0.170589 0
M  V30 18680 C 1761.46 0.878265 -3.48607 0
M  V30 18681 C 1761.12 -0.151698 -4.56748 0
M  V30 18682 C 1762.12 -0.972688 -5.1072 0
M  V30 18683 C 1759.81 -0.287161 -5.01478 0
M  V30 18684 C 1761.8 -1.91529 -6.07944 0
M  V30 18685 C 1759.49 -1.23323 -5.98527 0
M  V30 18686 C 1760.49 -2.04579 -6.51641 0
M  V30 18687 O 1760.17 -2.97586 -7.46792 0
M  V30 18688 H 1759.91 0.080791 -0.671155 0
M  V30 18689 H 1762.46 -0.410483 -2.01257 0
M  V30 18690 H 1760.69 1.67783 -3.48405 0
M  V30 18691 H 1762.38 1.41011 -3.80619 0
M  V30 18692 H 1763.14 -0.878791 -4.76972 0
M  V30 18693 H 1759.02 0.33531 -4.59779 0
M  V30 18694 H 1762.57 -2.54993 -6.49326 0
M  V30 18695 H 1758.46 -1.32793 -6.31693 0
M  V30 18696 H 1759.23 -2.92316 -7.64522 0
M  V30 18697 N 1761.9 1.57599 -0.0067085 0
M  V30 18698 C 1762.83 2.11878 0.981331 0
M  V30 18699 C 1763.81 1.02949 1.35408 0
M  V30 18700 O 1764.99 1.30667 1.43665 0
M  V30 18701 C 1762.12 2.62757 2.27104 0
M  V30 18702 C 1761.08 3.76272 2.0397 0
M  V30 18703 C 1760.4 4.13491 3.39012 0
M  V30 18704 C 1761.7 5.03274 1.39688 0
M  V30 18705 H 1763.4 2.94683 0.529366 0
M  V30 18706 H 1760.94 1.41757 0.253187 0
M  V30 18707 H 1762.89 2.99359 2.96585 0
M  V30 18708 H 1761.62 1.77082 2.74426 0
M  V30 18709 H 1760.28 3.40074 1.36913 0
M  V30 18710 H 1759.93 3.24831 3.8405 0
M  V30 18711 H 1759.63 4.89972 3.24347 0
M  V30 18712 H 1761.15 4.52657 4.09797 0
M  V30 18713 H 1762.56 5.37604 1.99136 0
M  V30 18714 H 1760.96 5.84604 1.3549 0
M  V30 18715 H 1762.03 4.8351 0.366928 0
M  V30 18716 N 1763.37 -0.266145 1.55336 0
M  V30 18717 C 1764.65 -1.01852 1.6699 0
M  V30 18718 C 1765.03 -2.04053 0.54088 0
M  V30 18719 O 1764.38 -2.23859 -0.458193 0
M  V30 18720 C 1764.59 -1.66917 3.06496 0
M  V30 18721 C 1765.94 -2.17824 3.64469 0
M  V30 18722 O 1766.96 -1.76892 3.09173 0
M  V30 18723 O 1765.82 -2.92922 4.61367 0
M  V30 18724 H 1762.91 -0.472871 0.67847 0
M  V30 18725 H 1765.46 -0.261458 1.67674 0
M  V30 18726 H 1764.23 -0.928941 3.80114 0
M  V30 18727 H 1763.85 -2.49292 3.0974 0
M  V30 18728 N 1764.85 -1.48386 -0.530967 0
M  V30 18729 C 1765.78 -1.6573 -1.64486 0
M  V30 18730 C 1766.76 -0.506198 -1.62393 0
M  V30 18731 O 1767.95 -0.738623 -1.79605 0
M  V30 18732 C 1765.08 -1.69594 -3.03076 0
M  V30 18733 C 1764.03 -2.84195 -3.20027 0
M  V30 18734 C 1763.36 -2.73148 -4.59668 0
M  V30 18735 C 1764.66 -4.25504 -3.02892 0
M  V30 18736 H 1766.35 -2.58983 -1.50227 0
M  V30 18737 H 1763.9 -1.24633 -0.721286 0
M  V30 18738 H 1765.85 -1.80316 -3.80873 0
M  V30 18739 H 1764.57 -0.729193 -3.18356 0
M  V30 18740 H 1763.23 -2.73027 -2.44647 0
M  V30 18741 H 1762.88 -1.74444 -4.71782 0
M  V30 18742 H 1762.58 -3.50047 -4.71954 0
M  V30 18743 H 1764.11 -2.85836 -5.39565 0
M  V30 18744 H 1765.52 -4.37511 -3.70482 0
M  V30 18745 H 1763.92 -5.03393 -3.26673 0
M  V30 18746 H 1764.99 -4.42036 -1.99329 0
M  V30 18747 N 1766.33 0.779763 -1.36958 0
M  V30 18748 C 1767.61 1.52679 -1.22264 0
M  V30 18749 C 1767.99 2.10269 0.187164 0
M  V30 18750 O 1767.33 1.94828 1.19391 0
M  V30 18751 C 1767.54 2.61406 -2.31231 0
M  V30 18752 C 1768.89 3.29027 -2.68377 0
M  V30 18753 O 1769.92 2.71696 -2.30347 0
M  V30 18754 O 1768.78 4.3266 -3.33868 0
M  V30 18755 H 1765.87 0.675843 -0.476619 0
M  V30 18756 H 1768.42 0.817416 -1.48716 0
M  V30 18757 H 1767.19 2.16915 -3.25674 0
M  V30 18758 H 1766.81 3.39953 -2.06199 0
M  V30 18759 N 1767.81 1.21396 1.00503 0
M  V30 18760 C 1769.06 1.02913 1.73935 0
M  V30 18761 C 1769.38 -0.438329 1.9001 0
M  V30 18762 O 1768.65 -1.31618 1.45098 0
M  V30 18763 H 1767.23 0.377813 0.644412 0
M  V30 18764 H 1769.89 1.52704 1.21109 0
M  V30 18765 H 1768.98 1.49705 2.73852 0
M  V30 18766 N 1769.29 -1.19996 1.0217 0
M  V30 18767 C 1770.52 -1.93186 0.732311 0
M  V30 18768 C 1770.92 -1.75303 -0.711724 0
M  V30 18769 O 1770.27 -1.06756 -1.49495 0
M  V30 18770 C 1770.33 -3.45466 0.994655 0
M  V30 18771 C 1769.99 -3.87114 2.42882 0
M  V30 18772 C 1770.99 -3.92459 3.40987 0
M  V30 18773 C 1768.67 -4.18958 2.77091 0
M  V30 18774 C 1770.67 -4.29067 4.7136 0
M  V30 18775 C 1768.36 -4.5524 4.07676 0
M  V30 18776 C 1769.35 -4.60267 5.04622 0
M  V30 18777 O 1769.04 -4.95713 6.32869 0
M  V30 18778 H 1768.77 -0.62069 0.267806 0
M  V30 18779 H 1771.33 -1.53287 1.3672 0
M  V30 18780 H 1769.56 -3.85514 0.30261 0
M  V30 18781 H 1771.25 -3.99887 0.696049 0
M  V30 18782 H 1772.01 -3.68016 3.15895 0
M  V30 18783 H 1767.89 -4.14233 2.02317 0
M  V30 18784 H 1771.44 -4.32905 5.47027 0
M  V30 18785 H 1767.33 -4.7914 4.32545 0
M  V30 18786 H 1768.1 -5.13687 6.37234 0
M  V30 18787 N 1770.76 -0.798611 -1.35867 0
M  V30 18788 C 1772.01 -0.38492 -1.99725 0
M  V30 18789 C 1772.36 1.03438 -1.6223 0
M  V30 18790 O 1771.66 1.70634 -0.871464 0
M  V30 18791 C 1771.85 -0.496572 -3.53934 0
M  V30 18792 C 1771.68 -1.92517 -4.06408 0
M  V30 18793 C 1770.45 -2.5518 -4.36132 0
M  V30 18794 C 1772.65 -2.88862 -4.25515 0
M  V30 18795 N 1770.63 -3.89534 -4.74486 0
M  V30 18796 C 1772 -4.08068 -4.66777 0
M  V30 18797 C 1774.06 -2.85798 -4.07706 0
M  V30 18798 C 1772.76 -5.24631 -4.92092 0
M  V30 18799 C 1774.79 -4.01557 -4.34173 0
M  V30 18800 C 1774.15 -5.19509 -4.75699 0
M  V30 18801 H 1770.25 -0.188458 -0.758952 0
M  V30 18802 H 1772.83 -1.03816 -1.64713 0
M  V30 18803 H 1771 0.126631 -3.88194 0
M  V30 18804 H 1772.73 -0.0582382 -4.04658 0
M  V30 18805 H 1769.49 -2.06593 -4.26165 0
M  V30 18806 H 1769.91 -4.58684 -4.97934 0
M  V30 18807 H 1774.55 -1.95762 -3.7475 0
M  V30 18808 H 1772.27 -6.15246 -5.23926 0
M  V30 18809 H 1775.86 -4.00558 -4.21954 0
M  V30 18810 H 1774.74 -6.07594 -4.95781 0
M  V30 18811 N 1772.24 1.47639 -0.551417 0
M  V30 18812 C 1773.19 2.29936 0.199514 0
M  V30 18813 C 1774.16 1.38704 0.913811 0
M  V30 18814 O 1775.34 1.67666 0.910643 0
M  V30 18815 C 1772.48 3.22544 1.22717 0
M  V30 18816 C 1771.6 4.28865 0.519527 0
M  V30 18817 C 1770.73 5.0863 1.53197 0
M  V30 18818 C 1769.77 6.06731 0.808981 0
M  V30 18819 N 1768.91 6.79476 1.76798 0
M  V30 18820 H 1773.75 2.93631 -0.508414 0
M  V30 18821 H 1771.28 1.44738 -0.262553 0
M  V30 18822 H 1773.24 3.74653 1.83551 0
M  V30 18823 H 1771.87 2.60726 1.9032 0
M  V30 18824 H 1770.92 3.79857 -0.203217 0
M  V30 18825 H 1772.24 4.98778 -0.0471224 0
M  V30 18826 H 1771.39 5.6486 2.214 0
M  V30 18827 H 1770.13 4.38605 2.13253 0
M  V30 18828 H 1769.13 5.49684 0.112991 0
M  V30 18829 H 1770.36 6.78762 0.214239 0
M  V30 18830 H 1768.31 6.12185 2.35722 0
M  V30 18831 H 1768.22 7.45539 1.25333 0
M  V30 18832 H 1769.49 7.40283 2.44133 0
M  V30 18833 N 1773.72 0.287581 1.54954 0
M  V30 18834 C 1774.95 -0.328601 2.04274 0
M  V30 18835 C 1775.36 -1.48535 1.16545 0
M  V30 18836 O 1774.72 -1.81527 0.188187 0
M  V30 18837 C 1774.77 -0.797705 3.52589 0
M  V30 18838 O 1774.49 0.31299 4.36981 0
M  V30 18839 C 1775.99 -1.48042 4.1785 0
M  V30 18840 H 1773.21 -0.0733253 0.666982 0
M  V30 18841 H 1775.76 0.423307 2.00071 0
M  V30 18842 H 1773.91 -1.49967 3.57196 0
M  V30 18843 H 1774.33 -0.0498078 5.24476 0
M  V30 18844 H 1775.8 -1.75995 5.23192 0
M  V30 18845 H 1776.28 -2.41608 3.66772 0
M  V30 18846 H 1776.88 -0.821988 4.17281 0
M  V30 18847 N 1775.2 -1.57593 0.0150662 0
M  V30 18848 C 1776.16 -2.08293 -0.956385 0
M  V30 18849 C 1777.16 -0.99521 -1.26302 0
M  V30 18850 O 1778.35 -1.25732 -1.2057 0
M  V30 18851 C 1775.48 -2.53702 -2.27701 0
M  V30 18852 H 1776.68 -2.95401 -0.517543 0
M  V30 18853 H 1774.23 -1.54558 -0.232706 0
M  V30 18854 H 1774.96 -1.69882 -2.76244 0
M  V30 18855 H 1774.75 -3.33155 -2.06761 0
M  V30 18856 H 1776.24 -2.93201 -2.9736 0
M  V30 18857 N 1776.68 0.257904 -1.55475 0
M  V30 18858 C 1777.63 1.32176 -1.85778 0
M  V30 18859 C 1778.61 1.44002 -0.717789 0
M  V30 18860 O 1779.8 1.47429 -0.979476 0
M  V30 18861 C 1776.93 2.67928 -2.14638 0
M  V30 18862 C 1776.02 2.60151 -3.34936 0
M  V30 18863 N 1776.41 2.22 -4.54477 0
M  V30 18864 C 1774.71 2.91186 -3.37827 0
M  V30 18865 C 1775.41 2.24586 -5.36597 0
M  V30 18866 N 1774.38 2.63656 -4.7538 0
M  V30 18867 H 1778.19 1.01711 -2.75739 0
M  V30 18868 H 1775.7 0.466539 -1.55554 0
M  V30 18869 H 1777.7 3.4469 -2.34508 0
M  V30 18870 H 1776.36 2.99269 -1.25969 0
M  V30 18871 H 1777.37 1.93726 -4.80303 0
M  V30 18872 H 1774.04 3.27139 -2.59397 0
M  V30 18873 H 1775.43 1.97522 -6.42211 0
M  V30 18874 N 1778.15 1.48666 0.52309 0
M  V30 18875 C 1779.39 1.58636 1.28895 0
M  V30 18876 C 1779.76 0.257403 1.90267 0
M  V30 18877 O 1780.96 0.232139 2.67796 0
M  V30 18878 C 1779.23 2.69794 2.34406 0
M  V30 18879 S 1780.79 2.99574 3.20625 0
M  V30 18880 H 1777.61 0.559793 0.438353 0
M  V30 18881 H 1780.21 1.86221 0.595137 0
M  V30 18882 H 1778.91 3.64904 1.87811 0
M  V30 18883 H 1778.44 2.44132 3.08485 0
M  V30 18884 H 1780.46 2.394 4.34629 0
M  V30 18885 N 1779.63 -0.772489 1.37369 0
M  V30 18886 C 1780.58 -1.90713 1.33158 0
M  V30 18887 C 1781.57 -1.67959 0.220482 0
M  V30 18888 O 1782.78 -1.75758 0.388465 0
M  V30 18889 H 1779.16 -0.627149 0.414956 0
M  V30 18890 H 1781.13 -1.91382 2.28944 0
M  V30 18891 C 1779.88 -3.27966 1.1547 0
M  V30 18892 H 1779.2 -3.46052 2.00221 0
M  V30 18893 H 1780.64 -4.0766 1.16574 0
M  V30 18894 C 1779.1 -3.3661 -0.139688 0
M  V30 18895 O 1779.63 -3.85668 -1.12353 0
M  V30 18896 N 1777.83 -2.89977 -0.190134 0
M  V30 18897 H 1777.38 -2.50246 0.611134 0
M  V30 18898 H 1777.34 -2.96142 -1.05582 0
M  V30 18899 N 1781.11 -1.21927 -0.998575 0
M  V30 18900 C 1782.02 -1.00049 -2.12197 0
M  V30 18901 C 1783.04 0.0494414 -1.7393 0
M  V30 18902 O 1784.21 -0.142033 -2.00899 0
M  V30 18903 C 1781.28 -0.574871 -3.41901 0
M  V30 18904 C 1780.34 -1.69776 -3.94303 0
M  V30 18905 C 1779.57 -1.29236 -5.17816 0
M  V30 18906 O 1779.79 -0.168709 -5.7015 0
M  V30 18907 O 1778.73 -2.10671 -5.63827 0
M  V30 18908 H 1782.55 -1.94154 -2.33534 0
M  V30 18909 H 1780.14 -1.00472 -1.10571 0
M  V30 18910 H 1782.02 -0.347603 -4.19964 0
M  V30 18911 H 1780.7 0.337389 -3.21937 0
M  V30 18912 H 1779.6 -1.9795 -3.17438 0
M  V30 18913 H 1780.94 -2.58768 -4.18688 0
M  V30 18914 N 1782.59 1.19452 -1.02805 0
M  V30 18915 C 1783.81 1.93616 -0.743485 0
M  V30 18916 C 1784.24 1.74934 0.691342 0
M  V30 18917 O 1783.6 1.05111 1.47721 0
M  V30 18918 C 1783.64 3.43451 -1.0988 0
M  V30 18919 O 1782.75 4.11829 -0.216978 0
M  V30 18920 H 1782.09 0.60448 -0.274771 0
M  V30 18921 H 1784.62 1.51554 -1.37451 0
M  V30 18922 H 1784.63 3.94115 -1.05535 0
M  V30 18923 H 1783.3 3.5637 -2.14413 0
M  V30 18924 H 1781.88 3.71533 -0.318954 0
M  V30 18925 N 1784.07 0.805805 1.35442 0
M  V30 18926 C 1785.31 0.385808 1.98791 0
M  V30 18927 C 1785.64 -1.04681 1.63927 0
M  V30 18928 O 1784.9 -1.7408 0.894125 0
M  V30 18929 C 1785.2 0.515335 3.53665 0
M  V30 18930 C 1784.86 1.91115 4.08394 0
M  V30 18931 C 1783.52 2.29302 4.23053 0
M  V30 18932 C 1785.88 2.82437 4.38039 0
M  V30 18933 C 1783.2 3.58182 4.64675 0
M  V30 18934 C 1785.56 4.10762 4.811 0
M  V30 18935 C 1784.22 4.48949 4.93964 0
M  V30 18936 H 1783.49 0.141177 0.727427 0
M  V30 18937 H 1786.14 1.02644 1.61667 0
M  V30 18938 H 1784.44 -0.208753 3.91243 0
M  V30 18939 H 1786.14 0.171152 4.00635 0
M  V30 18940 H 1782.73 1.60446 3.97436 0
M  V30 18941 H 1786.91 2.54183 4.26268 0
M  V30 18942 H 1782.17 3.87618 4.72824 0
M  V30 18943 H 1786.34 4.81626 5.03 0
M  V30 18944 H 1783.97 5.48867 5.25974 0
M  V30 18945 N 1785.54 -1.47344 0.559239 0
M  V30 18946 C 1786.77 -2.0656 0.040802 0
M  V30 18947 C 1787.18 -1.41208 -1.25925 0
M  V30 18948 O 1786.53 -0.503333 -1.7667 0
M  V30 18949 C 1786.59 -3.58804 -0.223642 0
M  V30 18950 C 1786.25 -4.46208 0.987275 0
M  V30 18951 C 1787.25 -4.84198 1.89336 0
M  V30 18952 C 1784.93 -4.87693 1.20252 0
M  V30 18953 C 1786.93 -5.62474 2.99837 0
M  V30 18954 C 1784.61 -5.65733 2.31061 0
M  V30 18955 C 1785.61 -6.03034 3.20684 0
M  V30 18956 O 1785.3 -6.79502 4.29572 0
M  V30 18957 H 1785.03 -0.674583 0.0437408 0
M  V30 18958 H 1787.59 -1.90306 0.772827 0
M  V30 18959 H 1785.82 -3.73277 -1.01 0
M  V30 18960 H 1787.51 -4.00032 -0.687709 0
M  V30 18961 H 1788.27 -4.52746 1.73913 0
M  V30 18962 H 1784.15 -4.58124 0.514098 0
M  V30 18963 H 1787.69 -5.91508 3.69817 0
M  V30 18964 H 1783.59 -5.96598 2.46456 0
M  V30 18965 H 1784.36 -6.97898 4.27645 0
M  V30 18966 N 1787.02 -0.295795 -1.54799 0
M  V30 18967 C 1788.27 0.315007 -2.00035 0
M  V30 18968 C 1788.6 1.54295 -1.1842 0
M  V30 18969 O 1787.85 1.94134 -0.247101 0
M  V30 18970 C 1788.15 0.721225 -3.50047 0
M  V30 18971 C 1787.82 -0.404395 -4.49083 0
M  V30 18972 C 1786.48 -0.713419 -4.75882 0
M  V30 18973 C 1788.83 -1.16185 -5.08085 0
M  V30 18974 C 1786.16 -1.78311 -5.58947 0
M  V30 18975 C 1788.51 -2.22142 -5.92314 0
M  V30 18976 C 1787.18 -2.53657 -6.17426 0
M  V30 18977 H 1786.45 0.115269 -0.73198 0
M  V30 18978 H 1789.09 -0.41381 -1.86976 0
M  V30 18979 H 1787.4 1.53005 -3.60689 0
M  V30 18980 H 1789.09 1.20491 -3.82469 0
M  V30 18981 H 1785.68 -0.153436 -4.28325 0
M  V30 18982 H 1789.87 -0.936365 -4.87387 0
M  V30 18983 H 1785.12 -2.03206 -5.76643 0
M  V30 18984 H 1789.3 -2.81296 -6.3706 0
M  V30 18985 H 1786.93 -3.36676 -6.81581 0
M  V30 18986 N 1788.5 1.57583 -0.0234236 0
M  V30 18987 C 1789.43 2.12907 0.958804 0
M  V30 18988 C 1790.41 1.0438 1.34309 0
M  V30 18989 O 1791.6 1.32184 1.42271 0
M  V30 18990 C 1788.73 2.65151 2.24304 0
M  V30 18991 C 1787.68 3.78414 1.99967 0
M  V30 18992 C 1787.01 4.17064 3.34607 0
M  V30 18993 C 1788.31 5.04727 1.34342 0
M  V30 18994 H 1790 2.95228 0.498081 0
M  V30 18995 H 1787.55 1.42017 0.238138 0
M  V30 18996 H 1789.5 3.02487 2.93393 0
M  V30 18997 H 1788.22 1.79983 2.72532 0
M  V30 18998 H 1786.88 3.41507 1.33298 0
M  V30 18999 H 1786.53 3.28886 3.80583 0
M  V30 19000 H 1786.23 4.93385 3.19132 0
M  V30 19001 H 1787.76 4.56978 4.04973 0
M  V30 19002 H 1789.17 5.39686 1.93422 0
M  V30 19003 H 1787.57 5.86009 1.29282 0
M  V30 19004 H 1788.64 4.83872 0.315625 0
M  V30 19005 N 1789.98 -0.249655 1.5561 0
M  V30 19006 C 1791.22 -0.985467 1.79075 0
M  V30 19007 C 1791.58 -1.82629 0.592503 0
M  V30 19008 O 1792.78 -2.59366 0.705869 0
M  V30 19009 C 1791.06 -1.82549 3.07263 0
M  V30 19010 S 1792.61 -2.62078 3.51939 0
M  V30 19011 H 1789.43 -0.331525 0.628977 0
M  V30 19012 H 1792.03 -0.253591 1.93848 0
M  V30 19013 H 1790.74 -1.19744 3.92542 0
M  V30 19014 H 1790.27 -2.60017 2.9522 0
M  V30 19015 H 1792.28 -3.84983 3.13054 0
M  V30 19016 N 1791.46 -1.48941 -0.515198 0
M  V30 19017 C 1792.4 -1.64561 -1.61828 0
M  V30 19018 C 1793.37 -0.487323 -1.5879 0
M  V30 19019 O 1794.56 -0.712626 -1.76992 0
M  V30 19020 C 1791.7 -1.70506 -3.00036 0
M  V30 19021 C 1790.81 -2.97543 -3.13197 0
M  V30 19022 C 1789.95 -2.94555 -4.42053 0
M  V30 19023 C 1788.99 -4.16232 -4.48795 0
M  V30 19024 N 1788.12 -4.11236 -5.6906 0
M  V30 19025 H 1792.96 -2.58754 -1.47818 0
M  V30 19026 H 1790.5 -1.28307 -0.719423 0
M  V30 19027 H 1792.46 -1.71934 -3.80125 0
M  V30 19028 H 1791.09 -0.797907 -3.12783 0
M  V30 19029 H 1790.14 -3.05792 -2.26264 0
M  V30 19030 H 1791.45 -3.87532 -3.14039 0
M  V30 19031 H 1790.61 -2.94466 -5.30447 0
M  V30 19032 H 1789.35 -2.0232 -4.43754 0
M  V30 19033 H 1788.35 -4.1658 -3.58805 0
M  V30 19034 H 1789.58 -5.09644 -4.48821 0
M  V30 19035 H 1787.52 -3.2183 -5.7163 0
M  V30 19036 H 1787.44 -4.94945 -5.71459 0
M  V30 19037 H 1788.71 -4.15229 -6.59701 0
M  V30 19038 N 1792.94 0.765193 -1.37777 0
M  V30 19039 C 1794.35 1.06666 -1.1872 0
M  V30 19040 C 1794.55 2.01481 -0.0278636 0
M  V30 19041 O 1793.61 2.44514 0.630006 0
M  V30 19042 C 1794.92 1.65787 -2.50868 0
M  V30 19043 C 1796.47 1.78014 -2.57449 0
M  V30 19044 C 1796.94 2.40548 -3.89744 0
M  V30 19045 N 1798.43 2.47992 -3.91221 0
M  V30 19046 C 1799.17 2.97245 -4.9034 0
M  V30 19047 N 1798.67 3.46621 -5.99855 0
M  V30 19048 N 1800.46 2.96179 -4.77739 0
M  V30 19049 H 1792.61 0.135775 -2.11966 0
M  V30 19050 H 1794.87 0.122863 -0.940005 0
M  V30 19051 H 1794.58 1.03588 -3.36099 0
M  V30 19052 H 1794.45 2.65 -2.6843 0
M  V30 19053 H 1796.84 2.39345 -1.72621 0
M  V30 19054 H 1796.92 0.775388 -2.43765 0
M  V30 19055 H 1796.56 1.79855 -4.74989 0
M  V30 19056 H 1796.49 3.41643 -4.00734 0
M  V30 19057 H 1798.99 2.13056 -3.12114 0
M  V30 19058 H 1799.3 3.82625 -6.7143 0
M  V30 19059 H 1797.64 3.44709 -6.0349 0
M  V30 19060 H 1800.83 2.56909 -3.913 0
M  V30 19061 H 1801.01 3.34253 -5.55139 0
M  V30 19062 N 1794.41 1.22455 0.992094 0
M  V30 19063 C 1795.64 1.07677 1.77258 0
M  V30 19064 C 1796.06 -0.368377 1.84458 0
M  V30 19065 O 1795.42 -1.26614 1.29763 0
M  V30 19066 C 1795.47 1.69353 3.18358 0
M  V30 19067 O 1794.57 0.947746 4.01362 0
M  V30 19068 H 1793.91 0.378141 0.545807 0
M  V30 19069 H 1796.44 1.62269 1.2462 0
M  V30 19070 H 1796.45 1.7411 3.68985 0
M  V30 19071 H 1795.13 2.74515 3.12433 0
M  V30 19072 H 1793.71 0.976245 3.59894 0
M  V30 19073 N 1795.89 -1.18905 1.03437 0
M  V30 19074 C 1797.17 -1.84537 0.648503 0
M  V30 19075 C 1797.55 -1.92228 -0.872445 0
M  V30 19076 O 1796.9 -1.44342 -1.77137 0
M  V30 19077 C 1797.11 -3.23198 1.31698 0
M  V30 19078 C 1798.45 -3.99301 1.44374 0
M  V30 19079 O 1799.48 -3.32615 1.27458 0
M  V30 19080 O 1798.34 -5.18767 1.7188 0
M  V30 19081 H 1795.43 -0.795488 0.226114 0
M  V30 19082 H 1797.98 -1.2635 1.13287 0
M  V30 19083 H 1796.75 -3.12466 2.35543 0
M  V30 19084 H 1796.37 -3.89035 0.820829 0
M  V30 19085 N 1797.37 -0.812977 -1.35013 0
M  V30 19086 C 1798.28 -0.229534 -2.33474 0
M  V30 19087 C 1799.3 0.630837 -1.62162 0
M  V30 19088 O 1800.47 0.541083 -1.93995 0
M  V30 19089 C 1797.54 0.607055 -3.41344 0
M  V30 19090 C 1796.6 -0.274554 -4.28421 0
M  V30 19091 C 1795.83 0.522202 -5.31139 0
M  V30 19092 O 1796.05 1.75636 -5.42686 0
M  V30 19093 O 1794.99 -0.0902666 -6.01832 0
M  V30 19094 H 1798.81 -1.04423 -2.85183 0
M  V30 19095 H 1796.4 -0.5749 -1.37896 0
M  V30 19096 H 1798.28 1.08335 -4.07236 0
M  V30 19097 H 1796.96 1.39924 -2.91895 0
M  V30 19098 H 1795.86 -0.798124 -3.65487 0
M  V30 19099 H 1797.2 -1.03084 -4.81284 0
M  V30 19100 N 1798.85 1.47045 -0.567045 0
M  V30 19101 C 1800.1 2.01651 -0.044479 0
M  V30 19102 C 1800.41 1.44583 1.31738 0
M  V30 19103 O 1801.62 1.90911 1.93042 0
M  V30 19104 C 1800.07 3.59888 -0.0289854 0
M  V30 19105 C 1799.68 4.25949 -1.38821 0
M  V30 19106 C 1801.42 4.22209 0.440457 0
M  V30 19107 C 1799.33 5.76221 -1.33129 0
M  V30 19108 H 1798.26 0.75389 -0.012858 0
M  V30 19109 H 1800.91 1.68939 -0.716363 0
M  V30 19110 H 1799.29 3.89606 0.708747 0
M  V30 19111 H 1800.47 4.07861 -2.14443 0
M  V30 19112 H 1798.78 3.75658 -1.79639 0
M  V30 19113 H 1801.38 5.32342 0.501592 0
M  V30 19114 H 1801.72 3.9006 1.45461 0
M  V30 19115 H 1802.26 3.97059 -0.242721 0
M  V30 19116 H 1798.99 6.13005 -2.32175 0
M  V30 19117 H 1798.51 5.96618 -0.617023 0
M  V30 19118 H 1800.19 6.38627 -1.03752 0
M  V30 19119 N 1800.33 0.304 1.5464 0
M  V30 19120 C 1801.74 -0.188042 1.85751 0
M  V30 19121 C 1802.09 -1.53186 1.22591 0
M  V30 19122 O 1801.21 -2.09943 0.524696 0
M  V30 19123 C 1801.81 -0.347976 3.37008 0
M  V30 19124 C 1800.37 -0.784238 3.68139 0
M  V30 19125 C 1799.51 0.105654 2.77099 0
M  V30 19126 H 1802.46 0.524918 1.49767 0
M  V30 19127 H 1802.49 -1.18207 3.61673 0
M  V30 19128 H 1802 0.630227 3.82949 0
M  V30 19129 H 1800.1 -1.77288 3.27719 0
M  V30 19130 H 1800.21 -0.601546 4.75309 0
M  V30 19131 H 1798.58 -0.415561 2.51287 0
M  V30 19132 H 1799.36 1.08027 3.25861 0
M  V30 19133 N 1801.8 -1.57568 0.0317802 0
M  V30 19134 C 1802.77 -2.09296 -0.934239 0
M  V30 19135 C 1803.77 -1.00855 -1.25239 0
M  V30 19136 O 1804.96 -1.27004 -1.19229 0
M  V30 19137 C 1802.09 -2.56103 -2.24998 0
M  V30 19138 H 1803.28 -2.95933 -0.486183 0
M  V30 19139 H 1800.83 -1.54796 -0.2163 0
M  V30 19140 H 1801.57 -1.72803 -2.74426 0
M  V30 19141 H 1801.35 -3.35329 -2.03216 0
M  V30 19142 H 1802.84 -2.96339 -2.94233 0
M  V30 19143 N 1803.28 0.241399 -1.5574 0
M  V30 19144 C 1804.51 0.986075 -1.81891 0
M  V30 19145 C 1804.93 1.78734 -0.608254 0
M  V30 19146 O 1804.28 1.77527 0.423129 0
M  V30 19147 C 1804.33 1.91956 -3.06325 0
M  V30 19148 O 1804.05 1.15071 -4.22718 0
M  V30 19149 C 1805.56 2.77977 -3.45317 0
M  V30 19150 H 1802.78 0.289913 -0.605137 0
M  V30 19151 H 1805.32 0.262622 -2.02807 0
M  V30 19152 H 1803.47 2.59721 -2.87443 0
M  V30 19153 H 1803.89 1.78261 -4.93278 0
M  V30 19154 H 1805.36 3.39215 -4.35474 0
M  V30 19155 H 1805.84 3.49369 -2.66154 0
M  V30 19156 H 1806.45 2.15655 -3.66569 0
M  V30 19157 N 1804.76 1.49212 0.507292 0
M  V30 19158 C 1805.67 1.68141 1.63603 0
M  V30 19159 C 1806.69 0.563959 1.64607 0
M  V30 19160 O 1807.86 0.837885 1.83143 0
M  V30 19161 C 1804.93 1.73793 2.99995 0
M  V30 19162 C 1803.99 2.9733 3.09667 0
M  V30 19163 C 1803.22 3.02703 4.39553 0
M  V30 19164 O 1803.44 2.15844 5.27985 0
M  V30 19165 O 1802.38 3.95105 4.54066 0
M  V30 19166 H 1806.2 2.63749 1.50565 0
M  V30 19167 H 1803.79 1.32879 0.682893 0
M  V30 19168 H 1805.67 1.79901 3.81069 0
M  V30 19169 H 1804.35 0.813622 3.13308 0
M  V30 19170 H 1803.25 2.96743 2.27804 0
M  V30 19171 H 1804.59 3.8922 3.01278 0
M  V30 19172 N 1806.24 -0.757876 1.38181 0
M  V30 19173 C 1807.65 -1.33496 1.30521 0
M  V30 19174 C 1808 -1.96157 -0.0409405 0
M  V30 19175 O 1807.13 -1.94775 -0.942957 0
M  V30 19176 C 1807.72 -2.42725 2.36369 0
M  V30 19177 C 1806.28 -2.96165 2.323 0
M  V30 19178 C 1805.43 -1.69505 2.19461 0
M  V30 19179 H 1808.38 -0.557075 1.48601 0
M  V30 19180 H 1808.4 -3.22556 2.01836 0
M  V30 19181 H 1807.91 -1.97089 3.34331 0
M  V30 19182 H 1806.01 -3.4614 1.37904 0
M  V30 19183 H 1806.12 -3.50836 3.26269 0
M  V30 19184 H 1804.49 -1.92967 1.66241 0
M  V30 19185 H 1805.27 -1.25954 3.1936 0
M  V30 19186 N 1807.72 -1.22979 -0.985586 0
M  V30 19187 C 1809.13 -1.05448 -1.5407 0
M  V30 19188 C 1809.48 0.379808 -1.92489 0
M  V30 19189 O 1808.6 1.26582 -1.75516 0
M  V30 19190 C 1809.2 -1.90794 -2.7997 0
M  V30 19191 C 1807.76 -1.77538 -3.31899 0
M  V30 19192 C 1806.9 -1.86814 -2.04929 0
M  V30 19193 H 1809.86 -1.36718 -0.80585 0
M  V30 19194 H 1809.88 -1.42967 -3.5262 0
M  V30 19195 H 1809.39 -2.95177 -2.51977 0
M  V30 19196 H 1807.49 -0.759177 -3.64784 0
M  V30 19197 H 1807.6 -2.60627 -4.02008 0
M  V30 19198 H 1805.97 -1.30336 -2.18826 0
M  V30 19199 H 1806.75 -2.92742 -1.79324 0
M  V30 19200 N 1809.19 1.18355 -1.04066 0
M  V30 19201 C 1810.13 2.21482 -0.58977 0
M  V30 19202 C 1811.14 1.59198 0.340576 0
M  V30 19203 O 1812.33 1.77988 0.135094 0
M  V30 19204 C 1809.43 3.3853 0.158397 0
M  V30 19205 C 1808.6 4.30392 -0.779824 0
M  V30 19206 C 1807.66 5.26147 -0.0749517 0
M  V30 19207 O 1806.69 5.64812 -0.705381 0
M  V30 19208 N 1807.89 5.68137 1.19168 0
M  V30 19209 H 1810.65 2.60791 -1.47676 0
M  V30 19210 H 1808.21 1.33141 -0.921151 0
M  V30 19211 H 1810.21 3.99611 0.639788 0
M  V30 19212 H 1808.78 2.97913 0.946929 0
M  V30 19213 H 1808 3.66915 -1.44107 0
M  V30 19214 H 1809.28 4.88668 -1.41707 0
M  V30 19215 H 1808.68 5.38777 1.7244 0
M  V30 19216 H 1807.24 6.31415 1.61735 0
M  V30 19217 N 1810.67 0.820125 1.3458 0
M  V30 19218 C 1811.6 0.254709 2.32107 0
M  V30 19219 C 1812.58 -0.6273 1.58111 0
M  V30 19220 O 1813.77 -0.554759 1.86108 0
M  V30 19221 C 1810.9 -0.586541 3.42311 0
M  V30 19222 C 1809.85 0.198096 4.27541 0
M  V30 19223 C 1809.18 -0.765718 5.29189 0
M  V30 19224 C 1810.48 1.40472 5.03056 0
M  V30 19225 H 1812.17 1.06955 2.79644 0
M  V30 19226 H 1809.72 0.515756 1.34447 0
M  V30 19227 H 1811.67 -0.992259 4.09551 0
M  V30 19228 H 1810.4 -1.4344 2.93415 0
M  V30 19229 H 1809.05 0.585149 3.619 0
M  V30 19230 H 1808.7 -1.60946 4.76556 0
M  V30 19231 H 1808.4 -0.244954 5.87089 0
M  V30 19232 H 1809.93 -1.16935 5.99298 0
M  V30 19233 H 1811.34 1.07316 5.63166 0
M  V30 19234 H 1809.74 1.86092 5.70517 0
M  V30 19235 H 1810.81 2.18437 4.32913 0
M  V30 19236 N 1812.15 -1.46743 0.574835 0
M  V30 19237 C 1813.56 -1.86127 0.146143 0
M  V30 19238 C 1813.91 -1.47938 -1.28875 0
M  V30 19239 O 1813.04 -0.890593 -1.97224 0
M  V30 19240 C 1813.63 -3.37813 0.258447 0
M  V30 19241 C 1812.19 -3.76223 -0.115322 0
M  V30 19242 C 1811.34 -2.70775 0.597997 0
M  V30 19243 H 1814.29 -1.38009 0.783526 0
M  V30 19244 H 1814.31 -3.76953 -0.51831 0
M  V30 19245 H 1813.82 -3.65577 1.30288 0
M  V30 19246 H 1811.92 -3.54077 -1.16019 0
M  V30 19247 H 1812.04 -4.78418 0.255513 0
M  V30 19248 H 1810.4 -2.5467 0.039113 0
M  V30 19249 H 1811.18 -3.0138 1.64393 0
M  V30 19250 N 1813.63 -0.312197 -1.54477 0
M  V30 19251 C 1814.88 0.293192 -1.99962 0
M  V30 19252 C 1815.2 1.53544 -1.20205 0
M  V30 19253 O 1814.47 1.93575 -0.300901 0
M  V30 19254 H 1813.05 0.111325 -0.738658 0
M  V30 19255 H 1815.71 -0.426116 -1.90185 0
M  V30 19256 H 1814.81 0.557482 -3.07081 0
M  V30 19257 N 1815.11 1.57549 -0.040136 0
M  V30 19258 C 1816.52 1.56434 0.316341 0
M  V30 19259 C 1816.72 1.04679 1.72176 0
M  V30 19260 O 1815.78 0.698444 2.42648 0
M  V30 19261 C 1817.09 3.00301 0.154883 0
M  V30 19262 C 1818.64 3.12177 0.226821 0
M  V30 19263 C 1819.11 4.57903 0.0940219 0
M  V30 19264 N 1820.61 4.62955 0.150654 0
M  V30 19265 C 1821.34 5.73355 0.0718466 0
M  V30 19266 N 1820.84 6.92775 -0.0586777 0
M  V30 19267 N 1822.63 5.61957 0.126632 0
M  V30 19268 H 1814.78 1.89516 -0.959032 0
M  V30 19269 H 1817.04 0.872251 -0.371324 0
M  V30 19270 H 1816.75 3.42158 -0.813674 0
M  V30 19271 H 1816.62 3.65795 0.920521 0
M  V30 19272 H 1819.01 2.70225 1.18584 0
M  V30 19273 H 1819.09 2.49383 -0.569384 0
M  V30 19274 H 1818.74 5.00538 -0.861629 0
M  V30 19275 H 1818.67 5.18691 0.909231 0
M  V30 19276 H 1821.16 3.77064 0.251232 0
M  V30 19277 H 1821.47 7.72719 -0.111818 0
M  V30 19278 H 1819.81 6.94937 -0.0936119 0
M  V30 19279 H 1823.01 4.67549 0.227081 0
M  V30 19280 H 1823.18 6.47971 0.0617551 0
M  V30 19281 N 1816.58 -0.233136 1.55866 0
M  V30 19282 C 1817.82 -0.966418 1.8011 0
M  V30 19283 C 1818.19 -1.8199 0.61184 0
M  V30 19284 O 1819.39 -2.58603 0.733339 0
M  V30 19285 C 1817.66 -1.7928 3.09182 0
M  V30 19286 S 1819.22 -2.5833 3.54698 0
M  V30 19287 H 1816.04 -0.324835 0.632458 0
M  V30 19288 H 1818.64 -0.233016 1.94106 0
M  V30 19289 H 1817.34 -1.15574 3.9379 0
M  V30 19290 H 1816.87 -2.56871 2.97961 0
M  V30 19291 H 1818.89 -3.81641 3.17119 0
M  V30 19292 N 1818.06 -1.49479 -0.499372 0
M  V30 19293 C 1819.47 -1.52231 -1.08087 0
M  V30 19294 C 1819.83 -0.309442 -1.93744 0
M  V30 19295 O 1818.95 0.580587 -2.08466 0
M  V30 19296 C 1819.55 -2.75857 -1.96694 0
M  V30 19297 C 1818.1 -2.81381 -2.50003 0
M  V30 19298 C 1817.25 -2.46166 -1.27662 0
M  V30 19299 H 1820.2 -1.56153 -0.283211 0
M  V30 19300 H 1820.22 -2.56111 -2.81403 0
M  V30 19301 H 1819.74 -3.64114 -1.34324 0
M  V30 19302 H 1817.84 -1.97408 -3.16008 0
M  V30 19303 H 1817.95 -3.83591 -2.87045 0
M  V30 19304 H 1816.31 -1.97981 -1.60236 0
M  V30 19305 H 1817.1 -3.36699 -0.669974 0
M  V30 19306 N 1819.54 0.750537 -1.38581 0
M  V30 19307 C 1820.45 1.89503 -1.38296 0
M  V30 19308 C 1821.47 1.71738 -0.279678 0
M  V30 19309 O 1822.64 1.94608 -0.518607 0
M  V30 19310 C 1819.71 3.24909 -1.20976 0
M  V30 19311 C 1818.77 3.55178 -2.41136 0
M  V30 19312 C 1818 4.84124 -2.24633 0
M  V30 19313 O 1818.23 5.56722 -1.24164 0
M  V30 19314 O 1817.16 5.1394 -3.13288 0
M  V30 19315 H 1820.99 1.92698 -2.34737 0
M  V30 19316 H 1818.57 0.896233 -1.19533 0
M  V30 19317 H 1820.45 4.05858 -1.13389 0
M  V30 19318 H 1819.13 3.22519 -0.276217 0
M  V30 19319 H 1818.03 2.74378 -2.54298 0
M  V30 19320 H 1819.37 3.62332 -3.33131 0
M  V30 19321 N 1821.02 1.235 0.979051 0
M  V30 19322 C 1822.24 1.09551 1.76106 0
M  V30 19323 C 1822.67 -0.348792 1.84838 0
M  V30 19324 O 1822.03 -1.25231 1.31099 0
M  V30 19325 C 1822.08 1.7272 3.16544 0
M  V30 19326 O 1821.18 0.990263 4.00334 0
M  V30 19327 H 1820.52 0.383909 0.541766 0
M  V30 19328 H 1823.05 1.63581 1.22892 0
M  V30 19329 H 1823.06 1.78014 3.67117 0
M  V30 19330 H 1821.74 2.77813 3.09504 0
M  V30 19331 H 1820.31 1.01436 3.58839 0
M  V30 19332 N 1822.5 -1.17802 1.04693 0
M  V30 19333 C 1823.77 -1.83839 0.668039 0
M  V30 19334 C 1824.15 -1.93143 -0.852008 0
M  V30 19335 O 1823.5 -1.46213 -1.75596 0
M  V30 19336 C 1823.71 -3.21783 1.35118 0
M  V30 19337 C 1825.06 -3.97747 1.48601 0
M  V30 19338 O 1826.08 -3.31244 1.30979 0
M  V30 19339 O 1824.94 -5.16915 1.77373 0
M  V30 19340 H 1822.04 -0.793045 0.234538 0
M  V30 19341 H 1824.58 -1.25141 1.1462 0
M  V30 19342 H 1823.36 -3.0995 2.38844 0
M  V30 19343 H 1822.98 -3.88142 0.862045 0
M  V30 19344 N 1823.98 -0.827251 -1.34143 0
M  V30 19345 C 1824.93 -0.224453 -2.26893 0
M  V30 19346 C 1825.91 0.6138 -1.48732 0
M  V30 19347 O 1827.1 0.467671 -1.7071 0
M  V30 19348 C 1824.23 0.60919 -3.37852 0
M  V30 19349 C 1823.32 -0.23993 -4.23421 0
M  V30 19350 N 1823.71 -1.31304 -4.8846 0
M  V30 19351 C 1822.01 -0.0249939 -4.45993 0
M  V30 19352 C 1822.71 -1.83317 -5.5206 0
M  V30 19353 N 1821.68 -1.1364 -5.31589 0
M  V30 19354 H 1825.48 -1.04524 -2.74685 0
M  V30 19355 H 1823 -0.670503 -1.47912 0
M  V30 19356 H 1825 1.05724 -4.03272 0
M  V30 19357 H 1823.66 1.42809 -2.91609 0
M  V30 19358 H 1824.67 -1.69587 -4.89347 0
M  V30 19359 H 1821.34 0.761393 -4.10499 0
M  V30 19360 H 1822.73 -2.73118 -6.13886 0
M  V30 19361 N 1825.45 1.46436 -0.582609 0
M  V30 19362 C 1826.68 2.06768 -0.0737657 0
M  V30 19363 C 1827.1 1.43137 1.23115 0
M  V30 19364 O 1826.45 0.536633 1.74432 0
M  V30 19365 C 1826.5 3.61365 0.0988205 0
M  V30 19366 O 1826.23 4.22616 -1.15444 0
M  V30 19367 C 1827.73 4.38626 0.642025 0
M  V30 19368 H 1824.95 0.66854 -0.0574078 0
M  V30 19369 H 1827.49 1.88064 -0.80325 0
M  V30 19370 H 1825.65 3.79497 0.778526 0
M  V30 19371 H 1826.06 5.15486 -0.968204 0
M  V30 19372 H 1827.53 5.47389 0.711966 0
M  V30 19373 H 1828.01 4.06663 1.65897 0
M  V30 19374 H 1828.62 4.253 -0.00280852 0
M  V30 19375 N 1826.93 0.320385 1.54309 0
M  V30 19376 C 1827.89 -0.534308 2.22885 0
M  V30 19377 C 1828.89 -1.04605 1.22124 0
M  V30 19378 O 1830.08 -0.938988 1.46726 0
M  V30 19379 C 1827.22 -1.74181 2.93042 0
M  V30 19380 H 1828.41 0.0651232 2.99829 0
M  V30 19381 H 1825.96 0.0714303 1.56137 0
M  V30 19382 H 1826.7 -2.38056 2.20227 0
M  V30 19383 H 1826.48 -1.38231 3.66926 0
M  V30 19384 H 1827.97 -2.34857 3.45299 0
M  V30 19385 N 1828.41 -1.57525 0.0484906 0
M  V30 19386 C 1829.66 -1.93691 -0.620929 0
M  V30 19387 C 1830.01 -0.92675 -1.68609 0
M  V30 19388 O 1829.3 0.0544658 -1.91523 0
M  V30 19389 C 1829.5 -3.34335 -1.26313 0
M  V30 19390 C 1829.33 -4.48938 -0.261699 0
M  V30 19391 C 1828.1 -5.05091 0.14537 0
M  V30 19392 C 1830.29 -5.11943 0.491808 0
M  V30 19393 N 1828.28 -6.03223 1.13994 0
M  V30 19394 C 1829.65 -6.05356 1.33955 0
M  V30 19395 C 1831.7 -4.94848 0.550412 0
M  V30 19396 C 1830.41 -6.83512 2.24063 0
M  V30 19397 C 1832.43 -5.73628 1.43891 0
M  V30 19398 C 1831.79 -6.66672 2.27438 0
M  V30 19399 H 1827.89 -0.756272 -0.198941 0
M  V30 19400 H 1830.48 -1.94329 0.120196 0
M  V30 19401 H 1828.65 -3.34479 -1.9743 0
M  V30 19402 H 1830.38 -3.57796 -1.89114 0
M  V30 19403 H 1827.13 -4.73026 -0.233045 0
M  V30 19404 H 1827.56 -6.56984 1.63405 0
M  V30 19405 H 1832.2 -4.22722 -0.0812867 0
M  V30 19406 H 1829.92 -7.54931 2.88279 0
M  V30 19407 H 1833.5 -5.62429 1.48879 0
M  V30 19408 H 1832.38 -7.26567 2.95075 0
M  V30 19409 N 1829.89 0.224867 -1.55988 0
M  V30 19410 C 1831.14 0.947776 -1.78045 0
M  V30 19411 C 1831.45 1.85632 -0.616454 0
M  V30 19412 O 1832.66 2.61763 -0.720579 0
M  V30 19413 C 1831.11 1.73546 -3.15293 0
M  V30 19414 C 1830.72 0.873219 -4.39407 0
M  V30 19415 C 1832.46 2.44978 -3.46679 0
M  V30 19416 C 1830.37 1.65806 -5.67682 0
M  V30 19417 H 1829.3 0.357623 -0.663793 0
M  V30 19418 H 1831.95 0.201754 -1.82388 0
M  V30 19419 H 1830.33 2.52426 -3.05118 0
M  V30 19420 H 1831.51 0.125187 -4.6063 0
M  V30 19421 H 1829.82 0.271179 -4.15516 0
M  V30 19422 H 1832.42 3.04192 -4.3974 0
M  V30 19423 H 1832.76 3.17699 -2.69023 0
M  V30 19424 H 1833.3 1.7309 -3.58168 0
M  V30 19425 H 1830.03 0.974191 -6.4822 0
M  V30 19426 H 1829.55 2.38079 -5.50526 0
M  V30 19427 H 1831.23 2.21959 -6.07736 0
M  V30 19428 N 1831.37 1.49742 0.491438 0
M  V30 19429 C 1832.78 1.52802 1.07278 0
M  V30 19430 C 1833.13 0.319712 1.93578 0
M  V30 19431 O 1832.25 -0.569524 2.08771 0
M  V30 19432 C 1832.85 2.76896 1.95228 0
M  V30 19433 C 1831.41 2.82703 2.48508 0
M  V30 19434 C 1830.55 2.4684 1.26355 0
M  V30 19435 H 1833.5 1.56301 0.274925 0
M  V30 19436 H 1833.53 2.57599 2.80041 0
M  V30 19437 H 1833.04 3.64821 1.32391 0
M  V30 19438 H 1831.14 1.99081 3.14956 0
M  V30 19439 H 1831.25 3.85108 2.85006 0
M  V30 19440 H 1829.62 1.98828 1.59184 0
M  V30 19441 H 1830.4 3.3705 0.652109 0
M  V30 19442 N 1832.84 -0.743177 1.38977 0
M  V30 19443 C 1834.09 -1.50256 1.35755 0
M  V30 19444 C 1834.42 -1.94438 -0.0491287 0
M  V30 19445 O 1833.67 -1.66505 -1.02834 0
M  V30 19446 C 1833.97 -2.76157 2.26874 0
M  V30 19447 C 1833.64 -2.50885 3.74657 0
M  V30 19448 C 1832.3 -2.43702 4.14925 0
M  V30 19449 C 1834.65 -2.29075 4.6816 0
M  V30 19450 C 1831.98 -2.12738 5.46772 0
M  V30 19451 C 1834.33 -1.9963 6.00275 0
M  V30 19452 C 1833 -1.9091 6.39617 0
M  V30 19453 H 1832.27 -0.549827 0.496761 0
M  V30 19454 H 1834.91 -0.85369 1.71419 0
M  V30 19455 H 1833.22 -3.45746 1.84301 0
M  V30 19456 H 1834.92 -3.34155 2.21679 0
M  V30 19457 H 1831.51 -2.57351 3.42737 0
M  V30 19458 H 1835.69 -2.33597 4.37888 0
M  V30 19459 H 1830.95 -2.04504 5.76184 0
M  V30 19460 H 1835.12 -1.8176 6.72262 0
M  V30 19461 H 1832.75 -1.66683 7.41701 0
M  V30 19462 N 1834.32 -1.24018 -0.972487 0
M  V30 19463 C 1835.27 -0.995404 -2.05124 0
M  V30 19464 C 1836.26 0.0614575 -1.60783 0
M  V30 19465 O 1837.45 -0.15167 -1.76349 0
M  V30 19466 C 1834.58 -0.597019 -3.38069 0
M  V30 19467 C 1833.66 -1.6897 -3.88986 0
M  V30 19468 N 1834.05 -2.92154 -4.12892 0
M  V30 19469 C 1832.35 -1.56611 -4.17599 0
M  V30 19470 C 1833.05 -3.62955 -4.54575 0
M  V30 19471 N 1832.03 -2.90498 -4.59469 0
M  V30 19472 H 1835.83 -1.93084 -2.21576 0
M  V30 19473 H 1833.35 -1.14073 -1.1559 0
M  V30 19474 H 1835.34 -0.402907 -4.14949 0
M  V30 19475 H 1834 0.331283 -3.23006 0
M  V30 19476 H 1835.01 -3.28381 -4.00483 0
M  V30 19477 H 1831.69 -0.705491 -4.11496 0
M  V30 19478 H 1833.08 -4.68598 -4.81524 0
M  V30 19479 N 1835.8 1.17245 -1.05316 0
M  V30 19480 C 1837.05 1.87165 -0.762471 0
M  V30 19481 C 1837.37 1.8151 0.712687 0
M  V30 19482 O 1836.64 1.2419 1.51504 0
M  V30 19483 H 1835.22 0.69292 -0.279054 0
M  V30 19484 H 1837.88 1.42227 -1.33257 0
M  V30 19485 H 1836.98 2.92872 -1.07854 0
M  V30 19486 N 1837.28 0.834353 1.33702 0
M  V30 19487 C 1838.23 0.236483 2.2677 0
M  V30 19488 C 1839.21 -0.605904 1.49056 0
M  V30 19489 O 1840.4 -0.458611 1.70955 0
M  V30 19490 C 1837.53 -0.591264 3.3817 0
M  V30 19491 C 1836.62 0.262381 4.23288 0
M  V30 19492 N 1837.01 1.33892 4.87757 0
M  V30 19493 C 1835.31 0.0486456 4.45973 0
M  V30 19494 C 1836.01 1.86242 5.5108 0
M  V30 19495 N 1834.99 1.16457 5.30979 0
M  V30 19496 H 1838.79 1.05979 2.74127 0
M  V30 19497 H 1836.3 0.678337 1.47555 0
M  V30 19498 H 1838.3 -1.03584 4.03827 0
M  V30 19499 H 1836.96 -1.4126 2.92362 0
M  V30 19500 H 1837.97 1.72179 4.88441 0
M  V30 19501 H 1834.65 -0.739613 4.10897 0
M  V30 19502 H 1836.04 2.76369 6.12429 0
M  V30 19503 N 1838.76 -1.46125 0.590367 0
M  V30 19504 C 1840 -2.04237 0.0816639 0
M  V30 19505 C 1840.36 -1.45099 -1.25739 0
M  V30 19506 O 1841.56 -1.94458 -1.85578 0
M  V30 19507 C 1839.83 -3.57391 0.0248878 0
M  V30 19508 S 1841.39 -4.36736 -0.425128 0
M  V30 19509 H 1838.21 -0.709806 0.0411891 0
M  V30 19510 H 1840.81 -1.79065 0.784592 0
M  V30 19511 H 1839.52 -3.97948 1.00327 0
M  V30 19512 H 1839.05 -3.87112 -0.700572 0
M  V30 19513 H 1841.06 -4.66956 -1.6783 0
M  V30 19514 N 1840.23 -0.328564 -1.54137 0
M  V30 19515 C 1841.46 0.273928 -2.04776 0
M  V30 19516 C 1841.87 1.45942 -1.20406 0
M  V30 19517 O 1841.22 1.82271 -0.228693 0
M  V30 19518 C 1841.28 0.766914 -3.51225 0
M  V30 19519 C 1840.94 -0.296932 -4.56034 0
M  V30 19520 C 1841.94 -1.13468 -5.07367 0
M  V30 19521 C 1839.62 -0.446557 -5.00311 0
M  V30 19522 C 1841.62 -2.10773 -6.01543 0
M  V30 19523 C 1839.3 -1.42302 -5.94301 0
M  V30 19524 C 1840.3 -2.25207 -6.44803 0
M  V30 19525 O 1839.99 -3.21194 -7.36946 0
M  V30 19526 H 1839.72 0.0593978 -0.673385 0
M  V30 19527 H 1842.28 -0.474303 -1.99849 0
M  V30 19528 H 1840.51 1.56614 -3.53566 0
M  V30 19529 H 1842.2 1.2883 -3.84912 0
M  V30 19530 H 1842.96 -1.03009 -4.73935 0
M  V30 19531 H 1838.84 0.188865 -4.60613 0
M  V30 19532 H 1842.38 -2.75521 -6.40885 0
M  V30 19533 H 1838.28 -1.52822 -6.27149 0
M  V30 19534 H 1839.05 -3.16491 -7.54835 0
M  V30 19535 N 1841.71 1.57497 -0.0568439 0
M  V30 19536 C 1842.94 1.96945 0.624196 0
M  V30 19537 C 1843.35 0.933312 1.64578 0
M  V30 19538 O 1842.69 -0.0902107 1.83478 0
M  V30 19539 C 1842.76 3.32652 1.3632 0
M  V30 19540 C 1842.42 4.54292 0.496798 0
M  V30 19541 C 1843.42 5.19348 -0.239466 0
M  V30 19542 C 1841.1 5.0049 0.426059 0
M  V30 19543 C 1843.1 6.28943 -1.03485 0
M  V30 19544 C 1840.78 6.09961 -0.373005 0
M  V30 19545 C 1841.78 6.74049 -1.10214 0
M  V30 19546 O 1841.47 7.81414 -1.88805 0
M  V30 19547 H 1841.2 0.652944 0.175043 0
M  V30 19548 H 1843.75 2.05042 -0.121272 0
M  V30 19549 H 1841.98 3.21126 2.15442 0
M  V30 19550 H 1843.67 3.56808 1.93502 0
M  V30 19551 H 1844.44 4.84611 -0.194318 0
M  V30 19552 H 1840.32 4.50394 0.983188 0
M  V30 19553 H 1843.86 6.78898 -1.60447 0
M  V30 19554 H 1839.76 6.44134 -0.419771 0
M  V30 19555 H 1840.53 7.98219 -1.81077 0
M  V30 19556 N 1843.19 -0.216591 1.56105 0
M  V30 19557 C 1844.44 -0.938321 1.78545 0
M  V30 19558 C 1844.75 -1.85302 0.62629 0
M  V30 19559 O 1845.96 -2.61377 0.734451 0
M  V30 19560 C 1844.41 -1.71871 3.16209 0
M  V30 19561 C 1844.02 -0.849904 4.39864 0
M  V30 19562 C 1845.77 -2.43136 3.47973 0
M  V30 19563 C 1843.67 -1.62793 5.68553 0
M  V30 19564 H 1842.6 -0.354098 0.66568 0
M  V30 19565 H 1845.25 -0.192079 1.82492 0
M  V30 19566 H 1843.64 -2.50804 3.06453 0
M  V30 19567 H 1844.81 -0.100757 4.6069 0
M  V30 19568 H 1843.13 -0.249139 4.15654 0
M  V30 19569 H 1845.72 -3.01856 4.41347 0
M  V30 19570 H 1846.07 -3.16267 2.70704 0
M  V30 19571 H 1846.6 -1.71189 3.59081 0
M  V30 19572 H 1843.34 -0.939801 6.48728 0
M  V30 19573 H 1842.86 -2.35156 5.5178 0
M  V30 19574 H 1844.54 -2.18733 6.08905 0
M  V30 19575 N 1844.67 -1.5 -0.48349 0
M  V30 19576 C 1845.58 -1.70722 -1.60907 0
M  V30 19577 C 1846.59 -0.590075 -1.63689 0
M  V30 19578 O 1847.77 -0.866915 -1.81787 0
M  V30 19579 C 1844.84 -1.78544 -2.97192 0
M  V30 19580 C 1843.9 -3.02218 -3.04898 0
M  V30 19581 C 1843.13 -3.09658 -4.34681 0
M  V30 19582 O 1843.35 -2.24216 -5.24484 0
M  V30 19583 O 1842.29 -4.02278 -4.47723 0
M  V30 19584 H 1846.11 -2.66111 -1.4635 0
M  V30 19585 H 1843.7 -1.33949 -0.661666 0
M  V30 19586 H 1845.58 -1.85941 -3.78159 0
M  V30 19587 H 1844.25 -0.863364 -3.11974 0
M  V30 19588 H 1843.16 -3.00329 -2.23054 0
M  V30 19589 H 1844.49 -3.93964 -2.95048 0
M  V30 19590 N 1846.15 0.735796 -1.39369 0
M  V30 19591 C 1847.37 1.53013 -1.40007 0
M  V30 19592 C 1847.8 1.881 0.00368376 0
M  V30 19593 O 1847.15 1.51853 0.990469 0
M  V30 19594 C 1847.2 2.79474 -2.27874 0
M  V30 19595 O 1846.31 3.75364 -1.70808 0
M  V30 19596 H 1845.65 0.462117 -0.476806 0
M  V30 19597 H 1848.18 0.907868 -1.83355 0
M  V30 19598 H 1848.19 3.28217 -2.42358 0
M  V30 19599 H 1846.86 2.53268 -3.29891 0
M  V30 19600 H 1845.44 3.34131 -1.65562 0
M  V30 19601 N 1847.63 1.24532 0.965897 0
M  V30 19602 C 1848.85 1.11412 1.74934 0
M  V30 19603 C 1849.28 -0.329168 1.85197 0
M  V30 19604 O 1848.63 -1.23833 1.3242 0
M  V30 19605 C 1848.68 1.76068 3.14694 0
M  V30 19606 O 1847.79 1.03267 3.99261 0
M  V30 19607 H 1847.13 0.389633 0.537663 0
M  V30 19608 H 1849.66 1.64875 1.2115 0
M  V30 19609 H 1849.67 1.81897 3.65209 0
M  V30 19610 H 1848.34 2.8108 3.0654 0
M  V30 19611 H 1846.92 1.05236 3.57743 0
M  V30 19612 N 1849.1 -1.16685 1.05936 0
M  V30 19613 C 1850.33 -1.90758 0.793401 0
M  V30 19614 C 1850.74 -1.77479 -0.655593 0
M  V30 19615 O 1850.08 -1.11458 -1.46023 0
M  V30 19616 C 1850.15 -3.42127 1.10406 0
M  V30 19617 C 1849.81 -3.79191 2.55074 0
M  V30 19618 C 1850.81 -3.81412 3.533 0
M  V30 19619 C 1848.49 -4.09931 2.9028 0
M  V30 19620 C 1850.49 -4.13853 4.84772 0
M  V30 19621 C 1848.17 -4.42039 4.21953 0
M  V30 19622 C 1849.17 -4.4398 5.19009 0
M  V30 19623 O 1848.86 -4.75328 6.4832 0
M  V30 19624 H 1848.59 -0.611855 0.287418 0
M  V30 19625 H 1851.15 -1.48859 1.41527 0
M  V30 19626 H 1849.38 -3.84356 0.425106 0
M  V30 19627 H 1851.06 -3.97471 0.822918 0
M  V30 19628 H 1851.83 -3.5778 3.27443 0
M  V30 19629 H 1847.71 -4.07587 2.15393 0
M  V30 19630 H 1851.25 -4.15283 5.60523 0
M  V30 19631 H 1847.15 -4.65136 4.4757 0
M  V30 19632 H 1847.92 -4.93154 6.53254 0
M  V30 19633 N 1850.58 -0.841432 -1.33258 0
M  V30 19634 C 1851.81 -0.451942 -2.01904 0
M  V30 19635 C 1852.22 0.94758 -1.63298 0
M  V30 19636 O 1851.58 1.61622 -0.847611 0
M  V30 19637 C 1851.63 -0.565978 -3.57042 0
M  V30 19638 O 1851.35 -1.91036 -3.94255 0
M  V30 19639 C 1852.85 -0.173776 -4.42959 0
M  V30 19640 H 1850.07 -0.179113 -0.646653 0
M  V30 19641 H 1852.62 -1.13472 -1.70131 0
M  V30 19642 H 1850.77 0.0689126 -3.87339 0
M  V30 19643 H 1851.19 -1.8977 -4.88966 0
M  V30 19644 H 1852.66 -0.304608 -5.51159 0
M  V30 19645 H 1853.14 0.884559 -4.302 0
M  V30 19646 H 1853.74 -0.783205 -4.18026 0
M  V30 19647 N 1852.06 1.4581 -0.598108 0
M  V30 19648 C 1853.48 1.57452 -0.260993 0
M  V30 19649 C 1853.68 1.59093 1.2366 0
M  V30 19650 O 1852.73 1.51614 2.01915 0
M  V30 19651 C 1854.04 2.86158 -0.923801 0
M  V30 19652 C 1855.59 2.99817 -0.89883 0
M  V30 19653 C 1856.07 4.3128 -1.54147 0
M  V30 19654 N 1857.56 4.38016 -1.50652 0
M  V30 19655 C 1858.29 5.38387 -1.973 0
M  V30 19656 N 1857.79 6.45347 -2.51991 0
M  V30 19657 N 1859.58 5.29684 -1.88124 0
M  V30 19658 H 1851.73 1.42988 -1.57061 0
M  V30 19659 H 1854 0.683038 -0.657391 0
M  V30 19660 H 1853.7 2.90812 -1.97791 0
M  V30 19661 H 1853.58 3.74609 -0.441318 0
M  V30 19662 H 1855.96 2.94735 0.146702 0
M  V30 19663 H 1856.04 2.12801 -1.41949 0
M  V30 19664 H 1855.69 4.3712 -2.58628 0
M  V30 19665 H 1855.62 5.17097 -0.995911 0
M  V30 19666 H 1858.11 3.61326 -1.1069 0
M  V30 19667 H 1858.42 7.18168 -2.85403 0
M  V30 19668 H 1856.77 6.46124 -2.56025 0
M  V30 19669 H 1859.96 4.45029 -1.45144 0
M  V30 19670 H 1860.13 6.0776 -2.24793 0
M  V30 19671 N 1853.54 0.336733 1.53961 0
M  V30 19672 C 1854.49 -0.538599 2.26278 0
M  V30 19673 C 1855.48 -1.10764 1.2817 0
M  V30 19674 O 1856.69 -1.05416 1.45902 0
M  V30 19675 H 1853.06 -0.192363 0.72698 0
M  V30 19676 H 1855.03 0.0934532 2.98254 0
M  V30 19677 C 1853.78 -1.68121 3.04353 0
M  V30 19678 H 1853.1 -1.25261 3.7967 0
M  V30 19679 H 1854.54 -2.26901 3.58179 0
M  V30 19680 C 1853 -2.60663 2.13439 0
M  V30 19681 O 1853.53 -3.62731 1.72596 0
M  V30 19682 N 1851.74 -2.29194 1.78658 0
M  V30 19683 H 1851.29 -1.46233 2.1207 0
M  V30 19684 H 1851.24 -2.91371 1.18111 0
M  V30 19685 N 1855.02 -1.57465 0.0651956 0
M  V30 19686 C 1856.26 -1.94338 -0.600351 0
M  V30 19687 C 1856.62 -0.944581 -1.67617 0
M  V30 19688 O 1855.91 0.0341492 -1.9157 0
M  V30 19689 C 1856.1 -3.35656 -1.2276 0
M  V30 19690 C 1855.93 -4.4919 -0.214068 0
M  V30 19691 C 1854.7 -5.04908 0.198933 0
M  V30 19692 C 1856.9 -5.11393 0.546079 0
M  V30 19693 N 1854.88 -6.0198 1.20386 0
M  V30 19694 C 1856.25 -6.03901 1.40368 0
M  V30 19695 C 1858.31 -4.94237 0.602866 0
M  V30 19696 C 1857.01 -6.81097 2.313 0
M  V30 19697 C 1859.04 -5.7207 1.49967 0
M  V30 19698 C 1858.4 -6.64222 2.34496 0
M  V30 19699 H 1854.5 -0.758339 -0.190908 0
M  V30 19700 H 1857.08 -1.9419 0.1408 0
M  V30 19701 H 1855.25 -3.36554 -1.93871 0
M  V30 19702 H 1856.99 -3.59782 -1.85308 0
M  V30 19703 H 1853.74 -4.73247 -0.182861 0
M  V30 19704 H 1854.16 -6.55214 1.70364 0
M  V30 19705 H 1858.81 -4.22784 -0.0364468 0
M  V30 19706 H 1856.52 -7.51831 2.9627 0
M  V30 19707 H 1860.11 -5.60818 1.54836 0
M  V30 19708 H 1858.99 -7.23397 3.02765 0
M  V30 19709 N 1856.49 0.20831 -1.56217 0
M  V30 19710 C 1857.74 0.928886 -1.79488 0
M  V30 19711 C 1858.06 1.84337 -0.636 0
M  V30 19712 O 1857.33 1.92813 0.346416 0
M  V30 19713 H 1855.91 0.345985 -0.662045 0
M  V30 19714 H 1858.57 0.216988 -1.93688 0
M  V30 19715 H 1857.67 1.52786 -2.72145 0
M  V30 19716 N 1857.97 1.50255 0.475528 0
M  V30 19717 C 1858.9 1.64942 1.59144 0
M  V30 19718 C 1859.92 0.531065 1.53895 0
M  V30 19719 O 1861.11 0.804084 1.59364 0
M  V30 19720 C 1858.21 1.61372 2.98014 0
M  V30 19721 C 1857.38 2.89167 3.28179 0
M  V30 19722 C 1856.44 2.783 4.46582 0
M  V30 19723 O 1855.46 3.52254 4.47108 0
M  V30 19724 N 1856.67 1.91557 5.47984 0
M  V30 19725 H 1859.43 2.61194 1.46962 0
M  V30 19726 H 1856.99 1.47663 0.663869 0
M  V30 19727 H 1858.98 1.51722 3.75183 0
M  V30 19728 H 1857.55 0.728744 3.03987 0
M  V30 19729 H 1856.77 3.12977 2.39664 0
M  V30 19730 H 1858.06 3.73838 3.45142 0
M  V30 19731 H 1857.46 1.30778 5.50376 0
M  V30 19732 H 1856.02 1.87813 6.24155 0
M  V30 19733 N 1859.45 -0.728395 1.39758 0
M  V30 19734 C 1860.41 -1.82415 1.38772 0
M  V30 19735 C 1861.41 -1.58278 0.283678 0
M  V30 19736 O 1862.6 -1.65556 0.541927 0
M  V30 19737 C 1859.73 -3.20309 1.16684 0
M  V30 19738 H 1860.93 -1.8469 2.36283 0
M  V30 19739 H 1858.48 -0.932729 1.25419 0
M  V30 19740 H 1859.22 -3.2369 0.198817 0
M  V30 19741 H 1859 -3.39226 1.96643 0
M  V30 19742 H 1860.49 -4.0036 1.18751 0
M  V30 19743 N 1860.93 -1.25042 -0.959279 0
M  V30 19744 C 1862.15 -1.12339 -1.74341 0
M  V30 19745 C 1862.58 0.319342 -1.85369 0
M  V30 19746 O 1861.94 1.23129 -1.33075 0
M  V30 19747 C 1861.98 -1.77734 -3.13756 0
M  V30 19748 O 1861.09 -1.05383 -3.98708 0
M  V30 19749 H 1860.43 -0.392479 -0.535589 0
M  V30 19750 H 1862.96 -1.65516 -1.20274 0
M  V30 19751 H 1862.97 -1.83832 -3.64239 0
M  V30 19752 H 1861.64 -2.82702 -3.05045 0
M  V30 19753 H 1860.22 -1.07132 -3.57179 0
M  V30 19754 N 1862.41 1.16121 -1.06553 0
M  V30 19755 C 1863.34 2.22761 -0.699976 0
M  V30 19756 C 1864.32 1.67274 0.308783 0
M  V30 19757 O 1865.5 1.93333 0.183328 0
M  V30 19758 C 1862.63 3.47187 -0.0884044 0
M  V30 19759 C 1861.59 4.15584 -1.02343 0
M  V30 19760 C 1860.91 5.33992 -0.275022 0
M  V30 19761 C 1862.21 4.66266 -2.35358 0
M  V30 19762 H 1863.91 2.53595 -1.59153 0
M  V30 19763 H 1861.45 1.21893 -0.766686 0
M  V30 19764 H 1863.41 4.21019 0.17922 0
M  V30 19765 H 1862.13 3.15661 0.838181 0
M  V30 19766 H 1860.79 3.43683 -1.27584 0
M  V30 19767 H 1860.44 4.9872 0.654765 0
M  V30 19768 H 1860.14 5.80695 -0.898181 0
M  V30 19769 H 1861.66 6.10598 -0.0150056 0
M  V30 19770 H 1863.07 5.31665 -2.14488 0
M  V30 19771 H 1861.47 5.236 -2.93195 0
M  V30 19772 H 1862.54 3.82335 -2.98241 0
M  V30 19773 N 1863.88 0.848487 1.3281 0
M  V30 19774 C 1864.79 0.291355 2.32784 0
M  V30 19775 C 1865.81 -0.587621 1.63777 0
M  V30 19776 O 1866.99 -0.489458 1.95362 0
M  V30 19777 C 1864.05 -0.51634 3.42834 0
M  V30 19778 C 1863.11 0.388046 4.27543 0
M  V30 19779 C 1862.35 -0.381197 5.32337 0
M  V30 19780 O 1862.57 -1.61186 5.47152 0
M  V30 19781 O 1861.5 0.2498 6.01381 0
M  V30 19782 H 1865.33 1.11947 2.82315 0
M  V30 19783 H 1862.91 0.611259 1.36323 0
M  V30 19784 H 1864.8 -0.974995 4.09966 0
M  V30 19785 H 1863.47 -1.32136 2.95503 0
M  V30 19786 H 1862.38 0.894745 3.63243 0
M  V30 19787 H 1863.71 1.15808 4.78382 0
M  V30 19788 N 1865.36 -1.4549 0.605832 0
M  V30 19789 C 1866.6 -2.04139 0.103321 0
M  V30 19790 C 1866.97 -1.46425 -1.24193 0
M  V30 19791 O 1868.17 -1.96416 -1.83506 0
M  V30 19792 C 1866.44 -3.57345 0.0627925 0
M  V30 19793 S 1868 -4.37162 -0.378782 0
M  V30 19794 H 1864.82 -0.709329 0.0487152 0
M  V30 19795 H 1867.42 -1.78223 0.80354 0
M  V30 19796 H 1866.12 -3.96862 1.04542 0
M  V30 19797 H 1865.65 -3.87833 -0.659475 0
M  V30 19798 H 1867.67 -4.68709 -1.62868 0
M  V30 19799 N 1866.84 -0.344893 -1.5378 0
M  V30 19800 C 1867.77 0.503579 -2.28005 0
M  V30 19801 C 1868.75 1.10149 -1.29619 0
M  V30 19802 O 1869.94 1.12263 -1.58463 0
M  V30 19803 C 1867.07 1.65398 -3.05386 0
M  V30 19804 C 1866.02 1.18434 -4.11288 0
M  V30 19805 C 1865.35 2.42336 -4.76631 0
M  V30 19806 C 1866.65 0.283853 -5.21528 0
M  V30 19807 H 1868.34 -0.115619 -2.99177 0
M  V30 19808 H 1865.89 -0.0570472 -1.43887 0
M  V30 19809 H 1867.84 2.25401 -3.56051 0
M  V30 19810 H 1866.56 2.3001 -2.31869 0
M  V30 19811 H 1865.22 0.607115 -3.61538 0
M  V30 19812 H 1864.87 3.05358 -3.99707 0
M  V30 19813 H 1864.57 2.11594 -5.4818 0
M  V30 19814 H 1866.09 3.03063 -5.3008 0
M  V30 19815 H 1867.51 0.790766 -5.6782 0
M  V30 19816 H 1865.91 0.0682509 -6.00061 0
M  V30 19817 H 1866.98 -0.679653 -4.80113 0
M  V30 19818 N 1868.32 1.57428 -0.0735454 0
M  V30 19819 C 1869.73 1.57069 0.283088 0
M  V30 19820 C 1869.93 1.08308 1.69917 0
M  V30 19821 O 1868.99 0.749756 2.41112 0
M  V30 19822 C 1870.3 3.00562 0.0911498 0
M  V30 19823 C 1871.85 3.12588 0.160552 0
M  V30 19824 C 1872.33 4.58 -0.00312732 0
M  V30 19825 N 1873.82 4.6317 0.0524201 0
M  V30 19826 C 1874.55 5.73378 -0.0497867 0
M  V30 19827 N 1874.05 6.92495 -0.205612 0
M  V30 19828 N 1875.84 5.621 0.00740387 0
M  V30 19829 H 1867.99 1.87439 -0.999015 0
M  V30 19830 H 1870.26 0.864179 -0.389742 0
M  V30 19831 H 1869.96 3.40355 -0.886068 0
M  V30 19832 H 1869.84 3.67666 0.842723 0
M  V30 19833 H 1872.22 2.7268 1.12826 0
M  V30 19834 H 1872.3 2.48119 -0.622153 0
M  V30 19835 H 1871.95 4.98598 -0.967606 0
M  V30 19836 H 1871.88 5.20503 0.799004 0
M  V30 19837 H 1874.37 3.77512 0.171195 0
M  V30 19838 H 1874.68 7.72308 -0.275698 0
M  V30 19839 H 1873.03 6.94582 -0.240997 0
M  V30 19840 H 1876.22 4.67925 0.127856 0
M  V30 19841 H 1876.39 6.47956 -0.075703 0
M  V30 19842 N 1869.8 -0.200022 1.56326 0
M  V30 19843 C 1870.73 -1.27579 1.89206 0
M  V30 19844 C 1871.71 -1.44185 0.751625 0
M  V30 19845 O 1872.89 -1.59654 1.00214 0
M  V30 19846 C 1870.02 -2.64312 2.11794 0
M  V30 19847 C 1869.06 -2.64603 3.34496 0
M  V30 19848 S 1869.9 -2.16526 4.89772 0
M  V30 19849 C 1871.05 -3.55092 5.15422 0
M  V30 19850 H 1871.29 -0.99499 2.80156 0
M  V30 19851 H 1868.82 -0.403286 1.4904 0
M  V30 19852 H 1870.78 -3.43022 2.25491 0
M  V30 19853 H 1869.44 -2.89606 1.21603 0
M  V30 19854 H 1868.63 -3.65131 3.47412 0
M  V30 19855 H 1868.23 -1.93972 3.19767 0
M  V30 19856 H 1870.53 -4.50925 5.05641 0
M  V30 19857 H 1871.47 -3.47075 6.17207 0
M  V30 19858 H 1871.88 -3.49777 4.43076 0
M  V30 19859 N 1871.27 -1.50505 -0.467553 0
M  V30 19860 C 1872.52 -1.61352 -1.21697 0
M  V30 19861 C 1872.84 -0.317583 -1.92396 0
M  V30 19862 O 1872.11 0.665123 -1.84263 0
M  V30 19863 H 1870.69 -0.594582 -0.452196 0
M  V30 19864 H 1873.36 -1.87299 -0.539 0
M  V30 19865 H 1872.45 -2.4264 -1.96296 0
M  V30 19866 N 1872.75 0.720973 -1.40142 0
M  V30 19867 C 1873.98 1.51519 -1.41622 0
M  V30 19868 C 1874.4 1.88093 -0.0162669 0
M  V30 19869 O 1873.76 1.52895 0.974307 0
M  V30 19870 C 1873.81 2.77041 -2.30826 0
M  V30 19871 O 1872.91 3.73532 -1.74779 0
M  V30 19872 H 1872.25 0.457034 -0.481681 0
M  V30 19873 H 1874.78 0.88837 -1.84307 0
M  V30 19874 H 1874.79 3.25628 -2.45826 0
M  V30 19875 H 1873.47 2.49755 -3.32558 0
M  V30 19876 H 1872.05 3.32356 -1.69097 0
M  V30 19877 N 1874.23 1.25549 0.952634 0
M  V30 19878 C 1875.46 1.13262 1.73743 0
M  V30 19879 C 1875.88 -0.309507 1.85536 0
M  V30 19880 O 1875.24 -1.22422 1.33726 0
M  V30 19881 C 1875.29 1.79395 3.12809 0
M  V30 19882 O 1874.39 1.07496 3.98144 0
M  V30 19883 H 1873.73 0.395314 0.5335 0
M  V30 19884 H 1876.26 1.66151 1.19394 0
M  V30 19885 H 1876.27 1.85761 3.63259 0
M  V30 19886 H 1874.95 2.84316 3.03542 0
M  V30 19887 H 1873.52 1.09025 3.56606 0
M  V30 19888 N 1875.71 -1.15554 1.07168 0
M  V30 19889 C 1876.64 -2.22387 0.71178 0
M  V30 19890 C 1877.62 -1.67435 -0.299908 0
M  V30 19891 O 1878.8 -1.93427 -0.173073 0
M  V30 19892 C 1875.93 -3.47136 0.106815 0
M  V30 19893 C 1874.89 -4.15035 1.04545 0
M  V30 19894 C 1874.21 -5.33839 0.303337 0
M  V30 19895 C 1875.51 -4.65011 2.37827 0
M  V30 19896 H 1877.21 -2.52748 1.60496 0
M  V30 19897 H 1874.75 -1.21485 0.773139 0
M  V30 19898 H 1876.71 -4.21108 -0.15689 0
M  V30 19899 H 1875.43 -3.16101 -0.821429 0
M  V30 19900 H 1874.09 -3.43001 1.29405 0
M  V30 19901 H 1873.74 -4.9906 -0.628308 0
M  V30 19902 H 1873.44 -5.8021 0.928964 0
M  V30 19903 H 1874.96 -6.10582 0.0473869 0
M  V30 19904 H 1876.38 -5.3052 2.17305 0
M  V30 19905 H 1874.77 -5.22038 2.95967 0
M  V30 19906 H 1875.84 -3.80748 3.00264 0
M  V30 19907 N 1877.19 -0.855519 -1.32358 0
M  V30 19908 C 1878.43 -0.460002 -1.97514 0
M  V30 19909 C 1878.77 0.982052 -1.67539 0
M  V30 19910 O 1878.04 1.68925 -0.964091 0
M  V30 19911 C 1878.32 -0.70064 -3.53218 0
M  V30 19912 C 1878.18 -2.19118 -3.9282 0
M  V30 19913 C 1879.5 -0.157597 -4.39818 0
M  V30 19914 H 1876.62 -0.168606 -0.717455 0
M  V30 19915 H 1879.26 -1.0741 -1.56726 0
M  V30 19916 H 1877.41 -0.177937 -3.88092 0
M  V30 19917 H 1879.08 -2.78002 -3.6812 0
M  V30 19918 H 1877.32 -2.66934 -3.41948 0
M  V30 19919 H 1877.99 -2.31024 -5.0133 0
M  V30 19920 H 1880.47 -0.604597 -4.11684 0
M  V30 19921 H 1879.35 -0.355532 -5.47747 0
M  V30 19922 H 1879.61 0.939679 -4.31998 0
M  V30 19923 N 1878.67 1.45167 -0.61354 0
M  V30 19924 C 1879.89 2.07076 -0.115821 0
M  V30 19925 C 1880.32 1.45415 1.19315 0
M  V30 19926 O 1879.67 0.549046 1.72786 0
M  V30 19927 C 1879.72 3.606 0.00406239 0
M  V30 19928 O 1878.83 3.98737 1.05273 0
M  V30 19929 H 1878.17 0.659547 -0.0767679 0
M  V30 19930 H 1880.7 1.86325 -0.845236 0
M  V30 19931 H 1880.71 4.07508 0.200356 0
M  V30 19932 H 1879.38 4.04865 -0.951695 0
M  V30 19933 H 1877.96 3.6349 0.832424 0
M  V30 19934 N 1880.14 0.353044 1.53595 0
M  V30 19935 C 1881.39 -0.2416 2.00248 0
M  V30 19936 C 1881.71 -1.5089 1.24465 0
M  V30 19937 O 1882.91 -2.18137 1.61643 0
M  V30 19938 C 1881.37 -0.481075 3.5667 0
M  V30 19939 C 1880.98 0.77087 4.41318 0
M  V30 19940 C 1882.72 -1.03406 4.11713 0
M  V30 19941 C 1880.63 0.501671 5.89268 0
M  V30 19942 H 1879.56 -0.0940573 0.74811 0
M  V30 19943 H 1882.21 0.469845 1.77383 0
M  V30 19944 H 1880.59 -1.25346 3.75639 0
M  V30 19945 H 1881.76 1.54509 4.34124 0
M  V30 19946 H 1880.08 1.24617 3.97315 0
M  V30 19947 H 1882.68 -1.25058 5.1987 0
M  V30 19948 H 1883.02 -1.99245 3.65523 0
M  V30 19949 H 1883.55 -0.322144 3.96493 0
M  V30 19950 H 1880.29 1.43005 6.39711 0
M  V30 19951 H 1879.81 -0.234284 5.99342 0
M  V30 19952 H 1881.49 0.122468 6.46884 0
M  V30 19953 N 1881.62 -1.57387 0.0818932 0
M  V30 19954 C 1882.53 -2.16804 -0.89629 0
M  V30 19955 C 1883.55 -1.1339 -1.3198 0
M  V30 19956 O 1884.72 -1.45702 -1.39042 0
M  V30 19957 C 1881.79 -2.72607 -2.14211 0
M  V30 19958 C 1880.85 -3.90929 -1.77406 0
M  V30 19959 C 1880.08 -4.44062 -2.96049 0
M  V30 19960 O 1880.31 -3.96166 -4.10376 0
M  V30 19961 O 1879.24 -5.35261 -2.75279 0
M  V30 19962 H 1883.07 -3.0077 -0.420827 0
M  V30 19963 H 1880.65 -1.48726 -0.141737 0
M  V30 19964 H 1882.53 -3.0833 -2.87247 0
M  V30 19965 H 1881.21 -1.91694 -2.60835 0
M  V30 19966 H 1880.11 -3.60042 -1.01591 0
M  V30 19967 H 1881.45 -4.73165 -1.35556 0
M  V30 19968 N 1883.1 0.191729 -1.56429 0
M  V30 19969 C 1884.32 0.931804 -1.85289 0
M  V30 19970 C 1884.75 1.7592 -0.665864 0
M  V30 19971 O 1884.11 1.77158 0.385313 0
M  V30 19972 C 1884.16 1.801 -3.12404 0
M  V30 19973 O 1883.26 2.9002 -2.93193 0
M  V30 19974 H 1882.6 0.262213 -0.610033 0
M  V30 19975 H 1885.13 0.196028 -2.03659 0
M  V30 19976 H 1885.14 2.20499 -3.43285 0
M  V30 19977 H 1883.82 1.19309 -3.9842 0
M  V30 19978 H 1882.39 2.53352 -2.73619 0
M  V30 19979 N 1884.58 1.50751 0.459565 0
M  V30 19980 C 1885.54 1.69889 1.53852 0
M  V30 19981 C 1886.54 0.569308 1.50385 0
M  V30 19982 O 1887.73 0.836527 1.528 0
M  V30 19983 C 1884.86 1.73481 2.93457 0
M  V30 19984 H 1886.06 2.66162 1.38195 0
M  V30 19985 H 1883.61 1.40405 0.686741 0
M  V30 19986 H 1884.34 0.789426 3.14545 0
M  V30 19987 H 1884.13 2.55553 2.97381 0
M  V30 19988 H 1885.62 1.90202 3.7177 0
M  V30 19989 N 1886.06 -0.713531 1.40522 0
M  V30 19990 C 1887.02 -1.80932 1.40699 0
M  V30 19991 C 1888.02 -1.57968 0.30045 0
M  V30 19992 O 1889.21 -1.64972 0.559456 0
M  V30 19993 C 1886.34 -3.19053 1.20075 0
M  V30 19994 H 1887.53 -1.82174 2.38228 0
M  V30 19995 H 1885.09 -0.919374 1.26401 0
M  V30 19996 H 1885.82 -3.23461 0.233137 0
M  V30 19997 H 1885.61 -3.37121 2.00229 0
M  V30 19998 H 1887.1 -3.99078 1.22991 0
M  V30 19999 N 1887.53 -1.26053 -0.945962 0
M  V30 20000 C 1888.44 -1.08959 -2.07762 0
M  V30 20001 C 1889.46 -0.0243726 -1.73983 0
M  V30 20002 O 1890.64 -0.227113 -2.00115 0
M  V30 20003 C 1887.7 -0.719365 -3.39155 0
M  V30 20004 C 1886.76 -1.86347 -3.86747 0
M  V30 20005 C 1885.99 -1.51082 -5.11869 0
M  V30 20006 O 1886.22 -0.410377 -5.68922 0
M  V30 20007 O 1885.15 -2.34395 -5.54385 0
M  V30 20008 H 1888.98 -2.03884 -2.25089 0
M  V30 20009 H 1886.56 -1.05071 -1.0621 0
M  V30 20010 H 1888.44 -0.525412 -4.18112 0
M  V30 20011 H 1887.12 0.20054 -3.23078 0
M  V30 20012 H 1886.03 -2.11235 -3.08756 0
M  V30 20013 H 1887.36 -2.76293 -4.07336 0
M  V30 20014 N 1889.01 1.14984 -1.07779 0
M  V30 20015 C 1890.24 1.90288 -0.824935 0
M  V30 20016 C 1890.66 1.77709 0.616524 0
M  V30 20017 O 1890.02 1.11281 1.4313 0
M  V30 20018 C 1890.07 3.38482 -1.24348 0
M  V30 20019 O 1889.17 4.10538 -0.391454 0
M  V30 20020 H 1888.51 0.592283 -0.300162 0
M  V30 20021 H 1891.04 1.45588 -1.43755 0
M  V30 20022 H 1891.05 3.89284 -1.22155 0
M  V30 20023 H 1889.73 3.46956 -2.29335 0
M  V30 20024 H 1888.3 3.69846 -0.476247 0
M  V30 20025 N 1890.49 0.862526 1.31902 0
M  V30 20026 C 1891.71 0.483159 2.01694 0
M  V30 20027 C 1892.14 -0.914778 1.64358 0
M  V30 20028 O 1891.5 -1.60229 0.848308 0
M  V30 20029 C 1891.55 0.638911 3.54895 0
M  V30 20030 O 1890.65 -0.324962 4.11118 0
M  V30 20031 H 1889.99 0.193128 0.635293 0
M  V30 20032 H 1892.52 1.16389 1.6827 0
M  V30 20033 H 1892.53 0.529394 4.04551 0
M  V30 20034 H 1891.21 1.65828 3.81411 0
M  V30 20035 H 1889.78 -0.171025 3.72508 0
M  V30 20036 N 1891.97 -1.4484 0.62123 0
M  V30 20037 C 1893.22 -2.02133 0.121784 0
M  V30 20038 C 1893.54 -1.48784 -1.25274 0
M  V30 20039 O 1892.8 -0.658116 -1.84302 0
M  V30 20040 C 1893.1 -3.57369 0.0470922 0
M  V30 20041 C 1892.76 -4.2993 1.35908 0
M  V30 20042 C 1891.43 -4.4947 1.71843 0
M  V30 20043 C 1893.78 -4.71295 2.22554 0
M  V30 20044 C 1891.11 -5.07634 2.94151 0
M  V30 20045 C 1893.46 -5.30812 3.44124 0
M  V30 20046 C 1892.12 -5.48573 3.80294 0
M  V30 20047 H 1891.39 -0.739659 0.044564 0
M  V30 20048 H 1894.04 -1.73732 0.805571 0
M  V30 20049 H 1892.34 -3.85127 -0.720022 0
M  V30 20050 H 1894.04 -3.99419 -0.355713 0
M  V30 20051 H 1890.63 -4.15044 1.06941 0
M  V30 20052 H 1894.81 -4.5592 1.96088 0
M  V30 20053 H 1890.07 -5.19572 3.22265 0
M  V30 20054 H 1894.24 -5.61816 4.11504 0
M  V30 20055 H 1891.87 -5.93409 4.75152 0
M  V30 20056 N 1893.45 -0.361184 -1.53405 0
M  V30 20057 C 1894.38 0.479368 -2.28526 0
M  V30 20058 C 1895.36 1.08768 -1.3078 0
M  V30 20059 O 1896.54 1.10576 -1.59645 0
M  V30 20060 C 1893.67 1.6215 -3.07123 0
M  V30 20061 C 1892.63 1.14065 -4.12521 0
M  V30 20062 C 1891.95 2.37267 -4.79175 0
M  V30 20063 C 1893.25 0.228522 -5.218 0
M  V30 20064 H 1894.95 -0.147344 -2.99037 0
M  V30 20065 H 1892.49 -0.0723051 -1.43818 0
M  V30 20066 H 1894.45 2.21612 -3.58422 0
M  V30 20067 H 1893.17 2.27538 -2.34295 0
M  V30 20068 H 1891.83 0.568735 -3.62162 0
M  V30 20069 H 1891.48 3.01102 -4.02923 0
M  V30 20070 H 1891.18 2.05768 -5.50394 0
M  V30 20071 H 1892.7 2.97424 -5.33265 0
M  V30 20072 H 1894.11 0.730497 -5.68627 0
M  V30 20073 H 1892.51 0.00460259 -6.001 0
M  V30 20074 H 1893.58 -0.730537 -4.79365 0
M  V30 20075 N 1894.92 1.57341 -0.0902386 0
M  V30 20076 C 1896.15 1.98934 0.586524 0
M  V30 20077 C 1896.57 0.968841 1.6123 0
M  V30 20078 O 1895.93 -0.0632868 1.8119 0
M  V30 20079 C 1895.98 3.39509 1.21516 0
M  V30 20080 O 1895.08 3.40203 2.331 0
M  V30 20081 H 1894.43 0.647009 0.14925 0
M  V30 20082 H 1896.96 2.03891 -0.170213 0
M  V30 20083 H 1896.97 3.77097 1.55762 0
M  V30 20084 H 1895.64 4.13308 0.463639 0
M  V30 20085 H 1894.22 3.14405 2.0051 0
M  V30 20086 N 1896.4 -0.183431 1.56529 0
M  V30 20087 C 1897.63 -0.916557 1.85156 0
M  V30 20088 C 1898.04 -1.76861 0.672063 0
M  V30 20089 O 1897.38 -1.7997 -0.3683 0
M  V30 20090 C 1897.45 -1.85342 3.0804 0
M  V30 20091 C 1897.11 -1.18216 4.41445 0
M  V30 20092 C 1898.11 -0.553445 5.16946 0
M  V30 20093 C 1895.79 -1.18253 4.88182 0
M  V30 20094 C 1897.79 0.0659422 6.37366 0
M  V30 20095 C 1895.47 -0.559316 6.08535 0
M  V30 20096 C 1896.47 0.0638301 6.8297 0
M  V30 20097 O 1896.16 0.677251 8.01042 0
M  V30 20098 H 1895.89 -0.272343 0.618713 0
M  V30 20099 H 1898.44 -0.192085 2.045 0
M  V30 20100 H 1896.67 -2.61789 2.84611 0
M  V30 20101 H 1898.36 -2.45533 3.23215 0
M  V30 20102 H 1899.13 -0.545219 4.81926 0
M  V30 20103 H 1895.01 -1.65696 4.30193 0
M  V30 20104 H 1898.55 0.552935 6.95405 0
M  V30 20105 H 1894.45 -0.565084 6.43022 0
M  V30 20106 H 1895.22 0.575305 8.16476 0
M  V30 20107 N 1897.88 -1.50992 -0.451564 0
M  V30 20108 C 1899.3 -1.38852 -0.786916 0
M  V30 20109 C 1899.5 -0.459764 -1.96185 0
M  V30 20110 O 1898.55 0.0903799 -2.52338 0
M  V30 20111 C 1899.87 -2.80611 -1.08064 0
M  V30 20112 C 1901.41 -2.89663 -1.18593 0
M  V30 20113 C 1901.89 -4.32299 -1.51267 0
M  V30 20114 N 1903.38 -4.3534 -1.5822 0
M  V30 20115 C 1904.11 -5.42721 -1.85046 0
M  V30 20116 N 1903.61 -6.60282 -2.09759 0
M  V30 20117 N 1905.4 -5.30185 -1.8671 0
M  V30 20118 H 1897.55 -2.09938 0.32245 0
M  V30 20119 H 1899.82 -0.944464 0.0818072 0
M  V30 20120 H 1899.52 -3.50501 -0.290167 0
M  V30 20121 H 1899.4 -3.19063 -2.01193 0
M  V30 20122 H 1901.78 -2.1998 -1.96705 0
M  V30 20123 H 1901.87 -2.54728 -0.23398 0
M  V30 20124 H 1901.51 -5.02526 -0.736882 0
M  V30 20125 H 1901.44 -4.64736 -2.47645 0
M  V30 20126 H 1903.93 -3.50577 -1.41082 0
M  V30 20127 H 1904.24 -7.37918 -2.29557 0
M  V30 20128 H 1902.59 -6.63423 -2.07111 0
M  V30 20129 H 1905.78 -4.3733 -1.66912 0
M  V30 20130 H 1905.95 -6.13954 -2.07279 0
M  V30 20131 N 1899.36 0.706069 -1.40899 0
M  V30 20132 C 1900.6 1.46821 -1.39898 0
M  V30 20133 C 1900.94 1.942 -0.00437855 0
M  V30 20134 O 1900.21 1.68815 0.966002 0
M  V30 20135 C 1900.5 2.68756 -2.39671 0
M  V30 20136 C 1900.35 2.27211 -3.88195 0
M  V30 20137 C 1901.67 3.70935 -2.36845 0
M  V30 20138 H 1898.79 0.532549 -0.509471 0
M  V30 20139 H 1901.43 0.805057 -1.72101 0
M  V30 20140 H 1899.58 3.25337 -2.1234 0
M  V30 20141 H 1901.25 1.76038 -4.2639 0
M  V30 20142 H 1899.49 1.59108 -4.03568 0
M  V30 20143 H 1900.16 3.14656 -4.53537 0
M  V30 20144 H 1902.64 3.24004 -2.61076 0
M  V30 20145 H 1901.52 4.53876 -3.08687 0
M  V30 20146 H 1901.78 4.19899 -1.38337 0
M  V30 20147 N 1900.84 1.26553 0.939264 0
M  V30 20148 C 1901.75 1.10059 2.07181 0
M  V30 20149 C 1902.76 0.033599 1.73968 0
M  V30 20150 O 1903.94 0.237723 1.99992 0
M  V30 20151 C 1901 0.737342 3.38769 0
M  V30 20152 C 1900.06 1.88395 3.85753 0
M  V30 20153 C 1899.3 1.53794 5.11061 0
M  V30 20154 O 1899.52 0.440543 5.68696 0
M  V30 20155 O 1898.45 2.37332 5.53134 0
M  V30 20156 H 1902.28 2.05075 2.24004 0
M  V30 20157 H 1899.87 1.05633 1.05651 0
M  V30 20158 H 1901.75 0.547578 4.17827 0
M  V30 20159 H 1900.42 -0.183404 3.2318 0
M  V30 20160 H 1899.33 2.1287 3.07632 0
M  V30 20161 H 1900.66 2.78449 4.05865 0
M  V30 20162 N 1902.31 -1.14411 1.08387 0
M  V30 20163 C 1903.73 -1.67013 0.83448 0
M  V30 20164 C 1904.08 -1.85509 -0.638802 0
M  V30 20165 O 1903.2 -1.56611 -1.49338 0
M  V30 20166 C 1903.8 -3.03377 1.50825 0
M  V30 20167 C 1902.36 -3.53013 1.3061 0
M  V30 20168 C 1901.5 -2.28494 1.57117 0
M  V30 20169 H 1904.45 -0.984794 1.24449 0
M  V30 20170 H 1904.47 -3.68824 0.935352 0
M  V30 20171 H 1903.99 -2.89883 2.5805 0
M  V30 20172 H 1902.09 -3.7173 0.254538 0
M  V30 20173 H 1902.2 -4.33799 2.0336 0
M  V30 20174 H 1900.56 -2.34558 0.99271 0
M  V30 20175 H 1901.35 -2.17576 2.65547 0
M  V30 20176 N 1903.79 -0.869509 -1.31443 0
M  V30 20177 C 1904.72 -0.340679 -2.31001 0
M  V30 20178 C 1905.7 0.568186 -1.6033 0
M  V30 20179 O 1906.89 0.485305 -1.88038 0
M  V30 20180 C 1904.02 0.45909 -3.44252 0
M  V30 20181 C 1902.97 -0.356639 -4.26512 0
M  V30 20182 C 1902.3 0.568786 -5.31666 0
M  V30 20183 C 1903.6 -1.59045 -4.97496 0
M  V30 20184 H 1905.29 -1.1726 -2.75482 0
M  V30 20185 H 1902.84 -0.5653 -1.3244 0
M  V30 20186 H 1904.79 0.839573 -4.12952 0
M  V30 20187 H 1903.52 1.32451 -2.98537 0
M  V30 20188 H 1902.17 -0.719063 -3.59479 0
M  V30 20189 H 1901.82 1.43148 -4.82201 0
M  V30 20190 H 1901.52 0.0268906 -5.87594 0
M  V30 20191 H 1903.05 0.946122 -6.03225 0
M  V30 20192 H 1904.46 -1.28144 -5.58795 0
M  V30 20193 H 1902.86 -2.07139 -5.63217 0
M  V30 20194 H 1903.93 -2.34354 -4.24507 0
M  V30 20195 N 1905.27 1.44508 -0.628902 0
M  V30 20196 C 1906.22 2.3067 0.0773497 0
M  V30 20197 C 1907.19 1.43353 0.839003 0
M  V30 20198 O 1908.37 1.72258 0.820487 0
M  V30 20199 C 1905.51 3.28596 1.05447 0
M  V30 20200 C 1904.63 4.31016 0.291465 0
M  V30 20201 C 1903.76 5.16035 1.2602 0
M  V30 20202 C 1902.8 6.10166 0.486229 0
M  V30 20203 N 1901.94 6.87892 1.40532 0
M  V30 20204 H 1906.78 2.90523 -0.663346 0
M  V30 20205 H 1904.31 1.43143 -0.338906 0
M  V30 20206 H 1906.27 3.83856 1.63433 0
M  V30 20207 H 1904.9 2.70448 1.76232 0
M  V30 20208 H 1903.95 3.78246 -0.404285 0
M  V30 20209 H 1905.27 4.97827 -0.311447 0
M  V30 20210 H 1904.42 5.75802 1.91147 0
M  V30 20211 H 1903.16 4.49293 1.89704 0
M  V30 20212 H 1902.16 5.4951 -0.178543 0
M  V30 20213 H 1903.39 6.78943 -0.145859 0
M  V30 20214 H 1901.33 6.2382 2.0294 0
M  V30 20215 H 1901.25 7.51134 0.856369 0
M  V30 20216 H 1902.52 7.52183 2.04549 0
M  V30 20217 N 1906.75 0.369315 1.53212 0
M  V30 20218 C 1907.97 -0.222451 2.06204 0
M  V30 20219 C 1908.4 -1.41373 1.24077 0
M  V30 20220 O 1907.76 -1.79415 0.260767 0
M  V30 20221 C 1907.81 -0.590386 3.55734 0
M  V30 20222 O 1906.91 -1.68711 3.76311 0
M  V30 20223 H 1906.25 -0.0315041 0.663252 0
M  V30 20224 H 1908.78 0.531 1.97589 0
M  V30 20225 H 1908.79 -0.860345 3.98826 0
M  V30 20226 H 1907.47 0.28067 4.14952 0
M  V30 20227 H 1906.04 -1.41242 3.45116 0
M  V30 20228 N 1908.23 -1.57291 0.0985816 0
M  V30 20229 C 1909.17 -2.14215 -0.8591 0
M  V30 20230 C 1910.14 -1.06162 -1.27745 0
M  V30 20231 O 1911.33 -1.33967 -1.35858 0
M  V30 20232 C 1908.47 -2.72963 -2.11152 0
M  V30 20233 C 1907.58 -3.95259 -1.74339 0
M  V30 20234 C 1906.72 -4.4216 -2.94394 0
M  V30 20235 C 1905.76 -5.57038 -2.53723 0
M  V30 20236 N 1904.89 -5.98775 -3.66624 0
M  V30 20237 H 1909.73 -2.95734 -0.366821 0
M  V30 20238 H 1907.27 -1.46121 -0.169388 0
M  V30 20239 H 1909.23 -3.05145 -2.84504 0
M  V30 20240 H 1907.86 -1.94167 -2.57874 0
M  V30 20241 H 1906.91 -3.69369 -0.90942 0
M  V30 20242 H 1908.22 -4.78622 -1.40436 0
M  V30 20243 H 1907.38 -4.76144 -3.75994 0
M  V30 20244 H 1906.12 -3.57705 -3.31509 0
M  V30 20245 H 1905.12 -5.22678 -1.7055 0
M  V30 20246 H 1906.35 -6.43244 -2.17748 0
M  V30 20247 H 1904.29 -5.17265 -4.03451 0
M  V30 20248 H 1904.21 -6.76943 -3.36578 0
M  V30 20249 H 1905.48 -6.3739 -4.48725 0
M  V30 20250 N 1909.71 0.175127 -1.56624 0
M  V30 20251 C 1910.93 0.908041 -1.85909 0
M  V30 20252 C 1911.35 1.75993 -0.683514 0
M  V30 20253 O 1910.71 1.79162 0.347453 0
M  V30 20254 C 1910.76 1.78791 -3.14191 0
M  V30 20255 O 1910.48 0.970386 -4.27218 0
M  V30 20256 C 1911.98 2.63081 -3.56796 0
M  V30 20257 H 1909.2 0.263986 -0.616889 0
M  V30 20258 H 1911.74 0.176369 -2.03738 0
M  V30 20259 H 1909.9 2.47296 -2.982 0
M  V30 20260 H 1910.31 1.57179 -5.00395 0
M  V30 20261 H 1911.79 3.2044 -4.49469 0
M  V30 20262 H 1912.26 3.37766 -2.80732 0
M  V30 20263 H 1912.87 1.99914 -3.75386 0
M  V30 20264 N 1911.18 1.5123 0.44355 0
M  V30 20265 C 1912.13 1.7266 1.55857 0
M  V30 20266 C 1913.13 0.59279 1.5869 0
M  V30 20267 O 1914.33 0.774014 1.62509 0
M  V30 20268 H 1910.71 0.545442 0.517684 0
M  V30 20269 H 1912.68 2.66139 1.34954 0
M  V30 20270 C 1911.43 1.86311 2.9357 0
M  V30 20271 H 1910.75 2.72958 2.9212 0
M  V30 20272 H 1912.19 2.0532 3.70971 0
M  V30 20273 C 1910.65 0.621377 3.3112 0
M  V30 20274 O 1911.18 -0.226833 4.01059 0
M  V30 20275 N 1909.38 0.467286 2.86818 0
M  V30 20276 H 1908.93 1.15859 2.30075 0
M  V30 20277 H 1908.89 -0.36232 3.12305 0
M  V30 20278 N 1912.66 -0.698586 1.41271 0
M  V30 20279 C 1913.91 -1.45861 1.40466 0
M  V30 20280 C 1914.24 -1.94496 0.0127551 0
M  V30 20281 O 1913.49 -1.69692 -0.974843 0
M  V30 20282 C 1913.79 -2.688 2.35545 0
M  V30 20283 C 1913.46 -2.38839 3.82449 0
M  V30 20284 C 1912.12 -2.30378 4.22468 0
M  V30 20285 C 1914.47 -2.14065 4.75211 0
M  V30 20286 C 1911.8 -1.95236 5.53263 0
M  V30 20287 C 1914.15 -1.80432 6.06323 0
M  V30 20288 C 1912.81 -1.70465 6.45367 0
M  V30 20289 H 1912.08 -0.533744 0.514002 0
M  V30 20290 H 1914.73 -0.798723 1.74048 0
M  V30 20291 H 1913.04 -3.39708 1.95207 0
M  V30 20292 H 1914.73 -3.26933 2.32197 0
M  V30 20293 H 1911.32 -2.46317 3.50751 0
M  V30 20294 H 1915.51 -2.19548 4.45098 0
M  V30 20295 H 1910.76 -1.86069 5.82399 0
M  V30 20296 H 1914.94 -1.60281 6.77704 0
M  V30 20297 H 1912.56 -1.43002 7.46629 0
M  V30 20298 N 1914.14 -1.27049 -0.93254 0
M  V30 20299 C 1915.39 -1.14279 -1.68261 0
M  V30 20300 C 1915.74 0.30916 -1.899 0
M  V30 20301 O 1915.03 1.22313 -1.47479 0
M  V30 20302 C 1915.23 -1.8547 -3.05509 0
M  V30 20303 C 1915.06 -3.37439 -2.97262 0
M  V30 20304 C 1913.83 -4.06748 -2.99807 0
M  V30 20305 C 1916.02 -4.33493 -2.76745 0
M  V30 20306 N 1914.01 -5.45323 -2.81951 0
M  V30 20307 C 1915.38 -5.59303 -2.67545 0
M  V30 20308 C 1917.43 -4.23642 -2.61595 0
M  V30 20309 C 1916.14 -6.76383 -2.44741 0
M  V30 20310 C 1918.16 -5.40438 -2.40167 0
M  V30 20311 C 1917.52 -6.652 -2.31706 0
M  V30 20312 H 1913.62 -0.473016 -0.62272 0
M  V30 20313 H 1916.21 -1.60453 -1.10286 0
M  V30 20314 H 1914.38 -1.41759 -3.61606 0
M  V30 20315 H 1916.11 -1.65248 -3.69426 0
M  V30 20316 H 1912.86 -3.58176 -3.0985 0
M  V30 20317 H 1913.29 -6.18111 -2.76166 0
M  V30 20318 H 1917.93 -3.2791 -2.66898 0
M  V30 20319 H 1915.65 -7.72202 -2.38178 0
M  V30 20320 H 1919.23 -5.34692 -2.29337 0
M  V30 20321 H 1918.11 -7.54052 -2.15348 0
M  V30 20322 N 1915.62 1.13835 -1.08993 0
M  V30 20323 C 1916.87 1.84361 -0.818161 0
M  V30 20324 C 1917.18 1.84185 0.658437 0
M  V30 20325 O 1918.39 2.50559 1.04558 0
M  V30 20326 C 1916.84 3.30973 -1.41367 0
M  V30 20327 C 1916.45 3.3955 -2.92249 0
M  V30 20328 C 1918.19 4.06571 -1.22066 0
M  V30 20329 C 1916.1 4.80408 -3.44908 0
M  V30 20330 H 1915.03 0.690704 -0.302397 0
M  V30 20331 H 1917.68 1.28283 -1.31208 0
M  V30 20332 H 1916.06 3.86826 -0.84745 0
M  V30 20333 H 1917.24 2.93716 -3.5506 0
M  V30 20334 H 1915.55 2.77413 -3.10533 0
M  V30 20335 H 1918.15 5.10554 -1.58868 0
M  V30 20336 H 1918.49 4.15989 -0.160946 0
M  V30 20337 H 1919.03 3.57036 -1.75415 0
M  V30 20338 H 1915.76 4.76181 -4.5048 0
M  V30 20339 H 1915.28 5.26756 -2.86859 0
M  V30 20340 H 1916.96 5.49315 -3.4185 0
M  V30 20341 N 1917.1 0.876467 1.3098 0
M  V30 20342 C 1918.34 0.489671 1.96078 0
M  V30 20343 C 1918.66 -0.962603 1.69585 0
M  V30 20344 O 1917.93 -1.67568 1.01478 0
M  V30 20345 H 1916.51 0.178091 0.72546 0
M  V30 20346 H 1919.18 1.11768 1.59668 0
M  V30 20347 H 1918.27 0.652822 3.05196 0
M  V30 20348 N 1918.57 -1.44173 0.636557 0
M  V30 20349 C 1919.5 -2.33442 -0.0518719 0
M  V30 20350 C 1920.48 -1.48519 -0.829226 0
M  V30 20351 O 1921.67 -1.77225 -0.794028 0
M  V30 20352 C 1918.8 -3.31663 -1.03038 0
M  V30 20353 C 1917.75 -4.26447 -0.364286 0
M  V30 20354 C 1917.08 -5.14577 -1.45308 0
M  V30 20355 C 1918.38 -5.17133 0.732884 0
M  V30 20356 H 1920.07 -2.91255 0.693589 0
M  V30 20357 H 1917.62 -1.40049 0.33499 0
M  V30 20358 H 1919.57 -3.93002 -1.52077 0
M  V30 20359 H 1918.3 -2.72071 -1.80679 0
M  V30 20360 H 1916.96 -3.66448 0.105505 0
M  V30 20361 H 1916.6 -4.51334 -2.22051 0
M  V30 20362 H 1916.3 -5.78807 -1.01274 0
M  V30 20363 H 1917.83 -5.78788 -1.94517 0
M  V30 20364 H 1919.24 -5.72376 0.325363 0
M  V30 20365 H 1917.64 -5.89994 1.09669 0
M  V30 20366 H 1918.71 -4.5782 1.59779 0
M  V30 20367 N 1920.05 -0.377435 -1.53014 0
M  V30 20368 C 1921.3 0.20853 -2.01423 0
M  V30 20369 C 1921.63 1.47801 -1.26433 0
M  V30 20370 O 1920.88 1.92551 -0.34966 0
M  V30 20371 C 1921.18 0.534659 -3.53378 0
M  V30 20372 C 1920.85 -0.641876 -4.46308 0
M  V30 20373 C 1919.51 -0.964671 -4.71431 0
M  V30 20374 C 1921.86 -1.42954 -5.01212 0
M  V30 20375 C 1919.19 -2.07689 -5.4871 0
M  V30 20376 C 1921.54 -2.53227 -5.79706 0
M  V30 20377 C 1920.2 -2.86028 -6.03112 0
M  V30 20378 H 1919.47 0.0763064 -0.737061 0
M  V30 20379 H 1922.12 -0.51234 -1.84519 0
M  V30 20380 H 1920.43 1.3367 -3.68293 0
M  V30 20381 H 1922.12 1.00048 -3.88319 0
M  V30 20382 H 1918.71 -0.380266 -4.2691 0
M  V30 20383 H 1922.9 -1.1934 -4.81738 0
M  V30 20384 H 1918.15 -2.33487 -5.65061 0
M  V30 20385 H 1922.33 -3.14669 -6.21254 0
M  V30 20386 H 1919.95 -3.72332 -6.62777 0
M  V30 20387 N 1921.53 1.57237 -0.106922 0
M  V30 20388 C 1922.95 1.57634 0.249708 0
M  V30 20389 C 1923.15 1.11888 1.67581 0
M  V30 20390 O 1922.2 0.80073 2.39467 0
M  V30 20391 C 1923.52 3.00688 0.0273757 0
M  V30 20392 C 1925.06 3.12858 0.0942116 0
M  V30 20393 C 1925.54 4.5789 -0.100275 0
M  V30 20394 N 1927.03 4.63177 -0.045837 0
M  V30 20395 C 1927.76 5.73144 -0.171398 0
M  V30 20396 N 1927.26 6.91903 -0.352455 0
M  V30 20397 N 1929.05 5.61989 -0.111827 0
M  V30 20398 H 1921.2 1.85278 -1.03855 0
M  V30 20399 H 1923.47 0.855717 -0.407985 0
M  V30 20400 H 1923.17 3.38399 -0.958063 0
M  V30 20401 H 1923.05 3.6937 0.764546 0
M  V30 20402 H 1925.43 2.75012 1.07016 0
M  V30 20403 H 1925.52 2.46743 -0.674643 0
M  V30 20404 H 1925.16 4.96433 -1.07315 0
M  V30 20405 H 1925.09 5.22081 0.688418 0
M  V30 20406 H 1927.58 3.7779 0.0910806 0
M  V30 20407 H 1927.89 7.7155 -0.439454 0
M  V30 20408 H 1926.24 6.93915 -0.388274 0
M  V30 20409 H 1929.43 4.68091 0.0285732 0
M  V30 20410 H 1929.6 6.47649 -0.213127 0
M  V30 20411 N 1923.01 -0.166818 1.56715 0
M  V30 20412 C 1923.96 -1.22576 1.97681 0
M  V30 20413 C 1924.95 -1.45578 0.866218 0
M  V30 20414 O 1926.16 -1.46105 1.05135 0
M  V30 20415 H 1922.53 -0.412144 0.629 0
M  V30 20416 H 1924.5 -0.853418 2.85936 0
M  V30 20417 C 1923.25 -2.55649 2.35667 0
M  V30 20418 H 1922.57 -2.38774 3.20666 0
M  V30 20419 H 1924.01 -3.28421 2.68171 0
M  V30 20420 C 1922.47 -3.14737 1.20177 0
M  V30 20421 O 1923 -3.98678 0.491844 0
M  V30 20422 N 1921.21 -2.73892 0.971164 0
M  V30 20423 H 1920.76 -2.05732 1.55023 0
M  V30 20424 H 1920.71 -3.13761 0.20029 0
M  V30 20425 N 1924.49 -1.51463 -0.435524 0
M  V30 20426 C 1925.73 -1.64464 -1.18656 0
M  V30 20427 C 1926.07 -0.360669 -1.90821 0
M  V30 20428 O 1925.34 0.639814 -1.83675 0
M  V30 20429 C 1925.62 -2.84919 -2.20212 0
M  V30 20430 C 1925.48 -4.23297 -1.52117 0
M  V30 20431 C 1926.8 -3.00891 -3.21174 0
M  V30 20432 H 1923.91 -0.598545 -0.430015 0
M  V30 20433 H 1926.56 -1.83952 -0.475572 0
M  V30 20434 H 1924.71 -2.68435 -2.80847 0
M  V30 20435 H 1926.38 -4.51453 -0.948048 0
M  V30 20436 H 1924.62 -4.25912 -0.823493 0
M  V30 20437 H 1925.29 -5.03576 -2.26087 0
M  V30 20438 H 1927.77 -3.16099 -2.70594 0
M  V30 20439 H 1926.64 -3.86734 -3.89523 0
M  V30 20440 H 1926.91 -2.13041 -3.87383 0
M  V30 20441 N 1925.96 0.691085 -1.4164 0
M  V30 20442 C 1926.87 1.83467 -1.46209 0
M  V30 20443 C 1927.89 1.70397 -0.352267 0
M  V30 20444 O 1929.07 1.92234 -0.60068 0
M  V30 20445 C 1926.13 3.19485 -1.34648 0
M  V30 20446 C 1925.19 3.44631 -2.55984 0
M  V30 20447 C 1924.43 4.7416 -2.44964 0
M  V30 20448 O 1924.65 5.50955 -1.47664 0
M  V30 20449 O 1923.58 5.0019 -3.34804 0
M  V30 20450 H 1927.41 1.82568 -2.42698 0
M  V30 20451 H 1924.99 0.844729 -1.23226 0
M  V30 20452 H 1926.88 4.00684 -1.30501 0
M  V30 20453 H 1925.55 3.21058 -0.41276 0
M  V30 20454 H 1924.46 2.63345 -2.65707 0
M  V30 20455 H 1925.79 3.47877 -3.48199 0
M  V30 20456 N 1927.44 1.27542 0.925789 0
M  V30 20457 C 1928.69 1.13767 1.67038 0
M  V30 20458 C 1929.01 -0.316603 1.92413 0
M  V30 20459 O 1928.28 -1.22124 1.53175 0
M  V30 20460 H 1926.86 0.41803 0.61908 0
M  V30 20461 H 1929.52 1.60097 1.11153 0
M  V30 20462 H 1928.62 1.66818 2.63777 0
M  V30 20463 N 1928.92 -1.13255 1.09595 0
M  V30 20464 C 1930.15 -1.88411 0.854927 0
M  V30 20465 C 1930.56 -1.79214 -0.593949 0
M  V30 20466 O 1929.92 -1.15995 -1.40895 0
M  V30 20467 C 1929.97 -3.37946 1.28353 0
M  V30 20468 O 1929.69 -3.46907 2.67558 0
M  V30 20469 C 1931.19 -4.30065 1.07514 0
M  V30 20470 H 1928.41 -0.596416 0.307455 0
M  V30 20471 H 1930.96 -1.43358 1.45838 0
M  V30 20472 H 1929.11 -3.80576 0.72393 0
M  V30 20473 H 1929.53 -4.39878 2.8567 0
M  V30 20474 H 1931 -5.33309 1.42428 0
M  V30 20475 H 1931.48 -4.39198 0.0130611 0
M  V30 20476 H 1932.08 -3.93206 1.62077 0
M  V30 20477 N 1930.4 -0.883401 -1.30514 0
M  V30 20478 C 1931.64 -0.511158 -1.96872 0
M  V30 20479 C 1932 0.92911 -1.68479 0
M  V30 20480 O 1931.29 1.64747 -0.978217 0
M  V30 20481 C 1931.49 -0.720655 -3.50059 0
M  V30 20482 C 1931.32 -2.17974 -3.93342 0
M  V30 20483 C 1930.09 -2.824 -4.19021 0
M  V30 20484 C 1932.28 -3.15338 -4.06283 0
M  V30 20485 N 1930.27 -4.18921 -4.48752 0
M  V30 20486 C 1931.64 -4.36927 -4.3988 0
M  V30 20487 C 1933.69 -3.11148 -3.88705 0
M  V30 20488 C 1932.39 -5.54864 -4.57731 0
M  V30 20489 C 1934.42 -4.28356 -4.07756 0
M  V30 20490 C 1933.78 -5.4871 -4.41697 0
M  V30 20491 H 1929.88 -0.236343 -0.74543 0
M  V30 20492 H 1932.47 -1.14081 -1.57777 0
M  V30 20493 H 1930.64 -0.120502 -3.88213 0
M  V30 20494 H 1932.37 -0.315468 -4.03469 0
M  V30 20495 H 1929.12 -2.33277 -4.12164 0
M  V30 20496 H 1929.55 -4.89422 -4.67755 0
M  V30 20497 H 1934.19 -2.19198 -3.61541 0
M  V30 20498 H 1931.91 -6.4732 -4.83738 0
M  V30 20499 H 1935.49 -4.26581 -3.95625 0
M  V30 20500 H 1934.37 -6.37894 -4.56137 0
M  V30 20501 N 1931.88 1.43833 -0.644194 0
M  V30 20502 C 1932.81 2.33467 0.0394911 0
M  V30 20503 C 1933.79 1.48957 0.821339 0
M  V30 20504 O 1934.97 1.77644 0.784618 0
M  V30 20505 C 1932.1 3.32205 1.01277 0
M  V30 20506 C 1931.06 4.26634 0.341666 0
M  V30 20507 C 1930.38 5.15341 1.42577 0
M  V30 20508 C 1931.68 5.16737 -0.760299 0
M  V30 20509 H 1933.38 2.90883 -0.709025 0
M  V30 20510 H 1930.92 1.3987 -0.342413 0
M  V30 20511 H 1932.88 3.93803 1.49991 0
M  V30 20512 H 1931.6 2.73025 1.79234 0
M  V30 20513 H 1930.26 3.66387 -0.124937 0
M  V30 20514 H 1929.91 4.52505 2.19654 0
M  V30 20515 H 1929.61 5.79336 0.98203 0
M  V30 20516 H 1931.13 5.79811 1.91444 0
M  V30 20517 H 1932.54 5.72195 -0.355713 0
M  V30 20518 H 1930.94 5.89404 -1.12796 0
M  V30 20519 H 1932.01 4.56966 -1.62204 0
M  V30 20520 N 1933.35 0.385544 1.52811 0
M  V30 20521 C 1934.6 -0.190625 2.02505 0
M  V30 20522 C 1934.96 -1.44782 1.26712 0
M  V30 20523 O 1934.25 -1.88226 0.357975 0
M  V30 20524 C 1934.44 -0.515911 3.53657 0
M  V30 20525 C 1934.27 0.708208 4.44088 0
M  V30 20526 C 1933.04 1.22634 4.90193 0
M  V30 20527 C 1935.24 1.57941 4.89448 0
M  V30 20528 N 1933.22 2.4084 5.64685 0
M  V30 20529 C 1934.59 2.60792 5.62483 0
M  V30 20530 C 1936.65 1.59995 4.71494 0
M  V30 20531 C 1935.35 3.65579 6.19471 0
M  V30 20532 C 1937.38 2.63686 5.29362 0
M  V30 20533 C 1936.74 3.6526 6.02299 0
M  V30 20534 H 1932.84 -0.0319414 0.781347 0
M  V30 20535 H 1935.42 0.534588 1.87217 0
M  V30 20536 H 1933.59 -1.21018 3.69065 0
M  V30 20537 H 1935.32 -1.07891 3.90053 0
M  V30 20538 H 1932.08 0.787908 4.67 0
M  V30 20539 H 1932.5 3.0064 6.06585 0
M  V30 20540 H 1937.15 0.828131 4.1461 0
M  V30 20541 H 1934.86 4.4363 6.75439 0
M  V30 20542 H 1938.45 2.66153 5.17352 0
M  V30 20543 H 1937.33 4.44179 6.46278 0
M  V30 20544 N 1934.83 -1.57178 0.115259 0
M  V30 20545 C 1936.08 -1.94241 -0.54344 0
M  V30 20546 C 1936.39 -1.0006 -1.68069 0
M  V30 20547 O 1937.6 -1.26574 -2.4019 0
M  V30 20548 C 1936.06 -3.45199 -1.0181 0
M  V30 20549 C 1935.66 -4.47909 0.0904861 0
M  V30 20550 C 1937.41 -3.91188 -1.64839 0
M  V30 20551 C 1935.32 -5.90041 -0.400667 0
M  V30 20552 H 1934.25 -0.725092 -0.206778 0
M  V30 20553 H 1936.9 -1.82466 0.194509 0
M  V30 20554 H 1935.28 -3.52196 -1.81036 0
M  V30 20555 H 1936.45 -4.52577 0.866638 0
M  V30 20556 H 1934.77 -4.11649 0.627197 0
M  V30 20557 H 1937.36 -4.94792 -2.02694 0
M  V30 20558 H 1937.71 -3.30955 -2.52536 0
M  V30 20559 H 1938.24 -3.86977 -0.92161 0
M  V30 20560 H 1934.98 -6.54021 0.440159 0
M  V30 20561 H 1934.5 -5.88801 -1.14338 0
M  V30 20562 H 1936.18 -6.41217 -0.863111 0
M  V30 20563 N 1936.31 0.158505 -1.56801 0
M  V30 20564 C 1937.26 1.21526 -1.98328 0
M  V30 20565 C 1938.25 1.45117 -0.873926 0
M  V30 20566 O 1939.46 1.45545 -1.05908 0
M  V30 20567 H 1935.83 0.408803 -0.631177 0
M  V30 20568 H 1937.81 0.838242 -2.86384 0
M  V30 20569 C 1936.55 2.54396 -2.37019 0
M  V30 20570 H 1935.88 2.3707 -3.21928 0
M  V30 20571 H 1937.32 3.26994 -2.69909 0
M  V30 20572 C 1935.78 3.14095 -1.21845 0
M  V30 20573 O 1936.31 3.98411 -0.51298 0
M  V30 20574 N 1934.51 2.73373 -0.985675 0
M  V30 20575 H 1934.06 2.04907 -1.56112 0
M  V30 20576 H 1934.02 3.13651 -0.216926 0
M  V30 20577 N 1937.79 1.51692 0.427485 0
M  V30 20578 C 1938.74 1.74303 1.54017 0
M  V30 20579 C 1939.73 0.609588 1.58052 0
M  V30 20580 O 1940.94 0.791207 1.61678 0
M  V30 20581 H 1937.31 0.550902 0.51187 0
M  V30 20582 H 1939.28 2.67556 1.32123 0
M  V30 20583 C 1938.03 1.89415 2.91577 0
M  V30 20584 H 1937.36 2.76041 2.89208 0
M  V30 20585 H 1938.8 2.09244 3.68772 0
M  V30 20586 C 1937.25 0.656462 3.30442 0
M  V30 20587 O 1937.78 -0.184283 4.01277 0
M  V30 20588 N 1935.99 0.497681 2.86307 0
M  V30 20589 H 1935.54 1.18293 2.28833 0
M  V30 20590 H 1935.5 -0.329176 3.12672 0
M  V30 20591 N 1939.27 -0.683564 1.42004 0
M  V30 20592 C 1940.49 -1.47711 1.45589 0
M  V30 20593 C 1940.92 -1.87984 0.0661307 0
M  V30 20594 O 1940.28 -1.55425 -0.933428 0
M  V30 20595 C 1940.32 -2.70824 2.3809 0
M  V30 20596 O 1939.43 -3.68766 1.84622 0
M  V30 20597 H 1938.77 -0.444102 0.493629 0
M  V30 20598 H 1941.3 -0.839192 1.86598 0
M  V30 20599 H 1941.31 -3.18996 2.54373 0
M  V30 20600 H 1939.98 -2.4085 3.39063 0
M  V30 20601 H 1938.56 -3.27756 1.77849 0
M  V30 20602 N 1940.75 -1.28031 -0.919012 0
M  V30 20603 C 1942.16 -1.13466 -1.48264 0
M  V30 20604 C 1942.51 0.27724 -1.94231 0
M  V30 20605 O 1941.63 1.171 -1.81979 0
M  V30 20606 C 1942.23 -2.05366 -2.69463 0
M  V30 20607 C 1940.79 -1.94882 -3.22022 0
M  V30 20608 C 1939.93 -1.97414 -1.94738 0
M  V30 20609 H 1942.88 -1.40797 -0.732246 0
M  V30 20610 H 1942.91 -1.61457 -3.44546 0
M  V30 20611 H 1942.42 -3.08118 -2.35976 0
M  V30 20612 H 1940.52 -0.951474 -3.60247 0
M  V30 20613 H 1940.63 -2.8157 -3.87628 0
M  V30 20614 H 1939 -1.41752 -2.11609 0
M  V30 20615 H 1939.78 -3.01836 -1.63554 0
M  V30 20616 N 1942.22 1.12672 -1.10194 0
M  V30 20617 C 1943.47 1.84399 -0.844081 0
M  V30 20618 C 1943.8 1.83739 0.628782 0
M  V30 20619 O 1943.08 1.28115 1.46345 0
M  V30 20620 C 1943.36 3.32194 -1.38994 0
M  V30 20621 C 1943.21 3.41323 -2.92948 0
M  V30 20622 C 1944.53 4.27872 -1.03021 0
M  V30 20623 H 1941.65 0.669515 -0.308089 0
M  V30 20624 H 1944.29 1.322 -1.36467 0
M  V30 20625 H 1942.44 3.76778 -0.947144 0
M  V30 20626 H 1944.12 3.05393 -3.45735 0
M  V30 20627 H 1942.36 2.81948 -3.29678 0
M  V30 20628 H 1943.03 4.45289 -3.26223 0
M  V30 20629 H 1945.51 3.91401 -1.41224 0
M  V30 20630 H 1944.38 5.29699 -1.43909 0
M  V30 20631 H 1944.64 4.42058 0.0606669 0
M  V30 20632 N 1943.7 0.89031 1.30043 0
M  V30 20633 C 1944.93 0.525833 2.00623 0
M  V30 20634 C 1945.35 -0.87971 1.66261 0
M  V30 20635 O 1944.71 -1.58394 0.882105 0
M  V30 20636 C 1944.76 0.714046 3.5346 0
M  V30 20637 O 1943.86 -0.237685 4.11714 0
M  V30 20638 H 1943.2 0.20656 0.631054 0
M  V30 20639 H 1945.73 1.19932 1.65763 0
M  V30 20640 H 1945.74 0.615086 4.03337 0
M  V30 20641 H 1944.42 1.73881 3.77807 0
M  V30 20642 H 1942.99 -0.0919722 3.72787 0
M  V30 20643 N 1945.18 -1.43489 0.651812 0
M  V30 20644 C 1946.43 -2.0183 0.164632 0
M  V30 20645 C 1946.75 -1.51408 -1.2209 0
M  V30 20646 O 1946.01 -0.697062 -1.82865 0
M  V30 20647 C 1946.31 -3.57189 0.122885 0
M  V30 20648 C 1945.97 -4.2695 1.44997 0
M  V30 20649 C 1944.64 -4.45724 1.81339 0
M  V30 20650 C 1946.99 -4.66468 2.32501 0
M  V30 20651 C 1944.32 -5.0128 3.04853 0
M  V30 20652 C 1946.67 -5.23393 3.55306 0
M  V30 20653 C 1945.33 -5.40383 3.91845 0
M  V30 20654 H 1944.6 -0.738547 0.0602433 0
M  V30 20655 H 1947.25 -1.71984 0.842241 0
M  V30 20656 H 1945.55 -3.86568 -0.638169 0
M  V30 20657 H 1947.25 -4.00084 -0.270911 0
M  V30 20658 H 1943.84 -4.12682 1.15721 0
M  V30 20659 H 1948.03 -4.51658 2.05715 0
M  V30 20660 H 1943.28 -5.1262 3.33213 0
M  V30 20661 H 1947.46 -5.52961 4.23329 0
M  V30 20662 H 1945.08 -5.83197 4.87632 0
M  V30 20663 N 1946.66 -0.393643 -1.52605 0
M  V30 20664 C 1947.9 0.187431 -2.01932 0
M  V30 20665 C 1948.24 1.46098 -1.27942 0
M  V30 20666 O 1947.51 1.90729 -0.381154 0
M  V30 20667 C 1947.79 0.450933 -3.57265 0
M  V30 20668 C 1947.65 -0.838204 -4.41921 0
M  V30 20669 C 1948.97 1.23971 -4.22278 0
M  V30 20670 H 1946.09 0.0666471 -0.73398 0
M  V30 20671 H 1948.73 -0.524064 -1.8263 0
M  V30 20672 H 1946.88 1.05703 -3.73844 0
M  V30 20673 H 1948.55 -1.47492 -4.37086 0
M  V30 20674 H 1946.79 -1.45258 -4.08757 0
M  V30 20675 H 1947.46 -0.608424 -5.48637 0
M  V30 20676 H 1949.94 0.726733 -4.09705 0
M  V30 20677 H 1948.82 1.39283 -5.30935 0
M  V30 20678 H 1949.08 2.25611 -3.802 0
M  V30 20679 N 1948.14 1.57115 -0.123593 0
M  V30 20680 C 1949.08 2.16817 0.842196 0
M  V30 20681 C 1950.08 1.11865 1.27211 0
M  V30 20682 O 1951.28 1.3016 1.24331 0
M  V30 20683 H 1947.66 0.693949 0.289721 0
M  V30 20684 H 1949.63 2.96741 0.314221 0
M  V30 20685 C 1948.38 2.78577 2.08062 0
M  V30 20686 H 1947.7 3.59037 1.75876 0
M  V30 20687 H 1949.14 3.23884 2.73634 0
M  V30 20688 C 1947.6 1.75892 2.87339 0
M  V30 20689 O 1948.13 1.21508 3.82882 0
M  V30 20690 N 1946.34 1.45728 2.5142 0
M  V30 20691 H 1945.88 1.90143 1.73791 0
M  V30 20692 H 1945.84 0.772654 3.04758 0
M  V30 20693 N 1949.61 -0.150187 1.56883 0
M  V30 20694 C 1950.86 -0.859806 1.84334 0
M  V30 20695 C 1951.21 -1.78934 0.707134 0
M  V30 20696 O 1950.51 -1.89314 -0.29512 0
M  V30 20697 C 1950.7 -1.67394 3.15775 0
M  V30 20698 C 1950.53 -0.824738 4.42073 0
M  V30 20699 C 1949.3 -0.491592 5.02903 0
M  V30 20700 C 1951.5 -0.156535 5.14062 0
M  V30 20701 N 1949.48 0.371543 6.12775 0
M  V30 20702 C 1950.85 0.566871 6.17403 0
M  V30 20703 C 1952.91 -0.0768789 4.97841 0
M  V30 20704 C 1951.61 1.36241 7.0628 0
M  V30 20705 C 1953.64 0.705387 5.87178 0
M  V30 20706 C 1953 1.41709 6.89999 0
M  V30 20707 H 1949.1 -0.292557 0.725213 0
M  V30 20708 H 1951.68 -0.12538 1.94296 0
M  V30 20709 H 1949.85 -2.37963 3.06966 0
M  V30 20710 H 1951.58 -2.32649 3.31145 0
M  V30 20711 H 1948.34 -0.826634 4.6633 0
M  V30 20712 H 1948.76 0.794041 6.72327 0
M  V30 20713 H 1953.4 -0.61276 4.18336 0
M  V30 20714 H 1951.12 1.90956 7.85214 0
M  V30 20715 H 1954.71 0.76897 5.76696 0
M  V30 20716 H 1953.59 2.01268 7.57932 0
M  V30 20717 N 1951.09 -1.51916 -0.419434 0
M  V30 20718 C 1952.04 -1.75117 -1.5309 0
M  V30 20719 C 1953.03 -0.617961 -1.57726 0
M  V30 20720 O 1954.24 -0.79977 -1.61257 0
M  V30 20721 H 1950.62 -0.553609 -0.508941 0
M  V30 20722 H 1952.59 -2.68253 -1.30702 0
M  V30 20723 C 1951.34 -1.90958 -2.90569 0
M  V30 20724 H 1950.66 -2.77571 -2.8774 0
M  V30 20725 H 1952.1 -2.11196 -3.67658 0
M  V30 20726 C 1950.56 -0.673977 -3.3009 0
M  V30 20727 O 1951.09 0.163 -4.01369 0
M  V30 20728 N 1949.29 -0.512857 -2.86039 0
M  V30 20729 H 1948.84 -1.19505 -2.28202 0
M  V30 20730 H 1948.8 0.312589 -3.12842 0
M  V30 20731 N 1952.57 0.676023 -1.42365 0
M  V30 20732 C 1953.8 1.46436 -1.46164 0
M  V30 20733 C 1954.21 1.8866 -0.0726092 0
M  V30 20734 O 1953.57 1.58056 0.912395 0
M  V30 20735 C 1953.62 2.71428 -2.38766 0
M  V30 20736 O 1953.34 2.30976 -3.72266 0
M  V30 20737 C 1954.84 3.65001 -2.51573 0
M  V30 20738 H 1952.06 0.450625 -0.49717 0
M  V30 20739 H 1954.61 0.830748 -1.86866 0
M  V30 20740 H 1952.76 3.30981 -2.01321 0
M  V30 20741 H 1953.18 3.11682 -4.21846 0
M  V30 20742 H 1954.65 4.49432 -3.20492 0
M  V30 20743 H 1955.13 4.10818 -1.55322 0
M  V30 20744 H 1955.73 3.11342 -2.89735 0
M  V30 20745 N 1954.05 1.28517 0.912209 0
M  V30 20746 C 1955.3 1.15532 1.65822 0
M  V30 20747 C 1955.62 -0.296177 1.92738 0
M  V30 20748 O 1954.89 -1.20492 1.54462 0
M  V30 20749 H 1953.47 0.424573 0.614611 0
M  V30 20750 H 1956.13 1.61267 1.09448 0
M  V30 20751 H 1955.23 1.69606 2.61993 0
M  V30 20752 N 1955.53 -1.12086 1.1079 0
M  V30 20753 C 1956.8 -1.80039 0.764549 0
M  V30 20754 C 1957.18 -1.97387 -0.748429 0
M  V30 20755 O 1956.53 -1.55315 -1.67599 0
M  V30 20756 C 1956.74 -3.14168 1.51985 0
M  V30 20757 C 1958.09 -3.89311 1.69476 0
M  V30 20758 O 1959.11 -3.23836 1.48354 0
M  V30 20759 O 1957.97 -5.06786 2.04524 0
M  V30 20760 H 1955.07 -0.779498 0.276246 0
M  V30 20761 H 1957.61 -1.18889 1.21093 0
M  V30 20762 H 1956.38 -2.96854 2.54938 0
M  V30 20763 H 1956.01 -3.83027 1.06658 0
M  V30 20764 N 1957 -0.897194 -1.29569 0
M  V30 20765 C 1958.42 -0.570676 -1.77764 0
M  V30 20766 C 1958.77 0.913595 -1.73631 0
M  V30 20767 O 1957.89 1.71426 -1.32068 0
M  V30 20768 C 1958.49 -1.02914 -3.22791 0
M  V30 20769 C 1957.05 -0.753828 -3.68774 0
M  V30 20770 C 1956.19 -1.20525 -2.49738 0
M  V30 20771 H 1959.14 -1.08018 -1.16266 0
M  V30 20772 H 1959.16 -0.363343 -3.78761 0
M  V30 20773 H 1958.68 -2.10944 -3.25767 0
M  V30 20774 H 1956.78 0.313965 -3.71275 0
M  V30 20775 H 1956.89 -1.34995 -4.59688 0
M  V30 20776 H 1955.25 -0.624304 -2.4693 0
M  V30 20777 H 1956.04 -2.29355 -2.55443 0
M  V30 20778 N 1958.48 1.43142 -0.659413 0
M  V30 20779 C 1959.71 2.06603 -0.181642 0
M  V30 20780 C 1960.13 1.49137 1.14629 0
M  V30 20781 O 1959.49 0.603739 1.70952 0
M  V30 20782 C 1959.54 3.6043 -0.110662 0
M  V30 20783 O 1958.64 4.01884 0.925344 0
M  V30 20784 H 1957.98 0.656771 -0.097712 0
M  V30 20785 H 1960.51 1.83541 -0.904086 0
M  V30 20786 H 1960.52 4.07939 0.0706089 0
M  V30 20787 H 1959.2 4.01632 -1.08002 0
M  V30 20788 H 1957.78 3.65954 0.716361 0
M  V30 20789 N 1959.96 0.40173 1.52394 0
M  V30 20790 C 1961.21 -0.17611 2.01331 0
M  V30 20791 C 1961.53 -1.46274 1.28953 0
M  V30 20792 O 1960.8 -1.91492 0.413249 0
M  V30 20793 H 1959.38 -0.0680697 0.743892 0
M  V30 20794 H 1962.04 0.536274 1.87377 0
M  V30 20795 H 1961.14 -0.377497 3.09809 0
M  V30 20796 N 1961.44 -1.57047 0.131923 0
M  V30 20797 C 1962.35 -2.19545 -0.826862 0
M  V30 20798 C 1963.36 -1.17532 -1.28305 0
M  V30 20799 O 1964.54 -1.50052 -1.34337 0
M  V30 20800 C 1961.61 -2.79284 -2.0543 0
M  V30 20801 C 1960.67 -3.96375 -1.64879 0
M  V30 20802 C 1959.9 -4.53256 -2.81771 0
M  V30 20803 O 1960.12 -4.09022 -3.97564 0
M  V30 20804 O 1959.06 -5.43748 -2.58111 0
M  V30 20805 H 1962.88 -3.01957 -0.324926 0
M  V30 20806 H 1960.47 -1.49102 -0.0943495 0
M  V30 20807 H 1962.35 -3.17312 -2.77292 0
M  V30 20808 H 1961.02 -1.99895 -2.54605 0
M  V30 20809 H 1959.93 -3.63092 -0.900848 0
M  V30 20810 H 1961.26 -4.77238 -1.20434 0
M  V30 20811 N 1962.92 0.141865 -1.5696 0
M  V30 20812 C 1964.33 0.494676 -1.5174 0
M  V30 20813 C 1964.53 1.83101 -0.8412 0
M  V30 20814 O 1963.59 2.49085 -0.413886 0
M  V30 20815 C 1964.9 0.500247 -2.9651 0
M  V30 20816 C 1966.45 0.585404 -3.07477 0
M  V30 20817 C 1966.92 0.621588 -4.53762 0
M  V30 20818 N 1968.42 0.683668 -4.58127 0
M  V30 20819 C 1969.15 0.732734 -5.68699 0
M  V30 20820 N 1968.65 0.740833 -6.88828 0
M  V30 20821 N 1970.44 0.774006 -5.56745 0
M  V30 20822 H 1962.59 -0.734022 -1.99314 0
M  V30 20823 H 1964.85 -0.268231 -0.909261 0
M  V30 20824 H 1964.56 -0.413562 -3.4926 0
M  V30 20825 H 1964.43 1.33632 -3.52735 0
M  V30 20826 H 1966.82 1.48963 -2.54743 0
M  V30 20827 H 1966.9 -0.277919 -2.54286 0
M  V30 20828 H 1966.55 -0.278504 -5.07136 0
M  V30 20829 H 1966.48 1.50147 -5.04741 0
M  V30 20830 H 1968.97 0.6845 -3.71649 0
M  V30 20831 H 1969.28 0.780262 -7.68851 0
M  V30 20832 H 1967.62 0.708625 -6.91378 0
M  V30 20833 H 1970.82 0.764885 -4.61809 0
M  V30 20834 H 1970.99 0.808779 -6.42933 0
M  V30 20835 N 1964.39 1.52136 0.411372 0
M  V30 20836 C 1965.34 1.75927 1.52159 0
M  V30 20837 C 1966.34 0.626317 1.57396 0
M  V30 20838 O 1967.54 0.808311 1.6083 0
M  V30 20839 H 1963.92 0.5563 0.505998 0
M  V30 20840 H 1965.89 2.68942 1.29278 0
M  V30 20841 C 1964.64 1.92496 2.89552 0
M  V30 20842 H 1963.96 2.79093 2.86264 0
M  V30 20843 H 1965.4 2.13143 3.66532 0
M  V30 20844 C 1963.86 0.691473 3.29728 0
M  V30 20845 O 1964.39 -0.141712 4.0145 0
M  V30 20846 N 1962.6 0.528019 2.85763 0
M  V30 20847 H 1962.14 1.20713 2.27565 0
M  V30 20848 H 1962.1 -0.295994 3.13004 0
M  V30 20849 N 1965.87 -0.668464 1.42721 0
M  V30 20850 C 1967.15 -1.42481 1.3401 0
M  V30 20851 C 1967.53 -2.11091 -0.0194821 0
M  V30 20852 O 1966.88 -2.037 -1.03531 0
M  V30 20853 C 1967.09 -2.42205 2.51272 0
M  V30 20854 C 1968.44 -3.0666 2.93675 0
M  V30 20855 O 1969.46 -2.52532 2.51209 0
M  V30 20856 O 1968.32 -4.04761 3.67193 0
M  V30 20857 H 1965.41 -0.635831 0.528818 0
M  V30 20858 H 1967.96 -0.696654 1.54741 0
M  V30 20859 H 1966.73 -1.90349 3.41881 0
M  V30 20860 H 1966.35 -3.22492 2.32561 0
M  V30 20861 N 1967.35 -1.28999 -0.905381 0
M  V30 20862 C 1968.59 -1.17901 -1.66969 0
M  V30 20863 C 1968.96 0.26635 -1.90144 0
M  V30 20864 O 1970.16 0.500188 -2.64105 0
M  V30 20865 C 1968.43 -1.9641 -2.98593 0
M  V30 20866 S 1969.99 -2.01783 -3.89653 0
M  V30 20867 H 1966.8 -0.420505 -0.573321 0
M  V30 20868 H 1969.41 -1.6321 -1.07624 0
M  V30 20869 H 1968.11 -3.00573 -2.79435 0
M  V30 20870 H 1967.64 -1.51684 -3.62981 0
M  V30 20871 H 1969.66 -1.13039 -4.83153 0
M  V30 20872 N 1968.83 1.11497 -1.11383 0
M  V30 20873 C 1970.08 1.83494 -0.863592 0
M  V30 20874 C 1970.41 1.84395 0.609259 0
M  V30 20875 O 1969.68 1.2966 1.44978 0
M  V30 20876 C 1969.97 3.30701 -1.42509 0
M  V30 20877 C 1969.82 3.38197 -2.96552 0
M  V30 20878 C 1971.14 4.26756 -1.07553 0
M  V30 20879 H 1968.26 0.666209 -0.315173 0
M  V30 20880 H 1970.9 1.30745 -1.37861 0
M  V30 20881 H 1969.05 3.75752 -0.987053 0
M  V30 20882 H 1970.72 3.01709 -3.48955 0
M  V30 20883 H 1968.96 2.78436 -3.3265 0
M  V30 20884 H 1969.64 4.41804 -3.30927 0
M  V30 20885 H 1972.11 3.89882 -1.45367 0
M  V30 20886 H 1970.99 5.28143 -1.49519 0
M  V30 20887 H 1971.25 4.42098 0.0137773 0
M  V30 20888 N 1970.31 0.904053 1.29092 0
M  V30 20889 C 1971.27 0.389889 2.25859 0
M  V30 20890 C 1972.27 -0.47836 1.5352 0
M  V30 20891 O 1973.46 -0.282793 1.71889 0
M  V30 20892 C 1970.59 -0.442126 3.38021 0
M  V30 20893 H 1971.79 1.24458 2.72856 0
M  V30 20894 H 1969.34 0.68258 1.40608 0
M  V30 20895 H 1970.07 -1.31662 2.96371 0
M  V30 20896 H 1969.86 0.180067 3.91686 0
M  V30 20897 H 1971.35 -0.793021 4.10001 0
M  V30 20898 N 1971.79 -1.4279 0.666995 0
M  V30 20899 C 1972.72 -2.335 -0.00234362 0
M  V30 20900 C 1973.7 -1.50244 -0.797537 0
M  V30 20901 O 1974.88 -1.7887 -0.756257 0
M  V30 20902 C 1972.01 -3.33774 -0.959795 0
M  V30 20903 C 1970.97 -4.27124 -0.273749 0
M  V30 20904 C 1970.29 -5.17544 -1.3436 0
M  V30 20905 C 1971.59 -5.15462 0.842411 0
M  V30 20906 H 1973.29 -2.89719 0.755212 0
M  V30 20907 H 1970.83 -1.39307 0.364622 0
M  V30 20908 H 1972.78 -3.96139 -1.43707 0
M  V30 20909 H 1971.51 -2.75842 -1.74868 0
M  V30 20910 H 1970.17 -3.66142 0.18321 0
M  V30 20911 H 1969.82 -4.55943 -2.12427 0
M  V30 20912 H 1969.52 -5.80825 -0.889738 0
M  V30 20913 H 1971.04 -5.82784 -1.82196 0
M  V30 20914 H 1972.45 -5.71557 0.4467 0
M  V30 20915 H 1970.85 -5.87535 1.22158 0
M  V30 20916 H 1971.92 -4.54327 1.69454 0
M  V30 20917 N 1973.26 -0.409806 -1.52179 0
M  V30 20918 C 1974.21 0.432719 -2.23856 0
M  V30 20919 C 1975.2 1.01291 -1.25016 0
M  V30 20920 O 1976.39 0.935617 -1.5025 0
M  V30 20921 C 1973.52 1.54847 -3.06394 0
M  V30 20922 C 1972.6 0.979019 -4.12645 0
M  V30 20923 N 1973 0.136283 -5.05616 0
M  V30 20924 C 1971.29 1.24946 -4.28141 0
M  V30 20925 C 1971.99 -0.180604 -5.8142 0
M  V30 20926 N 1970.97 0.428712 -5.41907 0
M  V30 20927 H 1974.77 -0.217442 -2.93095 0
M  V30 20928 H 1972.29 -0.220268 -1.60899 0
M  V30 20929 H 1974.28 2.16466 -3.56298 0
M  V30 20930 H 1972.94 2.20125 -2.38695 0
M  V30 20931 H 1973.95 -0.228075 -5.17398 0
M  V30 20932 H 1970.63 1.90176 -3.71671 0
M  V30 20933 H 1972.02 -0.8647 -6.66313 0
M  V30 20934 N 1974.74 1.56975 -0.14025 0
M  V30 20935 C 1975.7 2.15234 0.78784 0
M  V30 20936 C 1976.7 1.09243 1.17994 0
M  V30 20937 O 1977.89 1.34916 1.10197 0
M  V30 20938 C 1975.03 2.70994 2.06821 0
M  V30 20939 H 1976.22 2.98579 0.281166 0
M  V30 20940 H 1973.77 1.55918 0.109151 0
M  V30 20941 H 1974.51 1.91297 2.6187 0
M  V30 20942 H 1974.29 3.48532 1.79633 0
M  V30 20943 H 1975.78 3.15904 2.7312 0
M  V30 20944 N 1976.22 -0.133539 1.57033 0
M  V30 20945 C 1977.44 -0.862393 1.8862 0
M  V30 20946 C 1977.87 -1.73328 0.730696 0
M  V30 20947 O 1977.23 -1.78466 -0.319297 0
M  V30 20948 C 1977.28 -1.68381 3.18873 0
M  V30 20949 O 1976.38 -2.78939 3.03755 0
M  V30 20950 H 1975.72 -0.239391 0.619345 0
M  V30 20951 H 1978.25 -0.120306 2.04246 0
M  V30 20952 H 1978.26 -2.07606 3.51232 0
M  V30 20953 H 1976.94 -1.0444 4.02573 0
M  V30 20954 H 1975.51 -2.43022 2.82833 0
M  V30 20955 N 1977.7 -1.52352 -0.403298 0
M  V30 20956 C 1978.92 -1.70849 -1.17582 0
M  V30 20957 C 1979.35 -0.419696 -1.83358 0
M  V30 20958 O 1978.71 0.623346 -1.70247 0
M  V30 20959 C 1978.75 -2.8492 -2.21027 0
M  V30 20960 O 1977.86 -2.50896 -3.273 0
M  V30 20961 H 1977.2 -0.568568 -0.342967 0
M  V30 20962 H 1979.73 -1.99082 -0.471975 0
M  V30 20963 H 1979.74 -3.10002 -2.6526 0
M  V30 20964 H 1978.41 -3.78423 -1.72536 0
M  V30 20965 H 1976.99 -2.36506 -2.88304 0
M  V30 20966 N 1979.18 0.660885 -1.43074 0
M  V30 20967 C 1980.42 1.41805 -1.43999 0
M  V30 20968 C 1980.74 1.949 -0.0625341 0
M  V30 20969 O 1980.01 1.7395 0.901019 0
M  V30 20970 H 1978.59 0.526263 -0.530147 0
M  V30 20971 H 1981.26 0.779967 -1.78613 0
M  V30 20972 H 1980.35 2.2642 -2.14803 0
M  V30 20973 N 1980.65 1.29477 0.898527 0
M  V30 20974 C 1981.9 1.17516 1.64913 0
M  V30 20975 C 1982.23 -0.273086 1.92573 0
M  V30 20976 O 1981.48 -1.21353 1.53531 0
M  V30 20977 C 1981.78 1.93505 3.00484 0
M  V30 20978 C 1981.45 3.43216 2.92427 0
M  V30 20979 C 1980.11 3.84044 2.89937 0
M  V30 20980 C 1982.46 4.38611 2.81548 0
M  V30 20981 C 1979.79 5.18582 2.74389 0
M  V30 20982 C 1982.14 5.73241 2.67539 0
M  V30 20983 C 1980.81 6.13326 2.63416 0
M  V30 20984 H 1980.08 0.430023 0.603458 0
M  V30 20985 H 1982.72 1.60427 1.04572 0
M  V30 20986 H 1981.03 1.43189 3.64698 0
M  V30 20987 H 1982.73 1.81654 3.57495 0
M  V30 20988 H 1979.32 3.10763 2.95168 0
M  V30 20989 H 1983.5 4.0802 2.82548 0
M  V30 20990 H 1978.76 5.48748 2.69602 0
M  V30 20991 H 1982.93 6.46808 2.58093 0
M  V30 20992 H 1980.56 7.17523 2.51126 0
M  V30 20993 N 1982.13 -1.10905 1.11972 0
M  V30 20994 C 1983.38 -1.83223 0.88323 0
M  V30 20995 C 1983.73 -1.83299 -0.584758 0
M  V30 20996 O 1983.03 -1.27913 -1.4265 0
M  V30 20997 C 1983.22 -3.29439 1.38581 0
M  V30 20998 C 1983.05 -3.43605 2.90113 0
M  V30 20999 C 1981.82 -3.56303 3.58296 0
M  V30 21000 C 1984.02 -3.37421 3.88139 0
M  V30 21001 N 1982 -3.58997 4.97991 0
M  V30 21002 C 1983.37 -3.46801 5.13935 0
M  V30 21003 C 1985.43 -3.20988 3.80619 0
M  V30 21004 C 1984.13 -3.41443 6.33095 0
M  V30 21005 C 1986.15 -3.16949 4.99297 0
M  V30 21006 C 1985.52 -3.26906 6.23948 0
M  V30 21007 H 1981.62 -0.685448 0.376411 0
M  V30 21008 H 1984.2 -1.32659 1.42512 0
M  V30 21009 H 1982.37 -3.78507 0.871038 0
M  V30 21010 H 1984.1 -3.89692 1.09189 0
M  V30 21011 H 1980.86 -3.59102 3.08776 0
M  V30 21012 H 1981.28 -3.63967 5.70839 0
M  V30 21013 H 1985.92 -3.12171 2.85147 0
M  V30 21014 H 1983.64 -3.49026 7.28839 0
M  V30 21015 H 1987.23 -3.05393 4.95204 0
M  V30 21016 H 1986.11 -3.23777 7.14239 0
M  V30 21017 N 1983.61 -0.910886 -1.2861 0
M  V30 21018 C 1984.84 -0.557684 -1.99761 0
M  V30 21019 C 1985.26 0.853148 -1.67639 0
M  V30 21020 O 1984.62 1.5697 -0.907192 0
M  V30 21021 C 1984.67 -0.770188 -3.52279 0
M  V30 21022 O 1983.77 0.172155 -4.12041 0
M  V30 21023 H 1983.11 -0.216573 -0.627688 0
M  V30 21024 H 1985.64 -1.22554 -1.63834 0
M  V30 21025 H 1985.65 -0.679176 -4.02307 0
M  V30 21026 H 1984.33 -1.79869 -3.74993 0
M  V30 21027 H 1982.9 0.0326535 -3.72886 0
M  V30 21028 N 1985.09 1.42434 -0.674558 0
M  V30 21029 C 1986.04 2.32595 0.0155851 0
M  V30 21030 C 1987.03 1.49809 0.790806 0
M  V30 21031 O 1988.24 1.65882 0.698798 0
M  V30 21032 H 1984.61 0.751622 0.0238347 0
M  V30 21033 H 1986.58 2.88501 -0.762224 0
M  V30 21034 C 1985.33 3.34379 0.953202 0
M  V30 21035 H 1984.65 3.9812 0.366105 0
M  V30 21036 H 1986.09 4.00052 1.40479 0
M  V30 21037 C 1984.55 2.66623 2.05946 0
M  V30 21038 O 1985.08 2.49795 3.14588 0
M  V30 21039 N 1983.29 2.25652 1.83111 0
M  V30 21040 H 1982.84 2.39538 0.947593 0
M  V30 21041 H 1982.79 1.80649 2.57319 0
M  V30 21042 N 1986.57 0.417871 1.51959 0
M  V30 21043 C 1987.82 -0.156451 2.01092 0
M  V30 21044 C 1988.13 -1.45475 1.30753 0
M  V30 21045 O 1989.33 -2.11085 1.70749 0
M  V30 21046 C 1987.79 -0.329366 3.5839 0
M  V30 21047 C 1987.4 0.957354 4.37651 0
M  V30 21048 C 1989.14 -0.858507 4.15728 0
M  V30 21049 C 1987.05 0.751148 5.8661 0
M  V30 21050 H 1985.98 -0.0622427 0.751427 0
M  V30 21051 H 1988.63 0.544656 1.75231 0
M  V30 21052 H 1987.01 -1.09301 3.80617 0
M  V30 21053 H 1988.19 1.72783 4.2718 0
M  V30 21054 H 1986.5 1.41356 3.91673 0
M  V30 21055 H 1989.1 -1.02896 5.24706 0
M  V30 21056 H 1989.44 -1.83563 3.73645 0
M  V30 21057 H 1989.97 -0.153688 3.97503 0
M  V30 21058 H 1986.71 1.70008 6.3307 0
M  V30 21059 H 1986.23 0.0201287 5.99797 0
M  V30 21060 H 1987.91 0.396724 6.45783 0
M  V30 21061 N 1988.04 -1.56898 0.148573 0
M  V30 21062 C 1988.99 -2.13418 -0.802306 0
M  V30 21063 C 1989.98 -1.06241 -1.20837 0
M  V30 21064 O 1991.17 -1.32415 -1.17453 0
M  V30 21065 C 1988.3 -2.76057 -2.04076 0
M  V30 21066 C 1987.39 -3.90359 -1.65772 0
M  V30 21067 N 1987.78 -4.96156 -0.982988 0
M  V30 21068 C 1986.07 -4.01096 -1.95033 0
M  V30 21069 C 1986.78 -5.76203 -0.797825 0
M  V30 21070 N 1985.75 -5.27024 -1.33218 0
M  V30 21071 H 1989.55 -2.92586 -0.277579 0
M  V30 21072 H 1987.07 -1.62314 -0.0529132 0
M  V30 21073 H 1989.06 -3.14911 -2.73197 0
M  V30 21074 H 1987.72 -1.98362 -2.57065 0
M  V30 21075 H 1988.74 -5.13886 -0.643572 0
M  V30 21076 H 1985.41 -3.34479 -2.4986 0
M  V30 21077 H 1986.8 -6.71374 -0.265921 0
M  V30 21078 N 1989.52 0.125209 -1.57102 0
M  V30 21079 C 1990.76 0.840048 -1.8634 0
M  V30 21080 C 1991.13 1.77343 -0.735756 0
M  V30 21081 O 1992.33 2.52937 -0.909743 0
M  V30 21082 C 1990.6 1.57555 -3.20798 0
M  V30 21083 S 1992.16 2.33282 -3.71652 0
M  V30 21084 H 1988.98 0.280495 -0.653333 0
M  V30 21085 H 1991.58 0.0987469 -1.9525 0
M  V30 21086 H 1990.28 0.881717 -4.00817 0
M  V30 21087 H 1989.81 2.35735 -3.14949 0
M  V30 21088 H 1991.83 3.58888 -3.42657 0
M  V30 21089 N 1991 1.52564 0.395213 0
M  V30 21090 C 1992.23 1.7147 1.16674 0
M  V30 21091 C 1992.65 0.429414 1.83133 0
M  V30 21092 O 1992.01 -0.614309 1.70575 0
M  V30 21093 C 1992.06 2.86088 2.19513 0
M  V30 21094 O 1991.16 2.52628 3.25964 0
M  V30 21095 H 1990.5 0.570379 0.339947 0
M  V30 21096 H 1993.03 1.99329 0.461411 0
M  V30 21097 H 1993.04 3.11404 2.63612 0
M  V30 21098 H 1991.72 3.79333 1.70527 0
M  V30 21099 H 1990.29 2.38032 2.87046 0
M  V30 21100 N 1992.48 -0.653289 1.43422 0
M  V30 21101 C 1993.7 -1.4459 1.4869 0
M  V30 21102 C 1994.13 -1.87801 0.10599 0
M  V30 21103 O 1993.49 -1.5737 -0.90025 0
M  V30 21104 C 1993.53 -2.65713 2.43781 0
M  V30 21105 O 1992.64 -3.64767 1.92402 0
M  V30 21106 H 1991.98 -0.433532 0.502938 0
M  V30 21107 H 1994.51 -0.799423 1.88336 0
M  V30 21108 H 1994.52 -3.13528 2.61082 0
M  V30 21109 H 1993.19 -2.33604 3.44096 0
M  V30 21110 H 1991.77 -3.2391 1.84761 0
M  V30 21111 N 1993.96 -1.29952 -0.891648 0
M  V30 21112 C 1995.19 -1.21121 -1.67371 0
M  V30 21113 C 1995.59 0.229437 -1.87804 0
M  V30 21114 O 1994.94 1.16445 -1.42079 0
M  V30 21115 C 1995 -1.86197 -3.07524 0
M  V30 21116 C 1994.66 -3.35513 -3.10291 0
M  V30 21117 C 1995.66 -4.31612 -2.8984 0
M  V30 21118 C 1993.35 -3.76848 -3.321 0
M  V30 21119 C 1995.34 -5.67021 -2.91146 0
M  V30 21120 C 1993.03 -5.12377 -3.33036 0
M  V30 21121 C 1994.02 -6.07274 -3.12582 0
M  V30 21122 O 1993.71 -7.40327 -3.13322 0
M  V30 21123 H 1993.44 -0.420546 -0.529261 0
M  V30 21124 H 1996 -1.71994 -1.12283 0
M  V30 21125 H 1994.23 -1.29846 -3.64248 0
M  V30 21126 H 1995.92 -1.71578 -3.67853 0
M  V30 21127 H 1996.68 -4.01009 -2.72795 0
M  V30 21128 H 1992.56 -3.03433 -3.47058 0
M  V30 21129 H 1996.11 -6.41066 -2.751 0
M  V30 21130 H 1992 -5.42623 -3.49615 0
M  V30 21131 H 1992.77 -7.49233 -3.29533 0
M  V30 21132 N 1995.44 1.1031 -1.12559 0
M  V30 21133 C 1996.38 2.16689 -0.794638 0
M  V30 21134 C 1997.35 1.64369 0.239196 0
M  V30 21135 O 1998.54 1.90462 0.113478 0
M  V30 21136 C 1995.68 3.44143 -0.256828 0
M  V30 21137 C 1994.79 4.10409 -1.34863 0
M  V30 21138 C 1993.93 5.25588 -0.77012 0
M  V30 21139 C 1992.96 5.8376 -1.84096 0
M  V30 21140 N 1992.1 6.90314 -1.28107 0
M  V30 21141 H 1996.94 2.44342 -1.7059 0
M  V30 21142 H 1994.48 1.19936 -0.851695 0
M  V30 21143 H 1996.44 4.17136 0.0730472 0
M  V30 21144 H 1995.07 3.16837 0.61759 0
M  V30 21145 H 1994.12 3.35372 -1.79526 0
M  V30 21146 H 1995.43 4.49686 -2.15833 0
M  V30 21147 H 1994.58 6.05439 -0.390991 0
M  V30 21148 H 1993.32 4.87649 0.0707618 0
M  V30 21149 H 1992.33 5.02577 -2.22926 0
M  V30 21150 H 1993.55 6.23763 -2.68508 0
M  V30 21151 H 1991.5 6.54371 -0.462033 0
M  V30 21152 H 1991.42 7.28309 -2.02735 0
M  V30 21153 H 1992.68 7.73942 -0.929211 0
M  V30 21154 N 1996.91 0.917694 1.28125 0
M  V30 21155 C 1998.16 0.551804 1.94421 0
M  V30 21156 C 1998.48 -0.908163 1.72561 0
M  V30 21157 O 1997.75 -1.64255 1.06758 0
M  V30 21158 H 1996.33 0.201081 0.719427 0
M  V30 21159 H 1998.99 1.16791 1.56032 0
M  V30 21160 H 1998.09 0.749587 3.02965 0
M  V30 21161 N 1998.39 -1.42074 0.682102 0
M  V30 21162 C 1999.62 -2.05471 0.215716 0
M  V30 21163 C 2000.03 -1.51372 -1.13504 0
M  V30 21164 O 1999.37 -0.651251 -1.71768 0
M  V30 21165 C 1999.43 -3.59408 0.0812503 0
M  V30 21166 C 1999.1 -4.36236 1.36189 0
M  V30 21167 C 2000.1 -4.6641 2.29691 0
M  V30 21168 C 1997.78 -4.75747 1.61152 0
M  V30 21169 C 1999.77 -5.35039 3.46428 0
M  V30 21170 C 1997.46 -5.44115 2.78176 0
M  V30 21171 C 1998.46 -5.73687 3.70638 0
M  V30 21172 O 1998.15 -6.40651 4.85615 0
M  V30 21173 H 1997.88 -0.668449 0.100755 0
M  V30 21174 H 2000.43 -1.83072 0.931332 0
M  V30 21175 H 1998.66 -3.80494 -0.690014 0
M  V30 21176 H 2000.35 -4.04421 -0.346206 0
M  V30 21177 H 2001.12 -4.36378 2.11658 0
M  V30 21178 H 1997 -4.52119 0.900512 0
M  V30 21179 H 2000.54 -5.58037 4.18617 0
M  V30 21180 H 1996.44 -5.73565 2.96132 0
M  V30 21181 H 1997.21 -6.59144 4.85254 0
M  V30 21182 N 1999.87 -0.425924 -1.51735 0
M  V30 21183 C 2001.12 0.145784 -2.01172 0
M  V30 21184 C 2001.43 1.4478 -1.31523 0
M  V30 21185 O 2002.64 2.10177 -1.71866 0
M  V30 21186 C 2001.09 0.310355 -3.58559 0
M  V30 21187 C 2000.7 -0.98055 -4.37138 0
M  V30 21188 C 2002.45 0.836447 -4.16178 0
M  V30 21189 C 2000.35 -0.782247 -5.86204 0
M  V30 21190 H 1999.28 0.0582569 -0.751746 0
M  V30 21191 H 2001.93 -0.553941 -1.74939 0
M  V30 21192 H 2000.32 1.07281 -3.81191 0
M  V30 21193 H 2001.49 -1.75046 -4.26258 0
M  V30 21194 H 1999.8 -1.43431 -3.90917 0
M  V30 21195 H 2002.4 1.00112 -5.25244 0
M  V30 21196 H 2002.74 1.81579 -3.74613 0
M  V30 21197 H 2003.28 0.132605 -3.97579 0
M  V30 21198 H 2000.02 -1.73363 -6.32159 0
M  V30 21199 H 1999.54 -0.0519371 -5.99778 0
M  V30 21200 H 2001.22 -0.430966 -6.45563 0
M  V30 21201 N 2001.35 1.56817 -0.156891 0
M  V30 21202 C 2002.59 1.98331 0.494366 0
M  V30 21203 C 2002.95 1.04015 1.61384 0
M  V30 21204 O 2004.15 1.34612 2.32665 0
M  V30 21205 C 2002.42 3.43748 0.978364 0
M  V30 21206 S 2003.98 4.07289 1.63283 0
M  V30 21207 H 2000.8 0.692874 0.159519 0
M  V30 21208 H 2003.4 1.93883 -0.250945 0
M  V30 21209 H 2002.11 4.10115 0.15298 0
M  V30 21210 H 2001.64 3.51932 1.75806 0
M  V30 21211 H 2003.65 4.01152 2.92047 0
M  V30 21212 N 2002.83 -0.116876 1.57166 0
M  V30 21213 C 2003.77 -1.14325 2.00496 0
M  V30 21214 C 2004.74 -1.41031 0.877465 0
M  V30 21215 O 2005.93 -1.52861 1.14185 0
M  V30 21216 C 2003.07 -2.46409 2.41612 0
M  V30 21217 C 2002.18 -2.26621 3.67787 0
M  V30 21218 C 2001.32 -3.51951 3.97875 0
M  V30 21219 C 2000.35 -3.27329 5.17225 0
M  V30 21220 N 1999.49 -4.44867 5.43174 0
M  V30 21221 H 2004.33 -0.766757 2.87967 0
M  V30 21222 H 2001.87 -0.367106 1.42446 0
M  V30 21223 H 2003.83 -3.23465 2.63488 0
M  V30 21224 H 2002.46 -2.81947 1.5718 0
M  V30 21225 H 2001.51 -1.40472 3.53513 0
M  V30 21226 H 2002.82 -2.04405 4.54994 0
M  V30 21227 H 2001.97 -4.37424 4.20411 0
M  V30 21228 H 2000.71 -3.772 3.09147 0
M  V30 21229 H 1999.72 -2.40247 4.94532 0
M  V30 21230 H 2000.94 -3.03448 6.07533 0
M  V30 21231 H 1998.89 -4.70233 4.57403 0
M  V30 21232 H 1998.81 -4.25764 6.24709 0
M  V30 21233 H 2000.07 -5.31468 5.7023 0
M  V30 21234 N 2004.3 -1.52772 -0.387116 0
M  V30 21235 C 2005.72 -1.42064 -0.727316 0
M  V30 21236 C 2005.92 -0.542559 -1.94058 0
M  V30 21237 O 2004.98 -0.0167267 -2.52494 0
M  V30 21238 C 2006.29 -2.84942 -0.960651 0
M  V30 21239 C 2007.84 -2.94432 -1.06201 0
M  V30 21240 C 2008.31 -4.38326 -1.32796 0
M  V30 21241 N 2009.8 -4.41659 -1.39613 0
M  V30 21242 C 2010.54 -5.50081 -1.6186 0
M  V30 21243 N 2010.03 -6.68585 -1.81566 0
M  V30 21244 N 2011.83 -5.37627 -1.64055 0
M  V30 21245 H 2003.98 -2.08382 0.411202 0
M  V30 21246 H 2006.24 -0.940144 0.121792 0
M  V30 21247 H 2005.95 -3.51416 -0.141246 0
M  V30 21248 H 2005.82 -3.27309 -1.87479 0
M  V30 21249 H 2008.21 -2.28125 -1.87198 0
M  V30 21250 H 2008.29 -2.55491 -0.125731 0
M  V30 21251 H 2007.93 -5.05199 -0.523081 0
M  V30 21252 H 2007.86 -4.74821 -2.27711 0
M  V30 21253 H 2010.35 -3.56245 -1.26086 0
M  V30 21254 H 2010.67 -7.4699 -1.98053 0
M  V30 21255 H 2009.01 -6.7161 -1.78786 0
M  V30 21256 H 2012.2 -4.44016 -1.48213 0
M  V30 21257 H 2012.38 -6.22193 -1.81053 0
M  V30 21258 N 2005.78 0.645673 -1.43767 0
M  V30 21259 C 2007.19 1.22702 -1.40717 0
M  V30 21260 C 2007.54 1.95862 -0.115066 0
M  V30 21261 O 2006.67 2.01652 0.785197 0
M  V30 21262 C 2007.26 2.23174 -2.54909 0
M  V30 21263 C 2005.82 2.76769 -2.551 0
M  V30 21264 C 2004.97 1.5153 -2.32237 0
M  V30 21265 H 2007.92 0.437227 -1.52558 0
M  V30 21266 H 2007.94 3.05497 -2.2683 0
M  V30 21267 H 2007.45 1.69898 -3.48936 0
M  V30 21268 H 2005.55 3.34087 -1.64974 0
M  V30 21269 H 2005.67 3.23799 -3.53116 0
M  V30 21270 H 2004.03 1.79146 -1.81049 0
M  V30 21271 H 2004.81 1.00177 -3.28359 0
M  V30 21272 N 2007.26 1.30423 0.884744 0
M  V30 21273 C 2008.21 1.16824 1.9905 0
M  V30 21274 C 2009.18 0.0576868 1.66 0
M  V30 21275 O 2010.36 0.227913 1.89434 0
M  V30 21276 C 2007.5 0.866281 3.3405 0
M  V30 21277 C 2006.61 2.05874 3.79789 0
M  V30 21278 C 2005.75 1.69484 5.03437 0
M  V30 21279 C 2004.79 2.85224 5.41585 0
M  V30 21280 N 2003.93 2.49129 6.56414 0
M  V30 21281 H 2008.77 2.1142 2.10013 0
M  V30 21282 H 2006.3 1.05188 1.02829 0
M  V30 21283 H 2008.26 0.671829 4.11755 0
M  V30 21284 H 2006.89 -0.0428113 3.22772 0
M  V30 21285 H 2005.94 2.36443 2.97992 0
M  V30 21286 H 2007.25 2.92549 4.04001 0
M  V30 21287 H 2006.41 1.46416 5.88768 0
M  V30 21288 H 2005.15 0.799794 4.81097 0
M  V30 21289 H 2004.15 3.08958 4.5478 0
M  V30 21290 H 2005.38 3.75416 5.65897 0
M  V30 21291 H 2003.32 1.6213 6.35649 0
M  V30 21292 H 2003.24 3.29336 6.80495 0
M  V30 21293 H 2004.51 2.29417 7.44975 0
M  V30 21294 N 2008.74 -1.09711 1.13142 0
M  V30 21295 C 2009.99 -1.81198 0.886021 0
M  V30 21296 C 2010.3 -1.86501 -0.589624 0
M  V30 21297 O 2011.51 -2.54267 -0.951866 0
M  V30 21298 C 2009.96 -3.25498 1.53554 0
M  V30 21299 C 2009.57 -3.2847 3.0465 0
M  V30 21300 C 2011.31 -4.01761 1.37072 0
M  V30 21301 C 2009.22 -4.67276 3.62501 0
M  V30 21302 H 2008.15 -0.679005 0.327824 0
M  V30 21303 H 2010.8 -1.23325 1.35879 0
M  V30 21304 H 2009.18 -3.83414 0.990434 0
M  V30 21305 H 2010.36 -2.80336 3.65716 0
M  V30 21306 H 2008.67 -2.65697 3.20615 0
M  V30 21307 H 2011.27 -5.04306 1.77707 0
M  V30 21308 H 2011.61 -4.15105 0.315226 0
M  V30 21309 H 2012.15 -3.50279 1.88545 0
M  V30 21310 H 2008.88 -4.59133 4.67843 0
M  V30 21311 H 2008.4 -5.15746 3.06212 0
M  V30 21312 H 2010.08 -5.36249 3.62002 0
M  V30 21313 N 2010.22 -0.924476 -1.27637 0
M  V30 21314 C 2011.47 -0.559056 -1.93797 0
M  V30 21315 C 2011.78 0.903501 -1.73483 0
M  V30 21316 O 2012.98 1.37756 -2.33956 0
M  V30 21317 C 2011.44 -0.949035 -3.47162 0
M  V30 21318 C 2011.05 -2.43205 -3.76238 0
M  V30 21319 C 2012.79 -0.654714 -4.19421 0
M  V30 21320 C 2010.7 -2.7616 -5.22962 0
M  V30 21321 H 2009.63 -0.205363 -0.725494 0
M  V30 21322 H 2012.28 -1.12485 -1.4498 0
M  V30 21323 H 2010.66 -0.311922 -3.9477 0
M  V30 21324 H 2011.84 -3.1168 -3.39399 0
M  V30 21325 H 2010.15 -2.69794 -3.17176 0
M  V30 21326 H 2012.75 -0.877465 -5.27451 0
M  V30 21327 H 2013.09 0.407944 -4.14296 0
M  V30 21328 H 2013.62 -1.25078 -3.77625 0
M  V30 21329 H 2010.36 -3.81322 -5.33173 0
M  V30 21330 H 2009.88 -2.12332 -5.60959 0
M  V30 21331 H 2011.56 -2.63732 -5.90808 0
M  V30 21332 N 2011.69 1.41711 -0.689627 0
M  V30 21333 C 2012.97 1.95052 -0.146379 0
M  V30 21334 C 2013.35 1.62932 1.34225 0
M  V30 21335 O 2012.7 0.933198 2.08575 0
M  V30 21336 C 2012.91 3.46324 -0.431327 0
M  V30 21337 C 2014.26 4.23106 -0.355847 0
M  V30 21338 O 2015.28 3.54316 -0.365905 0
M  V30 21339 O 2014.14 5.45615 -0.310824 0
M  V30 21340 H 2011.23 0.82692 -0.0115 0
M  V30 21341 H 2013.78 1.5146 -0.765378 0
M  V30 21342 H 2012.55 3.62963 -1.46197 0
M  V30 21343 H 2012.18 3.96997 0.218942 0
M  V30 21344 N 2013.17 0.433965 1.51507 0
M  V30 21345 C 2014.14 -0.367505 2.26234 0
M  V30 21346 C 2015.14 -0.952583 1.29547 0
M  V30 21347 O 2016.33 -0.827563 1.53287 0
M  V30 21348 C 2013.46 -1.51964 3.05155 0
M  V30 21349 H 2014.65 0.28735 2.9852 0
M  V30 21350 H 2012.2 0.187052 1.55177 0
M  V30 21351 H 2012.94 -2.21064 2.37278 0
M  V30 21352 H 2012.72 -1.10632 3.76169 0
M  V30 21353 H 2014.21 -2.08597 3.61769 0
M  V30 21354 N 2014.65 -1.56732 0.165206 0
M  V30 21355 C 2015.6 -2.17666 -0.767471 0
M  V30 21356 C 2016.57 -1.11485 -1.23127 0
M  V30 21357 O 2017.75 -1.39609 -1.30054 0
M  V30 21358 C 2014.89 -2.81673 -1.99385 0
M  V30 21359 C 2014.01 -4.02298 -1.57418 0
M  V30 21360 C 2013.14 -4.54249 -2.75375 0
M  V30 21361 C 2012.18 -5.67298 -2.29869 0
M  V30 21362 N 2011.32 -6.13786 -3.40898 0
M  V30 21363 H 2016.16 -2.97023 -0.24106 0
M  V30 21364 H 2013.69 -1.46708 -0.10726 0
M  V30 21365 H 2015.65 -3.16937 -2.71306 0
M  V30 21366 H 2014.28 -2.0493 -2.49407 0
M  V30 21367 H 2013.33 -3.72894 -0.75194 0
M  V30 21368 H 2014.65 -4.84148 -1.2001 0
M  V30 21369 H 2013.8 -4.91663 -3.55461 0
M  V30 21370 H 2012.54 -3.71444 -3.16039 0
M  V30 21371 H 2011.54 -5.29442 -1.48228 0
M  V30 21372 H 2012.77 -6.519 -1.9027 0
M  V30 21373 H 2010.71 -5.33911 -3.81149 0
M  V30 21374 H 2010.63 -6.90609 -3.07563 0
M  V30 21375 H 2011.9 -6.55849 -4.21287 0
M  V30 21376 N 2016.13 0.10854 -1.57226 0
M  V30 21377 C 2017.54 0.664549 -1.74472 0
M  V30 21378 C 2017.89 1.79792 -0.785438 0
M  V30 21379 O 2017.02 2.16364 0.0392281 0
M  V30 21380 C 2017.61 1.21227 -3.16369 0
M  V30 21381 C 2016.17 1.71447 -3.35086 0
M  V30 21382 C 2015.32 0.618471 -2.70315 0
M  V30 21383 H 2018.27 -0.11745 -1.58265 0
M  V30 21384 H 2018.29 2.08181 -3.18498 0
M  V30 21385 H 2017.8 0.387164 -3.86164 0
M  V30 21386 H 2015.9 2.56402 -2.7035 0
M  V30 21387 H 2016.01 1.81672 -4.4332 0
M  V30 21388 H 2014.38 1.05465 -2.31839 0
M  V30 21389 H 2015.16 -0.195832 -3.42741 0
M  V30 21390 N 2017.61 1.52975 0.379009 0
M  V30 21391 C 2018.83 1.72396 1.144 0
M  V30 21392 C 2019.25 0.446816 1.83437 0
M  V30 21393 O 2018.61 -0.579403 1.73058 0
M  V30 21394 C 2018.66 2.88032 2.18449 0
M  V30 21395 O 2018.38 4.10803 1.52225 0
M  V30 21396 C 2019.88 3.19215 3.07599 0
M  V30 21397 H 2017.1 0.576943 0.342605 0
M  V30 21398 H 2019.64 1.99666 0.442025 0
M  V30 21399 H 2017.8 2.63195 2.84266 0
M  V30 21400 H 2018.21 4.75461 2.21443 0
M  V30 21401 H 2019.69 4.03565 3.76615 0
M  V30 21402 H 2020.16 2.34014 3.71664 0
M  V30 21403 H 2020.77 3.45928 2.47415 0
M  V30 21404 N 2019.08 -0.63804 1.44107 0
M  V30 21405 C 2020.03 -1.74386 1.46879 0
M  V30 21406 C 2021.02 -1.57366 0.335387 0
M  V30 21407 O 2022.21 -1.6722 0.580223 0
M  V30 21408 C 2019.34 -3.13044 1.40919 0
M  V30 21409 C 2018.43 -3.35559 2.59347 0
M  V30 21410 N 2018.82 -3.28473 3.84628 0
M  V30 21411 C 2017.11 -3.66332 2.54395 0
M  V30 21412 C 2017.82 -3.51487 4.635 0
M  V30 21413 N 2016.79 -3.74029 3.94465 0
M  V30 21414 H 2020.59 -1.67355 2.41598 0
M  V30 21415 H 2018.11 -0.840261 1.38973 0
M  V30 21416 H 2020.1 -3.92337 1.40988 0
M  V30 21417 H 2018.76 -3.21246 0.472328 0
M  V30 21418 H 2019.78 -3.07545 4.16697 0
M  V30 21419 H 2016.45 -3.81557 1.69471 0
M  V30 21420 H 2017.84 -3.51659 5.72526 0
M  V30 21421 N 2020.56 -1.3089 -0.877815 0
M  V30 21422 C 2021.47 -1.19819 -2.01694 0
M  V30 21423 C 2022.49 -0.116563 -1.73609 0
M  V30 21424 O 2023.66 -0.332871 -1.9863 0
M  V30 21425 C 2020.73 -0.898133 -3.34865 0
M  V30 21426 C 2019.79 -2.06586 -3.76325 0
M  V30 21427 C 2019.02 -1.78002 -5.03141 0
M  V30 21428 O 2019.25 -0.711373 -5.65947 0
M  V30 21429 O 2018.18 -2.63452 -5.41181 0
M  V30 21430 H 2022.01 -2.15529 -2.13965 0
M  V30 21431 H 2019.59 -1.10553 -1.00491 0
M  V30 21432 H 2021.47 -0.746305 -4.14739 0
M  V30 21433 H 2020.15 0.0290018 -3.23687 0
M  V30 21434 H 2019.06 -2.27305 -2.97125 0
M  V30 21435 H 2020.39 -2.97497 -3.92118 0
M  V30 21436 N 2022.04 1.0911 -1.13723 0
M  V30 21437 C 2022.97 2.17859 -0.840227 0
M  V30 21438 C 2023.95 1.68899 0.201778 0
M  V30 21439 O 2025.14 1.94107 0.0600046 0
M  V30 21440 C 2022.27 3.45922 -0.309024 0
M  V30 21441 C 2021.22 4.08234 -1.28565 0
M  V30 21442 C 2020.55 5.31162 -0.614064 0
M  V30 21443 C 2021.85 4.50354 -2.64534 0
M  V30 21444 H 2023.54 2.4296 -1.74959 0
M  V30 21445 H 2021.09 1.16771 -0.842653 0
M  V30 21446 H 2023.04 4.21306 -0.088895 0
M  V30 21447 H 2021.76 3.20353 0.635735 0
M  V30 21448 H 2020.42 3.34873 -1.49183 0
M  V30 21449 H 2020.07 5.01875 0.336272 0
M  V30 21450 H 2019.77 5.73807 -1.26566 0
M  V30 21451 H 2021.29 6.09267 -0.403293 0
M  V30 21452 H 2022.71 5.16948 -2.47866 0
M  V30 21453 H 2021.11 5.03894 -3.259 0
M  V30 21454 H 2022.18 3.62594 -3.21952 0
M  V30 21455 N 2023.52 0.931232 1.27145 0
M  V30 21456 C 2024.45 0.450505 2.29113 0
M  V30 21457 C 2025.43 -0.491043 1.62858 0
M  V30 21458 O 2026.61 -0.395036 1.9014 0
M  V30 21459 C 2023.74 -0.29432 3.46051 0
M  V30 21460 C 2022.7 0.559727 4.24324 0
M  V30 21461 C 2022.02 -0.314473 5.33774 0
M  V30 21462 C 2023.32 1.826 4.89341 0
M  V30 21463 H 2025.02 1.3027 2.69574 0
M  V30 21464 H 2022.56 0.627845 1.29592 0
M  V30 21465 H 2024.52 -0.641592 4.16487 0
M  V30 21466 H 2023.24 -1.18057 3.04516 0
M  V30 21467 H 2021.9 0.889756 3.55639 0
M  V30 21468 H 2021.55 -1.19978 4.88482 0
M  V30 21469 H 2021.25 0.253489 5.87053 0
M  V30 21470 H 2022.77 -0.657238 6.07053 0
M  V30 21471 H 2024.19 1.54659 5.52045 0
M  V30 21472 H 2022.58 2.33775 5.52693 0
M  V30 21473 H 2023.65 2.5434 4.12842 0
M  V30 21474 N 2025 -1.41343 0.697132 0
M  V30 21475 C 2026.23 -2.05528 0.237841 0
M  V30 21476 C 2026.64 -1.52468 -1.11351 0
M  V30 21477 O 2026 -0.673549 -1.69616 0
M  V30 21478 C 2026.05 -3.61007 0.188651 0
M  V30 21479 O 2025.77 -4.12106 1.48662 0
M  V30 21480 C 2027.27 -4.42341 -0.291439 0
M  V30 21481 H 2024.49 -0.661864 0.110352 0
M  V30 21482 H 2027.03 -1.81086 0.950155 0
M  V30 21483 H 2025.19 -3.84483 -0.474496 0
M  V30 21484 H 2025.6 -5.06162 1.37477 0
M  V30 21485 H 2027.08 -5.51316 -0.274731 0
M  V30 21486 H 2027.55 -4.1856 -1.33057 0
M  V30 21487 H 2028.16 -4.23933 0.340765 0
M  V30 21488 N 2026.48 -0.441993 -1.51275 0
M  V30 21489 C 2027.7 0.121451 -2.06543 0
M  V30 21490 C 2028.12 1.36058 -1.30896 0
M  V30 21491 O 2027.48 1.78713 -0.369834 0
M  V30 21492 C 2027.53 0.438983 -3.58825 0
M  V30 21493 O 2027.25 -0.750969 -4.31616 0
M  V30 21494 C 2028.75 1.05259 -4.30622 0
M  V30 21495 H 2025.97 0.00586064 -0.670974 0
M  V30 21496 H 2028.51 -0.622415 -1.94798 0
M  V30 21497 H 2026.67 1.13275 -3.70469 0
M  V30 21498 H 2027.08 -0.478024 -5.22317 0
M  V30 21499 H 2028.56 1.22474 -5.38242 0
M  V30 21500 H 2029.03 2.03489 -3.89216 0
M  V30 21501 H 2029.64 0.398068 -4.23433 0
M  V30 21502 N 2027.95 1.56642 -0.173515 0
M  V30 21503 C 2028.9 2.1807 0.755917 0
M  V30 21504 C 2029.87 1.12136 1.22534 0
M  V30 21505 O 2031.06 1.40296 1.29312 0
M  V30 21506 C 2028.2 2.82726 1.97888 0
M  V30 21507 C 2027.31 4.03127 1.55282 0
M  V30 21508 C 2026.44 4.55703 2.72962 0
M  V30 21509 C 2025.48 5.68509 2.26857 0
M  V30 21510 N 2024.62 6.15585 3.37638 0
M  V30 21511 H 2029.46 2.97147 0.225305 0
M  V30 21512 H 2027 1.46763 0.0994783 0
M  V30 21513 H 2028.95 3.18371 2.69621 0
M  V30 21514 H 2027.58 2.0625 2.48316 0
M  V30 21515 H 2026.64 3.73288 0.732154 0
M  V30 21516 H 2027.95 4.84777 1.17441 0
M  V30 21517 H 2027.1 4.93541 3.52849 0
M  V30 21518 H 2025.84 3.73115 3.14065 0
M  V30 21519 H 2024.85 5.3022 1.45418 0
M  V30 21520 H 2026.07 6.529 1.8681 0
M  V30 21521 H 2024.02 5.35925 3.78312 0
M  V30 21522 H 2023.93 6.9223 3.03897 0
M  V30 21523 H 2025.2 6.58074 4.17803 0
M  V30 21524 N 2029.43 -0.1002 1.57281 0
M  V30 21525 C 2030.39 -1.10612 2.00743 0
M  V30 21526 C 2031.39 -1.33241 0.900199 0
M  V30 21527 O 2032.58 -1.2944 1.1658 0
M  V30 21528 C 2029.72 -2.45642 2.36375 0
M  V30 21529 H 2030.91 -0.732144 2.90826 0
M  V30 21530 H 2028.46 -0.345091 1.52443 0
M  V30 21531 H 2029.2 -2.87925 1.4923 0
M  V30 21532 H 2028.98 -2.30567 3.17146 0
M  V30 21533 H 2030.47 -3.18002 2.70674 0
M  V30 21534 N 2030.91 -1.53174 -0.370891 0
M  V30 21535 C 2032.19 -1.59697 -1.12943 0
M  V30 21536 C 2032.57 -0.401233 -2.07252 0
M  V30 21537 O 2031.91 0.608973 -2.20236 0
M  V30 21538 C 2032.12 -2.94469 -1.87321 0
M  V30 21539 C 2033.47 -3.48856 -2.42043 0
M  V30 21540 O 2034.5 -2.96463 -1.97455 0
M  V30 21541 O 2033.36 -4.40436 -3.2354 0
M  V30 21542 H 2030.45 -0.644835 -0.5178 0
M  V30 21543 H 2033 -1.65514 -0.374583 0
M  V30 21544 H 2031.77 -3.72938 -1.18462 0
M  V30 21545 H 2031.39 -2.92119 -2.69727 0
M  V30 21546 N 2032.39 0.630389 -1.44443 0
M  V30 21547 C 2033.62 1.41712 -1.50749 0
M  V30 21548 C 2034.03 1.88334 -0.132593 0
M  V30 21549 O 2033.39 1.60878 0.861649 0
M  V30 21550 C 2033.44 2.63694 -2.47281 0
M  V30 21551 O 2033.16 2.19016 -3.79425 0
M  V30 21552 C 2034.66 3.56813 -2.63058 0
M  V30 21553 H 2031.88 0.43458 -0.511255 0
M  V30 21554 H 2034.42 0.770878 -1.89414 0
M  V30 21555 H 2032.58 3.24409 -2.11749 0
M  V30 21556 H 2032.99 2.98104 -4.31549 0
M  V30 21557 H 2034.47 4.39008 -3.34628 0
M  V30 21558 H 2034.94 4.05669 -1.68313 0
M  V30 21559 H 2035.55 3.01966 -2.99494 0
M  V30 21560 N 2033.87 1.31354 0.870861 0
M  V30 21561 C 2035.28 1.09992 1.15646 0
M  V30 21562 C 2035.48 -0.130192 2.01079 0
M  V30 21563 O 2034.54 -0.819776 2.38822 0
M  V30 21564 C 2035.85 2.37098 1.84946 0
M  V30 21565 C 2037.4 2.42699 1.97651 0
M  V30 21566 C 2037.87 3.69684 2.70366 0
M  V30 21567 N 2039.36 3.70573 2.77902 0
M  V30 21568 C 2040.1 4.65525 3.34775 0
M  V30 21569 N 2039.6 5.70831 3.92586 0
M  V30 21570 N 2041.39 4.53046 3.32724 0
M  V30 21571 H 2033.54 2.10249 0.301547 0
M  V30 21572 H 2035.8 0.927478 0.196185 0
M  V30 21573 H 2035.51 3.26943 1.2962 0
M  V30 21574 H 2035.38 2.46827 2.8523 0
M  V30 21575 H 2037.77 1.53324 2.52142 0
M  V30 21576 H 2037.85 2.36935 0.964123 0
M  V30 21577 H 2037.49 4.59425 2.16543 0
M  V30 21578 H 2037.42 3.72714 3.7201 0
M  V30 21579 H 2039.92 2.94449 2.36872 0
M  V30 21580 H 2040.23 6.39363 4.3409 0
M  V30 21581 H 2038.57 5.74606 3.90964 0
M  V30 21582 H 2041.76 3.69952 2.86798 0
M  V30 21583 H 2041.94 5.27223 3.76749 0
M  V30 21584 N 2035.34 -1.08505 1.143 0
M  V30 21585 C 2036.29 -2.15397 0.829011 0
M  V30 21586 C 2037.26 -1.64728 -0.213016 0
M  V30 21587 O 2038.45 -1.90619 -0.0831625 0
M  V30 21588 C 2035.59 -3.43691 0.311546 0
M  V30 21589 C 2034.7 -4.08212 1.41375 0
M  V30 21590 C 2033.83 -5.24296 0.853639 0
M  V30 21591 C 2032.87 -5.80757 1.93359 0
M  V30 21592 N 2032.01 -6.88188 1.39073 0
M  V30 21593 H 2036.85 -2.41597 1.74456 0
M  V30 21594 H 2034.39 -1.18566 0.870668 0
M  V30 21595 H 2036.34 -4.17199 -0.00667521 0
M  V30 21596 H 2034.97 -3.17779 -0.567106 0
M  V30 21597 H 2034.03 -3.32474 1.84839 0
M  V30 21598 H 2035.34 -4.46196 2.2296 0
M  V30 21599 H 2034.49 -6.0474 0.487261 0
M  V30 21600 H 2033.23 -4.877 0.00682778 0
M  V30 21601 H 2032.24 -4.98967 2.30893 0
M  V30 21602 H 2033.46 -6.19412 2.78398 0
M  V30 21603 H 2031.41 -6.53553 0.566079 0
M  V30 21604 H 2031.32 -7.24992 2.14296 0
M  V30 21605 H 2032.59 -7.72366 1.05222 0
M  V30 21606 N 2036.82 -0.937962 -1.26649 0
M  V30 21607 C 2037.75 -0.389349 -2.24854 0
M  V30 21608 C 2038.73 0.520034 -1.5406 0
M  V30 21609 O 2039.92 0.458213 -1.82846 0
M  V30 21610 C 2037.04 0.440897 -3.35818 0
M  V30 21611 C 2036.09 -0.406503 -4.24558 0
M  V30 21612 S 2036.92 -1.82845 -5.03317 0
M  V30 21613 C 2038.08 -1.00617 -6.1776 0
M  V30 21614 H 2038.31 -1.22165 -2.71041 0
M  V30 21615 H 2035.84 -0.740851 -1.35465 0
M  V30 21616 H 2037.8 0.914026 -4.00195 0
M  V30 21617 H 2036.46 1.24784 -2.8825 0
M  V30 21618 H 2035.66 0.229461 -5.03477 0
M  V30 21619 H 2035.26 -0.814194 -3.6503 0
M  V30 21620 H 2037.55 -0.246937 -6.7705 0
M  V30 21621 H 2038.49 -1.76871 -6.85655 0
M  V30 21622 H 2038.9 -0.543652 -5.61876 0
M  V30 21623 N 2038.3 1.40971 -0.704618 0
M  V30 21624 C 2039.58 1.94885 -0.167059 0
M  V30 21625 C 2039.96 1.64346 1.3249 0
M  V30 21626 O 2039.3 0.955268 2.07574 0
M  V30 21627 C 2039.51 3.45847 -0.468035 0
M  V30 21628 C 2040.86 4.22705 -0.400704 0
M  V30 21629 O 2041.89 3.53908 -0.403464 0
M  V30 21630 O 2040.75 5.45255 -0.368676 0
M  V30 21631 H 2037.84 0.826752 -0.0202699 0
M  V30 21632 H 2040.39 1.50639 -0.7814 0
M  V30 21633 H 2039.16 3.61392 -1.50038 0
M  V30 21634 H 2038.78 3.97207 0.176823 0
M  V30 21635 N 2039.78 0.45001 1.51039 0
M  V30 21636 C 2041.19 -0.0101397 1.86697 0
M  V30 21637 C 2041.54 -1.40804 1.36633 0
M  V30 21638 O 2040.67 -2.03986 0.722411 0
M  V30 21639 C 2041.26 -0.0251761 3.38791 0
M  V30 21640 C 2039.82 -0.429779 3.73938 0
M  V30 21641 C 2038.97 0.369286 2.7483 0
M  V30 21642 H 2041.92 0.665278 1.44082 0
M  V30 21643 H 2041.94 -0.831964 3.71293 0
M  V30 21644 H 2041.45 0.992361 3.75198 0
M  V30 21645 H 2039.55 -1.45245 3.43125 0
M  V30 21646 H 2039.66 -0.145773 4.78878 0
M  V30 21647 H 2038.03 -0.174158 2.54104 0
M  V30 21648 H 2038.81 1.38594 3.14081 0
M  V30 21649 N 2041.26 -1.56548 0.18182 0
M  V30 21650 C 2042.48 -2.02015 -0.469543 0
M  V30 21651 C 2042.91 -1.06119 -1.55307 0
M  V30 21652 O 2042.26 -0.0424595 -1.8125 0
M  V30 21653 C 2042.31 -3.46016 -1.01515 0
M  V30 21654 O 2041.42 -3.53215 -2.12869 0
M  V30 21655 H 2040.76 -0.65461 -0.111273 0
M  V30 21656 H 2043.29 -2.02552 0.288798 0
M  V30 21657 H 2043.3 -3.85537 -1.33511 0
M  V30 21658 H 2041.97 -4.15308 -0.22188 0
M  V30 21659 H 2040.55 -3.2556 -1.81838 0
M  V30 21660 N 2042.73 0.0918577 -1.57332 0
M  V30 21661 C 2043.68 1.11121 -2.02289 0
M  V30 21662 C 2044.65 1.39617 -0.899791 0
M  V30 21663 O 2045.84 1.51025 -1.16602 0
M  V30 21664 C 2042.98 2.42534 -2.45502 0
M  V30 21665 C 2042.09 2.20741 -3.71345 0
M  V30 21666 C 2041.22 3.45576 -4.03424 0
M  V30 21667 C 2040.26 3.19059 -5.22368 0
M  V30 21668 N 2039.4 4.36169 -5.50182 0
M  V30 21669 H 2044.24 0.720847 -2.8915 0
M  V30 21670 H 2041.78 0.344398 -1.43012 0
M  V30 21671 H 2043.74 3.19232 -2.68601 0
M  V30 21672 H 2042.37 2.79411 -1.61646 0
M  V30 21673 H 2041.42 1.3483 -3.55704 0
M  V30 21674 H 2042.73 1.97141 -4.58189 0
M  V30 21675 H 2041.88 4.3068 -4.27317 0
M  V30 21676 H 2040.62 3.72234 -3.15108 0
M  V30 21677 H 2039.63 2.32349 -4.98291 0
M  V30 21678 H 2040.85 2.93744 -6.12284 0
M  V30 21679 H 2038.8 4.62896 -4.64826 0
M  V30 21680 H 2038.72 4.15771 -6.31404 0
M  V30 21681 H 2039.98 5.22328 -5.78613 0
M  V30 21682 N 2044.21 1.53368 0.362763 0
M  V30 21683 C 2045.62 1.61344 0.939417 0
M  V30 21684 C 2045.97 0.48262 1.90172 0
M  V30 21685 O 2045.1 -0.39054 2.12847 0
M  V30 21686 C 2045.69 2.92445 1.71059 0
M  V30 21687 C 2044.25 3.02747 2.23654 0
M  V30 21688 C 2043.4 2.5666 1.0498 0
M  V30 21689 H 2046.35 1.58068 0.141471 0
M  V30 21690 H 2046.37 2.80406 2.57201 0
M  V30 21691 H 2045.88 3.74728 1.00996 0
M  V30 21692 H 2043.99 2.25057 2.96951 0
M  V30 21693 H 2044.1 4.07877 2.51343 0
M  V30 21694 H 2042.46 2.11603 1.41761 0
M  V30 21695 H 2043.25 3.41364 0.364111 0
M  V30 21696 N 2045.69 -0.62272 1.44776 0
M  V30 21697 C 2046.92 -1.41403 1.51723 0
M  V30 21698 C 2047.34 -1.87534 0.145802 0
M  V30 21699 O 2046.7 -1.59244 -0.866667 0
M  V30 21700 C 2046.75 -2.60482 2.49362 0
M  V30 21701 O 2045.85 -3.60604 2.00096 0
M  V30 21702 H 2045.19 -0.422766 0.51202 0
M  V30 21703 H 2047.72 -0.759294 1.89989 0
M  V30 21704 H 2047.73 -3.0792 2.67674 0
M  V30 21705 H 2046.41 -2.26253 3.48974 0
M  V30 21706 H 2044.98 -3.19918 1.9159 0
M  V30 21707 N 2047.17 -1.31814 -0.863883 0
M  V30 21708 C 2048.39 -1.24961 -1.65528 0
M  V30 21709 C 2048.82 0.18096 -1.87228 0
M  V30 21710 O 2048.18 1.12919 -1.41842 0
M  V30 21711 C 2048.22 -2.00518 -2.99708 0
M  V30 21712 O 2047.33 -1.34668 -3.89793 0
M  V30 21713 H 2046.67 -0.431127 -0.505001 0
M  V30 21714 H 2049.2 -1.73981 -1.07665 0
M  V30 21715 H 2049.21 -2.10344 -3.49599 0
M  V30 21716 H 2047.88 -3.0455 -2.83235 0
M  V30 21717 H 2046.46 -1.33332 -3.48249 0
M  V30 21718 N 2048.65 1.07897 -1.14873 0
M  V30 21719 C 2049.59 2.17052 -0.836135 0
M  V30 21720 C 2050.59 1.68352 0.188148 0
M  V30 21721 O 2051.79 1.79947 0.0437298 0
M  V30 21722 H 2048.17 0.708271 -0.252698 0
M  V30 21723 H 2050.14 2.40639 -1.76452 0
M  V30 21724 C 2048.89 3.46076 -0.335713 0
M  V30 21725 H 2048.21 3.8393 -1.11525 0
M  V30 21726 H 2049.65 4.23714 -0.155587 0
M  V30 21727 C 2048.11 3.23471 0.941711 0
M  V30 21728 O 2048.64 3.47541 2.0144 0
M  V30 21729 N 2046.85 2.76987 0.879016 0
M  V30 21730 H 2046.39 2.57599 0.00591639 0
M  V30 21731 H 2046.35 2.62241 1.73427 0
M  V30 21732 N 2050.12 0.944665 1.2615 0
M  V30 21733 C 2051.37 0.594973 1.93876 0
M  V30 21734 C 2051.7 -0.864305 1.73906 0
M  V30 21735 O 2050.98 -1.61882 1.07817 0
M  V30 21736 C 2051.26 0.9423 3.47552 0
M  V30 21737 C 2051.11 2.45658 3.76792 0
M  V30 21738 C 2052.43 0.460204 4.37687 0
M  V30 21739 H 2049.55 0.217629 0.704135 0
M  V30 21740 H 2052.19 1.17952 1.48954 0
M  V30 21741 H 2050.34 0.444863 3.85945 0
M  V30 21742 H 2052.02 3.02701 3.48095 0
M  V30 21743 H 2050.26 2.89856 3.22747 0
M  V30 21744 H 2050.93 2.65011 4.84224 0
M  V30 21745 H 2053.41 0.886761 4.06541 0
M  V30 21746 H 2052.28 0.732019 5.43997 0
M  V30 21747 H 2052.54 -0.639853 4.37445 0
M  V30 21748 N 2051.6 -1.40596 0.712085 0
M  V30 21749 C 2052.57 -2.29105 0.0660369 0
M  V30 21750 C 2053.57 -1.45196 -0.690992 0
M  V30 21751 O 2054.76 -1.66151 -0.523417 0
M  V30 21752 C 2051.89 -3.2835 -0.916461 0
M  V30 21753 H 2053.08 -2.87734 0.845539 0
M  V30 21754 H 2050.63 -1.48859 0.476533 0
M  V30 21755 H 2051.37 -2.74733 -1.72314 0
M  V30 21756 H 2051.15 -3.90288 -0.376557 0
M  V30 21757 H 2052.64 -3.94634 -1.36578 0
M  V30 21758 N 2053.08 -0.458013 -1.50798 0
M  V30 21759 C 2054.33 0.101266 -2.01846 0
M  V30 21760 C 2054.65 1.41388 -1.34293 0
M  V30 21761 O 2053.92 1.89826 -0.484035 0
M  V30 21762 H 2052.5 0.0404137 -0.745906 0
M  V30 21763 H 2055.16 -0.605448 -1.85257 0
M  V30 21764 H 2054.26 0.262253 -3.10996 0
M  V30 21765 N 2054.56 1.56449 -0.190119 0
M  V30 21766 C 2055.81 1.9773 0.450624 0
M  V30 21767 C 2056.14 1.07678 1.61614 0
M  V30 21768 O 2055.41 0.127743 1.9408 0
M  V30 21769 C 2055.7 3.48267 0.915552 0
M  V30 21770 C 2055.55 4.49097 -0.251436 0
M  V30 21771 C 2056.87 4.02374 1.78278 0
M  V30 21772 H 2053.99 0.718902 0.162325 0
M  V30 21773 H 2056.63 1.87925 -0.28004 0
M  V30 21774 H 2054.78 3.56753 1.53816 0
M  V30 21775 H 2056.45 4.52653 -0.888996 0
M  V30 21776 H 2054.69 4.24276 -0.903996 0
M  V30 21777 H 2055.37 5.51877 0.116306 0
M  V30 21778 H 2057.84 3.96636 1.25774 0
M  V30 21779 H 2056.72 5.08084 2.07706 0
M  V30 21780 H 2056.98 3.4733 2.73522 0
M  V30 21781 N 2056.04 -0.0835127 1.57379 0
M  V30 21782 C 2057.28 -0.786031 1.86948 0
M  V30 21783 C 2057.62 -1.77811 0.780828 0
M  V30 21784 O 2056.89 -1.93362 -0.210075 0
M  V30 21785 C 2057.17 -1.50447 3.27166 0
M  V30 21786 C 2057.03 -0.529601 4.46671 0
M  V30 21787 C 2058.35 -2.45226 3.65448 0
M  V30 21788 H 2055.47 -0.284294 0.67996 0
M  V30 21789 H 2058.11 -0.0494231 1.89936 0
M  V30 21790 H 2056.26 -2.13237 3.24749 0
M  V30 21791 H 2057.93 0.0921842 4.61208 0
M  V30 21792 H 2056.17 0.156069 4.33519 0
M  V30 21793 H 2056.84 -1.06967 5.41537 0
M  V30 21794 H 2059.32 -1.92521 3.68883 0
M  V30 21795 H 2058.2 -2.92505 4.6447 0
M  V30 21796 H 2058.46 -3.29506 2.94751 0
M  V30 21797 N 2057.52 -1.53558 -0.354624 0
M  V30 21798 C 2058.76 -1.69489 -1.09346 0
M  V30 21799 C 2059.08 -0.458936 -1.9014 0
M  V30 21800 O 2060.28 -0.498981 -2.66875 0
M  V30 21801 C 2058.74 -2.99663 -1.99324 0
M  V30 21802 C 2058.35 -4.30558 -1.2379 0
M  V30 21803 C 2060.09 -3.2496 -2.73132 0
M  V30 21804 C 2058 -5.51814 -2.12733 0
M  V30 21805 H 2056.93 -0.631535 -0.411922 0
M  V30 21806 H 2059.58 -1.80059 -0.353687 0
M  V30 21807 H 2057.96 -2.82922 -2.77076 0
M  V30 21808 H 2059.14 -4.57966 -0.51025 0
M  V30 21809 H 2057.45 -4.11789 -0.617973 0
M  V30 21810 H 2060.05 -4.12739 -3.39927 0
M  V30 21811 H 2060.39 -2.41491 -3.39099 0
M  V30 21812 H 2060.92 -3.42426 -2.02458 0
M  V30 21813 H 2057.66 -6.37793 -1.51327 0
M  V30 21814 H 2057.18 -5.28669 -2.83317 0
M  V30 21815 H 2058.86 -5.87028 -2.72041 0
M  V30 21816 N 2058.99 0.615033 -1.45104 0
M  V30 21817 C 2060.24 1.37029 -1.48007 0
M  V30 21818 C 2060.56 1.95213 -0.122939 0
M  V30 21819 O 2061.76 2.71484 -0.0295763 0
M  V30 21820 C 2060.22 2.48178 -2.60645 0
M  V30 21821 C 2059.83 1.96437 -4.02637 0
M  V30 21822 C 2061.57 3.25251 -2.72786 0
M  V30 21823 C 2059.48 3.05024 -5.0667 0
M  V30 21824 H 2058.41 0.515004 -0.550715 0
M  V30 21825 H 2061.06 0.659974 -1.71221 0
M  V30 21826 H 2059.44 3.2186 -2.307 0
M  V30 21827 H 2060.61 1.29514 -4.42225 0
M  V30 21828 H 2058.93 1.32132 -3.9488 0
M  V30 21829 H 2061.53 4.06229 -3.47681 0
M  V30 21830 H 2061.87 3.75776 -1.7916 0
M  V30 21831 H 2062.4 2.58666 -3.0222 0
M  V30 21832 H 2059.14 2.59425 -6.01979 0
M  V30 21833 H 2058.66 3.70538 -4.71658 0
M  V30 21834 H 2060.34 3.69532 -5.31089 0
M  V30 21835 N 2060.47 1.3227 0.85688 0
M  V30 21836 C 2061.72 1.22885 1.61329 0
M  V30 21837 C 2062.05 -0.209425 1.93067 0
M  V30 21838 O 2061.33 -1.14596 1.57156 0
M  V30 21839 C 2061.61 2.0863 2.93506 0
M  V30 21840 C 2061.46 3.60824 2.68563 0
M  V30 21841 C 2062.78 1.94573 3.94752 0
M  V30 21842 H 2059.9 0.447751 0.585395 0
M  V30 21843 H 2062.54 1.62193 0.989615 0
M  V30 21844 H 2060.69 1.75236 3.46734 0
M  V30 21845 H 2062.36 4.0442 2.21906 0
M  V30 21846 H 2060.61 3.83601 2.02566 0
M  V30 21847 H 2061.28 4.16143 3.6267 0
M  V30 21848 H 2063.75 2.23822 3.50775 0
M  V30 21849 H 2062.63 2.56848 4.85098 0
M  V30 21850 H 2062.89 0.912736 4.32575 0
M  V30 21851 N 2061.95 -1.07287 1.15444 0
M  V30 21852 C 2063.2 -1.79277 0.924257 0
M  V30 21853 C 2063.51 -1.8771 -0.549932 0
M  V30 21854 O 2064.72 -2.56229 -0.897718 0
M  V30 21855 C 2063.17 -3.22168 1.60424 0
M  V30 21856 C 2062.78 -3.21934 3.11549 0
M  V30 21857 C 2064.53 -3.98763 1.45563 0
M  V30 21858 C 2062.43 -4.59482 3.72331 0
M  V30 21859 H 2061.36 -0.671898 0.342153 0
M  V30 21860 H 2064.01 -1.20415 1.38465 0
M  V30 21861 H 2062.4 -3.81227 1.07154 0
M  V30 21862 H 2063.57 -2.72516 3.7158 0
M  V30 21863 H 2061.88 -2.58836 3.26179 0
M  V30 21864 H 2064.48 -5.00423 1.88364 0
M  V30 21865 H 2064.82 -4.14343 0.403205 0
M  V30 21866 H 2065.36 -3.46201 1.95933 0
M  V30 21867 H 2062.1 -4.49106 4.77476 0
M  V30 21868 H 2061.62 -5.09135 3.17083 0
M  V30 21869 H 2063.3 -5.2845 3.73296 0
M  V30 21870 N 2063.43 -0.951342 -1.25647 0
M  V30 21871 C 2064.36 -0.486897 -2.28367 0
M  V30 21872 C 2065.34 0.465072 -1.63619 0
M  V30 21873 O 2066.52 0.364737 -1.90744 0
M  V30 21874 C 2063.65 0.239229 -3.46475 0
M  V30 21875 C 2062.61 -0.627163 -4.2338 0
M  V30 21876 C 2061.93 0.229514 -5.34207 0
M  V30 21877 C 2063.23 -1.90362 -4.86374 0
M  V30 21878 H 2064.93 -1.34542 -2.67467 0
M  V30 21879 H 2062.47 -0.648383 -1.28577 0
M  V30 21880 H 2064.43 0.575251 -4.17455 0
M  V30 21881 H 2063.15 1.13197 -3.06356 0
M  V30 21882 H 2061.81 -0.946222 -3.54178 0
M  V30 21883 H 2061.46 1.12192 -4.90328 0
M  V30 21884 H 2061.16 -0.346852 -5.86575 0
M  V30 21885 H 2062.68 0.560578 -6.08021 0
M  V30 21886 H 2064.1 -1.63422 -5.49515 0
M  V30 21887 H 2062.49 -2.42538 -5.48904 0
M  V30 21888 H 2063.56 -2.60876 -4.08744 0
M  V30 21889 N 2064.91 1.40216 -0.719531 0
M  V30 21890 C 2065.84 2.33348 -0.08432 0
M  V30 21891 C 2066.82 1.53101 0.741225 0
M  V30 21892 O 2068 1.81553 0.68935 0
M  V30 21893 C 2065.13 3.37106 0.835256 0
M  V30 21894 C 2064.09 4.27845 0.115036 0
M  V30 21895 C 2063.41 5.22174 1.15059 0
M  V30 21896 C 2064.71 5.1198 -1.03314 0
M  V30 21897 H 2066.41 2.86716 -0.862219 0
M  V30 21898 H 2063.95 1.37858 -0.416073 0
M  V30 21899 H 2065.9 4.012 1.28905 0
M  V30 21900 H 2064.63 2.82142 1.6451 0
M  V30 21901 H 2063.29 3.6521 -0.318975 0
M  V30 21902 H 2062.94 4.63513 1.95359 0
M  V30 21903 H 2062.64 5.83727 0.673556 0
M  V30 21904 H 2064.16 5.89144 1.60441 0
M  V30 21905 H 2065.57 5.69505 -0.658522 0
M  V30 21906 H 2063.97 5.82596 -1.4388 0
M  V30 21907 H 2065.04 4.47725 -1.86199 0
M  V30 21908 N 2066.38 0.466004 1.50553 0
M  V30 21909 C 2067.63 -0.0923956 2.01488 0
M  V30 21910 C 2067.95 -1.41242 1.35315 0
M  V30 21911 O 2069.15 -2.05546 1.77379 0
M  V30 21912 C 2067.61 -0.21518 3.59256 0
M  V30 21913 C 2067.22 1.09611 4.34384 0
M  V30 21914 C 2068.96 -0.725811 4.18249 0
M  V30 21915 C 2066.87 0.937394 5.83924 0
M  V30 21916 H 2065.8 -0.0383052 0.753026 0
M  V30 21917 H 2068.45 0.600129 1.73409 0
M  V30 21918 H 2066.83 -0.97137 3.83902 0
M  V30 21919 H 2068 1.86285 4.21467 0
M  V30 21920 H 2066.32 1.53746 3.86977 0
M  V30 21921 H 2068.92 -0.861504 5.27714 0
M  V30 21922 H 2069.26 -1.71583 3.79296 0
M  V30 21923 H 2069.79 -0.0271476 3.97791 0
M  V30 21924 H 2066.53 1.90063 6.27341 0
M  V30 21925 H 2066.05 0.210939 5.99429 0
M  V30 21926 H 2067.73 0.601974 6.44194 0
M  V30 21927 N 2067.86 -1.56346 0.198413 0
M  V30 21928 C 2068.79 -2.22244 -0.716243 0
M  V30 21929 C 2069.77 -1.1866 -1.21876 0
M  V30 21930 O 2070.96 -1.47177 -1.26699 0
M  V30 21931 C 2068.09 -2.88437 -1.93446 0
M  V30 21932 C 2067.04 -3.98294 -1.56672 0
M  V30 21933 C 2066.37 -4.51668 -2.86182 0
M  V30 21934 C 2067.67 -5.16531 -0.774153 0
M  V30 21935 H 2069.36 -2.98935 -0.166883 0
M  V30 21936 H 2066.91 -1.43784 -0.0788267 0
M  V30 21937 H 2068.86 -3.33221 -2.57957 0
M  V30 21938 H 2067.58 -2.09157 -2.5084 0
M  V30 21939 H 2066.24 -3.54206 -0.945178 0
M  V30 21940 H 2065.89 -3.69146 -3.41673 0
M  V30 21941 H 2065.59 -5.25796 -2.6232 0
M  V30 21942 H 2067.12 -4.99155 -3.51676 0
M  V30 21943 H 2068.53 -5.57839 -1.32244 0
M  V30 21944 H 2066.93 -5.96746 -0.633532 0
M  V30 21945 H 2068 -4.84382 0.224098 0
M  V30 21946 N 2069.34 0.0751653 -1.57421 0
M  V30 21947 C 2070.57 0.787972 -1.91308 0
M  V30 21948 C 2070.98 1.7129 -0.794055 0
M  V30 21949 O 2070.34 1.81009 0.23281 0
M  V30 21950 C 2070.39 1.58447 -3.24926 0
M  V30 21951 O 2070.11 0.696727 -4.32524 0
M  V30 21952 C 2071.61 2.39857 -3.72805 0
M  V30 21953 H 2068.83 0.22422 -0.632429 0
M  V30 21954 H 2071.38 0.0464417 -2.04447 0
M  V30 21955 H 2069.53 2.27831 -3.13324 0
M  V30 21956 H 2069.95 1.25038 -5.09378 0
M  V30 21957 H 2071.42 2.91207 -4.68938 0
M  V30 21958 H 2071.9 3.19229 -3.01645 0
M  V30 21959 H 2072.5 1.75636 -3.8734 0
M  V30 21960 N 2070.82 1.53744 0.346476 0
M  V30 21961 C 2072.07 1.70512 1.0849 0
M  V30 21962 C 2072.39 0.469467 1.89264 0
M  V30 21963 O 2071.66 -0.516594 1.88966 0
M  V30 21964 H 2070.24 0.628636 0.403517 0
M  V30 21965 H 2072.9 1.9099 0.388459 0
M  V30 21966 H 2072 2.57472 1.76394 0
M  V30 21967 N 2072.3 -0.607329 1.45428 0
M  V30 21968 C 2073.26 -1.69997 1.53732 0
M  V30 21969 C 2074.26 -1.55304 0.416799 0
M  V30 21970 O 2075.45 -1.60367 0.680287 0
M  V30 21971 C 2072.58 -3.09267 1.43411 0
M  V30 21972 H 2073.77 -1.64001 2.51085 0
M  V30 21973 H 2071.33 -0.82308 1.32872 0
M  V30 21974 H 2072.06 -3.2084 0.47243 0
M  V30 21975 H 2071.85 -3.2134 2.24685 0
M  V30 21976 H 2073.34 -3.88855 1.52255 0
M  V30 21977 N 2073.77 -1.32722 -0.849853 0
M  V30 21978 C 2075.02 -1.23312 -1.60121 0
M  V30 21979 C 2075.34 0.203882 -1.93931 0
M  V30 21980 O 2074.61 1.12986 -1.60035 0
M  V30 21981 H 2073.19 -0.453413 -0.593654 0
M  V30 21982 H 2075.86 -1.66305 -1.0163 0
M  V30 21983 H 2074.95 -1.81913 -2.53602 0
M  V30 21984 N 2075.25 1.06673 -1.16011 0
M  V30 21985 C 2076.18 2.16027 -0.886249 0
M  V30 21986 C 2077.16 1.69289 0.165907 0
M  V30 21987 O 2078.35 1.94191 0.0188181 0
M  V30 21988 C 2075.48 3.45189 -0.382329 0
M  V30 21989 C 2074.43 4.05415 -1.37195 0
M  V30 21990 C 2073.76 5.2974 -0.726594 0
M  V30 21991 C 2075.06 4.44642 -2.74027 0
M  V30 21992 H 2076.75 2.39195 -1.80073 0
M  V30 21993 H 2074.3 1.14957 -0.867232 0
M  V30 21994 H 2076.25 4.21023 -0.17824 0
M  V30 21995 H 2074.98 3.21629 0.567641 0
M  V30 21996 H 2073.63 3.31634 -1.56252 0
M  V30 21997 H 2073.28 5.02475 0.229742 0
M  V30 21998 H 2072.98 5.70993 -1.38709 0
M  V30 21999 H 2074.51 6.08274 -0.532437 0
M  V30 22000 H 2075.92 5.11574 -2.58775 0
M  V30 22001 H 2074.32 4.96868 -3.36515 0
M  V30 22002 H 2075.39 3.55684 -3.29571 0
M  V30 22003 N 2076.73 0.957992 1.25141 0
M  V30 22004 C 2077.69 0.485333 2.24003 0
M  V30 22005 C 2078.69 -0.412817 1.55411 0
M  V30 22006 O 2079.88 -0.209635 1.72934 0
M  V30 22007 C 2077.02 -0.298362 3.39592 0
M  V30 22008 H 2078.21 1.35918 2.67332 0
M  V30 22009 H 2075.76 0.741602 1.37586 0
M  V30 22010 H 2076.5 -1.18973 3.01688 0
M  V30 22011 H 2076.28 0.346033 3.9057 0
M  V30 22012 H 2077.77 -0.618412 4.12996 0
M  V30 22013 N 2078.21 -1.39832 0.726957 0
M  V30 22014 C 2079.17 -2.29022 0.0903329 0
M  V30 22015 C 2080.17 -1.45921 -0.675553 0
M  V30 22016 O 2081.36 -1.66696 -0.505765 0
M  V30 22017 C 2078.49 -3.29304 -0.881584 0
M  V30 22018 H 2079.69 -2.86821 0.87601 0
M  V30 22019 H 2077.24 -1.48345 0.492294 0
M  V30 22020 H 2077.97 -2.76545 -1.69391 0
M  V30 22021 H 2077.76 -3.90665 -0.33514 0
M  V30 22022 H 2079.25 -3.96061 -1.32384 0
M  V30 22023 N 2079.69 -0.473982 -1.50304 0
M  V30 22024 C 2080.92 0.0775007 -2.06455 0
M  V30 22025 C 2081.32 1.33801 -1.33768 0
M  V30 22026 O 2080.67 1.79261 -0.401381 0
M  V30 22027 C 2080.73 0.428656 -3.56935 0
M  V30 22028 C 2080.39 -0.730244 -4.51128 0
M  V30 22029 C 2081.39 -1.6131 -4.94242 0
M  V30 22030 C 2079.08 -0.92139 -4.93777 0
M  V30 22031 C 2081.07 -2.67149 -5.78714 0
M  V30 22032 C 2078.76 -1.98299 -5.78032 0
M  V30 22033 C 2079.75 -2.85641 -6.20402 0
M  V30 22034 O 2079.44 -3.89973 -7.02977 0
M  V30 22035 H 2079.17 -0.00505561 -0.675981 0
M  V30 22036 H 2081.73 -0.662628 -1.94418 0
M  V30 22037 H 2079.96 1.22201 -3.66884 0
M  V30 22038 H 2081.65 0.915562 -3.95439 0
M  V30 22039 H 2082.41 -1.47713 -4.61959 0
M  V30 22040 H 2078.29 -0.251023 -4.60316 0
M  V30 22041 H 2081.84 -3.35352 -6.11706 0
M  V30 22042 H 2077.73 -2.11903 -6.09727 0
M  V30 22043 H 2078.5 -3.86996 -7.21232 0
M  V30 22044 N 2081.16 1.56239 -0.206702 0
M  V30 22045 C 2082.41 1.97904 0.428991 0
M  V30 22046 C 2082.74 1.09394 1.6082 0
M  V30 22047 O 2081.99 0.135573 1.9523 0
M  V30 22048 C 2082.29 3.45345 0.920411 0
M  V30 22049 C 2081.96 4.50661 -0.146675 0
M  V30 22050 C 2080.62 4.79185 -0.439852 0
M  V30 22051 C 2082.97 5.13903 -0.869114 0
M  V30 22052 C 2080.3 5.68237 -1.46024 0
M  V30 22053 C 2082.65 6.04058 -1.87874 0
M  V30 22054 C 2081.32 6.30933 -2.17899 0
M  V30 22055 H 2080.59 0.724181 0.156979 0
M  V30 22056 H 2083.23 1.89038 -0.306106 0
M  V30 22057 H 2081.54 3.5134 1.734 0
M  V30 22058 H 2083.24 3.74945 1.42187 0
M  V30 22059 H 2079.83 4.28501 0.0919915 0
M  V30 22060 H 2084.01 4.91947 -0.655848 0
M  V30 22061 H 2079.27 5.87329 -1.69866 0
M  V30 22062 H 2083.44 6.52117 -2.44369 0
M  V30 22063 H 2081.07 6.99735 -2.9711 0
M  V30 22064 N 2082.64 -0.0668159 1.57458 0
M  V30 22065 C 2083.89 -0.765025 1.87493 0
M  V30 22066 C 2084.22 -1.77326 0.799106 0
M  V30 22067 O 2083.47 -1.9463 -0.204353 0
M  V30 22068 C 2083.77 -1.5042 3.24204 0
M  V30 22069 C 2083.44 -0.635488 4.46399 0
M  V30 22070 C 2082.1 -0.396101 4.79567 0
M  V30 22071 C 2084.45 -0.0334012 5.21189 0
M  V30 22072 C 2081.78 0.454772 5.84935 0
M  V30 22073 C 2084.13 0.804955 6.27458 0
M  V30 22074 C 2082.8 1.05417 6.59123 0
M  V30 22075 H 2082.07 -0.279943 0.686085 0
M  V30 22076 H 2084.71 -0.0256766 1.91483 0
M  V30 22077 H 2083.02 -2.31589 3.16028 0
M  V30 22078 H 2084.71 -2.04932 3.44679 0
M  V30 22079 H 2081.3 -0.832201 4.20443 0
M  V30 22080 H 2085.49 -0.205452 4.95875 0
M  V30 22081 H 2080.74 0.656546 6.07865 0
M  V30 22082 H 2084.92 1.27821 6.84569 0
M  V30 22083 H 2082.55 1.71525 7.40596 0
M  V30 22084 N 2084.12 -1.53926 -0.338317 0
M  V30 22085 C 2085.35 -1.75114 -1.0963 0
M  V30 22086 C 2085.76 -0.492691 -1.82672 0
M  V30 22087 O 2085.1 0.545601 -1.75411 0
M  V30 22088 C 2085.16 -2.88063 -2.15081 0
M  V30 22089 C 2084.83 -4.27487 -1.61568 0
M  V30 22090 C 2085.83 -5.0887 -1.06523 0
M  V30 22091 C 2083.51 -4.73988 -1.66256 0
M  V30 22092 C 2085.5 -6.34857 -0.568774 0
M  V30 22093 C 2083.19 -5.99946 -1.16223 0
M  V30 22094 C 2084.19 -6.80214 -0.616267 0
M  V30 22095 O 2083.88 -8.03805 -0.123412 0
M  V30 22096 H 2083.61 -0.588533 -0.332572 0
M  V30 22097 H 2086.16 -2.01572 -0.394676 0
M  V30 22098 H 2084.39 -2.57141 -2.88817 0
M  V30 22099 H 2086.08 -2.97172 -2.76485 0
M  V30 22100 H 2086.85 -4.74106 -1.02219 0
M  V30 22101 H 2082.73 -4.11564 -2.07692 0
M  V30 22102 H 2086.27 -6.97456 -0.141967 0
M  V30 22103 H 2082.17 -6.34204 -1.2023 0
M  V30 22104 H 2082.94 -8.18147 -0.240214 0
M  V30 22105 N 2085.6 0.599608 -1.45748 0
M  V30 22106 C 2086.55 1.70982 -1.55028 0
M  V30 22107 C 2087.52 1.61319 -0.395631 0
M  V30 22108 O 2088.7 1.80781 -0.610146 0
M  V30 22109 C 2085.84 3.09304 -1.53052 0
M  V30 22110 C 2084.95 3.29715 -2.79127 0
M  V30 22111 C 2084.09 4.58189 -2.68769 0
M  V30 22112 C 2083.13 4.71885 -3.89861 0
M  V30 22113 N 2082.27 5.91666 -3.77989 0
M  V30 22114 H 2087.11 1.62387 -2.49869 0
M  V30 22115 H 2084.64 0.791687 -1.23979 0
M  V30 22116 H 2086.6 3.89343 -1.49893 0
M  V30 22117 H 2085.23 3.16838 -0.617561 0
M  V30 22118 H 2084.28 2.43397 -2.92339 0
M  V30 22119 H 2085.59 3.35707 -3.68921 0
M  V30 22120 H 2084.75 5.46433 -2.63621 0
M  V30 22121 H 2083.49 4.54608 -1.76587 0
M  V30 22122 H 2082.49 3.82062 -3.95359 0
M  V30 22123 H 2083.72 4.77257 -4.83118 0
M  V30 22124 H 2081.66 5.89115 -2.88582 0
M  V30 22125 H 2081.58 5.98853 -4.61423 0
M  V30 22126 H 2082.85 6.82387 -3.76787 0
M  V30 22127 N 2087.08 1.33171 0.842803 0
M  V30 22128 C 2088.02 1.23097 1.95232 0
M  V30 22129 C 2088.99 0.110469 1.65732 0
M  V30 22130 O 2090.18 0.288065 1.88613 0
M  V30 22131 C 2087.32 0.972118 3.31125 0
M  V30 22132 C 2086.43 2.17852 3.73047 0
M  V30 22133 C 2085.57 1.85415 4.9779 0
M  V30 22134 C 2084.61 3.0231 5.32236 0
M  V30 22135 N 2083.74 2.69887 6.48156 0
M  V30 22136 H 2088.58 2.17995 2.03181 0
M  V30 22137 H 2086.12 1.08406 0.994308 0
M  V30 22138 H 2088.08 0.802486 4.09409 0
M  V30 22139 H 2086.71 0.0598977 3.22744 0
M  V30 22140 H 2085.76 2.45803 2.90318 0
M  V30 22141 H 2087.07 3.05254 3.94489 0
M  V30 22142 H 2086.23 1.65073 5.83812 0
M  V30 22143 H 2084.97 0.952447 4.78309 0
M  V30 22144 H 2083.97 3.2327 4.44721 0
M  V30 22145 H 2085.2 3.93229 5.53667 0
M  V30 22146 H 2083.14 1.82271 6.30169 0
M  V30 22147 H 2083.06 3.50818 6.69673 0
M  V30 22148 H 2084.33 2.53002 7.37299 0
M  V30 22149 N 2088.56 -1.06056 1.16576 0
M  V30 22150 C 2089.97 -1.31034 0.911171 0
M  V30 22151 C 2090.17 -1.96758 -0.434593 0
M  V30 22152 O 2089.23 -2.2357 -1.17357 0
M  V30 22153 C 2090.54 -2.18865 2.06201 0
M  V30 22154 C 2092.09 -2.32274 2.09804 0
M  V30 22155 C 2092.56 -3.23461 3.24248 0
M  V30 22156 N 2094.05 -3.31045 3.2398 0
M  V30 22157 C 2094.79 -4.01702 4.09174 0
M  V30 22158 N 2094.29 -4.7486 5.0446 0
M  V30 22159 N 2096.08 -3.97777 3.97153 0
M  V30 22160 H 2088.23 -0.617904 2.03213 0
M  V30 22161 H 2090.49 -0.335006 0.886834 0
M  V30 22162 H 2090.2 -1.77852 3.03417 0
M  V30 22163 H 2090.07 -3.19462 2.00559 0
M  V30 22164 H 2092.46 -2.72534 1.13179 0
M  V30 22165 H 2092.54 -1.31337 2.19509 0
M  V30 22166 H 2092.18 -2.83918 4.21133 0
M  V30 22167 H 2092.11 -4.24384 3.11779 0
M  V30 22168 H 2094.61 -2.78911 2.54984 0
M  V30 22169 H 2094.92 -5.26308 5.65879 0
M  V30 22170 H 2093.26 -4.73832 5.08437 0
M  V30 22171 H 2096.45 -3.39743 3.22013 0
M  V30 22172 H 2096.63 -4.52574 4.63768 0
M  V30 22173 N 2090.03 -0.964615 -1.24631 0
M  V30 22174 C 2091.45 -0.670645 -1.44826 0
M  V30 22175 C 2091.65 0.768559 -1.86267 0
M  V30 22176 O 2090.71 1.54279 -1.99886 0
M  V30 22177 C 2092.02 -1.6521 -2.51249 0
M  V30 22178 C 2093.57 -1.66439 -2.65079 0
M  V30 22179 C 2094.04 -2.63374 -3.74697 0
M  V30 22180 N 2095.53 -2.61798 -3.8212 0
M  V30 22181 C 2096.27 -3.33478 -4.66455 0
M  V30 22182 N 2095.76 -4.14664 -5.55 0
M  V30 22183 N 2097.56 -3.22317 -4.60508 0
M  V30 22184 H 2089.71 -1.89453 -0.960277 0
M  V30 22185 H 2091.97 -0.815473 -0.483433 0
M  V30 22186 H 2091.68 -2.68058 -2.2768 0
M  V30 22187 H 2091.55 -1.42244 -3.49351 0
M  V30 22188 H 2093.94 -0.643043 -2.88009 0
M  V30 22189 H 2094.02 -1.93467 -1.67345 0
M  V30 22190 H 2093.66 -3.65641 -3.52518 0
M  V30 22191 H 2093.59 -2.33627 -4.71939 0
M  V30 22192 H 2096.08 -2.02866 -3.18832 0
M  V30 22193 H 2096.4 -4.66253 -6.16302 0
M  V30 22194 H 2094.74 -4.18759 -5.54676 0
M  V30 22195 H 2097.93 -2.58355 -3.90346 0
M  V30 22196 H 2098.11 -3.78443 -5.26008 0
M  V30 22197 N 2091.51 1.39445 -0.734362 0
M  V30 22198 C 2092.76 2.00824 -0.282443 0
M  V30 22199 C 2093.09 1.58137 1.12722 0
M  V30 22200 O 2092.37 0.809969 1.76833 0
M  V30 22201 C 2092.65 3.58051 -0.38359 0
M  V30 22202 C 2092.5 4.10758 -1.83298 0
M  V30 22203 C 2093.82 4.39476 0.234349 0
M  V30 22204 H 2090.94 0.729611 -0.104103 0
M  V30 22205 H 2093.58 1.65661 -0.930397 0
M  V30 22206 H 2091.73 3.88136 0.168068 0
M  V30 22207 H 2093.4 3.91395 -2.44147 0
M  V30 22208 H 2091.65 3.64342 -2.35451 0
M  V30 22209 H 2092.32 5.19897 -1.85503 0
M  V30 22210 H 2094.79 4.15431 -0.235909 0
M  V30 22211 H 2093.67 5.48738 0.133228 0
M  V30 22212 H 2093.93 4.21924 1.32032 0
M  V30 22213 N 2092.99 0.481946 1.5005 0
M  V30 22214 C 2093.94 -0.325422 2.25666 0
M  V30 22215 C 2094.92 -0.952113 1.29706 0
M  V30 22216 O 2096.12 -0.862865 1.54543 0
M  V30 22217 C 2093.24 -1.40052 3.13433 0
M  V30 22218 C 2092.33 -0.781026 4.16846 0
M  V30 22219 N 2092.72 0.105108 5.05691 0
M  V30 22220 C 2091.02 -1.04376 4.33615 0
M  V30 22221 C 2091.72 0.457801 5.79896 0
M  V30 22222 N 2090.7 -0.169673 5.43335 0
M  V30 22223 H 2094.5 0.357033 2.91723 0
M  V30 22224 H 2092.01 0.296785 1.59665 0
M  V30 22225 H 2094.01 -1.9922 3.6622 0
M  V30 22226 H 2092.67 -2.08486 2.48925 0
M  V30 22227 H 2093.68 0.474672 5.1572 0
M  V30 22228 H 2090.36 -1.72227 3.80321 0
M  V30 22229 H 2091.75 1.18162 6.61428 0
M  V30 22230 N 2094.47 -1.56127 0.214985 0
M  V30 22231 C 2095.4 -2.22991 -0.69263 0
M  V30 22232 C 2096.38 -1.19946 -1.20611 0
M  V30 22233 O 2097.56 -1.48512 -1.25131 0
M  V30 22234 C 2094.69 -2.90473 -1.90376 0
M  V30 22235 C 2093.65 -3.99933 -1.52439 0
M  V30 22236 C 2092.97 -4.54678 -2.81375 0
M  V30 22237 C 2094.27 -5.17323 -0.719325 0
M  V30 22238 H 2095.97 -2.99095 -0.135168 0
M  V30 22239 H 2093.51 -1.4386 -0.0635721 0
M  V30 22240 H 2095.47 -3.35938 -2.54408 0
M  V30 22241 H 2094.19 -2.11806 -2.48608 0
M  V30 22242 H 2092.85 -3.55189 -0.907557 0
M  V30 22243 H 2092.5 -3.72749 -3.37739 0
M  V30 22244 H 2092.2 -5.28549 -2.56729 0
M  V30 22245 H 2093.72 -5.02857 -3.46362 0
M  V30 22246 H 2095.14 -5.5921 -1.2632 0
M  V30 22247 H 2093.53 -5.97385 -0.570203 0
M  V30 22248 H 2094.6 -4.84117 0.275461 0
M  V30 22249 N 2095.95 0.0584645 -1.57492 0
M  V30 22250 C 2097.36 0.608705 -1.76498 0
M  V30 22251 C 2097.71 1.77203 -0.84224 0
M  V30 22252 O 2096.83 2.1638 -0.0296265 0
M  V30 22253 C 2097.43 1.11101 -3.20066 0
M  V30 22254 C 2095.99 1.607 -3.40371 0
M  V30 22255 C 2095.13 0.532159 -2.72146 0
M  V30 22256 H 2098.08 -0.167741 -1.57811 0
M  V30 22257 H 2098.11 1.97943 -3.2496 0
M  V30 22258 H 2097.62 0.264112 -3.872 0
M  V30 22259 H 2095.72 2.47671 -2.7837 0
M  V30 22260 H 2095.83 1.67476 -4.48875 0
M  V30 22261 H 2094.2 0.980354 -2.35077 0
M  V30 22262 H 2094.98 -0.304774 -3.41944 0
M  V30 22263 N 2097.42 1.54103 0.330149 0
M  V30 22264 C 2098.36 1.7936 1.42698 0
M  V30 22265 C 2099.37 0.67533 1.48132 0
M  V30 22266 O 2100.56 0.952319 1.50974 0
M  V30 22267 C 2097.66 1.89043 2.81276 0
M  V30 22268 C 2096.83 3.1913 2.99123 0
M  V30 22269 C 2095.89 3.19599 4.18023 0
M  V30 22270 O 2094.92 3.93266 4.11498 0
M  V30 22271 N 2096.12 2.42915 5.27231 0
M  V30 22272 H 2098.88 2.74012 1.21398 0
M  V30 22273 H 2096.44 1.53318 0.520103 0
M  V30 22274 H 2098.44 1.86791 3.59014 0
M  V30 22275 H 2097.01 1.01517 2.95657 0
M  V30 22276 H 2096.23 3.34396 2.08742 0
M  V30 22277 H 2097.51 4.05032 3.07939 0
M  V30 22278 H 2096.91 1.82641 5.35405 0
M  V30 22279 H 2095.47 2.46448 6.03412 0
M  V30 22280 N 2098.9 -0.59187 1.46064 0
M  V30 22281 C 2099.81 -1.72959 1.585 0
M  V30 22282 C 2100.83 -1.67565 0.468813 0
M  V30 22283 O 2102 -1.87639 0.731679 0
M  V30 22284 C 2099.07 -3.09451 1.56336 0
M  V30 22285 C 2098.13 -3.26179 2.79117 0
M  V30 22286 C 2097.36 -4.56159 2.77046 0
M  V30 22287 O 2097.59 -5.39474 1.85268 0
M  V30 22288 O 2096.52 -4.75937 3.68466 0
M  V30 22289 H 2100.35 -1.65416 2.54699 0
M  V30 22290 H 2097.93 -0.757834 1.28753 0
M  V30 22291 H 2099.81 -3.90742 1.57793 0
M  V30 22292 H 2098.49 -3.17451 0.632949 0
M  V30 22293 H 2097.4 -2.44416 2.83217 0
M  V30 22294 H 2098.73 -3.23064 3.71336 0
M  V30 22295 N 2100.38 -1.33616 -0.835729 0
M  V30 22296 C 2101.63 -1.25003 -1.58804 0
M  V30 22297 C 2101.95 0.183302 -1.94137 0
M  V30 22298 O 2101.22 1.11282 -1.61224 0
M  V30 22299 H 2099.8 -0.459684 -0.588812 0
M  V30 22300 H 2102.46 -1.67374 -0.998599 0
M  V30 22301 H 2101.56 -1.84593 -2.51658 0
M  V30 22302 N 2101.86 1.05436 -1.17136 0
M  V30 22303 C 2102.82 2.11293 -0.888146 0
M  V30 22304 C 2103.82 1.60347 0.120621 0
M  V30 22305 O 2105.01 1.73844 -0.111266 0
M  V30 22306 C 2102.14 3.393 -0.329871 0
M  V30 22307 H 2103.34 2.3785 -1.82667 0
M  V30 22308 H 2100.89 1.21641 -0.981486 0
M  V30 22309 H 2101.62 3.18397 0.61592 0
M  V30 22310 H 2101.41 3.77588 -1.05687 0
M  V30 22311 H 2102.9 4.17331 -0.149954 0
M  V30 22312 N 2103.34 0.971211 1.24118 0
M  V30 22313 C 2104.58 0.635022 1.92286 0
M  V30 22314 C 2104.91 -0.83026 1.75889 0
M  V30 22315 O 2104.17 -1.61322 1.10786 0
M  V30 22316 C 2104.47 0.960091 3.44263 0
M  V30 22317 C 2104.13 2.41409 3.80832 0
M  V30 22318 C 2102.79 2.81148 3.90524 0
M  V30 22319 C 2105.15 3.35755 3.98645 0
M  V30 22320 C 2102.47 4.14268 4.15451 0
M  V30 22321 C 2104.83 4.68508 4.25069 0
M  V30 22322 C 2103.49 5.08019 4.32981 0
M  V30 22323 H 2102.76 0.232371 0.703623 0
M  V30 22324 H 2105.41 1.22335 1.47331 0
M  V30 22325 H 2103.71 0.289561 3.90729 0
M  V30 22326 H 2105.41 0.678313 3.95221 0
M  V30 22327 H 2102 2.09597 3.73855 0
M  V30 22328 H 2106.18 3.06236 3.90555 0
M  V30 22329 H 2101.44 4.445 4.19797 0
M  V30 22330 H 2105.61 5.41579 4.37796 0
M  V30 22331 H 2103.24 6.11192 4.52049 0
M  V30 22332 N 2104.81 -1.39054 0.741747 0
M  V30 22333 C 2105.72 -2.34352 0.107946 0
M  V30 22334 C 2106.74 -1.58666 -0.71422 0
M  V30 22335 O 2107.92 -1.90923 -0.641124 0
M  V30 22336 C 2104.98 -3.3773 -0.783547 0
M  V30 22337 C 2104.04 -4.29269 0.0516392 0
M  V30 22338 C 2103.28 -5.27709 -0.797398 0
M  V30 22339 O 2103.5 -5.3283 -2.03588 0
M  V30 22340 O 2102.43 -6.01489 -0.222478 0
M  V30 22341 H 2106.26 -2.90223 0.894677 0
M  V30 22342 H 2103.84 -1.40696 0.502494 0
M  V30 22343 H 2105.73 -4.01059 -1.29342 0
M  V30 22344 H 2104.4 -2.84233 -1.54898 0
M  V30 22345 H 2103.31 -3.6914 0.607193 0
M  V30 22346 H 2104.64 -4.85989 0.779446 0
M  V30 22347 N 2106.29 -0.489897 -1.49792 0
M  V30 22348 C 2107.24 0.30825 -2.30548 0
M  V30 22349 C 2108.23 0.973094 -1.38662 0
M  V30 22350 O 2109.44 0.902051 -1.55766 0
M  V30 22351 H 2105.82 0.118259 -0.742643 0
M  V30 22352 H 2107.79 -0.392998 -2.95801 0
M  V30 22353 C 2106.54 1.36653 -3.1972 0
M  V30 22354 H 2105.86 0.864344 -3.90345 0
M  V30 22355 H 2107.3 1.8972 -3.79186 0
M  V30 22356 C 2105.76 2.37871 -2.38577 0
M  V30 22357 O 2106.29 3.43529 -2.08208 0
M  V30 22358 N 2104.49 2.1006 -2.00807 0
M  V30 22359 H 2104.04 1.24158 -2.25704 0
M  V30 22360 H 2104 2.78012 -1.46821 0
M  V30 22361 N 2107.77 1.56011 -0.223262 0
M  V30 22362 C 2109 2.0274 0.412787 0
M  V30 22363 C 2109.41 1.10304 1.53227 0
M  V30 22364 O 2108.77 0.112965 1.8215 0
M  V30 22365 C 2108.82 3.48989 0.942818 0
M  V30 22366 O 2108.54 4.37901 -0.132031 0
M  V30 22367 C 2110.04 4.11371 1.65194 0
M  V30 22368 H 2107.26 0.663379 0.100842 0
M  V30 22369 H 2109.81 2.0165 -0.340215 0
M  V30 22370 H 2107.96 3.50689 1.64609 0
M  V30 22371 H 2108.38 5.23822 0.266637 0
M  V30 22372 H 2109.85 5.15467 1.97479 0
M  V30 22373 H 2110.33 3.56468 2.56568 0
M  V30 22374 H 2110.93 4.13525 0.993831 0
M  V30 22375 N 2109.25 -0.0501116 1.5752 0
M  V30 22376 C 2110.18 -1.05708 2.08202 0
M  V30 22377 C 2111.16 -1.39032 0.980009 0
M  V30 22378 O 2112.34 -1.48283 1.25403 0
M  V30 22379 C 2109.47 -2.36429 2.54399 0
M  V30 22380 C 2108.43 -2.17402 3.68674 0
M  V30 22381 C 2107.75 -3.53698 4.01001 0
M  V30 22382 C 2109.05 -1.57741 4.97911 0
M  V30 22383 H 2110.75 -0.635258 2.92583 0
M  V30 22384 H 2108.29 -0.304127 1.40752 0
M  V30 22385 H 2110.25 -3.07184 2.88472 0
M  V30 22386 H 2108.97 -2.80631 1.67074 0
M  V30 22387 H 2107.63 -1.49084 3.34917 0
M  V30 22388 H 2107.28 -3.9551 3.10774 0
M  V30 22389 H 2106.98 -3.418 4.77961 0
M  V30 22390 H 2108.5 -4.25849 4.3759 0
M  V30 22391 H 2109.92 -2.18387 5.30075 0
M  V30 22392 H 2108.31 -1.56478 5.7934 0
M  V30 22393 H 2109.38 -0.540999 4.81873 0
M  V30 22394 N 2110.73 -1.54276 -0.321972 0
M  V30 22395 C 2111.96 -1.76267 -1.07766 0
M  V30 22396 C 2112.36 -0.512038 -1.8214 0
M  V30 22397 O 2111.71 0.526965 -1.75979 0
M  V30 22398 C 2111.77 -2.90328 -2.12014 0
M  V30 22399 C 2111.43 -4.29176 -1.57024 0
M  V30 22400 C 2112.43 -5.09971 -1.0112 0
M  V30 22401 C 2110.12 -4.75724 -1.6122 0
M  V30 22402 C 2112.11 -6.35425 -0.501407 0
M  V30 22403 C 2109.8 -6.01145 -1.09853 0
M  V30 22404 C 2110.79 -6.80829 -0.544086 0
M  V30 22405 O 2110.48 -8.03891 -0.0381506 0
M  V30 22406 H 2110.21 -0.592028 -0.326312 0
M  V30 22407 H 2112.77 -2.0198 -0.373274 0
M  V30 22408 H 2111 -2.6019 -2.86074 0
M  V30 22409 H 2112.69 -3.00087 -2.73317 0
M  V30 22410 H 2113.45 -4.75163 -0.971843 0
M  V30 22411 H 2109.33 -4.13744 -2.03315 0
M  V30 22412 H 2112.88 -6.97567 -0.067985 0
M  V30 22413 H 2108.77 -6.35444 -1.13496 0
M  V30 22414 H 2109.54 -8.18356 -0.153425 0
M  V30 22415 N 2112.2 0.584116 -1.46376 0
M  V30 22416 C 2113.45 1.34238 -1.51613 0
M  V30 22417 C 2113.78 1.93779 -0.167271 0
M  V30 22418 O 2113.03 1.76902 0.836914 0
M  V30 22419 C 2113.33 2.49232 -2.56161 0
M  V30 22420 C 2113 2.07692 -4.00219 0
M  V30 22421 C 2111.66 1.96078 -4.39439 0
M  V30 22422 C 2114.01 1.75625 -4.90719 0
M  V30 22423 C 2111.34 1.50653 -5.67028 0
M  V30 22424 C 2113.69 1.3168 -6.18743 0
M  V30 22425 C 2112.36 1.18641 -6.56872 0
M  V30 22426 H 2111.63 0.491211 -0.554791 0
M  V30 22427 H 2114.27 0.657889 -1.79845 0
M  V30 22428 H 2112.58 3.23121 -2.21585 0
M  V30 22429 H 2114.28 3.07448 -2.57443 0
M  V30 22430 H 2110.87 2.17665 -3.69215 0
M  V30 22431 H 2115.05 1.83484 -4.61137 0
M  V30 22432 H 2110.31 1.39201 -5.95343 0
M  V30 22433 H 2114.48 1.0592 -6.88298 0
M  V30 22434 H 2112.11 0.832188 -7.55631 0
M  V30 22435 N 2113.68 1.34058 0.828631 0
M  V30 22436 C 2114.63 1.25159 1.96056 0
M  V30 22437 C 2115.63 0.150843 1.68727 0
M  V30 22438 O 2116.83 0.315456 1.77214 0
M  V30 22439 H 2113.21 0.388669 0.643771 0
M  V30 22440 H 2115.18 2.20835 2.00685 0
M  V30 22441 C 2113.93 1.0181 3.32461 0
M  V30 22442 H 2113.25 1.8574 3.54035 0
M  V30 22443 H 2114.69 0.996172 4.12132 0
M  V30 22444 C 2113.15 -0.278758 3.35745 0
M  V30 22445 O 2113.68 -1.28204 3.80692 0
M  V30 22446 N 2111.88 -0.309877 2.88943 0
M  V30 22447 H 2111.43 0.507134 2.52559 0
M  V30 22448 H 2111.39 -1.17737 2.91523 0
M  V30 22449 N 2115.16 -1.04814 1.17694 0
M  V30 22450 C 2116.39 -1.82088 0.992908 0
M  V30 22451 C 2116.81 -1.82538 -0.454023 0
M  V30 22452 O 2116.17 -1.23716 -1.3253 0
M  V30 22453 C 2116.22 -3.25912 1.54318 0
M  V30 22454 O 2115.32 -4.05346 0.759486 0
M  V30 22455 H 2114.66 -0.562852 0.352268 0
M  V30 22456 H 2117.19 -1.32054 1.56279 0
M  V30 22457 H 2117.2 -3.76705 1.56708 0
M  V30 22458 H 2115.88 -3.24899 2.59641 0
M  V30 22459 H 2114.45 -3.64056 0.807298 0
M  V30 22460 N 2116.64 -0.977779 -1.23601 0
M  V30 22461 C 2117.57 -0.473925 -2.24247 0
M  V30 22462 C 2118.58 0.422811 -1.57214 0
M  V30 22463 O 2119.77 0.227368 -1.77046 0
M  V30 22464 C 2116.87 0.334033 -3.3725 0
M  V30 22465 C 2116.05 -0.555203 -4.33862 0
M  V30 22466 C 2115.11 0.198457 -5.25826 0
M  V30 22467 O 2114.13 -0.411037 -5.67714 0
M  V30 22468 N 2115.33 1.48519 -5.61179 0
M  V30 22469 H 2118.1 -1.3393 -2.6811 0
M  V30 22470 H 2115.66 -0.850748 -1.37746 0
M  V30 22471 H 2117.65 0.846503 -3.95748 0
M  V30 22472 H 2116.22 1.1004 -2.92592 0
M  V30 22473 H 2115.44 -1.24853 -3.73905 0
M  V30 22474 H 2116.73 -1.16132 -4.95369 0
M  V30 22475 H 2116.13 2.00194 -5.29092 0
M  V30 22476 H 2114.68 1.94316 -6.22161 0
M  V30 22477 N 2118.12 1.38658 -0.749111 0
M  V30 22478 C 2119.34 2.0503 -0.312666 0
M  V30 22479 C 2119.77 1.56125 1.04912 0
M  V30 22480 O 2119.13 0.711236 1.66767 0
M  V30 22481 C 2119.17 3.58997 -0.339658 0
M  V30 22482 O 2118.28 4.06956 0.667887 0
M  V30 22483 H 2117.62 0.649228 -0.139282 0
M  V30 22484 H 2120.15 1.7742 -1.01898 0
M  V30 22485 H 2120.16 4.07562 -0.188968 0
M  V30 22486 H 2118.83 3.93951 -1.33325 0
M  V30 22487 H 2117.41 3.69769 0.482177 0
M  V30 22488 N 2119.6 0.497834 1.49531 0
M  V30 22489 C 2120.82 -0.0468921 2.07347 0
M  V30 22490 C 2121.25 -1.30349 1.35612 0
M  V30 22491 O 2120.6 -1.76559 0.411884 0
M  V30 22492 C 2120.65 -0.286776 3.59458 0
M  V30 22493 O 2119.76 -1.36212 3.89256 0
M  V30 22494 H 2119.1 0.0248202 0.663536 0
M  V30 22495 H 2121.63 0.696547 1.92378 0
M  V30 22496 H 2121.64 -0.519243 4.04682 0
M  V30 22497 H 2120.31 0.631334 4.1108 0
M  V30 22498 H 2118.89 -1.11485 3.55845 0
M  V30 22499 N 2121.07 -1.5589 0.231532 0
M  V30 22500 C 2122.48 -1.84671 -0.274487 0
M  V30 22501 C 2122.84 -1.15311 -1.58738 0
M  V30 22502 O 2121.96 -0.42619 -2.12162 0
M  V30 22503 C 2122.56 -3.35018 -0.504806 0
M  V30 22504 C 2121.11 -3.6408 -0.955115 0
M  V30 22505 C 2120.26 -2.7729 -0.023723 0
M  V30 22506 H 2123.21 -1.52053 0.454483 0
M  V30 22507 H 2123.23 -3.55765 -1.3495 0
M  V30 22508 H 2122.75 -3.85472 0.450902 0
M  V30 22509 H 2120.85 -3.19092 -1.92383 0
M  V30 22510 H 2120.96 -4.71985 -0.822615 0
M  V30 22511 H 2119.32 -2.49075 -0.53233 0
M  V30 22512 H 2120.11 -3.30545 0.927081 0
M  V30 22513 N 2122.55 0.0417572 -1.57545 0
M  V30 22514 C 2123.8 0.733648 -1.88314 0
M  V30 22515 C 2124.12 1.76568 -0.827577 0
M  V30 22516 O 2123.39 1.95397 0.140345 0
M  V30 22517 H 2121.97 0.273952 -0.694953 0
M  V30 22518 H 2124.63 0.010717 -1.94897 0
M  V30 22519 H 2123.73 1.23116 -2.8679 0
M  V30 22520 N 2124.03 1.54445 0.313786 0
M  V30 22521 C 2125.26 1.77093 1.06985 0
M  V30 22522 C 2125.67 0.524216 1.81376 0
M  V30 22523 O 2125.03 -0.505482 1.7536 0
M  V30 22524 C 2125.08 2.97038 2.06036 0
M  V30 22525 O 2124.8 4.1689 1.34665 0
M  V30 22526 C 2126.3 3.31974 2.93783 0
M  V30 22527 H 2123.52 0.590955 0.317826 0
M  V30 22528 H 2126.07 2.01361 0.356942 0
M  V30 22529 H 2124.22 2.75015 2.72847 0
M  V30 22530 H 2124.64 4.84425 2.01078 0
M  V30 22531 H 2126.11 4.19176 3.5916 0
M  V30 22532 H 2126.59 2.49567 3.61404 0
M  V30 22533 H 2127.19 3.5611 2.3252 0
M  V30 22534 N 2125.51 -0.576345 1.46683 0
M  V30 22535 C 2126.73 -1.36505 1.56145 0
M  V30 22536 C 2127.16 -1.86975 0.20539 0
M  V30 22537 O 2126.52 -1.6192 -0.815566 0
M  V30 22538 C 2126.56 -2.52417 2.57523 0
M  V30 22539 O 2125.67 -3.54056 2.11467 0
M  V30 22540 H 2125.01 -0.406262 0.525211 0
M  V30 22541 H 2127.54 -0.698466 1.92309 0
M  V30 22542 H 2127.55 -2.99248 2.77335 0
M  V30 22543 H 2126.22 -2.15036 3.55995 0
M  V30 22544 H 2124.8 -3.13661 2.01671 0
M  V30 22545 N 2126.99 -1.34495 -0.82151 0
M  V30 22546 C 2128.26 -1.17511 -1.56367 0
M  V30 22547 C 2128.64 0.251735 -2.09594 0
M  V30 22548 O 2127.99 1.25325 -1.91065 0
M  V30 22549 C 2128.2 -2.23083 -2.68393 0
M  V30 22550 C 2129.55 -2.58132 -3.37124 0
M  V30 22551 O 2130.57 -2.21883 -2.78651 0
M  V30 22552 O 2129.43 -3.20405 -4.42722 0
M  V30 22553 H 2126.53 -0.455611 -0.690179 0
M  V30 22554 H 2129.07 -1.46132 -0.862761 0
M  V30 22555 H 2127.84 -3.1885 -2.26827 0
M  V30 22556 H 2127.47 -1.95647 -3.46133 0
M  V30 22557 N 2128.46 1.04188 -1.18248 0
M  V30 22558 C 2129.4 2.11707 -0.851784 0
M  V30 22559 C 2130.38 1.61536 0.185734 0
M  V30 22560 O 2131.56 1.88388 0.0649765 0
M  V30 22561 C 2128.69 3.37603 -0.272436 0
M  V30 22562 C 2127.73 4.0662 -1.28694 0
M  V30 22563 S 2128.57 4.53841 -2.84234 0
M  V30 22564 C 2129.72 5.82971 -2.27807 0
M  V30 22565 H 2129.95 2.39432 -1.76237 0
M  V30 22566 H 2127.49 1.16938 -1.00821 0
M  V30 22567 H 2129.45 4.10463 0.0553219 0
M  V30 22568 H 2128.11 3.07995 0.616252 0
M  V30 22569 H 2127.3 4.97111 -0.830431 0
M  V30 22570 H 2126.9 3.39872 -1.56087 0
M  V30 22571 H 2129.19 6.56851 -1.6599 0
M  V30 22572 H 2130.14 6.33383 -3.16593 0
M  V30 22573 H 2130.54 5.38017 -1.70873 0
M  V30 22574 N 2129.94 0.98432 1.23081 0
M  V30 22575 C 2130.89 0.527474 2.24692 0
M  V30 22576 C 2131.86 -0.435706 1.60284 0
M  V30 22577 O 2133.04 -0.342378 1.87703 0
M  V30 22578 C 2130.18 -0.160141 3.44728 0
M  V30 22579 C 2129.3 0.843763 4.2368 0
M  V30 22580 C 2128.43 0.130552 5.3104 0
M  V30 22581 C 2127.47 1.1234 6.01703 0
M  V30 22582 N 2126.61 0.439082 7.00726 0
M  V30 22583 H 2131.45 1.39873 2.63134 0
M  V30 22584 H 2128.99 0.700815 1.29333 0
M  V30 22585 H 2130.94 -0.575649 4.1321 0
M  V30 22586 H 2129.57 -0.995239 3.07075 0
M  V30 22587 H 2128.63 1.37764 3.54578 0
M  V30 22588 H 2129.94 1.60017 4.72436 0
M  V30 22589 H 2129.09 -0.342123 6.05735 0
M  V30 22590 H 2127.83 -0.65843 4.83235 0
M  V30 22591 H 2126.84 1.60679 5.25797 0
M  V30 22592 H 2128.06 1.91311 6.51596 0
M  V30 22593 H 2126.01 -0.33062 6.55166 0
M  V30 22594 H 2125.92 1.13408 7.47445 0
M  V30 22595 H 2127.19 -0.0110751 7.79499 0
M  V30 22596 N 2131.42 -1.38259 0.756453 0
M  V30 22597 C 2132.7 -1.94131 0.239274 0
M  V30 22598 C 2133.08 -1.6915 -1.26299 0
M  V30 22599 O 2132.43 -1.03165 -2.03885 0
M  V30 22600 C 2132.64 -3.43872 0.596071 0
M  V30 22601 C 2133.98 -4.20927 0.557312 0
M  V30 22602 O 2135.01 -3.52166 0.534537 0
M  V30 22603 O 2133.87 -5.43511 0.57079 0
M  V30 22604 H 2130.96 -0.82543 0.0509403 0
M  V30 22605 H 2133.51 -1.47636 0.83677 0
M  V30 22606 H 2132.28 -3.55575 1.63348 0
M  V30 22607 H 2131.9 -3.97589 -0.0292809 0
M  V30 22608 N 2132.9 -0.505757 -1.49264 0
M  V30 22609 C 2133.83 0.259368 -2.32055 0
M  V30 22610 C 2134.81 0.95808 -1.40552 0
M  V30 22611 O 2135.99 0.948562 -1.69458 0
M  V30 22612 C 2133.12 1.32138 -3.2118 0
M  V30 22613 C 2132.08 0.742267 -4.21514 0
M  V30 22614 C 2131.4 1.90515 -4.99608 0
M  V30 22615 C 2132.7 -0.269866 -5.21602 0
M  V30 22616 H 2134.4 -0.431697 -2.96271 0
M  V30 22617 H 2131.94 -0.209055 -1.42474 0
M  V30 22618 H 2133.9 1.86441 -3.77912 0
M  V30 22619 H 2132.62 2.0417 -2.54916 0
M  V30 22620 H 2131.28 0.220956 -3.65934 0
M  V30 22621 H 2130.93 2.61327 -4.29788 0
M  V30 22622 H 2130.63 1.52371 -5.67501 0
M  V30 22623 H 2132.15 2.45242 -5.59186 0
M  V30 22624 H 2133.57 0.18519 -5.73001 0
M  V30 22625 H 2131.96 -0.567397 -5.97412 0
M  V30 22626 H 2133.03 -1.18411 -4.7022 0
M  V30 22627 N 2134.38 1.55765 -0.239796 0
M  V30 22628 C 2135.62 1.99064 0.387489 0
M  V30 22629 C 2135.96 1.12765 1.58107 0
M  V30 22630 O 2135.23 0.189423 1.93575 0
M  V30 22631 C 2135.51 3.51003 0.80429 0
M  V30 22632 C 2135.37 4.48069 -0.394185 0
M  V30 22633 C 2136.69 4.07842 1.65386 0
M  V30 22634 H 2133.8 0.723702 0.139371 0
M  V30 22635 H 2136.45 1.86939 -0.339685 0
M  V30 22636 H 2134.6 3.61466 1.42388 0
M  V30 22637 H 2136.27 4.49595 -1.03255 0
M  V30 22638 H 2134.51 4.21186 -1.03852 0
M  V30 22639 H 2135.18 5.51968 -0.0593288 0
M  V30 22640 H 2137.66 4.00437 1.13092 0
M  V30 22641 H 2136.53 5.14435 1.91436 0
M  V30 22642 H 2136.8 3.55856 2.62333 0
M  V30 22643 N 2135.85 -0.0334016 1.57565 0
M  V30 22644 C 2137.1 -0.723651 1.887 0
M  V30 22645 C 2137.42 -1.76126 0.836929 0
M  V30 22646 O 2136.69 -1.95468 -0.12998 0
M  V30 22647 H 2135.27 -0.270263 0.696396 0
M  V30 22648 H 2137.94 -0.000381018 1.949 0
M  V30 22649 H 2137.03 -1.21594 2.87439 0
M  V30 22650 N 2137.33 -1.54609 -0.305591 0
M  V30 22651 C 2138.28 -1.85991 -1.39679 0
M  V30 22652 C 2139.27 -0.733256 -1.52708 0
M  V30 22653 O 2140.48 -0.917183 -1.5488 0
M  V30 22654 H 2136.86 -0.589836 -0.466474 0
M  V30 22655 H 2138.83 -2.77209 -1.10444 0
M  V30 22656 C 2137.58 -2.11986 -2.75604 0
M  V30 22657 H 2136.9 -2.9815 -2.66358 0
M  V30 22658 H 2138.34 -2.37886 -3.50979 0
M  V30 22659 C 2136.8 -0.916972 -3.24181 0
M  V30 22660 O 2137.33 -0.135175 -4.01472 0
M  V30 22661 N 2135.53 -0.723621 -2.81446 0
M  V30 22662 H 2135.08 -1.36103 -2.18709 0
M  V30 22663 H 2135.04 0.0796694 -3.14299 0
M  V30 22664 N 2138.81 0.568558 -1.46987 0
M  V30 22665 C 2140.06 1.32251 -1.52291 0
M  V30 22666 C 2140.37 1.94723 -0.184983 0
M  V30 22667 O 2141.58 2.71252 -0.115932 0
M  V30 22668 C 2140.03 2.3976 -2.68408 0
M  V30 22669 C 2139.64 1.83528 -4.08682 0
M  V30 22670 C 2141.39 3.16408 -2.82996 0
M  V30 22671 C 2139.29 2.88751 -5.16117 0
M  V30 22672 H 2138.22 0.497223 -0.56682 0
M  V30 22673 H 2140.87 0.605168 -1.73234 0
M  V30 22674 H 2139.26 3.14357 -2.40823 0
M  V30 22675 H 2140.43 1.1538 -4.46121 0
M  V30 22676 H 2138.75 1.19503 -3.98884 0
M  V30 22677 H 2141.34 3.94962 -3.60429 0
M  V30 22678 H 2141.69 3.69886 -1.91024 0
M  V30 22679 H 2142.22 2.4892 -3.10296 0
M  V30 22680 H 2138.96 2.40142 -6.09928 0
M  V30 22681 H 2138.48 3.55345 -4.83208 0
M  V30 22682 H 2140.16 3.52449 -5.42576 0
M  V30 22683 N 2140.29 1.34929 0.814366 0
M  V30 22684 C 2141.2 1.29305 1.95748 0
M  V30 22685 C 2142.21 0.199261 1.72855 0
M  V30 22686 O 2143.39 0.427261 1.96816 0
M  V30 22687 C 2140.46 1.05688 3.30198 0
M  V30 22688 C 2139.52 2.24305 3.6604 0
M  V30 22689 C 2138.75 2.01805 4.94075 0
M  V30 22690 O 2138.97 0.980584 5.61908 0
M  V30 22691 O 2137.91 2.88973 5.27995 0
M  V30 22692 H 2141.73 2.25492 2.03438 0
M  V30 22693 H 2139.32 1.15222 0.951017 0
M  V30 22694 H 2141.2 0.943332 4.10706 0
M  V30 22695 H 2139.87 0.125466 3.23457 0
M  V30 22696 H 2138.78 2.41222 2.85942 0
M  V30 22697 H 2140.11 3.15866 3.77478 0
M  V30 22698 N 2141.77 -1.0356 1.18799 0
M  V30 22699 C 2142.7 -2.11742 0.877379 0
M  V30 22700 C 2143.71 -1.62303 -0.127137 0
M  V30 22701 O 2144.9 -1.78212 0.10138 0
M  V30 22702 C 2142 -3.37653 0.290508 0
M  V30 22703 C 2141.17 -4.16306 1.34193 0
M  V30 22704 C 2140.23 -5.20538 0.769826 0
M  V30 22705 O 2139.26 -5.50531 1.44584 0
M  V30 22706 N 2140.46 -5.78904 -0.430185 0
M  V30 22707 H 2143.23 -2.3898 1.80855 0
M  V30 22708 H 2140.79 -1.19795 1.08907 0
M  V30 22709 H 2142.78 -4.04561 -0.105914 0
M  V30 22710 H 2141.35 -3.07816 -0.544797 0
M  V30 22711 H 2140.57 -3.44645 1.91347 0
M  V30 22712 H 2141.86 -4.65647 2.05062 0
M  V30 22713 H 2141.25 -5.56844 -0.997037 0
M  V30 22714 H 2139.81 -6.47254 -0.768466 0
M  V30 22715 N 2143.25 -0.990834 -1.22557 0
M  V30 22716 C 2144.19 -0.532274 -2.26428 0
M  V30 22717 C 2145.19 0.416012 -1.64212 0
M  V30 22718 O 2146.39 0.288758 -1.77669 0
M  V30 22719 H 2142.77 -0.153732 -0.736118 0
M  V30 22720 H 2144.74 -1.41981 -2.62457 0
M  V30 22721 C 2143.49 0.139451 -3.4742 0
M  V30 22722 H 2142.81 -0.581172 -3.95553 0
M  V30 22723 H 2144.25 0.42379 -4.21877 0
M  V30 22724 C 2142.71 1.37411 -3.07604 0
M  V30 22725 O 2143.24 2.4696 -3.16818 0
M  V30 22726 N 2141.45 1.2486 -2.62409 0
M  V30 22727 H 2140.99 0.357212 -2.55111 0
M  V30 22728 H 2140.95 2.07575 -2.36136 0
M  V30 22729 N 2144.72 1.37856 -0.763775 0
M  V30 22730 C 2145.63 2.3415 -0.145216 0
M  V30 22731 C 2146.65 1.59782 0.688888 0
M  V30 22732 O 2147.83 1.91919 0.610668 0
M  V30 22733 C 2144.89 3.38934 0.729718 0
M  V30 22734 C 2143.95 4.29132 -0.119926 0
M  V30 22735 C 2143.18 5.28911 0.713343 0
M  V30 22736 O 2143.41 5.36002 1.95086 0
M  V30 22737 O 2142.34 6.01767 0.126758 0
M  V30 22738 H 2146.17 2.88763 -0.940736 0
M  V30 22739 H 2143.75 1.39879 -0.524814 0
M  V30 22740 H 2145.63 4.03066 1.22946 0
M  V30 22741 H 2144.31 2.86661 1.50356 0
M  V30 22742 H 2143.22 3.68127 -0.665843 0
M  V30 22743 H 2144.55 4.84688 -0.856664 0
M  V30 22744 N 2146.2 0.513665 1.48994 0
M  V30 22745 C 2147.15 -0.277482 2.26305 0
M  V30 22746 C 2148.14 -0.924386 1.31696 0
M  V30 22747 O 2149.33 -0.82989 1.56339 0
M  V30 22748 C 2146.46 -1.33373 3.16333 0
M  V30 22749 C 2145.54 -0.692431 4.18409 0
M  V30 22750 N 2145.93 0.212349 5.05354 0
M  V30 22751 C 2144.23 -0.951551 4.35731 0
M  V30 22752 C 2144.93 0.580703 5.78794 0
M  V30 22753 N 2143.91 -0.0543856 5.43573 0
M  V30 22754 H 2147.71 0.418832 2.909 0
M  V30 22755 H 2145.22 0.330585 1.59 0
M  V30 22756 H 2147.22 -1.91407 3.70363 0
M  V30 22757 H 2145.88 -2.03159 2.53292 0
M  V30 22758 H 2146.89 0.583957 5.14597 0
M  V30 22759 H 2143.57 -1.64121 3.83889 0
M  V30 22760 H 2144.96 1.32165 6.58773 0
M  V30 22761 N 2147.68 -1.55636 0.248053 0
M  V30 22762 C 2148.9 -2.03825 -0.383439 0
M  V30 22763 C 2149.33 -1.12611 -1.50666 0
M  V30 22764 O 2148.69 -0.119296 -1.80907 0
M  V30 22765 C 2148.74 -3.5001 -0.86748 0
M  V30 22766 O 2147.84 -3.61925 -1.97696 0
M  V30 22767 H 2147.18 -0.65874 -0.0834089 0
M  V30 22768 H 2149.71 -2.01144 0.374447 0
M  V30 22769 H 2149.72 -3.90853 -1.17039 0
M  V30 22770 H 2148.4 -4.15875 -0.0455341 0
M  V30 22771 H 2146.97 -3.3298 -1.67866 0
M  V30 22772 N 2149.16 0.0250451 -1.5758 0
M  V30 22773 C 2150.4 0.716105 -1.89736 0
M  V30 22774 C 2150.74 1.7479 -0.846284 0
M  V30 22775 O 2150.01 1.94009 0.138165 0
M  V30 22776 C 2150.29 1.38201 -3.32524 0
M  V30 22777 C 2150.15 0.363457 -4.48329 0
M  V30 22778 C 2151.47 2.31493 -3.74298 0
M  V30 22779 H 2148.59 0.258862 -0.690043 0
M  V30 22780 H 2151.23 -0.0211043 -1.89988 0
M  V30 22781 H 2149.38 2.01037 -3.3244 0
M  V30 22782 H 2151.05 -0.263295 -4.60548 0
M  V30 22783 H 2149.29 -0.316859 -4.32641 0
M  V30 22784 H 2149.96 0.867948 -5.45134 0
M  V30 22785 H 2152.44 1.78697 -3.75774 0
M  V30 22786 H 2151.32 2.75065 -4.75006 0
M  V30 22787 H 2151.58 3.1834 -3.06777 0
M  V30 22788 N 2150.64 1.54769 0.297388 0
M  V30 22789 C 2151.88 1.7343 1.0298 0
M  V30 22790 C 2152.2 0.529189 1.88305 0
M  V30 22791 O 2153.4 0.597687 2.64839 0
M  V30 22792 C 2151.86 3.06854 1.88065 0
M  V30 22793 C 2151.47 4.34856 1.07724 0
M  V30 22794 C 2153.21 3.34873 2.60883 0
M  V30 22795 C 2151.12 5.59329 1.92107 0
M  V30 22796 H 2150.05 0.646388 0.388199 0
M  V30 22797 H 2152.7 1.81248 0.286615 0
M  V30 22798 H 2151.08 2.93011 2.66385 0
M  V30 22799 H 2152.26 4.59544 0.339927 0
M  V30 22800 H 2150.57 4.13799 0.464715 0
M  V30 22801 H 2153.17 4.25071 3.24374 0
M  V30 22802 H 2153.51 2.5391 3.29902 0
M  V30 22803 H 2154.04 3.49704 1.8961 0
M  V30 22804 H 2150.78 6.4297 1.27551 0
M  V30 22805 H 2150.3 5.3882 2.63501 0
M  V30 22806 H 2151.98 5.96721 2.50067 0
M  V30 22807 O 2152.15 -0.443271 1.55298 0
M  V30 22808 H 2152.84 -1.09697 1.59644 0
M  V30 END ATOM
M  V30 BEGIN BOND
M  V30 END BOND
M  V30 END CTAB
M  END
$$$$
