drugbank_target|P22888 Lutropin-choriogonadotropic hormone receptor (DB00014; DB00032; DB00044; DB00050; DB00097; DB06719; DB09126)
 OpenBabel12092119253D

  0  0  0     0  0            999 V3000
M  V30 BEGIN CTAB
M  V30 COUNTS 11168 11291 0 0 0
M  V30 BEGIN ATOM
M  V30 1 H -0.908 1.98254 -0.117106 0
M  V30 2 N 0 1.576 0 0
M  V30 3 C 0.933 2.03868 1.02534 0
M  V30 4 C 1.911 0.928543 1.3348 0
M  V30 5 O 3.095 1.19667 1.45644 0
M  V30 6 C 0.222 2.43627 2.35294 0
M  V30 7 C -0.732 3.65373 2.2001 0
M  V30 8 S 0.101 5.13292 1.52614 0
M  V30 9 C 1.257 5.56322 2.86805 0
M  V30 10 H 1.49 2.90518 0.631377 0
M  V30 11 H -0.977 1.52953 0.210867 0
M  V30 12 H 0.981 2.67203 3.11629 0
M  V30 13 H -0.358 1.57376 2.7183 0
M  V30 14 H -1.165 3.90944 3.18086 0
M  V30 15 H -1.563 3.418 1.51819 0
M  V30 16 H 0.729 5.58782 3.83104 0
M  V30 17 H 1.672 6.56266 2.65933 0
M  V30 18 H 2.08 4.83886 2.90714 0
M  V30 19 N 1.4781 -0.272755 1.55222 0
M  V30 20 C 2.4251 -1.33716 1.88119 0
M  V30 21 C 3.3951 -1.49066 0.73271 0
M  V30 22 O 4.5801 -1.63469 0.984002 0
M  V30 23 C 1.7201 -2.69238 2.15882 0
M  V30 24 C 0.8331 -2.62108 3.43399 0
M  V30 25 C -0.0319 -3.89811 3.60861 0
M  V30 26 C -0.9929 -3.77193 4.8207 0
M  V30 27 N -1.8559 -4.9673 4.96189 0
M  V30 28 H 2.9841 -1.04962 2.78903 0
M  V30 29 H 0.5211 -0.507088 1.38083 0
M  V30 30 H 2.4791 -3.48089 2.29978 0
M  V30 31 H 1.1091 -2.96194 1.28331 0
M  V30 32 H 0.1611 -1.74967 3.37773 0
M  V30 33 H 1.4731 -2.48685 4.32386 0
M  V30 34 H 0.6271 -4.77103 3.74777 0
M  V30 35 H -0.6339 -4.06102 2.7006 0
M  V30 36 H -1.6289 -2.88284 4.68159 0
M  V30 37 H -0.4039 -3.62421 5.74307 0
M  V30 38 H -2.4579 -5.13431 4.08319 0
M  V30 39 H -2.5409 -4.85839 5.79221 0
M  V30 40 H -1.2729 -5.85594 5.1449 0
M  V30 41 N 2.9562 -1.48159 -0.537278 0
M  V30 42 C 3.8882 -1.58218 -1.65831 0
M  V30 43 C 4.9012 -0.466948 -1.5596 0
M  V30 44 O 6.0902 -0.73747 -1.62553 0
M  V30 45 C 3.1902 -1.48906 -3.04434 0
M  V30 46 C 2.3632 -2.75343 -3.3986 0
M  V30 47 C 1.4222 -2.59588 -4.57712 0
M  V30 48 O 0.4482 -3.33457 -4.61297 0
M  V30 49 N 1.6502 -1.68724 -5.55439 0
M  V30 50 H 4.4152 -2.54891 -1.57641 0
M  V30 51 H 1.9762 -1.4479 -0.724386 0
M  V30 52 H 3.9682 -1.36072 -3.81139 0
M  V30 53 H 2.5382 -0.602368 -3.06741 0
M  V30 54 H 1.7582 -3.02795 -2.52406 0
M  V30 55 H 3.0462 -3.5924 -3.60311 0
M  V30 56 H 2.4442 -1.07898 -5.55315 0
M  V30 57 H 1.0012 -1.61832 -6.3139 0
M  V30 58 N 4.4343 0.785586 -1.36625 0
M  V30 59 C 5.8503 1.08419 -1.17122 0
M  V30 60 C 6.0503 2.015 0.00208491 0
M  V30 61 O 5.1063 2.43551 0.666278 0
M  V30 62 C 6.4193 1.69498 -2.48377 0
M  V30 63 C 7.9673 1.81821 -2.54775 0
M  V30 64 C 8.4423 2.46315 -3.86126 0
M  V30 65 N 9.9333 2.53779 -3.87492 0
M  V30 66 C 10.6683 3.045 -4.85868 0
M  V30 67 N 10.1643 3.55499 -5.94637 0
M  V30 68 N 11.9573 3.03247 -4.73284 0
M  V30 69 H 4.1083 0.167264 -2.1174 0
M  V30 70 H 6.3713 0.13682 -0.938075 0
M  V30 71 H 6.0773 1.08571 -3.34522 0
M  V30 72 H 5.9513 2.6896 -2.64462 0
M  V30 73 H 8.3383 2.41884 -1.69045 0
M  V30 74 H 8.4193 0.811532 -2.42586 0
M  V30 75 H 8.0633 1.86895 -4.72263 0
M  V30 76 H 7.9933 3.47561 -3.95612 0
M  V30 77 H 10.4843 2.17672 -3.08913 0
M  V30 78 H 10.7973 3.92562 -6.65669 0
M  V30 79 H 9.1423 3.5364 -5.98301 0
M  V30 80 H 12.3333 2.62696 -3.87438 0
M  V30 81 H 12.5063 3.42467 -5.50109 0
M  V30 82 N 5.9124 1.20967 1.01018 0
M  V30 83 C 7.1594 1.02374 1.74716 0
M  V30 84 C 7.4874 -0.443375 1.89379 0
M  V30 85 O 6.7424 -1.34535 1.42123 0
M  V30 86 C 7.0414 1.65997 3.16512 0
M  V30 87 C 6.7074 3.15831 3.2181 0
M  V30 88 C 5.3694 3.56719 3.22963 0
M  V30 89 C 7.7214 4.11816 3.19464 0
M  V30 90 C 5.0494 4.92107 3.19449 0
M  V30 91 C 7.4014 5.47158 3.17491 0
M  V30 92 C 6.0654 5.87451 3.16951 0
M  V30 93 H 5.3354 0.374614 0.639332 0
M  V30 94 H 7.9824 1.50485 1.18434 0
M  V30 95 H 6.2874 1.10166 3.75993 0
M  V30 96 H 7.9844 1.49119 3.72242 0
M  V30 97 H 4.5744 2.83263 3.21652 0
M  V30 98 H 8.7584 3.81257 3.17737 0
M  V30 99 H 4.0144 5.22579 3.17366 0
M  V30 100 H 8.1884 6.21274 3.14629 0
M  V30 101 H 5.8154 6.92329 3.13983 0
M  V30 102 N 7.3905 -1.2043 1.01659 0
M  V30 103 C 8.6155 -1.94318 0.724942 0
M  V30 104 C 9.0405 -1.74266 -0.708034 0
M  V30 105 O 8.3985 -1.03694 -1.48719 0
M  V30 106 C 8.4465 -3.44486 1.06591 0
M  V30 107 O 7.5505 -4.12017 0.177599 0
M  V30 108 H 6.8915 -0.60708 0.26898 0
M  V30 109 H 9.4215 -1.52861 1.35995 0
M  V30 110 H 9.4315 -3.95106 1.01762 0
M  V30 111 H 8.1065 -3.58404 2.10997 0
M  V30 112 H 6.6835 -3.71821 0.283421 0
M  V30 113 N 8.8686 -0.792821 -1.36206 0
M  V30 114 C 9.8316 -0.199459 -2.2833 0
M  V30 115 C 10.8316 0.605189 -1.48977 0
M  V30 116 O 12.0216 0.425685 -1.68919 0
M  V30 117 C 9.1536 0.723523 -3.33134 0
M  V30 118 H 10.3466 -1.01181 -2.82316 0
M  V30 119 H 7.8996 -0.562485 -1.45828 0
M  V30 120 H 8.6346 1.56008 -2.84309 0
M  V30 121 H 8.4196 0.148436 -3.91819 0
M  V30 122 H 9.9096 1.13344 -4.01924 0
M  V30 123 N 10.3467 1.47872 -0.545128 0
M  V30 124 C 11.2767 2.32661 0.197793 0
M  V30 125 C 12.2577 1.43041 0.920504 0
M  V30 126 O 13.4427 1.71912 0.90333 0
M  V30 127 C 10.5727 3.24569 1.23582 0
M  V30 128 C 9.5267 4.23333 0.630323 0
M  V30 129 C 8.8527 5.0448 1.77211 0
M  V30 130 C 10.1527 5.20704 -0.407974 0
M  V30 131 H 11.8467 2.95024 -0.510045 0
M  V30 132 H 9.3927 1.4187 -0.246731 0
M  V30 133 H 11.3457 3.8272 1.76362 0
M  V30 134 H 10.0697 2.60236 1.97344 0
M  V30 135 H 8.7287 3.6639 0.123922 0
M  V30 136 H 8.3767 4.36561 2.49847 0
M  V30 137 H 8.0767 5.71339 1.37281 0
M  V30 138 H 9.6007 5.65487 2.3034 0
M  V30 139 H 11.0147 5.7329 0.033305 0
M  V30 140 H 9.4117 5.95699 -0.725486 0
M  V30 141 H 10.4817 4.66917 -1.30828 0
M  V30 142 N 11.8248 0.280983 1.55075 0
M  V30 143 C 12.7568 -0.637268 2.20163 0
M  V30 144 C 13.7698 -1.11298 1.18813 0
M  V30 145 O 14.9588 -1.03388 1.4551 0
M  V30 146 C 12.0588 -1.88199 2.81841 0
M  V30 147 C 11.2318 -1.55211 4.08936 0
M  V30 148 C 10.2908 -2.64991 4.54606 0
M  V30 149 O 9.3168 -2.30929 5.2025 0
M  V30 150 N 10.5188 -3.95161 4.25238 0
M  V30 151 H 13.2838 -0.0801694 2.99593 0
M  V30 152 H 10.8448 0.102329 1.61576 0
M  V30 153 H 12.8368 -2.60948 3.09335 0
M  V30 154 H 11.4068 -2.34799 2.06369 0
M  V30 155 H 10.6268 -0.658185 3.88666 0
M  V30 156 H 11.9148 -1.30681 4.91732 0
M  V30 157 H 11.3128 -4.25653 3.72607 0
M  V30 158 H 9.8698 -4.6427 4.5749 0
M  V30 159 N 13.3029 -1.57598 0.00835791 0
M  V30 160 C 14.2329 -2.1198 -0.979113 0
M  V30 161 C 15.2139 -1.03091 -1.35301 0
M  V30 162 O 16.3989 -1.30818 -1.43528 0
M  V30 163 C 13.5289 -2.62995 -2.26828 0
M  V30 164 C 12.4829 -3.76485 -2.03576 0
M  V30 165 C 11.8089 -4.13846 -3.38579 0
M  V30 166 C 13.1089 -5.0342 -1.39161 0
M  V30 167 H 14.8029 -2.94738 -0.526281 0
M  V30 168 H 12.3489 -1.41783 -0.251704 0
M  V30 169 H 14.3019 -2.99669 -2.96271 0
M  V30 170 H 13.0259 -1.7737 -2.7424 0
M  V30 171 H 11.6849 -3.40217 -1.36557 0
M  V30 172 H 11.3329 -3.25232 -3.83709 0
M  V30 173 H 11.0329 -4.90312 -3.23834 0
M  V30 174 H 12.5569 -4.53086 -4.09323 0
M  V30 175 H 13.9709 -5.37812 -1.98573 0
M  V30 176 H 12.3679 -5.84746 -1.34878 0
M  V30 177 H 13.4379 -4.83548 -0.361868 0
M  V30 178 N 14.781 0.264519 -1.55364 0
M  V30 179 C 15.711 1.33121 -1.91836 0
M  V30 180 C 16.692 1.51101 -0.781192 0
M  V30 181 O 17.877 1.64003 -1.04003 0
M  V30 182 C 15.007 2.68921 -2.19769 0
M  V30 183 C 13.961 2.65661 -3.35571 0
M  V30 184 C 13.287 4.05093 -3.49004 0
M  V30 185 C 14.587 2.24187 -4.71739 0
M  V30 186 H 16.281 1.02844 -2.81182 0
M  V30 187 H 13.827 0.493286 -1.35287 0
M  V30 188 H 15.78 3.43663 -2.43872 0
M  V30 189 H 14.504 3.00799 -1.27231 0
M  V30 190 H 13.163 1.93377 -3.1145 0
M  V30 191 H 12.811 4.34206 -2.53917 0
M  V30 192 H 12.511 4.03804 -4.26868 0
M  V30 193 H 14.035 4.81561 -3.75408 0
M  V30 194 H 15.449 2.88654 -4.9533 0
M  V30 195 H 13.846 2.34044 -5.52579 0
M  V30 196 H 14.916 1.19327 -4.69988 0
M  V30 197 N 16.2591 1.48442 0.529413 0
M  V30 198 C 17.2061 1.63007 1.63394 0
M  V30 199 C 18.1761 0.47212 1.59249 0
M  V30 200 O 19.3611 0.695673 1.77666 0
M  V30 201 C 16.5011 1.6763 3.01653 0
M  V30 202 C 15.6141 2.94535 3.16027 0
M  V30 203 C 14.7491 2.90316 4.44849 0
M  V30 204 C 13.7881 4.11923 4.52754 0
M  V30 205 N 12.9251 4.05777 5.72965 0
M  V30 206 H 17.7651 2.5733 1.50285 0
M  V30 207 H 15.3021 1.27613 0.731656 0
M  V30 208 H 17.2601 1.68292 3.81751 0
M  V30 209 H 15.8901 0.76797 3.13532 0
M  V30 210 H 14.9421 3.03615 2.29177 0
M  V30 211 H 16.2541 3.84512 3.17729 0
M  V30 212 H 15.4081 2.89382 5.33238 0
M  V30 213 H 14.1471 1.98068 4.45668 0
M  V30 214 H 13.1521 4.13131 3.62771 0
M  V30 215 H 14.3771 5.0533 4.53672 0
M  V30 216 H 12.3231 3.16351 5.74681 0
M  V30 217 H 12.2401 4.8946 5.76164 0
M  V30 218 H 13.5081 4.08904 6.6364 0
M  V30 219 N 17.7372 -0.778329 1.37039 0
M  V30 220 C 18.6672 -1.90546 1.34962 0
M  V30 221 C 19.6482 -1.68681 0.219274 0
M  V30 222 O 20.8332 -1.89634 0.418624 0
M  V30 223 C 17.9632 -3.27734 1.14925 0
M  V30 224 C 16.9172 -3.64147 2.24902 0
M  V30 225 C 16.2432 -4.99806 1.89996 0
M  V30 226 C 17.5432 -3.71579 3.67051 0
M  V30 227 H 19.2372 -1.92541 2.29277 0
M  V30 228 H 16.7832 -0.924948 1.10366 0
M  V30 229 H 18.7362 -4.06215 1.12104 0
M  V30 230 H 17.4602 -3.26154 0.170631 0
M  V30 231 H 16.1192 -2.8797 2.26868 0
M  V30 232 H 15.7672 -4.94759 0.906796 0
M  V30 233 H 15.4672 -5.25139 2.63634 0
M  V30 234 H 16.9912 -5.80694 1.88749 0
M  V30 235 H 18.4052 -4.40227 3.67251 0
M  V30 236 H 16.8022 -4.08405 4.39688 0
M  V30 237 H 17.8722 -2.72404 4.01154 0
M  V30 238 N 19.2153 -1.21501 -1.00376 0
M  V30 239 C 20.1453 -0.999478 -2.11028 0
M  V30 240 C 21.1263 0.0759671 -1.6993 0
M  V30 241 O 22.3113 -0.0841106 -1.94018 0
M  V30 242 C 19.4413 -0.564709 -3.42678 0
M  V30 243 C 18.3953 -1.58486 -3.97576 0
M  V30 244 C 17.7213 -1.00628 -5.25146 0
M  V30 245 C 19.0213 -2.97204 -4.29496 0
M  V30 246 H 20.7153 -1.92495 -2.29317 0
M  V30 247 H 18.2613 -0.92693 -1.102 0
M  V30 248 H 20.2143 -0.401091 -4.19487 0
M  V30 249 H 18.9383 0.396411 -3.24185 0
M  V30 250 H 17.5973 -1.73606 -3.22888 0
M  V30 251 H 17.2453 -0.0368439 -5.02987 0
M  V30 252 H 16.9453 -1.68771 -5.62841 0
M  V30 253 H 18.4693 -0.854015 -6.04598 0
M  V30 254 H 19.8833 -2.8552 -4.97143 0
M  V30 255 H 18.2803 -3.62372 -4.78338 0
M  V30 256 H 19.3503 -3.47956 -3.3772 0
M  V30 257 N 20.6934 1.19889 -1.02296 0
M  V30 258 C 21.6234 2.25141 -0.619174 0
M  V30 259 C 22.6044 1.66051 0.368915 0
M  V30 260 O 23.7894 1.92546 0.252941 0
M  V30 261 C 20.9194 3.4728 0.0368783 0
M  V30 262 C 19.8734 4.19005 -0.872865 0
M  V30 263 C 19.1994 5.34637 -0.0822402 0
M  V30 264 C 20.4994 4.74452 -2.18387 0
M  V30 265 H 22.1934 2.59171 -1.49903 0
M  V30 266 H 19.7394 1.24579 -0.722222 0
M  V30 267 H 21.6924 4.20098 0.330958 0
M  V30 268 H 20.4164 3.12433 0.95149 0
M  V30 269 H 19.0754 3.48061 -1.15105 0
M  V30 270 H 18.7234 4.96034 0.83422 0
M  V30 271 H 18.4234 5.83557 -0.688149 0
M  V30 272 H 19.9474 6.10255 0.205238 0
M  V30 273 H 21.3614 5.39055 -1.95172 0
M  V30 274 H 19.7584 5.33834 -2.74119 0
M  V30 275 H 20.8284 3.92844 -2.84257 0
M  V30 276 N 22.1715 0.800033 1.35784 0
M  V30 277 C 23.1015 0.220184 2.3246 0
M  V30 278 C 24.0825 -0.65073 1.57161 0
M  V30 279 O 25.2675 -0.582359 1.85263 0
M  V30 280 C 22.3975 -0.637353 3.41402 0
M  V30 281 C 21.3515 0.134531 4.27789 0
M  V30 282 C 20.6775 -0.844285 5.27992 0
M  V30 283 C 21.9775 1.32979 5.05088 0
M  V30 284 H 23.6715 1.02787 2.81203 0
M  V30 285 H 21.2175 0.495717 1.35199 0
M  V30 286 H 23.1705 -1.05302 4.08031 0
M  V30 287 H 21.8945 -1.47785 2.91251 0
M  V30 288 H 20.5535 0.531296 3.6273 0
M  V30 289 H 20.2015 -1.68011 4.74111 0
M  V30 290 H 19.9015 -0.332184 5.8666 0
M  V30 291 H 21.4255 -1.2583 5.97494 0
M  V30 292 H 22.8395 0.98934 5.64699 0
M  V30 293 H 21.2365 1.77593 5.7322 0
M  V30 294 H 22.3065 2.11978 4.36111 0
M  V30 295 N 23.6496 -1.47581 0.552962 0
M  V30 296 C 24.5796 -2.32762 -0.185451 0
M  V30 297 C 25.5606 -1.43527 -0.912905 0
M  V30 298 O 26.7456 -1.72388 -0.894201 0
M  V30 299 C 23.8756 -3.25219 -1.21859 0
M  V30 300 C 22.8296 -4.23661 -0.607864 0
M  V30 301 C 22.1556 -5.05413 -1.74533 0
M  V30 302 C 23.4556 -5.20481 0.435582 0
M  V30 303 H 25.1496 -2.94749 0.525684 0
M  V30 304 H 22.6956 -1.41738 0.254251 0
M  V30 305 H 24.6486 -3.8365 -1.7433 0
M  V30 306 H 23.3726 -2.61279 -1.95961 0
M  V30 307 H 22.0316 -3.66451 -0.104489 0
M  V30 308 H 21.6796 -4.3788 -2.47529 0
M  V30 309 H 21.3796 -5.72059 -1.34249 0
M  V30 310 H 22.9036 -5.66701 -2.27338 0
M  V30 311 H 24.3176 -5.733 -0.00290157 0
M  V30 312 H 22.7146 -5.95305 0.757067 0
M  V30 313 H 23.7846 -4.66217 1.33303 0
M  V30 314 N 25.1277 -0.289203 -1.54924 0
M  V30 315 C 26.0597 0.625583 -2.20497 0
M  V30 316 C 27.0727 1.10667 -1.19402 0
M  V30 317 O 28.2617 1.02615 -1.46056 0
M  V30 318 C 25.3617 1.86702 -2.82835 0
M  V30 319 C 24.5347 1.5304 -4.09753 0
M  V30 320 C 23.5937 2.62576 -4.56005 0
M  V30 321 O 22.6197 2.28167 -5.21468 0
M  V30 322 N 23.8217 3.92901 -4.27328 0
M  V30 323 H 26.5867 0.0642801 -2.99631 0
M  V30 324 H 24.1477 -0.110896 -1.6152 0
M  V30 325 H 26.1397 2.59304 -3.10715 0
M  V30 326 H 24.7097 2.33702 -2.07611 0
M  V30 327 H 23.9297 0.637564 -3.8901 0
M  V30 328 H 25.2177 1.28072 -4.92418 0
M  V30 329 H 24.6157 4.23671 -3.74859 0
M  V30 330 H 23.1727 4.61837 -4.59946 0
M  V30 331 N 26.6058 1.57591 -0.0167156 0
M  V30 332 C 28.0168 1.79201 0.523834 0
M  V30 333 C 28.3678 0.925796 1.72984 0
M  V30 334 O 27.4928 0.132792 2.15992 0
M  V30 335 C 28.0878 3.25 0.957091 0
M  V30 336 C 26.6468 3.47648 1.44283 0
M  V30 337 C 25.7938 2.74374 0.401757 0
M  V30 338 H 28.7448 1.56831 -0.242816 0
M  V30 339 H 28.7658 3.34031 1.82219 0
M  V30 340 H 28.2778 3.88019 0.0791415 0
M  V30 341 H 26.3788 2.89866 2.34113 0
M  V30 342 H 26.4918 4.56352 1.45877 0
M  V30 343 H 24.8558 2.39485 0.867121 0
M  V30 344 H 25.6388 3.40102 -0.467513 0
M  V30 345 N 28.0839 -0.256276 1.55502 0
M  V30 346 C 29.4949 -0.826068 1.67431 0
M  V30 347 C 29.8459 -1.86396 0.612446 0
M  V30 348 O 28.9709 -2.15031 -0.243025 0
M  V30 349 C 29.5659 -1.50512 3.03532 0
M  V30 350 C 28.1249 -2.02273 3.17431 0
M  V30 351 C 27.2719 -0.870548 2.63281 0
M  V30 352 H 30.2229 -0.0322728 1.58667 0
M  V30 353 H 30.2439 -2.37279 2.97454 0
M  V30 354 H 29.7559 -0.749484 3.80794 0
M  V30 355 H 27.8569 -2.80746 2.44974 0
M  V30 356 H 27.9699 -2.22655 4.24219 0
M  V30 357 H 26.3339 -1.26851 2.20864 0
M  V30 358 H 27.1169 -0.128149 3.43061 0
M  V30 359 N 29.562 -1.4872 -0.521534 0
M  V30 360 C 30.492 -1.66771 -1.63431 0
M  V30 361 C 31.473 -0.516499 -1.62069 0
M  V30 362 O 32.658 -0.750013 -1.79132 0
M  V30 363 C 29.788 -1.71515 -3.01993 0
M  V30 364 C 28.742 -2.86222 -3.18216 0
M  V30 365 C 28.068 -2.76061 -4.57924 0
M  V30 366 C 29.368 -4.27419 -3.00184 0
M  V30 367 H 31.062 -2.59932 -1.48579 0
M  V30 368 H 28.608 -1.25089 -0.713358 0
M  V30 369 H 30.561 -1.82731 -3.7972 0
M  V30 370 H 29.285 -0.749393 -3.17886 0
M  V30 371 H 27.944 -2.74575 -2.42908 0
M  V30 372 H 27.592 -1.77437 -4.70665 0
M  V30 373 H 27.292 -3.53037 -4.69722 0
M  V30 374 H 28.816 -2.89256 -5.37739 0
M  V30 375 H 30.23 -4.39855 -3.67697 0
M  V30 376 H 28.627 -5.05458 -3.2347 0
M  V30 377 H 29.697 -4.43293 -1.96518 0
M  V30 378 N 31.0401 0.771051 -1.3745 0
M  V30 379 C 32.4511 1.34737 -1.29239 0
M  V30 380 C 32.8021 1.96109 0.0596908 0
M  V30 381 O 31.9271 1.93865 0.961534 0
M  V30 382 C 32.5221 2.44973 -2.34037 0
M  V30 383 C 31.0811 2.98372 -2.29458 0
M  V30 384 C 30.2281 1.71595 -2.17831 0
M  V30 385 H 33.1791 0.571256 -1.48062 0
M  V30 386 H 33.2001 3.24471 -1.98744 0
M  V30 387 H 32.7121 2.00276 -3.32432 0
M  V30 388 H 30.8131 3.47443 -1.34589 0
M  V30 389 H 30.9261 3.53939 -3.229 0
M  V30 390 H 29.2901 1.94547 -1.64388 0
M  V30 391 H 30.0731 1.29001 -3.18141 0
M  V30 392 N 32.5182 1.22032 0.997298 0
M  V30 393 C 33.9342 0.979326 1.26021 0
M  V30 394 C 34.1342 -0.32972 1.98784 0
M  V30 395 O 33.1902 -1.05345 2.29475 0
M  V30 396 C 34.5032 2.17509 2.07631 0
M  V30 397 C 36.0512 2.21817 2.2083 0
M  V30 398 C 36.5262 3.40933 3.05825 0
M  V30 399 N 38.0172 3.41067 3.13412 0
M  V30 400 C 38.7522 4.29885 3.79455 0
M  V30 401 N 38.2482 5.28914 4.47462 0
M  V30 402 N 40.0412 4.17673 3.76173 0
M  V30 403 H 32.1922 2.06202 0.509352 0
M  V30 404 H 34.4552 0.90334 0.287541 0
M  V30 405 H 34.1612 3.12415 1.61524 0
M  V30 406 H 34.0352 2.17206 3.08385 0
M  V30 407 H 36.4222 1.27462 2.66153 0
M  V30 408 H 36.5032 2.2616 1.1952 0
M  V30 409 H 36.1472 4.35586 2.61203 0
M  V30 410 H 36.0772 3.33829 4.07266 0
M  V30 411 H 38.5682 2.69406 2.65007 0
M  V30 412 H 38.8812 5.92973 4.95583 0
M  V30 413 H 37.2262 5.32831 4.46224 0
M  V30 414 H 40.4172 3.39564 3.22202 0
M  V30 415 H 40.5902 4.87098 4.27363 0
M  V30 416 N 33.9963 -1.19345 1.0293 0
M  V30 417 C 34.9593 -2.20793 0.615069 0
M  V30 418 C 35.9593 -1.57553 -0.321533 0
M  V30 419 O 37.1493 -1.73862 -0.108483 0
M  V30 420 C 34.2813 -3.40754 -0.0999222 0
M  V30 421 H 35.4743 -2.58955 1.51269 0
M  V30 422 H 33.0273 -1.3303 0.820534 0
M  V30 423 H 33.7623 -3.0811 -1.01187 0
M  V30 424 H 33.5473 -3.87889 0.57309 0
M  V30 425 H 35.0373 -4.15898 -0.376645 0
M  V30 426 N 35.4744 -0.807222 -1.35358 0
M  V30 427 C 36.4044 -0.232509 -2.3234 0
M  V30 428 C 37.3854 0.642386 -1.57504 0
M  V30 429 O 38.5704 0.572526 -1.85569 0
M  V30 430 C 35.7004 0.619238 -3.41735 0
M  V30 431 C 34.6544 -0.157215 -4.27711 0
M  V30 432 C 33.9804 0.816273 -5.28433 0
M  V30 433 C 35.2804 -1.35656 -5.04376 0
M  V30 434 H 36.9744 -1.04276 -2.80654 0
M  V30 435 H 34.5204 -0.50288 -1.34934 0
M  V30 436 H 36.4734 1.03137 -4.08584 0
M  V30 437 H 35.1974 1.46239 -2.92031 0
M  V30 438 H 33.8564 -0.550525 -3.62443 0
M  V30 439 H 33.5044 1.65494 -4.74996 0
M  V30 440 H 33.2044 0.301067 -5.86828 0
M  V30 441 H 34.7284 1.22659 -5.98153 0
M  V30 442 H 36.1424 -1.01927 -5.64166 0
M  V30 443 H 34.5394 -1.8063 -5.7227 0
M  V30 444 H 35.6094 -2.14288 -4.34981 0
M  V30 445 N 36.9525 1.47285 -0.560781 0
M  V30 446 C 38.3685 1.58065 -0.22081 0
M  V30 447 C 38.5685 1.55892 1.27671 0
M  V30 448 O 37.6245 1.46422 2.0571 0
M  V30 449 C 38.9375 2.88418 -0.850625 0
M  V30 450 C 40.4855 3.02009 -0.822184 0
M  V30 451 C 40.9605 4.35066 -1.43113 0
M  V30 452 N 42.4515 4.41711 -1.39448 0
M  V30 453 C 43.1865 5.43237 -1.83525 0
M  V30 454 N 42.6825 6.51555 -2.35474 0
M  V30 455 N 44.4755 5.34304 -1.74574 0
M  V30 456 H 36.6265 1.46941 -1.53369 0
M  V30 457 H 38.8895 0.699558 -0.639783 0
M  V30 458 H 38.5955 2.95755 -1.9032 0
M  V30 459 H 38.4695 3.75612 -0.345773 0
M  V30 460 H 40.8565 2.94266 0.221714 0
M  V30 461 H 40.9375 2.16347 -1.36483 0
M  V30 462 H 40.5815 4.43565 -2.47412 0
M  V30 463 H 40.5115 5.19465 -0.863899 0
M  V30 464 H 43.0025 3.64027 -1.01452 0
M  V30 465 H 43.3155 7.25203 -2.67021 0
M  V30 466 H 41.6605 6.52435 -2.39487 0
M  V30 467 H 44.8515 4.48581 -1.33763 0
M  V30 468 H 45.0245 6.13288 -2.09242 0
M  V30 469 N 38.4306 0.297415 1.54768 0
M  V30 470 C 39.3406 -0.58983 2.27064 0
M  V30 471 C 40.3566 -1.15144 1.30453 0
M  V30 472 O 41.5326 -1.17699 1.63428 0
M  V30 473 C 38.5976 -1.74714 2.9946 0
M  V30 474 C 37.6586 -1.21997 4.11601 0
M  V30 475 C 36.8916 -2.32212 4.80535 0
M  V30 476 O 37.1146 -3.52036 4.48806 0
M  V30 477 O 36.0486 -1.99106 5.68014 0
M  V30 478 H 39.8746 -0.00348199 3.037 0
M  V30 479 H 37.4596 0.0640035 1.49263 0
M  V30 480 H 39.3416 -2.42147 3.44881 0
M  V30 481 H 38.0166 -2.32016 2.25722 0
M  V30 482 H 36.9236 -0.511458 3.70587 0
M  V30 483 H 38.2566 -0.692419 4.87305 0
M  V30 484 N 39.9087 -1.5758 0.0250728 0
M  V30 485 C 40.8717 -2.08896 -0.943139 0
M  V30 486 C 41.8717 -1.00321 -1.25668 0
M  V30 487 O 43.0617 -1.26495 -1.19769 0
M  V30 488 C 40.1937 -2.55143 -2.26086 0
M  V30 489 H 41.3867 -2.95723 -0.498775 0
M  V30 490 H 38.9397 -1.54703 -0.222888 0
M  V30 491 H 39.6747 -1.71633 -2.75159 0
M  V30 492 H 39.4597 -3.34461 -2.04641 0
M  V30 493 H 40.9497 -2.95083 -2.95492 0
M  V30 494 N 41.3868 0.248026 -1.55636 0
M  V30 495 C 42.3168 1.31079 -1.93237 0
M  V30 496 C 43.2978 1.50264 -0.797174 0
M  V30 497 O 44.4828 1.62891 -1.05737 0
M  V30 498 C 41.6128 2.66575 -2.22609 0
M  V30 499 C 40.5668 2.62087 -3.3837 0
M  V30 500 C 39.8928 4.01369 -3.53281 0
M  V30 501 C 41.1928 2.19171 -4.7409 0
M  V30 502 H 42.8868 0.998556 -2.82257 0
M  V30 503 H 40.4328 0.47891 -1.35803 0
M  V30 504 H 42.3858 3.41057 -2.47503 0
M  V30 505 H 41.1098 2.99432 -1.30414 0
M  V30 506 H 39.7688 1.90063 -3.13483 0
M  V30 507 H 39.4168 4.31489 -2.58508 0
M  V30 508 H 39.1168 3.99254 -4.31127 0
M  V30 509 H 40.6408 4.77552 -3.80495 0
M  V30 510 H 42.0548 2.83384 -4.98363 0
M  V30 511 H 40.4518 2.2817 -5.5503 0
M  V30 512 H 41.5218 1.14336 -4.71227 0
M  V30 513 N 42.8649 1.48995 0.513639 0
M  V30 514 C 44.1049 1.59452 1.27885 0
M  V30 515 C 44.4689 0.269479 1.90099 0
M  V30 516 O 45.6699 0.249139 2.67643 0
M  V30 517 C 43.9409 2.71277 2.32688 0
M  V30 518 S 45.4999 3.01604 3.18717 0
M  V30 519 H 42.3179 0.562565 0.434789 0
M  V30 520 H 44.9199 1.86595 0.583301 0
M  V30 521 H 43.6239 3.66089 1.8549 0
M  V30 522 H 43.1549 2.46086 3.06929 0
M  V30 523 H 45.1699 2.42155 4.331 0
M  V30 524 N 44.343 -0.763751 1.37857 0
M  V30 525 C 45.754 -1.3405 1.29952 0
M  V30 526 C 46.105 -1.96138 -0.0492898 0
M  V30 527 O 45.23 -1.94372 -0.951239 0
M  V30 528 C 45.825 -2.43729 2.35333 0
M  V30 529 C 44.384 -2.97151 2.31037 0
M  V30 530 C 43.531 -1.70438 2.18738 0
M  V30 531 H 46.482 -0.563396 1.48363 0
M  V30 532 H 46.503 -3.23412 2.00462 0
M  V30 533 H 46.015 -1.9851 3.33489 0
M  V30 534 H 44.116 -3.46724 1.3643 0
M  V30 535 H 44.229 -3.52221 3.24772 0
M  V30 536 H 42.593 -1.93673 1.65418 0
M  V30 537 H 43.376 -1.27312 3.18821 0
M  V30 538 N 45.8211 -1.22559 -0.990812 0
M  V30 539 C 46.7311 -1.01394 -2.11557 0
M  V30 540 C 47.7471 0.0383962 -1.73958 0
M  V30 541 O 48.9231 -0.154787 -2.00804 0
M  V30 542 C 45.9881 -0.596569 -3.41529 0
M  V30 543 C 45.0491 -1.72276 -3.93217 0
M  V30 544 C 44.2821 -1.32521 -5.16985 0
M  V30 545 O 44.5051 -0.204909 -5.70032 0
M  V30 546 O 43.4391 -2.14247 -5.62478 0
M  V30 547 H 47.2651 -1.95633 -2.32296 0
M  V30 548 H 44.8501 -1.01172 -1.0993 0
M  V30 549 H 46.7321 -0.374263 -4.19735 0
M  V30 550 H 45.4071 0.316939 -3.22145 0
M  V30 551 H 44.3141 -1.99961 -3.16174 0
M  V30 552 H 45.6471 -2.61421 -4.17037 0
M  V30 553 N 47.2992 1.18797 -1.03562 0
M  V30 554 C 48.7102 1.70322 -0.764676 0
M  V30 555 C 49.0612 1.82708 0.714996 0
M  V30 556 O 48.1862 1.50299 1.55689 0
M  V30 557 C 48.7812 3.09356 -1.38145 0
M  V30 558 C 47.3402 3.58114 -1.15895 0
M  V30 559 C 46.4872 2.34798 -1.4753 0
M  V30 560 H 49.4382 1.03543 -1.20268 0
M  V30 561 H 49.4592 3.72378 -0.781977 0
M  V30 562 H 48.9712 3.00309 -2.45837 0
M  V30 563 H 47.0722 3.72464 -0.100544 0
M  V30 564 H 47.1852 4.4184 -1.8524 0
M  V30 565 H 45.5492 2.38464 -0.894829 0
M  V30 566 H 46.3322 2.28375 -2.56319 0
M  V30 567 N 48.7773 0.814389 1.34928 0
M  V30 568 C 50.0173 0.404165 2.00364 0
M  V30 569 C 50.3813 -1.01166 1.63185 0
M  V30 570 O 51.5823 -1.52431 2.21401 0
M  V30 571 C 49.8533 0.590718 3.52484 0
M  V30 572 S 51.4123 0.272075 4.37956 0
M  V30 573 H 48.2303 0.15311 0.694319 0
M  V30 574 H 50.8323 1.05834 1.64376 0
M  V30 575 H 49.5363 1.62099 3.77031 0
M  V30 576 H 49.0673 -0.0785013 3.93322 0
M  V30 577 H 51.0823 -0.917405 4.87645 0
M  V30 578 N 50.2554 -1.46986 0.568584 0
M  V30 579 C 51.2034 -2.31858 -0.185649 0
M  V30 580 C 52.1974 -1.43624 -0.898249 0
M  V30 581 O 53.4034 -1.60327 -0.818242 0
M  V30 582 H 49.7784 -0.747866 -0.0787399 0
M  V30 583 H 51.7494 -2.93303 0.549191 0
M  V30 584 C 50.4984 -3.26513 -1.19519 0
M  V30 585 H 49.8214 -3.94377 -0.656285 0
M  V30 586 H 51.2614 -3.88707 -1.6936 0
M  V30 587 C 49.7204 -2.50847 -2.24894 0
M  V30 588 O 50.2504 -2.26119 -3.32014 0
M  V30 589 N 48.4564 -2.11656 -1.99124 0
M  V30 590 H 48.0034 -2.31966 -1.12024 0
M  V30 591 H 47.9614 -1.61347 -2.69842 0
M  V30 592 N 51.7335 -0.305618 -1.54608 0
M  V30 593 C 52.9735 0.303114 -2.0214 0
M  V30 594 C 53.3375 1.50737 -1.18921 0
M  V30 595 O 54.5385 2.18778 -1.56172 0
M  V30 596 C 52.8095 0.646332 -3.51507 0
M  V30 597 S 54.3685 1.23727 -4.20995 0
M  V30 598 H 51.1865 0.0927643 -0.704923 0
M  V30 599 H 53.7885 -0.434566 -1.90609 0
M  V30 600 H 52.4925 -0.238541 -4.09706 0
M  V30 601 H 52.0235 1.41468 -3.67084 0
M  V30 602 H 54.0385 2.52489 -4.27158 0
M  V30 603 N 53.2116 1.57565 -0.0334293 0
M  V30 604 C 54.4576 1.92262 0.645226 0
M  V30 605 C 54.7906 0.910543 1.71531 0
M  V30 606 O 54.0656 -0.066099 1.94388 0
M  V30 607 C 54.3486 3.37422 1.2577 0
M  V30 608 C 54.2016 4.49369 0.196891 0
M  V30 609 C 55.5206 3.82628 2.17449 0
M  V30 610 H 52.6396 0.699171 0.233085 0
M  V30 611 H 55.2816 1.89779 -0.0915694 0
M  V30 612 H 53.4316 3.39669 1.88566 0
M  V30 613 H 55.1036 4.59254 -0.433962 0
M  V30 614 H 53.3466 4.31168 -0.477137 0
M  V30 615 H 54.0176 5.47978 0.665124 0
M  V30 616 H 56.4936 3.82145 1.64634 0
M  V30 617 H 55.3696 4.84883 2.57254 0
M  V30 618 H 55.6306 3.18376 3.0674 0
M  V30 619 N 54.6897 -0.239769 1.55765 0
M  V30 620 C 56.1007 -0.808263 1.68297 0
M  V30 621 C 56.4517 -1.85736 0.632181 0
M  V30 622 O 55.5767 -2.15277 -0.220204 0
M  V30 623 C 56.1717 -1.47284 3.05111 0
M  V30 624 C 54.7307 -1.98895 3.19559 0
M  V30 625 C 53.8777 -0.842575 2.64189 0
M  V30 626 H 56.8287 -0.0154422 1.58692 0
M  V30 627 H 56.8497 -2.34111 2.99954 0
M  V30 628 H 56.3617 -0.709053 3.81568 0
M  V30 629 H 54.4627 -2.78132 2.47938 0
M  V30 630 H 54.5757 -2.18143 4.26556 0
M  V30 631 H 52.9397 -1.24501 2.22197 0
M  V30 632 H 53.7227 -0.0917552 3.43177 0
M  V30 633 N 56.1678 -1.49265 -0.50573 0
M  V30 634 C 57.4448 -1.49012 -1.26707 0
M  V30 635 C 57.8248 -0.215205 -2.1 0
M  V30 636 O 57.1728 0.802547 -2.13943 0
M  V30 637 C 57.3828 -2.7663 -2.12783 0
M  V30 638 C 58.7308 -3.25932 -2.72127 0
M  V30 639 O 59.7548 -2.77715 -2.23054 0
M  V30 640 O 58.6138 -4.09897 -3.61451 0
M  V30 641 H 55.7078 -0.596197 -0.57313 0
M  V30 642 H 58.2538 -1.61524 -0.52039 0
M  V30 643 H 57.0258 -3.60916 -1.5118 0
M  V30 644 H 56.6488 -2.66956 -2.94653 0
M  V30 645 N 57.6459 0.756429 -1.3826 0
M  V30 646 C 58.8939 1.51248 -1.34047 0
M  V30 647 C 59.2149 1.94875 0.0698372 0
M  V30 648 O 58.4849 1.67436 1.01696 0
M  V30 649 H 57.0649 0.561018 -0.493222 0
M  V30 650 H 59.7269 0.899347 -1.7291 0
M  V30 651 H 58.8229 2.40472 -1.98947 0
M  V30 652 N 59.124 1.23083 0.984299 0
M  V30 653 C 60.087 1.00979 2.05757 0
M  V30 654 C 61.087 -0.0269573 1.60777 0
M  V30 655 O 62.277 0.212403 1.729 0
M  V30 656 C 59.409 0.527072 3.36801 0
M  V30 657 H 60.602 1.9622 2.26799 0
M  V30 658 H 58.155 1.05072 1.15714 0
M  V30 659 H 58.89 -0.429294 3.21446 0
M  V30 660 H 58.675 1.27515 3.70786 0
M  V30 661 H 60.165 0.392942 4.15747 0
M  V30 662 N 60.6021 -1.18246 1.0419 0
M  V30 663 C 61.5321 -2.24127 0.654914 0
M  V30 664 C 62.5131 -1.66617 -0.342451 0
M  V30 665 O 63.6981 -1.92924 -0.222277 0
M  V30 666 C 60.8281 -3.47295 0.0183757 0
M  V30 667 C 59.7821 -4.17563 0.939414 0
M  V30 668 C 59.1081 -5.34438 0.167286 0
M  V30 669 C 60.4081 -4.70917 2.25908 0
M  V30 670 H 62.1021 -2.56753 1.54007 0
M  V30 671 H 59.6481 -1.23414 0.74195 0
M  V30 672 H 61.6011 -4.20572 -0.264082 0
M  V30 673 H 60.3251 -3.13907 -0.901664 0
M  V30 674 H 58.9841 -3.46186 1.20628 0
M  V30 675 H 58.6321 -4.97298 -0.7552 0
M  V30 676 H 58.3321 -5.82388 0.780901 0
M  V30 677 H 59.8561 -6.10504 -0.108125 0
M  V30 678 H 61.2701 -5.35882 2.03724 0
M  V30 679 H 59.6671 -5.29406 2.82577 0
M  V30 680 H 60.7371 -3.88272 2.9047 0
M  V30 681 N 62.0802 -0.821533 -1.34494 0
M  V30 682 C 63.4962 -0.507117 -1.51329 0
M  V30 683 C 63.6962 0.968964 -1.76673 0
M  V30 684 O 62.7522 1.75348 -1.81685 0
M  V30 685 C 64.0652 -1.36544 -2.67911 0
M  V30 686 C 65.6132 -1.36242 -2.81793 0
M  V30 687 C 66.0882 -2.2052 -4.01416 0
M  V30 688 N 67.5792 -2.18136 -4.08621 0
M  V30 689 C 68.3142 -2.80095 -5.00334 0
M  V30 690 N 67.8102 -3.51039 -5.9728 0
M  V30 691 N 69.6032 -2.69656 -4.93196 0
M  V30 692 H 61.7542 -1.77729 -1.16302 0
M  V30 693 H 64.0172 -0.757291 -0.570276 0
M  V30 694 H 63.7232 -2.41361 -2.55808 0
M  V30 695 H 63.5972 -1.02917 -3.62888 0
M  V30 696 H 65.9842 -0.322041 -2.93338 0
M  V30 697 H 66.0652 -1.73866 -1.87628 0
M  V30 698 H 65.7092 -3.24607 -3.90631 0
M  V30 699 H 65.6392 -1.80247 -4.94791 0
M  V30 700 H 68.1302 -1.6653 -3.39229 0
M  V30 701 H 68.4432 -3.95565 -6.63889 0
M  V30 702 H 66.7882 -3.55145 -5.97409 0
M  V30 703 H 69.9792 -2.13808 -4.16418 0
M  V30 704 H 70.1522 -3.1823 -5.64476 0
M  V30 705 N 63.5583 1.46682 -0.576371 0
M  V30 706 C 64.7983 2.04306 -0.0621356 0
M  V30 707 C 65.1623 1.4389 1.2712 0
M  V30 708 O 66.3633 1.92675 1.87429 0
M  V30 709 C 64.6343 3.57399 0.00927922 0
M  V30 710 S 66.1933 4.36309 0.466859 0
M  V30 711 H 63.0113 0.710167 -0.0344016 0
M  V30 712 H 65.6133 1.79807 -0.767437 0
M  V30 713 H 64.3173 3.98889 -0.965178 0
M  V30 714 H 63.8483 3.86424 0.737547 0
M  V30 715 H 65.8633 4.6533 1.72287 0
M  V30 716 N 65.0364 0.313813 1.54444 0
M  V30 717 C 66.4474 -0.176243 1.85866 0
M  V30 718 C 66.7984 -1.52405 1.23561 0
M  V30 719 O 65.9234 -2.09605 0.538016 0
M  V30 720 C 66.5184 -0.32657 3.37222 0
M  V30 721 C 65.0774 -0.760846 3.6863 0
M  V30 722 C 64.2244 0.123247 2.77026 0
M  V30 723 H 67.1754 0.534418 1.49431 0
M  V30 724 H 67.1964 -1.15908 3.62416 0
M  V30 725 H 66.7084 0.654531 3.82541 0
M  V30 726 H 64.8094 -1.75204 3.28838 0
M  V30 727 H 64.9224 -0.571353 4.75681 0
M  V30 728 H 63.2864 -0.399597 2.51546 0
M  V30 729 H 64.0694 1.10094 3.25168 0
M  V30 730 N 66.5145 -1.57545 0.0417849 0
M  V30 731 C 67.7625 -1.91937 -0.632829 0
M  V30 732 C 68.0835 -0.919978 -1.71934 0
M  V30 733 O 67.3535 0.0366064 -1.95866 0
M  V30 734 H 65.9335 -0.708493 -0.236742 0
M  V30 735 H 68.5955 -1.9468 0.0925745 0
M  V30 736 H 67.6915 -2.92912 -1.07746 0
M  V30 737 N 67.9926 0.231505 -1.5589 0
M  V30 738 C 69.4036 0.799327 -1.68724 0
M  V30 739 C 69.7546 1.85398 -0.642022 0
M  V30 740 O 68.8796 2.1539 0.208784 0
M  V30 741 C 69.4746 1.45664 -3.05888 0
M  V30 742 C 68.0336 1.97197 -3.20609 0
M  V30 743 C 67.1806 0.828552 -2.64632 0
M  V30 744 H 70.1316 0.00702616 -1.58698 0
M  V30 745 H 70.1526 2.32517 -3.01191 0
M  V30 746 H 69.6646 0.688808 -3.81939 0
M  V30 747 H 67.7656 2.76813 -2.4941 0
M  V30 748 H 67.8786 2.15878 -4.27707 0
M  V30 749 H 66.2426 1.23321 -2.22854 0
M  V30 750 H 67.0256 0.0735544 -3.43221 0
M  V30 751 N 69.4707 1.49531 0.497807 0
M  V30 752 C 70.6987 1.62893 1.27567 0
M  V30 753 C 71.1137 0.301585 1.86376 0
M  V30 754 O 70.4707 -0.713335 1.67982 0
M  V30 755 C 70.5217 2.70013 2.40364 0
M  V30 756 O 70.2427 3.976 1.83972 0
M  V30 757 C 71.7437 2.94109 3.31685 0
M  V30 758 H 68.9637 0.548298 0.386794 0
M  V30 759 H 71.5077 1.95584 0.597245 0
M  V30 760 H 69.6627 2.40092 3.04031 0
M  V30 761 H 70.0767 4.56631 2.58047 0
M  V30 762 H 71.5507 3.72788 4.07104 0
M  V30 763 H 72.0277 2.04147 3.88871 0
M  V30 764 H 72.6337 3.2546 2.73781 0
M  V30 765 N 70.9488 -0.749086 1.3866 0
M  V30 766 C 71.9118 -1.84457 1.36045 0
M  V30 767 C 72.9118 -1.58682 0.260122 0
M  V30 768 O 74.1018 -1.66343 0.517261 0
M  V30 769 C 71.2338 -3.22008 1.11911 0
M  V30 770 H 72.4268 -1.88182 2.33512 0
M  V30 771 H 69.9798 -0.951266 1.24019 0
M  V30 772 H 70.7148 -3.2395 0.150686 0
M  V30 773 H 70.4998 -3.42111 1.91579 0
M  V30 774 H 71.9898 -4.0208 1.12788 0
M  V30 775 N 72.4269 -1.23603 -0.977757 0
M  V30 776 C 73.6749 -1.06759 -1.71601 0
M  V30 777 C 73.9959 0.395929 -1.90938 0
M  V30 778 O 73.2659 1.28356 -1.47992 0
M  V30 779 H 71.8459 -0.392062 -0.635843 0
M  V30 780 H 74.5079 -1.55362 -1.1768 0
M  V30 781 H 73.6039 -1.55763 -2.70452 0
M  V30 782 N 73.905 1.17692 -1.04816 0
M  V30 783 C 74.835 2.23777 -0.666791 0
M  V30 784 C 75.816 1.66796 0.33361 0
M  V30 785 O 77.001 1.93039 0.212042 0
M  V30 786 C 74.131 3.47281 -0.0367933 0
M  V30 787 C 73.085 4.17059 -0.961546 0
M  V30 788 C 72.411 5.34342 -0.195626 0
M  V30 789 C 73.711 4.69713 -2.28402 0
M  V30 790 H 75.405 2.55933 -1.55367 0
M  V30 791 H 72.951 1.23019 -0.748484 0
M  V30 792 H 74.904 4.20706 0.241775 0
M  V30 793 H 73.628 3.14381 0.885004 0
M  V30 794 H 72.287 3.45541 -1.22462 0
M  V30 795 H 71.935 4.97692 0.728816 0
M  V30 796 H 71.635 5.81966 -0.811775 0
M  V30 797 H 73.159 6.10553 0.0757473 0
M  V30 798 H 74.573 5.34794 -2.06563 0
M  V30 799 H 72.97 5.279 -2.8538 0
M  V30 800 H 74.04 3.86726 -2.92525 0
M  V30 801 N 75.3831 0.828654 1.34056 0
M  V30 802 C 76.6111 0.43262 2.02326 0
M  V30 803 C 77.0261 -0.963147 1.62385 0
M  V30 804 O 76.3831 -1.62425 0.832121 0
M  V30 805 C 76.4341 0.53182 3.57567 0
M  V30 806 O 76.1551 1.87258 3.96063 0
M  V30 807 C 77.6561 0.131422 4.43105 0
M  V30 808 H 74.8761 0.172923 0.648335 0
M  V30 809 H 77.4201 1.1184 1.71208 0
M  V30 810 H 75.5751 -0.105938 3.87255 0
M  V30 811 H 75.9891 1.85087 4.90758 0
M  V30 812 H 77.4631 0.251904 5.51425 0
M  V30 813 H 77.9401 -0.925645 4.29335 0
M  V30 814 H 78.5461 0.743207 4.18756 0
M  V30 815 N 76.8612 -1.46375 0.584142 0
M  V30 816 C 78.2772 -1.57694 0.245929 0
M  V30 817 C 78.4772 -1.57903 -1.25175 0
M  V30 818 O 77.5332 -1.49676 -2.03355 0
M  V30 819 C 78.8462 -2.87028 0.896402 0
M  V30 820 C 80.3942 -3.00662 0.870127 0
M  V30 821 C 80.8692 -4.32734 1.50017 0
M  V30 822 N 82.3602 -4.39436 1.46458 0
M  V30 823 C 83.0952 -5.40248 1.92144 0
M  V30 824 N 82.5912 -6.47726 2.4581 0
M  V30 825 N 84.3842 -5.31459 1.83052 0
M  V30 826 H 76.5352 -1.44483 1.55687 0
M  V30 827 H 78.7982 -0.689291 0.650831 0
M  V30 828 H 78.5042 -2.9269 1.95002 0
M  V30 829 H 78.3782 -3.75014 0.405486 0
M  V30 830 H 80.7652 -2.94581 -0.174871 0
M  V30 831 H 80.8462 -2.14148 1.39908 0
M  V30 832 H 80.4902 -4.39573 2.54437 0
M  V30 833 H 80.4202 -5.18025 0.946432 0
M  V30 834 H 82.9112 -3.62367 1.07231 0
M  V30 835 H 83.2242 -7.20863 2.78525 0
M  V30 836 H 81.5692 -6.48542 2.49836 0
M  V30 837 H 84.7602 -4.46396 1.40883 0
M  V30 838 H 84.9332 -6.09881 2.18973 0
M  V30 839 N 78.3393 -0.321999 -1.54275 0
M  V30 840 C 79.2693 0.537411 -2.27231 0
M  V30 841 C 80.2503 1.12064 -1.27968 0
M  V30 842 O 81.4353 1.14606 -1.56777 0
M  V30 843 C 78.5653 1.69919 -3.02894 0
M  V30 844 C 77.5193 1.24534 -4.09482 0
M  V30 845 C 76.8453 2.49394 -4.72977 0
M  V30 846 C 78.1453 0.361335 -5.21049 0
M  V30 847 H 79.8393 -0.0711406 -2.99315 0
M  V30 848 H 77.3853 -0.0356555 -1.43956 0
M  V30 849 H 79.3383 2.30668 -3.52662 0
M  V30 850 H 78.0623 2.33431 -2.28424 0
M  V30 851 H 76.7213 0.660782 -3.60596 0
M  V30 852 H 76.3693 3.11265 -3.95124 0
M  V30 853 H 76.0693 2.19718 -5.44975 0
M  V30 854 H 77.5933 3.10908 -5.25517 0
M  V30 855 H 79.0073 0.875072 -5.66582 0
M  V30 856 H 77.4043 0.157428 -5.99893 0
M  V30 857 H 78.4743 -0.60822 -4.8107 0
M  V30 858 N 79.8174 1.5752 -0.0501392 0
M  V30 859 C 81.0424 1.97376 0.636997 0
M  V30 860 C 81.4674 0.927466 1.63645 0
M  V30 861 O 80.8254 -0.10941 1.8097 0
M  V30 862 C 80.8734 3.36304 1.30123 0
M  V30 863 O 79.9774 3.34156 2.41689 0
M  V30 864 H 79.3184 0.642998 0.165679 0
M  V30 865 H 81.8484 2.04258 -0.118233 0
M  V30 866 H 81.8584 3.73008 1.65315 0
M  V30 867 H 80.5334 4.11993 0.568746 0
M  V30 868 H 79.1104 3.09196 2.08451 0
M  V30 869 N 81.2955 -0.223234 1.56011 0
M  V30 870 C 82.2255 -1.27988 1.95298 0
M  V30 871 C 83.2065 -1.48976 0.820979 0
M  V30 872 O 84.3915 -1.61188 1.08315 0
M  V30 873 C 81.5215 -2.63 2.26822 0
M  V30 874 C 80.4755 -2.56671 3.42497 0
M  V30 875 C 79.8015 -3.95697 3.59622 0
M  V30 876 C 81.1015 -2.11601 4.77517 0
M  V30 877 H 82.7955 -0.953525 2.8381 0
M  V30 878 H 80.3415 -0.457244 1.36548 0
M  V30 879 H 82.2945 -3.37077 2.52898 0
M  V30 880 H 81.0185 -2.9732 1.35161 0
M  V30 881 H 79.6775 -1.85051 3.16467 0
M  V30 882 H 79.3255 -4.27322 2.6534 0
M  V30 883 H 79.0255 -3.92345 4.37424 0
M  V30 884 H 80.5495 -4.71438 3.88044 0
M  V30 885 H 81.9635 -2.7542 5.02809 0
M  V30 886 H 80.3605 -2.19311 5.5859 0
M  V30 887 H 81.4305 -1.06824 4.72987 0
M  V30 888 N 82.7736 -1.49793 -0.48987 0
M  V30 889 C 83.7366 -1.66752 -1.57246 0
M  V30 890 C 84.7366 -0.538867 -1.51502 0
M  V30 891 O 85.9266 -0.805545 -1.54456 0
M  V30 892 C 83.0586 -1.67528 -2.96896 0
M  V30 893 H 84.2516 -2.63321 -1.43534 0
M  V30 894 H 81.8046 -1.38992 -0.714914 0
M  V30 895 H 82.5396 -0.725837 -3.16073 0
M  V30 896 H 82.3246 -2.49504 -3.02473 0
M  V30 897 H 83.8146 -1.82667 -3.7553 0
M  V30 898 N 84.2517 0.741722 -1.39055 0
M  V30 899 C 85.4817 1.52876 -1.3897 0
M  V30 900 C 85.8897 1.8919 0.0193266 0
M  V30 901 O 85.2327 1.54138 0.999356 0
M  V30 902 C 85.2947 2.84929 -2.19216 0
M  V30 903 C 84.9587 2.71086 -3.67915 0
M  V30 904 C 85.9557 2.40084 -4.61146 0
M  V30 905 C 83.6407 2.88168 -4.11418 0
M  V30 906 C 85.6347 2.26335 -5.95862 0
M  V30 907 C 83.3217 2.74037 -5.46211 0
M  V30 908 C 84.3197 2.43166 -6.38247 0
M  V30 909 O 84.0077 2.29115 -7.70559 0
M  V30 910 H 83.7397 0.479252 -0.476753 0
M  V30 911 H 86.2937 0.924751 -1.83405 0
M  V30 912 H 84.5237 3.47564 -1.69518 0
M  V30 913 H 86.2127 3.46509 -2.11392 0
M  V30 914 H 86.9787 2.26545 -4.28838 0
M  V30 915 H 82.8577 3.11191 -3.40119 0
M  V30 916 H 86.4017 2.0216 -6.67665 0
M  V30 917 H 82.2987 2.87153 -5.78112 0
M  V30 918 H 83.0667 2.44237 -7.81211 0
M  V30 919 N 85.7298 1.2412 0.971189 0
M  V30 920 C 86.6598 1.05508 2.08304 0
M  V30 921 C 87.6408 -0.0308864 1.70072 0
M  V30 922 O 88.8258 0.135521 1.93727 0
M  V30 923 C 85.9558 0.655365 3.4106 0
M  V30 924 C 84.9098 1.68971 3.93234 0
M  V30 925 C 84.2358 1.14516 5.22293 0
M  V30 926 C 85.5358 3.08487 4.21465 0
M  V30 927 H 87.2298 1.98507 2.24132 0
M  V30 928 H 84.7758 0.955821 1.07704 0
M  V30 929 H 86.7288 0.51217 4.18276 0
M  V30 930 H 85.4528 -0.31032 3.25122 0
M  V30 931 H 84.1118 1.82106 3.18171 0
M  V30 932 H 83.7598 0.170189 5.02712 0
M  V30 933 H 83.4598 1.83635 5.58168 0
M  V30 934 H 84.9838 1.01401 6.02121 0
M  V30 935 H 86.3978 2.98601 4.89398 0
M  V30 936 H 84.7948 3.74926 4.68562 0
M  V30 937 H 85.8648 3.56787 3.28376 0
M  V30 938 N 87.2079 -1.17134 1.05439 0
M  V30 939 C 88.6189 -1.69084 0.791676 0
M  V30 940 C 88.9699 -1.83822 -0.685839 0
M  V30 941 O 88.0949 -1.52757 -1.53278 0
M  V30 942 C 88.6899 -3.07119 1.4305 0
M  V30 943 C 87.2489 -3.56225 1.21577 0
M  V30 944 C 86.3959 -2.32421 1.51247 0
M  V30 945 H 89.3469 -1.01617 1.219 0
M  V30 946 H 89.3679 -3.71087 0.84112 0
M  V30 947 H 88.8799 -2.9636 2.50584 0
M  V30 948 H 86.9809 -3.72257 0.159787 0
M  V30 949 H 87.0939 -4.38837 1.92246 0
M  V30 950 H 85.4579 -2.3701 0.932653 0
M  V30 951 H 86.2409 -2.24268 2.5992 0
M  V30 952 N 88.686 -0.835752 -1.33615 0
M  V30 953 C 89.932 -0.430596 -1.98176 0
M  V30 954 C 90.265 1.00684 -1.66061 0
M  V30 955 O 89.54 1.70339 -0.938877 0
M  V30 956 C 89.823 -0.648065 -3.5422 0
M  V30 957 C 89.676 -2.13255 -3.96033 0
M  V30 958 C 90.995 -0.0922113 -4.40003 0
M  V30 959 H 88.114 -0.157924 -0.719881 0
M  V30 960 H 90.756 -1.05069 -1.58305 0
M  V30 961 H 88.906 -0.120237 -3.88314 0
M  V30 962 H 90.578 -2.725 -3.72211 0
M  V30 963 H 88.821 -2.61823 -3.45878 0
M  V30 964 H 89.492 -2.23547 -5.04708 0
M  V30 965 H 91.968 -0.543343 -4.12537 0
M  V30 966 H 90.844 -0.274083 -5.48215 0
M  V30 967 H 91.105 1.00378 -4.30554 0
M  V30 968 N 90.1641 1.46063 -0.591896 0
M  V30 969 C 91.1111 2.30399 0.136069 0
M  V30 970 C 92.0811 1.41169 0.875238 0
M  V30 971 O 93.2661 1.70112 0.86409 0
M  V30 972 C 90.4061 3.25804 1.13781 0
M  V30 973 C 89.5191 4.30134 0.401137 0
M  V30 974 C 88.6541 5.12659 1.39121 0
M  V30 975 C 87.6931 6.0873 0.641462 0
M  V30 976 N 86.8301 6.8409 1.58004 0
M  V30 977 H 91.6701 2.92118 -0.589144 0
M  V30 978 H 89.2071 1.43959 -0.302342 0
M  V30 979 H 91.1651 3.79569 1.73156 0
M  V30 980 H 89.7951 2.65872 1.83062 0
M  V30 981 H 88.8471 3.79152 -0.307826 0
M  V30 982 H 90.1591 4.98458 -0.184565 0
M  V30 983 H 89.3131 5.70747 2.05749 0
M  V30 984 H 88.0521 4.44316 2.01084 0
M  V30 985 H 87.0571 5.49786 -0.0385419 0
M  V30 986 H 88.2821 6.79095 0.0270945 0
M  V30 987 H 86.2281 6.18449 2.18761 0
M  V30 988 H 86.1451 7.48709 1.04738 0
M  V30 989 H 87.4131 7.4673 2.23639 0
M  V30 990 N 91.6422 0.330177 1.54103 0
M  V30 991 C 92.8882 -0.270806 2.00984 0
M  V30 992 C 93.2212 -1.51265 1.21789 0
M  V30 993 O 92.4962 -1.92142 0.301927 0
M  V30 994 C 92.7792 -0.598339 3.55094 0
M  V30 995 C 92.6322 0.654674 4.4501 0
M  V30 996 C 93.9512 -1.41334 4.16789 0
M  V30 997 H 91.0702 -0.0969531 0.730595 0
M  V30 998 H 93.7122 0.448066 1.84641 0
M  V30 999 H 91.8622 -1.21078 3.69151 0
M  V30 1000 H 93.5342 1.29285 4.42813 0
M  V30 1001 H 91.7772 1.28224 4.14416 0
M  V30 1002 H 92.4482 0.380944 5.50684 0
M  V30 1003 H 94.9242 -0.895597 4.06347 0
M  V30 1004 H 93.8002 -1.61127 5.24718 0
M  V30 1005 H 94.0612 -2.41146 3.70541 0
M  V30 1006 N 93.1203 -1.57491 0.0584922 0
M  V30 1007 C 94.3693 -1.92155 -0.613146 0
M  V30 1008 C 94.6823 -0.939334 -1.71569 0
M  V30 1009 O 95.8883 -1.17829 -2.44599 0
M  V30 1010 C 94.3443 -3.41303 -1.14195 0
M  V30 1011 C 93.9523 -4.47944 -0.0711265 0
M  V30 1012 C 95.6963 -3.84988 -1.78841 0
M  V30 1013 C 93.6033 -5.88212 -0.613225 0
M  V30 1014 H 92.5333 -0.717162 -0.232796 0
M  V30 1015 H 95.1843 -1.83049 0.12857 0
M  V30 1016 H 93.5663 -3.45437 -1.93621 0
M  V30 1017 H 94.7403 -4.55408 0.702836 0
M  V30 1018 H 93.0553 -4.13644 0.478313 0
M  V30 1019 H 95.6523 -4.87159 -2.20408 0
M  V30 1020 H 95.9953 -3.21632 -2.64308 0
M  V30 1021 H 96.5283 -3.83401 -1.06059 0
M  V30 1022 H 93.2673 -6.55183 0.203978 0
M  V30 1023 H 92.7873 -5.84294 -1.35501 0
M  V30 1024 H 94.4663 -6.37687 -1.09383 0
M  V30 1025 N 94.5984 0.214957 -1.56127 0
M  V30 1026 C 96.0094 0.781386 -1.69562 0
M  V30 1027 C 96.3604 1.84707 -0.66165 0
M  V30 1028 O 95.4854 2.156 0.185927 0
M  V30 1029 C 96.0804 1.42411 -3.07416 0
M  V30 1030 C 94.6394 1.93786 -3.22683 0
M  V30 1031 C 93.7864 0.800438 -2.65496 0
M  V30 1032 H 96.7374 -0.00980633 -1.58697 0
M  V30 1033 H 96.7584 2.29309 -3.0364 0
M  V30 1034 H 96.2704 0.64826 -3.82648 0
M  V30 1035 H 94.3714 2.74152 -2.52332 0
M  V30 1036 H 94.4844 2.1133 -4.29973 0
M  V30 1037 H 92.8484 1.2095 -2.2415 0
M  V30 1038 H 93.6314 0.0371471 -3.4328 0
M  V30 1039 N 96.0765 1.50051 0.48192 0
M  V30 1040 C 97.3015 1.64508 1.26301 0
M  V30 1041 C 97.7265 0.323851 1.85291 0
M  V30 1042 O 97.0845 -0.710969 1.66778 0
M  V30 1043 C 97.1325 2.7305 2.35533 0
M  V30 1044 O 96.2365 2.3355 3.39895 0
M  V30 1045 H 95.5775 0.549978 0.372048 0
M  V30 1046 H 98.1075 1.9636 0.574786 0
M  V30 1047 H 98.1175 2.95799 2.8101 0
M  V30 1048 H 96.7925 3.68946 1.91967 0
M  V30 1049 H 95.3695 2.21205 3.00204 0
M  V30 1050 N 97.5546 -0.734337 1.39446 0
M  V30 1051 C 98.4866 -1.85861 1.34121 0
M  V30 1052 C 99.4996 -1.60871 0.249864 0
M  V30 1053 O 100.689 -1.71093 0.508865 0
M  V30 1054 C 97.7886 -3.21899 1.05991 0
M  V30 1055 C 96.9616 -3.74239 2.26415 0
M  V30 1056 C 96.0206 -4.88841 1.94733 0
M  V30 1057 O 95.0466 -5.02468 2.67422 0
M  V30 1058 N 96.2486 -5.73261 0.913884 0
M  V30 1059 H 99.0136 -1.90934 2.31007 0
M  V30 1060 H 96.5746 -0.915102 1.33557 0
M  V30 1061 H 98.5666 -3.96136 0.828147 0
M  V30 1062 H 97.1366 -3.12091 0.178361 0
M  V30 1063 H 96.3566 -2.91347 2.65539 0
M  V30 1064 H 97.6446 -4.05942 3.06738 0
M  V30 1065 H 97.0426 -5.64842 0.311476 0
M  V30 1066 H 95.5996 -6.47563 0.742015 0
M  V30 1067 N 99.0327 -1.24633 -0.964593 0
M  V30 1068 C 99.9957 -1.0424 -2.04124 0
M  V30 1069 C 100.996 0.00137563 -1.608 0
M  V30 1070 O 102.186 -0.239883 -1.7254 0
M  V30 1071 C 99.3177 -0.580588 -3.3592 0
M  V30 1072 H 100.511 -1.99803 -2.23649 0
M  V30 1073 H 98.0637 -1.06899 -1.14027 0
M  V30 1074 H 98.7987 0.3781 -3.22088 0
M  V30 1075 H 98.5837 -1.33398 -3.6871 0
M  V30 1076 H 100.074 -0.459034 -4.15069 0
M  V30 1077 N 100.511 1.16574 -1.06058 0
M  V30 1078 C 101.758 1.87047 -0.775873 0
M  V30 1079 C 102.086 1.81562 0.697534 0
M  V30 1080 O 101.341 1.22445 1.52662 0
M  V30 1081 C 101.64 3.36195 -1.21275 0
M  V30 1082 C 101.306 3.6188 -2.68986 0
M  V30 1083 C 99.9678 3.68599 -3.09335 0
M  V30 1084 C 102.32 3.72648 -3.64394 0
M  V30 1085 C 99.6478 3.83584 -4.43937 0
M  V30 1086 C 102 3.89154 -4.98741 0
M  V30 1087 C 100.664 3.94114 -5.3873 0
M  V30 1088 H 99.9338 0.684452 -0.283912 0
M  V30 1089 H 102.581 1.37853 -1.32925 0
M  V30 1090 H 100.886 3.87505 -0.578528 0
M  V30 1091 H 102.583 3.89103 -0.969542 0
M  V30 1092 H 99.1728 3.57281 -2.36744 0
M  V30 1093 H 103.357 3.66769 -3.34356 0
M  V30 1094 H 98.6128 3.85677 -4.74409 0
M  V30 1095 H 102.787 3.96427 -5.72554 0
M  V30 1096 H 100.414 4.05478 -6.43033 0
M  V30 1097 N 101.989 0.842826 1.3317 0
M  V30 1098 C 103.405 0.531128 1.50503 0
M  V30 1099 C 103.605 -0.940734 1.78192 0
M  V30 1100 O 102.661 -1.72436 1.84451 0
M  V30 1101 C 103.974 1.40789 2.65705 0
M  V30 1102 C 105.522 1.40708 2.79589 0
M  V30 1103 C 105.997 2.26878 3.97857 0
M  V30 1104 N 107.488 2.24609 4.05099 0
M  V30 1105 C 108.223 2.88019 4.95815 0
M  V30 1106 N 107.719 3.60496 5.9162 0
M  V30 1107 N 109.512 2.77469 4.88843 0
M  V30 1108 H 101.663 1.79557 1.1346 0
M  V30 1109 H 103.926 0.766267 0.558156 0
M  V30 1110 H 103.632 2.454 2.51936 0
M  V30 1111 H 103.506 1.08677 3.61205 0
M  V30 1112 H 105.893 0.368668 2.92788 0
M  V30 1113 H 105.974 1.76829 1.84838 0
M  V30 1114 H 105.618 3.3078 3.85418 0
M  V30 1115 H 105.548 1.88096 4.91861 0
M  V30 1116 H 108.039 1.71906 3.36536 0
M  V30 1117 H 108.352 4.06076 6.57512 0
M  V30 1118 H 106.697 3.64604 5.91683 0
M  V30 1119 H 109.888 2.20406 4.12963 0
M  V30 1120 H 110.061 3.2717 5.59342 0
M  V30 1121 N 103.467 -1.45747 0.599634 0
M  V30 1122 C 104.715 -2.01893 0.0915472 0
M  V30 1123 C 105.036 -1.47155 -1.27946 0
M  V30 1124 O 104.306 -0.66273 -1.84349 0
M  V30 1125 H 102.886 -0.746363 0.0308524 0
M  V30 1126 H 105.548 -1.78645 0.779237 0
M  V30 1127 H 104.644 -3.1208 0.0353086 0
M  V30 1128 N 104.945 -0.338344 -1.53925 0
M  V30 1129 C 105.875 0.51328 -2.27789 0
M  V30 1130 C 106.856 1.107 -1.29149 0
M  V30 1131 O 108.041 1.12937 -1.57984 0
M  V30 1132 C 105.171 1.66697 -3.04679 0
M  V30 1133 C 104.125 1.20183 -4.1078 0
M  V30 1134 C 103.451 2.44363 -4.75595 0
M  V30 1135 C 104.751 0.30605 -5.21403 0
M  V30 1136 H 106.445 -0.102883 -2.99223 0
M  V30 1137 H 103.991 -0.0509219 -1.4391 0
M  V30 1138 H 105.944 2.26915 -3.55088 0
M  V30 1139 H 104.668 2.30995 -2.30887 0
M  V30 1140 H 103.327 0.622499 -3.61276 0
M  V30 1141 H 102.975 3.07057 -3.98403 0
M  V30 1142 H 102.675 2.13925 -5.47275 0
M  V30 1143 H 104.199 3.05317 -5.28786 0
M  V30 1144 H 105.613 0.814929 -5.67478 0
M  V30 1145 H 104.01 0.0937929 -6.00027 0
M  V30 1146 H 105.08 -0.65921 -4.80398 0
M  V30 1147 N 106.423 1.57458 -0.0668435 0
M  V30 1148 C 107.371 2.13639 0.919851 0
M  V30 1149 C 108.365 1.07204 1.31163 0
M  V30 1150 O 109.571 1.25591 1.28945 0
M  V30 1151 H 105.946 0.683048 0.314562 0
M  V30 1152 H 107.917 2.95415 0.421047 0
M  V30 1153 C 106.666 2.70892 2.17975 0
M  V30 1154 H 105.989 3.5246 1.88711 0
M  V30 1155 H 107.429 3.13803 2.85138 0
M  V30 1156 C 105.888 1.65414 2.93496 0
M  V30 1157 O 106.418 1.07619 3.87015 0
M  V30 1158 N 104.624 1.36564 2.56512 0
M  V30 1159 H 104.171 1.83751 1.80536 0
M  V30 1160 H 104.129 0.66223 3.07347 0
M  V30 1161 N 107.901 -0.206675 1.56239 0
M  V30 1162 C 108.811 -1.27686 1.96808 0
M  V30 1163 C 109.827 -1.50455 0.874035 0
M  V30 1164 O 111.003 -1.63295 1.17884 0
M  V30 1165 C 108.068 -2.60358 2.28942 0
M  V30 1166 C 107.129 -2.45762 3.51994 0
M  V30 1167 C 106.362 -3.72108 3.82585 0
M  V30 1168 O 106.585 -4.75776 3.14631 0
M  V30 1169 O 105.519 -3.6833 4.76043 0
M  V30 1170 H 109.345 -0.962593 2.88041 0
M  V30 1171 H 106.93 -0.410746 1.43643 0
M  V30 1172 H 108.812 -3.38687 2.50737 0
M  V30 1173 H 107.487 -2.91435 1.4088 0
M  V30 1174 H 106.394 -1.65584 3.35459 0
M  V30 1175 H 107.727 -2.19621 4.40486 0
M  V30 1176 N 109.379 -1.50304 -0.473955 0
M  V30 1177 C 110.625 -1.61389 -1.22806 0
M  V30 1178 C 110.958 -0.311955 -1.91678 0
M  V30 1179 O 110.233 0.686384 -1.81986 0
M  V30 1180 C 110.516 -2.79219 -2.27396 0
M  V30 1181 C 110.369 -4.19286 -1.62848 0
M  V30 1182 C 111.688 -2.92614 -3.28732 0
M  V30 1183 H 108.807 -0.587399 -0.445119 0
M  V30 1184 H 111.449 -1.82681 -0.522265 0
M  V30 1185 H 109.599 -2.61195 -2.87592 0
M  V30 1186 H 111.271 -4.48892 -1.06271 0
M  V30 1187 H 109.514 -4.23677 -0.931693 0
M  V30 1188 H 110.185 -4.97655 -2.38838 0
M  V30 1189 H 112.661 -3.09105 -2.78556 0
M  V30 1190 H 111.537 -3.76688 -3.99246 0
M  V30 1191 H 111.798 -2.03107 -3.92683 0
M  V30 1192 N 110.857 0.726932 -1.39834 0
M  V30 1193 C 112.106 1.48214 -1.36805 0
M  V30 1194 C 112.419 1.95576 0.0305291 0
M  V30 1195 O 113.625 2.7088 0.183417 0
M  V30 1196 C 112.081 2.67854 -2.40379 0
M  V30 1197 C 111.689 2.27408 -3.85992 0
M  V30 1198 C 113.433 3.45641 -2.46439 0
M  V30 1199 C 111.34 3.43819 -4.81189 0
M  V30 1200 H 110.27 0.556606 -0.508631 0
M  V30 1201 H 112.921 0.792216 -1.65518 0
M  V30 1202 H 111.303 3.3896 -2.04749 0
M  V30 1203 H 112.477 1.63795 -4.30706 0
M  V30 1204 H 110.792 1.62692 -3.83302 0
M  V30 1205 H 113.389 4.32244 -3.14753 0
M  V30 1206 H 113.732 3.88669 -1.49139 0
M  V30 1207 H 114.265 2.8157 -2.81004 0
M  V30 1208 H 111.004 3.05834 -5.79781 0
M  V30 1209 H 110.524 4.06385 -4.41148 0
M  V30 1210 H 112.203 4.10043 -5.00474 0
M  V30 1211 N 112.336 1.25143 0.95797 0
M  V30 1212 C 113.283 1.05235 2.05412 0
M  V30 1213 C 114.253 -0.0374561 1.66058 0
M  V30 1214 O 115.438 0.119073 1.90428 0
M  V30 1215 C 112.578 0.673589 3.38462 0
M  V30 1216 C 111.691 1.8379 3.90954 0
M  V30 1217 C 110.826 1.40381 5.12315 0
M  V30 1218 C 109.865 2.53746 5.57027 0
M  V30 1219 N 109.002 2.11136 6.69601 0
M  V30 1220 H 113.842 1.99048 2.21774 0
M  V30 1221 H 111.379 0.991277 1.08683 0
M  V30 1222 H 113.337 0.434964 4.14926 0
M  V30 1223 H 111.967 -0.227554 3.21997 0
M  V30 1224 H 111.019 2.18992 3.11041 0
M  V30 1225 H 112.331 2.68937 4.20089 0
M  V30 1226 H 111.485 1.12464 5.96185 0
M  V30 1227 H 110.224 0.523015 4.84887 0
M  V30 1228 H 109.229 2.82412 4.71724 0
M  V30 1229 H 110.454 3.42398 5.86464 0
M  V30 1230 H 108.4 1.25468 6.4389 0
M  V30 1231 H 108.317 2.89832 6.98236 0
M  V30 1232 H 109.585 1.86385 7.56889 0
M  V30 1233 N 113.814 -1.1601 1.06675 0
M  V30 1234 C 115.063 -1.85973 0.780818 0
M  V30 1235 C 115.376 -1.82819 -0.695444 0
M  V30 1236 O 116.582 -2.484 -1.09589 0
M  V30 1237 C 115.038 -3.33757 1.34665 0
M  V30 1238 C 114.646 -3.45374 2.85343 0
M  V30 1239 C 116.39 -4.0895 1.13843 0
M  V30 1240 C 114.297 -4.87266 3.35151 0
M  V30 1241 H 113.227 -0.696661 0.288407 0
M  V30 1242 H 115.878 -1.30903 1.28595 0
M  V30 1243 H 114.26 -3.88456 0.769274 0
M  V30 1244 H 115.434 -3.00816 3.49065 0
M  V30 1245 H 113.749 -2.83619 3.04876 0
M  V30 1246 H 116.346 -5.13654 1.4854 0
M  V30 1247 H 116.689 -4.16229 0.0770282 0
M  V30 1248 H 117.222 -3.605 1.68179 0
M  V30 1249 H 113.961 -4.85168 4.40786 0
M  V30 1250 H 113.481 -5.32433 2.76179 0
M  V30 1251 H 115.16 -5.56097 3.30704 0
M  V30 1252 N 115.292 -0.849877 -1.32721 0
M  V30 1253 C 116.202 -0.293791 -2.32753 0
M  V30 1254 C 117.218 0.585906 -1.63839 0
M  V30 1255 O 118.394 0.487413 -1.95413 0
M  V30 1256 C 115.459 0.512752 -3.42887 0
M  V30 1257 C 114.52 -0.39252 -4.27502 0
M  V30 1258 C 113.753 0.375625 -5.32377 0
M  V30 1259 O 113.976 1.60613 -5.4732 0
M  V30 1260 O 112.91 -0.256094 -6.01355 0
M  V30 1261 H 116.736 -1.12242 -2.82197 0
M  V30 1262 H 114.321 -0.612685 -1.36259 0
M  V30 1263 H 116.203 0.970704 -4.10067 0
M  V30 1264 H 114.878 1.31826 -2.95641 0
M  V30 1265 H 113.785 -0.898547 -3.63149 0
M  V30 1266 H 115.118 -1.16309 -4.7826 0
M  V30 1267 N 116.77 1.45427 -0.607355 0
M  V30 1268 C 118.019 2.01452 -0.100036 0
M  V30 1269 C 118.332 1.48159 1.27704 0
M  V30 1270 O 119.538 1.96159 1.87707 0
M  V30 1271 C 117.994 3.59672 -0.128158 0
M  V30 1272 C 117.602 4.21962 -1.50507 0
M  V30 1273 C 119.346 4.23262 0.323932 0
M  V30 1274 C 117.253 5.72333 -1.48959 0
M  V30 1275 H 116.183 0.75325 -0.0336299 0
M  V30 1276 H 118.834 1.66901 -0.76265 0
M  V30 1277 H 117.216 3.91411 0.601105 0
M  V30 1278 H 118.39 4.01796 -2.25602 0
M  V30 1279 H 116.705 3.70565 -1.89923 0
M  V30 1280 H 119.302 5.33522 0.354691 0
M  V30 1281 H 119.645 3.93921 1.34656 0
M  V30 1282 H 120.178 3.96239 -0.352056 0
M  V30 1283 H 116.917 6.06373 -2.48981 0
M  V30 1284 H 116.437 5.94691 -0.781214 0
M  V30 1285 H 118.116 6.35525 -1.21313 0
M  V30 1286 N 118.248 0.346503 1.53744 0
M  V30 1287 C 119.473 -0.253074 2.0585 0
M  V30 1288 C 119.898 -1.43202 1.21962 0
M  V30 1289 O 119.256 -1.79783 0.234073 0
M  V30 1290 C 119.304 -0.643193 3.54817 0
M  V30 1291 O 118.408 -1.74286 3.73762 0
M  V30 1292 H 117.749 -0.0413583 0.662711 0
M  V30 1293 H 120.279 0.501574 1.98357 0
M  V30 1294 H 120.289 -0.919526 3.97503 0
M  V30 1295 H 118.964 0.218966 4.15323 0
M  V30 1296 H 117.541 -1.46356 3.42979 0
M  V30 1297 N 119.726 -1.57421 0.075193 0
M  V30 1298 C 120.658 -2.09904 -0.920483 0
M  V30 1299 C 121.671 -1.03191 -1.25918 0
M  V30 1300 O 122.86 -1.30695 -1.21577 0
M  V30 1301 C 119.96 -2.54726 -2.23534 0
M  V30 1302 C 119.133 -3.8505 -2.07498 0
M  V30 1303 C 118.192 -4.15929 -3.22319 0
M  V30 1304 O 117.218 -4.85474 -2.9716 0
M  V30 1305 N 118.42 -3.69745 -4.47514 0
M  V30 1306 H 121.185 -2.95954 -0.472359 0
M  V30 1307 H 118.746 -1.61523 -0.110444 0
M  V30 1308 H 120.738 -2.72443 -2.9926 0
M  V30 1309 H 119.308 -1.73795 -2.59835 0
M  V30 1310 H 118.528 -3.76679 -1.16219 0
M  V30 1311 H 119.816 -4.70348 -1.94038 0
M  V30 1312 H 119.214 -3.13569 -4.7084 0
M  V30 1313 H 117.771 -3.92655 -5.20255 0
M  V30 1314 N 121.204 0.198386 -1.56346 0
M  V30 1315 C 122.453 0.917451 -1.79627 0
M  V30 1316 C 122.766 1.8456 -0.64784 0
M  V30 1317 O 123.972 2.60504 -0.764859 0
M  V30 1318 C 122.428 1.68175 -3.18191 0
M  V30 1319 C 122.036 0.798589 -4.40825 0
M  V30 1320 C 123.78 2.39065 -3.50782 0
M  V30 1321 C 121.687 1.56157 -5.70411 0
M  V30 1322 H 120.617 0.346317 -0.669762 0
M  V30 1323 H 123.268 0.170801 -1.82703 0
M  V30 1324 H 121.65 2.47216 -3.09354 0
M  V30 1325 H 122.824 0.0470665 -4.60776 0
M  V30 1326 H 121.139 0.200686 -4.15916 0
M  V30 1327 H 123.736 2.96692 -4.44835 0
M  V30 1328 H 124.079 3.13091 -2.74371 0
M  V30 1329 H 124.612 1.66993 -3.61052 0
M  V30 1330 H 121.351 0.864142 -6.49779 0
M  V30 1331 H 120.871 2.2871 -5.54483 0
M  V30 1332 H 122.55 2.11622 -6.11412 0
M  V30 1333 N 122.682 1.50554 0.465978 0
M  V30 1334 C 123.959 1.5232 1.22712 0
M  V30 1335 C 124.339 0.270807 2.09356 0
M  V30 1336 O 123.687 -0.745541 2.15995 0
M  V30 1337 C 123.897 2.82175 2.05374 0
M  V30 1338 C 125.245 3.33033 2.6339 0
M  V30 1339 O 126.269 2.83531 2.15612 0
M  V30 1340 O 125.128 4.19336 3.50456 0
M  V30 1341 H 122.222 0.611183 0.557122 0
M  V30 1342 H 124.768 1.62847 0.477381 0
M  V30 1343 H 123.54 3.64797 1.41558 0
M  V30 1344 H 123.163 2.74675 2.87471 0
M  V30 1345 N 124.16 -0.719506 1.40217 0
M  V30 1346 C 125.385 -1.51371 1.4178 0
M  V30 1347 C 125.81 -1.88091 0.0182355 0
M  V30 1348 O 125.168 -1.52997 -0.972707 0
M  V30 1349 C 125.216 -2.768 2.31115 0
M  V30 1350 O 124.32 -3.73349 1.7517 0
M  V30 1351 H 123.661 -0.456529 0.482159 0
M  V30 1352 H 126.191 -0.88644 1.844 0
M  V30 1353 H 126.201 -3.25371 2.46167 0
M  V30 1354 H 124.876 -2.49407 3.3282 0
M  V30 1355 H 123.453 -3.32179 1.69444 0
M  V30 1356 N 125.638 -1.25649 -0.95132 0
M  V30 1357 C 126.568 -1.08808 -2.06599 0
M  V30 1358 C 127.549 0.00382547 -1.701 0
M  V30 1359 O 128.734 -0.166325 -1.93486 0
M  V30 1360 C 125.864 -0.709542 -3.39975 0
M  V30 1361 C 124.818 -1.75206 -3.90496 0
M  V30 1362 C 124.144 -1.22811 -5.20405 0
M  V30 1363 C 125.444 -3.15153 -4.16504 0
M  V30 1364 H 127.138 -2.02048 -2.20946 0
M  V30 1365 H 124.684 -0.972835 -1.06169 0
M  V30 1366 H 126.637 -0.578649 -4.17408 0
M  V30 1367 H 125.361 0.258556 -3.25575 0
M  V30 1368 H 124.02 -1.87145 -3.15234 0
M  V30 1369 H 123.668 -0.250145 -5.02378 0
M  V30 1370 H 123.368 -1.92492 -5.55176 0
M  V30 1371 H 124.892 -1.10968 -6.00432 0
M  V30 1372 H 126.306 -3.06349 -4.84586 0
M  V30 1373 H 124.703 -3.82333 -4.62538 0
M  V30 1374 H 125.773 -3.61966 -3.22658 0
M  V30 1375 N 127.117 1.15442 -1.07289 0
M  V30 1376 C 128.027 2.23786 -0.704057 0
M  V30 1377 C 129.043 1.7166 0.284413 0
M  V30 1378 O 130.219 2.00972 0.131205 0
M  V30 1379 C 127.284 3.46535 -0.106792 0
M  V30 1380 C 126.345 4.13654 -1.14842 0
M  V30 1381 C 125.578 5.30544 -0.57956 0
M  V30 1382 O 125.801 5.67187 0.604585 0
M  V30 1383 O 124.735 5.87154 -1.32414 0
M  V30 1384 H 128.561 2.57664 -1.60757 0
M  V30 1385 H 126.146 1.23152 -0.845803 0
M  V30 1386 H 128.028 4.20804 0.224048 0
M  V30 1387 H 126.703 3.14407 0.770049 0
M  V30 1388 H 125.61 3.4131 -1.5316 0
M  V30 1389 H 126.943 4.49861 -1.99714 0
M  V30 1390 N 128.595 0.856903 1.32268 0
M  V30 1391 C 130.011 0.547061 1.49931 0
M  V30 1392 C 130.211 -0.921781 1.7918 0
M  V30 1393 O 129.267 -1.70469 1.8627 0
M  V30 1394 C 130.58 1.43599 2.64196 0
M  V30 1395 C 132.128 1.43665 2.78081 0
M  V30 1396 C 132.603 2.31085 3.95428 0
M  V30 1397 N 134.094 2.28893 4.02694 0
M  V30 1398 C 134.829 2.93262 4.92732 0
M  V30 1399 N 134.325 3.66751 5.87763 0
M  V30 1400 N 136.118 2.82638 4.85873 0
M  V30 1401 H 128.269 1.8075 1.11549 0
M  V30 1402 H 130.532 0.772144 0.549997 0
M  V30 1403 H 130.238 2.48058 2.49319 0
M  V30 1404 H 130.112 1.12502 3.60032 0
M  V30 1405 H 132.499 0.399701 2.92381 0
M  V30 1406 H 132.58 1.7878 1.82952 0
M  V30 1407 H 132.224 3.34849 3.81888 0
M  V30 1408 H 132.154 1.93302 4.89839 0
M  V30 1409 H 134.645 1.75466 3.34694 0
M  V30 1410 H 134.958 4.13027 6.53168 0
M  V30 1411 H 133.303 3.70859 5.87783 0
M  V30 1412 H 136.494 2.24774 4.10602 0
M  V30 1413 H 136.667 3.33084 5.55841 0
M  V30 1414 N 130.073 -1.45103 0.615059 0
M  V30 1415 C 131.322 -2.01396 0.110718 0
M  V30 1416 C 131.635 -1.48834 -1.26916 0
M  V30 1417 O 132.841 -1.97152 -1.86664 0
M  V30 1418 C 131.297 -3.59599 0.14723 0
M  V30 1419 C 130.905 -4.21158 1.52743 0
M  V30 1420 C 132.649 -4.23428 -0.30148 0
M  V30 1421 C 130.556 -5.71535 1.51992 0
M  V30 1422 H 129.486 -0.753061 0.0376241 0
M  V30 1423 H 132.137 -1.66494 0.77149 0
M  V30 1424 H 130.519 -3.91724 -0.580339 0
M  V30 1425 H 131.693 -4.00594 2.2773 0
M  V30 1426 H 130.008 -3.69552 1.91886 0
M  V30 1427 H 132.605 -5.33703 -0.326392 0
M  V30 1428 H 132.948 -3.94629 -1.32565 0
M  V30 1429 H 133.481 -3.96047 0.373065 0
M  V30 1430 H 130.22 -6.05044 2.52193 0
M  V30 1431 H 129.74 -5.94268 0.81274 0
M  V30 1432 H 131.419 -6.34873 1.24681 0
M  V30 1433 N 131.551 -0.354651 -1.53558 0
M  V30 1434 C 132.461 0.50515 -2.29097 0
M  V30 1435 C 133.477 1.10223 -1.34636 0
M  V30 1436 O 134.653 1.11553 -1.67684 0
M  V30 1437 C 131.718 1.63479 -3.05738 0
M  V30 1438 C 130.779 1.06636 -4.15845 0
M  V30 1439 C 130.012 2.14217 -4.88822 0
M  V30 1440 O 130.235 3.35137 -4.61562 0
M  V30 1441 O 129.169 1.77887 -5.75013 0
M  V30 1442 H 132.995 -0.109237 -3.03503 0
M  V30 1443 H 130.58 -0.119357 -1.48922 0
M  V30 1444 H 132.462 2.2918 -3.5363 0
M  V30 1445 H 131.137 2.23478 -2.34178 0
M  V30 1446 H 130.044 0.373565 -3.7223 0
M  V30 1447 H 131.377 0.511081 -4.89539 0
M  V30 1448 N 133.029 1.57378 -0.0835403 0
M  V30 1449 C 133.992 2.12252 0.864959 0
M  V30 1450 C 134.992 1.04916 1.21858 0
M  V30 1451 O 136.182 1.30853 1.14991 0
M  V30 1452 C 133.314 2.63358 2.16461 0
M  V30 1453 H 134.507 2.97371 0.388676 0
M  V30 1454 H 132.06 1.55423 0.165317 0
M  V30 1455 H 132.795 1.81727 2.686 0
M  V30 1456 H 132.58 3.41826 1.92087 0
M  V30 1457 H 134.07 3.05847 2.84337 0
M  V30 1458 N 134.507 -0.190092 1.56449 0
M  V30 1459 C 135.455 -1.25501 1.95837 0
M  V30 1460 C 136.449 -1.4685 0.844485 0
M  V30 1461 O 137.655 -1.47651 1.02952 0
M  V30 1462 H 134.03 -0.421447 0.622805 0
M  V30 1463 H 136.001 -0.895821 2.84636 0
M  V30 1464 C 134.75 -2.59124 2.31841 0
M  V30 1465 H 134.073 -2.43514 3.17082 0
M  V30 1466 H 135.513 -3.32371 2.6326 0
M  V30 1467 C 133.972 -3.16488 1.15486 0
M  V30 1468 O 134.502 -3.99365 0.432535 0
M  V30 1469 N 132.708 -2.75305 0.930349 0
M  V30 1470 H 132.255 -2.08013 1.51948 0
M  V30 1471 H 132.213 -3.14024 0.153634 0
M  V30 1472 N 135.985 -1.50799 -0.457987 0
M  V30 1473 C 136.948 -1.7005 -1.53674 0
M  V30 1474 C 137.948 -0.570881 -1.50325 0
M  V30 1475 O 139.138 -0.838126 -1.52712 0
M  V30 1476 C 136.27 -1.73788 -2.93276 0
M  V30 1477 H 137.463 -2.66306 -1.37917 0
M  V30 1478 H 135.016 -1.40477 -0.685271 0
M  V30 1479 H 135.751 -0.792717 -3.14462 0
M  V30 1480 H 135.536 -2.55864 -2.97113 0
M  V30 1481 H 137.026 -1.90591 -3.71571 0
M  V30 1482 N 137.463 0.71206 -1.40597 0
M  V30 1483 C 138.71 1.47197 -1.39065 0
M  V30 1484 C 139.038 1.94499 0.00583891 0
M  V30 1485 O 138.293 1.68752 0.99102 0
M  V30 1486 C 138.592 2.71039 -2.32965 0
M  V30 1487 C 138.258 2.42484 -3.80148 0
M  V30 1488 C 136.92 2.34406 -4.20247 0
M  V30 1489 C 139.272 2.18598 -4.73143 0
M  V30 1490 C 136.6 2.00516 -5.51371 0
M  V30 1491 C 138.952 1.8622 -6.0457 0
M  V30 1492 C 137.616 1.76626 -6.43708 0
M  V30 1493 H 136.886 0.538634 -0.508876 0
M  V30 1494 H 139.533 0.815325 -1.73276 0
M  V30 1495 H 137.838 3.41558 -1.91951 0
M  V30 1496 H 139.535 3.29138 -2.29061 0
M  V30 1497 H 136.125 2.49659 -3.4838 0
M  V30 1498 H 140.309 2.23793 -4.42979 0
M  V30 1499 H 135.565 1.91628 -5.80593 0
M  V30 1500 H 139.739 1.66752 -6.76141 0
M  V30 1501 H 137.366 1.50133 -7.45228 0
M  V30 1502 N 138.941 1.26152 0.944643 0
M  V30 1503 C 140.218 1.02247 1.66748 0
M  V30 1504 C 140.598 -0.448202 2.06287 0
M  V30 1505 O 139.946 -1.42779 1.78399 0
M  V30 1506 C 140.156 1.96788 2.88228 0
M  V30 1507 C 141.504 2.25201 3.59958 0
M  V30 1508 O 142.528 1.94626 2.98327 0
M  V30 1509 O 141.387 2.77242 4.70956 0
M  V30 1510 H 138.481 0.388517 0.730057 0
M  V30 1511 H 141.027 1.37348 0.99668 0
M  V30 1512 H 139.799 2.96047 2.55875 0
M  V30 1513 H 139.422 1.62145 3.63035 0
M  V30 1514 N 140.419 -1.14872 1.07899 0
M  V30 1515 C 141.367 -2.21857 0.698727 0
M  V30 1516 C 142.361 -1.66845 -0.293086 0
M  V30 1517 O 143.567 -1.79321 -0.156204 0
M  V30 1518 H 139.942 -0.722691 0.207899 0
M  V30 1519 H 141.913 -2.51205 1.61054 0
M  V30 1520 C 140.662 -3.47498 0.11858 0
M  V30 1521 H 139.985 -3.90154 0.872914 0
M  V30 1522 H 141.425 -4.23858 -0.109759 0
M  V30 1523 C 139.884 -3.16947 -1.1422 0
M  V30 1524 O 140.414 -3.3426 -2.22785 0
M  V30 1525 N 138.62 -2.70946 -1.05055 0
M  V30 1526 H 138.167 -2.57058 -0.167038 0
M  V30 1527 H 138.125 -2.50879 -1.89491 0
M  V30 1528 N 141.898 -0.863906 -1.31812 0
M  V30 1529 C 142.828 -0.330843 -2.31144 0
M  V30 1530 C 143.809 0.575005 -1.60087 0
M  V30 1531 O 144.994 0.493304 -1.8783 0
M  V30 1532 C 142.124 0.47374 -3.44054 0
M  V30 1533 C 141.078 -0.338481 -4.26659 0
M  V30 1534 C 140.404 0.591412 -5.31419 0
M  V30 1535 C 141.704 -1.56926 -4.98168 0
M  V30 1536 H 143.398 -1.16086 -2.75979 0
M  V30 1537 H 140.944 -0.559657 -1.32679 0
M  V30 1538 H 142.897 0.857143 -4.12591 0
M  V30 1539 H 141.621 1.33721 -2.9797 0
M  V30 1540 H 140.28 -0.703754 -3.59782 0
M  V30 1541 H 139.928 1.45199 -4.81587 0
M  V30 1542 H 139.628 0.0519022 -5.87577 0
M  V30 1543 H 141.152 0.97179 -6.02817 0
M  V30 1544 H 142.566 -1.25764 -5.59336 0
M  V30 1545 H 140.963 -2.04739 -5.64094 0
M  V30 1546 H 142.033 -2.32544 -4.25501 0
M  V30 1547 N 143.376 1.44774 -0.622745 0
M  V30 1548 C 144.306 2.33382 0.0741861 0
M  V30 1549 C 145.287 1.47719 0.843387 0
M  V30 1550 O 146.472 1.76458 0.810934 0
M  V30 1551 C 143.602 3.30663 1.06204 0
M  V30 1552 C 142.556 4.26079 0.405037 0
M  V30 1553 C 141.882 5.13165 1.5022 0
M  V30 1554 C 143.182 5.1781 -0.683414 0
M  V30 1555 H 144.876 2.91905 -0.665713 0
M  V30 1556 H 142.422 1.40363 -0.321587 0
M  V30 1557 H 144.375 3.9153 1.55827 0
M  V30 1558 H 143.099 2.70331 1.83272 0
M  V30 1559 H 141.758 3.66532 -0.0704683 0
M  V30 1560 H 141.406 4.49191 2.26355 0
M  V30 1561 H 141.106 5.77812 1.06803 0
M  V30 1562 H 142.63 5.76902 2.00041 0
M  V30 1563 H 144.044 5.72661 -0.270631 0
M  V30 1564 H 142.441 5.91015 -1.04023 0
M  V30 1565 H 143.511 4.59326 -1.55395 0
M  V30 1566 N 144.854 0.36279 1.53368 0
M  V30 1567 C 145.802 -0.500155 2.27159 0
M  V30 1568 C 146.796 -1.08575 1.3003 0
M  V30 1569 O 148.002 -1.02927 1.47668 0
M  V30 1570 H 144.377 -0.180009 0.730138 0
M  V30 1571 H 146.348 0.14401 2.98052 0
M  V30 1572 C 145.097 -1.62937 3.07159 0
M  V30 1573 H 144.42 -1.18806 3.8174 0
M  V30 1574 H 145.86 -2.20795 3.61975 0
M  V30 1575 C 144.319 -2.57007 2.17829 0
M  V30 1576 O 144.849 -3.59752 1.78721 0
M  V30 1577 N 143.055 -2.26131 1.82518 0
M  V30 1578 H 142.602 -1.42616 2.14519 0
M  V30 1579 H 142.56 -2.89327 1.23034 0
M  V30 1580 N 146.332 -1.57332 0.0918853 0
M  V30 1581 C 147.262 -2.16872 -0.865371 0
M  V30 1582 C 148.243 -1.10118 -1.29646 0
M  V30 1583 O 149.428 -1.38242 -1.36392 0
M  V30 1584 C 146.558 -2.74649 -2.12569 0
M  V30 1585 C 145.512 -3.86747 -1.83333 0
M  V30 1586 C 144.838 -4.31212 -3.16166 0
M  V30 1587 C 146.138 -5.10089 -1.1228 0
M  V30 1588 H 147.832 -2.97114 -0.369307 0
M  V30 1589 H 145.378 -1.42918 -0.176194 0
M  V30 1590 H 147.331 -3.14952 -2.7997 0
M  V30 1591 H 146.055 -1.91657 -2.64452 0
M  V30 1592 H 144.714 -3.46978 -1.18331 0
M  V30 1593 H 144.362 -3.45115 -3.6593 0
M  V30 1594 H 144.062 -5.06788 -2.97388 0
M  V30 1595 H 145.586 -4.74146 -3.84731 0
M  V30 1596 H 147 -5.47582 -1.69785 0
M  V30 1597 H 145.397 -5.91073 -1.03693 0
M  V30 1598 H 146.467 -4.84786 -0.105041 0
M  V30 1599 N 147.81 0.181792 -1.56548 0
M  V30 1600 C 149.035 0.920019 -1.85877 0
M  V30 1601 C 149.46 1.75494 -0.677021 0
M  V30 1602 O 148.818 1.77399 0.374056 0
M  V30 1603 C 148.866 1.78112 -3.13542 0
M  V30 1604 O 147.97 2.88152 -2.95029 0
M  V30 1605 H 147.311 0.258334 -0.611686 0
M  V30 1606 H 149.841 0.183092 -2.03779 0
M  V30 1607 H 149.851 2.18314 -3.44678 0
M  V30 1608 H 148.526 1.16777 -3.99169 0
M  V30 1609 H 147.103 2.51609 -2.75222 0
M  V30 1610 N 149.288 1.51039 0.449983 0
M  V30 1611 C 150.198 1.74261 1.57067 0
M  V30 1612 C 151.214 0.626363 1.62335 0
M  V30 1613 O 152.39 0.907162 1.79812 0
M  V30 1614 C 149.455 1.85114 2.93144 0
M  V30 1615 C 148.516 3.0893 2.98095 0
M  V30 1616 C 147.749 3.19256 4.27681 0
M  V30 1617 O 147.972 2.35835 5.19363 0
M  V30 1618 O 146.906 4.12144 4.38658 0
M  V30 1619 H 150.732 2.69303 1.40391 0
M  V30 1620 H 148.317 1.35389 0.631688 0
M  V30 1621 H 150.199 1.94311 3.73926 0
M  V30 1622 H 148.874 0.932588 3.09975 0
M  V30 1623 H 147.781 3.0522 2.16314 0
M  V30 1624 H 149.114 4.00433 2.86206 0
M  V30 1625 N 150.766 -0.704594 1.40972 0
M  V30 1626 C 152.015 -1.46018 1.39146 0
M  V30 1627 C 152.328 -1.956 0.000589254 0
M  V30 1628 O 153.534 -2.71137 -0.1403 0
M  V30 1629 C 151.99 -2.63996 2.4461 0
M  V30 1630 C 151.598 -2.21238 3.89561 0
M  V30 1631 C 153.342 -3.41677 2.51907 0
M  V30 1632 C 151.249 -3.3612 4.86598 0
M  V30 1633 H 150.179 -0.548444 0.517422 0
M  V30 1634 H 152.83 -0.765784 1.66757 0
M  V30 1635 H 151.212 -3.3566 2.10115 0
M  V30 1636 H 152.386 -1.56923 4.33257 0
M  V30 1637 H 150.701 -1.56574 3.85841 0
M  V30 1638 H 153.298 -4.27182 3.2159 0
M  V30 1639 H 153.641 -3.86247 1.55303 0
M  V30 1640 H 154.174 -2.77064 2.85448 0
M  V30 1641 H 150.913 -2.96572 5.84573 0
M  V30 1642 H 150.433 -3.99315 4.47557 0
M  V30 1643 H 152.112 -4.02029 5.06934 0
M  V30 1644 N 152.244 -1.26651 -0.937939 0
M  V30 1645 C 153.174 -1.10993 -2.05433 0
M  V30 1646 C 154.155 -0.0142161 -1.70094 0
M  V30 1647 O 155.34 -0.186837 -1.93299 0
M  V30 1648 C 152.47 -0.745561 -3.39203 0
M  V30 1649 C 151.424 -1.79337 -3.88616 0
M  V30 1650 C 150.75 -1.28324 -5.19073 0
M  V30 1651 C 152.05 -3.19553 -4.13138 0
M  V30 1652 H 153.744 -2.0438 -2.1879 0
M  V30 1653 H 151.29 -0.984041 -1.05131 0
M  V30 1654 H 153.243 -0.622888 -4.16771 0
M  V30 1655 H 151.967 0.22401 -3.25831 0
M  V30 1656 H 150.626 -1.90477 -3.13231 0
M  V30 1657 H 150.274 -0.303414 -5.02084 0
M  V30 1658 H 149.974 -1.98369 -5.53103 0
M  V30 1659 H 151.498 -1.1733 -5.99221 0
M  V30 1660 H 152.912 -3.11471 -4.81309 0
M  V30 1661 H 151.309 -3.87218 -4.58457 0
M  V30 1662 H 152.379 -3.65368 -3.18801 0
M  V30 1663 N 153.722 1.14298 -1.08507 0
M  V30 1664 C 154.971 1.84708 -0.810305 0
M  V30 1665 C 155.284 1.83903 0.666271 0
M  V30 1666 O 156.49 2.50112 1.05624 0
M  V30 1667 C 154.946 3.31572 -1.39957 0
M  V30 1668 C 154.554 3.40791 -2.90801 0
M  V30 1669 C 156.298 4.07087 -1.20334 0
M  V30 1670 C 154.205 4.81872 -3.4286 0
M  V30 1671 H 153.135 0.691985 -0.299454 0
M  V30 1672 H 155.786 1.28841 -1.30661 0
M  V30 1673 H 154.168 3.87183 -0.830976 0
M  V30 1674 H 155.342 2.95225 -3.53806 0
M  V30 1675 H 153.657 2.78732 -3.0935 0
M  V30 1676 H 156.254 5.11225 -1.56693 0
M  V30 1677 H 156.597 4.16054 -0.143237 0
M  V30 1678 H 157.13 3.57779 -1.73893 0
M  V30 1679 H 153.869 4.78094 -4.48449 0
M  V30 1680 H 153.389 5.27972 -2.84615 0
M  V30 1681 H 155.068 5.50765 -3.39509 0
M  V30 1682 N 155.201 0.870884 1.31352 0
M  V30 1683 C 156.133 0.28455 2.27427 0
M  V30 1684 C 157.146 -0.552927 1.53123 0
M  V30 1685 O 158.335 -0.374771 1.74521 0
M  V30 1686 C 155.435 -0.615164 3.3327 0
M  V30 1687 C 154.608 0.190079 4.36987 0
M  V30 1688 C 153.667 -0.637917 5.22319 0
M  V30 1689 O 152.693 -0.065626 5.69162 0
M  V30 1690 N 153.895 -1.94973 5.46778 0
M  V30 1691 H 156.66 1.11017 2.7838 0
M  V30 1692 H 154.221 0.732458 1.44384 0
M  V30 1693 H 156.213 -1.1748 3.87273 0
M  V30 1694 H 154.783 -1.34146 2.82354 0
M  V30 1695 H 154.003 0.931165 3.83044 0
M  V30 1696 H 155.291 0.742579 5.03352 0
M  V30 1697 H 154.689 -2.4378 5.10478 0
M  V30 1698 H 153.246 -2.45713 6.03712 0
M  V30 1699 N 156.679 -1.44442 0.630414 0
M  V30 1700 C 157.627 -2.32437 -0.0871428 0
M  V30 1701 C 158.621 -1.47304 -0.836525 0
M  V30 1702 O 159.827 -1.63653 -0.749506 0
M  V30 1703 H 156.202 -0.750533 -0.0469495 0
M  V30 1704 H 158.173 -2.90709 0.673096 0
M  V30 1705 C 156.922 -3.31288 -1.05563 0
M  V30 1706 H 156.245 -3.96805 -0.488426 0
M  V30 1707 H 157.685 -3.9554 -1.52721 0
M  V30 1708 C 156.144 -2.6016 -2.14052 0
M  V30 1709 O 156.674 -2.39997 -3.22124 0
M  V30 1710 N 154.88 -2.19911 -1.89967 0
M  V30 1711 H 154.427 -2.36509 -1.02085 0
M  V30 1712 H 154.385 -1.72646 -2.62756 0
M  V30 1713 N 158.157 -0.370918 -1.53173 0
M  V30 1714 C 159.385 0.217704 -2.05751 0
M  V30 1715 C 159.8 1.42018 -1.24404 0
M  V30 1716 O 159.157 1.80245 -0.286033 0
M  V30 1717 C 159.208 0.605954 -3.56385 0
M  V30 1718 O 158.929 -0.548734 -4.3465 0
M  V30 1719 C 160.43 1.2524 -4.25241 0
M  V30 1720 H 157.65 0.0371659 -0.66997 0
M  V30 1721 H 160.194 -0.530832 -1.9749 0
M  V30 1722 H 158.349 1.3044 -3.6478 0
M  V30 1723 H 158.763 -0.23376 -5.23979 0
M  V30 1724 H 160.237 1.47458 -5.3194 0
M  V30 1725 H 160.714 2.2143 -3.79296 0
M  V30 1726 H 161.32 0.595233 -4.21114 0
M  V30 1727 N 159.635 1.57281 -0.100228 0
M  V30 1728 C 160.582 2.14305 0.856858 0
M  V30 1729 C 161.552 1.06296 1.27634 0
M  V30 1730 O 162.737 1.34109 1.35718 0
M  V30 1731 C 159.877 2.73184 2.10866 0
M  V30 1732 C 158.99 3.95442 1.73925 0
M  V30 1733 C 158.125 4.42468 2.93931 0
M  V30 1734 C 157.164 5.57303 2.5314 0
M  V30 1735 N 156.301 5.99158 3.65997 0
M  V30 1736 H 161.141 2.95772 0.363726 0
M  V30 1737 H 158.678 1.46139 0.167858 0
M  V30 1738 H 160.636 3.05442 2.84185 0
M  V30 1739 H 159.266 1.94437 2.57671 0
M  V30 1740 H 158.318 3.69464 0.905554 0
M  V30 1741 H 159.63 4.78769 1.39935 0
M  V30 1742 H 158.784 4.76537 3.75496 0
M  V30 1743 H 157.523 3.58052 3.31134 0
M  V30 1744 H 156.528 5.22857 1.70003 0
M  V30 1745 H 157.753 6.43471 2.17075 0
M  V30 1746 H 155.699 5.17687 4.02909 0
M  V30 1747 H 155.616 6.77295 3.35869 0
M  V30 1748 H 156.884 6.3786 4.48057 0
M  V30 1749 N 161.113 -0.173488 1.56642 0
M  V30 1750 C 162.061 -1.23417 1.97157 0
M  V30 1751 C 163.055 -1.45946 0.860013 0
M  V30 1752 O 164.261 -1.46551 1.04512 0
M  V30 1753 H 160.636 -0.414818 0.62724 0
M  V30 1754 H 162.607 -0.865582 2.8557 0
M  V30 1755 C 161.356 -2.5665 2.34576 0
M  V30 1756 H 160.679 -2.40137 3.19647 0
M  V30 1757 H 162.119 -3.2956 2.6677 0
M  V30 1758 C 160.578 -3.15245 1.18836 0
M  V30 1759 O 161.108 -3.98883 0.474869 0
M  V30 1760 N 159.314 -2.74303 0.959497 0
M  V30 1761 H 158.861 -2.0639 1.54146 0
M  V30 1762 H 158.819 -3.13844 0.186932 0
M  V30 1763 N 162.591 -1.51276 -0.441967 0
M  V30 1764 C 163.521 -1.752 -1.54361 0
M  V30 1765 C 164.502 -0.601682 -1.59103 0
M  V30 1766 O 165.687 -0.843913 -1.74905 0
M  V30 1767 C 162.817 -1.87282 -2.92477 0
M  V30 1768 C 161.771 -3.02687 -3.02596 0
M  V30 1769 C 161.097 -2.99947 -4.42647 0
M  V30 1770 C 162.397 -4.4273 -2.77106 0
M  V30 1771 H 164.091 -2.67442 -1.34592 0
M  V30 1772 H 161.637 -1.28694 -0.646048 0
M  V30 1773 H 163.59 -2.02602 -3.695 0
M  V30 1774 H 162.314 -0.916844 -3.13467 0
M  V30 1775 H 160.973 -2.87065 -2.28012 0
M  V30 1776 H 160.621 -2.02136 -4.60597 0
M  V30 1777 H 160.321 -3.77439 -4.50348 0
M  V30 1778 H 161.845 -3.17354 -5.2165 0
M  V30 1779 H 163.259 -4.58727 -3.43864 0
M  V30 1780 H 161.656 -5.21893 -2.96222 0
M  V30 1781 H 162.726 -4.53087 -1.72744 0
M  V30 1782 N 164.069 0.697108 -1.41344 0
M  V30 1783 C 165.485 1.00751 -1.2378 0
M  V30 1784 C 165.685 2.01105 -0.126066 0
M  V30 1785 O 164.741 2.47295 0.51004 0
M  V30 1786 C 166.054 1.53359 -2.58653 0
M  V30 1787 C 167.602 1.6525 -2.65822 0
M  V30 1788 C 168.077 2.2126 -4.01009 0
M  V30 1789 N 169.568 2.28622 -4.02847 0
M  V30 1790 C 170.303 2.72984 -5.04249 0
M  V30 1791 N 169.799 3.16962 -6.16041 0
M  V30 1792 N 171.592 2.72534 -4.91611 0
M  V30 1793 H 163.743 0.0322662 -2.12375 0
M  V30 1794 H 166.006 0.0768853 -0.944877 0
M  V30 1795 H 165.712 0.870773 -3.4075 0
M  V30 1796 H 165.586 2.51597 -2.81032 0
M  V30 1797 H 167.973 2.30644 -1.84086 0
M  V30 1798 H 168.054 0.655614 -2.47256 0
M  V30 1799 H 167.698 1.56482 -4.83193 0
M  V30 1800 H 167.628 3.21698 -4.16915 0
M  V30 1801 H 170.119 1.97585 -3.22131 0
M  V30 1802 H 170.432 3.49434 -6.89287 0
M  V30 1803 H 168.777 3.14875 -6.1958 0
M  V30 1804 H 171.968 2.37525 -4.0336 0
M  V30 1805 H 172.141 3.06789 -5.70775 0
M  V30 1806 N 165.547 1.27147 0.931209 0
M  V30 1807 C 166.777 1.15914 1.71019 0
M  V30 1808 C 167.185 -0.287112 1.87009 0
M  V30 1809 O 166.528 -1.20761 1.38429 0
M  V30 1810 C 166.59 1.76647 3.13107 0
M  V30 1811 C 166.254 3.25807 3.20467 0
M  V30 1812 C 167.251 4.22489 3.02983 0
M  V30 1813 C 164.936 3.66452 3.43538 0
M  V30 1814 C 166.93 5.57794 3.08454 0
M  V30 1815 C 164.617 5.01888 3.48643 0
M  V30 1816 C 165.615 5.97369 3.31119 0
M  V30 1817 O 165.303 7.30337 3.35952 0
M  V30 1818 H 165.035 0.404062 0.54195 0
M  V30 1819 H 167.589 1.68457 1.17521 0
M  V30 1820 H 165.819 1.18578 3.68071 0
M  V30 1821 H 167.508 1.60179 3.72958 0
M  V30 1822 H 168.274 3.92425 2.85004 0
M  V30 1823 H 164.153 2.92611 3.5623 0
M  V30 1824 H 167.697 6.32298 2.94694 0
M  V30 1825 H 163.594 5.31609 3.66145 0
M  V30 1826 H 164.362 7.38739 3.5243 0
M  V30 1827 N 167.025 -1.13721 1.09112 0
M  V30 1828 C 168.274 -1.84275 0.82009 0
M  V30 1829 C 168.587 -1.84253 -0.656509 0
M  V30 1830 O 169.793 -2.50668 -1.04296 0
M  V30 1831 C 168.249 -3.30825 1.41714 0
M  V30 1832 C 167.857 -3.39244 2.92605 0
M  V30 1833 C 169.601 -4.06443 1.22492 0
M  V30 1834 C 167.508 -4.80047 3.45411 0
M  V30 1835 H 166.438 -0.690387 0.30312 0
M  V30 1836 H 169.089 -1.28146 1.31343 0
M  V30 1837 H 167.471 -3.86737 0.851498 0
M  V30 1838 H 168.645 -2.93344 3.55367 0
M  V30 1839 H 166.96 -2.77088 3.10823 0
M  V30 1840 H 169.557 -5.10387 1.59402 0
M  V30 1841 H 169.9 -4.15972 0.165299 0
M  V30 1842 H 170.433 -3.56852 1.75788 0
M  V30 1843 H 167.172 -4.75709 4.50978 0
M  V30 1844 H 166.692 -5.26455 2.87411 0
M  V30 1845 H 168.371 -5.48957 3.42425 0
M  V30 1846 N 168.503 -0.877838 -1.30888 0
M  V30 1847 C 169.413 -0.343096 -2.32078 0
M  V30 1848 C 170.429 0.551022 -1.65045 0
M  V30 1849 O 171.605 0.445854 -1.96403 0
M  V30 1850 C 168.67 0.439905 -3.43898 0
M  V30 1851 C 167.731 -0.483111 -4.26573 0
M  V30 1852 C 166.964 0.262616 -5.33053 0
M  V30 1853 O 167.187 1.48967 -5.50604 0
M  V30 1854 O 166.121 -0.383593 -6.00676 0
M  V30 1855 H 169.947 -1.18203 -2.79753 0
M  V30 1856 H 167.532 -0.64145 -1.34929 0
M  V30 1857 H 169.414 0.883504 -4.12034 0
M  V30 1858 H 168.089 1.25526 -2.98371 0
M  V30 1859 H 166.996 -0.975374 -3.61161 0
M  V30 1860 H 168.329 -1.26427 -4.75686 0
M  V30 1861 N 169.982 1.44106 -0.638065 0
M  V30 1862 C 171.393 1.85316 -0.226894 0
M  V30 1863 C 171.744 1.53399 1.22324 0
M  V30 1864 O 170.869 0.975463 1.93167 0
M  V30 1865 C 171.464 3.3637 -0.405013 0
M  V30 1866 C 170.023 3.76369 -0.0482902 0
M  V30 1867 C 169.17 2.67921 -0.715108 0
M  V30 1868 H 172.121 1.34474 -0.842764 0
M  V30 1869 H 172.142 3.7885 0.354 0
M  V30 1870 H 171.654 3.59569 -1.46053 0
M  V30 1871 H 169.755 3.58784 1.00522 0
M  V30 1872 H 169.868 4.76856 -0.463187 0
M  V30 1873 H 168.232 2.54259 -0.149753 0
M  V30 1874 H 169.015 2.93951 -1.77335 0
M  V30 1875 N 171.46 0.379036 1.52974 0
M  V30 1876 C 172.708 -0.206014 2.01047 0
M  V30 1877 C 173.029 -1.48175 1.26765 0
M  V30 1878 O 172.299 -1.92085 0.384743 0
M  V30 1879 H 170.879 -0.0791184 0.742798 0
M  V30 1880 H 173.541 0.508366 1.88153 0
M  V30 1881 H 172.637 -0.423501 3.09213 0
M  V30 1882 N 172.938 -1.57226 0.108567 0
M  V30 1883 C 173.901 -2.13602 -0.831082 0
M  V30 1884 C 174.901 -1.06841 -1.20173 0
M  V30 1885 O 176.091 -1.32666 -1.12895 0
M  V30 1886 C 173.223 -2.66769 -2.12243 0
M  V30 1887 H 174.416 -2.97951 -0.341317 0
M  V30 1888 H 171.969 -1.55667 -0.14057 0
M  V30 1889 H 172.704 -1.85977 -2.65675 0
M  V30 1890 H 172.489 -3.44839 -1.86625 0
M  V30 1891 H 173.979 -3.10332 -2.79435 0
M  V30 1892 N 174.416 0.165178 -1.56732 0
M  V30 1893 C 175.663 0.880807 -1.8234 0
M  V30 1894 C 175.991 1.81977 -0.686621 0
M  V30 1895 O 175.246 1.92971 0.325697 0
M  V30 1896 C 175.545 1.70405 -3.1416 0
M  V30 1897 C 175.211 0.913475 -4.4155 0
M  V30 1898 C 173.873 0.695303 -4.7615 0
M  V30 1899 C 176.225 0.359349 -5.1996 0
M  V30 1900 C 173.553 -0.0879947 -5.86634 0
M  V30 1901 C 175.905 -0.410893 -6.31264 0
M  V30 1902 C 174.569 -0.639808 -6.64427 0
M  V30 1903 H 173.839 0.32231 -0.667231 0
M  V30 1904 H 176.486 0.145402 -1.90947 0
M  V30 1905 H 174.791 2.50903 -3.00923 0
M  V30 1906 H 176.488 2.26091 -3.31186 0
M  V30 1907 H 173.078 1.09357 -4.14414 0
M  V30 1908 H 177.262 0.515228 -4.93618 0
M  V30 1909 H 172.518 -0.27503 -6.10781 0
M  V30 1910 H 176.692 -0.847494 -6.91224 0
M  V30 1911 H 174.319 -1.24864 -7.49875 0
M  V30 1912 N 175.894 1.51508 0.433938 0
M  V30 1913 C 177.143 1.63578 1.18005 0
M  V30 1914 C 177.456 0.359514 1.92268 0
M  V30 1915 O 178.662 0.359632 2.69108 0
M  V30 1916 C 177.118 2.88901 2.14626 0
M  V30 1917 C 176.726 4.23544 1.45995 0
M  V30 1918 C 178.47 3.10328 2.89649 0
M  V30 1919 C 176.377 5.40014 2.4112 0
M  V30 1920 H 175.307 0.609277 0.444182 0
M  V30 1921 H 177.958 1.77978 0.446773 0
M  V30 1922 H 176.34 2.68142 2.91403 0
M  V30 1923 H 177.514 4.54696 0.747532 0
M  V30 1924 H 175.829 4.08021 0.831115 0
M  V30 1925 H 178.426 3.94518 3.60915 0
M  V30 1926 H 178.769 2.23544 3.51189 0
M  V30 1927 H 179.302 3.31443 2.19978 0
M  V30 1928 H 176.041 6.29068 1.84264 0
M  V30 1929 H 175.561 5.13233 3.10406 0
M  V30 1930 H 177.24 5.72099 3.02177 0
M  V30 1931 N 177.372 -0.689602 1.41712 0
M  V30 1932 C 178.32 -1.82475 1.44242 0
M  V30 1933 C 179.314 -1.66354 0.319774 0
M  V30 1934 O 180.52 -1.73143 0.492089 0
M  V30 1935 H 176.895 -0.601416 0.451445 0
M  V30 1936 H 178.866 -1.77458 2.39899 0
M  V30 1937 C 177.615 -3.20535 1.3473 0
M  V30 1938 H 176.938 -3.33559 2.20405 0
M  V30 1939 H 178.378 -4.00023 1.40562 0
M  V30 1940 C 176.837 -3.36846 0.0603281 0
M  V30 1941 O 177.367 -3.91656 -0.892663 0
M  V30 1942 N 175.573 -2.90595 -0.0177039 0
M  V30 1943 H 175.12 -2.46178 0.758572 0
M  V30 1944 H 175.078 -3.01886 -0.878201 0
M  V30 1945 N 178.85 -1.27639 -0.924453 0
M  V30 1946 C 179.78 -1.13166 -2.04244 0
M  V30 1947 C 180.761 -0.032256 -1.70069 0
M  V30 1948 O 181.946 -0.207328 -1.9309 0
M  V30 1949 C 179.076 -0.781496 -3.38393 0
M  V30 1950 C 178.03 -1.83449 -3.86692 0
M  V30 1951 C 177.356 -1.33822 -5.17683 0
M  V30 1952 C 178.656 -3.23917 -4.09726 0
M  V30 1953 H 180.35 -2.06689 -2.1661 0
M  V30 1954 H 177.896 -0.995136 -1.04082 0
M  V30 1955 H 179.849 -0.667057 -4.16087 0
M  V30 1956 H 178.573 0.189439 -3.2605 0
M  V30 1957 H 177.232 -1.93789 -3.11193 0
M  V30 1958 H 176.88 -0.35665 -5.01734 0
M  V30 1959 H 176.58 -2.04224 -5.50968 0
M  V30 1960 H 178.104 -1.23679 -5.97943 0
M  V30 1961 H 179.518 -3.16559 -4.77978 0
M  V30 1962 H 177.915 -3.92059 -4.54324 0
M  V30 1963 H 178.985 -3.68729 -3.14908 0
M  V30 1964 N 180.328 1.1314 -1.09713 0
M  V30 1965 C 181.739 1.66029 -0.853885 0
M  V30 1966 C 182.09 1.86241 0.617142 0
M  V30 1967 O 181.215 1.5834 1.47503 0
M  V30 1968 C 181.81 3.01599 -1.5435 0
M  V30 1969 C 180.369 3.51467 -1.34714 0
M  V30 1970 C 179.516 2.26648 -1.59769 0
M  V30 1971 H 182.467 0.970226 -1.25588 0
M  V30 1972 H 182.488 3.67709 -0.978267 0
M  V30 1973 H 182 2.86856 -2.6141 0
M  V30 1974 H 180.101 3.71408 -0.297838 0
M  V30 1975 H 180.214 4.314 -2.08401 0
M  V30 1976 H 178.578 2.33385 -1.01998 0
M  V30 1977 H 179.361 2.14467 -2.68065 0
M  V30 1978 N 181.806 0.884767 1.30421 0
M  V30 1979 C 183.222 0.57874 1.48737 0
M  V30 1980 C 183.422 -0.883567 1.81095 0
M  V30 1981 O 182.478 -1.6648 1.89844 0
M  V30 1982 C 183.791 1.49171 2.61091 0
M  V30 1983 C 185.339 1.49532 2.74971 0
M  V30 1984 C 185.814 2.39421 3.90438 0
M  V30 1985 N 187.305 2.37383 3.97748 0
M  V30 1986 C 188.04 3.03647 4.86401 0
M  V30 1987 N 187.536 3.79136 5.79852 0
M  V30 1988 N 189.329 2.9288 4.79768 0
M  V30 1989 H 181.48 1.83075 1.0769 0
M  V30 1990 H 183.743 0.783637 0.533495 0
M  V30 1991 H 183.449 2.53291 2.44001 0
M  V30 1992 H 183.323 1.20113 3.57565 0
M  V30 1993 H 185.71 0.46163 2.91467 0
M  V30 1994 H 185.791 1.8262 1.79119 0
M  V30 1995 H 185.435 3.42874 3.74699 0
M  V30 1996 H 185.365 2.03649 4.85628 0
M  V30 1997 H 187.856 1.82525 3.30897 0
M  V30 1998 H 188.169 4.26789 6.4426 0
M  V30 1999 H 186.514 3.83243 5.79784 0
M  V30 2000 H 189.705 2.33433 4.05742 0
M  V30 2001 H 189.878 3.448 5.4865 0
M  V30 2002 N 183.284 -1.43765 0.645699 0
M  V30 2003 C 184.214 -2.33471 -0.0370477 0
M  V30 2004 C 185.195 -1.49042 -0.819779 0
M  V30 2005 O 186.38 -1.77726 -0.782758 0
M  V30 2006 C 183.51 -3.32311 -1.0093 0
M  V30 2007 C 182.464 -4.2667 -0.337201 0
M  V30 2008 C 181.79 -5.1549 -1.42037 0
M  V30 2009 C 183.09 -5.16657 0.765706 0
M  V30 2010 H 184.784 -2.90809 0.712069 0
M  V30 2011 H 182.33 -1.39834 0.343876 0
M  V30 2012 H 184.283 -3.9396 -1.49578 0
M  V30 2013 H 183.007 -2.73213 -1.78948 0
M  V30 2014 H 181.666 -3.66374 0.128771 0
M  V30 2015 H 181.314 -4.52735 -2.1918 0
M  V30 2016 H 181.014 -5.79438 -0.975966 0
M  V30 2017 H 182.538 -5.80012 -1.90838 0
M  V30 2018 H 183.952 -5.72158 0.361702 0
M  V30 2019 H 182.349 -5.89286 1.13413 0
M  V30 2020 H 183.419 -4.56796 1.62683 0
M  V30 2021 N 184.763 -0.387143 -1.52771 0
M  V30 2022 C 185.71 0.449048 -2.26389 0
M  V30 2023 C 186.68 1.05961 -1.27912 0
M  V30 2024 O 187.865 1.08804 -1.56737 0
M  V30 2025 C 185.005 1.57155 -3.0724 0
M  V30 2026 C 184.118 0.984066 -4.20643 0
M  V30 2027 C 183.253 2.07745 -4.88892 0
M  V30 2028 C 182.292 1.46574 -5.94292 0
M  V30 2029 N 181.429 2.49834 -6.56146 0
M  V30 2030 H 186.269 -0.185205 -2.97424 0
M  V30 2031 H 183.806 -0.103164 -1.46738 0
M  V30 2032 H 185.764 2.23309 -3.52405 0
M  V30 2033 H 184.394 2.17615 -2.38419 0
M  V30 2034 H 183.446 0.212193 -3.79808 0
M  V30 2035 H 184.758 0.497029 -4.96318 0
M  V30 2036 H 183.912 2.81673 -5.3735 0
M  V30 2037 H 182.651 2.59807 -4.12737 0
M  V30 2038 H 181.656 0.711696 -5.45174 0
M  V30 2039 H 182.881 0.953088 -6.72379 0
M  V30 2040 H 180.827 3.0107 -5.82832 0
M  V30 2041 H 180.744 2.05879 -7.27427 0
M  V30 2042 H 182.012 3.23399 -7.09249 0
M  V30 2043 N 186.241 1.57166 -0.116904 0
M  V30 2044 C 187.471 1.99184 0.548586 0
M  V30 2045 C 187.879 0.995436 1.60897 0
M  V30 2046 O 187.222 -0.0201293 1.83689 0
M  V30 2047 C 187.284 3.37611 1.23526 0
M  V30 2048 C 186.948 4.55857 0.323077 0
M  V30 2049 C 187.945 5.18056 -0.437476 0
M  V30 2050 C 185.63 5.01751 0.234761 0
M  V30 2051 C 187.624 6.24536 -1.2741 0
M  V30 2052 C 185.311 6.08093 -0.605496 0
M  V30 2053 C 186.309 6.69352 -1.35856 0
M  V30 2054 O 185.997 7.7364 -2.18487 0
M  V30 2055 H 185.729 0.659148 0.149999 0
M  V30 2056 H 188.283 2.0443 -0.199428 0
M  V30 2057 H 186.513 3.29113 2.0303 0
M  V30 2058 H 188.202 3.63932 1.79745 0
M  V30 2059 H 188.968 4.83516 -0.379105 0
M  V30 2060 H 184.847 4.53817 0.810601 0
M  V30 2061 H 188.391 6.72281 -1.86237 0
M  V30 2062 H 184.288 6.42063 -0.665268 0
M  V30 2063 H 185.056 7.90727 -2.11406 0
M  V30 2064 N 187.719 -0.156864 1.56817 0
M  V30 2065 C 188.649 -1.19589 2.00551 0
M  V30 2066 C 189.63 -1.4536 0.883426 0
M  V30 2067 O 190.815 -1.56449 1.15054 0
M  V30 2068 C 187.945 -2.53143 2.37773 0
M  V30 2069 C 186.899 -2.41913 3.53075 0
M  V30 2070 C 186.225 -3.80088 3.76081 0
M  V30 2071 C 187.525 -1.91157 4.86062 0
M  V30 2072 H 189.219 -0.832293 2.87599 0
M  V30 2073 H 186.765 -0.398918 1.38364 0
M  V30 2074 H 188.718 -3.26047 2.66967 0
M  V30 2075 H 187.442 -2.91319 1.4765 0
M  V30 2076 H 186.101 -1.71462 3.24031 0
M  V30 2077 H 185.749 -4.15683 2.83225 0
M  V30 2078 H 185.449 -3.73439 4.53671 0
M  V30 2079 H 186.973 -4.54556 4.0769 0
M  V30 2080 H 188.387 -2.53846 5.14038 0
M  V30 2081 H 186.784 -1.95422 5.67389 0
M  V30 2082 H 187.854 -0.866673 4.77092 0
M  V30 2083 N 189.197 -1.51736 -0.425897 0
M  V30 2084 C 190.422 -1.69082 -1.20108 0
M  V30 2085 C 190.847 -0.392398 -1.83962 0
M  V30 2086 O 190.205 0.64858 -1.69302 0
M  V30 2087 C 190.253 -2.81604 -2.25237 0
M  V30 2088 O 189.357 -2.46004 -3.30992 0
M  V30 2089 H 188.698 -0.563408 -0.35138 0
M  V30 2090 H 191.228 -1.98358 -0.501512 0
M  V30 2091 H 191.238 -3.06025 -2.69838 0
M  V30 2092 H 189.913 -3.75817 -1.78142 0
M  V30 2093 H 188.49 -2.32195 -2.91787 0
M  V30 2094 N 190.675 0.682077 -1.42076 0
M  V30 2095 C 191.924 1.43786 -1.41451 0
M  V30 2096 C 192.237 1.95574 -0.0317074 0
M  V30 2097 O 193.443 2.71326 0.0971462 0
M  V30 2098 C 191.899 2.60071 -2.48779 0
M  V30 2099 C 191.507 2.15013 -3.93031 0
M  V30 2100 C 193.251 3.37626 -2.57311 0
M  V30 2101 C 191.158 3.28336 -4.91883 0
M  V30 2102 H 190.088 0.540143 -0.526082 0
M  V30 2103 H 192.739 0.739157 -1.67955 0
M  V30 2104 H 191.121 3.32275 -2.15429 0
M  V30 2105 H 192.295 1.5001 -4.35699 0
M  V30 2106 H 190.61 1.50416 -3.88284 0
M  V30 2107 H 193.207 4.22012 -3.28345 0
M  V30 2108 H 193.55 3.83727 -1.61429 0
M  V30 2109 H 194.083 2.72488 -2.89819 0
M  V30 2110 H 190.822 2.87234 -5.89217 0
M  V30 2111 H 190.342 3.92145 -4.53853 0
M  V30 2112 H 192.021 3.93913 -5.13265 0
M  V30 2113 N 192.153 1.28127 0.917671 0
M  V30 2114 C 193.393 1.163 1.68088 0
M  V30 2115 C 193.757 -0.284515 1.8988 0
M  V30 2116 O 194.958 -0.525413 2.63615 0
M  V30 2117 C 193.229 1.93546 3.00457 0
M  V30 2118 S 194.788 1.98048 3.91564 0
M  V30 2119 H 191.606 0.415005 0.577315 0
M  V30 2120 H 194.208 1.62173 1.09179 0
M  V30 2121 H 192.912 2.97888 2.82295 0
M  V30 2122 H 192.443 1.48207 3.64415 0
M  V30 2123 H 194.458 1.08415 4.84211 0
M  V30 2124 N 193.631 -1.12557 1.10312 0
M  V30 2125 C 194.579 -2.20325 0.745629 0
M  V30 2126 C 195.573 -1.67429 -0.25763 0
M  V30 2127 O 196.779 -1.79612 -0.118132 0
M  V30 2128 H 193.154 -0.718118 0.223182 0
M  V30 2129 H 195.125 -2.47733 1.66346 0
M  V30 2130 C 193.874 -3.47168 0.192262 0
M  V30 2131 H 193.197 -3.88215 0.955475 0
M  V30 2132 H 194.637 -4.23995 -0.0198274 0
M  V30 2133 C 193.096 -3.19298 -1.07472 0
M  V30 2134 O 193.626 -3.3891 -2.15645 0
M  V30 2135 N 191.832 -2.73113 -0.992847 0
M  V30 2136 H 191.379 -2.57354 -0.112474 0
M  V30 2137 H 191.337 -2.54842 -1.84127 0
M  V30 2138 N 195.109 -0.891671 -1.2995 0
M  V30 2139 C 196.337 -0.52866 -2.00032 0
M  V30 2140 C 196.752 0.884574 -1.66795 0
M  V30 2141 O 196.109 1.5827 -0.908669 0
M  V30 2142 C 196.16 -0.701814 -3.54622 0
M  V30 2143 O 195.881 -2.05942 -3.86678 0
M  V30 2144 C 197.382 -0.342683 -4.41973 0
M  V30 2145 H 194.602 -0.203659 -0.639347 0
M  V30 2146 H 197.146 -1.19881 -1.65677 0
M  V30 2147 H 195.301 -0.0789468 -3.8732 0
M  V30 2148 H 195.715 -2.08291 -4.81368 0
M  V30 2149 H 197.189 -0.514709 -5.49595 0
M  V30 2150 H 197.666 0.71975 -4.33262 0
M  V30 2151 H 198.272 -0.942154 -4.14733 0
M  V30 2152 N 196.587 1.43421 -0.653314 0
M  V30 2153 C 197.835 2.01414 -0.166415 0
M  V30 2154 C 198.156 1.51803 1.22397 0
M  V30 2155 O 197.426 0.730693 1.81763 0
M  V30 2156 H 196.006 0.744703 -0.0585319 0
M  V30 2157 H 198.668 1.75629 -0.845003 0
M  V30 2158 H 197.764 3.11734 -0.151111 0
M  V30 2159 N 198.065 0.39524 1.52563 0
M  V30 2160 C 199.314 -0.186321 2.00838 0
M  V30 2161 C 199.627 -1.47402 1.28577 0
M  V30 2162 O 200.833 -2.13599 1.67593 0
M  V30 2163 C 199.289 -0.382595 3.57861 0
M  V30 2164 C 198.897 0.892202 4.39026 0
M  V30 2165 C 200.641 -0.9202 4.14406 0
M  V30 2166 C 198.548 0.66388 5.87662 0
M  V30 2167 H 197.478 -0.0734041 0.750418 0
M  V30 2168 H 200.129 0.518552 1.76021 0
M  V30 2169 H 198.511 -1.14946 3.7895 0
M  V30 2170 H 199.685 1.66414 4.29701 0
M  V30 2171 H 198 1.35519 3.9373 0
M  V30 2172 H 200.597 -1.10683 5.23119 0
M  V30 2173 H 200.94 -1.89096 3.70875 0
M  V30 2174 H 201.473 -0.212751 3.97231 0
M  V30 2175 H 198.212 1.6058 6.35527 0
M  V30 2176 H 197.732 -0.0690193 5.9976 0
M  V30 2177 H 199.411 0.300699 6.46301 0
M  V30 2178 N 199.544 -1.57102 0.125237 0
M  V30 2179 C 200.96 -1.57915 -0.231322 0
M  V30 2180 C 201.16 -1.13833 -1.66266 0
M  V30 2181 O 200.216 -0.828581 -2.38518 0
M  V30 2182 C 201.529 -3.00699 0.00766489 0
M  V30 2183 C 203.077 -3.12947 -0.0577483 0
M  V30 2184 C 203.552 -4.57742 0.153626 0
M  V30 2185 N 205.043 -4.63092 0.0998073 0
M  V30 2186 C 205.778 -5.72905 0.238174 0
M  V30 2187 N 205.274 -6.91445 0.433057 0
M  V30 2188 N 207.067 -5.6182 0.177308 0
M  V30 2189 H 199.218 -1.84055 1.06007 0
M  V30 2190 H 201.481 -0.850905 0.417929 0
M  V30 2191 H 201.187 -3.3726 0.997431 0
M  V30 2192 H 201.061 -3.70236 -0.721452 0
M  V30 2193 H 203.448 -2.7624 -1.03804 0
M  V30 2194 H 203.529 -2.4594 0.70335 0
M  V30 2195 H 203.173 -4.95149 1.13092 0
M  V30 2196 H 203.103 -5.22848 -0.627534 0
M  V30 2197 H 205.594 -3.77871 -0.047051 0
M  V30 2198 H 205.907 -7.70985 0.529332 0
M  V30 2199 H 204.252 -6.93415 0.469109 0
M  V30 2200 H 207.443 -4.68093 0.0259748 0
M  V30 2201 H 207.616 -6.47357 0.288582 0
M  V30 2202 N 201.022 0.148545 -1.56898 0
M  V30 2203 C 201.969 1.18345 -1.98149 0
M  V30 2204 C 202.939 1.42772 -0.848848 0
M  V30 2205 O 204.124 1.55132 -1.11079 0
M  V30 2206 C 201.264 2.51231 -2.36594 0
M  V30 2207 C 200.377 2.33991 -3.63142 0
M  V30 2208 C 199.512 3.59902 -3.90697 0
M  V30 2209 C 198.551 3.37692 -5.1052 0
M  V30 2210 N 197.688 4.5573 -5.34092 0
M  V30 2211 H 202.528 0.82467 -2.86362 0
M  V30 2212 H 200.065 0.395756 -1.41676 0
M  V30 2213 H 202.023 3.28713 -2.56912 0
M  V30 2214 H 200.653 2.85059 -1.51463 0
M  V30 2215 H 199.705 1.47572 -3.50609 0
M  V30 2216 H 201.017 2.13539 -4.5078 0
M  V30 2217 H 200.171 4.45813 -4.11505 0
M  V30 2218 H 198.91 3.83357 -3.01477 0
M  V30 2219 H 197.915 2.5017 -4.89587 0
M  V30 2220 H 199.14 3.15637 -6.0129 0
M  V30 2221 H 197.086 4.79361 -4.47827 0
M  V30 2222 H 197.003 4.38274 -6.15996 0
M  V30 2223 H 198.271 5.42858 -5.59397 0
M  V30 2224 N 202.5 1.5196 0.417844 0
M  V30 2225 C 203.747 1.65591 1.16559 0
M  V30 2226 C 204.075 0.381565 1.90721 0
M  V30 2227 O 203.33 -0.635156 1.85106 0
M  V30 2228 C 203.629 2.82269 2.19223 0
M  V30 2229 C 203.295 4.20819 1.61933 0
M  V30 2230 C 201.957 4.58506 1.46033 0
M  V30 2231 C 204.309 5.07196 1.20008 0
M  V30 2232 C 201.637 5.80257 0.867113 0
M  V30 2233 C 203.989 6.29544 0.621086 0
M  V30 2234 C 202.653 6.65987 0.449144 0
M  V30 2235 H 201.923 0.605939 0.42652 0
M  V30 2236 H 204.57 1.86041 0.45397 0
M  V30 2237 H 202.875 2.56118 2.96498 0
M  V30 2238 H 204.572 2.90012 2.76936 0
M  V30 2239 H 201.162 3.91116 1.7529 0
M  V30 2240 H 205.346 4.7867 1.31105 0
M  V30 2241 H 200.602 6.07124 0.721833 0
M  V30 2242 H 204.776 6.95805 0.287798 0
M  V30 2243 H 202.403 7.60199 -0.012632 0
M  V30 2244 N 203.978 -0.674533 1.42435 0
M  V30 2245 C 205.389 -1.25514 1.38214 0
M  V30 2246 C 205.74 -1.96055 0.0755464 0
M  V30 2247 O 204.865 -2.00028 -0.8257 0
M  V30 2248 C 205.46 -2.28269 2.50357 0
M  V30 2249 C 204.019 -2.81856 2.49467 0
M  V30 2250 C 203.166 -1.56182 2.29134 0
M  V30 2251 H 206.117 -0.467902 1.51646 0
M  V30 2252 H 206.138 -3.10009 2.20624 0
M  V30 2253 H 205.65 -1.769 3.45439 0
M  V30 2254 H 203.751 -3.37346 1.58204 0
M  V30 2255 H 203.864 -3.30854 3.46515 0
M  V30 2256 H 202.228 -1.82761 1.774 0
M  V30 2257 H 203.011 -1.06778 3.26272 0
M  V30 2258 N 205.456 -1.28612 -0.910864 0
M  V30 2259 C 206.733 -1.06632 -1.63979 0
M  V30 2260 C 207.113 0.393351 -2.07403 0
M  V30 2261 O 206.461 1.37999 -1.82122 0
M  V30 2262 C 206.671 -2.0436 -2.8291 0
M  V30 2263 C 208.019 -2.34666 -3.5386 0
M  V30 2264 O 209.043 -2.02467 -2.93062 0
M  V30 2265 O 207.902 -2.89631 -4.63439 0
M  V30 2266 H 204.996 -0.407737 -0.7195 0
M  V30 2267 H 207.542 -1.39942 -0.959914 0
M  V30 2268 H 206.314 -3.02727 -2.47936 0
M  V30 2269 H 205.937 -1.71714 -3.58609 0
M  V30 2270 N 206.934 1.1197 -1.10907 0
M  V30 2271 C 208.18 1.8386 -0.855773 0
M  V30 2272 C 208.513 1.84134 0.617103 0
M  V30 2273 O 207.788 1.29041 1.45529 0
M  V30 2274 C 208.071 3.31305 -1.411 0
M  V30 2275 C 207.924 3.39456 -2.9511 0
M  V30 2276 C 209.243 4.2721 -1.05736 0
M  V30 2277 H 206.362 0.667545 -0.312334 0
M  V30 2278 H 209.004 1.31331 -1.37303 0
M  V30 2279 H 207.154 3.76169 -0.97105 0
M  V30 2280 H 208.826 3.03191 -3.47668 0
M  V30 2281 H 207.069 2.79849 -3.31462 0
M  V30 2282 H 207.74 4.43209 -3.29044 0
M  V30 2283 H 210.216 3.90497 -1.43706 0
M  V30 2284 H 209.092 5.28775 -1.47269 0
M  V30 2285 H 209.353 4.42088 0.0325958 0
M  V30 2286 N 208.412 0.89855 1.29475 0
M  V30 2287 C 209.64 0.539261 1.99749 0
M  V30 2288 C 210.055 -0.875716 1.67262 0
M  V30 2289 O 209.412 -1.57786 0.917049 0
M  V30 2290 C 209.463 0.72061 3.54245 0
M  V30 2291 O 209.184 2.07989 3.8558 0
M  V30 2292 C 210.685 0.366118 4.41786 0
M  V30 2293 H 207.905 0.207047 0.638258 0
M  V30 2294 H 210.449 1.20758 1.65039 0
M  V30 2295 H 208.604 0.0994862 3.87272 0
M  V30 2296 H 209.018 2.10841 4.80257 0
M  V30 2297 H 210.492 0.543848 5.49314 0
M  V30 2298 H 210.969 -0.696763 4.33638 0
M  V30 2299 H 211.575 0.964135 4.14228 0
M  V30 2300 N 209.89 -1.43072 0.660911 0
M  V30 2301 C 210.837 -2.30785 -0.0259884 0
M  V30 2302 C 211.807 -1.45184 -0.806888 0
M  V30 2303 O 212.992 -1.74041 -0.781943 0
M  V30 2304 C 210.132 -3.30861 -0.981067 0
M  V30 2305 C 209.245 -4.31558 -0.195458 0
M  V30 2306 C 208.38 -5.18712 -1.14503 0
M  V30 2307 C 207.419 -6.11097 -0.350299 0
M  V30 2308 N 206.556 -6.90849 -1.25186 0
M  V30 2309 H 211.396 -2.88975 0.727846 0
M  V30 2310 H 208.933 -1.42353 0.370682 0
M  V30 2311 H 210.891 -3.87399 -1.54849 0
M  V30 2312 H 209.521 -2.74304 -1.70169 0
M  V30 2313 H 208.573 -3.77252 0.488374 0
M  V30 2314 H 209.885 -4.9701 0.422176 0
M  V30 2315 H 209.039 -5.79914 -1.78284 0
M  V30 2316 H 207.778 -4.53404 -1.79656 0
M  V30 2317 H 206.783 -5.48976 0.300808 0
M  V30 2318 H 208.008 -6.7845 0.296941 0
M  V30 2319 H 205.954 -6.28182 -1.89005 0
M  V30 2320 H 205.871 -7.52854 -0.688971 0
M  V30 2321 H 207.139 -7.5655 -1.87757 0
M  V30 2322 N 211.368 -0.403325 -1.52352 0
M  V30 2323 C 212.614 0.174605 -2.02047 0
M  V30 2324 C 212.947 1.45282 -1.28867 0
M  V30 2325 O 212.222 1.90483 -0.393257 0
M  V30 2326 C 212.505 0.428238 -3.57545 0
M  V30 2327 C 212.358 -0.866248 -4.4138 0
M  V30 2328 C 213.677 1.21287 -4.23057 0
M  V30 2329 H 210.796 0.0619851 -0.734389 0
M  V30 2330 H 213.438 -0.53565 -1.82293 0
M  V30 2331 H 211.588 1.03327 -3.74507 0
M  V30 2332 H 213.26 -1.50265 -4.3614 0
M  V30 2333 H 211.503 -1.47851 -4.07827 0
M  V30 2334 H 212.174 -0.643249 -5.48239 0
M  V30 2335 H 214.65 0.700703 -4.10158 0
M  V30 2336 H 213.526 1.35909 -5.31808 0
M  V30 2337 H 213.787 2.23193 -3.81625 0
M  V30 2338 N 212.846 1.57033 -0.133567 0
M  V30 2339 C 214.093 1.95686 0.520877 0
M  V30 2340 C 214.421 1.0177 1.6575 0
M  V30 2341 O 213.676 0.0443195 1.9565 0
M  V30 2342 C 213.975 3.40674 1.08057 0
M  V30 2343 C 213.641 4.50855 0.0637899 0
M  V30 2344 C 212.303 4.80716 -0.215757 0
M  V30 2345 C 214.655 5.17398 -0.62835 0
M  V30 2346 C 211.983 5.74433 -1.19348 0
M  V30 2347 C 214.335 6.12167 -1.5948 0
M  V30 2348 C 212.999 6.40414 -1.88218 0
M  V30 2349 H 212.269 0.716067 0.190602 0
M  V30 2350 H 214.916 1.9026 -0.217556 0
M  V30 2351 H 213.221 3.42865 1.89606 0
M  V30 2352 H 214.918 3.67902 1.59529 0
M  V30 2353 H 211.508 4.27605 0.291855 0
M  V30 2354 H 215.692 4.94472 -0.425562 0
M  V30 2355 H 210.948 5.94616 -1.42272 0
M  V30 2356 H 215.122 6.6281 -2.13671 0
M  V30 2357 H 212.749 7.12838 -2.64133 0
M  V30 2358 N 214.325 -0.140222 1.56975 0
M  V30 2359 C 215.55 -0.870414 1.88251 0
M  V30 2360 C 215.975 -1.73637 0.723312 0
M  V30 2361 O 215.333 -1.78329 -0.32689 0
M  V30 2362 C 215.381 -1.69737 3.18154 0
M  V30 2363 O 214.485 -2.80229 3.02565 0
M  V30 2364 H 213.826 -0.242025 0.61832 0
M  V30 2365 H 216.356 -0.128999 2.04193 0
M  V30 2366 H 216.366 -2.09099 3.50345 0
M  V30 2367 H 215.041 -1.06152 4.02125 0
M  V30 2368 H 213.618 -2.44224 2.81796 0
M  V30 2369 N 215.803 -1.52179 -0.40978 0
M  V30 2370 C 217.028 -1.70347 -1.18308 0
M  V30 2371 C 217.453 -0.411887 -1.83535 0
M  V30 2372 O 216.811 0.630587 -1.6998 0
M  V30 2373 C 216.859 -2.83977 -2.22238 0
M  V30 2374 O 215.963 -2.495 -3.28365 0
M  V30 2375 H 215.304 -0.567103 -0.345384 0
M  V30 2376 H 217.834 -1.98879 -0.480445 0
M  V30 2377 H 217.844 -3.0887 -2.66577 0
M  V30 2378 H 216.519 -3.77685 -1.74146 0
M  V30 2379 H 215.096 -2.35277 -2.89308 0
M  V30 2380 N 217.281 0.66697 -1.42791 0
M  V30 2381 C 218.191 1.80962 -1.49299 0
M  V30 2382 C 219.207 1.69775 -0.381108 0
M  V30 2383 O 220.383 1.91188 -0.633188 0
M  V30 2384 C 217.448 3.17156 -1.40045 0
M  V30 2385 C 216.509 3.40242 -2.6179 0
M  V30 2386 C 215.742 4.69939 -2.52969 0
M  V30 2387 O 215.965 5.48372 -1.56985 0
M  V30 2388 O 214.899 4.94441 -3.43237 0
M  V30 2389 H 218.725 1.78427 -2.45759 0
M  V30 2390 H 216.31 0.823713 -1.24641 0
M  V30 2391 H 218.192 3.98413 -1.37276 0
M  V30 2392 H 216.867 3.20312 -0.467138 0
M  V30 2393 H 215.774 2.58802 -2.70134 0
M  V30 2394 H 217.107 3.41923 -3.54047 0
M  V30 2395 N 218.759 1.29093 0.90403 0
M  V30 2396 C 219.984 1.19809 1.69294 0
M  V30 2397 C 220.409 -0.238481 1.86582 0
M  V30 2398 O 219.767 -1.1723 1.383 0
M  V30 2399 C 219.815 1.91202 3.05736 0
M  V30 2400 O 218.919 1.22611 3.93752 0
M  V30 2401 H 218.26 0.415385 0.518027 0
M  V30 2402 H 220.79 1.70586 1.12967 0
M  V30 2403 H 220.8 1.99487 3.55906 0
M  V30 2404 H 219.475 2.95692 2.92471 0
M  V30 2405 H 218.052 1.22554 3.52186 0
M  V30 2406 N 220.237 -1.11381 1.11499 0
M  V30 2407 C 221.185 -2.19522 0.768956 0
M  V30 2408 C 222.179 -1.67693 -0.239857 0
M  V30 2409 O 223.385 -1.79727 -0.0990755 0
M  V30 2410 H 219.76 -0.715711 0.230786 0
M  V30 2411 H 221.731 -2.45954 1.68964 0
M  V30 2412 C 220.48 -3.46945 0.229073 0
M  V30 2413 H 219.803 -3.8718 0.996596 0
M  V30 2414 H 221.243 -4.23993 0.0251441 0
M  V30 2415 C 219.702 -3.2042 -1.04079 0
M  V30 2416 O 220.232 -3.41178 -2.12038 0
M  V30 2417 N 218.438 -2.74151 -0.963823 0
M  V30 2418 H 217.985 -2.57459 -0.0851722 0
M  V30 2419 H 217.943 -2.56781 -1.81414 0
M  V30 2420 N 221.715 -0.905404 -1.28997 0
M  V30 2421 C 222.962 -0.534248 -1.95325 0
M  V30 2422 C 223.29 0.920535 -1.71337 0
M  V30 2423 O 222.545 1.66861 -1.02254 0
M  V30 2424 C 222.844 -0.779906 -3.48787 0
M  V30 2425 C 222.51 -2.21293 -3.92861 0
M  V30 2426 C 221.172 -2.60475 -4.04606 0
M  V30 2427 C 223.524 -3.14587 -4.15553 0
M  V30 2428 C 220.852 -3.9212 -4.36416 0
M  V30 2429 C 223.204 -4.45787 -4.48839 0
M  V30 2430 C 221.868 -4.84834 -4.58794 0
M  V30 2431 H 221.138 -0.195495 -0.714747 0
M  V30 2432 H 223.785 -1.14514 -1.53488 0
M  V30 2433 H 222.09 -0.0861365 -3.91705 0
M  V30 2434 H 223.787 -0.472029 -3.98212 0
M  V30 2435 H 220.377 -1.89887 -3.84241 0
M  V30 2436 H 224.561 -2.85528 -4.0594 0
M  V30 2437 H 219.817 -4.22086 -4.42327 0
M  V30 2438 H 223.991 -5.18098 -4.65346 0
M  V30 2439 H 221.618 -5.86877 -4.83197 0
M  V30 2440 N 223.193 1.4272 -0.668489 0
M  V30 2441 C 224.442 2.00846 -0.185389 0
M  V30 2442 C 224.755 1.53442 1.21305 0
M  V30 2443 O 225.961 2.03944 1.79218 0
M  V30 2444 C 224.417 3.58805 -0.280591 0
M  V30 2445 C 224.025 4.15198 -1.68268 0
M  V30 2446 C 225.769 4.24255 0.14412 0
M  V30 2447 C 223.676 5.655 -1.73099 0
M  V30 2448 H 222.606 0.751145 -0.0655475 0
M  V30 2449 H 225.257 1.63516 -0.832752 0
M  V30 2450 H 223.639 3.93608 0.434553 0
M  V30 2451 H 224.813 3.91866 -2.42441 0
M  V30 2452 H 223.128 3.62176 -2.05469 0
M  V30 2453 H 225.725 5.34547 0.128086 0
M  V30 2454 H 226.068 3.99277 1.17827 0
M  V30 2455 H 226.601 3.94389 -0.519798 0
M  V30 2456 H 223.34 5.95268 -2.74475 0
M  V30 2457 H 222.86 5.90842 -1.03274 0
M  V30 2458 H 224.539 6.29808 -1.48158 0
M  V30 2459 N 224.671 0.411399 1.52136 0
M  V30 2460 C 225.601 -0.404015 2.29978 0
M  V30 2461 C 226.582 -1.04412 1.34284 0
M  V30 2462 O 227.767 -1.0527 1.63192 0
M  V30 2463 C 224.897 -1.5197 3.12286 0
M  V30 2464 C 223.851 -1.00448 4.16046 0
M  V30 2465 C 223.177 -2.21393 4.86712 0
M  V30 2466 C 224.477 -0.0569336 5.22269 0
M  V30 2467 H 226.171 0.245529 2.98392 0
M  V30 2468 H 223.717 0.119525 1.43503 0
M  V30 2469 H 225.67 -2.09715 3.6551 0
M  V30 2470 H 224.394 -2.19716 2.41646 0
M  V30 2471 H 223.053 -0.449421 3.63835 0
M  V30 2472 H 222.701 -2.87699 4.12599 0
M  V30 2473 H 222.401 -1.87571 5.56858 0
M  V30 2474 H 223.925 -2.7974 5.4275 0
M  V30 2475 H 225.339 -0.54325 5.7072 0
M  V30 2476 H 223.736 0.192594 5.99791 0
M  V30 2477 H 224.806 0.887663 4.76706 0
M  V30 2478 N 226.149 -1.5696 0.141893 0
M  V30 2479 C 227.059 -2.20066 -0.812905 0
M  V30 2480 C 228.075 -1.18344 -1.27557 0
M  V30 2481 O 229.251 -1.50902 -1.33381 0
M  V30 2482 C 226.316 -2.80583 -2.03652 0
M  V30 2483 C 225.377 -3.97414 -1.62359 0
M  V30 2484 C 224.61 -4.55036 -2.78887 0
M  V30 2485 O 224.833 -4.11538 -3.94959 0
M  V30 2486 O 223.767 -5.45376 -2.54653 0
M  V30 2487 H 227.593 -3.02157 -0.305746 0
M  V30 2488 H 225.178 -1.49159 -0.0848799 0
M  V30 2489 H 227.06 -3.19067 -2.75272 0
M  V30 2490 H 225.735 -2.01508 -2.5333 0
M  V30 2491 H 224.642 -3.63656 -0.877775 0
M  V30 2492 H 225.975 -4.77994 -1.17401 0
M  V30 2493 N 227.627 0.131896 -1.57047 0
M  V30 2494 C 228.876 0.84044 -1.83356 0
M  V30 2495 C 229.189 1.81646 -0.725535 0
M  V30 2496 O 230.395 2.57025 -0.874659 0
M  V30 2497 C 228.851 1.54528 -3.25037 0
M  V30 2498 C 228.459 0.610902 -4.43815 0
M  V30 2499 C 230.203 2.23972 -3.60606 0
M  V30 2500 C 228.11 1.31823 -5.76521 0
M  V30 2501 H 227.04 0.317599 -0.683847 0
M  V30 2502 H 229.691 0.0931561 -1.83263 0
M  V30 2503 H 228.073 2.33873 -3.19561 0
M  V30 2504 H 229.247 -0.148407 -4.60561 0
M  V30 2505 H 227.562 0.0241016 -4.16393 0
M  V30 2506 H 230.159 2.77558 -4.57018 0
M  V30 2507 H 230.502 3.01173 -2.87403 0
M  V30 2508 H 231.035 1.51529 -3.6781 0
M  V30 2509 H 227.774 0.587771 -6.52859 0
M  V30 2510 H 227.294 2.04987 -5.63685 0
M  V30 2511 H 228.973 1.855 -6.19838 0
M  V30 2512 N 229.106 1.52395 0.401703 0
M  V30 2513 C 230.346 1.68498 1.15705 0
M  V30 2514 C 230.71 0.409748 1.87577 0
M  V30 2515 O 231.911 0.446983 2.65058 0
M  V30 2516 C 230.182 2.87789 2.11924 0
M  V30 2517 S 231.741 3.24415 2.95466 0
M  V30 2518 H 228.559 0.593267 0.391862 0
M  V30 2519 H 231.161 1.90408 0.443282 0
M  V30 2520 H 229.865 3.7884 1.57824 0
M  V30 2521 H 229.396 2.68175 2.87829 0
M  V30 2522 H 231.411 2.73614 4.13944 0
M  V30 2523 N 230.584 -0.659388 1.43143 0
M  V30 2524 C 231.861 -1.41627 1.34912 0
M  V30 2525 C 232.241 -2.11099 -0.00607785 0
M  V30 2526 O 231.589 -2.04353 -1.02236 0
M  V30 2527 C 231.799 -2.40604 2.52805 0
M  V30 2528 C 233.147 -3.04789 2.95616 0
M  V30 2529 O 234.171 -2.50932 2.52807 0
M  V30 2530 O 233.03 -4.02421 3.69756 0
M  V30 2531 H 230.124 -0.63246 0.532844 0
M  V30 2532 H 232.67 -0.686814 1.5518 0
M  V30 2533 H 231.442 -1.88174 3.43083 0
M  V30 2534 H 231.065 -3.21009 2.34604 0
M  V30 2535 N 232.062 -1.29571 -0.897171 0
M  V30 2536 C 233.01 -1.14802 -2.02295 0
M  V30 2537 C 234.004 -0.0629637 -1.69283 0
M  V30 2538 O 235.21 -0.222945 -1.78614 0
M  V30 2539 H 231.585 -0.354692 -0.663097 0
M  V30 2540 H 233.556 -2.10108 -2.11889 0
M  V30 2541 C 232.305 -0.843966 -3.37302 0
M  V30 2542 H 231.628 -1.67093 -3.63208 0
M  V30 2543 H 233.068 -0.780672 -4.16751 0
M  V30 2544 C 231.527 0.452843 -3.33843 0
M  V30 2545 O 232.057 1.47813 -3.73516 0
M  V30 2546 N 230.263 0.459601 -2.86943 0
M  V30 2547 H 229.81 -0.375213 -2.54853 0
M  V30 2548 H 229.768 1.32726 -2.85011 0
M  V30 2549 N 233.54 1.10788 -1.12088 0
M  V30 2550 C 234.47 2.19083 -0.807755 0
M  V30 2551 C 235.451 1.6858 0.226859 0
M  V30 2552 O 236.636 1.93997 0.0888475 0
M  V30 2553 C 233.766 3.46344 -0.257576 0
M  V30 2554 C 232.72 4.101 -1.22483 0
M  V30 2555 C 232.046 5.32016 -0.535052 0
M  V30 2556 C 233.346 4.54236 -2.57811 0
M  V30 2557 H 235.04 2.45534 -1.71328 0
M  V30 2558 H 232.586 1.1801 -0.825205 0
M  V30 2559 H 234.539 4.21392 -0.0262679 0
M  V30 2560 H 233.263 3.19373 0.683278 0
M  V30 2561 H 231.922 3.37054 -1.44189 0
M  V30 2562 H 231.57 5.01319 0.410827 0
M  V30 2563 H 231.27 5.75625 -1.18024 0
M  V30 2564 H 232.794 6.09799 -0.312695 0
M  V30 2565 H 234.208 5.20575 -2.40155 0
M  V30 2566 H 232.605 5.08682 -3.18375 0
M  V30 2567 H 233.675 3.6734 -3.16528 0
M  V30 2568 N 235.018 0.912232 1.28515 0
M  V30 2569 C 235.968 0.370649 2.24967 0
M  V30 2570 C 236.952 -0.516375 1.52389 0
M  V30 2571 O 238.144 -0.356345 1.73376 0
M  V30 2572 C 235.273 -0.389526 3.41083 0
M  V30 2573 C 234.359 0.51313 4.20984 0
M  V30 2574 N 234.75 1.62604 4.78951 0
M  V30 2575 C 233.048 0.313235 4.44899 0
M  V30 2576 C 233.749 2.18619 5.39055 0
M  V30 2577 N 232.725 1.47765 5.23132 0
M  V30 2578 H 236.527 1.22061 2.67354 0
M  V30 2579 H 234.041 0.764712 1.43269 0
M  V30 2580 H 236.038 -0.794353 4.09262 0
M  V30 2581 H 234.698 -1.2366 3.0023 0
M  V30 2582 H 235.709 2.00864 4.77362 0
M  V30 2583 H 232.386 -0.494452 4.14562 0
M  V30 2584 H 233.776 3.12228 5.94948 0
M  V30 2585 N 236.496 -1.42363 0.676048 0
M  V30 2586 C 237.745 -2.00745 0.196037 0
M  V30 2587 C 238.058 -1.54083 -1.20489 0
M  V30 2588 O 239.264 -2.04891 -1.78134 0
M  V30 2589 C 237.72 -3.58651 0.299616 0
M  V30 2590 C 237.328 -4.143 1.70468 0
M  V30 2591 C 239.072 -4.24326 -0.121619 0
M  V30 2592 C 236.979 -5.64574 1.76096 0
M  V30 2593 H 235.909 -0.750787 0.0695301 0
M  V30 2594 H 238.56 -1.63072 0.841412 0
M  V30 2595 H 236.942 -3.93833 -0.413673 0
M  V30 2596 H 238.116 -3.90575 2.44515 0
M  V30 2597 H 236.431 -3.61081 2.07387 0
M  V30 2598 H 239.028 -5.34607 -0.0997362 0
M  V30 2599 H 239.371 -3.99897 -1.15708 0
M  V30 2600 H 239.904 -3.94108 0.540706 0
M  V30 2601 H 236.643 -5.93804 2.77628 0
M  V30 2602 H 236.163 -5.90286 1.06406 0
M  V30 2603 H 237.842 -6.29013 1.51496 0
M  V30 2604 N 237.974 -0.419461 -1.51915 0
M  V30 2605 C 239.202 0.152136 -2.0634 0
M  V30 2606 C 239.617 1.37988 -1.28859 0
M  V30 2607 O 238.974 1.79243 -0.343232 0
M  V30 2608 C 239.025 0.492266 -3.58133 0
M  V30 2609 O 238.746 -0.686736 -4.32684 0
M  V30 2610 C 240.247 1.11648 -4.2901 0
M  V30 2611 H 237.467 0.0158325 -0.670813 0
M  V30 2612 H 240.011 -0.593394 -1.95702 0
M  V30 2613 H 238.166 1.18769 -3.68745 0
M  V30 2614 H 238.58 -0.400341 -5.2297 0
M  V30 2615 H 240.054 1.3046 -5.36362 0
M  V30 2616 H 240.531 2.09251 -3.86148 0
M  V30 2617 H 241.137 0.460958 -4.22795 0
M  V30 2618 N 239.452 1.56882 -0.150215 0
M  V30 2619 C 240.68 2.00593 0.506948 0
M  V30 2620 C 241.095 1.03033 1.58208 0
M  V30 2621 O 240.452 0.0278396 1.82479 0
M  V30 2622 C 240.503 3.44209 1.10465 0
M  V30 2623 O 240.224 4.3804 0.0724636 0
M  V30 2624 C 241.725 4.03214 1.84211 0
M  V30 2625 H 238.945 0.65795 0.13169 0
M  V30 2626 H 241.489 2.03018 -0.245743 0
M  V30 2627 H 239.644 3.42625 1.80795 0
M  V30 2628 H 240.058 5.22007 0.510793 0
M  V30 2629 H 241.532 5.0569 2.21318 0
M  V30 2630 H 242.009 3.44107 2.72923 0
M  V30 2631 H 242.615 4.08437 1.18572 0
M  V30 2632 N 240.93 -0.123565 1.57115 0
M  V30 2633 C 242.179 -0.830704 1.83799 0
M  V30 2634 C 242.492 -1.81259 0.735158 0
M  V30 2635 O 243.698 -2.56558 0.888278 0
M  V30 2636 C 242.154 -1.52802 3.25852 0
M  V30 2637 C 241.762 -0.587356 4.44133 0
M  V30 2638 C 243.506 -2.22056 3.61789 0
M  V30 2639 C 241.413 -1.28764 5.77212 0
M  V30 2640 H 240.343 -0.313967 0.685522 0
M  V30 2641 H 242.994 -0.0834359 1.8331 0
M  V30 2642 H 241.376 -2.32175 3.20797 0
M  V30 2643 H 242.55 0.172829 4.60476 0
M  V30 2644 H 240.865 -0.00201892 4.164 0
M  V30 2645 H 243.462 -2.75131 4.58483 0
M  V30 2646 H 243.805 -2.99644 2.88997 0
M  V30 2647 H 244.338 -1.49576 3.68608 0
M  V30 2648 H 241.077 -0.55314 6.53162 0
M  V30 2649 H 240.597 -2.01995 5.64764 0
M  V30 2650 H 242.276 -1.8221 6.20813 0
M  V30 2651 N 242.408 -1.52605 -0.393616 0
M  V30 2652 C 243.819 -1.59417 -0.971761 0
M  V30 2653 C 244.17 -0.444173 -1.91106 0
M  V30 2654 O 243.295 0.433382 -2.12016 0
M  V30 2655 C 243.89 -2.88936 -1.76921 0
M  V30 2656 C 242.449 -2.98175 -2.29714 0
M  V30 2657 C 241.596 -2.54491 -1.10135 0
M  V30 2658 H 244.547 -1.57751 -0.173317 0
M  V30 2659 H 244.568 -2.75163 -2.62804 0
M  V30 2660 H 244.08 -3.72616 -1.08532 0
M  V30 2661 H 242.181 -2.19024 -3.01429 0
M  V30 2662 H 242.294 -4.02726 -2.59517 0
M  V30 2663 H 240.658 -2.08702 -1.45999 0
M  V30 2664 H 241.441 -3.4056 -0.432874 0
M  V30 2665 N 243.887 0.651787 -1.4349 0
M  V30 2666 C 245.135 1.40888 -1.44897 0
M  V30 2667 C 245.456 1.94856 -0.0749086 0
M  V30 2668 O 244.726 1.74518 0.889956 0
M  V30 2669 H 243.306 0.522887 -0.533478 0
M  V30 2670 H 245.968 0.768609 -1.79104 0
M  V30 2671 H 245.064 2.25052 -2.16236 0
M  V30 2672 N 245.365 1.30045 0.890287 0
M  V30 2673 C 246.313 1.15873 2.01683 0
M  V30 2674 C 247.307 0.0719403 1.69247 0
M  V30 2675 O 248.513 0.232414 1.78493 0
M  V30 2676 H 244.888 0.358203 0.661207 0
M  V30 2677 H 246.859 2.11229 2.10772 0
M  V30 2678 C 245.608 0.861842 3.36849 0
M  V30 2679 H 244.931 1.69016 3.62317 0
M  V30 2680 H 246.371 0.802762 4.16331 0
M  V30 2681 C 244.83 -0.435132 3.34078 0
M  V30 2682 O 245.36 -1.4583 3.74295 0
M  V30 2683 N 243.566 -0.444377 2.87182 0
M  V30 2684 H 243.113 0.388723 2.5465 0
M  V30 2685 H 243.071 -1.31213 2.85711 0
M  V30 2686 N 246.843 -1.10192 1.12674 0
M  V30 2687 C 247.806 -2.14786 0.799979 0
M  V30 2688 C 248.806 -1.59711 -0.18685 0
M  V30 2689 O 249.996 -1.74156 0.0392558 0
M  V30 2690 C 247.128 -3.40374 0.189228 0
M  V30 2691 H 248.321 -2.45203 1.72671 0
M  V30 2692 H 245.874 -1.25597 0.930326 0
M  V30 2693 H 246.609 -3.15577 -0.747107 0
M  V30 2694 H 246.394 -3.81637 0.899766 0
M  V30 2695 H 247.884 -4.17594 -0.0228143 0
M  V30 2696 N 248.321 -0.919034 -1.28029 0
M  V30 2697 C 249.568 -0.554934 -1.94748 0
M  V30 2698 C 249.896 0.90231 -1.72304 0
M  V30 2699 O 249.151 1.65767 -1.04018 0
M  V30 2700 C 249.45 -0.816855 -3.4794 0
M  V30 2701 C 249.116 -2.25448 -3.90492 0
M  V30 2702 C 247.778 -2.64752 -4.01821 0
M  V30 2703 C 250.13 -3.18977 -4.12193 0
M  V30 2704 C 247.458 -3.96727 -4.32232 0
M  V30 2705 C 249.81 -4.50523 -4.44086 0
M  V30 2706 C 248.474 -4.89673 -4.53626 0
M  V30 2707 H 247.744 -0.203065 -0.712633 0
M  V30 2708 H 250.391 -1.16136 -1.52265 0
M  V30 2709 H 248.696 -0.127677 -3.91592 0
M  V30 2710 H 250.393 -0.514238 -3.97689 0
M  V30 2711 H 246.983 -1.93952 -3.82205 0
M  V30 2712 H 251.167 -2.89817 -4.02889 0
M  V30 2713 H 246.423 -4.26754 -4.37825 0
M  V30 2714 H 250.597 -5.23005 -4.59825 0
M  V30 2715 H 248.224 -5.91969 -4.76946 0
M  V30 2716 N 249.799 1.42003 -0.683588 0
M  V30 2717 C 250.731 2.29183 0.0283068 0
M  V30 2718 C 251.744 1.4415 0.756611 0
M  V30 2719 O 252.933 1.67779 0.609306 0
M  V30 2720 C 250.033 3.21765 1.06398 0
M  V30 2721 C 249.206 4.35496 0.407723 0
M  V30 2722 C 248.265 5.08737 1.34437 0
M  V30 2723 O 247.291 5.62948 0.841318 0
M  V30 2724 N 248.493 5.15075 2.67728 0
M  V30 2725 H 251.258 2.9092 -0.720105 0
M  V30 2726 H 248.819 1.53025 -0.528682 0
M  V30 2727 H 250.811 3.6763 1.69204 0
M  V30 2728 H 249.381 2.61418 1.71404 0
M  V30 2729 H 248.601 3.92165 -0.400012 0
M  V30 2730 H 249.889 5.08776 -0.0490956 0
M  V30 2731 H 249.287 4.72457 3.11129 0
M  V30 2732 H 247.844 5.64556 3.2576 0
M  V30 2733 N 251.277 0.427512 1.51691 0
M  V30 2734 C 252.525 -0.141948 2.01601 0
M  V30 2735 C 252.846 -1.44067 1.31414 0
M  V30 2736 O 252.116 -1.90763 0.445658 0
M  V30 2737 H 250.696 -0.0554468 0.744939 0
M  V30 2738 H 253.358 0.567968 1.86441 0
M  V30 2739 H 252.454 -0.324913 3.10404 0
M  V30 2740 N 252.755 -1.56801 0.158532 0
M  V30 2741 C 253.688 -2.13148 -0.815065 0
M  V30 2742 C 254.666 -1.0581 -1.23462 0
M  V30 2743 O 255.85 -1.3371 -1.32868 0
M  V30 2744 C 252.977 -2.6606 -2.09594 0
M  V30 2745 C 252.023 -3.85651 -1.82141 0
M  V30 2746 S 252.856 -5.26041 -1.00207 0
M  V30 2747 C 254.012 -5.8235 -2.29389 0
M  V30 2748 H 254.245 -2.95396 -0.335937 0
M  V30 2749 H 251.778 -1.54299 -0.0559391 0
M  V30 2750 H 253.736 -2.97195 -2.8317 0
M  V30 2751 H 252.397 -1.83921 -2.54621 0
M  V30 2752 H 251.59 -4.20958 -2.77147 0
M  V30 2753 H 251.192 -3.55338 -1.16667 0
M  V30 2754 H 253.484 -5.94485 -3.24952 0
M  V30 2755 H 254.427 -6.79688 -1.9857 0
M  V30 2756 H 254.835 -5.10675 -2.40564 0
M  V30 2757 N 254.233 0.115231 -1.57178 0
M  V30 2758 C 255.181 1.16014 -2.01602 0
M  V30 2759 C 256.175 1.42653 -0.913587 0
M  V30 2760 O 257.381 1.42571 -1.09879 0
M  V30 2761 H 253.756 0.391252 -0.642204 0
M  V30 2762 H 255.727 0.758998 -2.88586 0
M  V30 2763 C 254.476 2.47767 -2.4394 0
M  V30 2764 H 253.799 2.28108 -3.28339 0
M  V30 2765 H 255.239 3.19432 -2.78818 0
M  V30 2766 C 253.698 3.10617 -1.30455 0
M  V30 2767 O 254.228 3.96846 -0.622585 0
M  V30 2768 N 252.434 2.70553 -1.06064 0
M  V30 2769 H 251.981 2.00527 -1.61699 0
M  V30 2770 H 251.939 3.12934 -0.303284 0
M  V30 2771 N 255.711 1.52812 0.385517 0
M  V30 2772 C 256.659 1.78482 1.49155 0
M  V30 2773 C 257.653 0.652914 1.56312 0
M  V30 2774 O 258.859 0.835464 1.59436 0
M  V30 2775 H 255.234 0.5648 0.496493 0
M  V30 2776 H 257.205 2.71095 1.24699 0
M  V30 2777 C 255.954 1.97378 2.86247 0
M  V30 2778 H 255.277 2.83907 2.81491 0
M  V30 2779 H 256.717 2.19327 3.62866 0
M  V30 2780 C 255.176 0.74728 3.28508 0
M  V30 2781 O 255.706 -0.0736232 4.01633 0
M  V30 2782 N 253.912 0.576396 2.84826 0
M  V30 2783 H 253.459 1.24555 2.25486 0
M  V30 2784 H 253.417 -0.24288 3.1346 0
M  V30 2785 N 257.189 -0.644168 1.43834 0
M  V30 2786 C 258.099 -1.78563 1.52159 0
M  V30 2787 C 259.115 -1.69147 0.408069 0
M  V30 2788 O 260.291 -1.90156 0.663524 0
M  V30 2789 C 257.356 -3.14888 1.45073 0
M  V30 2790 C 256.417 -3.36034 2.6717 0
M  V30 2791 C 255.65 -4.65855 2.60413 0
M  V30 2792 O 255.873 -5.45805 1.65689 0
M  V30 2793 O 254.807 -4.88918 3.5106 0
M  V30 2794 H 258.633 -1.74494 2.48567 0
M  V30 2795 H 256.218 -0.80378 1.25935 0
M  V30 2796 H 258.1 -3.96179 1.43597 0
M  V30 2797 H 256.775 -3.19528 0.518037 0
M  V30 2798 H 255.682 -2.54472 2.74217 0
M  V30 2799 H 257.015 -3.36247 3.59442 0
M  V30 2800 N 258.668 -1.30515 -0.883378 0
M  V30 2801 C 259.893 -1.22487 -1.67367 0
M  V30 2802 C 260.318 0.208767 -1.86938 0
M  V30 2803 O 259.676 1.15015 -1.40148 0
M  V30 2804 C 259.724 -1.96041 -3.02655 0
M  V30 2805 O 258.828 -1.28859 -3.91751 0
M  V30 2806 H 258.169 -0.423573 -0.511353 0
M  V30 2807 H 260.699 -1.72362 -1.10239 0
M  V30 2808 H 260.709 -2.05124 -3.52687 0
M  V30 2809 H 259.384 -3.00307 -2.8773 0
M  V30 2810 H 257.961 -1.28141 -3.50192 0
M  V30 2811 N 260.146 1.09593 -1.13257 0
M  V30 2812 C 261.392 1.82003 -0.89458 0
M  V30 2813 C 261.725 1.85402 0.577906 0
M  V30 2814 O 261 1.32099 1.42759 0
M  V30 2815 C 261.283 3.28237 -1.48096 0
M  V30 2816 C 261.136 3.3312 -3.02244 0
M  V30 2817 C 262.455 4.24871 -1.14774 0
M  V30 2818 H 259.574 0.66077 -0.326424 0
M  V30 2819 H 262.216 1.28389 -1.40058 0
M  V30 2820 H 260.366 3.74024 -1.05062 0
M  V30 2821 H 262.038 2.95748 -3.54021 0
M  V30 2822 H 260.281 2.72756 -3.37323 0
M  V30 2823 H 260.952 4.3613 -3.38371 0
M  V30 2824 H 263.428 3.87361 -1.51957 0
M  V30 2825 H 262.304 5.25532 -1.58452 0
M  V30 2826 H 262.565 4.42058 -0.0611849 0
M  V30 2827 N 261.624 0.925811 1.2754 0
M  V30 2828 C 262.852 0.581509 1.9856 0
M  V30 2829 C 263.267 -0.840041 1.69082 0
M  V30 2830 O 262.624 -1.55805 0.950312 0
M  V30 2831 C 262.675 0.795589 3.52637 0
M  V30 2832 O 262.396 2.16121 3.81082 0
M  V30 2833 C 263.897 0.459744 4.4091 0
M  V30 2834 H 261.117 0.220538 0.633722 0
M  V30 2835 H 263.661 1.24232 1.6244 0
M  V30 2836 H 261.816 0.18161 3.86974 0
M  V30 2837 H 262.23 2.2098 4.75676 0
M  V30 2838 H 263.704 0.660244 5.48037 0
M  V30 2839 H 264.181 -0.604625 4.35018 0
M  V30 2840 H 264.787 1.05178 4.12089 0
M  V30 2841 N 263.102 -1.41638 0.69111 0
M  V30 2842 C 264.032 -2.3347 0.037248 0
M  V30 2843 C 265.013 -1.51575 -0.771947 0
M  V30 2844 O 266.198 -1.80126 -0.72582 0
M  V30 2845 C 263.328 -3.35354 -0.903064 0
M  V30 2846 C 262.282 -4.27526 -0.201288 0
M  V30 2847 C 261.608 -5.19747 -1.25565 0
M  V30 2848 C 262.908 -5.13959 0.929689 0
M  V30 2849 H 264.602 -2.88397 0.804227 0
M  V30 2850 H 262.148 -1.38669 0.388189 0
M  V30 2851 H 264.101 -3.98519 -1.36969 0
M  V30 2852 H 262.825 -2.78767 -1.70166 0
M  V30 2853 H 261.484 -3.65779 0.245265 0
M  V30 2854 H 261.132 -4.59479 -2.04666 0
M  V30 2855 H 260.832 -5.8225 -0.791128 0
M  V30 2856 H 262.356 -5.85789 -1.72288 0
M  V30 2857 H 263.77 -5.70718 0.543546 0
M  V30 2858 H 262.167 -5.85379 1.32103 0
M  V30 2859 H 263.237 -4.51389 1.77133 0
M  V30 2860 N 264.58 -0.43555 -1.51462 0
M  V30 2861 C 265.527 0.376797 -2.27703 0
M  V30 2862 C 266.497 1.01838 -1.31219 0
M  V30 2863 O 267.682 1.03762 -1.60119 0
M  V30 2864 C 264.822 1.47301 -3.12084 0
M  V30 2865 C 263.935 0.849744 -4.2356 0
M  V30 2866 C 263.07 1.92086 -4.95254 0
M  V30 2867 C 262.109 1.27593 -5.98654 0
M  V30 2868 N 261.246 2.28833 -6.63762 0
M  V30 2869 H 266.086 -0.279734 -2.96684 0
M  V30 2870 H 263.623 -0.149795 -1.46335 0
M  V30 2871 H 265.581 2.11984 -3.59331 0
M  V30 2872 H 264.211 2.0992 -2.45221 0
M  V30 2873 H 263.263 0.0912529 -3.80291 0
M  V30 2874 H 264.575 0.338878 -4.97648 0
M  V30 2875 H 263.729 2.64435 -5.46039 0
M  V30 2876 H 262.468 2.46545 -4.20793 0
M  V30 2877 H 261.473 0.537893 -5.47162 0
M  V30 2878 H 262.698 0.738693 -6.7507 0
M  V30 2879 H 260.644 2.82375 -5.92115 0
M  V30 2880 H 260.561 1.82632 -7.33608 0
M  V30 2881 H 261.829 3.00671 -7.19178 0
M  V30 2882 N 266.058 1.56714 -0.166846 0
M  V30 2883 C 266.988 2.20754 0.760913 0
M  V30 2884 C 267.969 1.16178 1.24244 0
M  V30 2885 O 269.154 1.44592 1.29641 0
M  V30 2886 C 266.284 2.84478 1.99223 0
M  V30 2887 C 265.238 3.95053 1.64672 0
M  V30 2888 C 264.564 4.45805 2.95232 0
M  V30 2889 C 265.864 5.14865 0.878155 0
M  V30 2890 H 267.558 2.98537 0.22713 0
M  V30 2891 H 265.104 1.43596 0.107805 0
M  V30 2892 H 267.057 3.27951 2.64624 0
M  V30 2893 H 265.781 2.04056 2.55007 0
M  V30 2894 H 264.44 3.52228 1.01641 0
M  V30 2895 H 264.088 3.62181 3.49047 0
M  V30 2896 H 263.788 5.204 2.7287 0
M  V30 2897 H 265.312 4.91962 3.6167 0
M  V30 2898 H 266.726 5.55059 1.43466 0
M  V30 2899 H 265.123 5.95348 0.753738 0
M  V30 2900 H 266.193 4.84735 -0.126377 0
M  V30 2901 N 267.536 -0.106894 1.57237 0
M  V30 2902 C 268.766 -0.825191 1.89405 0
M  V30 2903 C 269.174 -1.73374 0.757496 0
M  V30 2904 O 268.517 -1.81552 -0.280115 0
M  V30 2905 C 268.579 -1.70102 3.1671 0
M  V30 2906 C 268.243 -0.965523 4.46684 0
M  V30 2907 C 269.24 -0.300741 5.19029 0
M  V30 2908 C 266.925 -0.943105 4.93367 0
M  V30 2909 C 268.919 0.376622 6.36286 0
M  V30 2910 C 266.606 -0.261949 6.10538 0
M  V30 2911 C 267.604 0.396748 6.81847 0
M  V30 2912 O 267.292 1.06701 7.96787 0
M  V30 2913 H 267.024 -0.241852 0.631255 0
M  V30 2914 H 269.578 -0.0921491 2.05193 0
M  V30 2915 H 267.808 -2.47601 2.97036 0
M  V30 2916 H 269.497 -2.29483 3.34802 0
M  V30 2917 H 270.263 -0.309599 4.84011 0
M  V30 2918 H 266.142 -1.44524 4.3776 0
M  V30 2919 H 269.686 0.891334 6.91882 0
M  V30 2920 H 265.583 -0.250896 6.45012 0
M  V30 2921 H 266.351 0.972707 8.127 0
M  V30 2922 N 269.014 -1.53014 -0.377408 0
M  V30 2923 C 270.262 -1.6829 -1.11906 0
M  V30 2924 C 270.583 -0.431206 -1.90173 0
M  V30 2925 O 269.853 0.554595 -1.87886 0
M  V30 2926 H 268.433 -0.620371 -0.416112 0
M  V30 2927 H 271.095 -1.90167 -0.426893 0
M  V30 2928 H 270.191 -2.53862 -1.8155 0
M  V30 2929 N 270.492 0.636531 -1.44174 0
M  V30 2930 C 271.44 1.76995 -1.50915 0
M  V30 2931 C 272.434 1.65053 -0.381295 0
M  V30 2932 O 273.64 1.71197 -0.55601 0
M  V30 2933 H 270.015 0.584247 -0.473455 0
M  V30 2934 H 271.986 1.68432 -2.4632 0
M  V30 2935 C 270.735 3.15314 -1.46534 0
M  V30 2936 H 270.058 3.25149 -2.32633 0
M  V30 2937 H 271.498 3.9453 -1.55312 0
M  V30 2938 C 269.957 3.3639 -0.185305 0
M  V30 2939 O 270.487 3.94699 0.746688 0
M  V30 2940 N 268.693 2.9046 -0.0901606 0
M  V30 2941 H 268.24 2.43193 -0.849416 0
M  V30 2942 H 268.198 3.04937 0.765553 0
M  V30 2943 N 271.97 1.30982 0.876444 0
M  V30 2944 C 273.218 1.20058 1.62575 0
M  V30 2945 C 273.539 -0.242947 1.93481 0
M  V30 2946 O 272.809 -1.1619 1.57724 0
M  V30 2947 H 271.389 0.44135 0.602677 0
M  V30 2948 H 274.051 1.64222 1.04962 0
M  V30 2949 H 273.147 1.76762 2.57219 0
M  V30 2950 N 273.449 -1.08991 1.13837 0
M  V30 2951 C 274.696 -1.81258 0.902882 0
M  V30 2952 C 275.024 -1.85936 -0.570803 0
M  V30 2953 O 274.279 -1.3267 -1.43865 0
M  V30 2954 C 274.578 -3.27042 1.44147 0
M  V30 2955 C 274.244 -3.4249 2.93276 0
M  V30 2956 C 272.906 -3.46414 3.33992 0
M  V30 2957 C 275.258 -3.4666 3.892 0
M  V30 2958 C 272.586 -3.52091 4.69307 0
M  V30 2959 C 274.938 -3.53872 5.24364 0
M  V30 2960 C 273.602 -3.56066 5.646 0
M  V30 2961 H 272.872 -0.663268 0.330388 0
M  V30 2962 H 275.519 -1.28368 1.42105 0
M  V30 2963 H 273.824 -3.82599 0.844097 0
M  V30 2964 H 275.521 -3.81499 1.23528 0
M  V30 2965 H 272.111 -3.40124 2.60794 0
M  V30 2966 H 276.295 -3.42865 3.58828 0
M  V30 2967 H 271.551 -3.52079 4.9985 0
M  V30 2968 H 275.725 -3.56043 5.98503 0
M  V30 2969 H 273.352 -3.60218 6.69438 0
M  V30 2970 N 274.927 -0.932562 -1.27047 0
M  V30 2971 C 275.837 -0.441219 -2.30414 0
M  V30 2972 C 276.853 0.480525 -1.67233 0
M  V30 2973 O 278.029 0.362151 -1.98117 0
M  V30 2974 C 275.094 0.293651 -3.45454 0
M  V30 2975 C 274.155 -0.663601 -4.2414 0
M  V30 2976 C 273.388 0.0362932 -5.33688 0
M  V30 2977 O 273.611 1.2548 -5.56427 0
M  V30 2978 O 272.545 -0.638015 -5.98509 0
M  V30 2979 H 276.371 -1.29962 -2.74488 0
M  V30 2980 H 273.956 -0.6981 -1.32087 0
M  V30 2981 H 275.838 0.707951 -4.15411 0
M  V30 2982 H 274.513 1.12758 -3.03426 0
M  V30 2983 H 273.42 -1.12768 -3.56699 0
M  V30 2984 H 274.753 -1.46489 -4.69896 0
M  V30 2985 N 276.405 1.4127 -0.698611 0
M  V30 2986 C 277.315 2.34573 -0.0357891 0
M  V30 2987 C 278.331 1.56393 0.762701 0
M  V30 2988 O 279.507 1.8886 0.699564 0
M  V30 2989 C 276.572 3.35159 0.887089 0
M  V30 2990 C 275.633 4.29225 0.0804634 0
M  V30 2991 C 274.866 5.25006 0.959387 0
M  V30 2992 O 275.089 5.26314 2.19886 0
M  V30 2993 O 274.023 6.00519 0.407439 0
M  V30 2994 H 277.849 2.92838 -0.804957 0
M  V30 2995 H 275.434 1.42175 -0.458966 0
M  V30 2996 H 277.316 3.9689 1.41621 0
M  V30 2997 H 275.991 2.79333 1.6357 0
M  V30 2998 H 274.898 3.70833 -0.493328 0
M  V30 2999 H 276.231 4.88157 -0.629547 0
M  V30 3000 N 277.883 0.443576 1.51229 0
M  V30 3001 C 279.129 -0.120975 2.02439 0
M  V30 3002 C 279.462 -1.41815 1.32674 0
M  V30 3003 O 278.737 -1.89373 0.443622 0
M  V30 3004 C 279.02 -0.333291 3.58554 0
M  V30 3005 C 278.873 0.982968 4.38928 0
M  V30 3006 C 280.192 -1.10028 4.26124 0
M  V30 3007 H 277.311 -0.0424923 0.735774 0
M  V30 3008 H 279.953 0.583794 1.80809 0
M  V30 3009 H 278.103 -0.933614 3.77115 0
M  V30 3010 H 279.775 1.61775 4.32003 0
M  V30 3011 H 278.018 1.58611 4.03763 0
M  V30 3012 H 278.689 0.788379 5.46341 0
M  V30 3013 H 281.165 -0.591711 4.11871 0
M  V30 3014 H 280.041 -1.21761 5.35225 0
M  V30 3015 H 280.302 -2.12996 3.87408 0
M  V30 3016 N 279.361 -1.56624 0.175154 0
M  V30 3017 C 280.293 -2.15333 -0.785128 0
M  V30 3018 C 281.306 -1.1099 -1.19101 0
M  V30 3019 O 282.495 -1.38162 -1.13019 0
M  V30 3020 C 279.595 -2.68427 -2.06882 0
M  V30 3021 C 278.768 -3.97466 -1.8259 0
M  V30 3022 C 277.827 -4.35585 -2.95215 0
M  V30 3023 O 276.853 -5.03389 -2.65684 0
M  V30 3024 N 278.055 -3.97457 -4.23094 0
M  V30 3025 H 280.82 -2.98359 -0.283187 0
M  V30 3026 H 278.381 -1.61898 -0.00749817 0
M  V30 3027 H 280.373 -2.90924 -2.81328 0
M  V30 3028 H 278.943 -1.89968 -2.48256 0
M  V30 3029 H 278.163 -3.83307 -0.920287 0
M  V30 3030 H 279.451 -4.81736 -1.63733 0
M  V30 3031 H 278.849 -3.42878 -4.49945 0
M  V30 3032 H 277.406 -4.24947 -4.9423 0
M  V30 3033 N 280.839 0.0985539 -1.57292 0
M  V30 3034 C 282.064 0.820196 -1.90493 0
M  V30 3035 C 282.489 1.71658 -0.769094 0
M  V30 3036 O 281.847 1.79133 0.279495 0
M  V30 3037 C 281.895 1.61242 -3.22542 0
M  V30 3038 O 280.999 2.72108 -3.09888 0
M  V30 3039 H 280.34 0.225547 -0.62452 0
M  V30 3040 H 282.87 0.0748159 -2.04463 0
M  V30 3041 H 282.88 1.99737 -3.55766 0
M  V30 3042 H 281.555 0.954535 -4.04798 0
M  V30 3043 H 280.132 2.36667 -2.88172 0
M  V30 3044 N 282.317 1.53212 0.369288 0
M  V30 3045 C 283.267 1.75769 1.45222 0
M  V30 3046 C 284.251 0.612136 1.48801 0
M  V30 3047 O 285.443 0.870674 1.54105 0
M  V30 3048 C 282.572 1.94769 2.82701 0
M  V30 3049 C 281.658 3.15315 2.83615 0
M  V30 3050 N 282.049 4.37295 2.54178 0
M  V30 3051 C 280.347 3.15962 3.14776 0
M  V30 3052 C 281.048 5.19015 2.62675 0
M  V30 3053 N 280.024 4.55142 2.97232 0
M  V30 3054 H 283.826 2.67691 1.2132 0
M  V30 3055 H 281.34 1.51787 0.577438 0
M  V30 3056 H 283.337 2.09056 3.60696 0
M  V30 3057 H 281.997 1.04073 3.07569 0
M  V30 3058 H 283.008 4.65091 2.27839 0
M  V30 3059 H 279.685 2.35144 3.44983 0
M  V30 3060 H 281.075 6.26305 2.43294 0
M  V30 3061 N 283.795 -0.628877 1.44509 0
M  V30 3062 C 284.758 -1.72263 1.51188 0
M  V30 3063 C 285.758 -1.55907 0.39367 0
M  V30 3064 O 286.948 -1.61361 0.656377 0
M  V30 3065 C 284.08 -3.11365 1.38798 0
M  V30 3066 H 285.273 -1.67714 2.4862 0
M  V30 3067 H 282.826 -0.842737 1.31634 0
M  V30 3068 H 283.561 -3.21507 0.424693 0
M  V30 3069 H 283.346 -3.24644 2.19884 0
M  V30 3070 H 284.836 -3.91075 1.46458 0
M  V30 3071 N 285.273 -1.31445 -0.869486 0
M  V30 3072 C 286.52 -1.21158 -1.62256 0
M  V30 3073 C 286.848 0.230155 -1.93133 0
M  V30 3074 O 286.103 1.17906 -1.56194 0
M  V30 3075 C 286.402 -2.00145 -2.96102 0
M  V30 3076 C 286.068 -3.4964 -2.84715 0
M  V30 3077 C 284.73 -3.90403 -2.81317 0
M  V30 3078 C 287.082 -4.44769 -2.71716 0
M  V30 3079 C 284.41 -5.24561 -2.62778 0
M  V30 3080 C 286.762 -5.79054 -2.54714 0
M  V30 3081 C 285.426 -6.19037 -2.49699 0
M  V30 3082 H 284.696 -0.443348 -0.593737 0
M  V30 3083 H 287.343 -1.62715 -1.00976 0
M  V30 3084 H 285.648 -1.5127 -3.6142 0
M  V30 3085 H 287.345 -1.89566 -3.53363 0
M  V30 3086 H 283.935 -3.17256 -2.88178 0
M  V30 3087 H 288.119 -4.14208 -2.73397 0
M  V30 3088 H 283.375 -5.54613 -2.57321 0
M  V30 3089 H 287.549 -6.52393 -2.43632 0
M  V30 3090 H 285.176 -7.22935 -2.35093 0
M  V30 3091 N 286.751 1.08385 -1.14413 0
M  V30 3092 C 287.699 2.17406 -0.826888 0
M  V30 3093 C 288.693 1.6827 0.195312 0
M  V30 3094 O 289.899 1.79927 0.0513892 0
M  V30 3095 H 286.274 0.70934 -0.249681 0
M  V30 3096 H 288.245 2.41388 -1.75426 0
M  V30 3097 C 286.994 3.46215 -0.320979 0
M  V30 3098 H 286.317 3.84401 -1.0989 0
M  V30 3099 H 287.757 4.23777 -0.137549 0
M  V30 3100 C 286.216 3.23067 0.955472 0
M  V30 3101 O 286.746 3.4668 2.02918 0
M  V30 3102 N 284.952 2.7661 0.890798 0
M  V30 3103 H 284.499 2.57594 0.0168815 0
M  V30 3104 H 284.457 2.61501 1.74542 0
M  V30 3105 N 288.23 0.939286 1.26551 0
M  V30 3106 C 289.478 0.58469 1.93457 0
M  V30 3107 C 289.799 -0.878774 1.74076 0
M  V30 3108 O 289.069 -1.62421 1.09528 0
M  V30 3109 H 287.649 0.21325 0.715914 0
M  V30 3110 H 290.311 1.1942 1.54029 0
M  V30 3111 H 289.407 0.800849 3.0165 0
M  V30 3112 N 289.708 -1.40897 0.706093 0
M  V30 3113 C 290.936 -2.05373 0.250887 0
M  V30 3114 C 291.351 -1.53172 -1.10381 0
M  V30 3115 O 290.708 -0.684305 -1.69185 0
M  V30 3116 C 290.759 -3.6088 0.211571 0
M  V30 3117 O 290.48 -4.11153 1.51276 0
M  V30 3118 C 291.981 -4.42517 -0.263346 0
M  V30 3119 H 289.201 -0.66115 0.114552 0
M  V30 3120 H 291.745 -1.80479 0.961635 0
M  V30 3121 H 289.9 -3.84777 -0.450073 0
M  V30 3122 H 290.314 -5.05279 1.40689 0
M  V30 3123 H 291.788 -5.51479 -0.239718 0
M  V30 3124 H 292.265 -4.19396 -1.30397 0
M  V30 3125 H 292.871 -4.23708 0.367677 0
M  V30 3126 N 291.186 -0.45159 -1.50991 0
M  V30 3127 C 292.414 0.108334 -2.06616 0
M  V30 3128 C 292.829 1.35224 -1.31757 0
M  V30 3129 O 292.186 1.78475 -0.381174 0
M  V30 3130 C 292.237 0.41619 -3.59096 0
M  V30 3131 O 291.958 -0.778361 -4.3113 0
M  V30 3132 C 293.459 1.02523 -4.31282 0
M  V30 3133 H 290.679 0.00159995 -0.670998 0
M  V30 3134 H 293.223 -0.634771 -1.94399 0
M  V30 3135 H 291.378 1.10921 -3.71181 0
M  V30 3136 H 291.792 -0.511181 -5.22003 0
M  V30 3137 H 293.266 1.19053 -5.39009 0
M  V30 3138 H 293.743 2.01013 -3.905 0
M  V30 3139 H 294.349 0.371173 -4.23677 0
M  V30 3140 N 292.664 1.56529 -0.183458 0
M  V30 3141 C 293.594 2.21549 0.737456 0
M  V30 3142 C 294.575 1.17489 1.23005 0
M  V30 3143 O 295.76 1.45959 1.281 0
M  V30 3144 C 292.89 2.86575 1.96194 0
M  V30 3145 C 291.844 3.96778 1.60473 0
M  V30 3146 C 291.17 4.48911 2.90487 0
M  V30 3147 C 292.47 5.15767 0.823497 0
M  V30 3148 H 294.164 2.98761 0.195453 0
M  V30 3149 H 291.71 1.43702 0.0925686 0
M  V30 3150 H 293.663 3.30739 2.61131 0
M  V30 3151 H 292.387 2.06749 2.52828 0
M  V30 3152 H 291.046 3.53286 0.978997 0
M  V30 3153 H 290.694 3.65862 3.45186 0
M  V30 3154 H 290.394 5.23265 2.67335 0
M  V30 3155 H 291.918 4.95771 3.56432 0
M  V30 3156 H 293.332 5.56549 1.37571 0
M  V30 3157 H 291.729 5.96114 0.690551 0
M  V30 3158 H 292.799 4.84574 -0.177782 0
M  V30 3159 N 294.142 -0.090211 1.57342 0
M  V30 3160 C 295.37 -0.806224 1.90546 0
M  V30 3161 C 295.785 -1.72041 0.777644 0
M  V30 3162 O 295.142 -1.80778 -0.250103 0
M  V30 3163 C 295.193 -1.61546 3.23396 0
M  V30 3164 O 294.914 -0.738043 4.31839 0
M  V30 3165 C 296.415 -2.4341 3.70495 0
M  V30 3166 H 293.635 -0.230256 0.630257 0
M  V30 3167 H 296.179 -0.0659843 2.04394 0
M  V30 3168 H 294.334 -2.30816 3.11131 0
M  V30 3169 H 294.748 -1.29901 5.08159 0
M  V30 3170 H 296.222 -2.95676 4.66133 0
M  V30 3171 H 296.699 -3.22098 2.98579 0
M  V30 3172 H 297.305 -1.79331 3.85643 0
M  V30 3173 N 295.62 -1.53406 -0.361157 0
M  V30 3174 C 296.845 -1.74024 -1.12829 0
M  V30 3175 C 297.27 -0.470069 -1.82132 0
M  V30 3176 O 296.628 0.57619 -1.719 0
M  V30 3177 C 296.676 -2.90903 -2.13091 0
M  V30 3178 O 295.78 -2.59821 -3.20261 0
M  V30 3179 H 295.121 -0.577804 -0.327168 0
M  V30 3180 H 297.651 -2.00307 -0.41693 0
M  V30 3181 H 297.661 -3.17194 -2.56616 0
M  V30 3182 H 296.336 -3.83034 -1.62042 0
M  V30 3183 H 294.913 -2.44362 -2.81677 0
M  V30 3184 N 297.098 0.621204 -1.44841 0
M  V30 3185 C 298.028 1.74366 -1.55303 0
M  V30 3186 C 299.009 1.65199 -0.405385 0
M  V30 3187 O 300.194 1.83807 -0.626787 0
M  V30 3188 C 297.324 3.12931 -1.50637 0
M  V30 3189 C 296.278 3.36896 -2.63979 0
M  V30 3190 C 295.604 4.75594 -2.44366 0
M  V30 3191 C 296.904 3.28483 -4.06074 0
M  V30 3192 H 298.598 1.65867 -2.49256 0
M  V30 3193 H 296.144 0.796558 -1.19962 0
M  V30 3194 H 298.097 3.9124 -1.56555 0
M  V30 3195 H 296.821 3.22237 -0.532057 0
M  V30 3196 H 295.48 2.60972 -2.57467 0
M  V30 3197 H 295.128 4.81616 -1.45105 0
M  V30 3198 H 294.828 4.92586 -3.20364 0
M  V30 3199 H 296.352 5.5612 -2.52117 0
M  V30 3200 H 297.766 3.96684 -4.13902 0
M  V30 3201 H 296.163 3.57008 -4.82354 0
M  V30 3202 H 297.233 2.26133 -4.28943 0
M  V30 3203 N 298.576 1.31904 0.862503 0
M  V30 3204 C 299.486 1.22161 2.00285 0
M  V30 3205 C 300.502 0.136785 1.73462 0
M  V30 3206 O 301.678 0.355994 1.98229 0
M  V30 3207 C 298.743 0.937093 3.33796 0
M  V30 3208 C 297.804 2.10957 3.73893 0
M  V30 3209 C 297.037 1.83853 5.01033 0
M  V30 3210 O 297.26 0.777274 5.65079 0
M  V30 3211 O 296.194 2.69741 5.38074 0
M  V30 3212 H 300.02 2.18008 2.11439 0
M  V30 3213 H 297.605 1.11716 0.991957 0
M  V30 3214 H 299.487 0.794583 4.13841 0
M  V30 3215 H 298.162 0.00871894 3.23699 0
M  V30 3216 H 297.069 2.30752 2.94456 0
M  V30 3217 H 298.402 3.02046 3.88625 0
M  V30 3218 N 300.054 -1.07777 1.14986 0
M  V30 3219 C 300.984 -2.16865 0.865557 0
M  V30 3220 C 301.965 -1.69123 -0.182083 0
M  V30 3221 O 303.15 -1.94164 -0.0373815 0
M  V30 3222 C 300.28 -3.45539 0.349313 0
M  V30 3223 C 299.234 -4.06708 1.33313 0
M  V30 3224 C 298.56 -5.30411 0.675918 0
M  V30 3225 C 299.86 -4.47241 2.69764 0
M  V30 3226 H 301.554 -2.40905 1.77778 0
M  V30 3227 H 299.1 -1.15781 0.856203 0
M  V30 3228 H 301.053 -4.21174 0.137983 0
M  V30 3229 H 299.777 -3.21072 -0.598362 0
M  V30 3230 H 298.436 -3.33112 1.53075 0
M  V30 3231 H 298.084 -5.02232 -0.277767 0
M  V30 3232 H 297.784 -5.72293 1.33244 0
M  V30 3233 H 299.308 -6.08755 0.474262 0
M  V30 3234 H 300.722 -5.14025 2.53873 0
M  V30 3235 H 299.119 -5.00062 3.3175 0
M  V30 3236 H 300.189 -3.58818 3.26156 0
M  V30 3237 N 301.532 -0.945985 -1.26051 0
M  V30 3238 C 302.479 -0.45809 -2.26208 0
M  V30 3239 C 303.449 0.484816 -1.58867 0
M  V30 3240 O 304.634 0.399969 -1.86561 0
M  V30 3241 C 301.774 0.266131 -3.44072 0
M  V30 3242 C 300.887 -0.713005 -4.26075 0
M  V30 3243 C 300.022 0.0329013 -5.3119 0
M  V30 3244 C 299.061 -0.93774 -6.04874 0
M  V30 3245 N 298.198 -0.223274 -7.01745 0
M  V30 3246 H 303.038 -1.3171 -2.67313 0
M  V30 3247 H 300.575 -0.66069 -1.31428 0
M  V30 3248 H 302.533 0.702514 -4.11243 0
M  V30 3249 H 301.163 1.08925 -3.03867 0
M  V30 3250 H 300.215 -1.26789 -3.58648 0
M  V30 3251 H 301.527 -1.45406 -4.77136 0
M  V30 3252 H 300.681 0.528335 -6.04395 0
M  V30 3253 H 299.42 0.806801 -4.8098 0
M  V30 3254 H 298.425 -1.44425 -5.30492 0
M  V30 3255 H 299.65 -1.71172 -6.57173 0
M  V30 3256 H 297.596 0.532046 -6.53839 0
M  V30 3257 H 297.513 -0.90357 -7.50581 0
M  V30 3258 H 298.781 0.250907 -7.79096 0
M  V30 3259 N 303.011 1.40521 -0.713556 0
M  V30 3260 C 303.921 2.34522 -0.0606667 0
M  V30 3261 C 304.937 1.57193 0.74607 0
M  V30 3262 O 306.113 1.89591 0.679493 0
M  V30 3263 C 303.178 3.36081 0.851491 0
M  V30 3264 C 302.239 4.29286 0.0349339 0
M  V30 3265 C 301.472 5.25994 0.903649 0
M  V30 3266 O 301.695 5.28616 2.14292 0
M  V30 3267 O 300.629 6.00918 0.343723 0
M  V30 3268 H 304.455 2.91968 -0.835972 0
M  V30 3269 H 302.04 1.41681 -0.47402 0
M  V30 3270 H 303.922 3.98369 1.37404 0
M  V30 3271 H 302.597 2.81052 1.60598 0
M  V30 3272 H 301.504 3.70289 -0.532633 0
M  V30 3273 H 302.837 4.87462 -0.681287 0
M  V30 3274 N 304.489 0.459591 1.5075 0
M  V30 3275 C 305.437 -0.354678 2.2988 0
M  V30 3276 C 306.431 -1.00086 1.36672 0
M  V30 3277 O 307.637 -0.933277 1.53915 0
M  V30 3278 H 304.012 -0.13321 0.740107 0
M  V30 3279 H 305.983 0.333269 2.96533 0
M  V30 3280 C 304.732 -1.43073 3.169 0
M  V30 3281 H 304.055 -0.942882 3.88523 0
M  V30 3282 H 305.495 -1.97328 3.75284 0
M  V30 3283 C 303.954 -2.42633 2.33732 0
M  V30 3284 O 304.484 -3.47658 2.01238 0
M  V30 3285 N 302.69 -2.14066 1.9653 0
M  V30 3286 H 302.237 -1.28685 2.23155 0
M  V30 3287 H 302.195 -2.80917 1.41185 0
M  V30 3288 N 305.967 -1.56429 0.191757 0
M  V30 3289 C 307.213 -1.97777 -0.448554 0
M  V30 3290 C 307.546 -1.07847 -1.61501 0
M  V30 3291 O 306.821 -0.129774 -1.94067 0
M  V30 3292 C 307.104 -3.48362 -0.911906 0
M  V30 3293 C 306.957 -4.4907 0.256136 0
M  V30 3294 C 308.276 -4.02561 -1.77857 0
M  V30 3295 H 305.395 -0.719071 -0.161572 0
M  V30 3296 H 308.037 -1.87896 0.282007 0
M  V30 3297 H 306.187 -3.56914 -1.53442 0
M  V30 3298 H 307.859 -4.5256 0.893733 0
M  V30 3299 H 306.102 -4.24181 0.908436 0
M  V30 3300 H 306.773 -5.51889 -0.11053 0
M  V30 3301 H 309.249 -3.96767 -1.25359 0
M  V30 3302 H 308.125 -5.08301 -2.07174 0
M  V30 3303 H 308.386 -3.47616 -2.73158 0
M  V30 3304 N 307.445 0.0818655 -1.57387 0
M  V30 3305 C 308.395 1.10501 -1.99433 0
M  V30 3306 C 309.379 1.35041 -0.874798 0
M  V30 3307 O 310.571 1.35511 -1.13868 0
M  V30 3308 C 307.7 2.42159 -2.43339 0
M  V30 3309 C 306.786 2.20937 -3.62005 0
M  V30 3310 N 307.177 1.69616 -4.76512 0
M  V30 3311 C 305.475 2.51451 -3.68359 0
M  V30 3312 C 306.176 1.62973 -5.58404 0
M  V30 3313 N 305.152 2.08664 -5.01956 0
M  V30 3314 H 308.954 0.701373 -2.85408 0
M  V30 3315 H 306.468 0.289096 -1.59806 0
M  V30 3316 H 308.465 3.16208 -2.71695 0
M  V30 3317 H 307.125 2.83249 -1.58746 0
M  V30 3318 H 308.136 1.38624 -4.99003 0
M  V30 3319 H 304.813 2.95975 -2.94457 0
M  V30 3320 H 306.203 1.24233 -6.60315 0
M  V30 3321 N 308.923 1.53595 0.353017 0
M  V30 3322 C 309.853 1.83902 1.43883 0
M  V30 3323 C 310.834 0.693421 1.55324 0
M  V30 3324 O 312.019 0.944452 1.69687 0
M  V30 3325 C 309.149 2.04016 2.8106 0
M  V30 3326 C 308.103 3.19814 2.84434 0
M  V30 3327 C 307.429 3.25244 4.24406 0
M  V30 3328 C 308.729 4.58133 2.50822 0
M  V30 3329 H 310.423 2.74835 1.1877 0
M  V30 3330 H 307.969 1.32242 0.569917 0
M  V30 3331 H 309.922 2.238 3.57059 0
M  V30 3332 H 308.646 1.09804 3.07588 0
M  V30 3333 H 307.305 2.9987 2.10887 0
M  V30 3334 H 306.953 2.28646 4.48029 0
M  V30 3335 H 306.653 4.03054 4.27576 0
M  V30 3336 H 308.177 3.47228 5.0226 0
M  V30 3337 H 309.591 4.77995 3.16534 0
M  V30 3338 H 307.988 5.38276 2.6529 0
M  V30 3339 H 309.058 4.62387 1.46034 0
M  V30 3340 N 310.401 -0.613514 1.45168 0
M  V30 3341 C 311.311 -1.75296 1.55912 0
M  V30 3342 C 312.327 -1.68244 0.443856 0
M  V30 3343 O 313.503 -1.88706 0.70371 0
M  V30 3344 C 310.568 -3.1174 1.5172 0
M  V30 3345 C 309.629 -3.30291 2.74238 0
M  V30 3346 C 308.862 -4.60226 2.70236 0
M  V30 3347 O 309.085 -5.42168 1.77229 0
M  V30 3348 O 308.019 -4.81361 3.61352 0
M  V30 3349 H 311.845 -1.69183 2.52212 0
M  V30 3350 H 309.43 -0.776886 1.27612 0
M  V30 3351 H 311.312 -3.93044 1.51968 0
M  V30 3352 H 309.987 -3.18357 0.585697 0
M  V30 3353 H 308.894 -2.48598 2.79553 0
M  V30 3354 H 310.227 -3.28547 3.66494 0
M  V30 3355 N 311.879 -1.3236 -0.855495 0
M  V30 3356 C 312.826 -1.21225 -1.964 0
M  V30 3357 C 313.796 -0.0946204 -1.6583 0
M  V30 3358 O 314.981 -0.27002 -1.8888 0
M  V30 3359 C 312.121 -0.940419 -3.32039 0
M  V30 3360 C 311.234 -2.14276 -3.75113 0
M  V30 3361 C 310.369 -1.80648 -4.9954 0
M  V30 3362 C 309.408 -2.97208 -5.35102 0
M  V30 3363 N 308.545 -2.63678 -6.50706 0
M  V30 3364 H 313.385 -2.16042 -2.05255 0
M  V30 3365 H 310.922 -1.07451 -1.00463 0
M  V30 3366 H 312.88 -0.763311 -4.10158 0
M  V30 3367 H 311.51 -0.0290413 -3.22787 0
M  V30 3368 H 310.562 -2.43017 -2.92655 0
M  V30 3369 H 311.874 -3.01468 -3.97389 0
M  V30 3370 H 311.028 -1.59484 -5.85363 0
M  V30 3371 H 309.767 -0.906678 -4.79198 0
M  V30 3372 H 308.772 -3.19004 -4.47791 0
M  V30 3373 H 309.997 -3.87918 -5.57401 0
M  V30 3374 H 307.943 -1.76238 -6.31883 0
M  V30 3375 H 307.86 -3.444 -6.72997 0
M  V30 3376 H 309.128 -2.45942 -7.39684 0
M  V30 3377 N 313.357 1.07166 -1.15556 0
M  V30 3378 C 314.29 2.13808 -0.797593 0
M  V30 3379 C 315.268 1.6101 0.226812 0
M  V30 3380 O 316.452 1.88161 0.112932 0
M  V30 3381 C 313.579 3.38187 -0.186371 0
M  V30 3382 C 312.625 4.09766 -1.18297 0
M  V30 3383 S 313.458 4.60932 -2.72584 0
M  V30 3384 C 314.614 5.88583 -2.12886 0
M  V30 3385 H 314.847 2.43843 -1.70083 0
M  V30 3386 H 312.38 1.19467 -0.978106 0
M  V30 3387 H 314.338 4.10189 0.159837 0
M  V30 3388 H 312.999 3.06326 0.694489 0
M  V30 3389 H 312.192 4.99065 -0.703562 0
M  V30 3390 H 311.794 3.43736 -1.47381 0
M  V30 3391 H 314.086 6.60866 -1.49208 0
M  V30 3392 H 315.029 6.41241 -3.0036 0
M  V30 3393 H 315.437 5.42194 -1.57116 0
M  V30 3394 N 314.835 0.952656 1.25548 0
M  V30 3395 C 315.785 0.442033 2.23674 0
M  V30 3396 C 316.769 -0.467632 1.53955 0
M  V30 3397 O 317.961 -0.301006 1.74422 0
M  V30 3398 C 315.09 -0.280816 3.4215 0
M  V30 3399 C 314.176 0.646803 4.19139 0
M  V30 3400 N 314.567 1.77759 4.73535 0
M  V30 3401 C 312.865 0.454617 4.43677 0
M  V30 3402 C 313.566 2.35658 5.31827 0
M  V30 3403 N 312.542 1.64333 5.18166 0
M  V30 3404 H 316.344 1.30505 2.63336 0
M  V30 3405 H 313.858 0.809904 1.40763 0
M  V30 3406 H 315.855 -0.663747 4.11582 0
M  V30 3407 H 314.515 -1.14046 3.04012 0
M  V30 3408 H 315.526 2.15949 4.7073 0
M  V30 3409 H 312.203 -0.362312 4.15925 0
M  V30 3410 H 313.593 3.30998 5.84713 0
M  V30 3411 N 316.313 -1.40141 0.720998 0
M  V30 3412 C 317.261 -2.3252 0.0608547 0
M  V30 3413 C 318.255 -1.52326 -0.741152 0
M  V30 3414 O 319.461 -1.68089 -0.643911 0
M  V30 3415 H 315.836 -0.751999 0.000876664 0
M  V30 3416 H 317.807 -2.8584 0.856614 0
M  V30 3417 C 316.556 -3.37331 -0.842809 0
M  V30 3418 H 315.879 -3.99108 -0.235084 0
M  V30 3419 H 317.319 -4.04452 -1.27257 0
M  V30 3420 C 315.778 -2.73246 -1.97074 0
M  V30 3421 O 316.308 -2.59998 -3.06209 0
M  V30 3422 N 314.514 -2.31547 -1.75597 0
M  V30 3423 H 314.061 -2.42522 -0.868368 0
M  V30 3424 H 314.019 -1.89007 -2.51244 0
M  V30 3425 N 317.792 -0.46758 -1.50504 0
M  V30 3426 C 319.04 0.0884469 -2.01906 0
M  V30 3427 C 319.361 1.40532 -1.35188 0
M  V30 3428 O 318.631 1.89515 -0.496079 0
M  V30 3429 H 317.211 0.0356765 -0.746148 0
M  V30 3430 H 319.873 -0.6172 -1.84869 0
M  V30 3431 H 318.969 0.2425 -3.11156 0
M  V30 3432 N 319.27 1.56325 -0.20005 0
M  V30 3433 C 320.233 2.18084 0.705132 0
M  V30 3434 C 321.233 1.13666 1.1374 0
M  V30 3435 O 322.423 1.39023 1.04968 0
M  V30 3436 C 319.555 2.78689 1.96329 0
M  V30 3437 H 320.748 2.99435 0.167023 0
M  V30 3438 H 318.301 1.56221 0.0495725 0
M  V30 3439 H 319.036 2.0115 2.5438 0
M  V30 3440 H 318.821 3.55133 1.66202 0
M  V30 3441 H 320.311 3.26096 2.60866 0
M  V30 3442 N 320.748 -0.0735177 1.57428 0
M  V30 3443 C 321.995 -0.772999 1.87166 0
M  V30 3444 C 322.323 -1.77665 0.791551 0
M  V30 3445 O 321.578 -1.94541 -0.212636 0
M  V30 3446 C 321.877 -1.51799 3.23561 0
M  V30 3447 C 321.543 -0.654484 4.46125 0
M  V30 3448 C 320.205 -0.416511 4.79394 0
M  V30 3449 C 322.557 -0.0555862 5.2117 0
M  V30 3450 C 319.885 0.429869 5.85123 0
M  V30 3451 C 322.237 0.778239 6.27795 0
M  V30 3452 C 320.901 1.0261 6.59566 0
M  V30 3453 H 320.171 -0.282861 0.684888 0
M  V30 3454 H 322.818 -0.0338272 1.9147 0
M  V30 3455 H 321.123 -2.32932 3.1504 0
M  V30 3456 H 322.82 -2.06397 3.43804 0
M  V30 3457 H 319.41 -0.850091 4.20085 0
M  V30 3458 H 323.594 -0.226558 4.95783 0
M  V30 3459 H 318.85 0.630665 6.08139 0
M  V30 3460 H 323.024 1.24906 6.85107 0
M  V30 3461 H 320.651 1.68371 7.4132 0
M  V30 3462 N 322.226 -1.5378 -0.344866 0
M  V30 3463 C 323.642 -1.44015 -0.687888 0
M  V30 3464 C 323.842 -0.595834 -1.92489 0
M  V30 3465 O 322.898 -0.0863064 -2.52352 0
M  V30 3466 C 324.211 -2.87481 -0.881758 0
M  V30 3467 C 325.759 -2.97247 -0.980459 0
M  V30 3468 C 326.234 -4.41819 -1.20665 0
M  V30 3469 N 327.725 -4.45339 -1.27389 0
M  V30 3470 C 328.46 -5.54333 -1.46639 0
M  V30 3471 N 327.956 -6.73335 -1.63071 0
M  V30 3472 N 329.749 -5.41944 -1.49176 0
M  V30 3473 H 321.9 -2.07169 0.468475 0
M  V30 3474 H 324.163 -0.93643 0.147655 0
M  V30 3475 H 323.869 -3.51672 -0.0443444 0
M  V30 3476 H 323.743 -3.32352 -1.78388 0
M  V30 3477 H 326.13 -2.33197 -1.8084 0
M  V30 3478 H 326.211 -2.5574 -0.0552713 0
M  V30 3479 H 325.855 -5.06449 -0.383652 0
M  V30 3480 H 325.785 -4.80917 -2.14539 0
M  V30 3481 H 328.276 -3.59585 -1.1622 0
M  V30 3482 H 328.589 -7.52165 -1.77391 0
M  V30 3483 H 326.934 -6.76282 -1.60209 0
M  V30 3484 H 330.125 -4.47932 -1.3592 0
M  V30 3485 H 330.298 -6.26946 -1.63837 0
M  V30 3486 N 323.704 0.605807 -1.45491 0
M  V30 3487 C 324.952 1.36207 -1.49305 0
M  V30 3488 C 325.273 1.94519 -0.136863 0
M  V30 3489 O 324.543 1.77261 0.833983 0
M  V30 3490 H 323.123 0.50565 -0.549843 0
M  V30 3491 H 325.785 0.711239 -1.81459 0
M  V30 3492 H 324.881 2.18058 -2.23287 0
M  V30 3493 N 325.182 1.32811 0.848464 0
M  V30 3494 C 326.145 1.22194 1.9391 0
M  V30 3495 C 327.145 0.143404 1.60159 0
M  V30 3496 O 328.335 0.394253 1.6968 0
M  V30 3497 C 325.467 0.88067 3.29328 0
M  V30 3498 H 326.66 2.19127 2.04752 0
M  V30 3499 H 324.213 1.16731 1.0394 0
M  V30 3500 H 324.948 -0.0865776 3.24184 0
M  V30 3501 H 324.733 1.66052 3.55203 0
M  V30 3502 H 326.223 0.830871 4.09251 0
M  V30 3503 N 326.66 -1.06551 1.16123 0
M  V30 3504 C 327.888 -1.83005 0.965237 0
M  V30 3505 C 328.303 -1.82423 -0.486542 0
M  V30 3506 O 327.66 -1.24152 -1.33763 0
M  V30 3507 C 327.711 -3.29733 1.48183 0
M  V30 3508 O 327.432 -3.30416 2.87674 0
M  V30 3509 C 328.933 -4.22926 1.32848 0
M  V30 3510 H 326.153 -0.577118 0.342309 0
M  V30 3511 H 328.697 -1.3445 1.54089 0
M  V30 3512 H 326.852 -3.75609 0.948517 0
M  V30 3513 H 327.266 -4.22149 3.11272 0
M  V30 3514 H 328.74 -5.23916 1.73827 0
M  V30 3515 H 329.217 -4.38346 0.273692 0
M  V30 3516 H 329.823 -3.82894 1.85127 0
M  V30 3517 N 328.138 -0.959301 -1.25041 0
M  V30 3518 C 329.386 -0.615393 -1.92503 0
M  V30 3519 C 329.707 0.850969 -1.75452 0
M  V30 3520 O 328.977 1.60658 -1.12098 0
M  V30 3521 H 327.557 -0.224613 -0.712431 0
M  V30 3522 H 330.219 -1.21855 -1.5211 0
M  V30 3523 H 329.315 -0.848738 -3.00338 0
M  V30 3524 N 329.616 1.39756 -0.72842 0
M  V30 3525 C 331.027 1.83498 -0.344289 0
M  V30 3526 C 331.378 1.60868 1.12321 0
M  V30 3527 O 330.503 1.09634 1.86573 0
M  V30 3528 C 331.098 3.33114 -0.618112 0
M  V30 3529 C 329.657 3.753 -0.287549 0
M  V30 3530 C 328.804 2.62831 -0.884048 0
M  V30 3531 H 331.755 1.28842 -0.926578 0
M  V30 3532 H 331.776 3.80334 0.112349 0
M  V30 3533 H 331.288 3.49553 -1.68625 0
M  V30 3534 H 329.389 3.64451 0.775012 0
M  V30 3535 H 329.502 4.72945 -0.765512 0
M  V30 3536 H 327.866 2.52792 -0.311149 0
M  V30 3537 H 328.649 2.82078 -1.95671 0
M  V30 3538 N 331.094 0.475555 1.50254 0
M  V30 3539 C 332.041 -0.316293 2.28622 0
M  V30 3540 C 333.011 -0.983227 1.33873 0
M  V30 3541 O 334.196 -0.994805 1.62814 0
M  V30 3542 C 331.336 -1.38975 3.1588 0
M  V30 3543 C 330.449 -0.737146 4.25664 0
M  V30 3544 C 329.584 -1.78887 5.00173 0
M  V30 3545 C 328.623 -1.11676 6.01826 0
M  V30 3546 N 327.76 -2.11154 6.69596 0
M  V30 3547 H 332.6 0.358297 2.95838 0
M  V30 3548 H 330.137 0.188541 1.45887 0
M  V30 3549 H 332.095 -2.02383 3.64825 0
M  V30 3550 H 330.725 -2.03344 2.50701 0
M  V30 3551 H 329.777 0.0096065 3.80399 0
M  V30 3552 H 331.089 -0.206816 4.98371 0
M  V30 3553 H 330.243 -2.49865 5.52859 0
M  V30 3554 H 328.982 -2.35302 4.27182 0
M  V30 3555 H 327.987 -0.392633 5.48396 0
M  V30 3556 H 329.212 -0.55945 6.76792 0
M  V30 3557 H 327.158 -2.66577 5.99394 0
M  V30 3558 H 327.075 -1.63118 7.38193 0
M  V30 3559 H 328.343 -2.81497 7.26897 0
M  V30 3560 N 332.573 -1.56217 0.208337 0
M  V30 3561 C 333.801 -2.02337 -0.43215 0
M  V30 3562 C 334.216 -1.08834 -1.54275 0
M  V30 3563 O 333.573 -0.0955462 -1.8225 0
M  V30 3564 C 333.624 -3.48072 -0.976138 0
M  V30 3565 O 333.345 -4.38007 0.0901621 0
M  V30 3566 C 334.846 -4.09773 -1.69119 0
M  V30 3567 H 332.066 -0.662385 -0.10718 0
M  V30 3568 H 334.61 -2.01966 0.320923 0
M  V30 3569 H 332.765 -3.49099 -1.67954 0
M  V30 3570 H 333.179 -5.23543 -0.316701 0
M  V30 3571 H 334.653 -5.13556 -2.02397 0
M  V30 3572 H 335.13 -3.53999 -2.59964 0
M  V30 3573 H 335.736 -4.12556 -1.03332 0
M  V30 3574 N 334.051 0.0651679 -1.57465 0
M  V30 3575 C 334.981 1.07693 -2.07182 0
M  V30 3576 C 335.962 1.39962 -0.966673 0
M  V30 3577 O 337.147 1.49475 -1.2398 0
M  V30 3578 C 334.277 2.3885 -2.52127 0
M  V30 3579 C 333.231 2.20917 -3.66579 0
M  V30 3580 C 332.557 3.57515 -3.97601 0
M  V30 3581 C 333.857 1.62493 -4.9638 0
M  V30 3582 H 335.551 0.663199 -2.91962 0
M  V30 3583 H 333.097 0.317569 -1.40455 0
M  V30 3584 H 335.05 3.09928 -2.85522 0
M  V30 3585 H 333.774 2.82215 -1.64384 0
M  V30 3586 H 332.433 1.52279 -3.33477 0
M  V30 3587 H 332.081 3.98463 -3.06979 0
M  V30 3588 H 331.781 3.46353 -4.74672 0
M  V30 3589 H 333.305 4.30013 -4.33499 0
M  V30 3590 H 334.719 2.23445 -5.27963 0
M  V30 3591 H 333.116 1.62009 -5.77818 0
M  V30 3592 H 334.186 0.587041 -4.81333 0
M  V30 3593 N 335.529 1.53961 0.336706 0
M  V30 3594 C 336.806 1.62171 1.09361 0
M  V30 3595 C 337.186 0.447263 2.06307 0
M  V30 3596 O 336.534 -0.559802 2.21537 0
M  V30 3597 C 336.744 2.98565 1.80721 0
M  V30 3598 C 338.092 3.54157 2.34218 0
M  V30 3599 O 339.116 3.00784 1.90807 0
M  V30 3600 O 337.975 4.47528 3.13657 0
M  V30 3601 H 335.069 0.6562 0.503319 0
M  V30 3602 H 337.615 1.66307 0.33765 0
M  V30 3603 H 336.387 3.75482 1.10132 0
M  V30 3604 H 336.01 2.9805 2.63158 0
M  V30 3605 N 337.007 -0.598083 1.45811 0
M  V30 3606 C 338.256 -1.35295 1.49594 0
M  V30 3607 C 338.569 -1.95057 0.145679 0
M  V30 3608 O 339.775 -2.71431 0.0612099 0
M  V30 3609 C 338.231 -2.45124 2.63519 0
M  V30 3610 C 337.839 -1.91732 4.04899 0
M  V30 3611 C 339.583 -3.2205 2.76558 0
M  V30 3612 C 337.49 -2.991 5.1019 0
M  V30 3613 H 336.42 -0.508552 0.556679 0
M  V30 3614 H 339.071 -0.639977 1.71978 0
M  V30 3615 H 337.453 -3.19149 2.34435 0
M  V30 3616 H 338.627 -1.24352 4.43704 0
M  V30 3617 H 336.942 -1.27522 3.96393 0
M  V30 3618 H 339.539 -4.0215 3.52391 0
M  V30 3619 H 339.882 -3.73663 1.83526 0
M  V30 3620 H 340.415 -2.55127 3.05213 0
M  V30 3621 H 337.154 -2.52393 6.04961 0
M  V30 3622 H 336.674 -3.65017 4.75944 0
M  V30 3623 H 338.353 -3.63318 5.35359 0
M  V30 3624 N 338.485 -1.33259 -0.841409 0
M  V30 3625 C 339.71 -1.2775 -1.63385 0
M  V30 3626 C 340.135 0.149188 -1.87507 0
M  V30 3627 O 339.493 1.10498 -1.43736 0
M  V30 3628 C 339.541 -2.05571 -2.96265 0
M  V30 3629 O 338.645 -1.41257 -3.87453 0
M  V30 3630 H 337.986 -0.439627 -0.497618 0
M  V30 3631 H 340.516 -1.75782 -1.04699 0
M  V30 3632 H 340.526 -2.16241 -3.45982 0
M  V30 3633 H 339.201 -3.09309 -2.7803 0
M  V30 3634 H 337.778 -1.39217 -3.45938 0
M  V30 3635 N 339.963 1.05934 -1.16686 0
M  V30 3636 C 341.188 1.83029 -0.975455 0
M  V30 3637 C 341.613 1.82096 0.471452 0
M  V30 3638 O 340.971 1.22443 1.33706 0
M  V30 3639 C 341.019 3.27372 -1.51195 0
M  V30 3640 O 340.123 4.06054 -0.720701 0
M  V30 3641 H 339.464 0.566194 -0.346872 0
M  V30 3642 H 341.994 1.33541 -1.55009 0
M  V30 3643 H 342.004 3.78186 -1.53099 0
M  V30 3644 H 340.679 3.27366 -2.56523 0
M  V30 3645 H 339.256 3.64812 -0.772458 0
M  V30 3646 N 341.441 0.965919 1.2453 0
M  V30 3647 C 342.669 0.644385 1.96609 0
M  V30 3648 C 343.084 -0.785823 1.71669 0
M  V30 3649 O 342.441 -1.52703 0.999399 0
M  V30 3650 C 342.492 0.907375 3.49927 0
M  V30 3651 O 342.213 2.28136 3.74013 0
M  V30 3652 C 343.714 0.599784 4.39224 0
M  V30 3653 H 340.934 0.240588 0.626385 0
M  V30 3654 H 343.478 1.29337 1.58405 0
M  V30 3655 H 341.633 0.304631 3.862 0
M  V30 3656 H 342.047 2.36002 4.68405 0
M  V30 3657 H 343.521 0.834263 5.45659 0
M  V30 3658 H 343.998 -0.465921 4.36722 0
M  V30 3659 H 344.604 1.18235 4.08535 0
M  V30 3660 N 342.919 -1.39368 0.735821 0
M  V30 3661 C 343.866 -2.30599 0.0963825 0
M  V30 3662 C 344.836 -1.49257 -0.728794 0
M  V30 3663 O 346.021 -1.77941 -0.688588 0
M  V30 3664 C 343.161 -3.35596 -0.804305 0
M  V30 3665 C 342.274 -4.31987 0.0335761 0
M  V30 3666 C 341.409 -5.24053 -0.868461 0
M  V30 3667 C 340.448 -6.12095 -0.0258776 0
M  V30 3668 N 339.585 -6.96514 -0.883893 0
M  V30 3669 H 344.425 -2.8471 0.880002 0
M  V30 3670 H 341.962 -1.40188 0.445619 0
M  V30 3671 H 343.92 -3.95062 -1.34096 0
M  V30 3672 H 342.55 -2.82938 -1.55389 0
M  V30 3673 H 341.602 -3.74133 0.68766 0
M  V30 3674 H 342.914 -4.94074 0.685036 0
M  V30 3675 H 342.068 -5.88549 -1.47293 0
M  V30 3676 H 340.807 -4.62289 -1.5537 0
M  V30 3677 H 339.812 -5.4661 0.591386 0
M  V30 3678 H 341.037 -6.75923 0.656156 0
M  V30 3679 H 338.983 -6.37318 -1.55441 0
M  V30 3680 H 338.9 -7.55448 -0.288931 0
M  V30 3681 H 340.168 -7.65439 -1.4739 0
M  V30 3682 N 344.397 -0.483516 -1.5 0
M  V30 3683 C 345.327 0.293829 -2.31644 0
M  V30 3684 C 346.308 0.978864 -1.39112 0
M  V30 3685 O 347.493 0.973644 -1.68029 0
M  V30 3686 C 344.623 1.36897 -3.19181 0
M  V30 3687 C 343.577 0.804833 -4.20365 0
M  V30 3688 C 342.903 1.9792 -4.96721 0
M  V30 3689 C 344.203 -0.192313 -5.21946 0
M  V30 3690 H 345.897 -0.387616 -2.9688 0
M  V30 3691 H 343.443 -0.187856 -1.42769 0
M  V30 3692 H 345.396 1.92037 -3.751 0
M  V30 3693 H 344.12 2.07936 -2.51853 0
M  V30 3694 H 342.779 0.275319 -3.65565 0
M  V30 3695 H 342.427 2.67686 -4.25856 0
M  V30 3696 H 342.127 1.60789 -5.65173 0
M  V30 3697 H 343.651 2.53526 -5.55479 0
M  V30 3698 H 345.065 0.270333 -5.72662 0
M  V30 3699 H 343.462 -0.478543 -5.98189 0
M  V30 3700 H 344.532 -1.11409 -4.71928 0
M  V30 3701 N 345.875 1.56104 -0.216619 0
M  V30 3702 C 346.807 2.17339 0.72776 0
M  V30 3703 C 347.82 1.14109 1.16116 0
M  V30 3704 O 349.009 1.4111 1.09317 0
M  V30 3705 C 346.109 2.73818 1.99693 0
M  V30 3706 C 345.282 4.02168 1.71988 0
M  V30 3707 C 344.341 4.43259 2.83562 0
M  V30 3708 O 343.367 5.10257 2.52244 0
M  V30 3709 N 344.569 4.08535 4.12407 0
M  V30 3710 H 347.334 2.99005 0.203983 0
M  V30 3711 H 344.895 1.61861 -0.0354289 0
M  V30 3712 H 346.887 2.9828 2.73516 0
M  V30 3713 H 345.457 1.96483 2.43132 0
M  V30 3714 H 344.677 3.85612 0.818337 0
M  V30 3715 H 345.965 4.85907 1.50903 0
M  V30 3716 H 345.363 3.54687 4.40696 0
M  V30 3717 H 343.92 4.37901 4.8279 0
M  V30 3718 N 347.353 -0.0568162 1.57498 0
M  V30 3719 C 348.316 -1.05038 2.03715 0
M  V30 3720 C 349.316 -1.30709 0.936577 0
M  V30 3721 O 350.506 -1.26178 1.20103 0
M  V30 3722 C 347.638 -2.39034 2.43055 0
M  V30 3723 H 348.831 -0.651715 2.92733 0
M  V30 3724 H 346.384 -0.302947 1.53336 0
M  V30 3725 H 347.119 -2.83703 1.57108 0
M  V30 3726 H 346.904 -2.21739 3.2338 0
M  V30 3727 H 348.394 -3.10421 2.79336 0
M  V30 3728 N 348.832 -1.54138 -0.328536 0
M  V30 3729 C 349.762 -1.86167 -1.40939 0
M  V30 3730 C 350.743 -0.718044 -1.54202 0
M  V30 3731 O 351.928 -0.971328 -1.68163 0
M  V30 3732 C 349.058 -2.08461 -2.77779 0
M  V30 3733 C 348.012 -3.24299 -2.7931 0
M  V30 3734 C 347.338 -3.31955 -4.19178 0
M  V30 3735 C 348.638 -4.62065 -2.43502 0
M  V30 3736 H 350.332 -2.76689 -1.14383 0
M  V30 3737 H 347.878 -1.33132 -0.548806 0
M  V30 3738 H 349.831 -2.29453 -3.53454 0
M  V30 3739 H 348.555 -1.14684 -3.05802 0
M  V30 3740 H 347.214 -3.03187 -2.0609 0
M  V30 3741 H 346.862 -2.35745 -4.44335 0
M  V30 3742 H 346.562 -4.09805 -4.2111 0
M  V30 3743 H 348.086 -3.55175 -4.96672 0
M  V30 3744 H 349.5 -4.8297 -3.08889 0
M  V30 3745 H 347.897 -5.42429 -2.56693 0
M  V30 3746 H 348.967 -4.64652 -1.38659 0
M  V30 3747 N 350.31 0.590341 -1.46126 0
M  V30 3748 C 351.721 1.17243 -1.45296 0
M  V30 3749 C 352.072 1.95281 -0.189723 0
M  V30 3750 O 351.197 2.04502 0.707674 0
M  V30 3751 C 351.792 2.13284 -2.6324 0
M  V30 3752 C 350.351 2.66832 -2.65476 0
M  V30 3753 C 349.498 1.42557 -2.3785 0
M  V30 3754 H 352.449 0.378692 -1.54116 0
M  V30 3755 H 352.47 2.96619 -2.38323 0
M  V30 3756 H 351.982 1.56459 -3.55165 0
M  V30 3757 H 350.083 3.27548 -1.77603 0
M  V30 3758 H 350.196 3.10088 -3.65215 0
M  V30 3759 H 348.56 1.72107 -1.87753 0
M  V30 3760 H 349.343 0.875741 -3.31942 0
M  V30 3761 N 351.788 1.33704 0.83433 0
M  V30 3762 C 353.013 1.28615 1.62705 0
M  V30 3763 C 353.438 -0.139242 1.87584 0
M  V30 3764 O 352.796 -1.09734 1.4432 0
M  V30 3765 C 352.844 2.07139 2.95171 0
M  V30 3766 O 351.948 1.4331 3.86699 0
M  V30 3767 H 351.289 0.44226 0.49528 0
M  V30 3768 H 353.819 1.76335 1.03766 0
M  V30 3769 H 353.829 2.18073 3.44831 0
M  V30 3770 H 352.504 3.10779 2.76386 0
M  V30 3771 H 351.081 1.4105 3.45195 0
M  V30 3772 N 353.266 -1.05314 1.17247 0
M  V30 3773 C 354.496 -1.81707 0.983166 0
M  V30 3774 C 354.904 -1.83222 -0.471822 0
M  V30 3775 O 354.247 -1.25721 -1.3394 0
M  V30 3776 C 354.309 -3.29134 1.44606 0
M  V30 3777 C 353.973 -3.51304 2.92292 0
M  V30 3778 C 354.97 -3.4353 3.90235 0
M  V30 3779 C 352.655 -3.78306 3.30439 0
M  V30 3780 C 354.649 -3.62442 5.24323 0
M  V30 3781 C 352.336 -3.96866 4.64694 0
M  V30 3782 C 353.334 -3.88933 5.61445 0
M  V30 3783 O 353.022 -4.06976 6.93272 0
M  V30 3784 H 352.754 -0.579476 0.348114 0
M  V30 3785 H 355.308 -1.33705 1.55924 0
M  V30 3786 H 353.538 -3.78046 0.813537 0
M  V30 3787 H 355.227 -3.87049 1.22262 0
M  V30 3788 H 355.993 -3.22648 3.62109 0
M  V30 3789 H 351.872 -3.83585 2.55702 0
M  V30 3790 H 355.416 -3.56165 5.99827 0
M  V30 3791 H 351.313 -4.1724 4.92525 0
M  V30 3792 H 352.081 -4.24209 6.99992 0
M  V30 3793 N 354.744 -0.972509 -1.24016 0
M  V30 3794 C 355.992 -0.635776 -1.91839 0
M  V30 3795 C 356.313 0.832312 -1.76345 0
M  V30 3796 O 355.583 1.5946 -1.13795 0
M  V30 3797 H 354.163 -0.232157 -0.710009 0
M  V30 3798 H 356.825 -1.23462 -1.50809 0
M  V30 3799 H 355.921 -0.880545 -2.99421 0
M  V30 3800 N 356.222 1.38976 -0.743202 0
M  V30 3801 C 357.152 2.33171 -0.123873 0
M  V30 3802 C 358.133 1.54336 0.71516 0
M  V30 3803 O 359.318 1.82696 0.658467 0
M  V30 3804 C 356.448 3.38474 0.777978 0
M  V30 3805 C 355.402 4.27979 0.0424758 0
M  V30 3806 C 354.728 5.2405 1.06189 0
M  V30 3807 C 356.028 5.10155 -1.1198 0
M  V30 3808 H 357.722 2.85213 -0.910709 0
M  V30 3809 H 355.268 1.37133 -0.439388 0
M  V30 3810 H 357.221 4.03328 1.22084 0
M  V30 3811 H 355.945 2.84891 1.59702 0
M  V30 3812 H 354.604 3.64616 -0.380853 0
M  V30 3813 H 354.252 4.66758 1.87472 0
M  V30 3814 H 353.952 5.84785 0.574485 0
M  V30 3815 H 355.476 5.9178 1.50428 0
M  V30 3816 H 356.89 5.68307 -0.75499 0
M  V30 3817 H 355.287 5.80073 -1.53738 0
M  V30 3818 H 356.357 4.44504 -1.93764 0
M  V30 3819 N 357.7 0.491464 1.49741 0
M  V30 3820 C 358.61 -0.296835 2.32715 0
M  V30 3821 C 359.626 -0.976536 1.44013 0
M  V30 3822 O 360.802 -0.960023 1.77047 0
M  V30 3823 C 357.867 -1.35288 3.19215 0
M  V30 3824 C 356.928 -0.687632 4.23757 0
M  V30 3825 C 356.161 -1.69336 5.06123 0
M  V30 3826 O 356.384 -2.92219 4.89861 0
M  V30 3827 O 355.318 -1.25394 5.88693 0
M  V30 3828 H 359.144 0.382048 3.01287 0
M  V30 3829 H 356.729 0.252953 1.47243 0
M  V30 3830 H 358.611 -1.96411 3.72828 0
M  V30 3831 H 357.286 -2.01487 2.53347 0
M  V30 3832 H 356.193 -0.0369159 3.74082 0
M  V30 3833 H 357.526 -0.0682566 4.92153 0
M  V30 3834 N 359.178 -1.55987 0.224894 0
M  V30 3835 C 360.403 -2.03232 -0.41369 0
M  V30 3836 C 360.828 -1.10359 -1.52323 0
M  V30 3837 O 360.186 -0.092395 -1.81064 0
M  V30 3838 C 360.234 -3.48682 -0.919405 0
M  V30 3839 O 359.338 -3.58947 -2.03054 0
M  V30 3840 H 358.679 -0.657428 -0.0931903 0
M  V30 3841 H 361.209 -2.01679 0.34451 0
M  V30 3842 H 361.219 -3.8907 -1.22835 0
M  V30 3843 H 359.894 -4.15761 -0.107339 0
M  V30 3844 H 358.471 -3.30448 -1.72796 0
M  V30 3845 N 360.656 0.0484629 -1.57525 0
M  V30 3846 C 361.905 0.742065 -1.87553 0
M  V30 3847 C 362.218 1.77545 -0.820802 0
M  V30 3848 O 363.424 2.52027 -1.00967 0
M  V30 3849 C 361.88 1.37081 -3.32771 0
M  V30 3850 C 361.488 0.374786 -4.4643 0
M  V30 3851 C 363.232 2.04542 -3.71972 0
M  V30 3852 C 361.139 1.01077 -5.82698 0
M  V30 3853 H 360.069 0.280903 -0.699721 0
M  V30 3854 H 362.72 -0.00411877 -1.835 0
M  V30 3855 H 361.102 2.16605 -3.31509 0
M  V30 3856 H 362.276 -0.392331 -4.59127 0
M  V30 3857 H 360.591 -0.196653 -4.15935 0
M  V30 3858 H 363.188 2.52943 -4.71088 0
M  V30 3859 H 363.531 2.85515 -3.02964 0
M  V30 3860 H 364.064 1.31819 -3.75325 0
M  V30 3861 H 360.803 0.240878 -6.55057 0
M  V30 3862 H 360.323 1.74819 -5.73758 0
M  V30 3863 H 362.002 1.52383 -6.28799 0
M  V30 3864 N 362.134 1.5431 0.320358 0
M  V30 3865 C 363.066 1.80262 1.41556 0
M  V30 3866 C 364.079 0.684723 1.477 0
M  V30 3867 O 365.268 0.961886 1.50366 0
M  V30 3868 C 362.368 1.90825 2.8007 0
M  V30 3869 C 361.541 3.21023 2.97091 0
M  V30 3870 C 360.6 3.22247 4.15985 0
M  V30 3871 O 359.626 3.95871 4.08992 0
M  V30 3872 N 360.828 2.46258 5.25678 0
M  V30 3873 H 363.593 2.74778 1.19655 0
M  V30 3874 H 361.154 1.53646 0.510358 0
M  V30 3875 H 363.146 1.89067 3.57821 0
M  V30 3876 H 361.716 1.03392 2.95006 0
M  V30 3877 H 360.936 3.35715 2.06614 0
M  V30 3878 H 362.224 4.0698 3.05361 0
M  V30 3879 H 361.622 1.86037 5.34235 0
M  V30 3880 H 360.179 2.50275 6.01835 0
M  V30 3881 N 363.613 -0.582584 1.46437 0
M  V30 3882 C 365.029 -0.905962 1.31394 0
M  V30 3883 C 365.229 -1.99468 0.285476 0
M  V30 3884 O 364.285 -2.50566 -0.311914 0
M  V30 3885 C 365.598 -1.3232 2.70022 0
M  V30 3886 C 367.146 -1.43604 2.78113 0
M  V30 3887 C 367.621 -1.88694 4.17323 0
M  V30 3888 N 369.112 -1.95887 4.19741 0
M  V30 3889 C 369.847 -2.32051 5.24347 0
M  V30 3890 N 369.343 -2.67006 6.39281 0
M  V30 3891 N 371.136 -2.32606 5.11713 0
M  V30 3892 H 363.287 0.1366 2.1196 0
M  V30 3893 H 365.55 -0.00155736 0.947999 0
M  V30 3894 H 365.256 -0.597242 3.46592 0
M  V30 3895 H 365.13 -2.28469 3.00136 0
M  V30 3896 H 367.517 -2.15286 2.01832 0
M  V30 3897 H 367.598 -0.457059 2.51684 0
M  V30 3898 H 367.242 -1.1759 4.941 0
M  V30 3899 H 367.172 -2.8755 4.4116 0
M  V30 3900 H 369.663 -1.71362 3.36814 0
M  V30 3901 H 369.976 -2.93554 7.14875 0
M  V30 3902 H 368.321 -2.64644 6.42642 0
M  V30 3903 H 371.512 -2.04721 4.2096 0
M  V30 3904 H 371.685 -2.60462 5.93349 0
M  V30 3905 N 365.091 -1.34144 -0.827227 0
M  V30 3906 C 366.021 -1.28005 -1.95287 0
M  V30 3907 C 367.002 -0.158321 -1.69362 0
M  V30 3908 O 368.187 -0.349987 -1.9102 0
M  V30 3909 C 365.317 -1.03036 -3.31664 0
M  V30 3910 C 364.271 -2.11628 -3.72019 0
M  V30 3911 C 363.597 -1.71854 -5.0633 0
M  V30 3912 C 364.897 -3.53417 -3.8457 0
M  V30 3913 H 366.591 -2.22187 -2.00682 0
M  V30 3914 H 364.137 -1.0696 -0.964135 0
M  V30 3915 H 366.09 -0.973863 -4.09993 0
M  V30 3916 H 364.814 -0.0529391 -3.26557 0
M  V30 3917 H 363.473 -2.16339 -2.95961 0
M  V30 3918 H 363.121 -0.727841 -4.97706 0
M  V30 3919 H 362.821 -2.44531 -5.34302 0
M  V30 3920 H 364.345 -1.67692 -5.87122 0
M  V30 3921 H 365.759 -3.51142 -4.5318 0
M  V30 3922 H 364.156 -4.24679 -4.2399 0
M  V30 3923 H 365.226 -3.91072 -2.86689 0
M  V30 3924 N 366.569 1.04691 -1.17803 0
M  V30 3925 C 367.818 1.77176 -0.963931 0
M  V30 3926 C 368.131 1.88888 0.508015 0
M  V30 3927 O 369.337 2.58164 0.840465 0
M  V30 3928 C 367.793 3.18518 -1.67555 0
M  V30 3929 C 367.401 3.14919 -3.18637 0
M  V30 3930 C 369.145 3.95424 -1.54402 0
M  V30 3931 C 367.052 4.51081 -3.82466 0
M  V30 3932 H 365.982 0.664116 -0.357023 0
M  V30 3933 H 368.633 1.17303 -1.4111 0
M  V30 3934 H 367.015 3.78748 -1.15613 0
M  V30 3935 H 368.189 2.64178 -3.77554 0
M  V30 3936 H 366.504 2.51512 -3.31859 0
M  V30 3937 H 369.101 4.96106 -1.99456 0
M  V30 3938 H 369.444 4.13343 -0.495329 0
M  V30 3939 H 369.977 3.41754 -2.0359 0
M  V30 3940 H 366.716 4.38368 -4.87354 0
M  V30 3941 H 366.236 5.01951 -3.28337 0
M  V30 3942 H 367.915 5.2001 -3.84965 0
M  V30 3943 N 368.047 0.979072 1.23499 0
M  V30 3944 C 369.01 0.523244 2.23147 0
M  V30 3945 C 370.01 -0.386406 1.56088 0
M  V30 3946 O 371.2 -0.180283 1.73265 0
M  V30 3947 C 368.332 -0.240739 3.40049 0
M  V30 3948 H 369.525 1.40432 2.64989 0
M  V30 3949 H 367.078 0.764824 1.36309 0
M  V30 3950 H 367.813 -1.13841 3.03662 0
M  V30 3951 H 367.598 0.412207 3.89927 0
M  V30 3952 H 369.088 -0.548297 4.13985 0
M  V30 3953 N 369.525 -1.3858 0.750561 0
M  V30 3954 C 370.753 -2.04471 0.316098 0
M  V30 3955 C 371.168 -1.56606 -1.05452 0
M  V30 3956 O 370.525 -0.737784 -1.66922 0
M  V30 3957 C 370.576 -3.60025 0.326275 0
M  V30 3958 O 370.297 -4.06133 1.6428 0
M  V30 3959 C 371.798 -4.43131 -0.122429 0
M  V30 3960 H 369.018 -0.65717 0.135528 0
M  V30 3961 H 371.562 -1.77329 1.01857 0
M  V30 3962 H 369.717 -3.86014 -0.327431 0
M  V30 3963 H 370.131 -5.00547 1.56693 0
M  V30 3964 H 371.605 -5.51963 -0.0641473 0
M  V30 3965 H 372.082 -4.23333 -1.16988 0
M  V30 3966 H 372.688 -4.22323 0.50229 0
M  V30 3967 N 371.003 -0.499398 -1.49478 0
M  V30 3968 C 372.228 0.044722 -2.07352 0
M  V30 3969 C 372.653 1.30207 -1.35749 0
M  V30 3970 O 372.011 1.76516 -0.413732 0
M  V30 3971 C 372.059 0.283013 -3.59488 0
M  V30 3972 O 371.163 1.35804 -3.89398 0
M  V30 3973 H 370.504 -0.0255147 -0.66351 0
M  V30 3974 H 373.034 -0.698561 -1.92305 0
M  V30 3975 H 373.044 0.515007 -4.04737 0
M  V30 3976 H 371.719 -0.635636 -4.11014 0
M  V30 3977 H 370.296 1.11113 -3.55961 0
M  V30 3978 N 372.481 1.55866 -0.233164 0
M  V30 3979 C 373.706 2.03449 0.402906 0
M  V30 3980 C 374.131 1.11166 1.51736 0
M  V30 3981 O 373.489 0.101996 1.81013 0
M  V30 3982 C 373.537 3.49165 0.9009 0
M  V30 3983 O 372.641 3.60019 2.01147 0
M  V30 3984 H 371.982 0.657913 0.0897025 0
M  V30 3985 H 374.512 2.01493 -0.355201 0
M  V30 3986 H 374.522 3.89716 1.2077 0
M  V30 3987 H 373.197 4.15813 0.0852889 0
M  V30 3988 H 371.774 3.3136 1.71042 0
M  V30 3989 N 373.959 -0.0401083 1.57549 0
M  V30 3990 C 375.189 -0.744115 1.92734 0
M  V30 3991 C 375.597 -1.70005 0.830348 0
M  V30 3992 O 374.94 -1.82576 -0.20286 0
M  V30 3993 C 375.002 -1.56516 3.2364 0
M  V30 3994 C 374.666 -0.7752 4.50377 0
M  V30 3995 C 375.663 -0.0803326 5.19838 0
M  V30 3996 C 373.348 -0.733002 4.96923 0
M  V30 3997 C 375.342 0.646154 6.34116 0
M  V30 3998 C 373.029 -0.00276321 6.111 0
M  V30 3999 C 374.027 0.685585 6.7955 0
M  V30 4000 O 373.715 1.40399 7.91545 0
M  V30 4001 H 373.447 -0.214861 0.640945 0
M  V30 4002 H 376.001 -0.00503675 2.05399 0
M  V30 4003 H 374.231 -2.3478 3.07271 0
M  V30 4004 H 375.92 -2.15076 3.44234 0
M  V30 4005 H 376.686 -0.104035 4.84888 0
M  V30 4006 H 372.565 -1.25827 4.43496 0
M  V30 4007 H 376.109 1.18398 6.87479 0
M  V30 4008 H 372.006 0.0229012 6.45496 0
M  V30 4009 H 372.774 1.31653 8.07843 0
M  V30 4010 N 375.437 -1.54477 -0.31217 0
M  V30 4011 C 376.662 -1.77526 -1.07235 0
M  V30 4012 C 377.087 -0.527775 -1.80544 0
M  V30 4013 O 376.445 0.52121 -1.73646 0
M  V30 4014 C 376.493 -2.97535 -2.03728 0
M  V30 4015 O 375.597 -2.69878 -3.11833 0
M  V30 4016 H 374.938 -0.58792 -0.30862 0
M  V30 4017 H 377.468 -2.01532 -0.352993 0
M  V30 4018 H 377.478 -3.25198 -2.46395 0
M  V30 4019 H 376.153 -3.87996 -1.49774 0
M  V30 4020 H 374.73 -2.53199 -2.7376 0
M  V30 4021 N 376.915 0.57481 -1.46744 0
M  V30 4022 C 377.845 1.69337 -1.60771 0
M  V30 4023 C 378.826 1.63825 -0.457736 0
M  V30 4024 O 380.011 1.8172 -0.684947 0
M  V30 4025 C 377.141 3.0798 -1.60517 0
M  V30 4026 C 376.095 3.28327 -2.74564 0
M  V30 4027 C 375.421 4.67578 -2.59373 0
M  V30 4028 C 376.721 3.15398 -4.16319 0
M  V30 4029 H 378.415 1.57853 -2.54407 0
M  V30 4030 H 375.961 0.75799 -1.22436 0
M  V30 4031 H 377.914 3.86061 -1.68923 0
M  V30 4032 H 376.638 3.20381 -0.634305 0
M  V30 4033 H 375.297 2.52649 -2.65639 0
M  V30 4034 H 374.945 4.76755 -1.60353 0
M  V30 4035 H 374.645 4.82144 -3.35873 0
M  V30 4036 H 376.169 5.47817 -2.69682 0
M  V30 4037 H 377.583 3.83315 -4.26313 0
M  V30 4038 H 375.98 3.41482 -4.93468 0
M  V30 4039 H 377.05 2.12372 -4.3592 0
M  V30 4040 N 378.394 1.34581 0.820102 0
M  V30 4041 C 379.341 1.2639 1.93117 0
M  V30 4042 C 380.311 0.138554 1.65521 0
M  V30 4043 O 381.496 0.320004 1.88097 0
M  V30 4044 C 378.636 1.02812 3.29429 0
M  V30 4045 C 377.749 2.24146 3.693 0
M  V30 4046 C 376.884 1.93829 4.94574 0
M  V30 4047 C 375.923 3.1129 5.27034 0
M  V30 4048 N 375.06 2.80838 6.43486 0
M  V30 4049 H 379.9 2.21408 1.99455 0
M  V30 4050 H 377.437 1.10077 0.975784 0
M  V30 4051 H 379.395 0.871788 4.0799 0
M  V30 4052 H 378.025 0.114612 3.22596 0
M  V30 4053 H 377.077 2.50691 2.86109 0
M  V30 4054 H 378.389 3.11899 3.89257 0
M  V30 4055 H 377.543 1.74948 5.80929 0
M  V30 4056 H 376.282 1.03341 4.76626 0
M  V30 4057 H 375.287 3.30764 4.39175 0
M  V30 4058 H 376.512 4.02561 5.4692 0
M  V30 4059 H 374.458 1.92929 6.26988 0
M  V30 4060 H 374.375 3.62123 6.63629 0
M  V30 4061 H 375.643 2.65467 7.32903 0
M  V30 4062 N 379.872 -1.04064 1.18357 0
M  V30 4063 C 380.819 -2.12077 0.910603 0
M  V30 4064 C 381.789 -1.65421 -0.15 0
M  V30 4065 O 382.974 -1.90797 -0.0103614 0
M  V30 4066 C 380.114 -3.42252 0.442472 0
M  V30 4067 C 379.227 -4.0252 1.5685 0
M  V30 4068 C 378.362 -5.20657 1.05309 0
M  V30 4069 C 377.401 -5.72955 2.1538 0
M  V30 4070 N 376.538 -6.8238 1.65233 0
M  V30 4071 H 381.378 -2.34764 1.83548 0
M  V30 4072 H 378.915 -1.15157 0.915279 0
M  V30 4073 H 380.873 -4.16921 0.152534 0
M  V30 4074 H 379.503 -3.19712 -0.445428 0
M  V30 4075 H 378.555 -3.25178 1.97391 0
M  V30 4076 H 379.867 -4.37362 2.39824 0
M  V30 4077 H 379.021 -6.0244 0.717677 0
M  V30 4078 H 377.76 -4.87318 0.19293 0
M  V30 4079 H 376.765 -4.89793 2.49766 0
M  V30 4080 H 377.99 -6.08337 3.01832 0
M  V30 4081 H 375.936 -6.50917 0.815064 0
M  V30 4082 H 375.853 -7.16286 2.41805 0
M  V30 4083 H 377.121 -7.67788 1.34619 0
M  V30 4084 N 381.35 -0.985608 -1.22978 0
M  V30 4085 C 382.28 -0.549649 -2.26939 0
M  V30 4086 C 383.261 0.419803 -1.64838 0
M  V30 4087 O 384.446 0.31203 -1.91677 0
M  V30 4088 C 381.576 0.143652 -3.47003 0
M  V30 4089 C 380.53 -0.743606 -4.21491 0
M  V30 4090 C 379.856 0.0822027 -5.34637 0
M  V30 4091 C 381.156 -2.03694 -4.80943 0
M  V30 4092 H 382.85 -1.41862 -2.63658 0
M  V30 4093 H 380.396 -0.683571 -1.26741 0
M  V30 4094 H 382.349 0.459985 -4.18882 0
M  V30 4095 H 381.073 1.04711 -3.09359 0
M  V30 4096 H 379.732 -1.04347 -3.51436 0
M  V30 4097 H 379.38 0.986359 -4.93234 0
M  V30 4098 H 379.08 -0.508377 -5.85397 0
M  V30 4099 H 380.604 0.392797 -6.09335 0
M  V30 4100 H 382.018 -1.78504 -5.44802 0
M  V30 4101 H 380.415 -2.57573 -5.42011 0
M  V30 4102 H 381.485 -2.72042 -4.01399 0
M  V30 4103 N 382.828 1.3818 -0.7579 0
M  V30 4104 C 384.239 1.82726 -0.383134 0
M  V30 4105 C 384.59 1.63214 1.08884 0
M  V30 4106 O 383.715 1.13566 1.84205 0
M  V30 4107 C 384.31 3.31728 -0.688631 0
M  V30 4108 C 382.869 3.74606 -0.367091 0
M  V30 4109 C 382.016 2.60896 -0.939599 0
M  V30 4110 H 384.967 1.26847 -0.953699 0
M  V30 4111 H 384.988 3.80487 0.0316492 0
M  V30 4112 H 384.5 3.45898 -1.76001 0
M  V30 4113 H 382.601 3.66013 0.697532 0
M  V30 4114 H 382.714 4.71215 -0.865658 0
M  V30 4115 H 381.078 2.52075 -0.3647 0
M  V30 4116 H 381.861 2.77864 -2.0161 0
M  V30 4117 N 384.306 0.507319 1.49211 0
M  V30 4118 C 385.531 -0.033725 2.07373 0
M  V30 4119 C 385.956 -1.29485 1.36437 0
M  V30 4120 O 385.314 -1.76294 0.423087 0
M  V30 4121 C 385.362 -0.263945 3.59633 0
M  V30 4122 O 384.466 -1.33737 3.90113 0
M  V30 4123 H 383.807 0.0290331 0.663365 0
M  V30 4124 H 386.337 0.708749 1.91932 0
M  V30 4125 H 386.347 -0.493536 4.05004 0
M  V30 4126 H 385.022 0.657424 4.10671 0
M  V30 4127 H 383.599 -1.09224 3.56545 0
M  V30 4128 N 385.784 -1.5574 0.241426 0
M  V30 4129 C 387.2 -1.59196 -0.113548 0
M  V30 4130 C 387.4 -1.25852 -1.57364 0
M  V30 4131 O 386.456 -1.00322 -2.31715 0
M  V30 4132 C 387.769 -2.99814 0.230695 0
M  V30 4133 C 389.317 -3.12513 0.174547 0
M  V30 4134 C 389.792 -4.55342 0.492744 0
M  V30 4135 N 391.283 -4.61076 0.443043 0
M  V30 4136 C 392.018 -5.6956 0.662484 0
M  V30 4137 N 391.514 -6.86328 0.944761 0
M  V30 4138 N 393.307 -5.58957 0.593564 0
M  V30 4139 H 385.458 -1.75685 1.19368 0
M  V30 4140 H 387.721 -0.81756 0.479896 0
M  V30 4141 H 387.427 -3.28932 1.24485 0
M  V30 4142 H 387.301 -3.74568 -0.444833 0
M  V30 4143 H 389.688 -2.83179 -0.830277 0
M  V30 4144 H 389.769 -2.40045 0.883845 0
M  V30 4145 H 389.413 -4.85396 1.4951 0
M  V30 4146 H 389.343 -5.26062 -0.23797 0
M  V30 4147 H 391.834 -3.77179 0.233374 0
M  V30 4148 H 392.147 -7.64935 1.09977 0
M  V30 4149 H 390.492 -6.88025 0.982175 0
M  V30 4150 H 393.683 -4.66611 0.373123 0
M  V30 4151 H 393.856 -6.43433 0.767981 0
M  V30 4152 N 387.262 0.0317525 -1.57568 0
M  V30 4153 C 388.172 1.05021 -2.0978 0
M  V30 4154 C 389.188 1.39809 -1.03583 0
M  V30 4155 O 390.364 1.49182 -1.35302 0
M  V30 4156 C 387.429 2.33301 -2.56459 0
M  V30 4157 C 386.49 2.0512 -3.77127 0
M  V30 4158 C 385.723 3.27283 -4.2157 0
M  V30 4159 O 385.946 4.37861 -3.65559 0
M  V30 4160 O 384.88 3.13141 -5.14029 0
M  V30 4161 H 388.706 0.636505 -2.96955 0
M  V30 4162 H 386.291 0.248559 -1.47318 0
M  V30 4163 H 388.173 3.08722 -2.86825 0
M  V30 4164 H 386.848 2.73973 -1.72397 0
M  V30 4165 H 385.755 1.27276 -3.51784 0
M  V30 4166 H 387.088 1.69305 -4.62165 0
M  V30 4167 N 388.74 1.54641 0.303973 0
M  V30 4168 C 389.968 1.77768 1.05858 0
M  V30 4169 C 390.383 0.535722 1.8104 0
M  V30 4170 O 389.74 -0.494337 1.75677 0
M  V30 4171 C 389.791 2.9834 2.04146 0
M  V30 4172 O 389.512 4.17736 1.32015 0
M  V30 4173 C 391.013 3.33832 2.91669 0
M  V30 4174 H 388.233 0.592961 0.314067 0
M  V30 4175 H 390.777 2.01583 0.344149 0
M  V30 4176 H 388.932 2.76742 2.71096 0
M  V30 4177 H 389.346 4.85693 1.97998 0
M  V30 4178 H 390.82 4.21448 3.56491 0
M  V30 4179 H 391.297 2.51857 3.59812 0
M  V30 4180 H 391.903 3.57579 2.30254 0
M  V30 4181 N 390.218 -0.567019 1.47046 0
M  V30 4182 C 391.465 -1.32462 1.53167 0
M  V30 4183 C 391.793 -1.93571 0.189841 0
M  V30 4184 O 391.048 -1.77865 -0.816243 0
M  V30 4185 C 391.347 -2.4623 2.59047 0
M  V30 4186 C 391.013 -2.03014 4.02612 0
M  V30 4187 C 389.675 -1.90944 4.41694 0
M  V30 4188 C 392.027 -1.69895 4.92732 0
M  V30 4189 C 389.355 -1.44035 5.68745 0
M  V30 4190 C 391.707 -1.2446 6.20236 0
M  V30 4191 C 390.371 -1.10979 6.5821 0
M  V30 4192 H 389.641 -0.484713 0.560477 0
M  V30 4193 H 392.288 -0.636888 1.80599 0
M  V30 4194 H 390.593 -3.20517 2.25335 0
M  V30 4195 H 392.29 -3.04427 2.61008 0
M  V30 4196 H 388.88 -2.13348 3.71726 0
M  V30 4197 H 393.064 -1.78098 4.63244 0
M  V30 4198 H 388.32 -1.32254 5.96925 0
M  V30 4199 H 392.494 -0.978924 6.89485 0
M  V30 4200 H 390.121 -0.744078 7.5655 0
M  V30 4201 N 391.696 -1.35014 -0.812953 0
M  V30 4202 C 392.942 -1.2812 -1.57204 0
M  V30 4203 C 393.275 0.145869 -1.93651 0
M  V30 4204 O 392.55 1.0937 -1.60836 0
M  V30 4205 C 392.833 -2.18162 -2.86492 0
M  V30 4206 C 392.686 -3.69454 -2.56561 0
M  V30 4207 C 394.005 -2.07439 -3.88145 0
M  V30 4208 H 391.124 -0.466746 -0.570366 0
M  V30 4209 H 393.766 -1.65357 -0.935783 0
M  V30 4210 H 391.916 -1.86535 -3.40789 0
M  V30 4211 H 393.588 -4.11493 -2.08497 0
M  V30 4212 H 391.831 -3.9005 -1.89851 0
M  V30 4213 H 392.502 -4.27835 -3.48799 0
M  V30 4214 H 394.978 -2.35228 -3.4323 0
M  V30 4215 H 393.854 -2.7265 -4.76396 0
M  V30 4216 H 394.115 -1.05439 -4.29343 0
M  V30 4217 N 393.175 1.03435 -1.18907 0
M  V30 4218 C 394.123 2.13703 -0.918353 0
M  V30 4219 C 395.117 1.68947 0.123767 0
M  V30 4220 O 396.323 1.79983 -0.0249701 0
M  V30 4221 H 392.698 0.698112 -0.279542 0
M  V30 4222 H 394.669 2.33731 -1.85506 0
M  V30 4223 C 393.418 3.44542 -0.467532 0
M  V30 4224 H 392.741 3.79394 -1.26095 0
M  V30 4225 H 394.181 4.22812 -0.317164 0
M  V30 4226 C 392.64 3.26829 0.817588 0
M  V30 4227 O 393.17 3.54975 1.88031 0
M  V30 4228 N 391.376 2.80139 0.772677 0
M  V30 4229 H 390.923 2.57434 -0.0923883 0
M  V30 4230 H 390.881 2.68668 1.63294 0
M  V30 4231 N 394.653 0.992116 1.22453 0
M  V30 4232 C 395.583 0.561677 2.26644 0
M  V30 4233 C 396.564 -0.411055 1.65059 0
M  V30 4234 O 397.749 -0.301861 1.9184 0
M  V30 4235 C 394.879 -0.125247 3.47074 0
M  V30 4236 C 393.833 0.765948 4.21091 0
M  V30 4237 C 393.159 -0.0538484 5.34673 0
M  V30 4238 C 394.459 2.06242 4.79856 0
M  V30 4239 H 396.153 1.43259 2.62902 0
M  V30 4240 H 393.699 0.690283 1.26377 0
M  V30 4241 H 395.652 -0.437764 4.1912 0
M  V30 4242 H 394.376 -1.03069 3.0991 0
M  V30 4243 H 393.035 1.0621 3.50878 0
M  V30 4244 H 392.683 -0.960188 4.9375 0
M  V30 4245 H 392.383 0.539415 5.85119 0
M  V30 4246 H 393.907 -0.360477 6.09535 0
M  V30 4247 H 395.321 1.8139 5.43848 0
M  V30 4248 H 393.718 2.60444 5.40638 0
M  V30 4249 H 394.788 2.74167 3.99951 0
M  V30 4250 N 396.131 -1.37776 0.765217 0
M  V30 4251 C 397.061 -2.32945 0.160953 0
M  V30 4252 C 398.042 -1.55454 -0.690516 0
M  V30 4253 O 399.227 -1.83721 -0.629318 0
M  V30 4254 C 396.357 -3.39669 -0.724031 0
M  V30 4255 C 395.311 -4.27992 0.0256173 0
M  V30 4256 C 394.637 -5.25673 -0.978383 0
M  V30 4257 C 395.937 -5.08309 1.20082 0
M  V30 4258 H 397.631 -2.83728 0.955969 0
M  V30 4259 H 395.177 -1.36416 0.461149 0
M  V30 4260 H 397.13 -4.05219 -1.15652 0
M  V30 4261 H 395.854 -2.87396 -1.5515 0
M  V30 4262 H 394.513 -3.63964 0.438812 0
M  V30 4263 H 394.161 -4.69682 -1.80022 0
M  V30 4264 H 393.861 -5.85625 -0.481378 0
M  V30 4265 H 395.385 -5.94098 -1.40995 0
M  V30 4266 H 396.799 -5.67034 0.845307 0
M  V30 4267 H 395.196 -5.77554 1.62947 0
M  V30 4268 H 396.266 -4.41365 2.00811 0
M  V30 4269 N 397.609 -0.515225 -1.4894 0
M  V30 4270 C 398.519 0.259774 -2.33157 0
M  V30 4271 C 399.535 0.953501 -1.45548 0
M  V30 4272 O 400.711 0.931735 -1.78552 0
M  V30 4273 C 397.776 1.30193 -3.21326 0
M  V30 4274 C 396.837 0.620129 -4.24797 0
M  V30 4275 C 396.07 1.61263 -5.08753 0
M  V30 4276 O 396.293 2.84389 -4.94448 0
M  V30 4277 O 395.227 1.16013 -5.90614 0
M  V30 4278 H 399.053 -0.429932 -3.00641 0
M  V30 4279 H 396.638 -0.276346 -1.46822 0
M  V30 4280 H 398.52 1.90455 -3.75905 0
M  V30 4281 H 397.195 1.97431 -2.56521 0
M  V30 4282 H 396.102 -0.0226019 -3.74093 0
M  V30 4283 H 397.435 -0.0100493 -4.92199 0
M  V30 4284 N 399.087 1.5561 -0.249682 0
M  V30 4285 C 400.05 2.20217 0.635394 0
M  V30 4286 C 401.05 1.17227 1.10066 0
M  V30 4287 O 402.24 1.42292 1.00492 0
M  V30 4288 C 399.372 2.84794 1.87363 0
M  V30 4289 H 400.565 2.99814 0.0716752 0
M  V30 4290 H 398.118 1.563 -0.000153234 0
M  V30 4291 H 398.853 2.09142 2.47851 0
M  V30 4292 H 398.638 3.60241 1.5482 0
M  V30 4293 H 400.128 3.3423 2.5036 0
M  V30 4294 N 400.565 -0.0233959 1.57583 0
M  V30 4295 C 401.793 -0.724682 1.93794 0
M  V30 4296 C 402.208 -1.68588 0.849912 0
M  V30 4297 O 401.565 -1.81676 -0.173204 0
M  V30 4298 C 401.616 -1.47684 3.29957 0
M  V30 4299 O 401.337 -0.554222 4.3458 0
M  V30 4300 C 402.838 -2.27477 3.80485 0
M  V30 4301 H 400.058 -0.203317 0.639455 0
M  V30 4302 H 402.602 0.0207653 2.04489 0
M  V30 4303 H 400.757 -2.17412 3.20641 0
M  V30 4304 H 401.171 -1.08232 5.13212 0
M  V30 4305 H 402.645 -2.7564 4.78254 0
M  V30 4306 H 403.122 -3.09144 3.11972 0
M  V30 4307 H 403.728 -1.62813 3.92902 0
M  V30 4308 N 402.043 -1.548 -0.295768 0
M  V30 4309 C 402.973 -1.89115 -1.36959 0
M  V30 4310 C 403.954 -0.75059 -1.52644 0
M  V30 4311 O 405.139 -1.00678 -1.66065 0
M  V30 4312 C 402.269 -2.14307 -2.73295 0
M  V30 4313 C 401.223 -3.30151 -2.72368 0
M  V30 4314 C 400.549 -3.40772 -4.12042 0
M  V30 4315 C 401.849 -4.67126 -2.33646 0
M  V30 4316 H 403.543 -2.79053 -1.08488 0
M  V30 4317 H 401.089 -1.34266 -0.520443 0
M  V30 4318 H 403.042 -2.36898 -3.48507 0
M  V30 4319 H 401.766 -1.21145 -3.03301 0
M  V30 4320 H 400.425 -3.0749 -1.99613 0
M  V30 4321 H 400.073 -2.45117 -4.39234 0
M  V30 4322 H 399.773 -4.18645 -4.12322 0
M  V30 4323 H 401.297 -3.6563 -4.89027 0
M  V30 4324 H 402.711 -4.89414 -2.98575 0
M  V30 4325 H 401.108 -5.47751 -2.45129 0
M  V30 4326 H 402.178 -4.67489 -1.28772 0
M  V30 4327 N 403.521 0.559213 -1.47345 0
M  V30 4328 C 404.749 1.34194 -1.57479 0
M  V30 4329 C 405.164 1.87463 -0.224261 0
M  V30 4330 O 404.521 1.64888 0.782185 0
M  V30 4331 C 404.572 2.51324 -2.59843 0
M  V30 4332 O 404.293 2.00256 -3.89653 0
M  V30 4333 C 405.794 3.43563 -2.80142 0
M  V30 4334 H 403.014 0.409136 -0.531835 0
M  V30 4335 H 405.558 0.677609 -1.92947 0
M  V30 4336 H 403.713 3.13699 -2.27314 0
M  V30 4337 H 404.127 2.76708 -4.4557 0
M  V30 4338 H 405.601 4.2217 -3.55635 0
M  V30 4339 H 406.078 3.9698 -1.87892 0
M  V30 4340 H 406.684 2.87005 -3.1386 0
M  V30 4341 N 404.999 1.35443 0.805782 0
M  V30 4342 C 406.229 1.31687 1.59192 0
M  V30 4343 C 406.637 -0.10756 1.88894 0
M  V30 4344 O 405.98 -1.07017 1.49309 0
M  V30 4345 C 406.042 2.05686 2.94845 0
M  V30 4346 C 405.706 3.54868 2.87954 0
M  V30 4347 C 406.703 4.49444 2.61335 0
M  V30 4348 C 404.388 3.97528 3.07046 0
M  V30 4349 C 406.382 5.84655 2.53885 0
M  V30 4350 C 404.069 5.32833 2.99219 0
M  V30 4351 C 405.067 6.26209 2.72674 0
M  V30 4352 O 404.755 7.59032 2.64811 0
M  V30 4353 H 404.487 0.453878 0.50097 0
M  V30 4354 H 407.041 1.78892 1.0093 0
M  V30 4355 H 405.271 1.5312 3.55093 0
M  V30 4356 H 406.96 1.94998 3.55993 0
M  V30 4357 H 407.726 4.17804 2.46303 0
M  V30 4358 H 403.605 3.25233 3.26718 0
M  V30 4359 H 407.149 6.57508 2.33086 0
M  V30 4360 H 403.046 5.64087 3.13809 0
M  V30 4361 H 403.814 7.68967 2.80413 0
M  V30 4362 N 406.477 -1.02803 1.19454 0
M  V30 4363 C 407.888 -1.57667 0.999899 0
M  V30 4364 C 408.239 -1.91041 -0.446956 0
M  V30 4365 O 407.364 -1.70978 -1.32648 0
M  V30 4366 C 407.959 -2.86477 1.80877 0
M  V30 4367 C 406.518 -3.37911 1.65811 0
M  V30 4368 C 405.665 -2.11343 1.79526 0
M  V30 4369 H 408.616 -0.853214 1.33813 0
M  V30 4370 H 408.637 -3.57408 1.30536 0
M  V30 4371 H 408.149 -2.62155 2.86175 0
M  V30 4372 H 406.25 -3.67218 0.63102 0
M  V30 4373 H 406.363 -4.10885 2.46395 0
M  V30 4374 H 404.727 -2.23254 1.22596 0
M  V30 4375 H 405.51 -1.89461 2.86285 0
M  V30 4376 N 407.956 -0.998596 -1.21925 0
M  V30 4377 C 409.181 -0.696015 -1.95372 0
M  V30 4378 C 409.606 0.733826 -1.73195 0
M  V30 4379 O 408.964 1.50242 -1.01474 0
M  V30 4380 C 409.012 -1.01466 -3.4603 0
M  V30 4381 O 408.116 -0.116415 -4.12236 0
M  V30 4382 H 407.457 -0.259938 -0.611006 0
M  V30 4383 H 409.987 -1.33711 -1.54863 0
M  V30 4384 H 409.997 -0.958855 -3.96573 0
M  V30 4385 H 408.672 -2.05653 -3.61497 0
M  V30 4386 H 407.249 -0.228193 -3.72201 0
M  V30 4387 N 409.434 1.37368 -0.772513 0
M  V30 4388 C 410.384 2.27613 -0.132823 0
M  V30 4389 C 411.368 1.46138 0.673247 0
M  V30 4390 O 412.56 1.68686 0.536095 0
M  V30 4391 C 409.689 3.35122 0.744864 0
M  V30 4392 C 408.775 4.24044 -0.0690771 0
M  V30 4393 N 409.166 4.93355 -1.1151 0
M  V30 4394 C 407.464 4.45731 0.154782 0
M  V30 4395 C 408.165 5.59 -1.60917 0
M  V30 4396 N 407.141 5.35737 -0.921222 0
M  V30 4397 H 410.943 2.78675 -0.933681 0
M  V30 4398 H 408.457 1.50494 -0.610342 0
M  V30 4399 H 410.454 3.98683 1.21892 0
M  V30 4400 H 409.114 2.85616 1.54446 0
M  V30 4401 H 410.125 4.95785 -1.49726 0
M  V30 4402 H 406.802 4.07096 0.926224 0
M  V30 4403 H 408.192 6.24395 -2.48153 0
M  V30 4404 N 410.912 0.523116 1.48665 0
M  V30 4405 C 412.152 -0.0115588 2.04397 0
M  V30 4406 C 412.516 -1.32225 1.39214 0
M  V30 4407 O 413.717 -1.94253 1.85793 0
M  V30 4408 C 411.988 -0.138119 3.57133 0
M  V30 4409 S 413.547 -0.623849 4.34343 0
M  V30 4410 H 410.365 0.00877706 0.710946 0
M  V30 4411 H 412.967 0.702116 1.82457 0
M  V30 4412 H 411.671 0.820748 4.02109 0
M  V30 4413 H 411.202 -0.876377 3.83514 0
M  V30 4414 H 413.217 -1.8895 4.58816 0
M  V30 4415 N 412.39 -1.55475 0.257931 0
M  V30 4416 C 413.63 -2.01112 -0.365129 0
M  V30 4417 C 413.994 -1.1423 -1.54323 0
M  V30 4418 O 415.195 -1.49371 -2.23477 0
M  V30 4419 C 413.466 -3.49353 -0.754117 0
M  V30 4420 S 415.025 -4.16992 -1.36614 0
M  V30 4421 H 411.843 -0.701737 -0.114397 0
M  V30 4422 H 414.445 -1.91855 0.375747 0
M  V30 4423 H 413.149 -4.10246 0.112441 0
M  V30 4424 H 412.68 -3.6256 -1.52689 0
M  V30 4425 H 414.695 -4.19191 -2.65505 0
M  V30 4426 N 413.868 0.0150385 -1.57593 0
M  V30 4427 C 414.831 0.995996 -2.06428 0
M  V30 4428 C 415.831 1.2818 -0.970903 0
M  V30 4429 O 417.021 1.22949 -1.23406 0
M  V30 4430 C 414.153 2.32506 -2.49307 0
M  V30 4431 H 415.346 0.573873 -2.94358 0
M  V30 4432 H 412.899 0.262186 -1.54085 0
M  V30 4433 H 413.634 2.79438 -1.64575 0
M  V30 4434 H 413.419 2.13087 -3.29145 0
M  V30 4435 H 414.909 3.02906 -2.87468 0
M  V30 4436 N 415.346 1.54954 0.287554 0
M  V30 4437 C 416.593 1.74873 1.02106 0
M  V30 4438 C 416.921 0.541829 1.86801 0
M  V30 4439 O 416.176 -0.475992 1.89823 0
M  V30 4440 C 416.475 2.99833 1.94512 0
M  V30 4441 C 416.141 4.33029 1.25686 0
M  V30 4442 C 414.803 4.69233 1.06649 0
M  V30 4443 C 417.155 5.15542 0.765913 0
M  V30 4444 C 414.483 5.85518 0.372222 0
M  V30 4445 C 416.835 6.32542 0.0853101 0
M  V30 4446 C 415.499 6.67398 -0.1169 0
M  V30 4447 H 414.769 0.639906 0.373632 0
M  V30 4448 H 417.416 1.89219 0.294665 0
M  V30 4449 H 415.721 2.80325 2.73725 0
M  V30 4450 H 417.418 3.1244 2.51361 0
M  V30 4451 H 414.008 4.04564 1.41512 0
M  V30 4452 H 418.192 4.88059 0.90066 0
M  V30 4453 H 413.448 6.11057 0.204695 0
M  V30 4454 H 417.622 6.95741 -0.302936 0
M  V30 4455 H 415.249 7.57357 -0.656859 0
M  V30 4456 N 416.824 -0.551391 1.4764 0
M  V30 4457 C 418.24 -0.877887 1.33287 0
M  V30 4458 C 418.44 -1.98817 0.327721 0
M  V30 4459 O 417.496 -2.51171 -0.258695 0
M  V30 4460 C 418.809 -1.26563 2.72768 0
M  V30 4461 C 420.357 -1.37673 2.81097 0
M  V30 4462 C 420.832 -1.79799 4.21232 0
M  V30 4463 N 422.323 -1.8694 4.23802 0
M  V30 4464 C 423.058 -2.20876 5.29151 0
M  V30 4465 N 422.554 -2.53386 6.448 0
M  V30 4466 N 424.347 -2.217 5.16532 0
M  V30 4467 H 416.498 0.18153 2.11623 0
M  V30 4468 H 418.761 0.0185514 0.947818 0
M  V30 4469 H 418.467 -0.523591 3.47781 0
M  V30 4470 H 418.341 -2.22052 3.04915 0
M  V30 4471 H 420.728 -2.10956 2.06353 0
M  V30 4472 H 420.809 -0.40357 2.52596 0
M  V30 4473 H 420.453 -1.07083 4.96483 0
M  V30 4474 H 420.383 -2.78128 4.4716 0
M  V30 4475 H 422.874 -1.64179 3.40373 0
M  V30 4476 H 423.187 -2.78325 7.20941 0
M  V30 4477 H 421.532 -2.50953 6.48111 0
M  V30 4478 H 424.723 -1.95745 4.25207 0
M  V30 4479 H 424.896 -2.47818 5.98741 0
M  V30 4480 N 418.302 -1.35869 -0.798587 0
M  V30 4481 C 419.25 -1.29491 -1.93222 0
M  V30 4482 C 420.244 -0.18836 -1.6835 0
M  V30 4483 O 421.45 -0.354822 -1.76468 0
M  V30 4484 H 417.825 -0.402901 -0.63496 0
M  V30 4485 H 419.796 -2.25247 -1.9572 0
M  V30 4486 C 418.545 -1.09184 -3.30112 0
M  V30 4487 H 417.868 -1.93574 -3.49813 0
M  V30 4488 H 419.308 -1.08766 -4.09812 0
M  V30 4489 C 417.767 0.203959 -3.36282 0
M  V30 4490 O 418.297 1.19699 -3.83451 0
M  V30 4491 N 416.503 0.245488 -2.89561 0
M  V30 4492 H 416.05 -0.563223 -2.51367 0
M  V30 4493 H 416.008 1.11219 -2.94071 0
M  V30 4494 N 419.78 1.02168 -1.19998 0
M  V30 4495 C 420.71 2.12488 -0.96804 0
M  V30 4496 C 421.691 1.69799 0.101185 0
M  V30 4497 O 422.876 1.94121 -0.0552993 0
M  V30 4498 C 420.006 3.43479 -0.513776 0
M  V30 4499 C 418.96 3.99884 -1.52566 0
M  V30 4500 C 418.286 5.26582 -0.928214 0
M  V30 4501 C 419.586 4.33861 -2.90795 0
M  V30 4502 H 421.28 2.32149 -1.89069 0
M  V30 4503 H 418.826 1.11564 -0.910468 0
M  V30 4504 H 420.779 4.20036 -0.338774 0
M  V30 4505 H 419.503 3.23561 0.444493 0
M  V30 4506 H 418.162 3.25429 -1.68794 0
M  V30 4507 H 417.81 5.02986 0.0378289 0
M  V30 4508 H 417.51 5.65284 -1.60397 0
M  V30 4509 H 419.034 6.05799 -0.764167 0
M  V30 4510 H 420.448 5.01327 -2.78109 0
M  V30 4511 H 418.845 4.83664 -3.55231 0
M  V30 4512 H 419.915 3.42848 -3.42904 0
M  V30 4513 N 421.258 1.00505 1.21394 0
M  V30 4514 C 422.669 0.721082 1.72213 0
M  V30 4515 C 423.02 -0.761263 1.80829 0
M  V30 4516 O 422.145 -1.59464 1.46288 0
M  V30 4517 C 422.74 1.30228 3.12772 0
M  V30 4518 C 421.299 1.06743 3.60947 0
M  V30 4519 C 420.446 1.41507 2.38477 0
M  V30 4520 H 423.397 1.17594 1.06571 0
M  V30 4521 H 423.418 0.686955 3.74247 0
M  V30 4522 H 422.93 2.38115 3.06468 0
M  V30 4523 H 421.031 0.00572162 3.726 0
M  V30 4524 H 421.144 1.73936 4.46411 0
M  V30 4525 H 419.508 0.833852 2.40664 0
M  V30 4526 H 420.291 2.50424 2.34824 0
M  V30 4527 N 422.737 -1.36956 0.779787 0
M  V30 4528 C 423.965 -2.03755 0.359398 0
M  V30 4529 C 424.38 -1.58807 -1.02106 0
M  V30 4530 O 423.737 -0.773024 -1.6532 0
M  V30 4531 C 423.788 -3.59251 0.402568 0
M  V30 4532 O 423.509 -4.02557 1.72858 0
M  V30 4533 C 425.01 -4.43291 -0.0284068 0
M  V30 4534 H 422.23 -0.654148 0.149437 0
M  V30 4535 H 424.774 -1.75128 1.05595 0
M  V30 4536 H 422.929 -3.86621 -0.245478 0
M  V30 4537 H 423.343 -4.97111 1.67275 0
M  V30 4538 H 424.817 -5.51975 0.0529466 0
M  V30 4539 H 425.294 -4.25719 -1.07982 0
M  V30 4540 H 425.9 -4.21163 0.591758 0
M  V30 4541 N 424.215 -0.530993 -1.48385 0
M  V30 4542 C 425.162 0.231223 -2.29639 0
M  V30 4543 C 426.132 0.932864 -1.37429 0
M  V30 4544 O 427.317 0.933692 -1.66394 0
M  V30 4545 C 424.457 1.27155 -3.2082 0
M  V30 4546 C 423.57 0.578655 -4.28107 0
M  V30 4547 C 422.705 1.602 -5.06467 0
M  V30 4548 C 421.744 0.892625 -6.05556 0
M  V30 4549 N 420.881 1.86157 -6.76971 0
M  V30 4550 H 425.721 -0.467848 -2.94305 0
M  V30 4551 H 423.258 -0.242556 -1.45086 0
M  V30 4552 H 425.216 1.88703 -3.72085 0
M  V30 4553 H 423.846 1.939 -2.58075 0
M  V30 4554 H 422.898 -0.150782 -3.80101 0
M  V30 4555 H 424.21 0.0217065 -4.98795 0
M  V30 4556 H 423.364 2.29173 -5.61751 0
M  V30 4557 H 422.103 2.19285 -4.35621 0
M  V30 4558 H 421.108 0.188829 -5.49476 0
M  V30 4559 H 422.333 0.307878 -6.78402 0
M  V30 4560 H 420.279 2.44147 -6.08875 0
M  V30 4561 H 420.196 1.35608 -7.43738 0
M  V30 4562 H 421.464 2.54325 -7.36844 0
M  V30 4563 N 425.693 1.55336 -0.266172 0
M  V30 4564 C 426.603 2.2583 0.635458 0
M  V30 4565 C 427.619 1.28106 1.17749 0
M  V30 4566 O 428.795 1.61024 1.20968 0
M  V30 4567 C 425.86 2.95879 1.80712 0
M  V30 4568 C 424.921 4.09059 1.30265 0
M  V30 4569 C 424.154 4.75759 2.41846 0
M  V30 4570 O 424.377 4.41622 3.61007 0
M  V30 4571 O 423.311 5.63888 2.1051 0
M  V30 4572 H 427.137 3.03631 0.0646693 0
M  V30 4573 H 424.722 1.49361 -0.0339177 0
M  V30 4574 H 426.604 3.39932 2.49047 0
M  V30 4575 H 425.279 2.21002 2.36516 0
M  V30 4576 H 424.186 3.69482 0.586019 0
M  V30 4577 H 425.519 4.85811 0.790458 0
M  V30 4578 N 427.171 -0.0066808 1.57599 0
M  V30 4579 C 428.103 -1.02827 2.04839 0
M  V30 4580 C 429.116 -1.31108 0.965113 0
M  V30 4581 O 430.305 -1.28202 1.24203 0
M  V30 4582 C 427.405 -2.36464 2.42771 0
M  V30 4583 C 426.578 -2.27219 3.73751 0
M  V30 4584 C 425.637 -3.43489 3.98625 0
M  V30 4585 O 424.663 -3.21976 4.69382 0
M  V30 4586 N 425.865 -4.66116 3.46 0
M  V30 4587 H 428.63 -0.625455 2.93101 0
M  V30 4588 H 426.191 -0.194198 1.60731 0
M  V30 4589 H 428.183 -3.13008 2.56531 0
M  V30 4590 H 426.753 -2.68512 1.60063 0
M  V30 4591 H 425.973 -1.35629 3.70133 0
M  V30 4592 H 427.261 -2.18208 4.59633 0
M  V30 4593 H 426.659 -4.86493 2.88688 0
M  V30 4594 H 425.216 -5.39949 3.65101 0
M  V30 4595 N 428.649 -1.55105 -0.279332 0
M  V30 4596 C 429.597 -1.88333 -1.36505 0
M  V30 4597 C 430.591 -0.759043 -1.51443 0
M  V30 4598 O 431.797 -0.943312 -1.53302 0
M  V30 4599 H 428.172 -0.59766 -0.456406 0
M  V30 4600 H 430.143 -2.79041 -1.05728 0
M  V30 4601 C 428.892 -2.16628 -2.7197 0
M  V30 4602 H 428.215 -3.02624 -2.61264 0
M  V30 4603 H 429.655 -2.43803 -3.46895 0
M  V30 4604 C 428.114 -0.971807 -3.22579 0
M  V30 4605 O 428.644 -0.203228 -4.01186 0
M  V30 4606 N 426.85 -0.771238 -2.80179 0
M  V30 4607 H 426.397 -1.39792 -2.1637 0
M  V30 4608 H 426.355 0.0263667 -3.14389 0
M  V30 4609 N 430.127 0.543554 -1.4793 0
M  V30 4610 C 431.374 1.30008 -1.55255 0
M  V30 4611 C 431.702 1.93245 -0.220612 0
M  V30 4612 O 430.957 1.79141 0.787843 0
M  V30 4613 C 431.256 2.42078 -2.62932 0
M  V30 4614 C 430.922 1.96583 -4.0579 0
M  V30 4615 C 429.584 1.83893 -4.44676 0
M  V30 4616 C 431.936 1.62034 -4.95373 0
M  V30 4617 C 429.264 1.34969 -5.70964 0
M  V30 4618 C 431.616 1.14577 -6.22137 0
M  V30 4619 C 430.28 1.00493 -6.59892 0
M  V30 4620 H 429.55 0.475735 -0.568117 0
M  V30 4621 H 432.197 0.608075 -1.81589 0
M  V30 4622 H 430.502 3.16892 -2.30406 0
M  V30 4623 H 432.199 3.00236 -2.65818 0
M  V30 4624 H 428.789 2.07407 -3.75074 0
M  V30 4625 H 432.973 1.70705 -4.66019 0
M  V30 4626 H 428.229 1.2274 -5.98953 0
M  V30 4627 H 432.403 0.869109 -6.90955 0
M  V30 4628 H 430.03 0.623624 -7.57638 0
M  V30 4629 N 431.605 1.3629 0.791371 0
M  V30 4630 C 432.83 1.33726 1.58531 0
M  V30 4631 C 433.255 -0.0794933 1.87932 0
M  V30 4632 O 432.613 -1.05087 1.47738 0
M  V30 4633 C 432.661 2.16425 2.88431 0
M  V30 4634 O 431.765 1.5554 3.81944 0
M  V30 4635 H 431.106 0.457793 0.480959 0
M  V30 4636 H 433.636 1.79547 0.981031 0
M  V30 4637 H 433.646 2.28933 3.37718 0
M  V30 4638 H 432.321 3.19415 2.66359 0
M  V30 4639 H 430.898 1.51961 3.40532 0
M  V30 4640 N 433.083 -1.0153 1.20538 0
M  V30 4641 C 434.033 -2.08482 0.922991 0
M  V30 4642 C 435.017 -1.60469 -0.117702 0
M  V30 4643 O 436.209 -1.76772 0.0898465 0
M  V30 4644 C 433.338 -3.39952 0.478312 0
M  V30 4645 C 432.424 -3.94662 1.5525 0
M  V30 4646 N 432.815 -4.22866 2.77521 0
M  V30 4647 C 431.113 -4.22825 1.41897 0
M  V30 4648 C 431.814 -4.67002 3.4682 0
M  V30 4649 N 430.79 -4.69356 2.74237 0
M  V30 4650 H 434.592 -2.28199 1.85209 0
M  V30 4651 H 432.106 -1.19512 1.09957 0
M  V30 4652 H 434.103 -4.16105 0.257408 0
M  V30 4653 H 432.763 -3.21648 -0.444148 0
M  V30 4654 H 433.774 -4.11732 3.1416 0
M  V30 4655 H 430.451 -4.13714 0.561015 0
M  V30 4656 H 431.841 -4.97632 4.51455 0
M  V30 4657 N 434.561 -1.01147 -1.20859 0
M  V30 4658 C 435.786 -0.716698 -1.94623 0
M  V30 4659 C 436.211 0.715415 -1.73964 0
M  V30 4660 O 435.569 1.49157 -1.03062 0
M  V30 4661 C 435.617 -1.0513 -3.44935 0
M  V30 4662 O 434.721 -0.160131 -4.12089 0
M  V30 4663 H 434.062 -0.266404 -0.608214 0
M  V30 4664 H 436.592 -1.35346 -1.53436 0
M  V30 4665 H 436.602 -1.00086 -3.95533 0
M  V30 4666 H 435.277 -2.09475 -3.59295 0
M  V30 4667 H 433.854 -0.267657 -3.71938 0
M  V30 4668 N 436.039 1.36541 -0.78704 0
M  V30 4669 C 437.288 1.98552 -0.35494 0
M  V30 4670 C 437.601 1.63171 1.07864 0
M  V30 4671 O 438.807 2.18399 1.61289 0
M  V30 4672 C 437.263 3.55136 -0.583671 0
M  V30 4673 C 436.871 3.99444 -2.02851 0
M  V30 4674 C 438.615 4.2395 -0.215957 0
M  V30 4675 C 436.522 5.48796 -2.20403 0
M  V30 4676 H 435.452 0.742888 -0.128972 0
M  V30 4677 H 438.103 1.5587 -0.968337 0
M  V30 4678 H 436.485 3.95875 0.0994046 0
M  V30 4679 H 437.659 3.6991 -2.74779 0
M  V30 4680 H 435.974 3.43459 -2.35425 0
M  V30 4681 H 438.571 5.33709 -0.325405 0
M  V30 4682 H 438.914 4.07827 0.835646 0
M  V30 4683 H 439.447 3.88565 -0.852175 0
M  V30 4684 H 436.186 5.69864 -3.23937 0
M  V30 4685 H 435.706 5.79964 -1.52977 0
M  V30 4686 H 437.385 6.14986 -2.01002 0
M  V30 4687 N 437.518 0.538854 1.48102 0
M  V30 4688 C 438.743 0.0102694 2.07397 0
M  V30 4689 C 439.168 -1.26562 1.39153 0
M  V30 4690 O 438.526 -1.75357 0.460387 0
M  V30 4691 C 438.574 -0.187602 3.60112 0
M  V30 4692 O 437.678 -1.25432 3.92862 0
M  V30 4693 H 437.019 0.0430975 0.6626 0
M  V30 4694 H 439.549 0.749301 1.90385 0
M  V30 4695 H 439.559 -0.407517 4.0596 0
M  V30 4696 H 438.234 0.744386 4.09184 0
M  V30 4697 H 436.811 -1.01636 3.58782 0
M  V30 4698 N 438.996 -1.55193 0.274407 0
M  V30 4699 C 439.906 -2.26164 -0.623473 0
M  V30 4700 C 440.922 -1.28729 -1.17068 0
M  V30 4701 O 442.098 -1.61663 -1.20112 0
M  V30 4702 C 439.163 -2.96833 -1.7914 0
M  V30 4703 C 438.224 -4.09745 -1.28093 0
M  V30 4704 C 437.457 -4.77034 -2.3932 0
M  V30 4705 O 437.68 -4.4353 -3.5866 0
M  V30 4706 O 436.614 -5.64996 -2.07516 0
M  V30 4707 H 440.44 -3.03661 -0.0485661 0
M  V30 4708 H 438.025 -1.49341 0.0418382 0
M  V30 4709 H 439.907 -3.41248 -2.4724 0
M  V30 4710 H 438.582 -2.22253 -2.35341 0
M  V30 4711 H 437.489 -3.69787 -0.566416 0
M  V30 4712 H 438.822 -4.86224 -0.764683 0
M  V30 4713 N 440.474 -0.00167713 -1.576 0
M  V30 4714 C 441.422 1.0074 -2.09652 0
M  V30 4715 C 442.416 1.35483 -1.01689 0
M  V30 4716 O 443.622 1.34028 -1.20152 0
M  V30 4717 H 439.997 0.342537 -0.669457 0
M  V30 4718 H 441.968 0.542841 -2.93421 0
M  V30 4719 C 440.717 2.2899 -2.61647 0
M  V30 4720 H 440.04 2.03124 -3.44355 0
M  V30 4721 H 441.48 2.9787 -3.01744 0
M  V30 4722 C 439.939 3.00085 -1.53136 0
M  V30 4723 O 440.469 3.91135 -0.91524 0
M  V30 4724 N 438.675 2.6194 -1.25841 0
M  V30 4725 H 438.222 1.8798 -1.76129 0
M  V30 4726 H 438.18 3.09822 -0.534576 0
M  V30 4727 N 441.952 1.55251 0.271103 0
M  V30 4728 C 443.199 1.75946 1.00245 0
M  V30 4729 C 443.527 0.561611 1.86215 0
M  V30 4730 O 442.782 -0.455832 1.90317 0
M  V30 4731 C 443.081 3.01879 1.91321 0
M  V30 4732 C 442.747 4.34337 1.21086 0
M  V30 4733 C 441.409 4.70338 1.01666 0
M  V30 4734 C 443.761 5.16325 0.71119 0
M  V30 4735 C 441.089 5.8588 0.310099 0
M  V30 4736 C 443.441 6.32597 0.0182157 0
M  V30 4737 C 442.105 6.67236 -0.18768 0
M  V30 4738 H 441.375 0.643833 0.366824 0
M  V30 4739 H 444.022 1.89521 0.27458 0
M  V30 4740 H 442.327 2.83212 2.70736 0
M  V30 4741 H 444.024 3.15088 2.48033 0
M  V30 4742 H 440.614 4.06043 1.37213 0
M  V30 4743 H 444.798 4.88987 0.848844 0
M  V30 4744 H 440.054 6.1124 0.139873 0
M  V30 4745 H 444.228 6.9538 -0.376711 0
M  V30 4746 H 441.855 7.56618 -0.73715 0
M  V30 4747 N 443.43 -0.535701 1.48216 0
M  V30 4748 C 444.655 -1.32149 1.59848 0
M  V30 4749 C 445.08 -1.86338 0.256842 0
M  V30 4750 O 444.438 -1.64107 -0.770632 0
M  V30 4751 C 444.486 -2.45224 2.64381 0
M  V30 4752 O 443.59 -3.48093 2.21144 0
M  V30 4753 H 442.931 -0.391634 0.536208 0
M  V30 4754 H 445.461 -0.645202 1.94161 0
M  V30 4755 H 445.471 -2.91491 2.85476 0
M  V30 4756 H 444.146 -2.05143 3.61786 0
M  V30 4757 H 442.723 -3.07984 2.10239 0
M  V30 4758 N 444.908 -1.36708 -0.784132 0
M  V30 4759 C 445.855 -1.31466 -1.89698 0
M  V30 4760 C 446.825 -0.18239 -1.65096 0
M  V30 4761 O 448.01 -0.369762 -1.87183 0
M  V30 4762 C 445.15 -1.1151 -3.26588 0
M  V30 4763 C 444.263 -2.33859 -3.63227 0
M  V30 4764 C 443.398 -2.06873 -4.89262 0
M  V30 4765 C 442.437 -3.25154 -5.18595 0
M  V30 4766 N 441.574 -2.978 -6.35814 0
M  V30 4767 H 446.414 -2.26619 -1.93515 0
M  V30 4768 H 443.951 -1.12625 -0.946256 0
M  V30 4769 H 445.909 -0.979653 -4.05535 0
M  V30 4770 H 444.539 -0.200103 -3.22179 0
M  V30 4771 H 443.591 -2.58188 -2.79362 0
M  V30 4772 H 444.903 -3.22109 -3.8085 0
M  V30 4773 H 444.057 -1.90289 -5.76086 0
M  V30 4774 H 442.796 -1.15942 -4.73718 0
M  V30 4775 H 441.801 -3.42292 -4.30251 0
M  V30 4776 H 443.026 -4.1692 -5.36055 0
M  V30 4777 H 440.972 -2.09485 -6.21653 0
M  V30 4778 H 440.889 -3.7959 -6.53794 0
M  V30 4779 H 442.157 -2.84805 -7.25607 0
M  V30 4780 N 446.386 1.0089 -1.21074 0
M  V30 4781 C 447.318 2.09737 -0.924291 0
M  V30 4782 C 448.331 1.62546 0.0909809 0
M  V30 4783 O 449.52 1.77942 -0.141021 0
M  V30 4784 C 446.62 3.36922 -0.36559 0
M  V30 4785 C 445.793 4.13216 -1.43426 0
M  V30 4786 C 444.852 5.18696 -0.885496 0
M  V30 4787 O 443.878 5.47176 -1.56801 0
M  V30 4788 N 445.08 5.79718 0.301227 0
M  V30 4789 H 447.845 2.34895 -1.8613 0
M  V30 4790 H 445.406 1.17341 -1.11546 0
M  V30 4791 H 447.398 4.04697 0.0158407 0
M  V30 4792 H 445.968 3.08952 0.476149 0
M  V30 4793 H 445.188 3.40301 -1.9897 0
M  V30 4794 H 446.476 4.60967 -2.15376 0
M  V30 4795 H 445.874 5.58926 0.872849 0
M  V30 4796 H 444.431 6.48804 0.624211 0
M  V30 4797 N 447.864 1.01787 1.20321 0
M  V30 4798 C 449.104 0.716493 1.91431 0
M  V30 4799 C 449.468 -0.740352 1.77152 0
M  V30 4800 O 450.669 -1.1543 2.42754 0
M  V30 4801 C 448.94 1.14169 3.38674 0
M  V30 4802 S 450.499 0.962482 4.28114 0
M  V30 4803 H 447.317 0.261175 0.661293 0
M  V30 4804 H 449.919 1.30539 1.45533 0
M  V30 4805 H 448.623 2.19784 3.46588 0
M  V30 4806 H 448.154 0.545621 3.89598 0
M  V30 4807 H 450.169 -0.133253 4.96021 0
M  V30 4808 N 449.342 -1.36122 0.79427 0
M  V30 4809 C 450.252 -2.33769 0.197296 0
M  V30 4810 C 451.268 -1.61276 -0.653153 0
M  V30 4811 O 452.444 -1.9323 -0.5678 0
M  V30 4812 C 449.509 -3.40474 -0.654098 0
M  V30 4813 C 448.57 -4.28759 0.215411 0
M  V30 4814 C 447.803 -5.30368 -0.595443 0
M  V30 4815 O 448.026 -5.40211 -1.83107 0
M  V30 4816 O 446.96 -6.019 0.00721351 0
M  V30 4817 H 450.786 -2.86597 1.00478 0
M  V30 4818 H 448.371 -1.38676 0.555818 0
M  V30 4819 H 450.253 -4.05703 -1.13944 0
M  V30 4820 H 448.928 -2.89937 -1.43938 0
M  V30 4821 H 447.835 -3.66554 0.747615 0
M  V30 4822 H 449.168 -4.82661 0.964332 0
M  V30 4823 N 450.82 -0.546701 -1.47814 0
M  V30 4824 C 452.045 -0.021268 -2.07389 0
M  V30 4825 C 452.47 1.25822 -1.39822 0
M  V30 4826 O 451.828 1.75111 -0.46968 0
M  V30 4827 C 451.876 0.168502 -3.60206 0
M  V30 4828 O 450.98 1.23347 -3.93522 0
M  V30 4829 H 450.321 -0.0466108 -0.662362 0
M  V30 4830 H 452.851 -0.759387 -1.89985 0
M  V30 4831 H 452.861 0.385982 -4.0617 0
M  V30 4832 H 451.536 -0.766075 -4.08784 0
M  V30 4833 H 450.113 0.997319 -3.59316 0
M  V30 4834 N 452.299 1.55045 -0.282633 0
M  V30 4835 C 453.527 2.04168 0.33512 0
M  V30 4836 C 453.942 1.16071 1.48906 0
M  V30 4837 O 453.299 0.182391 1.81586 0
M  V30 4838 C 453.35 3.52332 0.808957 0
M  V30 4839 O 453.071 4.37078 -0.299038 0
M  V30 4840 C 454.572 4.17375 1.49375 0
M  V30 4841 H 451.792 0.666744 0.0754543 0
M  V30 4842 H 454.336 2.00205 -0.416918 0
M  V30 4843 H 452.491 3.56715 1.51106 0
M  V30 4844 H 452.905 5.24458 0.0665514 0
M  V30 4845 H 454.379 5.22627 1.77664 0
M  V30 4846 H 454.856 3.65999 2.42778 0
M  V30 4847 H 455.462 4.17016 0.835305 0
M  V30 4848 N 453.777 0.010035 1.57597 0
M  V30 4849 C 455.023 -0.673697 1.91283 0
M  V30 4850 C 455.356 -1.72863 0.884979 0
M  V30 4851 O 454.631 -1.94268 -0.0949487 0
M  V30 4852 C 454.914 -1.30766 3.35518 0
M  V30 4853 C 454.767 -0.263578 4.49027 0
M  V30 4854 C 456.086 -2.23105 3.79358 0
M  V30 4855 H 453.205 -0.243439 0.695634 0
M  V30 4856 H 455.847 0.0633864 1.89894 0
M  V30 4857 H 453.997 -1.93588 3.36832 0
M  V30 4858 H 455.669 0.365738 4.59848 0
M  V30 4859 H 453.912 0.413077 4.31829 0
M  V30 4860 H 454.583 -0.746398 5.4693 0
M  V30 4861 H 457.059 -1.70289 3.79659 0
M  V30 4862 H 455.935 -2.64424 4.81011 0
M  V30 4863 H 456.196 -3.11433 3.13787 0
M  V30 4864 N 455.255 -1.55392 -0.262866 0
M  V30 4865 C 456.671 -1.47459 -0.610582 0
M  V30 4866 C 456.871 -0.697031 -1.8906 0
M  V30 4867 O 455.927 -0.219952 -2.5154 0
M  V30 4868 C 457.24 -2.91751 -0.728131 0
M  V30 4869 C 458.788 -3.02027 -0.821517 0
M  V30 4870 C 459.263 -4.47594 -0.97076 0
M  V30 4871 N 460.754 -4.51465 -1.03603 0
M  V30 4872 C 461.489 -5.61326 -1.17049 0
M  V30 4873 N 460.985 -6.81032 -1.2715 0
M  V30 4874 N 462.778 -5.49089 -1.20239 0
M  V30 4875 H 454.929 -2.04395 0.577632 0
M  V30 4876 H 457.192 -0.927287 0.197086 0
M  V30 4877 H 456.898 -3.51413 0.142132 0
M  V30 4878 H 456.772 -3.4134 -1.6052 0
M  V30 4879 H 459.159 -2.42456 -1.68224 0
M  V30 4880 H 459.24 -2.55674 0.0803688 0
M  V30 4881 H 458.884 -5.07771 -0.114655 0
M  V30 4882 H 458.814 -4.91613 -1.88745 0
M  V30 4883 H 461.305 -3.6524 -0.96996 0
M  V30 4884 H 461.618 -7.60511 -1.37271 0
M  V30 4885 H 459.963 -6.83824 -1.24136 0
M  V30 4886 H 463.154 -4.54507 -1.11985 0
M  V30 4887 H 463.327 -6.34749 -1.30373 0
M  V30 4888 N 456.733 0.527833 -1.48498 0
M  V30 4889 C 457.68 1.6322 -1.6318 0
M  V30 4890 C 458.65 1.59199 -0.473815 0
M  V30 4891 O 459.835 1.77591 -0.697563 0
M  V30 4892 C 456.975 3.01474 -1.67951 0
M  V30 4893 C 456.088 3.15713 -2.94871 0
M  V30 4894 C 455.223 4.44539 -2.90789 0
M  V30 4895 C 454.262 4.52315 -4.12404 0
M  V30 4896 N 453.399 5.72533 -4.06387 0
M  V30 4897 H 458.239 1.50011 -2.57489 0
M  V30 4898 H 455.776 0.730298 -1.27691 0
M  V30 4899 H 457.734 3.81572 -1.68698 0
M  V30 4900 H 456.364 3.1345 -0.771306 0
M  V30 4901 H 455.416 2.28854 -3.03859 0
M  V30 4902 H 456.728 3.1732 -3.8485 0
M  V30 4903 H 455.882 5.3293 -2.89949 0
M  V30 4904 H 454.621 4.45457 -1.98542 0
M  V30 4905 H 453.626 3.62331 -4.13517 0
M  V30 4906 H 454.851 4.53134 -5.05812 0
M  V30 4907 H 452.797 5.74344 -3.16962 0
M  V30 4908 H 452.714 5.75643 -4.90073 0
M  V30 4909 H 453.982 6.63204 -4.0961 0
M  V30 4910 N 458.211 1.37122 0.776871 0
M  V30 4911 C 459.457 1.32243 1.53752 0
M  V30 4912 C 459.79 -0.0944745 1.9397 0
M  V30 4913 O 459.065 -1.05068 1.6368 0
M  V30 4914 C 459.348 2.25681 2.80607 0
M  V30 4915 C 459.201 3.76127 2.46676 0
M  V30 4916 C 460.52 2.17657 3.82509 0
M  V30 4917 H 457.639 0.481704 0.557791 0
M  V30 4918 H 460.281 1.6778 0.891612 0
M  V30 4919 H 458.431 1.95505 3.35723 0
M  V30 4920 H 460.103 4.16877 1.97513 0
M  V30 4921 H 458.346 3.94946 1.79443 0
M  V30 4922 H 459.017 4.36933 3.37333 0
M  V30 4923 H 461.493 2.44245 3.36873 0
M  V30 4924 H 460.369 2.85185 4.69 0
M  V30 4925 H 460.63 1.16785 4.26396 0
M  V30 4926 N 459.689 -1.00246 1.21608 0
M  V30 4927 C 460.637 -2.11193 0.97469 0
M  V30 4928 C 461.631 -1.69216 -0.0789303 0
M  V30 4929 O 462.837 -1.79853 0.0726806 0
M  V30 4930 H 459.212 -0.690455 0.297953 0
M  V30 4931 H 461.183 -2.2873 1.91638 0
M  V30 4932 C 459.932 -3.43182 0.558717 0
M  V30 4933 H 459.255 -3.75918 1.3611 0
M  V30 4934 H 460.695 -4.21823 0.429154 0
M  V30 4935 C 459.154 -3.28882 -0.730648 0
M  V30 4936 O 459.684 -3.59835 -1.78554 0
M  V30 4937 N 457.89 -2.8209 -0.698131 0
M  V30 4938 H 457.437 -2.57099 0.16061 0
M  V30 4939 H 457.395 -2.72903 -1.56113 0
M  V30 4940 N 461.167 -1.02423 -1.1978 0
M  V30 4941 C 462.115 -0.594474 -2.24875 0
M  V30 4942 C 463.109 0.370598 -1.65296 0
M  V30 4943 O 464.315 0.239684 -1.78397 0
M  V30 4944 H 460.69 -0.173961 -0.731602 0
M  V30 4945 H 462.661 -1.4916 -2.58445 0
M  V30 4946 C 461.41 0.0436512 -3.47673 0
M  V30 4947 H 460.733 -0.689963 -3.93801 0
M  V30 4948 H 462.173 0.307362 -4.22884 0
M  V30 4949 C 460.632 1.28881 -3.11274 0
M  V30 4950 O 461.162 2.38135 -3.23503 0
M  V30 4951 N 459.368 1.1758 -2.6575 0
M  V30 4952 H 458.915 0.286769 -2.55999 0
M  V30 4953 H 458.873 2.00988 -2.41767 0
M  V30 4954 N 462.645 1.35699 -0.801477 0
M  V30 4955 C 463.592 2.29876 -0.206294 0
M  V30 4956 C 464.562 1.52565 0.656752 0
M  V30 4957 O 465.747 1.81024 0.602906 0
M  V30 4958 C 462.887 3.39052 0.643272 0
M  V30 4959 C 462 4.31335 -0.239644 0
M  V30 4960 C 461.135 5.27599 0.61744 0
M  V30 4961 C 460.174 6.11521 -0.26619 0
M  V30 4962 N 459.311 6.99938 0.550571 0
M  V30 4963 H 464.151 2.80187 -1.01484 0
M  V30 4964 H 461.688 1.37902 -0.511997 0
M  V30 4965 H 463.646 4.0101 1.15094 0
M  V30 4966 H 462.276 2.9003 1.41713 0
M  V30 4967 H 461.328 3.70426 -0.865381 0
M  V30 4968 H 462.64 4.90243 -0.919985 0
M  V30 4969 H 461.794 5.94906 1.19045 0
M  V30 4970 H 460.533 4.69176 1.33137 0
M  V30 4971 H 459.538 5.43166 -0.851507 0
M  V30 4972 H 460.763 6.72022 -0.9779 0
M  V30 4973 H 458.709 6.44008 1.24856 0
M  V30 4974 H 458.626 7.55966 -0.071832 0
M  V30 4975 H 459.894 7.71599 1.10702 0
M  V30 4976 N 464.123 0.554532 1.47522 0
M  V30 4977 C 465.351 0.034257 2.06872 0
M  V30 4978 C 465.766 -1.25826 1.40759 0
M  V30 4979 O 465.123 -1.75425 0.503217 0
M  V30 4980 C 465.174 -0.167827 3.6111 0
M  V30 4981 O 464.895 1.07351 4.24744 0
M  V30 4982 C 466.396 -0.72569 4.3732 0
M  V30 4983 H 463.616 0.0446275 0.669514 0
M  V30 4984 H 466.16 0.767181 1.89564 0
M  V30 4985 H 464.315 -0.850872 3.7794 0
M  V30 4986 H 464.729 0.869563 5.17242 0
M  V30 4987 H 466.203 -0.816394 5.45929 0
M  V30 4988 H 466.68 -1.73635 4.0342 0
M  V30 4989 H 467.286 -0.0784292 4.25228 0
M  V30 4990 N 465.601 -1.54893 0.290851 0
M  V30 4991 C 466.531 -2.26103 -0.583084 0
M  V30 4992 C 467.512 -1.25684 -1.14619 0
M  V30 4993 O 468.697 -1.54436 -1.17741 0
M  V30 4994 C 465.827 -2.99409 -1.75987 0
M  V30 4995 C 464.781 -4.0689 -1.32758 0
M  V30 4996 C 464.107 -4.67856 -2.58872 0
M  V30 4997 C 465.407 -5.20215 -0.46624 0
M  V30 4998 H 467.101 -2.99398 0.0108214 0
M  V30 4999 H 464.647 -1.43998 0.00664468 0
M  V30 5000 H 466.6 -3.47943 -2.37727 0
M  V30 5001 H 465.324 -2.23675 -2.37985 0
M  V30 5002 H 463.983 -3.59191 -0.733299 0
M  V30 5003 H 463.631 -3.88772 -3.19163 0
M  V30 5004 H 463.331 -5.40438 -2.30653 0
M  V30 5005 H 464.855 -5.19147 -3.21433 0
M  V30 5006 H 466.269 -5.64704 -0.989047 0
M  V30 5007 H 464.666 -5.99455 -0.27826 0
M  V30 5008 H 465.736 -4.82198 0.511173 0
M  V30 5009 N 467.08 -0.0183926 -1.57589 0
M  V30 5010 C 468.31 0.67207 -1.95363 0
M  V30 5011 C 468.718 1.66807 -0.892872 0
M  V30 5012 O 468.061 1.83204 0.134958 0
M  V30 5013 C 468.123 1.44397 -3.29226 0
M  V30 5014 C 467.787 0.607511 -4.52944 0
M  V30 5015 C 468.784 -0.112657 -5.19778 0
M  V30 5016 C 466.469 0.548068 -4.99301 0
M  V30 5017 C 468.463 -0.881057 -6.31281 0
M  V30 5018 C 466.15 -0.224044 -6.10689 0
M  V30 5019 C 467.148 -0.937323 -6.76538 0
M  V30 5020 O 466.836 -1.6968 -7.85789 0
M  V30 5021 H 466.568 0.190925 -0.648478 0
M  V30 5022 H 469.122 -0.0711994 -2.05277 0
M  V30 5023 H 467.352 2.23214 -3.15773 0
M  V30 5024 H 469.041 2.02152 -3.51979 0
M  V30 5025 H 469.807 -0.0759998 -4.8494 0
M  V30 5026 H 465.686 1.09281 -4.4786 0
M  V30 5027 H 469.23 -1.43832 -6.82611 0
M  V30 5028 H 465.127 -0.262457 -6.44966 0
M  V30 5029 H 465.895 -1.61544 -8.024 0
M  V30 5030 N 468.558 1.5553 0.254621 0
M  V30 5031 C 469.783 1.81383 1.00573 0
M  V30 5032 C 470.208 0.594419 1.78461 0
M  V30 5033 O 469.566 -0.456403 1.75461 0
M  V30 5034 C 469.614 3.04892 1.92545 0
M  V30 5035 O 468.718 2.81266 3.01601 0
M  V30 5036 H 468.059 0.598969 0.286587 0
M  V30 5037 H 470.589 2.02703 0.277952 0
M  V30 5038 H 470.599 3.34119 2.34155 0
M  V30 5039 H 469.274 3.93287 1.3527 0
M  V30 5040 H 467.851 2.63185 2.64174 0
M  V30 5041 N 470.036 -0.519951 1.48776 0
M  V30 5042 C 471.261 -1.30447 1.6124 0
M  V30 5043 C 471.686 -1.86055 0.276591 0
M  V30 5044 O 471.044 -1.64915 -0.753183 0
M  V30 5045 C 471.092 -2.42406 2.66967 0
M  V30 5046 O 470.196 -3.45728 2.24824 0
M  V30 5047 H 469.537 -0.385924 0.540332 0
M  V30 5048 H 472.067 -0.624572 1.94834 0
M  V30 5049 H 472.077 -2.88447 2.88552 0
M  V30 5050 H 470.752 -2.01294 3.63941 0
M  V30 5051 H 469.329 -3.05737 2.13494 0
M  V30 5052 N 471.514 -1.37532 -0.769588 0
M  V30 5053 C 472.447 -1.27839 -1.8903 0
M  V30 5054 C 473.425 -0.158504 -1.61826 0
M  V30 5055 O 474.609 -0.333086 -1.85534 0
M  V30 5056 C 471.736 -0.977072 -3.24301 0
M  V30 5057 C 470.782 -2.11414 -3.70414 0
M  V30 5058 S 471.615 -3.73409 -3.83831 0
M  V30 5059 C 472.771 -3.45432 -5.21946 0
M  V30 5060 H 473.004 -2.22694 -1.96963 0
M  V30 5061 H 470.537 -1.2318 -0.930914 0
M  V30 5062 H 472.495 -0.810049 -4.02428 0
M  V30 5063 H 471.156 -0.0459701 -3.14066 0
M  V30 5064 H 470.349 -1.85837 -4.68488 0
M  V30 5065 H 469.951 -2.24141 -2.99394 0
M  V30 5066 H 472.243 -3.00554 -6.07185 0
M  V30 5067 H 473.186 -4.42841 -5.52537 0
M  V30 5068 H 473.594 -2.80311 -4.89986 0
M  V30 5069 N 472.992 0.995999 -1.22138 0
M  V30 5070 C 473.922 2.10387 -1.01289 0
M  V30 5071 C 474.903 1.69975 0.0651454 0
M  V30 5072 O 476.088 1.9396 -0.0964628 0
M  V30 5073 C 473.218 3.42312 -0.586517 0
M  V30 5074 C 472.172 3.96558 -1.61014 0
M  V30 5075 C 471.498 5.24494 -1.0397 0
M  V30 5076 C 472.798 4.27595 -2.99933 0
M  V30 5077 H 474.492 2.28086 -1.93951 0
M  V30 5078 H 472.038 1.09607 -0.933928 0
M  V30 5079 H 473.991 4.19223 -0.427793 0
M  V30 5080 H 472.715 3.24431 0.375761 0
M  V30 5081 H 471.374 3.21776 -1.75658 0
M  V30 5082 H 471.022 5.02953 -0.0688703 0
M  V30 5083 H 470.722 5.61755 -1.72352 0
M  V30 5084 H 472.246 6.04042 -0.892494 0
M  V30 5085 H 473.66 4.95315 -2.8868 0
M  V30 5086 H 472.057 4.76021 -3.6541 0
M  V30 5087 H 473.127 3.35498 -3.50099 0
M  V30 5088 N 474.47 1.03057 1.19235 0
M  V30 5089 C 475.433 0.617418 2.20727 0
M  V30 5090 C 476.433 -0.319856 1.57587 0
M  V30 5091 O 477.623 -0.106633 1.73873 0
M  V30 5092 C 474.755 -0.096296 3.40764 0
M  V30 5093 H 475.948 1.51544 2.58794 0
M  V30 5094 H 473.501 0.821949 1.32942 0
M  V30 5095 H 474.236 -1.00859 3.08217 0
M  V30 5096 H 474.021 0.577217 3.87828 0
M  V30 5097 H 475.511 -0.372219 4.15938 0
M  V30 5098 N 475.948 -1.35272 0.808662 0
M  V30 5099 C 476.858 -2.33546 0.222079 0
M  V30 5100 C 477.874 -1.6196 -0.636011 0
M  V30 5101 O 479.05 -1.93822 -0.547274 0
M  V30 5102 C 476.115 -3.41148 -0.61795 0
M  V30 5103 C 475.176 -4.28507 0.260875 0
M  V30 5104 C 474.409 -5.3097 -0.539156 0
M  V30 5105 O 474.632 -5.42123 -1.77367 0
M  V30 5106 O 473.566 -6.01858 0.0710526 0
M  V30 5107 H 477.392 -2.85515 1.03512 0
M  V30 5108 H 474.977 -1.38079 0.570495 0
M  V30 5109 H 476.859 -4.06889 -1.09634 0
M  V30 5110 H 475.534 -2.91447 -1.40855 0
M  V30 5111 H 474.441 -3.6574 0.786451 0
M  V30 5112 H 475.774 -4.81611 1.01547 0
M  V30 5113 N 477.426 -0.562348 -1.47226 0
M  V30 5114 C 478.651 -0.0432632 -2.07355 0
M  V30 5115 C 479.076 1.24332 -1.41149 0
M  V30 5116 O 478.434 1.74603 -0.488226 0
M  V30 5117 C 478.482 0.130288 -3.60365 0
M  V30 5118 O 477.586 1.19166 -3.94808 0
M  V30 5119 H 476.927 -0.0536334 -0.66183 0
M  V30 5120 H 479.457 -0.779495 -1.89169 0
M  V30 5121 H 479.467 0.342881 -4.06557 0
M  V30 5122 H 478.142 -0.809389 -4.07948 0
M  V30 5123 H 476.719 0.959153 -3.60354 0
M  V30 5124 N 478.904 1.54736 -0.299062 0
M  V30 5125 C 479.814 2.27127 0.587413 0
M  V30 5126 C 480.83 1.30575 1.15005 0
M  V30 5127 O 482.006 1.63554 1.17525 0
M  V30 5128 C 479.071 2.99645 1.74395 0
M  V30 5129 C 478.132 4.11731 1.21559 0
M  V30 5130 C 477.365 4.80781 2.317 0
M  V30 5131 O 477.588 4.4918 3.51558 0
M  V30 5132 O 476.522 5.68226 1.98501 0
M  V30 5133 H 480.348 3.037 0.000250109 0
M  V30 5134 H 477.933 1.49256 -0.0655919 0
M  V30 5135 H 479.815 3.45138 2.4178 0
M  V30 5136 H 478.49 2.25969 2.31775 0
M  V30 5137 H 477.397 3.70641 0.507514 0
M  V30 5138 H 478.73 4.87379 0.687233 0
M  V30 5139 N 480.382 0.0267497 1.57577 0
M  V30 5140 C 481.312 -0.954308 2.13108 0
M  V30 5141 C 482.293 -1.34088 1.04663 0
M  V30 5142 O 483.478 -1.41992 1.32484 0
M  V30 5143 C 480.608 -2.23744 2.65624 0
M  V30 5144 C 479.562 -1.99168 3.78835 0
M  V30 5145 C 478.888 -3.33726 4.17769 0
M  V30 5146 C 480.188 -1.33277 5.0501 0
M  V30 5147 H 481.882 -0.491848 2.95332 0
M  V30 5148 H 479.428 -0.23514 1.42067 0
M  V30 5149 H 481.381 -2.92754 3.03106 0
M  V30 5150 H 480.105 -2.72151 1.80558 0
M  V30 5151 H 478.764 -1.32577 3.41788 0
M  V30 5152 H 478.412 -3.79888 3.29688 0
M  V30 5153 H 478.112 -3.18089 4.94058 0
M  V30 5154 H 479.636 -4.04008 4.57832 0
M  V30 5155 H 481.05 -1.92283 5.40093 0
M  V30 5156 H 479.447 -1.28045 5.8628 0
M  V30 5157 H 480.517 -0.305411 4.83937 0
M  V30 5158 N 481.861 -1.55662 -0.24637 0
M  V30 5159 C 483.086 -1.81914 -0.996093 0
M  V30 5160 C 483.511 -0.603875 -1.78143 0
M  V30 5161 O 482.869 0.447091 -1.75701 0
M  V30 5162 C 482.917 -3.05908 -1.90925 0
M  V30 5163 O 482.021 -2.82861 -3.00105 0
M  V30 5164 H 481.362 -0.600481 -0.283406 0
M  V30 5165 H 483.892 -2.02848 -0.267199 0
M  V30 5166 H 483.902 -3.35356 -2.3238 0
M  V30 5167 H 482.577 -3.93999 -1.33183 0
M  V30 5168 H 481.154 -2.64583 -2.62775 0
M  V30 5169 N 483.339 0.512053 -1.4905 0
M  V30 5170 C 484.587 1.26436 -1.57665 0
M  V30 5171 C 484.908 1.93255 -0.260293 0
M  V30 5172 O 484.178 1.82206 0.719564 0
M  V30 5173 H 482.758 0.469658 -0.580888 0
M  V30 5174 H 485.42 0.594398 -1.85615 0
M  V30 5175 H 484.516 2.03417 -2.36702 0
M  V30 5176 N 484.817 1.37938 0.762283 0
M  V30 5177 C 486.063 1.34873 1.52253 0
M  V30 5178 C 486.418 -0.0635972 1.92295 0
M  V30 5179 O 485.711 -1.02434 1.61919 0
M  V30 5180 C 485.905 2.23042 2.79261 0
M  V30 5181 C 485.734 3.72706 2.51635 0
M  V30 5182 C 484.504 4.41771 2.45289 0
M  V30 5183 C 486.702 4.65345 2.18994 0
M  V30 5184 N 484.684 5.76921 2.09846 0
M  V30 5185 C 486.055 5.88943 1.9377 0
M  V30 5186 C 488.11 4.53636 2.0523 0
M  V30 5187 C 486.813 7.02142 1.5617 0
M  V30 5188 C 488.839 5.6673 1.69031 0
M  V30 5189 C 488.201 6.89383 1.44673 0
M  V30 5190 H 484.3 0.548818 0.557067 0
M  V30 5191 H 486.884 1.73247 0.888458 0
M  V30 5192 H 485.055 1.8687 3.40491 0
M  V30 5193 H 486.787 2.11165 3.45241 0
M  V30 5194 H 483.542 3.94883 2.61465 0
M  V30 5195 H 483.966 6.4837 1.94794 0
M  V30 5196 H 488.608 3.5937 2.2274 0
M  V30 5197 H 486.326 7.96334 1.37399 0
M  V30 5198 H 489.912 5.59645 1.59026 0
M  V30 5199 H 488.792 7.75411 1.17079 0
M  V30 5200 N 486.295 -0.989507 1.22664 0
M  V30 5201 C 487.572 -1.70326 0.961688 0
M  V30 5202 C 487.952 -2.04537 -0.522279 0
M  V30 5203 O 487.3 -1.73136 -1.49118 0
M  V30 5204 C 487.51 -2.95135 1.86269 0
M  V30 5205 C 488.858 -3.67842 2.12078 0
M  V30 5206 O 489.882 -3.0515 1.83745 0
M  V30 5207 O 488.741 -4.80644 2.60083 0
M  V30 5208 H 485.835 -0.743589 0.361946 0
M  V30 5209 H 488.381 -1.04555 1.33665 0
M  V30 5210 H 487.153 -2.66382 2.8663 0
M  V30 5211 H 486.776 -3.68645 1.48952 0
M  V30 5212 N 487.773 -1.03688 -1.18687 0
M  V30 5213 C 489.003 -0.756819 -1.92239 0
M  V30 5214 C 489.411 0.689374 -1.76194 0
M  V30 5215 O 488.754 1.48126 -1.08648 0
M  V30 5216 C 488.816 -1.03851 -3.44173 0
M  V30 5217 C 488.48 -2.47785 -3.83994 0
M  V30 5218 C 489.477 -3.4595 -3.88091 0
M  V30 5219 C 487.162 -2.82397 -4.154 0
M  V30 5220 C 489.156 -4.76779 -4.23038 0
M  V30 5221 C 486.843 -4.13433 -4.50018 0
M  V30 5222 C 487.841 -5.10434 -4.53813 0
M  V30 5223 O 487.529 -6.39122 -4.87625 0
M  V30 5224 H 487.261 -0.275678 -0.617234 0
M  V30 5225 H 489.815 -1.38658 -1.51536 0
M  V30 5226 H 488.045 -0.351612 -3.85098 0
M  V30 5227 H 489.734 -0.746846 -3.9897 0
M  V30 5228 H 490.5 -3.20549 -3.63969 0
M  V30 5229 H 486.379 -2.07568 -4.11627 0
M  V30 5230 H 489.923 -5.52488 -4.25914 0
M  V30 5231 H 485.82 -4.38604 -4.736 0
M  V30 5232 H 486.588 -6.43715 -5.05542 0
M  V30 5233 N 489.251 1.34841 -0.815825 0
M  V30 5234 C 490.161 2.33425 -0.234462 0
M  V30 5235 C 491.177 1.62295 0.627413 0
M  V30 5236 O 492.353 1.94109 0.536987 0
M  V30 5237 C 489.418 3.41471 0.599849 0
M  V30 5238 C 488.479 4.28362 -0.283596 0
M  V30 5239 C 487.712 5.31248 0.51099 0
M  V30 5240 O 487.935 5.43056 1.7449 0
M  V30 5241 O 486.869 6.01812 -0.10297 0
M  V30 5242 H 490.695 2.84962 -1.05024 0
M  V30 5243 H 488.28 1.37774 -0.577809 0
M  V30 5244 H 490.162 4.07464 1.07475 0
M  V30 5245 H 488.837 2.9219 1.39308 0
M  V30 5246 H 487.744 3.65318 -0.805836 0
M  V30 5247 H 489.077 4.81066 -1.041 0
M  V30 5248 N 490.729 0.570148 1.46925 0
M  V30 5249 C 491.959 0.0561151 2.06524 0
M  V30 5250 C 492.367 -1.24874 1.42137 0
M  V30 5251 O 491.71 -1.76292 0.516417 0
M  V30 5252 C 491.772 -0.197035 3.5896 0
M  V30 5253 C 491.436 1.02033 4.45464 0
M  V30 5254 C 492.433 1.92921 4.82781 0
M  V30 5255 C 490.118 1.23864 4.86788 0
M  V30 5256 C 492.112 3.03999 5.60235 0
M  V30 5257 C 489.799 2.35249 5.64004 0
M  V30 5258 C 490.797 3.25146 6.0064 0
M  V30 5259 O 490.485 4.34598 6.76299 0
M  V30 5260 H 490.217 0.0487409 0.674241 0
M  V30 5261 H 492.771 0.786915 1.89728 0
M  V30 5262 H 491.001 -0.982299 3.74016 0
M  V30 5263 H 492.69 -0.658032 4.00531 0
M  V30 5264 H 493.456 1.77265 4.51444 0
M  V30 5265 H 489.335 0.54805 4.57731 0
M  V30 5266 H 492.879 3.74192 5.8875 0
M  V30 5267 H 488.776 2.50873 5.94755 0
M  V30 5268 H 489.544 4.32808 6.94708 0
M  V30 5269 N 492.207 -1.54576 0.307264 0
M  V30 5270 C 493.455 -1.99867 -0.299574 0
M  V30 5271 C 493.776 -1.19714 -1.53927 0
M  V30 5272 O 493.046 -0.29472 -1.9367 0
M  V30 5273 H 491.626 -0.738299 -0.113683 0
M  V30 5274 H 494.288 -1.9032 0.420042 0
M  V30 5275 H 493.384 -3.06901 -0.567283 0
M  V30 5276 N 493.685 -0.035106 -1.57561 0
M  V30 5277 C 494.932 0.642229 -1.92046 0
M  V30 5278 C 495.26 1.7179 -0.91206 0
M  V30 5279 O 494.515 1.95544 0.0781153 0
M  V30 5280 C 494.814 1.29149 -3.3325 0
M  V30 5281 C 494.48 0.345604 -4.49574 0
M  V30 5282 C 493.142 0.0852775 -4.81124 0
M  V30 5283 C 495.494 -0.303569 -5.20315 0
M  V30 5284 C 492.822 -0.831927 -5.80772 0
M  V30 5285 C 495.174 -1.20886 -6.20942 0
M  V30 5286 C 493.838 -1.47802 -6.50931 0
M  V30 5287 H 493.108 0.235008 -0.702746 0
M  V30 5288 H 495.755 -0.0981529 -1.91248 0
M  V30 5289 H 494.06 2.10676 -3.30337 0
M  V30 5290 H 495.757 1.82223 -3.57205 0
M  V30 5291 H 492.347 0.558683 -4.24943 0
M  V30 5292 H 496.531 -0.115515 -4.96166 0
M  V30 5293 H 491.787 -1.0481 -6.02349 0
M  V30 5294 H 495.961 -1.71804 -6.74875 0
M  V30 5295 H 493.588 -2.19039 -7.2796 0
M  V30 5296 N 495.163 1.55791 0.238111 0
M  V30 5297 C 496.403 1.79801 0.972163 0
M  V30 5298 C 496.767 0.606027 1.82185 0
M  V30 5299 O 497.968 0.725079 2.58836 0
M  V30 5300 C 496.239 3.08608 1.80266 0
M  V30 5301 S 497.798 3.53872 2.59461 0
M  V30 5302 H 494.616 0.631418 0.326852 0
M  V30 5303 H 497.218 1.94031 0.239212 0
M  V30 5304 H 495.922 3.93419 1.1683 0
M  V30 5305 H 495.453 2.9714 2.57821 0
M  V30 5306 H 497.468 3.15899 3.82651 0
M  V30 5307 N 496.642 -0.504142 1.49319 0
M  V30 5308 C 497.572 -1.61473 1.68667 0
M  V30 5309 C 498.553 -1.61455 0.535378 0
M  V30 5310 O 499.738 -1.78245 0.770868 0
M  V30 5311 C 496.868 -2.99971 1.75028 0
M  V30 5312 C 495.822 -3.14854 2.89916 0
M  V30 5313 C 495.148 -4.54671 2.81387 0
M  V30 5314 C 496.448 -2.95176 4.30893 0
M  V30 5315 H 498.142 -1.45535 2.61648 0
M  V30 5316 H 495.688 -0.698711 1.25913 0
M  V30 5317 H 497.641 -3.77562 1.8715 0
M  V30 5318 H 496.365 -3.1699 0.786441 0
M  V30 5319 H 495.024 -2.39687 2.77391 0
M  V30 5320 H 494.672 -4.68562 1.82917 0
M  V30 5321 H 494.372 -4.6557 3.58494 0
M  V30 5322 H 495.896 -5.34327 2.95512 0
M  V30 5323 H 497.31 -3.62538 4.44116 0
M  V30 5324 H 495.707 -3.17549 5.09198 0
M  V30 5325 H 496.777 -1.91332 4.45556 0
M  V30 5326 N 498.12 -1.38341 -0.754957 0
M  V30 5327 C 499.531 -1.30803 -1.3322 0
M  V30 5328 C 499.882 0.0368 -1.96165 0
M  V30 5329 O 499.007 0.938844 -1.94974 0
M  V30 5330 C 499.602 -2.3688 -2.42225 0
M  V30 5331 C 498.161 -2.32925 -2.95674 0
M  V30 5332 C 497.308 -2.19819 -1.69042 0
M  V30 5333 H 500.259 -1.48719 -0.553937 0
M  V30 5334 H 500.28 -2.02517 -3.22129 0
M  V30 5335 H 499.792 -3.34747 -1.96383 0
M  V30 5336 H 497.893 -1.38635 -3.45848 0
M  V30 5337 H 498.006 -3.27008 -3.50146 0
M  V30 5338 H 496.37 -1.66648 -1.92615 0
M  V30 5339 H 497.153 -3.19625 -1.25279 0
M  V30 5340 N 499.598 0.982988 -1.23187 0
M  V30 5341 C 500.545 2.07491 -1.01075 0
M  V30 5342 C 501.515 1.65949 0.070905 0
M  V30 5343 O 502.7 1.90629 -0.0806822 0
M  V30 5344 C 499.84 3.39751 -0.605261 0
M  V30 5345 C 498.953 3.94578 -1.75876 0
M  V30 5346 C 498.088 5.15039 -1.3003 0
M  V30 5347 C 497.127 5.62027 -2.42472 0
M  V30 5348 N 496.264 6.73719 -1.97602 0
M  V30 5349 H 501.104 2.25739 -1.9454 0
M  V30 5350 H 498.641 1.10659 -0.969179 0
M  V30 5351 H 500.599 4.15719 -0.351279 0
M  V30 5352 H 499.229 3.21473 0.292382 0
M  V30 5353 H 498.281 3.1539 -2.12681 0
M  V30 5354 H 499.593 4.25422 -2.60418 0
M  V30 5355 H 498.747 5.9833 -1.00429 0
M  V30 5356 H 497.486 4.85843 -0.425216 0
M  V30 5357 H 496.491 4.77318 -2.7285 0
M  V30 5358 H 497.716 5.93244 -3.30512 0
M  V30 5359 H 495.662 6.46287 -1.1247 0
M  V30 5360 H 495.579 7.03934 -2.75705 0
M  V30 5361 H 496.847 7.6049 -1.71098 0
M  V30 5362 N 501.076 1.04316 1.18135 0
M  V30 5363 C 502.304 0.768117 1.92113 0
M  V30 5364 C 502.719 -0.675057 1.76319 0
M  V30 5365 O 502.076 -1.46038 1.09449 0
M  V30 5366 C 502.127 1.12808 3.43448 0
M  V30 5367 O 501.848 2.5146 3.58747 0
M  V30 5368 C 503.349 0.8779 4.3452 0
M  V30 5369 H 500.569 0.279937 0.609817 0
M  V30 5370 H 503.113 1.39149 1.49859 0
M  V30 5371 H 501.268 0.549623 3.83481 0
M  V30 5372 H 501.682 2.65313 4.52448 0
M  V30 5373 H 503.156 1.17959 5.39249 0
M  V30 5374 H 503.633 -0.187239 4.38801 0
M  V30 5375 H 504.239 1.43977 4.00188 0
M  V30 5376 N 502.554 -1.34406 0.822964 0
M  V30 5377 C 503.965 -1.8069 0.469879 0
M  V30 5378 C 504.316 -1.68223 -1.00972 0
M  V30 5379 O 503.441 -1.22226 -1.78577 0
M  V30 5380 C 504.036 -3.28064 0.846118 0
M  V30 5381 C 502.595 -3.72428 0.545402 0
M  V30 5382 C 501.742 -2.56116 1.06301 0
M  V30 5383 H 504.693 -1.22153 1.01313 0
M  V30 5384 H 504.714 -3.80205 0.149922 0
M  V30 5385 H 504.226 -3.37107 1.92304 0
M  V30 5386 H 502.327 -3.68924 -0.522109 0
M  V30 5387 H 502.44 -4.66548 1.0895 0
M  V30 5388 H 500.804 -2.50048 0.484554 0
M  V30 5389 H 501.587 -2.67928 2.14638 0
M  V30 5390 N 504.032 -0.577932 -1.46621 0
M  V30 5391 C 505.448 -0.239242 -1.57797 0
M  V30 5392 C 505.648 1.25843 -1.57371 0
M  V30 5393 O 504.704 2.03988 -1.48813 0
M  V30 5394 C 506.017 -0.884227 -2.87405 0
M  V30 5395 C 507.565 -0.857373 -3.01028 0
M  V30 5396 C 508.04 -1.48181 -4.33366 0
M  V30 5397 N 509.531 -1.44593 -4.40053 0
M  V30 5398 C 510.266 -1.89852 -5.41058 0
M  V30 5399 N 509.762 -2.43062 -6.48762 0
M  V30 5400 N 511.555 -1.80797 -5.3223 0
M  V30 5401 H 503.706 -1.55073 -1.45142 0
M  V30 5402 H 505.969 -0.647903 -0.692044 0
M  V30 5403 H 505.675 -1.93759 -2.93514 0
M  V30 5404 H 505.549 -0.389585 -3.75183 0
M  V30 5405 H 507.936 0.187357 -2.94505 0
M  V30 5406 H 508.017 -1.38999 -2.14739 0
M  V30 5407 H 507.661 -2.52572 -4.40647 0
M  V30 5408 H 507.591 -0.924464 -5.18422 0
M  V30 5409 H 510.082 -1.05694 -3.62819 0
M  V30 5410 H 510.395 -2.75466 -7.22038 0
M  V30 5411 H 508.74 -2.47085 -6.49595 0
M  V30 5412 H 511.931 -1.38989 -4.46989 0
M  V30 5413 H 512.104 -2.16385 -6.10804 0
M  V30 5414 N 505.51 1.54411 -0.315457 0
M  V30 5415 C 506.75 2.02329 0.290236 0
M  V30 5416 C 507.114 1.19878 1.49977 0
M  V30 5417 O 508.315 1.57562 2.17779 0
M  V30 5418 C 506.586 3.51912 0.623937 0
M  V30 5419 S 508.145 4.21775 1.21044 0
M  V30 5420 H 504.963 0.705499 0.0882739 0
M  V30 5421 H 507.565 1.90328 -0.446694 0
M  V30 5422 H 506.269 4.09546 -0.264624 0
M  V30 5423 H 505.8 3.67977 1.39128 0
M  V30 5424 H 507.815 4.28757 2.49764 0
M  V30 5425 N 506.988 0.0434614 1.5754 0
M  V30 5426 C 507.951 -0.918696 2.09982 0
M  V30 5427 C 508.951 -1.24488 1.01781 0
M  V30 5428 O 510.141 -1.18284 1.27885 0
M  V30 5429 C 507.273 -2.23093 2.57764 0
M  V30 5430 H 508.466 -0.464229 2.96285 0
M  V30 5431 H 506.019 -0.204818 1.54952 0
M  V30 5432 H 506.754 -2.73137 1.74832 0
M  V30 5433 H 506.539 -2.00724 3.36827 0
M  V30 5434 H 508.029 -2.92028 2.98512 0
M  V30 5435 N 508.466 -1.55915 -0.229846 0
M  V30 5436 C 509.877 -1.68809 -0.797531 0
M  V30 5437 C 510.228 -0.643995 -1.8533 0
M  V30 5438 O 509.353 0.206492 -2.15413 0
M  V30 5439 C 509.948 -3.06043 -1.45338 0
M  V30 5440 C 508.507 -3.20819 -1.96856 0
M  V30 5441 C 507.654 -2.6472 -0.825736 0
M  V30 5442 H 510.605 -1.58699 -0.00533733 0
M  V30 5443 H 510.626 -3.01438 -2.32196 0
M  V30 5444 H 510.138 -3.82012 -0.684743 0
M  V30 5445 H 508.239 -2.49704 -2.76548 0
M  V30 5446 H 508.352 -4.27937 -2.15423 0
M  V30 5447 H 506.716 -2.22985 -1.23084 0
M  V30 5448 H 507.499 -3.43229 -0.0699019 0
M  V30 5449 N 509.944 0.496216 -1.49584 0
M  V30 5450 C 510.854 1.62352 -1.69349 0
M  V30 5451 C 511.87 1.64184 -0.576147 0
M  V30 5452 O 513.046 1.82517 -0.85144 0
M  V30 5453 C 510.111 2.98698 -1.76013 0
M  V30 5454 C 509.172 3.07454 -2.99617 0
M  V30 5455 C 508.405 4.37296 -3.05953 0
M  V30 5456 O 508.628 5.2637 -2.19752 0
M  V30 5457 O 507.562 4.51124 -3.9846 0
M  V30 5458 H 511.388 1.48606 -2.64859 0
M  V30 5459 H 508.973 0.673022 -1.33382 0
M  V30 5460 H 510.855 3.79725 -1.82721 0
M  V30 5461 H 509.53 3.12696 -0.836828 0
M  V30 5462 H 508.437 2.25597 -2.98424 0
M  V30 5463 H 509.77 2.98385 -3.91443 0
M  V30 5464 N 511.423 1.38739 0.74761 0
M  V30 5465 C 512.834 1.31507 1.32524 0
M  V30 5466 C 513.185 -0.0263963 1.96182 0
M  V30 5467 O 512.31 -0.92849 1.95469 0
M  V30 5468 C 512.905 2.38162 2.40966 0
M  V30 5469 C 511.464 2.34489 2.94434 0
M  V30 5470 C 510.611 2.20712 1.67873 0
M  V30 5471 H 513.562 1.4901 0.546043 0
M  V30 5472 H 513.583 2.04222 3.21051 0
M  V30 5473 H 513.095 3.35783 1.94605 0
M  V30 5474 H 511.196 1.40467 3.45108 0
M  V30 5475 H 511.309 3.28861 3.48407 0
M  V30 5476 H 509.673 1.67667 1.91729 0
M  V30 5477 H 510.456 3.20285 1.23582 0
M  V30 5478 N 512.901 -0.976442 1.23707 0
M  V30 5479 C 514.178 -1.69296 0.979699 0
M  V30 5480 C 514.558 -2.0508 -0.500555 0
M  V30 5481 O 513.906 -1.74708 -1.47273 0
M  V30 5482 C 514.116 -2.93143 1.89389 0
M  V30 5483 C 515.464 -3.65572 2.15968 0
M  V30 5484 O 516.488 -3.03184 1.86971 0
M  V30 5485 O 515.347 -4.77859 2.65167 0
M  V30 5486 H 512.441 -0.739708 0.369812 0
M  V30 5487 H 514.987 -1.03131 1.34767 0
M  V30 5488 H 513.759 -2.63327 2.89439 0
M  V30 5489 H 513.382 -3.67044 1.52854 0
M  V30 5490 N 514.379 -1.04941 -1.1758 0
M  V30 5491 C 515.342 -0.652456 -2.19717 0
M  V30 5492 C 516.342 0.294745 -1.58076 0
M  V30 5493 O 517.532 0.0789579 -1.74021 0
M  V30 5494 C 514.664 0.0420712 -3.40874 0
M  V30 5495 H 515.857 -1.55642 -2.5635 0
M  V30 5496 H 513.41 -0.842995 -1.31618 0
M  V30 5497 H 514.145 0.95943 -3.09783 0
M  V30 5498 H 513.93 -0.638844 -3.86861 0
M  V30 5499 H 515.42 0.306 -4.16477 0
M  V30 5500 N 515.857 1.33968 -0.830081 0
M  V30 5501 C 517.104 1.98063 -0.421566 0
M  V30 5502 C 517.432 1.65787 1.0171 0
M  V30 5503 O 516.687 0.925348 1.72441 0
M  V30 5504 C 516.986 3.52679 -0.57898 0
M  V30 5505 C 516.652 4.04884 -1.98443 0
M  V30 5506 C 515.314 4.18852 -2.36888 0
M  V30 5507 C 517.666 4.32879 -2.90285 0
M  V30 5508 C 514.994 4.58145 -3.66497 0
M  V30 5509 C 517.346 4.7362 -4.19364 0
M  V30 5510 C 516.01 4.85794 -4.57778 0
M  V30 5511 H 515.28 0.724765 -0.154262 0
M  V30 5512 H 517.927 1.59792 -1.05541 0
M  V30 5513 H 516.232 3.91556 0.138219 0
M  V30 5514 H 517.929 4.00261 -0.243317 0
M  V30 5515 H 514.519 3.9448 -1.67581 0
M  V30 5516 H 518.703 4.21619 -2.61823 0
M  V30 5517 H 513.959 4.65762 -3.96075 0
M  V30 5518 H 518.133 4.9424 -4.90612 0
M  V30 5519 H 515.76 5.15998 -5.58256 0
M  V30 5520 N 517.335 0.585699 1.46312 0
M  V30 5521 C 518.283 -0.158577 2.32059 0
M  V30 5522 C 519.277 -0.881427 1.44662 0
M  V30 5523 O 520.483 -0.799476 1.61271 0
M  V30 5524 H 516.858 -0.0700066 0.748734 0
M  V30 5525 H 518.829 0.583383 2.92642 0
M  V30 5526 C 517.578 -1.15701 3.27885 0
M  V30 5527 H 516.901 -0.610215 3.95116 0
M  V30 5528 H 518.341 -1.64812 3.90657 0
M  V30 5529 C 516.8 -2.21951 2.53455 0
M  V30 5530 O 517.33 -3.29352 2.29978 0
M  V30 5531 N 515.536 -1.9664 2.13965 0
M  V30 5532 H 515.083 -1.09309 2.33258 0
M  V30 5533 H 515.041 -2.6794 1.64485 0
M  V30 5534 N 518.813 -1.54241 0.323641 0
M  V30 5535 C 520.224 -1.85975 -0.164405 0
M  V30 5536 C 520.575 -1.24529 -1.51615 0
M  V30 5537 O 519.7 -0.551351 -2.09258 0
M  V30 5538 C 520.295 -3.37424 -0.305091 0
M  V30 5539 C 518.854 -3.69107 -0.737358 0
M  V30 5540 C 518.001 -2.76942 0.140884 0
M  V30 5541 H 520.952 -1.49088 0.543922 0
M  V30 5542 H 520.973 -3.63147 -1.13598 0
M  V30 5543 H 520.485 -3.82116 0.678876 0
M  V30 5544 H 518.586 -3.29947 -1.73107 0
M  V30 5545 H 518.699 -4.76035 -0.541053 0
M  V30 5546 H 517.063 -2.51795 -0.383572 0
M  V30 5547 H 517.846 -3.24461 1.12162 0
M  V30 5548 N 520.291 -0.0518155 -1.57515 0
M  V30 5549 C 521.531 0.625712 -1.94587 0
M  V30 5550 C 521.895 1.6797 -0.930053 0
M  V30 5551 O 523.096 2.41135 -1.18774 0
M  V30 5552 C 521.367 1.20574 -3.36447 0
M  V30 5553 S 522.926 1.90118 -3.95475 0
M  V30 5554 H 519.744 0.205434 -0.680675 0
M  V30 5555 H 522.346 -0.120906 -1.95126 0
M  V30 5556 H 521.05 0.426521 -4.08178 0
M  V30 5557 H 520.581 1.98916 -3.39405 0
M  V30 5558 H 522.596 3.18184 -3.80753 0
M  V30 5559 N 521.769 1.56035 0.221574 0
M  V30 5560 C 522.679 1.95581 1.29558 0
M  V30 5561 C 523.695 0.859639 1.51282 0
M  V30 5562 O 524.871 1.16321 1.64413 0
M  V30 5563 C 521.936 2.26447 2.62531 0
M  V30 5564 C 520.997 3.49632 2.4911 0
M  V30 5565 C 520.23 3.79017 3.75742 0
M  V30 5566 O 520.453 3.10077 4.78757 0
M  V30 5567 O 519.387 4.72507 3.72855 0
M  V30 5568 H 523.213 2.8711 0.990035 0
M  V30 5569 H 520.798 1.43244 0.424434 0
M  V30 5570 H 522.68 2.47494 3.41064 0
M  V30 5571 H 521.355 1.38092 2.92766 0
M  V30 5572 H 520.262 3.33864 1.68777 0
M  V30 5573 H 521.595 4.3837 2.23814 0
M  V30 5574 N 523.247 -0.488276 1.49845 0
M  V30 5575 C 524.524 -1.24959 1.50481 0
M  V30 5576 C 524.904 -2.09735 0.239698 0
M  V30 5577 O 524.252 -2.14865 -0.777524 0
M  V30 5578 C 524.462 -2.0954 2.79095 0
M  V30 5579 C 525.81 -2.68305 3.29086 0
M  V30 5580 O 526.834 -2.19797 2.80299 0
M  V30 5581 O 525.693 -3.56643 4.14087 0
M  V30 5582 H 522.787 -0.566133 0.602845 0
M  V30 5583 H 525.333 -0.501504 1.6212 0
M  V30 5584 H 524.105 -1.46958 3.62656 0
M  V30 5585 H 523.728 -2.91517 2.70377 0
M  V30 5586 N 524.725 -1.39134 -0.740242 0
M  V30 5587 C 525.974 -1.35384 -1.49512 0
M  V30 5588 C 526.287 0.04919 -1.95538 0
M  V30 5589 O 527.493 0.209257 -2.70692 0
M  V30 5590 C 525.949 -2.37812 -2.70136 0
M  V30 5591 C 525.557 -3.83804 -2.31081 0
M  V30 5592 C 527.301 -2.4313 -3.47977 0
M  V30 5593 C 525.208 -4.77886 -3.48395 0
M  V30 5594 H 524.138 -0.503297 -0.561434 0
M  V30 5595 H 526.789 -1.64754 -0.807974 0
M  V30 5596 H 525.171 -2.01505 -3.40899 0
M  V30 5597 H 526.345 -4.29123 -1.67898 0
M  V30 5598 H 524.66 -3.81732 -1.66343 0
M  V30 5599 H 527.257 -3.10614 -4.35228 0
M  V30 5600 H 527.6 -1.45423 -3.90074 0
M  V30 5601 H 528.133 -2.78304 -2.84239 0
M  V30 5602 H 524.872 -5.76836 -3.11353 0
M  V30 5603 H 524.392 -4.3725 -4.10576 0
M  V30 5604 H 526.071 -4.96538 -4.148 0
M  V30 5605 N 526.204 0.969867 -1.24223 0
M  V30 5606 C 527.137 2.06279 -0.975926 0
M  V30 5607 C 528.115 1.62353 0.0895385 0
M  V30 5608 O 529.299 1.88442 -0.0469418 0
M  V30 5609 C 526.426 3.35391 -0.472315 0
M  V30 5610 C 525.472 3.98266 -1.526 0
M  V30 5611 S 526.305 4.36172 -3.10667 0
M  V30 5612 C 527.461 5.68423 -2.62003 0
M  V30 5613 H 527.694 2.28551 -1.90137 0
M  V30 5614 H 525.227 1.10748 -1.07584 0
M  V30 5615 H 527.185 4.10068 -0.188376 0
M  V30 5616 H 525.846 3.1111 0.432378 0
M  V30 5617 H 525.039 4.91307 -1.12399 0
M  V30 5618 H 524.641 3.30009 -1.75983 0
M  V30 5619 H 526.933 6.45842 -2.0468 0
M  V30 5620 H 527.876 6.13478 -3.53625 0
M  V30 5621 H 528.284 5.26928 -2.02502 0
M  V30 5622 N 527.682 1.05563 1.17022 0
M  V30 5623 C 528.93 0.76642 1.87004 0
M  V30 5624 C 529.251 -0.708854 1.8166 0
M  V30 5625 O 528.521 -1.51242 1.2451 0
M  V30 5626 H 527.101 0.280516 0.692329 0
M  V30 5627 H 529.763 1.33557 1.41945 0
M  V30 5628 H 528.859 1.08472 2.92644 0
M  V30 5629 N 529.16 -1.33526 0.837174 0
M  V30 5630 C 530.39 -2.01754 0.444848 0
M  V30 5631 C 530.798 -1.63149 -0.958072 0
M  V30 5632 O 530.141 -0.839827 -1.63379 0
M  V30 5633 C 530.203 -3.56228 0.483917 0
M  V30 5634 C 529.867 -4.18205 1.84265 0
M  V30 5635 C 530.864 -4.37699 2.80563 0
M  V30 5636 C 528.549 -4.54667 2.13503 0
M  V30 5637 C 530.543 -4.928 4.04261 0
M  V30 5638 C 528.23 -5.09475 3.37458 0
M  V30 5639 C 529.228 -5.28488 4.32654 0
M  V30 5640 O 528.916 -5.82132 5.54417 0
M  V30 5641 H 528.648 -0.652928 0.175104 0
M  V30 5642 H 531.202 -1.71469 1.13082 0
M  V30 5643 H 529.432 -3.85833 -0.258826 0
M  V30 5644 H 531.121 -4.05752 0.109653 0
M  V30 5645 H 531.887 -4.0988 2.59274 0
M  V30 5646 H 527.766 -4.39164 1.40201 0
M  V30 5647 H 531.31 -5.07555 4.78574 0
M  V30 5648 H 527.207 -5.36725 3.58604 0
M  V30 5649 H 527.975 -6.00548 5.56133 0
M  V30 5650 N 530.638 -0.59345 -1.46 0
M  V30 5651 C 531.915 -0.0157933 -1.95594 0
M  V30 5652 C 532.295 1.44807 -1.53604 0
M  V30 5653 O 531.643 2.14342 -0.791824 0
M  V30 5654 C 531.853 -0.199081 -3.48432 0
M  V30 5655 C 533.201 -0.0724943 -4.24538 0
M  V30 5656 O 534.225 -0.128469 -3.55968 0
M  V30 5657 O 533.084 0.0542426 -5.46473 0
M  V30 5658 H 530.178 0.043749 -0.825842 0
M  V30 5659 H 532.724 -0.662522 -1.56233 0
M  V30 5660 H 531.496 -1.21631 -3.71916 0
M  V30 5661 H 531.119 0.483576 -3.94648 0
M  V30 5662 N 532.116 1.54067 -0.331816 0
M  V30 5663 C 533.363 2.00715 0.268269 0
M  V30 5664 C 533.691 1.21986 1.51491 0
M  V30 5665 O 532.946 0.292309 1.93505 0
M  V30 5666 C 533.245 3.51634 0.639392 0
M  V30 5667 C 532.911 4.48018 -0.509019 0
M  V30 5668 C 531.573 4.74089 -0.824209 0
M  V30 5669 C 533.925 5.05237 -1.28003 0
M  V30 5670 C 531.253 5.54637 -1.91298 0
M  V30 5671 C 533.605 5.86972 -2.35895 0
M  V30 5672 C 532.269 6.11342 -2.67987 0
M  V30 5673 H 531.539 0.734469 0.0981667 0
M  V30 5674 H 534.186 1.8596 -0.457304 0
M  V30 5675 H 532.491 3.6416 1.44551 0
M  V30 5676 H 534.188 3.85175 1.11539 0
M  V30 5677 H 530.778 4.27851 -0.253287 0
M  V30 5678 H 534.962 4.8507 -1.04978 0
M  V30 5679 H 530.218 5.71747 -2.16599 0
M  V30 5680 H 534.392 6.30327 -2.96076 0
M  V30 5681 H 532.019 6.73544 -3.5248 0
M  V30 5682 N 533.594 0.0601682 1.57485 0
M  V30 5683 C 534.524 -0.90889 2.15085 0
M  V30 5684 C 535.505 -1.31838 1.07484 0
M  V30 5685 O 536.69 -1.3915 1.35466 0
M  V30 5686 C 533.82 -2.18059 2.7031 0
M  V30 5687 C 532.774 -1.91088 3.82974 0
M  V30 5688 C 532.1 -3.24789 4.24754 0
M  V30 5689 C 533.4 -1.22535 5.07723 0
M  V30 5690 H 535.094 -0.429093 2.96309 0
M  V30 5691 H 532.64 -0.204952 1.42534 0
M  V30 5692 H 534.593 -2.86258 3.09248 0
M  V30 5693 H 533.317 -2.6826 1.8629 0
M  V30 5694 H 531.976 -1.25297 3.44523 0
M  V30 5695 H 531.624 -3.72809 3.37672 0
M  V30 5696 H 531.324 -3.07538 5.00694 0
M  V30 5697 H 532.848 -3.94205 4.66299 0
M  V30 5698 H 534.262 -1.80783 5.4405 0
M  V30 5699 H 532.659 -1.1558 5.88864 0
M  V30 5700 H 533.729 -0.202692 4.84476 0
M  V30 5701 N 535.072 -1.5615 -0.213296 0
M  V30 5702 C 536.488 -1.49327 -0.56336 0
M  V30 5703 C 536.688 -0.756826 -1.86747 0
M  V30 5704 O 535.744 -0.299866 -2.50713 0
M  V30 5705 C 537.057 -2.9392 -0.634944 0
M  V30 5706 C 538.605 -3.04487 -0.725013 0
M  V30 5707 C 539.08 -4.50456 -0.82787 0
M  V30 5708 N 540.571 -4.54533 -0.891876 0
M  V30 5709 C 541.306 -5.64766 -0.991315 0
M  V30 5710 N 540.802 -6.84733 -1.05419 0
M  V30 5711 N 542.595 -5.52637 -1.02709 0
M  V30 5712 H 534.746 -2.02453 0.642366 0
M  V30 5713 H 537.009 -0.920548 0.226487 0
M  V30 5714 H 536.715 -3.50783 0.253859 0
M  V30 5715 H 536.589 -3.46274 -1.49579 0
M  V30 5716 H 538.976 -2.47685 -1.60425 0
M  V30 5717 H 539.057 -2.55289 0.161669 0
M  V30 5718 H 538.701 -5.07878 0.0469464 0
M  V30 5719 H 538.631 -4.97369 -1.73009 0
M  V30 5720 H 541.122 -3.68141 -0.85327 0
M  V30 5721 H 541.435 -7.64493 -1.13007 0
M  V30 5722 H 539.78 -6.87427 -1.02318 0
M  V30 5723 H 542.971 -4.5784 -0.974687 0
M  V30 5724 H 543.144 -6.38576 -1.10113 0
M  V30 5725 N 536.55 0.480323 -1.50102 0
M  V30 5726 C 537.796 1.23489 -1.60867 0
M  V30 5727 C 538.129 1.91809 -0.303827 0
M  V30 5728 O 537.404 1.81694 0.694092 0
M  V30 5729 C 537.687 2.28578 -2.78252 0
M  V30 5730 C 537.54 1.64624 -4.18592 0
M  V30 5731 C 538.859 3.2997 -2.91218 0
M  V30 5732 H 535.978 0.447605 -0.585507 0
M  V30 5733 H 538.62 0.530005 -1.82458 0
M  V30 5734 H 536.77 2.88697 -2.59974 0
M  V30 5735 H 538.442 1.08173 -4.48438 0
M  V30 5736 H 536.685 0.949645 -4.23278 0
M  V30 5737 H 537.356 2.40946 -4.96638 0
M  V30 5738 H 539.832 2.79864 -3.07921 0
M  V30 5739 H 538.708 4.00839 -3.74993 0
M  V30 5740 H 538.969 3.93541 -2.0144 0
M  V30 5741 N 538.028 1.39524 0.732853 0
M  V30 5742 C 538.958 1.41153 1.86005 0
M  V30 5743 C 539.939 0.274614 1.67869 0
M  V30 5744 O 541.124 0.480745 1.88155 0
M  V30 5745 C 538.254 1.25638 3.23778 0
M  V30 5746 C 537.208 2.36752 3.56556 0
M  V30 5747 C 536.534 2.06326 4.93289 0
M  V30 5748 C 537.834 3.79069 3.5931 0
M  V30 5749 H 539.528 2.35484 1.84899 0
M  V30 5750 H 537.074 1.13348 0.888162 0
M  V30 5751 H 539.027 1.25398 4.0231 0
M  V30 5752 H 537.751 0.277772 3.25417 0
M  V30 5753 H 536.41 2.36213 2.80355 0
M  V30 5754 H 536.058 1.06897 4.9151 0
M  V30 5755 H 535.758 2.80757 5.16187 0
M  V30 5756 H 537.282 2.07739 5.74175 0
M  V30 5757 H 538.696 3.81526 4.27914 0
M  V30 5758 H 537.093 4.52878 3.93728 0
M  V30 5759 H 538.163 4.09893 2.59068 0
M  V30 5760 N 539.506 -0.963266 1.24736 0
M  V30 5761 C 540.755 -1.70115 1.08369 0
M  V30 5762 C 541.068 -1.91939 -0.376688 0
M  V30 5763 O 542.274 -2.6334 -0.660624 0
M  V30 5764 C 540.73 -3.06218 1.89099 0
M  V30 5765 C 540.338 -2.92221 3.39574 0
M  V30 5766 C 542.082 -3.83848 1.81275 0
M  V30 5767 C 539.989 -4.23662 4.12631 0
M  V30 5768 H 538.919 -0.637944 0.401924 0
M  V30 5769 H 541.57 -1.07304 1.48856 0
M  V30 5770 H 539.952 -3.69884 1.41429 0
M  V30 5771 H 541.126 -2.37541 3.94856 0
M  V30 5772 H 539.441 -2.28054 3.48397 0
M  V30 5773 H 542.038 -4.81188 2.33158 0
M  V30 5774 H 542.381 -4.08949 0.778895 0
M  V30 5775 H 542.914 -3.26918 2.26649 0
M  V30 5776 H 539.653 -4.03753 5.16395 0
M  V30 5777 H 539.173 -4.78141 3.62135 0
M  V30 5778 H 540.852 -4.92256 4.19873 0
M  V30 5779 N 540.985 -1.06182 -1.16461 0
M  V30 5780 C 542.231 -0.788825 -1.87481 0
M  V30 5781 C 542.586 0.677298 -1.80085 0
M  V30 5782 O 541.879 1.48976 -1.20486 0
M  V30 5783 C 542.073 -1.21633 -3.36066 0
M  V30 5784 C 541.902 -2.72247 -3.57927 0
M  V30 5785 C 540.672 -3.39696 -3.74079 0
M  V30 5786 C 542.87 -3.70461 -3.56739 0
M  V30 5787 N 540.852 -4.79072 -3.83879 0
M  V30 5788 C 542.223 -4.95616 -3.72511 0
M  V30 5789 C 544.278 -3.63788 -3.39945 0
M  V30 5790 C 542.981 -6.14895 -3.73225 0
M  V30 5791 C 545.007 -4.82517 -3.41953 0
M  V30 5792 C 544.369 -6.065 -3.58242 0
M  V30 5793 H 540.468 -0.341034 -0.703719 0
M  V30 5794 H 543.052 -1.35575 -1.39741 0
M  V30 5795 H 541.223 -0.67725 -3.8245 0
M  V30 5796 H 542.955 -0.892119 -3.94745 0
M  V30 5797 H 539.71 -2.90097 -3.74354 0
M  V30 5798 H 540.134 -5.51573 -3.92551 0
M  V30 5799 H 544.776 -2.68888 -3.26281 0
M  V30 5800 H 542.494 -7.10129 -3.85672 0
M  V30 5801 H 546.08 -4.79017 -3.30203 0
M  V30 5802 H 544.96 -6.96833 -3.59712 0
M  V30 5803 N 542.463 1.3308 -0.844243 0
M  V30 5804 C 543.393 2.3161 -0.296493 0
M  V30 5805 C 544.374 1.59215 0.598707 0
M  V30 5806 O 545.559 1.87077 0.521134 0
M  V30 5807 C 542.689 3.43313 0.524762 0
M  V30 5808 C 541.643 4.27115 -0.275106 0
M  V30 5809 C 540.969 5.30483 0.670236 0
M  V30 5810 C 542.269 5.00443 -1.49514 0
M  V30 5811 H 543.963 2.77672 -1.11976 0
M  V30 5812 H 541.509 1.33496 -0.539899 0
M  V30 5813 H 543.462 4.11273 0.918298 0
M  V30 5814 H 542.186 2.95952 1.3813 0
M  V30 5815 H 540.845 3.60787 -0.650267 0
M  V30 5816 H 540.493 4.79379 1.52332 0
M  V30 5817 H 540.193 5.87435 0.139123 0
M  V30 5818 H 541.717 6.01308 1.06117 0
M  V30 5819 H 543.131 5.61141 -1.17447 0
M  V30 5820 H 541.528 5.67071 -1.96343 0
M  V30 5821 H 542.598 4.28906 -2.26202 0
M  V30 5822 N 543.941 0.601185 1.45683 0
M  V30 5823 C 545.19 0.0914953 2.01492 0
M  V30 5824 C 545.503 -1.28331 1.47616 0
M  V30 5825 O 546.709 -1.88537 1.95362 0
M  V30 5826 C 545.165 0.11291 3.59723 0
M  V30 5827 C 544.773 1.48717 4.22596 0
M  V30 5828 C 546.517 -0.341871 4.23121 0
M  V30 5829 C 544.424 1.46531 5.7296 0
M  V30 5830 H 543.354 0.0304365 0.753385 0
M  V30 5831 H 546.005 0.755568 1.67223 0
M  V30 5832 H 544.387 -0.617692 3.91153 0
M  V30 5833 H 545.561 2.23897 4.02749 0
M  V30 5834 H 543.876 1.88351 3.71366 0
M  V30 5835 H 546.473 -0.377304 5.33367 0
M  V30 5836 H 546.816 -1.36325 3.93346 0
M  V30 5837 H 547.349 0.335256 3.96385 0
M  V30 5838 H 544.088 2.46408 6.07423 0
M  V30 5839 H 543.608 0.755997 5.95017 0
M  V30 5840 H 545.287 1.18618 6.36034 0
M  V30 5841 N 545.419 -1.53889 0.339982 0
M  V30 5842 C 546.367 -2.26391 -0.533822 0
M  V30 5843 C 547.361 -1.28404 -1.10493 0
M  V30 5844 O 548.567 -1.46124 -1.05108 0
M  V30 5845 H 544.942 -0.727385 -0.190828 0
M  V30 5846 H 546.913 -2.98233 0.0997484 0
M  V30 5847 C 545.662 -3.04707 -1.67479 0
M  V30 5848 H 544.985 -3.79934 -1.2446 0
M  V30 5849 H 546.425 -3.58657 -2.26144 0
M  V30 5850 C 544.884 -2.13989 -2.60212 0
M  V30 5851 O 545.414 -1.73361 -3.62366 0
M  V30 5852 N 543.62 -1.79141 -2.28816 0
M  V30 5853 H 543.167 -2.12378 -1.45785 0
M  V30 5854 H 543.125 -1.18725 -2.91121 0
M  V30 5855 N 546.897 -0.0685191 -1.57451 0
M  V30 5856 C 548.146 0.600898 -1.92541 0
M  V30 5857 C 548.459 1.70967 -0.950239 0
M  V30 5858 O 549.665 2.43844 -1.19384 0
M  V30 5859 C 548.121 1.12019 -3.42023 0
M  V30 5860 C 547.729 0.0426028 -4.4798 0
M  V30 5861 C 549.473 1.76386 -3.86119 0
M  V30 5862 C 547.38 0.575759 -5.88591 0
M  V30 5863 H 546.31 0.228225 -0.71863 0
M  V30 5864 H 548.961 -0.140223 -1.82963 0
M  V30 5865 H 547.343 1.91418 -3.46663 0
M  V30 5866 H 548.517 -0.73182 -4.54952 0
M  V30 5867 H 546.832 -0.504642 -4.13331 0
M  V30 5868 H 549.429 2.17302 -4.88553 0
M  V30 5869 H 549.772 2.62255 -3.23308 0
M  V30 5870 H 550.305 1.03615 -3.84069 0
M  V30 5871 H 547.044 -0.245691 -6.55039 0
M  V30 5872 H 546.564 1.31778 -5.85145 0
M  V30 5873 H 548.243 1.0532 -6.3837 0
M  V30 5874 N 548.375 1.56261 0.205012 0
M  V30 5875 C 549.305 1.96779 1.257 0
M  V30 5876 C 550.286 0.838309 1.48008 0
M  V30 5877 O 551.471 1.10189 1.59913 0
M  V30 5878 C 548.601 2.29876 2.60335 0
M  V30 5879 C 547.555 3.45469 2.52656 0
M  V30 5880 C 546.881 3.64215 3.91473 0
M  V30 5881 C 548.181 4.79954 2.06014 0
M  V30 5882 H 549.875 2.84904 0.920338 0
M  V30 5883 H 547.421 1.37072 0.441277 0
M  V30 5884 H 549.374 2.56814 3.34102 0
M  V30 5885 H 548.098 1.38622 2.95722 0
M  V30 5886 H 546.757 3.18605 1.81345 0
M  V30 5887 H 546.405 2.70309 4.24196 0
M  V30 5888 H 546.105 4.41973 3.87213 0
M  V30 5889 H 547.629 3.93519 4.66878 0
M  V30 5890 H 549.043 5.05989 2.69533 0
M  V30 5891 H 547.44 5.61111 2.12777 0
M  V30 5892 H 548.51 4.74201 1.01297 0
M  V30 5893 N 549.853 -0.472356 1.50355 0
M  V30 5894 C 550.816 -1.5529 1.68576 0
M  V30 5895 C 551.816 -1.50863 0.556511 0
M  V30 5896 O 553.006 -1.53505 0.823516 0
M  V30 5897 C 550.138 -2.94921 1.70981 0
M  V30 5898 H 551.331 -1.40451 2.64978 0
M  V30 5899 H 548.884 -0.698645 1.39816 0
M  V30 5900 H 549.619 -3.15204 0.762675 0
M  V30 5901 H 549.404 -2.99541 2.53017 0
M  V30 5902 H 550.894 -3.73372 1.87037 0
M  V30 5903 N 551.331 -1.39911 -0.725443 0
M  V30 5904 C 552.58 -1.36963 -1.48068 0
M  V30 5905 C 552.893 0.0284478 -1.95579 0
M  V30 5906 O 554.099 0.180535 -2.70899 0
M  V30 5907 C 552.555 -2.40664 -2.67598 0
M  V30 5908 C 552.163 -3.86234 -2.26997 0
M  V30 5909 C 553.907 -2.46807 -3.45379 0
M  V30 5910 C 551.814 -4.81554 -3.43307 0
M  V30 5911 H 550.744 -0.509223 -0.556065 0
M  V30 5912 H 553.395 -1.65602 -0.790454 0
M  V30 5913 H 551.777 -2.05109 -3.38742 0
M  V30 5914 H 552.951 -4.3088 -1.63337 0
M  V30 5915 H 551.266 -3.83475 -1.62284 0
M  V30 5916 H 553.863 -3.15213 -4.31909 0
M  V30 5917 H 554.206 -1.49552 -3.8851 0
M  V30 5918 H 554.739 -2.81303 -2.81271 0
M  V30 5919 H 551.478 -5.80106 -3.05217 0
M  V30 5920 H 550.998 -4.4158 -4.05915 0
M  V30 5921 H 552.677 -5.0091 -4.0951 0
M  V30 5922 N 552.809 0.956637 -1.25245 0
M  V30 5923 C 553.742 2.05232 -0.99775 0
M  V30 5924 C 554.72 1.62439 0.0723137 0
M  V30 5925 O 555.904 1.88381 -0.066926 0
M  V30 5926 C 553.031 3.34871 -0.507861 0
M  V30 5927 C 552.077 3.96625 -1.56815 0
M  V30 5928 S 552.91 4.32853 -3.15276 0
M  V30 5929 C 554.066 5.65613 -2.68017 0
M  V30 5930 H 554.299 2.26521 -1.9255 0
M  V30 5931 H 551.832 1.09601 -1.08752 0
M  V30 5932 H 553.79 4.09845 -0.231858 0
M  V30 5933 H 552.451 3.11551 0.399356 0
M  V30 5934 H 551.644 4.90087 -1.17604 0
M  V30 5935 H 551.246 3.28124 -1.79473 0
M  V30 5936 H 553.538 6.43635 -2.11518 0
M  V30 5937 H 554.481 6.09693 -3.60112 0
M  V30 5938 H 554.889 5.24751 -2.0808 0
M  V30 5939 N 554.287 1.06798 1.15896 0
M  V30 5940 C 555.535 0.786211 1.8618 0
M  V30 5941 C 555.856 -0.689547 1.82401 0
M  V30 5942 O 555.126 -1.49913 1.26107 0
M  V30 5943 H 553.706 0.287843 0.689315 0
M  V30 5944 H 556.368 1.35055 1.40521 0
M  V30 5945 H 555.464 1.1157 2.91477 0
M  V30 5946 N 555.766 -1.3263 0.851289 0
M  V30 5947 C 556.714 -2.30882 0.282202 0
M  V30 5948 C 557.708 -1.58697 -0.592589 0
M  V30 5949 O 558.914 -1.73461 -0.480768 0
M  V30 5950 H 555.289 -0.748492 0.0725487 0
M  V30 5951 H 557.26 -2.76374 1.12516 0
M  V30 5952 C 556.009 -3.43828 -0.517449 0
M  V30 5953 H 555.332 -3.99532 0.146392 0
M  V30 5954 H 556.772 -4.1474 -0.88128 0
M  V30 5955 C 555.231 -2.90786 -1.70133 0
M  V30 5956 O 555.761 -2.88 -2.80034 0
M  V30 5957 N 553.967 -2.4723 -1.52728 0
M  V30 5958 H 553.514 -2.49695 -0.633257 0
M  V30 5959 H 553.472 -2.12094 -2.32085 0
M  V30 5960 N 557.244 -0.608902 -1.45362 0
M  V30 5961 C 558.177 0.158059 -2.27652 0
M  V30 5962 C 559.155 0.872397 -1.37215 0
M  V30 5963 O 560.339 0.881002 -1.66645 0
M  V30 5964 C 557.466 1.22896 -3.15617 0
M  V30 5965 C 556.512 0.617607 -4.22005 0
M  V30 5966 S 557.345 -0.575518 -5.32398 0
M  V30 5967 C 558.501 0.495938 -6.23932 0
M  V30 5968 H 558.734 -0.540095 -2.92353 0
M  V30 5969 H 556.267 -0.396456 -1.49223 0
M  V30 5970 H 558.225 1.84195 -3.66855 0
M  V30 5971 H 556.886 1.89919 -2.50179 0
M  V30 5972 H 556.079 1.42341 -4.83482 0
M  V30 5973 H 555.681 0.0797273 -3.73915 0
M  V30 5974 H 557.973 1.37465 -6.63408 0
M  V30 5975 H 558.916 -0.0827108 -7.08052 0
M  V30 5976 H 559.324 0.811856 -5.58631 0
M  V30 5977 N 558.722 1.53707 -0.348139 0
M  V30 5978 C 559.95 2.05406 0.248224 0
M  V30 5979 C 560.365 1.22282 1.43849 0
M  V30 5980 O 559.722 0.259244 1.80649 0
M  V30 5981 C 559.773 3.55446 0.658793 0
M  V30 5982 O 559.494 4.35417 -0.484149 0
M  V30 5983 C 560.995 4.23335 1.31539 0
M  V30 5984 H 558.215 0.669344 0.0471075 0
M  V30 5985 H 560.759 1.98257 -0.501456 0
M  V30 5986 H 558.914 3.62803 1.35841 0
M  V30 5987 H 559.328 5.24268 -0.155949 0
M  V30 5988 H 560.802 5.29692 1.55338 0
M  V30 5989 H 561.279 3.75967 2.27036 0
M  V30 5990 H 561.885 4.20184 0.657683 0
M  V30 5991 N 560.2 0.0768682 1.57412 0
M  V30 5992 C 561.446 -0.591961 1.93968 0
M  V30 5993 C 561.779 -1.68954 0.9575 0
M  V30 5994 O 561.054 -1.94496 -0.0124675 0
M  V30 5995 C 561.337 -1.16418 3.40762 0
M  V30 5996 C 561.19 -0.0728933 4.49741 0
M  V30 5997 C 562.509 -2.06814 3.88479 0
M  V30 5998 H 559.628 -0.213716 0.705333 0
M  V30 5999 H 562.27 0.14387 1.89455 0
M  V30 6000 H 560.42 -1.79128 3.4474 0
M  V30 6001 H 562.092 0.560446 4.57883 0
M  V30 6002 H 560.335 0.595859 4.29688 0
M  V30 6003 H 561.006 -0.513755 5.49604 0
M  V30 6004 H 563.482 -1.54033 3.8654 0
M  V30 6005 H 562.358 -2.43785 4.91793 0
M  V30 6006 H 562.619 -2.97844 3.26713 0
M  V30 6007 N 561.678 -1.56367 -0.196722 0
M  V30 6008 C 562.608 -1.97442 -1.24655 0
M  V30 6009 C 563.589 -0.846147 -1.47561 0
M  V30 6010 O 564.774 -1.11035 -1.59326 0
M  V30 6011 C 561.904 -2.31253 -2.59112 0
M  V30 6012 C 560.858 -3.46804 -2.50821 0
M  V30 6013 C 560.184 -3.66286 -3.89536 0
M  V30 6014 C 561.484 -4.8104 -2.03465 0
M  V30 6015 H 563.178 -2.85388 -0.905216 0
M  V30 6016 H 560.724 -1.37304 -0.434002 0
M  V30 6017 H 562.677 -2.58583 -3.32736 0
M  V30 6018 H 561.401 -1.40188 -2.94983 0
M  V30 6019 H 560.06 -3.19563 -1.79653 0
M  V30 6020 H 559.708 -2.72555 -4.22756 0
M  V30 6021 H 559.408 -4.4402 -3.84864 0
M  V30 6022 H 560.932 -3.9599 -4.64784 0
M  V30 6023 H 562.346 -5.07411 -2.66846 0
M  V30 6024 H 560.743 -5.62232 -2.09798 0
M  V30 6025 H 561.813 -4.74732 -0.98781 0
M  V30 6026 N 563.156 0.464375 -1.50603 0
M  V30 6027 C 564.403 1.21596 -1.61928 0
M  V30 6028 C 564.731 1.91804 -0.322737 0
M  V30 6029 O 563.986 1.83065 0.691776 0
M  V30 6030 C 564.285 2.278 -2.75394 0
M  V30 6031 C 563.951 1.74797 -4.1564 0
M  V30 6032 C 562.613 1.60063 -4.53799 0
M  V30 6033 C 564.965 1.35548 -5.03266 0
M  V30 6034 C 562.293 1.04514 -5.77316 0
M  V30 6035 C 564.645 0.814381 -6.27336 0
M  V30 6036 C 563.309 0.653726 -6.64291 0
M  V30 6037 H 562.579 0.444951 -0.592536 0
M  V30 6038 H 565.226 0.510964 -1.84557 0
M  V30 6039 H 563.531 3.04233 -2.46879 0
M  V30 6040 H 565.228 2.85723 -2.81359 0
M  V30 6041 H 561.818 1.87234 -3.8554 0
M  V30 6042 H 566.002 1.45763 -4.74412 0
M  V30 6043 H 561.258 0.908186 -6.04617 0
M  V30 6044 H 565.432 0.501626 -6.94591 0
M  V30 6045 H 563.059 0.22114 -7.59878 0
M  V30 6046 N 564.634 1.40294 0.718013 0
M  V30 6047 C 565.88 1.38645 1.48005 0
M  V30 6048 C 566.213 -0.0121202 1.94196 0
M  V30 6049 O 565.488 -0.980309 1.67989 0
M  V30 6050 C 565.771 2.37379 2.70782 0
M  V30 6051 C 565.624 3.8625 2.30501 0
M  V30 6052 C 566.943 2.33685 3.72933 0
M  V30 6053 H 564.062 0.504928 0.536858 0
M  V30 6054 H 566.704 1.71411 0.819649 0
M  V30 6055 H 564.854 2.09568 3.27129 0
M  V30 6056 H 566.526 4.24879 1.79655 0
M  V30 6057 H 564.769 4.02202 1.6253 0
M  V30 6058 H 565.44 4.50847 3.18498 0
M  V30 6059 H 567.916 2.58314 3.2621 0
M  V30 6060 H 566.792 3.0482 4.56482 0
M  V30 6061 H 567.053 1.34765 4.21059 0
M  V30 6062 N 566.112 -0.949982 1.2575 0
M  V30 6063 C 567.042 -2.06483 1.09028 0
M  V30 6064 C 568.023 -1.701 -0.00201532 0
M  V30 6065 O 569.208 -1.93469 0.168383 0
M  V30 6066 C 566.338 -3.39899 0.71316 0
M  V30 6067 C 565.292 -3.90309 1.75621 0
M  V30 6068 C 564.618 -5.20274 1.23365 0
M  V30 6069 C 565.918 -4.16169 3.15596 0
M  V30 6070 H 567.612 -2.20731 2.02283 0
M  V30 6071 H 565.158 -1.06066 0.973964 0
M  V30 6072 H 567.111 -4.17346 0.58309 0
M  V30 6073 H 565.835 -3.25602 -0.255091 0
M  V30 6074 H 564.494 -3.15035 1.8748 0
M  V30 6075 H 564.142 -5.02351 0.255491 0
M  V30 6076 H 563.842 -5.54971 1.93082 0
M  V30 6077 H 565.366 -6.00314 1.11607 0
M  V30 6078 H 566.78 -4.84259 3.06864 0
M  V30 6079 H 565.177 -4.62131 3.82825 0
M  V30 6080 H 566.247 -3.22273 3.6231 0
M  V30 6081 N 567.59 -1.07411 -1.15328 0
M  V30 6082 C 568.52 -0.716472 -2.22236 0
M  V30 6083 C 569.501 0.296373 -1.67498 0
M  V30 6084 O 570.686 0.168989 -1.93463 0
M  V30 6085 C 567.816 -0.114142 -3.47112 0
M  V30 6086 C 566.77 -1.05421 -4.14814 0
M  V30 6087 C 566.096 -0.314604 -5.33774 0
M  V30 6088 C 567.396 -2.38808 -4.64508 0
M  V30 6089 H 569.09 -1.61029 -2.52408 0
M  V30 6090 H 566.636 -0.775702 -1.21321 0
M  V30 6091 H 568.589 0.148001 -4.2114 0
M  V30 6092 H 567.313 0.814755 -3.16274 0
M  V30 6093 H 565.972 -1.30128 -3.42728 0
M  V30 6094 H 565.62 0.617772 -4.99192 0
M  V30 6095 H 565.32 -0.941209 -5.80013 0
M  V30 6096 H 566.844 -0.0602747 -6.1057 0
M  V30 6097 H 568.258 -2.18424 -5.3006 0
M  V30 6098 H 566.655 -2.97069 -5.21412 0
M  V30 6099 H 567.725 -3.01067 -3.80114 0
M  V30 6100 N 569.068 1.32177 -0.85831 0
M  V30 6101 C 570.296 2.01313 -0.477582 0
M  V30 6102 C 570.711 1.6449 0.926736 0
M  V30 6103 O 570.068 0.868096 1.60531 0
M  V30 6104 C 570.119 3.56293 -0.611337 0
M  V30 6105 O 569.84 3.91794 -1.96034 0
M  V30 6106 C 571.341 4.42702 -0.230093 0
M  V30 6107 H 568.561 0.644323 -0.187322 0
M  V30 6108 H 571.105 1.68674 -1.15626 0
M  V30 6109 H 569.26 3.87395 0.0196494 0
M  V30 6110 H 569.674 4.86513 -1.95973 0
M  V30 6111 H 571.148 5.50727 -0.374674 0
M  V30 6112 H 571.625 4.3129 0.829779 0
M  V30 6113 H 572.231 4.16997 -0.836302 0
M  V30 6114 N 570.547 0.616602 1.45037 0
M  V30 6115 C 571.772 0.120192 2.07051 0
M  V30 6116 C 572.197 -1.19008 1.45666 0
M  V30 6117 O 571.555 -1.7267 0.552692 0
M  V30 6118 C 571.603 0.00354901 3.606 0
M  V30 6119 O 570.707 -1.04431 3.98958 0
M  V30 6120 H 570.048 0.0781599 0.659384 0
M  V30 6121 H 572.578 0.849167 1.86146 0
M  V30 6122 H 572.588 -0.191754 4.07549 0
M  V30 6123 H 571.263 0.960239 4.04663 0
M  V30 6124 H 569.84 -0.824749 3.63665 0
M  V30 6125 N 572.025 -1.5352 0.356285 0
M  V30 6126 C 573.441 -1.59599 0.00485267 0
M  V30 6127 C 573.641 -1.37179 -1.47595 0
M  V30 6128 O 572.697 -1.17234 -2.23635 0
M  V30 6129 C 574.01 -2.97277 0.452454 0
M  V30 6130 C 575.558 -3.10357 0.405881 0
M  V30 6131 C 576.033 -4.50432 0.829148 0
M  V30 6132 N 577.524 -4.5652 0.783838 0
M  V30 6133 C 578.259 -5.63077 1.08315 0
M  V30 6134 N 577.755 -6.77429 1.45126 0
M  V30 6135 N 579.548 -5.53014 1.00655 0
M  V30 6136 H 571.699 -1.66346 1.32071 0
M  V30 6137 H 573.962 -0.77971 0.539218 0
M  V30 6138 H 573.668 -3.18792 1.48542 0
M  V30 6139 H 573.542 -3.76836 -0.165762 0
M  V30 6140 H 575.929 -2.88558 -0.617934 0
M  V30 6141 H 576.01 -2.32828 1.05947 0
M  V30 6142 H 575.654 -4.72968 1.85103 0
M  V30 6143 H 575.584 -5.26378 0.152906 0
M  V30 6144 H 578.075 -3.74408 0.512513 0
M  V30 6145 H 578.388 -7.54669 1.66415 0
M  V30 6146 H 576.733 -6.78844 1.48983 0
M  V30 6147 H 579.924 -4.62557 0.718215 0
M  V30 6148 H 580.097 -6.35964 1.24315 0
M  V30 6149 N 573.503 -0.0852151 -1.57369 0
M  V30 6150 C 574.733 0.588605 -1.98038 0
M  V30 6151 C 575.141 1.62869 -0.962817 0
M  V30 6152 O 574.484 1.83611 0.057134 0
M  V30 6153 C 574.546 1.30303 -3.35054 0
M  V30 6154 C 574.21 0.414855 -4.55113 0
M  V30 6155 C 575.207 -0.333011 -5.18832 0
M  V30 6156 C 572.892 0.335804 -5.01176 0
M  V30 6157 C 574.886 -1.14801 -6.26976 0
M  V30 6158 C 572.573 -0.482857 -6.09189 0
M  V30 6159 C 573.571 -1.22342 -6.71953 0
M  V30 6160 O 573.259 -2.02855 -7.77885 0
M  V30 6161 H 572.991 0.163249 -0.655992 0
M  V30 6162 H 575.545 -0.1582 -2.0479 0
M  V30 6163 H 573.775 2.0962 -3.24956 0
M  V30 6164 H 575.464 1.87041 -3.60237 0
M  V30 6165 H 576.23 -0.281611 -4.84182 0
M  V30 6166 H 572.109 0.901869 -4.52092 0
M  V30 6167 H 575.653 -1.72654 -6.75897 0
M  V30 6168 H 571.55 -0.535773 -6.43273 0
M  V30 6169 H 572.318 -1.95432 -7.94826 0
M  V30 6170 N 574.981 1.5647 0.188427 0
M  V30 6171 C 575.928 1.95073 1.23349 0
M  V30 6172 C 576.898 0.812238 1.44886 0
M  V30 6173 O 578.083 1.07095 1.57909 0
M  V30 6174 C 575.223 2.30124 2.57171 0
M  V30 6175 C 574.336 3.57069 2.43157 0
M  V30 6176 C 573.471 3.81411 3.69729 0
M  V30 6177 C 572.51 5.0176 3.50575 0
M  V30 6178 N 571.647 5.22321 4.69175 0
M  V30 6179 H 576.487 2.84171 0.89728 0
M  V30 6180 H 574.024 1.40623 0.431683 0
M  V30 6181 H 575.982 2.48463 3.35145 0
M  V30 6182 H 574.612 1.44159 2.88822 0
M  V30 6183 H 573.664 3.4674 1.56447 0
M  V30 6184 H 574.976 4.452 2.24942 0
M  V30 6185 H 574.13 4.00026 4.56141 0
M  V30 6186 H 572.869 2.91624 3.90905 0
M  V30 6187 H 571.874 4.83061 2.62549 0
M  V30 6188 H 573.099 5.93063 3.30837 0
M  V30 6189 H 571.045 4.35483 4.90602 0
M  V30 6190 H 570.962 6.04643 4.53809 0
M  V30 6191 H 572.23 5.45401 5.56919 0
M  V30 6192 N 576.459 -0.456382 1.50847 0
M  V30 6193 C 577.389 -1.56025 1.73719 0
M  V30 6194 C 578.37 -1.5967 0.586473 0
M  V30 6195 O 579.555 -1.75702 0.827185 0
M  V30 6196 C 576.685 -2.94251 1.84483 0
M  V30 6197 C 575.639 -3.05471 2.99786 0
M  V30 6198 C 574.965 -4.45489 2.95709 0
M  V30 6199 C 576.265 -2.81318 4.40065 0
M  V30 6200 H 577.959 -1.37138 2.66146 0
M  V30 6201 H 575.505 -0.658299 1.28072 0
M  V30 6202 H 577.458 -3.71417 1.99067 0
M  V30 6203 H 576.182 -3.14328 0.886891 0
M  V30 6204 H 574.841 -2.30741 2.84876 0
M  V30 6205 H 574.489 -4.62505 1.97732 0
M  V30 6206 H 574.189 -4.53929 3.73125 0
M  V30 6207 H 575.713 -5.24655 3.12362 0
M  V30 6208 H 577.127 -3.48226 4.55425 0
M  V30 6209 H 575.524 -3.01188 5.19043 0
M  V30 6210 H 576.594 -1.7706 4.51418 0
M  V30 6211 N 577.937 -1.40673 -0.710563 0
M  V30 6212 C 579.165 -1.42547 -1.4996 0
M  V30 6213 C 579.58 -0.0265485 -1.88781 0
M  V30 6214 O 578.937 0.950694 -1.55782 0
M  V30 6215 C 578.988 -2.32071 -2.77173 0
M  V30 6216 O 578.709 -3.66518 -2.39992 0
M  V30 6217 C 580.21 -2.42591 -3.71032 0
M  V30 6218 H 577.43 -0.486025 -0.462623 0
M  V30 6219 H 579.974 -1.84783 -0.876102 0
M  V30 6220 H 578.129 -1.93184 -3.35795 0
M  V30 6221 H 578.543 -4.14115 -3.21884 0
M  V30 6222 H 580.017 -3.09429 -4.57119 0
M  V30 6223 H 580.494 -1.4525 -4.14486 0
M  V30 6224 H 581.1 -2.82051 -3.18319 0
M  V30 6225 N 579.415 0.9433 -1.26252 0
M  V30 6226 C 580.661 1.69175 -1.11837 0
M  V30 6227 C 580.994 1.91238 0.337891 0
M  V30 6228 O 580.269 1.49152 1.24836 0
M  V30 6229 C 580.552 3.06783 -1.88563 0
M  V30 6230 C 580.405 2.9206 -3.42083 0
M  V30 6231 C 581.724 4.06865 -1.67776 0
M  V30 6232 H 578.843 0.61399 -0.407658 0
M  V30 6233 H 581.485 1.09572 -1.55222 0
M  V30 6234 H 579.635 3.57663 -1.51689 0
M  V30 6235 H 581.307 2.48419 -3.88698 0
M  V30 6236 H 579.55 2.27731 -3.69217 0
M  V30 6237 H 580.221 3.89651 -3.90994 0
M  V30 6238 H 582.697 3.64939 -1.99897 0
M  V30 6239 H 581.573 5.01168 -2.23879 0
M  V30 6240 H 581.834 4.37705 -0.621816 0
M  V30 6241 N 580.893 1.08022 1.14757 0
M  V30 6242 C 582.304 0.829144 1.67279 0
M  V30 6243 C 582.655 -0.644721 1.85305 0
M  V30 6244 O 581.78 -1.49838 1.56133 0
M  V30 6245 C 582.375 1.49855 3.03857 0
M  V30 6246 C 580.934 1.29482 3.53428 0
M  V30 6247 C 580.081 1.56386 2.28995 0
M  V30 6248 H 583.032 1.24134 0.988762 0
M  V30 6249 H 583.053 0.923572 3.69121 0
M  V30 6250 H 582.565 2.57123 2.90705 0
M  V30 6251 H 580.666 0.242669 3.71809 0
M  V30 6252 H 580.779 2.01974 4.34446 0
M  V30 6253 H 579.143 0.985217 2.34874 0
M  V30 6254 H 579.926 2.64851 2.18423 0
M  V30 6255 N 582.371 -1.3172 0.865308 0
M  V30 6256 C 583.787 -1.4958 0.556596 0
M  V30 6257 C 583.987 -1.79763 -0.910353 0
M  V30 6258 O 583.043 -1.87351 -1.6928 0
M  V30 6259 C 584.356 -2.63277 1.45279 0
M  V30 6260 C 585.904 -2.77161 1.45433 0
M  V30 6261 C 586.379 -3.93949 2.33598 0
M  V30 6262 N 587.87 -4.01228 2.31453 0
M  V30 6263 C 588.605 -4.90855 2.96393 0
M  V30 6264 N 588.101 -5.85416 3.70486 0
M  V30 6265 N 589.894 -4.84063 2.85726 0
M  V30 6266 H 582.045 -1.10396 1.81456 0
M  V30 6267 H 584.308 -0.54507 0.775631 0
M  V30 6268 H 584.014 -2.47734 2.49641 0
M  V30 6269 H 583.888 -3.59309 1.14792 0
M  V30 6270 H 586.275 -2.9212 0.41831 0
M  V30 6271 H 586.356 -1.8181 1.79941 0
M  V30 6272 H 586 -3.79748 3.37274 0
M  V30 6273 H 585.93 -4.88598 1.96417 0
M  V30 6274 H 588.421 -3.3357 1.77593 0
M  V30 6275 H 588.734 -6.50525 4.17178 0
M  V30 6276 H 587.079 -5.85409 3.74594 0
M  V30 6277 H 590.27 -4.09163 2.27384 0
M  V30 6278 H 590.443 -5.53708 3.36617 0
M  V30 6279 N 583.85 -0.624285 -1.44708 0
M  V30 6280 C 585.096 -0.126051 -2.02107 0
M  V30 6281 C 585.425 1.2496 -1.49048 0
M  V30 6282 O 584.68 1.84163 -0.662005 0
M  V30 6283 C 584.979 -0.0546353 -3.57358 0
M  V30 6284 C 584.644 -1.36815 -4.29642 0
M  V30 6285 C 583.307 -1.72792 -4.49106 0
M  V30 6286 C 585.659 -2.23549 -4.70824 0
M  V30 6287 C 582.986 -2.95222 -5.07012 0
M  V30 6288 C 585.339 -3.45243 -5.30085 0
M  V30 6289 C 584.003 -3.81452 -5.47769 0
M  V30 6290 H 583.273 -0.0461252 -0.739563 0
M  V30 6291 H 585.92 -0.809236 -1.73562 0
M  V30 6292 H 584.225 0.711891 -3.85278 0
M  V30 6293 H 585.922 0.347282 -3.99493 0
M  V30 6294 H 582.512 -1.07817 -4.14817 0
M  V30 6295 H 586.696 -1.9705 -4.55505 0
M  V30 6296 H 581.952 -3.23361 -5.18891 0
M  V30 6297 H 586.125 -4.12689 -5.60946 0
M  V30 6298 H 583.753 -4.76403 -5.92405 0
M  V30 6299 N 585.328 1.53329 -0.364422 0
M  V30 6300 C 586.258 2.28627 0.474543 0
M  V30 6301 C 587.239 1.31009 1.08492 0
M  V30 6302 O 588.424 1.59878 1.10239 0
M  V30 6303 C 585.554 3.07465 1.61501 0
M  V30 6304 C 584.508 4.1276 1.13194 0
M  V30 6305 C 583.834 4.79674 2.36255 0
M  V30 6306 C 585.134 5.21847 0.217507 0
M  V30 6307 H 586.828 2.99005 -0.153656 0
M  V30 6308 H 584.374 1.43803 -0.0753406 0
M  V30 6309 H 586.327 3.58889 2.20855 0
M  V30 6310 H 585.051 2.34775 2.27042 0
M  V30 6311 H 583.71 3.62281 0.56109 0
M  V30 6312 H 583.358 4.03557 3.00251 0
M  V30 6313 H 583.058 5.50827 2.04606 0
M  V30 6314 H 584.582 5.33892 2.96297 0
M  V30 6315 H 585.996 5.6878 0.718493 0
M  V30 6316 H 584.393 6.00099 -0.00806408 0
M  V30 6317 H 585.463 4.7921 -0.740653 0
M  V30 6318 N 586.806 0.0935595 1.57322 0
M  V30 6319 C 587.739 -0.902505 2.09595 0
M  V30 6320 C 588.717 -1.27732 1.00615 0
M  V30 6321 O 589.901 -1.38283 1.28102 0
M  V30 6322 C 587.028 -2.20416 2.57166 0
M  V30 6323 C 586.074 -1.97932 3.7779 0
M  V30 6324 S 586.907 -1.21873 5.21447 0
M  V30 6325 C 588.063 -2.53273 5.72367 0
M  V30 6326 H 588.296 -0.457797 2.93754 0
M  V30 6327 H 585.829 -0.119694 1.53935 0
M  V30 6328 H 587.787 -2.95217 2.85232 0
M  V30 6329 H 586.448 -2.62008 1.73235 0
M  V30 6330 H 585.641 -2.94316 4.09138 0
M  V30 6331 H 585.243 -1.3126 3.5021 0
M  V30 6332 H 587.535 -3.49256 5.8054 0
M  V30 6333 H 588.478 -2.26505 6.70896 0
M  V30 6334 H 588.886 -2.61475 5.00291 0
M  V30 6335 N 588.284 -1.56567 -0.180126 0
M  V30 6336 C 589.524 -1.83285 -0.904761 0
M  V30 6337 C 589.888 -0.673226 -1.7981 0
M  V30 6338 O 591.089 -0.820645 -2.55967 0
M  V30 6339 C 589.36 -3.15086 -1.68688 0
M  V30 6340 S 590.919 -3.63258 -2.46149 0
M  V30 6341 H 587.737 -0.643114 -0.303193 0
M  V30 6342 H 590.339 -1.94785 -0.167034 0
M  V30 6343 H 589.043 -3.97484 -1.02148 0
M  V30 6344 H 588.574 -3.06504 -2.46615 0
M  V30 6345 H 590.589 -3.29884 -3.70663 0
M  V30 6346 N 589.762 0.448376 -1.51087 0
M  V30 6347 C 590.71 1.56407 -1.72161 0
M  V30 6348 C 591.704 1.58878 -0.587721 0
M  V30 6349 O 592.91 1.62755 -0.768822 0
M  V30 6350 H 589.285 0.519423 -0.543786 0
M  V30 6351 H 591.256 1.35803 -2.65707 0
M  V30 6352 C 590.005 2.94163 -1.85373 0
M  V30 6353 H 589.328 2.9299 -2.72024 0
M  V30 6354 H 590.768 3.71625 -2.04135 0
M  V30 6355 C 589.227 3.31317 -0.610803 0
M  V30 6356 O 589.757 4.00985 0.239636 0
M  V30 6357 N 587.963 2.86966 -0.458127 0
M  V30 6358 H 587.51 2.30443 -1.15124 0
M  V30 6359 H 587.468 3.12188 0.372289 0
M  V30 6360 N 591.24 1.41047 0.703093 0
M  V30 6361 C 592.17 1.45067 1.82969 0
M  V30 6362 C 593.151 0.31016 1.67248 0
M  V30 6363 O 594.336 0.520548 1.87093 0
M  V30 6364 C 591.466 1.32478 3.2104 0
M  V30 6365 C 590.42 2.44262 3.51454 0
M  V30 6366 C 589.746 2.16742 4.88801 0
M  V30 6367 C 591.046 3.86606 3.51189 0
M  V30 6368 H 592.74 2.39353 1.79863 0
M  V30 6369 H 590.286 1.15206 0.863919 0
M  V30 6370 H 592.239 1.33904 3.99559 0
M  V30 6371 H 590.963 0.346735 3.24754 0
M  V30 6372 H 589.622 2.42107 2.75282 0
M  V30 6373 H 589.27 1.17299 4.89132 0
M  V30 6374 H 588.97 2.91643 5.10116 0
M  V30 6375 H 590.494 2.19872 5.69639 0
M  V30 6376 H 591.908 3.90517 4.19725 0
M  V30 6377 H 590.305 4.61128 3.84033 0
M  V30 6378 H 591.375 4.15296 2.50315 0
M  V30 6379 N 592.718 -0.936591 1.26751 0
M  V30 6380 C 593.943 -1.72288 1.15462 0
M  V30 6381 C 594.368 -1.85915 -0.285887 0
M  V30 6382 O 593.726 -1.35272 -1.20711 0
M  V30 6383 C 593.774 -3.10503 1.83359 0
M  V30 6384 O 592.878 -3.96745 1.1255 0
M  V30 6385 H 592.219 -0.52843 0.402067 0
M  V30 6386 H 594.749 -1.17271 1.67656 0
M  V30 6387 H 594.759 -3.60867 1.90365 0
M  V30 6388 H 593.434 -2.99901 2.88153 0
M  V30 6389 H 592.011 -3.55191 1.13551 0
M  V30 6390 N 594.196 -1.08629 -1.14182 0
M  V30 6391 C 595.443 -0.817345 -1.85272 0
M  V30 6392 C 595.771 0.656917 -1.83071 0
M  V30 6393 O 595.026 1.49897 -1.25815 0
M  V30 6394 C 595.325 -1.28734 -3.3341 0
M  V30 6395 C 594.991 -2.76981 -3.55798 0
M  V30 6396 C 593.653 -3.17469 -3.61617 0
M  V30 6397 C 596.005 -3.72605 -3.64438 0
M  V30 6398 C 593.333 -4.52371 -3.736 0
M  V30 6399 C 595.685 -5.07286 -3.77947 0
M  V30 6400 C 594.349 -5.47376 -3.82016 0
M  V30 6401 H 593.619 -0.299088 -0.677958 0
M  V30 6402 H 596.266 -1.35962 -1.34857 0
M  V30 6403 H 594.571 -0.664702 -3.8612 0
M  V30 6404 H 596.268 -1.05598 -3.86846 0
M  V30 6405 H 592.858 -2.44644 -3.51919 0
M  V30 6406 H 597.042 -3.42443 -3.5923 0
M  V30 6407 H 592.298 -4.82882 -3.75013 0
M  V30 6408 H 596.472 -5.81243 -3.83575 0
M  V30 6409 H 594.099 -6.51906 -3.91054 0
M  V30 6410 N 595.674 1.31259 -0.872281 0
M  V30 6411 C 596.637 2.26744 -0.334656 0
M  V30 6412 C 597.637 1.52307 0.515681 0
M  V30 6413 O 598.827 1.71148 0.324656 0
M  V30 6414 C 595.959 3.36841 0.524482 0
M  V30 6415 H 597.152 2.75812 -1.17762 0
M  V30 6416 H 594.705 1.42232 -0.648064 0
M  V30 6417 H 595.44 2.93069 1.38855 0
M  V30 6418 H 595.225 3.92009 -0.0844299 0
M  V30 6419 H 596.715 4.07944 0.892838 0
M  V30 6420 N 597.152 0.631951 1.44375 0
M  V30 6421 C 598.429 0.067646 1.95483 0
M  V30 6422 C 598.809 -1.40683 1.57389 0
M  V30 6423 O 598.157 -2.12167 0.848375 0
M  V30 6424 C 598.367 0.291392 3.47781 0
M  V30 6425 C 599.715 0.185028 4.24197 0
M  V30 6426 O 600.739 0.222803 3.55503 0
M  V30 6427 O 599.598 0.0906642 5.46425 0
M  V30 6428 H 596.692 -0.0218379 0.826712 0
M  V30 6429 H 599.238 0.703711 1.54421 0
M  V30 6430 H 598.01 1.31449 3.68561 0
M  V30 6431 H 597.633 -0.378772 3.95792 0
M  V30 6432 N 598.631 -1.53133 0.372548 0
M  V30 6433 C 599.878 -2.01356 -0.214959 0
M  V30 6434 C 600.206 -1.2596 -1.48204 0
M  V30 6435 O 599.461 -0.343511 -1.92662 0
M  V30 6436 C 599.76 -3.53206 -0.545938 0
M  V30 6437 C 599.426 -4.46511 0.627624 0
M  V30 6438 C 598.088 -4.71737 0.949615 0
M  V30 6439 C 600.44 -5.01666 1.41353 0
M  V30 6440 C 597.768 -5.4937 2.05936 0
M  V30 6441 C 600.12 -5.80511 2.51375 0
M  V30 6442 C 598.784 -6.04022 2.84101 0
M  V30 6443 H 598.054 -0.736813 -0.078659 0
M  V30 6444 H 600.701 -1.84682 0.506447 0
M  V30 6445 H 599.006 -3.67864 -1.34845 0
M  V30 6446 H 600.703 -3.87997 -1.01287 0
M  V30 6447 H 597.293 -4.27029 0.366635 0
M  V30 6448 H 601.477 -4.82117 1.17802 0
M  V30 6449 H 596.733 -5.65803 2.31682 0
M  V30 6450 H 600.907 -6.22255 3.12684 0
M  V30 6451 H 598.534 -6.63962 3.70214 0
M  V30 6452 N 600.109 -0.101901 -1.5727 0
M  V30 6453 C 601.349 0.563489 -1.96479 0
M  V30 6454 C 601.713 1.64926 -0.983021 0
M  V30 6455 O 602.914 2.37234 -1.26386 0
M  V30 6456 C 601.185 1.09809 -3.40113 0
M  V30 6457 S 602.744 1.7744 -4.01323 0
M  V30 6458 H 599.562 0.183675 -0.686866 0
M  V30 6459 H 602.164 -0.182922 -1.94642 0
M  V30 6460 H 600.868 0.296447 -4.09328 0
M  V30 6461 H 600.399 1.88018 -3.45562 0
M  V30 6462 H 602.414 3.0591 -3.90683 0
M  V30 6463 N 601.587 1.56661 0.17182 0
M  V30 6464 C 602.52 1.91474 1.24149 0
M  V30 6465 C 603.498 0.777485 1.42807 0
M  V30 6466 O 604.682 1.03075 1.57822 0
M  V30 6467 C 601.809 2.16523 2.60453 0
M  V30 6468 C 600.855 3.39209 2.58533 0
M  V30 6469 S 601.688 4.93594 2.07665 0
M  V30 6470 C 602.844 5.21737 3.45747 0
M  V30 6471 H 603.077 2.81903 0.944346 0
M  V30 6472 H 600.61 1.49743 0.376364 0
M  V30 6473 H 602.568 2.31635 3.38903 0
M  V30 6474 H 601.229 1.26802 2.87368 0
M  V30 6475 H 600.422 3.53935 3.58812 0
M  V30 6476 H 600.024 3.2321 1.88178 0
M  V30 6477 H 602.316 5.13684 4.41741 0
M  V30 6478 H 603.259 6.23361 3.35896 0
M  V30 6479 H 603.667 4.49307 3.41736 0
M  V30 6480 N 603.065 -0.440357 1.51323 0
M  V30 6481 C 604.313 -1.18769 1.63518 0
M  V30 6482 C 604.634 -1.91793 0.352201 0
M  V30 6483 O 603.904 -1.85432 -0.631811 0
M  V30 6484 H 602.484 -0.441408 0.602634 0
M  V30 6485 H 605.146 -0.505162 1.8824 0
M  V30 6486 H 604.242 -1.91892 2.46138 0
M  V30 6487 N 604.543 -1.41418 -0.695603 0
M  V30 6488 C 605.473 -1.46035 -1.82197 0
M  V30 6489 C 606.454 -0.319025 -1.67082 0
M  V30 6490 O 607.639 -0.530462 -1.86815 0
M  V30 6491 C 604.769 -1.34179 -3.20333 0
M  V30 6492 C 603.723 -2.46123 -3.50154 0
M  V30 6493 C 603.049 -2.19332 -4.87645 0
M  V30 6494 C 604.349 -3.88463 -3.49133 0
M  V30 6495 H 606.043 -2.40303 -1.78591 0
M  V30 6496 H 603.589 -1.15663 -0.857797 0
M  V30 6497 H 605.542 -1.36021 -3.98844 0
M  V30 6498 H 604.266 -0.363952 -3.24566 0
M  V30 6499 H 602.925 -2.43563 -2.73994 0
M  V30 6500 H 602.573 -1.19891 -4.88503 0
M  V30 6501 H 602.273 -2.94344 -5.08562 0
M  V30 6502 H 603.797 -2.22889 -5.68465 0
M  V30 6503 H 605.211 -3.92738 -4.17648 0
M  V30 6504 H 603.608 -4.63158 -3.81582 0
M  V30 6505 H 604.678 -4.16617 -2.48109 0
M  V30 6506 N 606.021 0.929856 -1.27246 0
M  V30 6507 C 607.251 1.70895 -1.16096 0
M  V30 6508 C 607.659 1.87039 0.285122 0
M  V30 6509 O 607.002 1.38557 1.20614 0
M  V30 6510 C 607.064 3.12919 -1.7698 0
M  V30 6511 C 606.728 3.2012 -3.26148 0
M  V30 6512 C 607.725 3.02533 -4.22812 0
M  V30 6513 C 605.41 3.43148 -3.66817 0
M  V30 6514 C 607.404 3.07861 -5.58122 0
M  V30 6515 C 605.091 3.48109 -5.02258 0
M  V30 6516 C 606.089 3.30483 -5.97721 0
M  V30 6517 O 605.777 3.35175 -7.30694 0
M  V30 6518 H 605.509 0.54152 -0.404639 0
M  V30 6519 H 608.063 1.17342 -1.68582 0
M  V30 6520 H 606.293 3.67945 -1.18969 0
M  V30 6521 H 607.982 3.72787 -1.60576 0
M  V30 6522 H 608.748 2.84586 -3.92728 0
M  V30 6523 H 604.627 3.55918 -2.9299 0
M  V30 6524 H 608.171 2.94021 -6.32612 0
M  V30 6525 H 604.068 3.65579 -5.31998 0
M  V30 6526 H 604.836 3.51644 -7.39114 0
M  V30 6527 N 607.499 1.09233 1.13605 0
M  V30 6528 C 608.429 0.751738 2.21068 0
M  V30 6529 C 609.41 -0.269688 1.67948 0
M  V30 6530 O 610.595 -0.13819 1.93708 0
M  V30 6531 C 607.725 0.16935 3.46887 0
M  V30 6532 C 606.679 1.12007 4.13084 0
M  V30 6533 C 606.005 0.399483 5.33206 0
M  V30 6534 C 607.305 2.46168 4.6065 0
M  V30 6535 H 608.999 1.65024 2.49815 0
M  V30 6536 H 606.545 0.794905 1.20072 0
M  V30 6537 H 608.498 -0.0809824 4.21322 0
M  V30 6538 H 607.222 -0.764335 3.1753 0
M  V30 6539 H 605.881 1.35564 3.40614 0
M  V30 6540 H 605.529 -0.538277 5.00112 0
M  V30 6541 H 605.229 1.03337 5.78442 0
M  V30 6542 H 606.753 0.157403 6.10397 0
M  V30 6543 H 608.167 2.26829 5.26518 0
M  V30 6544 H 606.564 3.05326 5.1662 0
M  V30 6545 H 607.634 3.07076 3.75276 0
M  V30 6546 N 608.977 -1.30795 0.87923 0
M  V30 6547 C 609.907 -2.30742 0.357796 0
M  V30 6548 C 610.888 -1.60747 -0.556283 0
M  V30 6549 O 612.073 -1.88393 -0.47135 0
M  V30 6550 C 609.203 -3.44583 -0.433555 0
M  V30 6551 C 608.157 -4.26235 0.388251 0
M  V30 6552 C 607.483 -5.32073 -0.529352 0
M  V30 6553 C 608.783 -4.96303 1.62729 0
M  V30 6554 H 610.477 -2.74605 1.19299 0
M  V30 6555 H 608.023 -1.32017 0.575104 0
M  V30 6556 H 609.976 -4.13563 -0.808934 0
M  V30 6557 H 608.7 -2.99511 -1.30234 0
M  V30 6558 H 607.359 -3.58936 0.745695 0
M  V30 6559 H 607.007 -4.83249 -1.39569 0
M  V30 6560 H 606.707 -5.87598 0.0166741 0
M  V30 6561 H 608.231 -6.0391 -0.901373 0
M  V30 6562 H 609.645 -5.5783 1.32283 0
M  V30 6563 H 608.042 -5.61666 2.11309 0
M  V30 6564 H 609.112 -4.22758 2.37494 0
M  V30 6565 N 610.455 -0.639598 -1.44038 0
M  V30 6566 C 611.385 0.0469443 -2.33453 0
M  V30 6567 C 612.366 0.82609 -1.48694 0
M  V30 6568 O 613.551 0.790285 -1.77393 0
M  V30 6569 C 610.681 1.02338 -3.3188 0
M  V30 6570 C 609.635 0.355284 -4.26523 0
M  V30 6571 C 608.961 1.44221 -5.14883 0
M  V30 6572 C 610.261 -0.743798 -5.16977 0
M  V30 6573 H 611.955 -0.699735 -2.91108 0
M  V30 6574 H 609.501 -0.337946 -1.39978 0
M  V30 6575 H 611.454 1.51247 -3.93322 0
M  V30 6576 H 610.178 1.80105 -2.72451 0
M  V30 6577 H 608.837 -0.113239 -3.66425 0
M  V30 6578 H 608.485 2.21097 -4.51802 0
M  V30 6579 H 608.185 1.00052 -5.79019 0
M  V30 6580 H 609.709 1.93295 -5.79197 0
M  V30 6581 H 611.123 -0.337444 -5.72306 0
M  V30 6582 H 609.52 -1.10914 -5.89761 0
M  V30 6583 H 610.59 -1.60745 -4.57481 0
M  V30 6584 N 611.933 1.52934 -0.380664 0
M  V30 6585 C 613.182 2.00651 0.205477 0
M  V30 6586 C 613.495 1.27164 1.48623 0
M  V30 6587 O 614.701 1.65547 2.15189 0
M  V30 6588 C 613.157 3.57479 0.416726 0
M  V30 6589 C 612.765 4.39857 -0.850268 0
M  V30 6590 C 614.509 4.13509 0.959702 0
M  V30 6591 C 612.416 5.88269 -0.607773 0
M  V30 6592 H 611.346 0.749684 0.0805614 0
M  V30 6593 H 613.997 1.76508 -0.501732 0
M  V30 6594 H 612.379 3.77836 1.18557 0
M  V30 6595 H 613.553 4.31269 -1.62307 0
M  V30 6596 H 611.868 3.95005 -1.31756 0
M  V30 6597 H 614.465 5.22039 1.15669 0
M  V30 6598 H 614.808 3.69054 1.92626 0
M  V30 6599 H 615.341 3.9701 0.250645 0
M  V30 6600 H 612.08 6.3703 -1.54509 0
M  V30 6601 H 611.6 5.99667 0.126247 0
M  V30 6602 H 613.279 6.46558 -0.239014 0
M  V30 6603 N 613.412 0.11024 1.57214 0
M  V30 6604 C 614.375 -0.828808 2.1369 0
M  V30 6605 C 615.375 -1.20059 1.06969 0
M  V30 6606 O 616.565 -1.12754 1.32786 0
M  V30 6607 C 613.697 -2.11959 2.66994 0
M  V30 6608 H 614.89 -0.338146 2.97988 0
M  V30 6609 H 612.443 -0.138913 1.55681 0
M  V30 6610 H 613.178 -2.65476 1.8626 0
M  V30 6611 H 612.963 -1.86258 3.45037 0
M  V30 6612 H 614.453 -2.79105 3.10629 0
M  V30 6613 N 614.89 -1.56749 -0.16351 0
M  V30 6614 C 616.115 -1.86938 -0.898264 0
M  V30 6615 C 616.54 -0.697456 -1.74692 0
M  V30 6616 O 615.898 0.353327 -1.77824 0
M  V30 6617 C 615.946 -3.15599 -1.74441 0
M  V30 6618 O 615.05 -2.98371 -2.8469 0
M  V30 6619 H 614.391 -0.614659 -0.251178 0
M  V30 6620 H 616.921 -2.03979 -0.159298 0
M  V30 6621 H 616.931 -3.47202 -2.14277 0
M  V30 6622 H 615.606 -4.00505 -1.1211 0
M  V30 6623 H 614.183 -2.7814 -2.4838 0
M  V30 6624 N 616.368 0.432326 -1.51554 0
M  V30 6625 C 617.614 1.18309 -1.64714 0
M  V30 6626 C 617.947 1.90745 -0.364696 0
M  V30 6627 O 617.222 1.8381 0.635936 0
M  V30 6628 C 617.505 2.1961 -2.85383 0
M  V30 6629 C 617.358 1.51223 -4.23617 0
M  V30 6630 C 618.677 3.20538 -3.01569 0
M  V30 6631 H 615.796 0.428751 -0.599451 0
M  V30 6632 H 618.438 0.471689 -1.84052 0
M  V30 6633 H 616.588 2.8028 -2.69027 0
M  V30 6634 H 618.26 0.938516 -4.51652 0
M  V30 6635 H 616.503 0.814501 -4.26085 0
M  V30 6636 H 617.174 2.25024 -5.04052 0
M  V30 6637 H 619.65 2.69926 -3.16669 0
M  V30 6638 H 618.526 3.88706 -3.87555 0
M  V30 6639 H 618.787 3.86933 -2.13859 0
M  V30 6640 N 617.846 1.41785 0.688094 0
M  V30 6641 C 619.123 1.32031 1.44316 0
M  V30 6642 C 619.503 -0.0486079 2.11044 0
M  V30 6643 O 618.851 -1.06332 2.02252 0
M  V30 6644 C 619.061 2.47906 2.45649 0
M  V30 6645 C 620.409 2.89415 3.10683 0
M  V30 6646 O 621.433 2.477 2.55975 0
M  V30 6647 O 620.292 3.61573 4.09789 0
M  V30 6648 H 617.386 0.519994 0.643067 0
M  V30 6649 H 619.932 1.53765 0.71794 0
M  V30 6650 H 618.704 3.39222 1.95048 0
M  V30 6651 H 618.327 2.28089 3.25671 0
M  V30 6652 N 619.324 -0.923095 1.27737 0
M  V30 6653 C 620.549 -1.71054 1.17283 0
M  V30 6654 C 620.974 -1.86208 -0.266153 0
M  V30 6655 O 620.332 -1.36545 -1.1927 0
M  V30 6656 C 620.38 -3.0854 1.86642 0
M  V30 6657 O 619.484 -3.95528 1.16752 0
M  V30 6658 H 618.825 -0.524136 0.407649 0
M  V30 6659 H 621.355 -1.15487 1.6889 0
M  V30 6660 H 621.365 -3.58828 1.94182 0
M  V30 6661 H 620.04 -2.96828 2.91317 0
M  V30 6662 H 618.617 -3.53967 1.17312 0
M  V30 6663 N 620.802 -1.09834 -1.13024 0
M  V30 6664 C 621.734 -0.699379 -2.18269 0
M  V30 6665 C 622.747 0.260841 -1.60697 0
M  V30 6666 O 623.936 0.0462538 -1.7844 0
M  V30 6667 C 621.036 -0.0104537 -3.38898 0
M  V30 6668 C 620.209 -0.993275 -4.25973 0
M  V30 6669 C 619.268 -0.336982 -5.2512 0
M  V30 6670 O 618.294 -0.985892 -5.60597 0
M  V30 6671 N 619.496 0.90716 -5.73368 0
M  V30 6672 H 622.261 -1.60486 -2.5311 0
M  V30 6673 H 619.822 -0.986337 -1.28386 0
M  V30 6674 H 621.814 0.43991 -4.02302 0
M  V30 6675 H 620.384 0.797335 -3.0226 0
M  V30 6676 H 619.604 -1.62208 -3.5928 0
M  V30 6677 H 620.892 -1.65876 -4.81002 0
M  V30 6678 H 620.29 1.45384 -5.46699 0
M  V30 6679 H 618.847 1.30077 -6.38689 0
M  V30 6680 N 622.28 1.30327 -0.886154 0
M  V30 6681 C 623.508 2.00254 -0.520176 0
M  V30 6682 C 623.923 1.66419 0.891637 0
M  V30 6683 O 623.28 0.901951 1.58654 0
M  V30 6684 C 623.331 3.54916 -0.686775 0
M  V30 6685 O 623.052 3.87547 -2.04301 0
M  V30 6686 C 624.553 4.42115 -0.323945 0
M  V30 6687 H 621.773 0.640204 -0.200947 0
M  V30 6688 H 624.317 1.66183 -1.19178 0
M  V30 6689 H 622.472 3.8735 -0.0625273 0
M  V30 6690 H 622.886 4.82247 -2.06249 0
M  V30 6691 H 624.36 5.49808 -0.491407 0
M  V30 6692 H 624.837 4.32953 0.73811 0
M  V30 6693 H 625.443 4.15129 -0.924565 0
M  V30 6694 N 623.758 0.647228 1.43697 0
M  V30 6695 C 624.705 -0.0480092 2.3075 0
M  V30 6696 C 625.675 -0.820705 1.44408 0
M  V30 6697 O 626.86 -0.798515 1.73287 0
M  V30 6698 C 624 -1.01259 3.2991 0
M  V30 6699 C 623.113 -0.236629 4.31351 0
M  V30 6700 C 622.248 -1.19447 5.17596 0
M  V30 6701 C 621.287 -0.408595 6.10735 0
M  V30 6702 N 620.424 -1.31772 6.89623 0
M  V30 6703 H 625.264 0.700238 2.89656 0
M  V30 6704 H 622.801 0.357082 1.427 0
M  V30 6705 H 624.759 -1.58538 3.85903 0
M  V30 6706 H 623.389 -1.72778 2.72667 0
M  V30 6707 H 622.441 0.452353 3.77701 0
M  V30 6708 H 623.753 0.374731 4.9739 0
M  V30 6709 H 622.907 -1.83809 5.78186 0
M  V30 6710 H 621.646 -1.83975 4.51669 0
M  V30 6711 H 620.651 0.24841 5.49239 0
M  V30 6712 H 621.876 0.232188 6.78703 0
M  V30 6713 H 619.822 -1.94991 6.2635 0
M  V30 6714 H 619.739 -0.760779 7.52162 0
M  V30 6715 H 621.007 -1.94967 7.54724 0
M  V30 6716 N 625.236 -1.5273 0.388769 0
M  V30 6717 C 626.484 -2.01174 -0.193208 0
M  V30 6718 C 626.805 -1.27705 -1.47365 0
M  V30 6719 O 626.075 -0.396966 -1.91836 0
M  V30 6720 H 624.655 -0.743287 -0.0743871 0
M  V30 6721 H 627.317 -1.87826 0.520336 0
M  V30 6722 H 626.413 -3.09477 -0.403803 0
M  V30 6723 N 626.714 -0.118576 -1.57153 0
M  V30 6724 C 627.646 0.862247 -2.12363 0
M  V30 6725 C 628.659 1.23025 -1.06625 0
M  V30 6726 O 629.848 1.17927 -1.33998 0
M  V30 6727 C 626.948 2.16425 -2.60794 0
M  V30 6728 C 626.121 1.96801 -3.90626 0
M  V30 6729 C 625.18 3.10726 -4.2466 0
M  V30 6730 O 624.206 2.83659 -4.93484 0
M  V30 6731 N 625.408 4.37147 -3.81946 0
M  V30 6732 H 628.173 0.390564 -2.97144 0
M  V30 6733 H 625.734 0.0658591 -1.61766 0
M  V30 6734 H 627.726 2.91633 -2.80593 0
M  V30 6735 H 626.296 2.54943 -1.80895 0
M  V30 6736 H 625.516 1.05787 -3.7974 0
M  V30 6737 H 626.804 1.80993 -4.7552 0
M  V30 6738 H 626.202 4.62014 -3.26435 0
M  V30 6739 H 624.759 5.09229 -4.06853 0
M  V30 6740 N 628.193 1.56834 0.155195 0
M  V30 6741 C 629.423 1.86778 0.883044 0
M  V30 6742 C 629.831 0.703824 1.75622 0
M  V30 6743 O 629.174 -0.33581 1.80605 0
M  V30 6744 C 629.236 3.1133 1.79761 0
M  V30 6745 C 628.9 4.43504 1.10242 0
M  V30 6746 C 629.897 5.17859 0.460204 0
M  V30 6747 C 627.582 4.90233 1.09437 0
M  V30 6748 C 629.576 6.37144 -0.180782 0
M  V30 6749 C 627.263 6.09444 0.449569 0
M  V30 6750 C 628.261 6.82744 -0.186888 0
M  V30 6751 O 627.949 7.99692 -0.821486 0
M  V30 6752 H 627.681 0.62352 0.261149 0
M  V30 6753 H 630.235 2.04813 0.155204 0
M  V30 6754 H 628.465 2.89282 2.56618 0
M  V30 6755 H 630.154 3.27587 2.39669 0
M  V30 6756 H 630.92 4.8283 0.458289 0
M  V30 6757 H 626.799 4.33109 1.57917 0
M  V30 6758 H 630.343 6.94296 -0.678154 0
M  V30 6759 H 626.24 6.43936 0.449123 0
M  V30 6760 H 627.008 8.15306 -0.722337 0
M  V30 6761 N 629.671 -0.424282 1.51781 0
M  V30 6762 C 630.901 -1.19297 1.68677 0
M  V30 6763 C 631.309 -1.85152 0.389258 0
M  V30 6764 O 630.652 -1.72067 -0.643311 0
M  V30 6765 C 630.714 -2.30929 2.75521 0
M  V30 6766 C 630.378 -1.85335 4.17732 0
M  V30 6767 C 631.375 -1.34951 5.0208 0
M  V30 6768 C 629.06 -1.92629 4.63896 0
M  V30 6769 C 631.054 -0.924636 6.30658 0
M  V30 6770 C 628.741 -1.49754 5.92467 0
M  V30 6771 C 629.739 -0.997543 6.75676 0
M  V30 6772 O 629.427 -0.57492 8.01842 0
M  V30 6773 H 629.159 -0.36512 0.568914 0
M  V30 6774 H 631.713 -0.507327 1.99036 0
M  V30 6775 H 629.943 -3.02811 2.40505 0
M  V30 6776 H 631.632 -2.92748 2.81165 0
M  V30 6777 H 632.398 -1.287 4.67612 0
M  V30 6778 H 628.277 -2.30491 3.99243 0
M  V30 6779 H 631.821 -0.533682 6.95556 0
M  V30 6780 H 627.718 -1.55679 6.26446 0
M  V30 6781 H 628.486 -0.699597 8.15505 0
M  V30 6782 N 631.149 -1.42148 -0.680565 0
M  V30 6783 C 632.097 -1.45401 -1.81552 0
M  V30 6784 C 633.091 -0.33036 -1.66147 0
M  V30 6785 O 634.297 -0.503103 -1.72826 0
M  V30 6786 H 630.672 -0.455265 -0.59853 0
M  V30 6787 H 632.643 -2.41024 -1.75926 0
M  V30 6788 C 631.392 -1.36769 -3.19671 0
M  V30 6789 H 630.715 -2.22525 -3.32149 0
M  V30 6790 H 632.155 -1.43106 -3.9912 0
M  V30 6791 C 630.614 -0.0817752 -3.36801 0
M  V30 6792 O 631.144 0.867707 -3.92216 0
M  V30 6793 N 629.35 -0.000799811 -2.906 0
M  V30 6794 H 628.897 -0.774231 -2.4569 0
M  V30 6795 H 628.855 0.858961 -3.02439 0
M  V30 6796 N 632.627 0.916307 -1.28225 0
M  V30 6797 C 633.577 2.00488 -1.08574 0
M  V30 6798 C 634.561 1.60897 -0.0101874 0
M  V30 6799 O 635.753 1.75499 -0.230034 0
M  V30 6800 C 632.882 3.35076 -0.746943 0
M  V30 6801 C 631.968 3.81077 -1.86121 0
M  V30 6802 N 632.359 3.99475 -3.10247 0
M  V30 6803 C 630.657 4.10212 -1.75048 0
M  V30 6804 C 631.358 4.37965 -3.82834 0
M  V30 6805 N 630.334 4.4608 -3.10667 0
M  V30 6806 H 634.136 2.1276 -2.02757 0
M  V30 6807 H 631.65 1.10397 -1.19107 0
M  V30 6808 H 633.647 4.12743 -0.587252 0
M  V30 6809 H 632.307 3.2416 0.187146 0
M  V30 6810 H 633.318 3.85466 -3.45885 0
M  V30 6811 H 629.995 4.07947 -0.887999 0
M  V30 6812 H 631.385 4.60183 -4.89572 0
M  V30 6813 N 634.105 1.10431 1.1244 0
M  V30 6814 C 635.068 0.756542 2.16354 0
M  V30 6815 C 636.068 -0.21899 1.59302 0
M  V30 6816 O 637.258 0.00415969 1.742 0
M  V30 6817 C 634.39 0.120612 3.40687 0
M  V30 6818 H 635.583 1.67696 2.48632 0
M  V30 6819 H 633.136 0.904832 1.27446 0
M  V30 6820 H 633.871 -0.810536 3.14008 0
M  V30 6821 H 633.656 0.822693 3.83372 0
M  V30 6822 H 635.146 -0.106945 4.17463 0
M  V30 6823 N 635.583 -1.29855 0.893053 0
M  V30 6824 C 636.832 -1.95104 0.511597 0
M  V30 6825 C 637.145 -1.71226 -0.945567 0
M  V30 6826 O 638.351 -2.30525 -1.43424 0
M  V30 6827 C 636.807 -3.49374 0.864034 0
M  V30 6828 C 636.415 -3.82061 2.33952 0
M  V30 6829 C 638.159 -4.20894 0.552167 0
M  V30 6830 C 636.066 -5.29546 2.63316 0
M  V30 6831 H 634.996 -0.73029 0.187597 0
M  V30 6832 H 637.647 -1.47682 1.08914 0
M  V30 6833 H 636.029 -3.95413 0.215493 0
M  V30 6834 H 637.203 -3.46904 3.03305 0
M  V30 6835 H 635.518 -3.23665 2.61973 0
M  V30 6836 H 638.115 -5.29435 0.748489 0
M  V30 6837 H 638.458 -4.13178 -0.508924 0
M  V30 6838 H 638.991 -3.80564 1.15825 0
M  V30 6839 H 635.73 -5.4232 3.68197 0
M  V30 6840 H 635.25 -5.65974 1.9858 0
M  V30 6841 H 636.929 -5.97068 2.49236 0
M  V30 6842 N 637.061 -0.65484 -1.43351 0
M  V30 6843 C 638.338 -0.0987371 -1.95351 0
M  V30 6844 C 638.718 1.38161 -1.59608 0
M  V30 6845 O 638.066 2.10791 -0.882021 0
M  V30 6846 C 638.276 -0.346684 -3.47274 0
M  V30 6847 C 639.624 -0.25249 -4.23849 0
M  V30 6848 O 640.648 -0.279332 -3.55103 0
M  V30 6849 O 639.507 -0.177584 -5.46211 0
M  V30 6850 H 636.601 0.0086829 -0.826954 0
M  V30 6851 H 639.147 -0.728189 -1.53282 0
M  V30 6852 H 637.919 -1.37296 -3.66423 0
M  V30 6853 H 637.542 0.315757 -3.96344 0
M  V30 6854 N 638.539 1.52521 -0.396863 0
M  V30 6855 C 639.785 2.02641 0.175606 0
M  V30 6856 C 640.14 1.27782 1.43839 0
M  V30 6857 O 639.433 0.371921 1.87956 0
M  V30 6858 C 639.627 3.5403 0.489677 0
M  V30 6859 C 639.456 4.43551 -0.741113 0
M  V30 6860 C 638.226 4.8927 -1.26265 0
M  V30 6861 C 640.424 4.88263 -1.61565 0
M  V30 6862 N 638.406 5.62884 -2.4502 0
M  V30 6863 C 639.777 5.60534 -2.64955 0
M  V30 6864 C 641.832 4.70294 -1.63486 0
M  V30 6865 C 640.535 6.16744 -3.70162 0
M  V30 6866 C 642.561 5.27392 -2.67603 0
M  V30 6867 C 641.923 5.99575 -3.69715 0
M  V30 6868 H 638.022 0.781563 0.0261477 0
M  V30 6869 H 640.606 1.86816 -0.548454 0
M  V30 6870 H 638.777 3.69952 1.18279 0
M  V30 6871 H 640.509 3.90843 1.04996 0
M  V30 6872 H 637.264 4.66403 -0.822509 0
M  V30 6873 H 637.688 6.04339 -3.05128 0
M  V30 6874 H 642.33 4.13985 -0.858848 0
M  V30 6875 H 640.048 6.72131 -4.48626 0
M  V30 6876 H 643.634 5.15365 -2.69982 0
M  V30 6877 H 642.514 6.42967 -4.48958 0
M  V30 6878 N 640.017 0.126909 1.57088 0
M  V30 6879 C 640.949 -0.850973 2.12817 0
M  V30 6880 C 641.962 -1.22457 1.07276 0
M  V30 6881 O 643.151 -1.17215 1.34622 0
M  V30 6882 C 640.251 -2.15039 2.61938 0
M  V30 6883 C 639.424 -1.94726 3.91664 0
M  V30 6884 C 638.483 -3.0847 4.26301 0
M  V30 6885 O 637.509 -2.81038 4.94981 0
M  V30 6886 N 638.711 -4.35116 3.84259 0
M  V30 6887 H 641.476 -0.3748 2.97347 0
M  V30 6888 H 639.037 -0.0572793 1.61799 0
M  V30 6889 H 641.029 -2.90141 2.82135 0
M  V30 6890 H 639.599 -2.5398 1.82244 0
M  V30 6891 H 638.819 -1.03772 3.80296 0
M  V30 6892 H 640.107 -1.78469 4.76473 0
M  V30 6893 H 639.505 -4.60276 3.2888 0
M  V30 6894 H 638.062 -5.07064 4.09548 0
M  V30 6895 N 641.495 -1.56914 -0.146875 0
M  V30 6896 C 642.723 -1.87515 -0.874394 0
M  V30 6897 C 643.138 -0.715116 -1.74733 0
M  V30 6898 O 642.495 0.315113 -1.79759 0
M  V30 6899 C 642.546 -3.17362 -1.731 0
M  V30 6900 O 642.267 -4.28897 -0.893245 0
M  V30 6901 C 643.768 -3.61479 -2.56609 0
M  V30 6902 H 640.988 -0.621546 -0.252827 0
M  V30 6903 H 643.532 -2.04023 -0.139627 0
M  V30 6904 H 641.687 -3.02608 -2.41883 0
M  V30 6905 H 642.101 -5.03146 -1.48137 0
M  V30 6906 H 643.575 -4.5517 -3.12289 0
M  V30 6907 H 644.052 -2.86773 -3.32653 0
M  V30 6908 H 644.658 -3.78927 -1.93117 0
M  V30 6909 N 642.974 0.416227 -1.52004 0
M  V30 6910 C 644.222 1.16153 -1.65387 0
M  V30 6911 C 644.543 1.91208 -0.382669 0
M  V30 6912 O 643.813 1.86413 0.602231 0
M  V30 6913 H 642.393 0.431765 -0.60958 0
M  V30 6914 H 645.055 0.475151 -1.89019 0
M  V30 6915 H 644.151 1.87952 -2.4916 0
M  V30 6916 N 644.452 1.42507 0.673017 0
M  V30 6917 C 645.677 1.4668 1.46627 0
M  V30 6918 C 646.102 0.080066 1.8793 0
M  V30 6919 O 645.46 -0.921879 1.56112 0
M  V30 6920 C 645.508 2.40091 2.69051 0
M  V30 6921 O 644.612 1.8735 3.67387 0
M  V30 6922 H 643.953 0.496908 0.44043 0
M  V30 6923 H 646.483 1.87215 0.825334 0
M  V30 6924 H 646.493 2.56731 3.17101 0
M  V30 6925 H 645.168 3.4084 2.3833 0
M  V30 6926 H 643.745 1.80274 3.26429 0
M  V30 6927 N 645.93 -0.909495 1.28709 0
M  V30 6928 C 647.178 -1.65577 1.15882 0
M  V30 6929 C 647.499 -1.928 -0.292108 0
M  V30 6930 O 646.769 -1.54716 -1.20166 0
M  V30 6931 H 645.349 -0.613714 0.425869 0
M  V30 6932 H 648.011 -1.09108 1.61498 0
M  V30 6933 H 647.107 -2.61634 1.70159 0
M  V30 6934 N 647.408 -1.11026 -1.11852 0
M  V30 6935 C 648.648 -0.866348 -1.85132 0
M  V30 6936 C 649.012 0.597236 -1.82475 0
M  V30 6937 O 650.213 0.957744 -2.51159 0
M  V30 6938 C 648.484 -1.40721 -3.28531 0
M  V30 6939 S 650.043 -1.29964 -4.19112 0
M  V30 6940 H 646.861 -0.312899 -0.638447 0
M  V30 6941 H 649.463 -1.41691 -1.34699 0
M  V30 6942 H 648.167 -2.46631 -3.28027 0
M  V30 6943 H 647.698 -0.85349 -3.8403 0
M  V30 6944 H 649.713 -0.261333 -4.95511 0
M  V30 6945 N 648.886 1.2938 -0.899927 0
M  V30 6946 C 650.111 2.00228 -0.540692 0
M  V30 6947 C 650.536 1.66909 0.867359 0
M  V30 6948 O 649.894 0.893824 1.57735 0
M  V30 6949 C 649.942 3.52921 -0.740232 0
M  V30 6950 O 649.046 4.11879 0.207154 0
M  V30 6951 H 648.387 0.629505 -0.211233 0
M  V30 6952 H 650.917 1.6487 -1.21158 0
M  V30 6953 H 650.927 4.0287 -0.644973 0
M  V30 6954 H 649.602 3.76508 -1.76677 0
M  V30 6955 H 648.179 3.72845 0.0643315 0
M  V30 6956 N 650.364 0.662433 1.43002 0
M  V30 6957 C 651.592 0.187615 2.06048 0
M  V30 6958 C 652.007 -1.15039 1.49705 0
M  V30 6959 O 651.364 -1.71209 0.631956 0
M  V30 6960 C 651.415 0.100498 3.6136 0
M  V30 6961 O 651.136 1.38562 4.15611 0
M  V30 6962 C 652.637 -0.399298 4.41498 0
M  V30 6963 H 649.857 0.0941675 0.664359 0
M  V30 6964 H 652.401 0.905681 1.83351 0
M  V30 6965 H 650.556 -0.568181 3.83211 0
M  V30 6966 H 650.97 1.25084 5.09366 0
M  V30 6967 H 652.444 -0.409187 5.50481 0
M  V30 6968 H 652.921 -1.43232 4.15188 0
M  V30 6969 H 653.527 0.23721 4.24638 0
M  V30 6970 N 651.842 -1.52309 0.404946 0
M  V30 6971 C 652.805 -2.25491 -0.410651 0
M  V30 6972 C 653.805 -1.27704 -0.977154 0
M  V30 6973 O 654.995 -1.51679 -0.856691 0
M  V30 6974 C 652.127 -3.02197 -1.57765 0
M  V30 6975 H 653.32 -2.99015 0.230277 0
M  V30 6976 H 650.873 -1.55506 0.157377 0
M  V30 6977 H 651.608 -2.33013 -2.25556 0
M  V30 6978 H 651.393 -3.73987 -1.17797 0
M  V30 6979 H 652.883 -3.57719 -2.15469 0
M  V30 6980 N 653.32 -0.135238 -1.57019 0
M  V30 6981 C 654.568 0.51777 -1.95355 0
M  V30 6982 C 654.889 1.6617 -1.02042 0
M  V30 6983 O 654.159 1.95738 -0.0797343 0
M  V30 6984 H 652.739 0.194264 -0.721298 0
M  V30 6985 H 655.401 -0.207983 -1.93787 0
M  V30 6986 H 654.497 0.901675 -2.98791 0
M  V30 6987 N 654.798 1.5699 0.138552 0
M  V30 6988 C 656.045 1.83809 0.849732 0
M  V30 6989 C 656.373 0.717409 1.80786 0
M  V30 6990 O 655.628 -0.292897 1.93496 0
M  V30 6991 C 655.927 3.17007 1.65049 0
M  V30 6992 C 655.593 4.43037 0.838398 0
M  V30 6993 C 654.255 4.77262 0.614385 0
M  V30 6994 C 656.607 5.20495 0.271044 0
M  V30 6995 C 653.935 5.864 -0.187552 0
M  V30 6996 C 656.287 6.30476 -0.517979 0
M  V30 6997 C 654.951 6.63245 -0.75249 0
M  V30 6998 H 654.221 0.672605 0.310939 0
M  V30 6999 H 656.868 1.91166 0.112971 0
M  V30 7000 H 655.173 3.05138 2.4576 0
M  V30 7001 H 656.87 3.34975 2.20437 0
M  V30 7002 H 653.46 4.16211 1.02307 0
M  V30 7003 H 657.644 4.94422 0.431371 0
M  V30 7004 H 652.9 6.10226 -0.378659 0
M  V30 7005 H 657.074 6.89686 -0.964694 0
M  V30 7006 H 654.701 7.47648 -1.37573 0
M  V30 7007 N 656.276 -0.40816 1.52223 0
M  V30 7008 C 657.523 -1.15502 1.66329 0
M  V30 7009 C 657.851 -1.90474 0.393701 0
M  V30 7010 O 657.106 -1.85507 -0.623356 0
M  V30 7011 C 657.405 -2.17422 2.83659 0
M  V30 7012 C 657.071 -1.5925 4.21841 0
M  V30 7013 C 655.733 -1.4311 4.59427 0
M  V30 7014 C 658.085 -1.16776 5.0795 0
M  V30 7015 C 655.413 -0.830148 5.80797 0
M  V30 7016 C 657.765 -0.580988 6.29926 0
M  V30 7017 C 656.429 -0.406729 6.6626 0
M  V30 7018 H 655.699 -0.422653 0.608642 0
M  V30 7019 H 658.346 -0.442114 1.86327 0
M  V30 7020 H 656.651 -2.94861 2.58001 0
M  V30 7021 H 658.348 -2.75084 2.9177 0
M  V30 7022 H 654.938 -1.72796 3.92224 0
M  V30 7023 H 659.122 -1.28055 4.79495 0
M  V30 7024 H 654.378 -0.68316 6.07571 0
M  V30 7025 H 658.552 -0.243488 6.95974 0
M  V30 7026 H 656.179 0.0610366 7.60175 0
M  V30 7027 N 657.755 -1.42862 -0.66545 0
M  V30 7028 C 658.983 -1.47246 -1.45349 0
M  V30 7029 C 659.398 -0.0865944 -1.88601 0
M  V30 7030 O 658.755 0.900652 -1.58728 0
M  V30 7031 C 658.806 -2.40772 -2.6965 0
M  V30 7032 O 658.527 -3.73968 -2.2821 0
M  V30 7033 C 660.028 -2.54272 -3.63126 0
M  V30 7034 H 657.248 -0.500497 -0.446927 0
M  V30 7035 H 659.792 -1.87477 -0.816871 0
M  V30 7036 H 657.947 -2.0377 -3.29479 0
M  V30 7037 H 658.361 -4.24146 -3.08546 0
M  V30 7038 H 659.835 -3.23815 -4.47043 0
M  V30 7039 H 660.312 -1.58364 -4.09656 0
M  V30 7040 H 660.918 -2.92036 -3.09185 0
M  V30 7041 N 659.233 0.902656 -1.29189 0
M  V30 7042 C 660.479 1.65532 -1.17163 0
M  V30 7043 C 660.812 1.92216 0.276879 0
M  V30 7044 O 660.087 1.53048 1.20027 0
M  V30 7045 C 660.37 3.00629 -1.98228 0
M  V30 7046 C 660.223 2.81029 -3.51202 0
M  V30 7047 C 661.542 4.01321 -1.80635 0
M  V30 7048 H 658.661 0.60071 -0.426985 0
M  V30 7049 H 661.303 1.04578 -1.5863 0
M  V30 7050 H 659.453 3.52656 -1.62991 0
M  V30 7051 H 661.125 2.35927 -3.96404 0
M  V30 7052 H 659.368 2.1587 -3.76275 0
M  V30 7053 H 660.039 3.77014 -4.03192 0
M  V30 7054 H 662.515 3.58394 -2.11406 0
M  V30 7055 H 661.391 4.93792 -2.3971 0
M  V30 7056 H 661.652 4.35505 -0.760754 0
M  V30 7057 N 660.711 1.11618 1.11262 0
M  V30 7058 C 661.958 0.86618 1.8304 0
M  V30 7059 C 662.286 -0.608149 1.84748 0
M  V30 7060 O 661.541 -1.46508 1.29745 0
M  V30 7061 C 661.84 1.37529 3.2988 0
M  V30 7062 C 661.506 2.86317 3.4833 0
M  V30 7063 C 660.168 3.26945 3.53073 0
M  V30 7064 C 662.52 3.82136 3.54431 0
M  V30 7065 C 659.848 4.62117 3.61475 0
M  V30 7066 C 662.2 5.17128 3.64365 0
M  V30 7067 C 660.864 5.57312 3.67369 0
M  V30 7068 H 660.134 0.316958 0.66979 0
M  V30 7069 H 662.781 1.3949 1.31205 0
M  V30 7070 H 661.086 0.766842 3.84222 0
M  V30 7071 H 662.783 1.15817 3.83911 0
M  V30 7072 H 659.373 2.53889 3.45309 0
M  V30 7073 H 663.557 3.51847 3.50025 0
M  V30 7074 H 658.813 4.92655 3.62079 0
M  V30 7075 H 662.987 5.91208 3.68029 0
M  V30 7076 H 660.614 6.62045 3.73632 0
M  V30 7077 N 662.189 -1.289 0.906776 0
M  V30 7078 C 663.152 -2.25777 0.394656 0
M  V30 7079 C 664.152 -1.53621 -0.475119 0
M  V30 7080 O 665.342 -1.71949 -0.279165 0
M  V30 7081 C 662.474 -3.38113 -0.43499 0
M  V30 7082 H 663.667 -2.72592 1.25033 0
M  V30 7083 H 661.22 -1.40463 0.685547 0
M  V30 7084 H 661.955 -2.96648 -1.31036 0
M  V30 7085 H 661.74 -3.91647 0.188334 0
M  V30 7086 H 663.23 -4.10168 -0.784365 0
M  V30 7087 N 663.667 -0.670007 -1.42649 0
M  V30 7088 C 664.892 -0.196955 -2.06463 0
M  V30 7089 C 665.317 1.1352 -1.49983 0
M  V30 7090 O 664.675 1.705 -0.616397 0
M  V30 7091 C 664.723 -0.137381 -3.60338 0
M  V30 7092 O 663.827 0.895523 -4.02559 0
M  V30 7093 H 663.168 -0.102579 -0.656029 0
M  V30 7094 H 665.698 -0.917669 -1.82866 0
M  V30 7095 H 665.708 0.0403625 -4.0798 0
M  V30 7096 H 664.383 -1.10977 -4.0082 0
M  V30 7097 H 662.96 0.689209 -3.66476 0
M  V30 7098 N 665.145 1.52092 -0.413018 0
M  V30 7099 C 666.055 2.30858 0.417318 0
M  V30 7100 C 667.071 1.38746 1.05003 0
M  V30 7101 O 668.247 1.71821 1.05069 0
M  V30 7102 C 665.312 3.11756 1.51687 0
M  V30 7103 C 664.373 4.19613 0.906825 0
M  V30 7104 C 663.606 4.96644 1.95399 0
M  V30 7105 O 663.829 4.7402 3.17271 0
M  V30 7106 O 662.763 5.81385 1.55805 0
M  V30 7107 H 666.589 3.02865 -0.225028 0
M  V30 7108 H 664.174 1.48358 -0.176126 0
M  V30 7109 H 666.056 3.62122 2.15512 0
M  V30 7110 H 664.731 2.42539 2.14375 0
M  V30 7111 H 663.638 3.73385 0.231183 0
M  V30 7112 H 664.971 4.91134 0.323814 0
M  V30 7113 N 666.623 0.143563 1.56945 0
M  V30 7114 C 667.553 -0.7936 2.196 0
M  V30 7115 C 668.534 -1.25955 1.14321 0
M  V30 7116 O 669.719 -1.31773 1.42651 0
M  V30 7117 C 666.849 -2.03424 2.81489 0
M  V30 7118 C 665.803 -1.70519 3.92565 0
M  V30 7119 C 665.129 -3.01817 4.41373 0
M  V30 7120 C 666.429 -0.95449 5.13504 0
M  V30 7121 H 668.123 -0.271423 2.98167 0
M  V30 7122 H 665.669 -0.12911 1.4342 0
M  V30 7123 H 667.622 -2.69463 3.23987 0
M  V30 7124 H 666.346 -2.58008 2.00248 0
M  V30 7125 H 665.005 -1.06859 3.5068 0
M  V30 7126 H 664.653 -3.54386 3.56959 0
M  V30 7127 H 664.353 -2.80565 5.16292 0
M  V30 7128 H 665.877 -3.68934 4.86539 0
M  V30 7129 H 667.291 -1.5169 5.52868 0
M  V30 7130 H 665.688 -0.842035 5.94163 0
M  V30 7131 H 666.758 0.0544033 4.84869 0
M  V30 7132 N 668.101 -1.57061 -0.130224 0
M  V30 7133 C 669.326 -1.88802 -0.858409 0
M  V30 7134 C 669.751 -0.734353 -1.73173 0
M  V30 7135 O 669.109 0.315529 -1.78533 0
M  V30 7136 C 669.157 -3.19228 -1.67708 0
M  V30 7137 O 668.261 -3.04343 -2.78297 0
M  V30 7138 H 667.602 -0.619849 -0.238083 0
M  V30 7139 H 670.132 -2.04271 -0.115995 0
M  V30 7140 H 670.142 -3.51669 -2.06864 0
M  V30 7141 H 668.817 -4.02793 -1.0359 0
M  V30 7142 H 667.394 -2.83346 -2.42425 0
M  V30 7143 N 669.579 0.400081 -1.52437 0
M  V30 7144 C 670.825 1.14788 -1.67187 0
M  V30 7145 C 671.158 1.89928 -0.405074 0
M  V30 7146 O 670.433 1.85118 0.596804 0
M  V30 7147 C 670.716 2.13507 -2.89977 0
M  V30 7148 C 670.569 1.42204 -4.2673 0
M  V30 7149 C 671.888 3.14069 -3.083 0
M  V30 7150 H 669.007 0.415939 -0.608411 0
M  V30 7151 H 671.649 0.432542 -1.85011 0
M  V30 7152 H 669.799 2.7451 -2.74912 0
M  V30 7153 H 671.471 0.842503 -4.53541 0
M  V30 7154 H 669.714 0.723939 -4.27717 0
M  V30 7155 H 670.385 2.14281 -5.08712 0
M  V30 7156 H 672.861 2.63148 -3.22323 0
M  V30 7157 H 671.737 3.80398 -3.95713 0
M  V30 7158 H 671.998 3.82309 -2.22018 0
M  V30 7159 N 671.057 1.43213 0.657864 0
M  V30 7160 C 672.287 1.478 1.44356 0
M  V30 7161 C 672.695 0.0930206 1.88971 0
M  V30 7162 O 672.038 -0.906089 1.59799 0
M  V30 7163 C 672.1 2.35745 2.71412 0
M  V30 7164 C 671.764 3.83359 2.48767 0
M  V30 7165 C 672.761 4.74585 2.12285 0
M  V30 7166 C 670.446 4.27799 2.63235 0
M  V30 7167 C 672.44 6.08247 1.90562 0
M  V30 7168 C 670.127 5.61516 2.41128 0
M  V30 7169 C 671.125 6.51557 2.04847 0
M  V30 7170 O 670.813 7.82802 1.82967 0
M  V30 7171 H 670.545 0.504363 0.450104 0
M  V30 7172 H 673.099 1.88572 0.814241 0
M  V30 7173 H 671.329 1.89852 3.36887 0
M  V30 7174 H 673.018 2.31589 3.33348 0
M  V30 7175 H 673.784 4.41531 2.00687 0
M  V30 7176 H 669.663 3.57993 2.90451 0
M  V30 7177 H 673.207 6.78489 1.62168 0
M  V30 7178 H 669.104 5.94139 2.52327 0
M  V30 7179 H 669.872 7.94332 1.97429 0
M  V30 7180 N 672.536 -0.895792 1.29666 0
M  V30 7181 C 673.764 -1.68001 1.20761 0
M  V30 7182 C 674.179 -1.87379 -0.231187 0
M  V30 7183 O 673.536 -1.41359 -1.15429 0
M  V30 7184 C 673.587 -3.06236 1.92098 0
M  V30 7185 O 673.308 -2.8774 3.30359 0
M  V30 7186 C 674.809 -4.00652 1.89717 0
M  V30 7187 H 672.029 -0.524591 0.418384 0
M  V30 7188 H 674.573 -1.11995 1.71106 0
M  V30 7189 H 672.728 -3.59007 1.45578 0
M  V30 7190 H 673.142 -3.75359 3.66342 0
M  V30 7191 H 674.616 -4.95051 2.44189 0
M  V30 7192 H 675.093 -4.30424 0.873595 0
M  V30 7193 H 675.699 -3.53815 2.35998 0
M  V30 7194 N 674.014 -1.12206 -1.10668 0
M  V30 7195 C 674.944 -0.810086 -2.18997 0
M  V30 7196 C 675.925 0.225065 -1.68604 0
M  V30 7197 O 677.11 0.086783 -1.94006 0
M  V30 7198 C 674.24 -0.261262 -3.46316 0
M  V30 7199 C 673.194 -1.2292 -4.09969 0
M  V30 7200 C 672.52 -0.540713 -5.31959 0
M  V30 7201 C 673.82 -2.58295 -4.53962 0
M  V30 7202 H 675.514 -1.7159 -2.45352 0
M  V30 7203 H 673.06 -0.82646 -1.17922 0
M  V30 7204 H 675.013 -0.0307522 -4.21389 0
M  V30 7205 H 673.737 0.679879 -3.19445 0
M  V30 7206 H 672.396 -1.44548 -3.369 0
M  V30 7207 H 672.044 0.405492 -5.01363 0
M  V30 7208 H 671.744 -1.18637 -5.75499 0
M  V30 7209 H 673.268 -0.319184 -6.09765 0
M  V30 7210 H 674.682 -2.40709 -5.20319 0
M  V30 7211 H 673.079 -3.18916 -5.08343 0
M  V30 7212 H 674.149 -3.16918 -3.67002 0
M  V30 7213 N 675.492 1.28418 -0.913599 0
M  V30 7214 C 676.72 1.99106 -0.562536 0
M  V30 7215 C 677.135 1.68273 0.856137 0
M  V30 7216 O 676.492 0.935401 1.56705 0
M  V30 7217 C 676.543 3.5338 -0.761903 0
M  V30 7218 O 676.264 3.83127 -2.12475 0
M  V30 7219 C 677.765 4.41328 -0.417651 0
M  V30 7220 H 674.985 0.635798 -0.214481 0
M  V30 7221 H 677.529 1.63618 -1.22676 0
M  V30 7222 H 675.684 3.8713 -0.144676 0
M  V30 7223 H 676.098 4.77763 -2.16431 0
M  V30 7224 H 677.572 5.48642 -0.607919 0
M  V30 7225 H 678.049 4.34422 0.646108 0
M  V30 7226 H 678.655 4.13074 -1.01241 0
M  V30 7227 N 676.97 0.677563 1.42291 0
M  V30 7228 C 678.216 0.201272 2.01799 0
M  V30 7229 C 678.549 -1.19004 1.53465 0
M  V30 7230 O 677.824 -1.79953 0.738039 0
M  V30 7231 C 678.107 0.238968 3.59306 0
M  V30 7232 C 677.96 1.66594 4.17812 0
M  V30 7233 C 679.279 -0.411287 4.38174 0
M  V30 7234 H 676.398 0.0746114 0.733214 0
M  V30 7235 H 679.04 0.862872 1.69276 0
M  V30 7236 H 677.19 -0.324368 3.87144 0
M  V30 7237 H 678.862 2.28173 4.00917 0
M  V30 7238 H 677.105 2.20576 3.73536 0
M  V30 7239 H 677.776 1.64398 5.26951 0
M  V30 7240 H 680.252 0.0682804 4.16044 0
M  V30 7241 H 679.128 -0.354286 5.47755 0
M  V30 7242 H 679.389 -1.4893 4.1626 0
M  V30 7243 N 678.448 -1.51871 0.421078 0
M  V30 7244 C 679.697 -2.01125 -0.152206 0
M  V30 7245 C 680.01 -1.3106 -1.45199 0
M  V30 7246 O 681.216 -1.71195 -2.10724 0
M  V30 7247 C 679.672 -3.58458 -0.3218 0
M  V30 7248 C 679.28 -4.37448 0.96659 0
M  V30 7249 C 681.024 -4.15908 -0.84973 0
M  V30 7250 C 678.931 -5.86451 0.763529 0
M  V30 7251 H 677.861 -0.751556 -0.0606565 0
M  V30 7252 H 680.512 -1.75115 0.548354 0
M  V30 7253 H 678.894 -3.80847 -1.08498 0
M  V30 7254 H 680.068 -4.26814 1.73684 0
M  V30 7255 H 678.383 -3.91373 1.42183 0
M  V30 7256 H 680.98 -5.24922 -1.01788 0
M  V30 7257 H 681.323 -3.74031 -1.82774 0
M  V30 7258 H 681.856 -3.97535 -0.145297 0
M  V30 7259 H 678.595 -6.3271 1.71344 0
M  V30 7260 H 678.115 -5.99791 0.0327889 0
M  V30 7261 H 679.794 -6.45697 0.410354 0
M  V30 7262 N 679.926 -0.151884 -1.56866 0
M  V30 7263 C 681.154 0.504813 -2.00647 0
M  V30 7264 C 681.569 1.58098 -1.03201 0
M  V30 7265 O 680.926 1.82476 -0.0297814 0
M  V30 7266 C 680.977 1.10099 -3.44326 0
M  V30 7267 O 680.698 0.0678021 -4.38048 0
M  V30 7268 C 682.199 1.83782 -4.03409 0
M  V30 7269 H 679.419 0.130989 -0.65809 0
M  V30 7270 H 681.963 -0.247903 -2.02992 0
M  V30 7271 H 680.118 1.8043 -3.42817 0
M  V30 7272 H 680.532 0.505237 -5.22061 0
M  V30 7273 H 682.006 2.2078 -5.05925 0
M  V30 7274 H 682.483 2.72557 -3.44397 0
M  V30 7275 H 683.089 1.18138 -4.08563 0
M  V30 7276 N 681.404 1.57128 0.121893 0
M  V30 7277 C 682.334 2.03165 1.15092 0
M  V30 7278 C 683.315 0.915587 1.43356 0
M  V30 7279 O 684.5 1.1851 1.53847 0
M  V30 7280 C 681.63 2.43352 2.47784 0
M  V30 7281 C 680.584 3.58376 2.33989 0
M  V30 7282 C 679.91 3.84454 3.71617 0
M  V30 7283 C 681.21 4.90199 1.80283 0
M  V30 7284 H 682.904 2.89382 0.768023 0
M  V30 7285 H 680.45 1.39218 0.367998 0
M  V30 7286 H 682.403 2.74163 3.20019 0
M  V30 7287 H 681.127 1.54103 2.87958 0
M  V30 7288 H 679.786 3.2777 1.64202 0
M  V30 7289 H 679.434 2.92414 4.09271 0
M  V30 7290 H 679.134 4.61877 3.6324 0
M  V30 7291 H 680.658 4.17714 4.45362 0
M  V30 7292 H 682.072 5.19565 2.42333 0
M  V30 7293 H 680.469 5.71601 1.82735 0
M  V30 7294 H 681.539 4.78904 0.760184 0
M  V30 7295 N 682.882 -0.391992 1.52647 0
M  V30 7296 C 683.792 -1.503 1.80131 0
M  V30 7297 C 684.808 -1.59825 0.687882 0
M  V30 7298 O 685.984 -1.76218 0.975149 0
M  V30 7299 C 683.049 -2.85863 1.96171 0
M  V30 7300 C 682.11 -2.86084 3.20085 0
M  V30 7301 C 681.343 -4.15181 3.35351 0
M  V30 7302 O 681.566 -5.09981 2.55491 0
M  V30 7303 O 680.5 -4.22603 4.28591 0
M  V30 7304 H 684.326 -1.30007 2.74466 0
M  V30 7305 H 681.911 -0.579539 1.37701 0
M  V30 7306 H 683.793 -3.66236 2.08445 0
M  V30 7307 H 682.468 -3.06189 1.05025 0
M  V30 7308 H 681.375 -2.04504 3.13256 0
M  V30 7309 H 682.708 -2.7071 4.11068 0
M  V30 7310 N 684.36 -1.4356 -0.65026 0
M  V30 7311 C 685.776 -1.27025 -0.966269 0
M  V30 7312 C 685.976 -0.192117 -2.00582 0
M  V30 7313 O 685.032 0.428459 -2.48838 0
M  V30 7314 C 686.345 -2.63556 -1.44772 0
M  V30 7315 C 687.893 -2.71111 -1.56421 0
M  V30 7316 C 688.368 -4.08067 -2.07956 0
M  V30 7317 N 689.859 -4.10146 -2.15254 0
M  V30 7318 C 690.594 -5.12952 -2.56258 0
M  V30 7319 N 690.09 -6.26129 -2.96537 0
M  V30 7320 N 691.883 -5.00306 -2.56224 0
M  V30 7321 H 684.034 -2.12367 0.0375758 0
M  V30 7322 H 686.297 -0.946894 -0.0457782 0
M  V30 7323 H 686.003 -3.43429 -0.758271 0
M  V30 7324 H 685.877 -2.89152 -2.42221 0
M  V30 7325 H 688.264 -1.91569 -2.24467 0
M  V30 7326 H 688.345 -2.49277 -0.573967 0
M  V30 7327 H 687.989 -4.88077 -1.40511 0
M  V30 7328 H 687.919 -4.27266 -3.07817 0
M  V30 7329 H 690.41 -3.28453 -1.86887 0
M  V30 7330 H 690.723 -7.00403 -3.26582 0
M  V30 7331 H 689.068 -6.29597 -2.94334 0
M  V30 7332 H 692.259 -4.10952 -2.24135 0
M  V30 7333 H 692.432 -5.80553 -2.87857 0
M  V30 7334 N 685.838 0.888903 -1.30139 0
M  V30 7335 C 687.084 1.64288 -1.19922 0
M  V30 7336 C 687.439 1.90839 0.244561 0
M  V30 7337 O 686.732 1.51544 1.17239 0
M  V30 7338 C 686.926 2.99041 -1.95728 0
M  V30 7339 C 686.755 2.85644 -3.47329 0
M  V30 7340 C 685.525 2.85836 -4.16685 0
M  V30 7341 C 687.723 2.6188 -4.42632 0
M  V30 7342 N 685.705 2.63289 -5.54574 0
M  V30 7343 C 687.076 2.48418 -5.68057 0
M  V30 7344 C 689.131 2.47073 -4.32272 0
M  V30 7345 C 687.834 2.21655 -6.84296 0
M  V30 7346 C 689.86 2.21695 -5.48275 0
M  V30 7347 C 689.222 2.09007 -6.72678 0
M  V30 7348 H 685.321 0.606315 -0.493868 0
M  V30 7349 H 687.905 1.0478 -1.64102 0
M  V30 7350 H 686.076 3.56589 -1.53945 0
M  V30 7351 H 687.808 3.63607 -1.77685 0
M  V30 7352 H 684.563 2.97521 -3.68481 0
M  V30 7353 H 684.987 2.55039 -6.27124 0
M  V30 7354 H 689.629 2.55621 -3.36776 0
M  V30 7355 H 687.347 2.11845 -7.79838 0
M  V30 7356 H 690.933 2.11067 -5.42164 0
M  V30 7357 H 689.813 1.89643 -7.60924 0
M  V30 7358 N 687.317 1.12792 1.10072 0
M  V30 7359 C 688.267 0.768086 2.14673 0
M  V30 7360 C 689.251 -0.234716 1.59179 0
M  V30 7361 O 690.443 -0.039643 1.76956 0
M  V30 7362 C 687.572 0.228472 3.42539 0
M  V30 7363 C 686.658 1.25979 4.04957 0
M  V30 7364 N 687.049 2.4586 4.42025 0
M  V30 7365 C 685.347 1.10602 4.32069 0
M  V30 7366 C 686.048 3.11747 4.9111 0
M  V30 7367 N 685.024 2.39185 4.88151 0
M  V30 7368 H 688.826 1.68029 2.4113 0
M  V30 7369 H 686.34 1.00925 1.27232 0
M  V30 7370 H 688.337 -0.0475216 4.16873 0
M  V30 7371 H 686.997 -0.678136 3.1754 0
M  V30 7372 H 688.008 2.83215 4.33601 0
M  V30 7373 H 684.685 0.257021 4.16708 0
M  V30 7374 H 686.075 4.13862 5.29309 0
M  V30 7375 N 688.795 -1.27931 0.920396 0
M  V30 7376 C 690.023 -1.98805 0.573087 0
M  V30 7377 C 690.438 -1.68724 -0.847201 0
M  V30 7378 O 689.795 -0.943699 -1.56207 0
M  V30 7379 C 689.846 -3.52971 0.780633 0
M  V30 7380 O 689.567 -3.81994 2.14504 0
M  V30 7381 C 691.068 -4.411 0.44105 0
M  V30 7382 H 688.288 -0.634651 0.21785 0
M  V30 7383 H 690.832 -1.62965 1.23542 0
M  V30 7384 H 688.987 -3.87048 0.165204 0
M  V30 7385 H 689.401 -4.76609 2.18962 0
M  V30 7386 H 690.875 -5.48312 0.637006 0
M  V30 7387 H 691.352 -4.34758 -0.62306 0
M  V30 7388 H 691.958 -4.12532 1.0343 0
M  V30 7389 N 690.273 -0.685099 -1.4193 0
M  V30 7390 C 691.522 -0.208816 -2.00616 0
M  V30 7391 C 691.835 1.19506 -1.54847 0
M  V30 7392 O 693.041 1.76826 -2.06021 0
M  V30 7393 C 691.497 -0.322446 -3.58453 0
M  V30 7394 C 691.105 -1.73102 -4.13206 0
M  V30 7395 C 692.849 0.0945979 -4.24395 0
M  V30 7396 C 690.756 -1.79687 -5.63442 0
M  V30 7397 H 689.686 -0.0743092 -0.750329 0
M  V30 7398 H 692.337 -0.851778 -1.62533 0
M  V30 7399 H 690.719 0.388588 -3.94089 0
M  V30 7400 H 691.893 -2.46997 -3.8901 0
M  V30 7401 H 690.208 -2.09682 -3.59753 0
M  V30 7402 H 692.805 0.0656937 -5.3466 0
M  V30 7403 H 693.148 1.1316 -4.00625 0
M  V30 7404 H 693.681 -0.56579 -3.93756 0
M  V30 7405 H 690.42 -2.81404 -5.92024 0
M  V30 7406 H 689.94 -1.10162 -5.89597 0
M  V30 7407 H 691.619 -1.55498 -6.28036 0
M  V30 7408 N 691.751 1.51645 -0.429126 0
M  V30 7409 C 692.979 2.06433 0.138994 0
M  V30 7410 C 693.394 1.29735 1.37165 0
M  V30 7411 O 692.751 0.354638 1.79021 0
M  V30 7412 C 692.802 3.58439 0.469452 0
M  V30 7413 O 692.523 4.32238 -0.714273 0
M  V30 7414 C 694.024 4.29712 1.08914 0
M  V30 7415 H 691.244 0.6709 0.0115608 0
M  V30 7416 H 693.788 1.9532 -0.605843 0
M  V30 7417 H 691.943 3.69494 1.16419 0
M  V30 7418 H 692.357 5.22704 -0.433633 0
M  V30 7419 H 693.831 5.37182 1.27042 0
M  V30 7420 H 694.308 3.87473 2.06788 0
M  V30 7421 H 694.914 4.2308 0.434028 0
M  V30 7422 N 693.229 0.160201 1.56784 0
M  V30 7423 C 694.459 -0.493449 2.00621 0
M  V30 7424 C 694.867 -1.5809 1.03943 0
M  V30 7425 O 694.21 -1.83675 0.0305343 0
M  V30 7426 C 694.272 -1.14169 3.4089 0
M  V30 7427 C 693.936 -0.197243 4.56574 0
M  V30 7428 C 694.933 0.580174 5.16653 0
M  V30 7429 C 692.618 -0.0963038 5.02208 0
M  V30 7430 C 694.612 1.44584 6.20785 0
M  V30 7431 C 692.299 0.772959 6.06192 0
M  V30 7432 C 693.297 1.54263 6.65351 0
M  V30 7433 O 692.985 2.39738 7.67321 0
M  V30 7434 H 692.717 -0.131764 0.663034 0
M  V30 7435 H 695.271 0.255728 2.03802 0
M  V30 7436 H 693.501 -1.93877 3.34587 0
M  V30 7437 H 695.19 -1.69641 3.6875 0
M  V30 7438 H 695.956 0.5123 4.82287 0
M  V30 7439 H 691.835 -0.685143 4.5588 0
M  V30 7440 H 695.379 2.04706 6.66889 0
M  V30 7441 H 691.276 0.842077 6.39984 0
M  V30 7442 H 692.044 2.33131 7.84597 0
M  V30 7443 N 694.707 -1.5719 -0.113559 0
M  V30 7444 C 695.67 -1.99796 -1.12314 0
M  V30 7445 C 696.67 -0.888847 -1.34001 0
M  V30 7446 O 697.86 -1.15476 -1.30426 0
M  V30 7447 C 694.992 -2.34279 -2.47641 0
M  V30 7448 H 696.185 -2.90193 -0.756825 0
M  V30 7449 H 693.738 -1.52144 -0.358029 0
M  V30 7450 H 694.473 -1.46778 -2.89183 0
M  V30 7451 H 694.258 -3.15175 -2.33253 0
M  V30 7452 H 695.748 -2.67963 -3.2029 0
M  V30 7453 N 696.185 0.383891 -1.52853 0
M  V30 7454 C 697.434 1.12563 -1.67369 0
M  V30 7455 C 697.747 1.90982 -0.422533 0
M  V30 7456 O 698.953 2.6778 -0.447914 0
M  V30 7457 C 697.409 2.05011 -2.95801 0
M  V30 7458 C 697.017 1.31991 -4.28115 0
M  V30 7459 C 698.761 2.79289 -3.19684 0
M  V30 7460 C 696.668 2.23235 -5.4765 0
M  V30 7461 H 695.598 0.42391 -0.623552 0
M  V30 7462 H 698.249 0.388016 -1.79351 0
M  V30 7463 H 696.631 2.82429 -2.77578 0
M  V30 7464 H 697.805 0.597633 -4.56908 0
M  V30 7465 H 696.12 0.696517 -4.10533 0
M  V30 7466 H 698.717 3.47749 -4.06171 0
M  V30 7467 H 699.06 3.43649 -2.3497 0
M  V30 7468 H 699.593 2.08962 -3.38496 0
M  V30 7469 H 696.332 1.63482 -6.34786 0
M  V30 7470 H 695.852 2.93364 -5.23161 0
M  V30 7471 H 697.531 2.83205 -5.81725 0
M  V30 7472 N 697.663 1.43903 0.642637 0
M  V30 7473 C 698.613 1.46321 1.74854 0
M  V30 7474 C 699.597 0.330361 1.57472 0
M  V30 7475 O 700.789 0.574881 1.67404 0
M  V30 7476 C 697.918 1.39919 3.13493 0
M  V30 7477 C 697.004 2.58274 3.36385 0
M  V30 7478 N 697.395 3.83578 3.29699 0
M  V30 7479 C 695.693 2.53224 3.67142 0
M  V30 7480 C 696.394 4.62375 3.52965 0
M  V30 7481 N 695.37 3.93269 3.75287 0
M  V30 7482 H 699.172 2.41062 1.68126 0
M  V30 7483 H 696.686 1.38704 0.844693 0
M  V30 7484 H 698.683 1.39735 3.92785 0
M  V30 7485 H 697.343 0.46207 3.21395 0
M  V30 7486 H 698.354 4.15713 3.08874 0
M  V30 7487 H 695.031 1.68252 3.82096 0
M  V30 7488 H 696.421 5.714 3.53485 0
M  V30 7489 N 699.141 -0.881989 1.30609 0
M  V30 7490 C 700.071 -2.00413 1.1982 0
M  V30 7491 C 701.052 -1.69871 0.0881538 0
M  V30 7492 O 702.237 -1.92304 0.2707 0
M  V30 7493 C 699.367 -3.35641 0.89233 0
M  V30 7494 C 698.321 -3.80451 1.96064 0
M  V30 7495 C 697.647 -5.13003 1.5077 0
M  V30 7496 C 698.947 -3.98855 3.37213 0
M  V30 7497 H 700.641 -2.09698 2.13699 0
M  V30 7498 H 698.187 -1.00754 1.02882 0
M  V30 7499 H 700.14 -4.13669 0.803497 0
M  V30 7500 H 698.864 -3.26497 -0.0821381 0
M  V30 7501 H 697.523 -3.04654 2.03916 0
M  V30 7502 H 697.171 -5.0029 0.521417 0
M  V30 7503 H 696.871 -5.43956 2.22229 0
M  V30 7504 H 698.395 -5.93554 1.43271 0
M  V30 7505 H 699.809 -4.67312 3.32103 0
M  V30 7506 H 698.206 -4.41188 4.06784 0
M  V30 7507 H 699.276 -3.02614 3.78883 0
M  V30 7508 N 700.619 -1.13374 -1.09472 0
M  V30 7509 C 701.896 -0.806329 -1.78207 0
M  V30 7510 C 702.276 0.702191 -1.99079 0
M  V30 7511 O 701.624 1.63931 -1.59182 0
M  V30 7512 C 701.834 -1.59271 -3.10538 0
M  V30 7513 C 703.182 -1.78509 -3.85253 0
M  V30 7514 O 704.206 -1.55866 -3.20288 0
M  V30 7515 O 703.065 -2.16287 -5.01879 0
M  V30 7516 H 700.159 -0.29435 -0.772843 0
M  V30 7517 H 702.705 -1.23833 -1.16033 0
M  V30 7518 H 701.477 -2.61792 -2.90828 0
M  V30 7519 H 701.1 -1.15562 -3.80436 0
M  V30 7520 N 702.098 1.27442 -0.927168 0
M  V30 7521 C 703.03 2.25975 -0.383158 0
M  V30 7522 C 704.043 1.55382 0.485832 0
M  V30 7523 O 705.232 1.75986 0.298541 0
M  V30 7524 C 702.332 3.35629 0.469688 0
M  V30 7525 C 701.505 4.35747 -0.379886 0
M  V30 7526 C 700.564 5.24598 0.410227 0
M  V30 7527 O 699.59 5.68909 -0.181888 0
M  V30 7528 N 700.792 5.54737 1.71017 0
M  V30 7529 H 703.557 2.7329 -1.23015 0
M  V30 7530 H 701.118 1.41063 -0.794539 0
M  V30 7531 H 703.11 3.92015 1.00532 0
M  V30 7532 H 701.68 2.87919 1.21744 0
M  V30 7533 H 700.9 3.78634 -1.09682 0
M  V30 7534 H 702.188 4.99648 -0.960717 0
M  V30 7535 H 701.586 5.20594 2.21356 0
M  V30 7536 H 700.143 6.13824 2.19234 0
M  V30 7537 N 703.576 0.692616 1.41565 0
M  V30 7538 C 704.523 0.0254264 2.30786 0
M  V30 7539 C 705.493 -0.774347 1.46946 0
M  V30 7540 O 706.678 -0.742981 1.7574 0
M  V30 7541 C 703.818 -0.907123 3.32964 0
M  V30 7542 C 702.931 -0.0992784 4.31886 0
M  V30 7543 C 702.066 -1.0292 5.21134 0
M  V30 7544 C 701.105 -0.214088 6.11725 0
M  V30 7545 N 700.242 -1.09766 6.93467 0
M  V30 7546 H 705.082 0.792036 2.87282 0
M  V30 7547 H 702.619 0.4023 1.41492 0
M  V30 7548 H 704.577 -1.46181 3.90752 0
M  V30 7549 H 703.207 -1.64016 2.78026 0
M  V30 7550 H 702.259 0.572287 3.76071 0
M  V30 7551 H 703.571 0.532782 4.95946 0
M  V30 7552 H 702.725 -1.65321 5.83741 0
M  V30 7553 H 701.464 -1.69512 4.57293 0
M  V30 7554 H 700.469 0.42302 5.4817 0
M  V30 7555 H 701.694 0.447995 6.77621 0
M  V30 7556 H 699.64 -1.74965 6.32237 0
M  V30 7557 H 699.557 -0.521099 7.54202 0
M  V30 7558 H 700.825 -1.70858 7.60544 0
M  V30 7559 N 705.054 -1.51416 0.437162 0
M  V30 7560 C 705.984 -2.30631 -0.364922 0
M  V30 7561 C 706.965 -1.36037 -1.02118 0
M  V30 7562 O 708.15 -1.64956 -1.02485 0
M  V30 7563 C 705.28 -3.1482 -1.46648 0
M  V30 7564 C 704.234 -4.17691 -0.933717 0
M  V30 7565 C 703.56 -4.904 -2.13101 0
M  V30 7566 C 704.86 -5.2229 0.0317201 0
M  V30 7567 H 706.554 -2.97932 0.29614 0
M  V30 7568 H 704.1 -1.4328 0.143865 0
M  V30 7569 H 706.053 -3.69017 -2.03481 0
M  V30 7570 H 704.777 -2.4534 -2.15583 0
M  V30 7571 H 703.436 -3.64545 -0.387602 0
M  V30 7572 H 703.084 -4.17423 -2.80654 0
M  V30 7573 H 702.784 -5.59962 -1.78092 0
M  V30 7574 H 704.308 -5.4742 -2.70487 0
M  V30 7575 H 705.722 -5.7156 -0.446302 0
M  V30 7576 H 704.119 -5.99378 0.29437 0
M  V30 7577 H 705.189 -4.75131 0.968447 0
M  V30 7578 N 706.532 -0.168513 -1.56696 0
M  V30 7579 C 707.948 0.187686 -1.58493 0
M  V30 7580 C 708.148 1.63063 -1.18375 0
M  V30 7581 O 707.204 2.36142 -0.894042 0
M  V30 7582 C 708.517 -0.0905858 -3.00564 0
M  V30 7583 C 710.065 -0.028575 -3.12987 0
M  V30 7584 C 710.54 -0.279799 -4.57145 0
M  V30 7585 N 712.031 -0.227476 -4.62641 0
M  V30 7586 C 712.766 -0.396073 -5.7203 0
M  V30 7587 N 712.262 -0.623572 -6.89988 0
M  V30 7588 N 714.055 -0.332173 -5.61118 0
M  V30 7589 H 706.206 -1.11042 -1.81062 0
M  V30 7590 H 708.469 -0.441235 -0.839056 0
M  V30 7591 H 708.175 -1.09006 -3.34381 0
M  V30 7592 H 708.049 0.619078 -3.72085 0
M  V30 7593 H 710.436 0.961471 -2.78998 0
M  V30 7594 H 710.517 -0.770905 -2.43907 0
M  V30 7595 H 710.161 -1.26704 -4.91842 0
M  V30 7596 H 710.091 0.48311 -5.24379 0
M  V30 7597 H 712.582 -0.0571723 -3.77857 0
M  V30 7598 H 712.895 -0.741745 -7.69232 0
M  V30 7599 H 711.24 -0.660153 -6.91858 0
M  V30 7600 H 714.431 -0.155051 -4.67843 0
M  V30 7601 H 714.604 -0.466994 -6.46315 0
M  V30 7602 N 708.01 1.57248 0.105221 0
M  V30 7603 C 708.94 2.04374 1.12931 0
M  V30 7604 C 709.921 0.93074 1.42377 0
M  V30 7605 O 711.106 1.20136 1.52581 0
M  V30 7606 C 708.236 2.45967 2.45189 0
M  V30 7607 C 707.19 3.60838 2.30174 0
M  V30 7608 C 706.516 3.88374 3.67518 0
M  V30 7609 C 707.816 4.92084 1.75073 0
M  V30 7610 H 709.51 2.9018 0.737287 0
M  V30 7611 H 707.056 1.39601 0.353211 0
M  V30 7612 H 709.009 2.77542 3.17094 0
M  V30 7613 H 707.733 1.57148 2.86308 0
M  V30 7614 H 706.392 3.29493 1.60716 0
M  V30 7615 H 706.04 2.96739 4.06147 0
M  V30 7616 H 705.74 4.65703 3.58321 0
M  V30 7617 H 707.264 4.22415 4.40906 0
M  V30 7618 H 708.678 5.22106 2.36809 0
M  V30 7619 H 707.075 5.73507 1.76662 0
M  V30 7620 H 708.145 4.79684 0.709347 0
M  V30 7621 N 709.488 -0.375779 1.53054 0
M  V30 7622 C 710.904 -0.716764 1.426 0
M  V30 7623 C 711.104 -1.93651 0.556931 0
M  V30 7624 O 710.16 -2.52475 0.0354461 0
M  V30 7625 C 711.473 -0.939499 2.85646 0
M  V30 7626 C 713.021 -1.04015 2.95212 0
M  V30 7627 C 713.496 -1.29543 4.39298 0
M  V30 7628 N 714.987 -1.36335 4.42682 0
M  V30 7629 C 715.722 -1.57778 5.51266 0
M  V30 7630 N 715.218 -1.76604 6.69913 0
M  V30 7631 N 717.011 -1.60065 5.38828 0
M  V30 7632 H 709.162 0.42664 2.08071 0
M  V30 7633 H 711.425 0.128758 0.939215 0
M  V30 7634 H 711.131 -0.115189 3.51511 0
M  V30 7635 H 711.005 -1.85048 3.2869 0
M  V30 7636 H 713.392 -1.85501 2.29507 0
M  V30 7637 H 713.473 -0.106785 2.55577 0
M  V30 7638 H 713.117 -0.485611 5.05573 0
M  V30 7639 H 713.047 -2.24184 4.76497 0
M  V30 7640 H 715.538 -1.23441 3.5717 0
M  V30 7641 H 715.851 -1.9251 7.48438 0
M  V30 7642 H 714.196 -1.73802 6.72917 0
M  V30 7643 H 717.387 -1.44917 4.45103 0
M  V30 7644 H 717.56 -1.76435 6.23518 0
M  V30 7645 N 710.966 -1.44241 -0.634997 0
M  V30 7646 C 711.916 -1.47247 -1.74076 0
M  V30 7647 C 712.9 -0.338708 -1.57295 0
M  V30 7648 O 714.092 -0.583751 -1.67097 0
M  V30 7649 C 711.221 -1.41579 -3.12746 0
M  V30 7650 C 710.307 -2.60055 -3.35011 0
M  V30 7651 N 710.698 -3.85321 -3.27661 0
M  V30 7652 C 708.996 -2.55168 -3.65794 0
M  V30 7653 C 709.697 -4.64241 -3.50508 0
M  V30 7654 N 708.673 -3.95254 -3.73196 0
M  V30 7655 H 712.475 -2.4195 -1.66845 0
M  V30 7656 H 709.989 -1.3915 -0.837326 0
M  V30 7657 H 711.986 -1.41816 -3.92038 0
M  V30 7658 H 710.646 -0.479108 -3.21146 0
M  V30 7659 H 711.657 -4.17345 -3.06665 0
M  V30 7660 H 708.334 -1.70276 -3.81198 0
M  V30 7661 H 709.724 -5.73267 -3.50449 0
M  V30 7662 N 712.444 0.87505 -1.31075 0
M  V30 7663 C 713.407 1.96333 -1.18263 0
M  V30 7664 C 714.407 1.60416 -0.111106 0
M  V30 7665 O 715.597 1.7044 -0.359987 0
M  V30 7666 C 712.729 3.31036 -0.81414 0
M  V30 7667 H 713.922 2.09125 -2.14958 0
M  V30 7668 H 711.475 1.06271 -1.14614 0
M  V30 7669 H 712.21 3.23944 0.151875 0
M  V30 7670 H 711.995 3.58476 -1.58862 0
M  V30 7671 H 713.485 4.10842 -0.748249 0
M  V30 7672 N 713.922 1.13953 1.08869 0
M  V30 7673 C 715.171 0.899431 1.80536 0
M  V30 7674 C 715.484 -0.575781 1.86933 0
M  V30 7675 O 716.69 -0.932988 2.54966 0
M  V30 7676 C 715.146 1.55963 3.24351 0
M  V30 7677 C 714.754 3.07077 3.26202 0
M  V30 7678 C 716.498 1.40046 4.00733 0
M  V30 7679 C 714.405 3.65955 4.64576 0
M  V30 7680 H 713.335 0.332849 0.676556 0
M  V30 7681 H 715.986 1.3679 1.22314 0
M  V30 7682 H 714.368 1.01883 3.82669 0
M  V30 7683 H 715.542 3.67785 2.77617 0
M  V30 7684 H 713.857 3.22576 2.63312 0
M  V30 7685 H 716.454 1.81441 5.02974 0
M  V30 7686 H 716.797 0.345993 4.1486 0
M  V30 7687 H 717.33 1.91137 3.48872 0
M  V30 7688 H 714.069 4.71234 4.55652 0
M  V30 7689 H 713.589 3.10027 5.13462 0
M  V30 7690 H 715.268 3.65968 5.33551 0
M  V30 7691 N 715.4 -1.26948 0.933913 0
M  V30 7692 C 716.33 -2.29017 0.45534 0
M  V30 7693 C 717.311 -1.62961 -0.487605 0
M  V30 7694 O 718.496 -1.90223 -0.391022 0
M  V30 7695 C 715.626 -3.46112 -0.287015 0
M  V30 7696 C 714.58 -4.24205 0.568682 0
M  V30 7697 C 713.906 -5.3384 -0.303206 0
M  V30 7698 C 715.206 -4.88954 1.83633 0
M  V30 7699 H 716.9 -2.69298 1.30839 0
M  V30 7700 H 714.446 -1.29459 0.630579 0
M  V30 7701 H 716.399 -4.16622 -0.6328 0
M  V30 7702 H 715.123 -3.04765 -1.17414 0
M  V30 7703 H 713.782 -3.5545 0.897261 0
M  V30 7704 H 713.43 -4.88734 -1.18947 0
M  V30 7705 H 713.13 -5.86998 0.265879 0
M  V30 7706 H 714.654 -6.0719 -0.644423 0
M  V30 7707 H 716.068 -5.51717 1.55823 0
M  V30 7708 H 714.465 -5.52198 2.34941 0
M  V30 7709 H 715.535 -4.12305 2.55211 0
M  V30 7710 N 716.879 -0.700114 -1.41195 0
M  V30 7711 C 718.128 -0.230082 -2.00383 0
M  V30 7712 C 718.441 1.17857 -1.56106 0
M  V30 7713 O 719.647 1.74631 -2.07885 0
M  V30 7714 C 718.103 -0.360447 -3.5809 0
M  V30 7715 C 717.711 -1.77475 -4.11347 0
M  V30 7716 C 719.455 0.0495799 -4.24471 0
M  V30 7717 C 717.362 -1.85653 -5.61504 0
M  V30 7718 H 716.292 -0.0822633 -0.749499 0
M  V30 7719 H 718.943 -0.868969 -1.6162 0
M  V30 7720 H 717.325 0.346768 -3.94479 0
M  V30 7721 H 718.499 -2.51109 -3.86369 0
M  V30 7722 H 716.814 -2.13486 -3.57509 0
M  V30 7723 H 719.411 0.00898219 -5.34699 0
M  V30 7724 H 719.754 1.08904 -4.01803 0
M  V30 7725 H 720.287 -0.607521 -3.93134 0
M  V30 7726 H 717.026 -2.87667 -5.89006 0
M  V30 7727 H 716.546 -1.1641 -5.88395 0
M  V30 7728 H 718.225 -1.62151 -6.26351 0
M  V30 7729 N 718.357 1.51182 -0.445186 0
M  V30 7730 C 719.29 2.24528 0.4077 0
M  V30 7731 C 720.268 1.26778 1.01814 0
M  V30 7732 O 721.452 1.55934 1.05909 0
M  V30 7733 C 718.579 3.00171 1.56892 0
M  V30 7734 C 717.625 4.12641 1.0784 0
M  V30 7735 S 718.458 5.35498 0.014049 0
M  V30 7736 C 719.614 6.14681 1.17975 0
M  V30 7737 H 719.847 2.96522 -0.214987 0
M  V30 7738 H 717.38 1.52681 -0.229781 0
M  V30 7739 H 719.338 3.44349 2.23459 0
M  V30 7740 H 717.999 2.27752 2.16304 0
M  V30 7741 H 717.192 4.64875 1.94698 0
M  V30 7742 H 716.794 3.70765 0.490852 0
M  V30 7743 H 719.086 6.44244 2.09658 0
M  V30 7744 H 720.029 7.04659 0.697222 0
M  V30 7745 H 720.437 5.46299 1.42187 0
M  V30 7746 N 719.835 0.176821 1.56605 0
M  V30 7747 C 720.765 -0.746841 2.21234 0
M  V30 7748 C 721.746 -1.23502 1.16967 0
M  V30 7749 O 722.931 -1.28718 1.45414 0
M  V30 7750 C 720.061 -1.97407 2.8574 0
M  V30 7751 C 719.015 -1.62153 3.96094 0
M  V30 7752 C 718.341 -2.92387 4.47676 0
M  V30 7753 C 719.641 -0.845353 5.15413 0
M  V30 7754 H 721.335 -0.208116 2.98676 0
M  V30 7755 H 718.881 -0.0986594 1.43662 0
M  V30 7756 H 720.834 -2.62531 3.2963 0
M  V30 7757 H 719.558 -2.53703 2.05676 0
M  V30 7758 H 718.217 -0.993964 3.52868 0
M  V30 7759 H 717.865 -3.46734 3.64396 0
M  V30 7760 H 717.565 -2.69551 5.22127 0
M  V30 7761 H 719.089 -3.5853 4.94255 0
M  V30 7762 H 720.503 -1.39929 5.55961 0
M  V30 7763 H 718.9 -0.715814 5.95815 0
M  V30 7764 H 719.97 0.157239 4.84645 0
M  V30 7765 N 721.313 -1.57302 -0.09688 0
M  V30 7766 C 722.561 -1.8563 -0.799117 0
M  V30 7767 C 722.882 -0.765263 -1.79356 0
M  V30 7768 O 722.152 0.208657 -1.94786 0
M  V30 7769 H 720.732 -0.684937 -0.298111 0
M  V30 7770 H 723.394 -1.9474 -0.0789341 0
M  V30 7771 H 722.49 -2.82305 -1.3308 0
M  V30 7772 N 722.791 0.367657 -1.53252 0
M  V30 7773 C 724.039 1.10832 -1.68999 0
M  V30 7774 C 724.36 1.89894 -0.443306 0
M  V30 7775 O 723.63 1.88235 0.54262 0
M  V30 7776 H 722.21 0.412153 -0.623008 0
M  V30 7777 H 724.872 0.414775 -1.90435 0
M  V30 7778 H 723.968 1.7993 -2.55013 0
M  V30 7779 N 724.269 1.44576 0.627338 0
M  V30 7780 C 725.515 1.4877 1.38705 0
M  V30 7781 C 725.87 0.119976 1.92026 0
M  V30 7782 O 725.163 -0.865341 1.70946 0
M  V30 7783 C 725.357 2.48644 2.56731 0
M  V30 7784 C 725.186 3.94994 2.14965 0
M  V30 7785 C 723.956 4.63139 2.02065 0
M  V30 7786 C 726.154 4.841 1.73643 0
M  V30 7787 N 724.136 5.94296 1.53902 0
M  V30 7788 C 725.507 6.0473 1.36753 0
M  V30 7789 C 727.562 4.71131 1.61058 0
M  V30 7790 C 726.265 7.13831 0.885353 0
M  V30 7791 C 728.291 5.8026 1.14244 0
M  V30 7792 C 727.653 7.00034 0.783067 0
M  V30 7793 H 723.752 0.599415 0.50222 0
M  V30 7794 H 726.336 1.80926 0.719285 0
M  V30 7795 H 724.507 2.18472 3.2113 0
M  V30 7796 H 726.239 2.4311 3.23542 0
M  V30 7797 H 722.994 4.18007 2.22637 0
M  V30 7798 H 723.418 6.63985 1.32108 0
M  V30 7799 H 728.06 3.78964 1.87473 0
M  V30 7800 H 725.778 8.05804 0.608716 0
M  V30 7801 H 729.364 5.72254 1.0496 0
M  V30 7802 H 728.244 7.8304 0.426381 0
M  V30 7803 N 725.747 -0.868086 1.31537 0
M  V30 7804 C 726.677 -1.99131 1.21939 0
M  V30 7805 C 727.658 -1.69768 0.106166 0
M  V30 7806 O 728.843 -1.92006 0.291081 0
M  V30 7807 C 725.973 -3.34676 0.927879 0
M  V30 7808 C 724.927 -3.7835 2.00088 0
M  V30 7809 C 724.253 -5.11375 1.56203 0
M  V30 7810 C 725.553 -3.95256 3.41424 0
M  V30 7811 H 727.247 -2.07419 2.15911 0
M  V30 7812 H 724.793 -0.996569 1.03945 0
M  V30 7813 H 726.746 -4.12793 0.847327 0
M  V30 7814 H 725.47 -3.26565 -0.0475042 0
M  V30 7815 H 724.129 -3.02474 2.07135 0
M  V30 7816 H 723.777 -4.99709 0.57445 0
M  V30 7817 H 723.477 -5.41568 2.27985 0
M  V30 7818 H 725.001 -5.92001 1.49558 0
M  V30 7819 H 726.415 -4.63764 3.3704 0
M  V30 7820 H 724.812 -4.36849 4.1144 0
M  V30 7821 H 725.882 -2.98579 3.82072 0
M  V30 7822 N 727.225 -1.14528 -1.08264 0
M  V30 7823 C 728.472 -0.914405 -1.80679 0
M  V30 7824 C 728.8 0.558952 -1.86295 0
M  V30 7825 O 728.055 1.43017 -1.33584 0
M  V30 7826 C 728.354 -1.46226 -3.26117 0
M  V30 7827 C 728.02 -2.95451 -3.40616 0
M  V30 7828 C 726.682 -3.36191 -3.4428 0
M  V30 7829 C 729.034 -3.91399 -3.44175 0
M  V30 7830 C 726.362 -4.71539 -3.49096 0
M  V30 7831 C 728.714 -5.26606 -3.50526 0
M  V30 7832 C 727.378 -5.66856 -3.52464 0
M  V30 7833 H 726.648 -0.334604 -0.661151 0
M  V30 7834 H 729.295 -1.4292 -1.27461 0
M  V30 7835 H 727.6 -0.868442 -3.82054 0
M  V30 7836 H 729.297 -1.25955 -3.80705 0
M  V30 7837 H 725.887 -2.62955 -3.38456 0
M  V30 7838 H 730.071 -3.61004 -3.40573 0
M  V30 7839 H 725.327 -5.02082 -3.4889 0
M  V30 7840 H 729.501 -6.00758 -3.52225 0
M  V30 7841 H 727.128 -6.71718 -3.55948 0
M  V30 7842 N 728.703 1.26451 -0.940633 0
M  V30 7843 C 729.928 1.98407 -0.60412 0
M  V30 7844 C 730.353 1.69584 0.81382 0
M  V30 7845 O 729.711 0.943553 1.54812 0
M  V30 7846 C 729.759 3.50387 -0.852136 0
M  V30 7847 O 728.863 4.1233 0.076013 0
M  V30 7848 H 728.204 0.622466 -0.231153 0
M  V30 7849 H 730.734 1.60932 -1.26342 0
M  V30 7850 H 730.744 4.00614 -0.772816 0
M  V30 7851 H 729.419 3.70696 -1.88566 0
M  V30 7852 H 727.996 3.7286 -0.0543187 0
M  V30 7853 N 730.181 0.707592 1.40822 0
M  V30 7854 C 731.406 0.251626 2.05868 0
M  V30 7855 C 731.831 -1.09503 1.5294 0
M  V30 7856 O 731.189 -1.68806 0.661385 0
M  V30 7857 C 731.237 0.23287 3.59847 0
M  V30 7858 O 730.341 -0.788477 4.04792 0
M  V30 7859 H 729.682 0.119936 0.653078 0
M  V30 7860 H 732.212 0.96583 1.80369 0
M  V30 7861 H 732.222 0.0678204 4.07944 0
M  V30 7862 H 730.897 1.21565 3.97737 0
M  V30 7863 H 729.474 -0.591802 3.68174 0
M  V30 7864 N 731.66 -1.50943 0.453197 0
M  V30 7865 C 732.59 -2.31005 -0.34044 0
M  V30 7866 C 733.571 -1.37112 -1.00669 0
M  V30 7867 O 734.756 -1.66033 -1.0073 0
M  V30 7868 C 731.886 -3.16358 -1.433 0
M  V30 7869 C 730.84 -4.18658 -0.889363 0
M  V30 7870 C 730.166 -4.92633 -2.07887 0
M  V30 7871 C 731.466 -5.22227 0.0871142 0
M  V30 7872 H 733.16 -2.97601 0.327723 0
M  V30 7873 H 730.706 -1.43119 0.159054 0
M  V30 7874 H 732.659 -3.71155 -1.99555 0
M  V30 7875 H 731.383 -2.47613 -2.12968 0
M  V30 7876 H 730.042 -3.64936 -0.348915 0
M  V30 7877 H 729.69 -4.20376 -2.76211 0
M  V30 7878 H 729.39 -5.61819 -1.72143 0
M  V30 7879 H 730.914 -5.50258 -2.64666 0
M  V30 7880 H 732.328 -5.72001 -0.385656 0
M  V30 7881 H 730.725 -5.99032 0.357926 0
M  V30 7882 H 731.795 -4.74077 1.01879 0
M  V30 7883 N 733.138 -0.185124 -1.56509 0
M  V30 7884 C 734.387 0.456421 -1.96468 0
M  V30 7885 C 734.7 1.63448 -1.07444 0
M  V30 7886 O 735.906 2.34316 -1.37143 0
M  V30 7887 C 734.362 0.863404 -3.4939 0
M  V30 7888 C 733.97 -0.289815 -4.47062 0
M  V30 7889 C 735.714 1.47259 -3.98139 0
M  V30 7890 C 733.621 0.137571 -5.9124 0
M  V30 7891 H 732.551 0.17429 -0.733579 0
M  V30 7892 H 735.202 -0.275554 -1.81419 0
M  V30 7893 H 733.584 1.65176 -3.59907 0
M  V30 7894 H 734.758 -1.06728 -4.4827 0
M  V30 7895 H 733.073 -0.809851 -4.08449 0
M  V30 7896 H 735.67 1.80463 -5.03326 0
M  V30 7897 H 736.013 2.3755 -3.41871 0
M  V30 7898 H 736.546 0.748405 -3.90696 0
M  V30 7899 H 733.285 -0.730907 -6.51412 0
M  V30 7900 H 732.805 0.8801 -5.93308 0
M  V30 7901 H 734.484 0.576771 -6.44424 0
M  V30 7902 N 734.616 1.57351 0.0885366 0
M  V30 7903 C 735.579 2.01557 1.09121 0
M  V30 7904 C 736.579 0.910052 1.3257 0
M  V30 7905 O 737.769 1.17537 1.28572 0
M  V30 7906 C 734.901 2.38189 2.43883 0
M  V30 7907 H 736.094 2.91361 0.710562 0
M  V30 7908 H 733.647 1.52694 0.333779 0
M  V30 7909 H 734.382 1.5136 2.86811 0
M  V30 7910 H 734.167 3.18846 2.28209 0
M  V30 7911 H 735.657 2.73025 3.15986 0
M  V30 7912 N 736.094 -0.359525 1.53444 0
M  V30 7913 C 737.027 -1.46338 1.75101 0
M  V30 7914 C 738.005 -1.51142 0.599559 0
M  V30 7915 O 739.189 -1.69102 0.832862 0
M  V30 7916 C 736.316 -2.84667 1.83527 0
M  V30 7917 C 735.362 -2.9756 3.05549 0
M  V30 7918 S 736.195 -2.65685 4.64943 0
M  V30 7919 C 737.351 -4.06153 4.76225 0
M  V30 7920 H 737.584 -1.27747 2.68455 0
M  V30 7921 H 735.117 -0.554231 1.4411 0
M  V30 7922 H 737.075 -3.64368 1.89067 0
M  V30 7923 H 735.736 -3.00564 0.912147 0
M  V30 7924 H 734.929 -3.98883 3.08072 0
M  V30 7925 H 734.531 -2.25789 2.98153 0
M  V30 7926 H 736.823 -5.00475 4.56652 0
M  V30 7927 H 737.766 -4.08632 5.78295 0
M  V30 7928 H 738.174 -3.93435 4.04808 0
M  V30 7929 N 737.572 -1.44907 -0.619662 0
M  V30 7930 C 738.502 -1.55488 -1.742 0
M  V30 7931 C 739.483 -0.407143 -1.65156 0
M  V30 7932 O 740.668 -0.628743 -1.8374 0
M  V30 7933 C 737.798 -1.5097 -3.1277 0
M  V30 7934 C 736.752 -2.64337 -3.36615 0
M  V30 7935 C 736.078 -2.44872 -4.75333 0
M  V30 7936 C 737.378 -4.06423 -3.28051 0
M  V30 7937 H 739.072 -2.49432 -1.65602 0
M  V30 7938 H 736.618 -1.20047 -0.795281 0
M  V30 7939 H 738.571 -1.56971 -3.91073 0
M  V30 7940 H 737.295 -0.535486 -3.2218 0
M  V30 7941 H 735.954 -2.57744 -2.60698 0
M  V30 7942 H 735.602 -1.45617 -4.81461 0
M  V30 7943 H 735.302 -3.20888 -4.92244 0
M  V30 7944 H 736.826 -2.52709 -5.55851 0
M  V30 7945 H 738.24 -4.14324 -3.96243 0
M  V30 7946 H 736.637 -4.82733 -3.56495 0
M  V30 7947 H 737.707 -4.29183 -2.25676 0
M  V30 7948 N 739.05 0.861098 -1.31996 0
M  V30 7949 C 740.461 1.43065 -1.19955 0
M  V30 7950 C 740.812 1.95273 0.190489 0
M  V30 7951 O 739.937 1.87012 1.08882 0
M  V30 7952 C 740.532 2.60052 -2.1716 0
M  V30 7953 C 739.091 3.13026 -2.09026 0
M  V30 7954 C 738.238 1.85756 -2.05888 0
M  V30 7955 H 741.189 0.668834 -1.43918 0
M  V30 7956 H 741.21 3.37016 -1.76637 0
M  V30 7957 H 740.722 2.22024 -3.18319 0
M  V30 7958 H 738.823 3.55653 -1.11092 0
M  V30 7959 H 738.936 3.74707 -2.98549 0
M  V30 7960 H 737.3 2.05088 -1.51033 0
M  V30 7961 H 738.083 1.49954 -3.08818 0
M  V30 7962 N 740.528 1.15101 1.07655 0
M  V30 7963 C 741.458 0.867864 2.16773 0
M  V30 7964 C 742.439 -0.180283 1.69142 0
M  V30 7965 O 743.624 -0.0353152 1.94168 0
M  V30 7966 C 740.754 0.35299 3.45501 0
M  V30 7967 C 739.708 1.33746 4.06566 0
M  V30 7968 C 739.034 0.681562 5.30338 0
M  V30 7969 C 740.334 2.7024 4.46954 0
M  V30 7970 H 742.028 1.78034 2.40716 0
M  V30 7971 H 739.574 0.857435 1.15689 0
M  V30 7972 H 741.527 0.142465 4.21159 0
M  V30 7973 H 740.251 -0.594945 3.21135 0
M  V30 7974 H 738.91 1.53429 3.32949 0
M  V30 7975 H 738.558 -0.272422 5.02262 0
M  V30 7976 H 738.258 1.33853 5.72151 0
M  V30 7977 H 739.782 0.48074 6.08705 0
M  V30 7978 H 741.196 2.5442 5.13754 0
M  V30 7979 H 739.593 3.32282 4.99709 0
M  V30 7980 H 740.663 3.26537 3.58471 0
M  V30 7981 N 742.006 -1.2595 0.947325 0
M  V30 7982 C 743.252 -1.9375 0.599064 0
M  V30 7983 C 743.585 -1.74088 -0.860632 0
M  V30 7984 O 742.86 -1.08158 -1.61654 0
M  V30 7985 C 743.143 -3.47353 0.949634 0
M  V30 7986 C 742.996 -3.76273 2.46452 0
M  V30 7987 C 744.315 -4.37589 0.469442 0
M  V30 7988 H 741.434 -0.703674 0.219115 0
M  V30 7989 H 744.076 -1.48705 1.18266 0
M  V30 7990 H 742.226 -3.8585 0.453008 0
M  V30 7991 H 743.898 -3.47455 3.03435 0
M  V30 7992 H 742.141 -3.22135 2.90537 0
M  V30 7993 H 742.812 -4.83664 2.66032 0
M  V30 7994 H 745.288 -4.06353 0.89534 0
M  V30 7995 H 744.164 -5.43841 0.7435 0
M  V30 7996 H 744.425 -4.37579 -0.630618 0
M  V30 7997 N 743.484 -0.715051 -1.40445 0
M  V30 7998 C 744.732 -0.253826 -2.005 0
M  V30 7999 C 745.053 1.15681 -1.5698 0
M  V30 8000 O 744.323 1.78414 -0.809027 0
M  V30 8001 H 742.903 -0.0908537 -0.741454 0
M  V30 8002 H 745.565 -0.920561 -1.7179 0
M  V30 8003 H 744.661 -0.286499 -3.10782 0
M  V30 8004 N 744.962 1.50701 -0.461195 0
M  V30 8005 C 746.208 2.02566 0.0973411 0
M  V30 8006 C 746.541 1.3432 1.40257 0
M  V30 8007 O 745.816 0.465692 1.88843 0
M  V30 8008 C 746.099 3.58919 0.291423 0
M  V30 8009 C 745.952 4.37751 -1.03413 0
M  V30 8010 C 747.271 4.27379 1.05048 0
M  V30 8011 H 744.39 0.73622 0.0339026 0
M  V30 8012 H 747.032 1.80115 -0.604855 0
M  V30 8013 H 745.182 3.78179 0.889539 0
M  V30 8014 H 746.854 4.30085 -1.66806 0
M  V30 8015 H 745.097 4.01885 -1.63313 0
M  V30 8016 H 745.768 5.45384 -0.852085 0
M  V30 8017 H 748.244 4.12534 0.543603 0
M  V30 8018 H 747.12 5.36609 1.15506 0
M  V30 8019 H 747.381 3.89868 2.0846 0
M  V30 8020 N 746.441 0.193421 1.56409 0
M  V30 8021 C 747.666 -0.454552 2.02358 0
M  V30 8022 C 748.091 -1.54516 1.07268 0
M  V30 8023 O 747.449 -1.81214 0.0558962 0
M  V30 8024 C 747.497 -0.989469 3.46759 0
M  V30 8025 O 746.601 -2.10244 3.54783 0
M  V30 8026 H 745.942 -0.106417 0.655417 0
M  V30 8027 H 748.472 0.303807 2.02332 0
M  V30 8028 H 748.482 -1.30649 3.86516 0
M  V30 8029 H 747.157 -0.191083 4.15461 0
M  V30 8030 H 745.734 -1.79419 3.26899 0
M  V30 8031 N 747.919 -1.57396 -0.0801906 0
M  V30 8032 C 748.867 -2.04136 -1.11495 0
M  V30 8033 C 749.861 -0.945137 -1.40583 0
M  V30 8034 O 751.067 -1.13028 -1.40088 0
M  V30 8035 H 747.442 -0.65076 -0.37685 0
M  V30 8036 H 749.413 -2.90205 -0.694526 0
M  V30 8037 C 748.162 -2.49399 -2.42272 0
M  V30 8038 H 747.485 -3.33339 -2.20737 0
M  V30 8039 H 748.925 -2.85864 -3.13142 0
M  V30 8040 C 747.384 -1.37341 -3.07635 0
M  V30 8041 O 747.914 -0.710829 -3.95361 0
M  V30 8042 N 746.12 -1.12064 -2.68123 0
M  V30 8043 H 745.667 -1.66126 -1.96875 0
M  V30 8044 H 745.625 -0.372916 -3.12181 0
M  V30 8045 N 749.397 0.351382 -1.53633 0
M  V30 8046 C 750.627 1.11113 -1.74176 0
M  V30 8047 C 751.035 1.83084 -0.477154 0
M  V30 8048 O 750.378 1.74941 0.560483 0
M  V30 8049 C 750.44 2.17521 -2.86225 0
M  V30 8050 C 750.104 1.65193 -4.26099 0
M  V30 8051 C 751.101 1.10842 -5.07947 0
M  V30 8052 C 748.786 1.70277 -4.72558 0
M  V30 8053 C 750.78 0.622689 -6.34351 0
M  V30 8054 C 748.467 1.21316 -5.98937 0
M  V30 8055 C 749.465 0.674033 -6.79666 0
M  V30 8056 O 749.153 0.191696 -8.03671 0
M  V30 8057 H 748.885 0.33756 -0.585687 0
M  V30 8058 H 751.439 0.411786 -2.0123 0
M  V30 8059 H 749.669 2.90991 -2.54678 0
M  V30 8060 H 751.358 2.78999 -2.94812 0
M  V30 8061 H 752.124 1.06243 -4.7322 0
M  V30 8062 H 748.003 2.11181 -4.09785 0
M  V30 8063 H 751.547 0.201216 -6.9731 0
M  V30 8064 H 747.444 1.25613 -6.3316 0
M  V30 8065 H 748.212 0.309712 -8.17914 0
M  V30 8066 N 750.875 1.45233 0.611969 0
M  V30 8067 C 751.808 1.48056 1.73651 0
M  V30 8068 C 752.786 0.337373 1.59061 0
M  V30 8069 O 753.97 0.537222 1.80683 0
M  V30 8070 C 751.097 1.33144 3.11433 0
M  V30 8071 C 750.143 2.51272 3.44623 0
M  V30 8072 S 750.976 4.13754 3.39953 0
M  V30 8073 C 752.132 4.013 4.80322 0
M  V30 8074 H 752.365 2.43205 1.70993 0
M  V30 8075 H 749.898 1.32763 0.788246 0
M  V30 8076 H 751.856 1.25228 3.90932 0
M  V30 8077 H 750.517 0.394734 3.1161 0
M  V30 8078 H 749.71 2.36753 4.44932 0
M  V30 8079 H 749.312 2.56027 2.72629 0
M  V30 8080 H 751.604 3.66174 5.7002 0
M  V30 8081 H 752.547 5.01506 4.99897 0
M  V30 8082 H 752.955 3.3303 4.55797 0
M  V30 8083 N 752.353 -0.854086 1.3245 0
M  V30 8084 C 753.3 -1.96271 1.21434 0
M  V30 8085 C 754.27 -1.6582 0.0963851 0
M  V30 8086 O 755.455 -1.88851 0.27203 0
M  V30 8087 C 752.595 -3.31939 0.943952 0
M  V30 8088 C 751.708 -3.74885 2.14675 0
M  V30 8089 C 750.843 -4.99347 1.81179 0
M  V30 8090 C 749.882 -5.34785 2.97777 0
M  V30 8091 N 749.019 -6.50425 2.6437 0
M  V30 8092 H 753.859 -2.05025 2.16261 0
M  V30 8093 H 751.396 -1.00348 1.07558 0
M  V30 8094 H 753.354 -4.10076 0.767675 0
M  V30 8095 H 751.984 -3.22784 0.0324763 0
M  V30 8096 H 751.036 -2.92396 2.43328 0
M  V30 8097 H 752.348 -3.97068 3.01891 0
M  V30 8098 H 751.502 -5.85193 1.60107 0
M  V30 8099 H 750.241 -4.79101 0.911777 0
M  V30 8100 H 749.246 -4.47451 3.1948 0
M  V30 8101 H 750.471 -5.56988 3.88511 0
M  V30 8102 H 748.417 -6.31695 1.7691 0
M  V30 8103 H 748.334 -6.7263 3.45116 0
M  V30 8104 H 749.602 -7.39422 2.46729 0
M  V30 8105 N 753.831 -1.1567 -1.07043 0
M  V30 8106 C 755.077 -0.9349 -1.79965 0
M  V30 8107 C 755.41 0.536464 -1.86643 0
M  V30 8108 O 754.685 1.39781 -1.35247 0
M  V30 8109 C 754.968 -1.55371 -3.24857 0
M  V30 8110 C 754.821 -3.09589 -3.26305 0
M  V30 8111 C 756.14 -1.24209 -4.22209 0
M  V30 8112 H 753.259 -0.341061 -0.653335 0
M  V30 8113 H 755.901 -1.42883 -1.25237 0
M  V30 8114 H 754.051 -1.13368 -3.71591 0
M  V30 8115 H 755.723 -3.60521 -2.87789 0
M  V30 8116 H 753.966 -3.43315 -2.65174 0
M  V30 8117 H 754.637 -3.48002 -4.28484 0
M  V30 8118 H 757.113 -1.60548 -3.8388 0
M  V30 8119 H 755.989 -1.70119 -5.21872 0
M  V30 8120 H 756.25 -0.15964 -4.41812 0
M  V30 8121 N 755.309 1.25446 -0.953992 0
M  V30 8122 C 756.534 1.97755 -0.625129 0
M  V30 8123 C 756.959 1.70437 0.795787 0
M  V30 8124 O 756.317 0.95992 1.53803 0
M  V30 8125 C 756.365 3.49463 -0.889251 0
M  V30 8126 O 755.469 4.12387 0.0322757 0
M  V30 8127 H 754.81 0.61998 -0.237742 0
M  V30 8128 H 757.34 1.59582 -1.28041 0
M  V30 8129 H 757.35 3.99772 -0.815263 0
M  V30 8130 H 756.025 3.68676 -1.92487 0
M  V30 8131 H 754.602 3.72782 -0.0938625 0
M  V30 8132 N 756.787 0.722489 1.40064 0
M  V30 8133 C 758.036 0.261932 1.99992 0
M  V30 8134 C 758.349 -1.15358 1.57961 0
M  V30 8135 O 759.555 -1.71301 2.10637 0
M  V30 8136 C 758.011 0.41737 3.57472 0
M  V30 8137 C 757.619 1.83997 4.08472 0
M  V30 8138 C 759.363 0.0179561 4.24496 0
M  V30 8139 C 757.27 1.94563 5.5848 0
M  V30 8140 H 756.2 0.0941768 0.748095 0
M  V30 8141 H 758.851 0.894572 1.60218 0
M  V30 8142 H 757.233 -0.283965 3.94981 0
M  V30 8143 H 758.407 2.57224 3.82325 0
M  V30 8144 H 756.722 2.19147 3.54067 0
M  V30 8145 H 759.319 0.076085 5.34646 0
M  V30 8146 H 759.662 -1.02498 4.03485 0
M  V30 8147 H 760.195 0.669988 3.92117 0
M  V30 8148 H 756.934 2.97001 5.84355 0
M  V30 8149 H 756.454 1.25756 5.86469 0
M  V30 8150 H 758.133 1.72095 6.23692 0
M  V30 8151 N 758.265 -1.50454 0.469181 0
M  V30 8152 C 759.505 -2.04222 -0.0852381 0
M  V30 8153 C 759.869 -1.34357 -1.37158 0
M  V30 8154 O 761.07 -1.78669 -2.00825 0
M  V30 8155 C 759.341 -3.56403 -0.266778 0
M  V30 8156 S 760.9 -4.31811 -0.780028 0
M  V30 8157 H 757.718 -0.7108 -0.0168589 0
M  V30 8158 H 760.32 -1.8487 0.635883 0
M  V30 8159 H 759.024 -4.04807 0.67525 0
M  V30 8160 H 758.555 -3.80106 -1.01407 0
M  V30 8161 H 760.57 -4.51706 -2.05368 0
M  V30 8162 N 759.743 -0.201713 -1.56304 0
M  V30 8163 C 760.99 0.435307 -1.97766 0
M  V30 8164 C 761.318 1.61169 -1.0888 0
M  V30 8165 O 760.573 1.95272 -0.12934 0
M  V30 8166 C 760.872 0.931432 -3.45049 0
M  V30 8167 C 760.538 -0.132287 -4.50706 0
M  V30 8168 C 759.2 -0.424552 -4.79323 0
M  V30 8169 C 761.552 -0.852703 -5.14177 0
M  V30 8170 C 758.88 -1.4421 -5.68701 0
M  V30 8171 C 761.232 -1.85944 -6.04655 0
M  V30 8172 C 759.896 -2.15884 -6.31625 0
M  V30 8173 H 759.166 0.15929 -0.723676 0
M  V30 8174 H 761.813 -0.300069 -1.89134 0
M  V30 8175 H 760.118 1.7452 -3.50785 0
M  V30 8176 H 761.815 1.43383 -3.74489 0
M  V30 8177 H 758.405 0.105671 -4.2847 0
M  V30 8178 H 762.589 -0.640139 -4.92154 0
M  V30 8179 H 757.845 -1.6799 -5.87869 0
M  V30 8180 H 762.019 -2.42286 -6.52894 0
M  V30 8181 H 759.646 -2.94875 -7.0068 0
M  V30 8182 N 761.222 1.57436 0.0718424 0
M  V30 8183 C 762.633 1.75975 0.623678 0
M  V30 8184 C 762.984 0.827155 1.77912 0
M  V30 8185 O 762.109 0.0112425 2.16397 0
M  V30 8186 C 762.704 3.1911 1.13816 0
M  V30 8187 C 761.263 3.38994 1.63586 0
M  V30 8188 C 760.41 2.71684 0.555261 0
M  V30 8189 H 763.361 1.57948 -0.154328 0
M  V30 8190 H 763.382 3.23267 2.00696 0
M  V30 8191 H 762.894 3.86962 0.296998 0
M  V30 8192 H 760.995 2.76256 2.50027 0
M  V30 8193 H 761.108 4.47436 1.71283 0
M  V30 8194 H 759.472 2.34236 1.00029 0
M  V30 8195 H 760.255 3.42191 -0.275712 0
M  V30 8196 N 762.7 -0.34323 1.53817 0
M  V30 8197 C 763.633 -1.44472 1.76644 0
M  V30 8198 C 764.611 -1.50498 0.615556 0
M  V30 8199 O 765.795 -1.6821 0.850751 0
M  V30 8200 C 762.922 -2.82705 1.86536 0
M  V30 8201 C 761.968 -2.94302 3.08688 0
M  V30 8202 S 762.801 -2.60739 4.67735 0
M  V30 8203 C 763.957 -4.01079 4.80506 0
M  V30 8204 H 764.19 -1.24893 2.69794 0
M  V30 8205 H 761.723 -0.538915 1.4469 0
M  V30 8206 H 763.681 -3.62342 1.92921 0
M  V30 8207 H 762.342 -2.9958 0.943975 0
M  V30 8208 H 761.535 -3.95593 3.12286 0
M  V30 8209 H 761.137 -2.22614 3.00531 0
M  V30 8210 H 763.429 -4.95603 4.61935 0
M  V30 8211 H 764.372 -4.02475 5.82597 0
M  V30 8212 H 764.78 -3.89119 4.08958 0
M  V30 8213 N 764.178 -1.45556 -0.604258 0
M  V30 8214 C 765.455 -1.40221 -1.36373 0
M  V30 8215 C 765.835 -0.0745195 -2.10968 0
M  V30 8216 O 765.183 0.943594 -2.08107 0
M  V30 8217 C 765.393 -2.61807 -2.30777 0
M  V30 8218 C 766.741 -3.07037 -2.93281 0
M  V30 8219 O 767.765 -2.62203 -2.41097 0
M  V30 8220 O 766.624 -3.8485 -3.88011 0
M  V30 8221 H 763.718 -0.556602 -0.611656 0
M  V30 8222 H 766.264 -1.57689 -0.627069 0
M  V30 8223 H 765.036 -3.50017 -1.74939 0
M  V30 8224 H 764.659 -2.46688 -3.11818 0
M  V30 8225 N 765.656 0.84705 -1.32902 0
M  V30 8226 C 766.902 1.60414 -1.24078 0
M  V30 8227 C 767.235 1.93217 0.195105 0
M  V30 8228 O 766.51 1.58001 1.13428 0
M  V30 8229 C 766.793 2.91951 -2.108 0
M  V30 8230 C 766.646 2.6588 -3.62805 0
M  V30 8231 C 767.965 3.93299 -1.97494 0
M  V30 8232 H 765.084 0.58206 -0.452079 0
M  V30 8233 H 767.726 0.977562 -1.62922 0
M  V30 8234 H 765.876 3.45425 -1.77802 0
M  V30 8235 H 767.548 2.18902 -4.06054 0
M  V30 8236 H 765.791 1.99716 -3.85092 0
M  V30 8237 H 766.462 3.59574 -4.1882 0
M  V30 8238 H 768.938 3.49105 -2.26417 0
M  V30 8239 H 767.814 4.8318 -2.60438 0
M  V30 8240 H 768.075 4.31887 -0.944782 0
M  V30 8241 N 767.134 1.16236 1.06428 0
M  V30 8242 C 768.044 0.881976 2.1739 0
M  V30 8243 C 769.06 -0.145259 1.73393 0
M  V30 8244 O 770.236 0.0310558 2.01376 0
M  V30 8245 C 767.301 0.385496 3.4455 0
M  V30 8246 C 766.362 1.47779 4.03063 0
M  V30 8247 C 765.595 1.0049 5.24154 0
M  V30 8248 O 765.818 -0.145889 5.70213 0
M  V30 8249 O 764.752 1.79265 5.74585 0
M  V30 8250 H 768.578 1.80983 2.43883 0
M  V30 8251 H 766.163 0.942226 1.15942 0
M  V30 8252 H 768.045 0.115536 4.21242 0
M  V30 8253 H 766.72 -0.514369 3.19587 0
M  V30 8254 H 765.627 1.80147 3.27869 0
M  V30 8255 H 766.96 2.35291 4.32318 0
M  V30 8256 N 768.612 -1.24939 0.960631 0
M  V30 8257 C 769.84 -1.96881 0.636045 0
M  V30 8258 C 770.255 -1.71334 -0.793093 0
M  V30 8259 O 769.612 -0.992917 -1.53125 0
M  V30 8260 C 769.663 -3.50309 0.892533 0
M  V30 8261 O 769.384 -3.74977 2.26548 0
M  V30 8262 C 770.885 -4.39474 0.581159 0
M  V30 8263 H 768.105 -0.627399 0.237931 0
M  V30 8264 H 770.649 -1.58952 1.28664 0
M  V30 8265 H 768.804 -3.86326 0.288257 0
M  V30 8266 H 769.218 -4.69401 2.34014 0
M  V30 8267 H 770.692 -5.46008 0.811125 0
M  V30 8268 H 771.169 -4.3652 -0.48443 0
M  V30 8269 H 771.775 -4.09032 1.16502 0
M  V30 8270 N 770.09 -0.729906 -1.39679 0
M  V30 8271 C 771.318 -0.285709 -2.04918 0
M  V30 8272 C 771.733 1.07765 -1.55023 0
M  V30 8273 O 771.09 1.67999 -0.712923 0
M  V30 8274 C 771.141 -0.272793 -3.60469 0
M  V30 8275 O 770.862 -1.58233 -4.08527 0
M  V30 8276 C 772.363 0.188199 -4.429 0
M  V30 8277 H 769.583 -0.125758 -0.65911 0
M  V30 8278 H 772.127 -0.992129 -1.78821 0
M  V30 8279 H 770.282 0.384699 -3.85485 0
M  V30 8280 H 770.696 -1.49245 -5.02818 0
M  V30 8281 H 772.17 0.14608 -5.51807 0
M  V30 8282 H 772.647 1.2326 -4.21549 0
M  V30 8283 H 773.253 -0.439541 -4.23023 0
M  V30 8284 N 771.568 1.50203 -0.477153 0
M  V30 8285 C 772.498 2.31517 0.303646 0
M  V30 8286 C 773.479 1.38696 0.984753 0
M  V30 8287 O 774.664 1.67615 0.980758 0
M  V30 8288 C 771.794 3.18598 1.38249 0
M  V30 8289 C 770.748 4.2002 0.822645 0
M  V30 8290 C 770.074 4.95878 2.00024 0
M  V30 8291 C 771.374 5.22023 -0.170185 0
M  V30 8292 H 773.068 2.97042 -0.375027 0
M  V30 8293 H 770.614 1.42848 -0.181802 0
M  V30 8294 H 772.567 3.74282 1.93625 0
M  V30 8295 H 771.291 2.5097 2.09002 0
M  V30 8296 H 769.95 3.65445 0.290813 0
M  V30 8297 H 769.598 4.24717 2.69489 0
M  V30 8298 H 769.298 5.64487 1.63183 0
M  V30 8299 H 770.822 5.54399 2.55878 0
M  V30 8300 H 772.236 5.72543 0.294606 0
M  V30 8301 H 770.633 5.98386 -0.453181 0
M  V30 8302 H 771.703 4.72396 -1.09408 0
M  V30 8303 N 773.046 0.209999 1.56195 0
M  V30 8304 C 774.271 -0.433064 2.02828 0
M  V30 8305 C 774.696 -1.5337 1.08901 0
M  V30 8306 O 774.054 -1.81144 0.0751132 0
M  V30 8307 C 774.102 -0.952635 3.47789 0
M  V30 8308 O 773.206 -2.0647 3.56993 0
M  V30 8309 H 772.547 -0.0994594 0.656509 0
M  V30 8310 H 775.077 0.32525 2.01998 0
M  V30 8311 H 775.087 -1.26542 3.8788 0
M  V30 8312 H 773.762 -0.147007 4.1564 0
M  V30 8313 H 772.339 -1.75942 3.28784 0
M  V30 8314 N 774.524 -1.57472 -0.0634922 0
M  V30 8315 C 775.456 -2.00999 -1.10145 0
M  V30 8316 C 776.469 -0.917219 -1.34503 0
M  V30 8317 O 777.658 -1.19501 -1.32596 0
M  V30 8318 C 774.758 -2.34089 -2.45063 0
M  V30 8319 C 773.931 -3.65317 -2.40546 0
M  V30 8320 C 772.99 -3.85982 -3.57637 0
M  V30 8321 O 772.016 -4.5747 -3.38689 0
M  V30 8322 N 773.218 -3.28971 -4.78287 0
M  V30 8323 H 775.983 -2.90656 -0.730714 0
M  V30 8324 H 773.544 -1.59926 -0.252017 0
M  V30 8325 H 775.536 -2.4508 -3.22053 0
M  V30 8326 H 774.106 -1.50279 -2.74107 0
M  V30 8327 H 773.326 -3.65003 -1.48885 0
M  V30 8328 H 774.614 -4.51468 -2.34636 0
M  V30 8329 H 774.012 -2.70962 -4.96584 0
M  V30 8330 H 772.569 -3.45398 -5.5276 0
M  V30 8331 N 776.003 0.335068 -1.53997 0
M  V30 8332 C 777.249 1.07594 -1.71905 0
M  V30 8333 C 777.582 1.88039 -0.485264 0
M  V30 8334 O 776.857 1.87482 0.517752 0
M  V30 8335 C 777.14 2.01016 -2.98772 0
M  V30 8336 C 776.993 1.23977 -4.32377 0
M  V30 8337 C 778.312 3.0071 -3.21343 0
M  V30 8338 H 775.431 0.38976 -0.625505 0
M  V30 8339 H 778.073 0.353684 -1.86679 0
M  V30 8340 H 776.223 2.62603 -2.86307 0
M  V30 8341 H 777.895 0.649383 -4.56706 0
M  V30 8342 H 776.138 0.541878 -4.30402 0
M  V30 8343 H 776.809 1.92512 -5.17342 0
M  V30 8344 H 779.285 2.4924 -3.33194 0
M  V30 8345 H 778.161 3.63272 -4.11491 0
M  V30 8346 H 778.422 3.72549 -2.38033 0
M  V30 8347 N 777.481 1.45874 0.596531 0
M  V30 8348 C 778.711 1.5379 1.37958 0
M  V30 8349 C 779.119 0.173086 1.88407 0
M  V30 8350 O 778.462 -0.837498 1.63498 0
M  V30 8351 C 778.524 2.47044 2.61169 0
M  V30 8352 C 778.188 3.93565 2.32283 0
M  V30 8353 C 779.185 4.83162 1.91965 0
M  V30 8354 C 776.87 4.38579 2.44854 0
M  V30 8355 C 778.864 6.15782 1.64593 0
M  V30 8356 C 776.551 5.71238 2.17095 0
M  V30 8357 C 777.549 6.59659 1.77028 0
M  V30 8358 O 777.237 7.89857 1.49601 0
M  V30 8359 H 776.969 0.523 0.428307 0
M  V30 8360 H 779.523 1.91855 0.733529 0
M  V30 8361 H 777.753 2.0397 3.28532 0
M  V30 8362 H 779.442 2.4552 3.23226 0
M  V30 8363 H 780.208 4.49646 1.8178 0
M  V30 8364 H 776.087 3.6999 2.75006 0
M  V30 8365 H 779.631 6.84757 1.33245 0
M  V30 8366 H 775.528 6.04306 2.26901 0
M  V30 8367 H 776.296 8.01991 1.63561 0
M  V30 8368 N 778.959 -0.83999 1.33349 0
M  V30 8369 C 780.208 -1.59011 1.2409 0
M  V30 8370 C 780.521 -1.94655 -0.192029 0
M  V30 8371 O 781.727 -2.68438 -0.406617 0
M  V30 8372 C 780.183 -2.86801 2.17425 0
M  V30 8373 C 779.791 -2.58525 3.65881 0
M  V30 8374 C 781.535 -3.64823 2.17036 0
M  V30 8375 C 779.442 -3.82404 4.51133 0
M  V30 8376 H 778.372 -0.596731 0.460899 0
M  V30 8377 H 781.023 -0.926274 1.58406 0
M  V30 8378 H 779.405 -3.54719 1.7604 0
M  V30 8379 H 780.579 -1.98824 4.15699 0
M  V30 8380 H 778.894 -1.93808 3.68548 0
M  V30 8381 H 781.491 -4.56774 2.7796 0
M  V30 8382 H 781.834 -3.99663 1.16513 0
M  V30 8383 H 782.367 -3.03826 2.56777 0
M  V30 8384 H 779.106 -3.52696 5.52527 0
M  V30 8385 H 778.626 -4.41447 4.0606 0
M  V30 8386 H 780.305 -4.49995 4.6488 0
M  V30 8387 N 780.437 -1.16799 -1.0581 0
M  V30 8388 C 781.367 -0.902241 -2.15364 0
M  V30 8389 C 782.348 0.153351 -1.69407 0
M  V30 8390 O 783.533 0.00442032 -1.94199 0
M  V30 8391 C 780.663 -0.407911 -3.44896 0
M  V30 8392 C 779.617 -1.40197 -4.04387 0
M  V30 8393 C 778.943 -0.765848 -5.29187 0
M  V30 8394 C 780.243 -2.77316 -4.42598 0
M  V30 8395 H 781.937 -1.81841 -2.37853 0
M  V30 8396 H 779.483 -0.875731 -1.14311 0
M  V30 8397 H 781.436 -0.20945 -4.20879 0
M  V30 8398 H 780.16 0.54378 -3.22041 0
M  V30 8399 H 778.819 -1.58707 -3.30466 0
M  V30 8400 H 778.467 0.192482 -5.02632 0
M  V30 8401 H 778.167 -1.42939 -5.69949 0
M  V30 8402 H 779.691 -0.577519 -6.07863 0
M  V30 8403 H 781.105 -2.62561 -5.09642 0
M  V30 8404 H 779.502 -3.4019 -4.94359 0
M  V30 8405 H 780.572 -3.32199 -3.53231 0
M  V30 8406 N 781.915 1.24427 -0.967243 0
M  V30 8407 C 783.143 1.96541 -0.646477 0
M  V30 8408 C 783.558 1.71753 0.783996 0
M  V30 8409 O 782.915 1.00102 1.52597 0
M  V30 8410 C 782.966 3.4983 -0.911098 0
M  V30 8411 O 782.687 3.7377 -2.28534 0
M  V30 8412 C 784.188 4.3916 -0.604458 0
M  V30 8413 H 781.408 0.626129 -0.241255 0
M  V30 8414 H 783.952 1.58268 -1.29505 0
M  V30 8415 H 782.107 3.86168 -0.308741 0
M  V30 8416 H 782.521 4.68154 -2.365 0
M  V30 8417 H 783.995 5.4557 -0.840069 0
M  V30 8418 H 784.472 4.36771 0.461273 0
M  V30 8419 H 785.078 4.08409 -1.1867 0
M  V30 8420 N 783.393 0.737304 1.3929 0
M  V30 8421 C 784.642 0.283129 1.99703 0
M  V30 8422 C 784.955 -1.13677 1.59176 0
M  V30 8423 O 786.161 -1.69058 2.12442 0
M  V30 8424 C 784.617 0.455262 3.57009 0
M  V30 8425 C 784.225 1.88319 4.06497 0
M  V30 8426 C 785.969 0.0629786 4.24453 0
M  V30 8427 C 783.876 2.00475 5.56385 0
M  V30 8428 H 782.806 0.102106 0.747054 0
M  V30 8429 H 785.457 0.911515 1.5926 0
M  V30 8430 H 783.839 -0.242057 3.9526 0
M  V30 8431 H 785.013 2.61265 3.79575 0
M  V30 8432 H 783.328 2.2289 3.51723 0
M  V30 8433 H 785.925 0.132787 5.34535 0
M  V30 8434 H 786.268 -0.982128 4.04549 0
M  V30 8435 H 786.801 0.71154 3.91385 0
M  V30 8436 H 783.54 3.03182 5.81172 0
M  V30 8437 H 783.06 1.31969 5.85102 0
M  V30 8438 H 784.739 1.787 6.21832 0
M  V30 8439 N 784.871 -1.49948 0.485112 0
M  V30 8440 C 785.801 -2.31675 -0.291364 0
M  V30 8441 C 786.782 -1.39216 -0.977383 0
M  V30 8442 O 787.967 -1.68133 -0.971855 0
M  V30 8443 C 785.097 -3.19326 -1.36558 0
M  V30 8444 C 784.051 -4.2045 -0.800359 0
M  V30 8445 C 783.377 -4.96931 -1.97391 0
M  V30 8446 C 784.677 -5.21925 0.197867 0
M  V30 8447 H 786.371 -2.96839 0.390775 0
M  V30 8448 H 783.917 -1.42749 0.189375 0
M  V30 8449 H 785.87 -3.75304 -1.91638 0
M  V30 8450 H 784.594 -2.52074 -2.07668 0
M  V30 8451 H 783.253 -3.65594 -0.271428 0
M  V30 8452 H 782.901 -4.26141 -2.67232 0
M  V30 8453 H 782.601 -5.65344 -1.60187 0
M  V30 8454 H 784.125 -5.55749 -2.52935 0
M  V30 8455 H 785.539 -5.72691 -0.264239 0
M  V30 8456 H 783.936 -5.98138 0.484908 0
M  V30 8457 H 785.006 -4.71809 1.11912 0
M  V30 8458 N 786.349 -0.21828 -1.56081 0
M  V30 8459 C 787.598 0.414644 -1.97392 0
M  V30 8460 C 787.911 1.61132 -1.10887 0
M  V30 8461 O 789.117 2.31355 -1.42082 0
M  V30 8462 C 787.573 0.789099 -3.51143 0
M  V30 8463 C 787.181 -0.384578 -4.46346 0
M  V30 8464 C 788.925 1.38781 -4.01173 0
M  V30 8465 C 786.832 0.0121288 -5.91399 0
M  V30 8466 H 785.762 0.158691 -0.737111 0
M  V30 8467 H 788.413 -0.313974 -1.80794 0
M  V30 8468 H 786.795 1.57505 -3.6333 0
M  V30 8469 H 787.969 -1.16212 -4.45905 0
M  V30 8470 H 786.284 -0.896306 -4.06639 0
M  V30 8471 H 788.881 1.69746 -5.07041 0
M  V30 8472 H 789.224 2.30245 -3.46833 0
M  V30 8473 H 789.757 0.665364 -3.92196 0
M  V30 8474 H 786.496 -0.868917 -6.49715 0
M  V30 8475 H 786.016 0.754053 -5.95041 0
M  V30 8476 H 787.695 0.439949 -6.45502 0
M  V30 8477 N 787.827 1.57504 0.0551401 0
M  V30 8478 C 788.757 2.07864 1.06372 0
M  V30 8479 C 789.738 0.975565 1.39344 0
M  V30 8480 O 790.923 1.24929 1.48682 0
M  V30 8481 C 788.053 2.53643 2.3724 0
M  V30 8482 C 787.007 3.67978 2.18578 0
M  V30 8483 C 786.333 3.9987 3.54976 0
M  V30 8484 C 787.633 4.97405 1.59329 0
M  V30 8485 H 789.327 2.92379 0.644595 0
M  V30 8486 H 786.873 1.40654 0.308619 0
M  V30 8487 H 788.826 2.8749 3.08103 0
M  V30 8488 H 787.55 1.66177 2.81163 0
M  V30 8489 H 786.209 3.3444 1.50152 0
M  V30 8490 H 785.857 3.0951 3.965 0
M  V30 8491 H 785.557 4.76867 3.43324 0
M  V30 8492 H 787.081 4.36228 4.27244 0
M  V30 8493 H 788.495 5.29375 2.20078 0
M  V30 8494 H 786.892 5.78837 1.58327 0
M  V30 8495 H 787.962 4.81697 0.55638 0
M  V30 8496 N 789.305 -0.326896 1.54172 0
M  V30 8497 C 790.253 -1.42232 1.84046 0
M  V30 8498 C 791.247 -1.53705 0.712115 0
M  V30 8499 O 792.453 -1.56131 0.895724 0
M  V30 8500 H 788.828 -0.474568 0.583343 0
M  V30 8501 H 790.799 -1.14259 2.75658 0
M  V30 8502 C 789.548 -2.78502 2.08163 0
M  V30 8503 H 788.871 -2.70447 2.94446 0
M  V30 8504 H 790.311 -3.54228 2.33021 0
M  V30 8505 C 788.77 -3.25415 0.872152 0
M  V30 8506 O 789.3 -4.01621 0.0797648 0
M  V30 8507 N 787.506 -2.82418 0.684716 0
M  V30 8508 H 787.053 -2.20566 1.33072 0
M  V30 8509 H 787.011 -3.14159 -0.123031 0
M  V30 8510 N 790.784 -1.46188 -0.588786 0
M  V30 8511 C 792.03 -1.51407 -1.34921 0
M  V30 8512 C 792.363 -0.162771 -1.93517 0
M  V30 8513 O 791.638 0.825082 -1.76132 0
M  V30 8514 C 791.921 -2.60795 -2.48311 0
M  V30 8515 C 791.774 -4.05435 -1.94789 0
M  V30 8516 C 793.093 -2.66313 -3.50379 0
M  V30 8517 H 790.212 -0.551213 -0.489217 0
M  V30 8518 H 792.854 -1.78095 -0.661993 0
M  V30 8519 H 791.004 -2.3817 -3.06932 0
M  V30 8520 H 792.676 -4.39328 -1.40672 0
M  V30 8521 H 790.919 -4.15202 -1.25659 0
M  V30 8522 H 791.59 -4.77691 -2.76613 0
M  V30 8523 H 794.066 -2.86634 -3.01629 0
M  V30 8524 H 792.942 -3.44681 -4.27184 0
M  V30 8525 H 793.203 -1.72127 -4.07216 0
M  V30 8526 N 792.262 0.832906 -1.33792 0
M  V30 8527 C 793.508 1.59089 -1.25772 0
M  V30 8528 C 793.841 1.93414 0.174601 0
M  V30 8529 O 793.116 1.59195 1.11746 0
M  V30 8530 C 793.399 2.89699 -2.13885 0
M  V30 8531 C 793.252 2.62017 -3.65605 0
M  V30 8532 C 794.571 3.91182 -2.01654 0
M  V30 8533 H 791.69 0.577232 -0.458227 0
M  V30 8534 H 794.332 0.960227 -1.6395 0
M  V30 8535 H 792.482 3.4352 -1.81456 0
M  V30 8536 H 794.154 2.14582 -4.08353 0
M  V30 8537 H 792.397 1.95621 -3.87189 0
M  V30 8538 H 793.068 3.55112 -4.2261 0
M  V30 8539 H 795.544 3.46684 -2.30107 0
M  V30 8540 H 794.42 4.80391 -2.65548 0
M  V30 8541 H 794.681 4.30861 -0.990536 0
M  V30 8542 N 793.74 1.17359 1.05189 0
M  V30 8543 C 794.703 0.892604 2.11105 0
M  V30 8544 C 795.703 -0.117236 1.60372 0
M  V30 8545 O 796.893 0.114936 1.7382 0
M  V30 8546 C 794.025 0.337032 3.3923 0
M  V30 8547 H 795.218 1.83169 2.37464 0
M  V30 8548 H 792.771 0.984051 1.21434 0
M  V30 8549 H 793.506 -0.609198 3.18527 0
M  V30 8550 H 793.291 1.06484 3.77364 0
M  V30 8551 H 794.781 0.158763 4.17298 0
M  V30 8552 N 795.218 -1.23913 0.973828 0
M  V30 8553 C 796.465 -1.92151 0.639079 0
M  V30 8554 C 796.793 -1.76064 -0.826545 0
M  V30 8555 O 796.048 -1.11126 -1.61088 0
M  V30 8556 C 796.347 -3.4406 0.967356 0
M  V30 8557 C 796.013 -3.80321 2.42212 0
M  V30 8558 C 794.675 -3.8993 2.81971 0
M  V30 8559 C 797.027 -3.97935 3.36596 0
M  V30 8560 C 794.355 -4.14575 4.15144 0
M  V30 8561 C 796.707 -4.24079 4.69404 0
M  V30 8562 C 795.371 -4.31908 5.08932 0
M  V30 8563 H 794.641 -0.70313 0.233856 0
M  V30 8564 H 797.288 -1.47072 1.22646 0
M  V30 8565 H 795.593 -3.90667 0.297807 0
M  V30 8566 H 797.29 -3.95077 0.686654 0
M  V30 8567 H 793.88 -3.73411 2.10385 0
M  V30 8568 H 798.064 -3.89908 3.07059 0
M  V30 8569 H 793.32 -4.18858 4.45385 0
M  V30 8570 H 797.494 -4.36652 5.42502 0
M  V30 8571 H 795.121 -4.50758 6.12145 0
M  V30 8572 N 796.696 -0.74468 -1.38897 0
M  V30 8573 C 797.943 -0.296884 -2.00312 0
M  V30 8574 C 798.271 1.11878 -1.59102 0
M  V30 8575 O 797.526 1.7789 -0.815702 0
M  V30 8576 C 797.825 -0.357302 -3.55609 0
M  V30 8577 C 797.491 -1.72736 -4.16501 0
M  V30 8578 C 796.153 -2.10232 -4.32846 0
M  V30 8579 C 798.505 -2.62647 -4.50184 0
M  V30 8580 C 795.833 -3.3713 -4.80167 0
M  V30 8581 C 798.185 -3.88926 -4.98918 0
M  V30 8582 C 796.849 -4.26503 -5.1347 0
M  V30 8583 H 796.119 -0.108638 -0.732993 0
M  V30 8584 H 798.766 -0.953419 -1.66079 0
M  V30 8585 H 797.071 0.382805 -3.89925 0
M  V30 8586 H 798.768 0.0074596 -4.00999 0
M  V30 8587 H 795.358 -1.42585 -4.04187 0
M  V30 8588 H 799.542 -2.34945 -4.37166 0
M  V30 8589 H 794.798 -3.66174 -4.89619 0
M  V30 8590 H 798.972 -4.58745 -5.23952 0
M  V30 8591 H 796.599 -5.24896 -5.49898 0
M  V30 8592 N 798.174 1.49689 -0.493057 0
M  V30 8593 C 799.423 2.01622 0.0560733 0
M  V30 8594 C 799.736 1.37838 1.3878 0
M  V30 8595 O 800.942 1.81054 2.02316 0
M  V30 8596 C 799.398 3.59586 0.150409 0
M  V30 8597 C 799.006 4.32338 -1.1742 0
M  V30 8598 C 800.75 4.19489 0.650327 0
M  V30 8599 C 798.657 5.8214 -1.04246 0
M  V30 8600 H 797.587 0.753594 0.0247297 0
M  V30 8601 H 800.238 1.723 -0.631279 0
M  V30 8602 H 798.62 3.8559 0.902035 0
M  V30 8603 H 799.794 4.18042 -1.9385 0
M  V30 8604 H 798.109 3.84144 -1.60694 0
M  V30 8605 H 800.706 5.29181 0.766272 0
M  V30 8606 H 801.049 3.82326 1.6472 0
M  V30 8607 H 801.582 3.97775 -0.0445371 0
M  V30 8608 H 798.321 6.23814 -2.01336 0
M  V30 8609 H 797.841 5.98952 -0.31892 0
M  V30 8610 H 799.52 6.43004 -0.717957 0
M  V30 8611 N 799.652 0.226554 1.55963 0
M  V30 8612 C 800.901 -0.40417 1.97609 0
M  V30 8613 C 801.214 -1.60541 1.1174 0
M  V30 8614 O 802.42 -2.30598 1.43307 0
M  V30 8615 C 800.876 -0.770466 3.51556 0
M  V30 8616 C 800.484 0.408244 4.46136 0
M  V30 8617 C 802.228 -1.36651 4.01904 0
M  V30 8618 C 800.135 0.0192347 5.91397 0
M  V30 8619 H 799.065 -0.15478 0.737943 0
M  V30 8620 H 801.716 0.323558 1.80625 0
M  V30 8621 H 800.098 -1.55575 3.6416 0
M  V30 8622 H 801.272 1.18575 4.45283 0
M  V30 8623 H 799.587 0.917859 4.06158 0
M  V30 8624 H 802.184 -1.67055 5.07934 0
M  V30 8625 H 802.527 -2.28403 3.48049 0
M  V30 8626 H 803.06 -0.644556 3.92543 0
M  V30 8627 H 799.799 0.90336 6.49245 0
M  V30 8628 H 799.319 -0.722485 5.95433 0
M  V30 8629 H 800.998 -0.405711 6.45727 0
M  V30 8630 N 801.13 -1.57531 -0.0467866 0
M  V30 8631 C 802.37 -1.90294 -0.746171 0
M  V30 8632 C 802.734 -0.823194 -1.73458 0
M  V30 8633 O 803.935 -1.03463 -2.48091 0
M  V30 8634 C 802.206 -3.28249 -1.41378 0
M  V30 8635 S 803.765 -3.82812 -2.14477 0
M  V30 8636 H 800.583 -0.666496 -0.247598 0
M  V30 8637 H 803.185 -1.955 -0.00135143 0
M  V30 8638 H 801.889 -4.04712 -0.680937 0
M  V30 8639 H 801.42 -3.26302 -2.19751 0
M  V30 8640 H 803.435 -3.60111 -3.41372 0
M  V30 8641 N 802.608 0.318715 -1.54344 0
M  V30 8642 C 803.571 1.37545 -1.83342 0
M  V30 8643 C 804.571 1.445 -0.705444 0
M  V30 8644 O 805.761 1.44443 -0.973752 0
M  V30 8645 C 802.893 2.76225 -1.99781 0
M  V30 8646 H 804.086 1.13084 -2.77762 0
M  V30 8647 H 801.639 0.554457 -1.46135 0
M  V30 8648 H 802.374 3.05934 -1.07588 0
M  V30 8649 H 802.159 2.7257 -2.81865 0
M  V30 8650 H 803.649 3.52664 -2.23647 0
M  V30 8651 N 804.086 1.46499 0.581025 0
M  V30 8652 C 805.326 1.53456 1.35021 0
M  V30 8653 C 805.69 0.182542 1.9113 0
M  V30 8654 O 806.891 0.126874 2.685 0
M  V30 8655 C 805.162 2.60387 2.44812 0
M  V30 8656 S 806.721 2.86762 3.32134 0
M  V30 8657 H 803.539 0.54216 0.459982 0
M  V30 8658 H 806.141 1.83742 0.667754 0
M  V30 8659 H 804.845 3.57253 2.01986 0
M  V30 8660 H 804.376 2.31839 3.17828 0
M  V30 8661 H 806.391 2.2216 4.43688 0
M  V30 8662 N 805.565 -0.825799 1.34232 0
M  V30 8663 C 806.795 -1.61129 1.29309 0
M  V30 8664 C 807.203 -1.88714 -0.135589 0
M  V30 8665 O 806.546 -1.47703 -1.09222 0
M  V30 8666 C 806.608 -2.97866 2.01287 0
M  V30 8667 C 806.272 -2.9319 3.50555 0
M  V30 8668 C 807.269 -2.67978 4.45515 0
M  V30 8669 C 804.954 -3.12913 3.92926 0
M  V30 8670 C 806.948 -2.62536 5.80822 0
M  V30 8671 C 804.635 -3.07096 5.28333 0
M  V30 8672 C 805.633 -2.8194 6.22092 0
M  V30 8673 O 805.321 -2.7605 7.55018 0
M  V30 8674 H 805.053 -0.507652 0.446391 0
M  V30 8675 H 807.607 -1.03575 1.77374 0
M  V30 8676 H 805.837 -3.57327 1.47832 0
M  V30 8677 H 807.526 -3.58848 1.89691 0
M  V30 8678 H 808.292 -2.52478 4.14101 0
M  V30 8679 H 804.171 -3.3151 3.20347 0
M  V30 8680 H 807.715 -2.42821 6.53975 0
M  V30 8681 H 803.612 -3.22148 5.59367 0
M  V30 8682 H 804.38 -2.91798 7.6472 0
M  V30 8683 N 807.043 -1.17915 -1.04565 0
M  V30 8684 C 808.292 -0.965816 -1.77073 0
M  V30 8685 C 808.605 0.506005 -1.88942 0
M  V30 8686 O 809.811 0.837717 -2.58253 0
M  V30 8687 C 808.267 -1.67894 -3.18339 0
M  V30 8688 C 807.875 -3.18972 -3.1458 0
M  V30 8689 C 809.619 -1.54823 -3.9526 0
M  V30 8690 C 807.526 -3.82946 -4.50674 0
M  V30 8691 H 806.456 -0.357729 -0.663736 0
M  V30 8692 H 809.107 -1.41235 -1.17153 0
M  V30 8693 H 807.489 -1.16016 -3.78624 0
M  V30 8694 H 808.663 -3.77835 -2.63776 0
M  V30 8695 H 806.978 -3.32127 -2.51159 0
M  V30 8696 H 809.575 -1.99984 -4.95894 0
M  V30 8697 H 809.918 -0.499727 -4.1329 0
M  V30 8698 H 810.451 -2.03953 -3.41538 0
M  V30 8699 H 807.19 -4.8782 -4.37849 0
M  V30 8700 H 806.71 -3.2887 -5.01602 0
M  V30 8701 H 808.389 -3.85518 -5.196 0
M  V30 8702 N 808.521 1.23394 -0.980386 0
M  V30 8703 C 809.468 2.24859 -0.520298 0
M  V30 8704 C 810.438 1.60144 0.440821 0
M  V30 8705 O 811.623 1.87593 0.348369 0
M  V30 8706 C 808.763 3.44675 0.171145 0
M  V30 8707 C 807.876 4.23947 -0.830233 0
M  V30 8708 C 807.011 5.31079 -0.113597 0
M  V30 8709 C 806.05 6.02058 -1.10419 0
M  V30 8710 N 805.187 7.00862 -0.416709 0
M  V30 8711 H 810.027 2.63579 -1.39032 0
M  V30 8712 H 807.564 1.29556 -0.696682 0
M  V30 8713 H 809.522 4.13024 0.588838 0
M  V30 8714 H 808.152 3.06755 1.00504 0
M  V30 8715 H 807.204 3.55016 -1.36631 0
M  V30 8716 H 808.516 4.72945 -1.58508 0
M  V30 8717 H 807.67 6.05622 0.36146 0
M  V30 8718 H 806.409 4.83022 0.673854 0
M  V30 8719 H 805.414 5.26307 -1.59 0
M  V30 8720 H 806.639 6.52203 -1.8923 0
M  V30 8721 H 804.585 6.55057 0.351535 0
M  V30 8722 H 804.502 7.47804 -1.11021 0
M  V30 8723 H 805.77 7.79492 0.0359606 0
M  V30 8724 N 809.999 0.752036 1.385 0
M  V30 8725 C 811.248 0.304294 1.99391 0
M  V30 8726 C 811.561 -1.11982 1.60373 0
M  V30 8727 O 812.767 -1.66795 2.14223 0
M  V30 8728 C 811.223 0.493101 3.56506 0
M  V30 8729 C 810.831 1.9262 4.04477 0
M  V30 8730 C 812.575 0.107994 4.24363 0
M  V30 8731 C 810.482 2.06365 5.54227 0
M  V30 8732 H 809.412 0.110024 0.745929 0
M  V30 8733 H 812.063 0.928355 1.58284 0
M  V30 8734 H 810.445 -0.20012 3.95494 0
M  V30 8735 H 811.619 2.65276 3.76783 0
M  V30 8736 H 809.934 2.26608 3.49339 0
M  V30 8737 H 812.531 0.189474 5.34364 0
M  V30 8738 H 812.874 -0.939165 4.05568 0
M  V30 8739 H 813.407 0.753011 3.90608 0
M  V30 8740 H 810.146 3.0933 5.77923 0
M  V30 8741 H 809.666 1.38167 5.83669 0
M  V30 8742 H 811.345 1.85286 6.19902 0
M  V30 8743 N 811.477 -1.49425 0.500989 0
M  V30 8744 C 812.707 -2.06561 -0.0402858 0
M  V30 8745 C 813.115 -1.36157 -1.31369 0
M  V30 8746 O 812.458 -0.433618 -1.78509 0
M  V30 8747 C 812.52 -3.5765 -0.364269 0
M  V30 8748 C 812.184 -4.49739 0.811417 0
M  V30 8749 C 813.181 -4.91255 1.7019 0
M  V30 8750 C 810.866 -4.92036 1.01022 0
M  V30 8751 C 812.86 -5.73806 2.77534 0
M  V30 8752 C 810.547 -5.74364 2.08683 0
M  V30 8753 C 811.545 -6.15154 2.96774 0
M  V30 8754 O 811.233 -6.95836 4.02577 0
M  V30 8755 H 810.965 -0.67578 0.0172357 0
M  V30 8756 H 813.519 -1.93193 0.697553 0
M  V30 8757 H 811.749 -3.69026 -1.1557 0
M  V30 8758 H 813.438 -3.97025 -0.844156 0
M  V30 8759 H 814.204 -4.59222 1.56013 0
M  V30 8760 H 810.083 -4.59789 0.333929 0
M  V30 8761 H 813.627 -6.05564 3.4632 0
M  V30 8762 H 809.524 -6.0581 2.22855 0
M  V30 8763 H 810.292 -7.14142 3.9993 0
M  V30 8764 N 812.955 -0.234822 -1.55841 0
M  V30 8765 C 814.202 0.39326 -1.98645 0
M  V30 8766 C 814.53 1.58823 -1.12274 0
M  V30 8767 O 813.785 1.94954 -0.170731 0
M  V30 8768 C 814.084 0.858032 -3.46947 0
M  V30 8769 C 813.75 -0.227858 -4.50324 0
M  V30 8770 C 812.412 -0.526128 -4.78315 0
M  V30 8771 C 814.764 -0.961576 -5.12253 0
M  V30 8772 C 812.092 -1.5624 -5.65514 0
M  V30 8773 C 814.444 -1.98728 -6.00575 0
M  V30 8774 C 813.108 -2.29233 -6.26904 0
M  V30 8775 H 812.378 0.143904 -0.726892 0
M  V30 8776 H 815.025 -0.34012 -1.88455 0
M  V30 8777 H 813.33 1.67041 -3.54408 0
M  V30 8778 H 815.027 1.35407 -3.77447 0
M  V30 8779 H 811.617 0.0147624 -4.28597 0
M  V30 8780 H 815.801 -0.744388 -4.90686 0
M  V30 8781 H 811.057 -1.80422 -5.84173 0
M  V30 8782 H 815.231 -2.5608 -6.47608 0
M  V30 8783 H 812.858 -3.09671 -6.94268 0
M  V30 8784 N 814.433 1.57553 0.0384317 0
M  V30 8785 C 815.396 2.04927 1.02653 0
M  V30 8786 C 816.396 0.951768 1.29607 0
M  V30 8787 O 817.586 1.21568 1.24768 0
M  V30 8788 C 814.718 2.45828 2.36181 0
M  V30 8789 H 815.911 2.93474 0.617508 0
M  V30 8790 H 813.464 1.53679 0.285031 0
M  V30 8791 H 814.199 1.60408 2.8185 0
M  V30 8792 H 813.984 3.25945 2.1795 0
M  V30 8793 H 815.474 2.82939 3.0714 0
M  V30 8794 N 815.911 -0.310526 1.54511 0
M  V30 8795 C 817.157 -1.04846 1.73595 0
M  V30 8796 C 817.49 -1.87244 0.515118 0
M  V30 8797 O 816.765 -1.88282 -0.48786 0
M  V30 8798 C 817.048 -1.96237 3.01932 0
M  V30 8799 C 816.901 -1.17082 4.34295 0
M  V30 8800 C 818.22 -2.9556 3.26086 0
M  V30 8801 H 815.339 -0.37976 0.631626 0
M  V30 8802 H 817.981 -0.32394 1.87218 0
M  V30 8803 H 816.131 -2.58015 2.90449 0
M  V30 8804 H 817.803 -0.576643 4.57682 0
M  V30 8805 H 816.046 -0.473336 4.3121 0
M  V30 8806 H 816.717 -1.84257 5.20339 0
M  V30 8807 H 819.193 -2.43908 3.37117 0
M  V30 8808 H 818.069 -3.5668 4.17218 0
M  V30 8809 H 818.33 -3.68715 2.4393 0
M  V30 8810 N 817.389 -1.46805 -0.573248 0
M  V30 8811 C 818.805 -1.31969 -0.897577 0
M  V30 8812 C 819.005 -0.298171 -1.99282 0
M  V30 8813 O 818.061 0.295953 -2.5076 0
M  V30 8814 C 819.374 -2.70859 -1.30598 0
M  V30 8815 C 820.922 -2.79022 -1.4183 0
M  V30 8816 C 821.397 -4.18516 -1.86033 0
M  V30 8817 N 822.888 -4.2098 -1.9321 0
M  V30 8818 C 823.623 -5.25814 -2.28707 0
M  V30 8819 N 823.119 -6.40968 -2.6293 0
M  V30 8820 N 824.912 -5.13184 -2.29343 0
M  V30 8821 H 817.063 -2.11869 0.150094 0
M  V30 8822 H 819.326 -0.947989 0.00447895 0
M  V30 8823 H 819.032 -3.46965 -0.575161 0
M  V30 8824 H 818.906 -3.01585 -2.26554 0
M  V30 8825 H 821.293 -2.03198 -2.13996 0
M  V30 8826 H 821.374 -2.51969 -0.441024 0
M  V30 8827 H 821.018 -4.94839 -1.14442 0
M  V30 8828 H 820.948 -4.42982 -2.84735 0
M  V30 8829 H 823.439 -3.37898 -1.69214 0
M  V30 8830 H 823.752 -7.16729 -2.88996 0
M  V30 8831 H 822.097 -6.44314 -2.60547 0
M  V30 8832 H 825.288 -4.22255 -2.02036 0
M  V30 8833 H 825.461 -5.94996 -2.56679 0
M  V30 8834 N 818.867 0.818669 -1.34668 0
M  V30 8835 C 819.815 1.95123 -1.26609 0
M  V30 8836 C 820.809 1.68611 -0.163348 0
M  V30 8837 O 822.015 1.76975 -0.328586 0
M  V30 8838 H 818.39 0.640871 -0.393431 0
M  V30 8839 H 820.361 1.99043 -2.22316 0
M  V30 8840 C 819.11 3.31697 -1.04272 0
M  V30 8841 H 818.433 3.52648 -1.8836 0
M  V30 8842 H 819.873 4.11382 -1.0267 0
M  V30 8843 C 818.332 3.35942 0.253858 0
M  V30 8844 O 818.862 3.81632 1.25378 0
M  V30 8845 N 817.068 2.89165 0.288447 0
M  V30 8846 H 816.615 2.52176 -0.525845 0
M  V30 8847 H 816.573 2.92387 1.15572 0
M  V30 8848 N 820.346 1.18468 1.03938 0
M  V30 8849 C 821.757 0.984808 1.58614 0
M  V30 8850 C 822.108 -0.465165 1.90606 0
M  V30 8851 O 821.233 -1.34274 1.69704 0
M  V30 8852 C 821.828 1.78135 2.8819 0
M  V30 8853 C 820.387 1.62579 3.39478 0
M  V30 8854 C 819.534 1.77501 2.13046 0
M  V30 8855 H 822.485 1.32993 0.865944 0
M  V30 8856 H 822.506 1.27119 3.58638 0
M  V30 8857 H 822.018 2.83661 2.64874 0
M  V30 8858 H 820.119 0.59595 3.67803 0
M  V30 8859 H 820.232 2.42463 4.13217 0
M  V30 8860 H 818.596 1.2046 2.24414 0
M  V30 8861 H 819.379 2.84464 1.92185 0
M  V30 8862 N 821.824 -1.22873 0.986916 0
M  V30 8863 C 822.734 -2.28277 0.540978 0
M  V30 8864 C 823.75 -1.69164 -0.407363 0
M  V30 8865 O 824.926 -1.99504 -0.275674 0
M  V30 8866 C 821.991 -3.46404 -0.143181 0
M  V30 8867 C 821.052 -4.20854 0.847375 0
M  V30 8868 C 820.285 -5.33341 0.19577 0
M  V30 8869 O 820.508 -5.61356 -1.0117 0
M  V30 8870 O 819.442 -5.95169 0.897623 0
M  V30 8871 H 823.268 -2.68578 1.41773 0
M  V30 8872 H 820.853 -1.28927 0.754867 0
M  V30 8873 H 822.735 -4.18096 -0.526676 0
M  V30 8874 H 821.41 -3.08041 -0.994593 0
M  V30 8875 H 820.317 -3.51459 1.28169 0
M  V30 8876 H 821.65 -4.63082 1.6678 0
M  V30 8877 N 823.302 -0.75937 -1.38099 0
M  V30 8878 C 824.232 -0.151077 -2.33011 0
M  V30 8879 C 825.213 0.697099 -1.5516 0
M  V30 8880 O 826.398 0.637101 -1.83452 0
M  V30 8881 C 823.528 0.738423 -3.39359 0
M  V30 8882 C 822.482 -0.0074741 -4.27999 0
M  V30 8883 C 821.808 1.00066 -5.25253 0
M  V30 8884 C 823.108 -1.17926 -5.08813 0
M  V30 8885 H 824.802 -0.943933 -2.84131 0
M  V30 8886 H 822.348 -0.455362 -1.36611 0
M  V30 8887 H 824.301 1.17369 -4.04725 0
M  V30 8888 H 823.025 1.56366 -2.86735 0
M  V30 8889 H 821.684 -0.423379 -3.64147 0
M  V30 8890 H 821.332 1.82012 -4.68914 0
M  V30 8891 H 821.032 0.506199 -5.85416 0
M  V30 8892 H 822.556 1.43512 -5.93495 0
M  V30 8893 H 823.97 -0.821262 -5.67387 0
M  V30 8894 H 822.367 -1.60497 -5.78239 0
M  V30 8895 H 823.437 -1.98938 -4.42212 0
M  V30 8896 N 824.78 1.49157 -0.508906 0
M  V30 8897 C 825.713 2.26056 0.312103 0
M  V30 8898 C 826.691 1.30982 0.963456 0
M  V30 8899 O 827.875 1.60286 0.992002 0
M  V30 8900 C 825.002 3.06555 1.4402 0
M  V30 8901 C 824.048 4.16844 0.902414 0
M  V30 8902 S 824.881 5.35076 -0.213087 0
M  V30 8903 C 826.037 6.19132 0.917985 0
M  V30 8904 H 826.27 2.95343 -0.340559 0
M  V30 8905 H 823.803 1.51569 -0.294331 0
M  V30 8906 H 825.761 3.53517 2.08653 0
M  V30 8907 H 824.422 2.36722 2.0645 0
M  V30 8908 H 823.615 4.72714 1.74806 0
M  V30 8909 H 823.217 3.72513 0.333156 0
M  V30 8910 H 825.509 6.52556 1.82145 0
M  V30 8911 H 826.452 7.06982 0.397724 0
M  V30 8912 H 826.86 5.51839 1.18889 0
M  V30 8913 N 826.258 0.243083 1.55714 0
M  V30 8914 C 827.221 -0.644723 2.19945 0
M  V30 8915 C 828.221 -1.10562 1.16759 0
M  V30 8916 O 829.411 -1.01095 1.41865 0
M  V30 8917 C 826.543 -1.88569 2.83997 0
M  V30 8918 H 827.736 -0.0843839 2.99781 0
M  V30 8919 H 825.289 -0.00647246 1.56299 0
M  V30 8920 H 826.024 -2.48736 2.08089 0
M  V30 8921 H 825.809 -1.56345 3.59581 0
M  V30 8922 H 827.299 -2.51774 3.33166 0
M  V30 8923 N 827.736 -1.57571 -0.0300757 0
M  V30 8924 C 828.964 -1.93485 -0.732891 0
M  V30 8925 C 829.379 -0.842758 -1.68947 0
M  V30 8926 O 828.736 0.180904 -1.81601 0
M  V30 8927 C 828.787 -3.29328 -1.49082 0
M  V30 8928 O 828.508 -4.34341 -0.572639 0
M  V30 8929 C 830.009 -3.79517 -2.29088 0
M  V30 8930 H 827.229 -0.638588 -0.206026 0
M  V30 8931 H 829.773 -2.04496 0.0120966 0
M  V30 8932 H 827.928 -3.19716 -2.1877 0
M  V30 8933 H 828.342 -5.12748 -1.10406 0
M  V30 8934 H 829.816 -4.77081 -2.77665 0
M  V30 8935 H 830.293 -3.10659 -3.10464 0
M  V30 8936 H 830.899 -3.92208 -1.64477 0
M  V30 8937 N 829.214 0.302327 -1.54673 0
M  V30 8938 C 830.162 1.39286 -1.86285 0
M  V30 8939 C 831.156 1.52553 -0.736478 0
M  V30 8940 O 832.362 1.54686 -0.92045 0
M  V30 8941 H 828.737 0.465228 -0.590819 0
M  V30 8942 H 830.708 1.09859 -2.77441 0
M  V30 8943 C 829.457 2.75155 -2.12567 0
M  V30 8944 H 828.78 2.65728 -2.98712 0
M  V30 8945 H 830.22 3.50476 -2.38627 0
M  V30 8946 C 828.679 3.23987 -0.923813 0
M  V30 8947 O 829.209 4.01443 -0.143649 0
M  V30 8948 N 827.415 2.81293 -0.72956 0
M  V30 8949 H 826.962 2.18421 -1.36565 0
M  V30 8950 H 826.92 3.14315 0.0730351 0
M  V30 8951 N 830.692 1.47107 0.565454 0
M  V30 8952 C 831.639 1.58974 1.6732 0
M  V30 8953 C 832.609 0.433146 1.60353 0
M  V30 8954 O 833.794 0.652141 1.79309 0
M  V30 8955 C 830.934 1.60224 3.05651 0
M  V30 8956 C 830.047 2.86741 3.23116 0
M  V30 8957 C 829.182 2.79381 4.51796 0
M  V30 8958 C 828.221 4.0076 4.62664 0
M  V30 8959 N 827.358 3.91685 5.8269 0
M  V30 8960 H 832.198 2.53588 1.56515 0
M  V30 8961 H 829.735 1.25791 0.762558 0
M  V30 8962 H 831.693 1.58933 3.85741 0
M  V30 8963 H 830.323 0.691285 3.15311 0
M  V30 8964 H 829.375 2.97936 2.36513 0
M  V30 8965 H 830.687 3.7665 3.27011 0
M  V30 8966 H 829.841 2.76293 5.40136 0
M  V30 8967 H 828.58 1.87142 4.50366 0
M  V30 8968 H 827.585 4.04162 3.72738 0
M  V30 8969 H 828.81 4.94117 4.6586 0
M  V30 8970 H 826.756 3.02243 5.82224 0
M  V30 8971 H 826.673 4.75264 5.87929 0
M  V30 8972 H 827.941 3.92599 6.73414 0
M  V30 8973 N 832.17 -0.811516 1.35101 0
M  V30 8974 C 833.447 -1.55491 1.18667 0
M  V30 8975 C 833.827 -2.09775 -0.236189 0
M  V30 8976 O 833.175 -1.91989 -1.23905 0
M  V30 8977 C 833.385 -2.66732 2.25067 0
M  V30 8978 C 834.733 -3.35201 2.60625 0
M  V30 8979 O 835.757 -2.76998 2.23943 0
M  V30 8980 O 834.616 -4.40334 3.23679 0
M  V30 8981 H 831.71 -0.686783 0.460716 0
M  V30 8982 H 834.256 -0.851903 1.46768 0
M  V30 8983 H 833.028 -2.24457 3.20523 0
M  V30 8984 H 832.651 -3.44673 1.98208 0
M  V30 8985 N 833.648 -1.19017 -1.03309 0
M  V30 8986 C 834.876 -1.01534 -1.80273 0
M  V30 8987 C 835.291 0.43605 -1.83696 0
M  V30 8988 O 834.648 1.30288 -1.27794 0
M  V30 8989 C 834.699 -1.5722 -3.25522 0
M  V30 8990 O 834.42 -2.96677 -3.22358 0
M  V30 8991 C 835.921 -1.4446 -4.19102 0
M  V30 8992 H 833.141 -0.358094 -0.567459 0
M  V30 8993 H 835.685 -1.57738 -1.3015 0
M  V30 8994 H 833.84 -1.05174 -3.7285 0
M  V30 8995 H 834.254 -3.22795 -4.13405 0
M  V30 8996 H 835.728 -1.88209 -5.18923 0
M  V30 8997 H 836.205 -0.394471 -4.37425 0
M  V30 8998 H 836.811 -1.95616 -3.77643 0
M  V30 8999 N 835.127 1.22348 -0.993418 0
M  V30 9000 C 836.074 2.24294 -0.544118 0
M  V30 9001 C 837.044 1.60602 0.42381 0
M  V30 9002 O 838.229 1.87952 0.328453 0
M  V30 9003 C 835.369 3.44837 0.134578 0
M  V30 9004 C 834.482 4.23043 -0.875151 0
M  V30 9005 C 833.617 5.30928 -0.169919 0
M  V30 9006 C 832.656 6.00853 -1.16798 0
M  V30 9007 N 831.793 7.00381 -0.491021 0
M  V30 9008 H 836.633 2.6209 -1.4182 0
M  V30 9009 H 834.17 1.2881 -0.710384 0
M  V30 9010 H 836.128 4.13625 0.544998 0
M  V30 9011 H 834.758 3.07804 0.972446 0
M  V30 9012 H 833.81 3.53546 -1.40389 0
M  V30 9013 H 835.122 4.71237 -1.63516 0
M  V30 9014 H 834.276 6.05972 0.297205 0
M  V30 9015 H 833.015 4.8371 0.622586 0
M  V30 9016 H 832.02 5.24591 -1.64573 0
M  V30 9017 H 833.245 6.50159 -1.96137 0
M  V30 9018 H 831.191 6.55393 0.282037 0
M  V30 9019 H 831.108 7.46584 -1.18947 0
M  V30 9020 H 832.376 7.79486 -0.0467169 0
M  V30 9021 N 836.605 0.766683 1.37694 0
M  V30 9022 C 837.854 0.325425 1.99057 0
M  V30 9023 C 838.167 -1.10275 1.61551 0
M  V30 9024 O 839.373 -1.64513 2.1598 0
M  V30 9025 C 837.829 0.530886 3.55963 0
M  V30 9026 C 837.437 1.96899 4.02411 0
M  V30 9027 C 839.181 0.152997 4.24224 0
M  V30 9028 C 837.088 2.12232 5.52007 0
M  V30 9029 H 836.018 0.117929 0.744721 0
M  V30 9030 H 838.669 0.945091 1.5729 0
M  V30 9031 H 837.051 -0.158162 3.95684 0
M  V30 9032 H 838.225 2.69258 3.73948 0
M  V30 9033 H 836.54 2.303 3.46916 0
M  V30 9034 H 839.137 0.24614 5.34133 0
M  V30 9035 H 839.48 -0.896096 4.06541 0
M  V30 9036 H 840.013 0.794398 3.89787 0
M  V30 9037 H 836.752 3.15442 5.7461 0
M  V30 9038 H 836.272 1.4435 5.82171 0
M  V30 9039 H 837.951 1.9185 6.17902 0
M  V30 9040 N 838.083 -1.48885 0.516809 0
M  V30 9041 C 839.046 -2.27916 -0.242256 0
M  V30 9042 C 840.046 -1.34601 -0.879735 0
M  V30 9043 O 841.236 -1.57616 -0.74182 0
M  V30 9044 C 838.368 -3.13067 -1.34914 0
M  V30 9045 H 839.561 -2.96483 0.451444 0
M  V30 9046 H 837.114 -1.5391 0.272294 0
M  V30 9047 H 837.849 -2.49102 -2.07651 0
M  V30 9048 H 837.634 -3.81695 -0.897313 0
M  V30 9049 H 839.124 -3.72716 -1.88341 0
M  V30 9050 N 839.561 -0.251338 -1.55583 0
M  V30 9051 C 840.508 0.646337 -2.21565 0
M  V30 9052 C 841.478 1.16796 -1.18102 0
M  V30 9053 O 842.663 1.22162 -1.46564 0
M  V30 9054 C 839.803 1.83557 -2.92234 0
M  V30 9055 C 838.916 1.35006 -4.10363 0
M  V30 9056 C 838.051 2.4992 -4.68736 0
M  V30 9057 C 837.09 1.98253 -5.79105 0
M  V30 9058 N 836.227 3.06551 -6.31642 0
M  V30 9059 H 841.067 0.0769881 -2.97901 0
M  V30 9060 H 838.604 0.026238 -1.47077 0
M  V30 9061 H 840.562 2.53425 -3.31408 0
M  V30 9062 H 839.192 2.37733 -2.18364 0
M  V30 9063 H 838.244 0.545274 -3.76472 0
M  V30 9064 H 839.556 0.931435 -4.90026 0
M  V30 9065 H 838.71 3.27823 -5.10507 0
M  V30 9066 H 837.449 2.95086 -3.88298 0
M  V30 9067 H 836.454 1.18822 -5.36807 0
M  V30 9068 H 837.679 1.54051 -6.61396 0
M  V30 9069 H 835.625 3.51143 -5.54107 0
M  V30 9070 H 835.542 2.69033 -7.06511 0
M  V30 9071 H 836.81 3.84499 -6.78071 0
M  V30 9072 N 841.039 1.57585 0.0217189 0
M  V30 9073 C 841.986 2.07036 1.02004 0
M  V30 9074 C 842.956 0.96106 1.35473 0
M  V30 9075 O 844.141 1.23211 1.45684 0
M  V30 9076 C 841.281 2.56056 2.31364 0
M  V30 9077 C 840.394 3.80805 2.03989 0
M  V30 9078 C 839.529 4.18409 3.27272 0
M  V30 9079 C 838.568 5.36055 2.95486 0
M  V30 9080 N 837.705 5.69056 4.11242 0
M  V30 9081 H 842.545 2.92073 0.591396 0
M  V30 9082 H 840.082 1.44403 0.280384 0
M  V30 9083 H 842.04 2.82548 3.06957 0
M  V30 9084 H 840.67 1.73925 2.71937 0
M  V30 9085 H 839.722 3.61354 1.1886 0
M  V30 9086 H 841.034 4.66512 1.76546 0
M  V30 9087 H 840.188 4.46068 4.11228 0
M  V30 9088 H 838.927 3.31369 3.57835 0
M  V30 9089 H 837.932 5.08142 2.09933 0
M  V30 9090 H 839.157 6.24755 2.66193 0
M  V30 9091 H 837.103 4.84974 4.41742 0
M  V30 9092 H 837.02 6.49288 3.87247 0
M  V30 9093 H 838.288 6.01295 4.96049 0
M  V30 9094 N 842.517 -0.29412 1.54831 0
M  V30 9095 C 843.45 -1.38779 1.81151 0
M  V30 9096 C 844.428 -1.48464 0.663124 0
M  V30 9097 O 845.612 -1.65418 0.903835 0
M  V30 9098 C 842.739 -2.76627 1.95436 0
M  V30 9099 C 841.785 -2.84333 3.17895 0
M  V30 9100 S 842.618 -2.45726 4.75793 0
M  V30 9101 C 843.774 -3.85589 4.93023 0
M  V30 9102 H 844.007 -1.16246 2.73631 0
M  V30 9103 H 841.54 -0.492611 1.46331 0
M  V30 9104 H 843.498 -3.56021 2.04351 0
M  V30 9105 H 842.159 -2.96425 1.03881 0
M  V30 9106 H 841.352 -3.85457 3.24713 0
M  V30 9107 H 840.954 -2.1294 3.07461 0
M  V30 9108 H 843.246 -4.80656 4.77468 0
M  V30 9109 H 844.189 -3.83737 5.95107 0
M  V30 9110 H 844.597 -3.75911 4.21131 0
M  V30 9111 N 843.995 -1.47404 -0.557645 0
M  V30 9112 C 844.958 -1.59411 -1.64684 0
M  V30 9113 C 845.958 -0.469244 -1.53801 0
M  V30 9114 O 847.148 -0.734298 -1.57967 0
M  V30 9115 C 844.28 -1.5382 -3.04224 0
M  V30 9116 H 845.473 -2.56504 -1.55389 0
M  V30 9117 H 843.026 -1.35588 -0.777531 0
M  V30 9118 H 843.761 -0.581 -3.19053 0
M  V30 9119 H 843.546 -2.35456 -3.13533 0
M  V30 9120 H 845.036 -1.65358 -3.83466 0
M  V30 9121 N 845.473 0.80434 -1.35529 0
M  V30 9122 C 846.722 1.55665 -1.28263 0
M  V30 9123 C 847.035 1.95096 0.140352 0
M  V30 9124 O 848.241 2.69422 0.335303 0
M  V30 9125 C 846.697 2.80935 -2.24952 0
M  V30 9126 C 846.305 2.48733 -3.72607 0
M  V30 9127 C 848.049 3.5894 -2.26632 0
M  V30 9128 C 845.956 3.70308 -4.61114 0
M  V30 9129 H 844.886 0.584301 -0.476559 0
M  V30 9130 H 847.537 0.88395 -1.60806 0
M  V30 9131 H 845.919 3.49927 -1.85383 0
M  V30 9132 H 847.093 1.87733 -4.20824 0
M  V30 9133 H 845.408 1.83969 -3.73557 0
M  V30 9134 H 848.005 4.49244 -2.89973 0
M  V30 9135 H 848.348 3.96433 -1.27069 0
M  V30 9136 H 848.881 2.96912 -2.64742 0
M  V30 9137 H 845.62 3.37922 -5.61684 0
M  V30 9138 H 845.14 4.30526 -4.17621 0
M  V30 9139 H 846.819 4.37511 -4.76648 0
M  V30 9140 N 846.951 1.19563 1.02676 0
M  V30 9141 C 847.881 0.959024 2.12897 0
M  V30 9142 C 848.862 -0.108382 1.69754 0
M  V30 9143 O 850.047 0.0470698 1.94143 0
M  V30 9144 C 847.177 0.499211 3.43693 0
M  V30 9145 C 846.131 1.5087 4.00528 0
M  V30 9146 C 845.457 0.905884 5.2697 0
M  V30 9147 C 846.757 2.88954 4.3509 0
M  V30 9148 H 848.451 1.88084 2.32948 0
M  V30 9149 H 845.997 0.905731 1.11949 0
M  V30 9150 H 847.95 0.320965 4.20176 0
M  V30 9151 H 846.674 -0.458205 3.2337 0
M  V30 9152 H 845.333 1.67413 3.26142 0
M  V30 9153 H 844.981 -0.0591506 5.02965 0
M  V30 9154 H 844.681 1.58 5.65959 0
M  V30 9155 H 846.205 0.73848 6.06118 0
M  V30 9156 H 847.619 2.75981 5.02501 0
M  V30 9157 H 846.016 3.53177 4.85166 0
M  V30 9158 H 847.086 3.41447 3.44299 0
M  V30 9159 N 848.429 -1.21819 0.999893 0
M  V30 9160 C 849.678 -1.90066 0.675108 0
M  V30 9161 C 849.991 -1.78624 -0.79705 0
M  V30 9162 O 851.197 -2.41851 -1.23371 0
M  V30 9163 C 849.653 -3.40795 1.15702 0
M  V30 9164 C 849.261 -3.60859 2.6549 0
M  V30 9165 C 851.005 -4.147 0.906889 0
M  V30 9166 C 848.912 -5.05324 3.07248 0
M  V30 9167 H 847.842 -0.711763 0.248815 0
M  V30 9168 H 850.493 -1.3792 1.21038 0
M  V30 9169 H 848.875 -3.92164 0.549832 0
M  V30 9170 H 850.049 -3.19951 3.31614 0
M  V30 9171 H 848.364 -3.00298 2.88461 0
M  V30 9172 H 850.961 -5.21187 1.1945 0
M  V30 9173 H 851.304 -4.16004 -0.156923 0
M  V30 9174 H 851.837 -3.69379 1.47662 0
M  V30 9175 H 848.576 -5.09164 4.12834 0
M  V30 9176 H 848.096 -5.47108 2.45832 0
M  V30 9177 H 849.775 -5.73797 2.98941 0
M  V30 9178 N 849.908 -0.773975 -1.37286 0
M  V30 9179 C 851.155 -0.339306 -1.99637 0
M  V30 9180 C 851.483 1.08478 -1.61439 0
M  V30 9181 O 850.738 1.7612 -0.853252 0
M  V30 9182 C 851.037 -0.432651 -3.54772 0
M  V30 9183 C 850.703 -1.81531 -4.12744 0
M  V30 9184 C 849.365 -2.19366 -4.2829 0
M  V30 9185 C 851.717 -2.72137 -4.44512 0
M  V30 9186 C 849.045 -3.47239 -4.72908 0
M  V30 9187 C 851.397 -3.99421 -4.90556 0
M  V30 9188 C 850.061 -4.37298 -5.04308 0
M  V30 9189 H 849.331 -0.124161 -0.730524 0
M  V30 9190 H 851.978 -0.988432 -1.64019 0
M  V30 9191 H 850.283 0.30001 -3.9065 0
M  V30 9192 H 851.98 -0.0776 -4.00925 0
M  V30 9193 H 848.57 -1.51126 -4.01072 0
M  V30 9194 H 852.754 -2.44165 -4.32084 0
M  V30 9195 H 848.01 -3.76477 -4.81742 0
M  V30 9196 H 852.184 -4.69756 -5.14104 0
M  V30 9197 H 849.811 -5.36442 -5.38641 0
M  V30 9198 N 851.386 1.48609 -0.524698 0
M  V30 9199 C 852.614 2.06899 0.00742946 0
M  V30 9200 C 853.029 1.38196 1.28637 0
M  V30 9201 O 852.386 0.467771 1.76403 0
M  V30 9202 C 852.437 3.60699 0.240548 0
M  V30 9203 O 852.158 4.26821 -0.987715 0
M  V30 9204 C 853.659 4.35769 0.813652 0
M  V30 9205 H 850.879 0.670278 -0.0311294 0
M  V30 9206 H 853.423 1.91071 -0.728832 0
M  V30 9207 H 851.578 3.76149 0.926845 0
M  V30 9208 H 851.992 5.18889 -0.765175 0
M  V30 9209 H 853.466 5.44174 0.926219 0
M  V30 9210 H 853.943 3.9984 1.81728 0
M  V30 9211 H 854.549 4.24983 0.164086 0
M  V30 9212 N 852.864 0.259585 1.55447 0
M  V30 9213 C 854.141 -0.412595 1.91199 0
M  V30 9214 C 854.521 -1.74909 1.18194 0
M  V30 9215 O 853.869 -2.26474 0.303603 0
M  V30 9216 C 854.079 -0.568195 3.44344 0
M  V30 9217 C 855.427 -0.858253 4.15836 0
M  V30 9218 O 856.451 -0.653588 3.50152 0
M  V30 9219 O 855.31 -1.24874 5.32042 0
M  V30 9220 H 852.404 -0.223403 0.796254 0
M  V30 9221 H 854.95 0.30459 1.66944 0
M  V30 9222 H 853.722 0.372989 3.89518 0
M  V30 9223 H 853.345 -1.33544 3.74502 0
M  V30 9224 N 854.342 -1.57594 -0.0133615 0
M  V30 9225 C 855.589 -1.8998 -0.70098 0
M  V30 9226 C 855.917 -0.858802 -1.74513 0
M  V30 9227 O 855.172 0.138209 -1.95211 0
M  V30 9228 C 855.471 -3.29121 -1.39336 0
M  V30 9229 C 855.137 -4.48298 -0.483687 0
M  V30 9230 C 853.799 -4.80635 -0.233186 0
M  V30 9231 C 856.151 -5.21003 0.143426 0
M  V30 9232 C 853.479 -5.83055 0.652943 0
M  V30 9233 C 855.831 -6.24366 1.01735 0
M  V30 9234 C 854.495 -6.55168 1.27716 0
M  V30 9235 H 853.765 -0.695187 -0.256507 0
M  V30 9236 H 856.412 -1.9146 0.0392965 0
M  V30 9237 H 854.717 -3.23703 -2.20735 0
M  V30 9238 H 856.414 -3.51433 -1.93121 0
M  V30 9239 H 853.004 -4.23024 -0.689092 0
M  V30 9240 H 857.188 -4.96286 -0.0371139 0
M  V30 9241 H 852.444 -6.05288 0.862379 0
M  V30 9242 H 856.618 -6.79839 1.5097 0
M  V30 9243 H 854.245 -7.34351 1.9655 0
M  V30 9244 N 855.82 0.285905 -1.54985 0
M  V30 9245 C 857.048 1.03776 -1.78992 0
M  V30 9246 C 857.463 1.80402 -0.556814 0
M  V30 9247 O 856.82 1.76242 0.473801 0
M  V30 9248 C 856.871 2.0065 -3.00702 0
M  V30 9249 O 856.592 1.27131 -4.19249 0
M  V30 9250 C 858.093 2.87753 -3.37214 0
M  V30 9251 H 855.313 0.307126 -0.596586 0
M  V30 9252 H 857.857 0.3206 -2.01971 0
M  V30 9253 H 856.012 2.67847 -2.79887 0
M  V30 9254 H 856.426 1.92316 -4.8797 0
M  V30 9255 H 857.9 3.51548 -4.2558 0
M  V30 9256 H 858.377 3.56848 -2.56039 0
M  V30 9257 H 858.983 2.26065 -3.60242 0
M  V30 9258 N 857.298 1.47698 0.54982 0
M  V30 9259 C 858.538 1.56286 1.31735 0
M  V30 9260 C 858.902 0.223042 1.907 0
M  V30 9261 O 860.103 0.183798 2.68171 0
M  V30 9262 C 858.374 2.65522 2.39234 0
M  V30 9263 S 859.933 2.93742 3.25977 0
M  V30 9264 H 856.751 0.551795 0.448378 0
M  V30 9265 H 859.353 1.85118 0.628629 0
M  V30 9266 H 858.057 3.61457 1.94362 0
M  V30 9267 H 857.588 2.38528 3.12838 0
M  V30 9268 H 859.603 2.31522 4.38876 0
M  V30 9269 N 858.776 -0.797141 1.35954 0
M  V30 9270 C 859.709 -1.91567 1.24005 0
M  V30 9271 C 860.687 -1.62112 0.125868 0
M  V30 9272 O 861.871 -1.86167 0.295638 0
M  V30 9273 C 858.998 -3.26204 0.911535 0
M  V30 9274 C 858.044 -3.74598 2.03909 0
M  V30 9275 S 858.877 -3.91276 3.656 0
M  V30 9276 C 860.033 -5.288 3.34846 0
M  V30 9277 H 860.266 -2.0141 2.18681 0
M  V30 9278 H 857.799 -0.955542 1.2128 0
M  V30 9279 H 859.757 -4.03979 0.728805 0
M  V30 9280 H 858.418 -3.14095 -0.0173159 0
M  V30 9281 H 857.611 -4.72137 1.7636 0
M  V30 9282 H 857.213 -3.03849 2.18064 0
M  V30 9283 H 859.505 -6.13117 2.8826 0
M  V30 9284 H 860.448 -5.61347 4.31619 0
M  V30 9285 H 860.856 -4.95534 2.70382 0
M  V30 9286 N 860.254 -1.20106 -1.0204 0
M  V30 9287 C 861.217 -0.948261 -2.08664 0
M  V30 9288 C 862.217 0.0746753 -1.60627 0
M  V30 9289 O 863.407 -0.160981 -1.73455 0
M  V30 9290 C 860.539 -0.426854 -3.38217 0
M  V30 9291 H 861.732 -1.894 -2.32524 0
M  V30 9292 H 859.285 -1.0159 -1.18782 0
M  V30 9293 H 860.02 0.524532 -3.2003 0
M  V30 9294 H 859.805 -1.16451 -3.74408 0
M  V30 9295 H 861.295 -0.269346 -4.1673 0
M  V30 9296 N 861.732 1.21287 -1.00634 0
M  V30 9297 C 863.143 1.72136 -0.722914 0
M  V30 9298 C 863.494 1.8091 0.759338 0
M  V30 9299 O 862.619 1.46458 1.59308 0
M  V30 9300 C 863.214 3.12633 -1.30561 0
M  V30 9301 C 861.773 3.60833 -1.07127 0
M  V30 9302 C 860.92 2.38326 -1.4176 0
M  V30 9303 H 863.871 1.06445 -1.17708 0
M  V30 9304 H 863.892 3.74174 -0.690937 0
M  V30 9305 H 863.404 3.06215 -2.38441 0
M  V30 9306 H 861.505 3.72599 -0.00968671 0
M  V30 9307 H 861.618 4.46226 -1.74411 0
M  V30 9308 H 859.982 2.40575 -0.836412 0
M  V30 9309 H 860.765 2.34558 -2.50674 0
M  V30 9310 N 863.21 0.781244 1.36873 0
M  V30 9311 C 864.459 0.34652 1.98701 0
M  V30 9312 C 864.772 -1.08555 1.62712 0
M  V30 9313 O 865.978 -1.62213 2.17713 0
M  V30 9314 C 864.434 0.568611 3.5538 0
M  V30 9315 C 864.042 2.01156 4.003 0
M  V30 9316 C 865.786 0.197983 4.24038 0
M  V30 9317 C 863.693 2.18074 5.49725 0
M  V30 9318 H 862.623 0.125821 0.743428 0
M  V30 9319 H 865.274 0.961721 1.56279 0
M  V30 9320 H 863.656 -0.116185 3.9583 0
M  V30 9321 H 864.83 2.73209 3.71071 0
M  V30 9322 H 863.145 2.33967 3.44454 0
M  V30 9323 H 865.742 0.302778 5.33842 0
M  V30 9324 H 866.085 -0.852927 4.07469 0
M  V30 9325 H 866.618 0.835696 3.88923 0
M  V30 9326 H 863.357 3.21519 5.71232 0
M  V30 9327 H 862.877 1.50517 5.80607 0
M  V30 9328 H 864.556 1.98393 6.15832 0
M  V30 9329 N 864.689 -1.48329 0.532571 0
M  V30 9330 C 865.914 -2.074 0.00147755 0
M  V30 9331 C 866.339 -1.38615 -1.27151 0
M  V30 9332 O 865.697 -0.452949 -1.75551 0
M  V30 9333 C 865.745 -3.60029 -0.202866 0
M  V30 9334 O 864.849 -3.92327 -1.27097 0
M  V30 9335 H 864.19 -0.662777 0.0402883 0
M  V30 9336 H 866.72 -1.90701 0.741224 0
M  V30 9337 H 866.73 -4.05783 -0.424722 0
M  V30 9338 H 865.405 -4.09496 0.727033 0
M  V30 9339 H 863.982 -3.58348 -1.03156 0
M  V30 9340 N 866.167 -0.267825 -1.55308 0
M  V30 9341 C 867.414 0.351036 -1.99434 0
M  V30 9342 C 867.742 1.56406 -1.15618 0
M  V30 9343 O 866.997 1.94548 -0.212045 0
M  V30 9344 C 867.296 0.784247 -3.48689 0
M  V30 9345 C 866.962 -0.323328 -4.49739 0
M  V30 9346 C 865.624 -0.627467 -4.77091 0
M  V30 9347 C 867.976 -1.07002 -5.10098 0
M  V30 9348 C 865.304 -1.682 -5.62073 0
M  V30 9349 C 867.656 -2.11422 -5.96224 0
M  V30 9350 C 866.32 -2.42479 -6.21901 0
M  V30 9351 H 865.59 0.128453 -0.729781 0
M  V30 9352 H 868.237 -0.380018 -1.87692 0
M  V30 9353 H 866.542 1.59485 -3.57871 0
M  V30 9354 H 868.239 1.2737 -3.80234 0
M  V30 9355 H 864.829 -0.0761528 -4.28532 0
M  V30 9356 H 869.013 -0.848302 -4.88996 0
M  V30 9357 H 864.269 -1.92772 -5.80215 0
M  V30 9358 H 868.443 -2.69759 -6.4203 0
M  V30 9359 H 866.07 -3.24328 -6.87543 0
M  V30 9360 N 867.645 1.57599 0.00500368 0
M  V30 9361 C 868.892 1.90349 0.690895 0
M  V30 9362 C 869.22 0.868045 1.74055 0
M  V30 9363 O 868.475 -0.127855 1.95282 0
M  V30 9364 C 868.774 3.29855 1.37588 0
M  V30 9365 C 868.44 4.48548 0.459906 0
M  V30 9366 C 867.102 4.80752 0.207693 0
M  V30 9367 C 869.454 5.20919 -0.171054 0
M  V30 9368 C 866.782 5.82701 -0.683855 0
M  V30 9369 C 869.134 6.23818 -1.05045 0
M  V30 9370 C 867.798 6.54481 -1.31189 0
M  V30 9371 H 867.068 0.696538 0.252816 0
M  V30 9372 H 869.715 1.91436 -0.0494495 0
M  V30 9373 H 868.02 3.24869 2.19015 0
M  V30 9374 H 869.717 3.52452 1.91255 0
M  V30 9375 H 866.307 4.23384 0.666648 0
M  V30 9376 H 870.491 4.96299 0.0107942 0
M  V30 9377 H 865.747 6.04822 -0.894467 0
M  V30 9378 H 869.921 6.79029 -1.54574 0
M  V30 9379 H 867.548 7.33299 -2.00442 0
M  V30 9380 N 869.123 -0.277682 1.55134 0
M  V30 9381 C 870.086 -1.32635 1.86924 0
M  V30 9382 C 871.086 -1.42578 0.743507 0
M  V30 9383 O 872.276 -1.4181 1.01171 0
M  V30 9384 C 869.408 -2.70832 2.07034 0
M  V30 9385 H 870.601 -1.0568 2.80663 0
M  V30 9386 H 868.154 -0.515517 1.47554 0
M  V30 9387 H 868.889 -3.02974 1.15661 0
M  V30 9388 H 868.674 -2.65001 2.88993 0
M  V30 9389 H 870.164 -3.46611 2.32918 0
M  V30 9390 N 870.601 -1.47988 -0.541979 0
M  V30 9391 C 871.85 -1.5465 -1.29485 0
M  V30 9392 C 872.163 -0.220041 -1.94358 0
M  V30 9393 O 873.369 -0.164792 -2.70999 0
M  V30 9394 C 871.825 -2.72685 -2.34885 0
M  V30 9395 C 871.433 -4.11923 -1.76134 0
M  V30 9396 C 873.177 -2.88651 -3.11257 0
M  V30 9397 C 871.084 -5.21237 -2.79404 0
M  V30 9398 H 870.014 -0.575688 -0.486928 0
M  V30 9399 H 872.665 -1.74296 -0.573853 0
M  V30 9400 H 871.047 -2.46448 -3.09966 0
M  V30 9401 H 872.221 -4.48128 -1.07322 0
M  V30 9402 H 870.536 -4.00972 -1.12295 0
M  V30 9403 H 873.133 -3.67487 -3.88404 0
M  V30 9404 H 873.476 -1.97658 -3.66384 0
M  V30 9405 H 874.009 -3.14731 -2.43288 0
M  V30 9406 H 870.748 -6.14156 -2.29113 0
M  V30 9407 H 870.268 -4.89533 -3.4658 0
M  V30 9408 H 871.947 -5.48839 -3.42615 0
M  V30 9409 N 872.079 0.78992 -1.36375 0
M  V30 9410 C 873.304 1.58389 -1.33895 0
M  V30 9411 C 873.729 1.8794 0.0774934 0
M  V30 9412 O 873.087 1.4785 1.0493 0
M  V30 9413 C 873.135 2.88201 -2.16732 0
M  V30 9414 O 872.239 3.81778 -1.55946 0
M  V30 9415 H 871.58 0.480471 -0.458305 0
M  V30 9416 H 874.11 0.979119 -1.79651 0
M  V30 9417 H 874.12 3.37475 -2.29292 0
M  V30 9418 H 872.795 2.66019 -3.19698 0
M  V30 9419 H 871.372 3.40371 -1.52323 0
M  V30 9420 N 873.557 1.20646 1.01402 0
M  V30 9421 C 874.52 0.959314 2.08158 0
M  V30 9422 C 875.52 -0.0661558 1.60664 0
M  V30 9423 O 876.71 0.170177 1.73367 0
M  V30 9424 C 873.842 0.444785 3.37986 0
M  V30 9425 H 875.035 1.90631 2.31517 0
M  V30 9426 H 872.588 1.02219 1.18241 0
M  V30 9427 H 873.323 -0.507553 3.20304 0
M  V30 9428 H 873.108 1.18435 3.73785 0
M  V30 9429 H 874.598 0.291443 4.16582 0
M  V30 9430 N 875.035 -1.20752 1.01276 0
M  V30 9431 C 875.998 -2.2162 0.584583 0
M  V30 9432 C 876.998 -1.57094 -0.343215 0
M  V30 9433 O 878.188 -1.73696 -0.132433 0
M  V30 9434 C 875.32 -3.40583 -0.146872 0
M  V30 9435 H 876.513 -2.61015 1.47686 0
M  V30 9436 H 874.066 -1.34148 0.802123 0
M  V30 9437 H 874.801 -3.06686 -1.05424 0
M  V30 9438 H 874.586 -3.88642 0.51958 0
M  V30 9439 H 876.076 -4.15339 -0.433924 0
M  V30 9440 N 876.513 -0.788492 -1.36457 0
M  V30 9441 C 877.76 -0.360461 -1.99266 0
M  V30 9442 C 878.088 1.0676 -1.62581 0
M  V30 9443 O 877.343 1.75205 -0.871884 0
M  V30 9444 C 877.642 -0.470255 -3.54293 0
M  V30 9445 C 877.308 -1.85899 -4.10795 0
M  V30 9446 C 875.97 -2.23896 -4.25939 0
M  V30 9447 C 878.322 -2.76836 -4.41601 0
M  V30 9448 C 875.65 -3.52235 -4.69199 0
M  V30 9449 C 878.002 -4.04602 -4.86292 0
M  V30 9450 C 876.666 -4.42623 -4.99641 0
M  V30 9451 H 875.936 -0.131902 -0.729166 0
M  V30 9452 H 878.583 -1.00577 -1.62962 0
M  V30 9453 H 876.888 0.258559 -3.90946 0
M  V30 9454 H 878.585 -0.120119 -4.0082 0
M  V30 9455 H 875.175 -1.55372 -3.99447 0
M  V30 9456 H 879.359 -2.48735 -4.2947 0
M  V30 9457 H 874.615 -3.81565 -4.77722 0
M  V30 9458 H 878.789 -4.75182 -5.09092 0
M  V30 9459 H 876.416 -5.42125 -5.32921 0
M  V30 9460 N 877.991 1.48044 -0.54043 0
M  V30 9461 C 878.938 2.29781 0.216597 0
M  V30 9462 C 879.908 1.38021 0.924094 0
M  V30 9463 O 881.093 1.66985 0.923078 0
M  V30 9464 C 878.233 3.21623 1.2511 0
M  V30 9465 C 877.346 4.28467 0.551384 0
M  V30 9466 C 876.481 5.07477 1.56972 0
M  V30 9467 C 875.52 6.06113 0.854048 0
M  V30 9468 N 874.657 6.78143 1.81842 0
M  V30 9469 H 879.497 2.94001 -0.486578 0
M  V30 9470 H 877.034 1.44929 -0.251789 0
M  V30 9471 H 878.992 3.73279 1.8633 0
M  V30 9472 H 877.622 2.59305 1.92252 0
M  V30 9473 H 876.674 3.79997 -0.174982 0
M  V30 9474 H 877.986 4.98799 -0.0100542 0
M  V30 9475 H 877.14 5.63199 2.25592 0
M  V30 9476 H 875.879 4.37008 2.16507 0
M  V30 9477 H 874.884 5.49585 0.153838 0
M  V30 9478 H 876.109 6.78584 0.264675 0
M  V30 9479 H 874.055 6.10417 2.40265 0
M  V30 9480 H 873.972 7.44587 1.3087 0
M  V30 9481 H 875.24 7.38448 2.49628 0
M  V30 9482 N 879.47 0.276058 1.55163 0
M  V30 9483 C 880.716 -0.340959 1.99913 0
M  V30 9484 C 881.049 -1.55434 1.16422 0
M  V30 9485 O 880.324 -1.93081 0.234517 0
M  V30 9486 C 880.607 -0.722211 3.52783 0
M  V30 9487 C 880.46 0.498575 4.47028 0
M  V30 9488 C 881.779 -1.5583 4.11589 0
M  V30 9489 H 878.898 -0.122455 0.726756 0
M  V30 9490 H 881.54 0.38319 1.86096 0
M  V30 9491 H 879.69 -1.33919 3.64689 0
M  V30 9492 H 881.362 1.13713 4.47065 0
M  V30 9493 H 879.605 1.13646 4.18649 0
M  V30 9494 H 880.276 0.188041 5.5168 0
M  V30 9495 H 882.752 -1.03722 4.02965 0
M  V30 9496 H 881.628 -1.79387 5.1876 0
M  V30 9497 H 881.889 -2.53963 3.61877 0
M  V30 9498 N 880.948 -1.576 0.00335426 0
M  V30 9499 C 882.359 -1.7875 -0.539008 0
M  V30 9500 C 882.71 -0.911097 -1.73763 0
M  V30 9501 O 881.835 -0.114476 -2.16097 0
M  V30 9502 C 882.43 -3.24177 -0.984611 0
M  V30 9503 C 880.989 -3.46412 -1.47226 0
M  V30 9504 C 880.136 -2.74024 -0.425004 0
M  V30 9505 H 883.087 -1.57032 0.229511 0
M  V30 9506 H 883.108 -3.32474 -1.85044 0
M  V30 9507 H 882.62 -3.87938 -0.112035 0
M  V30 9508 H 880.721 -2.8787 -2.36562 0
M  V30 9509 H 880.834 -4.55098 -1.49741 0
M  V30 9510 H 879.198 -2.38741 -0.887394 0
M  V30 9511 H 879.981 -3.40486 0.438662 0
M  V30 9512 N 882.426 0.269451 -1.5528 0
M  V30 9513 C 883.356 1.33729 -1.91413 0
M  V30 9514 C 884.337 1.51348 -0.776391 0
M  V30 9515 O 885.522 1.64332 -1.03482 0
M  V30 9516 C 882.652 2.69618 -2.18914 0
M  V30 9517 C 881.606 2.66725 -3.34726 0
M  V30 9518 C 880.932 4.06199 -3.47716 0
M  V30 9519 C 882.232 2.25684 -4.71025 0
M  V30 9520 H 883.926 1.03736 -2.80854 0
M  V30 9521 H 881.472 0.497579 -1.3513 0
M  V30 9522 H 883.425 3.44436 -2.42779 0
M  V30 9523 H 882.149 3.01201 -1.26275 0
M  V30 9524 H 880.808 1.94365 -3.10834 0
M  V30 9525 H 880.456 4.3501 -2.52537 0
M  V30 9526 H 880.156 4.05157 -4.25583 0
M  V30 9527 H 881.68 4.8275 -3.73877 0
M  V30 9528 H 883.094 2.90225 -4.94411 0
M  V30 9529 H 881.491 2.35797 -5.51833 0
M  V30 9530 H 882.561 1.20819 -4.69607 0
M  V30 9531 N 883.904 1.48273 0.534124 0
M  V30 9532 C 885.153 1.55334 1.28663 0
M  V30 9533 C 885.466 0.230345 1.94239 0
M  V30 9534 O 886.672 0.179161 2.70908 0
M  V30 9535 C 885.128 2.73927 2.33435 0
M  V30 9536 C 884.736 4.12852 1.73947 0
M  V30 9537 C 886.48 2.90298 3.09722 0
M  V30 9538 C 884.387 5.22711 2.76636 0
M  V30 9539 H 883.317 0.578262 0.483869 0
M  V30 9540 H 885.968 1.74598 0.564602 0
M  V30 9541 H 884.35 2.48089 3.08655 0
M  V30 9542 H 885.524 4.48691 1.04944 0
M  V30 9543 H 883.839 4.01562 1.10167 0
M  V30 9544 H 886.436 3.69542 3.86449 0
M  V30 9545 H 886.779 1.99598 3.6533 0
M  V30 9546 H 887.312 3.16017 2.41616 0
M  V30 9547 H 884.051 6.15362 2.25852 0
M  V30 9548 H 883.571 4.91364 3.43979 0
M  V30 9549 H 885.25 5.50648 3.39699 0
M  V30 9550 N 885.382 -0.782676 1.36792 0
M  V30 9551 C 886.61 -1.57162 1.34565 0
M  V30 9552 C 887.025 -1.88664 -0.0715501 0
M  V30 9553 O 886.382 -1.50633 -1.03033 0
M  V30 9554 C 886.433 -2.88854 2.1736 0
M  V30 9555 O 886.154 -2.58707 3.53557 0
M  V30 9556 C 887.655 -3.83132 2.2299 0
M  V30 9557 H 884.875 -0.487245 0.461338 0
M  V30 9558 H 887.419 -0.970905 1.79982 0
M  V30 9559 H 885.574 -3.45377 1.7548 0
M  V30 9560 H 885.988 -3.42961 3.96835 0
M  V30 9561 H 887.462 -4.72575 2.85266 0
M  V30 9562 H 887.939 -4.21472 1.23524 0
M  V30 9563 H 888.545 -3.32541 2.65135 0
M  V30 9564 N 886.86 -1.21182 -1.00761 0
M  V30 9565 C 888.106 -1.02898 -1.74756 0
M  V30 9566 C 888.439 0.436774 -1.89225 0
M  V30 9567 O 887.714 1.32415 -1.42466 0
M  V30 9568 C 887.997 -1.72372 -3.16164 0
M  V30 9569 C 887.85 -3.2645 -3.09435 0
M  V30 9570 C 889.169 -1.46415 -4.15031 0
M  V30 9571 H 886.288 -0.375214 -0.634337 0
M  V30 9572 H 888.93 -1.49321 -1.17487 0
M  V30 9573 H 887.08 -1.32906 -3.65059 0
M  V30 9574 H 888.752 -3.75269 -2.68274 0
M  V30 9575 H 886.995 -3.56889 -2.46603 0
M  V30 9576 H 887.666 -3.70226 -4.09435 0
M  V30 9577 H 890.142 -1.80671 -3.7483 0
M  V30 9578 H 889.018 -1.97544 -5.12121 0
M  V30 9579 H 889.279 -0.39361 -4.40344 0
M  V30 9580 N 888.338 1.20213 -1.01915 0
M  V30 9581 C 889.566 1.93622 -0.729255 0
M  V30 9582 C 889.981 1.74923 0.710444 0
M  V30 9583 O 889.338 1.06484 1.48214 0
M  V30 9584 C 889.389 3.45651 -1.05865 0
M  V30 9585 O 889.11 3.63741 -2.44181 0
M  V30 9586 C 890.611 4.36201 -0.790176 0
M  V30 9587 H 887.831 0.615333 -0.267594 0
M  V30 9588 H 890.375 1.52633 -1.36101 0
M  V30 9589 H 888.53 3.84511 -0.47225 0
M  V30 9590 H 888.944 4.57702 -2.56143 0
M  V30 9591 H 890.418 5.41516 -1.07071 0
M  V30 9592 H 890.895 4.38334 0.275609 0
M  V30 9593 H 891.501 4.03008 -1.35885 0
M  V30 9594 N 889.816 0.795718 1.36037 0
M  V30 9595 C 890.764 0.18649 2.31851 0
M  V30 9596 C 891.758 -0.657704 1.56111 0
M  V30 9597 O 892.964 -0.552083 1.71324 0
M  V30 9598 H 889.339 0.0415363 0.750852 0
M  V30 9599 H 891.31 1.00992 2.8079 0
M  V30 9600 C 890.059 -0.65918 3.41394 0
M  V30 9601 H 889.382 -0.01894 3.99796 0
M  V30 9602 H 890.822 -1.05202 4.10741 0
M  V30 9603 C 889.281 -1.82011 2.83502 0
M  V30 9604 O 889.811 -2.91703 2.76174 0
M  V30 9605 N 888.017 -1.62821 2.40703 0
M  V30 9606 H 887.564 -0.735965 2.46863 0
M  V30 9607 H 887.522 -2.40657 2.02316 0
M  V30 9608 N 891.294 -1.47756 0.548274 0
M  V30 9609 C 892.519 -2.07387 0.023475 0
M  V30 9610 C 892.944 -1.39956 -1.25674 0
M  V30 9611 O 892.302 -0.471543 -1.7506 0
M  V30 9612 C 892.35 -3.60224 -0.164669 0
M  V30 9613 O 891.454 -3.93653 -1.22928 0
M  V30 9614 H 890.795 -0.662312 0.0473156 0
M  V30 9615 H 893.325 -1.89905 0.761409 0
M  V30 9616 H 893.335 -4.06211 -0.38166 0
M  V30 9617 H 892.01 -4.08702 0.770425 0
M  V30 9618 H 890.587 -3.59422 -0.993495 0
M  V30 9619 N 892.772 -0.284283 -1.55015 0
M  V30 9620 C 893.719 0.599194 -2.22886 0
M  V30 9621 C 894.689 1.14264 -1.20553 0
M  V30 9622 O 895.874 1.19025 -1.49123 0
M  V30 9623 C 893.014 1.77317 -2.96062 0
M  V30 9624 C 892.127 1.26271 -4.13134 0
M  V30 9625 C 891.262 2.39922 -4.73931 0
M  V30 9626 C 890.301 1.85925 -5.8318 0
M  V30 9627 N 889.438 2.93084 -6.38002 0
M  V30 9628 H 894.278 0.0137816 -2.97997 0
M  V30 9629 H 891.815 -0.00496503 -1.47099 0
M  V30 9630 H 893.773 2.46339 -3.36709 0
M  V30 9631 H 892.403 2.33047 -2.23358 0
M  V30 9632 H 891.455 0.465296 -3.77544 0
M  V30 9633 H 892.767 0.827284 -4.91892 0
M  V30 9634 H 891.921 3.1692 -5.17346 0
M  V30 9635 H 890.66 2.86784 -3.9447 0
M  V30 9636 H 889.665 1.07409 -5.39206 0
M  V30 9637 H 890.89 1.39987 -6.64515 0
M  V30 9638 H 888.836 3.3931 -5.61431 0
M  V30 9639 H 888.753 2.53986 -7.12058 0
M  V30 9640 H 890.021 3.7003 -6.86075 0
M  V30 9641 N 894.251 1.57596 -0.0117121 0
M  V30 9642 C 895.497 1.91355 0.671661 0
M  V30 9643 C 895.83 0.886818 1.72769 0
M  V30 9644 O 895.105 -0.0928813 1.94278 0
M  V30 9645 C 895.388 3.35657 1.30409 0
M  V30 9646 C 895.241 4.49055 0.2588 0
M  V30 9647 C 896.56 3.79595 2.22701 0
M  V30 9648 H 893.679 0.695893 0.242698 0
M  V30 9649 H 896.321 1.89887 -0.0654071 0
M  V30 9650 H 894.471 3.37038 1.9323 0
M  V30 9651 H 896.143 4.59809 -0.370631 0
M  V30 9652 H 894.386 4.31785 -0.417672 0
M  V30 9653 H 895.057 5.4701 0.740578 0
M  V30 9654 H 897.533 3.7984 1.69885 0
M  V30 9655 H 896.409 4.81292 2.63912 0
M  V30 9656 H 896.67 3.14118 3.11098 0
M  V30 9657 N 895.729 -0.261212 1.5542 0
M  V30 9658 C 896.659 -1.32712 1.92119 0
M  V30 9659 C 897.64 -1.50934 0.784406 0
M  V30 9660 O 898.825 -1.63781 1.04352 0
M  V30 9661 C 895.955 -2.68453 2.20341 0
M  V30 9662 C 894.909 -2.64947 3.36136 0
M  V30 9663 C 894.235 -4.04349 3.49865 0
M  V30 9664 C 895.535 -2.23182 4.72215 0
M  V30 9665 H 897.229 -1.02245 2.81401 0
M  V30 9666 H 894.775 -0.490406 1.35392 0
M  V30 9667 H 896.728 -3.43144 2.44603 0
M  V30 9668 H 895.452 -3.00527 1.27871 0
M  V30 9669 H 894.111 -1.92714 3.11861 0
M  V30 9670 H 893.759 -4.33665 2.5484 0
M  V30 9671 H 893.459 -4.02895 4.27726 0
M  V30 9672 H 894.983 -4.80761 3.76432 0
M  V30 9673 H 896.397 -2.87599 4.95943 0
M  V30 9674 H 894.794 -2.32867 5.53076 0
M  V30 9675 H 895.864 -1.18327 4.70241 0
M  V30 9676 N 897.207 -1.48554 -0.526253 0
M  V30 9677 C 898.137 -1.66252 -1.63959 0
M  V30 9678 C 899.118 -0.511351 -1.62232 0
M  V30 9679 O 900.303 -0.744322 -1.7937 0
M  V30 9680 C 897.433 -1.70556 -3.02536 0
M  V30 9681 C 896.387 -2.8521 -3.19123 0
M  V30 9682 C 895.713 -2.74606 -4.58798 0
M  V30 9683 C 897.013 -4.26463 -3.0154 0
M  V30 9684 H 898.707 -2.59459 -1.49404 0
M  V30 9685 H 896.253 -1.24862 -0.717326 0
M  V30 9686 H 898.206 -1.81524 -3.80298 0
M  V30 9687 H 896.93 -0.739297 -3.18123 0
M  V30 9688 H 895.589 -2.73802 -2.43779 0
M  V30 9689 H 895.237 -1.75941 -4.71226 0
M  V30 9690 H 894.937 -3.51544 -4.70841 0
M  V30 9691 H 896.461 -2.87548 -5.38655 0
M  V30 9692 H 897.875 -4.38685 -3.69091 0
M  V30 9693 H 896.272 -5.04428 -3.25073 0
M  V30 9694 H 897.342 -4.42667 -1.97925 0
M  V30 9695 N 898.685 0.775411 -1.37205 0
M  V30 9696 C 899.931 1.53611 -1.32407 0
M  V30 9697 C 900.264 1.9398 0.0924103 0
M  V30 9698 O 899.539 1.63791 1.04893 0
M  V30 9699 C 899.822 2.80367 -2.25979 0
M  V30 9700 C 899.675 2.46275 -3.76389 0
M  V30 9701 C 900.994 3.82277 -2.18064 0
M  V30 9702 H 898.113 0.557278 -0.482297 0
M  V30 9703 H 900.755 0.889826 -1.67875 0
M  V30 9704 H 898.905 3.35515 -1.95862 0
M  V30 9705 H 900.577 1.9707 -4.17087 0
M  V30 9706 H 898.82 1.79023 -3.95137 0
M  V30 9707 H 899.491 3.36868 -4.37291 0
M  V30 9708 H 901.967 3.36613 -2.44604 0
M  V30 9709 H 900.843 4.68696 -2.85684 0
M  V30 9710 H 901.104 4.26272 -1.17239 0
M  V30 9711 N 900.163 1.21714 1.00117 0
M  V30 9712 C 901.093 1.00397 2.10815 0
M  V30 9713 C 902.074 -0.0723502 1.69946 0
M  V30 9714 O 903.259 0.0882398 1.93999 0
M  V30 9715 C 900.389 0.572001 3.42557 0
M  V30 9716 C 899.343 1.59331 3.97237 0
M  V30 9717 C 898.669 1.01746 5.2493 0
M  V30 9718 C 899.969 2.98117 4.28863 0
M  V30 9719 H 901.663 1.92983 2.28906 0
M  V30 9720 H 899.209 0.929273 1.10002 0
M  V30 9721 H 901.162 0.410018 4.19401 0
M  V30 9722 H 899.886 -0.38951 3.24269 0
M  V30 9723 H 898.545 1.74293 3.22518 0
M  V30 9724 H 898.193 0.0475491 5.02978 0
M  V30 9725 H 897.893 1.69969 5.62481 0
M  V30 9726 H 899.417 0.866881 6.04415 0
M  V30 9727 H 900.831 2.86578 4.96534 0
M  V30 9728 H 899.228 3.63389 4.77565 0
M  V30 9729 H 900.298 3.48674 3.36979 0
M  V30 9730 N 901.641 -1.19671 1.02551 0
M  V30 9731 C 902.888 -1.89268 0.720002 0
M  V30 9732 C 903.216 -1.79411 -0.751127 0
M  V30 9733 O 902.471 -1.17859 -1.5623 0
M  V30 9734 C 902.77 -3.39647 1.11241 0
M  V30 9735 C 902.436 -3.69706 2.58125 0
M  V30 9736 C 901.098 -3.7762 2.98256 0
M  V30 9737 C 903.45 -3.83301 3.53171 0
M  V30 9738 C 900.778 -3.96594 4.32354 0
M  V30 9739 C 903.13 -4.03788 4.86968 0
M  V30 9740 C 901.794 -4.09934 5.26793 0
M  V30 9741 H 901.064 -0.692579 0.263467 0
M  V30 9742 H 903.711 -1.41738 1.28774 0
M  V30 9743 H 902.016 -3.89052 0.463234 0
M  V30 9744 H 903.713 -3.91809 0.853602 0
M  V30 9745 H 900.303 -3.64152 2.26033 0
M  V30 9746 H 904.487 -3.76534 3.2332 0
M  V30 9747 H 899.743 -3.9959 4.6275 0
M  V30 9748 H 903.917 -4.1325 5.60533 0
M  V30 9749 H 901.544 -4.24389 6.30712 0
M  V30 9750 N 903.119 -0.802921 -1.35613 0
M  V30 9751 C 904.349 -0.393359 -2.02821 0
M  V30 9752 C 904.757 0.999282 -1.60658 0
M  V30 9753 O 904.1 1.65463 -0.797977 0
M  V30 9754 C 904.162 -0.393102 -3.57344 0
M  V30 9755 C 903.826 -1.73563 -4.22759 0
M  V30 9756 C 904.823 -2.69333 -4.44698 0
M  V30 9757 C 902.508 -2.01863 -4.59953 0
M  V30 9758 C 904.502 -3.91589 -5.02928 0
M  V30 9759 C 902.189 -3.24383 -5.17898 0
M  V30 9760 C 903.187 -4.19064 -5.39328 0
M  V30 9761 O 902.875 -5.39422 -5.96053 0
M  V30 9762 H 902.607 -0.158431 -0.657172 0
M  V30 9763 H 905.161 -1.08682 -1.74291 0
M  V30 9764 H 903.391 0.356934 -3.85049 0
M  V30 9765 H 905.08 -0.00635596 -4.059 0
M  V30 9766 H 905.846 -2.48759 -4.16346 0
M  V30 9767 H 901.725 -1.28979 -4.42589 0
M  V30 9768 H 905.269 -4.65502 -5.1957 0
M  V30 9769 H 901.166 -3.44829 -5.45677 0
M  V30 9770 H 901.934 -5.40669 -6.14507 0
M  V30 9771 N 904.597 1.47463 -0.556102 0
M  V30 9772 C 906.008 1.86298 -0.122429 0
M  V30 9773 C 906.359 1.46285 1.30749 0
M  V30 9774 O 905.484 0.865405 1.98342 0
M  V30 9775 C 906.079 3.38115 -0.215407 0
M  V30 9776 C 904.638 3.76046 0.163223 0
M  V30 9777 C 903.785 2.71515 -0.563466 0
M  V30 9778 H 906.736 1.38996 -0.765888 0
M  V30 9779 H 906.757 3.76263 0.566271 0
M  V30 9780 H 906.269 3.67207 -1.25622 0
M  V30 9781 H 904.37 3.5257 1.20519 0
M  V30 9782 H 904.483 4.78705 -0.194568 0
M  V30 9783 H 902.847 2.54699 -0.00667879 0
M  V30 9784 H 903.63 3.03449 -1.60542 0
M  V30 9785 N 906.075 0.2925 1.54862 0
M  V30 9786 C 907.324 -0.319994 1.99146 0
M  V30 9787 C 907.637 -1.55658 1.18448 0
M  V30 9788 O 908.843 -2.24312 1.52959 0
M  V30 9789 C 907.299 -0.620665 3.54508 0
M  V30 9790 C 906.907 0.597098 4.44003 0
M  V30 9791 C 908.651 -1.19482 4.07338 0
M  V30 9792 C 906.558 0.270049 5.90783 0
M  V30 9793 H 905.488 -0.123342 0.743843 0
M  V30 9794 H 908.139 0.399876 1.7909 0
M  V30 9795 H 906.521 -1.3999 3.7043 0
M  V30 9796 H 907.695 1.37354 4.39853 0
M  V30 9797 H 906.01 1.0893 4.019 0
M  V30 9798 H 908.607 -1.45362 5.14562 0
M  V30 9799 H 908.95 -2.13435 3.57423 0
M  V30 9800 H 909.483 -0.477485 3.94924 0
M  V30 9801 H 906.222 1.17791 6.4483 0
M  V30 9802 H 905.742 -0.469292 5.97961 0
M  V30 9803 H 907.421 -0.131471 6.46866 0
M  V30 9804 N 907.553 -1.57587 0.0200696 0
M  V30 9805 C 908.501 -2.10814 -0.982868 0
M  V30 9806 C 909.495 -1.03263 -1.34287 0
M  V30 9807 O 910.701 -1.21708 -1.32617 0
M  V30 9808 H 907.076 -0.673409 -0.334701 0
M  V30 9809 H 909.047 -2.94034 -0.50856 0
M  V30 9810 C 907.796 -2.64301 -2.25921 0
M  V30 9811 H 907.119 -3.46703 -1.99091 0
M  V30 9812 H 908.559 -3.052 -2.94328 0
M  V30 9813 C 907.018 -1.56628 -2.98277 0
M  V30 9814 O 907.548 -0.960825 -3.9004 0
M  V30 9815 N 905.754 -1.28889 -2.60453 0
M  V30 9816 H 905.301 -1.7831 -1.85912 0
M  V30 9817 H 905.259 -0.570697 -3.09177 0
M  V30 9818 N 909.032 0.252966 -1.55557 0
M  V30 9819 C 910.257 1.0038 -1.8149 0
M  V30 9820 C 910.682 1.78397 -0.596318 0
M  V30 9821 O 910.04 1.7551 0.454535 0
M  V30 9822 C 910.088 1.9222 -3.05096 0
M  V30 9823 O 909.192 3.01302 -2.81587 0
M  V30 9824 H 908.533 0.285949 -0.599274 0
M  V30 9825 H 911.063 0.275795 -2.02733 0
M  V30 9826 H 911.073 2.338 -3.34368 0
M  V30 9827 H 909.748 1.34852 -3.93431 0
M  V30 9828 H 908.325 2.63894 -2.63466 0
M  V30 9829 N 910.51 1.48831 0.518367 0
M  V30 9830 C 911.75 1.59045 1.28391 0
M  V30 9831 C 912.114 0.263443 1.90184 0
M  V30 9832 O 913.315 0.24064 2.67721 0
M  V30 9833 C 911.586 2.70536 2.33548 0
M  V30 9834 S 913.145 3.00591 3.19673 0
M  V30 9835 H 909.963 0.561182 0.436573 0
M  V30 9836 H 912.565 1.86409 0.589222 0
M  V30 9837 H 911.269 3.65499 1.86652 0
M  V30 9838 H 910.8 2.4511 3.07708 0
M  V30 9839 H 912.815 2.40779 4.33866 0
M  V30 9840 N 911.988 -0.768124 1.37614 0
M  V30 9841 C 912.951 -1.86314 1.3349 0
M  V30 9842 C 913.951 -1.59025 0.23823 0
M  V30 9843 O 915.141 -1.6704 0.494288 0
M  V30 9844 C 912.273 -3.23519 1.07462 0
M  V30 9845 H 913.466 -1.91382 2.30896 0
M  V30 9846 H 911.019 -0.968267 1.22696 0
M  V30 9847 H 911.754 -3.24127 0.106028 0
M  V30 9848 H 911.539 -3.44719 1.86846 0
M  V30 9849 H 913.029 -4.03597 1.07236 0
M  V30 9850 N 913.466 -1.22244 -0.994698 0
M  V30 9851 C 914.414 -0.988118 -2.10568 0
M  V30 9852 C 915.408 0.0681541 -1.69263 0
M  V30 9853 O 916.614 -0.0841311 -1.79803 0
M  V30 9854 H 912.989 -0.302343 -0.688544 0
M  V30 9855 H 914.96 -1.93091 -2.27505 0
M  V30 9856 C 913.709 -0.580557 -3.42819 0
M  V30 9857 H 913.032 -1.385 -3.75044 0
M  V30 9858 H 914.472 -0.456004 -4.21541 0
M  V30 9859 C 912.931 0.709692 -3.2934 0
M  V30 9860 O 913.461 1.76259 -3.60965 0
M  V30 9861 N 911.667 0.680155 -2.82528 0
M  V30 9862 H 911.214 -0.176977 -2.56991 0
M  V30 9863 H 911.172 1.54372 -2.73892 0
M  V30 9864 N 914.944 1.19125 -1.03184 0
M  V30 9865 C 916.355 1.70564 -0.759264 0
M  V30 9866 C 916.706 1.8248 0.720794 0
M  V30 9867 O 915.831 1.49804 1.56166 0
M  V30 9868 C 916.426 3.09793 -1.37163 0
M  V30 9869 C 914.985 3.5848 -1.14757 0
M  V30 9870 C 914.132 2.35265 -1.46784 0
M  V30 9871 H 917.083 1.03925 -1.19939 0
M  V30 9872 H 917.104 3.72624 -0.77015 0
M  V30 9873 H 916.616 3.01088 -2.44882 0
M  V30 9874 H 914.717 3.72494 -0.0887182 0
M  V30 9875 H 914.83 4.42426 -1.83836 0
M  V30 9876 H 913.194 2.38747 -0.887254 0
M  V30 9877 H 913.977 2.29188 -2.55593 0
M  V30 9878 N 916.422 0.810101 1.35185 0
M  V30 9879 C 917.669 0.392117 1.98667 0
M  V30 9880 C 917.997 -1.0416 1.64259 0
M  V30 9881 O 917.252 -1.73795 0.899647 0
M  V30 9882 C 917.551 0.526561 3.535 0
M  V30 9883 C 917.217 1.92411 4.07785 0
M  V30 9884 C 915.879 2.30644 4.22323 0
M  V30 9885 C 918.231 2.83827 4.37141 0
M  V30 9886 C 915.559 3.59655 4.63536 0
M  V30 9887 C 917.911 4.12287 4.79794 0
M  V30 9888 C 916.575 4.50515 4.92536 0
M  V30 9889 H 915.845 0.143486 0.726975 0
M  V30 9890 H 918.492 1.03157 1.61341 0
M  V30 9891 H 916.797 -0.19633 3.91308 0
M  V30 9892 H 918.494 0.183871 4.00578 0
M  V30 9893 H 915.084 1.61707 3.96924 0
M  V30 9894 H 919.268 2.55536 4.25459 0
M  V30 9895 H 914.524 3.89117 4.71591 0
M  V30 9896 H 918.698 4.83221 5.01468 0
M  V30 9897 H 916.325 5.50535 5.24229 0
M  V30 9898 N 917.9 -1.47166 0.563914 0
M  V30 9899 C 918.83 -2.32894 -0.168148 0
M  V30 9900 C 919.811 -1.44202 -0.902214 0
M  V30 9901 O 920.996 -1.73048 -0.881365 0
M  V30 9902 C 918.126 -3.26116 -1.19439 0
M  V30 9903 C 917.08 -4.24101 -0.576363 0
M  V30 9904 C 916.406 -5.06696 -1.70772 0
M  V30 9905 C 917.706 -5.20142 0.47425 0
M  V30 9906 H 919.4 -2.9435 0.547573 0
M  V30 9907 H 916.946 -1.41545 0.264778 0
M  V30 9908 H 918.899 -3.84935 -1.71474 0
M  V30 9909 H 917.623 -2.62728 -1.94014 0
M  V30 9910 H 916.282 -3.66519 -0.0772534 0
M  V30 9911 H 915.93 -4.39707 -2.44268 0
M  V30 9912 H 915.63 -5.7304 -1.29994 0
M  V30 9913 H 917.154 -5.68375 -2.2312 0
M  V30 9914 H 918.568 -5.73286 0.0397035 0
M  V30 9915 H 916.965 -5.94726 0.801287 0
M  V30 9916 H 918.035 -4.65214 1.36764 0
M  V30 9917 N 919.378 -0.300708 -1.54705 0
M  V30 9918 C 920.608 0.310819 -2.04249 0
M  V30 9919 C 921.016 1.4809 -1.17754 0
M  V30 9920 O 920.359 1.82654 -0.195779 0
M  V30 9921 C 920.421 0.83014 -3.49784 0
M  V30 9922 C 920.085 -0.214628 -4.56496 0
M  V30 9923 C 921.082 -1.04298 -5.09331 0
M  V30 9924 C 918.767 -0.356242 -5.01035 0
M  V30 9925 C 920.761 -1.99889 -6.05246 0
M  V30 9926 C 918.448 -1.3156 -5.96771 0
M  V30 9927 C 919.446 -2.1354 -6.4876 0
M  V30 9928 O 919.134 -3.07849 -7.4262 0
M  V30 9929 H 918.866 0.0715341 -0.672204 0
M  V30 9930 H 921.42 -0.438179 -2.00672 0
M  V30 9931 H 919.65 1.62966 -3.50684 0
M  V30 9932 H 921.339 1.35752 -3.82526 0
M  V30 9933 H 922.105 -0.944439 -4.75716 0
M  V30 9934 H 917.984 0.271916 -4.60197 0
M  V30 9935 H 921.528 -2.63917 -6.45751 0
M  V30 9936 H 917.425 -1.41486 -6.29803 0
M  V30 9937 H 918.193 -3.02824 -7.60421 0
M  V30 9938 N 920.856 1.57574 -0.0284266 0
M  V30 9939 C 921.819 2.09096 0.938691 0
M  V30 9940 C 922.819 1.00588 1.25454 0
M  V30 9941 O 924.009 1.2675 1.19499 0
M  V30 9942 C 921.141 2.55624 2.25542 0
M  V30 9943 H 922.334 2.95829 0.49248 0
M  V30 9944 H 919.887 1.5475 0.219594 0
M  V30 9945 H 920.622 1.72218 2.74793 0
M  V30 9946 H 920.407 3.34896 2.03929 0
M  V30 9947 H 921.897 2.95712 2.94863 0
M  V30 9948 N 922.334 -0.244713 1.55689 0
M  V30 9949 C 923.583 -0.970373 1.76824 0
M  V30 9950 C 923.896 -1.86402 0.592764 0
M  V30 9951 O 925.102 -2.62659 0.687186 0
M  V30 9952 C 923.558 -1.77547 3.13058 0
M  V30 9953 C 923.166 -0.929104 4.3826 0
M  V30 9954 C 924.91 -2.49373 3.43531 0
M  V30 9955 C 922.817 -1.73021 5.65524 0
M  V30 9956 H 921.747 -0.366048 0.659185 0
M  V30 9957 H 924.398 -0.224964 1.82116 0
M  V30 9958 H 922.78 -2.56291 3.01879 0
M  V30 9959 H 923.954 -0.183836 4.60433 0
M  V30 9960 H 922.269 -0.324071 4.15137 0
M  V30 9961 H 924.866 -3.09767 4.35831 0
M  V30 9962 H 925.209 -3.21099 2.64955 0
M  V30 9963 H 925.742 -1.77637 3.55935 0
M  V30 9964 H 922.481 -1.05666 6.46927 0
M  V30 9965 H 922.001 -2.45071 5.47449 0
M  V30 9966 H 923.68 -2.2968 6.0486 0
M  V30 9967 N 923.813 -1.49104 -0.510467 0
M  V30 9968 C 925.06 -1.58112 -1.26518 0
M  V30 9969 C 925.388 -0.263603 -1.92705 0
M  V30 9970 O 924.643 0.747743 -1.80852 0
M  V30 9971 C 924.942 -2.68259 -2.36161 0
M  V30 9972 C 924.608 -4.10069 -1.87495 0
M  V30 9973 C 923.27 -4.48662 -1.73942 0
M  V30 9974 C 925.622 -4.98859 -1.5096 0
M  V30 9975 C 922.95 -5.73829 -1.22217 0
M  V30 9976 C 925.302 -6.24535 -1.00691 0
M  V30 9977 C 923.966 -6.61967 -0.857691 0
M  V30 9978 H 923.236 -0.578574 -0.462962 0
M  V30 9979 H 925.883 -1.82899 -0.567475 0
M  V30 9980 H 924.188 -2.37407 -3.11681 0
M  V30 9981 H 925.885 -2.7244 -2.9424 0
M  V30 9982 H 922.475 -3.79601 -1.99001 0
M  V30 9983 H 926.659 -4.69706 -1.60282 0
M  V30 9984 H 921.915 -6.01539 -1.09368 0
M  V30 9985 H 926.089 -6.9272 -0.71498 0
M  V30 9986 H 923.716 -7.58839 -0.454702 0
M  V30 9987 N 925.291 0.760815 -1.38019 0
M  V30 9988 C 926.519 1.55001 -1.37048 0
M  V30 9989 C 926.934 1.88754 0.0415261 0
M  V30 9990 O 926.291 1.52254 1.00624 0
M  V30 9991 C 926.342 2.8536 -2.21928 0
M  V30 9992 O 926.063 2.53049 -3.57628 0
M  V30 9993 C 927.564 3.79536 -2.29057 0
M  V30 9994 H 924.784 0.479844 -0.469032 0
M  V30 9995 H 927.328 0.942148 -1.81504 0
M  V30 9996 H 925.483 3.42542 -1.80953 0
M  V30 9997 H 925.897 3.36604 -4.02241 0
M  V30 9998 H 927.371 4.67977 -2.92749 0
M  V30 9999 H 927.848 4.19453 -1.30213 0
M  V30 10000 H 928.454 3.28281 -2.70392 0
M  V30 10001 N 926.769 1.22769 0.988202 0
M  V30 10002 C 927.716 1.00195 2.07917 0
M  V30 10003 C 928.686 -0.0779391 1.65917 0
M  V30 10004 O 929.871 0.0726005 1.90662 0
M  V30 10005 C 927.011 0.590853 3.40004 0
M  V30 10006 C 926.124 1.74202 3.9532 0
M  V30 10007 C 925.259 1.27846 5.15586 0
M  V30 10008 C 924.298 2.40087 5.63049 0
M  V30 10009 N 923.435 1.94744 6.74551 0
M  V30 10010 H 928.275 1.93581 2.26562 0
M  V30 10011 H 925.812 0.96448 1.11068 0
M  V30 10012 H 927.77 0.333653 4.15864 0
M  V30 10013 H 926.4 -0.306007 3.21346 0
M  V30 10014 H 925.452 2.11342 3.16289 0
M  V30 10015 H 926.764 2.58612 4.26522 0
M  V30 10016 H 925.918 0.978919 5.9875 0
M  V30 10017 H 924.657 0.404617 4.86019 0
M  V30 10018 H 923.662 2.70824 4.78471 0
M  V30 10019 H 924.887 3.27995 5.9464 0
M  V30 10020 H 922.833 1.09729 6.46758 0
M  V30 10021 H 922.75 2.72718 7.05096 0
M  V30 10022 H 924.018 1.67873 7.61209 0
M  V30 10023 N 928.247 -1.18576 1.03814 0
M  V30 10024 C 929.475 -1.92437 0.759966 0
M  V30 10025 C 929.89 -1.76031 -0.682526 0
M  V30 10026 O 929.247 -1.08829 -1.46501 0
M  V30 10027 C 929.298 -3.43923 1.11351 0
M  V30 10028 O 929.019 -3.5981 2.49937 0
M  V30 10029 C 930.52 -4.34888 0.859472 0
M  V30 10030 H 927.74 -0.610998 0.277349 0
M  V30 10031 H 930.284 -1.50448 1.38512 0
M  V30 10032 H 928.439 -3.83711 0.533362 0
M  V30 10033 H 928.853 -4.53569 2.63393 0
M  V30 10034 H 930.327 -5.39744 1.15672 0
M  V30 10035 H 930.804 -4.38717 -0.205839 0
M  V30 10036 H 931.41 -4.00795 1.42279 0
M  V30 10037 N 929.725 -0.817259 -1.34754 0
M  V30 10038 C 930.972 -0.402648 -1.98457 0
M  V30 10039 C 931.3 1.03287 -1.64809 0
M  V30 10040 O 930.555 1.73316 -0.908851 0
M  V30 10041 C 930.854 -0.5453 -3.53216 0
M  V30 10042 C 930.52 -1.9457 -4.06759 0
M  V30 10043 C 929.182 -2.32881 -4.21094 0
M  V30 10044 C 931.534 -2.86141 -4.35629 0
M  V30 10045 C 928.862 -3.62108 -4.61622 0
M  V30 10046 C 931.214 -4.14826 -4.776 0
M  V30 10047 C 929.878 -4.53121 -4.9014 0
M  V30 10048 H 929.148 -0.147339 -0.726204 0
M  V30 10049 H 931.795 -1.04011 -1.60791 0
M  V30 10050 H 930.1 0.175576 -3.91406 0
M  V30 10051 H 931.797 -0.205112 -4.00475 0
M  V30 10052 H 928.387 -1.6381 -3.96061 0
M  V30 10053 H 932.571 -2.57788 -4.24098 0
M  V30 10054 H 927.827 -3.91613 -4.69521 0
M  V30 10055 H 932.001 -4.85874 -4.98899 0
M  V30 10056 H 929.628 -5.53307 -5.21302 0
M  V30 10057 N 931.203 1.46865 -0.571711 0
M  V30 10058 C 932.135 2.28277 0.205479 0
M  V30 10059 C 933.148 1.37866 0.865835 0
M  V30 10060 O 934.337 1.62564 0.737247 0
M  V30 10061 C 931.437 3.12572 1.30965 0
M  V30 10062 C 930.61 4.31038 0.743328 0
M  V30 10063 C 929.669 4.96815 1.73382 0
M  V30 10064 O 928.695 5.54755 1.2742 0
M  V30 10065 N 929.897 4.92825 3.06764 0
M  V30 10066 H 932.662 2.95618 -0.49294 0
M  V30 10067 H 930.223 1.56655 -0.408744 0
M  V30 10068 H 932.215 3.53442 1.97131 0
M  V30 10069 H 930.785 2.47378 1.91109 0
M  V30 10070 H 930.005 3.94084 -0.0955004 0
M  V30 10071 H 931.293 5.07632 0.344556 0
M  V30 10072 H 930.691 4.46978 3.46738 0
M  V30 10073 H 929.248 5.3767 3.68449 0
M  V30 10074 N 932.681 0.308908 1.54543 0
M  V30 10075 C 934.097 -0.0442273 1.59539 0
M  V30 10076 C 934.297 -1.51743 1.32575 0
M  V30 10077 O 933.353 -2.27134 1.10302 0
M  V30 10078 C 934.666 0.360826 2.98527 0
M  V30 10079 C 936.214 0.310252 3.11459 0
M  V30 10080 C 936.689 0.690246 4.52769 0
M  V30 10081 N 938.18 0.643084 4.58714 0
M  V30 10082 C 938.915 0.909483 5.66141 0
M  V30 10083 N 938.411 1.24226 6.81572 0
M  V30 10084 N 940.204 0.836018 5.55848 0
M  V30 10085 H 932.355 1.26893 1.70329 0
M  V30 10086 H 934.618 0.514986 0.795923 0
M  V30 10087 H 934.324 1.38669 3.23209 0
M  V30 10088 H 934.198 -0.281563 3.76148 0
M  V30 10089 H 936.585 -0.706375 2.86521 0
M  V30 10090 H 936.666 0.987373 2.35976 0
M  V30 10091 H 936.31 1.70472 4.78437 0
M  V30 10092 H 936.24 -0.00903075 5.26599 0
M  V30 10093 H 938.731 0.397138 3.75807 0
M  V30 10094 H 939.044 1.4313 7.5943 0
M  V30 10095 H 937.389 1.28038 6.83104 0
M  V30 10096 H 940.58 0.575637 4.64547 0
M  V30 10097 H 940.753 1.047 6.39486 0
M  V30 10098 N 934.159 -1.57557 0.0367827 0
M  V30 10099 C 935.436 -1.83427 -0.679261 0
M  V30 10100 C 935.816 -0.922274 -1.89888 0
M  V30 10101 O 935.164 0.02025 -2.28491 0
M  V30 10102 C 935.374 -3.32823 -1.05022 0
M  V30 10103 C 936.722 -3.99486 -1.43861 0
M  V30 10104 O 937.746 -3.37364 -1.14297 0
M  V30 10105 O 936.605 -5.0899 -1.98977 0
M  V30 10106 H 933.699 -0.756581 -0.333936 0
M  V30 10107 H 936.245 -1.69575 0.0650494 0
M  V30 10108 H 935.017 -3.90874 -0.182509 0
M  V30 10109 H 934.64 -3.5181 -1.85244 0
M  V30 10110 N 935.637 0.236453 -1.55816 0
M  V30 10111 C 936.884 0.963012 -1.78136 0
M  V30 10112 C 937.212 1.84918 -0.602952 0
M  V30 10113 O 936.467 1.91285 0.413325 0
M  V30 10114 C 936.766 1.84549 -3.06066 0
M  V30 10115 C 936.432 1.11381 -4.36927 0
M  V30 10116 C 935.094 0.911635 -4.72486 0
M  V30 10117 C 937.446 0.596 -5.17781 0
M  V30 10118 C 934.774 0.179515 -5.86425 0
M  V30 10119 C 937.126 -0.122702 -6.32481 0
M  V30 10120 C 935.79 -0.336263 -6.66652 0
M  V30 10121 H 935.06 0.352391 -0.651845 0
M  V30 10122 H 937.707 0.232295 -1.90086 0
M  V30 10123 H 936.012 2.6436 -2.89173 0
M  V30 10124 H 937.709 2.40953 -3.20535 0
M  V30 10125 H 934.299 1.28134 -4.08998 0
M  V30 10126 H 938.483 0.73971 -4.90757 0
M  V30 10127 H 933.739 0.00368224 -6.114 0
M  V30 10128 H 937.913 -0.531516 -6.94369 0
M  V30 10129 H 935.54 -0.905507 -7.54788 0
M  V30 10130 N 937.115 1.49373 0.502552 0
M  V30 10131 C 938.362 1.58781 1.25678 0
M  V30 10132 C 938.69 0.273819 1.92563 0
M  V30 10133 O 937.945 -0.738141 1.81246 0
M  V30 10134 C 938.244 2.69508 2.34735 0
M  V30 10135 C 937.91 4.11057 1.85318 0
M  V30 10136 C 936.572 4.49578 1.7156 0
M  V30 10137 C 938.924 4.99653 1.48312 0
M  V30 10138 C 936.252 5.74469 1.19172 0
M  V30 10139 C 938.604 6.2506 0.97377 0
M  V30 10140 C 937.268 6.62412 0.822573 0
M  V30 10141 H 936.538 0.581021 0.459887 0
M  V30 10142 H 939.185 1.83197 0.557767 0
M  V30 10143 H 937.49 2.39057 3.10418 0
M  V30 10144 H 939.187 2.73997 2.92791 0
M  V30 10145 H 935.777 3.80651 1.96985 0
M  V30 10146 H 939.961 4.70549 1.57789 0
M  V30 10147 H 935.217 6.0211 1.06176 0
M  V30 10148 H 939.391 6.93089 0.678233 0
M  V30 10149 H 937.018 7.59069 0.414453 0
M  V30 10150 N 938.594 -0.753485 1.38421 0
M  V30 10151 C 939.524 -1.8808 1.38377 0
M  V30 10152 C 940.505 -1.68258 0.249664 0
M  V30 10153 O 941.69 -1.88848 0.45276 0
M  V30 10154 C 938.82 -3.25608 1.20818 0
M  V30 10155 C 937.774 -3.60032 2.31433 0
M  V30 10156 C 937.1 -4.96297 1.9898 0
M  V30 10157 C 938.4 -3.64898 3.73694 0
M  V30 10158 H 940.094 -1.88375 2.32713 0
M  V30 10159 H 937.64 -0.90489 1.12017 0
M  V30 10160 H 939.593 -4.04127 1.19412 0
M  V30 10161 H 938.317 -3.25793 0.229433 0
M  V30 10162 H 936.976 -2.83831 2.32025 0
M  V30 10163 H 936.624 -4.93043 0.995889 0
M  V30 10164 H 936.324 -5.20298 2.73063 0
M  V30 10165 H 937.848 -5.77196 1.99193 0
M  V30 10166 H 939.262 -4.33531 3.75132 0
M  V30 10167 H 937.659 -4.00407 4.46983 0
M  V30 10168 H 938.729 -2.65124 4.06002 0
M  V30 10169 N 940.072 -1.23292 -0.981677 0
M  V30 10170 C 941.002 -1.03738 -2.09191 0
M  V30 10171 C 941.983 0.0453041 -1.7004 0
M  V30 10172 O 943.168 -0.119092 -1.93834 0
M  V30 10173 C 940.298 -0.626426 -3.41604 0
M  V30 10174 C 939.252 -1.65631 -3.94652 0
M  V30 10175 C 938.578 -1.10084 -5.23245 0
M  V30 10176 C 939.878 -3.04903 -4.24066 0
M  V30 10177 H 941.572 -1.966 -2.25807 0
M  V30 10178 H 939.118 -0.946656 -1.0851 0
M  V30 10179 H 941.071 -0.476689 -4.18695 0
M  V30 10180 H 939.795 0.337873 -3.24848 0
M  V30 10181 H 938.454 -1.79402 -3.19704 0
M  V30 10182 H 938.102 -0.127562 -5.02838 0
M  V30 10183 H 937.802 -1.78896 -5.59705 0
M  V30 10184 H 939.326 -0.962928 -6.02959 0
M  V30 10185 H 940.74 -2.94441 -4.91912 0
M  V30 10186 H 939.137 -3.70941 -4.71724 0
M  V30 10187 H 940.207 -3.53991 -3.31389 0
M  V30 10188 N 941.55 1.18024 -1.04442 0
M  V30 10189 C 942.48 2.23988 -0.659683 0
M  V30 10190 C 943.461 1.6669 0.338904 0
M  V30 10191 O 944.646 1.92971 0.21817 0
M  V30 10192 C 941.776 3.4729 -0.0257672 0
M  V30 10193 C 940.73 4.17362 -0.948299 0
M  V30 10194 C 940.056 5.34401 -0.17866 0
M  V30 10195 C 941.356 4.70435 -2.26909 0
M  V30 10196 H 943.05 2.56425 -1.54553 0
M  V30 10197 H 940.596 1.23256 -0.744575 0
M  V30 10198 H 942.549 4.20627 0.255131 0
M  V30 10199 H 941.273 3.14098 0.894981 0
M  V30 10200 H 939.932 3.45928 -1.21364 0
M  V30 10201 H 939.58 4.97458 0.744614 0
M  V30 10202 H 939.28 5.8222 -0.793294 0
M  V30 10203 H 940.804 6.10526 0.0951315 0
M  V30 10204 H 942.218 5.35447 -2.04864 0
M  V30 10205 H 940.615 5.28803 -2.83703 0
M  V30 10206 H 941.685 3.87653 -2.91296 0
M  V30 10207 N 943.028 0.824394 1.34319 0
M  V30 10208 C 944.253 0.425194 2.02995 0
M  V30 10209 C 944.678 -0.961476 1.6167 0
M  V30 10210 O 944.036 -1.62593 0.80207 0
M  V30 10211 C 944.084 0.537004 3.56579 0
M  V30 10212 O 943.188 -0.442576 4.10018 0
M  V30 10213 H 942.529 0.174853 0.640564 0
M  V30 10214 H 945.059 1.11522 1.71534 0
M  V30 10215 H 945.069 0.413311 4.05901 0
M  V30 10216 H 943.744 1.54836 3.86004 0
M  V30 10217 H 942.321 -0.277644 3.71865 0
M  V30 10218 N 944.506 -1.46559 0.579492 0
M  V30 10219 C 945.453 -2.30275 -0.155598 0
M  V30 10220 C 946.423 -1.40422 -0.887175 0
M  V30 10221 O 947.608 -1.69373 -0.878481 0
M  V30 10222 C 944.748 -3.24827 -1.16539 0
M  V30 10223 C 943.861 -4.29778 -0.43759 0
M  V30 10224 C 942.996 -5.11461 -1.43462 0
M  V30 10225 C 942.035 -6.08164 -0.693048 0
M  V30 10226 N 941.172 -6.82726 -1.63799 0
M  V30 10227 H 946.012 -2.92607 0.564356 0
M  V30 10228 H 943.549 -1.44211 0.290126 0
M  V30 10229 H 945.507 -3.78088 -1.76368 0
M  V30 10230 H 944.137 -2.64311 -1.8531 0
M  V30 10231 H 943.189 -3.794 0.27567 0
M  V30 10232 H 944.501 -4.98597 0.142298 0
M  V30 10233 H 943.655 -5.68982 -2.1058 0
M  V30 10234 H 942.394 -4.42595 -2.04844 0
M  V30 10235 H 941.399 -5.49799 -0.00807093 0
M  V30 10236 H 942.624 -6.79047 -0.0846678 0
M  V30 10237 H 940.57 -6.16572 -2.23997 0
M  V30 10238 H 940.487 -7.47795 -1.11082 0
M  V30 10239 H 941.755 -7.44807 -2.29962 0
M  V30 10240 N 945.984 -0.3171 -1.54377 0
M  V30 10241 C 947.231 0.28741 -2.0045 0
M  V30 10242 C 947.559 1.52648 -1.20535 0
M  V30 10243 O 946.814 1.93775 -0.273831 0
M  V30 10244 C 947.113 0.672917 -3.51008 0
M  V30 10245 C 946.779 -0.466245 -4.48483 0
M  V30 10246 C 945.441 -0.778933 -4.74854 0
M  V30 10247 C 947.793 -1.23176 -5.06436 0
M  V30 10248 C 945.121 -1.85997 -5.56437 0
M  V30 10249 C 947.473 -2.30284 -5.89196 0
M  V30 10250 C 946.137 -2.62141 -6.13872 0
M  V30 10251 H 945.407 0.105171 -0.733499 0
M  V30 10252 H 948.054 -0.439538 -1.86388 0
M  V30 10253 H 946.359 1.48019 -3.62764 0
M  V30 10254 H 948.056 1.15209 -3.84094 0
M  V30 10255 H 944.646 -0.212449 -4.28073 0
M  V30 10256 H 948.83 -1.00344 -4.8605 0
M  V30 10257 H 944.086 -2.11134 -5.73788 0
M  V30 10258 H 948.26 -2.90048 -6.33123 0
M  V30 10259 H 945.887 -3.46037 -6.76877 0
M  V30 10260 N 947.462 1.57535 -0.0451378 0
M  V30 10261 C 948.71 1.92071 0.628743 0
M  V30 10262 C 949.031 0.923635 1.71738 0
M  V30 10263 O 948.301 -0.0324376 1.95873 0
M  V30 10264 H 946.881 0.708995 0.235233 0
M  V30 10265 H 949.543 1.9466 -0.0967177 0
M  V30 10266 H 948.639 2.9314 1.07123 0
M  V30 10267 N 948.94 -0.228186 1.55939 0
M  V30 10268 C 950.18 -0.960695 1.80416 0
M  V30 10269 C 950.544 -1.81795 0.617615 0
M  V30 10270 O 951.745 -2.58369 0.741545 0
M  V30 10271 C 950.016 -1.78298 3.09749 0
M  V30 10272 S 951.575 -2.57203 3.55517 0
M  V30 10273 H 948.393 -0.322825 0.633486 0
M  V30 10274 H 950.995 -0.226852 1.94179 0
M  V30 10275 H 949.699 -1.14323 3.94155 0
M  V30 10276 H 949.23 -2.55924 2.98775 0
M  V30 10277 H 951.245 -3.80632 3.1833 0
M  V30 10278 N 950.418 -1.49637 -0.494624 0
M  V30 10279 C 951.658 -1.61067 -1.25844 0
M  V30 10280 C 952.022 -0.293666 -1.89741 0
M  V30 10281 O 953.223 -0.283202 -2.67304 0
M  V30 10282 C 951.494 -2.74218 -2.29215 0
M  V30 10283 S 953.053 -3.05639 -3.1485 0
M  V30 10284 H 949.871 -0.568056 -0.42759 0
M  V30 10285 H 952.473 -1.87323 -0.559491 0
M  V30 10286 H 951.177 -3.68422 -1.80813 0
M  V30 10287 H 950.708 -2.49975 -3.0377 0
M  V30 10288 H 952.723 -2.47651 -4.29981 0
M  V30 10289 N 951.896 0.746133 -1.38819 0
M  V30 10290 C 952.843 1.86001 -1.36647 0
M  V30 10291 C 953.813 1.6453 -0.227849 0
M  V30 10292 O 954.998 1.86092 -0.421241 0
M  V30 10293 C 952.138 3.23388 -1.20474 0
M  V30 10294 C 951.251 3.5664 -2.43786 0
M  V30 10295 C 950.386 4.8337 -2.20287 0
M  V30 10296 C 949.425 5.09431 -3.39332 0
M  V30 10297 N 948.562 6.2736 -3.1522 0
M  V30 10298 H 953.402 1.87192 -2.31869 0
M  V30 10299 H 950.939 0.914838 -1.15192 0
M  V30 10300 H 952.897 4.02679 -1.09112 0
M  V30 10301 H 951.527 3.21505 -0.288874 0
M  V30 10302 H 950.579 2.72135 -2.65794 0
M  V30 10303 H 951.891 3.71823 -3.3249 0
M  V30 10304 H 951.045 5.70619 -2.06103 0
M  V30 10305 H 949.784 4.70341 -1.28961 0
M  V30 10306 H 948.789 4.20648 -3.54027 0
M  V30 10307 H 950.014 5.24354 -4.31544 0
M  V30 10308 H 947.96 6.15639 -2.26549 0
M  V30 10309 H 947.877 6.43078 -3.97476 0
M  V30 10310 H 949.145 7.17477 -3.04707 0
M  V30 10311 N 953.375 1.23811 0.975125 0
M  V30 10312 C 954.791 1.0019 1.24234 0
M  V30 10313 C 954.991 -0.293811 1.99346 0
M  V30 10314 O 954.047 -1.01189 2.31337 0
M  V30 10315 C 955.36 2.21218 2.03674 0
M  V30 10316 C 956.908 2.25764 2.16793 0
M  V30 10317 C 957.383 3.46394 2.99626 0
M  V30 10318 N 958.874 3.46665 3.07209 0
M  V30 10319 C 959.609 4.3666 3.71639 0
M  V30 10320 N 959.105 5.36899 4.37849 0
M  V30 10321 N 960.898 4.2439 3.68578 0
M  V30 10322 H 953.049 2.07087 0.472076 0
M  V30 10323 H 955.312 0.90838 0.271201 0
M  V30 10324 H 955.018 3.15277 1.55862 0
M  V30 10325 H 954.892 2.22733 3.04417 0
M  V30 10326 H 957.279 1.32242 2.63811 0
M  V30 10327 H 957.36 2.28279 1.15422 0
M  V30 10328 H 957.004 4.40227 2.53304 0
M  V30 10329 H 956.934 3.41121 4.01178 0
M  V30 10330 H 959.425 2.74142 2.60105 0
M  V30 10331 H 959.738 6.01816 4.84807 0
M  V30 10332 H 958.083 5.40793 4.36541 0
M  V30 10333 H 961.274 3.4532 3.16025 0
M  V30 10334 H 961.447 4.94727 4.18508 0
M  V30 10335 N 954.853 -1.17469 1.05066 0
M  V30 10336 C 956.269 -1.39699 0.771769 0
M  V30 10337 C 956.469 -1.91253 -0.634382 0
M  V30 10338 O 955.525 -2.10334 -1.39699 0
M  V30 10339 C 956.838 -2.38886 1.82631 0
M  V30 10340 C 958.386 -2.52595 1.84838 0
M  V30 10341 C 958.861 -3.55054 2.89311 0
M  V30 10342 N 960.352 -3.6257 2.88266 0
M  V30 10343 C 961.087 -4.41603 3.65752 0
M  V30 10344 N 960.583 -5.24162 4.53019 0
M  V30 10345 N 962.376 -4.36464 3.54197 0
M  V30 10346 H 954.527 -0.823355 1.95792 0
M  V30 10347 H 956.79 -0.42432 0.847736 0
M  V30 10348 H 956.496 -2.08075 2.83545 0
M  V30 10349 H 956.37 -3.38371 1.66687 0
M  V30 10350 H 958.757 -2.82717 0.845888 0
M  V30 10351 H 958.838 -1.53188 2.04859 0
M  V30 10352 H 958.482 -3.2567 3.89745 0
M  V30 10353 H 958.412 -4.54162 2.66542 0
M  V30 10354 H 960.903 -3.03625 2.24989 0
M  V30 10355 H 961.216 -5.81646 5.0883 0
M  V30 10356 H 959.561 -5.23547 4.57081 0
M  V30 10357 H 962.752 -3.7102 2.85416 0
M  V30 10358 H 962.925 -4.97814 4.14832 0
M  V30 10359 N 956.331 -0.831506 -1.3388 0
M  V30 10360 C 957.294 -0.264773 -2.27666 0
M  V30 10361 C 958.294 0.562273 -1.50649 0
M  V30 10362 O 959.484 0.377131 -1.70069 0
M  V30 10363 C 956.616 0.627814 -3.35069 0
M  V30 10364 H 957.809 -1.09225 -2.79303 0
M  V30 10365 H 955.362 -0.604021 -1.44157 0
M  V30 10366 H 956.097 1.47802 -2.88661 0
M  V30 10367 H 955.882 0.0361552 -3.92083 0
M  V30 10368 H 957.372 1.01786 -4.05005 0
M  V30 10369 N 957.809 1.4625 -0.587256 0
M  V30 10370 C 958.719 2.34147 0.145744 0
M  V30 10371 C 959.735 1.50026 0.881376 0
M  V30 10372 O 960.911 1.82884 0.843539 0
M  V30 10373 C 957.976 3.27294 1.14366 0
M  V30 10374 C 957.037 4.27317 0.412199 0
M  V30 10375 C 956.27 5.16013 1.36257 0
M  V30 10376 O 956.493 5.0773 2.59934 0
M  V30 10377 O 955.427 5.95569 0.870681 0
M  V30 10378 H 959.253 2.98187 -0.576055 0
M  V30 10379 H 956.838 1.45299 -0.347628 0
M  V30 10380 H 958.72 3.84747 1.71894 0
M  V30 10381 H 957.395 2.65845 1.84684 0
M  V30 10382 H 956.302 3.73538 -0.205036 0
M  V30 10383 H 957.635 4.91564 -0.250104 0
M  V30 10384 N 959.287 0.325282 1.54207 0
M  V30 10385 C 960.217 -0.532574 2.27345 0
M  V30 10386 C 961.198 -1.11791 1.28206 0
M  V30 10387 O 962.383 -1.14272 1.57021 0
M  V30 10388 C 959.513 -1.69274 3.03255 0
M  V30 10389 C 958.467 -1.23662 4.09746 0
M  V30 10390 C 957.793 -2.48386 4.73506 0
M  V30 10391 C 959.093 -0.350244 5.21124 0
M  V30 10392 H 960.787 0.0775108 2.993 0
M  V30 10393 H 958.333 0.0387193 1.43948 0
M  V30 10394 H 960.286 -2.29917 3.53152 0
M  V30 10395 H 959.01 -2.32944 2.28921 0
M  V30 10396 H 957.669 -0.653106 3.60735 0
M  V30 10397 H 957.317 -3.10424 3.95786 0
M  V30 10398 H 957.017 -2.18558 5.45441 0
M  V30 10399 H 958.541 -3.09789 5.26178 0
M  V30 10400 H 959.955 -0.863011 5.66767 0
M  V30 10401 H 958.352 -0.14466 5.99926 0
M  V30 10402 H 959.422 0.618457 4.8094 0
M  V30 10403 N 960.765 -1.57509 0.0534917 0
M  V30 10404 C 961.995 -1.96812 -0.628386 0
M  V30 10405 C 962.403 -0.929808 -1.64776 0
M  V30 10406 O 961.746 0.0941155 -1.83459 0
M  V30 10407 C 961.808 -3.32361 -1.37027 0
M  V30 10408 C 961.472 -4.54185 -0.506465 0
M  V30 10409 C 962.469 -5.19398 0.228412 0
M  V30 10410 C 960.154 -5.00398 -0.43671 0
M  V30 10411 C 962.148 -6.29162 1.02146 0
M  V30 10412 C 959.835 -6.10039 0.360022 0
M  V30 10413 C 960.833 -6.74282 1.08779 0
M  V30 10414 O 960.521 -7.81814 1.87142 0
M  V30 10415 H 960.253 -0.65257 -0.176432 0
M  V30 10416 H 962.807 -2.05067 0.116908 0
M  V30 10417 H 961.037 -3.20667 -2.16125 0
M  V30 10418 H 962.726 -3.56395 -1.94261 0
M  V30 10419 H 963.492 -4.84651 0.184003 0
M  V30 10420 H 959.371 -4.50183 -0.992772 0
M  V30 10421 H 962.915 -6.79238 1.59002 0
M  V30 10422 H 958.812 -6.44222 0.406061 0
M  V30 10423 H 959.58 -7.98602 1.79378 0
M  V30 10424 N 962.243 0.219913 -1.56058 0
M  V30 10425 C 963.659 0.569685 -1.49086 0
M  V30 10426 C 963.859 1.87066 -0.748903 0
M  V30 10427 O 962.915 2.50838 -0.289235 0
M  V30 10428 C 964.228 0.647397 -2.93648 0
M  V30 10429 C 965.776 0.737914 -3.04177 0
M  V30 10430 C 966.251 0.846957 -4.50101 0
M  V30 10431 N 967.742 0.911136 -4.5415 0
M  V30 10432 C 968.477 1.01525 -5.64341 0
M  V30 10433 N 967.973 1.0832 -6.8428 0
M  V30 10434 N 969.766 1.05051 -5.52196 0
M  V30 10435 H 961.917 -0.633778 -2.02724 0
M  V30 10436 H 964.18 -0.222583 -0.921499 0
M  V30 10437 H 963.886 -0.238987 -3.50887 0
M  V30 10438 H 963.76 1.51046 -3.45637 0
M  V30 10439 H 966.147 1.61474 -2.47002 0
M  V30 10440 H 966.228 -0.150845 -2.55355 0
M  V30 10441 H 965.872 -0.0254166 -5.07894 0
M  V30 10442 H 965.802 1.75116 -4.96631 0
M  V30 10443 H 968.293 0.868869 -3.67776 0
M  V30 10444 H 968.606 1.16247 -7.64007 0
M  V30 10445 H 966.951 1.05231 -6.86987 0
M  V30 10446 H 970.142 0.994086 -4.57423 0
M  V30 10447 H 970.315 1.12819 -6.38103 0
M  V30 10448 N 963.721 1.49897 0.486681 0
M  V30 10449 C 965.137 1.36977 0.819109 0
M  V30 10450 C 965.337 0.41385 1.97204 0
M  V30 10451 O 964.393 -0.149249 2.52059 0
M  V30 10452 C 965.706 2.78013 1.14584 0
M  V30 10453 C 967.254 2.86816 1.25321 0
M  V30 10454 C 967.729 4.28651 1.61316 0
M  V30 10455 N 969.22 4.31528 1.68337 0
M  V30 10456 C 969.955 5.38254 1.97662 0
M  V30 10457 N 969.451 6.55207 2.25113 0
M  V30 10458 N 971.244 5.25683 1.99033 0
M  V30 10459 H 963.395 2.10634 -0.273364 0
M  V30 10460 H 965.658 0.946116 -0.0597418 0
M  V30 10461 H 965.364 3.49728 0.371892 0
M  V30 10462 H 965.238 3.1428 2.08585 0
M  V30 10463 H 967.625 2.15329 2.01785 0
M  V30 10464 H 967.706 2.54112 0.293368 0
M  V30 10465 H 967.35 5.00669 0.853968 0
M  V30 10466 H 967.28 4.5883 2.58424 0
M  V30 10467 H 969.771 3.47189 1.49226 0
M  V30 10468 H 970.084 7.32359 2.46717 0
M  V30 10469 H 968.429 6.58408 2.22538 0
M  V30 10470 H 971.62 4.33316 1.77074 0
M  V30 10471 H 971.793 6.08949 2.21552 0
M  V30 10472 N 965.199 -0.738761 1.39212 0
M  V30 10473 C 966.146 -1.85273 1.37631 0
M  V30 10474 C 967.116 -1.64407 0.236572 0
M  V30 10475 O 968.301 -1.85866 0.431104 0
M  V30 10476 C 965.441 -3.22745 1.22188 0
M  V30 10477 C 964.554 -3.55342 2.45674 0
M  V30 10478 C 963.689 -4.82195 2.22847 0
M  V30 10479 C 962.728 -5.07625 3.42029 0
M  V30 10480 N 961.865 -6.25679 3.18543 0
M  V30 10481 H 966.705 -1.85959 2.32859 0
M  V30 10482 H 964.242 -0.908716 1.15675 0
M  V30 10483 H 966.2 -4.02095 1.11245 0
M  V30 10484 H 964.83 -3.21347 0.30592 0
M  V30 10485 H 963.882 -2.70722 2.67233 0
M  V30 10486 H 965.194 -3.70054 3.34457 0
M  V30 10487 H 964.348 -5.69518 2.09126 0
M  V30 10488 H 963.087 -4.6965 1.31454 0
M  V30 10489 H 962.092 -4.18765 3.56253 0
M  V30 10490 H 963.317 -5.22058 4.34319 0
M  V30 10491 H 961.263 -6.14429 2.2981 0
M  V30 10492 H 961.18 -6.40961 4.0088 0
M  V30 10493 H 962.448 -7.15851 3.08508 0
M  V30 10494 N 966.677 -1.24326 -0.968545 0
M  V30 10495 C 967.954 -0.990459 -1.68669 0
M  V30 10496 C 968.334 0.487487 -2.05394 0
M  V30 10497 O 967.682 1.46158 -1.75642 0
M  V30 10498 C 967.892 -1.91251 -2.91931 0
M  V30 10499 C 969.24 -2.18291 -3.6419 0
M  V30 10500 O 970.264 -1.88897 -3.01987 0
M  V30 10501 O 969.123 -2.68204 -4.76161 0
M  V30 10502 H 966.217 -0.374515 -0.737338 0
M  V30 10503 H 968.763 -1.35421 -1.02271 0
M  V30 10504 H 967.535 -2.9111 -2.61478 0
M  V30 10505 H 967.158 -1.55188 -3.66064 0
M  V30 10506 N 968.156 1.1691 -1.05688 0
M  V30 10507 C 969.403 1.87292 -0.76993 0
M  V30 10508 C 969.731 1.81339 0.703295 0
M  V30 10509 O 968.986 1.21959 1.5305 0
M  V30 10510 C 969.285 3.36578 -1.20207 0
M  V30 10511 C 968.951 3.62732 -2.67836 0
M  V30 10512 C 967.613 3.69579 -3.08163 0
M  V30 10513 C 969.965 3.73803 -3.63209 0
M  V30 10514 C 967.293 3.84992 -4.42717 0
M  V30 10515 C 969.645 3.90735 -4.97503 0
M  V30 10516 C 968.309 3.95823 -5.37476 0
M  V30 10517 H 967.579 0.68535 -0.281737 0
M  V30 10518 H 970.226 1.38274 -1.32486 0
M  V30 10519 H 968.531 3.87687 -0.566222 0
M  V30 10520 H 970.228 3.89409 -0.957183 0
M  V30 10521 H 966.818 3.58031 -2.35609 0
M  V30 10522 H 971.002 3.67829 -3.3319 0
M  V30 10523 H 966.258 3.87181 -4.73182 0
M  V30 10524 H 970.432 3.98243 -5.71293 0
M  V30 10525 H 968.059 4.07518 -6.41742 0
M  V30 10526 N 969.634 0.838594 1.33437 0
M  V30 10527 C 970.859 0.446701 2.02532 0
M  V30 10528 C 971.284 -0.944275 1.62681 0
M  V30 10529 O 970.642 -1.61733 0.81927 0
M  V30 10530 C 970.69 0.574794 3.55989 0
M  V30 10531 O 969.794 -0.399063 4.10465 0
M  V30 10532 H 969.135 0.181637 0.638674 0
M  V30 10533 H 971.665 1.13335 1.70342 0
M  V30 10534 H 971.675 0.456339 4.0544 0
M  V30 10535 H 970.35 1.58921 3.8434 0
M  V30 10536 H 968.927 -0.238187 3.72139 0
M  V30 10537 N 971.112 -1.45937 0.595003 0
M  V30 10538 C 972.075 -2.2888 -0.121102 0
M  V30 10539 C 973.075 -1.39075 -0.807149 0
M  V30 10540 O 974.265 -1.61326 -0.657228 0
M  V30 10541 C 971.397 -3.19778 -1.1813 0
M  V30 10542 H 972.59 -2.93673 0.607968 0
M  V30 10543 H 970.143 -1.5225 0.353495 0
M  V30 10544 H 970.878 -2.59759 -1.94154 0
M  V30 10545 H 970.663 -3.85914 -0.693724 0
M  V30 10546 H 972.153 -3.82176 -1.68319 0
M  V30 10547 N 972.59 -0.333456 -1.54032 0
M  V30 10548 C 973.82 0.267425 -2.04862 0
M  V30 10549 C 974.228 1.45559 -1.20869 0
M  V30 10550 O 973.571 1.82197 -0.234478 0
M  V30 10551 C 973.633 0.755759 -3.51466 0
M  V30 10552 C 973.297 -0.311409 -4.55938 0
M  V30 10553 C 974.294 -1.15078 -5.07004 0
M  V30 10554 C 971.979 -0.462439 -5.00167 0
M  V30 10555 C 973.973 -2.12682 -6.0087 0
M  V30 10556 C 971.66 -1.44188 -5.93846 0
M  V30 10557 C 972.658 -2.27253 -6.44085 0
M  V30 10558 O 972.346 -3.23532 -7.35923 0
M  V30 10559 H 972.078 0.0572596 -0.673571 0
M  V30 10560 H 974.632 -0.480646 -1.99697 0
M  V30 10561 H 972.862 1.55491 -3.54062 0
M  V30 10562 H 974.551 1.27607 -3.8532 0
M  V30 10563 H 975.317 -1.04513 -4.73605 0
M  V30 10564 H 971.196 0.17424 -4.60671 0
M  V30 10565 H 974.74 -2.77555 -6.40007 0
M  V30 10566 H 970.637 -1.54813 -6.2666 0
M  V30 10567 H 971.405 -3.18886 -7.53826 0
M  V30 10568 N 974.068 1.57479 -0.061844 0
M  V30 10569 C 975.296 1.97429 0.618837 0
M  V30 10570 C 975.711 0.939826 1.63746 0
M  V30 10571 O 975.068 -0.0747173 1.82347 0
M  V30 10572 C 975.119 3.3746 1.29628 0
M  V30 10573 O 974.84 4.36941 0.318431 0
M  V30 10574 C 976.341 3.92228 2.06572 0
M  V30 10575 H 973.561 0.649513 0.168444 0
M  V30 10576 H 976.105 2.04078 -0.131303 0
M  V30 10577 H 974.26 3.31928 1.99757 0
M  V30 10578 H 974.674 5.18313 0.803239 0
M  V30 10579 H 976.148 4.92458 2.49377 0
M  V30 10580 H 976.625 3.28231 2.91824 0
M  V30 10581 H 977.231 4.01131 1.4133 0
M  V30 10582 N 975.546 -0.211634 1.56173 0
M  V30 10583 C 976.771 -0.955324 1.84088 0
M  V30 10584 C 977.196 -1.76754 0.643407 0
M  V30 10585 O 976.554 -1.76653 -0.407842 0
M  V30 10586 C 976.602 -1.84063 3.10085 0
M  V30 10587 O 975.706 -2.9373 2.89476 0
M  V30 10588 H 975.047 -0.26996 0.606645 0
M  V30 10589 H 977.577 -0.221947 2.03393 0
M  V30 10590 H 977.587 -2.24852 3.40449 0
M  V30 10591 H 976.262 -1.24373 3.96868 0
M  V30 10592 H 974.839 -2.56816 2.7037 0
M  V30 10593 N 977.024 -1.50153 -0.478725 0
M  V30 10594 C 977.972 -1.68975 -1.59844 0
M  V30 10595 C 978.966 -0.555591 -1.6003 0
M  V30 10596 O 980.172 -0.735875 -1.64271 0
M  V30 10597 H 976.547 -0.533211 -0.530274 0
M  V30 10598 H 978.518 -2.62917 -1.41128 0
M  V30 10599 C 977.267 -1.79409 -2.97838 0
M  V30 10600 H 976.59 -2.66066 -2.98411 0
M  V30 10601 H 978.03 -1.96606 -3.75662 0
M  V30 10602 C 976.489 -0.543927 -3.3248 0
M  V30 10603 O 977.019 0.320376 -4.0042 0
M  V30 10604 N 975.225 -0.400217 -2.87831 0
M  V30 10605 H 974.772 -1.10458 -2.32716 0
M  V30 10606 H 974.73 0.435111 -3.11375 0
M  V30 10607 N 978.502 0.731368 -1.39602 0
M  V30 10608 C 979.742 1.5036 -1.3846 0
M  V30 10609 C 980.106 1.91991 0.018784 0
M  V30 10610 O 981.307 2.68351 0.155236 0
M  V30 10611 C 979.578 2.70755 -2.33295 0
M  V30 10612 S 981.137 3.6036 -2.50372 0
M  V30 10613 H 977.955 0.514271 -0.490964 0
M  V30 10614 H 980.557 0.856654 -1.75732 0
M  V30 10615 H 979.261 2.38316 -3.34116 0
M  V30 10616 H 978.792 3.40376 -1.97251 0
M  V30 10617 H 980.807 4.64529 -1.74435 0
M  V30 10618 N 979.98 1.24838 0.961938 0
M  V30 10619 C 980.927 1.04582 2.05745 0
M  V30 10620 C 981.897 -0.0427281 1.66045 0
M  V30 10621 O 983.082 0.113026 1.90465 0
M  V30 10622 C 980.222 0.66284 3.38675 0
M  V30 10623 C 979.335 1.82548 3.91536 0
M  V30 10624 C 978.47 1.38753 5.12758 0
M  V30 10625 C 977.509 2.51976 5.5783 0
M  V30 10626 N 976.646 2.09009 6.70268 0
M  V30 10627 H 981.486 1.98343 2.22405 0
M  V30 10628 H 979.023 0.987822 1.08998 0
M  V30 10629 H 980.981 0.421788 4.15062 0
M  V30 10630 H 979.611 -0.237776 3.21923 0
M  V30 10631 H 978.663 2.18004 3.11735 0
M  V30 10632 H 979.975 2.67601 4.20941 0
M  V30 10633 H 979.129 1.1057 5.96539 0
M  V30 10634 H 977.868 0.507618 4.85051 0
M  V30 10635 H 976.873 2.80912 4.72619 0
M  V30 10636 H 978.098 3.40534 5.87549 0
M  V30 10637 H 976.044 1.23423 6.44285 0
M  V30 10638 H 975.961 2.87613 6.99153 0
M  V30 10639 H 977.229 1.83981 7.57477 0
M  V30 10640 N 981.458 -1.16348 1.06306 0
M  V30 10641 C 982.406 -2.22799 0.668087 0
M  V30 10642 C 983.4 -1.66426 -0.316051 0
M  V30 10643 O 984.606 -1.79089 -0.180902 0
M  V30 10644 H 980.981 -0.725487 0.19792 0
M  V30 10645 H 982.952 -2.53401 1.57577 0
M  V30 10646 C 981.701 -3.47628 0.0706797 0
M  V30 10647 H 981.024 -3.9132 0.819064 0
M  V30 10648 H 982.464 -4.23666 -0.16816 0
M  V30 10649 C 980.923 -3.15343 -1.18577 0
M  V30 10650 O 981.453 -3.31158 -2.27371 0
M  V30 10651 N 979.659 -2.69472 -1.08779 0
M  V30 10652 H 979.206 -2.56803 -0.202447 0
M  V30 10653 H 979.164 -2.48244 -1.92931 0
M  V30 10654 N 982.937 -0.845659 -1.3299 0
M  V30 10655 C 984.185 -0.443774 -1.97168 0
M  V30 10656 C 984.506 1.00192 -1.67292 0
M  V30 10657 O 983.776 1.69891 -0.975397 0
M  V30 10658 H 982.356 -0.161111 -0.729419 0
M  V30 10659 H 985.018 -1.08011 -1.62233 0
M  V30 10660 H 984.114 -0.581414 -3.06637 0
M  V30 10661 N 984.415 1.45619 -0.602734 0
M  V30 10662 C 985.662 2.02272 -0.0960337 0
M  V30 10663 C 985.99 1.47177 1.27159 0
M  V30 10664 O 985.245 0.634593 1.85125 0
M  V30 10665 C 985.544 3.574 -0.00157909 0
M  V30 10666 C 985.21 4.31626 -1.30422 0
M  V30 10667 C 983.872 4.51622 -1.66106 0
M  V30 10668 C 986.224 4.74091 -2.16535 0
M  V30 10669 C 983.552 5.11338 -2.87663 0
M  V30 10670 C 985.904 5.35151 -3.37336 0
M  V30 10671 C 984.568 5.53371 -3.73278 0
M  V30 10672 H 983.838 0.740166 -0.0351412 0
M  V30 10673 H 986.485 1.74744 -0.783382 0
M  V30 10674 H 984.79 3.84179 0.769008 0
M  V30 10675 H 986.487 3.98934 0.406549 0
M  V30 10676 H 983.077 4.16372 -1.01647 0
M  V30 10677 H 987.261 4.5838 -1.90266 0
M  V30 10678 H 982.517 5.23634 -3.15622 0
M  V30 10679 H 986.691 5.67011 -4.04316 0
M  V30 10680 H 984.318 5.99412 -4.67556 0
M  V30 10681 N 985.893 0.34162 1.53853 0
M  V30 10682 C 987.121 -0.256929 2.05299 0
M  V30 10683 C 987.536 -1.44366 1.21671 0
M  V30 10684 O 986.893 -1.80758 0.251584 0
M  V30 10685 C 986.944 -0.673854 3.55164 0
M  V30 10686 O 986.665 0.465687 4.35618 0
M  V30 10687 C 988.166 -1.33332 4.22773 0
M  V30 10688 H 985.386 -0.0499445 0.669139 0
M  V30 10689 H 987.93 0.493048 1.98467 0
M  V30 10690 H 986.085 -1.37378 3.62224 0
M  V30 10691 H 986.499 0.133723 5.2433 0
M  V30 10692 H 987.973 -1.57582 5.29029 0
M  V30 10693 H 988.45 -2.28628 3.75001 0
M  V30 10694 H 989.056 -0.675489 4.19901 0
M  V30 10695 N 987.371 -1.57444 0.0701946 0
M  V30 10696 C 988.619 -1.93047 -0.598106 0
M  V30 10697 C 988.94 -0.950841 -1.70247 0
M  V30 10698 O 988.21 0.00127177 -1.959 0
M  V30 10699 H 986.79 -0.712648 -0.223924 0
M  V30 10700 H 989.452 -1.94481 0.127674 0
M  V30 10701 H 988.548 -2.94807 -1.02445 0
M  V30 10702 N 988.849 0.203349 -1.56283 0
M  V30 10703 C 990.074 0.945548 -1.84592 0
M  V30 10704 C 990.499 1.7641 -0.652772 0
M  V30 10705 O 989.857 1.76867 0.398468 0
M  V30 10706 C 989.905 1.82416 -3.11057 0
M  V30 10707 O 989.009 2.92191 -2.9103 0
M  V30 10708 H 988.35 0.266739 -0.608068 0
M  V30 10709 H 990.88 0.211158 -2.03507 0
M  V30 10710 H 990.89 2.23044 -3.41636 0
M  V30 10711 H 989.565 1.22267 -3.97522 0
M  V30 10712 H 988.142 2.55378 -2.71728 0
M  V30 10713 N 990.327 1.50405 0.470755 0
M  V30 10714 C 991.275 1.6982 1.58946 0
M  V30 10715 C 992.269 0.56407 1.59733 0
M  V30 10716 O 993.475 0.744576 1.63878 0
M  V30 10717 H 989.85 0.536016 0.527438 0
M  V30 10718 H 991.821 2.63662 1.39732 0
M  V30 10719 C 990.57 1.80986 2.96883 0
M  V30 10720 H 989.893 2.67645 2.96996 0
M  V30 10721 H 991.333 1.98596 3.74614 0
M  V30 10722 C 989.792 0.561551 3.32187 0
M  V30 10723 O 990.322 -0.299136 4.00585 0
M  V30 10724 N 988.528 0.415476 2.87615 0
M  V30 10725 H 988.075 1.11691 2.32127 0
M  V30 10726 H 988.033 -0.418592 3.11601 0
M  V30 10727 N 991.805 -0.723954 1.39988 0
M  V30 10728 C 992.752 -1.83803 1.39589 0
M  V30 10729 C 993.722 -1.64146 0.253996 0
M  V30 10730 O 994.907 -1.85398 0.450793 0
M  V30 10731 C 992.047 -3.21431 1.25604 0
M  V30 10732 C 991.16 -3.52717 2.49429 0
M  V30 10733 C 990.295 -4.79805 2.27949 0
M  V30 10734 C 989.334 -5.03968 3.47394 0
M  V30 10735 N 988.471 -6.22266 3.25161 0
M  V30 10736 H 993.311 -1.83479 2.34818 0
M  V30 10737 H 990.848 -0.896396 1.16633 0
M  V30 10738 H 992.806 -4.00892 1.15504 0
M  V30 10739 H 991.436 -3.21005 0.339986 0
M  V30 10740 H 990.488 -2.67872 2.7009 0
M  V30 10741 H 991.8 -3.66486 3.38363 0
M  V30 10742 H 990.954 -5.67268 2.15155 0
M  V30 10743 H 989.693 -4.68229 1.36428 0
M  V30 10744 H 988.698 -4.14963 3.60674 0
M  V30 10745 H 989.923 -5.17422 4.39831 0
M  V30 10746 H 987.869 -6.11957 2.36314 0
M  V30 10747 H 987.786 -6.36673 4.07656 0
M  V30 10748 H 989.054 -7.12539 3.16083 0
M  V30 10749 N 993.283 -1.25346 -0.955304 0
M  V30 10750 C 994.694 -1.09173 -1.51453 0
M  V30 10751 C 995.045 0.332755 -1.93358 0
M  V30 10752 O 994.17 1.22264 -1.78551 0
M  V30 10753 C 994.765 -1.97564 -2.75234 0
M  V30 10754 C 993.324 -1.85579 -3.27471 0
M  V30 10755 C 992.471 -1.91755 -2.00313 0
M  V30 10756 H 995.422 -1.38642 -0.772271 0
M  V30 10757 H 995.443 -1.51523 -3.49029 0
M  V30 10758 H 994.955 -3.01233 -2.44704 0
M  V30 10759 H 993.056 -0.847906 -3.62824 0
M  V30 10760 H 993.169 -2.70353 -3.95533 0
M  V30 10761 H 991.533 -1.35633 -2.15582 0
M  V30 10762 H 992.316 -2.97028 -1.72132 0
M  V30 10763 N 994.761 1.15782 -1.06922 0
M  V30 10764 C 995.986 1.90896 -0.810771 0
M  V30 10765 C 996.411 1.77246 0.629714 0
M  V30 10766 O 995.769 1.10215 1.43953 0
M  V30 10767 C 995.817 3.39397 -1.21829 0
M  V30 10768 O 994.921 4.10818 -0.360934 0
M  V30 10769 H 994.262 0.594497 -0.295752 0
M  V30 10770 H 996.792 1.46652 -1.42669 0
M  V30 10771 H 996.802 3.90181 -1.19259 0
M  V30 10772 H 995.477 3.4865 -2.2675 0
M  V30 10773 H 994.054 3.7019 -0.448748 0
M  V30 10774 N 996.239 0.8527 1.3254 0
M  V30 10775 C 997.171 0.253181 2.27797 0
M  V30 10776 C 998.184 -0.573977 1.52346 0
M  V30 10777 O 999.373 -0.398786 1.73988 0
M  V30 10778 C 996.473 -0.661034 3.32391 0
M  V30 10779 C 995.646 0.12984 4.37207 0
M  V30 10780 C 994.705 -0.709837 5.2139 0
M  V30 10781 O 993.731 -0.144056 5.69018 0
M  V30 10782 N 994.933 -2.0249 5.44039 0
M  V30 10783 H 997.698 1.07171 2.79883 0
M  V30 10784 H 995.259 0.712491 1.45379 0
M  V30 10785 H 997.251 -1.22806 3.85617 0
M  V30 10786 H 995.821 -1.38025 2.80478 0
M  V30 10787 H 995.041 0.878289 3.84291 0
M  V30 10788 H 996.329 0.673141 5.04328 0
M  V30 10789 H 995.727 -2.50792 5.0707 0
M  V30 10790 H 994.284 -2.5401 6.00269 0
M  V30 10791 N 997.718 -1.45297 0.610449 0
M  V30 10792 C 998.943 -2.07101 0.111414 0
M  V30 10793 C 999.368 -1.45161 -1.19625 0
M  V30 10794 O 998.726 -0.545368 -1.72903 0
M  V30 10795 C 998.774 -3.60598 -0.0117372 0
M  V30 10796 O 997.878 -3.98512 -1.06122 0
M  V30 10797 H 997.219 -0.659709 0.075364 0
M  V30 10798 H 999.749 -1.86504 0.841269 0
M  V30 10799 H 999.759 -4.07464 -0.209028 0
M  V30 10800 H 998.434 -4.05067 0.943076 0
M  V30 10801 H 997.011 -3.63312 -0.840158 0
M  V30 10802 N 999.196 -0.349774 -1.5367 0
M  V30 10803 C 1000.42 0.246038 -2.05432 0
M  V30 10804 C 1000.84 1.43719 -1.22435 0
M  V30 10805 O 1000.2 1.80622 -0.261166 0
M  V30 10806 C 1000.25 0.65501 -3.55516 0
M  V30 10807 O 999.968 -0.488782 -4.35365 0
M  V30 10808 C 1001.47 1.31088 -4.23475 0
M  V30 10809 H 998.689 0.0463952 -0.669394 0
M  V30 10810 H 1001.23 -0.503566 -1.98203 0
M  V30 10811 H 999.388 1.35455 -3.62947 0
M  V30 10812 H 999.802 -0.161528 -5.24251 0
M  V30 10813 H 1001.28 1.54774 -5.29857 0
M  V30 10814 H 1001.75 2.26636 -3.76208 0
M  V30 10815 H 1002.36 0.653211 -4.20254 0
M  V30 10816 N 1000.67 1.57404 -0.0785433 0
M  V30 10817 C 1001.6 2.16131 0.883726 0
M  V30 10818 C 1002.58 1.09015 1.30575 0
M  V30 10819 O 1003.77 1.3708 1.37559 0
M  V30 10820 C 1000.9 2.72836 2.1489 0
M  V30 10821 C 999.854 3.85178 1.86605 0
M  V30 10822 C 999.18 4.28516 3.1981 0
M  V30 10823 C 1000.48 5.09118 1.16601 0
M  V30 10824 H 1002.17 2.9679 0.394484 0
M  V30 10825 H 999.72 1.42763 0.188304 0
M  V30 10826 H 1001.67 3.12567 2.8263 0
M  V30 10827 H 1000.4 1.89408 2.66068 0
M  V30 10828 H 999.056 3.45962 1.21268 0
M  V30 10829 H 998.704 3.42 3.68843 0
M  V30 10830 H 998.404 5.04249 3.01674 0
M  V30 10831 H 999.928 4.70868 3.88737 0
M  V30 10832 H 1001.34 5.46123 1.74422 0
M  V30 10833 H 999.739 5.90173 1.087 0
M  V30 10834 H 1000.81 4.8468 0.146138 0
M  V30 10835 N 1002.15 -0.195058 1.56388 0
M  V30 10836 C 1003.1 -1.24175 1.94549 0
M  V30 10837 C 1004.07 -1.45229 0.806089 0
M  V30 10838 O 1005.25 -1.58362 1.06425 0
M  V30 10839 C 1002.39 -2.58145 2.29031 0
M  V30 10840 C 1001.51 -2.44669 3.56035 0
M  V30 10841 C 1000.64 -3.71342 3.7984 0
M  V30 10842 C 999.681 -3.52699 5.0027 0
M  V30 10843 N 998.818 -4.71385 5.20328 0
M  V30 10844 H 1003.66 -0.909319 2.83788 0
M  V30 10845 H 1001.19 -0.437641 1.40439 0
M  V30 10846 H 1003.15 -3.36195 2.4704 0
M  V30 10847 H 1001.78 -2.8943 1.42933 0
M  V30 10848 H 1000.83 -1.57916 3.46073 0
M  V30 10849 H 1002.15 -2.26827 4.44242 0
M  V30 10850 H 1001.3 -4.57832 3.98088 0
M  V30 10851 H 1000.04 -3.92138 2.89964 0
M  V30 10852 H 999.045 -2.64594 4.81944 0
M  V30 10853 H 1000.27 -3.33349 5.91655 0
M  V30 10854 H 998.216 -4.92444 4.33399 0
M  V30 10855 H 998.133 -4.56368 6.02714 0
M  V30 10856 H 999.401 -5.59226 5.43035 0
M  V30 10857 N 1003.63 -1.50653 -0.462772 0
M  V30 10858 C 1004.56 -1.73056 -1.5676 0
M  V30 10859 C 1005.54 -0.579699 -1.59917 0
M  V30 10860 O 1006.73 -0.819729 -1.76051 0
M  V30 10861 C 1003.86 -1.83234 -2.9503 0
M  V30 10862 C 1002.81 -2.98488 -3.06739 0
M  V30 10863 C 1002.14 -2.93818 -4.46738 0
M  V30 10864 C 1003.44 -4.38869 -2.83181 0
M  V30 10865 H 1005.13 -2.65562 -1.38265 0
M  V30 10866 H 1002.68 -1.27792 -0.663722 0
M  V30 10867 H 1004.63 -1.97491 -3.72257 0
M  V30 10868 H 1003.35 -0.873558 -3.14701 0
M  V30 10869 H 1002.01 -2.83895 -2.31946 0
M  V30 10870 H 1001.66 -1.95769 -4.63339 0
M  V30 10871 H 1001.36 -3.71197 -4.55507 0
M  V30 10872 H 1002.88 -3.10135 -5.25974 0
M  V30 10873 H 1004.3 -4.53945 -3.50153 0
M  V30 10874 H 1002.69 -5.17762 -3.03386 0
M  V30 10875 H 1003.76 -4.50663 -1.78972 0
M  V30 10876 N 1005.11 0.71652 -1.4037 0
M  V30 10877 C 1006.33 1.51069 -1.42102 0
M  V30 10878 C 1006.76 1.88087 -0.0222387 0
M  V30 10879 O 1006.12 1.53204 0.969448 0
M  V30 10880 C 1006.16 2.76307 -2.31704 0
M  V30 10881 O 1005.27 3.72975 -1.75964 0
M  V30 10882 H 1004.61 0.455502 -0.483129 0
M  V30 10883 H 1007.14 0.882514 -1.84588 0
M  V30 10884 H 1007.15 3.24846 -2.46859 0
M  V30 10885 H 1005.82 2.48698 -3.3335 0
M  V30 10886 H 1004.4 3.31818 -1.70151 0
M  V30 10887 N 1006.59 1.25851 0.948643 0
M  V30 10888 C 1007.81 1.13711 1.72851 0
M  V30 10889 C 1008.23 -0.308471 1.86263 0
M  V30 10890 O 1007.59 -1.21175 1.36465 0
M  V30 10891 C 1007.64 1.79271 3.13918 0
M  V30 10892 O 1007.36 3.18179 3.01154 0
M  V30 10893 C 1008.86 1.72988 4.08154 0
M  V30 10894 H 1006.08 0.396334 0.541443 0
M  V30 10895 H 1008.62 1.66329 1.18974 0
M  V30 10896 H 1006.78 1.30609 3.64719 0
M  V30 10897 H 1007.19 3.50507 3.90186 0
M  V30 10898 H 1008.67 2.2351 5.04725 0
M  V30 10899 H 1009.14 0.694866 4.33668 0
M  V30 10900 H 1009.75 2.21166 3.63271 0
M  V30 10901 N 1008.06 -1.15214 1.07534 0
M  V30 10902 C 1008.99 -2.2216 0.718837 0
M  V30 10903 C 1009.98 -1.6753 -0.29459 0
M  V30 10904 O 1011.16 -1.93481 -0.166931 0
M  V30 10905 C 1008.29 -3.471 0.117836 0
M  V30 10906 C 1007.24 -4.14701 1.05862 0
M  V30 10907 C 1006.57 -5.3374 0.320284 0
M  V30 10908 C 1007.87 -4.64254 2.39302 0
M  V30 10909 H 1009.56 -2.52237 1.61297 0
M  V30 10910 H 1007.11 -1.21239 0.776992 0
M  V30 10911 H 1009.06 -4.21156 -0.143519 0
M  V30 10912 H 1007.79 -3.16361 -0.811389 0
M  V30 10913 H 1006.45 -3.42589 1.30493 0
M  V30 10914 H 1006.09 -4.99257 -0.61246 0
M  V30 10915 H 1005.79 -5.79912 0.947381 0
M  V30 10916 H 1007.32 -6.10563 0.0667721 0
M  V30 10917 H 1008.73 -5.29827 2.18988 0
M  V30 10918 H 1007.13 -5.21095 2.97623 0
M  V30 10919 H 1008.2 -3.79793 3.01472 0
M  V30 10920 N 1009.54 -0.859717 -1.32086 0
M  V30 10921 C 1010.49 -0.279715 -2.26278 0
M  V30 10922 C 1011.48 0.577348 -1.50185 0
M  V30 10923 O 1012.67 0.425903 -1.71799 0
M  V30 10924 C 1009.8 0.526622 -3.39237 0
M  V30 10925 C 1008.88 -0.343112 -4.2271 0
M  V30 10926 N 1009.27 -1.43176 -4.85113 0
M  V30 10927 C 1007.57 -0.133744 -4.45799 0
M  V30 10928 C 1008.27 -1.96725 -5.47425 0
M  V30 10929 N 1007.25 -1.26569 -5.2866 0
M  V30 10930 H 1011.05 -1.11191 -2.72055 0
M  V30 10931 H 1008.57 -0.706372 -1.46233 0
M  V30 10932 H 1010.56 0.958587 -4.0573 0
M  V30 10933 H 1009.22 1.35655 -2.95005 0
M  V30 10934 H 1010.23 -1.81469 -4.85066 0
M  V30 10935 H 1006.91 0.661064 -4.12233 0
M  V30 10936 H 1008.3 -2.88006 -6.07044 0
M  V30 10937 N 1011.02 1.44971 -0.618145 0
M  V30 10938 C 1012.26 2.04044 -0.120625 0
M  V30 10939 C 1012.62 1.47472 1.22947 0
M  V30 10940 O 1013.83 1.97965 1.81834 0
M  V30 10941 C 1012.1 3.57279 -0.0930863 0
M  V30 10942 S 1013.66 4.37468 0.341705 0
M  V30 10943 H 1010.47 0.708891 -0.0547272 0
M  V30 10944 H 1013.08 1.77535 -0.818621 0
M  V30 10945 H 1011.78 3.95961 -1.07903 0
M  V30 10946 H 1011.31 3.88378 0.62657 0
M  V30 10947 H 1013.33 4.70073 1.58888 0
M  V30 10948 N 1012.5 0.357919 1.53482 0
M  V30 10949 C 1013.43 -0.526753 2.23065 0
M  V30 10950 C 1014.44 -1.05239 1.24212 0
M  V30 10951 O 1015.63 -0.960078 1.50482 0
M  V30 10952 C 1012.73 -1.73919 2.9087 0
M  V30 10953 C 1011.91 -1.34638 4.16163 0
M  V30 10954 C 1010.96 -2.42005 4.67247 0
M  V30 10955 O 1009.99 -2.04714 5.31113 0
M  V30 10956 N 1011.19 -3.73478 4.44404 0
M  V30 10957 H 1013.96 0.0692386 2.9962 0
M  V30 10958 H 1011.52 0.182726 1.60866 0
M  V30 10959 H 1013.51 -2.45207 3.21956 0
M  V30 10960 H 1012.08 -2.24223 2.17814 0
M  V30 10961 H 1011.3 -0.463667 3.91464 0
M  V30 10962 H 1012.59 -1.06012 4.97633 0
M  V30 10963 H 1011.99 -4.06555 3.93357 0
M  V30 10964 H 1010.54 -4.40893 4.80059 0
M  V30 10965 N 1013.98 -1.5736 0.0868897 0
M  V30 10966 C 1015.22 -1.9367 -0.577598 0
M  V30 10967 C 1015.55 -0.968844 -1.69229 0
M  V30 10968 O 1014.82 -0.0195061 -1.9589 0
M  V30 10969 H 1013.4 -0.714983 -0.216353 0
M  V30 10970 H 1016.06 -1.94335 0.148294 0
M  V30 10971 H 1015.15 -2.95877 -0.993128 0
M  V30 10972 N 1015.45 0.186762 -1.56489 0
M  V30 10973 C 1016.68 0.921832 -1.85229 0
M  V30 10974 C 1017.1 1.76496 -0.670416 0
M  V30 10975 O 1016.45 1.78899 0.360758 0
M  V30 10976 C 1016.51 1.81121 -3.12854 0
M  V30 10977 O 1016.23 1.00211 -4.26485 0
M  V30 10978 C 1017.73 2.65725 -3.54831 0
M  V30 10979 H 1014.95 0.268563 -0.61491 0
M  V30 10980 H 1017.49 0.191505 -2.03601 0
M  V30 10981 H 1015.65 2.49506 -2.96354 0
M  V30 10982 H 1016.06 1.60893 -4.99213 0
M  V30 10983 H 1017.53 3.23771 -4.47075 0
M  V30 10984 H 1018.01 3.39843 -2.78215 0
M  V30 10985 H 1018.62 2.02698 -3.7389 0
M  V30 10986 N 1016.93 1.50896 0.454776 0
M  V30 10987 C 1017.9 1.70377 1.53312 0
M  V30 10988 C 1018.9 0.57408 1.50203 0
M  V30 10989 O 1020.09 0.841374 1.52534 0
M  V30 10990 C 1017.22 1.74411 2.92905 0
M  V30 10991 H 1018.41 2.66599 1.37349 0
M  V30 10992 H 1015.96 1.40622 0.68228 0
M  V30 10993 H 1016.7 0.799408 3.14293 0
M  V30 10994 H 1016.48 2.56496 2.96568 0
M  V30 10995 H 1017.97 1.91382 3.71164 0
M  V30 10996 N 1018.41 -0.709066 1.40748 0
M  V30 10997 C 1019.34 -1.83583 1.4429 0
M  V30 10998 C 1020.32 -1.67378 0.303067 0
M  V30 10999 O 1021.51 -1.87312 0.512612 0
M  V30 11000 C 1018.64 -3.21599 1.31116 0
M  V30 11001 C 1017.59 -3.52486 2.4277 0
M  V30 11002 C 1016.92 -4.89716 2.14668 0
M  V30 11003 C 1018.22 -3.52824 3.85113 0
M  V30 11004 H 1019.91 -1.80876 2.38588 0
M  V30 11005 H 1017.46 -0.868795 1.14839 0
M  V30 11006 H 1019.41 -4.00123 1.32209 0
M  V30 11007 H 1018.13 -3.24898 0.332965 0
M  V30 11008 H 1016.79 -2.76305 2.40937 0
M  V30 11009 H 1016.44 -4.89625 1.15224 0
M  V30 11010 H 1016.14 -5.11347 2.89478 0
M  V30 11011 H 1017.66 -5.70566 2.17455 0
M  V30 11012 H 1019.08 -4.21377 3.88734 0
M  V30 11013 H 1017.48 -3.85984 4.59496 0
M  V30 11014 H 1018.55 -2.52073 4.14231 0
M  V30 11015 N 1019.89 -1.26353 -0.941956 0
M  V30 11016 C 1020.82 -1.10341 -2.05784 0
M  V30 11017 C 1021.8 -0.00881565 -1.70098 0
M  V30 11018 O 1022.99 -0.180699 -1.93357 0
M  V30 11019 C 1020.12 -0.734788 -3.39438 0
M  V30 11020 C 1019.07 -1.78103 -3.89183 0
M  V30 11021 C 1018.4 -1.26675 -5.19478 0
M  V30 11022 C 1019.7 -3.1824 -4.14151 0
M  V30 11023 H 1021.39 -2.03684 -2.19438 0
M  V30 11024 H 1018.94 -0.980698 -1.05443 0
M  V30 11025 H 1020.89 -0.609653 -4.16967 0
M  V30 11026 H 1019.61 0.234354 -3.25758 0
M  V30 11027 H 1018.27 -1.89482 -3.13835 0
M  V30 11028 H 1017.92 -0.287472 -5.02178 0
M  V30 11029 H 1017.62 -1.96612 -5.53731 0
M  V30 11030 H 1019.14 -1.15427 -5.99591 0
M  V30 11031 H 1020.56 -3.09942 -4.82296 0
M  V30 11032 H 1018.95 -3.8576 -4.59684 0
M  V30 11033 H 1020.02 -3.64354 -3.19959 0
M  V30 11034 N 1021.37 1.14642 -1.08144 0
M  V30 11035 C 1022.64 1.81774 -0.72232 0
M  V30 11036 C 1023.02 1.95587 0.794294 0
M  V30 11037 O 1022.37 1.51361 1.71178 0
M  V30 11038 C 1022.58 3.1763 -1.44611 0
M  V30 11039 C 1023.93 3.93161 -1.60343 0
M  V30 11040 O 1024.95 3.2721 -1.40755 0
M  V30 11041 O 1023.81 5.11422 -1.9264 0
M  V30 11042 H 1020.91 0.785733 -0.257978 0
M  V30 11043 H 1023.45 1.21683 -1.18285 0
M  V30 11044 H 1022.23 3.02723 -2.4794 0
M  V30 11045 H 1021.85 3.85412 -0.976892 0
M  V30 11046 N 1022.85 0.866709 1.31628 0
M  V30 11047 C 1023.79 0.318169 2.28596 0
M  V30 11048 C 1024.76 -0.581558 1.55586 0
M  V30 11049 O 1025.95 -0.513895 1.83749 0
M  V30 11050 C 1023.09 -0.477137 3.41786 0
M  V30 11051 C 1022.2 0.449739 4.29653 0
M  V30 11052 C 1021.34 -0.359373 5.29983 0
M  V30 11053 C 1020.37 0.564138 6.09495 0
M  V30 11054 N 1019.51 -0.208526 7.0179 0
M  V30 11055 H 1024.35 1.15029 2.74904 0
M  V30 11056 H 1021.89 0.578649 1.35241 0
M  V30 11057 H 1023.85 -0.953985 4.06146 0
M  V30 11058 H 1022.48 -1.27398 2.96597 0
M  V30 11059 H 1021.53 1.04502 3.65764 0
M  V30 11060 H 1022.84 1.158 4.85172 0
M  V30 11061 H 1021.99 -0.89887 6.00004 0
M  V30 11062 H 1020.73 -1.10094 4.75111 0
M  V30 11063 H 1019.74 1.11542 5.38366 0
M  V30 11064 H 1020.96 1.30451 6.66453 0
M  V30 11065 H 1018.91 -0.932969 6.49332 0
M  V30 11066 H 1018.83 0.440463 7.54716 0
M  V30 11067 H 1020.09 -0.72936 7.7608 0
M  V30 11068 N 1024.32 -1.44642 0.625825 0
M  V30 11069 C 1025.55 -2.06458 0.135116 0
M  V30 11070 C 1025.97 -1.46729 -1.18811 0
M  V30 11071 O 1025.32 -0.58818 -1.72762 0
M  V30 11072 C 1025.37 -3.61499 0.00850114 0
M  V30 11073 O 1025.1 -4.19002 1.2794 0
M  V30 11074 C 1026.6 -4.40339 -0.511527 0
M  V30 11075 H 1023.82 -0.666541 0.0772294 0
M  V30 11076 H 1026.36 -1.85597 0.858726 0
M  V30 11077 H 1024.52 -3.81641 -0.665522 0
M  V30 11078 H 1024.93 -5.12385 1.12081 0
M  V30 11079 H 1026.4 -5.49262 -0.549149 0
M  V30 11080 H 1026.88 -4.11409 -1.53752 0
M  V30 11081 H 1027.49 -4.25104 0.129066 0
M  V30 11082 N 1025.8 -0.366053 -1.5329 0
M  V30 11083 C 1027.22 -0.0150149 -1.59593 0
M  V30 11084 C 1027.42 1.46719 -1.38116 0
M  V30 11085 O 1026.47 2.22884 -1.18656 0
M  V30 11086 C 1027.79 -0.471374 -2.96982 0
M  V30 11087 C 1029.33 -0.425634 -3.10092 0
M  V30 11088 C 1029.81 -0.857812 -4.49895 0
M  V30 11089 N 1031.3 -0.81289 -4.56011 0
M  V30 11090 C 1032.04 -1.11898 -5.62376 0
M  V30 11091 N 1031.53 -1.49436 -6.76491 0
M  V30 11092 N 1033.32 -1.04174 -5.52362 0
M  V30 11093 H 1025.48 -1.33127 -1.65502 0
M  V30 11094 H 1027.74 -0.544172 -0.776261 0
M  V30 11095 H 1027.44 -1.50569 -3.1784 0
M  V30 11096 H 1027.32 0.141764 -3.76934 0
M  V30 11097 H 1029.71 0.599548 -2.88945 0
M  V30 11098 H 1029.79 -1.07427 -2.32149 0
M  V30 11099 H 1029.43 -1.88111 -4.7178 0
M  V30 11100 H 1029.36 -0.186419 -5.2627 0
M  V30 11101 H 1031.85 -0.536343 -3.74075 0
M  V30 11102 H 1032.16 -1.71217 -7.53594 0
M  V30 11103 H 1030.51 -1.53302 -6.77882 0
M  V30 11104 H 1033.7 -0.747654 -4.62091 0
M  V30 11105 H 1033.87 -1.28362 -6.35159 0
M  V30 11106 N 1027.28 1.57312 -0.0952337 0
M  V30 11107 C 1028.51 1.98409 0.575984 0
M  V30 11108 C 1028.92 0.973168 1.62253 0
M  V30 11109 O 1028.26 -0.0454416 1.83644 0
M  V30 11110 C 1028.32 3.35877 1.28167 0
M  V30 11111 C 1027.99 4.55368 0.385868 0
M  V30 11112 C 1028.98 5.1861 -0.366041 0
M  V30 11113 C 1026.67 5.0138 0.303885 0
M  V30 11114 C 1028.66 6.26233 -1.18791 0
M  V30 11115 C 1026.35 6.0887 -0.521637 0
M  V30 11116 C 1027.35 6.71161 -1.26618 0
M  V30 11117 O 1027.04 7.76577 -2.07804 0
M  V30 11118 H 1026.77 0.657018 0.159068 0
M  V30 11119 H 1029.32 2.04685 -0.171237 0
M  V30 11120 H 1027.55 3.26284 2.07547 0
M  V30 11121 H 1029.24 3.6142 1.84744 0
M  V30 11122 H 1030.01 4.83993 -0.312435 0
M  V30 11123 H 1025.89 4.52657 0.873065 0
M  V30 11124 H 1029.43 6.74784 -1.76955 0
M  V30 11125 H 1025.33 6.42918 -0.576722 0
M  V30 11126 H 1026.09 7.93566 -2.00489 0
M  V30 11127 N 1028.76 -0.17846 1.56586 0
M  V30 11128 C 1029.99 -0.911996 1.85715 0
M  V30 11129 C 1030.4 -1.76138 0.679766 0
M  V30 11130 O 1029.76 -1.79088 -0.351266 0
M  V30 11131 C 1029.81 -1.79459 3.1381 0
M  V30 11132 O 1029.53 -0.979476 4.2701 0
M  V30 11133 C 1031.03 -2.6384 3.56235 0
M  V30 11134 H 1028.25 -0.265299 0.616326 0
M  V30 11135 H 1030.79 -0.180704 2.037 0
M  V30 11136 H 1028.95 -2.4793 2.97673 0
M  V30 11137 H 1029.36 -1.58244 5.00059 0
M  V30 11138 H 1030.84 -3.21396 4.48786 0
M  V30 11139 H 1031.31 -3.38363 2.80013 0
M  V30 11140 H 1031.92 -2.00712 3.7496 0
M  V30 11141 N 1030.24 -1.51135 -0.446768 0
M  V30 11142 C 1031.15 -1.74595 -1.56696 0
M  V30 11143 C 1032.16 -0.629816 -1.62201 0
M  V30 11144 O 1033.34 -0.910987 -1.79619 0
M  V30 11145 C 1030.4 -1.85738 -2.9275 0
M  V30 11146 C 1029.46 -3.09564 -2.97437 0
M  V30 11147 C 1028.7 -3.20165 -4.27001 0
M  V30 11148 O 1028.92 -2.36939 -5.1886 0
M  V30 11149 O 1027.85 -4.13077 -4.3778 0
M  V30 11150 H 1031.68 -2.69601 -1.39817 0
M  V30 11151 H 1029.26 -1.35523 -0.628805 0
M  V30 11152 H 1031.15 -1.95107 -3.73512 0
M  V30 11153 H 1029.82 -0.939184 -3.09776 0
M  V30 11154 H 1028.73 -3.05679 -2.15664 0
M  V30 11155 H 1030.06 -4.01041 -2.85353 0
M  V30 11156 N 1031.71 0.701592 -1.41122 0
M  V30 11157 C 1032.95 1.4739 -1.41618 0
M  V30 11158 C 1033.32 1.91987 -0.0219443 0
M  V30 11159 O 1034.52 2.6862 0.0982793 0
M  V30 11160 C 1032.79 2.65745 -2.38986 0
M  V30 11161 S 1034.35 3.54968 -2.5796 0
M  V30 11162 H 1031.17 0.503742 -0.501762 0
M  V30 11163 H 1033.77 0.819186 -1.77509 0
M  V30 11164 H 1032.47 2.31176 -3.39096 0
M  V30 11165 H 1032 3.36115 -2.04426 0
M  V30 11166 H 1034.02 4.60724 -1.84249 0
M  V30 11167 O 1033.23 1.37719 0.843548 0
M  V30 11168 H 1033.92 1.24374 1.48496 0
M  V30 END ATOM
M  V30 BEGIN BOND
M  V30 END BOND
M  V30 END CTAB
M  END
$$$$
