drugbank_target|P22830 Ferrochelatase, mitochondrial (DB02659)
 OpenBabel12092119463D

  0  0  0     0  0            999 V3000
M  V30 BEGIN CTAB
M  V30 COUNTS 6750 6831 0 0 0
M  V30 BEGIN ATOM
M  V30 1 H -0.908 1.98254 -0.117106 0
M  V30 2 N 0 1.576 0 0
M  V30 3 C 0.933 2.03868 1.02534 0
M  V30 4 C 1.911 0.928543 1.3348 0
M  V30 5 O 3.095 1.19667 1.45644 0
M  V30 6 C 0.222 2.43627 2.35294 0
M  V30 7 C -0.732 3.65373 2.2001 0
M  V30 8 S 0.101 5.13292 1.52614 0
M  V30 9 C 1.257 5.56322 2.86805 0
M  V30 10 H 1.49 2.90518 0.631377 0
M  V30 11 H -0.977 1.52953 0.210867 0
M  V30 12 H 0.981 2.67203 3.11629 0
M  V30 13 H -0.358 1.57376 2.7183 0
M  V30 14 H -1.165 3.90944 3.18086 0
M  V30 15 H -1.563 3.418 1.51819 0
M  V30 16 H 0.729 5.58782 3.83104 0
M  V30 17 H 1.672 6.56266 2.65933 0
M  V30 18 H 2.08 4.83886 2.90714 0
M  V30 19 N 1.4781 -0.272755 1.55222 0
M  V30 20 C 2.8941 -0.619959 1.47067 0
M  V30 21 C 3.0941 -1.895 0.684978 0
M  V30 22 O 2.1501 -2.51675 0.203931 0
M  V30 23 C 3.4631 -0.746693 2.91282 0
M  V30 24 C 5.0111 -0.840731 3.01497 0
M  V30 25 C 5.4861 -0.99924 4.46967 0
M  V30 26 N 6.9771 -1.06476 4.50796 0
M  V30 27 C 7.7121 -1.20621 5.6057 0
M  V30 28 N 7.2081 -1.31483 6.80209 0
M  V30 29 N 9.0011 -1.23733 5.48312 0
M  V30 30 H 1.1521 0.564606 2.04758 0
M  V30 31 H 3.4151 0.191177 0.928523 0
M  V30 32 H 3.1211 0.119753 3.51496 0
M  V30 33 H 2.9951 -1.6269 3.40311 0
M  V30 34 H 5.3821 -1.69764 2.41379 0
M  V30 35 H 5.4631 0.0640874 2.5572 0
M  V30 36 H 5.1071 -0.146984 5.07687 0
M  V30 37 H 5.0371 -1.91871 4.90401 0
M  V30 38 H 7.5281 -0.993196 3.64615 0
M  V30 39 H 7.8411 -1.42111 7.59621 0
M  V30 40 H 6.1861 -1.28487 6.8302 0
M  V30 41 H 9.3771 -1.14877 4.53785 0
M  V30 42 H 9.5501 -1.34412 6.33906 0
M  V30 43 N 2.9562 -1.48159 -0.537278 0
M  V30 44 C 4.1812 -1.59707 -1.32319 0
M  V30 45 C 4.6062 -0.254859 -1.86365 0
M  V30 46 O 3.9642 0.772378 -1.64024 0
M  V30 47 C 4.0122 -2.6412 -2.45505 0
M  V30 48 O 3.1162 -2.20774 -3.48328 0
M  V30 49 H 2.4572 -0.535791 -0.392204 0
M  V30 50 H 4.9872 -1.94092 -0.647268 0
M  V30 51 H 4.9972 -2.85166 -2.91795 0
M  V30 52 H 3.6722 -3.61567 -2.05528 0
M  V30 53 H 2.2492 -2.09911 -3.08207 0
M  V30 54 N 4.4343 0.785586 -1.36625 0
M  V30 55 C 5.3643 1.91259 -1.33949 0
M  V30 56 C 6.3453 1.68795 -0.210325 0
M  V30 57 O 7.5303 1.89854 -0.408561 0
M  V30 58 C 4.6603 3.28339 -1.13186 0
M  V30 59 C 3.6143 3.65335 -2.22967 0
M  V30 60 C 2.9403 5.00806 -1.87342 0
M  V30 61 C 4.2403 3.7352 -3.65075 0
M  V30 62 H 5.9343 1.93755 -2.28253 0
M  V30 63 H 3.4803 0.930788 -1.09874 0
M  V30 64 H 5.4333 4.06804 -1.09948 0
M  V30 65 H 4.1573 3.2624 -0.153332 0
M  V30 66 H 2.8163 2.89169 -2.25337 0
M  V30 67 H 2.4643 4.95233 -0.880545 0
M  V30 68 H 2.1643 5.26529 -2.60846 0
M  V30 69 H 3.6883 5.81687 -1.85667 0
M  V30 70 H 5.1023 4.42168 -3.64911 0
M  V30 71 H 3.4993 4.10731 -4.37516 0
M  V30 72 H 4.5693 2.74527 -3.99703 0
M  V30 73 N 5.9124 1.20967 1.01018 0
M  V30 74 C 7.1604 1.02172 1.74371 0
M  V30 75 C 7.4814 -0.446414 1.89821 0
M  V30 76 O 6.7514 -1.32234 1.44537 0
M  V30 77 H 5.3314 0.375066 0.646014 0
M  V30 78 H 7.9934 1.52187 1.21758 0
M  V30 79 H 7.0894 1.48538 2.74487 0
M  V30 80 N 7.3905 -1.2043 1.01659 0
M  V30 81 C 8.3535 -2.21433 0.591616 0
M  V30 82 C 9.3535 -1.57203 -0.338226 0
M  V30 83 O 10.5435 -1.73737 -0.126918 0
M  V30 84 C 7.6755 -3.40628 -0.136058 0
M  V30 85 H 8.8685 -2.60545 1.48514 0
M  V30 86 H 6.4215 -1.33893 0.806379 0
M  V30 87 H 7.1565 -3.07019 -1.04449 0
M  V30 88 H 6.9415 -3.88475 0.531917 0
M  V30 89 H 8.4315 -4.15475 -0.420735 0
M  V30 90 N 8.8686 -0.792821 -1.36206 0
M  V30 91 C 9.8166 -0.181555 -2.3189 0
M  V30 92 C 10.8106 0.661025 -1.55971 0
M  V30 93 O 12.0166 0.555728 -1.71206 0
M  V30 94 H 8.3916 -0.0399382 -0.750939 0
M  V30 95 H 10.3626 -1.00394 -2.81005 0
M  V30 96 C 9.1116 0.666444 -3.41253 0
M  V30 97 H 8.4346 0.0274489 -3.99791 0
M  V30 98 H 9.8746 1.06076 -4.10517 0
M  V30 99 C 8.3336 1.82614 -2.83114 0
M  V30 100 O 8.8636 2.9229 -2.75553 0
M  V30 101 N 7.0696 1.63333 -2.40356 0
M  V30 102 H 6.6166 0.741217 -2.46706 0
M  V30 103 H 6.5746 2.41087 -2.01803 0
M  V30 104 N 10.3467 1.47872 -0.545128 0
M  V30 105 C 11.2797 2.2675 0.256885 0
M  V30 106 C 12.2577 1.33293 0.931228 0
M  V30 107 O 13.4417 1.62657 0.95262 0
M  V30 108 C 10.5687 3.09976 1.36501 0
M  V30 109 C 9.6147 4.1892 0.800496 0
M  V30 110 S 10.4477 5.34397 -0.343505 0
M  V30 111 C 11.6037 6.21186 0.766733 0
M  V30 112 H 11.8367 2.94425 -0.412479 0
M  V30 113 H 9.3697 1.50806 -0.331204 0
M  V30 114 H 11.3277 3.585 1.9997 0
M  V30 115 H 9.9887 2.41686 2.00616 0
M  V30 116 H 9.1817 4.76836 1.63227 0
M  V30 117 H 8.7837 3.73215 0.242217 0
M  V30 118 H 11.0757 6.56804 1.66178 0
M  V30 119 H 12.0187 7.07742 0.225204 0
M  V30 120 H 12.4267 5.54574 1.05396 0
M  V30 121 N 11.8248 0.280983 1.55075 0
M  V30 122 C 12.7878 -0.590896 2.21452 0
M  V30 123 C 13.7878 -1.07682 1.19421 0
M  V30 124 O 14.9778 -0.97605 1.44288 0
M  V30 125 C 12.1098 -1.81587 2.88511 0
M  V30 126 H 13.3028 -0.0112554 2.99898 0
M  V30 127 H 10.8558 0.0316438 1.56268 0
M  V30 128 H 11.5908 -2.43587 2.14093 0
M  V30 129 H 11.3758 -1.4753 3.63287 0
M  V30 130 H 12.8658 -2.43575 3.39206 0
M  V30 131 N 13.3029 -1.57598 0.00835791 0
M  V30 132 C 14.2659 -2.07884 -0.965242 0
M  V30 133 C 15.2659 -0.989825 -1.26725 0
M  V30 134 O 16.4559 -1.25218 -1.21104 0
M  V30 135 C 13.5879 -2.52731 -2.28779 0
M  V30 136 H 14.7809 -2.95178 -0.530112 0
M  V30 137 H 12.3339 -1.54458 -0.239283 0
M  V30 138 H 13.0689 -1.68705 -2.76964 0
M  V30 139 H 12.8539 -3.32272 -2.08177 0
M  V30 140 H 14.3439 -2.91933 -2.98605 0
M  V30 141 N 14.781 0.264519 -1.55364 0
M  V30 142 C 15.744 1.31046 -1.88042 0
M  V30 143 C 16.744 1.41943 -0.755569 0
M  V30 144 O 17.934 1.40947 -1.02369 0
M  V30 145 C 15.066 2.69067 -2.09323 0
M  V30 146 H 16.259 1.03297 -2.81549 0
M  V30 147 H 13.812 0.502989 -1.47986 0
M  V30 148 H 14.547 3.01982 -1.18226 0
M  V30 149 H 14.332 2.62542 -2.91229 0
M  V30 150 H 15.822 3.44623 -2.35848 0
M  V30 151 N 16.2591 1.48442 0.529413 0
M  V30 152 C 17.1891 1.65902 1.64313 0
M  V30 153 C 18.1701 0.507897 1.6234 0
M  V30 154 O 19.3551 0.740503 1.79528 0
M  V30 155 C 16.4851 1.69911 3.02898 0
M  V30 156 C 15.4391 2.8453 3.19729 0
M  V30 157 C 14.7651 2.73629 4.59381 0
M  V30 158 C 16.0651 4.25821 3.02447 0
M  V30 159 H 17.7591 2.5914 1.49955 0
M  V30 160 H 15.3051 1.24709 0.719982 0
M  V30 161 H 17.2581 1.80715 3.80684 0
M  V30 162 H 15.9821 0.732524 3.18279 0
M  V30 163 H 14.6411 2.73283 2.44361 0
M  V30 164 H 14.2891 1.74938 4.71599 0
M  V30 165 H 13.9891 3.50541 4.71588 0
M  V30 166 H 15.5131 2.86401 5.39265 0
M  V30 167 H 16.9271 4.37898 3.70024 0
M  V30 168 H 15.3241 5.03735 3.26146 0
M  V30 169 H 16.3941 4.42244 1.98867 0
M  V30 170 N 17.7372 -0.778329 1.37039 0
M  V30 171 C 19.1532 -1.07796 1.17695 0
M  V30 172 C 19.3532 -2.01498 0.00860115 0
M  V30 173 O 18.4092 -2.43901 -0.653352 0
M  V30 174 C 19.7222 -1.68178 2.49272 0
M  V30 175 C 21.2702 -1.80467 2.55735 0
M  V30 176 C 21.7452 -2.44263 3.87427 0
M  V30 177 N 23.2362 -2.51721 3.88833 0
M  V30 178 C 23.9712 -3.01919 4.87476 0
M  V30 179 N 23.4672 -3.5234 5.96513 0
M  V30 180 N 25.2602 -3.00733 4.74885 0
M  V30 181 H 17.4112 -0.156032 2.11826 0
M  V30 182 H 19.6742 -0.131844 0.938787 0
M  V30 183 H 19.3802 -1.06796 3.35093 0
M  V30 184 H 19.2542 -2.67554 2.65885 0
M  V30 185 H 21.6412 -2.40984 1.70325 0
M  V30 186 H 21.7222 -0.798656 2.43013 0
M  V30 187 H 21.3662 -1.84388 4.73248 0
M  V30 188 H 21.2962 -3.45458 3.9745 0
M  V30 189 H 23.7872 -2.1603 3.10063 0
M  V30 190 H 24.1002 -3.89027 6.67741 0
M  V30 191 H 22.4452 -3.50462 6.00168 0
M  V30 192 H 25.6362 -2.60638 3.88826 0
M  V30 193 H 25.8092 -3.39545 5.51918 0
M  V30 194 N 19.2153 -1.21501 -1.00376 0
M  V30 195 C 20.1783 -0.976927 -2.07337 0
M  V30 196 C 21.1783 0.0525322 -1.60714 0
M  V30 197 O 22.3683 -0.184869 -1.73216 0
M  V30 198 C 19.5003 -0.473423 -3.37597 0
M  V30 199 H 20.6933 -1.92587 -2.29892 0
M  V30 200 H 18.2463 -1.03217 -1.17371 0
M  V30 201 H 18.9813 0.480379 -3.20722 0
M  V30 202 H 18.7663 -1.216 -3.72768 0
M  V30 203 H 20.2563 -0.32675 -4.1632 0
M  V30 204 N 20.6934 1.19889 -1.02296 0
M  V30 205 C 21.6564 2.21116 -0.603351 0
M  V30 206 C 22.6564 1.5738 0.329884 0
M  V30 207 O 23.8464 1.73802 0.117702 0
M  V30 208 C 20.9784 3.40696 0.117992 0
M  V30 209 H 22.1714 2.59754 -1.49893 0
M  V30 210 H 19.7244 1.33463 -0.813468 0
M  V30 211 H 20.4594 3.07569 1.0282 0
M  V30 212 H 20.2444 3.88188 -0.552511 0
M  V30 213 H 21.7344 4.15692 0.398696 0
M  V30 214 N 22.1715 0.800033 1.35784 0
M  V30 215 C 23.4195 0.376597 1.9856 0
M  V30 216 C 23.7405 -1.05812 1.63795 0
M  V30 217 O 23.0105 -1.73103 0.917171 0
M  V30 218 H 21.5905 0.136261 0.734467 0
M  V30 219 H 24.2525 1.02442 1.65806 0
M  V30 220 H 23.3485 0.477002 3.08433 0
M  V30 221 N 23.6496 -1.47581 0.552962 0
M  V30 222 C 24.8956 -2.02782 0.0273648 0
M  V30 223 C 25.2286 -1.42687 -1.31734 0
M  V30 224 O 24.5036 -0.580897 -1.85623 0
M  V30 225 C 24.7866 -3.60031 -0.0702371 0
M  V30 226 C 24.6396 -4.30566 1.30126 0
M  V30 227 C 25.9586 -4.33028 -0.785771 0
M  V30 228 H 23.0776 -0.736912 0.0114185 0
M  V30 229 H 25.7196 -1.76056 0.714432 0
M  V30 230 H 23.8696 -3.82932 -0.655382 0
M  V30 231 H 25.5416 -4.19018 1.92929 0
M  V30 232 H 23.7846 -3.91086 1.87709 0
M  V30 233 H 24.4556 -5.39114 1.18573 0
M  V30 234 H 26.9316 -4.15095 -0.288982 0
M  V30 235 H 25.8076 -5.42695 -0.823013 0
M  V30 236 H 26.0686 -4.01945 -1.841 0
M  V30 237 N 25.1277 -0.289203 -1.54924 0
M  V30 238 C 26.0577 0.58549 -2.2604 0
M  V30 239 C 27.0387 1.14753 -1.25562 0
M  V30 240 O 28.2237 1.17906 -1.54311 0
M  V30 241 C 25.3537 1.76305 -2.99222 0
M  V30 242 C 24.3077 1.33191 -4.06748 0
M  V30 243 C 23.6337 2.5937 -4.6758 0
M  V30 244 C 24.9337 0.471775 -5.20165 0
M  V30 245 H 26.6277 -0.00763532 -2.99399 0
M  V30 246 H 24.1737 -0.00511229 -1.43999 0
M  V30 247 H 26.1267 2.38097 -3.47689 0
M  V30 248 H 24.8507 2.38223 -2.23422 0
M  V30 249 H 23.5097 0.737121 -3.59113 0
M  V30 250 H 23.1577 3.19576 -3.88433 0
M  V30 251 H 22.8577 2.31228 -5.40192 0
M  V30 252 H 24.3817 3.21985 -5.18804 0
M  V30 253 H 25.7957 0.995056 -5.64599 0
M  V30 254 H 24.1927 0.284639 -5.99425 0
M  V30 255 H 25.2627 -0.506041 -4.82252 0
M  V30 256 N 26.6058 1.57591 -0.0167156 0
M  V30 257 C 27.5358 2.12496 0.967858 0
M  V30 258 C 28.5168 1.03807 1.34752 0
M  V30 259 O 29.7018 1.31577 1.42833 0
M  V30 260 C 26.8318 2.64194 2.25431 0
M  V30 261 C 25.7858 3.77559 2.01576 0
M  V30 262 C 25.1118 4.15636 3.36379 0
M  V30 263 C 26.4118 5.04151 1.36489 0
M  V30 264 H 28.1058 2.95013 0.510643 0
M  V30 265 H 25.6518 1.41915 0.244181 0
M  V30 266 H 27.6048 3.01236 2.94678 0
M  V30 267 H 26.3288 1.78821 2.73296 0
M  V30 268 H 24.9878 3.40937 1.34751 0
M  V30 269 H 24.6358 3.27263 3.81979 0
M  V30 270 H 24.3358 4.92022 3.21229 0
M  V30 271 H 25.8598 4.5525 4.06915 0
M  V30 272 H 27.2738 5.38857 1.95718 0
M  V30 273 H 25.6708 5.85453 1.31776 0
M  V30 274 H 26.7408 4.83733 0.336219 0
M  V30 275 N 28.0839 -0.256276 1.55502 0
M  V30 276 C 29.4999 -0.604325 1.47716 0
M  V30 277 C 29.6999 -1.88763 0.705039 0
M  V30 278 O 28.7559 -2.51445 0.230613 0
M  V30 279 C 30.0689 -0.715756 2.92057 0
M  V30 280 C 31.6169 -0.808706 3.02372 0
M  V30 281 C 32.0919 -0.951777 4.48001 0
M  V30 282 N 33.5829 -1.01688 4.519 0
M  V30 283 C 34.3179 -1.14668 5.61817 0
M  V30 284 N 33.8139 -1.24261 6.81565 0
M  V30 285 N 35.6069 -1.1791 5.49594 0
M  V30 286 H 27.7579 0.586291 2.04148 0
M  V30 287 H 30.0209 0.201015 0.926443 0
M  V30 288 H 29.7269 0.157027 3.51349 0
M  V30 289 H 29.6009 -1.59071 3.42018 0
M  V30 290 H 31.9879 -1.67195 2.43166 0
M  V30 291 H 32.0689 0.0912063 2.55637 0
M  V30 292 H 31.7129 -0.0931291 5.07815 0
M  V30 293 H 31.6429 -1.86659 4.92408 0
M  V30 294 H 34.1339 -0.954468 3.65648 0
M  V30 295 H 34.4469 -1.34046 7.61086 0
M  V30 296 H 32.7919 -1.21236 6.84344 0
M  V30 297 H 35.9829 -1.10057 4.54978 0
M  V30 298 H 36.1559 -1.27681 6.35296 0
M  V30 299 N 29.562 -1.4872 -0.521534 0
M  V30 300 C 30.839 -1.4766 -1.2828 0
M  V30 301 C 31.219 -0.19292 -2.10217 0
M  V30 302 O 30.567 0.825193 -2.13079 0
M  V30 303 C 30.777 -2.74358 -2.15705 0
M  V30 304 C 32.125 -3.23028 -2.75569 0
M  V30 305 O 33.149 -2.75333 -2.25987 0
M  V30 306 O 32.008 -4.0604 -3.65778 0
M  V30 307 H 29.102 -0.590085 -0.579421 0
M  V30 308 H 31.648 -1.60963 -0.537492 0
M  V30 309 H 30.42 -3.59292 -1.54999 0
M  V30 310 H 30.043 -2.63816 -2.97467 0
M  V30 311 N 31.0401 0.771051 -1.3745 0
M  V30 312 C 32.4511 1.34737 -1.29239 0
M  V30 313 C 32.8021 1.96109 0.0596908 0
M  V30 314 O 31.9271 1.93865 0.961534 0
M  V30 315 C 32.5221 2.44973 -2.34037 0
M  V30 316 C 31.0811 2.98372 -2.29458 0
M  V30 317 C 30.2281 1.71595 -2.17831 0
M  V30 318 H 33.1791 0.571256 -1.48062 0
M  V30 319 H 33.2001 3.24471 -1.98744 0
M  V30 320 H 32.7121 2.00276 -3.32432 0
M  V30 321 H 30.8131 3.47443 -1.34589 0
M  V30 322 H 30.9261 3.53939 -3.229 0
M  V30 323 H 29.2901 1.94547 -1.64388 0
M  V30 324 H 30.0731 1.29001 -3.18141 0
M  V30 325 N 32.5182 1.22032 0.997298 0
M  V30 326 C 33.4482 1.01065 2.10495 0
M  V30 327 C 34.4292 -0.0669542 1.69968 0
M  V30 328 O 35.6142 0.0943987 1.9397 0
M  V30 329 C 32.7442 0.582874 3.42374 0
M  V30 330 C 31.6982 1.60592 3.96729 0
M  V30 331 C 31.0242 1.03412 5.24605 0
M  V30 332 C 32.3242 2.99478 4.27914 0
M  V30 333 H 34.0182 1.93708 2.28292 0
M  V30 334 H 31.5642 0.932761 1.09707 0
M  V30 335 H 33.5172 0.423332 4.19268 0
M  V30 336 H 32.2412 -0.379213 3.24391 0
M  V30 337 H 30.9002 1.75316 3.21963 0
M  V30 338 H 30.5482 0.063518 5.0296 0
M  V30 339 H 30.2482 1.71754 5.61938 0
M  V30 340 H 31.7722 0.886066 6.04137 0
M  V30 341 H 33.1862 2.88153 4.95622 0
M  V30 342 H 31.5832 3.64903 4.76409 0
M  V30 343 H 32.6532 3.49742 3.3587 0
M  V30 344 N 33.9963 -1.19345 1.0293 0
M  V30 345 C 34.9593 -2.20793 0.615069 0
M  V30 346 C 35.9593 -1.57553 -0.321533 0
M  V30 347 O 37.1493 -1.73862 -0.108483 0
M  V30 348 C 34.2813 -3.40754 -0.0999222 0
M  V30 349 H 35.4743 -2.58955 1.51269 0
M  V30 350 H 33.0273 -1.3303 0.820534 0
M  V30 351 H 33.7623 -3.0811 -1.01187 0
M  V30 352 H 33.5473 -3.87889 0.57309 0
M  V30 353 H 35.0373 -4.15898 -0.376645 0
M  V30 354 N 35.4744 -0.807222 -1.35358 0
M  V30 355 C 36.6994 -0.399309 -2.0352 0
M  V30 356 C 37.1244 0.981986 -1.60433 0
M  V30 357 O 36.4824 1.63601 -0.781299 0
M  V30 358 C 36.5304 -0.491552 -3.57234 0
M  V30 359 O 35.6344 0.494754 -4.09421 0
M  V30 360 H 34.9754 -0.166682 -0.642739 0
M  V30 361 H 37.5054 -1.09328 -1.72941 0
M  V30 362 H 37.5154 -0.361588 -4.06395 0
M  V30 363 H 36.1904 -1.49907 -3.87944 0
M  V30 364 H 34.7674 0.324977 -3.71481 0
M  V30 365 N 36.9525 1.47285 -0.560781 0
M  V30 366 C 38.1775 2.07359 -0.0410566 0
M  V30 367 C 38.6025 1.41017 1.24483 0
M  V30 368 O 37.9605 0.486368 1.74654 0
M  V30 369 C 38.0085 3.6035 0.134123 0
M  V30 370 O 37.1125 3.94681 1.19587 0
M  V30 371 H 36.4535 0.661887 -0.0529291 0
M  V30 372 H 38.9835 1.89252 -0.777482 0
M  V30 373 H 38.9935 4.0652 0.347207 0
M  V30 374 H 37.6685 4.08034 -0.805047 0
M  V30 375 H 36.2455 3.60251 0.962987 0
M  V30 376 N 38.4306 0.297415 1.54768 0
M  V30 377 C 39.6556 -0.318435 2.04941 0
M  V30 378 C 40.0806 -1.4701 1.17345 0
M  V30 379 O 39.4386 -1.80436 0.176758 0
M  V30 380 C 39.4866 -0.755749 3.52592 0
M  V30 381 O 38.5906 -1.86088 3.68028 0
M  V30 382 H 37.9316 -0.062421 0.661059 0
M  V30 383 H 40.4616 0.438215 1.99852 0
M  V30 384 H 40.4716 -1.04552 3.94376 0
M  V30 385 H 39.1466 0.0867233 4.1581 0
M  V30 386 H 37.7236 -1.57193 3.38149 0
M  V30 387 N 39.9087 -1.5758 0.0250728 0
M  V30 388 C 41.1547 -1.92746 -0.649648 0
M  V30 389 C 41.5097 -0.901588 -1.69968 0
M  V30 390 O 40.8027 0.0829251 -1.9142 0
M  V30 391 C 40.9967 -3.32421 -1.31268 0
M  V30 392 C 40.8257 -4.48499 -0.328394 0
M  V30 393 C 39.5957 -5.05251 0.070284 0
M  V30 394 C 41.7937 -5.12618 0.415665 0
M  V30 395 N 39.7757 -6.04851 1.05016 0
M  V30 396 C 41.1467 -6.0728 1.24943 0
M  V30 397 C 43.2017 -4.95612 0.476803 0
M  V30 398 C 41.9047 -6.86766 2.1388 0
M  V30 399 C 43.9307 -5.75703 1.3535 0
M  V30 400 C 43.2927 -6.69978 2.17504 0
M  V30 401 H 39.3917 -0.753231 -0.210159 0
M  V30 402 H 41.9757 -1.94486 0.0912999 0
M  V30 403 H 40.1467 -3.31508 -2.02379 0
M  V30 404 H 41.8787 -3.54946 -1.94411 0
M  V30 405 H 38.6337 -4.72628 -0.303323 0
M  V30 406 H 39.0577 -6.5934 1.53622 0
M  V30 407 H 43.6997 -4.22554 -0.144105 0
M  V30 408 H 41.4177 -7.59132 2.77027 0
M  V30 409 H 45.0037 -5.64579 1.40504 0
M  V30 410 H 43.8837 -7.30873 2.84244 0
M  V30 411 N 41.3868 0.248026 -1.55636 0
M  V30 412 C 42.8028 0.596483 -1.48035 0
M  V30 413 C 43.0028 1.88386 -0.715039 0
M  V30 414 O 42.0588 2.51319 -0.243944 0
M  V30 415 C 43.3718 0.700258 -2.92433 0
M  V30 416 C 44.9198 0.792659 -3.02797 0
M  V30 417 C 45.3948 0.928005 -4.485 0
M  V30 418 N 46.8858 0.992903 -4.52433 0
M  V30 419 C 47.6208 1.11687 -5.62418 0
M  V30 420 N 47.1168 1.20645 -6.82214 0
M  V30 421 N 48.9098 1.14994 -5.50212 0
M  V30 422 H 41.0608 -0.597109 -2.03834 0
M  V30 423 H 43.3238 -0.205925 -0.925364 0
M  V30 424 H 43.0298 -0.175658 -3.51261 0
M  V30 425 H 42.9038 1.57255 -3.42857 0
M  V30 426 H 45.2908 1.65903 -2.4405 0
M  V30 427 H 45.3718 -0.104762 -2.55585 0
M  V30 428 H 45.0158 0.0661971 -5.07857 0
M  V30 429 H 44.9458 1.84045 -4.93391 0
M  V30 430 H 47.4368 0.935064 -3.66149 0
M  V30 431 H 47.7498 1.30008 -7.61786 0
M  V30 432 H 46.0948 1.17605 -6.84977 0
M  V30 433 H 49.2858 1.07643 -4.55555 0
M  V30 434 H 49.4588 1.24311 -6.35965 0
M  V30 435 N 42.8649 1.48995 0.513639 0
M  V30 436 C 44.1109 1.58076 1.27042 0
M  V30 437 C 44.4439 0.261026 1.92438 0
M  V30 438 O 43.7189 -0.734393 1.80103 0
M  V30 439 C 44.0019 2.73091 2.34719 0
M  V30 440 C 43.8549 4.14821 1.73907 0
M  V30 441 C 45.1739 2.83796 3.36375 0
M  V30 442 H 42.2929 0.575391 0.460536 0
M  V30 443 H 44.9349 1.81232 0.570516 0
M  V30 444 H 43.0849 2.53479 2.94416 0
M  V30 445 H 44.7569 4.45917 1.18135 0
M  V30 446 H 42.9999 4.21058 1.0437 0
M  V30 447 H 43.6709 4.91147 2.51949 0
M  V30 448 H 46.1469 3.01611 2.86653 0
M  V30 449 H 45.0229 3.65971 4.09093 0
M  V30 450 H 45.2839 1.92624 3.9793 0
M  V30 451 N 44.343 -0.763751 1.37857 0
M  V30 452 C 45.583 -1.53551 1.34913 0
M  V30 453 C 45.947 -1.91895 -0.0635882 0
M  V30 454 O 47.148 -2.67916 -0.217825 0
M  V30 455 C 45.419 -2.76126 2.26912 0
M  V30 456 S 46.978 -3.66105 2.41893 0
M  V30 457 H 43.796 -0.52559 0.478828 0
M  V30 458 H 46.398 -0.897435 1.73685 0
M  V30 459 H 45.102 -2.4605 3.28463 0
M  V30 460 H 44.633 -3.44887 1.89253 0
M  V30 461 H 46.648 -4.68473 1.63545 0
M  V30 462 N 45.8211 -1.22559 -0.990812 0
M  V30 463 C 46.7531 -0.955325 -2.08342 0
M  V30 464 C 47.7661 0.0668408 -1.62663 0
M  V30 465 O 48.9551 -0.167421 -1.77713 0
M  V30 466 C 46.0551 -0.415566 -3.36342 0
M  V30 467 C 45.2281 -1.49544 -4.11042 0
M  V30 468 C 44.2871 -0.962399 -5.17324 0
M  V30 469 O 43.3131 -1.64907 -5.44788 0
M  V30 470 N 44.5151 0.215134 -5.80101 0
M  V30 471 H 47.2801 -1.89596 -2.32106 0
M  V30 472 H 44.8411 -1.13276 -1.15673 0
M  V30 473 H 46.8331 -0.0442386 -4.04676 0
M  V30 474 H 45.4031 0.430232 -3.09625 0
M  V30 475 H 44.6231 -2.04 -3.37309 0
M  V30 476 H 45.9111 -2.22195 -4.57719 0
M  V30 477 H 45.3091 0.789779 -5.6016 0
M  V30 478 H 43.8661 0.527826 -6.49659 0
M  V30 479 N 47.2992 1.18797 -1.03562 0
M  V30 480 C 48.7102 1.70322 -0.764676 0
M  V30 481 C 49.0612 1.82708 0.714996 0
M  V30 482 O 48.1862 1.50299 1.55689 0
M  V30 483 C 48.7812 3.09356 -1.38145 0
M  V30 484 C 47.3402 3.58114 -1.15895 0
M  V30 485 C 46.4872 2.34798 -1.4753 0
M  V30 486 H 49.4382 1.03543 -1.20268 0
M  V30 487 H 49.4592 3.72378 -0.781977 0
M  V30 488 H 48.9712 3.00309 -2.45837 0
M  V30 489 H 47.0722 3.72464 -0.100544 0
M  V30 490 H 47.1852 4.4184 -1.8524 0
M  V30 491 H 45.5492 2.38464 -0.894829 0
M  V30 492 H 46.3322 2.28375 -2.56319 0
M  V30 493 N 48.7773 0.814389 1.34928 0
M  V30 494 C 50.0233 0.408167 1.99263 0
M  V30 495 C 50.3783 -1.0154 1.63424 0
M  V30 496 O 49.6713 -1.69607 0.891289 0
M  V30 497 C 49.8653 0.537781 3.53331 0
M  V30 498 C 49.6943 1.9724 4.04137 0
M  V30 499 C 48.4643 2.60245 4.33129 0
M  V30 500 C 50.6623 2.93801 4.2212 0
M  V30 501 N 48.6443 3.95036 4.69914 0
M  V30 502 C 50.0153 4.1348 4.6199 0
M  V30 503 C 52.0703 2.9053 4.04348 0
M  V30 504 C 50.7733 5.3033 4.85945 0
M  V30 505 C 52.7993 4.06589 4.29464 0
M  V30 506 C 52.1613 5.25017 4.69613 0
M  V30 507 H 48.2603 0.197289 0.756704 0
M  V30 508 H 50.8443 1.05728 1.63492 0
M  V30 509 H 49.0153 -0.0813868 3.88315 0
M  V30 510 H 50.7473 0.105389 4.04563 0
M  V30 511 H 47.5023 2.11545 4.23728 0
M  V30 512 H 47.9263 4.64455 4.92555 0
M  V30 513 H 52.5683 2.00115 3.72443 0
M  V30 514 H 50.2863 6.21309 5.16721 0
M  V30 515 H 53.8723 4.05447 4.17257 0
M  V30 516 H 52.7523 6.1333 4.88667 0
M  V30 517 N 50.2554 -1.46986 0.568584 0
M  V30 518 C 51.6714 -1.57946 0.229189 0
M  V30 519 C 51.8714 -1.56567 -1.26843 0
M  V30 520 O 50.9274 -1.47511 -2.04931 0
M  V30 521 C 52.2404 -2.87963 0.865909 0
M  V30 522 C 53.7884 -3.01568 0.838188 0
M  V30 523 C 54.2634 -4.34301 1.45419 0
M  V30 524 N 55.7544 -4.40965 1.41788 0
M  V30 525 C 56.4894 -5.42256 1.86403 0
M  V30 526 N 55.9854 -6.50297 2.38926 0
M  V30 527 N 57.7784 -5.3337 1.77405 0
M  V30 528 H 49.9294 -1.46126 1.54146 0
M  V30 529 H 52.1924 -0.696156 0.643484 0
M  V30 530 H 51.8984 -2.94742 1.91886 0
M  V30 531 H 51.7724 -3.75423 0.365687 0
M  V30 532 H 54.1594 -2.94379 -0.206106 0
M  V30 533 H 54.2404 -2.1562 1.37629 0
M  V30 534 H 53.8844 -4.42247 2.49761 0
M  V30 535 H 53.8144 -5.19 0.891435 0
M  V30 536 H 56.3054 -3.63484 1.03381 0
M  V30 537 H 56.6184 -7.23777 2.70863 0
M  V30 538 H 54.9634 -6.51155 2.42944 0
M  V30 539 H 58.1544 -4.47865 1.3614 0
M  V30 540 H 58.3274 -6.12169 2.12492 0
M  V30 541 N 51.7335 -0.305618 -1.54608 0
M  V30 542 C 52.9795 0.295595 -2.01241 0
M  V30 543 C 53.3345 1.51171 -1.19018 0
M  V30 544 O 52.6275 1.89832 -0.259684 0
M  V30 545 C 52.8215 0.698983 -3.50498 0
M  V30 546 C 52.6505 -0.476491 -4.47168 0
M  V30 547 C 51.4205 -0.969963 -4.95903 0
M  V30 548 C 53.6185 -1.32294 -4.96994 0
M  V30 549 N 51.6005 -2.11172 -5.76437 0
M  V30 550 C 52.9715 -2.31212 -5.75275 0
M  V30 551 C 55.0265 -1.35278 -4.7917 0
M  V30 552 C 53.7295 -3.32896 -6.37631 0
M  V30 553 C 55.7555 -2.35823 -5.42348 0
M  V30 554 C 55.1175 -3.33469 -6.20466 0
M  V30 555 H 51.2165 0.0724992 -0.778632 0
M  V30 556 H 53.8005 -0.436583 -1.89742 0
M  V30 557 H 51.9715 1.40032 -3.62278 0
M  V30 558 H 53.7035 1.28013 -3.8392 0
M  V30 559 H 50.4585 -0.544178 -4.70463 0
M  V30 560 H 50.8825 -2.68714 -6.21387 0
M  V30 561 H 55.5245 -0.61157 -4.18354 0
M  V30 562 H 53.2425 -4.07933 -6.97579 0
M  V30 563 H 56.8285 -2.38911 -5.30484 0
M  V30 564 H 55.7085 -4.09996 -6.68485 0
M  V30 565 N 53.2116 1.57565 -0.0334293 0
M  V30 566 C 54.1586 2.10478 0.946981 0
M  V30 567 C 55.1286 1.00787 1.32027 0
M  V30 568 O 56.3136 1.28232 1.41284 0
M  V30 569 C 53.4536 2.63994 2.22263 0
M  V30 570 C 52.5666 3.87709 1.90541 0
M  V30 571 C 51.7016 4.29604 3.12433 0
M  V30 572 C 50.7406 5.46065 2.76549 0
M  V30 573 N 49.8776 5.83096 3.9108 0
M  V30 574 H 54.7176 2.93963 0.488846 0
M  V30 575 H 52.2546 1.45296 0.22969 0
M  V30 576 H 54.2126 2.93114 2.96884 0
M  V30 577 H 52.8426 1.83333 2.65685 0
M  V30 578 H 51.8946 3.65291 1.06144 0
M  V30 579 H 53.2066 4.72403 1.60116 0
M  V30 580 H 52.3606 4.60182 3.9537 0
M  V30 581 H 51.0996 3.43685 3.46023 0
M  V30 582 H 50.1046 5.15176 1.92026 0
M  V30 583 H 51.3296 6.33685 2.44171 0
M  V30 584 H 49.2756 5.00132 4.24504 0
M  V30 585 H 49.1926 6.6244 3.64293 0
M  V30 586 H 50.4606 6.18282 4.74708 0
M  V30 587 N 54.6897 -0.239769 1.55765 0
M  V30 588 C 55.9147 -0.988373 1.82335 0
M  V30 589 C 56.3397 -1.77886 0.611421 0
M  V30 590 O 55.6977 -1.75889 -0.439639 0
M  V30 591 C 55.7457 -1.89627 3.06715 0
M  V30 592 O 54.8497 -2.98904 2.84131 0
M  V30 593 H 54.1907 -0.280858 0.601677 0
M  V30 594 H 56.7207 -0.258597 2.02959 0
M  V30 595 H 56.7307 -2.30957 3.36338 0
M  V30 596 H 55.4057 -1.31511 3.9456 0
M  V30 597 H 53.9827 -2.61651 2.65694 0
M  V30 598 N 56.1678 -1.49265 -0.50573 0
M  V30 599 C 57.4158 -1.582 -1.25766 0
M  V30 600 C 57.7368 -0.268482 -1.93143 0
M  V30 601 O 57.0068 0.711833 -1.8251 0
M  V30 602 H 55.5868 -0.582873 -0.467191 0
M  V30 603 H 58.2488 -1.85865 -0.586525 0
M  V30 604 H 57.3448 -2.37563 -2.02412 0
M  V30 605 N 57.6459 0.756429 -1.3826 0
M  V30 606 C 58.6089 1.85176 -1.35065 0
M  V30 607 C 59.6089 1.58818 -0.251703 0
M  V30 608 O 60.7989 1.66615 -0.508433 0
M  V30 609 C 57.9309 3.22596 -1.10201 0
M  V30 610 H 59.1239 1.89417 -2.3251 0
M  V30 611 H 56.6769 0.95783 -1.23512 0
M  V30 612 H 57.4119 3.24025 -0.133504 0
M  V30 613 H 57.1969 3.43122 -1.89762 0
M  V30 614 H 58.6869 4.02673 -1.10654 0
M  V30 615 N 59.124 1.23083 0.984299 0
M  V30 616 C 60.087 1.00979 2.05757 0
M  V30 617 C 61.087 -0.0269573 1.60777 0
M  V30 618 O 62.277 0.212403 1.729 0
M  V30 619 C 59.409 0.527072 3.36801 0
M  V30 620 H 60.602 1.9622 2.26799 0
M  V30 621 H 58.155 1.05072 1.15714 0
M  V30 622 H 58.89 -0.429294 3.21446 0
M  V30 623 H 58.675 1.27515 3.70786 0
M  V30 624 H 60.165 0.392942 4.15747 0
M  V30 625 N 60.6021 -1.18246 1.0419 0
M  V30 626 C 61.5651 -2.20128 0.638452 0
M  V30 627 C 62.5651 -1.57885 -0.304805 0
M  V30 628 O 63.7551 -1.73967 -0.0900369 0
M  V30 629 C 60.8871 -3.4084 -0.0637751 0
M  V30 630 H 62.0801 -2.57336 1.54007 0
M  V30 631 H 59.6331 -1.32152 0.834598 0
M  V30 632 H 60.3681 -3.09166 -0.979136 0
M  V30 633 H 60.1531 -3.8726 0.614198 0
M  V30 634 H 61.6431 -4.16274 -0.332512 0
M  V30 635 N 62.0802 -0.821533 -1.34494 0
M  V30 636 C 63.0432 -0.247847 -2.27856 0
M  V30 637 C 64.0432 0.573453 -1.50227 0
M  V30 638 O 65.2332 0.389759 -1.69784 0
M  V30 639 C 62.3652 0.652698 -3.34593 0
M  V30 640 H 63.5582 -1.07146 -2.80107 0
M  V30 641 H 61.1112 -0.593291 -1.44602 0
M  V30 642 H 61.8462 1.49943 -2.87555 0
M  V30 643 H 61.6312 0.065292 -3.92046 0
M  V30 644 H 63.1212 1.04793 -4.04238 0
M  V30 645 N 63.5583 1.46682 -0.576371 0
M  V30 646 C 64.5213 2.28707 0.150239 0
M  V30 647 C 65.5213 1.38035 0.824794 0
M  V30 648 O 66.7113 1.60476 0.677719 0
M  V30 649 C 63.8433 3.18248 1.22192 0
M  V30 650 H 65.0363 2.94423 -0.570521 0
M  V30 651 H 62.5893 1.52688 -0.334078 0
M  V30 652 H 63.3243 2.57265 1.97447 0
M  V30 653 H 63.1093 3.85 0.742812 0
M  V30 654 H 64.5993 3.80001 1.73172 0
M  V30 655 N 65.0364 0.313813 1.54444 0
M  V30 656 C 66.2824 -0.292108 2.00685 0
M  V30 657 C 66.6154 -1.52548 1.20177 0
M  V30 658 O 65.8904 -1.92452 0.281531 0
M  V30 659 C 66.1734 -0.635968 3.5444 0
M  V30 660 C 66.0264 0.607437 4.4568 0
M  V30 661 C 67.3454 -1.45747 4.15266 0
M  V30 662 H 64.4644 -0.104697 0.729526 0
M  V30 663 H 67.1064 0.428457 1.85106 0
M  V30 664 H 65.2564 -1.24986 3.67846 0
M  V30 665 H 66.9284 1.24581 4.44159 0
M  V30 666 H 65.1714 1.23822 4.15753 0
M  V30 667 H 65.8424 0.322515 5.51057 0
M  V30 668 H 68.3184 -0.938645 4.05375 0
M  V30 669 H 67.1944 -1.66683 5.2298 0
M  V30 670 H 67.4554 -2.45063 3.67963 0
M  V30 671 N 66.5145 -1.57545 0.0417849 0
M  V30 672 C 67.7425 -1.96624 -0.643928 0
M  V30 673 C 68.1575 -0.918897 -1.64929 0
M  V30 674 O 67.5145 0.0979323 -1.82237 0
M  V30 675 C 67.5655 -3.35781 -1.33914 0
M  V30 676 O 67.2865 -4.365 -0.374048 0
M  V30 677 C 68.7875 -3.89566 -2.1155 0
M  V30 678 H 66.0075 -0.647316 -0.176702 0
M  V30 679 H 68.5515 -2.04229 0.105304 0
M  V30 680 H 66.7065 -3.29357 -2.03968 0
M  V30 681 H 67.1205 -5.17248 -0.869179 0
M  V30 682 H 68.5945 -4.89242 -2.55628 0
M  V30 683 H 69.0715 -3.24488 -2.9598 0
M  V30 684 H 69.6775 -3.99298 -1.46427 0
M  V30 685 N 67.9926 0.231505 -1.5589 0
M  V30 686 C 69.2206 0.974505 -1.82513 0
M  V30 687 C 69.6356 1.78344 -0.619591 0
M  V30 688 O 68.9926 1.77792 0.411848 0
M  V30 689 C 69.0436 1.90007 -3.07538 0
M  V30 690 O 68.7646 1.12385 -4.2344 0
M  V30 691 C 70.2656 2.75779 -3.47075 0
M  V30 692 H 67.4856 0.286065 -0.606966 0
M  V30 693 H 70.0296 0.249739 -2.02969 0
M  V30 694 H 68.1846 2.57891 -2.89086 0
M  V30 695 H 68.5986 1.75125 -4.944 0
M  V30 696 H 70.0726 3.36443 -4.37619 0
M  V30 697 H 70.5496 3.47672 -2.68367 0
M  V30 698 H 71.1556 2.13323 -3.67931 0
M  V30 699 N 69.4707 1.49531 0.497807 0
M  V30 700 C 70.3807 1.69176 1.62532 0
M  V30 701 C 71.3967 0.5744 1.64246 0
M  V30 702 O 72.5727 0.849497 1.82608 0
M  V30 703 C 69.6377 1.75695 2.98885 0
M  V30 704 C 68.6987 2.9929 3.07773 0
M  V30 705 C 67.9317 3.05488 4.37622 0
M  V30 706 O 68.1547 2.19192 5.26603 0
M  V30 707 O 67.0887 3.9798 4.51548 0
M  V30 708 H 70.9147 2.647 1.48887 0
M  V30 709 H 68.4997 1.3331 0.674441 0
M  V30 710 H 70.3817 1.82317 3.79919 0
M  V30 711 H 69.0567 0.8335 3.12785 0
M  V30 712 H 67.9637 2.98183 2.25915 0
M  V30 713 H 69.2967 3.91125 2.98801 0
M  V30 714 N 70.9488 -0.749086 1.3866 0
M  V30 715 C 72.1768 -1.53834 1.38358 0
M  V30 716 C 72.5918 -1.88783 -0.0255219 0
M  V30 717 O 71.9488 -1.53101 -0.993292 0
M  V30 718 C 71.9998 -2.83468 2.2434 0
M  V30 719 O 71.7208 -2.50008 3.5976 0
M  V30 720 C 73.2218 -3.7758 2.32267 0
M  V30 721 H 70.4418 -0.47585 0.473083 0
M  V30 722 H 72.9858 -0.926726 1.82297 0
M  V30 723 H 71.1408 -3.40995 1.83851 0
M  V30 724 H 71.5548 -3.33182 4.05081 0
M  V30 725 H 73.0288 -4.65478 2.96706 0
M  V30 726 H 73.5058 -4.18334 1.33765 0
M  V30 727 H 74.1118 -3.25976 2.73166 0
M  V30 728 N 72.4269 -1.23603 -0.977757 0
M  V30 729 C 73.3899 -1.02069 -2.05218 0
M  V30 730 C 74.3899 0.0184305 -1.60789 0
M  V30 731 O 75.5799 -0.221569 -1.72785 0
M  V30 732 C 72.7119 -0.544926 -3.36517 0
M  V30 733 H 73.9049 -1.9742 -2.25755 0
M  V30 734 H 71.4579 -1.05684 -1.15155 0
M  V30 735 H 72.1929 0.412241 -3.21669 0
M  V30 736 H 71.9779 -1.2948 -3.70105 0
M  V30 737 H 73.4679 -0.414985 -4.15533 0
M  V30 738 N 73.905 1.17692 -1.04816 0
M  V30 739 C 74.837 2.21103 -0.603822 0
M  V30 740 C 75.85 1.59411 0.33046 0
M  V30 741 O 77.039 1.7807 0.12379 0
M  V30 742 C 74.139 3.38623 0.136898 0
M  V30 743 C 73.312 4.29888 -0.807137 0
M  V30 744 C 72.371 5.26088 -0.10836 0
M  V30 745 O 71.397 5.64353 -0.741232 0
M  V30 746 N 72.599 5.68882 1.15558 0
M  V30 747 H 75.364 2.59848 -1.49329 0
M  V30 748 H 72.925 1.32553 -0.929587 0
M  V30 749 H 74.917 4.00009 0.614401 0
M  V30 750 H 73.487 2.98508 0.927993 0
M  V30 751 H 72.707 3.65993 -1.46434 0
M  V30 752 H 73.995 4.87759 -1.44807 0
M  V30 753 H 73.393 5.39861 1.69015 0
M  V30 754 H 71.95 6.32429 1.57722 0
M  V30 755 N 75.3831 0.828654 1.34056 0
M  V30 756 C 76.3331 0.226828 2.26869 0
M  V30 757 C 77.3171 -0.612243 1.48796 0
M  V30 758 O 78.5091 -0.465884 1.70759 0
M  V30 759 C 75.6381 -0.605654 3.37915 0
M  V30 760 C 74.7241 0.244361 4.23395 0
M  V30 761 N 75.1151 1.31815 4.88322 0
M  V30 762 C 73.4131 0.0296616 4.4599 0
M  V30 763 C 74.1141 1.83895 5.51867 0
M  V30 764 N 73.0901 1.14196 5.3147 0
M  V30 765 H 76.8921 1.04811 2.74576 0
M  V30 766 H 74.4061 0.67205 1.47842 0
M  V30 767 H 76.4031 -1.05302 4.03382 0
M  V30 768 H 75.0631 -1.42504 2.91758 0
M  V30 769 H 76.0741 1.70099 4.8917 0
M  V30 770 H 72.7511 -0.757097 4.10578 0
M  V30 771 H 74.1411 2.7376 6.136 0
M  V30 772 N 76.8612 -1.46375 0.584142 0
M  V30 773 C 77.8242 -2.28784 -0.138108 0
M  V30 774 C 78.8242 -1.38471 -0.817462 0
M  V30 775 O 80.0142 -1.60833 -0.669199 0
M  V30 776 C 77.1462 -3.18892 -1.20503 0
M  V30 777 H 78.3392 -2.94117 0.586127 0
M  V30 778 H 75.8922 -1.52509 0.342171 0
M  V30 779 H 76.6272 -2.58309 -1.96079 0
M  V30 780 H 76.4122 -3.85388 -0.722384 0
M  V30 781 H 77.9022 -3.80914 -1.71155 0
M  V30 782 N 78.3393 -0.321999 -1.54275 0
M  V30 783 C 79.2713 0.578671 -2.21775 0
M  V30 784 C 80.2843 1.08109 -1.21722 0
M  V30 785 O 81.4733 0.994938 -1.482 0
M  V30 786 C 78.5733 1.80661 -2.86731 0
M  V30 787 C 77.7463 1.44314 -4.12907 0
M  V30 788 C 76.8053 2.52845 -4.61472 0
M  V30 789 O 75.8313 2.17054 -5.2619 0
M  V30 790 N 77.0333 3.83748 -4.35566 0
M  V30 791 H 79.7983 0.000709447 -2.997 0
M  V30 792 H 77.3593 -0.145132 -1.61248 0
M  V30 793 H 79.3513 2.52655 -3.16145 0
M  V30 794 H 77.9213 2.29245 -2.12521 0
M  V30 795 H 77.1413 0.554906 -3.90275 0
M  V30 796 H 78.4293 1.17598 -4.95023 0
M  V30 797 H 77.8273 4.15625 -3.83761 0
M  V30 798 H 76.3843 4.51977 -4.69638 0
M  V30 799 N 79.8174 1.5752 -0.0501392 0
M  V30 800 C 81.0654 1.9227 0.622642 0
M  V30 801 C 81.3864 0.929083 1.71444 0
M  V30 802 O 80.6564 -0.0262186 1.95882 0
M  V30 803 H 79.2364 0.709739 0.232981 0
M  V30 804 H 81.8984 1.94628 -0.102898 0
M  V30 805 H 80.9944 2.93479 1.06191 0
M  V30 806 N 81.2955 -0.223234 1.56011 0
M  V30 807 C 82.2585 -1.26014 1.9145 0
M  V30 808 C 83.2585 -1.3989 0.792937 0
M  V30 809 O 84.4485 -1.38184 1.0607 0
M  V30 810 C 81.5805 -2.63422 2.16383 0
M  V30 811 H 82.7735 -0.95796 2.84189 0
M  V30 812 H 80.3265 -0.463576 1.49267 0
M  V30 813 H 81.0615 -2.98741 1.2619 0
M  V30 814 H 80.8465 -2.54728 2.98088 0
M  V30 815 H 82.3365 -3.38249 2.44903 0
M  V30 816 N 82.7736 -1.49793 -0.48987 0
M  V30 817 C 83.7206 -1.67281 -1.59014 0
M  V30 818 C 84.6906 -0.514177 -1.57941 0
M  V30 819 O 85.8756 -0.742533 -1.75759 0
M  V30 820 C 83.0156 -1.75569 -2.97102 0
M  V30 821 C 82.1286 -3.0281 -3.08107 0
M  V30 822 C 81.2636 -3.02008 -4.36995 0
M  V30 823 C 80.3026 -4.23782 -4.41673 0
M  V30 824 N 79.4396 -4.20826 -5.62005 0
M  V30 825 H 84.2796 -2.61224 -1.43409 0
M  V30 826 H 81.8166 -1.29508 -0.697565 0
M  V30 827 H 83.7746 -1.78354 -3.77155 0
M  V30 828 H 82.4046 -0.850827 -3.11385 0
M  V30 829 H 81.4566 -3.09584 -2.21047 0
M  V30 830 H 82.7686 -3.92801 -3.07423 0
M  V30 831 H 81.9226 -3.03418 -5.25378 0
M  V30 832 H 80.6616 -2.09815 -4.4026 0
M  V30 833 H 79.6666 -4.22604 -3.5169 0
M  V30 834 H 80.8916 -5.17181 -4.40115 0
M  V30 835 H 78.8376 -3.31476 -5.66091 0
M  V30 836 H 78.7546 -5.04564 -5.62984 0
M  V30 837 H 80.0226 -4.26355 -6.52565 0
M  V30 838 N 84.2517 0.741722 -1.39055 0
M  V30 839 C 85.6627 1.31966 -1.32068 0
M  V30 840 C 86.0137 1.96192 0.0180797 0
M  V30 841 O 85.1387 1.95861 0.920196 0
M  V30 842 C 85.7337 2.39954 -2.39181 0
M  V30 843 C 84.2927 2.93438 -2.35735 0
M  V30 844 C 83.4397 1.66936 -2.21422 0
M  V30 845 H 86.3907 0.539721 -1.4924 0
M  V30 846 H 86.4117 3.20182 -2.05581 0
M  V30 847 H 85.9237 1.9318 -3.36605 0
M  V30 848 H 84.0247 3.4451 -1.41929 0
M  V30 849 H 84.1377 3.4701 -3.30335 0
M  V30 850 H 82.5017 1.91016 -1.68478 0
M  V30 851 H 83.2847 1.22224 -3.20806 0
M  V30 852 N 85.7298 1.2412 0.971189 0
M  V30 853 C 86.6618 0.988349 2.06795 0
M  V30 854 C 87.6748 -0.0409541 1.62748 0
M  V30 855 O 88.8638 0.195673 1.77424 0
M  V30 856 C 85.9638 0.469023 3.35639 0
M  V30 857 C 85.1368 1.56065 4.08611 0
M  V30 858 C 84.1958 1.04458 5.15728 0
M  V30 859 O 83.2218 1.73553 5.42096 0
M  V30 860 N 84.4238 -0.122817 5.8037 0
M  V30 861 H 87.1888 1.93265 2.29061 0
M  V30 862 H 84.7498 1.15102 1.13856 0
M  V30 863 H 86.7418 0.108613 4.04554 0
M  V30 864 H 85.3118 -0.380919 3.1027 0
M  V30 865 H 84.5318 2.09341 3.34021 0
M  V30 866 H 85.8198 2.29449 4.54126 0
M  V30 867 H 85.2178 -0.700563 5.61345 0
M  V30 868 H 83.7748 -0.424404 6.50417 0
M  V30 869 N 87.2079 -1.17134 1.05439 0
M  V30 870 C 88.4539 -1.87733 0.767077 0
M  V30 871 C 88.7869 -1.8098 -0.704253 0
M  V30 872 O 88.0619 -1.21951 -1.5152 0
M  V30 873 C 88.3449 -3.37659 1.25133 0
M  V30 874 C 88.1979 -3.53149 2.78578 0
M  V30 875 C 89.5169 -4.31768 0.852324 0
M  V30 876 H 86.6359 -0.681687 0.280129 0
M  V30 877 H 89.2779 -1.37732 1.30881 0
M  V30 878 H 87.4279 -3.80373 0.790469 0
M  V30 879 H 89.0999 -3.19434 3.32806 0
M  V30 880 H 87.3429 -2.95345 3.17732 0
M  V30 881 H 88.0139 -4.58403 3.07523 0
M  V30 882 H 90.4899 -3.96909 1.24911 0
M  V30 883 H 89.3659 -5.35199 1.21873 0
M  V30 884 H 89.6269 -4.41429 -0.243485 0
M  V30 885 N 88.686 -0.835752 -1.33615 0
M  V30 886 C 89.618 -0.224151 -2.28101 0
M  V30 887 C 90.631 0.593331 -1.51603 0
M  V30 888 O 91.82 0.420911 -1.73466 0
M  V30 889 C 88.92 0.703309 -3.31522 0
M  V30 890 C 88.093 -0.0741528 -4.37337 0
M  V30 891 C 87.152 0.776176 -5.20444 0
M  V30 892 O 86.178 0.216506 -5.68788 0
M  V30 893 N 87.38 2.09401 -5.41416 0
M  V30 894 H 90.145 -1.03598 -2.81225 0
M  V30 895 H 87.706 -0.69392 -1.46275 0
M  V30 896 H 89.698 1.27707 -3.84022 0
M  V30 897 H 88.268 1.41585 -2.78698 0
M  V30 898 H 87.488 -0.82928 -3.85378 0
M  V30 899 H 88.776 -0.608863 -5.05144 0
M  V30 900 H 88.174 2.57229 -5.03835 0
M  V30 901 H 86.731 2.61633 -5.96985 0
M  V30 902 N 90.1641 1.46063 -0.591896 0
M  V30 903 C 91.5751 1.85944 -0.167822 0
M  V30 904 C 91.9261 1.49429 1.27143 0
M  V30 905 O 91.0511 0.913515 1.96173 0
M  V30 906 C 91.6461 3.37489 -0.297794 0
M  V30 907 C 90.2051 3.76332 0.0714732 0
M  V30 908 C 89.3521 2.7006 -0.629509 0
M  V30 909 H 92.3031 1.37087 -0.799555 0
M  V30 910 H 92.3241 3.77532 0.474349 0
M  V30 911 H 91.8361 3.64034 -1.3454 0
M  V30 912 H 89.9371 3.55405 1.11886 0
M  V30 913 H 90.0501 4.78088 -0.311245 0
M  V30 914 H 88.4141 2.54607 -0.0687867 0
M  V30 915 H 89.1971 2.99444 -1.67894 0
M  V30 916 N 91.6422 0.330177 1.54103 0
M  V30 917 C 92.5742 -0.566902 2.22079 0
M  V30 918 C 93.5872 -1.07462 1.22294 0
M  V30 919 O 94.7762 -0.987065 1.48726 0
M  V30 920 C 91.8762 -1.79138 2.87685 0
M  V30 921 C 91.0492 -1.42123 4.13666 0
M  V30 922 C 90.1082 -2.50394 4.62806 0
M  V30 923 O 89.1342 -2.14261 5.27334 0
M  V30 924 N 90.3362 -3.81433 4.37595 0
M  V30 925 H 93.1012 0.0151844 2.99696 0
M  V30 926 H 90.6622 0.153681 1.61169 0
M  V30 927 H 92.6542 -2.50975 3.1748 0
M  V30 928 H 91.2242 -2.28115 2.13734 0
M  V30 929 H 90.4442 -0.534201 3.90564 0
M  V30 930 H 91.7322 -1.14971 4.9564 0
M  V30 931 H 91.1302 -4.13584 3.8596 0
M  V30 932 H 89.6872 -4.4948 4.72029 0
M  V30 933 N 93.1203 -1.57491 0.0584922 0
M  V30 934 C 94.0673 -2.11958 -0.913376 0
M  V30 935 C 95.0373 -1.02875 -1.30407 0
M  V30 936 O 96.2223 -1.30464 -1.39226 0
M  V30 937 C 93.3623 -2.67497 -2.18035 0
M  V30 938 C 92.4753 -3.90691 -1.84349 0
M  V30 939 C 91.6103 -4.3452 -3.05559 0
M  V30 940 C 90.6493 -5.50395 -2.67827 0
M  V30 941 N 89.7863 -5.89244 -3.81754 0
M  V30 942 H 94.6263 -2.94704 -0.442017 0
M  V30 943 H 92.1633 -1.45643 -0.206545 0
M  V30 944 H 94.1213 -2.978 -2.92183 0
M  V30 945 H 92.7513 -1.87537 -2.62735 0
M  V30 946 H 91.8033 -3.66934 -1.00319 0
M  V30 947 H 93.1153 -4.7489 -1.5258 0
M  V30 948 H 92.2693 -4.66414 -3.87998 0
M  V30 949 H 91.0083 -3.49147 -3.40511 0
M  V30 950 H 90.0133 -5.18165 -1.83806 0
M  V30 951 H 91.2383 -6.3749 -2.34059 0
M  V30 952 H 89.1843 -5.06823 -4.16493 0
M  V30 953 H 89.1013 -6.68151 -3.53708 0
M  V30 954 H 90.3693 -6.25756 -4.64811 0
M  V30 955 N 94.5984 0.214957 -1.56127 0
M  V30 956 C 96.0144 0.564948 -1.49267 0
M  V30 957 C 96.2144 1.86827 -0.754838 0
M  V30 958 O 95.2704 2.50745 -0.297198 0
M  V30 959 C 96.5834 0.638071 -2.93852 0
M  V30 960 C 98.1314 0.728253 -3.0441 0
M  V30 961 C 98.6064 0.832663 -4.50367 0
M  V30 962 N 100.097 0.896712 -4.54437 0
M  V30 963 C 100.832 0.997324 -5.6466 0
M  V30 964 N 100.328 1.06147 -6.8462 0
M  V30 965 N 102.121 1.03297 -5.52527 0
M  V30 966 H 94.2724 -0.640211 -2.02522 0
M  V30 967 H 96.5354 -0.225507 -0.920788 0
M  V30 968 H 96.2414 -0.250126 -3.50809 0
M  V30 969 H 96.1154 1.49947 -3.46115 0
M  V30 970 H 98.5024 1.60689 -2.47514 0
M  V30 971 H 98.5834 -0.158952 -2.55306 0
M  V30 972 H 98.2274 -0.0415417 -5.07883 0
M  V30 973 H 98.1574 1.73538 -4.97184 0
M  V30 974 H 100.648 0.857188 -3.6805 0
M  V30 975 H 100.961 1.1382 -7.64372 0
M  V30 976 H 99.3064 1.03049 -6.87318 0
M  V30 977 H 102.497 0.979558 -4.57736 0
M  V30 978 H 102.67 1.10793 -6.38458 0
M  V30 979 N 96.0765 1.50051 0.48192 0
M  V30 980 C 97.0235 1.68122 1.58125 0
M  V30 981 C 97.9935 0.522545 1.57666 0
M  V30 982 O 99.1785 0.751844 1.75362 0
M  V30 983 C 96.3185 1.77142 2.96167 0
M  V30 984 C 95.4315 3.0444 3.06497 0
M  V30 985 C 94.5665 3.04321 4.35387 0
M  V30 986 C 93.6055 4.26118 4.3942 0
M  V30 987 N 92.7425 4.238 5.59766 0
M  V30 988 H 97.5825 2.6198 1.42022 0
M  V30 989 H 95.1195 1.29877 0.690687 0
M  V30 990 H 97.0775 1.80352 3.76203 0
M  V30 991 H 95.7075 0.867329 3.1093 0
M  V30 992 H 94.7595 3.10752 2.19402 0
M  V30 993 H 96.0715 3.94426 3.05336 0
M  V30 994 H 95.2255 3.062 5.23762 0
M  V30 995 H 93.9645 2.12147 4.39141 0
M  V30 996 H 92.9695 4.24463 3.49444 0
M  V30 997 H 94.1945 5.19507 4.37366 0
M  V30 998 H 92.1405 3.34474 5.64326 0
M  V30 999 H 92.0575 5.07542 5.60301 0
M  V30 1000 H 93.3255 4.2981 6.50295 0
M  V30 1001 N 97.5546 -0.734337 1.39446 0
M  V30 1002 C 98.9656 -1.31264 1.32766 0
M  V30 1003 C 99.3166 -1.96198 -0.00767497 0
M  V30 1004 O 98.4416 -1.96346 -0.909796 0
M  V30 1005 C 99.0366 -2.38682 2.4045 0
M  V30 1006 C 97.5956 -2.92184 2.37288 0
M  V30 1007 C 96.7426 -1.6576 2.22304 0
M  V30 1008 H 99.6936 -0.531799 1.49525 0
M  V30 1009 H 99.7146 -3.19087 2.07276 0
M  V30 1010 H 99.2266 -1.91392 3.37625 0
M  V30 1011 H 97.3276 -3.43752 1.43754 0
M  V30 1012 H 97.4406 -3.45253 3.3217 0
M  V30 1013 H 95.8046 -1.9012 1.69489 0
M  V30 1014 H 96.5876 -1.20521 3.21449 0
M  V30 1015 N 99.0327 -1.24633 -0.964593 0
M  V30 1016 C 99.9797 -1.04144 -2.05968 0
M  V30 1017 C 100.95 0.046262 -1.66036 0
M  V30 1018 O 102.135 -0.108972 -1.90489 0
M  V30 1019 C 99.2747 -0.65563 -3.38815 0
M  V30 1020 C 98.3877 -1.81714 -3.91923 0
M  V30 1021 C 97.5227 -1.37662 -5.13052 0
M  V30 1022 C 96.5617 -2.50788 -5.58365 0
M  V30 1023 N 95.6987 -2.07582 -6.70712 0
M  V30 1024 H 100.539 -1.9787 -2.22827 0
M  V30 1025 H 98.0757 -0.9855 -1.09208 0
M  V30 1026 H 100.034 -0.412954 -4.15151 0
M  V30 1027 H 98.6637 0.244627 -3.21872 0
M  V30 1028 H 97.7157 -2.1734 -3.12198 0
M  V30 1029 H 99.0277 -2.66705 -4.21509 0
M  V30 1030 H 98.1817 -1.093 -5.96773 0
M  V30 1031 H 96.9207 -0.497293 -4.85158 0
M  V30 1032 H 95.9257 -2.79906 -4.73215 0
M  V30 1033 H 97.1507 -3.39283 -5.88272 0
M  V30 1034 H 95.0967 -1.22051 -6.44546 0
M  V30 1035 H 95.0137 -2.86125 -6.99763 0
M  V30 1036 H 96.2817 -1.82369 -7.57867 0
M  V30 1037 N 100.511 1.16574 -1.06058 0
M  V30 1038 C 101.739 1.90952 -0.796552 0
M  V30 1039 C 102.154 1.77302 0.648808 0
M  V30 1040 O 101.511 1.11605 1.44397 0
M  V30 1041 C 101.562 3.41736 -1.17894 0
M  V30 1042 O 101.283 3.54975 -2.56758 0
M  V30 1043 C 102.784 4.33169 -0.942308 0
M  V30 1044 H 100.004 0.605594 -0.288959 0
M  V30 1045 H 102.548 1.47777 -1.41358 0
M  V30 1046 H 100.703 3.82623 -0.606491 0
M  V30 1047 H 101.117 4.4846 -2.72 0
M  V30 1048 H 102.591 5.37439 -1.25952 0
M  V30 1049 H 103.068 4.3903 0.122078 0
M  V30 1050 H 103.674 3.98007 -1.49902 0
M  V30 1051 N 101.989 0.842826 1.3317 0
M  V30 1052 C 103.237 0.439577 1.97262 0
M  V30 1053 C 103.558 -1.00548 1.67078 0
M  V30 1054 O 102.828 -1.70098 0.971779 0
M  V30 1055 H 101.408 0.159558 0.72976 0
M  V30 1056 H 104.07 1.07665 1.62463 0
M  V30 1057 H 103.166 0.574886 3.0676 0
M  V30 1058 N 103.467 -1.45747 0.599634 0
M  V30 1059 C 104.716 -2.01502 0.0893511 0
M  V30 1060 C 105.029 -1.4748 -1.28488 0
M  V30 1061 O 106.235 -1.95161 -1.88745 0
M  V30 1062 C 104.691 -3.59735 0.109082 0
M  V30 1063 C 104.299 -4.22754 1.48267 0
M  V30 1064 C 106.043 -4.23085 -0.346374 0
M  V30 1065 C 103.95 -5.73115 1.45921 0
M  V30 1066 H 102.88 -0.753417 0.0296347 0
M  V30 1067 H 105.531 -1.67303 0.753788 0
M  V30 1068 H 103.913 -3.91087 -0.621854 0
M  V30 1069 H 105.087 -4.02987 2.23468 0
M  V30 1070 H 103.402 -3.71567 1.87955 0
M  V30 1071 H 105.999 -5.33327 -0.38298 0
M  V30 1072 H 106.342 -3.93201 -1.36743 0
M  V30 1073 H 106.875 -3.9642 0.331038 0
M  V30 1074 H 103.614 -6.07685 2.45762 0
M  V30 1075 H 103.134 -5.95097 0.749665 0
M  V30 1076 H 104.813 -6.3616 1.17941 0
M  V30 1077 N 104.945 -0.338344 -1.53925 0
M  V30 1078 C 105.875 0.51328 -2.27789 0
M  V30 1079 C 106.856 1.107 -1.29149 0
M  V30 1080 O 108.041 1.12937 -1.57984 0
M  V30 1081 C 105.171 1.66697 -3.04679 0
M  V30 1082 C 104.125 1.20183 -4.1078 0
M  V30 1083 C 103.451 2.44363 -4.75595 0
M  V30 1084 C 104.751 0.30605 -5.21403 0
M  V30 1085 H 106.445 -0.102883 -2.99223 0
M  V30 1086 H 103.991 -0.0509219 -1.4391 0
M  V30 1087 H 105.944 2.26915 -3.55088 0
M  V30 1088 H 104.668 2.30995 -2.30887 0
M  V30 1089 H 103.327 0.622499 -3.61276 0
M  V30 1090 H 102.975 3.07057 -3.98403 0
M  V30 1091 H 102.675 2.13925 -5.47275 0
M  V30 1092 H 104.199 3.05317 -5.28786 0
M  V30 1093 H 105.613 0.814929 -5.67478 0
M  V30 1094 H 104.01 0.0937929 -6.00027 0
M  V30 1095 H 105.08 -0.65921 -4.80398 0
M  V30 1096 N 106.423 1.57458 -0.0668435 0
M  V30 1097 C 107.356 2.08033 0.93795 0
M  V30 1098 C 108.334 0.984321 1.29421 0
M  V30 1099 O 109.518 1.25736 1.40437 0
M  V30 1100 C 106.645 2.53388 2.24749 0
M  V30 1101 C 105.691 3.74376 2.04315 0
M  V30 1102 S 106.524 5.19303 1.30706 0
M  V30 1103 C 107.68 5.67986 2.62951 0
M  V30 1104 H 107.913 2.92935 0.50759 0
M  V30 1105 H 105.446 1.5371 0.145804 0
M  V30 1106 H 107.404 2.8018 3.00016 0
M  V30 1107 H 106.065 1.68763 2.64911 0
M  V30 1108 H 105.258 4.04083 3.01218 0
M  V30 1109 H 104.86 3.47931 1.37186 0
M  V30 1110 H 107.152 5.74528 3.5906 0
M  V30 1111 H 108.095 6.66955 2.3786 0
M  V30 1112 H 108.503 4.95781 2.69929 0
M  V30 1113 N 107.901 -0.206675 1.56239 0
M  V30 1114 C 108.831 -1.25909 1.96645 0
M  V30 1115 C 109.812 -1.48097 0.836734 0
M  V30 1116 O 110.997 -1.6003 1.10019 0
M  V30 1117 C 108.127 -2.6058 2.29599 0
M  V30 1118 C 107.081 -2.53024 3.452 0
M  V30 1119 C 106.407 -3.91861 3.63798 0
M  V30 1120 C 107.707 -2.06524 4.79734 0
M  V30 1121 H 109.401 -0.923369 2.84806 0
M  V30 1122 H 106.947 -0.442735 1.37025 0
M  V30 1123 H 108.9 -3.34375 2.56459 0
M  V30 1124 H 107.624 -2.95869 1.38307 0
M  V30 1125 H 106.283 -1.81684 3.18412 0
M  V30 1126 H 105.931 -4.24483 2.69857 0
M  V30 1127 H 105.631 -3.87683 4.4156 0
M  V30 1128 H 107.155 -4.67296 3.93022 0
M  V30 1129 H 108.569 -2.70072 5.05702 0
M  V30 1130 H 106.966 -2.13374 5.60885 0
M  V30 1131 H 108.036 -1.01802 4.74093 0
M  V30 1132 N 109.379 -1.50304 -0.473955 0
M  V30 1133 C 110.327 -1.69482 -1.59307 0
M  V30 1134 C 111.321 -0.560669 -1.59853 0
M  V30 1135 O 112.527 -0.741087 -1.64036 0
M  V30 1136 H 108.902 -0.534892 -0.528578 0
M  V30 1137 H 110.873 -2.63364 -1.40293 0
M  V30 1138 C 109.622 -1.80354 -2.97267 0
M  V30 1139 H 108.945 -2.67012 -2.97564 0
M  V30 1140 H 110.385 -1.97798 -3.75036 0
M  V30 1141 C 108.844 -0.55448 -3.32306 0
M  V30 1142 O 109.374 0.307661 -4.0052 0
M  V30 1143 N 107.58 -0.409354 -2.87702 0
M  V30 1144 H 107.127 -1.11196 -2.32364 0
M  V30 1145 H 107.085 0.425223 -3.11511 0
M  V30 1146 N 110.857 0.726932 -1.39834 0
M  V30 1147 C 111.79 1.8501 -1.33592 0
M  V30 1148 C 112.768 1.61262 -0.208191 0
M  V30 1149 O 113.952 1.84422 -0.389981 0
M  V30 1150 C 111.079 3.21143 -1.07633 0
M  V30 1151 C 110.125 3.63737 -2.22705 0
M  V30 1152 S 110.958 3.72167 -3.85035 0
M  V30 1153 C 112.114 5.11077 -3.61318 0
M  V30 1154 H 112.347 1.90022 -2.28646 0
M  V30 1155 H 109.88 0.892595 -1.25985 0
M  V30 1156 H 111.838 3.99747 -0.933415 0
M  V30 1157 H 110.499 3.13776 -0.142526 0
M  V30 1158 H 109.692 4.62551 -2.00155 0
M  V30 1159 H 109.294 2.9236 -2.33242 0
M  V30 1160 H 111.586 5.97656 -3.19083 0
M  V30 1161 H 112.529 5.38658 -4.59623 0
M  V30 1162 H 112.937 4.81135 -2.95245 0
M  V30 1163 N 112.336 1.25143 0.95797 0
M  V30 1164 C 113.584 1.09476 1.69881 0
M  V30 1165 C 113.905 -0.365502 1.91544 0
M  V30 1166 O 113.175 -1.25985 1.50015 0
M  V30 1167 H 111.755 0.402128 0.629525 0
M  V30 1168 H 114.417 1.57214 1.15194 0
M  V30 1169 H 113.513 1.60046 2.6794 0
M  V30 1170 N 113.814 -1.1601 1.06675 0
M  V30 1171 C 115.062 -1.86264 0.784229 0
M  V30 1172 C 115.383 -1.82328 -0.691488 0
M  V30 1173 O 114.653 -1.25947 -1.50047 0
M  V30 1174 H 113.233 -0.689621 0.28711 0
M  V30 1175 H 115.895 -1.40664 1.34906 0
M  V30 1176 H 114.991 -2.91595 1.11259 0
M  V30 1177 N 115.292 -0.849877 -1.32721 0
M  V30 1178 C 116.703 -0.506188 -1.79707 0
M  V30 1179 C 117.054 0.975627 -1.70223 0
M  V30 1180 O 116.179 1.76078 -1.25799 0
M  V30 1181 C 116.774 -0.912044 -3.26293 0
M  V30 1182 C 115.333 -0.620326 -3.71253 0
M  V30 1183 C 114.48 -1.11439 -2.53922 0
M  V30 1184 H 117.431 -1.03754 -1.20087 0
M  V30 1185 H 117.452 -0.226493 -3.79825 0
M  V30 1186 H 116.964 -1.99057 -3.33164 0
M  V30 1187 H 115.065 0.447674 -3.69901 0
M  V30 1188 H 115.178 -1.18327 -4.64258 0
M  V30 1189 H 113.542 -0.534834 -2.49021 0
M  V30 1190 H 114.325 -2.19992 -2.6355 0
M  V30 1191 N 116.77 1.45427 -0.607355 0
M  V30 1192 C 117.68 2.34325 0.113463 0
M  V30 1193 C 118.696 1.51226 0.860617 0
M  V30 1194 O 119.872 1.84029 0.818255 0
M  V30 1195 C 116.937 3.28839 1.09844 0
M  V30 1196 C 115.998 4.27844 0.353271 0
M  V30 1197 C 115.231 5.17842 1.29133 0
M  V30 1198 O 115.454 5.11264 2.52913 0
M  V30 1199 O 114.388 5.96713 0.788523 0
M  V30 1200 H 118.214 2.97364 -0.617094 0
M  V30 1201 H 115.799 1.44807 -0.367619 0
M  V30 1202 H 117.681 3.8708 1.66575 0
M  V30 1203 H 116.356 2.68365 1.81003 0
M  V30 1204 H 115.263 3.7322 -0.256494 0
M  V30 1205 H 116.596 4.91173 -0.317822 0
M  V30 1206 N 118.248 0.346503 1.53744 0
M  V30 1207 C 119.476 -0.25041 2.05379 0
M  V30 1208 C 119.891 -1.43979 1.22129 0
M  V30 1209 O 119.248 -1.80677 0.257321 0
M  V30 1210 C 119.299 -0.662575 3.55376 0
M  V30 1211 O 119.02 0.479515 4.35468 0
M  V30 1212 C 120.521 -1.31989 4.23195 0
M  V30 1213 H 117.741 -0.0478198 0.669294 0
M  V30 1214 H 120.285 0.499346 1.9831 0
M  V30 1215 H 118.44 -1.36227 3.62658 0
M  V30 1216 H 118.854 0.15037 5.24284 0
M  V30 1217 H 120.328 -1.55902 5.29527 0
M  V30 1218 H 120.805 -2.27436 3.75725 0
M  V30 1219 H 121.411 -0.662154 4.20114 0
M  V30 1220 N 119.726 -1.57421 0.075193 0
M  V30 1221 C 120.656 -2.15942 -0.888324 0
M  V30 1222 C 121.637 -1.08737 -1.30806 0
M  V30 1223 O 122.822 -1.36787 -1.37851 0
M  V30 1224 C 119.952 -2.72379 -2.1547 0
M  V30 1225 C 118.906 -3.8478 -1.87425 0
M  V30 1226 C 118.232 -4.27834 -3.20721 0
M  V30 1227 C 119.532 -5.08869 -1.17684 0
M  V30 1228 H 121.226 -2.96705 -0.400799 0
M  V30 1229 H 118.772 -1.42723 -0.191342 0
M  V30 1230 H 120.725 -3.11965 -2.83295 0
M  V30 1231 H 119.449 -1.88841 -2.6647 0
M  V30 1232 H 118.108 -3.45703 -1.22004 0
M  V30 1233 H 117.756 -3.41214 -3.6957 0
M  V30 1234 H 117.456 -5.03605 -3.02746 0
M  V30 1235 H 118.98 -4.70039 -3.89738 0
M  V30 1236 H 120.394 -5.4575 -1.75584 0
M  V30 1237 H 118.791 -5.8994 -1.09956 0
M  V30 1238 H 119.861 -4.84648 -0.156453 0
M  V30 1239 N 121.204 0.198386 -1.56346 0
M  V30 1240 C 122.452 0.91747 -1.80075 0
M  V30 1241 C 122.773 1.83929 -0.647692 0
M  V30 1242 O 122.043 1.93029 0.334166 0
M  V30 1243 H 120.623 0.341774 -0.664228 0
M  V30 1244 H 123.285 0.204684 -1.93822 0
M  V30 1245 H 122.381 1.51055 -2.7311 0
M  V30 1246 N 122.682 1.50554 0.465978 0
M  V30 1247 C 123.959 1.5232 1.22712 0
M  V30 1248 C 124.339 0.270807 2.09356 0
M  V30 1249 O 123.687 -0.745541 2.15995 0
M  V30 1250 C 123.897 2.82175 2.05374 0
M  V30 1251 C 125.245 3.33033 2.6339 0
M  V30 1252 O 126.269 2.83531 2.15612 0
M  V30 1253 O 125.128 4.19336 3.50456 0
M  V30 1254 H 122.222 0.611183 0.557122 0
M  V30 1255 H 124.768 1.62847 0.477381 0
M  V30 1256 H 123.54 3.64797 1.41558 0
M  V30 1257 H 123.163 2.74675 2.87471 0
M  V30 1258 N 124.16 -0.719506 1.40217 0
M  V30 1259 C 125.406 -1.48152 1.38488 0
M  V30 1260 C 125.739 -1.94195 -0.0141867 0
M  V30 1261 O 125.014 -1.67884 -0.982096 0
M  V30 1262 C 125.297 -2.71035 2.37091 0
M  V30 1263 C 125.15 -2.30912 3.86005 0
M  V30 1264 C 126.469 -3.73182 2.33288 0
M  V30 1265 H 123.588 -0.537395 0.504357 0
M  V30 1266 H 126.23 -0.821472 1.71324 0
M  V30 1267 H 124.38 -3.27352 2.0922 0
M  V30 1268 H 126.052 -1.80107 4.24687 0
M  V30 1269 H 124.295 -1.62958 4.02029 0
M  V30 1270 H 124.966 -3.18978 4.50508 0
M  V30 1271 H 127.442 -3.26485 2.57966 0
M  V30 1272 H 126.318 -4.56806 3.04334 0
M  V30 1273 H 126.579 -4.21202 1.34317 0
M  V30 1274 N 125.638 -1.25649 -0.95132 0
M  V30 1275 C 126.588 -1.03004 -2.03406 0
M  V30 1276 C 127.572 0.034187 -1.60864 0
M  V30 1277 O 128.764 -0.181549 -1.76066 0
M  V30 1278 C 125.893 -0.654255 -3.37008 0
M  V30 1279 C 124.979 -1.75542 -3.86065 0
M  V30 1280 N 125.37 -2.99113 -4.07879 0
M  V30 1281 C 123.668 -1.63669 -4.14884 0
M  V30 1282 C 124.369 -3.70611 -4.48356 0
M  V30 1283 N 123.345 -2.98247 -4.54477 0
M  V30 1284 H 127.147 -1.96813 -2.1827 0
M  V30 1285 H 124.661 -1.16017 -1.13639 0
M  V30 1286 H 126.658 -0.473206 -4.14206 0
M  V30 1287 H 125.318 0.276468 -3.23521 0
M  V30 1288 H 126.329 -3.35124 -3.94857 0
M  V30 1289 H 123.006 -0.775161 -4.10241 0
M  V30 1290 H 124.396 -4.76695 -4.73509 0
M  V30 1291 N 127.117 1.15442 -1.07289 0
M  V30 1292 C 128.394 1.82306 -0.708792 0
M  V30 1293 C 128.774 1.94991 0.808807 0
M  V30 1294 O 128.122 1.50085 1.72298 0
M  V30 1295 C 128.332 3.18695 -1.42247 0
M  V30 1296 C 129.68 3.94341 -1.57417 0
M  V30 1297 O 130.704 3.28247 -1.38319 0
M  V30 1298 O 129.563 5.12839 -1.88834 0
M  V30 1299 H 126.657 0.787628 -0.252132 0
M  V30 1300 H 129.203 1.22559 -1.17377 0
M  V30 1301 H 127.975 3.04557 -2.45684 0
M  V30 1302 H 127.598 3.86128 -0.948223 0
M  V30 1303 N 128.595 0.856903 1.32268 0
M  V30 1304 C 129.842 0.461386 1.97174 0
M  V30 1305 C 130.17 -0.983491 1.67803 0
M  V30 1306 O 129.425 -1.70541 0.959903 0
M  V30 1307 C 129.724 0.649919 3.51441 0
M  V30 1308 C 129.39 2.0656 4.00804 0
M  V30 1309 C 128.052 2.45279 4.13995 0
M  V30 1310 C 130.404 2.98947 4.26943 0
M  V30 1311 C 127.732 3.75653 4.50668 0
M  V30 1312 C 130.084 4.28822 4.65075 0
M  V30 1313 C 128.748 4.67472 4.76472 0
M  V30 1314 H 128.018 0.168833 0.72151 0
M  V30 1315 H 130.665 1.08739 1.57633 0
M  V30 1316 H 128.97 -0.0593018 3.91755 0
M  V30 1317 H 130.667 0.32391 3.9969 0
M  V30 1318 H 127.257 1.75495 3.91024 0
M  V30 1319 H 131.441 2.70265 4.16258 0
M  V30 1320 H 126.697 4.05379 4.57688 0
M  V30 1321 H 130.871 5.0047 4.84255 0
M  V30 1322 H 128.498 5.68539 5.04646 0
M  V30 1323 N 130.073 -1.45103 0.615059 0
M  V30 1324 C 131.003 -2.33339 -0.0865619 0
M  V30 1325 C 131.984 -1.4727 -0.851209 0
M  V30 1326 O 133.169 -1.76026 -0.820281 0
M  V30 1327 C 130.299 -3.30095 -1.07956 0
M  V30 1328 C 129.253 -4.25858 -0.427628 0
M  V30 1329 C 128.579 -5.12361 -1.5294 0
M  V30 1330 C 129.879 -5.18165 0.655944 0
M  V30 1331 H 131.573 -2.92254 0.650224 0
M  V30 1332 H 129.119 -1.40532 0.314138 0
M  V30 1333 H 131.072 -3.90698 -1.57901 0
M  V30 1334 H 129.796 -2.69355 -1.84703 0
M  V30 1335 H 128.455 -3.66564 0.0510292 0
M  V30 1336 H 128.103 -4.47984 -2.28734 0
M  V30 1337 H 127.803 -5.77238 -1.09865 0
M  V30 1338 H 129.327 -5.75833 -2.03098 0
M  V30 1339 H 130.741 -5.72796 0.240257 0
M  V30 1340 H 129.138 -5.91559 1.00888 0
M  V30 1341 H 130.208 -4.60144 1.52957 0
M  V30 1342 N 131.551 -0.354651 -1.53558 0
M  V30 1343 C 132.481 0.489091 -2.2832 0
M  V30 1344 C 133.462 1.09324 -1.30316 0
M  V30 1345 O 134.647 1.11255 -1.59173 0
M  V30 1346 C 131.777 1.63456 -3.0643 0
M  V30 1347 C 130.731 1.1582 -4.12031 0
M  V30 1348 C 130.057 2.39305 -4.7816 0
M  V30 1349 C 131.357 0.250731 -5.21698 0
M  V30 1350 H 133.051 -0.134614 -2.99097 0
M  V30 1351 H 130.597 -0.0661826 -1.43848 0
M  V30 1352 H 132.55 2.23136 -3.57475 0
M  V30 1353 H 131.274 2.28533 -2.33325 0
M  V30 1354 H 129.933 0.584146 -3.61916 0
M  V30 1355 H 129.581 3.02814 -4.01637 0
M  V30 1356 H 129.281 2.08109 -5.49513 0
M  V30 1357 H 130.805 2.99691 -5.31994 0
M  V30 1358 H 132.219 0.754695 -5.68311 0
M  V30 1359 H 130.616 0.0301468 -6.00092 0
M  V30 1360 H 131.686 -0.710125 -4.79672 0
M  V30 1361 N 133.029 1.57378 -0.0835403 0
M  V30 1362 C 134.445 1.57246 0.273109 0
M  V30 1363 C 134.645 1.09385 1.69225 0
M  V30 1364 O 133.701 0.765051 2.40631 0
M  V30 1365 C 135.014 3.00614 0.0720628 0
M  V30 1366 C 136.562 3.12684 0.1407 0
M  V30 1367 C 137.037 4.57989 -0.0322094 0
M  V30 1368 N 138.528 4.63194 0.0230085 0
M  V30 1369 C 139.263 5.73335 -0.0861941 0
M  V30 1370 N 138.759 6.9235 -0.24958 0
M  V30 1371 N 140.552 5.62093 -0.0282886 0
M  V30 1372 H 132.703 1.86801 -1.0109 0
M  V30 1373 H 134.966 0.861687 -0.395222 0
M  V30 1374 H 134.672 3.39786 -0.907662 0
M  V30 1375 H 134.546 3.68193 0.81936 0
M  V30 1376 H 136.933 2.73391 1.11092 0
M  V30 1377 H 137.014 2.47719 -0.637896 0
M  V30 1378 H 136.658 4.97973 -0.999247 0
M  V30 1379 H 136.588 5.21 0.765937 0
M  V30 1380 H 139.079 3.77613 0.14722 0
M  V30 1381 H 139.392 7.72117 -0.324733 0
M  V30 1382 H 137.737 6.94415 -0.285097 0
M  V30 1383 H 140.928 4.67997 0.0981408 0
M  V30 1384 H 141.101 6.47895 -0.116845 0
M  V30 1385 N 134.507 -0.190092 1.56449 0
M  V30 1386 C 135.437 -1.23816 1.97969 0
M  V30 1387 C 136.418 -1.47201 0.852395 0
M  V30 1388 O 137.603 -1.58854 1.1171 0
M  V30 1389 C 134.733 -2.5813 2.3235 0
M  V30 1390 C 133.687 -2.49348 3.47864 0
M  V30 1391 C 133.013 -3.8798 3.67934 0
M  V30 1392 C 134.313 -2.01424 4.81898 0
M  V30 1393 H 136.007 -0.89311 2.85769 0
M  V30 1394 H 133.553 -0.428177 1.37487 0
M  V30 1395 H 135.506 -3.31637 2.59991 0
M  V30 1396 H 134.23 -2.94386 1.41438 0
M  V30 1397 H 132.889 -1.78297 3.20321 0
M  V30 1398 H 132.537 -4.21597 2.74344 0
M  V30 1399 H 132.237 -3.82978 4.45648 0
M  V30 1400 H 133.761 -4.63101 3.97957 0
M  V30 1401 H 135.175 -2.64693 5.08538 0
M  V30 1402 H 133.572 -2.07413 5.63116 0
M  V30 1403 H 134.642 -0.967677 4.75146 0
M  V30 1404 N 135.985 -1.50799 -0.457987 0
M  V30 1405 C 137.232 -1.62442 -1.20908 0
M  V30 1406 C 137.56 -0.330865 -1.91665 0
M  V30 1407 O 136.815 0.68401 -1.83357 0
M  V30 1408 C 137.114 -2.76358 -2.2663 0
M  V30 1409 C 136.78 -4.16378 -1.73033 0
M  V30 1410 C 135.442 -4.54473 -1.58138 0
M  V30 1411 C 137.794 -5.03836 -1.33413 0
M  V30 1412 C 135.122 -5.77754 -1.02065 0
M  V30 1413 C 137.474 -6.27676 -0.78778 0
M  V30 1414 C 136.138 -6.64562 -0.625561 0
M  V30 1415 H 135.408 -0.594417 -0.442435 0
M  V30 1416 H 138.055 -1.84772 -0.503136 0
M  V30 1417 H 136.36 -2.48167 -3.03184 0
M  V30 1418 H 138.057 -2.82568 -2.84528 0
M  V30 1419 H 134.647 -3.86331 -1.85598 0
M  V30 1420 H 138.831 -4.75026 -1.4375 0
M  V30 1421 H 134.087 -6.04997 -0.882547 0
M  V30 1422 H 138.261 -6.94797 -0.472177 0
M  V30 1423 H 135.888 -7.59965 -0.188926 0
M  V30 1424 N 137.463 0.71206 -1.40597 0
M  V30 1425 C 138.393 1.83889 -1.43899 0
M  V30 1426 C 139.374 1.67442 -0.299504 0
M  V30 1427 O 140.559 1.87421 -0.508624 0
M  V30 1428 C 137.689 3.21877 -1.30431 0
M  V30 1429 C 136.643 3.53002 -2.42019 0
M  V30 1430 C 135.969 4.90172 -2.13626 0
M  V30 1431 C 137.269 3.53643 -3.84362 0
M  V30 1432 H 138.963 1.81383 -2.38203 0
M  V30 1433 H 136.509 0.871237 -1.14654 0
M  V30 1434 H 138.462 4.00404 -1.31357 0
M  V30 1435 H 137.186 3.24968 -0.326049 0
M  V30 1436 H 135.845 2.76818 -2.40349 0
M  V30 1437 H 135.493 4.89869 -1.14182 0
M  V30 1438 H 135.193 5.11962 -2.88389 0
M  V30 1439 H 136.717 5.71028 -2.1624 0
M  V30 1440 H 138.131 4.22203 -3.87837 0
M  V30 1441 H 136.528 3.86961 -4.58673 0
M  V30 1442 H 137.598 2.52954 -4.13693 0
M  V30 1443 N 138.941 1.26152 0.944643 0
M  V30 1444 C 140.218 1.02247 1.66748 0
M  V30 1445 C 140.598 -0.448202 2.06287 0
M  V30 1446 O 139.946 -1.42779 1.78399 0
M  V30 1447 C 140.156 1.96788 2.88228 0
M  V30 1448 C 141.504 2.25201 3.59958 0
M  V30 1449 O 142.528 1.94626 2.98327 0
M  V30 1450 O 141.387 2.77242 4.70956 0
M  V30 1451 H 138.481 0.388517 0.730057 0
M  V30 1452 H 141.027 1.37348 0.99668 0
M  V30 1453 H 139.799 2.96047 2.55875 0
M  V30 1454 H 139.422 1.62145 3.63035 0
M  V30 1455 N 140.419 -1.14872 1.07899 0
M  V30 1456 C 141.835 -1.37776 0.805606 0
M  V30 1457 C 142.035 -1.92743 -0.587555 0
M  V30 1458 O 141.091 -2.13678 -1.34528 0
M  V30 1459 C 142.404 -2.34361 1.88402 0
M  V30 1460 C 143.952 -2.48012 1.90942 0
M  V30 1461 C 144.427 -3.47893 2.97883 0
M  V30 1462 N 145.918 -3.55433 2.97021 0
M  V30 1463 C 146.653 -4.32553 3.76412 0
M  V30 1464 N 146.149 -5.12959 4.65666 0
M  V30 1465 N 147.942 -4.27697 3.64735 0
M  V30 1466 H 140.093 -0.775365 1.97742 0
M  V30 1467 H 142.356 -0.403521 0.857831 0
M  V30 1468 H 142.062 -2.01098 2.88535 0
M  V30 1469 H 141.936 -3.34206 1.74889 0
M  V30 1470 H 144.323 -2.8057 0.914579 0
M  V30 1471 H 144.404 -1.48147 2.08534 0
M  V30 1472 H 144.048 -3.16069 3.97571 0
M  V30 1473 H 143.978 -4.47527 2.77538 0
M  V30 1474 H 146.469 -2.98048 2.32326 0
M  V30 1475 H 146.782 -5.69065 5.22862 0
M  V30 1476 H 145.127 -5.12245 4.69712 0
M  V30 1477 H 148.318 -3.63949 2.94378 0
M  V30 1478 H 148.491 -4.8755 4.26848 0
M  V30 1479 N 141.898 -0.863906 -1.31812 0
M  V30 1480 C 143.175 -0.39275 -1.91616 0
M  V30 1481 C 143.555 1.12461 -1.7865 0
M  V30 1482 O 142.903 1.95045 -1.19037 0
M  V30 1483 C 143.113 -0.867385 -3.38049 0
M  V30 1484 C 144.461 -0.889966 -4.15168 0
M  V30 1485 O 145.485 -0.812635 -3.46806 0
M  V30 1486 O 144.344 -1.00079 -5.37258 0
M  V30 1487 H 141.438 -0.116358 -0.818773 0
M  V30 1488 H 143.984 -0.951418 -1.40521 0
M  V30 1489 H 142.756 -1.91081 -3.41473 0
M  V30 1490 H 142.379 -0.286687 -3.96565 0
M  V30 1491 N 143.376 1.44774 -0.622745 0
M  V30 1492 C 144.306 2.33382 0.0741861 0
M  V30 1493 C 145.287 1.47719 0.843387 0
M  V30 1494 O 146.472 1.76458 0.810934 0
M  V30 1495 C 143.602 3.30663 1.06204 0
M  V30 1496 C 142.556 4.26079 0.405037 0
M  V30 1497 C 141.882 5.13165 1.5022 0
M  V30 1498 C 143.182 5.1781 -0.683414 0
M  V30 1499 H 144.876 2.91905 -0.665713 0
M  V30 1500 H 142.422 1.40363 -0.321587 0
M  V30 1501 H 144.375 3.9153 1.55827 0
M  V30 1502 H 143.099 2.70331 1.83272 0
M  V30 1503 H 141.758 3.66532 -0.0704683 0
M  V30 1504 H 141.406 4.49191 2.26355 0
M  V30 1505 H 141.106 5.77812 1.06803 0
M  V30 1506 H 142.63 5.76902 2.00041 0
M  V30 1507 H 144.044 5.72661 -0.270631 0
M  V30 1508 H 142.441 5.91015 -1.04023 0
M  V30 1509 H 143.511 4.59326 -1.55395 0
M  V30 1510 N 144.854 0.36279 1.53368 0
M  V30 1511 C 145.787 -0.528507 2.21996 0
M  V30 1512 C 146.765 -1.0852 1.21087 0
M  V30 1513 O 147.949 -1.14186 1.4998 0
M  V30 1514 C 145.076 -1.72893 2.91249 0
M  V30 1515 C 144.122 -1.29994 4.06207 0
M  V30 1516 S 144.955 -0.303575 5.34639 0
M  V30 1517 C 146.111 -1.51039 6.07403 0
M  V30 1518 H 146.344 0.0543423 2.9725 0
M  V30 1519 H 143.877 0.146889 1.537 0
M  V30 1520 H 145.835 -2.41751 3.31763 0
M  V30 1521 H 144.496 -2.28303 2.15724 0
M  V30 1522 H 143.689 -2.19549 4.53667 0
M  V30 1523 H 143.291 -0.690608 3.67569 0
M  V30 1524 H 145.583 -2.44186 6.31965 0
M  V30 1525 H 146.526 -1.07721 6.99858 0
M  V30 1526 H 146.934 -1.71518 5.37812 0
M  V30 1527 N 146.332 -1.57332 0.0918853 0
M  V30 1528 C 147.56 -1.98574 -0.581048 0
M  V30 1529 C 147.975 -0.970903 -1.61923 0
M  V30 1530 O 147.332 0.0399054 -1.82456 0
M  V30 1531 C 147.383 -3.39872 -1.23164 0
M  V30 1532 O 147.104 -4.37469 -0.234989 0
M  V30 1533 C 148.605 -3.96099 -1.99049 0
M  V30 1534 H 145.825 -0.65261 -0.156018 0
M  V30 1535 H 148.369 -2.0379 0.170225 0
M  V30 1536 H 146.524 -3.35679 -1.93386 0
M  V30 1537 H 146.938 -5.19751 -0.70418 0
M  V30 1538 H 148.412 -4.97127 -2.39934 0
M  V30 1539 H 148.889 -3.3374 -2.85507 0
M  V30 1540 H 149.495 -4.03755 -1.3365 0
M  V30 1541 N 147.81 0.181792 -1.56548 0
M  V30 1542 C 148.74 1.22765 -1.98623 0
M  V30 1543 C 149.721 1.46747 -0.860189 0
M  V30 1544 O 150.906 1.58259 -1.12551 0
M  V30 1545 C 148.036 2.56894 -2.33715 0
M  V30 1546 C 146.99 2.475 -3.49182 0
M  V30 1547 C 146.316 3.86023 -3.69986 0
M  V30 1548 C 147.616 1.98866 -4.82959 0
M  V30 1549 H 149.31 0.877942 -2.86239 0
M  V30 1550 H 146.856 0.42088 -1.37712 0
M  V30 1551 H 148.809 3.30253 -2.61746 0
M  V30 1552 H 147.533 2.93632 -1.42997 0
M  V30 1553 H 146.192 1.76596 -3.21262 0
M  V30 1554 H 145.84 4.20136 -2.76576 0
M  V30 1555 H 145.54 3.80609 -4.47672 0
M  V30 1556 H 147.064 4.60984 -4.00407 0
M  V30 1557 H 148.478 2.61992 -5.09934 0
M  V30 1558 H 146.875 2.04424 -5.64208 0
M  V30 1559 H 147.945 0.942465 -4.75653 0
M  V30 1560 N 149.288 1.51039 0.449983 0
M  V30 1561 C 150.699 1.557 1.03026 0
M  V30 1562 C 151.05 0.372939 1.92623 0
M  V30 1563 O 150.175 -0.511771 2.10261 0
M  V30 1564 C 150.77 2.82171 1.87523 0
M  V30 1565 C 149.329 2.89444 2.40622 0
M  V30 1566 C 148.476 2.50228 1.19504 0
M  V30 1567 H 151.427 1.56999 0.231745 0
M  V30 1568 H 151.448 2.65219 2.72835 0
M  V30 1569 H 150.96 3.68331 1.22286 0
M  V30 1570 H 149.061 2.07685 3.0935 0
M  V30 1571 H 149.174 3.92816 2.74285 0
M  V30 1572 H 147.538 2.03139 1.53644 0
M  V30 1573 H 148.321 3.38719 0.558972 0
M  V30 1574 N 150.766 -0.704594 1.40972 0
M  V30 1575 C 152.015 -1.46018 1.39146 0
M  V30 1576 C 152.328 -1.956 0.000589254 0
M  V30 1577 O 153.534 -2.71137 -0.1403 0
M  V30 1578 C 151.99 -2.63996 2.4461 0
M  V30 1579 C 151.598 -2.21238 3.89561 0
M  V30 1580 C 153.342 -3.41677 2.51907 0
M  V30 1581 C 151.249 -3.3612 4.86598 0
M  V30 1582 H 150.179 -0.548444 0.517422 0
M  V30 1583 H 152.83 -0.765784 1.66757 0
M  V30 1584 H 151.212 -3.3566 2.10115 0
M  V30 1585 H 152.386 -1.56923 4.33257 0
M  V30 1586 H 150.701 -1.56574 3.85841 0
M  V30 1587 H 153.298 -4.27182 3.2159 0
M  V30 1588 H 153.641 -3.86247 1.55303 0
M  V30 1589 H 154.174 -2.77064 2.85448 0
M  V30 1590 H 150.913 -2.96572 5.84573 0
M  V30 1591 H 150.433 -3.99315 4.47557 0
M  V30 1592 H 152.112 -4.02029 5.06934 0
M  V30 1593 N 152.244 -1.26651 -0.937939 0
M  V30 1594 C 153.176 -1.04283 -2.04102 0
M  V30 1595 C 154.189 -0.00221014 -1.628 0
M  V30 1596 O 155.378 -0.242645 -1.76843 0
M  V30 1597 C 152.478 -0.557846 -3.34277 0
M  V30 1598 C 151.651 -1.66843 -4.04329 0
M  V30 1599 C 150.71 -1.18095 -5.12777 0
M  V30 1600 O 149.736 -1.87865 -5.37304 0
M  V30 1601 N 150.938 -0.0311006 -5.80492 0
M  V30 1602 H 153.703 -1.9927 -2.23856 0
M  V30 1603 H 151.264 -1.1808 -1.10764 0
M  V30 1604 H 153.256 -0.215836 -4.04124 0
M  V30 1605 H 151.826 0.298523 -3.11171 0
M  V30 1606 H 151.046 -2.18123 -3.28353 0
M  V30 1607 H 152.334 -2.41408 -4.47883 0
M  V30 1608 H 151.732 0.551486 -5.63005 0
M  V30 1609 H 150.289 0.251809 -6.51313 0
M  V30 1610 N 153.722 1.14298 -1.08507 0
M  V30 1611 C 154.67 2.21483 -0.710483 0
M  V30 1612 C 155.664 1.66998 0.284234 0
M  V30 1613 O 156.87 1.79401 0.146692 0
M  V30 1614 H 153.245 0.721578 -0.211729 0
M  V30 1615 H 155.216 2.50348 -1.62384 0
M  V30 1616 C 153.965 3.4743 -0.137007 0
M  V30 1617 H 153.288 3.89686 -0.893592 0
M  V30 1618 H 154.728 4.2391 0.0872789 0
M  V30 1619 C 153.187 3.17548 1.12538 0
M  V30 1620 O 153.717 3.35437 2.21009 0
M  V30 1621 N 151.923 2.71499 1.03617 0
M  V30 1622 H 151.47 2.57143 0.153403 0
M  V30 1623 H 151.428 2.51881 1.88158 0
M  V30 1624 N 155.201 0.870884 1.31352 0
M  V30 1625 C 156.148 0.325425 2.28494 0
M  V30 1626 C 157.118 -0.576615 1.5577 0
M  V30 1627 O 158.303 -0.508059 1.83911 0
M  V30 1628 C 155.443 -0.466283 3.41935 0
M  V30 1629 C 154.556 0.463378 4.29508 0
M  V30 1630 C 153.691 -0.342544 5.30094 0
M  V30 1631 C 152.73 0.583486 6.09313 0
M  V30 1632 N 151.867 -0.186244 7.01853 0
M  V30 1633 H 156.707 1.15901 2.74538 0
M  V30 1634 H 154.244 0.58294 1.35056 0
M  V30 1635 H 156.202 -0.941085 4.06447 0
M  V30 1636 H 154.832 -1.26456 2.97 0
M  V30 1637 H 153.884 1.05663 3.65431 0
M  V30 1638 H 155.196 1.1734 4.84802 0
M  V30 1639 H 154.35 -0.879816 6.00287 0
M  V30 1640 H 153.089 -1.08585 4.75458 0
M  V30 1641 H 152.094 1.13251 5.3801 0
M  V30 1642 H 153.319 1.32566 6.66035 0
M  V30 1643 H 151.265 -0.912348 6.49625 0
M  V30 1644 H 151.182 0.464422 7.54572 0
M  V30 1645 H 152.45 -0.704716 7.76308 0
M  V30 1646 N 156.679 -1.44442 0.630414 0
M  V30 1647 C 157.609 -2.33418 -0.0618083 0
M  V30 1648 C 158.59 -1.48165 -0.835541 0
M  V30 1649 O 159.775 -1.76886 -0.801564 0
M  V30 1650 C 156.905 -3.31222 -1.04449 0
M  V30 1651 C 155.859 -4.26288 -0.382436 0
M  V30 1652 C 155.185 -5.13954 -1.47497 0
M  V30 1653 C 156.485 -5.1744 0.710865 0
M  V30 1654 H 158.179 -2.91548 0.681184 0
M  V30 1655 H 155.725 -1.40191 0.329026 0
M  V30 1656 H 157.678 -3.92351 -1.53748 0
M  V30 1657 H 156.402 -2.71299 -1.81836 0
M  V30 1658 H 155.061 -3.6649 0.0899054 0
M  V30 1659 H 154.709 -4.50385 -2.2397 0
M  V30 1660 H 154.409 -5.7837 -1.03737 0
M  V30 1661 H 155.933 -5.77955 -1.96979 0
M  V30 1662 H 157.347 -5.72509 0.300996 0
M  V30 1663 H 155.744 -5.90455 1.07156 0
M  V30 1664 H 156.814 -4.58496 1.57829 0
M  V30 1665 N 158.157 -0.370918 -1.53173 0
M  V30 1666 C 159.12 0.460778 -2.24521 0
M  V30 1667 C 160.12 1.00536 -1.25496 0
M  V30 1668 O 161.31 0.890266 -1.49733 0
M  V30 1669 C 158.442 1.64457 -2.98608 0
M  V30 1670 H 159.635 -0.163613 -2.99453 0
M  V30 1671 H 157.188 -0.122699 -1.55818 0
M  V30 1672 H 157.923 2.30691 -2.2793 0
M  V30 1673 H 157.708 1.26099 -3.7127 0
M  V30 1674 H 159.198 2.23384 -3.5283 0
M  V30 1675 N 159.635 1.57281 -0.100228 0
M  V30 1676 C 161.046 1.81725 0.428107 0
M  V30 1677 C 161.397 1.01619 1.67833 0
M  V30 1678 O 160.522 0.247098 2.14985 0
M  V30 1679 C 161.117 3.29617 0.78347 0
M  V30 1680 C 159.676 3.54808 1.25653 0
M  V30 1681 C 158.823 2.76118 0.255752 0
M  V30 1682 H 161.774 1.55324 -0.325608 0
M  V30 1683 H 161.795 3.4322 1.64256 0
M  V30 1684 H 161.307 3.87893 -0.12665 0
M  V30 1685 H 159.408 3.01868 2.18418 0
M  V30 1686 H 159.521 4.63443 1.21482 0
M  V30 1687 H 157.885 2.43745 0.738956 0
M  V30 1688 H 158.668 3.37145 -0.647136 0
M  V30 1689 N 161.113 -0.173488 1.56642 0
M  V30 1690 C 162.36 -0.890465 1.81871 0
M  V30 1691 C 162.688 -1.82339 0.67696 0
M  V30 1692 O 161.943 -1.92795 -0.335926 0
M  V30 1693 C 162.242 -1.72069 3.13252 0
M  V30 1694 C 161.908 -0.936878 4.41059 0
M  V30 1695 C 160.57 -0.720545 4.75775 0
M  V30 1696 C 162.922 -0.386919 5.19762 0
M  V30 1697 C 160.25 0.0568829 5.86672 0
M  V30 1698 C 162.602 0.37741 6.31473 0
M  V30 1699 C 161.266 0.604563 6.64757 0
M  V30 1700 H 160.536 -0.325844 0.665512 0
M  V30 1701 H 163.183 -0.155527 1.90867 0
M  V30 1702 H 161.488 -2.52496 2.99588 0
M  V30 1703 H 163.185 -2.27844 3.29982 0
M  V30 1704 H 159.775 -1.11553 4.13828 0
M  V30 1705 H 163.959 -0.541398 4.93338 0
M  V30 1706 H 159.215 0.242635 6.10918 0
M  V30 1707 H 163.389 0.810825 6.91664 0
M  V30 1708 H 161.016 1.20885 7.50527 0
M  V30 1709 N 162.591 -1.51276 -0.441967 0
M  V30 1710 C 163.84 -1.6295 -1.18871 0
M  V30 1711 C 164.153 -0.349312 -1.92456 0
M  V30 1712 O 165.359 -0.345355 -2.69295 0
M  V30 1713 C 163.815 -2.87759 -2.16155 0
M  V30 1714 C 163.423 -4.22764 -1.48239 0
M  V30 1715 C 165.167 -3.08788 -2.91291 0
M  V30 1716 C 163.074 -5.38728 -2.4398 0
M  V30 1717 H 162.004 -0.606913 -0.447406 0
M  V30 1718 H 164.655 -1.77739 -0.456205 0
M  V30 1719 H 163.037 -2.66593 -2.92821 0
M  V30 1720 H 164.211 -4.54293 -0.771635 0
M  V30 1721 H 162.526 -4.07575 -0.852741 0
M  V30 1722 H 165.123 -3.92599 -3.63002 0
M  V30 1723 H 165.466 -2.21679 -3.5237 0
M  V30 1724 H 165.999 -3.30272 -2.21733 0
M  V30 1725 H 162.738 -6.28082 -1.87598 0
M  V30 1726 H 162.258 -5.1158 -3.13123 0
M  V30 1727 H 163.937 -5.70489 -3.05207 0
M  V30 1728 N 164.069 0.697108 -1.41344 0
M  V30 1729 C 165.032 1.79281 -1.42797 0
M  V30 1730 C 166.032 1.57607 -0.318837 0
M  V30 1731 O 167.222 1.64309 -0.578642 0
M  V30 1732 C 164.354 3.17632 -1.23785 0
M  V30 1733 H 165.547 1.79385 -2.40335 0
M  V30 1734 H 163.1 0.904582 -1.27464 0
M  V30 1735 H 163.835 3.23167 -0.270814 0
M  V30 1736 H 163.62 3.34765 -2.04144 0
M  V30 1737 H 165.11 3.97617 -1.27633 0
M  V30 1738 N 165.547 1.27147 0.931209 0
M  V30 1739 C 166.494 1.09568 2.03134 0
M  V30 1740 C 167.464 -0.00222433 1.661 0
M  V30 1741 O 168.649 0.159439 1.90133 0
M  V30 1742 C 165.789 0.745231 3.36957 0
M  V30 1743 C 164.902 1.92041 3.86968 0
M  V30 1744 C 164.037 1.51216 5.09222 0
M  V30 1745 C 163.076 2.65504 5.5152 0
M  V30 1746 N 162.213 2.25291 6.64972 0
M  V30 1747 H 167.053 2.03708 2.17502 0
M  V30 1748 H 164.59 1.01411 1.06556 0
M  V30 1749 H 166.548 0.522878 4.1391 0
M  V30 1750 H 165.178 -0.159202 3.22407 0
M  V30 1751 H 164.23 2.25541 3.06326 0
M  V30 1752 H 165.542 2.77787 4.1429 0
M  V30 1753 H 164.696 1.25084 5.93666 0
M  V30 1754 H 163.435 0.625749 4.83669 0
M  V30 1755 H 162.44 2.92354 4.65628 0
M  V30 1756 H 163.665 3.54761 5.7907 0
M  V30 1757 H 161.611 1.39098 6.41083 0
M  V30 1758 H 161.528 3.04577 6.91931 0
M  V30 1759 H 162.796 2.02398 7.52765 0
M  V30 1760 N 167.025 -1.13721 1.09112 0
M  V30 1761 C 168.441 -1.36914 0.820174 0
M  V30 1762 C 168.641 -1.93356 -0.567079 0
M  V30 1763 O 167.697 -2.15093 -1.32255 0
M  V30 1764 C 169.01 -2.3235 1.90877 0
M  V30 1765 C 170.558 -2.45973 1.93562 0
M  V30 1766 C 171.033 -3.44714 3.01556 0
M  V30 1767 N 172.524 -3.52263 3.00775 0
M  V30 1768 C 173.259 -4.28536 3.80978 0
M  V30 1769 N 172.755 -5.07991 4.71081 0
M  V30 1770 N 174.548 -4.23804 3.69251 0
M  V30 1771 H 166.699 -0.754348 1.98553 0
M  V30 1772 H 168.962 -0.3944 0.862063 0
M  V30 1773 H 168.668 -1.98027 2.90651 0
M  V30 1774 H 168.542 -3.32332 1.78424 0
M  V30 1775 H 170.929 -2.79584 0.944286 0
M  V30 1776 H 171.01 -1.45926 2.10093 0
M  V30 1777 H 170.654 -3.11835 4.00901 0
M  V30 1778 H 170.584 -4.44558 2.82269 0
M  V30 1779 H 173.075 -2.95567 2.35475 0
M  V30 1780 H 173.388 -5.63487 5.28869 0
M  V30 1781 H 171.733 -5.07235 4.75119 0
M  V30 1782 H 174.924 -3.60806 2.98222 0
M  V30 1783 H 175.097 -4.82995 4.31995 0
M  V30 1784 N 168.503 -0.877838 -1.30888 0
M  V30 1785 C 169.919 -0.570844 -1.49042 0
M  V30 1786 C 170.119 0.893159 -1.80624 0
M  V30 1787 O 169.175 1.67485 -1.88958 0
M  V30 1788 C 170.488 -1.47784 -2.61878 0
M  V30 1789 C 172.036 -1.48071 -2.75761 0
M  V30 1790 C 172.511 -2.37347 -3.91702 0
M  V30 1791 N 174.002 -2.35271 -3.99001 0
M  V30 1792 C 174.737 -3.01063 -4.88004 0
M  V30 1793 N 174.233 -3.76055 -5.81854 0
M  V30 1794 N 176.026 -2.90332 -4.81315 0
M  V30 1795 H 168.177 -1.82502 -1.0866 0
M  V30 1796 H 170.44 -0.780797 -0.537644 0
M  V30 1797 H 170.146 -2.51993 -2.45341 0
M  V30 1798 H 170.02 -1.18215 -3.58197 0
M  V30 1799 H 172.407 -0.446166 -2.91708 0
M  V30 1800 H 172.488 -1.81668 -1.80085 0
M  V30 1801 H 172.132 -3.40883 -3.76512 0
M  V30 1802 H 172.062 -2.01071 -4.86701 0
M  V30 1803 H 174.553 -1.80768 -3.3186 0
M  V30 1804 H 174.866 -4.23366 -6.46514 0
M  V30 1805 H 173.211 -3.80163 -5.81808 0
M  V30 1806 H 176.402 -2.31278 -4.06974 0
M  V30 1807 H 176.575 -3.41885 -5.50471 0
M  V30 1808 N 169.982 1.44106 -0.638065 0
M  V30 1809 C 171.21 2.06336 -0.152615 0
M  V30 1810 C 171.625 1.47731 1.17563 0
M  V30 1811 O 170.982 0.602806 1.72257 0
M  V30 1812 C 171.033 3.61479 -0.0391491 0
M  V30 1813 O 170.754 4.17903 -1.31487 0
M  V30 1814 C 172.255 4.40757 0.474176 0
M  V30 1815 H 169.475 0.665862 -0.0828776 0
M  V30 1816 H 172.019 1.84862 -0.87443 0
M  V30 1817 H 170.174 3.82191 0.633142 0
M  V30 1818 H 170.588 5.11416 -1.16421 0
M  V30 1819 H 172.062 5.49707 0.502562 0
M  V30 1820 H 172.539 4.12697 1.50258 0
M  V30 1821 H 173.145 4.24979 -0.165102 0
M  V30 1822 N 171.46 0.379036 1.52974 0
M  V30 1823 C 172.871 -0.0972525 1.86447 0
M  V30 1824 C 173.222 -1.47027 1.29914 0
M  V30 1825 O 172.347 -2.07135 0.626433 0
M  V30 1826 C 172.942 -0.183248 3.38304 0
M  V30 1827 C 171.501 -0.603812 3.71525 0
M  V30 1828 C 170.648 0.240632 2.76254 0
M  V30 1829 H 173.599 0.597316 1.4703 0
M  V30 1830 H 173.62 -1.00432 3.67006 0
M  V30 1831 H 173.132 0.816191 3.79421 0
M  V30 1832 H 171.233 -1.61099 3.35973 0
M  V30 1833 H 171.346 -0.369086 4.77676 0
M  V30 1834 H 169.71 -0.292548 2.53014 0
M  V30 1835 H 170.493 1.23786 3.20206 0
M  V30 1836 N 172.938 -1.57226 0.108567 0
M  V30 1837 C 173.885 -2.14756 -0.845481 0
M  V30 1838 C 174.855 -1.06971 -1.27068 0
M  V30 1839 O 176.04 -1.34827 -1.35005 0
M  V30 1840 C 173.18 -2.74298 -2.09415 0
M  V30 1841 C 172.293 -3.96358 -1.71826 0
M  V30 1842 C 171.428 -4.44021 -2.9158 0
M  V30 1843 C 170.467 -5.58637 -2.50181 0
M  V30 1844 N 169.604 -6.01091 -3.62814 0
M  V30 1845 H 174.444 -2.95961 -0.348035 0
M  V30 1846 H 171.981 -1.46226 -0.160106 0
M  V30 1847 H 173.939 -3.06945 -2.82561 0
M  V30 1848 H 172.569 -1.95801 -2.56636 0
M  V30 1849 H 171.621 -3.69939 -0.885947 0
M  V30 1850 H 172.933 -4.79504 -1.37394 0
M  V30 1851 H 172.087 -4.78522 -3.72963 0
M  V30 1852 H 170.826 -3.59803 -3.29231 0
M  V30 1853 H 169.831 -5.23751 -1.67228 0
M  V30 1854 H 171.056 -6.44613 -2.13659 0
M  V30 1855 H 169.002 -5.19817 -4.00158 0
M  V30 1856 H 168.919 -6.79066 -3.32273 0
M  V30 1857 H 170.187 -6.40227 -4.44668 0
M  V30 1858 N 174.416 0.165178 -1.56732 0
M  V30 1859 C 175.665 0.879143 -1.81532 0
M  V30 1860 C 175.978 1.83144 -0.686842 0
M  V30 1861 O 177.184 2.58823 -0.819944 0
M  V30 1862 C 175.64 1.61388 -3.21686 0
M  V30 1863 C 175.248 0.704904 -4.4242 0
M  V30 1864 C 176.992 2.3157 -3.55774 0
M  V30 1865 C 174.899 1.44022 -5.73595 0
M  V30 1866 H 173.829 0.332033 -0.676957 0
M  V30 1867 H 176.48 0.132008 -1.83025 0
M  V30 1868 H 174.862 2.40599 -3.14529 0
M  V30 1869 H 176.036 -0.0506815 -4.60772 0
M  V30 1870 H 174.351 0.112419 -4.16248 0
M  V30 1871 H 176.948 2.8719 -4.51028 0
M  V30 1872 H 177.291 3.07201 -2.8095 0
M  V30 1873 H 177.824 1.59297 -3.64513 0
M  V30 1874 H 174.563 0.72612 -6.51466 0
M  V30 1875 H 174.083 2.16898 -5.5921 0
M  V30 1876 H 175.762 1.98606 -6.15764 0
M  V30 1877 N 175.894 1.51508 0.433938 0
M  V30 1878 C 176.826 1.69266 1.54537 0
M  V30 1879 C 177.839 0.573276 1.52373 0
M  V30 1880 O 179.028 0.847698 1.57087 0
M  V30 1881 C 176.128 1.69524 2.93453 0
M  V30 1882 C 175.301 2.98101 3.20085 0
M  V30 1883 C 174.36 2.90502 4.38742 0
M  V30 1884 O 173.386 3.64442 4.3723 0
M  V30 1885 N 174.588 2.06586 5.42496 0
M  V30 1886 H 177.353 2.65145 1.39708 0
M  V30 1887 H 174.914 1.49437 0.622922 0
M  V30 1888 H 176.906 1.62004 3.70859 0
M  V30 1889 H 175.476 0.812245 3.01863 0
M  V30 1890 H 174.696 3.19464 2.30947 0
M  V30 1891 H 175.984 3.83207 3.34708 0
M  V30 1892 H 175.382 1.45896 5.46563 0
M  V30 1893 H 173.939 2.04943 6.18742 0
M  V30 1894 N 177.372 -0.689602 1.41712 0
M  V30 1895 C 178.282 -1.83314 1.46401 0
M  V30 1896 C 179.298 -1.7036 0.35405 0
M  V30 1897 O 180.474 -1.92171 0.602692 0
M  V30 1898 C 177.539 -3.19344 1.34982 0
M  V30 1899 C 176.6 -3.44363 2.56344 0
M  V30 1900 C 175.833 -4.73904 2.45461 0
M  V30 1901 O 176.056 -5.508 1.48241 0
M  V30 1902 O 174.99 -4.99839 3.35328 0
M  V30 1903 H 178.816 -1.82314 2.42889 0
M  V30 1904 H 176.401 -0.843438 1.23315 0
M  V30 1905 H 178.283 -4.00547 1.3092 0
M  V30 1906 H 176.958 -3.21014 0.41612 0
M  V30 1907 H 175.865 -2.63067 2.65982 0
M  V30 1908 H 177.198 -3.47512 3.48563 0
M  V30 1909 N 178.85 -1.27639 -0.924453 0
M  V30 1910 C 179.782 -1.06442 -2.02985 0
M  V30 1911 C 180.795 -0.0194771 -1.62788 0
M  V30 1912 O 181.984 -0.261388 -1.76576 0
M  V30 1913 C 179.084 -0.59327 -3.33667 0
M  V30 1914 C 178.257 -1.71123 -4.02537 0
M  V30 1915 C 177.316 -1.23527 -5.11495 0
M  V30 1916 O 176.342 -1.93553 -5.35281 0
M  V30 1917 N 177.544 -0.0926678 -5.80426 0
M  V30 1918 H 180.309 -2.01633 -2.2173 0
M  V30 1919 H 177.87 -1.19248 -1.09505 0
M  V30 1920 H 179.862 -0.258686 -4.03872 0
M  V30 1921 H 178.432 0.265502 -3.1147 0
M  V30 1922 H 177.652 -2.21593 -3.26022 0
M  V30 1923 H 178.94 -2.46145 -4.45298 0
M  V30 1924 H 178.338 0.491741 -5.63559 0
M  V30 1925 H 176.895 0.182714 -6.51544 0
M  V30 1926 N 180.328 1.1314 -1.09713 0
M  V30 1927 C 181.558 1.88048 -0.855656 0
M  V30 1928 C 181.966 1.79537 0.596919 0
M  V30 1929 O 181.309 1.16196 1.42282 0
M  V30 1930 C 181.371 3.38314 -1.21589 0
M  V30 1931 C 181.035 3.70605 -2.67397 0
M  V30 1932 C 182.032 3.69596 -3.65643 0
M  V30 1933 C 179.717 4.0017 -3.03593 0
M  V30 1934 C 181.711 3.977 -4.9811 0
M  V30 1935 C 179.398 4.27935 -4.36251 0
M  V30 1936 C 180.396 4.26685 -5.33318 0
M  V30 1937 O 180.084 4.53767 -6.63589 0
M  V30 1938 H 179.816 0.60208 -0.307368 0
M  V30 1939 H 182.37 1.44128 -1.46343 0
M  V30 1940 H 180.6 3.82752 -0.551177 0
M  V30 1941 H 182.289 3.94552 -0.953083 0
M  V30 1942 H 183.055 3.46826 -3.39023 0
M  V30 1943 H 178.934 4.00289 -2.2867 0
M  V30 1944 H 182.478 3.9664 -5.73866 0
M  V30 1945 H 178.375 4.50178 -4.62613 0
M  V30 1946 H 179.143 4.71422 -6.69107 0
M  V30 1947 N 181.806 0.884767 1.30421 0
M  V30 1948 C 183.222 0.57874 1.48737 0
M  V30 1949 C 183.422 -0.883567 1.81095 0
M  V30 1950 O 182.478 -1.6648 1.89844 0
M  V30 1951 C 183.791 1.49171 2.61091 0
M  V30 1952 C 185.339 1.49532 2.74971 0
M  V30 1953 C 185.814 2.39421 3.90438 0
M  V30 1954 N 187.305 2.37383 3.97748 0
M  V30 1955 C 188.04 3.03647 4.86401 0
M  V30 1956 N 187.536 3.79136 5.79852 0
M  V30 1957 N 189.329 2.9288 4.79768 0
M  V30 1958 H 181.48 1.83075 1.0769 0
M  V30 1959 H 183.743 0.783637 0.533495 0
M  V30 1960 H 183.449 2.53291 2.44001 0
M  V30 1961 H 183.323 1.20113 3.57565 0
M  V30 1962 H 185.71 0.46163 2.91467 0
M  V30 1963 H 185.791 1.8262 1.79119 0
M  V30 1964 H 185.435 3.42874 3.74699 0
M  V30 1965 H 185.365 2.03649 4.85628 0
M  V30 1966 H 187.856 1.82525 3.30897 0
M  V30 1967 H 188.169 4.26789 6.4426 0
M  V30 1968 H 186.514 3.83243 5.79784 0
M  V30 1969 H 189.705 2.33433 4.05742 0
M  V30 1970 H 189.878 3.448 5.4865 0
M  V30 1971 N 183.284 -1.43765 0.645699 0
M  V30 1972 C 184.7 -1.56509 0.312591 0
M  V30 1973 C 184.9 -1.6307 -1.18365 0
M  V30 1974 O 183.956 -1.58167 -1.96824 0
M  V30 1975 C 185.269 -2.82968 1.01733 0
M  V30 1976 C 186.817 -2.96701 0.996865 0
M  V30 1977 C 187.292 -4.25982 1.68236 0
M  V30 1978 N 188.783 -4.32829 1.64964 0
M  V30 1979 C 189.518 -5.31613 2.14885 0
M  V30 1980 N 189.014 -6.36718 2.73061 0
M  V30 1981 N 190.807 -5.23217 2.05428 0
M  V30 1982 H 182.958 -1.3775 1.61675 0
M  V30 1983 H 185.221 -0.661067 0.679481 0
M  V30 1984 H 184.927 -2.84156 2.0724 0
M  V30 1985 H 184.801 -3.72957 0.564177 0
M  V30 1986 H 187.188 -2.95058 -0.0497719 0
M  V30 1987 H 187.269 -2.08022 1.48865 0
M  V30 1988 H 186.913 -4.28386 2.72852 0
M  V30 1989 H 186.843 -5.13545 1.16529 0
M  V30 1990 H 189.334 -3.57493 1.22503 0
M  V30 1991 H 189.647 -7.08401 3.08848 0
M  V30 1992 H 187.992 -6.37362 2.77118 0
M  V30 1993 H 191.183 -4.40019 1.59689 0
M  V30 1994 H 191.356 -6.00045 2.44643 0
M  V30 1995 N 184.763 -0.387143 -1.52771 0
M  V30 1996 C 186.012 0.19697 -2.00736 0
M  V30 1997 C 186.325 1.48082 -1.27793 0
M  V30 1998 O 187.531 2.14485 -1.66458 0
M  V30 1999 C 185.987 0.401568 -3.57653 0
M  V30 2000 C 185.595 -0.868907 -4.39493 0
M  V30 2001 C 187.339 0.942164 -4.13912 0
M  V30 2002 C 185.246 -0.632705 -5.88006 0
M  V30 2003 H 184.176 0.0773827 -0.750019 0
M  V30 2004 H 186.827 -0.50921 -1.76293 0
M  V30 2005 H 185.209 1.16954 -3.78335 0
M  V30 2006 H 186.383 -1.64133 -4.30577 0
M  V30 2007 H 184.698 -1.33429 -3.94443 0
M  V30 2008 H 187.295 1.13455 -5.22525 0
M  V30 2009 H 187.638 1.9106 -3.69867 0
M  V30 2010 H 188.171 0.233814 -3.97112 0
M  V30 2011 H 184.91 -1.57208 -6.36369 0
M  V30 2012 H 184.43 0.100825 -5.99715 0
M  V30 2013 H 186.109 -0.26642 -6.46451 0
M  V30 2014 N 186.241 1.57166 -0.116904 0
M  V30 2015 C 187.489 1.94737 0.540533 0
M  V30 2016 C 187.81 1.00096 1.67349 0
M  V30 2017 O 187.08 0.0568854 1.95817 0
M  V30 2018 H 185.66 0.718981 0.202669 0
M  V30 2019 H 188.322 1.94017 -0.185353 0
M  V30 2020 H 187.418 2.97719 0.936483 0
M  V30 2021 N 187.719 -0.156864 1.56817 0
M  V30 2022 C 188.967 -0.869404 1.82444 0
M  V30 2023 C 189.288 -1.82147 0.69623 0
M  V30 2024 O 188.558 -1.93847 -0.28287 0
M  V30 2025 H 187.138 -0.324043 0.673056 0
M  V30 2026 H 189.8 -0.153224 1.94297 0
M  V30 2027 H 188.896 -1.43761 2.77019 0
M  V30 2028 N 189.197 -1.51736 -0.425897 0
M  V30 2029 C 190.445 -1.64644 -1.17204 0
M  V30 2030 C 190.766 -0.370486 -1.91448 0
M  V30 2031 O 190.036 0.614088 -1.86026 0
M  V30 2032 H 188.616 -0.606819 -0.435638 0
M  V30 2033 H 191.278 -1.88713 -0.487177 0
M  V30 2034 H 190.374 -2.47958 -1.89534 0
M  V30 2035 N 190.675 0.682077 -1.42076 0
M  V30 2036 C 191.9 1.47558 -1.45744 0
M  V30 2037 C 192.325 1.87977 -0.0680981 0
M  V30 2038 O 191.683 1.55522 0.9318 0
M  V30 2039 C 191.731 2.70575 -2.38373 0
M  V30 2040 O 190.835 3.68573 -1.85007 0
M  V30 2041 H 190.176 0.443585 -0.494093 0
M  V30 2042 H 192.706 0.837238 -1.86686 0
M  V30 2043 H 192.716 3.18729 -2.54707 0
M  V30 2044 H 191.391 2.40495 -3.39315 0
M  V30 2045 H 189.968 3.2757 -1.78192 0
M  V30 2046 N 192.153 1.28127 0.917671 0
M  V30 2047 C 193.564 1.13622 1.48145 0
M  V30 2048 C 193.915 -0.275207 1.9426 0
M  V30 2049 O 193.04 -1.1691 1.82102 0
M  V30 2050 C 193.635 2.05648 2.69248 0
M  V30 2051 C 192.194 1.95219 3.21818 0
M  V30 2052 C 191.341 1.97618 1.94532 0
M  V30 2053 H 194.292 1.40874 0.730772 0
M  V30 2054 H 194.313 1.61818 3.44377 0
M  V30 2055 H 193.825 3.08365 2.35653 0
M  V30 2056 H 191.926 0.955244 3.60147 0
M  V30 2057 H 192.039 2.81976 3.87333 0
M  V30 2058 H 190.403 1.41973 2.11461 0
M  V30 2059 H 191.186 3.02007 1.63238 0
M  V30 2060 N 193.631 -1.12557 1.10312 0
M  V30 2061 C 194.88 -1.83395 0.839588 0
M  V30 2062 C 195.193 -1.84939 -0.636929 0
M  V30 2063 O 196.399 -2.51761 -1.01631 0
M  V30 2064 C 194.855 -3.29303 1.45215 0
M  V30 2065 C 194.463 -3.36122 2.96186 0
M  V30 2066 C 196.207 -4.05121 1.26796 0
M  V30 2067 C 194.114 -4.76357 3.50483 0
M  V30 2068 H 193.044 -0.687133 0.310425 0
M  V30 2069 H 195.695 -1.26746 1.32694 0
M  V30 2070 H 194.077 -3.85812 0.892469 0
M  V30 2071 H 195.251 -2.89559 3.58458 0
M  V30 2072 H 193.566 -2.73776 3.13745 0
M  V30 2073 H 196.163 -5.08668 1.64806 0
M  V30 2074 H 196.506 -4.15773 0.209409 0
M  V30 2075 H 197.039 -3.54967 1.79563 0
M  V30 2076 H 193.778 -4.70899 4.55998 0
M  V30 2077 H 193.298 -5.23377 2.92978 0
M  V30 2078 H 194.977 -5.45294 3.48228 0
M  V30 2079 N 195.109 -0.891671 -1.2995 0
M  V30 2080 C 196.056 -0.361736 -2.27948 0
M  V30 2081 C 197.026 0.551761 -1.56668 0
M  V30 2082 O 198.211 0.478736 -1.84696 0
M  V30 2083 C 195.351 0.411825 -3.42634 0
M  V30 2084 C 194.464 -0.531651 -4.28716 0
M  V30 2085 C 193.599 0.258167 -5.30572 0
M  V30 2086 C 192.638 -0.680349 -6.08307 0
M  V30 2087 N 191.775 0.0745613 -7.0206 0
M  V30 2088 H 196.615 -1.20254 -2.72659 0
M  V30 2089 H 194.152 -0.604352 -1.34112 0
M  V30 2090 H 196.11 0.876304 -4.07893 0
M  V30 2091 H 194.74 1.21715 -2.98974 0
M  V30 2092 H 193.792 -1.11463 -3.63703 0
M  V30 2093 H 195.104 -1.25038 -4.82874 0
M  V30 2094 H 194.258 0.784204 -6.0161 0
M  V30 2095 H 192.997 1.01008 -4.77126 0
M  V30 2096 H 192.002 -1.21796 -5.3614 0
M  V30 2097 H 193.227 -1.43145 -6.63842 0
M  V30 2098 H 191.173 0.808883 -6.50994 0
M  V30 2099 H 191.09 -0.584409 -7.53738 0
M  V30 2100 H 192.358 0.581123 -7.77331 0
M  V30 2101 N 196.587 1.43421 -0.653314 0
M  V30 2102 C 197.836 2.01032 -0.164076 0
M  V30 2103 C 198.149 1.52147 1.22926 0
M  V30 2104 O 199.355 2.02031 1.81371 0
M  V30 2105 C 197.811 3.59082 -0.24252 0
M  V30 2106 C 197.419 4.1696 -1.63855 0
M  V30 2107 C 199.163 4.24079 0.18911 0
M  V30 2108 C 197.07 5.67304 -1.67092 0
M  V30 2109 H 196 0.751798 -0.0575769 0
M  V30 2110 H 198.651 1.6439 -0.815362 0
M  V30 2111 H 197.033 3.93125 0.476276 0
M  V30 2112 H 198.207 3.94416 -2.38271 0
M  V30 2113 H 196.522 3.64335 -2.01616 0
M  V30 2114 H 199.119 5.34381 0.184775 0
M  V30 2115 H 199.462 3.98005 1.22056 0
M  V30 2116 H 199.995 3.94918 -0.477938 0
M  V30 2117 H 196.734 5.98145 -2.68146 0
M  V30 2118 H 196.254 5.91904 -0.970014 0
M  V30 2119 H 197.933 6.31344 -1.4147 0
M  V30 2120 N 198.065 0.39524 1.52563 0
M  V30 2121 C 199.311 -0.177763 2.02622 0
M  V30 2122 C 199.666 -1.43974 1.27629 0
M  V30 2123 O 198.959 -1.87995 0.36992 0
M  V30 2124 C 199.153 -0.493444 3.53977 0
M  V30 2125 C 198.982 0.736392 4.4363 0
M  V30 2126 C 197.752 1.25744 4.89404 0
M  V30 2127 C 199.95 1.61046 4.88435 0
M  V30 2128 N 197.932 2.44421 5.63145 0
M  V30 2129 C 199.303 2.64359 5.60816 0
M  V30 2130 C 201.358 1.62985 4.70468 0
M  V30 2131 C 200.061 3.69505 6.17137 0
M  V30 2132 C 202.087 2.67042 5.27677 0
M  V30 2133 C 201.449 3.69077 5.99968 0
M  V30 2134 H 197.548 -0.0269794 0.781534 0
M  V30 2135 H 200.132 0.546466 1.86874 0
M  V30 2136 H 198.303 -1.18672 3.69826 0
M  V30 2137 H 200.035 -1.05412 3.90731 0
M  V30 2138 H 196.79 0.817546 4.6649 0
M  V30 2139 H 197.214 3.04485 6.04663 0
M  V30 2140 H 201.856 0.854442 4.14076 0
M  V30 2141 H 199.574 4.4791 6.72608 0
M  V30 2142 H 203.16 2.69433 5.15652 0
M  V30 2143 H 202.04 4.48273 6.43444 0
M  V30 2144 N 199.544 -1.57102 0.125237 0
M  V30 2145 C 200.772 -1.99761 -0.538797 0
M  V30 2146 C 201.187 -1.00503 -1.59827 0
M  V30 2147 O 200.544 0.00119474 -1.825 0
M  V30 2148 C 200.595 -3.42408 -1.15927 0
M  V30 2149 O 200.316 -4.37869 -0.142143 0
M  V30 2150 C 201.817 -4.00232 -1.90602 0
M  V30 2151 H 199.037 -0.655772 -0.14214 0
M  V30 2152 H 201.581 -2.03383 0.213413 0
M  V30 2153 H 199.736 -3.39706 -1.86223 0
M  V30 2154 H 200.15 -5.21128 -0.593775 0
M  V30 2155 H 201.624 -5.02105 -2.29335 0
M  V30 2156 H 202.101 -3.39721 -2.78363 0
M  V30 2157 H 202.707 -4.06499 -1.25055 0
M  V30 2158 N 201.022 0.148545 -1.56898 0
M  V30 2159 C 202.247 0.880385 -1.87787 0
M  V30 2160 C 202.672 1.74018 -0.714093 0
M  V30 2161 O 202.03 1.78153 0.336343 0
M  V30 2162 C 202.078 1.71422 -3.17249 0
M  V30 2163 O 201.182 2.8183 -3.01074 0
M  V30 2164 H 200.523 0.245301 -0.617028 0
M  V30 2165 H 203.053 0.139826 -2.04122 0
M  V30 2166 H 203.063 2.10954 -3.49231 0
M  V30 2167 H 201.738 1.08284 -4.01556 0
M  V30 2168 H 200.315 2.45715 -2.80497 0
M  V30 2169 N 202.5 1.5196 0.417844 0
M  V30 2170 C 203.447 1.74678 1.50852 0
M  V30 2171 C 204.417 0.588947 1.55308 0
M  V30 2172 O 205.602 0.825544 1.72016 0
M  V30 2173 C 202.742 1.89544 2.88387 0
M  V30 2174 C 201.855 3.17166 2.93309 0
M  V30 2175 C 200.99 3.22513 4.22088 0
M  V30 2176 C 200.029 4.44372 4.20951 0
M  V30 2177 N 199.166 4.47161 5.41287 0
M  V30 2178 H 204.006 2.67768 1.30783 0
M  V30 2179 H 201.543 1.32689 0.63498 0
M  V30 2180 H 203.501 1.96146 3.68216 0
M  V30 2181 H 202.131 0.998424 3.06971 0
M  V30 2182 H 201.183 3.19778 2.06024 0
M  V30 2183 H 202.495 4.07021 2.88332 0
M  V30 2184 H 201.649 3.28139 5.10303 0
M  V30 2185 H 200.388 2.30581 4.29748 0
M  V30 2186 H 199.393 4.38902 3.31127 0
M  V30 2187 H 200.618 5.3759 4.14938 0
M  V30 2188 H 198.564 3.58108 5.49632 0
M  V30 2189 H 198.481 5.3085 5.3827 0
M  V30 2190 H 199.749 4.57005 6.3148 0
M  V30 2191 N 203.978 -0.674533 1.42435 0
M  V30 2192 C 204.91 -1.80005 1.41883 0
M  V30 2193 C 205.923 -1.59667 0.31787 0
M  V30 2194 O 207.112 -1.68781 0.580973 0
M  V30 2195 C 204.212 -3.17114 1.19549 0
M  V30 2196 C 203.385 -3.64299 2.42084 0
M  V30 2197 C 202.444 -4.80142 2.15291 0
M  V30 2198 O 201.47 -4.90673 2.88493 0
M  V30 2199 N 202.672 -5.68869 1.1562 0
M  V30 2200 H 205.437 -1.80964 2.38898 0
M  V30 2201 H 202.998 -0.857633 1.37318 0
M  V30 2202 H 204.99 -3.92267 0.995417 0
M  V30 2203 H 203.56 -3.11053 0.310569 0
M  V30 2204 H 202.78 -2.79822 2.77657 0
M  V30 2205 H 204.068 -3.92567 3.23679 0
M  V30 2206 H 203.466 -5.63012 0.550765 0
M  V30 2207 H 202.023 -6.43833 1.016 0
M  V30 2208 N 205.456 -1.28612 -0.910864 0
M  V30 2209 C 206.704 -1.15705 -1.65701 0
M  V30 2210 C 207.025 0.29416 -1.92769 0
M  V30 2211 O 206.295 1.20331 -1.54588 0
M  V30 2212 H 204.875 -0.425216 -0.614167 0
M  V30 2213 H 207.537 -1.61381 -1.0928 0
M  V30 2214 H 206.633 -1.6988 -2.61815 0
M  V30 2215 N 206.934 1.1197 -1.10907 0
M  V30 2216 C 207.844 2.21433 -0.774896 0
M  V30 2217 C 208.86 1.72478 0.229657 0
M  V30 2218 O 210.036 2.01288 0.0672008 0
M  V30 2219 C 207.101 3.4602 -0.216986 0
M  V30 2220 C 206.162 4.09791 -1.27944 0
M  V30 2221 C 205.395 5.28431 -0.748055 0
M  V30 2222 O 205.618 5.68823 0.423833 0
M  V30 2223 O 204.552 5.82644 -1.51027 0
M  V30 2224 H 208.378 2.5242 -1.68873 0
M  V30 2225 H 205.963 1.20399 -0.884555 0
M  V30 2226 H 207.845 4.21304 0.090059 0
M  V30 2227 H 206.52 3.16698 0.669633 0
M  V30 2228 H 205.427 3.36265 -1.63941 0
M  V30 2229 H 206.76 4.4328 -2.13925 0
M  V30 2230 N 208.412 0.89855 1.29475 0
M  V30 2231 C 209.66 0.522847 1.9522 0
M  V30 2232 C 209.981 -0.93371 1.71192 0
M  V30 2233 O 209.251 -1.65823 1.04305 0
M  V30 2234 H 207.831 0.190366 0.722336 0
M  V30 2235 H 210.493 1.14459 1.5775 0
M  V30 2236 H 209.589 0.704476 3.04045 0
M  V30 2237 N 209.89 -1.43072 0.660911 0
M  V30 2238 C 210.823 -2.28074 -0.0758862 0
M  V30 2239 C 211.801 -1.40271 -0.822362 0
M  V30 2240 O 212.985 -1.69713 -0.820352 0
M  V30 2241 C 210.112 -3.19843 -1.11437 0
M  V30 2242 C 209.158 -4.23957 -0.465069 0
M  V30 2243 S 209.991 -5.29978 0.767078 0
M  V30 2244 C 211.147 -6.25314 -0.270682 0
M  V30 2245 H 211.38 -2.90216 0.645139 0
M  V30 2246 H 208.913 -1.47697 0.449995 0
M  V30 2247 H 210.871 -3.73257 -1.70849 0
M  V30 2248 H 209.532 -2.56863 -1.80776 0
M  V30 2249 H 208.725 -4.88299 -1.24819 0
M  V30 2250 H 208.327 -3.73959 0.0551242 0
M  V30 2251 H 210.619 -6.67932 -1.13459 0
M  V30 2252 H 211.562 -7.07293 0.337916 0
M  V30 2253 H 211.97 -5.61195 -0.609937 0
M  V30 2254 N 211.368 -0.403325 -1.52352 0
M  V30 2255 C 212.614 0.174605 -2.02047 0
M  V30 2256 C 212.947 1.45282 -1.28867 0
M  V30 2257 O 212.222 1.90483 -0.393257 0
M  V30 2258 C 212.505 0.428238 -3.57545 0
M  V30 2259 C 212.358 -0.866248 -4.4138 0
M  V30 2260 C 213.677 1.21287 -4.23057 0
M  V30 2261 H 210.796 0.0619851 -0.734389 0
M  V30 2262 H 213.438 -0.53565 -1.82293 0
M  V30 2263 H 211.588 1.03327 -3.74507 0
M  V30 2264 H 213.26 -1.50265 -4.3614 0
M  V30 2265 H 211.503 -1.47851 -4.07827 0
M  V30 2266 H 212.174 -0.643249 -5.48239 0
M  V30 2267 H 214.65 0.700703 -4.10158 0
M  V30 2268 H 213.526 1.35909 -5.31808 0
M  V30 2269 H 213.787 2.23193 -3.81625 0
M  V30 2270 N 212.846 1.57033 -0.133567 0
M  V30 2271 C 213.793 2.16074 0.811208 0
M  V30 2272 C 214.763 1.08979 1.2535 0
M  V30 2273 O 215.948 1.36958 1.32843 0
M  V30 2274 C 213.088 2.77595 2.05024 0
M  V30 2275 C 212.201 3.99042 1.65498 0
M  V30 2276 C 211.336 4.48603 2.84479 0
M  V30 2277 C 210.375 5.62547 2.41262 0
M  V30 2278 N 209.512 6.06787 3.53206 0
M  V30 2279 H 214.352 2.96477 0.300906 0
M  V30 2280 H 211.889 1.46462 0.136822 0
M  V30 2281 H 213.847 3.11402 2.77642 0
M  V30 2282 H 212.477 1.99859 2.53488 0
M  V30 2283 H 211.529 3.71302 0.826981 0
M  V30 2284 H 212.841 4.81629 1.29748 0
M  V30 2285 H 211.995 4.84395 3.65303 0
M  V30 2286 H 210.734 3.64995 3.23465 0
M  V30 2287 H 209.739 5.26345 1.58874 0
M  V30 2288 H 210.964 6.47931 2.03377 0
M  V30 2289 H 208.91 5.26117 3.91838 0
M  V30 2290 H 208.827 6.84266 3.21427 0
M  V30 2291 H 210.095 6.4722 4.34427 0
M  V30 2292 N 214.325 -0.140222 1.56975 0
M  V30 2293 C 215.255 -1.17456 2.01808 0
M  V30 2294 C 216.236 -1.44415 0.898794 0
M  V30 2295 O 217.421 -1.5522 1.16707 0
M  V30 2296 C 214.551 -2.50607 2.40444 0
M  V30 2297 C 213.505 -2.38155 3.55621 0
M  V30 2298 C 212.831 -3.76078 3.80091 0
M  V30 2299 C 214.131 -1.85991 4.88062 0
M  V30 2300 H 215.825 -0.801743 2.88466 0
M  V30 2301 H 213.371 -0.38422 1.38779 0
M  V30 2302 H 215.324 -3.23197 2.7041 0
M  V30 2303 H 214.048 -2.89737 1.50732 0
M  V30 2304 H 212.707 -1.68016 3.25832 0
M  V30 2305 H 212.355 -4.12656 2.87618 0
M  V30 2306 H 212.055 -3.68606 4.57606 0
M  V30 2307 H 213.579 -4.50206 4.12488 0
M  V30 2308 H 214.993 -2.4838 5.16701 0
M  V30 2309 H 213.39 -1.89393 5.6943 0
M  V30 2310 H 214.46 -0.816023 4.77984 0
M  V30 2311 N 215.803 -1.52179 -0.40978 0
M  V30 2312 C 216.733 -1.78435 -1.5061 0
M  V30 2313 C 217.714 -0.635295 -1.57791 0
M  V30 2314 O 218.899 -0.880823 -1.73076 0
M  V30 2315 C 216.029 -1.93444 -2.88439 0
M  V30 2316 C 214.983 -3.09038 -2.96108 0
M  V30 2317 C 214.309 -3.09268 -4.36185 0
M  V30 2318 C 215.609 -4.48508 -2.67652 0
M  V30 2319 H 217.303 -2.70237 -1.28889 0
M  V30 2320 H 214.849 -1.30036 -0.618605 0
M  V30 2321 H 216.802 -2.10394 -3.65119 0
M  V30 2322 H 215.526 -0.983129 -3.11452 0
M  V30 2323 H 214.185 -2.91837 -2.21872 0
M  V30 2324 H 213.833 -2.11861 -4.56206 0
M  V30 2325 H 213.533 -3.86907 -4.42241 0
M  V30 2326 H 215.057 -3.28348 -5.14801 0
M  V30 2327 H 216.471 -4.65918 -3.34056 0
M  V30 2328 H 214.868 -5.28059 -2.85085 0
M  V30 2329 H 215.938 -4.56649 -1.63095 0
M  V30 2330 N 217.281 0.66697 -1.42791 0
M  V30 2331 C 218.558 1.4234 -1.34159 0
M  V30 2332 C 218.938 2.11093 0.0172729 0
M  V30 2333 O 218.286 2.03808 1.03318 0
M  V30 2334 C 218.496 2.41942 -2.51526 0
M  V30 2335 C 219.844 3.06353 -2.93995 0
M  V30 2336 O 220.868 2.52269 -2.51473 0
M  V30 2337 O 219.727 4.04376 -3.67617 0
M  V30 2338 H 216.821 0.635277 -0.529483 0
M  V30 2339 H 219.367 0.695034 -1.54814 0
M  V30 2340 H 218.139 1.89991 -3.42081 0
M  V30 2341 H 217.762 3.22249 -2.32898 0
M  V30 2342 N 218.759 1.29093 0.90403 0
M  V30 2343 C 219.669 1.15727 2.0407 0
M  V30 2344 C 220.685 0.0815308 1.73809 0
M  V30 2345 O 221.861 0.292749 1.99261 0
M  V30 2346 C 218.926 0.830424 3.36608 0
M  V30 2347 C 217.987 1.98955 3.80415 0
M  V30 2348 C 217.22 1.6782 5.06628 0
M  V30 2349 O 217.443 0.597105 5.67266 0
M  V30 2350 O 216.377 2.52486 5.46383 0
M  V30 2351 H 220.203 2.11171 2.18267 0
M  V30 2352 H 217.788 1.08504 1.027 0
M  V30 2353 H 219.67 0.662521 4.16159 0
M  V30 2354 H 218.345 -0.0942678 3.23563 0
M  V30 2355 H 217.252 2.21267 3.01648 0
M  V30 2356 H 218.585 2.89529 3.98037 0
M  V30 2357 N 220.237 -1.11381 1.11499 0
M  V30 2358 C 221.167 -2.19509 0.796125 0
M  V30 2359 C 222.148 -1.68458 -0.235796 0
M  V30 2360 O 223.333 -1.93947 -0.0991344 0
M  V30 2361 C 220.463 -3.46475 0.239205 0
M  V30 2362 C 219.417 -4.10744 1.20307 0
M  V30 2363 C 218.743 -5.32293 0.50683 0
M  V30 2364 C 220.043 -4.55597 2.55399 0
M  V30 2365 H 221.737 -2.46439 1.70024 0
M  V30 2366 H 219.283 -1.18446 0.818935 0
M  V30 2367 H 221.236 -4.214 0.00392006 0
M  V30 2368 H 219.96 -3.19006 -0.700206 0
M  V30 2369 H 218.619 -3.37813 1.42399 0
M  V30 2370 H 218.267 -5.01095 -0.437408 0
M  V30 2371 H 217.967 -5.76243 1.1497 0
M  V30 2372 H 219.491 -6.09956 0.280351 0
M  V30 2373 H 220.905 -5.21841 2.37391 0
M  V30 2374 H 219.302 -5.10363 3.15673 0
M  V30 2375 H 220.372 -3.69013 3.14575 0
M  V30 2376 N 221.715 -0.905404 -1.28997 0
M  V30 2377 C 222.94 -0.549175 -1.99997 0
M  V30 2378 C 223.365 0.860276 -1.67275 0
M  V30 2379 O 222.723 1.57355 -0.900502 0
M  V30 2380 C 222.771 -0.755185 -3.52604 0
M  V30 2381 O 221.875 0.189692 -4.11964 0
M  V30 2382 H 221.216 -0.213899 -0.628604 0
M  V30 2383 H 223.746 -1.21856 -1.64354 0
M  V30 2384 H 223.756 -0.662045 -4.02593 0
M  V30 2385 H 222.431 -1.78271 -3.75755 0
M  V30 2386 H 221.008 0.0485257 -3.72868 0
M  V30 2387 N 223.193 1.4272 -0.668489 0
M  V30 2388 C 224.604 1.84793 -0.266151 0
M  V30 2389 C 224.955 1.55959 1.19043 0
M  V30 2390 O 224.08 1.01622 1.91055 0
M  V30 2391 C 224.675 3.35436 -0.476271 0
M  V30 2392 C 223.234 3.76182 -0.128113 0
M  V30 2393 C 222.381 2.66344 -0.771777 0
M  V30 2394 H 225.332 1.32656 -0.871098 0
M  V30 2395 H 225.353 3.79515 0.273561 0
M  V30 2396 H 224.865 3.5639 -1.53647 0
M  V30 2397 H 222.966 3.60836 0.928891 0
M  V30 2398 H 223.079 4.75766 -0.564231 0
M  V30 2399 H 221.443 2.53885 -0.203652 0
M  V30 2400 H 222.226 2.90123 -1.83531 0
M  V30 2401 N 224.671 0.411399 1.52136 0
M  V30 2402 C 225.619 -0.427633 2.28635 0
M  V30 2403 C 226.613 -1.04383 1.33419 0
M  V30 2404 O 227.819 -0.981772 1.50868 0
M  V30 2405 H 224.194 -0.156689 0.735495 0
M  V30 2406 H 226.165 0.238761 2.97443 0
M  V30 2407 C 224.914 -1.53082 3.12188 0
M  V30 2408 H 224.237 -1.06601 3.85326 0
M  V30 2409 H 225.677 -2.09167 3.68816 0
M  V30 2410 C 224.136 -2.49946 2.25895 0
M  V30 2411 O 224.666 -3.53884 1.90076 0
M  V30 2412 N 222.872 -2.2021 1.8962 0
M  V30 2413 H 222.419 -1.35719 2.18948 0
M  V30 2414 H 222.377 -2.85266 1.32176 0
M  V30 2415 N 226.149 -1.5696 0.141893 0
M  V30 2416 C 227.377 -2.00322 -0.517579 0
M  V30 2417 C 227.792 -1.02193 -1.58752 0
M  V30 2418 O 227.149 -0.0181619 -1.82491 0
M  V30 2419 C 227.2 -3.43618 -1.12289 0
M  V30 2420 O 226.921 -4.37995 -0.0956929 0
M  V30 2421 C 228.422 -4.02231 -1.86347 0
M  V30 2422 H 225.642 -0.657243 -0.135177 0
M  V30 2423 H 228.186 -2.03146 0.234973 0
M  V30 2424 H 226.341 -3.41662 -1.82609 0
M  V30 2425 H 226.755 -5.21729 -0.538469 0
M  V30 2426 H 228.229 -5.04509 -2.23997 0
M  V30 2427 H 228.706 -3.42655 -2.74744 0
M  V30 2428 H 229.312 -4.07802 -1.20737 0
M  V30 2429 N 227.627 0.131896 -1.57047 0
M  V30 2430 C 228.59 1.14638 -1.98471 0
M  V30 2431 C 229.59 1.35029 -0.873148 0
M  V30 2432 O 230.78 1.31764 -1.13946 0
M  V30 2433 C 227.912 2.50358 -2.31373 0
M  V30 2434 H 229.105 0.79064 -2.8929 0
M  V30 2435 H 226.658 0.375761 -1.51716 0
M  V30 2436 H 227.393 2.90876 -1.43393 0
M  V30 2437 H 227.178 2.36915 -3.12432 0
M  V30 2438 H 228.668 3.23395 -2.64207 0
M  V30 2439 N 229.106 1.52395 0.401703 0
M  V30 2440 C 230.517 1.58899 0.980202 0
M  V30 2441 C 230.868 0.434032 1.91339 0
M  V30 2442 O 229.993 -0.444619 2.11783 0
M  V30 2443 C 230.588 2.87994 1.78451 0
M  V30 2444 C 229.147 2.96953 2.31292 0
M  V30 2445 C 228.294 2.53903 1.11483 0
M  V30 2446 H 231.245 1.57657 0.18168 0
M  V30 2447 H 231.266 2.73765 2.64259 0
M  V30 2448 H 230.778 3.72035 1.10506 0
M  V30 2449 H 228.879 2.17422 3.02586 0
M  V30 2450 H 228.992 4.01344 2.61649 0
M  V30 2451 H 227.356 2.07925 1.47104 0
M  V30 2452 H 228.139 3.40326 0.450928 0
M  V30 2453 N 230.584 -0.659388 1.43143 0
M  V30 2454 C 231.534 -1.7655 1.44271 0
M  V30 2455 C 232.518 -1.57847 0.311961 0
M  V30 2456 O 233.71 -1.68064 0.555306 0
M  V30 2457 C 230.839 -3.15104 1.36251 0
M  V30 2458 C 229.925 -3.39377 2.54331 0
M  V30 2459 N 230.316 -3.34153 3.79704 0
M  V30 2460 C 228.614 -3.70072 2.48922 0
M  V30 2461 C 229.315 -3.58337 4.58225 0
M  V30 2462 N 228.291 -3.79851 3.88863 0
M  V30 2463 H 232.093 -1.70928 2.39083 0
M  V30 2464 H 229.607 -0.860823 1.37708 0
M  V30 2465 H 231.604 -3.94389 1.35141 0
M  V30 2466 H 230.264 -3.21913 0.424531 0
M  V30 2467 H 231.275 -3.13704 4.1208 0
M  V30 2468 H 227.952 -3.84034 1.63781 0
M  V30 2469 H 229.342 -3.60129 5.67236 0
M  V30 2470 N 232.062 -1.29571 -0.897171 0
M  V30 2471 C 233.009 -1.14916 -2.00158 0
M  V30 2472 C 233.979 -0.0418149 -1.66047 0
M  V30 2473 O 235.164 -0.209793 -1.89643 0
M  V30 2474 C 232.304 -0.834307 -3.34863 0
M  V30 2475 C 231.417 -2.02234 -3.8174 0
M  V30 2476 C 230.552 -1.64664 -5.05034 0
M  V30 2477 C 229.591 -2.80033 -5.44286 0
M  V30 2478 N 228.728 -2.42843 -6.58765 0
M  V30 2479 H 233.568 -2.09403 -2.12025 0
M  V30 2480 H 231.105 -1.042 -1.0383 0
M  V30 2481 H 233.063 -0.632436 -4.12379 0
M  V30 2482 H 231.693 0.0736656 -3.22716 0
M  V30 2483 H 230.745 -2.33583 -3.00238 0
M  V30 2484 H 232.057 -2.88673 -4.06779 0
M  V30 2485 H 231.211 -1.4078 -5.9014 0
M  V30 2486 H 229.95 -0.753766 -4.8184 0
M  V30 2487 H 228.955 -3.04596 -4.57713 0
M  V30 2488 H 230.18 -3.69989 -5.6946 0
M  V30 2489 H 228.126 -1.56046 -6.3717 0
M  V30 2490 H 228.043 -3.22815 -6.83613 0
M  V30 2491 H 229.311 -2.22285 -7.47134 0
M  V30 2492 N 233.54 1.10788 -1.12088 0
M  V30 2493 C 234.77 1.86191 -0.895351 0
M  V30 2494 C 235.178 1.80763 0.558702 0
M  V30 2495 O 234.521 1.19188 1.39785 0
M  V30 2496 C 234.583 3.35659 -1.28737 0
M  V30 2497 C 234.247 3.64849 -2.75198 0
M  V30 2498 C 235.244 3.61757 -3.734 0
M  V30 2499 C 232.929 3.93641 -3.12013 0
M  V30 2500 C 234.923 3.87045 -5.06434 0
M  V30 2501 C 232.61 4.18585 -4.4523 0
M  V30 2502 C 233.608 4.15277 -5.42249 0
M  V30 2503 O 233.296 4.3959 -6.73065 0
M  V30 2504 H 233.028 0.595425 -0.32007 0
M  V30 2505 H 235.582 1.40992 -1.49367 0
M  V30 2506 H 233.812 3.81497 -0.63224 0
M  V30 2507 H 235.501 3.92441 -1.03656 0
M  V30 2508 H 236.267 3.39557 -3.46303 0
M  V30 2509 H 232.146 3.95348 -2.37109 0
M  V30 2510 H 235.69 3.84378 -5.82151 0
M  V30 2511 H 231.587 4.40264 -4.72057 0
M  V30 2512 H 232.355 4.57123 -6.78956 0
M  V30 2513 N 235.018 0.912232 1.28515 0
M  V30 2514 C 236.248 0.559604 1.98877 0
M  V30 2515 C 236.656 -0.863113 1.68366 0
M  V30 2516 O 235.999 -1.58304 0.931969 0
M  V30 2517 C 236.061 0.68703 3.52874 0
M  V30 2518 C 235.725 2.07901 4.06972 0
M  V30 2519 C 236.722 3.05157 4.20922 0
M  V30 2520 C 234.407 2.39178 4.417 0
M  V30 2521 C 236.401 4.31806 4.68852 0
M  V30 2522 C 234.088 3.66068 4.89324 0
M  V30 2523 C 235.086 4.62195 5.02856 0
M  V30 2524 O 234.774 5.86829 5.49442 0
M  V30 2525 H 234.506 0.212191 0.641834 0
M  V30 2526 H 237.06 1.22712 1.64715 0
M  V30 2527 H 235.29 -0.0375486 3.86682 0
M  V30 2528 H 236.979 0.341727 4.04459 0
M  V30 2529 H 237.745 2.82311 3.94367 0
M  V30 2530 H 233.624 1.65109 4.30418 0
M  V30 2531 H 237.168 5.06842 4.79329 0
M  V30 2532 H 233.065 3.88739 5.15318 0
M  V30 2533 H 233.833 5.89597 5.6773 0
M  V30 2534 N 236.496 -1.42363 0.676048 0
M  V30 2535 C 237.745 -2.00745 0.196037 0
M  V30 2536 C 238.058 -1.54083 -1.20489 0
M  V30 2537 O 239.264 -2.04891 -1.78134 0
M  V30 2538 C 237.72 -3.58651 0.299616 0
M  V30 2539 C 237.328 -4.143 1.70468 0
M  V30 2540 C 239.072 -4.24326 -0.121619 0
M  V30 2541 C 236.979 -5.64574 1.76096 0
M  V30 2542 H 235.909 -0.750787 0.0695301 0
M  V30 2543 H 238.56 -1.63072 0.841412 0
M  V30 2544 H 236.942 -3.93833 -0.413673 0
M  V30 2545 H 238.116 -3.90575 2.44515 0
M  V30 2546 H 236.431 -3.61081 2.07387 0
M  V30 2547 H 239.028 -5.34607 -0.0997362 0
M  V30 2548 H 239.371 -3.99897 -1.15708 0
M  V30 2549 H 239.904 -3.94108 0.540706 0
M  V30 2550 H 236.643 -5.93804 2.77628 0
M  V30 2551 H 236.163 -5.90286 1.06406 0
M  V30 2552 H 237.842 -6.29013 1.51496 0
M  V30 2553 N 237.974 -0.419461 -1.51915 0
M  V30 2554 C 239.222 0.152637 -2.01523 0
M  V30 2555 C 239.543 1.44762 -1.30649 0
M  V30 2556 O 238.813 1.90997 -0.435535 0
M  V30 2557 H 237.393 0.0593966 -0.744635 0
M  V30 2558 H 240.055 -0.558073 -1.86739 0
M  V30 2559 H 239.151 0.341369 -3.10227 0
M  V30 2560 N 239.452 1.56882 -0.150215 0
M  V30 2561 C 240.699 1.96228 0.500093 0
M  V30 2562 C 241.027 1.03522 1.64661 0
M  V30 2563 O 240.282 0.0650683 1.95592 0
M  V30 2564 C 240.581 3.41801 1.04437 0
M  V30 2565 C 240.247 4.50897 0.0159671 0
M  V30 2566 C 238.909 4.8046 -0.266731 0
M  V30 2567 C 241.261 5.16703 -0.683192 0
M  V30 2568 C 238.589 5.73135 -1.25434 0
M  V30 2569 C 240.941 6.10441 -1.65964 0
M  V30 2570 C 239.605 6.38382 -1.95 0
M  V30 2571 H 238.875 0.718048 0.182997 0
M  V30 2572 H 241.522 1.90019 -0.237724 0
M  V30 2573 H 239.827 3.44857 1.85959 0
M  V30 2574 H 241.524 3.69573 1.55618 0
M  V30 2575 H 238.114 4.27891 0.246485 0
M  V30 2576 H 242.298 4.93993 -0.477983 0
M  V30 2577 H 237.554 5.93074 -1.48571 0
M  V30 2578 H 241.728 6.60507 -2.20689 0
M  V30 2579 H 239.355 7.09996 -2.71679 0
M  V30 2580 N 240.93 -0.123565 1.57115 0
M  V30 2581 C 242.346 -0.476961 1.52306 0
M  V30 2582 C 242.546 -1.82109 0.86248 0
M  V30 2583 O 241.602 -2.48586 0.442884 0
M  V30 2584 C 242.915 -0.465661 2.97073 0
M  V30 2585 C 244.463 -0.549534 3.08138 0
M  V30 2586 C 244.938 -0.568669 4.54456 0
M  V30 2587 N 246.429 -0.630237 4.58892 0
M  V30 2588 C 247.164 -0.666415 5.69514 0
M  V30 2589 N 246.66 -0.660514 6.89644 0
M  V30 2590 N 248.453 -0.709077 5.5761 0
M  V30 2591 H 240.604 0.757198 1.98445 0
M  V30 2592 H 242.867 0.278808 0.906074 0
M  V30 2593 H 242.573 0.454232 3.48754 0
M  V30 2594 H 242.447 -1.29513 3.54269 0
M  V30 2595 H 244.834 -1.45985 2.56461 0
M  V30 2596 H 244.915 0.307532 2.53945 0
M  V30 2597 H 244.559 0.337581 5.06777 0
M  V30 2598 H 244.489 -1.44256 5.06456 0
M  V30 2599 H 246.98 -0.641146 3.72421 0
M  V30 2600 H 247.293 -0.690616 7.69708 0
M  V30 2601 H 245.638 -0.628012 6.92157 0
M  V30 2602 H 248.829 -0.711019 4.62668 0
M  V30 2603 H 249.002 -0.733804 6.43832 0
M  V30 2604 N 242.408 -1.52605 -0.393616 0
M  V30 2605 C 243.638 -1.71046 -1.15874 0
M  V30 2606 C 244.046 -0.426483 -1.84331 0
M  V30 2607 O 243.389 0.608513 -1.73329 0
M  V30 2608 C 243.451 -2.80118 -2.25332 0
M  V30 2609 C 243.115 -4.21381 -1.76881 0
M  V30 2610 C 244.112 -5.04697 -1.24808 0
M  V30 2611 C 241.797 -4.67683 -1.83244 0
M  V30 2612 C 243.791 -6.32393 -0.797387 0
M  V30 2613 C 241.478 -5.95364 -1.37787 0
M  V30 2614 C 242.476 -6.77549 -0.861208 0
M  V30 2615 O 242.164 -8.02837 -0.413252 0
M  V30 2616 H 241.896 -0.576155 -0.353583 0
M  V30 2617 H 244.45 -2.00018 -0.467123 0
M  V30 2618 H 242.68 -2.46557 -2.97904 0
M  V30 2619 H 244.369 -2.87006 -2.87023 0
M  V30 2620 H 245.135 -4.70111 -1.19252 0
M  V30 2621 H 241.014 -4.03805 -2.22401 0
M  V30 2622 H 244.558 -6.9649 -0.393437 0
M  V30 2623 H 240.455 -6.29455 -1.43026 0
M  V30 2624 H 241.223 -8.16749 -0.53515 0
M  V30 2625 N 243.887 0.651787 -1.4349 0
M  V30 2626 C 245.133 1.41376 -1.45398 0
M  V30 2627 C 245.466 1.94041 -0.0784823 0
M  V30 2628 O 244.741 1.72379 0.900878 0
M  V30 2629 C 245.024 2.59414 -2.49752 0
M  V30 2630 C 244.877 2.12232 -3.96582 0
M  V30 2631 C 246.196 3.61626 -2.50827 0
M  V30 2632 H 243.315 0.512719 -0.529422 0
M  V30 2633 H 245.957 0.738796 -1.75048 0
M  V30 2634 H 244.107 3.16997 -2.246 0
M  V30 2635 H 245.779 1.59639 -4.32797 0
M  V30 2636 H 244.022 1.43592 -4.09346 0
M  V30 2637 H 244.693 2.9712 -4.65214 0
M  V30 2638 H 247.169 3.13805 -2.7325 0
M  V30 2639 H 246.045 4.41766 -3.25783 0
M  V30 2640 H 246.306 4.14314 -1.5426 0
M  V30 2641 N 245.365 1.30045 0.890287 0
M  V30 2642 C 246.315 1.12592 1.9826 0
M  V30 2643 C 247.299 0.0426021 1.60844 0
M  V30 2644 O 248.491 0.265346 1.75 0
M  V30 2645 C 245.62 0.814301 3.33503 0
M  V30 2646 C 244.706 1.93761 3.7725 0
M  V30 2647 N 245.097 3.18232 3.93143 0
M  V30 2648 C 243.395 1.83277 4.06602 0
M  V30 2649 C 244.096 3.9158 4.30163 0
M  V30 2650 N 243.072 3.19591 4.3973 0
M  V30 2651 H 246.874 2.07003 2.08631 0
M  V30 2652 H 244.388 1.21307 1.07974 0
M  V30 2653 H 246.385 0.67029 4.11476 0
M  V30 2654 H 245.045 -0.121797 3.24471 0
M  V30 2655 H 246.056 3.53581 3.78419 0
M  V30 2656 H 242.733 0.97001 4.06075 0
M  V30 2657 H 244.123 4.98744 4.50226 0
M  V30 2658 N 246.843 -1.10192 1.12674 0
M  V30 2659 C 248.254 -1.63707 0.897604 0
M  V30 2660 C 248.605 -1.87812 -0.567546 0
M  V30 2661 O 247.73 -1.62196 -1.43253 0
M  V30 2662 C 248.325 -2.974 1.62292 0
M  V30 2663 C 246.884 -3.47772 1.43986 0
M  V30 2664 C 246.031 -2.22332 1.65722 0
M  V30 2665 H 248.982 -0.936587 1.28116 0
M  V30 2666 H 249.003 -3.64986 1.07541 0
M  V30 2667 H 248.515 -2.79824 2.68924 0
M  V30 2668 H 246.616 -3.70487 0.396206 0
M  V30 2669 H 246.729 -4.25723 2.19765 0
M  V30 2670 H 245.093 -2.30599 1.08149 0
M  V30 2671 H 245.876 -2.07285 2.73657 0
M  V30 2672 N 248.321 -0.919034 -1.28029 0
M  V30 2673 C 249.251 -0.428581 -2.29533 0
M  V30 2674 C 250.232 0.50659 -1.62381 0
M  V30 2675 O 251.417 0.413195 -1.89753 0
M  V30 2676 C 248.547 0.327388 -3.45753 0
M  V30 2677 C 247.501 -0.519137 -4.2484 0
M  V30 2678 C 246.827 0.365486 -5.33449 0
M  V30 2679 C 248.127 -1.77914 -4.91064 0
M  V30 2680 H 249.821 -1.27687 -2.70807 0
M  V30 2681 H 247.367 -0.615428 -1.30186 0
M  V30 2682 H 249.32 0.681378 -4.15855 0
M  V30 2683 H 248.044 1.20963 -3.03374 0
M  V30 2684 H 246.703 -0.855717 -3.56473 0
M  V30 2685 H 246.351 1.24642 -4.87312 0
M  V30 2686 H 246.051 -0.197356 -5.87268 0
M  V30 2687 H 247.575 0.715241 -6.06396 0
M  V30 2688 H 248.989 -1.49374 -5.53498 0
M  V30 2689 H 247.386 -2.2848 -5.54903 0
M  V30 2690 H 248.456 -2.50382 -4.15255 0
M  V30 2691 N 249.799 1.42003 -0.683588 0
M  V30 2692 C 251.027 2.05746 -0.218182 0
M  V30 2693 C 251.442 1.51396 1.12804 0
M  V30 2694 O 250.799 0.657303 1.70252 0
M  V30 2695 C 250.85 3.61171 -0.154131 0
M  V30 2696 O 250.571 4.13508 -1.44716 0
M  V30 2697 C 252.072 4.42042 0.333713 0
M  V30 2698 H 249.292 0.662888 -0.10402 0
M  V30 2699 H 251.836 1.81987 -0.9328 0
M  V30 2700 H 249.991 3.84012 0.511231 0
M  V30 2701 H 250.405 5.07453 -1.32632 0
M  V30 2702 H 251.879 5.51028 0.327423 0
M  V30 2703 H 252.356 4.17269 1.37053 0
M  V30 2704 H 252.962 4.24239 -0.300222 0
M  V30 2705 N 251.277 0.427512 1.51691 0
M  V30 2706 C 252.187 -0.39527 2.31246 0
M  V30 2707 C 253.203 -1.03674 1.39742 0
M  V30 2708 O 254.379 -1.03425 1.72816 0
M  V30 2709 C 251.444 -1.48706 3.13189 0
M  V30 2710 C 250.505 -0.866743 4.20459 0
M  V30 2711 C 249.738 -1.90651 4.98486 0
M  V30 2712 O 249.961 -3.12733 4.77026 0
M  V30 2713 O 248.895 -1.5025 5.82845 0
M  V30 2714 H 252.721 0.253918 3.02637 0
M  V30 2715 H 250.306 0.190274 1.48183 0
M  V30 2716 H 252.188 -2.12047 3.64162 0
M  V30 2717 H 250.863 -2.12051 2.44573 0
M  V30 2718 H 249.77 -0.195544 3.73589 0
M  V30 2719 H 251.103 -0.276934 4.9142 0
M  V30 2720 N 252.755 -1.56801 0.158532 0
M  V30 2721 C 253.665 -2.20916 -0.789518 0
M  V30 2722 C 254.681 -1.1969 -1.26294 0
M  V30 2723 O 255.857 -1.52308 -1.31773 0
M  V30 2724 C 252.922 -2.82727 -2.00665 0
M  V30 2725 C 251.983 -3.99114 -1.58134 0
M  V30 2726 C 251.216 -4.57968 -2.74045 0
M  V30 2727 O 251.439 -4.15704 -3.90572 0
M  V30 2728 O 250.373 -5.48047 -2.48855 0
M  V30 2729 H 254.199 -3.02464 -0.273681 0
M  V30 2730 H 251.784 -1.4924 -0.0690548 0
M  V30 2731 H 253.666 -3.21968 -2.71872 0
M  V30 2732 H 252.341 -2.04184 -2.51179 0
M  V30 2733 H 251.248 -3.64567 -0.839155 0
M  V30 2734 H 252.581 -4.79212 -1.12325 0
M  V30 2735 N 254.233 0.115231 -1.57178 0
M  V30 2736 C 255.196 1.12526 -1.99676 0
M  V30 2737 C 256.196 1.34095 -0.88742 0
M  V30 2738 O 257.386 1.30548 -1.15337 0
M  V30 2739 C 254.518 2.4789 -2.34015 0
M  V30 2740 H 255.711 0.759912 -2.90113 0
M  V30 2741 H 253.264 0.359648 -1.52106 0
M  V30 2742 H 253.999 2.89339 -1.4647 0
M  V30 2743 H 253.784 2.33588 -3.14927 0
M  V30 2744 H 255.274 3.20575 -2.67622 0
M  V30 2745 N 255.711 1.52812 0.385517 0
M  V30 2746 C 256.96 1.67249 1.12741 0
M  V30 2747 C 257.273 0.4205 1.91027 0
M  V30 2748 O 258.479 0.445064 2.67827 0
M  V30 2749 C 256.935 2.95583 2.05326 0
M  V30 2750 C 256.543 4.27974 1.32447 0
M  V30 2751 C 258.287 3.19386 2.7963 0
M  V30 2752 C 256.194 5.47412 2.23818 0
M  V30 2753 H 255.124 0.6231 0.424573 0
M  V30 2754 H 257.775 1.79309 0.389924 0
M  V30 2755 H 256.157 2.77277 2.82725 0
M  V30 2756 H 257.331 4.56844 0.602495 0
M  V30 2757 H 255.646 4.10459 0.700885 0
M  V30 2758 H 258.243 4.05801 3.48181 0
M  V30 2759 H 258.586 2.34604 3.43899 0
M  V30 2760 H 259.119 3.38274 2.09322 0
M  V30 2761 H 255.858 6.34612 1.64157 0
M  V30 2762 H 255.378 5.22849 2.93921 0
M  V30 2763 H 257.057 5.81423 2.83824 0
M  V30 2764 N 257.189 -0.644168 1.43834 0
M  V30 2765 C 258.099 -1.78563 1.52159 0
M  V30 2766 C 259.115 -1.69147 0.408069 0
M  V30 2767 O 260.291 -1.90156 0.663524 0
M  V30 2768 C 257.356 -3.14888 1.45073 0
M  V30 2769 C 256.417 -3.36034 2.6717 0
M  V30 2770 C 255.65 -4.65855 2.60413 0
M  V30 2771 O 255.873 -5.45805 1.65689 0
M  V30 2772 O 254.807 -4.88918 3.5106 0
M  V30 2773 H 258.633 -1.74494 2.48567 0
M  V30 2774 H 256.218 -0.80378 1.25935 0
M  V30 2775 H 258.1 -3.96179 1.43597 0
M  V30 2776 H 256.775 -3.19528 0.518037 0
M  V30 2777 H 255.682 -2.54472 2.74217 0
M  V30 2778 H 257.015 -3.36247 3.59442 0
M  V30 2779 N 258.668 -1.30515 -0.883378 0
M  V30 2780 C 259.578 -1.18959 -2.02203 0
M  V30 2781 C 260.594 -0.109172 -1.73657 0
M  V30 2782 O 261.77 -0.324413 -1.9877 0
M  V30 2783 C 258.835 -0.883871 -3.35244 0
M  V30 2784 C 257.896 -2.04982 -3.77201 0
M  V30 2785 C 257.129 -1.75859 -5.03894 0
M  V30 2786 O 257.352 -0.687276 -5.66244 0
M  V30 2787 O 256.286 -2.61146 -5.42297 0
M  V30 2788 H 260.112 -2.14616 -2.1488 0
M  V30 2789 H 257.697 -1.10124 -1.0096 0
M  V30 2790 H 259.579 -0.728644 -4.15053 0
M  V30 2791 H 258.254 0.0427798 -3.23672 0
M  V30 2792 H 257.161 -2.26038 -2.9809 0
M  V30 2793 H 258.494 -2.95825 -3.93381 0
M  V30 2794 N 260.146 1.09593 -1.13257 0
M  V30 2795 C 261.079 2.15451 -0.752061 0
M  V30 2796 C 262.057 1.60493 0.260913 0
M  V30 2797 O 263.241 1.8788 0.152819 0
M  V30 2798 C 260.368 3.38506 -0.114594 0
M  V30 2799 C 259.414 4.12183 -1.09579 0
M  V30 2800 S 260.247 4.6661 -2.62745 0
M  V30 2801 C 261.403 5.92966 -2.00354 0
M  V30 2802 H 261.636 2.47395 -1.64872 0
M  V30 2803 H 259.169 1.21515 -0.952545 0
M  V30 2804 H 261.127 4.09757 0.246808 0
M  V30 2805 H 259.788 3.04784 0.759309 0
M  V30 2806 H 258.981 5.00445 -0.597545 0
M  V30 2807 H 258.583 3.46785 -1.40057 0
M  V30 2808 H 260.875 6.63882 -1.35156 0
M  V30 2809 H 261.818 6.47467 -2.86691 0
M  V30 2810 H 262.226 5.45405 -1.4558 0
M  V30 2811 N 261.624 0.925811 1.2754 0
M  V30 2812 C 262.534 0.428993 2.30644 0
M  V30 2813 C 263.55 -0.489387 1.66976 0
M  V30 2814 O 264.726 -0.372653 1.97922 0
M  V30 2815 C 261.791 -0.311967 3.45294 0
M  V30 2816 C 260.852 0.641098 4.24486 0
M  V30 2817 C 260.085 -0.0645955 5.33661 0
M  V30 2818 O 260.308 -1.28429 5.55754 0
M  V30 2819 O 259.242 0.606265 5.98839 0
M  V30 2820 H 263.068 1.28504 2.75173 0
M  V30 2821 H 260.653 0.691086 1.32455 0
M  V30 2822 H 262.535 -0.729972 4.15029 0
M  V30 2823 H 261.21 -1.14365 3.02824 0
M  V30 2824 H 260.117 1.10874 3.57292 0
M  V30 2825 H 261.45 1.43995 4.70666 0
M  V30 2826 N 263.102 -1.41638 0.69111 0
M  V30 2827 C 264.518 -1.55435 0.362224 0
M  V30 2828 C 264.718 -1.66754 -1.13117 0
M  V30 2829 O 263.774 -1.64348 -1.91692 0
M  V30 2830 C 265.087 -2.79588 1.10684 0
M  V30 2831 C 266.635 -2.9338 1.09075 0
M  V30 2832 C 267.11 -4.20414 1.81703 0
M  V30 2833 N 268.601 -4.27362 1.7865 0
M  V30 2834 C 269.336 -5.24507 2.31689 0
M  V30 2835 N 268.832 -6.27708 2.93179 0
M  V30 2836 N 270.625 -5.16416 2.2197 0
M  V30 2837 H 262.776 -1.32536 1.65976 0
M  V30 2838 H 265.039 -0.639115 0.700168 0
M  V30 2839 H 264.745 -2.77419 2.16175 0
M  V30 2840 H 264.619 -3.70973 0.682545 0
M  V30 2841 H 267.006 -2.95067 0.0441238 0
M  V30 2842 H 267.087 -2.0318 1.55407 0
M  V30 2843 H 266.731 -4.19488 2.86343 0
M  V30 2844 H 266.661 -5.09578 1.32808 0
M  V30 2845 H 269.152 -3.53415 1.33815 0
M  V30 2846 H 269.465 -6.98217 3.31229 0
M  V30 2847 H 267.81 -6.28223 2.97255 0
M  V30 2848 H 271.001 -4.34716 1.73607 0
M  V30 2849 H 271.174 -5.91958 2.63609 0
M  V30 2850 N 264.58 -0.43555 -1.51462 0
M  V30 2851 C 265.857 0.191364 -1.94662 0
M  V30 2852 C 266.237 1.60254 -1.37411 0
M  V30 2853 O 265.585 2.2152 -0.560458 0
M  V30 2854 C 265.795 0.17091 -3.48581 0
M  V30 2855 C 267.143 0.377357 -4.2292 0
M  V30 2856 O 268.167 0.249104 -3.55328 0
M  V30 2857 O 267.026 0.63247 -5.42828 0
M  V30 2858 H 264.12 0.130932 -0.816569 0
M  V30 2859 H 266.666 -0.4934 -1.62369 0
M  V30 2860 H 265.438 -0.815738 -3.82703 0
M  V30 2861 H 265.061 0.898659 -3.87311 0
M  V30 2862 N 266.058 1.56714 -0.166846 0
M  V30 2863 C 267.306 1.96358 0.478305 0
M  V30 2864 C 267.627 1.0537 1.6408 0
M  V30 2865 O 266.897 0.119154 1.95537 0
M  V30 2866 H 265.477 0.725065 0.179692 0
M  V30 2867 H 268.139 1.93329 -0.246985 0
M  V30 2868 H 267.235 3.00547 0.841292 0
M  V30 2869 N 267.536 -0.106894 1.57237 0
M  V30 2870 C 268.466 -1.13148 2.04254 0
M  V30 2871 C 269.447 -1.42476 0.929224 0
M  V30 2872 O 270.632 -1.52709 1.19973 0
M  V30 2873 C 267.762 -2.4545 2.45706 0
M  V30 2874 C 266.716 -2.30558 3.60592 0
M  V30 2875 C 266.042 -3.67931 3.87983 0
M  V30 2876 C 267.342 -1.75597 4.91897 0
M  V30 2877 H 269.036 -0.740374 2.90101 0
M  V30 2878 H 266.582 -0.354696 1.39563 0
M  V30 2879 H 268.535 -3.17389 2.77205 0
M  V30 2880 H 267.259 -2.86475 1.56843 0
M  V30 2881 H 265.918 -1.61067 3.29322 0
M  V30 2882 H 265.566 -4.06462 2.96306 0
M  V30 2883 H 265.266 -3.58817 4.65322 0
M  V30 2884 H 266.79 -4.41356 4.21945 0
M  V30 2885 H 268.204 -2.37364 5.21854 0
M  V30 2886 H 266.601 -1.77272 5.73319 0
M  V30 2887 H 267.671 -0.714451 4.79608 0
M  V30 2888 N 269.014 -1.53014 -0.377408 0
M  V30 2889 C 269.924 -1.81557 -1.48574 0
M  V30 2890 C 270.94 -0.703102 -1.59162 0
M  V30 2891 O 272.116 -0.99192 -1.75279 0
M  V30 2892 C 269.181 -1.9889 -2.83978 0
M  V30 2893 C 268.242 -3.22801 -2.83016 0
M  V30 2894 C 267.475 -3.39298 -4.11962 0
M  V30 2895 O 267.698 -2.60345 -5.0752 0
M  V30 2896 O 266.632 -4.32604 -4.18494 0
M  V30 2897 H 270.458 -2.75695 -1.27382 0
M  V30 2898 H 268.043 -1.38248 -0.566373 0
M  V30 2899 H 269.925 -2.11931 -3.6423 0
M  V30 2900 H 268.6 -1.07942 -3.05172 0
M  V30 2901 H 267.507 -3.15193 -2.01505 0
M  V30 2902 H 268.84 -4.13632 -2.66775 0
M  V30 2903 N 270.492 0.636531 -1.44174 0
M  V30 2904 C 271.908 0.954104 -1.27941 0
M  V30 2905 C 272.108 2.0039 -0.211248 0
M  V30 2906 O 271.164 2.49236 0.404695 0
M  V30 2907 C 272.477 1.4225 -2.64925 0
M  V30 2908 C 274.025 1.53827 -2.72592 0
M  V30 2909 C 274.5 2.04053 -4.10032 0
M  V30 2910 N 275.991 2.11331 -4.12182 0
M  V30 2911 C 276.726 2.51352 -5.15374 0
M  V30 2912 N 276.222 2.90549 -6.2893 0
M  V30 2913 N 278.015 2.51438 -5.02728 0
M  V30 2914 H 270.166 -0.0578386 -2.12321 0
M  V30 2915 H 272.429 0.0367406 -0.947288 0
M  V30 2916 H 272.135 0.725466 -3.44136 0
M  V30 2917 H 272.009 2.39451 -2.9145 0
M  V30 2918 H 274.396 2.22628 -1.93702 0
M  V30 2919 H 274.477 0.550154 -2.49814 0
M  V30 2920 H 274.121 1.35848 -4.89395 0
M  V30 2921 H 274.051 3.03726 -4.30184 0
M  V30 2922 H 276.542 1.83745 -3.30222 0
M  V30 2923 H 276.855 3.19884 -7.03487 0
M  V30 2924 H 275.2 2.88313 -6.32377 0
M  V30 2925 H 278.391 2.20203 -4.13072 0
M  V30 2926 H 278.564 2.82304 -5.83274 0
M  V30 2927 N 271.97 1.30982 0.876444 0
M  V30 2928 C 272.933 1.18054 1.96459 0
M  V30 2929 C 273.933 0.109399 1.60427 0
M  V30 2930 O 275.123 0.358173 1.70478 0
M  V30 2931 C 272.255 0.810616 3.31122 0
M  V30 2932 H 273.448 2.14735 2.09354 0
M  V30 2933 H 271.001 1.145 1.06392 0
M  V30 2934 H 271.736 -0.155322 3.23928 0
M  V30 2935 H 271.521 1.58481 3.58645 0
M  V30 2936 H 273.011 0.743876 4.10921 0
M  V30 2937 N 273.449 -1.08991 1.13837 0
M  V30 2938 C 274.698 -1.80631 0.897509 0
M  V30 2939 C 275.011 -1.86872 -0.57777 0
M  V30 2940 O 276.217 -2.54866 -0.935701 0
M  V30 2941 C 274.673 -3.24517 1.55618 0
M  V30 2942 C 274.281 -3.26529 3.0673 0
M  V30 2943 C 276.025 -4.00882 1.3962 0
M  V30 2944 C 273.932 -4.64965 3.65461 0
M  V30 2945 H 272.862 -0.67691 0.332129 0
M  V30 2946 H 275.513 -1.2246 1.3666 0
M  V30 2947 H 273.895 -3.82778 1.01476 0
M  V30 2948 H 275.069 -2.78008 3.67489 0
M  V30 2949 H 273.384 -2.63656 3.22296 0
M  V30 2950 H 275.981 -5.03167 1.80906 0
M  V30 2951 H 276.324 -4.14896 0.341578 0
M  V30 2952 H 276.857 -3.49075 1.90766 0
M  V30 2953 H 273.596 -4.56153 4.70749 0
M  V30 2954 H 273.116 -5.13792 3.09481 0
M  V30 2955 H 274.795 -5.3394 3.654 0
M  V30 2956 N 274.927 -0.932562 -1.27047 0
M  V30 2957 C 275.89 -0.440064 -2.24936 0
M  V30 2958 C 276.89 0.444071 -1.54547 0
M  V30 2959 O 278.08 0.244465 -1.72476 0
M  V30 2960 C 275.212 0.36678 -3.38921 0
M  V30 2961 H 276.405 -1.305 -2.70018 0
M  V30 2962 H 273.958 -0.713707 -1.39054 0
M  V30 2963 H 274.693 1.25033 -2.99228 0
M  V30 2964 H 274.478 -0.267204 -3.91188 0
M  V30 2965 H 275.968 0.701567 -4.11665 0
M  V30 2966 N 276.405 1.4127 -0.698611 0
M  V30 2967 C 277.652 2.0118 -0.230865 0
M  V30 2968 C 277.98 1.55338 1.17049 0
M  V30 2969 O 277.235 0.756775 1.80475 0
M  V30 2970 C 277.534 3.56592 -0.240192 0
M  V30 2971 C 277.2 4.21955 -1.58948 0
M  V30 2972 C 275.862 4.39524 -1.95887 0
M  V30 2973 C 278.214 4.58576 -2.47704 0
M  V30 2974 C 275.542 4.90992 -3.2116 0
M  V30 2975 C 277.894 5.11435 -3.72313 0
M  V30 2976 C 276.558 5.27215 -4.0939 0
M  V30 2977 H 275.828 0.736169 -0.0844796 0
M  V30 2978 H 278.475 1.69124 -0.8983 0
M  V30 2979 H 276.78 3.88456 0.510797 0
M  V30 2980 H 278.477 4.00758 0.139296 0
M  V30 2981 H 275.067 4.08657 -1.29219 0
M  V30 2982 H 279.251 4.44654 -2.20445 0
M  V30 2983 H 274.507 5.01393 -3.49878 0
M  V30 2984 H 278.681 5.38752 -4.4127 0
M  V30 2985 H 276.308 5.66859 -5.06533 0
M  V30 2986 N 277.883 0.443576 1.51229 0
M  V30 2987 C 279.111 -0.11929 2.06556 0
M  V30 2988 C 279.526 -1.35921 1.31038 0
M  V30 2989 O 278.883 -1.78675 0.371704 0
M  V30 2990 C 278.934 -0.435228 3.5887 0
M  V30 2991 O 278.655 0.755486 4.31537 0
M  V30 2992 C 280.156 -1.04808 4.30732 0
M  V30 2993 H 277.376 -0.0051584 0.67098 0
M  V30 2994 H 279.92 0.624453 1.94733 0
M  V30 2995 H 278.075 -1.12887 3.70588 0
M  V30 2996 H 278.489 0.483491 5.22267 0
M  V30 2997 H 279.963 -1.2191 5.3837 0
M  V30 2998 H 280.44 -2.03081 3.89429 0
M  V30 2999 H 281.046 -0.393637 4.23474 0
M  V30 3000 N 279.361 -1.56624 0.175154 0
M  V30 3001 C 280.293 -2.15333 -0.785128 0
M  V30 3002 C 281.306 -1.1099 -1.19101 0
M  V30 3003 O 282.495 -1.38162 -1.13019 0
M  V30 3004 C 279.595 -2.68427 -2.06882 0
M  V30 3005 C 278.768 -3.97466 -1.8259 0
M  V30 3006 C 277.827 -4.35585 -2.95215 0
M  V30 3007 O 276.853 -5.03389 -2.65684 0
M  V30 3008 N 278.055 -3.97457 -4.23094 0
M  V30 3009 H 280.82 -2.98359 -0.283187 0
M  V30 3010 H 278.381 -1.61898 -0.00749817 0
M  V30 3011 H 280.373 -2.90924 -2.81328 0
M  V30 3012 H 278.943 -1.89968 -2.48256 0
M  V30 3013 H 278.163 -3.83307 -0.920287 0
M  V30 3014 H 279.451 -4.81736 -1.63733 0
M  V30 3015 H 278.849 -3.42878 -4.49945 0
M  V30 3016 H 277.406 -4.24947 -4.9423 0
M  V30 3017 N 280.839 0.0985539 -1.57292 0
M  V30 3018 C 282.069 0.815135 -1.8984 0
M  V30 3019 C 282.477 1.7297 -0.766679 0
M  V30 3020 O 281.82 1.81698 0.270483 0
M  V30 3021 C 281.882 1.6842 -3.17608 0
M  V30 3022 C 281.546 0.94182 -4.4719 0
M  V30 3023 C 282.543 0.273212 -5.19182 0
M  V30 3024 C 280.228 0.916927 -4.9386 0
M  V30 3025 C 282.222 -0.410361 -6.36078 0
M  V30 3026 C 279.909 0.229567 -6.10669 0
M  V30 3027 C 280.907 -0.432902 -6.81627 0
M  V30 3028 O 280.595 -1.10925 -7.9621 0
M  V30 3029 H 280.327 0.238501 -0.632529 0
M  V30 3030 H 282.881 0.0812659 -2.05239 0
M  V30 3031 H 281.111 2.46022 -2.98345 0
M  V30 3032 H 282.8 2.27704 -3.36015 0
M  V30 3033 H 283.566 0.283927 -4.84168 0
M  V30 3034 H 279.445 1.42201 -4.3852 0
M  V30 3035 H 282.989 -0.928013 -6.914 0
M  V30 3036 H 278.886 0.216686 -6.45136 0
M  V30 3037 H 279.654 -1.01579 -8.12172 0
M  V30 3038 N 282.317 1.53212 0.369288 0
M  V30 3039 C 283.728 1.60943 0.946276 0
M  V30 3040 C 284.079 0.47452 1.90375 0
M  V30 3041 O 283.204 -0.399597 2.12679 0
M  V30 3042 C 283.799 2.91715 1.72302 0
M  V30 3043 C 282.358 3.01792 2.24941 0
M  V30 3044 C 281.505 2.56211 1.06072 0
M  V30 3045 H 284.456 1.58007 0.148198 0
M  V30 3046 H 284.477 2.79309 2.58393 0
M  V30 3047 H 283.989 3.74295 1.0259 0
M  V30 3048 H 282.09 2.23791 2.97906 0
M  V30 3049 H 282.203 4.06803 2.53077 0
M  V30 3050 H 280.567 2.10998 1.4266 0
M  V30 3051 H 281.35 3.41206 0.378639 0
M  V30 3052 N 283.795 -0.628877 1.44509 0
M  V30 3053 C 284.727 -1.754 1.47538 0
M  V30 3054 C 285.74 -1.58575 0.368506 0
M  V30 3055 O 286.929 -1.66847 0.634376 0
M  V30 3056 C 284.029 -3.1315 1.29577 0
M  V30 3057 C 283.202 -3.56413 2.53551 0
M  V30 3058 C 282.261 -4.7305 2.30457 0
M  V30 3059 O 281.287 -4.81247 3.03957 0
M  V30 3060 N 282.489 -5.64903 1.3366 0
M  V30 3061 H 285.254 -1.73272 2.44534 0
M  V30 3062 H 282.815 -0.813512 1.39977 0
M  V30 3063 H 284.807 -3.88902 1.11971 0
M  V30 3064 H 283.377 -3.09908 0.409371 0
M  V30 3065 H 282.597 -2.70847 2.86419 0
M  V30 3066 H 283.885 -3.82071 3.36005 0
M  V30 3067 H 283.283 -5.60975 0.729604 0
M  V30 3068 H 281.84 -6.40275 1.22032 0
M  V30 3069 N 285.273 -1.31445 -0.869486 0
M  V30 3070 C 286.503 -1.23942 -1.65294 0
M  V30 3071 C 286.911 0.197561 -1.88166 0
M  V30 3072 O 286.254 1.14019 -1.44033 0
M  V30 3073 C 286.316 -1.91385 -3.04322 0
M  V30 3074 C 285.98 -3.40726 -3.04557 0
M  V30 3075 C 286.977 -4.36464 -2.82481 0
M  V30 3076 C 284.662 -3.82425 -3.25663 0
M  V30 3077 C 286.656 -5.71876 -2.8149 0
M  V30 3078 C 284.343 -5.1795 -3.243 0
M  V30 3079 C 285.341 -6.12486 -3.02241 0
M  V30 3080 O 285.029 -7.45534 -3.00724 0
M  V30 3081 H 284.761 -0.429459 -0.522054 0
M  V30 3082 H 287.315 -1.73873 -1.0935 0
M  V30 3083 H 285.545 -1.36004 -3.61994 0
M  V30 3084 H 287.234 -1.77791 -3.64891 0
M  V30 3085 H 288 -4.05576 -2.65956 0
M  V30 3086 H 283.879 -3.09274 -3.41863 0
M  V30 3087 H 287.423 -6.45638 -2.64191 0
M  V30 3088 H 283.32 -5.48473 -3.40365 0
M  V30 3089 H 284.088 -7.54713 -3.16782 0
M  V30 3090 N 286.751 1.08385 -1.14413 0
M  V30 3091 C 287.976 1.85057 -0.936413 0
M  V30 3092 C 288.401 1.81055 0.509971 0
M  V30 3093 O 287.759 1.1958 1.36273 0
M  V30 3094 C 287.807 3.30505 -1.44217 0
M  V30 3095 O 286.911 4.07491 -0.634409 0
M  V30 3096 H 286.252 0.573425 -0.334784 0
M  V30 3097 H 288.782 1.36799 -1.52142 0
M  V30 3098 H 288.792 3.81348 -1.45043 0
M  V30 3099 H 287.467 3.32734 -2.49522 0
M  V30 3100 H 286.044 3.66368 -0.694902 0
M  V30 3101 N 288.23 0.939286 1.26551 0
M  V30 3102 C 289.47 0.5933 1.956 0
M  V30 3103 C 289.834 -0.851515 1.72085 0
M  V30 3104 O 291.035 -1.30634 2.34921 0
M  V30 3105 C 289.306 0.923996 3.45249 0
M  V30 3106 S 290.865 0.688269 4.33369 0
M  V30 3107 H 287.683 0.218591 0.676564 0
M  V30 3108 H 290.285 1.2102 1.5354 0
M  V30 3109 H 288.989 1.97297 3.59864 0
M  V30 3110 H 288.52 0.296746 3.92279 0
M  V30 3111 H 290.535 -0.448434 4.9417 0
M  V30 3112 N 289.708 -1.40897 0.706093 0
M  V30 3113 C 290.933 -2.05895 0.249435 0
M  V30 3114 C 291.358 -1.52823 -1.09666 0
M  V30 3115 O 290.716 -0.659589 -1.68876 0
M  V30 3116 C 290.764 -3.59872 0.22904 0
M  V30 3117 O 289.868 -4.04708 -0.792784 0
M  V30 3118 H 289.209 -0.653206 0.119241 0
M  V30 3119 H 291.739 -1.80471 0.96391 0
M  V30 3120 H 291.749 -4.07951 0.0634791 0
M  V30 3121 H 290.424 -3.97866 1.21141 0
M  V30 3122 H 289.001 -3.68111 -0.59572 0
M  V30 3123 N 291.186 -0.45159 -1.50991 0
M  V30 3124 C 292.414 0.108334 -2.06616 0
M  V30 3125 C 292.829 1.35224 -1.31757 0
M  V30 3126 O 292.186 1.78475 -0.381174 0
M  V30 3127 C 292.237 0.41619 -3.59096 0
M  V30 3128 O 291.958 -0.778361 -4.3113 0
M  V30 3129 C 293.459 1.02523 -4.31282 0
M  V30 3130 H 290.679 0.00159995 -0.670998 0
M  V30 3131 H 293.223 -0.634771 -1.94399 0
M  V30 3132 H 291.378 1.10921 -3.71181 0
M  V30 3133 H 291.792 -0.511181 -5.22003 0
M  V30 3134 H 293.266 1.19053 -5.39009 0
M  V30 3135 H 293.743 2.01013 -3.905 0
M  V30 3136 H 294.349 0.371173 -4.23677 0
M  V30 3137 N 292.664 1.56529 -0.183458 0
M  V30 3138 C 293.892 2.01623 0.464285 0
M  V30 3139 C 294.307 1.06366 1.55986 0
M  V30 3140 O 293.664 0.0665398 1.82379 0
M  V30 3141 C 293.715 3.46475 1.03139 0
M  V30 3142 O 293.436 4.38095 -0.0204675 0
M  V30 3143 C 294.937 4.0703 1.75617 0
M  V30 3144 H 292.157 0.660596 0.117704 0
M  V30 3145 H 294.701 2.02451 -0.288751 0
M  V30 3146 H 292.856 3.46383 1.73486 0
M  V30 3147 H 293.27 5.22973 0.399952 0
M  V30 3148 H 294.744 5.10271 2.10542 0
M  V30 3149 H 295.221 3.49819 2.65563 0
M  V30 3150 H 295.827 4.1086 1.09882 0
M  V30 3151 N 294.142 -0.090211 1.57342 0
M  V30 3152 C 295.39 -0.791241 1.85967 0
M  V30 3153 C 295.711 -1.7903 0.772859 0
M  V30 3154 O 294.981 -1.94872 -0.200398 0
M  V30 3155 H 293.561 -0.295205 0.686195 0
M  V30 3156 H 296.223 -0.0706782 1.94772 0
M  V30 3157 H 295.319 -1.31882 2.82867 0
M  V30 3158 N 295.62 -1.53406 -0.361157 0
M  V30 3159 C 296.845 -1.74024 -1.12829 0
M  V30 3160 C 297.27 -0.470069 -1.82132 0
M  V30 3161 O 296.628 0.57619 -1.719 0
M  V30 3162 C 296.676 -2.90903 -2.13091 0
M  V30 3163 O 295.78 -2.59821 -3.20261 0
M  V30 3164 H 295.121 -0.577804 -0.327168 0
M  V30 3165 H 297.651 -2.00307 -0.41693 0
M  V30 3166 H 297.661 -3.17194 -2.56616 0
M  V30 3167 H 296.336 -3.83034 -1.62042 0
M  V30 3168 H 294.913 -2.44362 -2.81677 0
M  V30 3169 N 297.098 0.621204 -1.44841 0
M  V30 3170 C 298.323 1.41244 -1.51871 0
M  V30 3171 C 298.748 1.87519 -0.147764 0
M  V30 3172 O 298.106 1.59334 0.865 0
M  V30 3173 C 298.154 2.60221 -2.49634 0
M  V30 3174 O 297.258 3.60395 -2.00473 0
M  V30 3175 H 296.599 0.42223 -0.512463 0
M  V30 3176 H 299.129 0.757305 -1.90069 0
M  V30 3177 H 299.139 3.0764 -2.67996 0
M  V30 3178 H 297.814 2.25887 -3.4921 0
M  V30 3179 H 296.391 3.19717 -1.91925 0
M  V30 3180 N 298.576 1.31904 0.862503 0
M  V30 3181 C 299.506 1.22782 1.98612 0
M  V30 3182 C 300.487 0.113362 1.69722 0
M  V30 3183 O 301.672 0.299218 1.91881 0
M  V30 3184 C 298.802 0.942058 3.34279 0
M  V30 3185 C 297.756 2.0169 3.77499 0
M  V30 3186 C 297.082 1.58369 5.10709 0
M  V30 3187 C 298.382 3.43096 3.93805 0
M  V30 3188 H 300.076 2.16788 2.06502 0
M  V30 3189 H 297.622 1.04366 0.992154 0
M  V30 3190 H 299.575 0.864818 4.1243 0
M  V30 3191 H 298.299 -0.0336603 3.26583 0
M  V30 3192 H 296.958 2.08416 3.01593 0
M  V30 3193 H 296.606 0.595628 4.99461 0
M  V30 3194 H 296.306 2.30279 5.40597 0
M  V30 3195 H 297.83 1.52067 5.91361 0
M  V30 3196 H 299.244 3.39003 4.62331 0
M  V30 3197 H 297.641 4.13288 4.35101 0
M  V30 3198 H 298.711 3.83334 2.96957 0
M  V30 3199 N 300.054 -1.07777 1.14986 0
M  V30 3200 C 301.002 -2.16964 0.838406 0
M  V30 3201 C 301.996 -1.68372 -0.186386 0
M  V30 3202 O 303.202 -1.79951 -0.0418465 0
M  V30 3203 H 299.577 -0.708006 0.253439 0
M  V30 3204 H 301.548 -2.40454 1.76704 0
M  V30 3205 C 300.297 -3.4604 0.339335 0
M  V30 3206 H 299.62 -3.83813 1.11927 0
M  V30 3207 H 301.06 -4.23698 0.160021 0
M  V30 3208 C 299.519 -3.23569 -0.938325 0
M  V30 3209 O 300.049 -3.47752 -2.01077 0
M  V30 3210 N 298.255 -2.77079 -0.876117 0
M  V30 3211 H 297.802 -2.576 -0.00322037 0
M  V30 3212 H 297.76 -2.62422 -1.73153 0
M  V30 3213 N 301.532 -0.945985 -1.26051 0
M  V30 3214 C 302.495 -0.463897 -2.24456 0
M  V30 3215 C 303.495 0.427655 -1.55009 0
M  V30 3216 O 304.685 0.226157 -1.72726 0
M  V30 3217 C 301.817 0.330812 -3.39291 0
M  V30 3218 H 303.01 -1.33357 -2.68619 0
M  V30 3219 H 300.563 -0.728416 -1.38289 0
M  V30 3220 H 301.298 1.21852 -3.00537 0
M  V30 3221 H 301.083 -0.308679 -3.90883 0
M  V30 3222 H 302.573 0.657865 -4.12386 0
M  V30 3223 N 303.011 1.40521 -0.713556 0
M  V30 3224 C 304.26 2.00155 -0.249192 0
M  V30 3225 C 304.573 1.57224 1.16362 0
M  V30 3226 O 305.779 2.09542 1.72639 0
M  V30 3227 C 304.235 3.5773 -0.3946 0
M  V30 3228 C 303.843 4.09635 -1.81392 0
M  V30 3229 C 305.587 4.24499 0.00907364 0
M  V30 3230 C 303.494 5.59707 -1.91003 0
M  V30 3231 H 302.424 0.74868 -0.0894114 0
M  V30 3232 H 305.075 1.60784 -0.884352 0
M  V30 3233 H 303.457 3.94792 0.30911 0
M  V30 3234 H 304.631 3.83955 -2.54785 0
M  V30 3235 H 302.946 3.55456 -2.16888 0
M  V30 3236 H 305.543 5.34683 -0.0420404 0
M  V30 3237 H 305.886 4.02824 1.05065 0
M  V30 3238 H 306.419 3.92536 -0.645007 0
M  V30 3239 H 303.158 5.86234 -2.93275 0
M  V30 3240 H 302.678 5.87258 -1.22019 0
M  V30 3241 H 304.357 6.24776 -1.6812 0
M  V30 3242 N 304.489 0.459591 1.5075 0
M  V30 3243 C 305.719 -0.0972338 2.06371 0
M  V30 3244 C 306.127 -1.35074 1.32483 0
M  V30 3245 O 305.47 -1.79637 0.384226 0
M  V30 3246 C 305.532 -0.462759 3.56509 0
M  V30 3247 C 305.196 0.687084 4.51805 0
M  V30 3248 C 306.193 1.56578 4.95761 0
M  V30 3249 C 303.878 0.874144 4.94635 0
M  V30 3250 C 305.872 2.61604 5.81242 0
M  V30 3251 C 303.559 1.92765 5.79901 0
M  V30 3252 C 304.557 2.79697 6.23104 0
M  V30 3253 O 304.245 3.83235 7.06673 0
M  V30 3254 H 303.977 -0.00140687 0.675999 0
M  V30 3255 H 306.531 0.644011 1.95043 0
M  V30 3256 H 304.761 -1.25703 3.65699 0
M  V30 3257 H 306.45 -0.953323 3.94546 0
M  V30 3258 H 307.216 1.4329 4.6335 0
M  V30 3259 H 303.095 0.207006 4.60535 0
M  V30 3260 H 306.639 3.29489 6.14884 0
M  V30 3261 H 302.536 2.06064 6.11725 0
M  V30 3262 H 303.304 3.80084 7.24899 0
M  V30 3263 N 305.967 -1.56429 0.191757 0
M  V30 3264 C 307.383 -1.58754 -0.164137 0
M  V30 3265 C 307.583 -1.20782 -1.61288 0
M  V30 3266 O 306.639 -0.928999 -2.34789 0
M  V30 3267 C 307.952 -3.00396 0.135195 0
M  V30 3268 C 309.5 -3.1291 0.0750351 0
M  V30 3269 C 309.975 -4.56679 0.347632 0
M  V30 3270 N 311.466 -4.62252 0.296131 0
M  V30 3271 C 312.201 -5.71379 0.480948 0
M  V30 3272 N 311.697 -6.88986 0.725933 0
M  V30 3273 N 313.49 -5.60563 0.415435 0
M  V30 3274 H 305.641 -1.79393 1.13718 0
M  V30 3275 H 307.904 -0.832414 0.453643 0
M  V30 3276 H 307.61 -3.32726 1.13958 0
M  V30 3277 H 307.484 -3.72963 -0.563773 0
M  V30 3278 H 309.871 -2.80394 -0.919948 0
M  V30 3279 H 309.952 -2.42736 0.807029 0
M  V30 3280 H 309.596 -4.89907 1.33992 0
M  V30 3281 H 309.526 -5.25039 -0.405212 0
M  V30 3282 H 312.017 -3.7773 0.113259 0
M  V30 3283 H 312.33 -7.68046 0.855857 0
M  V30 3284 H 310.675 -6.90801 0.762788 0
M  V30 3285 H 313.866 -4.67561 0.224486 0
M  V30 3286 H 314.039 -6.45551 0.562889 0
M  V30 3287 N 307.445 0.0818655 -1.57387 0
M  V30 3288 C 308.675 0.794954 -1.90694 0
M  V30 3289 C 309.083 1.72147 -0.784982 0
M  V30 3290 O 308.426 1.81974 0.251196 0
M  V30 3291 C 308.488 1.65042 -3.19376 0
M  V30 3292 C 308.152 0.894337 -4.48164 0
M  V30 3293 C 309.149 0.21813 -5.19442 0
M  V30 3294 C 306.834 0.864495 -4.94805 0
M  V30 3295 C 308.828 -0.477802 -6.35607 0
M  V30 3296 C 306.515 0.164785 -6.10878 0
M  V30 3297 C 307.513 -0.505173 -6.81129 0
M  V30 3298 O 307.201 -1.19363 -7.94989 0
M  V30 3299 H 306.933 0.231779 -0.635023 0
M  V30 3300 H 309.487 0.059493 -2.05314 0
M  V30 3301 H 307.717 2.42844 -3.00938 0
M  V30 3302 H 309.406 2.24127 -3.38411 0
M  V30 3303 H 310.172 0.232558 -4.84442 0
M  V30 3304 H 306.051 1.37542 -4.40004 0
M  V30 3305 H 309.595 -1.00129 -6.90377 0
M  V30 3306 H 305.492 0.148249 -6.4533 0
M  V30 3307 H 306.26 -1.10188 -8.11049 0
M  V30 3308 N 308.923 1.53595 0.353017 0
M  V30 3309 C 310.153 1.74058 1.11299 0
M  V30 3310 C 310.561 0.475205 1.83135 0
M  V30 3311 O 309.904 -0.562344 1.74881 0
M  V30 3312 C 309.966 2.85994 2.17825 0
M  V30 3313 C 309.63 4.25923 1.65647 0
M  V30 3314 C 310.627 5.07829 1.11383 0
M  V30 3315 C 308.312 4.72377 1.7078 0
M  V30 3316 C 310.306 6.34285 0.629439 0
M  V30 3317 C 307.993 5.98808 1.21953 0
M  V30 3318 C 308.991 6.79594 0.681265 0
M  V30 3319 O 308.679 8.03651 0.200248 0
M  V30 3320 H 308.411 0.585327 0.338183 0
M  V30 3321 H 310.965 2.01186 0.413927 0
M  V30 3322 H 309.195 2.54368 2.91262 0
M  V30 3323 H 310.884 2.94515 2.79313 0
M  V30 3324 H 311.65 4.73107 1.06746 0
M  V30 3325 H 307.529 4.0956 2.11617 0
M  V30 3326 H 311.073 6.97288 0.208636 0
M  V30 3327 H 306.97 6.33026 1.26287 0
M  V30 3328 H 307.738 8.1788 0.318416 0
M  V30 3329 N 310.401 -0.613514 1.45168 0
M  V30 3330 C 311.349 -1.74572 1.53712 0
M  V30 3331 C 312.343 -1.64426 0.407505 0
M  V30 3332 O 313.549 -1.70291 0.583176 0
M  V30 3333 H 309.924 -0.576641 0.48269 0
M  V30 3334 H 311.895 -1.64492 2.48968 0
M  V30 3335 C 310.644 -3.12943 1.51532 0
M  V30 3336 H 309.967 -3.21407 2.37776 0
M  V30 3337 H 311.407 -3.9201 1.61569 0
M  V30 3338 C 309.866 -3.36053 0.238798 0
M  V30 3339 O 310.396 -3.95837 -0.6838 0
M  V30 3340 N 308.602 -2.9028 0.136359 0
M  V30 3341 H 308.149 -2.41811 0.887999 0
M  V30 3342 H 308.107 -3.06116 -0.716944 0
M  V30 3343 N 311.879 -1.3236 -0.855495 0
M  V30 3344 C 312.811 -1.17052 -1.97057 0
M  V30 3345 C 313.824 -0.10574 -1.62456 0
M  V30 3346 O 315.013 -0.354619 -1.74942 0
M  V30 3347 C 312.113 -0.769305 -3.30053 0
M  V30 3348 C 311.286 -1.9222 -3.929 0
M  V30 3349 C 310.345 -1.50466 -5.04228 0
M  V30 3350 O 309.371 -2.21655 -5.24269 0
M  V30 3351 N 310.573 -0.400209 -5.79119 0
M  V30 3352 H 313.338 -2.13103 -2.1073 0
M  V30 3353 H 310.899 -1.24885 -1.0303 0
M  V30 3354 H 312.891 -0.472407 -4.01933 0
M  V30 3355 H 311.461 0.100025 -3.1244 0
M  V30 3356 H 310.681 -2.38563 -3.13817 0
M  V30 3357 H 311.969 -2.69403 -4.31624 0
M  V30 3358 H 311.367 0.192319 -5.65373 0
M  V30 3359 H 309.924 -0.162912 -6.51596 0
M  V30 3360 N 313.357 1.07166 -1.15556 0
M  V30 3361 C 314.603 1.80065 -0.932984 0
M  V30 3362 C 314.936 1.86586 0.53845 0
M  V30 3363 O 314.211 1.35098 1.39924 0
M  V30 3364 C 314.494 3.25022 -1.55025 0
M  V30 3365 C 314.347 3.26634 -3.09242 0
M  V30 3366 C 315.666 4.22341 -1.2376 0
M  V30 3367 H 312.785 0.653697 -0.340366 0
M  V30 3368 H 315.427 1.25389 -1.4275 0
M  V30 3369 H 313.577 3.71712 -1.12972 0
M  V30 3370 H 315.249 2.88173 -3.60214 0
M  V30 3371 H 313.492 2.65539 -3.43033 0
M  V30 3372 H 314.163 4.28854 -3.47546 0
M  V30 3373 H 316.639 3.8405 -1.60139 0
M  V30 3374 H 315.515 5.22053 -1.69564 0
M  V30 3375 H 315.776 4.41828 -0.154938 0
M  V30 3376 N 314.835 0.952656 1.25548 0
M  V30 3377 C 316.083 0.605176 1.92826 0
M  V30 3378 C 316.404 -0.860261 1.74999 0
M  V30 3379 O 315.674 -1.6125 1.11244 0
M  V30 3380 H 314.254 0.220832 0.713612 0
M  V30 3381 H 316.916 1.21047 1.52754 0
M  V30 3382 H 316.012 0.832798 3.00784 0
M  V30 3383 N 316.313 -1.40141 0.720998 0
M  V30 3384 C 317.729 -1.54632 0.395113 0
M  V30 3385 C 317.929 -1.69115 -1.09555 0
M  V30 3386 O 316.985 -1.68377 -1.88163 0
M  V30 3387 C 318.298 -2.77177 1.1659 0
M  V30 3388 C 319.846 -2.91 1.15274 0
M  V30 3389 C 320.321 -4.16465 1.90579 0
M  V30 3390 N 321.812 -4.23476 1.87675 0
M  V30 3391 C 322.547 -5.19475 2.42762 0
M  V30 3392 N 322.043 -6.21348 3.06428 0
M  V30 3393 N 323.836 -5.11592 2.32874 0
M  V30 3394 H 315.987 -1.28986 1.68749 0
M  V30 3395 H 318.25 -0.62412 0.713567 0
M  V30 3396 H 317.956 -2.72771 2.22011 0
M  V30 3397 H 317.83 -3.69442 0.76108 0
M  V30 3398 H 320.217 -2.94907 0.106702 0
M  V30 3399 H 320.298 -1.99838 1.59682 0
M  V30 3400 H 319.942 -4.1332 2.95176 0
M  V30 3401 H 319.872 -5.06646 1.43587 0
M  V30 3402 H 322.363 -3.50497 1.41281 0
M  V30 3403 H 322.676 -6.91034 3.45965 0
M  V30 3404 H 321.021 -6.21777 3.10514 0
M  V30 3405 H 324.212 -4.30936 1.82789 0
M  V30 3406 H 324.385 -5.86233 2.76106 0
M  V30 3407 N 317.792 -0.46758 -1.50504 0
M  V30 3408 C 318.739 0.328413 -2.28452 0
M  V30 3409 C 319.709 0.990313 -1.33349 0
M  V30 3410 O 320.894 1.00343 -1.62284 0
M  V30 3411 C 318.034 1.40648 -3.15138 0
M  V30 3412 C 317.147 0.759709 -4.25267 0
M  V30 3413 C 316.282 1.81537 -4.99217 0
M  V30 3414 C 315.321 1.14866 -6.01226 0
M  V30 3415 N 314.458 2.14702 -6.68467 0
M  V30 3416 H 319.298 -0.342603 -2.96024 0
M  V30 3417 H 316.835 -0.180801 -1.45985 0
M  V30 3418 H 318.793 2.04315 -3.63746 0
M  V30 3419 H 317.423 2.04671 -2.49619 0
M  V30 3420 H 316.475 0.0105671 -3.80399 0
M  V30 3421 H 317.787 0.233243 -4.98254 0
M  V30 3422 H 316.941 2.52793 -5.51526 0
M  V30 3423 H 315.68 2.37564 -4.25928 0
M  V30 3424 H 314.685 0.42171 -5.4818 0
M  V30 3425 H 315.91 0.595334 -6.76485 0
M  V30 3426 H 313.856 2.69752 -5.97972 0
M  V30 3427 H 313.773 1.6703 -7.37317 0
M  V30 3428 H 315.041 2.85348 -7.25394 0
M  V30 3429 N 319.27 1.56325 -0.20005 0
M  V30 3430 C 320.681 1.8408 0.31167 0
M  V30 3431 C 321.032 1.12087 1.61031 0
M  V30 3432 O 320.157 0.38332 2.12978 0
M  V30 3433 C 320.752 3.33932 0.57226 0
M  V30 3434 C 319.311 3.6208 1.02834 0
M  V30 3435 C 318.458 2.77186 0.079634 0
M  V30 3436 H 321.409 1.52939 -0.423729 0
M  V30 3437 H 321.43 3.52971 1.42096 0
M  V30 3438 H 320.942 3.86303 -0.37308 0
M  V30 3439 H 319.043 3.15147 1.98778 0
M  V30 3440 H 319.156 4.7023 0.917624 0
M  V30 3441 H 317.52 2.47951 0.582448 0
M  V30 3442 H 318.303 3.32347 -0.860238 0
M  V30 3443 N 320.748 -0.0735177 1.57428 0
M  V30 3444 C 321.976 -0.785969 1.9139 0
M  V30 3445 C 322.391 -1.71207 0.795847 0
M  V30 3446 O 321.748 -1.81033 -0.230915 0
M  V30 3447 C 321.799 -1.58107 3.25091 0
M  V30 3448 O 321.52 -0.6922 4.32597 0
M  V30 3449 C 323.021 -2.39467 3.73055 0
M  V30 3450 H 320.241 -0.223558 0.632663 0
M  V30 3451 H 322.785 -0.044302 2.04452 0
M  V30 3452 H 320.94 -2.27503 3.13562 0
M  V30 3453 H 321.354 -1.24504 5.09508 0
M  V30 3454 H 322.828 -2.90716 4.69242 0
M  V30 3455 H 323.305 -3.18913 3.01979 0
M  V30 3456 H 323.911 -1.7523 3.87523 0
M  V30 3457 N 322.226 -1.5378 -0.344866 0
M  V30 3458 C 323.159 -1.7649 -1.4466 0
M  V30 3459 C 324.137 -0.613954 -1.50563 0
M  V30 3460 O 325.321 -0.84896 -1.683 0
M  V30 3461 C 322.448 -1.86235 -2.82903 0
M  V30 3462 C 321.494 -3.08375 -2.94631 0
M  V30 3463 S 322.327 -4.67457 -2.61236 0
M  V30 3464 C 323.483 -4.80079 -4.0159 0
M  V30 3465 H 323.716 -2.69661 -1.2518 0
M  V30 3466 H 321.249 -1.44632 -0.540455 0
M  V30 3467 H 323.207 -1.92535 -3.62547 0
M  V30 3468 H 321.868 -0.940786 -2.9968 0
M  V30 3469 H 321.061 -3.11865 -3.95925 0
M  V30 3470 H 320.663 -3.00294 -2.22934 0
M  V30 3471 H 322.955 -4.61407 -4.96094 0
M  V30 3472 H 323.898 -5.82168 -4.03095 0
M  V30 3473 H 324.306 -4.08544 -3.89554 0
M  V30 3474 N 323.704 0.605807 -1.45491 0
M  V30 3475 C 324.651 1.7164 -1.54299 0
M  V30 3476 C 325.621 1.61486 -0.388761 0
M  V30 3477 O 326.806 1.81039 -0.602445 0
M  V30 3478 C 323.946 3.09953 -1.51734 0
M  V30 3479 C 323.059 3.309 -2.77721 0
M  V30 3480 C 322.194 4.59329 -2.66816 0
M  V30 3481 C 321.233 4.7354 -3.87848 0
M  V30 3482 N 320.37 5.9327 -3.75467 0
M  V30 3483 H 325.21 1.63449 -2.49176 0
M  V30 3484 H 322.747 0.796957 -1.23641 0
M  V30 3485 H 324.705 3.89977 -1.48235 0
M  V30 3486 H 323.335 3.17098 -0.604068 0
M  V30 3487 H 322.387 2.44639 -2.913 0
M  V30 3488 H 323.699 3.37274 -3.67488 0
M  V30 3489 H 322.853 5.4755 -2.61292 0
M  V30 3490 H 321.592 4.55355 -1.74651 0
M  V30 3491 H 320.597 3.83741 -3.93729 0
M  V30 3492 H 321.822 4.79309 -4.81082 0
M  V30 3493 H 319.768 5.90338 -2.86072 0
M  V30 3494 H 319.685 6.00811 -4.5887 0
M  V30 3495 H 320.953 6.83984 -3.73879 0
M  V30 3496 N 325.182 1.32811 0.848464 0
M  V30 3497 C 326.428 1.24917 1.60522 0
M  V30 3498 C 326.783 -0.185761 1.91501 0
M  V30 3499 O 326.076 -1.12524 1.55077 0
M  V30 3500 C 326.27 2.04831 2.92881 0
M  V30 3501 C 326.099 3.55949 2.74828 0
M  V30 3502 C 324.869 4.25277 2.72887 0
M  V30 3503 C 327.067 4.50476 2.48145 0
M  V30 3504 N 325.049 5.62408 2.46111 0
M  V30 3505 C 326.42 5.75427 2.30832 0
M  V30 3506 C 328.475 4.39665 2.33664 0
M  V30 3507 C 327.178 6.90789 2.00508 0
M  V30 3508 C 329.204 5.54833 2.04731 0
M  V30 3509 C 328.566 6.78787 1.88223 0
M  V30 3510 H 324.665 0.512279 0.590842 0
M  V30 3511 H 327.249 1.67246 0.996839 0
M  V30 3512 H 325.42 1.64837 3.51686 0
M  V30 3513 H 327.152 1.88782 3.57971 0
M  V30 3514 H 323.907 3.77456 2.86049 0
M  V30 3515 H 324.331 6.3467 2.35634 0
M  V30 3516 H 328.973 3.44477 2.45144 0
M  V30 3517 H 326.691 7.85984 1.87765 0
M  V30 3518 H 330.277 5.48398 1.94295 0
M  V30 3519 H 329.157 7.66396 1.66155 0
M  V30 3520 N 326.66 -1.06551 1.16123 0
M  V30 3521 C 327.885 -1.83544 0.965735 0
M  V30 3522 C 328.31 -1.81843 -0.481102 0
M  V30 3523 O 327.668 -1.21732 -1.34354 0
M  V30 3524 C 327.716 -3.28169 1.49457 0
M  V30 3525 O 326.82 -4.0643 0.699157 0
M  V30 3526 H 326.161 -0.568026 0.343864 0
M  V30 3527 H 328.691 -1.34362 1.54299 0
M  V30 3528 H 328.701 -3.78992 1.51092 0
M  V30 3529 H 327.376 -3.28722 2.54784 0
M  V30 3530 H 325.953 -3.65216 0.7531 0
M  V30 3531 N 328.138 -0.959301 -1.25041 0
M  V30 3532 C 329.366 -0.633949 -1.96948 0
M  V30 3533 C 329.781 0.794916 -1.7125 0
M  V30 3534 O 329.138 1.53231 -0.991287 0
M  V30 3535 C 329.189 -0.888805 -3.50403 0
M  V30 3536 O 328.91 -2.26149 -3.75218 0
M  V30 3537 C 330.411 -0.576482 -4.39536 0
M  V30 3538 H 327.631 -0.237263 -0.627652 0
M  V30 3539 H 330.175 -1.28495 -1.59089 0
M  V30 3540 H 328.33 -0.284145 -3.86357 0
M  V30 3541 H 328.744 -2.33514 -4.6965 0
M  V30 3542 H 330.218 -0.805314 -5.46094 0
M  V30 3543 H 330.695 0.489075 -4.36468 0
M  V30 3544 H 331.301 -1.16067 -4.09156 0
M  V30 3545 N 329.616 1.39756 -0.72842 0
M  V30 3546 C 330.865 1.99879 -0.270407 0
M  V30 3547 C 331.178 1.58449 1.14688 0
M  V30 3548 O 332.384 2.11362 1.70407 0
M  V30 3549 C 330.84 3.57292 -0.43252 0
M  V30 3550 C 330.448 4.07688 -1.85727 0
M  V30 3551 C 332.192 4.24485 -0.0359507 0
M  V30 3552 C 330.099 5.5765 -1.96928 0
M  V30 3553 H 329.029 0.747689 -0.0973472 0
M  V30 3554 H 331.68 1.59837 -0.901355 0
M  V30 3555 H 330.062 3.95097 0.267219 0
M  V30 3556 H 331.236 3.81231 -2.58843 0
M  V30 3557 H 329.551 3.53135 -2.20646 0
M  V30 3558 H 332.148 5.34609 -0.0987484 0
M  V30 3559 H 332.491 4.03915 1.00787 0
M  V30 3560 H 333.024 3.9183 -0.686604 0
M  V30 3561 H 329.763 5.8309 -2.99476 0
M  V30 3562 H 329.283 5.8593 -1.28241 0
M  V30 3563 H 330.962 6.22957 -1.74737 0
M  V30 3564 N 331.094 0.475555 1.50254 0
M  V30 3565 C 332.371 -0.139685 1.95101 0
M  V30 3566 C 332.751 -1.56555 1.41611 0
M  V30 3567 O 332.099 -2.19956 0.618993 0
M  V30 3568 C 332.309 -0.0784298 3.48912 0
M  V30 3569 C 333.657 -0.265095 4.23772 0
M  V30 3570 O 334.681 -0.154808 3.55863 0
M  V30 3571 O 333.54 -0.488327 5.44314 0
M  V30 3572 H 330.634 -0.109236 0.819754 0
M  V30 3573 H 333.18 0.536276 1.61004 0
M  V30 3574 H 331.952 0.916918 3.80405 0
M  V30 3575 H 331.575 -0.795655 3.89558 0
M  V30 3576 N 332.573 -1.56217 0.208337 0
M  V30 3577 C 333.989 -1.58919 -0.14729 0
M  V30 3578 C 334.189 -1.22486 -1.59998 0
M  V30 3579 O 333.245 -0.953849 -2.3379 0
M  V30 3580 C 334.558 -3.00236 0.167048 0
M  V30 3581 C 336.106 -3.12813 0.108219 0
M  V30 3582 C 336.581 -4.56284 0.396049 0
M  V30 3583 N 338.072 -4.61912 0.345142 0
M  V30 3584 C 338.807 -5.70837 0.541523 0
M  V30 3585 N 338.303 -6.88178 0.798968 0
M  V30 3586 N 340.096 -5.60091 0.474867 0
M  V30 3587 H 332.247 -1.78177 1.15614 0
M  V30 3588 H 334.51 -0.827555 0.462446 0
M  V30 3589 H 334.216 -3.31499 1.1748 0
M  V30 3590 H 334.09 -3.7354 -0.524184 0
M  V30 3591 H 336.477 -2.81354 -0.890157 0
M  V30 3592 H 336.558 -2.41866 0.832729 0
M  V30 3593 H 336.202 -4.88458 1.3918 0
M  V30 3594 H 336.132 -5.25439 -0.349502 0
M  V30 3595 H 338.623 -3.77589 0.153316 0
M  V30 3596 H 338.936 -7.67095 0.93727 0
M  V30 3597 H 337.281 -6.89953 0.836013 0
M  V30 3598 H 340.472 -4.67297 0.274064 0
M  V30 3599 H 340.645 -6.44917 0.631326 0
M  V30 3600 N 334.051 0.0651679 -1.57465 0
M  V30 3601 C 335.297 0.758912 -1.88712 0
M  V30 3602 C 335.652 1.7485 -0.802819 0
M  V30 3603 O 334.945 1.90632 0.192359 0
M  V30 3604 C 335.139 1.50081 -3.24362 0
M  V30 3605 C 334.968 0.584579 -4.45884 0
M  V30 3606 C 333.738 0.219039 -5.04825 0
M  V30 3607 C 335.936 -0.121559 -5.14156 0
M  V30 3608 N 333.918 -0.702222 -6.09871 0
M  V30 3609 C 335.289 -0.899767 -6.13436 0
M  V30 3610 C 337.344 -0.192331 -4.97528 0
M  V30 3611 C 336.047 -1.74218 -6.97883 0
M  V30 3612 C 338.073 -1.02174 -5.82507 0
M  V30 3613 C 337.435 -1.78798 -6.8133 0
M  V30 3614 H 333.534 0.25293 -0.739967 0
M  V30 3615 H 336.118 0.0201744 -1.9469 0
M  V30 3616 H 334.289 2.21023 -3.1938 0
M  V30 3617 H 336.021 2.14409 -3.43236 0
M  V30 3618 H 332.776 0.57336 -4.70117 0
M  V30 3619 H 333.2 -1.15629 -6.67052 0
M  V30 3620 H 337.842 0.385741 -4.21037 0
M  V30 3621 H 335.56 -2.3312 -7.73745 0
M  V30 3622 H 339.146 -1.07957 -5.71696 0
M  V30 3623 H 338.026 -2.41942 -7.45945 0
M  V30 3624 N 335.529 1.53961 0.336706 0
M  V30 3625 C 336.94 1.62914 0.911925 0
M  V30 3626 C 337.291 0.514795 1.89326 0
M  V30 3627 O 336.416 -0.354395 2.13478 0
M  V30 3628 C 337.011 2.95304 1.66076 0
M  V30 3629 C 335.57 3.06496 2.18489 0
M  V30 3630 C 334.717 2.58403 1.00613 0
M  V30 3631 H 337.668 1.58285 0.114649 0
M  V30 3632 H 337.689 2.84727 2.5241 0
M  V30 3633 H 337.201 3.76387 0.946276 0
M  V30 3634 H 335.302 2.3006 2.93092 0
M  V30 3635 H 335.415 4.1208 2.44391 0
M  V30 3636 H 333.779 2.13977 1.38152 0
M  V30 3637 H 334.562 3.41932 0.306179 0
M  V30 3638 N 337.007 -0.598083 1.45811 0
M  V30 3639 C 338.235 -1.38322 1.53866 0
M  V30 3640 C 338.65 -1.87992 0.174479 0
M  V30 3641 O 338.007 -1.62756 -0.825627 0
M  V30 3642 C 338.058 -2.58125 2.53089 0
M  V30 3643 O 337.779 -2.10516 3.84206 0
M  V30 3644 C 339.28 -3.50869 2.70935 0
M  V30 3645 H 336.5 -0.423093 0.520801 0
M  V30 3646 H 339.044 -0.728527 1.91083 0
M  V30 3647 H 337.199 -3.19615 2.18917 0
M  V30 3648 H 337.613 -2.88425 4.38077 0
M  V30 3649 H 339.087 -4.31451 3.44317 0
M  V30 3650 H 339.564 -4.01822 1.77301 0
M  V30 3651 H 340.17 -2.95225 3.06141 0
M  V30 3652 N 338.485 -1.33259 -0.841409 0
M  V30 3653 C 339.435 -1.19872 -1.93945 0
M  V30 3654 C 340.419 -0.102269 -1.60575 0
M  V30 3655 O 341.611 -0.330114 -1.73894 0
M  V30 3656 C 338.74 -0.937517 -3.30251 0
M  V30 3657 C 337.826 -2.07629 -3.69799 0
M  V30 3658 N 338.217 -3.32604 -3.81062 0
M  V30 3659 C 336.515 -1.98242 -3.9952 0
M  V30 3660 C 337.216 -4.07275 -4.15333 0
M  V30 3661 N 336.192 -3.35691 -4.27566 0
M  V30 3662 H 339.994 -2.14604 -2.00805 0
M  V30 3663 H 337.508 -1.2523 -1.03398 0
M  V30 3664 H 339.505 -0.822545 -4.08705 0
M  V30 3665 H 338.165 0.00128798 -3.247 0
M  V30 3666 H 339.176 -3.67382 -3.65035 0
M  V30 3667 H 335.853 -1.12005 -4.02195 0
M  V30 3668 H 337.243 -5.1511 -4.31406 0
M  V30 3669 N 339.963 1.05934 -1.16686 0
M  V30 3670 C 340.913 2.11764 -0.844978 0
M  V30 3671 C 341.897 1.59922 0.177178 0
M  V30 3672 O 343.089 1.76983 -0.0241768 0
M  V30 3673 C 340.218 3.41493 -0.351812 0
M  V30 3674 C 339.304 4.00152 -1.40496 0
M  V30 3675 N 339.695 4.32874 -2.61636 0
M  V30 3676 C 337.993 4.278 -1.26106 0
M  V30 3677 C 338.694 4.79552 -3.29249 0
M  V30 3678 N 337.67 4.79211 -2.56628 0
M  V30 3679 H 341.472 2.34916 -1.76612 0
M  V30 3680 H 338.986 1.23511 -1.05446 0
M  V30 3681 H 340.983 4.16773 -0.102796 0
M  V30 3682 H 339.643 3.19778 0.56322 0
M  V30 3683 H 340.654 4.23109 -2.98663 0
M  V30 3684 H 337.331 4.15511 -0.407081 0
M  V30 3685 H 338.721 5.14045 -4.32675 0
M  V30 3686 N 341.441 0.965919 1.2453 0
M  V30 3687 C 342.371 0.513476 2.27784 0
M  V30 3688 C 343.352 -0.445974 1.6415 0
M  V30 3689 O 344.537 -0.342485 1.91156 0
M  V30 3690 C 341.667 -0.198839 3.4673 0
M  V30 3691 C 340.621 0.676456 4.2262 0
M  V30 3692 C 339.947 -0.167248 5.34438 0
M  V30 3693 C 341.247 1.96017 4.84123 0
M  V30 3694 H 342.941 1.3765 2.65881 0
M  V30 3695 H 340.487 0.663321 1.27813 0
M  V30 3696 H 342.44 -0.526567 4.18097 0
M  V30 3697 H 341.164 -1.0962 3.07654 0
M  V30 3698 H 339.823 0.98743 3.53052 0
M  V30 3699 H 339.471 -1.0647 4.91603 0
M  V30 3700 H 339.171 0.415181 5.86131 0
M  V30 3701 H 340.695 -0.489688 6.08633 0
M  V30 3702 H 342.109 1.69814 5.47573 0
M  V30 3703 H 340.506 2.48918 5.4604 0
M  V30 3704 H 341.576 2.65622 4.05676 0
M  V30 3705 N 342.919 -1.39368 0.735821 0
M  V30 3706 C 343.849 -2.33234 0.111506 0
M  V30 3707 C 344.83 -1.53954 -0.723334 0
M  V30 3708 O 346.015 -1.82344 -0.668147 0
M  V30 3709 C 343.145 -3.38057 -0.795917 0
M  V30 3710 C 342.099 -4.2795 -0.065172 0
M  V30 3711 C 341.425 -5.23479 -1.08967 0
M  V30 3712 C 342.725 -5.10741 1.09273 0
M  V30 3713 H 344.419 -2.85692 0.895571 0
M  V30 3714 H 341.965 -1.37364 0.432109 0
M  V30 3715 H 343.918 -4.02675 -1.24221 0
M  V30 3716 H 342.642 -2.8404 -1.61211 0
M  V30 3717 H 341.301 -3.64813 0.361511 0
M  V30 3718 H 340.949 -4.65758 -1.89944 0
M  V30 3719 H 340.649 -5.84472 -0.605489 0
M  V30 3720 H 342.173 -5.90974 -1.53565 0
M  V30 3721 H 343.587 -5.68699 0.724841 0
M  V30 3722 H 341.984 -5.8088 1.50659 0
M  V30 3723 H 343.054 -4.45525 1.91404 0
M  V30 3724 N 344.397 -0.483516 -1.5 0
M  V30 3725 C 345.646 0.0689102 -2.01582 0
M  V30 3726 C 345.959 1.39655 -1.36952 0
M  V30 3727 O 347.165 2.03465 -1.79762 0
M  V30 3728 C 345.621 0.173302 -3.59483 0
M  V30 3729 C 345.229 -1.14665 -4.33077 0
M  V30 3730 C 346.973 0.677024 -4.19066 0
M  V30 3731 C 344.88 -1.00537 -5.82792 0
M  V30 3732 H 343.81 0.0295277 -0.753422 0
M  V30 3733 H 346.461 -0.620295 -1.72698 0
M  V30 3734 H 344.843 0.926569 -3.85007 0
M  V30 3735 H 346.017 -1.91184 -4.19268 0
M  V30 3736 H 344.332 -1.58244 -3.85159 0
M  V30 3737 H 346.929 0.799952 -5.28682 0
M  V30 3738 H 347.272 1.67151 -3.81269 0
M  V30 3739 H 347.805 -0.0192083 -3.97795 0
M  V30 3740 H 344.544 -1.9736 -6.25083 0
M  V30 3741 H 344.064 -0.280776 -5.99142 0
M  V30 3742 H 345.743 -0.677 -6.43448 0
M  V30 3743 N 345.875 1.56104 -0.216619 0
M  V30 3744 C 346.807 2.17339 0.72776 0
M  V30 3745 C 347.82 1.14109 1.16116 0
M  V30 3746 O 349.009 1.4111 1.09317 0
M  V30 3747 C 346.109 2.73818 1.99693 0
M  V30 3748 C 345.282 4.02168 1.71988 0
M  V30 3749 C 344.341 4.43259 2.83562 0
M  V30 3750 O 343.367 5.10257 2.52244 0
M  V30 3751 N 344.569 4.08535 4.12407 0
M  V30 3752 H 347.334 2.99005 0.203983 0
M  V30 3753 H 344.895 1.61861 -0.0354289 0
M  V30 3754 H 346.887 2.9828 2.73516 0
M  V30 3755 H 345.457 1.96483 2.43132 0
M  V30 3756 H 344.677 3.85612 0.818337 0
M  V30 3757 H 345.965 4.85907 1.50903 0
M  V30 3758 H 345.363 3.54687 4.40696 0
M  V30 3759 H 343.92 4.37901 4.8279 0
M  V30 3760 N 347.353 -0.0568162 1.57498 0
M  V30 3761 C 348.593 -0.758273 1.89815 0
M  V30 3762 C 348.957 -1.73978 0.812132 0
M  V30 3763 O 350.158 -2.48744 1.01881 0
M  V30 3764 C 348.429 -1.43465 3.27342 0
M  V30 3765 S 349.988 -2.1691 3.81439 0
M  V30 3766 H 346.806 -0.251836 0.664906 0
M  V30 3767 H 349.408 -0.0137997 1.95495 0
M  V30 3768 H 348.112 -0.706693 4.0427 0
M  V30 3769 H 347.643 -2.21825 3.24896 0
M  V30 3770 H 349.658 -3.43658 3.5793 0
M  V30 3771 N 348.832 -1.54138 -0.328536 0
M  V30 3772 C 350.079 -1.72105 -1.06706 0
M  V30 3773 C 350.407 -0.492111 -1.88171 0
M  V30 3774 O 349.662 0.526153 -1.88494 0
M  V30 3775 C 349.961 -2.9457 -2.02393 0
M  V30 3776 C 349.627 -4.29544 -1.37122 0
M  V30 3777 C 348.289 -4.6624 -1.19052 0
M  V30 3778 C 350.641 -5.1333 -0.902331 0
M  V30 3779 C 347.969 -5.84325 -0.527331 0
M  V30 3780 C 350.321 -6.32094 -0.252988 0
M  V30 3781 C 348.985 -6.67473 -0.0600901 0
M  V30 3782 H 348.255 -0.629775 -0.390466 0
M  V30 3783 H 350.902 -1.88372 -0.34473 0
M  V30 3784 H 349.207 -2.72969 -2.81061 0
M  V30 3785 H 350.904 -3.05665 -2.59557 0
M  V30 3786 H 347.494 -4.0067 -1.52188 0
M  V30 3787 H 351.678 -4.855 -1.02974 0
M  V30 3788 H 346.934 -6.103 -0.366634 0
M  V30 3789 H 351.108 -6.96299 0.118366 0
M  V30 3790 H 348.735 -7.58832 0.455828 0
M  V30 3791 N 350.31 0.590341 -1.46126 0
M  V30 3792 C 351.273 1.68194 -1.55703 0
M  V30 3793 C 352.273 1.54808 -0.434868 0
M  V30 3794 O 353.463 1.59564 -0.698928 0
M  V30 3795 C 350.595 3.07575 -1.47005 0
M  V30 3796 H 351.788 1.61064 -2.52979 0
M  V30 3797 H 349.341 0.807541 -1.33823 0
M  V30 3798 H 350.076 3.20268 -0.509785 0
M  V30 3799 H 349.861 3.187 -2.28414 0
M  V30 3800 H 351.351 3.87055 -1.56776 0
M  V30 3801 N 351.788 1.33704 0.83433 0
M  V30 3802 C 353.065 1.16011 1.57483 0
M  V30 3803 C 353.445 -0.27176 2.09343 0
M  V30 3804 O 352.793 -1.27146 1.89858 0
M  V30 3805 C 353.003 2.20507 2.70514 0
M  V30 3806 C 354.351 2.54898 3.39577 0
M  V30 3807 O 355.375 2.19209 2.80759 0
M  V30 3808 O 354.234 3.16158 4.45765 0
M  V30 3809 H 351.328 0.448992 0.694503 0
M  V30 3810 H 353.874 1.453 0.876691 0
M  V30 3811 H 352.646 3.16667 2.29865 0
M  V30 3812 H 352.269 1.92329 3.47987 0
M  V30 3813 N 353.266 -1.05314 1.17247 0
M  V30 3814 C 354.216 -2.11313 0.856196 0
M  V30 3815 C 355.2 -1.60013 -0.168694 0
M  V30 3816 O 356.392 -1.76968 0.0335624 0
M  V30 3817 C 353.521 -3.41301 0.369917 0
M  V30 3818 C 352.607 -3.99401 1.42616 0
M  V30 3819 N 352.998 -4.31481 2.63928 0
M  V30 3820 C 351.296 -4.27126 1.28373 0
M  V30 3821 C 351.997 -4.77799 3.31787 0
M  V30 3822 N 350.973 -4.77843 2.59166 0
M  V30 3823 H 354.775 -2.33976 1.77856 0
M  V30 3824 H 352.289 -1.2295 1.06099 0
M  V30 3825 H 354.286 -4.16713 0.124897 0
M  V30 3826 H 352.946 -3.20072 -0.546253 0
M  V30 3827 H 353.957 -4.21519 3.00902 0
M  V30 3828 H 350.634 -4.15289 0.429111 0
M  V30 3829 H 352.024 -5.11743 4.35395 0
M  V30 3830 N 354.744 -0.972509 -1.24016 0
M  V30 3831 C 355.993 -0.632603 -1.91523 0
M  V30 3832 C 356.306 0.836641 -1.76804 0
M  V30 3833 O 357.512 1.28728 -2.39043 0
M  V30 3834 C 355.968 -1.08082 -3.43287 0
M  V30 3835 C 355.576 -2.57386 -3.66683 0
M  V30 3836 C 357.32 -0.814288 -4.16617 0
M  V30 3837 C 355.227 -2.95915 -5.12043 0
M  V30 3838 H 354.157 -0.232898 -0.717129 0
M  V30 3839 H 356.808 -1.17936 -1.40582 0
M  V30 3840 H 355.19 -0.462339 -3.93292 0
M  V30 3841 H 356.364 -3.24405 -3.27258 0
M  V30 3842 H 354.679 -2.81701 -3.06649 0
M  V30 3843 H 357.276 -1.0781 -5.23718 0
M  V30 3844 H 357.619 0.24955 -4.15551 0
M  V30 3845 H 358.152 -1.39397 -3.72577 0
M  V30 3846 H 354.891 -4.0139 -5.18234 0
M  V30 3847 H 354.411 -2.33584 -5.52448 0
M  V30 3848 H 356.09 -2.86086 -5.80314 0
M  V30 3849 N 356.222 1.38976 -0.743202 0
M  V30 3850 C 357.152 2.33171 -0.123873 0
M  V30 3851 C 358.133 1.54336 0.71516 0
M  V30 3852 O 359.318 1.82696 0.658467 0
M  V30 3853 C 356.448 3.38474 0.777978 0
M  V30 3854 C 355.402 4.27979 0.0424758 0
M  V30 3855 C 354.728 5.2405 1.06189 0
M  V30 3856 C 356.028 5.10155 -1.1198 0
M  V30 3857 H 357.722 2.85213 -0.910709 0
M  V30 3858 H 355.268 1.37133 -0.439388 0
M  V30 3859 H 357.221 4.03328 1.22084 0
M  V30 3860 H 355.945 2.84891 1.59702 0
M  V30 3861 H 354.604 3.64616 -0.380853 0
M  V30 3862 H 354.252 4.66758 1.87472 0
M  V30 3863 H 353.952 5.84785 0.574485 0
M  V30 3864 H 355.476 5.9178 1.50428 0
M  V30 3865 H 356.89 5.68307 -0.75499 0
M  V30 3866 H 355.287 5.80073 -1.53738 0
M  V30 3867 H 356.357 4.44504 -1.93764 0
M  V30 3868 N 357.7 0.491464 1.49741 0
M  V30 3869 C 358.647 -0.292027 2.28945 0
M  V30 3870 C 359.617 -0.968973 1.34908 0
M  V30 3871 O 360.802 -0.97748 1.6386 0
M  V30 3872 C 357.942 -1.35617 3.17336 0
M  V30 3873 C 357.055 -0.691957 4.26422 0
M  V30 3874 C 356.19 -1.73572 5.02042 0
M  V30 3875 C 355.229 -1.05286 6.02977 0
M  V30 3876 N 354.366 -2.0404 6.71798 0
M  V30 3877 H 359.206 0.389654 2.95442 0
M  V30 3878 H 356.743 0.204003 1.45679 0
M  V30 3879 H 358.701 -1.98502 3.66951 0
M  V30 3880 H 357.331 -2.00674 2.52844 0
M  V30 3881 H 356.383 0.0499523 3.80367 0
M  V30 3882 H 357.695 -0.153946 4.98562 0
M  V30 3883 H 356.849 -2.43987 5.55478 0
M  V30 3884 H 355.588 -2.30757 4.29654 0
M  V30 3885 H 354.593 -0.334446 5.48782 0
M  V30 3886 H 355.818 -0.487636 6.77347 0
M  V30 3887 H 353.764 -2.60205 6.02187 0
M  V30 3888 H 353.681 -1.55279 7.39881 0
M  V30 3889 H 354.949 -2.73772 7.29842 0
M  V30 3890 N 359.178 -1.55987 0.224894 0
M  V30 3891 C 360.088 -2.24066 -0.69511 0
M  V30 3892 C 361.104 -1.24939 -1.21104 0
M  V30 3893 O 362.28 -1.5776 -1.25195 0
M  V30 3894 C 359.345 -2.90983 -1.88493 0
M  V30 3895 C 358.406 -4.05462 -1.41064 0
M  V30 3896 C 357.639 -4.69179 -2.54375 0
M  V30 3897 O 357.862 -4.31895 -3.72589 0
M  V30 3898 O 356.796 -5.58108 -2.25386 0
M  V30 3899 H 360.622 -3.03353 -0.145149 0
M  V30 3900 H 358.207 -1.49399 -0.00569476 0
M  V30 3901 H 360.089 -3.33209 -2.57972 0
M  V30 3902 H 358.764 -2.14653 -2.42293 0
M  V30 3903 H 357.671 -3.67798 -0.683774 0
M  V30 3904 H 359.004 -4.83545 -0.918985 0
M  V30 3905 N 360.656 0.0484629 -1.57525 0
M  V30 3906 C 361.586 1.0549 -2.08313 0
M  V30 3907 C 362.567 1.38929 -0.981463 0
M  V30 3908 O 363.752 1.48151 -1.25558 0
M  V30 3909 C 360.882 2.36162 -2.54646 0
M  V30 3910 C 359.836 2.17016 -3.68901 0
M  V30 3911 C 359.162 3.53278 -4.01371 0
M  V30 3912 C 360.462 1.57219 -4.98076 0
M  V30 3913 H 362.156 0.632195 -2.92649 0
M  V30 3914 H 359.702 0.302654 -1.40784 0
M  V30 3915 H 361.655 3.06882 -2.88793 0
M  V30 3916 H 360.379 2.80456 -1.67368 0
M  V30 3917 H 359.038 1.48733 -3.35073 0
M  V30 3918 H 358.686 3.95185 -3.11188 0
M  V30 3919 H 358.386 3.41299 -4.78318 0
M  V30 3920 H 359.91 4.25391 -4.38035 0
M  V30 3921 H 361.324 2.17832 -5.30304 0
M  V30 3922 H 359.721 1.55871 -5.79503 0
M  V30 3923 H 360.791 0.535956 -4.81929 0
M  V30 3924 N 362.134 1.5431 0.320358 0
M  V30 3925 C 363.411 1.63322 1.07635 0
M  V30 3926 C 363.791 0.46912 2.05821 0
M  V30 3927 O 363.139 -0.536274 2.22118 0
M  V30 3928 C 363.349 3.00465 1.77544 0
M  V30 3929 C 364.697 3.56621 2.30449 0
M  V30 3930 O 365.721 3.02791 1.87606 0
M  V30 3931 O 364.58 4.5083 3.08892 0
M  V30 3932 H 361.674 0.661502 0.496331 0
M  V30 3933 H 364.22 1.66656 0.319992 0
M  V30 3934 H 362.992 3.76629 1.06143 0
M  V30 3935 H 362.615 3.00824 2.59982 0
M  V30 3936 N 363.613 -0.582584 1.46437 0
M  V30 3937 C 364.563 -1.68654 1.53426 0
M  V30 3938 C 365.547 -1.55971 0.395194 0
M  V30 3939 O 366.739 -1.64884 0.643612 0
M  V30 3940 C 363.868 -3.07439 1.52762 0
M  V30 3941 C 362.954 -3.25418 2.71963 0
M  V30 3942 N 363.345 -3.13556 3.96883 0
M  V30 3943 C 361.643 -3.56357 2.68189 0
M  V30 3944 C 362.344 -3.33543 4.76575 0
M  V30 3945 N 361.32 -3.58704 4.08451 0
M  V30 3946 H 365.122 -1.58014 2.47808 0
M  V30 3947 H 362.636 -0.786617 1.42078 0
M  V30 3948 H 364.633 -3.86671 1.55857 0
M  V30 3949 H 363.293 -3.1921 0.594573 0
M  V30 3950 H 364.304 -2.9142 4.28129 0
M  V30 3951 H 360.981 -3.74812 1.83908 0
M  V30 3952 H 362.371 -3.29555 5.85528 0
M  V30 3953 N 365.091 -1.34144 -0.827227 0
M  V30 3954 C 366.338 -1.26258 -1.58319 0
M  V30 3955 C 366.666 0.168595 -1.93768 0
M  V30 3956 O 365.921 1.12877 -1.59866 0
M  V30 3957 C 366.22 -2.09464 -2.89585 0
M  V30 3958 C 365.886 -3.58521 -2.73448 0
M  V30 3959 C 364.548 -3.99155 -2.68754 0
M  V30 3960 C 366.9 -4.53189 -2.57428 0
M  V30 3961 C 364.228 -5.32656 -2.45957 0
M  V30 3962 C 366.58 -5.86864 -2.36163 0
M  V30 3963 C 365.244 -6.26667 -2.29879 0
M  V30 3964 H 364.514 -0.462013 -0.579332 0
M  V30 3965 H 367.161 -1.65845 -0.95748 0
M  V30 3966 H 365.466 -1.62692 -3.56425 0
M  V30 3967 H 367.163 -2.00712 -3.47154 0
M  V30 3968 H 363.753 -3.26264 -2.77939 0
M  V30 3969 H 367.937 -4.22696 -2.60081 0
M  V30 3970 H 363.193 -5.62519 -2.39546 0
M  V30 3971 H 367.367 -6.59813 -2.22754 0
M  V30 3972 H 364.994 -7.30049 -2.11975 0
M  V30 3973 N 366.569 1.04691 -1.17803 0
M  V30 3974 C 367.98 1.59238 -0.974689 0
M  V30 3975 C 368.331 1.90306 0.477292 0
M  V30 3976 O 367.456 1.68846 1.35352 0
M  V30 3977 C 368.051 2.89318 -1.76296 0
M  V30 3978 C 366.61 3.40506 -1.60414 0
M  V30 3979 C 365.757 2.14172 -1.76141 0
M  V30 3980 H 368.708 0.874395 -1.32439 0
M  V30 3981 H 368.729 3.5944 -1.24833 0
M  V30 3982 H 368.241 2.66675 -2.81968 0
M  V30 3983 H 366.342 3.68175 -0.572519 0
M  V30 3984 H 366.455 4.14753 -2.39827 0
M  V30 3985 H 364.819 2.25176 -1.19028 0
M  V30 3986 H 365.602 1.93992 -2.83235 0
M  V30 3987 N 368.047 0.979072 1.23499 0
M  V30 3988 C 368.977 0.537606 2.27227 0
M  V30 3989 C 369.958 -0.428539 1.64613 0
M  V30 3990 O 371.143 -0.322191 1.91509 0
M  V30 3991 C 368.273 -0.162052 3.46922 0
M  V30 3992 C 367.227 0.721242 4.21879 0
M  V30 3993 C 366.553 -0.110555 5.34586 0
M  V30 3994 C 367.853 2.01141 4.82016 0
M  V30 3995 H 369.547 1.40462 2.64406 0
M  V30 3996 H 367.093 0.67684 1.27102 0
M  V30 3997 H 369.046 -0.482192 4.18632 0
M  V30 3998 H 367.77 -1.06351 3.08799 0
M  V30 3999 H 366.429 1.02482 3.51984 0
M  V30 4000 H 366.077 -1.0125 4.92704 0
M  V30 4001 H 365.777 0.477325 5.85658 0
M  V30 4002 H 367.301 -0.425107 6.09118 0
M  V30 4003 H 368.715 1.75612 5.45741 0
M  V30 4004 H 367.112 2.54695 5.43369 0
M  V30 4005 H 368.182 2.69909 4.02836 0
M  V30 4006 N 369.525 -1.3858 0.750561 0
M  V30 4007 C 370.435 -2.34278 0.122825 0
M  V30 4008 C 371.451 -1.59116 -0.704131 0
M  V30 4009 O 372.627 -1.91326 -0.628987 0
M  V30 4010 C 369.692 -3.38221 -0.762086 0
M  V30 4011 C 368.753 -4.29227 0.078896 0
M  V30 4012 C 367.986 -5.28205 -0.763874 0
M  V30 4013 O 368.209 -5.34112 -2.00201 0
M  V30 4014 O 367.143 -6.01618 -0.18428 0
M  V30 4015 H 370.969 -2.89649 0.913088 0
M  V30 4016 H 368.554 -1.40374 0.511417 0
M  V30 4017 H 370.436 -4.01872 -1.26793 0
M  V30 4018 H 369.111 -2.85211 -1.5309 0
M  V30 4019 H 368.018 -3.68747 0.630621 0
M  V30 4020 H 369.351 -4.85484 0.810289 0
M  V30 4021 N 371.003 -0.499398 -1.49478 0
M  V30 4022 C 371.95 0.279881 -2.29097 0
M  V30 4023 C 372.92 0.961805 -1.3542 0
M  V30 4024 O 374.105 0.968777 -1.64376 0
M  V30 4025 C 371.245 1.33932 -3.18051 0
M  V30 4026 C 370.358 0.669333 -4.26783 0
M  V30 4027 C 369.493 1.70907 -5.02955 0
M  V30 4028 C 368.532 1.02087 -6.03527 0
M  V30 4029 N 367.669 2.00474 -6.7287 0
M  V30 4030 H 372.509 -0.405317 -2.95231 0
M  V30 4031 H 370.046 -0.211726 -1.45568 0
M  V30 4032 H 372.004 1.96553 -3.67998 0
M  V30 4033 H 370.634 1.9933 -2.53904 0
M  V30 4034 H 369.686 -0.0701234 -3.80335 0
M  V30 4035 H 370.998 0.127503 -4.98637 0
M  V30 4036 H 370.152 2.41037 -5.56764 0
M  V30 4037 H 368.891 2.28476 -4.30871 0
M  V30 4038 H 367.896 0.305338 -5.48951 0
M  V30 4039 H 369.121 0.451708 -6.77596 0
M  V30 4040 H 367.067 2.57007 -6.03559 0
M  V30 4041 H 366.984 1.51353 -7.40694 0
M  V30 4042 H 368.252 2.69897 -7.31284 0
M  V30 4043 N 372.481 1.55866 -0.233164 0
M  V30 4044 C 373.897 1.59133 0.121988 0
M  V30 4045 C 374.097 1.25016 1.58029 0
M  V30 4046 O 373.153 0.990922 2.32243 0
M  V30 4047 C 374.466 2.99932 -0.214792 0
M  V30 4048 C 376.014 3.12601 -0.157971 0
M  V30 4049 C 376.489 4.55597 -0.46859 0
M  V30 4050 N 377.98 4.61305 -0.418585 0
M  V30 4051 C 378.715 5.69903 -0.63227 0
M  V30 4052 N 378.211 6.86819 -0.90835 0
M  V30 4053 N 380.004 5.59264 -0.563913 0
M  V30 4054 H 372.155 1.76315 -1.18434 0
M  V30 4055 H 374.418 0.820093 -0.475553 0
M  V30 4056 H 374.124 3.29588 -1.22739 0
M  V30 4057 H 373.998 3.74327 0.464691 0
M  V30 4058 H 376.385 2.82735 0.845283 0
M  V30 4059 H 376.466 2.40511 -0.871102 0
M  V30 4060 H 376.11 4.86182 -1.46934 0
M  V30 4061 H 376.04 5.25928 0.265865 0
M  V30 4062 H 378.531 3.77297 -0.213368 0
M  V30 4063 H 378.844 7.65507 -1.05919 0
M  V30 4064 H 377.189 6.88536 -0.945673 0
M  V30 4065 H 380.38 4.66802 -0.348372 0
M  V30 4066 H 380.553 6.43831 -0.733847 0
M  V30 4067 N 373.959 -0.0401083 1.57549 0
M  V30 4068 C 375.184 -0.748931 1.93406 0
M  V30 4069 C 375.609 -1.68686 0.832274 0
M  V30 4070 O 374.967 -1.80047 -0.212818 0
M  V30 4071 C 375.015 -1.4916 3.28304 0
M  V30 4072 O 374.119 -2.6042 3.19774 0
M  V30 4073 H 373.46 -0.202212 0.63246 0
M  V30 4074 H 375.99 0.00112086 2.046 0
M  V30 4075 H 376 -1.86395 3.62934 0
M  V30 4076 H 374.675 -0.80364 4.08062 0
M  V30 4077 H 373.252 -2.25808 2.96758 0
M  V30 4078 N 375.437 -1.54477 -0.31217 0
M  V30 4079 C 376.347 -1.87695 -1.4074 0
M  V30 4080 C 377.363 -0.769975 -1.56036 0
M  V30 4081 O 378.539 -1.06537 -1.70915 0
M  V30 4082 C 375.604 -2.10755 -2.75287 0
M  V30 4083 C 374.665 -3.34514 -2.69071 0
M  V30 4084 C 373.898 -3.56465 -3.97201 0
M  V30 4085 O 374.121 -2.81637 -4.96021 0
M  V30 4086 O 373.055 -4.49964 -3.9977 0
M  V30 4087 H 376.881 -2.80849 -1.15574 0
M  V30 4088 H 374.466 -1.40526 -0.507228 0
M  V30 4089 H 376.348 -2.27188 -3.54913 0
M  V30 4090 H 375.023 -1.20788 -3.0032 0
M  V30 4091 H 373.93 -3.23456 -1.87955 0
M  V30 4092 H 375.263 -4.24575 -2.48992 0
M  V30 4093 N 376.915 0.57481 -1.46744 0
M  V30 4094 C 378.161 1.3347 -1.52688 0
M  V30 4095 C 378.494 1.93353 -0.181229 0
M  V30 4096 O 377.769 1.76912 0.808237 0
M  V30 4097 C 378.052 2.45811 -2.63152 0
M  V30 4098 C 377.905 1.90912 -4.07275 0
M  V30 4099 C 379.224 3.47822 -2.69644 0
M  V30 4100 H 376.343 0.483935 -0.555856 0
M  V30 4101 H 378.985 0.644968 -1.78718 0
M  V30 4102 H 377.135 3.04646 -2.41088 0
M  V30 4103 H 378.807 1.36473 -4.4065 0
M  V30 4104 H 377.05 1.21691 -4.16382 0
M  V30 4105 H 377.721 2.72042 -4.80309 0
M  V30 4106 H 380.197 2.9888 -2.895 0
M  V30 4107 H 379.073 4.23876 -3.48742 0
M  V30 4108 H 379.334 4.05555 -1.76005 0
M  V30 4109 N 378.394 1.34581 0.820102 0
M  V30 4110 C 379.64 1.27285 1.57881 0
M  V30 4111 C 379.973 -0.156137 1.93571 0
M  V30 4112 O 379.248 -1.10222 1.60254 0
M  V30 4113 C 379.531 2.16639 2.87645 0
M  V30 4114 C 379.384 3.68088 2.58517 0
M  V30 4115 C 380.703 2.05378 3.8924 0
M  V30 4116 H 377.822 0.463714 0.572833 0
M  V30 4117 H 380.464 1.64859 0.944539 0
M  V30 4118 H 378.614 1.84725 3.41773 0
M  V30 4119 H 380.286 4.10382 2.10676 0
M  V30 4120 H 378.529 3.89038 1.91917 0
M  V30 4121 H 379.2 4.2598 3.51063 0
M  V30 4122 H 381.676 2.33404 3.44473 0
M  V30 4123 H 380.552 2.7012 4.77835 0
M  V30 4124 H 380.813 1.0316 4.29896 0
M  V30 4125 N 379.872 -1.04064 1.18357 0
M  V30 4126 C 381.121 -1.76662 0.973313 0
M  V30 4127 C 381.434 -1.89154 -0.497991 0
M  V30 4128 O 382.64 -2.58606 -0.826762 0
M  V30 4129 C 381.096 -3.17624 1.69242 0
M  V30 4130 C 380.704 -3.13225 3.20303 0
M  V30 4131 C 382.448 -3.946 1.56497 0
M  V30 4132 C 380.355 -4.49046 3.84853 0
M  V30 4133 H 379.285 -0.662214 0.36054 0
M  V30 4134 H 381.936 -1.16553 1.41731 0
M  V30 4135 H 380.318 -3.78129 1.1762 0
M  V30 4136 H 381.492 -2.62172 3.78949 0
M  V30 4137 H 379.807 -2.49749 3.33189 0
M  V30 4138 H 382.404 -4.95042 2.02084 0
M  V30 4139 H 382.747 -4.13074 0.517243 0
M  V30 4140 H 383.28 -3.4067 2.05399 0
M  V30 4141 H 380.019 -4.35777 4.89672 0
M  V30 4142 H 379.539 -5.00203 3.30994 0
M  V30 4143 H 381.218 -5.17961 3.87718 0
M  V30 4144 N 381.35 -0.985608 -1.22978 0
M  V30 4145 C 382.28 -0.549649 -2.26939 0
M  V30 4146 C 383.261 0.419803 -1.64838 0
M  V30 4147 O 384.446 0.31203 -1.91677 0
M  V30 4148 C 381.576 0.143652 -3.47003 0
M  V30 4149 C 380.53 -0.743606 -4.21491 0
M  V30 4150 C 379.856 0.0822027 -5.34637 0
M  V30 4151 C 381.156 -2.03694 -4.80943 0
M  V30 4152 H 382.85 -1.41862 -2.63658 0
M  V30 4153 H 380.396 -0.683571 -1.26741 0
M  V30 4154 H 382.349 0.459985 -4.18882 0
M  V30 4155 H 381.073 1.04711 -3.09359 0
M  V30 4156 H 379.732 -1.04347 -3.51436 0
M  V30 4157 H 379.38 0.986359 -4.93234 0
M  V30 4158 H 379.08 -0.508377 -5.85397 0
M  V30 4159 H 380.604 0.392797 -6.09335 0
M  V30 4160 H 382.018 -1.78504 -5.44802 0
M  V30 4161 H 380.415 -2.57573 -5.42011 0
M  V30 4162 H 381.485 -2.72042 -4.01399 0
M  V30 4163 N 382.828 1.3818 -0.7579 0
M  V30 4164 C 384.075 2.00019 -0.315985 0
M  V30 4165 C 384.403 1.60163 1.10355 0
M  V30 4166 O 383.658 0.83264 1.77103 0
M  V30 4167 C 383.957 3.55252 -0.391218 0
M  V30 4168 C 383.623 4.14834 -1.76702 0
M  V30 4169 C 382.285 4.30821 -2.14353 0
M  V30 4170 C 384.637 4.47658 -2.66931 0
M  V30 4171 C 381.965 4.76928 -3.41696 0
M  V30 4172 C 384.317 4.95184 -3.93669 0
M  V30 4173 C 382.981 5.09377 -4.31383 0
M  V30 4174 H 382.251 0.731923 -0.115627 0
M  V30 4175 H 384.898 1.65161 -0.969223 0
M  V30 4176 H 383.203 3.90273 0.34558 0
M  V30 4177 H 384.9 4.00988 -0.030805 0
M  V30 4178 H 381.49 4.02808 -1.46435 0
M  V30 4179 H 385.674 4.34904 -2.39106 0
M  V30 4180 H 380.93 4.86103 -3.70829 0
M  V30 4181 H 385.104 5.19551 -4.63724 0
M  V30 4182 H 382.731 5.44865 -5.30119 0
M  V30 4183 N 384.306 0.507319 1.49211 0
M  V30 4184 C 385.531 -0.033725 2.07373 0
M  V30 4185 C 385.956 -1.29485 1.36437 0
M  V30 4186 O 385.314 -1.76294 0.423087 0
M  V30 4187 C 385.362 -0.263945 3.59633 0
M  V30 4188 O 384.466 -1.33737 3.90113 0
M  V30 4189 H 383.807 0.0290331 0.663365 0
M  V30 4190 H 386.337 0.708749 1.91932 0
M  V30 4191 H 386.347 -0.493536 4.05004 0
M  V30 4192 H 385.022 0.657424 4.10671 0
M  V30 4193 H 383.599 -1.09224 3.56545 0
M  V30 4194 N 385.784 -1.5574 0.241426 0
M  V30 4195 C 386.747 -2.19877 -0.647063 0
M  V30 4196 C 387.747 -1.16642 -1.10686 0
M  V30 4197 O 388.937 -1.41757 -1.01245 0
M  V30 4198 C 386.069 -2.83797 -1.88871 0
M  V30 4199 H 387.262 -2.99772 -0.087574 0
M  V30 4200 H 384.815 -1.56298 -0.00813574 0
M  V30 4201 H 385.55 -2.07824 -2.48957 0
M  V30 4202 H 385.335 -3.59414 -1.56728 0
M  V30 4203 H 386.825 -3.32898 -2.52129 0
M  V30 4204 N 387.262 0.0317525 -1.57568 0
M  V30 4205 C 388.212 1.04101 -2.02847 0
M  V30 4206 C 389.196 1.3219 -0.917317 0
M  V30 4207 O 390.388 1.31819 -1.18121 0
M  V30 4208 C 387.517 2.34295 -2.5092 0
M  V30 4209 C 386.603 2.09308 -3.68851 0
M  V30 4210 N 386.994 1.5437 -4.81667 0
M  V30 4211 C 385.292 2.39604 -3.76172 0
M  V30 4212 C 385.993 1.45126 -5.63306 0
M  V30 4213 N 384.969 1.92589 -5.08341 0
M  V30 4214 H 388.771 0.610217 -2.87495 0
M  V30 4215 H 386.285 0.238108 -1.60645 0
M  V30 4216 H 388.282 3.07404 -2.81617 0
M  V30 4217 H 386.942 2.78055 -1.67677 0
M  V30 4218 H 387.953 1.22678 -5.03161 0
M  V30 4219 H 384.63 2.86457 -3.03724 0
M  V30 4220 H 386.02 1.03163 -6.63933 0
M  V30 4221 N 388.74 1.54641 0.303973 0
M  V30 4222 C 389.965 1.78092 1.06292 0
M  V30 4223 C 390.39 0.537342 1.80262 0
M  V30 4224 O 389.748 -0.511993 1.7392 0
M  V30 4225 C 389.796 2.98612 2.02147 0
M  V30 4226 O 388.9 2.71528 3.10397 0
M  V30 4227 H 388.241 0.589548 0.305497 0
M  V30 4228 H 390.771 2.01716 0.3423 0
M  V30 4229 H 390.781 3.265 2.44667 0
M  V30 4230 H 389.456 3.88785 1.47714 0
M  V30 4231 H 388.033 2.54648 2.72413 0
M  V30 4232 N 390.218 -0.567019 1.47046 0
M  V30 4233 C 391.148 -1.68482 1.61667 0
M  V30 4234 C 392.129 -1.6358 0.466418 0
M  V30 4235 O 393.314 -1.81354 0.694574 0
M  V30 4236 C 390.444 -3.07124 1.62148 0
M  V30 4237 C 389.398 -3.26867 2.76301 0
M  V30 4238 C 388.724 -4.66196 2.61849 0
M  V30 4239 C 390.024 -3.13186 4.17986 0
M  V30 4240 H 391.718 -1.56502 2.5524 0
M  V30 4241 H 389.264 -0.751486 1.22836 0
M  V30 4242 H 391.217 -3.8516 1.70968 0
M  V30 4243 H 389.941 -3.2004 0.651287 0
M  V30 4244 H 388.6 -2.51237 2.66975 0
M  V30 4245 H 388.248 -4.75898 1.62879 0
M  V30 4246 H 387.948 -4.80356 3.38425 0
M  V30 4247 H 389.472 -5.46379 2.72584 0
M  V30 4248 H 390.886 -3.81049 4.2834 0
M  V30 4249 H 389.283 -3.3886 4.95272 0
M  V30 4250 H 390.353 -2.10057 4.3704 0
M  V30 4251 N 391.696 -1.35014 -0.812953 0
M  V30 4252 C 393.107 -1.25035 -1.38648 0
M  V30 4253 C 393.458 0.119967 -1.95833 0
M  V30 4254 O 392.583 1.02069 -1.90816 0
M  V30 4255 C 393.178 -2.26394 -2.52054 0
M  V30 4256 C 391.737 -2.20175 -3.05287 0
M  V30 4257 C 390.884 -2.12451 -1.78213 0
M  V30 4258 H 393.835 -1.46235 -0.616516 0
M  V30 4259 H 393.856 -1.88672 -3.30429 0
M  V30 4260 H 393.368 -3.26116 -2.10404 0
M  V30 4261 H 391.469 -1.23841 -3.51417 0
M  V30 4262 H 391.582 -3.11863 -3.63701 0
M  V30 4263 H 389.946 -1.58328 -1.9951 0
M  V30 4264 H 390.729 -3.14024 -1.38723 0
M  V30 4265 N 393.175 1.03435 -1.18907 0
M  V30 4266 C 394.108 2.11162 -0.86521 0
M  V30 4267 C 395.086 1.6165 0.175473 0
M  V30 4268 O 396.27 1.88425 0.0530129 0
M  V30 4269 C 393.397 3.37423 -0.293868 0
M  V30 4270 C 392.443 4.05795 -1.31274 0
M  V30 4271 S 393.276 4.52027 -2.8711 0
M  V30 4272 C 394.432 5.81513 -2.31504 0
M  V30 4273 H 394.665 2.38308 -1.77754 0
M  V30 4274 H 392.198 1.16295 -1.01562 0
M  V30 4275 H 394.156 4.1049 0.0292572 0
M  V30 4276 H 392.817 3.0838 0.596682 0
M  V30 4277 H 392.01 4.96574 -0.86198 0
M  V30 4278 H 391.612 3.38874 -1.58242 0
M  V30 4279 H 393.904 6.55784 -1.70157 0
M  V30 4280 H 394.847 6.3136 -3.20608 0
M  V30 4281 H 395.255 5.36921 -1.74286 0
M  V30 4282 N 394.653 0.992116 1.22453 0
M  V30 4283 C 395.878 0.685644 1.95739 0
M  V30 4284 C 396.303 -0.743 1.72804 0
M  V30 4285 O 395.661 -1.50778 1.00676 0
M  V30 4286 C 395.709 0.996293 3.46564 0
M  V30 4287 O 394.813 0.0945512 4.12292 0
M  V30 4288 H 394.154 0.256694 0.612376 0
M  V30 4289 H 396.684 1.32888 1.5557 0
M  V30 4290 H 396.694 0.93781 3.97076 0
M  V30 4291 H 395.369 2.03733 3.62582 0
M  V30 4292 H 393.946 0.208451 3.72317 0
M  V30 4293 N 396.131 -1.37776 0.765217 0
M  V30 4294 C 397.377 -2.00145 0.327072 0
M  V30 4295 C 397.71 -1.60607 -1.09175 0
M  V30 4296 O 396.985 -0.849127 -1.74986 0
M  V30 4297 C 397.268 -3.57109 0.46319 0
M  V30 4298 C 397.121 -4.06576 1.92395 0
M  V30 4299 C 398.44 -4.39888 -0.136473 0
M  V30 4300 H 395.559 -0.727113 0.120316 0
M  V30 4301 H 398.201 -1.63549 0.967039 0
M  V30 4302 H 396.351 -3.88414 -0.0816358 0
M  V30 4303 H 398.023 -3.85864 2.52798 0
M  V30 4304 H 396.266 -3.59011 2.43503 0
M  V30 4305 H 396.937 -5.15639 1.97028 0
M  V30 4306 H 399.413 -4.14803 0.328317 0
M  V30 4307 H 398.289 -5.48899 -0.0110582 0
M  V30 4308 H 398.55 -4.24758 -1.22608 0
M  V30 4309 N 397.609 -0.515225 -1.4894 0
M  V30 4310 C 398.855 0.0242508 -2.02785 0
M  V30 4311 C 399.188 1.35323 -1.39289 0
M  V30 4312 O 398.463 1.87041 -0.533469 0
M  V30 4313 C 398.746 0.16184 -3.59736 0
M  V30 4314 C 398.599 -1.19127 -4.33738 0
M  V30 4315 C 399.918 0.895719 -4.30888 0
M  V30 4316 H 397.037 0.00733914 -0.736963 0
M  V30 4317 H 399.679 -0.669395 -1.77818 0
M  V30 4318 H 397.829 0.752624 -3.8114 0
M  V30 4319 H 399.501 -1.82202 -4.23792 0
M  V30 4320 H 397.744 -1.77695 -3.95736 0
M  V30 4321 H 398.415 -1.04815 -5.41957 0
M  V30 4322 H 400.891 0.394528 -4.14225 0
M  V30 4323 H 399.767 0.960859 -5.40425 0
M  V30 4324 H 400.028 1.9427 -3.97129 0
M  V30 4325 N 399.087 1.5561 -0.249682 0
M  V30 4326 C 400.035 2.22894 0.664906 0
M  V30 4327 C 401.029 1.21743 1.17792 0
M  V30 4328 O 402.235 1.39748 1.13449 0
M  V30 4329 H 398.61 0.715022 0.232912 0
M  V30 4330 H 400.581 2.98307 0.0742998 0
M  V30 4331 C 399.33 2.94424 1.84959 0
M  V30 4332 H 398.653 3.72031 1.46399 0
M  V30 4333 H 400.093 3.44862 2.4667 0
M  V30 4334 C 398.552 1.98454 2.72245 0
M  V30 4335 O 399.082 1.51939 3.71857 0
M  V30 4336 N 397.288 1.65496 2.38871 0
M  V30 4337 H 396.835 2.03517 1.57919 0
M  V30 4338 H 396.793 1.0155 2.97548 0
M  V30 4339 N 400.565 -0.0233959 1.57583 0
M  V30 4340 C 401.981 -0.379134 1.55031 0
M  V30 4341 C 402.181 -1.76255 0.976548 0
M  V30 4342 O 401.237 -2.45266 0.600078 0
M  V30 4343 C 402.55 -0.275792 2.99433 0
M  V30 4344 C 404.098 -0.352458 3.11009 0
M  V30 4345 C 404.573 -0.278501 4.57152 0
M  V30 4346 N 406.064 -0.337123 4.61972 0
M  V30 4347 C 406.799 -0.302876 5.726 0
M  V30 4348 N 406.295 -0.220589 6.92449 0
M  V30 4349 N 408.088 -0.353023 5.6099 0
M  V30 4350 H 400.239 0.881869 1.93227 0
M  V30 4351 H 402.502 0.335867 0.886509 0
M  V30 4352 H 402.208 0.675108 3.4516 0
M  V30 4353 H 402.082 -1.06721 3.61788 0
M  V30 4354 H 404.469 -1.29379 2.65226 0
M  V30 4355 H 404.55 0.468409 2.51475 0
M  V30 4356 H 404.194 0.659189 5.03604 0
M  V30 4357 H 404.124 -1.11755 5.14605 0
M  V30 4358 H 406.615 -0.403002 3.75745 0
M  V30 4359 H 406.928 -0.199713 7.72542 0
M  V30 4360 H 405.273 -0.186555 6.9475 0
M  V30 4361 H 408.464 -0.415339 4.66254 0
M  V30 4362 H 408.637 -0.322866 6.47195 0
M  V30 4363 N 402.043 -1.548 -0.295768 0
M  V30 4364 C 403.291 -1.73985 -1.02828 0
M  V30 4365 C 403.612 -0.531406 -1.87619 0
M  V30 4366 O 402.882 0.454221 -1.90561 0
M  V30 4367 H 401.462 -0.641556 -0.382642 0
M  V30 4368 H 404.124 -1.92163 -0.325489 0
M  V30 4369 H 403.22 -2.63129 -1.67838 0
M  V30 4370 N 403.521 0.559213 -1.47345 0
M  V30 4371 C 404.798 1.31997 -1.44348 0
M  V30 4372 C 405.178 2.1064 -0.139358 0
M  V30 4373 O 404.526 2.1091 0.879153 0
M  V30 4374 C 404.736 2.22618 -2.68779 0
M  V30 4375 C 406.084 2.83701 -3.1591 0
M  V30 4376 O 407.108 2.32921 -2.69493 0
M  V30 4377 O 405.967 3.75993 -3.966 0
M  V30 4378 H 403.061 0.594251 -0.575147 0
M  V30 4379 H 405.607 0.578282 -1.59543 0
M  V30 4380 H 404.379 1.64093 -3.55231 0
M  V30 4381 H 404.002 3.04085 -2.5616 0
M  V30 4382 N 404.999 1.35443 0.805782 0
M  V30 4383 C 406.41 1.25768 1.37983 0
M  V30 4384 C 406.761 -0.10958 1.95894 0
M  V30 4385 O 405.886 -1.01056 1.91355 0
M  V30 4386 C 406.481 2.27727 2.5085 0
M  V30 4387 C 405.04 2.2179 3.04115 0
M  V30 4388 C 404.187 2.13393 1.77084 0
M  V30 4389 H 407.138 1.4656 0.608752 0
M  V30 4390 H 407.159 1.90422 3.29424 0
M  V30 4391 H 406.671 3.27227 2.08671 0
M  V30 4392 H 404.772 1.25703 3.50756 0
M  V30 4393 H 404.885 3.13788 3.62042 0
M  V30 4394 H 403.249 1.59384 1.98668 0
M  V30 4395 H 404.032 3.14755 1.37056 0
M  V30 4396 N 406.477 -1.02803 1.19454 0
M  V30 4397 C 407.707 -1.79581 1.02149 0
M  V30 4398 C 408.115 -1.84182 -0.432851 0
M  V30 4399 O 407.458 -1.28534 -1.31243 0
M  V30 4400 C 407.52 -3.25993 1.51554 0
M  V30 4401 C 407.184 -3.45025 2.99678 0
M  V30 4402 C 408.181 -3.35175 3.97434 0
M  V30 4403 C 405.866 -3.71212 3.38389 0
M  V30 4404 C 407.86 -3.51238 5.31893 0
M  V30 4405 C 405.547 -3.8692 4.73008 0
M  V30 4406 C 406.545 -3.76936 5.69569 0
M  V30 4407 O 406.233 -3.92179 7.01748 0
M  V30 4408 H 405.965 -0.571962 0.360327 0
M  V30 4409 H 408.519 -1.30367 1.58725 0
M  V30 4410 H 406.749 -3.76235 0.893543 0
M  V30 4411 H 408.438 -3.84368 1.30444 0
M  V30 4412 H 409.204 -3.14895 3.68872 0
M  V30 4413 H 405.083 -3.78075 2.6378 0
M  V30 4414 H 408.627 -3.43362 6.07247 0
M  V30 4415 H 404.524 -4.06699 5.01265 0
M  V30 4416 H 405.292 -4.09265 7.08833 0
M  V30 4417 N 407.956 -0.998596 -1.21925 0
M  V30 4418 C 409.367 -0.711939 -1.72593 0
M  V30 4419 C 409.718 0.770842 -1.80423 0
M  V30 4420 O 408.843 1.60237 -1.4544 0
M  V30 4421 C 409.438 -1.28567 -3.13458 0
M  V30 4422 C 407.997 -1.04828 -3.61508 0
M  V30 4423 C 407.144 -1.4024 -2.39224 0
M  V30 4424 H 410.095 -1.17027 -1.07193 0
M  V30 4425 H 410.116 -0.667098 -3.74607 0
M  V30 4426 H 409.628 -2.36486 -3.07727 0
M  V30 4427 H 407.729 0.0140383 -3.72597 0
M  V30 4428 H 407.842 -1.71566 -4.47328 0
M  V30 4429 H 406.206 -0.821077 -2.41103 0
M  V30 4430 H 406.989 -2.49176 -2.36149 0
M  V30 4431 N 409.434 1.37368 -0.772513 0
M  V30 4432 C 410.366 2.28899 -0.117502 0
M  V30 4433 C 411.379 1.4867 0.663405 0
M  V30 4434 O 412.568 1.71314 0.501372 0
M  V30 4435 C 409.668 3.2788 0.857192 0
M  V30 4436 C 408.841 4.37207 0.129938 0
M  V30 4437 C 407.9 5.16257 1.01811 0
M  V30 4438 O 406.926 5.67159 0.481601 0
M  V30 4439 N 408.128 5.31058 2.3443 0
M  V30 4440 H 410.893 2.85752 -0.903662 0
M  V30 4441 H 408.454 1.49353 -0.62493 0
M  V30 4442 H 410.446 3.77647 1.45482 0
M  V30 4443 H 409.016 2.7179 1.54432 0
M  V30 4444 H 408.236 3.88827 -0.648605 0
M  V30 4445 H 409.524 5.07434 -0.372559 0
M  V30 4446 H 408.922 4.91287 2.80452 0
M  V30 4447 H 407.479 5.84131 2.89197 0
M  V30 4448 N 410.912 0.523116 1.48665 0
M  V30 4449 C 411.822 -0.247406 2.33292 0
M  V30 4450 C 412.838 -0.945769 1.46052 0
M  V30 4451 O 414.014 -0.922253 1.79043 0
M  V30 4452 C 411.079 -1.28487 3.22012 0
M  V30 4453 C 410.14 -0.597592 4.2512 0
M  V30 4454 C 409.373 -1.58563 5.09601 0
M  V30 4455 O 409.596 -2.81763 4.95949 0
M  V30 4456 O 408.53 -1.12879 5.91221 0
M  V30 4457 H 412.356 0.445869 3.00409 0
M  V30 4458 H 409.941 0.284128 1.46673 0
M  V30 4459 H 411.823 -1.88459 3.7691 0
M  V30 4460 H 410.498 -1.96068 2.57564 0
M  V30 4461 H 409.405 0.0424407 3.74076 0
M  V30 4462 H 410.738 0.0361517 4.92187 0
M  V30 4463 N 412.39 -1.55475 0.257931 0
M  V30 4464 C 413.636 -1.99502 -0.364266 0
M  V30 4465 C 413.969 -1.146 -1.56782 0
M  V30 4466 O 413.244 -0.211968 -1.93342 0
M  V30 4467 C 413.527 -3.51917 -0.763333 0
M  V30 4468 C 413.38 -4.4758 0.446371 0
M  V30 4469 C 414.699 -4.09742 -1.60623 0
M  V30 4470 H 411.818 -0.725277 -0.130929 0
M  V30 4471 H 414.46 -1.8653 0.361446 0
M  V30 4472 H 412.61 -3.63101 -1.38166 0
M  V30 4473 H 414.282 -4.48362 1.08487 0
M  V30 4474 H 412.525 -4.19947 1.08753 0
M  V30 4475 H 413.196 -5.51862 0.123645 0
M  V30 4476 H 415.672 -4.01727 -1.08418 0
M  V30 4477 H 414.548 -5.16631 -1.85429 0
M  V30 4478 H 414.809 -3.58889 -2.58169 0
M  V30 4479 N 413.868 0.0150385 -1.57593 0
M  V30 4480 C 415.093 0.718067 -1.94573 0
M  V30 4481 C 415.518 1.6734 -0.859005 0
M  V30 4482 O 414.876 1.80362 0.184147 0
M  V30 4483 C 414.924 1.43918 -3.30636 0
M  V30 4484 O 414.028 2.55299 -3.23876 0
M  V30 4485 H 413.369 0.192125 -0.635597 0
M  V30 4486 H 415.899 -0.0336708 -2.04572 0
M  V30 4487 H 415.909 1.80598 -3.65853 0
M  V30 4488 H 414.584 0.738619 -4.09289 0
M  V30 4489 H 413.161 2.21058 -3.00312 0
M  V30 4490 N 415.346 1.54954 0.287554 0
M  V30 4491 C 416.309 1.86076 1.33823 0
M  V30 4492 C 417.309 0.734414 1.43049 0
M  V30 4493 O 418.499 1.00266 1.42452 0
M  V30 4494 C 415.631 2.05305 2.72144 0
M  V30 4495 H 416.824 2.79984 1.07465 0
M  V30 4496 H 414.377 1.47223 0.524902 0
M  V30 4497 H 415.112 1.1373 3.03704 0
M  V30 4498 H 414.897 2.873 2.66836 0
M  V30 4499 H 416.387 2.30706 3.48087 0
M  V30 4500 N 416.824 -0.551391 1.4764 0
M  V30 4501 C 418.052 -1.33357 1.58189 0
M  V30 4502 C 418.467 -1.87342 0.234199 0
M  V30 4503 O 417.824 -1.65301 -0.77343 0
M  V30 4504 C 417.875 -2.49942 2.61173 0
M  V30 4505 O 417.596 -1.98187 3.90709 0
M  V30 4506 C 419.097 -3.42072 2.8196 0
M  V30 4507 H 416.317 -0.40631 0.533998 0
M  V30 4508 H 418.861 -0.667367 1.93304 0
M  V30 4509 H 417.016 -3.12489 2.28975 0
M  V30 4510 H 417.43 -2.74342 4.47031 0
M  V30 4511 H 418.904 -4.20278 3.57869 0
M  V30 4512 H 419.381 -3.95978 1.89995 0
M  V30 4513 H 419.987 -2.85336 3.15378 0
M  V30 4514 N 418.302 -1.35869 -0.798587 0
M  V30 4515 C 419.548 -1.2978 -1.55836 0
M  V30 4516 C 419.881 0.125322 -1.93795 0
M  V30 4517 O 419.156 1.07658 -1.61987 0
M  V30 4518 C 419.439 -2.21188 -2.84162 0
M  V30 4519 C 419.292 -3.72155 -2.52628 0
M  V30 4520 C 420.611 -2.11545 -3.85923 0
M  V30 4521 H 417.73 -0.472769 -0.565383 0
M  V30 4522 H 420.372 -1.66341 -0.918192 0
M  V30 4523 H 418.522 -1.90139 -3.38791 0
M  V30 4524 H 420.194 -4.13682 -2.04121 0
M  V30 4525 H 418.437 -3.92042 -1.85704 0
M  V30 4526 H 419.108 -4.31511 -3.44242 0
M  V30 4527 H 421.584 -2.38855 -3.40716 0
M  V30 4528 H 420.46 -2.77688 -4.73477 0
M  V30 4529 H 420.721 -1.09987 -4.282 0
M  V30 4530 N 419.78 1.02168 -1.19998 0
M  V30 4531 C 420.712 2.10705 -0.901994 0
M  V30 4532 C 421.725 1.6244 0.108216 0
M  V30 4533 O 422.914 1.78082 -0.12214 0
M  V30 4534 C 420.014 3.37291 -0.329834 0
M  V30 4535 C 419.187 4.14714 -1.39035 0
M  V30 4536 C 418.246 5.19606 -0.830432 0
M  V30 4537 O 417.272 5.48809 -1.50989 0
M  V30 4538 N 418.474 5.79366 0.362696 0
M  V30 4539 H 421.239 2.36856 -1.83628 0
M  V30 4540 H 418.8 1.18518 -1.10296 0
M  V30 4541 H 420.792 4.04657 0.0587633 0
M  V30 4542 H 419.362 3.0843 0.508891 0
M  V30 4543 H 418.582 3.42392 -1.9535 0
M  V30 4544 H 419.87 4.63226 -2.10474 0
M  V30 4545 H 419.268 5.57968 0.932081 0
M  V30 4546 H 417.825 6.48106 0.69299 0
M  V30 4547 N 421.258 1.00505 1.21394 0
M  V30 4548 C 422.205 0.565496 2.23765 0
M  V30 4549 C 423.175 -0.408466 1.60999 0
M  V30 4550 O 424.36 -0.310503 1.88257 0
M  V30 4551 C 421.5 -0.101667 3.4495 0
M  V30 4552 C 420.613 0.915479 4.22188 0
M  V30 4553 C 419.748 0.220574 5.30742 0
M  V30 4554 C 418.787 1.22527 5.99711 0
M  V30 4555 N 417.924 0.557831 6.9988 0
M  V30 4556 H 422.764 1.44314 2.60725 0
M  V30 4557 H 420.301 0.722643 1.28126 0
M  V30 4558 H 422.259 -0.505504 4.14126 0
M  V30 4559 H 420.889 -0.94303 3.08718 0
M  V30 4560 H 419.941 1.43756 3.52191 0
M  V30 4561 H 421.253 1.68005 4.69655 0
M  V30 4562 H 420.407 -0.239368 6.06228 0
M  V30 4563 H 419.146 -0.576401 4.84282 0
M  V30 4564 H 418.151 1.69571 5.22997 0
M  V30 4565 H 419.376 2.02332 6.48258 0
M  V30 4566 H 417.322 -0.219486 6.55633 0
M  V30 4567 H 417.239 1.26065 7.45415 0
M  V30 4568 H 418.507 0.121095 7.79406 0
M  V30 4569 N 422.737 -1.36956 0.779787 0
M  V30 4570 C 423.983 -1.99787 0.348281 0
M  V30 4571 C 424.316 -1.61756 -1.07465 0
M  V30 4572 O 423.591 -0.867639 -1.74075 0
M  V30 4573 C 423.874 -3.56597 0.50104 0
M  V30 4574 C 423.727 -4.04513 1.96697 0
M  V30 4575 C 425.046 -4.40008 -0.0898097 0
M  V30 4576 H 422.165 -0.725796 0.128022 0
M  V30 4577 H 424.807 -1.62514 0.984331 0
M  V30 4578 H 422.957 -3.88479 -0.0404347 0
M  V30 4579 H 424.629 -3.83161 2.56876 0
M  V30 4580 H 422.872 -3.56408 2.47297 0
M  V30 4581 H 423.543 -5.1352 2.02486 0
M  V30 4582 H 426.019 -4.14431 0.372293 0
M  V30 4583 H 424.895 -5.4888 0.0471605 0
M  V30 4584 H 425.156 -4.26035 -1.18096 0
M  V30 4585 N 424.215 -0.530993 -1.48385 0
M  V30 4586 C 425.148 0.278511 -2.26494 0
M  V30 4587 C 426.126 0.943905 -1.32398 0
M  V30 4588 O 427.31 0.968098 -1.61741 0
M  V30 4589 C 424.437 1.39453 -3.08659 0
M  V30 4590 C 423.483 0.840434 -4.18137 0
M  V30 4591 S 424.316 -0.292496 -5.34701 0
M  V30 4592 C 425.472 0.825973 -6.20426 0
M  V30 4593 H 425.705 -0.384365 -2.94805 0
M  V30 4594 H 423.238 -0.316799 -1.51115 0
M  V30 4595 H 425.196 2.03382 -3.56575 0
M  V30 4596 H 423.857 2.02913 -2.3976 0
M  V30 4597 H 423.05 1.67769 -4.75257 0
M  V30 4598 H 422.652 0.277819 -3.72967 0
M  V30 4599 H 424.944 1.72438 -6.55188 0
M  V30 4600 H 425.887 0.292728 -7.07495 0
M  V30 4601 H 426.295 1.10683 -5.53543 0
M  V30 4602 N 425.693 1.55336 -0.266172 0
M  V30 4603 C 426.603 2.2583 0.635458 0
M  V30 4604 C 427.619 1.28106 1.17749 0
M  V30 4605 O 428.795 1.61024 1.20968 0
M  V30 4606 C 425.86 2.95879 1.80712 0
M  V30 4607 C 424.921 4.09059 1.30265 0
M  V30 4608 C 424.154 4.75759 2.41846 0
M  V30 4609 O 424.377 4.41622 3.61007 0
M  V30 4610 O 423.311 5.63888 2.1051 0
M  V30 4611 H 427.137 3.03631 0.0646693 0
M  V30 4612 H 424.722 1.49361 -0.0339177 0
M  V30 4613 H 426.604 3.39932 2.49047 0
M  V30 4614 H 425.279 2.21002 2.36516 0
M  V30 4615 H 424.186 3.69482 0.586019 0
M  V30 4616 H 425.519 4.85811 0.790458 0
M  V30 4617 N 427.171 -0.0066808 1.57599 0
M  V30 4618 C 428.587 -0.36267 1.55425 0
M  V30 4619 C 428.787 -1.75209 0.995187 0
M  V30 4620 O 427.843 -2.44616 0.626058 0
M  V30 4621 C 429.156 -0.244017 2.99708 0
M  V30 4622 C 430.704 -0.319451 3.11366 0
M  V30 4623 C 431.179 -0.229998 4.57422 0
M  V30 4624 N 432.67 -0.288105 4.62303 0
M  V30 4625 C 433.405 -0.242127 5.72889 0
M  V30 4626 N 432.901 -0.147133 6.92644 0
M  V30 4627 N 434.694 -0.293502 5.61333 0
M  V30 4628 H 426.845 0.902314 1.92281 0
M  V30 4629 H 429.108 0.34525 0.882896 0
M  V30 4630 H 428.814 0.711678 3.44424 0
M  V30 4631 H 428.688 -1.02877 3.629 0
M  V30 4632 H 431.075 -1.26559 2.66584 0
M  V30 4633 H 431.156 0.495055 2.50964 0
M  V30 4634 H 430.8 0.712566 5.02877 0
M  V30 4635 H 430.73 -1.0629 5.15761 0
M  V30 4636 H 433.221 -0.363126 3.76151 0
M  V30 4637 H 433.534 -0.117763 7.7271 0
M  V30 4638 H 431.879 -0.112857 6.94908 0
M  V30 4639 H 435.07 -0.365864 4.66668 0
M  V30 4640 H 435.243 -0.254204 6.47501 0
M  V30 4641 N 428.649 -1.55105 -0.279332 0
M  V30 4642 C 429.579 -1.90557 -1.34945 0
M  V30 4643 C 430.56 -0.766738 -1.51839 0
M  V30 4644 O 431.745 -1.02434 -1.64988 0
M  V30 4645 C 428.875 -2.17193 -2.71006 0
M  V30 4646 C 427.829 -3.33021 -2.68851 0
M  V30 4647 C 427.155 -3.45123 -4.08405 0
M  V30 4648 C 428.455 -4.69578 -2.28678 0
M  V30 4649 H 430.149 -2.80188 -1.05522 0
M  V30 4650 H 427.695 -1.34811 -0.506173 0
M  V30 4651 H 429.648 -2.40581 -3.45975 0
M  V30 4652 H 428.372 -1.24355 -3.01999 0
M  V30 4653 H 427.031 -3.0959 -1.9634 0
M  V30 4654 H 426.679 -2.49762 -4.3661 0
M  V30 4655 H 426.379 -4.22995 -4.07859 0
M  V30 4656 H 427.903 -3.70796 -4.85121 0
M  V30 4657 H 429.317 -4.92553 -2.93368 0
M  V30 4658 H 427.714 -5.5032 -2.39306 0
M  V30 4659 H 428.784 -4.68828 -1.23807 0
M  V30 4660 N 430.127 0.543554 -1.4793 0
M  V30 4661 C 431.037 1.67657 -1.64098 0
M  V30 4662 C 432.053 1.65934 -0.523622 0
M  V30 4663 O 433.229 1.85133 -0.792943 0
M  V30 4664 C 430.294 3.04146 -1.66421 0
M  V30 4665 C 429.355 3.16831 -2.89684 0
M  V30 4666 C 428.588 4.46809 -2.91886 0
M  V30 4667 O 428.811 5.33095 -2.02895 0
M  V30 4668 O 427.745 4.63573 -3.83906 0
M  V30 4669 H 431.571 1.56957 -2.59997 0
M  V30 4670 H 429.156 0.715116 -1.31173 0
M  V30 4671 H 431.038 3.85346 -1.70548 0
M  V30 4672 H 429.713 3.152 -0.736923 0
M  V30 4673 H 428.62 2.34977 -2.91095 0
M  V30 4674 H 429.953 3.10687 -3.81752 0
M  V30 4675 N 431.605 1.3629 0.791371 0
M  V30 4676 C 432.835 1.33368 1.57786 0
M  V30 4677 C 433.243 -0.0875188 1.88997 0
M  V30 4678 O 432.586 -1.05427 1.50435 0
M  V30 4679 C 432.648 2.08802 2.92646 0
M  V30 4680 C 432.312 3.57903 2.84174 0
M  V30 4681 C 433.309 4.52191 2.56553 0
M  V30 4682 C 430.994 4.00762 3.02812 0
M  V30 4683 C 432.988 5.87315 2.47669 0
M  V30 4684 C 430.675 5.35977 2.93551 0
M  V30 4685 C 431.673 6.29066 2.66017 0
M  V30 4686 O 431.361 7.61798 2.56746 0
M  V30 4687 H 431.093 0.459166 0.496128 0
M  V30 4688 H 433.647 1.79952 0.990269 0
M  V30 4689 H 431.877 1.56878 3.53449 0
M  V30 4690 H 433.566 1.98762 3.53904 0
M  V30 4691 H 434.332 4.20393 2.41858 0
M  V30 4692 H 430.211 3.2868 3.2325 0
M  V30 4693 H 433.755 6.59943 2.26099 0
M  V30 4694 H 429.652 5.67384 3.07808 0
M  V30 4695 H 430.42 7.71898 2.72242 0
M  V30 4696 N 433.083 -1.0153 1.20538 0
M  V30 4697 C 434.323 -1.76689 1.02763 0
M  V30 4698 C 434.687 -1.87065 -0.432513 0
M  V30 4699 O 435.888 -2.58684 -0.730481 0
M  V30 4700 C 434.159 -3.14707 1.69393 0
M  V30 4701 S 435.718 -4.05886 1.66738 0
M  V30 4702 H 432.536 -0.608076 0.368463 0
M  V30 4703 H 435.138 -1.21558 1.53114 0
M  V30 4704 H 433.842 -3.04782 2.74838 0
M  V30 4705 H 433.373 -3.74913 1.19179 0
M  V30 4706 H 435.388 -4.91221 0.70117 0
M  V30 4707 N 434.561 -1.01147 -1.20859 0
M  V30 4708 C 435.509 -0.57059 -2.25493 0
M  V30 4709 C 436.503 0.388109 -1.64894 0
M  V30 4710 O 437.709 0.258592 -1.78133 0
M  V30 4711 H 434.084 -0.166191 -0.733406 0
M  V30 4712 H 436.055 -1.46411 -2.60012 0
M  V30 4713 C 434.804 0.0805241 -3.47607 0
M  V30 4714 H 434.127 -0.648156 -3.94511 0
M  V30 4715 H 435.567 0.352197 -4.22535 0
M  V30 4716 C 434.026 1.32175 -3.09889 0
M  V30 4717 O 434.556 2.41553 -3.20959 0
M  V30 4718 N 432.762 1.20392 -2.64488 0
M  V30 4719 H 432.309 0.313905 -2.5568 0
M  V30 4720 H 432.267 2.03541 -2.39621 0
M  V30 4721 N 436.039 1.36541 -0.78704 0
M  V30 4722 C 437.45 1.81873 -0.421807 0
M  V30 4723 C 437.801 1.65487 1.05397 0
M  V30 4724 O 436.926 1.17448 1.81755 0
M  V30 4725 C 437.521 3.30192 -0.758841 0
M  V30 4726 C 436.08 3.73743 -0.446468 0
M  V30 4727 C 435.227 2.58844 -0.994728 0
M  V30 4728 H 438.178 1.24796 -0.98039 0
M  V30 4729 H 438.199 3.80468 -0.0490648 0
M  V30 4730 H 437.711 3.42087 -1.83299 0
M  V30 4731 H 435.812 3.6741 0.619739 0
M  V30 4732 H 435.925 4.69272 -0.965415 0
M  V30 4733 H 434.289 2.51245 -0.418087 0
M  V30 4734 H 435.072 2.73525 -2.07458 0
M  V30 4735 N 437.518 0.538854 1.48102 0
M  V30 4736 C 438.748 0.0122958 2.06596 0
M  V30 4737 C 439.156 -1.27861 1.39457 0
M  V30 4738 O 438.499 -1.77348 0.478907 0
M  V30 4739 C 438.561 -0.273131 3.58461 0
M  V30 4740 C 438.225 0.92561 4.47528 0
M  V30 4741 C 439.222 1.82637 4.86765 0
M  V30 4742 C 436.907 1.13511 4.89306 0
M  V30 4743 C 438.901 2.92047 5.66558 0
M  V30 4744 C 436.588 2.23233 5.68868 0
M  V30 4745 C 437.586 3.12333 6.07402 0
M  V30 4746 O 437.274 4.20155 6.85365 0
M  V30 4747 H 437.006 0.0344283 0.675123 0
M  V30 4748 H 439.56 0.746494 1.91355 0
M  V30 4749 H 437.79 -1.06141 3.71848 0
M  V30 4750 H 439.479 -0.742842 3.99045 0
M  V30 4751 H 440.245 1.67649 4.55103 0
M  V30 4752 H 436.124 0.450835 4.5879 0
M  V30 4753 H 439.668 3.6162 5.96554 0
M  V30 4754 H 435.565 2.38201 5.99942 0
M  V30 4755 H 436.333 4.17975 7.03732 0
M  V30 4756 N 438.996 -1.55193 0.274407 0
M  V30 4757 C 440.412 -1.59401 -0.0797543 0
M  V30 4758 C 440.612 -1.29162 -1.54659 0
M  V30 4759 O 439.668 -1.05215 -2.29534 0
M  V30 4760 C 440.981 -2.99257 0.294238 0
M  V30 4761 C 442.529 -3.12072 0.240796 0
M  V30 4762 C 443.004 -4.54194 0.589218 0
M  V30 4763 N 444.495 -4.60033 0.540744 0
M  V30 4764 C 445.23 -5.68027 0.783147 0
M  V30 4765 N 444.726 -6.8417 1.09013 0
M  V30 4766 N 446.519 -5.57572 0.711993 0
M  V30 4767 H 438.67 -1.73113 1.23067 0
M  V30 4768 H 440.933 -0.807197 0.497129 0
M  V30 4769 H 440.639 -3.26217 1.31435 0
M  V30 4770 H 440.513 -3.75427 -0.365281 0
M  V30 4771 H 442.9 -2.84877 -0.770024 0
M  V30 4772 H 442.981 -2.38117 0.934563 0
M  V30 4773 H 442.625 -4.82115 1.59772 0
M  V30 4774 H 442.555 -5.26448 -0.126331 0
M  V30 4775 H 445.046 -3.76599 0.313327 0
M  V30 4776 H 445.359 -7.6243 1.26178 0
M  V30 4777 H 443.704 -6.85787 1.12789 0
M  V30 4778 H 446.895 -4.65714 0.472014 0
M  V30 4779 H 447.068 -6.41659 0.90429 0
M  V30 4780 N 440.474 -0.00167713 -1.576 0
M  V30 4781 C 441.404 0.988091 -2.11563 0
M  V30 4782 C 442.385 1.35736 -1.02517 0
M  V30 4783 O 443.57 1.44082 -1.30208 0
M  V30 4784 C 440.7 2.27941 -2.62031 0
M  V30 4785 C 439.654 2.0517 -3.75619 0
M  V30 4786 C 438.98 3.4033 -4.12407 0
M  V30 4787 C 440.28 1.41294 -5.02825 0
M  V30 4788 H 441.974 0.538771 -2.94513 0
M  V30 4789 H 439.52 0.257712 -1.41675 0
M  V30 4790 H 441.473 2.97539 -2.9841 0
M  V30 4791 H 440.197 2.74989 -1.76205 0
M  V30 4792 H 438.856 1.37998 -3.39635 0
M  V30 4793 H 438.504 3.85085 -3.23603 0
M  V30 4794 H 438.204 3.25909 -4.88935 0
M  V30 4795 H 439.728 4.1124 -4.51347 0
M  V30 4796 H 441.142 2.00851 -5.36965 0
M  V30 4797 H 439.539 1.37356 -5.84169 0
M  V30 4798 H 440.609 0.382362 -4.8339 0
M  V30 4799 N 441.952 1.55251 0.271103 0
M  V30 4800 C 443.198 1.76207 1.00394 0
M  V30 4801 C 443.531 0.562604 1.85872 0
M  V30 4802 O 442.806 -0.439785 1.89463 0
M  V30 4803 C 443.089 3.06828 1.8849 0
M  V30 4804 C 442.942 4.37134 1.05992 0
M  V30 4805 C 444.261 3.33503 2.87165 0
M  V30 4806 H 441.38 0.641086 0.363562 0
M  V30 4807 H 444.022 1.87982 0.276189 0
M  V30 4808 H 442.172 2.96921 2.5054 0
M  V30 4809 H 443.844 4.59001 0.459978 0
M  V30 4810 H 442.087 4.32275 0.363443 0
M  V30 4811 H 442.758 5.2486 1.70955 0
M  V30 4812 H 445.234 3.43215 2.3525 0
M  V30 4813 H 444.11 4.2616 3.45946 0
M  V30 4814 H 444.371 2.53235 3.62387 0
M  V30 4815 N 443.43 -0.535701 1.48216 0
M  V30 4816 C 444.676 -1.2913 1.57153 0
M  V30 4817 C 445.031 -1.90899 0.239823 0
M  V30 4818 O 444.324 -1.76022 -0.756748 0
M  V30 4819 C 444.518 -2.4068 2.64212 0
M  V30 4820 C 444.347 -1.89844 4.07663 0
M  V30 4821 C 443.117 -1.72708 4.74869 0
M  V30 4822 C 445.315 -1.43031 4.94011 0
M  V30 4823 N 443.297 -1.16437 6.02757 0
M  V30 4824 C 444.668 -0.986691 6.12098 0
M  V30 4825 C 446.723 -1.3128 4.80281 0
M  V30 4826 C 445.426 -0.437231 7.1797 0
M  V30 4827 C 447.452 -0.777346 5.86269 0
M  V30 4828 C 446.814 -0.343774 7.03561 0
M  V30 4829 H 442.913 -0.463753 0.629648 0
M  V30 4830 H 445.497 -0.604736 1.8507 0
M  V30 4831 H 443.668 -3.06839 2.38126 0
M  V30 4832 H 445.4 -3.07706 2.62867 0
M  V30 4833 H 442.155 -1.96061 4.31111 0
M  V30 4834 H 442.579 -0.903281 6.70947 0
M  V30 4835 H 447.221 -1.63408 3.89946 0
M  V30 4836 H 444.939 -0.103621 8.08034 0
M  V30 4837 H 448.525 -0.689688 5.77698 0
M  V30 4838 H 447.405 0.0641219 7.84174 0
M  V30 4839 N 444.908 -1.36708 -0.784132 0
M  V30 4840 C 445.84 -1.27333 -1.90575 0
M  V30 4841 C 446.853 -0.191706 -1.61667 0
M  V30 4842 O 448.042 -0.446854 -1.72816 0
M  V30 4843 C 445.142 -0.943177 -3.25511 0
M  V30 4844 C 444.315 -2.12776 -3.82158 0
M  V30 4845 C 443.374 -1.76983 -4.95544 0
M  V30 4846 O 442.4 -2.49134 -5.11782 0
M  V30 4847 N 443.602 -0.706624 -5.76183 0
M  V30 4848 H 446.367 -2.23974 -1.99138 0
M  V30 4849 H 443.928 -1.30171 -0.962656 0
M  V30 4850 H 445.92 -0.684799 -3.98864 0
M  V30 4851 H 444.49 -0.0657333 -3.12531 0
M  V30 4852 H 443.71 -2.54863 -3.0073 0
M  V30 4853 H 444.998 -2.91904 -4.16737 0
M  V30 4854 H 444.396 -0.107643 -5.65598 0
M  V30 4855 H 442.953 -0.50808 -6.49817 0
M  V30 4856 N 446.386 1.0089 -1.21074 0
M  V30 4857 C 447.611 1.78727 -1.05221 0
M  V30 4858 C 448.036 1.83932 0.393795 0
M  V30 4859 O 447.394 1.28004 1.28393 0
M  V30 4860 C 447.442 3.20665 -1.64944 0
M  V30 4861 O 446.546 4.02632 -0.892273 0
M  V30 4862 H 445.887 0.550973 -0.370574 0
M  V30 4863 H 448.417 1.26847 -1.60534 0
M  V30 4864 H 448.427 3.71352 -1.69002 0
M  V30 4865 H 447.102 3.16191 -2.70177 0
M  V30 4866 H 445.679 3.61207 -0.926492 0
M  V30 4867 N 447.864 1.01787 1.20321 0
M  V30 4868 C 448.811 0.589197 2.23153 0
M  V30 4869 C 449.781 -0.391367 1.61423 0
M  V30 4870 O 450.966 -0.290518 1.88575 0
M  V30 4871 C 448.106 -0.0650747 3.45039 0
M  V30 4872 C 447.219 0.960207 4.21194 0
M  V30 4873 C 446.354 0.276854 5.30478 0
M  V30 4874 C 445.393 1.2888 5.98378 0
M  V30 4875 N 444.53 0.632031 6.99249 0
M  V30 4876 H 449.37 1.47071 2.59179 0
M  V30 4877 H 446.907 0.736192 1.27352 0
M  V30 4878 H 448.865 -0.461552 4.14639 0
M  V30 4879 H 447.495 -0.910233 3.09701 0
M  V30 4880 H 446.547 1.47484 3.50646 0
M  V30 4881 H 447.859 1.72977 4.67847 0
M  V30 4882 H 447.013 -0.175056 6.06447 0
M  V30 4883 H 445.752 -0.525004 4.84866 0
M  V30 4884 H 444.757 1.75109 5.21169 0
M  V30 4885 H 445.982 2.09196 6.46076 0
M  V30 4886 H 443.928 -0.149935 6.55829 0
M  V30 4887 H 443.845 1.33964 7.44036 0
M  V30 4888 H 445.113 0.203755 7.79234 0
M  V30 4889 N 449.342 -1.36122 0.79427 0
M  V30 4890 C 450.588 -1.99406 0.369452 0
M  V30 4891 C 450.921 -1.62886 -1.05743 0
M  V30 4892 O 450.196 -0.886053 -1.73145 0
M  V30 4893 C 450.479 -3.56046 0.538833 0
M  V30 4894 C 450.332 -4.02404 2.00976 0
M  V30 4895 C 451.651 -4.40079 -0.0431359 0
M  V30 4896 H 448.77 -0.724397 0.135712 0
M  V30 4897 H 451.412 -1.61461 1.00151 0
M  V30 4898 H 449.562 -3.885 0.000771004 0
M  V30 4899 H 451.234 -3.80415 2.60926 0
M  V30 4900 H 449.477 -3.53765 2.51063 0
M  V30 4901 H 450.148 -5.11344 2.07922 0
M  V30 4902 H 452.624 -4.14013 0.416228 0
M  V30 4903 H 451.5 -5.48799 0.105374 0
M  V30 4904 H 451.761 -4.27264 -1.13571 0
M  V30 4905 N 450.82 -0.546701 -1.47814 0
M  V30 4906 C 452.068 -0.0187037 -2.02091 0
M  V30 4907 C 452.389 1.33168 -1.42447 0
M  V30 4908 O 451.659 1.86619 -0.595839 0
M  V30 4909 H 450.239 -0.00392531 -0.74699 0
M  V30 4910 H 452.901 -0.714327 -1.81338 0
M  V30 4911 H 451.997 0.0772219 -3.12004 0
M  V30 4912 N 452.299 1.55045 -0.282633 0
M  V30 4913 C 453.71 1.85473 0.213655 0
M  V30 4914 C 454.061 1.20465 1.54863 0
M  V30 4915 O 453.186 0.495676 2.10647 0
M  V30 4916 C 453.781 3.36496 0.394445 0
M  V30 4917 C 452.34 3.67022 0.834961 0
M  V30 4918 C 451.487 2.77218 -0.0674081 0
M  V30 4919 H 454.438 1.50478 -0.504202 0
M  V30 4920 H 454.459 3.60007 1.23186 0
M  V30 4921 H 453.971 3.83782 -0.577326 0
M  V30 4922 H 452.072 3.25241 1.81794 0
M  V30 4923 H 452.185 4.74433 0.667075 0
M  V30 4924 H 450.549 2.5069 0.450196 0
M  V30 4925 H 451.332 3.2732 -1.0352 0
M  V30 4926 N 453.777 0.010035 1.57597 0
M  V30 4927 C 454.71 -1.01234 2.04516 0
M  V30 4928 C 455.688 -1.32886 0.937024 0
M  V30 4929 O 456.872 -1.44879 1.20592 0
M  V30 4930 C 453.999 -2.33738 2.45121 0
M  V30 4931 C 453.045 -2.17679 3.66767 0
M  V30 4932 S 453.878 -1.49343 5.14254 0
M  V30 4933 C 455.034 -2.83256 5.58137 0
M  V30 4934 H 455.267 -0.612866 2.90914 0
M  V30 4935 H 452.8 -0.201124 1.53084 0
M  V30 4936 H 454.758 -3.09922 2.69182 0
M  V30 4937 H 453.419 -2.70823 1.59103 0
M  V30 4938 H 452.612 -3.1559 3.92962 0
M  V30 4939 H 452.214 -1.4964 3.42759 0
M  V30 4940 H 454.506 -3.79538 5.6121 0
M  V30 4941 H 455.449 -2.61749 6.57946 0
M  V30 4942 H 455.857 -2.87627 4.85727 0
M  V30 4943 N 455.255 -1.55392 -0.262866 0
M  V30 4944 C 456.666 -1.67079 -0.833158 0
M  V30 4945 C 457.017 -0.604539 -1.86654 0
M  V30 4946 O 456.142 0.252138 -2.14926 0
M  V30 4947 C 456.737 -3.02891 -1.51797 0
M  V30 4948 C 455.296 -3.16571 -2.03617 0
M  V30 4949 C 454.443 -2.62909 -0.881701 0
M  V30 4950 H 457.394 -1.58652 -0.0389986 0
M  V30 4951 H 457.415 -2.96445 -2.38538 0
M  V30 4952 H 456.927 -3.80473 -0.765619 0
M  V30 4953 H 455.028 -2.43782 -2.81782 0
M  V30 4954 H 455.141 -4.23271 -2.24452 0
M  V30 4955 H 453.505 -2.20324 -1.27786 0
M  V30 4956 H 454.288 -3.43003 -0.14269 0
M  V30 4957 N 456.733 0.527833 -1.48498 0
M  V30 4958 C 457.979 1.28295 -1.57836 0
M  V30 4959 C 458.334 1.9077 -0.249943 0
M  V30 4960 O 457.627 1.76421 0.747402 0
M  V30 4961 C 457.821 2.39275 -2.65485 0
M  V30 4962 C 457.65 1.87679 -4.08664 0
M  V30 4963 C 456.42 1.70187 -4.75778 0
M  V30 4964 C 458.618 1.40409 -4.94762 0
M  V30 4965 N 456.6 1.13238 -6.03366 0
M  V30 4966 C 457.971 0.954216 -6.12613 0
M  V30 4967 C 460.026 1.28732 -4.8097 0
M  V30 4968 C 458.729 0.39915 -7.18192 0
M  V30 4969 C 460.755 0.746244 -5.86673 0
M  V30 4970 C 460.117 0.306457 -7.03733 0
M  V30 4971 H 456.216 0.460408 -0.632099 0
M  V30 4972 H 458.8 0.594913 -1.85388 0
M  V30 4973 H 456.971 3.05572 -2.3975 0
M  V30 4974 H 458.703 3.06308 -2.64495 0
M  V30 4975 H 455.458 1.93772 -4.32145 0
M  V30 4976 H 455.882 0.867687 -6.71417 0
M  V30 4977 H 460.524 1.61338 -3.90807 0
M  V30 4978 H 458.242 0.0607678 -8.08077 0
M  V30 4979 H 461.828 0.659041 -5.78055 0
M  V30 4980 H 460.708 -0.105708 -7.84129 0
M  V30 4981 N 458.211 1.37122 0.776871 0
M  V30 4982 C 459.141 1.35164 1.90402 0
M  V30 4983 C 460.122 0.221069 1.68657 0
M  V30 4984 O 461.307 0.420642 1.8959 0
M  V30 4985 C 458.437 1.15274 3.27611 0
M  V30 4986 C 457.391 2.25289 3.63908 0
M  V30 4987 C 456.717 1.90527 4.99603 0
M  V30 4988 C 458.017 3.67446 3.71188 0
M  V30 4989 H 459.711 2.29482 1.92297 0
M  V30 4990 H 457.257 1.10465 0.923773 0
M  V30 4991 H 459.21 1.12536 4.06096 0
M  V30 4992 H 457.934 0.174102 3.26136 0
M  V30 4993 H 456.593 2.27174 2.87728 0
M  V30 4994 H 456.241 0.91206 4.94662 0
M  V30 4995 H 455.941 2.64193 5.24858 0
M  V30 4996 H 457.465 1.89367 5.80493 0
M  V30 4997 H 458.879 3.67719 4.39836 0
M  V30 4998 H 457.276 4.40123 4.07936 0
M  V30 4999 H 458.346 4.01443 2.71977 0
M  V30 5000 N 459.689 -1.00246 1.21608 0
M  V30 5001 C 460.937 -1.73717 1.0328 0
M  V30 5002 C 461.258 -1.90102 -0.434318 0
M  V30 5003 O 460.528 -1.45376 -1.31311 0
M  V30 5004 H 459.108 -0.643613 0.379172 0
M  V30 5005 H 461.77 -1.20787 1.52959 0
M  V30 5006 H 460.866 -2.73535 1.50283 0
M  V30 5007 N 461.167 -1.02423 -1.1978 0
M  V30 5008 C 462.578 -0.748389 -1.71044 0
M  V30 5009 C 462.929 0.732398 -1.82017 0
M  V30 5010 O 462.054 1.57116 -1.48807 0
M  V30 5011 C 462.649 -1.35187 -3.1066 0
M  V30 5012 C 461.208 -1.12472 -3.59203 0
M  V30 5013 C 460.355 -1.45283 -2.36195 0
M  V30 5014 H 463.306 -1.19275 -1.04686 0
M  V30 5015 H 463.327 -0.746408 -3.73107 0
M  V30 5016 H 462.839 -2.4296 -3.02642 0
M  V30 5017 H 460.94 -0.0649983 -3.72543 0
M  V30 5018 H 461.053 -1.81016 -4.43588 0
M  V30 5019 H 459.417 -0.872034 -2.39307 0
M  V30 5020 H 460.2 -2.54129 -2.30811 0
M  V30 5021 N 462.645 1.35699 -0.801477 0
M  V30 5022 C 463.577 2.28598 -0.166028 0
M  V30 5023 C 464.59 1.50044 0.631721 0
M  V30 5024 O 465.779 1.72339 0.464921 0
M  V30 5025 C 462.879 3.29625 0.787451 0
M  V30 5026 C 462.052 4.37384 0.037171 0
M  V30 5027 C 461.111 5.183 0.908375 0
M  V30 5028 O 460.137 5.68053 0.361189 0
M  V30 5029 N 461.339 5.35912 2.23112 0
M  V30 5030 H 464.104 2.83771 -0.964071 0
M  V30 5031 H 461.665 1.47994 -0.656469 0
M  V30 5032 H 463.657 3.80648 1.37439 0
M  V30 5033 H 462.227 2.75004 1.48632 0
M  V30 5034 H 461.447 3.87364 -0.730935 0
M  V30 5035 H 462.735 5.0653 -0.480109 0
M  V30 5036 H 462.133 4.97125 2.69968 0
M  V30 5037 H 460.69 5.90133 2.76741 0
M  V30 5038 N 464.123 0.554532 1.47522 0
M  V30 5039 C 465.351 0.034257 2.06872 0
M  V30 5040 C 465.766 -1.25826 1.40759 0
M  V30 5041 O 465.123 -1.75425 0.503217 0
M  V30 5042 C 465.174 -0.167827 3.6111 0
M  V30 5043 O 464.895 1.07351 4.24744 0
M  V30 5044 C 466.396 -0.72569 4.3732 0
M  V30 5045 H 463.616 0.0446275 0.669514 0
M  V30 5046 H 466.16 0.767181 1.89564 0
M  V30 5047 H 464.315 -0.850872 3.7794 0
M  V30 5048 H 464.729 0.869563 5.17242 0
M  V30 5049 H 466.203 -0.816394 5.45929 0
M  V30 5050 H 466.68 -1.73635 4.0342 0
M  V30 5051 H 467.286 -0.0784292 4.25228 0
M  V30 5052 N 465.601 -1.54893 0.290851 0
M  V30 5053 C 466.878 -1.91991 -0.373989 0
M  V30 5054 C 467.258 -1.21694 -1.72493 0
M  V30 5055 O 466.606 -0.34917 -2.25816 0
M  V30 5056 C 466.816 -3.45419 -0.498703 0
M  V30 5057 C 468.164 -4.1748 -0.774298 0
M  V30 5058 O 469.188 -3.51398 -0.582908 0
M  V30 5059 O 468.047 -5.3445 -1.14129 0
M  V30 5060 H 465.141 -0.800593 -0.207315 0
M  V30 5061 H 467.687 -1.66297 0.338164 0
M  V30 5062 H 466.459 -3.88688 0.451392 0
M  V30 5063 H 466.082 -3.77117 -1.25972 0
M  V30 5064 N 467.08 -0.0183926 -1.57589 0
M  V30 5065 C 467.99 0.982943 -2.13015 0
M  V30 5066 C 469.006 1.36443 -1.07979 0
M  V30 5067 O 470.182 1.44802 -1.3998 0
M  V30 5068 C 467.247 2.25024 -2.63752 0
M  V30 5069 C 466.308 1.93018 -3.83461 0
M  V30 5070 C 465.541 3.13706 -4.31769 0
M  V30 5071 O 465.764 4.2601 -3.79305 0
M  V30 5072 O 464.698 2.96629 -5.23732 0
M  V30 5073 H 468.524 0.541709 -2.9883 0
M  V30 5074 H 466.109 0.201565 -1.48034 0
M  V30 5075 H 467.991 2.99441 -2.96502 0
M  V30 5076 H 466.666 2.68349 -1.81026 0
M  V30 5077 H 465.573 1.16019 -3.55655 0
M  V30 5078 H 466.906 1.54516 -4.67317 0
M  V30 5079 N 468.558 1.5553 0.254621 0
M  V30 5080 C 469.783 1.81383 1.00573 0
M  V30 5081 C 470.208 0.594419 1.78461 0
M  V30 5082 O 469.566 -0.456403 1.75461 0
M  V30 5083 C 469.614 3.04892 1.92545 0
M  V30 5084 O 468.718 2.81266 3.01601 0
M  V30 5085 H 468.059 0.598969 0.286587 0
M  V30 5086 H 470.589 2.02703 0.277952 0
M  V30 5087 H 470.599 3.34119 2.34155 0
M  V30 5088 H 469.274 3.93287 1.3527 0
M  V30 5089 H 467.851 2.63185 2.64174 0
M  V30 5090 N 470.036 -0.519951 1.48776 0
M  V30 5091 C 471.285 -1.27175 1.56555 0
M  V30 5092 C 471.598 -1.9401 0.248869 0
M  V30 5093 O 472.804 -2.70725 0.205004 0
M  V30 5094 C 471.26 -2.30811 2.76142 0
M  V30 5095 C 470.868 -1.7 4.14493 0
M  V30 5096 C 472.612 -3.06937 2.9324 0
M  V30 5097 C 470.519 -2.71635 5.25327 0
M  V30 5098 H 469.449 -0.478329 0.582853 0
M  V30 5099 H 472.1 -0.547916 1.75129 0
M  V30 5100 H 470.482 -3.06274 2.51023 0
M  V30 5101 H 471.656 -1.00658 4.49672 0
M  V30 5102 H 469.971 -1.06331 4.02595 0
M  V30 5103 H 472.568 -3.82905 3.73213 0
M  V30 5104 H 472.911 -3.63409 2.03075 0
M  V30 5105 H 473.444 -2.38589 3.18308 0
M  V30 5106 H 470.183 -2.1997 6.1749 0
M  V30 5107 H 469.703 -3.39275 4.94624 0
M  V30 5108 H 471.382 -3.34429 5.53865 0
M  V30 5109 N 471.514 -1.37532 -0.769588 0
M  V30 5110 C 472.461 -1.3347 -1.88293 0
M  V30 5111 C 473.431 -0.199891 -1.64893 0
M  V30 5112 O 474.616 -0.389594 -1.8678 0
M  V30 5113 C 471.756 -1.14968 -3.25387 0
M  V30 5114 C 470.869 -2.37698 -3.60727 0
M  V30 5115 C 470.004 -2.12051 -4.8704 0
M  V30 5116 C 469.043 -3.30636 -5.15117 0
M  V30 5117 N 468.18 -3.04527 -6.3262 0
M  V30 5118 H 473.02 -2.28658 -1.911 0
M  V30 5119 H 470.557 -1.13622 -0.934257 0
M  V30 5120 H 472.515 -1.02261 -4.04473 0
M  V30 5121 H 471.145 -0.234263 -3.21949 0
M  V30 5122 H 470.197 -2.61137 -2.76608 0
M  V30 5123 H 471.509 -3.26131 -3.77413 0
M  V30 5124 H 470.663 -1.96388 -5.74035 0
M  V30 5125 H 469.402 -1.20959 -4.72462 0
M  V30 5126 H 468.407 -3.46836 -4.26597 0
M  V30 5127 H 469.632 -4.22582 -5.31603 0
M  V30 5128 H 467.578 -2.16067 -6.19396 0
M  V30 5129 H 467.495 -3.86503 -6.49732 0
M  V30 5130 H 468.763 -2.92485 -7.22546 0
M  V30 5131 N 472.992 0.995999 -1.22138 0
M  V30 5132 C 474.24 1.73167 -1.042 0
M  V30 5133 C 474.561 1.90329 0.42423 0
M  V30 5134 O 473.831 1.4607 1.30539 0
M  V30 5135 H 472.411 0.641593 -0.38258 0
M  V30 5136 H 475.073 1.19974 -1.53598 0
M  V30 5137 H 474.169 2.72734 -1.51731 0
M  V30 5138 N 474.47 1.03057 1.19235 0
M  V30 5139 C 475.4 0.633497 2.24742 0
M  V30 5140 C 476.381 -0.358335 1.66283 0
M  V30 5141 O 477.566 -0.240676 1.92703 0
M  V30 5142 C 474.696 -0.0147648 3.47297 0
M  V30 5143 C 473.65 0.899527 4.18441 0
M  V30 5144 C 472.976 0.116281 5.34574 0
M  V30 5145 C 474.276 2.21404 4.73051 0
M  V30 5146 H 475.97 1.5155 2.58211 0
M  V30 5147 H 473.516 0.73014 1.24117 0
M  V30 5148 H 475.469 -0.304202 4.20301 0
M  V30 5149 H 474.193 -0.931577 3.13032 0
M  V30 5150 H 472.852 1.17319 3.47321 0
M  V30 5151 H 472.5 -0.802619 4.96555 0
M  V30 5152 H 472.2 0.725293 5.83107 0
M  V30 5153 H 473.724 -0.166376 6.10373 0
M  V30 5154 H 475.138 1.98601 5.37802 0
M  V30 5155 H 473.535 2.77512 5.32078 0
M  V30 5156 H 474.605 2.86752 3.91026 0
M  V30 5157 N 475.948 -1.35272 0.808662 0
M  V30 5158 C 477.188 -2.00534 0.395668 0
M  V30 5159 C 477.552 -1.62755 -1.01857 0
M  V30 5160 O 478.753 -2.20752 -1.53368 0
M  V30 5161 C 477.024 -3.52732 0.575771 0
M  V30 5162 S 478.583 -4.38067 0.253507 0
M  V30 5163 H 475.401 -0.694962 0.150165 0
M  V30 5164 H 478.003 -1.64823 1.05137 0
M  V30 5165 H 476.707 -3.77714 1.60499 0
M  V30 5166 H 476.238 -3.93285 -0.0951739 0
M  V30 5167 H 478.253 -4.87252 -0.938068 0
M  V30 5168 N 477.426 -0.562348 -1.47226 0
M  V30 5169 C 478.336 0.185466 -2.33866 0
M  V30 5170 C 479.352 0.906713 -1.48508 0
M  V30 5171 O 480.528 0.874458 -1.81425 0
M  V30 5172 C 477.593 1.19904 -3.25306 0
M  V30 5173 C 476.654 0.484669 -4.26555 0
M  V30 5174 C 475.887 1.44996 -5.13626 0
M  V30 5175 O 476.11 2.68515 -5.03245 0
M  V30 5176 O 475.044 0.971642 -5.94006 0
M  V30 5177 H 478.87 -0.525361 -2.99121 0
M  V30 5178 H 476.455 -0.322916 -1.45868 0
M  V30 5179 H 478.337 1.78399 -3.81774 0
M  V30 5180 H 477.012 1.8917 -2.62672 0
M  V30 5181 H 475.919 -0.141605 -3.73832 0
M  V30 5182 H 477.252 -0.166634 -4.91918 0
M  V30 5183 N 478.904 1.54736 -0.299062 0
M  V30 5184 C 480.32 1.59507 0.0543849 0
M  V30 5185 C 480.52 1.31606 1.52585 0
M  V30 5186 O 479.576 1.08853 2.27832 0
M  V30 5187 C 480.889 2.98751 -0.34181 0
M  V30 5188 C 482.437 3.1165 -0.290414 0
M  V30 5189 C 482.912 4.53199 -0.661402 0
M  V30 5190 N 484.403 4.59114 -0.613863 0
M  V30 5191 C 485.138 5.66709 -0.873417 0
M  V30 5192 N 484.634 6.82349 -1.19884 0
M  V30 5193 N 486.427 5.56369 -0.800608 0
M  V30 5194 H 478.578 1.71133 -1.25806 0
M  V30 5195 H 480.841 0.799186 -0.509908 0
M  V30 5196 H 480.547 3.24085 -1.36608 0
M  V30 5197 H 480.421 3.75961 0.305508 0
M  V30 5198 H 482.808 2.86066 0.724605 0
M  V30 5199 H 482.889 2.366 -0.972327 0
M  V30 5200 H 482.533 4.79513 -1.67422 0
M  V30 5201 H 482.463 5.26583 0.0425612 0
M  V30 5202 H 484.954 3.76053 -0.3732 0
M  V30 5203 H 485.267 7.60326 -1.38291 0
M  V30 5204 H 483.612 6.83906 -1.23685 0
M  V30 5205 H 486.803 4.64904 -0.546045 0
M  V30 5206 H 486.976 6.40139 -1.00626 0
M  V30 5207 N 480.382 0.0267497 1.57577 0
M  V30 5208 C 481.63 -0.651116 1.91324 0
M  V30 5209 C 481.951 -1.72804 0.90353 0
M  V30 5210 O 481.221 -1.95822 -0.0552946 0
M  V30 5211 H 479.801 -0.243491 0.706202 0
M  V30 5212 H 482.463 0.0739935 1.94759 0
M  V30 5213 H 481.559 -1.10536 2.9187 0
M  V30 5214 N 481.861 -1.55662 -0.24637 0
M  V30 5215 C 483.277 -1.48098 -0.594907 0
M  V30 5216 C 483.477 -0.717044 -1.8831 0
M  V30 5217 O 482.533 -0.246618 -2.51293 0
M  V30 5218 C 483.846 -2.92507 -0.697146 0
M  V30 5219 C 485.394 -3.02881 -0.789436 0
M  V30 5220 C 485.869 -4.48598 -0.923232 0
M  V30 5221 N 487.36 -4.52538 -0.988088 0
M  V30 5222 C 488.095 -5.62536 -1.11089 0
M  V30 5223 N 487.591 -6.82342 -1.19919 0
M  V30 5224 N 489.384 -5.50334 -1.14408 0
M  V30 5225 H 481.535 -2.0377 0.599278 0
M  V30 5226 H 483.798 -0.925145 0.20691 0
M  V30 5227 H 483.504 -3.51242 0.179396 0
M  V30 5228 H 483.378 -3.43024 -1.5689 0
M  V30 5229 H 485.765 -2.44226 -1.65643 0
M  V30 5230 H 485.846 -2.55574 0.107482 0
M  V30 5231 H 485.49 -5.07864 -0.0607927 0
M  V30 5232 H 485.42 -4.93587 -1.8352 0
M  V30 5233 H 487.911 -3.66248 -0.931167 0
M  V30 5234 H 488.224 -7.61924 -1.29197 0
M  V30 5235 H 486.569 -6.85102 -1.16876 0
M  V30 5236 H 489.76 -4.5567 -1.07158 0
M  V30 5237 H 489.933 -6.36096 -1.23634 0
M  V30 5238 N 483.339 0.512053 -1.4905 0
M  V30 5239 C 484.286 1.6148 -1.64902 0
M  V30 5240 C 485.256 1.58687 -0.490673 0
M  V30 5241 O 486.441 1.76842 -0.71636 0
M  V30 5242 C 483.581 2.99676 -1.71139 0
M  V30 5243 C 482.694 3.12568 -2.98203 0
M  V30 5244 C 481.829 4.4143 -2.95487 0
M  V30 5245 C 480.868 4.47916 -4.17179 0
M  V30 5246 N 480.005 5.68191 -4.12437 0
M  V30 5247 H 484.845 1.47271 -2.59066 0
M  V30 5248 H 482.382 0.716713 -1.28459 0
M  V30 5249 H 484.34 3.79761 -1.72736 0
M  V30 5250 H 482.97 3.12614 -0.804508 0
M  V30 5251 H 482.022 2.25618 -3.06269 0
M  V30 5252 H 483.334 3.1322 -3.88194 0
M  V30 5253 H 482.488 5.29825 -2.95585 0
M  V30 5254 H 481.227 4.43326 -2.03256 0
M  V30 5255 H 480.232 3.57925 -4.17337 0
M  V30 5256 H 481.457 4.47744 -5.1059 0
M  V30 5257 H 479.403 5.7095 -3.23036 0
M  V30 5258 H 479.32 5.70413 -4.96151 0
M  V30 5259 H 480.588 6.58823 -4.16621 0
M  V30 5260 N 484.817 1.37938 0.762283 0
M  V30 5261 C 485.765 1.34569 1.89721 0
M  V30 5262 C 486.759 0.232929 1.67791 0
M  V30 5263 O 487.965 0.401485 1.75465 0
M  V30 5264 H 484.34 0.419594 0.624055 0
M  V30 5265 H 486.311 2.30357 1.8968 0
M  V30 5266 C 485.06 1.17898 3.27101 0
M  V30 5267 H 484.383 2.02781 3.44558 0
M  V30 5268 H 485.823 1.19593 4.06784 0
M  V30 5269 C 484.282 -0.114728 3.36705 0
M  V30 5270 O 484.812 -1.0949 3.8649 0
M  V30 5271 N 483.018 -0.16863 2.9011 0
M  V30 5272 H 482.565 0.62967 2.49786 0
M  V30 5273 H 482.523 -1.03383 2.96916 0
M  V30 5274 N 486.295 -0.989507 1.22664 0
M  V30 5275 C 487.544 -1.72375 1.04737 0
M  V30 5276 C 487.857 -1.91096 -0.417316 0
M  V30 5277 O 489.063 -2.6188 -0.716334 0
M  V30 5278 C 487.519 -3.10161 1.82561 0
M  V30 5279 C 487.127 -2.99358 3.333 0
M  V30 5280 C 488.871 -3.87607 1.73093 0
M  V30 5281 C 486.778 -4.32319 4.03552 0
M  V30 5282 H 485.708 -0.646326 0.388302 0
M  V30 5283 H 488.359 -1.10437 1.46546 0
M  V30 5284 H 486.741 -3.728 1.33552 0
M  V30 5285 H 487.915 -2.45863 3.89728 0
M  V30 5286 H 486.23 -2.35392 3.43481 0
M  V30 5287 H 488.827 -4.86025 2.22899 0
M  V30 5288 H 489.17 -4.10509 0.691976 0
M  V30 5289 H 489.703 -3.31652 2.19663 0
M  V30 5290 H 486.442 -4.14616 5.07714 0
M  V30 5291 H 485.962 -4.85714 3.51911 0
M  V30 5292 H 487.641 -5.01051 4.09337 0
M  V30 5293 N 487.773 -1.03688 -1.18687 0
M  V30 5294 C 488.703 -0.645407 -2.24403 0
M  V30 5295 C 489.684 0.349511 -1.66471 0
M  V30 5296 O 490.869 0.230453 -1.92828 0
M  V30 5297 C 487.999 -0.00365337 -3.473 0
M  V30 5298 C 486.953 -0.921705 -4.17958 0
M  V30 5299 C 486.279 -0.144629 -5.34504 0
M  V30 5300 C 487.579 -2.23909 -4.71871 0
M  V30 5301 H 489.273 -1.52917 -2.57404 0
M  V30 5302 H 486.819 -0.736711 -1.23728 0
M  V30 5303 H 488.772 0.281908 -4.20456 0
M  V30 5304 H 487.496 0.914963 -3.13522 0
M  V30 5305 H 486.155 -1.19159 -3.46694 0
M  V30 5306 H 485.803 0.776274 -4.96974 0
M  V30 5307 H 485.503 -0.756206 -5.82714 0
M  V30 5308 H 487.027 0.134004 -6.10453 0
M  V30 5309 H 488.441 -2.0145 -5.36741 0
M  V30 5310 H 486.838 -2.8033 -5.30599 0
M  V30 5311 H 487.908 -2.88822 -3.895 0
M  V30 5312 N 489.251 1.34841 -0.815825 0
M  V30 5313 C 490.181 2.32187 -0.247298 0
M  V30 5314 C 491.162 1.5791 0.632344 0
M  V30 5315 O 492.347 1.8593 0.560698 0
M  V30 5316 C 489.477 3.42122 0.597466 0
M  V30 5317 C 488.431 4.27602 -0.184446 0
M  V30 5318 C 487.757 5.28942 0.782609 0
M  V30 5319 C 489.057 5.03502 -1.38865 0
M  V30 5320 H 490.751 2.79985 -1.06061 0
M  V30 5321 H 488.297 1.34611 -0.511461 0
M  V30 5322 H 490.25 4.09232 1.00533 0
M  V30 5323 H 488.974 2.92956 1.44376 0
M  V30 5324 H 487.633 3.62085 -0.573592 0
M  V30 5325 H 487.281 4.7604 1.62466 0
M  V30 5326 H 486.981 5.87008 0.263695 0
M  V30 5327 H 488.505 5.98922 1.18848 0
M  V30 5328 H 489.919 5.63506 -1.05518 0
M  V30 5329 H 488.316 5.71108 -1.8427 0
M  V30 5330 H 489.386 4.33608 -2.17054 0
M  V30 5331 N 490.729 0.570148 1.46925 0
M  V30 5332 C 491.975 0.0510284 2.02736 0
M  V30 5333 C 492.308 -1.3006 1.44215 0
M  V30 5334 O 491.583 -1.84932 0.602521 0
M  V30 5335 C 491.866 -0.028215 3.60089 0
M  V30 5336 C 491.719 1.35142 4.29018 0
M  V30 5337 C 493.038 -0.735181 4.33916 0
M  V30 5338 H 490.157 0.0200178 0.736728 0
M  V30 5339 H 492.799 0.73493 1.75211 0
M  V30 5340 H 490.949 -0.610648 3.83671 0
M  V30 5341 H 492.621 1.97806 4.16738 0
M  V30 5342 H 490.864 1.9226 3.88868 0
M  V30 5343 H 491.535 1.24857 5.37694 0
M  V30 5344 H 494.011 -0.240519 4.15404 0
M  V30 5345 H 492.887 -0.759622 5.43618 0
M  V30 5346 H 493.148 -1.79397 4.04066 0
M  V30 5347 N 492.207 -1.54576 0.307264 0
M  V30 5348 C 493.618 -1.8579 -0.184121 0
M  V30 5349 C 493.969 -1.22914 -1.52927 0
M  V30 5350 O 493.094 -0.529126 -2.09831 0
M  V30 5351 C 493.689 -3.37081 -0.340862 0
M  V30 5352 C 492.248 -3.68304 -0.776465 0
M  V30 5353 C 491.395 -2.77076 0.111503 0
M  V30 5354 H 494.346 -1.49656 0.528078 0
M  V30 5355 H 494.367 -3.61922 -1.17443 0
M  V30 5356 H 493.879 -3.82815 0.638309 0
M  V30 5357 H 491.98 -3.28092 -1.76596 0
M  V30 5358 H 492.093 -4.75434 -0.591512 0
M  V30 5359 H 490.457 -2.51374 -0.410256 0
M  V30 5360 H 491.24 -3.25632 1.08714 0
M  V30 5361 N 493.685 -0.035106 -1.57561 0
M  V30 5362 C 494.934 0.641604 -1.91223 0
M  V30 5363 C 495.247 1.72944 -0.913761 0
M  V30 5364 O 496.453 2.46321 -1.14185 0
M  V30 5365 C 494.909 1.19249 -3.3957 0
M  V30 5366 C 494.517 0.137616 -4.47789 0
M  V30 5367 C 496.261 1.84537 -3.82291 0
M  V30 5368 C 494.168 0.700478 -5.87237 0
M  V30 5369 H 493.098 0.243417 -0.713627 0
M  V30 5370 H 495.749 -0.101382 -1.8322 0
M  V30 5371 H 494.131 1.98728 -3.42525 0
M  V30 5372 H 495.305 -0.635153 -4.56402 0
M  V30 5373 H 493.62 -0.416855 -4.14308 0
M  V30 5374 H 496.217 2.27616 -4.83834 0
M  V30 5375 H 496.56 2.69054 -3.17672 0
M  V30 5376 H 497.093 1.11739 -3.81784 0
M  V30 5377 H 493.832 -0.106693 -6.55413 0
M  V30 5378 H 493.352 1.4416 -5.82218 0
M  V30 5379 H 495.031 1.18837 -6.35993 0
M  V30 5380 N 495.163 1.55791 0.238111 0
M  V30 5381 C 496.126 1.90239 1.27835 0
M  V30 5382 C 497.126 0.779552 1.4064 0
M  V30 5383 O 498.316 1.04747 1.3919 0
M  V30 5384 C 495.448 2.13859 2.65475 0
M  V30 5385 H 496.641 2.83262 0.985034 0
M  V30 5386 H 494.194 1.48818 0.477799 0
M  V30 5387 H 494.929 1.23334 2.99932 0
M  V30 5388 H 494.714 2.95643 2.57561 0
M  V30 5389 H 496.204 2.41664 3.40571 0
M  V30 5390 N 496.642 -0.504142 1.49319 0
M  V30 5391 C 497.889 -1.25846 1.58647 0
M  V30 5392 C 498.217 -1.92592 0.27177 0
M  V30 5393 O 497.472 -1.81167 -0.74007 0
M  V30 5394 C 497.771 -2.35021 2.69258 0
M  V30 5395 C 497.437 -1.85755 4.1086 0
M  V30 5396 C 496.099 -1.72038 4.49395 0
M  V30 5397 C 498.451 -1.48844 4.99495 0
M  V30 5398 C 495.779 -1.19783 5.74342 0
M  V30 5399 C 498.131 -0.980422 6.24956 0
M  V30 5400 C 496.795 -0.829622 6.62324 0
M  V30 5401 H 496.065 -0.460505 0.580531 0
M  V30 5402 H 498.712 -0.559716 1.83138 0
M  V30 5403 H 497.017 -3.10672 2.38726 0
M  V30 5404 H 498.714 -2.93083 2.73685 0
M  V30 5405 H 495.304 -1.9739 3.80441 0
M  V30 5406 H 499.488 -1.5829 4.70381 0
M  V30 5407 H 494.744 -1.06817 6.01997 0
M  V30 5408 H 498.918 -0.685608 6.93017 0
M  V30 5409 H 496.545 -0.42253 7.59025 0
M  V30 5410 N 498.12 -1.38341 -0.754957 0
M  V30 5411 C 499.348 -1.37704 -1.54419 0
M  V30 5412 C 499.763 0.0335243 -1.8877 0
M  V30 5413 O 499.12 0.999773 -1.52679 0
M  V30 5414 C 499.171 -2.23136 -2.84416 0
M  V30 5415 O 498.892 -3.58697 -2.51531 0
M  V30 5416 C 500.393 -2.30664 -3.78562 0
M  V30 5417 H 497.613 -0.471061 -0.477852 0
M  V30 5418 H 500.157 -1.81902 -0.934446 0
M  V30 5419 H 498.312 -1.82403 -3.41772 0
M  V30 5420 H 498.726 -4.03665 -3.34896 0
M  V30 5421 H 500.2 -2.9473 -4.66732 0
M  V30 5422 H 500.677 -1.3199 -4.18898 0
M  V30 5423 H 501.283 -2.71781 -3.27131 0
M  V30 5424 N 499.598 0.982988 -1.23187 0
M  V30 5425 C 500.823 1.76455 -1.08988 0
M  V30 5426 C 501.248 1.84726 0.354691 0
M  V30 5427 O 500.606 1.30699 1.25649 0
M  V30 5428 C 500.654 3.17094 -1.71708 0
M  V30 5429 O 499.758 4.00648 -0.977477 0
M  V30 5430 H 499.099 0.542988 -0.382177 0
M  V30 5431 H 501.629 1.23413 -1.63188 0
M  V30 5432 H 501.639 3.67684 -1.76841 0
M  V30 5433 H 500.314 3.10389 -2.76823 0
M  V30 5434 H 498.891 3.59161 -1.0029 0
M  V30 5435 N 501.076 1.04316 1.18135 0
M  V30 5436 C 502.353 0.662166 1.84051 0
M  V30 5437 C 502.733 -0.858169 1.9287 0
M  V30 5438 O 502.081 -1.76062 1.45652 0
M  V30 5439 C 502.291 1.3409 3.22212 0
M  V30 5440 C 503.639 1.4733 3.9822 0
M  V30 5441 O 504.663 1.29921 3.31661 0
M  V30 5442 O 503.522 1.75722 5.17479 0
M  V30 5443 H 500.616 0.232005 0.79379 0
M  V30 5444 H 503.162 1.1422 1.25506 0
M  V30 5445 H 501.934 2.37853 3.10711 0
M  V30 5446 H 501.557 0.849649 3.88416 0
M  V30 5447 N 502.554 -1.34406 0.822964 0
M  V30 5448 C 503.504 -2.26963 0.217208 0
M  V30 5449 C 504.488 -1.48536 -0.618545 0
M  V30 5450 O 505.68 -1.7056 -0.473118 0
M  V30 5451 C 502.809 -3.37655 -0.619973 0
M  V30 5452 C 501.895 -4.23495 0.226411 0
M  V30 5453 N 502.286 -4.88876 1.29744 0
M  V30 5454 C 500.584 -4.45999 0.0107554 0
M  V30 5455 C 501.285 -5.52642 1.81553 0
M  V30 5456 N 500.261 -5.31949 1.11942 0
M  V30 5457 H 504.063 -2.75017 1.03647 0
M  V30 5458 H 501.577 -1.48126 0.665777 0
M  V30 5459 H 503.574 -4.02932 -1.07011 0
M  V30 5460 H 502.234 -2.91151 -1.43739 0
M  V30 5461 H 503.245 -4.89886 1.68024 0
M  V30 5462 H 499.922 -4.10253 -0.774495 0
M  V30 5463 H 501.312 -6.14755 2.71156 0
M  V30 5464 N 504.032 -0.577932 -1.46621 0
M  V30 5465 C 505.281 -0.0594281 -2.01612 0
M  V30 5466 C 505.594 1.30663 -1.45556 0
M  V30 5467 O 506.8 1.91621 -1.92337 0
M  V30 5468 C 505.256 -0.0556666 -3.59857 0
M  V30 5469 C 504.864 -1.41975 -4.24908 0
M  V30 5470 C 506.608 0.409143 -4.22524 0
M  V30 5471 C 504.515 -1.37397 -5.75218 0
M  V30 5472 H 503.445 -0.0184469 -0.753774 0
M  V30 5473 H 506.096 -0.728869 -1.68404 0
M  V30 5474 H 504.478 0.679843 -3.90121 0
M  V30 5475 H 505.652 -2.17461 -4.0626 0
M  V30 5476 H 503.967 -1.82419 -3.74316 0
M  V30 5477 H 506.564 0.46211 -5.32699 0
M  V30 5478 H 506.907 1.42565 -3.91128 0
M  V30 5479 H 507.44 -0.272152 -3.96868 0
M  V30 5480 H 504.179 -2.36714 -6.11267 0
M  V30 5481 H 503.699 -0.661239 -5.96144 0
M  V30 5482 H 505.378 -1.08484 -6.3784 0
M  V30 5483 N 505.51 1.54411 -0.315457 0
M  V30 5484 C 506.42 2.27737 0.56329 0
M  V30 5485 C 507.436 1.31787 1.13614 0
M  V30 5486 O 508.612 1.64791 1.15784 0
M  V30 5487 C 505.677 3.01478 1.71207 0
M  V30 5488 C 504.738 4.12997 1.17185 0
M  V30 5489 C 503.971 4.83212 2.26588 0
M  V30 5490 O 504.194 4.52884 3.46775 0
M  V30 5491 O 503.128 5.70299 1.92463 0
M  V30 5492 H 506.954 3.03683 -0.0319614 0
M  V30 5493 H 504.539 1.49178 -0.0814188 0
M  V30 5494 H 506.421 3.47683 2.38106 0
M  V30 5495 H 505.096 2.28414 2.29366 0
M  V30 5496 H 504.003 3.71159 0.468174 0
M  V30 5497 H 505.336 4.8808 0.635501 0
M  V30 5498 N 506.988 0.0434614 1.5754 0
M  V30 5499 C 508.216 -0.641835 1.96693 0
M  V30 5500 C 508.631 -1.64832 0.920652 0
M  V30 5501 O 507.988 -1.82247 -0.095993 0
M  V30 5502 C 508.039 -1.33557 3.35924 0
M  V30 5503 O 507.76 -0.369403 4.3654 0
M  V30 5504 C 509.261 -2.11135 3.89791 0
M  V30 5505 H 506.481 -0.176013 0.647503 0
M  V30 5506 H 509.025 0.107478 2.04217 0
M  V30 5507 H 507.18 -2.03617 3.29574 0
M  V30 5508 H 507.594 -0.863674 5.1734 0
M  V30 5509 H 509.068 -2.55107 4.89514 0
M  V30 5510 H 509.545 -2.95634 3.24803 0
M  V30 5511 H 510.151 -1.46002 3.99454 0
M  V30 5512 N 508.466 -1.55915 -0.229846 0
M  V30 5513 C 509.396 -1.94754 -1.28815 0
M  V30 5514 C 510.377 -0.814657 -1.49323 0
M  V30 5515 O 511.562 -1.07631 -1.61645 0
M  V30 5516 C 508.692 -2.25705 -2.63959 0
M  V30 5517 C 507.646 -3.41406 -2.5812 0
M  V30 5518 C 506.972 -3.57941 -3.97218 0
M  V30 5519 C 508.272 -4.76616 -2.13623 0
M  V30 5520 H 509.966 -2.83404 -0.965547 0
M  V30 5521 H 507.512 -1.36353 -0.463028 0
M  V30 5522 H 509.465 -2.51467 -3.38146 0
M  V30 5523 H 508.189 -1.339 -2.9789 0
M  V30 5524 H 506.848 -3.1568 -1.86391 0
M  V30 5525 H 506.496 -2.63526 -4.28443 0
M  V30 5526 H 506.196 -4.35757 -3.94195 0
M  V30 5527 H 507.72 -3.86042 -4.73079 0
M  V30 5528 H 509.134 -5.01637 -2.77549 0
M  V30 5529 H 507.531 -5.57655 -2.21677 0
M  V30 5530 H 508.601 -4.7253 -1.08829 0
M  V30 5531 N 509.944 0.496216 -1.49584 0
M  V30 5532 C 511.174 1.27209 -1.62793 0
M  V30 5533 C 511.582 1.86799 -0.300476 0
M  V30 5534 O 510.925 1.68802 0.724674 0
M  V30 5535 C 510.987 2.43812 -2.64189 0
M  V30 5536 C 510.651 2.05055 -4.08414 0
M  V30 5537 C 511.648 1.58752 -4.9507 0
M  V30 5538 C 509.333 2.14543 -4.54177 0
M  V30 5539 C 511.327 1.22448 -6.25528 0
M  V30 5540 C 509.014 1.77851 -5.84647 0
M  V30 5541 C 510.012 1.31878 -6.70147 0
M  V30 5542 O 509.7 0.956834 -7.98185 0
M  V30 5543 H 509.432 0.391848 -0.550846 0
M  V30 5544 H 511.986 0.601712 -1.96389 0
M  V30 5545 H 510.216 3.13941 -2.25783 0
M  V30 5546 H 511.905 3.05829 -2.66877 0
M  V30 5547 H 512.671 1.50863 -4.60939 0
M  V30 5548 H 508.55 2.49277 -3.87791 0
M  V30 5549 H 512.094 0.864933 -6.92217 0
M  V30 5550 H 507.991 1.8539 -6.18305 0
M  V30 5551 H 508.759 1.08789 -8.11238 0
M  V30 5552 N 511.423 1.38739 0.74761 0
M  V30 5553 C 512.333 1.38696 1.89211 0
M  V30 5554 C 513.349 0.283303 1.71678 0
M  V30 5555 O 514.525 0.522713 1.94498 0
M  V30 5556 C 511.59 1.21662 3.24653 0
M  V30 5557 C 510.651 2.41886 3.54669 0
M  V30 5558 C 509.884 2.25655 4.83648 0
M  V30 5559 O 510.107 1.25339 5.56459 0
M  V30 5560 O 509.041 3.14372 5.13277 0
M  V30 5561 H 512.867 2.35143 1.92202 0
M  V30 5562 H 510.452 1.19721 0.893708 0
M  V30 5563 H 512.334 1.14246 4.05618 0
M  V30 5564 H 511.009 0.283024 3.2246 0
M  V30 5565 H 509.916 2.54877 2.73841 0
M  V30 5566 H 511.249 3.33895 3.61628 0
M  V30 5567 N 512.901 -0.976442 1.23707 0
M  V30 5568 C 513.831 -2.08749 1.04624 0
M  V30 5569 C 514.812 -1.70057 -0.0380956 0
M  V30 5570 O 515.997 -1.93782 0.127308 0
M  V30 5571 C 513.127 -3.41335 0.640902 0
M  V30 5572 C 512.081 -3.93947 1.67302 0
M  V30 5573 C 511.407 -5.22774 1.12301 0
M  V30 5574 C 512.707 -4.22769 3.06697 0
M  V30 5575 H 514.401 -2.24972 1.97555 0
M  V30 5576 H 511.947 -1.08108 0.951247 0
M  V30 5577 H 513.9 -4.18489 0.494434 0
M  V30 5578 H 512.624 -3.24988 -0.324099 0
M  V30 5579 H 511.283 -3.18941 1.80755 0
M  V30 5580 H 510.931 -5.0278 0.148877 0
M  V30 5581 H 510.631 -5.58942 1.81267 0
M  V30 5582 H 512.155 -6.02546 0.988479 0
M  V30 5583 H 513.569 -4.90659 2.96524 0
M  V30 5584 H 511.966 -4.70147 3.72937 0
M  V30 5585 H 513.036 -3.29885 3.55392 0
M  V30 5586 N 514.379 -1.04941 -1.1758 0
M  V30 5587 C 515.656 -0.671918 -1.83697 0
M  V30 5588 C 516.036 0.847929 -1.93322 0
M  V30 5589 O 515.384 1.75287 -1.46583 0
M  V30 5590 C 515.594 -1.35797 -3.21497 0
M  V30 5591 C 516.942 -1.4944 -3.97433 0
M  V30 5592 O 517.966 -1.31678 -3.30967 0
M  V30 5593 O 516.825 -1.78463 -5.1654 0
M  V30 5594 H 513.919 -0.236212 -0.792548 0
M  V30 5595 H 516.465 -1.14884 -1.24899 0
M  V30 5596 H 515.237 -2.39498 -3.09446 0
M  V30 5597 H 514.86 -0.870236 -3.8796 0
M  V30 5598 N 515.857 1.33968 -0.830081 0
M  V30 5599 C 517.106 1.97323 -0.417928 0
M  V30 5600 C 517.419 1.6652 1.02618 0
M  V30 5601 O 518.625 2.2342 1.54259 0
M  V30 5602 C 517.081 3.53099 -0.696359 0
M  V30 5603 C 516.689 3.92788 -2.15457 0
M  V30 5604 C 518.433 4.23049 -0.350724 0
M  V30 5605 C 516.34 5.41506 -2.37751 0
M  V30 5606 H 515.27 0.738409 -0.152541 0
M  V30 5607 H 517.921 1.52711 -1.01744 0
M  V30 5608 H 516.303 3.95991 -0.0265904 0
M  V30 5609 H 517.477 3.6098 -2.86408 0
M  V30 5610 H 515.792 3.35795 -2.46232 0
M  V30 5611 H 518.389 5.32403 -0.495036 0
M  V30 5612 H 518.732 4.10279 0.705476 0
M  V30 5613 H 519.265 3.85657 -0.975362 0
M  V30 5614 H 516.004 5.5927 -3.41903 0
M  V30 5615 H 515.524 5.74804 -1.7135 0
M  V30 5616 H 517.203 6.0828 -2.20465 0
M  V30 5617 N 517.335 0.585699 1.46312 0
M  V30 5618 C 518.245 -0.148236 2.34131 0
M  V30 5619 C 519.261 -0.882972 1.49932 0
M  V30 5620 O 520.437 -0.845484 1.82794 0
M  V30 5621 C 517.502 -1.14714 3.27172 0
M  V30 5622 C 516.563 -0.416746 4.27272 0
M  V30 5623 C 515.796 -1.36806 5.15868 0
M  V30 5624 O 516.019 -2.60475 5.07454 0
M  V30 5625 O 514.953 -0.877018 5.95476 0
M  V30 5626 H 518.779 0.572882 2.98248 0
M  V30 5627 H 516.364 0.346082 1.45336 0
M  V30 5628 H 518.246 -1.72303 3.84564 0
M  V30 5629 H 516.921 -1.84967 2.65648 0
M  V30 5630 H 515.828 0.201061 3.73559 0
M  V30 5631 H 517.161 0.244872 4.9159 0
M  V30 5632 N 518.813 -1.54241 0.323641 0
M  V30 5633 C 520.043 -2.04687 -0.280464 0
M  V30 5634 C 520.451 -1.19939 -1.46326 0
M  V30 5635 O 519.794 -0.222872 -1.82343 0
M  V30 5636 C 519.856 -3.50978 -0.778123 0
M  V30 5637 C 519.52 -4.56127 0.282371 0
M  V30 5638 C 520.517 -5.07726 1.11847 0
M  V30 5639 C 518.202 -5.00451 0.430582 0
M  V30 5640 C 520.196 -6.02212 2.08851 0
M  V30 5641 C 517.883 -5.94752 1.40404 0
M  V30 5642 C 518.881 -6.45519 2.23147 0
M  V30 5643 O 518.569 -7.37968 3.1884 0
M  V30 5644 H 518.301 -0.673192 -0.0615473 0
M  V30 5645 H 520.855 -1.99999 0.467921 0
M  V30 5646 H 519.085 -3.53064 -1.57742 0
M  V30 5647 H 520.774 -3.84499 -1.30058 0
M  V30 5648 H 521.54 -4.74261 1.01496 0
M  V30 5649 H 517.419 -4.6055 -0.203569 0
M  V30 5650 H 520.963 -6.41761 2.73474 0
M  V30 5651 H 516.86 -6.27633 1.5082 0
M  V30 5652 H 517.628 -7.55841 3.14079 0
M  V30 5653 N 520.291 -0.0518155 -1.57515 0
M  V30 5654 C 521.516 0.634896 -1.97443 0
M  V30 5655 C 521.941 1.63546 -0.929207 0
M  V30 5656 O 521.299 1.80981 0.107484 0
M  V30 5657 C 521.347 1.29765 -3.36442 0
M  V30 5658 O 520.451 2.41333 -3.34413 0
M  V30 5659 H 519.792 0.164994 -0.643174 0
M  V30 5660 H 522.322 -0.120407 -2.04245 0
M  V30 5661 H 522.332 1.64918 -3.73184 0
M  V30 5662 H 521.007 0.564361 -4.12053 0
M  V30 5663 H 519.584 2.08122 -3.09418 0
M  V30 5664 N 521.769 1.56035 0.221574 0
M  V30 5665 C 522.701 1.889 1.29805 0
M  V30 5666 C 523.714 0.777269 1.43047 0
M  V30 5667 O 524.903 1.05557 1.43945 0
M  V30 5668 C 522.003 2.0825 2.67367 0
M  V30 5669 C 521.176 3.39267 2.76073 0
M  V30 5670 C 520.235 3.48049 3.94649 0
M  V30 5671 O 519.261 4.2108 3.82988 0
M  V30 5672 N 520.463 2.79191 5.08953 0
M  V30 5673 H 523.228 2.81831 1.01938 0
M  V30 5674 H 520.789 1.5658 0.411612 0
M  V30 5675 H 522.781 2.11441 3.45072 0
M  V30 5676 H 521.351 1.21944 2.87834 0
M  V30 5677 H 520.571 3.48175 1.84846 0
M  V30 5678 H 521.859 4.25575 2.7886 0
M  V30 5679 H 521.257 2.19635 5.21322 0
M  V30 5680 H 519.814 2.88043 5.84701 0
M  V30 5681 N 523.247 -0.488276 1.49845 0
M  V30 5682 C 524.493 -1.24341 1.6021 0
M  V30 5683 C 524.826 -1.91967 0.293651 0
M  V30 5684 O 524.101 -1.81323 -0.703718 0
M  V30 5685 C 524.384 -2.3005 2.77036 0
M  V30 5686 C 524.237 -1.66842 4.17713 0
M  V30 5687 C 525.556 -3.31509 2.89464 0
M  V30 5688 H 522.675 -0.450704 0.583125 0
M  V30 5689 H 525.317 -0.539673 1.82174 0
M  V30 5690 H 523.467 -2.90071 2.58439 0
M  V30 5691 H 525.139 -1.1055 4.47858 0
M  V30 5692 H 523.382 -0.972079 4.22768 0
M  V30 5693 H 524.053 -2.43576 4.95353 0
M  V30 5694 H 526.529 -2.81493 3.06433 0
M  V30 5695 H 525.405 -4.02822 3.72861 0
M  V30 5696 H 525.666 -3.94603 1.99351 0
M  V30 5697 N 524.725 -1.39134 -0.740242 0
M  V30 5698 C 525.655 -1.40165 -1.86751 0
M  V30 5699 C 526.636 -0.265708 -1.68012 0
M  V30 5700 O 527.821 -0.47076 -1.88408 0
M  V30 5701 C 524.951 -1.2392 -3.2444 0
M  V30 5702 C 523.905 -2.34858 -3.57807 0
M  V30 5703 C 523.231 -2.03707 -4.94376 0
M  V30 5704 C 524.531 -3.77159 -3.61315 0
M  V30 5705 H 526.225 -2.345 -1.86145 0
M  V30 5706 H 523.771 -1.12875 -0.89416 0
M  V30 5707 H 525.724 -1.23263 -4.02969 0
M  V30 5708 H 524.448 -0.26051 -3.25559 0
M  V30 5709 H 523.107 -2.34723 -2.81604 0
M  V30 5710 H 522.755 -1.04289 -4.9207 0
M  V30 5711 H 522.455 -2.78016 -5.17669 0
M  V30 5712 H 523.979 -2.04691 -5.75268 0
M  V30 5713 H 525.393 -3.79252 -4.29931 0
M  V30 5714 H 523.79 -4.50784 -3.96124 0
M  V30 5715 H 524.86 -4.08513 -2.61238 0
M  V30 5716 N 526.204 0.969867 -1.24223 0
M  V30 5717 C 527.167 2.04564 -1.03373 0
M  V30 5718 C 528.167 1.60798 0.00819206 0
M  V30 5719 O 529.357 1.72641 -0.232567 0
M  V30 5720 C 526.489 3.36163 -0.566343 0
M  V30 5721 H 527.682 2.24494 -1.98853 0
M  V30 5722 H 525.235 1.1448 -1.06415 0
M  V30 5723 H 525.97 3.21925 0.391751 0
M  V30 5724 H 525.755 3.69273 -1.31834 0
M  V30 5725 H 527.245 4.1526 -0.441435 0
M  V30 5726 N 527.682 1.05563 1.17022 0
M  V30 5727 C 528.629 0.659893 2.21165 0
M  V30 5728 C 529.599 -0.339813 1.62587 0
M  V30 5729 O 530.784 -0.230378 1.89404 0
M  V30 5730 C 527.924 0.0447297 3.45071 0
M  V30 5731 C 527.037 1.09372 4.17926 0
M  V30 5732 C 526.172 0.445481 5.29329 0
M  V30 5733 C 525.211 1.47852 5.93975 0
M  V30 5734 N 524.348 0.854172 6.96885 0
M  V30 5735 H 529.188 1.55243 2.54369 0
M  V30 5736 H 526.725 0.776336 1.24946 0
M  V30 5737 H 528.683 -0.329404 4.15898 0
M  V30 5738 H 527.313 -0.811244 3.1244 0
M  V30 5739 H 526.365 1.58564 3.45777 0
M  V30 5740 H 527.677 1.87773 4.62107 0
M  V30 5741 H 526.831 0.0179688 6.06697 0
M  V30 5742 H 525.57 -0.370481 4.86291 0
M  V30 5743 H 524.575 1.91601 5.15334 0
M  V30 5744 H 525.8 2.29645 6.39093 0
M  V30 5745 H 523.746 0.0587882 6.55974 0
M  V30 5746 H 523.663 1.57567 7.39397 0
M  V30 5747 H 524.931 0.451559 7.78191 0
M  V30 5748 N 529.16 -1.33526 0.837174 0
M  V30 5749 C 530.07 -2.33023 0.271568 0
M  V30 5750 C 531.086 -1.63272 -0.601514 0
M  V30 5751 O 532.262 -1.94939 -0.506038 0
M  V30 5752 C 529.327 -3.42382 -0.545448 0
M  V30 5753 C 528.388 -4.27857 0.351709 0
M  V30 5754 C 527.621 -5.31994 -0.426409 0
M  V30 5755 O 527.844 -5.45763 -1.65828 0
M  V30 5756 O 526.778 -6.01572 0.1987 0
M  V30 5757 H 530.604 -2.83256 1.09545 0
M  V30 5758 H 528.189 -1.36837 0.599655 0
M  V30 5759 H 530.071 -4.09122 -1.00979 0
M  V30 5760 H 528.746 -2.94369 -1.34641 0
M  V30 5761 H 527.653 -3.6399 0.863853 0
M  V30 5762 H 528.986 -4.79349 1.1174 0
M  V30 5763 N 530.638 -0.59345 -1.46 0
M  V30 5764 C 531.878 -0.0859747 -2.04219 0
M  V30 5765 C 532.242 1.25432 -1.45364 0
M  V30 5766 O 533.443 1.85168 -1.9485 0
M  V30 5767 C 531.714 -0.0324314 -3.57385 0
M  V30 5768 S 533.273 0.415908 -4.36824 0
M  V30 5769 H 530.091 -0.0426872 -0.709717 0
M  V30 5770 H 532.693 -0.788369 -1.78899 0
M  V30 5771 H 531.397 -1.01166 -3.97735 0
M  V30 5772 H 530.928 0.6924 -3.87259 0
M  V30 5773 H 532.943 1.66844 -4.67309 0
M  V30 5774 N 532.116 1.54067 -0.331816 0
M  V30 5775 C 533.364 2.00319 0.267739 0
M  V30 5776 C 533.685 1.22148 1.52003 0
M  V30 5777 O 532.955 0.325494 1.93177 0
M  V30 5778 H 531.535 0.740014 0.101922 0
M  V30 5779 H 534.197 1.89628 -0.450267 0
M  V30 5780 H 533.293 3.07765 0.518385 0
M  V30 5781 N 533.594 0.0601682 1.57485 0
M  V30 5782 C 534.84 -0.612501 1.93329 0
M  V30 5783 C 535.173 -1.6996 0.939526 0
M  V30 5784 O 534.448 -1.94472 -0.0330957 0
M  V30 5785 C 534.731 -1.20025 3.39508 0
M  V30 5786 C 534.584 -0.12059 4.49638 0
M  V30 5787 C 535.903 -2.10923 3.86264 0
M  V30 5788 H 533.022 -0.221185 0.703027 0
M  V30 5789 H 535.664 0.123768 1.89596 0
M  V30 5790 H 533.814 -1.82774 3.42821 0
M  V30 5791 H 535.486 0.51185 4.58452 0
M  V30 5792 H 533.729 0.550251 4.30296 0
M  V30 5793 H 534.4 -0.572019 5.49028 0
M  V30 5794 H 536.876 -1.58124 3.84884 0
M  V30 5795 H 535.752 -2.48987 4.8918 0
M  V30 5796 H 536.013 -3.01292 3.23536 0
M  V30 5797 N 535.072 -1.5615 -0.213296 0
M  V30 5798 C 535.982 -1.96265 -1.28519 0
M  V30 5799 C 536.998 -0.86765 -1.50824 0
M  V30 5800 O 538.174 -1.17191 -1.63793 0
M  V30 5801 C 535.239 -2.27836 -2.61327 0
M  V30 5802 C 534.3 -3.50949 -2.47252 0
M  V30 5803 C 533.533 -3.81004 -3.73727 0
M  V30 5804 O 533.756 -3.12612 -4.77106 0
M  V30 5805 O 532.69 -4.74477 -3.70344 0
M  V30 5806 H 536.516 -2.87631 -0.974795 0
M  V30 5807 H 534.101 -1.43467 -0.416832 0
M  V30 5808 H 535.983 -2.49299 -3.39747 0
M  V30 5809 H 534.658 -1.39643 -2.9203 0
M  V30 5810 H 533.565 -3.34754 -1.67004 0
M  V30 5811 H 534.898 -4.39551 -2.21486 0
M  V30 5812 N 536.55 0.480323 -1.50102 0
M  V30 5813 C 537.498 1.60024 -1.68805 0
M  V30 5814 C 538.492 1.60089 -0.553888 0
M  V30 5815 O 539.698 1.64349 -0.734127 0
M  V30 5816 H 536.073 0.530841 -0.532646 0
M  V30 5817 H 538.044 1.41408 -2.62767 0
M  V30 5818 C 536.793 2.98029 -1.79092 0
M  V30 5819 H 536.116 2.98694 -2.65748 0
M  V30 5820 H 537.556 3.75871 -1.96206 0
M  V30 5821 C 536.015 3.32538 -0.540388 0
M  V30 5822 O 536.545 4.00386 0.324637 0
M  V30 5823 N 534.751 2.87873 -0.397154 0
M  V30 5824 H 534.298 2.32834 -1.1021 0
M  V30 5825 H 534.256 3.11328 0.438425 0
M  V30 5826 N 538.028 1.39524 0.732853 0
M  V30 5827 C 539.277 1.36175 1.48792 0
M  V30 5828 C 539.59 -0.0388195 1.95561 0
M  V30 5829 O 540.796 -0.194899 2.708 0
M  V30 5830 C 539.252 2.39242 2.68871 0
M  V30 5831 C 538.86 3.85024 2.29042 0
M  V30 5832 C 540.604 2.44972 3.46683 0
M  V30 5833 C 538.511 4.79727 3.45856 0
M  V30 5834 H 537.441 0.506267 0.558757 0
M  V30 5835 H 540.092 1.65181 0.799226 0
M  V30 5836 H 538.474 2.0331 3.39825 0
M  V30 5837 H 539.648 4.30008 1.6562 0
M  V30 5838 H 537.963 3.82609 1.64316 0
M  V30 5839 H 540.56 3.12918 4.33574 0
M  V30 5840 H 540.903 1.4749 3.89297 0
M  V30 5841 H 541.436 2.79808 2.82759 0
M  V30 5842 H 538.175 5.78479 3.08289 0
M  V30 5843 H 537.695 4.39421 4.08251 0
M  V30 5844 H 539.374 4.98731 4.12161 0
M  V30 5845 N 539.506 -0.963266 1.24736 0
M  V30 5846 C 540.922 -1.23273 1.01371 0
M  V30 5847 C 541.122 -1.99618 -0.274776 0
M  V30 5848 O 540.178 -2.32293 -0.989769 0
M  V30 5849 C 541.491 -2.01554 2.23152 0
M  V30 5850 C 543.039 -2.14629 2.27823 0
M  V30 5851 C 543.514 -2.96307 3.49237 0
M  V30 5852 N 545.005 -3.03887 3.49581 0
M  V30 5853 C 545.74 -3.67456 4.40186 0
M  V30 5854 N 545.236 -4.32706 5.41052 0
M  V30 5855 N 547.029 -3.64511 4.27888 0
M  V30 5856 H 539.18 -0.452294 2.07528 0
M  V30 5857 H 541.443 -0.262521 0.910926 0
M  V30 5858 H 541.149 -1.52847 3.1675 0
M  V30 5859 H 541.023 -3.02278 2.25628 0
M  V30 5860 H 543.41 -2.62537 1.34753 0
M  V30 5861 H 543.491 -1.13238 2.2937 0
M  V30 5862 H 543.135 -2.49091 4.42624 0
M  V30 5863 H 543.065 -3.97905 3.44933 0
M  V30 5864 H 545.556 -2.57477 2.76611 0
M  V30 5865 H 545.869 -4.79042 6.06415 0
M  V30 5866 H 544.214 -4.31361 5.44934 0
M  V30 5867 H 547.405 -3.12715 3.4832 0
M  V30 5868 H 547.578 -4.13768 4.98698 0
M  V30 5869 N 540.985 -1.06182 -1.16461 0
M  V30 5870 C 542.401 -0.785065 -1.38956 0
M  V30 5871 C 542.601 0.616103 -1.9185 0
M  V30 5872 O 541.657 1.37686 -2.11657 0
M  V30 5873 C 542.97 -1.84902 -2.37132 0
M  V30 5874 C 544.518 -1.8724 -2.50819 0
M  V30 5875 C 544.993 -2.92686 -3.52277 0
M  V30 5876 N 546.484 -2.91712 -3.59803 0
M  V30 5877 C 547.219 -3.69949 -4.38093 0
M  V30 5878 N 546.715 -4.58 -5.19815 0
M  V30 5879 N 548.508 -3.58346 -4.33064 0
M  V30 5880 H 540.659 -1.96569 -0.804634 0
M  V30 5881 H 542.922 -0.851747 -0.416211 0
M  V30 5882 H 542.628 -2.85518 -2.0536 0
M  V30 5883 H 542.502 -1.69908 -3.36766 0
M  V30 5884 H 544.889 -0.872827 -2.81897 0
M  V30 5885 H 544.97 -2.06311 -1.51226 0
M  V30 5886 H 544.614 -3.92835 -3.21937 0
M  V30 5887 H 544.544 -2.70864 -4.51598 0
M  V30 5888 H 547.035 -2.27876 -3.01464 0
M  V30 5889 H 547.348 -5.14357 -5.76764 0
M  V30 5890 H 545.693 -4.62056 -5.19162 0
M  V30 5891 H 548.884 -2.88943 -3.68279 0
M  V30 5892 H 549.057 -4.19563 -4.93833 0
M  V30 5893 N 542.463 1.3308 -0.844243 0
M  V30 5894 C 543.426 2.27403 -0.286485 0
M  V30 5895 C 544.426 1.51179 0.547872 0
M  V30 5896 O 545.616 1.70421 0.360886 0
M  V30 5897 C 542.748 3.35653 0.595813 0
M  V30 5898 H 543.941 2.78248 -1.11885 0
M  V30 5899 H 541.494 1.43574 -0.617749 0
M  V30 5900 H 542.229 2.90058 1.4504 0
M  V30 5901 H 542.014 3.921 -0.00125994 0
M  V30 5902 H 543.504 4.05958 0.979168 0
M  V30 5903 N 543.941 0.601185 1.45683 0
M  V30 5904 C 544.851 -0.123395 2.34275 0
M  V30 5905 C 545.867 -0.86702 1.5086 0
M  V30 5906 O 547.043 -0.826049 1.8368 0
M  V30 5907 C 544.108 -1.11237 3.2837 0
M  V30 5908 C 543.169 -0.371405 4.2769 0
M  V30 5909 C 542.402 -1.31327 5.1729 0
M  V30 5910 O 542.625 -2.55078 5.10188 0
M  V30 5911 O 541.559 -0.813811 5.96373 0
M  V30 5912 H 545.385 0.604483 2.97623 0
M  V30 5913 H 542.97 0.361477 1.44961 0
M  V30 5914 H 544.852 -1.68214 3.8637 0
M  V30 5915 H 543.527 -1.82139 2.67595 0
M  V30 5916 H 542.434 0.24067 3.73325 0
M  V30 5917 H 543.767 0.296998 4.91303 0
M  V30 5918 N 545.419 -1.53889 0.339982 0
M  V30 5919 C 546.644 -2.05741 -0.261798 0
M  V30 5920 C 547.069 -1.21354 -1.43718 0
M  V30 5921 O 546.427 -0.22645 -1.7988 0
M  V30 5922 C 546.475 -3.54542 -0.658228 0
M  V30 5923 O 545.579 -3.7302 -1.75869 0
M  V30 5924 H 544.92 -0.662529 -0.0441672 0
M  V30 5925 H 547.45 -1.98568 0.493161 0
M  V30 5926 H 547.46 -3.9711 -0.936368 0
M  V30 5927 H 546.135 -4.15412 0.201358 0
M  V30 5928 H 544.712 -3.42355 -1.47809 0
M  V30 5929 N 546.897 -0.0685191 -1.57451 0
M  V30 5930 C 547.827 0.89747 -2.15564 0
M  V30 5931 C 548.808 1.31266 -1.08181 0
M  V30 5932 O 549.993 1.38429 -1.36202 0
M  V30 5933 C 547.123 2.16623 -2.71463 0
M  V30 5934 C 546.077 1.89054 -3.83982 0
M  V30 5935 C 545.403 3.22532 -4.26471 0
M  V30 5936 C 546.703 1.1984 -5.08366 0
M  V30 5937 H 548.397 0.413373 -2.96533 0
M  V30 5938 H 545.943 0.197391 -1.42641 0
M  V30 5939 H 547.896 2.84614 -3.10761 0
M  V30 5940 H 546.62 2.67269 -1.8771 0
M  V30 5941 H 545.279 1.23469 -3.45183 0
M  V30 5942 H 544.927 3.71013 -3.39644 0
M  V30 5943 H 544.627 3.04879 -5.02317 0
M  V30 5944 H 546.151 3.91727 -4.68383 0
M  V30 5945 H 547.565 1.77896 -5.45001 0
M  V30 5946 H 545.962 1.12456 -5.89469 0
M  V30 5947 H 547.032 0.176996 -4.84577 0
M  V30 5948 N 548.375 1.56261 0.205012 0
M  V30 5949 C 549.323 1.94631 1.27364 0
M  V30 5950 C 550.317 0.830434 1.47649 0
M  V30 5951 O 551.523 1.01538 1.48627 0
M  V30 5952 H 547.898 0.618755 0.427371 0
M  V30 5953 H 549.869 2.83768 0.922941 0
M  V30 5954 C 548.618 2.29358 2.61324 0
M  V30 5955 H 547.941 3.14744 2.46528 0
M  V30 5956 H 549.381 2.60076 3.34868 0
M  V30 5957 C 547.84 1.12461 3.17575 0
M  V30 5958 O 548.37 0.394407 3.99759 0
M  V30 5959 N 546.576 0.904036 2.7618 0
M  V30 5960 H 546.123 1.49956 2.09454 0
M  V30 5961 H 546.081 0.123662 3.14157 0
M  V30 5962 N 549.853 -0.472356 1.50355 0
M  V30 5963 C 551.101 -1.22211 1.60962 0
M  V30 5964 C 551.422 -1.92497 0.311439 0
M  V30 5965 O 550.692 -1.8405 -0.671002 0
M  V30 5966 H 549.272 -0.454092 0.593135 0
M  V30 5967 H 551.934 -0.544977 1.87126 0
M  V30 5968 H 551.03 -1.9707 2.42012 0
M  V30 5969 N 551.331 -1.39911 -0.725443 0
M  V30 5970 C 552.279 -1.39552 -1.86086 0
M  V30 5971 C 553.273 -0.277334 -1.67114 0
M  V30 5972 O 554.479 -0.447865 -1.74339 0
M  V30 5973 H 550.854 -0.435993 -0.612711 0
M  V30 5974 H 552.825 -2.35305 -1.83505 0
M  V30 5975 C 551.574 -1.26529 -3.2386 0
M  V30 5976 H 550.897 -2.11845 -3.3906 0
M  V30 5977 H 552.337 -1.30336 -4.03471 0
M  V30 5978 C 550.796 0.0254168 -3.3689 0
M  V30 5979 O 551.326 0.992048 -3.89257 0
M  V30 5980 N 549.532 0.0916528 -2.90455 0
M  V30 5981 H 549.079 -0.695675 -2.48028 0
M  V30 5982 H 549.037 0.954745 -2.99553 0
M  V30 5983 N 552.809 0.956637 -1.25245 0
M  V30 5984 C 554.22 1.51569 -1.09012 0
M  V30 5985 C 554.571 1.93322 0.334813 0
M  V30 5986 O 553.696 1.78421 1.22454 0
M  V30 5987 C 554.291 2.75444 -1.97271 0
M  V30 5988 C 552.85 3.27669 -1.8523 0
M  V30 5989 C 551.997 2.00517 -1.91542 0
M  V30 5990 H 554.948 0.773746 -1.3856 0
M  V30 5991 H 554.969 3.4919 -1.51151 0
M  V30 5992 H 554.481 2.45024 -3.00973 0
M  V30 5993 H 552.582 3.62914 -0.844045 0
M  V30 5994 H 552.695 3.9582 -2.69932 0
M  V30 5995 H 551.059 2.15727 -1.35404 0
M  V30 5996 H 551.842 1.72448 -2.96844 0
M  V30 5997 N 554.287 1.06798 1.15896 0
M  V30 5998 C 555.217 0.704677 2.22613 0
M  V30 5999 C 556.198 -0.305252 1.67339 0
M  V30 6000 O 557.383 -0.179247 1.93371 0
M  V30 6001 C 554.513 0.0957325 3.47168 0
M  V30 6002 C 553.467 1.0322 4.15367 0
M  V30 6003 C 552.793 0.286293 5.33933 0
M  V30 6004 C 554.093 2.36341 4.65768 0
M  V30 6005 H 555.787 1.59688 2.53259 0
M  V30 6006 H 553.333 0.769257 1.21731 0
M  V30 6007 H 555.286 -0.170333 4.21056 0
M  V30 6008 H 554.01 -0.831516 3.15838 0
M  V30 6009 H 552.669 1.28309 3.43413 0
M  V30 6010 H 552.317 -0.644237 4.98857 0
M  V30 6011 H 552.017 0.910436 5.80504 0
M  V30 6012 H 553.541 0.0278938 6.10594 0
M  V30 6013 H 554.955 2.1561 5.31211 0
M  V30 6014 H 553.352 2.94299 5.2298 0
M  V30 6015 H 554.422 2.99047 3.81705 0
M  V30 6016 N 555.766 -1.3263 0.851289 0
M  V30 6017 C 557.013 -1.97368 0.453023 0
M  V30 6018 C 557.341 -1.67384 -0.990596 0
M  V30 6019 O 556.596 -0.952665 -1.70947 0
M  V30 6020 C 556.895 -3.51713 0.635015 0
M  V30 6021 C 556.561 -4.01676 2.04859 0
M  V30 6022 C 555.223 -4.15031 2.43522 0
M  V30 6023 C 557.575 -4.28206 2.97135 0
M  V30 6024 C 554.903 -4.52257 3.73739 0
M  V30 6025 C 557.255 -4.66889 4.26846 0
M  V30 6026 C 555.919 -4.7845 4.65448 0
M  V30 6027 H 555.189 -0.722219 0.165773 0
M  V30 6028 H 557.836 -1.58092 1.0807 0
M  V30 6029 H 556.141 -3.91726 -0.0759081 0
M  V30 6030 H 557.838 -3.99823 0.306964 0
M  V30 6031 H 554.428 -3.91764 1.73836 0
M  V30 6032 H 558.612 -4.174 2.68498 0
M  V30 6033 H 553.868 -4.59402 4.03435 0
M  V30 6034 H 558.042 -4.86372 4.98413 0
M  V30 6035 H 555.669 -5.07052 5.66395 0
M  V30 6036 N 557.244 -0.608902 -1.45362 0
M  V30 6037 C 558.469 -0.10921 -2.07112 0
M  V30 6038 C 558.894 1.19779 -1.45033 0
M  V30 6039 O 558.252 1.72961 -0.543527 0
M  V30 6040 C 558.3 0.0155745 -3.60597 0
M  V30 6041 O 557.404 1.06546 -3.98399 0
M  V30 6042 H 556.745 -0.0746619 -0.659789 0
M  V30 6043 H 559.275 -0.839283 -1.86594 0
M  V30 6044 H 559.285 0.213364 -4.07442 0
M  V30 6045 H 557.96 -0.938765 -4.05167 0
M  V30 6046 H 556.537 0.844024 -3.63223 0
M  V30 6047 N 558.722 1.53707 -0.348139 0
M  V30 6048 C 559.669 2.25173 0.506518 0
M  V30 6049 C 560.639 1.25174 1.09182 0
M  V30 6050 O 561.824 1.53917 1.12757 0
M  V30 6051 C 558.964 3.03141 1.64923 0
M  V30 6052 C 558.077 4.18002 1.0908 0
M  V30 6053 C 557.212 4.83447 2.20119 0
M  V30 6054 C 556.251 5.90369 1.61651 0
M  V30 6055 N 555.388 6.49575 2.66451 0
M  V30 6056 H 560.228 2.97799 -0.109452 0
M  V30 6057 H 557.765 1.46953 -0.0657866 0
M  V30 6058 H 559.723 3.46607 2.32205 0
M  V30 6059 H 558.353 2.32803 2.23612 0
M  V30 6060 H 557.405 3.79145 0.308783 0
M  V30 6061 H 558.717 4.94892 0.623178 0
M  V30 6062 H 557.871 5.30008 2.95257 0
M  V30 6063 H 556.61 4.05991 2.70227 0
M  V30 6064 H 555.615 5.43186 0.850209 0
M  V30 6065 H 556.84 6.69735 1.1239 0
M  V30 6066 H 554.786 5.74981 3.15805 0
M  V30 6067 H 554.703 7.21952 2.24325 0
M  V30 6068 H 555.971 7.00789 3.41344 0
M  V30 6069 N 560.2 0.0768682 1.57412 0
M  V30 6070 C 561.163 -0.873949 2.11884 0
M  V30 6071 C 562.163 -1.22301 1.04398 0
M  V30 6072 O 563.353 -1.15545 1.30365 0
M  V30 6073 C 560.485 -2.17575 2.62438 0
M  V30 6074 H 561.678 -0.401278 2.97203 0
M  V30 6075 H 559.231 -0.171904 1.55352 0
M  V30 6076 H 559.966 -2.69368 1.80587 0
M  V30 6077 H 559.751 -1.93534 3.41009 0
M  V30 6078 H 561.241 -2.85631 3.04639 0
M  V30 6079 N 561.678 -1.56367 -0.196722 0
M  V30 6080 C 562.608 -1.97442 -1.24655 0
M  V30 6081 C 563.589 -0.846147 -1.47561 0
M  V30 6082 O 564.774 -1.11035 -1.59326 0
M  V30 6083 C 561.904 -2.31253 -2.59112 0
M  V30 6084 C 560.858 -3.46804 -2.50821 0
M  V30 6085 C 560.184 -3.66286 -3.89536 0
M  V30 6086 C 561.484 -4.8104 -2.03465 0
M  V30 6087 H 563.178 -2.85388 -0.905216 0
M  V30 6088 H 560.724 -1.37304 -0.434002 0
M  V30 6089 H 562.677 -2.58583 -3.32736 0
M  V30 6090 H 561.401 -1.40188 -2.94983 0
M  V30 6091 H 560.06 -3.19563 -1.79653 0
M  V30 6092 H 559.708 -2.72555 -4.22756 0
M  V30 6093 H 559.408 -4.4402 -3.84864 0
M  V30 6094 H 560.932 -3.9599 -4.64784 0
M  V30 6095 H 562.346 -5.07411 -2.66846 0
M  V30 6096 H 560.743 -5.62232 -2.09798 0
M  V30 6097 H 561.813 -4.74732 -0.98781 0
M  V30 6098 N 563.156 0.464375 -1.50603 0
M  V30 6099 C 564.119 1.54393 -1.69397 0
M  V30 6100 C 565.119 1.50566 -0.564504 0
M  V30 6101 O 566.309 1.53066 -0.831645 0
M  V30 6102 C 563.441 2.9401 -1.72543 0
M  V30 6103 H 564.634 1.39044 -2.65719 0
M  V30 6104 H 562.187 0.69122 -1.40185 0
M  V30 6105 H 562.922 3.14795 -0.77938 0
M  V30 6106 H 562.707 2.98195 -2.54602 0
M  V30 6107 H 564.197 3.72375 -1.89015 0
M  V30 6108 N 564.634 1.40294 0.718013 0
M  V30 6109 C 565.911 1.2894 1.47084 0
M  V30 6110 C 566.291 -0.0933625 2.10893 0
M  V30 6111 O 565.639 -1.10598 1.99951 0
M  V30 6112 C 565.849 2.4264 2.50852 0
M  V30 6113 C 567.197 2.8276 3.16752 0
M  V30 6114 O 568.221 2.42215 2.61171 0
M  V30 6115 O 567.08 3.528 4.17366 0
M  V30 6116 H 564.174 0.506236 0.653952 0
M  V30 6117 H 566.72 1.52208 0.750394 0
M  V30 6118 H 565.492 3.35009 2.022 0
M  V30 6119 H 565.115 2.21129 3.30435 0
M  V30 6120 N 566.112 -0.949982 1.2575 0
M  V30 6121 C 567.042 -2.06483 1.09028 0
M  V30 6122 C 568.023 -1.701 -0.00201532 0
M  V30 6123 O 569.208 -1.93469 0.168383 0
M  V30 6124 C 566.338 -3.39899 0.71316 0
M  V30 6125 C 565.292 -3.90309 1.75621 0
M  V30 6126 C 564.618 -5.20274 1.23365 0
M  V30 6127 C 565.918 -4.16169 3.15596 0
M  V30 6128 H 567.612 -2.20731 2.02283 0
M  V30 6129 H 565.158 -1.06066 0.973964 0
M  V30 6130 H 567.111 -4.17346 0.58309 0
M  V30 6131 H 565.835 -3.25602 -0.255091 0
M  V30 6132 H 564.494 -3.15035 1.8748 0
M  V30 6133 H 564.142 -5.02351 0.255491 0
M  V30 6134 H 563.842 -5.54971 1.93082 0
M  V30 6135 H 565.366 -6.00314 1.11607 0
M  V30 6136 H 566.78 -4.84259 3.06864 0
M  V30 6137 H 565.177 -4.62131 3.82825 0
M  V30 6138 H 566.247 -3.22273 3.6231 0
M  V30 6139 N 567.59 -1.07411 -1.15328 0
M  V30 6140 C 568.836 -0.798831 -1.86404 0
M  V30 6141 C 569.169 0.673433 -1.8215 0
M  V30 6142 O 568.444 1.49428 -1.24505 0
M  V30 6143 C 568.727 -1.30846 -3.35487 0
M  V30 6144 C 568.58 -2.84532 -3.4837 0
M  V30 6145 C 569.899 -0.925486 -4.30259 0
M  V30 6146 H 567.018 -0.291659 -0.676834 0
M  V30 6147 H 569.66 -1.332 -1.35491 0
M  V30 6148 H 567.81 -0.854916 -3.78977 0
M  V30 6149 H 569.482 -3.3818 -3.13739 0
M  V30 6150 H 567.725 -3.22699 -2.8991 0
M  V30 6151 H 568.396 -3.15259 -4.53118 0
M  V30 6152 H 570.872 -1.3163 -3.94731 0
M  V30 6153 H 569.748 -1.3094 -5.33053 0
M  V30 6154 H 570.009 0.168525 -4.41779 0
M  V30 6155 N 569.068 1.32177 -0.85831 0
M  V30 6156 C 570.018 2.26307 -0.277307 0
M  V30 6157 C 571.002 1.50123 0.578946 0
M  V30 6158 O 572.194 1.71754 0.427731 0
M  V30 6159 C 569.323 3.39181 0.530232 0
M  V30 6160 C 568.409 4.22746 -0.338613 0
M  V30 6161 N 568.8 4.85265 -1.4266 0
M  V30 6162 C 567.098 4.45813 -0.129 0
M  V30 6163 C 567.799 5.47634 -1.96142 0
M  V30 6164 N 566.775 5.28794 -1.26007 0
M  V30 6165 H 570.577 2.72173 -1.10902 0
M  V30 6166 H 568.091 1.46308 -0.704816 0
M  V30 6167 H 570.088 4.05628 0.962904 0
M  V30 6168 H 568.748 2.9486 1.35969 0
M  V30 6169 H 569.759 4.85259 -1.80953 0
M  V30 6170 H 566.436 4.12163 0.665451 0
M  V30 6171 H 567.826 6.0735 -2.8736 0
M  V30 6172 N 570.547 0.616602 1.45037 0
M  V30 6173 C 571.772 0.120192 2.07051 0
M  V30 6174 C 572.197 -1.19008 1.45666 0
M  V30 6175 O 571.555 -1.7267 0.552692 0
M  V30 6176 C 571.603 0.00354901 3.606 0
M  V30 6177 O 570.707 -1.04431 3.98958 0
M  V30 6178 H 570.048 0.0781599 0.659384 0
M  V30 6179 H 572.578 0.849167 1.86146 0
M  V30 6180 H 572.588 -0.191754 4.07549 0
M  V30 6181 H 571.263 0.960239 4.04663 0
M  V30 6182 H 569.84 -0.824749 3.63665 0
M  V30 6183 N 572.025 -1.5352 0.356285 0
M  V30 6184 C 572.975 -2.22204 -0.510815 0
M  V30 6185 C 573.959 -1.21393 -1.05605 0
M  V30 6186 O 575.151 -1.46883 -0.987639 0
M  V30 6187 C 572.28 -3.00786 -1.65478 0
M  V30 6188 C 571.366 -4.08965 -1.12287 0
M  V30 6189 N 571.757 -5.04829 -0.313191 0
M  V30 6190 C 570.055 -4.23505 -1.39856 0
M  V30 6191 C 570.756 -5.81695 -0.0230322 0
M  V30 6192 N 569.732 -5.40074 -0.618144 0
M  V30 6193 H 573.534 -2.93676 0.114711 0
M  V30 6194 H 571.048 -1.61572 0.163811 0
M  V30 6195 H 573.045 -3.48502 -2.28806 0
M  V30 6196 H 571.705 -2.30843 -2.28345 0
M  V30 6197 H 572.716 -5.17879 0.0468202 0
M  V30 6198 H 569.393 -3.64786 -2.0307 0
M  V30 6199 H 570.783 -6.68931 0.630927 0
M  V30 6200 N 573.503 -0.0852151 -1.57369 0
M  V30 6201 C 574.752 0.580443 -1.93168 0
M  V30 6202 C 575.065 1.6995 -0.968319 0
M  V30 6203 O 576.271 2.42564 -1.21963 0
M  V30 6204 C 574.727 1.08386 -3.43192 0
M  V30 6205 C 574.335 -0.00491388 -4.48 0
M  V30 6206 C 576.079 1.72281 -3.87968 0
M  V30 6207 C 573.986 0.513299 -5.89168 0
M  V30 6208 H 572.916 0.22059 -0.72101 0
M  V30 6209 H 575.567 -0.159621 -1.82804 0
M  V30 6210 H 573.949 1.8773 -3.48674 0
M  V30 6211 H 575.123 -0.780032 -4.5415 0
M  V30 6212 H 573.438 -0.548453 -4.12772 0
M  V30 6213 H 576.035 2.12108 -4.9083 0
M  V30 6214 H 576.378 2.58811 -3.26071 0
M  V30 6215 H 576.911 0.995359 -3.85146 0
M  V30 6216 H 573.65 -0.315153 -6.54742 0
M  V30 6217 H 573.17 1.25564 -5.8651 0
M  V30 6218 H 574.849 0.985433 -6.39451 0
M  V30 6219 N 574.981 1.5647 0.188427 0
M  V30 6220 C 575.913 1.91611 1.25769 0
M  V30 6221 C 576.926 0.807436 1.41366 0
M  V30 6222 O 578.115 1.08586 1.41673 0
M  V30 6223 C 575.215 2.13874 2.6289 0
M  V30 6224 C 574.388 3.45047 2.68815 0
M  V30 6225 C 573.447 3.56342 3.87178 0
M  V30 6226 O 572.473 4.29109 3.73971 0
M  V30 6227 N 573.675 2.89924 5.02916 0
M  V30 6228 H 576.44 2.8393 0.959373 0
M  V30 6229 H 574.001 1.57418 0.378306 0
M  V30 6230 H 575.993 2.18713 3.4051 0
M  V30 6231 H 574.563 1.28022 2.85183 0
M  V30 6232 H 573.783 3.52017 1.77419 0
M  V30 6233 H 575.071 4.31395 2.6977 0
M  V30 6234 H 574.469 2.30644 5.16546 0
M  V30 6235 H 573.026 3.0038 5.78459 0
M  V30 6236 N 576.459 -0.456382 1.50847 0
M  V30 6237 C 577.684 -1.2349 1.66628 0
M  V30 6238 C 578.109 -1.84715 0.355254 0
M  V30 6239 O 577.467 -1.67961 -0.682559 0
M  V30 6240 C 577.515 -2.30865 2.77009 0
M  V30 6241 O 576.619 -3.35882 2.39285 0
M  V30 6242 H 575.96 -0.36266 0.556214 0
M  V30 6243 H 578.49 -0.541374 1.97308 0
M  V30 6244 H 578.5 -2.75949 3.00526 0
M  V30 6245 H 577.175 -1.85677 3.72152 0
M  V30 6246 H 575.752 -2.96406 2.26269 0
M  V30 6247 N 577.937 -1.40673 -0.710563 0
M  V30 6248 C 578.885 -1.41517 -1.84596 0
M  V30 6249 C 579.879 -0.295043 -1.66811 0
M  V30 6250 O 581.085 -0.466331 -1.73854 0
M  V30 6251 H 577.46 -0.442467 -0.608052 0
M  V30 6252 H 579.431 -2.37238 -1.80999 0
M  V30 6253 C 578.18 -1.29957 -3.225 0
M  V30 6254 H 577.503 -2.15429 -3.36794 0
M  V30 6255 H 578.943 -1.34608 -4.02066 0
M  V30 6256 C 577.402 -0.0103164 -3.36898 0
M  V30 6257 O 577.932 0.950707 -3.90288 0
M  V30 6258 N 576.138 0.0608409 -2.90536 0
M  V30 6259 H 575.685 -0.721943 -2.47277 0
M  V30 6260 H 575.643 0.92292 -3.00549 0
M  V30 6261 N 579.415 0.9433 -1.26252 0
M  V30 6262 C 580.325 2.07532 -1.09397 0
M  V30 6263 C 581.341 1.73977 -0.0280449 0
M  V30 6264 O 582.517 2.00067 -0.231337 0
M  V30 6265 C 579.582 3.39002 -0.726523 0
M  V30 6266 C 578.643 3.86353 -1.87163 0
M  V30 6267 C 577.876 5.11549 -1.52162 0
M  V30 6268 O 578.099 5.68834 -0.422385 0
M  V30 6269 O 577.033 5.53889 -2.35565 0
M  V30 6270 H 580.859 2.24658 -2.04359 0
M  V30 6271 H 578.444 1.05988 -1.05295 0
M  V30 6272 H 580.326 4.18 -0.534236 0
M  V30 6273 H 579.001 3.2312 0.193721 0
M  V30 6274 H 577.908 3.0831 -2.11886 0
M  V30 6275 H 579.241 4.06752 -2.77152 0
M  V30 6276 N 580.893 1.08022 1.14757 0
M  V30 6277 C 581.823 0.728248 2.21853 0
M  V30 6278 C 582.804 -0.287486 1.67653 0
M  V30 6279 O 583.989 -0.158727 1.9355 0
M  V30 6280 C 581.119 0.132549 3.47047 0
M  V30 6281 C 580.073 1.07619 4.14249 0
M  V30 6282 C 579.399 0.342907 5.33599 0
M  V30 6283 C 580.699 2.41268 4.63235 0
M  V30 6284 H 582.393 1.62365 2.51551 0
M  V30 6285 H 579.939 0.782125 1.20908 0
M  V30 6286 H 581.892 -0.125665 4.21213 0
M  V30 6287 H 580.616 -0.797971 3.16702 0
M  V30 6288 H 579.275 1.31944 3.42033 0
M  V30 6289 H 578.923 -0.59129 4.99513 0
M  V30 6290 H 578.623 0.971955 5.79506 0
M  V30 6291 H 580.147 0.0926538 6.1053 0
M  V30 6292 H 581.561 2.21232 5.28894 0
M  V30 6293 H 579.958 2.9983 5.19829 0
M  V30 6294 H 581.028 3.03079 3.78512 0
M  V30 6295 N 582.371 -1.3172 0.865308 0
M  V30 6296 C 583.611 -1.98675 0.480365 0
M  V30 6297 C 583.975 -1.66929 -0.948621 0
M  V30 6298 O 585.176 -2.27059 -1.43867 0
M  V30 6299 C 583.447 -3.49972 0.724858 0
M  V30 6300 S 585.006 -4.36598 0.439078 0
M  V30 6301 H 581.824 -0.687967 0.179506 0
M  V30 6302 H 584.426 -1.60215 1.12033 0
M  V30 6303 H 583.13 -3.70567 1.76375 0
M  V30 6304 H 582.661 -3.93335 0.0717173 0
M  V30 6305 H 584.676 -4.90792 -0.730564 0
M  V30 6306 N 583.85 -0.624285 -1.44708 0
M  V30 6307 C 585.075 -0.131171 -2.06985 0
M  V30 6308 C 585.5 1.18234 -1.46295 0
M  V30 6309 O 584.858 1.72375 -0.561842 0
M  V30 6310 C 584.906 -0.0226724 -3.60593 0
M  V30 6311 O 584.01 1.02314 -3.99507 0
M  V30 6312 H 583.351 -0.0816556 -0.65896 0
M  V30 6313 H 585.88 -0.859027 -1.85693 0
M  V30 6314 H 585.891 0.170138 -4.07645 0
M  V30 6315 H 584.566 -0.981685 -4.04148 0
M  V30 6316 H 583.143 0.805452 -3.64097 0
M  V30 6317 N 585.328 1.53329 -0.364422 0
M  V30 6318 C 586.275 2.25698 0.482607 0
M  V30 6319 C 587.245 1.26325 1.07848 0
M  V30 6320 O 588.43 1.55104 1.11119 0
M  V30 6321 C 585.57 3.04873 1.61699 0
M  V30 6322 C 584.683 4.19135 1.0464 0
M  V30 6323 C 583.818 4.85754 2.14979 0
M  V30 6324 C 582.857 5.9205 1.5538 0
M  V30 6325 N 581.994 6.52365 2.59547 0
M  V30 6326 H 586.834 2.97666 -0.141032 0
M  V30 6327 H 584.371 1.46875 -0.0813692 0
M  V30 6328 H 586.329 3.49051 2.28516 0
M  V30 6329 H 584.959 2.35162 2.2113 0
M  V30 6330 H 584.011 3.79451 0.268553 0
M  V30 6331 H 585.323 4.95525 0.570653 0
M  V30 6332 H 584.477 5.3311 2.89619 0
M  V30 6333 H 583.216 4.08834 2.65906 0
M  V30 6334 H 582.221 5.44058 0.792549 0
M  V30 6335 H 583.446 6.7089 1.0528 0
M  V30 6336 H 581.392 5.78298 3.09689 0
M  V30 6337 H 581.309 7.2429 2.16655 0
M  V30 6338 H 582.577 7.0437 3.33892 0
M  V30 6339 N 586.806 0.0935595 1.57322 0
M  V30 6340 C 587.738 -0.895923 2.10964 0
M  V30 6341 C 588.751 -1.24705 1.04654 0
M  V30 6342 O 589.94 -1.20044 1.32105 0
M  V30 6343 C 587.04 -2.20546 2.57318 0
M  V30 6344 C 586.213 -2.0299 3.87445 0
M  V30 6345 C 585.272 -3.17443 4.19662 0
M  V30 6346 O 584.298 -2.91474 4.88909 0
M  V30 6347 N 585.5 -4.43168 3.74943 0
M  V30 6348 H 588.265 -0.437788 2.96485 0
M  V30 6349 H 585.826 -0.0915863 1.61641 0
M  V30 6350 H 587.818 -2.9606 2.75917 0
M  V30 6351 H 586.388 -2.57789 1.76816 0
M  V30 6352 H 585.608 -1.11815 3.78009 0
M  V30 6353 H 586.896 -1.88535 4.7258 0
M  V30 6354 H 586.294 -4.67149 3.19043 0
M  V30 6355 H 584.851 -5.15637 3.987 0
M  V30 6356 N 588.284 -1.56567 -0.180126 0
M  V30 6357 C 589.214 -1.98753 -1.22553 0
M  V30 6358 C 590.195 -0.86175 -1.46656 0
M  V30 6359 O 591.38 -1.12719 -1.58139 0
M  V30 6360 C 588.51 -2.33988 -2.56645 0
M  V30 6361 C 587.464 -3.49445 -2.47128 0
M  V30 6362 C 586.79 -3.70397 -3.8563 0
M  V30 6363 C 588.09 -4.83171 -1.98352 0
M  V30 6364 H 589.784 -2.86332 -0.874896 0
M  V30 6365 H 587.33 -1.37757 -0.419414 0
M  V30 6366 H 589.283 -2.62097 -3.29974 0
M  V30 6367 H 588.007 -1.43309 -2.93479 0
M  V30 6368 H 586.666 -3.2145 -1.76254 0
M  V30 6369 H 586.314 -2.77023 -4.19842 0
M  V30 6370 H 586.014 -4.48077 -3.80132 0
M  V30 6371 H 587.538 -4.00897 -4.60558 0
M  V30 6372 H 588.952 -5.10213 -2.61449 0
M  V30 6373 H 587.349 -5.64425 -2.03823 0
M  V30 6374 H 588.419 -4.75753 -0.937402 0
M  V30 6375 N 589.762 0.448376 -1.51087 0
M  V30 6376 C 590.99 1.22143 -1.66999 0
M  V30 6377 C 591.405 1.85283 -0.362699 0
M  V30 6378 O 590.762 1.70236 0.65772 0
M  V30 6379 C 590.813 2.31357 -2.7777 0
M  V30 6380 O 590.534 1.70801 -4.03434 0
M  V30 6381 C 592.035 3.21836 -3.04855 0
M  V30 6382 H 589.255 0.368558 -0.560719 0
M  V30 6383 H 591.799 0.532618 -1.97442 0
M  V30 6384 H 589.954 2.95973 -2.49958 0
M  V30 6385 H 590.368 2.42895 -4.64868 0
M  V30 6386 H 591.842 3.94627 -3.85971 0
M  V30 6387 H 592.319 3.81949 -2.16821 0
M  V30 6388 H 592.925 2.62933 -3.34285 0
M  V30 6389 N 591.24 1.41047 0.703093 0
M  V30 6390 C 592.17 1.45067 1.82969 0
M  V30 6391 C 593.151 0.31016 1.67248 0
M  V30 6392 O 594.336 0.520548 1.87093 0
M  V30 6393 C 591.466 1.32478 3.2104 0
M  V30 6394 C 590.42 2.44262 3.51454 0
M  V30 6395 C 589.746 2.16742 4.88801 0
M  V30 6396 C 591.046 3.86606 3.51189 0
M  V30 6397 H 592.74 2.39353 1.79863 0
M  V30 6398 H 590.286 1.15206 0.863919 0
M  V30 6399 H 592.239 1.33904 3.99559 0
M  V30 6400 H 590.963 0.346735 3.24754 0
M  V30 6401 H 589.622 2.42107 2.75282 0
M  V30 6402 H 589.27 1.17299 4.89132 0
M  V30 6403 H 588.97 2.91643 5.10116 0
M  V30 6404 H 590.494 2.19872 5.69639 0
M  V30 6405 H 591.908 3.90517 4.19725 0
M  V30 6406 H 590.305 4.61128 3.84033 0
M  V30 6407 H 591.375 4.15296 2.50315 0
M  V30 6408 N 592.718 -0.936591 1.26751 0
M  V30 6409 C 593.943 -1.72288 1.15462 0
M  V30 6410 C 594.368 -1.85915 -0.285887 0
M  V30 6411 O 593.726 -1.35272 -1.20711 0
M  V30 6412 C 593.774 -3.10503 1.83359 0
M  V30 6413 O 592.878 -3.96745 1.1255 0
M  V30 6414 H 592.219 -0.52843 0.402067 0
M  V30 6415 H 594.749 -1.17271 1.67656 0
M  V30 6416 H 594.759 -3.60867 1.90365 0
M  V30 6417 H 593.434 -2.99901 2.88153 0
M  V30 6418 H 592.011 -3.55191 1.13551 0
M  V30 6419 N 594.196 -1.08629 -1.14182 0
M  V30 6420 C 595.436 -0.826884 -1.86928 0
M  V30 6421 C 595.8 0.635808 -1.81167 0
M  V30 6422 O 597.001 1.0108 -2.49071 0
M  V30 6423 C 595.272 -1.33721 -3.31442 0
M  V30 6424 S 596.831 -1.21045 -4.21774 0
M  V30 6425 H 593.649 -0.299286 -0.644941 0
M  V30 6426 H 596.251 -1.38802 -1.37674 0
M  V30 6427 H 594.955 -2.39617 -3.33184 0
M  V30 6428 H 594.486 -0.771839 -3.85754 0
M  V30 6429 H 596.501 -0.156168 -4.95954 0
M  V30 6430 N 595.674 1.31259 -0.872281 0
M  V30 6431 C 597.085 1.78822 -0.536617 0
M  V30 6432 C 597.436 1.71855 0.946594 0
M  V30 6433 O 596.561 1.28769 1.73918 0
M  V30 6434 C 597.156 3.24698 -0.967294 0
M  V30 6435 C 595.715 3.70147 -0.683251 0
M  V30 6436 C 594.862 2.51994 -1.15733 0
M  V30 6437 H 597.813 1.18308 -1.05777 0
M  V30 6438 H 597.834 3.79386 -0.290929 0
M  V30 6439 H 597.346 3.29737 -2.04683 0
M  V30 6440 H 595.447 3.70607 0.384825 0
M  V30 6441 H 595.56 4.62183 -1.2619 0
M  V30 6442 H 593.924 2.48078 -0.577024 0
M  V30 6443 H 594.707 2.59778 -2.24434 0
M  V30 6444 N 597.152 0.631951 1.44375 0
M  V30 6445 C 598.082 -0.0593243 2.33425 0
M  V30 6446 C 599.063 -0.833964 1.48253 0
M  V30 6447 O 600.248 -0.799682 1.76971 0
M  V30 6448 C 597.378 -1.04096 3.31333 0
M  V30 6449 C 596.332 -0.377899 4.26328 0
M  V30 6450 C 595.658 -1.4695 5.14111 0
M  V30 6451 C 596.958 0.716371 5.17364 0
M  V30 6452 H 598.652 0.684287 2.91475 0
M  V30 6453 H 596.198 0.330518 1.40156 0
M  V30 6454 H 598.151 -1.53331 3.92514 0
M  V30 6455 H 596.875 -1.81547 2.71493 0
M  V30 6456 H 595.534 0.0938054 3.6648 0
M  V30 6457 H 595.182 -2.2349 4.50623 0
M  V30 6458 H 594.882 -1.03121 5.78481 0
M  V30 6459 H 596.406 -1.96363 5.78164 0
M  V30 6460 H 597.82 0.307089 5.72477 0
M  V30 6461 H 596.217 1.07784 5.90341 0
M  V30 6462 H 597.287 1.58316 4.58327 0
M  V30 6463 N 598.631 -1.53133 0.372548 0
M  V30 6464 C 599.871 -2.03267 -0.214943 0
M  V30 6465 C 600.235 -1.25362 -1.45425 0
M  V30 6466 O 601.436 -1.65536 -2.11781 0
M  V30 6467 C 599.707 -3.53985 -0.492897 0
M  V30 6468 S 601.266 -4.25977 -1.05307 0
M  V30 6469 H 598.084 -0.708289 -0.062029 0
M  V30 6470 H 600.686 -1.88539 0.517025 0
M  V30 6471 H 599.39 -4.08282 0.416442 0
M  V30 6472 H 598.921 -3.72887 -1.25375 0
M  V30 6473 H 600.936 -4.37731 -2.33679 0
M  V30 6474 N 600.109 -0.101901 -1.5727 0
M  V30 6475 C 601.355 0.561027 -1.94885 0
M  V30 6476 C 601.688 1.6741 -0.984258 0
M  V30 6477 O 600.963 1.94491 -0.0184767 0
M  V30 6478 C 601.246 1.10982 -3.42571 0
M  V30 6479 C 601.099 0.00133418 -4.498 0
M  V30 6480 C 602.418 2.00608 -3.9172 0
M  V30 6481 H 599.537 0.202467 -0.708644 0
M  V30 6482 H 602.179 -0.173992 -1.89202 0
M  V30 6483 H 600.329 1.73621 -3.47546 0
M  V30 6484 H 602.001 -0.63322 -4.56933 0
M  V30 6485 H 600.244 -0.664143 -4.28686 0
M  V30 6486 H 600.915 0.426253 -5.50352 0
M  V30 6487 H 603.391 1.47864 -3.88941 0
M  V30 6488 H 602.267 2.3593 -4.95609 0
M  V30 6489 H 602.528 2.92608 -3.3141 0
M  V30 6490 N 601.587 1.56661 0.17182 0
M  V30 6491 C 602.535 1.97289 1.23207 0
M  V30 6492 C 603.529 0.861566 1.45854 0
M  V30 6493 O 604.735 1.04668 1.4644 0
M  V30 6494 H 601.11 0.627681 0.41415 0
M  V30 6495 H 603.081 2.85662 0.862542 0
M  V30 6496 C 601.83 2.34849 2.564 0
M  V30 6497 H 601.153 3.19903 2.39797 0
M  V30 6498 H 602.593 2.67121 3.29276 0
M  V30 6499 C 601.052 1.19172 3.15119 0
M  V30 6500 O 601.582 0.479113 3.98833 0
M  V30 6501 N 599.788 0.962415 2.74201 0
M  V30 6502 H 599.335 1.54365 2.06226 0
M  V30 6503 H 599.293 0.190272 3.13824 0
M  V30 6504 N 603.065 -0.440357 1.51323 0
M  V30 6505 C 604.476 -1.02032 1.56353 0
M  V30 6506 C 604.827 -1.92382 0.385197 0
M  V30 6507 O 603.952 -2.10583 -0.498373 0
M  V30 6508 C 604.547 -1.85723 2.83359 0
M  V30 6509 C 603.106 -2.38774 2.90971 0
M  V30 6510 C 602.253 -1.17908 2.50984 0
M  V30 6511 H 605.204 -0.221744 1.57143 0
M  V30 6512 H 605.225 -2.71141 2.66951 0
M  V30 6513 H 604.737 -1.19939 3.69102 0
M  V30 6514 H 602.838 -3.08021 2.09651 0
M  V30 6515 H 602.951 -2.71778 3.94555 0
M  V30 6516 H 601.315 -1.52347 2.04114 0
M  V30 6517 H 602.098 -0.537393 3.39068 0
M  V30 6518 N 604.543 -1.41418 -0.695603 0
M  V30 6519 C 605.789 -1.40982 -1.4578 0
M  V30 6520 C 606.122 -0.0187763 -1.94191 0
M  V30 6521 O 605.397 0.95346 -1.69527 0
M  V30 6522 C 605.68 -2.41657 -2.66972 0
M  V30 6523 C 605.533 -3.89869 -2.24327 0
M  V30 6524 C 606.852 -2.39589 -3.69168 0
M  V30 6525 H 603.971 -0.513405 -0.528757 0
M  V30 6526 H 606.613 -1.72693 -0.792275 0
M  V30 6527 H 604.763 -2.14746 -3.23754 0
M  V30 6528 H 606.435 -4.27683 -1.72872 0
M  V30 6529 H 604.678 -4.04737 -1.56111 0
M  V30 6530 H 605.349 -4.55857 -3.11285 0
M  V30 6531 H 607.825 -2.63471 -3.2206 0
M  V30 6532 H 606.701 -3.12044 -4.51575 0
M  V30 6533 H 606.962 -1.41447 -4.18862 0
M  V30 6534 N 606.021 0.929856 -1.27246 0
M  V30 6535 C 607.261 1.6919 -1.14691 0
M  V30 6536 C 607.625 1.896 0.302621 0
M  V30 6537 O 608.826 2.63102 0.550543 0
M  V30 6538 C 607.097 3.02291 -1.9067 0
M  V30 6539 S 608.656 3.93436 -1.94303 0
M  V30 6540 H 605.474 0.581248 -0.409477 0
M  V30 6541 H 608.076 1.10722 -1.61124 0
M  V30 6542 H 606.78 2.85125 -2.95181 0
M  V30 6543 H 606.311 3.65813 -1.44723 0
M  V30 6544 H 608.326 4.85224 -1.0379 0
M  V30 6545 N 607.499 1.09233 1.13605 0
M  V30 6546 C 608.915 0.82163 1.36826 0
M  V30 6547 C 609.115 -0.565021 1.93416 0
M  V30 6548 O 608.171 -1.32026 2.15234 0
M  V30 6549 C 609.484 1.91124 2.32147 0
M  V30 6550 C 611.032 1.93824 2.45767 0
M  V30 6551 C 611.507 3.01923 3.44393 0
M  V30 6552 N 612.998 3.01149 3.51942 0
M  V30 6553 C 613.733 3.81434 4.2813 0
M  V30 6554 N 613.229 4.71621 5.07489 0
M  V30 6555 N 615.022 3.69702 4.23411 0
M  V30 6556 H 607.173 1.98633 0.752234 0
M  V30 6557 H 609.436 0.862482 0.393482 0
M  V30 6558 H 609.142 2.90862 1.97717 0
M  V30 6559 H 609.016 1.78777 3.32142 0
M  V30 6560 H 611.403 0.94726 2.79483 0
M  V30 6561 H 611.484 2.10248 1.45703 0
M  V30 6562 H 611.128 4.01232 3.11408 0
M  V30 6563 H 611.058 2.82742 4.44257 0
M  V30 6564 H 613.549 2.35789 2.95317 0
M  V30 6565 H 613.862 5.29468 5.62924 0
M  V30 6566 H 612.207 4.75658 5.06729 0
M  V30 6567 H 615.398 2.98606 3.60489 0
M  V30 6568 H 615.571 4.32509 4.82535 0
M  V30 6569 N 608.977 -1.30795 0.87923 0
M  V30 6570 C 609.887 -2.32041 0.345565 0
M  V30 6571 C 610.903 -1.65103 -0.549265 0
M  V30 6572 O 612.079 -1.9645 -0.443763 0
M  V30 6573 C 609.144 -3.43944 -0.436245 0
M  V30 6574 C 608.205 -4.26521 0.48765 0
M  V30 6575 C 607.438 -5.33081 -0.256943 0
M  V30 6576 O 607.661 -5.50762 -1.48381 0
M  V30 6577 O 606.595 -6.00635 0.389985 0
M  V30 6578 H 610.421 -2.79627 1.18501 0
M  V30 6579 H 608.006 -1.3486 0.642885 0
M  V30 6580 H 609.888 -4.12128 -0.879119 0
M  V30 6581 H 608.563 -2.98504 -1.25208 0
M  V30 6582 H 607.47 -3.61057 0.979216 0
M  V30 6583 H 608.803 -4.75551 1.26933 0
M  V30 6584 N 610.455 -0.639598 -1.44038 0
M  V30 6585 C 611.683 -0.154811 -2.0632 0
M  V30 6586 C 612.098 1.17406 -1.47856 0
M  V30 6587 O 611.455 1.72193 -0.604638 0
M  V30 6588 C 611.506 -0.0429958 -3.61474 0
M  V30 6589 O 611.227 -1.31932 -4.17763 0
M  V30 6590 C 612.728 0.469486 -4.40807 0
M  V30 6591 H 609.948 -0.0835862 -0.665773 0
M  V30 6592 H 612.492 -0.876397 -1.84769 0
M  V30 6593 H 610.647 0.629075 -3.82258 0
M  V30 6594 H 611.061 -1.16965 -5.11292 0
M  V30 6595 H 612.535 0.496712 -5.49761 0
M  V30 6596 H 613.012 1.49819 -4.12857 0
M  V30 6597 H 613.618 -0.169624 -4.24962 0
M  V30 6598 N 611.933 1.52934 -0.380664 0
M  V30 6599 C 612.88 2.26197 0.458641 0
M  V30 6600 C 613.85 1.27462 1.06502 0
M  V30 6601 O 615.035 1.56274 1.09467 0
M  V30 6602 C 612.175 3.06571 1.58456 0
M  V30 6603 C 611.288 4.20222 1.00189 0
M  V30 6604 C 610.423 4.88007 2.09815 0
M  V30 6605 C 609.462 5.93665 1.49092 0
M  V30 6606 N 608.599 6.55081 2.52613 0
M  V30 6607 H 613.439 2.975 -0.172595 0
M  V30 6608 H 610.976 1.4678 -0.0969426 0
M  V30 6609 H 612.934 3.51455 2.24801 0
M  V30 6610 H 611.564 2.37494 2.18624 0
M  V30 6611 H 610.616 3.79714 0.228292 0
M  V30 6612 H 611.928 4.96102 0.518064 0
M  V30 6613 H 611.082 5.36151 2.83948 0
M  V30 6614 H 609.821 4.11632 2.61555 0
M  V30 6615 H 608.826 5.44868 0.7348 0
M  V30 6616 H 610.051 6.71969 0.981582 0
M  V30 6617 H 607.997 5.8155 3.03538 0
M  V30 6618 H 607.914 7.26548 2.08961 0
M  V30 6619 H 609.182 7.07871 3.26402 0
M  V30 6620 N 613.412 0.11024 1.57214 0
M  V30 6621 C 614.637 -0.561179 1.99664 0
M  V30 6622 C 615.062 -1.59985 0.989266 0
M  V30 6623 O 614.42 -1.81255 -0.0402399 0
M  V30 6624 C 614.468 -1.17189 3.41027 0
M  V30 6625 O 613.572 -2.28755 3.4314 0
M  V30 6626 H 612.913 -0.14101 0.648855 0
M  V30 6627 H 615.443 0.196128 2.03658 0
M  V30 6628 H 615.453 -1.50954 3.79047 0
M  V30 6629 H 614.128 -0.411041 4.13864 0
M  V30 6630 H 612.705 -1.96495 3.16929 0
M  V30 6631 N 614.89 -1.56749 -0.16351 0
M  V30 6632 C 616.137 -1.82434 -0.878866 0
M  V30 6633 C 616.465 -0.688557 -1.81904 0
M  V30 6634 O 615.72 0.323644 -1.93005 0
M  V30 6635 C 616.019 -3.14342 -1.70071 0
M  V30 6636 C 615.685 -4.41647 -0.908775 0
M  V30 6637 C 614.347 -4.76224 -0.690236 0
M  V30 6638 C 616.699 -5.19998 -0.353815 0
M  V30 6639 C 614.027 -5.86624 0.0942374 0
M  V30 6640 C 616.379 -6.3122 0.41761 0
M  V30 6641 C 615.043 -6.64358 0.646879 0
M  V30 6642 H 614.313 -0.667574 -0.3216 0
M  V30 6643 H 616.96 -1.90963 -0.14337 0
M  V30 6644 H 615.265 -3.0119 -2.50583 0
M  V30 6645 H 616.962 -3.31426 -2.25738 0
M  V30 6646 H 613.552 -4.1453 -1.08916 0
M  V30 6647 H 617.736 -4.93673 -0.509975 0
M  V30 6648 H 612.992 -6.10751 0.281529 0
M  V30 6649 H 617.166 -6.91133 0.854849 0
M  V30 6650 H 614.793 -7.49742 1.25662 0
M  V30 6651 N 616.368 0.432326 -1.51554 0
M  V30 6652 C 617.615 1.18134 -1.64471 0
M  V30 6653 C 617.943 1.91076 -0.363349 0
M  V30 6654 O 617.198 1.84492 0.65279 0
M  V30 6655 C 617.497 2.21907 -2.80164 0
M  V30 6656 C 617.163 1.65941 -4.19255 0
M  V30 6657 C 615.825 1.50401 -4.57092 0
M  V30 6658 C 618.177 1.24843 -5.06027 0
M  V30 6659 C 615.505 0.922443 -5.79403 0
M  V30 6660 C 617.857 0.68113 -6.28922 0
M  V30 6661 C 616.521 0.512673 -6.65528 0
M  V30 6662 H 615.791 0.432283 -0.601841 0
M  V30 6663 H 618.438 0.471701 -1.856 0
M  V30 6664 H 616.743 2.98928 -2.53277 0
M  V30 6665 H 618.44 2.79691 -2.87357 0
M  V30 6666 H 615.03 1.79014 -3.89425 0
M  V30 6667 H 619.214 1.35667 -4.77397 0
M  V30 6668 H 614.47 0.779733 -6.06408 0
M  V30 6669 H 618.644 0.35418 -6.95499 0
M  V30 6670 H 616.271 0.0599084 -7.60176 0
M  V30 6671 N 617.846 1.41785 0.688094 0
M  V30 6672 C 619.074 1.44915 1.47673 0
M  V30 6673 C 619.489 0.0565786 1.88715 0
M  V30 6674 O 618.846 -0.92579 1.57275 0
M  V30 6675 C 618.897 2.36452 2.73446 0
M  V30 6676 O 618.618 3.7029 2.34131 0
M  V30 6677 C 620.119 2.48463 3.67125 0
M  V30 6678 H 617.339 0.493324 0.454832 0
M  V30 6679 H 619.883 1.86153 0.846594 0
M  V30 6680 H 618.038 1.98502 3.3268 0
M  V30 6681 H 618.452 4.19183 3.15255 0
M  V30 6682 H 619.926 3.16662 4.52138 0
M  V30 6683 H 620.403 1.51826 4.12123 0
M  V30 6684 H 621.009 2.8708 3.13792 0
M  V30 6685 N 619.324 -0.923095 1.27737 0
M  V30 6686 C 620.549 -1.71054 1.17283 0
M  V30 6687 C 620.974 -1.86208 -0.266153 0
M  V30 6688 O 620.332 -1.36545 -1.1927 0
M  V30 6689 C 620.38 -3.0854 1.86642 0
M  V30 6690 O 619.484 -3.95528 1.16752 0
M  V30 6691 H 618.825 -0.524136 0.407649 0
M  V30 6692 H 621.355 -1.15487 1.6889 0
M  V30 6693 H 621.365 -3.58828 1.94182 0
M  V30 6694 H 620.04 -2.96828 2.91317 0
M  V30 6695 H 618.617 -3.53967 1.17312 0
M  V30 6696 N 620.802 -1.09834 -1.13024 0
M  V30 6697 C 621.734 -0.699379 -2.18269 0
M  V30 6698 C 622.747 0.260841 -1.60697 0
M  V30 6699 O 623.936 0.0462538 -1.7844 0
M  V30 6700 C 621.036 -0.0104537 -3.38898 0
M  V30 6701 C 620.209 -0.993275 -4.25973 0
M  V30 6702 C 619.268 -0.336982 -5.2512 0
M  V30 6703 O 618.294 -0.985892 -5.60597 0
M  V30 6704 N 619.496 0.90716 -5.73368 0
M  V30 6705 H 622.261 -1.60486 -2.5311 0
M  V30 6706 H 619.822 -0.986337 -1.28386 0
M  V30 6707 H 621.814 0.43991 -4.02302 0
M  V30 6708 H 620.384 0.797335 -3.0226 0
M  V30 6709 H 619.604 -1.62208 -3.5928 0
M  V30 6710 H 620.892 -1.65876 -4.81002 0
M  V30 6711 H 620.29 1.45384 -5.46699 0
M  V30 6712 H 618.847 1.30077 -6.38689 0
M  V30 6713 N 622.28 1.30327 -0.886154 0
M  V30 6714 C 623.212 2.27079 -0.311072 0
M  V30 6715 C 624.225 1.53758 0.53502 0
M  V30 6716 O 625.414 1.74947 0.354378 0
M  V30 6717 C 622.514 3.33965 0.576228 0
M  V30 6718 C 621.687 4.36735 -0.241064 0
M  V30 6719 C 620.746 5.23028 0.576916 0
M  V30 6720 O 619.772 5.692 -0.000802231 0
M  V30 6721 N 620.974 5.49016 1.88579 0
M  V30 6722 H 623.739 2.77065 -1.14259 0
M  V30 6723 H 621.3 1.43519 -0.749258 0
M  V30 6724 H 623.292 3.88618 1.12953 0
M  V30 6725 H 621.862 2.839 1.30842 0
M  V30 6726 H 621.082 3.81932 -0.975805 0
M  V30 6727 H 622.37 5.02451 -0.801272 0
M  V30 6728 H 621.768 5.13288 2.37806 0
M  V30 6729 H 620.325 6.06539 2.38651 0
M  V30 6730 N 623.758 0.647228 1.43697 0
M  V30 6731 C 624.688 -0.0345631 2.33474 0
M  V30 6732 C 625.669 -0.818193 1.4913 0
M  V30 6733 O 626.854 -0.780867 1.77809 0
M  V30 6734 C 623.984 -1.00576 3.32418 0
M  V30 6735 C 622.938 -0.33266 4.26705 0
M  V30 6736 C 622.264 -1.41489 5.1564 0
M  V30 6737 C 623.564 0.771204 5.16575 0
M  V30 6738 H 625.258 0.715163 2.90733 0
M  V30 6739 H 622.804 0.345364 1.39797 0
M  V30 6740 H 624.757 -1.49159 3.94119 0
M  V30 6741 H 623.481 -1.78657 2.73403 0
M  V30 6742 H 622.14 0.13267 3.6636 0
M  V30 6743 H 621.788 -2.18698 4.52968 0
M  V30 6744 H 621.488 -0.969799 5.79542 0
M  V30 6745 H 623.012 -1.9022 5.80214 0
M  V30 6746 H 624.426 0.36779 5.72119 0
M  V30 6747 H 622.823 1.1404 5.89165 0
M  V30 6748 H 623.893 1.63169 4.56622 0
M  V30 6749 O 625.275 -1.52523 0.530952 0
M  V30 6750 H 625.966 -1.93688 0.0212942 0
M  V30 END ATOM
M  V30 BEGIN BOND
M  V30 END BOND
M  V30 END CTAB
M  END
$$$$
